
#######################################################################
#
#                 Cambridge Crystallographic Data Centre
#                                CCDC 
#
#######################################################################
#
# If this CIF has been generated from an entry in the Cambridge 
# Structural Database, then it will include bibliographic, chemical, 
# crystal, experimental, refinement or atomic coordinate data resulting 
# from the CCDC's data processing and validation procedures.
#
#######################################################################

data_WAXVEZ
_chemical_formula_moiety         'C21 H24 N3 O7 P1'
_chemical_name_systematic        
'diethyl ((6-methoxy-2-oxo-1,2-dihydroquinolin-3-yl)((4-nitrophenyl)amino)methyl)phosphonate'
_chemical_properties_biological  'antitumour activity'
_symmetry_cell_setting           triclinic
_symmetry_space_group_name_H-M   'P -1'
_symmetry_Int_Tables_number      2
_space_group_name_Hall           '-P 1'
loop_
_symmetry_equiv_pos_site_id
_symmetry_equiv_pos_as_xyz
1 x,y,z
2 -x,-y,-z
_cell_length_a                   8.0905(8)
_cell_length_b                   11.3328(17)
_cell_length_c                   11.780(4)
_cell_angle_alpha                91.967(17)
_cell_angle_beta                 90.537(14)
_cell_angle_gamma                99.464(10)
_cell_volume                     1064.63
_cell_formula_units_Z            2
loop_
_atom_site_label
_atom_site_type_symbol
_atom_site_fract_x
_atom_site_fract_y
_atom_site_fract_z
P1 P 0.81894(13) 0.13782(10) 0.02135(10)
O1 O 0.7724(3) 0.0226(2) -0.0386(2)
O2 O 0.6748(3) 0.2127(3) 0.0463(3)
O3 O 0.9515(3) 0.2291(2) -0.0408(3)
O4 O 0.1240(3) -0.2226(3) 0.3734(3)
O5 O 1.0416(3) 0.0637(3) 0.3633(2)
O6 O 1.6192(3) 0.5689(3) 0.3916(3)
O7 O 1.7264(3) 0.4257(3) 0.3123(3)
N1 N 0.7994(3) -0.0425(3) 0.4249(3)
H1 H 0.8514 -0.0584 0.4850
N2 N 0.9594(4) 0.2500(3) 0.2121(3)
H2 H 0.8814 0.2907 0.2280
N3 N 1.6043(4) 0.4748(4) 0.3362(3)
C1 C 0.6004(8) 0.2763(6) -0.0403(5)
H3 H 0.4796 0.2635 -0.0326
H4 H 0.6261 0.2463 -0.1151
C2 C 0.6672(11) 0.4050(6) -0.0278(8)
H5 H 0.6207 0.4468 -0.0865
H6 H 0.7870 0.4170 -0.0338
H7 H 0.6375 0.4349 0.0451
C3 C 1.0732(5) 0.1920(4) -0.1187(4)
H8 H 1.0159 0.1423 -0.1805
H9 H 1.1449 0.1456 -0.0793
C4 C 1.1747(6) 0.2999(5) -0.1640(5)
H10 H 1.2550 0.2766 -0.2161
H11 H 1.2324 0.3479 -0.1025
H12 H 1.1028 0.3454 -0.2027
C5 C 0.0361(5) -0.2957(4) 0.4570(4)
H13 H -0.0797 -0.3167 0.4347
H14 H 0.0446 -0.2523 0.5289
H15 H 0.0842 -0.3671 0.4638
C6 C 0.2907(4) -0.1793(4) 0.3915(4)
C7 C 0.3681(4) -0.1082(4) 0.3098(4)
H16 H 0.3065 -0.0904 0.2475
C8 C 0.5421(4) -0.0611(3) 0.3191(3)
C9 C 0.6308(4) 0.0115(3) 0.2357(3)
H17 H 0.5727 0.0307 0.1723
C10 C 0.7980(4) 0.0535(3) 0.2462(3)
C11 C 0.8889(4) 0.0260(3) 0.3483(3)
C12 C 0.6302(4) -0.0894(3) 0.4148(3)
C13 C 0.5500(5) -0.1603(4) 0.4973(4)
H18 H 0.6101 -0.1770 0.5609
C14 C 0.3812(5) -0.2068(4) 0.4865(4)
H19 H 0.3283 -0.2557 0.5417
C15 C 0.9063(4) 0.1313(3) 0.1639(3)
H20 H 1.0083 0.0960 0.1546
C16 C 1.1201(5) 0.3054(4) 0.2354(3)
C17 C 1.2611(5) 0.2522(4) 0.2077(4)
H21 H 1.2476 0.1789 0.1677
C18 C 1.4184(5) 0.3093(4) 0.2400(4)
H22 H 1.5112 0.2742 0.2216
C19 C 1.4405(4) 0.4171(4) 0.2989(4)
C20 C 1.3030(5) 0.4727(4) 0.3238(4)
H23 H 1.3178 0.5468 0.3622
C21 C 1.1460(5) 0.4168(4) 0.2909(4)
H24 H 1.0545 0.4546 0.3062
loop_
_geom_bond_atom_site_label_1
_geom_bond_atom_site_label_2
_geom_bond_site_symmetry_1
_geom_bond_site_symmetry_2
P1 O1 1_555 1_555
O2 P1 1_555 1_555
O3 P1 1_555 1_555
O4 C5 1_555 1_555
O5 C11 1_555 1_555
O6 N3 1_555 1_555
O7 N3 1_555 1_555
N1 H1 1_555 1_555
N2 H2 1_555 1_555
N3 C19 1_555 1_555
C1 O2 1_555 1_555
H3 C1 1_555 1_555
H4 C1 1_555 1_555
C2 C1 1_555 1_555
H5 C2 1_555 1_555
H6 C2 1_555 1_555
H7 C2 1_555 1_555
C3 O3 1_555 1_555
H8 C3 1_555 1_555
H9 C3 1_555 1_555
C4 C3 1_555 1_555
H10 C4 1_555 1_555
H11 C4 1_555 1_555
H12 C4 1_555 1_555
C5 H13 1_555 1_555
H14 C5 1_555 1_555
H15 C5 1_555 1_555
C6 O4 1_555 1_555
C7 C6 1_555 1_555
H16 C7 1_555 1_555
C8 C7 1_555 1_555
C9 C8 1_555 1_555
H17 C9 1_555 1_555
C10 C9 1_555 1_555
C11 N1 1_555 1_555
C12 N1 1_555 1_555
C13 C12 1_555 1_555
H18 C13 1_555 1_555
C14 C6 1_555 1_555
H19 C14 1_555 1_555
C15 P1 1_555 1_555
H20 C15 1_555 1_555
C16 N2 1_555 1_555
C17 C16 1_555 1_555
H21 C17 1_555 1_555
C18 C17 1_555 1_555
H22 C18 1_555 1_555
C19 C18 1_555 1_555
C20 C19 1_555 1_555
H23 C20 1_555 1_555
C21 C16 1_555 1_555
H24 C21 1_555 1_555
N2 C15 1_555 1_555
C8 C12 1_555 1_555
C10 C11 1_555 1_555
C10 C15 1_555 1_555
C13 C14 1_555 1_555
C20 C21 1_555 1_555

#END
