
#######################################################################
#
#                 Cambridge Crystallographic Data Centre
#                                CCDC 
#
#######################################################################
#
# If this CIF has been generated from an entry in the Cambridge 
# Structural Database, then it will include bibliographic, chemical, 
# crystal, experimental, refinement or atomic coordinate data resulting 
# from the CCDC's data processing and validation procedures.
#
#######################################################################

data_WAYQEV
_chemical_formula_moiety         'C25 H21 N3 O3'
_chemical_name_systematic        
2-(4-(diethylamino)-2-hydroxyphenyl)-1H-anthra[1,2-d]imidazole-6,11-dione
_symmetry_cell_setting           monoclinic
_symmetry_space_group_name_H-M   'P 21/n'
_symmetry_Int_Tables_number      14
_space_group_name_Hall           '-P 2yn'
loop_
_symmetry_equiv_pos_site_id
_symmetry_equiv_pos_as_xyz
1 x,y,z
2 1/2-x,1/2+y,1/2-z
3 -x,-y,-z
4 1/2+x,1/2-y,1/2+z
_cell_length_a                   7.9770(12)
_cell_length_b                   27.642(4)
_cell_length_c                   9.1543(13)
_cell_angle_alpha                90
_cell_angle_beta                 107.212(3)
_cell_angle_gamma                90
_cell_volume                     1928.13
_exptl_crystal_colour            'dark red'
_exptl_crystal_description       Block
_cell_formula_units_Z            4
loop_
_atom_site_label
_atom_site_type_symbol
_atom_site_fract_x
_atom_site_fract_y
_atom_site_fract_z
O1 O 0.56220(15) 0.48363(4) 0.18719(14)
O2 O 0.28664(16) 0.63579(5) 0.68888(14)
H1 H 0.2360(11) 0.6140(6) 0.632(2)
O3 O -0.09109(16) 0.40906(5) -0.02848(15)
N1 N 0.44480(19) 0.54562(5) 0.38046(16)
N2 N 0.23140(18) 0.57020(5) 0.47629(15)
N3 N 0.8294(2) 0.72052(5) 0.85038(17)
C1 C 0.2997(2) 0.51827(6) 0.30897(18)
C2 C 0.2705(2) 0.48221(6) 0.19660(17)
C3 C 0.2034(2) 0.40794(6) -0.03455(18)
C4 C 0.1009(2) 0.46227(6) 0.14681(18)
C5 C 0.0579(2) 0.42515(6) 0.02385(18)
C6 C 0.5062(2) 0.40889(6) -0.03501(18)
H2 H 0.6194(2) 0.42123(6) 0.00146(18)
C7 C 0.3733(2) 0.42681(6) 0.02074(18)
C8 C 0.5127(2) 0.61232(6) 0.57541(17)
C9 C 0.1664(2) 0.53392(6) 0.37048(18)
C10 C 0.4142(2) 0.46573(6) 0.13838(18)
C11 C 0.6872(2) 0.62013(6) 0.57547(19)
H3 H 0.7327(2) 0.60108(6) 0.51251(19)
C12 C 0.3983(2) 0.57670(6) 0.47918(18)
C13 C 0.1660(2) 0.37198(6) -0.14716(19)
H4 H 0.0525(2) 0.35993(6) -0.18530(19)
C14 C -0.0006(2) 0.51321(6) 0.32057(19)
H5 H -0.0888(2) 0.52308(6) 0.36133(19)
C15 C 0.7281(2) 0.68496(6) 0.76186(18)
C16 C 0.4501(2) 0.64118(6) 0.67621(18)
C17 C 0.2991(2) 0.35441(6) -0.2016(2)
H6 H 0.2748(2) 0.33040(6) -0.2762(2)
C18 C -0.0319(2) 0.47764(6) 0.20897(18)
H7 H -0.1427(2) 0.46366(6) 0.17451(18)
C19 C 0.5556(2) 0.67658(6) 0.76570(18)
H8 H 0.5109(2) 0.69527(6) 0.83000(18)
C20 C 0.7930(2) 0.65479(6) 0.66490(19)
H9 H 0.9078(2) 0.65853(6) 0.66195(19)
C21 C 0.4691(2) 0.37259(6) -0.14513(19)
H10 H 0.5580(2) 0.36039(6) -0.18121(19)
C22 C 0.7655(2) 0.74897(6) 0.9572(2)
H11 H 0.7020(14) 0.72803(13) 1.0075(16)
H12 H 0.8647(7) 0.7614(3) 1.0377(12)
C23 C 0.6474(3) 0.79102(7) 0.8814(2)
H13 H 0.7133(6) 0.8133(3) 0.8397(15)
H14 H 0.5500(11) 0.77888(9) 0.8008(11)
H15 H 0.6048(16) 0.8073(3) 0.9560(4)
C24 C 0.9952(2) 0.73683(7) 0.8289(2)
H16 H 0.9952(3) 0.7298(6) 0.7251(4)
H17 H 1.0032(2) 0.77176(8) 0.8388(17)
C25 C 1.1566(3) 0.71384(8) 0.9413(2)
H18 H 1.1557(11) 0.7203(5) 1.0441(2)
H19 H 1.1546(11) 0.67952(10) 0.9248(12)
H20 H 1.2609(3) 0.7273(4) 0.9257(12)
H21 H 0.546(3) 0.5453(8) 0.358(3)
loop_
_geom_bond_atom_site_label_1
_geom_bond_atom_site_label_2
_geom_bond_site_symmetry_1
_geom_bond_site_symmetry_2
O1 C10 1_555 1_555
O2 H1 1_555 1_555
O3 C5 1_555 1_555
N1 C1 1_555 1_555
N2 C9 1_555 1_555
N3 C15 1_555 1_555
C1 C2 1_555 1_555
C2 C4 1_555 1_555
C3 C5 1_555 1_555
C4 C5 1_555 1_555
C6 H2 1_555 1_555
C7 C3 1_555 1_555
C8 C11 1_555 1_555
C9 C1 1_555 1_555
C10 C2 1_555 1_555
C11 H3 1_555 1_555
C12 N1 1_555 1_555
C13 C3 1_555 1_555
H4 C13 1_555 1_555
C14 C9 1_555 1_555
H5 C14 1_555 1_555
C15 C19 1_555 1_555
C16 O2 1_555 1_555
C17 C13 1_555 1_555
H6 C17 1_555 1_555
C18 C4 1_555 1_555
H7 C18 1_555 1_555
C19 C16 1_555 1_555
H8 C19 1_555 1_555
C20 C11 1_555 1_555
H9 C20 1_555 1_555
C21 C6 1_555 1_555
H10 C21 1_555 1_555
C22 N3 1_555 1_555
H11 C22 1_555 1_555
H12 C22 1_555 1_555
C23 C22 1_555 1_555
H13 C23 1_555 1_555
H14 C23 1_555 1_555
H15 C23 1_555 1_555
C24 N3 1_555 1_555
H16 C24 1_555 1_555
H17 C24 1_555 1_555
C25 C24 1_555 1_555
H18 C25 1_555 1_555
H19 C25 1_555 1_555
H20 C25 1_555 1_555
H21 N1 1_555 1_555
N2 C12 1_555 1_555
C6 C7 1_555 1_555
C7 C10 1_555 1_555
C8 C12 1_555 1_555
C8 C16 1_555 1_555
C14 C18 1_555 1_555
C15 C20 1_555 1_555
C17 C21 1_555 1_555

#END
