
#######################################################################
#
#                 Cambridge Crystallographic Data Centre
#                                CCDC 
#
#######################################################################
#
# If this CIF has been generated from an entry in the Cambridge 
# Structural Database, then it will include bibliographic, chemical, 
# crystal, experimental, refinement or atomic coordinate data resulting 
# from the CCDC's data processing and validation procedures.
#
#######################################################################

data_WEBCEN
_chemical_formula_moiety         'C22 H16 F6 N2 O4'
_chemical_name_systematic        
'Methyl 2-(2-(((3,6-bis(trifluoromethyl)quinoxalin-2-yl)oxy)methyl)phenyl)-3-methoxyacrylate'
_symmetry_cell_setting           monoclinic
_symmetry_space_group_name_H-M   'P 21/c'
_symmetry_Int_Tables_number      14
_space_group_name_Hall           '-P 2ybc'
loop_
_symmetry_equiv_pos_site_id
_symmetry_equiv_pos_as_xyz
1 x,y,z
2 -x,1/2+y,1/2-z
3 -x,-y,-z
4 x,1/2-y,1/2+z
_cell_length_a                   26.035(3)
_cell_length_b                   9.9696(10)
_cell_length_c                   8.1960(8)
_cell_angle_alpha                90
_cell_angle_beta                 95.412(2)
_cell_angle_gamma                90
_cell_volume                     2117.86
_exptl_crystal_colour            colorless
_exptl_crystal_description       block
_cell_formula_units_Z            4
loop_
_atom_site_label
_atom_site_type_symbol
_atom_site_fract_x
_atom_site_fract_y
_atom_site_fract_z
C1 C 0.42300(14) 0.0494(4) 0.6290(5)
C2 C 0.38544(15) -0.0217(4) 0.5305(5)
H1 H 0.3881 -0.1145 0.5227
C3 C 0.34512(14) 0.0427(4) 0.4460(5)
H2 H 0.3205 -0.0062 0.3816
C4 C 0.34080(12) 0.1829(3) 0.4563(4)
C5 C 0.37855(12) 0.2538(3) 0.5540(4)
C6 C 0.41968(13) 0.1861(4) 0.6405(4)
H3 H 0.4446 0.2337 0.7054
C7 C 0.46563(19) -0.0252(5) 0.7206(6)
C8 C 0.29896(12) 0.3766(3) 0.3840(4)
C9 C 0.33722(13) 0.4501(3) 0.4863(4)
C10 C 0.33281(16) 0.5988(4) 0.5087(5)
C11 C 0.22162(12) 0.3794(4) 0.2037(4)
H4 H 0.2007 0.3276 0.2727
H5 H 0.2370 0.3182 0.1302
C12 C 0.18890(12) 0.4808(3) 0.1072(4)
C13 C 0.13524(12) 0.4673(3) 0.0811(4)
C14 C 0.10802(14) 0.5664(4) -0.0121(4)
H6 H 0.0723 0.5592 -0.0305
C15 C 0.13187(15) 0.6738(4) -0.0773(5)
H7 H 0.1126 0.7379 -0.1388
C16 C 0.18466(15) 0.6856(4) -0.0506(5)
H8 H 0.2014 0.7579 -0.0940
C17 C 0.21271(14) 0.5902(4) 0.0404(5)
H9 H 0.2484 0.5990 0.0578
C18 C 0.10579(12) 0.3582(3) 0.1531(4)
C19 C 0.06325(13) 0.3995(4) 0.2495(5)
C20 C -0.00839(14) 0.3252(5) 0.3826(5)
H10 H 0.0056 0.3413 0.4935
H11 H -0.0315 0.2501 0.3800
H12 H -0.0268 0.4033 0.3410
C21 C 0.11611(13) 0.2277(4) 0.1406(4)
H13 H 0.0965 0.1670 0.1944
C22 C 0.16548(17) 0.0403(4) 0.0802(5)
H14 H 0.1811 0.0275 0.1898
H15 H 0.1890 0.0122 0.0035
H16 H 0.1344 -0.0120 0.0642
F1 F 0.45072(13) -0.0979(4) 0.8383(4)
F2 F 0.48747(14) -0.1133(4) 0.6291(4)
F3 F 0.50274(14) 0.0484(4) 0.7808(6)
F4 F 0.37175(9) 0.6482(2) 0.6045(3)
F5 F 0.28974(9) 0.6304(2) 0.5778(3)
F6 F 0.33043(10) 0.6654(2) 0.3675(3)
N1 N 0.30012(10) 0.2474(3) 0.3696(3)
N2 N 0.37574(11) 0.3911(3) 0.5677(3)
O1 O 0.26164(8) 0.4509(2) 0.3041(3)
O2 O 0.05634(11) 0.5111(3) 0.2968(4)
O3 O 0.03302(9) 0.2965(3) 0.2826(3)
O4 O 0.15325(9) 0.1797(2) 0.0547(3)
loop_
_geom_bond_atom_site_label_1
_geom_bond_atom_site_label_2
_geom_bond_site_symmetry_1
_geom_bond_site_symmetry_2
C1 C2 1_555 1_555
C2 H1 1_555 1_555
C3 C2 1_555 1_555
H2 C3 1_555 1_555
C4 C3 1_555 1_555
C5 C4 1_555 1_555
C6 C1 1_555 1_555
H3 C6 1_555 1_555
C7 C1 1_555 1_555
C8 C9 1_555 1_555
C9 C10 1_555 1_555
C10 F4 1_555 1_555
C11 H4 1_555 1_555
H5 C11 1_555 1_555
C12 C11 1_555 1_555
C13 C12 1_555 1_555
C14 C13 1_555 1_555
H6 C14 1_555 1_555
C15 C14 1_555 1_555
H7 C15 1_555 1_555
C16 C15 1_555 1_555
H8 C16 1_555 1_555
C17 C12 1_555 1_555
H9 C17 1_555 1_555
C18 C13 1_555 1_555
C19 C18 1_555 1_555
C20 H10 1_555 1_555
H11 C20 1_555 1_555
H12 C20 1_555 1_555
C21 C18 1_555 1_555
H13 C21 1_555 1_555
C22 H14 1_555 1_555
H15 C22 1_555 1_555
H16 C22 1_555 1_555
F1 C7 1_555 1_555
F2 C7 1_555 1_555
F3 C7 1_555 1_555
F5 C10 1_555 1_555
F6 C10 1_555 1_555
N1 C4 1_555 1_555
N2 C5 1_555 1_555
O1 C8 1_555 1_555
O2 C19 1_555 1_555
O3 C19 1_555 1_555
O4 C21 1_555 1_555
C5 C6 1_555 1_555
C8 N1 1_555 1_555
C9 N2 1_555 1_555
C11 O1 1_555 1_555
C16 C17 1_555 1_555
C20 O3 1_555 1_555
C22 O4 1_555 1_555

#END
