
#######################################################################
#
#                 Cambridge Crystallographic Data Centre
#                                CCDC 
#
#######################################################################
#
# If this CIF has been generated from an entry in the Cambridge 
# Structural Database, then it will include bibliographic, chemical, 
# crystal, experimental, refinement or atomic coordinate data resulting 
# from the CCDC's data processing and validation procedures.
#
#######################################################################

data_WEBFUG
_chemical_formula_moiety         
'C44 H56 N8 O8 2+,C36 H32 N4 4+,6(F6 P1 1-),6.5(C2 H3 N1)'
_chemical_name_systematic        
'14,17,20,23,34,37,40,43-Octaoxa-9,10,11,46,47,48-hexaaza-5,52-diazoniaheptacyclo[50.2.2.2^2,5^.1^8,11^.1^46,49^.0^24,29^.0^28,33^]hexaconta-1(54),2,4,8(58),9,24,26,28,30,32,47,49(57),52,55,59-pentadecaene hexakis(hexafluorophosphate) acetonitrile solvate'
_symmetry_cell_setting           monoclinic
_symmetry_space_group_name_H-M   'C 2/c'
_symmetry_Int_Tables_number      15
_space_group_name_Hall           '-C 2yn'
loop_
_symmetry_equiv_pos_site_id
_symmetry_equiv_pos_as_xyz
1 x,y,z
2 -x,y,1/2-z
3 1/2+x,1/2+y,z
4 1/2-x,1/2+y,1/2-z
5 -x,-y,-z
6 x,-y,1/2+z
7 1/2-x,1/2-y,-z
8 1/2+x,1/2-y,1/2+z
_cell_length_a                   18.8272(4)
_cell_length_b                   20.3121(4)
_cell_length_c                   56.4665(10)
_cell_angle_alpha                90
_cell_angle_beta                 95.2940(10)
_cell_angle_gamma                90
_cell_volume                     21501.8
_exptl_crystal_colour            purple
_exptl_crystal_description       tabular
_cell_formula_units_Z            8
loop_
_atom_site_label
_atom_site_type_symbol
_atom_site_fract_x
_atom_site_fract_y
_atom_site_fract_z
N9 N 0.4462(3) 0.2674(3) 0.03576(8)
N10 N 0.1702(4) 0.0410(6) 0.00979(11)
N11 N 0.1950(3) -0.0537(2) 0.11725(8)
N12 N 0.4644(4) 0.1805(3) 0.14393(9)
C45 C 0.3792(4) 0.2867(4) 0.03631(11)
H57 H 0.3690 0.3302 0.0412
C46 C 0.3237(3) 0.2435(4) 0.02971(11)
H58 H 0.2758 0.2578 0.0302
C47 C 0.3368(3) 0.1795(4) 0.02243(10)
C48 C 0.4075(3) 0.1624(4) 0.02150(10)
H59 H 0.4190 0.1196 0.0162
C49 C 0.4620(3) 0.2064(3) 0.02811(10)
H60 H 0.5104 0.1939 0.0273
C50 C 0.2788(4) 0.1320(4) 0.01691(10)
C51 C 0.2075(3) 0.1503(5) 0.01912(14)
H61 H 0.1952 0.1939 0.0233
C52 C 0.1555(5) 0.1013(7) 0.01494(17)
H62 H 0.1070 0.1130 0.0159
C53 C 0.2363(6) 0.0221(6) 0.00751(14)
H63 H 0.2466 -0.0225 0.0040
C54 C 0.2905(5) 0.0686(6) 0.01035(14)
H64 H 0.3376 0.0558 0.0076
C55 C 0.1120(6) -0.0116(7) 0.00813(16)
H65 H 0.1232 -0.0466 -0.0031
H66 H 0.0654 0.0080 0.0025
C56 C 0.1097(4) -0.0399(5) 0.03314(13)
C57 C 0.0670(3) -0.0129(4) 0.04904(15)
H67 H 0.0328 0.0196 0.0438
C58 C 0.0731(3) -0.0322(3) 0.07256(13)
H68 H 0.0432 -0.0134 0.0834
C59 C 0.1230(3) -0.0793(3) 0.08023(11)
C60 C 0.1646(3) -0.1115(4) 0.06386(11)
H69 H 0.1968 -0.1462 0.0685
C61 C 0.1549(4) -0.0887(5) 0.04049(12)
H70 H 0.1818 -0.1088 0.0290
C62 C 0.1377(4) -0.0980(3) 0.10616(11)
H71 H 0.0938 -0.0930 0.1144
H72 H 0.1533 -0.1445 0.1076
C63 C 0.1781(4) 0.0047(3) 0.12615(10)
H73 H 0.1295 0.0160 0.1271
C64 C 0.2316(4) 0.0489(3) 0.13398(10)
H74 H 0.2191 0.0898 0.1406
C65 C 0.3025(3) 0.0344(2) 0.13232(9)
C66 C 0.3188(4) -0.0286(3) 0.12386(9)
H75 H 0.3671 -0.0419 0.1235
C67 C 0.2649(4) -0.0705(3) 0.11616(10)
H76 H 0.2762 -0.1123 0.1099
C68 C 0.3592(4) 0.0841(3) 0.13826(9)
C69 C 0.3452(5) 0.1477(3) 0.14455(10)
H77 H 0.2974 0.1588 0.1470
C70 C 0.3950(5) 0.1957(3) 0.14743(10)
H78 H 0.3824 0.2390 0.1518
C71 C 0.4804(5) 0.1191(4) 0.13921(12)
H79 H 0.5290 0.1083 0.1379
C72 C 0.4306(4) 0.0701(3) 0.13607(11)
H80 H 0.4448 0.0267 0.1324
C73 C 0.5166(5) 0.2349(4) 0.14526(12)
H81 H 0.5638 0.2191 0.1521
H82 H 0.5009 0.2706 0.1555
C74 C 0.5216(4) 0.2603(3) 0.12014(10)
C75 C 0.5661(3) 0.2314(3) 0.10510(11)
H83 H 0.5996 0.1992 0.1111
C76 C 0.5626(3) 0.2486(3) 0.08139(11)
H84 H 0.5924 0.2273 0.0711
C77 C 0.5154(3) 0.2973(3) 0.07271(10)
C78 C 0.4737(3) 0.3305(3) 0.08808(11)
H85 H 0.4434 0.3655 0.0824
C79 C 0.4771(3) 0.3118(3) 0.11151(11)
H86 H 0.4488 0.3342 0.1220
C80 C 0.5050(4) 0.3114(4) 0.04644(11)
H87 H 0.4919 0.3581 0.0437
H88 H 0.5496 0.3025 0.0390
P1 P 0.25737(9) 0.05943(13) 0.20586(3)
F1 F 0.2678(4) 0.1322(4) 0.19873(14)
F2 F 0.2441(4) -0.0154(3) 0.21265(9)
F3 F 0.3125(2) 0.0670(3) 0.22831(7)
F4 F 0.1946(2) 0.0787(4) 0.22194(8)
F5 F 0.2008(3) 0.0565(6) 0.18374(8)
F6 F 0.3196(2) 0.0385(2) 0.18989(7)
P2 P 0.42532(18) 0.53778(15) 0.12662(6)
F7 F 0.4045(5) 0.5242(4) 0.15215(15)
F8 F 0.4542(6) 0.5507(4) 0.10161(18)
F9 F 0.4990(8) 0.5655(6) 0.1399(2)
F10 F 0.3958(10) 0.6055(7) 0.1270(3)
F11 F 0.3630(8) 0.5052(11) 0.1149(2)
F12 F 0.4670(7) 0.4717(4) 0.1306(2)
P3 P 0.5000 0.48796(11) 0.2500
F13 F 0.4449(4) 0.5305(5) 0.25950(13)
F14 F 0.5456(2) 0.4859(3) 0.27473(7)
F15 F 0.4513(6) 0.4330(5) 0.25844(16)
F13A F 0.5551(4) 0.5305(5) 0.24050(13)
F14A F 0.4544(2) 0.4859(3) 0.22527(7)
F15A F 0.5487(6) 0.4330(5) 0.24156(16)
P4 P 0.0000 0.44521(11) 0.2500
F16 F 0.0000 0.5242(3) 0.2500
F17 F 0.0000 0.3673(3) 0.2500
F18 F -0.0838(3) 0.4453(2) 0.24278(8)
F19 F 0.0129(3) 0.4448(2) 0.22286(8)
F18A F 0.0838(3) 0.4453(2) 0.25722(8)
F19A F -0.0129(3) 0.4448(2) 0.27714(8)
P5 P 0.04327(9) 0.38948(10) 0.12830(3)
F20 F 0.0249(3) 0.4531(3) 0.11307(9)
F21 F 0.0576(3) 0.3228(3) 0.14251(9)
F22 F 0.0158(4) 0.4221(3) 0.15118(11)
F23 F -0.0340(3) 0.3641(4) 0.12110(16)
F24 F 0.0726(3) 0.3562(2) 0.10569(8)
F25 F 0.1214(3) 0.4149(3) 0.13573(7)
P6 P 0.4725(3) 0.6912(4) 0.02637(7)
F26 F 0.5520(7) 0.7184(6) 0.0238(3)
F27 F 0.3925(5) 0.6648(6) 0.0255(3)
F28 F 0.5004(8) 0.6370(6) 0.04408(15)
F29 F 0.4595(11) 0.7381(8) 0.0478(2)
F30 F 0.4488(8) 0.7492(9) 0.0107(3)
F31 F 0.4857(6) 0.6436(8) 0.0058(2)
P7 P 0.5898(3) 0.0413(2) 0.01779(7)
F32 F 0.6306(9) -0.0158(8) 0.0332(3)
F33 F 0.5514(5) 0.1008(5) 0.00283(15)
F34 F 0.5782(6) -0.0057(5) -0.0043(2)
F35 F 0.5198(9) 0.0209(7) 0.0264(3)
F36 F 0.5930(14) 0.0894(8) 0.0390(2)
F37 F 0.6657(6) 0.0621(7) 0.0092(2)
N13 N 0.3735(4) 0.4495(4) 0.04671(11)
C81 C 0.3517(5) 0.4998(5) 0.05435(16)
C82 C 0.3290(11) 0.5612(6) 0.0611(3)
H89 H 0.3705 0.5883 0.0664
H90 H 0.2984 0.5563 0.0741
H91 H 0.3020 0.5824 0.0475
N14 N 0.5938(5) 0.3779(4) 0.16020(12)
C83 C 0.5783(5) 0.4235(5) 0.16974(12)
C84 C 0.5609(6) 0.4815(6) 0.18229(19)
H92 H 0.6048 0.5045 0.1881
H93 H 0.5345 0.4692 0.1958
H94 H 0.5313 0.5105 0.1716
N15 N 0.3942(11) 0.3003(9) 0.2844(3)
C85 C 0.3405(6) 0.2966(5) 0.2687(3)
C86 C 0.2932(6) 0.2854(6) 0.2512(3)
H95 H 0.2761 0.3273 0.2442
H96 H 0.2532 0.2613 0.2569
H97 H 0.3144 0.2591 0.2391
N16 N 0.1586(8) 0.5798(7) 0.1310(4)
C87 C 0.1681(6) 0.5480(6) 0.1129(4)
C88 C 0.1753(10) 0.5080(10) 0.0938(2)
H98 H 0.1375 0.4747 0.0928
H99 H 0.2219 0.4862 0.0958
H100 H 0.1716 0.5343 0.0792
N17 N 0.1221(5) 0.1756(5) 0.13636(14)
C89 C 0.0748(6) 0.1858(5) 0.12267(17)
C90 C 0.0185(6) 0.2004(5) 0.10441(18)
H101 H 0.0272 0.2435 0.0974
H102 H -0.0273 0.2010 0.1114
H103 H 0.0174 0.1666 0.0920
N18 N 0.1753(5) 0.3263(6) 0.03778(16)
C91 C 0.1217(6) 0.3478(8) 0.04152(17)
C92 C 0.0530(6) 0.3770(10) 0.0452(2)
H104 H 0.0531 0.4236 0.0407
H105 H 0.0445 0.3732 0.0620
H106 H 0.0151 0.3540 0.0354
N19 N 0.6750(15) 0.2290(12) 0.0389(5)
C93 C 0.7014(9) 0.2294(10) 0.0229(3)
C94 C 0.7416(15) 0.2242(12) 0.0040(5)
H107 H 0.7134 0.2387 -0.0105
H108 H 0.7559 0.1782 0.0022
H109 H 0.7841 0.2518 0.0068
N19F N 0.8250(15) 0.2710(12) -0.0389(5)
C93F C 0.7986(9) 0.2706(10) -0.0229(3)
C94F C 0.7584(15) 0.2758(12) -0.0040(5)
H107F H 0.7866 0.2613 0.0105
H108F H 0.7441 0.3218 -0.0022
H109F H 0.7159 0.2482 -0.0068
O1 O 0.2900(3) -0.1632(3) 0.15635(8)
O2 O 0.2601(5) -0.2350(4) 0.11058(17)
O3 O 0.3222(6) -0.1713(4) 0.0737(2)
O4 O 0.3309(2) -0.0338(2) 0.06415(7)
O5 O 0.3034(3) 0.2477(2) 0.09299(8)
O6 O 0.3127(9) 0.3308(8) 0.1338(3)
O7 O 0.3593(4) 0.3254(5) 0.17945(11)
O8 O 0.4466(12) 0.2139(10) 0.2001(3)
N1 N 0.4151(3) -0.2726(3) 0.21407(9)
N2 N 0.3814(3) -0.2152(2) 0.21379(8)
N3 N 0.3987(2) -0.1823(2) 0.19459(7)
N4 N 0.5698(3) 0.1191(4) 0.20288(12)
N5 N 0.5942(3) 0.1479(4) 0.18440(12)
N6 N 0.6637(4) 0.1593(3) 0.18965(11)
N7 N 0.7730(3) 0.0287(3) 0.20988(9)
N8 N 0.6044(2) -0.2782(3) 0.20886(10)
C1 C 0.4525(3) -0.2756(3) 0.19451(11)
C2 C 0.4426(3) -0.2185(3) 0.18251(11)
H1 H 0.4627 -0.2063 0.1683
C3 C 0.3654(3) -0.1186(3) 0.18844(10)
H2 H 0.3939 -0.0951 0.1772
H3 H 0.3649 -0.0914 0.2030
C4 C 0.2900(4) -0.1269(4) 0.17722(13)
H4 H 0.2610 -0.1499 0.1884
H5 H 0.2684 -0.0832 0.1737
C5 C 0.2640(11) -0.2270(6) 0.1580(3)
H6 H 0.2219 -0.2266 0.1673
H7 H 0.3010 -0.2550 0.1665
C6 C 0.2434(12) -0.2556(9) 0.1338(2)
H8 H 0.2597 -0.3019 0.1351
H9 H 0.1907 -0.2574 0.1326
C7 C 0.2993(10) -0.2699(7) 0.0946(3)
H10 H 0.2806 -0.3154 0.0929
H11 H 0.3499 -0.2724 0.1012
C8 C 0.2946(10) -0.2371(5) 0.0707(3)
H12 H 0.3228 -0.2620 0.0597
H13 H 0.2443 -0.2357 0.0637
C9 C 0.3419(10) -0.1421(10) 0.0523(4)
H14 H 0.2991 -0.1301 0.0417
H15 H 0.3714 -0.1728 0.0438
C10 C 0.3824(5) -0.0839(4) 0.05988(18)
H16 H 0.4260 -0.0765 0.0707
H17 H 0.3955 -0.0794 0.0434
C11 C 0.3578(3) 0.0276(3) 0.06974(8)
C12 C 0.4287(3) 0.0427(3) 0.07127(9)
H18 H 0.4629 0.0104 0.0679
C13 C 0.4504(3) 0.1073(3) 0.07797(9)
H19 H 0.4998 0.1175 0.0792
C14 C 0.4034(3) 0.1553(3) 0.08273(9)
H20 H 0.4196 0.1983 0.0872
C15 C 0.3289(3) 0.1395(3) 0.08091(8)
C16 C 0.2779(3) 0.1882(3) 0.08530(10)
C17 C 0.2062(3) 0.1727(3) 0.08248(11)
H21 H 0.1715 0.2052 0.0852
C18 C 0.1850(3) 0.1096(3) 0.07566(11)
H22 H 0.1355 0.0999 0.0737
C19 C 0.2305(3) 0.0628(3) 0.07183(9)
H23 H 0.2136 0.0200 0.0675
C20 C 0.3059(3) 0.0759(3) 0.07416(8)
C21 C 0.2420(7) 0.2914(7) 0.1000(3)
H24 H 0.2095 0.3034 0.0859
H25 H 0.2143 0.2688 0.1117
C22 C 0.2786(7) 0.3511(6) 0.1108(2)
H26 H 0.3146 0.3675 0.1005
H27 H 0.2436 0.3866 0.1128
C23 C 0.3025(14) 0.3887(11) 0.1470(4)
H28 H 0.2554 0.3888 0.1534
H29 H 0.3069 0.4286 0.1371
C24 C 0.3618(8) 0.3847(7) 0.1665(3)
H30 H 0.4082 0.3878 0.1596
H31 H 0.3584 0.4224 0.1775
C25 C 0.4043(7) 0.3234(7) 0.20113(18)
H32 H 0.3881 0.3569 0.2122
H33 H 0.4537 0.3347 0.1979
C26 C 0.4043(8) 0.2574(7) 0.2127(3)
H34 H 0.4241 0.2608 0.2295
H35 H 0.3549 0.2404 0.2123
C27 C 0.4502(13) 0.1581(9) 0.2153(4)
H36 H 0.4015 0.1431 0.2178
H37 H 0.4751 0.1698 0.2309
C28 C 0.4898(12) 0.1045(12) 0.2040(4)
H38 H 0.4675 0.0971 0.1877
H39 H 0.4849 0.0633 0.2131
C29 C 0.6239(4) 0.1123(3) 0.22088(13)
H40 H 0.6210 0.0925 0.2360
C30 C 0.6811(3) 0.1396(3) 0.21259(12)
C31 C 0.7570(3) 0.1419(3) 0.22328(12)
H41 H 0.7586 0.1296 0.2403
H42 H 0.7748 0.1876 0.2224
C32 C 0.8059(4) 0.0965(3) 0.21099(12)
H43 H 0.8115 0.1127 0.1947
H44 H 0.8536 0.0951 0.2200
C33 C 0.7324(4) 0.0086(4) 0.19041(11)
H45 H 0.7271 0.0361 0.1767
C34 C 0.6985(4) -0.0510(3) 0.19010(10)
H46 H 0.6702 -0.0649 0.1762
C35 C 0.7055(3) -0.0912(3) 0.20998(9)
C36 C 0.7467(3) -0.0687(3) 0.23036(11)
H47 H 0.7509 -0.0945 0.2445
C37 C 0.7811(3) -0.0091(3) 0.22974(11)
H48 H 0.8105 0.0057 0.2433
C38 C 0.6704(3) -0.1563(3) 0.20975(10)
C39 C 0.6698(4) -0.1984(3) 0.19017(13)
H49 H 0.6926 -0.1851 0.1766
C40 C 0.6370(4) -0.2584(4) 0.19006(14)
H50 H 0.6374 -0.2862 0.1765
C41 C 0.6048(3) -0.2398(4) 0.22822(11)
H51 H 0.5815 -0.2545 0.2415
C42 C 0.6383(3) -0.1793(4) 0.22923(10)
H52 H 0.6393 -0.1534 0.2433
C43 C 0.5625(4) -0.3401(3) 0.20734(15)
H53 H 0.5481 -0.3513 0.2233
H54 H 0.5927 -0.3763 0.2022
C44 C 0.4971(4) -0.3338(3) 0.19010(14)
H55 H 0.5120 -0.3309 0.1738
H56 H 0.4679 -0.3741 0.1910
C95? C 0.2733(13) 0.3063(10) 0.0974(4)
C96? C 0.2451(9) 0.3018(10) 0.1213(4)
C97? C 0.316(3) 0.376(2) 0.1499(5)
C98? C 0.3527(12) 0.3676(16) 0.1744(5)
C99? C 0.4569(13) 0.3284(14) 0.1977(3)
C100? C 0.4383(15) 0.2697(13) 0.2119(5)
C101? C 0.462(2) 0.1445(17) 0.2093(7)
C102? C 0.507(2) 0.094(2) 0.1985(7)
C103? C 0.2411(14) -0.2189(10) 0.1507(3)
C104? C 0.2754(12) -0.2679(9) 0.1355(3)
C105? C 0.2573(13) -0.2622(13) 0.0966(3)
C106? C 0.3263(11) -0.2429(6) 0.0876(4)
C107? C 0.357(2) -0.1524(18) 0.0633(6)
F38? F 0.4753(19) 0.7197(9) 0.0081(4)
F39? F 0.4545(15) 0.5979(8) 0.0400(4)
F40? F 0.5395(8) 0.6726(13) 0.0381(4)
F41? F 0.4236(11) 0.7070(7) 0.0414(3)
F42? F 0.3882(8) 0.6479(14) 0.0095(5)
F43? F 0.4972(9) 0.6143(8) 0.0048(3)
F44? F 0.6695(6) 0.0372(4) 0.03373(16)
F45? F 0.6265(5) 0.1845(5) 0.0236(2)
F46? F 0.6226(6) 0.0865(7) 0.00200(17)
F47? F 0.7253(5) 0.1246(5) 0.0199(2)
F48? F 0.6724(9) 0.1292(7) 0.05424(18)
F49? F 0.5685(9) 0.0950(13) 0.0365(4)
H110? H 0.2340 0.3161 0.0850
H111? H 0.3092 0.3419 0.0973
H112? H 0.1996 0.3252 0.1227
H113? H 0.2443 0.2567 0.1280
H114? H 0.2657 0.3851 0.1531
H115? H 0.3343 0.4189 0.1448
H116? H 0.3624 0.4116 0.1815
H117? H 0.3203 0.3442 0.1844
H118? H 0.4479 0.3688 0.2068
H119? H 0.5085 0.3270 0.1956
H120? H 0.4578 0.2752 0.2287
H121? H 0.3858 0.2656 0.2115
H122? H 0.4112 0.1311 0.2060
H123? H 0.4730 0.1425 0.2268
H124? H 0.5029 0.0504 0.2062
H125? H 0.4934 0.0894 0.1812
H126? H 0.1962 -0.2026 0.1422
H127? H 0.2294 -0.2403 0.1656
H128? H 0.3280 -0.2653 0.1362
H129? H 0.2583 -0.3137 0.1368
H130? H 0.2188 -0.2548 0.0838
H131? H 0.2590 -0.3101 0.1000
H132? H 0.3660 -0.2566 0.0993
H133? H 0.3316 -0.2664 0.0725
H134? H 0.3189 -0.1607 0.0503
H135? H 0.3970 -0.1818 0.0603
O9? O 0.2381(6) -0.2296(5) 0.1173(3)
O10? O 0.3310(7) -0.1746(5) 0.0837(3)
O11? O 0.3081(10) 0.3393(8) 0.1286(3)
O12? O 0.4178(7) 0.3323(7) 0.1749(2)
O13? O 0.467(2) 0.2116(16) 0.2024(6)
P8? P 0.4611(4) 0.6598(5) 0.02343(12)
P9? P 0.6464(3) 0.1095(2) 0.02829(8)
loop_
_geom_bond_atom_site_label_1
_geom_bond_atom_site_label_2
_geom_bond_site_symmetry_1
_geom_bond_site_symmetry_2
O1 C4 1_555 1_555
O2 C6 1_555 1_555
O3 C8 1_555 1_555
O4 C10 1_555 1_555
O5 C16 1_555 1_555
O6 C22 1_555 1_555
O7 C24 1_555 1_555
O8 C26 1_555 1_555
N1 N2 1_555 1_555
N2 N3 1_555 1_555
N3 C2 1_555 1_555
N4 N5 1_555 1_555
N5 N6 1_555 1_555
N6 C30 1_555 1_555
N7 C32 1_555 1_555
N8 C40 1_555 1_555
C1 N1 1_555 1_555
C2 C1 1_555 1_555
H1 C2 1_555 1_555
C3 N3 1_555 1_555
H2 C3 1_555 1_555
H3 C3 1_555 1_555
C4 C3 1_555 1_555
H4 C4 1_555 1_555
H5 C4 1_555 1_555
C5 O1 1_555 1_555
H6 C5 1_555 1_555
H7 C5 1_555 1_555
C6 C5 1_555 1_555
H8 C6 1_555 1_555
H9 C6 1_555 1_555
C7 O2 1_555 1_555
H10 C7 1_555 1_555
H11 C7 1_555 1_555
C8 C7 1_555 1_555
H12 C8 1_555 1_555
H13 C8 1_555 1_555
C9 O3 1_555 1_555
H14 C9 1_555 1_555
H15 C9 1_555 1_555
C10 C9 1_555 1_555
H16 C10 1_555 1_555
H17 C10 1_555 1_555
C11 O4 1_555 1_555
C12 C11 1_555 1_555
H18 C12 1_555 1_555
C13 C12 1_555 1_555
H19 C13 1_555 1_555
C14 C13 1_555 1_555
H20 C14 1_555 1_555
C15 C14 1_555 1_555
C16 C15 1_555 1_555
C17 C16 1_555 1_555
H21 C17 1_555 1_555
C18 C17 1_555 1_555
H22 C18 1_555 1_555
C19 C18 1_555 1_555
H23 C19 1_555 1_555
C20 C11 1_555 1_555
C21 O5 1_555 1_555
H24 C21 1_555 1_555
H25 C21 1_555 1_555
C22 C21 1_555 1_555
H26 C22 1_555 1_555
H27 C22 1_555 1_555
C23 O6 1_555 1_555
H28 C23 1_555 1_555
H29 C23 1_555 1_555
C24 C23 1_555 1_555
H30 C24 1_555 1_555
H31 C24 1_555 1_555
C25 O7 1_555 1_555
H32 C25 1_555 1_555
H33 C25 1_555 1_555
C26 C25 1_555 1_555
H34 C26 1_555 1_555
H35 C26 1_555 1_555
C27 O8 1_555 1_555
H36 C27 1_555 1_555
H37 C27 1_555 1_555
C28 N4 1_555 1_555
H38 C28 1_555 1_555
H39 C28 1_555 1_555
C29 N4 1_555 1_555
H40 C29 1_555 1_555
C30 C29 1_555 1_555
C31 C30 1_555 1_555
H41 C31 1_555 1_555
H42 C31 1_555 1_555
C32 C31 1_555 1_555
H43 C32 1_555 1_555
H44 C32 1_555 1_555
C33 N7 1_555 1_555
H45 C33 1_555 1_555
C34 C33 1_555 1_555
H46 C34 1_555 1_555
C35 C34 1_555 1_555
C36 C35 1_555 1_555
H47 C36 1_555 1_555
C37 N7 1_555 1_555
H48 C37 1_555 1_555
C38 C35 1_555 1_555
C39 C38 1_555 1_555
H49 C39 1_555 1_555
C40 C39 1_555 1_555
H50 C40 1_555 1_555
C41 N8 1_555 1_555
H51 C41 1_555 1_555
C42 C38 1_555 1_555
H52 C42 1_555 1_555
C43 N8 1_555 1_555
H53 C43 1_555 1_555
H54 C43 1_555 1_555
C44 C1 1_555 1_555
H55 C44 1_555 1_555
H56 C44 1_555 1_555
N9 C45 1_555 1_555
N10 C52 1_555 1_555
N11 C62 1_555 1_555
N12 C70 1_555 1_555
C45 H57 1_555 1_555
C46 C45 1_555 1_555
H58 C46 1_555 1_555
C47 C46 1_555 1_555
C48 C47 1_555 1_555
H59 C48 1_555 1_555
C49 N9 1_555 1_555
H60 C49 1_555 1_555
C50 C47 1_555 1_555
C51 C50 1_555 1_555
H61 C51 1_555 1_555
C52 C51 1_555 1_555
H62 C52 1_555 1_555
C53 N10 1_555 1_555
H63 C53 1_555 1_555
C54 C50 1_555 1_555
H64 C54 1_555 1_555
C55 N10 1_555 1_555
H65 C55 1_555 1_555
H66 C55 1_555 1_555
C56 C55 1_555 1_555
C57 C56 1_555 1_555
H67 C57 1_555 1_555
C58 C57 1_555 1_555
H68 C58 1_555 1_555
C59 C58 1_555 1_555
C60 C59 1_555 1_555
H69 C60 1_555 1_555
C61 C56 1_555 1_555
H70 C61 1_555 1_555
C62 C59 1_555 1_555
H71 C62 1_555 1_555
H72 C62 1_555 1_555
C63 N11 1_555 1_555
H73 C63 1_555 1_555
C64 C63 1_555 1_555
H74 C64 1_555 1_555
C65 C64 1_555 1_555
C66 C65 1_555 1_555
H75 C66 1_555 1_555
C67 N11 1_555 1_555
H76 C67 1_555 1_555
C68 C65 1_555 1_555
C69 C68 1_555 1_555
H77 C69 1_555 1_555
C70 C69 1_555 1_555
H78 C70 1_555 1_555
C71 N12 1_555 1_555
H79 C71 1_555 1_555
C72 C68 1_555 1_555
H80 C72 1_555 1_555
C73 N12 1_555 1_555
H81 C73 1_555 1_555
H82 C73 1_555 1_555
C74 C73 1_555 1_555
C75 C74 1_555 1_555
H83 C75 1_555 1_555
C76 C75 1_555 1_555
H84 C76 1_555 1_555
C77 C76 1_555 1_555
C78 C77 1_555 1_555
H85 C78 1_555 1_555
C79 C74 1_555 1_555
H86 C79 1_555 1_555
C80 N9 1_555 1_555
H87 C80 1_555 1_555
H88 C80 1_555 1_555
P1 F1 1_555 1_555
F2 P1 1_555 1_555
F3 P1 1_555 1_555
F4 P1 1_555 1_555
F5 P1 1_555 1_555
F6 P1 1_555 1_555
P2 F7 1_555 1_555
F8 P2 1_555 1_555
F9 P2 1_555 1_555
F10 P2 1_555 1_555
F11 P2 1_555 1_555
F12 P2 1_555 1_555
P3 F13 1_555 1_555
F14 P3 1_555 1_555
F15 P3 1_555 1_555
P4 F16 1_555 1_555
F17 P4 1_555 1_555
F18 P4 1_555 1_555
F19 P4 1_555 1_555
P5 F20 1_555 1_555
F21 P5 1_555 1_555
F22 P5 1_555 1_555
F23 P5 1_555 1_555
F24 P5 1_555 1_555
F25 P5 1_555 1_555
P6 F26 1_555 1_555
F27 P6 1_555 1_555
F28 P6 1_555 1_555
F29 P6 1_555 1_555
F30 P6 1_555 1_555
F31 P6 1_555 1_555
P7 F32 1_555 1_555
F33 P7 1_555 1_555
F34 P7 1_555 1_555
F35 P7 1_555 1_555
F36 P7 1_555 1_555
F37 P7 1_555 1_555
N13 C81 1_555 1_555
C81 C82 1_555 1_555
C82 H89 1_555 1_555
H90 C82 1_555 1_555
H91 C82 1_555 1_555
N14 C83 1_555 1_555
C83 C84 1_555 1_555
C84 H92 1_555 1_555
H93 C84 1_555 1_555
H94 C84 1_555 1_555
N15 C85 1_555 1_555
C85 C86 1_555 1_555
C86 H95 1_555 1_555
H96 C86 1_555 1_555
H97 C86 1_555 1_555
N16 C87 1_555 1_555
C87 C88 1_555 1_555
C88 H98 1_555 1_555
H99 C88 1_555 1_555
H100 C88 1_555 1_555
N17 C89 1_555 1_555
C89 C90 1_555 1_555
C90 H101 1_555 1_555
H102 C90 1_555 1_555
H103 C90 1_555 1_555
N18 C91 1_555 1_555
C91 C92 1_555 1_555
C92 H104 1_555 1_555
H105 C92 1_555 1_555
H106 C92 1_555 1_555
N19 C93 1_555 1_555
C93 C94 1_555 1_555
C94 H107 1_555 1_555
H107 C94F 1_555 1_555
H108 C94 1_555 1_555
H109 C94 1_555 1_555
F13A P3 1_555 1_555
F14A P3 1_555 1_555
F15A P3 1_555 1_555
F18A P4 1_555 1_555
F19A P4 1_555 1_555
N19F C93F 1_555 1_555
C93F C94F 1_555 1_555
C94F C94 1_555 1_555
H107F C94 1_555 1_555
H108F C94F 1_555 1_555
H109F C94 1_555 1_555
C15 C20 1_555 1_555
C19 C20 1_555 1_555
C27 C28 1_555 1_555
C36 C37 1_555 1_555
C41 C42 1_555 1_555
C43 C44 1_555 1_555
C48 C49 1_555 1_555
C53 C54 1_555 1_555
C60 C61 1_555 1_555
C66 C67 1_555 1_555
C71 C72 1_555 1_555
C77 C80 1_555 1_555
C78 C79 1_555 1_555
H109 C94F 1_555 1_555
C94F H107F 1_555 1_555
C94F H109F 1_555 1_555

#END
