
#######################################################################
#
#                 Cambridge Crystallographic Data Centre
#                                CCDC 
#
#######################################################################
#
# If this CIF has been generated from an entry in the Cambridge 
# Structural Database, then it will include bibliographic, chemical, 
# crystal, experimental, refinement or atomic coordinate data resulting 
# from the CCDC's data processing and validation procedures.
#
#######################################################################

data_WEBLEW
_chemical_formula_moiety         'C24 H34 N2 O4'
_chemical_name_systematic        
'Dimethyl 3,14-di-t-butyl-2,7-diazatetracyclo[5.5.2.0^1,8^.0^4,8^]tetradeca-2,5,13-triene-5,6-dicarboxylate'
_symmetry_cell_setting           monoclinic
_symmetry_space_group_name_H-M   'P 21/n'
_symmetry_Int_Tables_number      14
_space_group_name_Hall           '-P 2yn'
loop_
_symmetry_equiv_pos_site_id
_symmetry_equiv_pos_as_xyz
1 x,y,z
2 1/2-x,1/2+y,1/2-z
3 -x,-y,-z
4 1/2+x,1/2-y,1/2+z
_cell_length_a                   14.708(3)
_cell_length_b                   9.2420(18)
_cell_length_c                   17.761(4)
_cell_angle_alpha                90
_cell_angle_beta                 98.32(3)
_cell_angle_gamma                90
_cell_volume                     2388.87
_cell_formula_units_Z            4
loop_
_atom_site_label
_atom_site_type_symbol
_atom_site_fract_x
_atom_site_fract_y
_atom_site_fract_z
O1 O 0.5243(3) 0.7808(6) 0.0834(3)
N1 N 0.7231(4) 0.9694(6) -0.0434(3)
O2 O 0.6028(3) 0.9018(5) 0.1824(3)
O3 O 0.6037(3) 0.6498(6) -0.0469(3)
O4 O 0.5226(3) 0.8398(5) -0.0990(3)
C1 C 0.7581(5) 1.0793(7) 0.0172(4)
N2 N 0.9002(4) 0.9742(7) 0.0748(3)
C2 C 0.8623(5) 1.0806(8) 0.0171(4)
C3 C 0.7443(4) 1.0041(7) 0.0921(4)
H1 H 0.7304 1.0730 0.1308
C4 C 0.8400(5) 0.9343(8) 0.1129(4)
C5 C 0.9105(5) 1.2216(8) 0.0341(4)
H2 H 0.9693 1.2172 0.0156
H3 H 0.9226 1.2335 0.0889
C6 C 0.7935(5) 0.9460(8) -0.0891(4)
C7 C 0.7101(4) 1.2225(8) -0.0033(4)
H4 H 0.6522 1.2240 0.0169
H5 H 0.6965 1.2302 -0.0582
C8 C 0.5905(5) 0.8555(8) 0.1098(5)
C9 C 0.6622(5) 0.9053(7) 0.0640(4)
C10 C 0.7782(5) 0.8476(9) -0.1588(5)
C11 C 0.8695(5) 1.0175(8) -0.0605(4)
H6 H 0.9208 1.0274 -0.0852
C12 C 0.5872(6) 0.7911(10) -0.0575(5)
C13 C 0.8600(5) 1.3521(9) 0.0007(5)
H7 H 0.8524 1.3478 -0.0545
H8 H 0.8939 1.4392 0.0171
C14 C 0.7678(6) 1.3534(8) 0.0277(5)
H9 H 0.7355 1.4418 0.0109
H10 H 0.7762 1.3517 0.0828
C15 C 0.8081(5) 0.6824(8) 0.1587(4)
H11 H 0.7430 0.6999 0.1518
H12 H 0.8238 0.6141 0.1992
H13 H 0.8253 0.6442 0.1125
C16 C 0.6613(5) 0.8829(8) -0.0128(4)
C17 C 0.8595(5) 0.8254(9) 0.1789(4)
C18 C 0.9625(4) 0.7881(8) 0.1911(4)
H14 H 0.9793 0.7491 0.1450
H15 H 0.9748 0.7179 0.2312
H16 H 0.9976 0.8741 0.2049
C19 C 0.5341(5) 0.8553(9) 0.2295(4)
H17 H 0.4740 0.8838 0.2056
H18 H 0.5469 0.8997 0.2788
H19 H 0.5363 0.7520 0.2350
C20 C 0.5369(5) 0.5521(8) -0.0906(4)
H20 H 0.4778 0.5646 -0.0746
H21 H 0.5567 0.4537 -0.0820
H22 H 0.5326 0.5741 -0.1438
C21 C 0.7894(5) 0.6873(8) -0.1325(4)
H23 H 0.8535 0.6656 -0.1187
H24 H 0.7636 0.6248 -0.1732
H25 H 0.7581 0.6726 -0.0893
C22 C 0.8321(5) 0.8879(9) 0.2518(4)
H26 H 0.8637 0.9778 0.2636
H27 H 0.8484 0.8209 0.2929
H28 H 0.7670 0.9044 0.2449
C23 C 0.8529(5) 0.8804(9) -0.2066(4)
H29 H 0.8490 0.9801 -0.2219
H30 H 0.8451 0.8198 -0.2510
H31 H 0.9119 0.8621 -0.1774
C24 C 0.6873(5) 0.8770(10) -0.2104(4)
H32 H 0.6374 0.8381 -0.1874
H33 H 0.6885 0.8319 -0.2589
H34 H 0.6792 0.9795 -0.2172
loop_
_geom_bond_atom_site_label_1
_geom_bond_atom_site_label_2
_geom_bond_site_symmetry_1
_geom_bond_site_symmetry_2
O1 C8 1_555 1_555
N1 C1 1_555 1_555
O2 C8 1_555 1_555
O3 C12 1_555 1_555
O4 C12 1_555 1_555
C1 C2 1_555 1_555
N2 C2 1_555 1_555
C2 C5 1_555 1_555
C3 C1 1_555 1_555
H1 C3 1_555 1_555
C4 N2 1_555 1_555
C5 H2 1_555 1_555
H3 C5 1_555 1_555
C6 N1 1_555 1_555
C7 C1 1_555 1_555
H4 C7 1_555 1_555
H5 C7 1_555 1_555
C8 C9 1_555 1_555
C9 C3 1_555 1_555
C10 C6 1_555 1_555
C11 C2 1_555 1_555
H6 C11 1_555 1_555
C12 C16 1_555 1_555
C13 C5 1_555 1_555
H7 C13 1_555 1_555
H8 C13 1_555 1_555
C14 C7 1_555 1_555
H9 C14 1_555 1_555
H10 C14 1_555 1_555
C15 H11 1_555 1_555
H12 C15 1_555 1_555
H13 C15 1_555 1_555
C16 N1 1_555 1_555
C17 C4 1_555 1_555
C18 C17 1_555 1_555
H14 C18 1_555 1_555
H15 C18 1_555 1_555
H16 C18 1_555 1_555
C19 O2 1_555 1_555
H17 C19 1_555 1_555
H18 C19 1_555 1_555
H19 C19 1_555 1_555
C20 O3 1_555 1_555
H20 C20 1_555 1_555
H21 C20 1_555 1_555
H22 C20 1_555 1_555
C21 C10 1_555 1_555
H23 C21 1_555 1_555
H24 C21 1_555 1_555
H25 C21 1_555 1_555
C22 C17 1_555 1_555
H26 C22 1_555 1_555
H27 C22 1_555 1_555
H28 C22 1_555 1_555
C23 C10 1_555 1_555
H29 C23 1_555 1_555
H30 C23 1_555 1_555
H31 C23 1_555 1_555
C24 C10 1_555 1_555
H32 C24 1_555 1_555
H33 C24 1_555 1_555
H34 C24 1_555 1_555
C3 C4 1_555 1_555
C6 C11 1_555 1_555
C9 C16 1_555 1_555
C13 C14 1_555 1_555
C15 C17 1_555 1_555

#END
