
#######################################################################
#
#                 Cambridge Crystallographic Data Centre
#                                CCDC 
#
#######################################################################
#
# If this CIF has been generated from an entry in the Cambridge 
# Structural Database, then it will include bibliographic, chemical, 
# crystal, experimental, refinement or atomic coordinate data resulting 
# from the CCDC's data processing and validation procedures.
#
#######################################################################

data_WECJOF
_chemical_formula_moiety         'C23 H15 I1 O1'
_chemical_name_systematic        6-Iodo-11-phenyl-11H-benzo[a]fluoren-11-ol
_symmetry_cell_setting           orthorhombic
_symmetry_space_group_name_H-M   'P c c n'
_symmetry_Int_Tables_number      56
_space_group_name_Hall           '-P 2ab 2ac'
loop_
_symmetry_equiv_pos_site_id
_symmetry_equiv_pos_as_xyz
1 x,y,z
2 1/2-x,1/2-y,z
3 -x,1/2+y,1/2-z
4 1/2+x,-y,1/2-z
5 -x,-y,-z
6 1/2+x,1/2+y,-z
7 x,1/2-y,1/2+z
8 1/2-x,y,1/2+z
_cell_length_a                   18.199(5)
_cell_length_b                   26.703(8)
_cell_length_c                   7.364(2)
_cell_angle_alpha                90
_cell_angle_beta                 90
_cell_angle_gamma                90
_cell_volume                     3578.67
_exptl_crystal_colour            colorless
_exptl_crystal_description       block
_cell_formula_units_Z            8
loop_
_atom_site_label
_atom_site_type_symbol
_atom_site_fract_x
_atom_site_fract_y
_atom_site_fract_z
I1 I 1.18219(4) 0.69266(3) 1.00764(12)
O1 O 0.8606(3) 0.6373(2) 0.7040(9)
H1 H 0.8764 0.6490 0.6088
C1 C 0.9842(5) 0.6011(3) 0.6717(11)
C2 C 0.9847(6) 0.5739(4) 0.5155(12)
H2 H 0.9421 0.5583 0.4747
C3 C 1.0504(6) 0.5697(4) 0.4169(14)
H3 H 1.0518 0.5509 0.3106
C4 C 1.1121(6) 0.5932(4) 0.4767(14)
H4 H 1.1557 0.5903 0.4117
C5 C 1.1100(5) 0.6220(4) 0.6383(14)
H5 H 1.1518 0.6388 0.6779
C6 C 1.0462(4) 0.6250(3) 0.7355(11)
C7 C 1.0275(4) 0.6509(3) 0.9079(12)
C8 C 1.0689(5) 0.6791(3) 1.0309(13)
C9 C 1.0354(5) 0.7000(3) 1.1835(12)
H6 H 1.0636 0.7179 1.2665
C10 C 0.9587(5) 0.6943(3) 1.2137(12)
C11 C 0.9243(6) 0.7188(3) 1.3587(13)
H7 H 0.9521 0.7377 1.4396
C12 C 0.8510(6) 0.7149(3) 1.3812(13)
H8 H 0.8281 0.7328 1.4736
C13 C 0.8093(5) 0.6844(3) 1.2668(13)
H9 H 0.7591 0.6811 1.2874
C14 C 0.8397(5) 0.6599(3) 1.1295(12)
H10 H 0.8108 0.6395 1.0563
C15 C 0.9167(5) 0.6645(3) 1.0927(10)
C16 C 0.9534(4) 0.6433(3) 0.9412(11)
C17 C 0.9192(4) 0.6110(3) 0.7973(11)
C18 C 0.8847(4) 0.5630(3) 0.8722(11)
C19 C 0.9200(5) 0.5382(3) 1.0130(12)
H11 H 0.9619 0.5521 1.0649
C20 C 0.8932(6) 0.4928(3) 1.0770(15)
H12 H 0.9177 0.4763 1.1704
C21 C 0.8323(6) 0.4725(4) 1.0055(15)
H13 H 0.8142 0.4424 1.0506
C22 C 0.7974(6) 0.4961(4) 0.8668(18)
H14 H 0.7556 0.4818 0.8161
C23 C 0.8236(5) 0.5418(4) 0.7992(14)
H15 H 0.7991 0.5577 0.7044
loop_
_geom_bond_atom_site_label_1
_geom_bond_atom_site_label_2
_geom_bond_site_symmetry_1
_geom_bond_site_symmetry_2
I1 C8 1_555 1_555
O1 H1 1_555 1_555
C1 C2 1_555 1_555
C2 H2 1_555 1_555
C3 C2 1_555 1_555
H3 C3 1_555 1_555
C4 C3 1_555 1_555
H4 C4 1_555 1_555
C5 C4 1_555 1_555
H5 C5 1_555 1_555
C6 C1 1_555 1_555
C7 C6 1_555 1_555
C8 C7 1_555 1_555
C9 C8 1_555 1_555
H6 C9 1_555 1_555
C10 C9 1_555 1_555
C11 C10 1_555 1_555
H7 C11 1_555 1_555
C12 C11 1_555 1_555
H8 C12 1_555 1_555
C13 C12 1_555 1_555
H9 C13 1_555 1_555
C14 C13 1_555 1_555
H10 C14 1_555 1_555
C15 C10 1_555 1_555
C16 C7 1_555 1_555
C17 O1 1_555 1_555
C18 C17 1_555 1_555
C19 C18 1_555 1_555
H11 C19 1_555 1_555
C20 C19 1_555 1_555
H12 C20 1_555 1_555
C21 C20 1_555 1_555
H13 C21 1_555 1_555
C22 C21 1_555 1_555
H14 C22 1_555 1_555
C23 C18 1_555 1_555
H15 C23 1_555 1_555
C1 C17 1_555 1_555
C5 C6 1_555 1_555
C14 C15 1_555 1_555
C15 C16 1_555 1_555
C16 C17 1_555 1_555
C22 C23 1_555 1_555

#END
