
#######################################################################
#
#                 Cambridge Crystallographic Data Centre
#                                CCDC 
#
#######################################################################
#
# If this CIF has been generated from an entry in the Cambridge 
# Structural Database, then it will include bibliographic, chemical, 
# crystal, experimental, refinement or atomic coordinate data resulting 
# from the CCDC's data processing and validation procedures.
#
#######################################################################

data_WECLIB
_chemical_formula_moiety         'C33 H37 N3 O4'
_chemical_name_systematic        
6-(2-Azido-1-(benzyloxy)-3-(4-methoxyphenyl)propyl)-7-(benzyloxy)spiro[3.5]nonan-1-one
_symmetry_cell_setting           orthorhombic
_symmetry_space_group_name_H-M   'P 21 21 21'
_symmetry_Int_Tables_number      19
_space_group_name_Hall           'P 2ac 2ab'
loop_
_symmetry_equiv_pos_site_id
_symmetry_equiv_pos_as_xyz
1 x,y,z
2 1/2-x,-y,1/2+z
3 -x,1/2+y,1/2-z
4 1/2+x,1/2-y,-z
_cell_length_a                   8.798(2)
_cell_length_b                   11.027(3)
_cell_length_c                   30.298(7)
_cell_angle_alpha                90
_cell_angle_beta                 90
_cell_angle_gamma                90
_cell_volume                     2939.38
_exptl_crystal_colour            colorless
_exptl_crystal_description       block
_cell_formula_units_Z            4
loop_
_atom_site_label
_atom_site_type_symbol
_atom_site_fract_x
_atom_site_fract_y
_atom_site_fract_z
C1 C 0.3966(4) 0.6138(3) 0.14172(11)
H1 H 0.3163 0.6507 0.1238
C2 C 0.3233(5) 0.5452(3) 0.17938(12)
H2 H 0.2516 0.4869 0.1675
H3 H 0.4009 0.5006 0.1953
C3 C 0.2411(5) 0.6286(4) 0.21111(12)
H4 H 0.2049 0.5817 0.2361
H5 H 0.1533 0.6633 0.1964
C4 C 0.3421(4) 0.7299(3) 0.22765(10)
C5 C 0.4559(6) 0.6902(5) 0.26143(14)
C6 C 0.3857(6) 0.7603(4) 0.29763(13)
H6 H 0.4516 0.8221 0.3100
H7 H 0.3414 0.7104 0.3207
C7 C 0.2717(5) 0.8084(4) 0.26488(10)
H8 H 0.2806 0.8949 0.2597
H9 H 0.1676 0.7867 0.2719
C8 C 0.4082(4) 0.7985(3) 0.18884(10)
H10 H 0.4733 0.8631 0.1996
H11 H 0.3265 0.8351 0.1720
C9 C 0.4999(4) 0.7144(3) 0.15900(9)
H12 H 0.5742 0.6744 0.1782
C10 C 0.5919(4) 0.7760(3) 0.12290(10)
H13 H 0.6746 0.7207 0.1149
C11 C 0.5116(4) 0.8118(3) 0.08017(10)
H14 H 0.4735 0.7365 0.0671
C12 C 0.6243(4) 0.8651(3) 0.04713(10)
H15 H 0.6514 0.9462 0.0568
H16 H 0.7161 0.8164 0.0477
C13 C 0.5694(4) 0.8723(3) 0.00035(11)
C14 C 0.4930(5) 0.9716(3) -0.01531(11)
H17 H 0.4723 1.0353 0.0039
C15 C 0.4458(4) 0.9805(3) -0.05870(12)
H18 H 0.3921 1.0482 -0.0683
C16 C 0.4792(4) 0.8884(3) -0.08744(11)
C17 C 0.5541(4) 0.7872(3) -0.07242(11)
H19 H 0.5739 0.7232 -0.0916
C18 C 0.5994(4) 0.7805(3) -0.02923(11)
H20 H 0.6519 0.7122 -0.0196
C19 C 0.3995(5) 0.4554(4) 0.08770(13)
H21 H 0.3116 0.4965 0.0755
H22 H 0.3643 0.3882 0.1056
C20 C 0.4981(5) 0.4104(3) 0.05175(13)
C21 C 0.4978(5) 0.4649(4) 0.01054(15)
H23 H 0.4354 0.5315 0.0055
C22 C 0.5876(7) 0.4224(5) -0.02281(15)
H24 H 0.5868 0.4606 -0.0502
C23 C 0.6790(6) 0.3235(5) -0.01606(18)
H25 H 0.7393 0.2938 -0.0388
C24 C 0.6805(6) 0.2697(4) 0.02381(19)
H26 H 0.7433 0.2031 0.0286
C25 C 0.5907(5) 0.3118(4) 0.05757(14)
H27 H 0.5928 0.2728 0.0848
C26 C 0.7836(4) 0.8704(4) 0.16793(11)
H28 H 0.8391 0.7973 0.1603
H29 H 0.7455 0.8614 0.1978
C27 C 0.8879(4) 0.9776(3) 0.16565(12)
C28 C 1.0019(5) 0.9866(4) 0.19564(16)
H30 H 1.0122 0.9276 0.2174
C29 C 1.1019(6) 1.0816(6) 0.1942(2)
H31 H 1.1804 1.0854 0.2147
C30 C 1.0885(6) 1.1682(5) 0.1641(2)
H32 H 1.1567 1.2327 0.1638
C31 C 0.9756(7) 1.1628(4) 0.13369(17)
H33 H 0.9657 1.2235 0.1126
C32 C 0.8751(6) 1.0662(4) 0.13437(14)
H34 H 0.7983 1.0616 0.1133
C33 C 0.3722(5) 0.9925(3) -0.14950(12)
H35 H 0.2795 1.0078 -0.1338
H36 H 0.3498 0.9787 -0.1801
H37 H 0.4383 1.0614 -0.1468
N1 N 0.3776(4) 0.8897(3) 0.08769(9)
N2 N 0.4050(4) 0.9930(4) 0.10070(9)
N3 N 0.4120(5) 1.0904(4) 0.11217(12)
O1 O 0.5630(5) 0.6238(5) 0.25969(12)
O2 O 0.4866(3) 0.5379(2) 0.11410(7)
O3 O 0.6603(3) 0.88567(19) 0.13850(7)
O4 O 0.4445(3) 0.8887(2) -0.13158(7)
loop_
_geom_bond_atom_site_label_1
_geom_bond_atom_site_label_2
_geom_bond_site_symmetry_1
_geom_bond_site_symmetry_2
C1 H1 1_555 1_555
C2 C1 1_555 1_555
H2 C2 1_555 1_555
H3 C2 1_555 1_555
C3 C2 1_555 1_555
H4 C3 1_555 1_555
H5 C3 1_555 1_555
C4 C3 1_555 1_555
C5 C4 1_555 1_555
C6 C5 1_555 1_555
H6 C6 1_555 1_555
H7 C6 1_555 1_555
C7 C4 1_555 1_555
H8 C7 1_555 1_555
H9 C7 1_555 1_555
C8 C4 1_555 1_555
H10 C8 1_555 1_555
H11 C8 1_555 1_555
C9 C1 1_555 1_555
H12 C9 1_555 1_555
C10 C9 1_555 1_555
H13 C10 1_555 1_555
C11 C10 1_555 1_555
H14 C11 1_555 1_555
C12 C11 1_555 1_555
H15 C12 1_555 1_555
H16 C12 1_555 1_555
C13 C12 1_555 1_555
C14 C13 1_555 1_555
H17 C14 1_555 1_555
C15 C14 1_555 1_555
H18 C15 1_555 1_555
C16 C15 1_555 1_555
C17 C16 1_555 1_555
H19 C17 1_555 1_555
C18 C13 1_555 1_555
H20 C18 1_555 1_555
C19 H21 1_555 1_555
H22 C19 1_555 1_555
C20 C19 1_555 1_555
C21 C20 1_555 1_555
H23 C21 1_555 1_555
C22 C21 1_555 1_555
H24 C22 1_555 1_555
C23 C22 1_555 1_555
H25 C23 1_555 1_555
C24 C23 1_555 1_555
H26 C24 1_555 1_555
C25 C20 1_555 1_555
H27 C25 1_555 1_555
C26 H28 1_555 1_555
H29 C26 1_555 1_555
C27 C26 1_555 1_555
C28 C27 1_555 1_555
H30 C28 1_555 1_555
C29 C28 1_555 1_555
H31 C29 1_555 1_555
C30 C29 1_555 1_555
H32 C30 1_555 1_555
C31 C30 1_555 1_555
H33 C31 1_555 1_555
C32 C27 1_555 1_555
H34 C32 1_555 1_555
C33 H35 1_555 1_555
H36 C33 1_555 1_555
H37 C33 1_555 1_555
N1 C11 1_555 1_555
N2 N1 1_555 1_555
N3 N2 1_555 1_555
O1 C5 1_555 1_555
O2 C1 1_555 1_555
O3 C10 1_555 1_555
O4 C16 1_555 1_555
C6 C7 1_555 1_555
C8 C9 1_555 1_555
C17 C18 1_555 1_555
C19 O2 1_555 1_555
C24 C25 1_555 1_555
C26 O3 1_555 1_555
C31 C32 1_555 1_555
C33 O4 1_555 1_555

#END
