
#######################################################################
#
#                 Cambridge Crystallographic Data Centre
#                                CCDC 
#
#######################################################################
#
# If this CIF has been generated from an entry in the Cambridge 
# Structural Database, then it will include bibliographic, chemical, 
# crystal, experimental, refinement or atomic coordinate data resulting 
# from the CCDC's data processing and validation procedures.
#
#######################################################################

data_WECQIG
_chemical_formula_moiety         'C27 H52 O4 Si2'
_chemical_name_systematic        
t-Butyl((13-((t-butyl(dimethyl)silyl)oxy)-7-methoxy-6-oxatetracyclo[7.4.1.0^2,7^.0^2,11^]tetradec-1-yl)methoxy)dimethylsilane
_symmetry_cell_setting           triclinic
_symmetry_space_group_name_H-M   'P -1'
_symmetry_Int_Tables_number      2
_space_group_name_Hall           '-P 1'
loop_
_symmetry_equiv_pos_site_id
_symmetry_equiv_pos_as_xyz
1 x,y,z
2 -x,-y,-z
_cell_length_a                   11.025(11)
_cell_length_b                   11.690(11)
_cell_length_c                   13.630(13)
_cell_angle_alpha                69.352(11)
_cell_angle_beta                 74.860(11)
_cell_angle_gamma                67.864(11)
_cell_volume                     1505.89
_exptl_crystal_colour            colorless
_exptl_crystal_description       block
_cell_formula_units_Z            2
loop_
_atom_site_label
_atom_site_type_symbol
_atom_site_fract_x
_atom_site_fract_y
_atom_site_fract_z
C1 C 0.2469(4) 0.2967(5) 0.2723(4)
C2 C 0.2570(4) 0.1578(4) 0.3401(3)
H1 H 0.1771 0.1575 0.3911
H2 H 0.2648 0.1064 0.2950
C3 C 0.3771(5) 0.0983(5) 0.3987(4)
H3 H 0.3621 0.1402 0.4528
H4 H 0.3886 0.0076 0.4334
C4 C 0.5002(5) 0.1132(7) 0.3231(5)
H5 H 0.5720 0.0857 0.3632
H6 H 0.5243 0.0573 0.2781
C5 C 0.3805(5) 0.2914(6) 0.1976(5)
C6 C 0.3810(5) 0.4272(7) 0.1295(5)
H7 H 0.4567 0.4436 0.1388
H8 H 0.3890 0.4336 0.0553
C7 C 0.2548(6) 0.5267(6) 0.1607(5)
H9 H 0.2568 0.6134 0.1182
C8 C 0.2441(6) 0.5126(6) 0.2767(5)
H10 H 0.1721 0.5840 0.2960
H11 H 0.3255 0.5136 0.2907
C9 C 0.2183(5) 0.3846(5) 0.3428(4)
H12 H 0.2724 0.3409 0.4003
C10 C 0.1388(4) 0.5013(4) 0.1415(4)
H13 H 0.1514 0.5024 0.0681
H14 H 0.0579 0.5695 0.1541
C11 C 0.1239(4) 0.3688(4) 0.2151(3)
C12 C 0.0117(4) 0.3895(4) 0.3073(4)
H15 H -0.0152 0.3118 0.3390
C13 C 0.0721(5) 0.4060(5) 0.3875(4)
H16 H 0.0615 0.3435 0.4557
H17 H 0.0301 0.4918 0.3963
C14 C 0.5175(5) 0.1879(6) 0.0653(4)
H18 H 0.5898 0.1634 0.1031
H19 H 0.5173 0.2652 0.0085
H20 H 0.5274 0.1201 0.0368
C15 C 0.0943(4) 0.3067(4) 0.1474(3)
H21 H 0.0233 0.3686 0.1081
H22 H 0.1721 0.2826 0.0965
C16 C -0.0657(5) 0.1586(5) 0.0674(4)
H23 H -0.1536 0.1916 0.1023
H24 H -0.0630 0.0946 0.0374
H25 H -0.0412 0.2277 0.0121
C17 C 0.2184(5) 0.0078(5) 0.0996(4)
H26 H 0.2320 0.0579 0.0271
H27 H 0.2251 -0.0773 0.1018
H28 H 0.2845 0.0026 0.1363
C18 C -0.0046(5) -0.0334(5) 0.2845(4)
C19 C 0.0976(6) -0.1036(5) 0.3572(4)
H29 H 0.1149 -0.0429 0.3798
H30 H 0.1778 -0.1496 0.3205
H31 H 0.0658 -0.1634 0.4179
C20 C -0.0305(7) -0.1329(6) 0.2503(5)
H32 H -0.0529 -0.1974 0.3121
H33 H 0.0476 -0.1727 0.2079
H34 H -0.1025 -0.0907 0.2097
C21 C -0.1309(6) 0.0364(6) 0.3425(5)
H35 H -0.1593 -0.0238 0.4048
H36 H -0.1979 0.0774 0.2971
H37 H -0.1161 0.1004 0.3627
C22 C -0.2830(5) 0.4482(7) 0.1952(5)
H38 H -0.3211 0.5220 0.1399
H39 H -0.3424 0.3981 0.2268
H40 H -0.2003 0.3966 0.1658
C23 C -0.2970(5) 0.3993(6) 0.4263(5)
H41 H -0.2487 0.3112 0.4277
H42 H -0.3903 0.4118 0.4384
H43 H -0.2750 0.4193 0.4806
C24 C -0.3516(5) 0.6736(5) 0.2777(5)
C25 C -0.4987(5) 0.6968(5) 0.2818(4)
H44 H -0.5473 0.7856 0.2773
H45 H -0.5307 0.6431 0.3472
H46 H -0.5105 0.6762 0.2233
C26 C -0.3361(6) 0.7119(7) 0.3739(5)
H47 H -0.2491 0.7183 0.3634
H48 H -0.3488 0.6471 0.4390
H49 H -0.4011 0.7933 0.3773
O1 O 0.4850(4) 0.2419(4) 0.2580(3)
O2 O 0.3950(3) 0.2104(4) 0.1362(3)
O3 O -0.1007(3) 0.4966(3) 0.2765(2)
O4 O 0.0568(3) 0.1955(3) 0.2099(2)
Si1 Si 0.05125(15) 0.08564(15) 0.16438(12)
Si2 Si -0.25404(15) 0.50308(16) 0.29939(13)
C27 C -0.3008(5) 0.7572(5) 0.1771(5)
H50 H -0.3064 0.7335 0.1181
H51 H -0.2102 0.7465 0.1775
H52 H -0.3530 0.8456 0.1707
loop_
_geom_bond_atom_site_label_1
_geom_bond_atom_site_label_2
_geom_bond_site_symmetry_1
_geom_bond_site_symmetry_2
C1 C2 1_555 1_555
C2 H1 1_555 1_555
H2 C2 1_555 1_555
C3 C2 1_555 1_555
H3 C3 1_555 1_555
H4 C3 1_555 1_555
C4 C3 1_555 1_555
H5 C4 1_555 1_555
H6 C4 1_555 1_555
C5 C1 1_555 1_555
C6 C5 1_555 1_555
H7 C6 1_555 1_555
H8 C6 1_555 1_555
C7 C6 1_555 1_555
H9 C7 1_555 1_555
C8 C7 1_555 1_555
H10 C8 1_555 1_555
H11 C8 1_555 1_555
C9 C1 1_555 1_555
H12 C9 1_555 1_555
C10 C7 1_555 1_555
H13 C10 1_555 1_555
H14 C10 1_555 1_555
C11 C1 1_555 1_555
C12 C11 1_555 1_555
H15 C12 1_555 1_555
C13 C9 1_555 1_555
H16 C13 1_555 1_555
H17 C13 1_555 1_555
C14 H18 1_555 1_555
H19 C14 1_555 1_555
H20 C14 1_555 1_555
C15 C11 1_555 1_555
H21 C15 1_555 1_555
H22 C15 1_555 1_555
C16 H23 1_555 1_555
H24 C16 1_555 1_555
H25 C16 1_555 1_555
C17 H26 1_555 1_555
H27 C17 1_555 1_555
H28 C17 1_555 1_555
C18 C19 1_555 1_555
C19 H29 1_555 1_555
H30 C19 1_555 1_555
H31 C19 1_555 1_555
C20 C18 1_555 1_555
H32 C20 1_555 1_555
H33 C20 1_555 1_555
H34 C20 1_555 1_555
C21 C18 1_555 1_555
H35 C21 1_555 1_555
H36 C21 1_555 1_555
H37 C21 1_555 1_555
C22 H38 1_555 1_555
H39 C22 1_555 1_555
H40 C22 1_555 1_555
C23 H41 1_555 1_555
H42 C23 1_555 1_555
H43 C23 1_555 1_555
C24 C25 1_555 1_555
C25 H44 1_555 1_555
H45 C25 1_555 1_555
H46 C25 1_555 1_555
C26 C24 1_555 1_555
H47 C26 1_555 1_555
H48 C26 1_555 1_555
H49 C26 1_555 1_555
O1 C4 1_555 1_555
O2 C5 1_555 1_555
O3 C12 1_555 1_555
O4 C15 1_555 1_555
Si1 C16 1_555 1_555
Si2 C22 1_555 1_555
C27 C24 1_555 1_555
H50 C27 1_555 1_555
H51 C27 1_555 1_555
H52 C27 1_555 1_555
C5 O1 1_555 1_555
C8 C9 1_555 1_555
C10 C11 1_555 1_555
C12 C13 1_555 1_555
C14 O2 1_555 1_555
C17 Si1 1_555 1_555
C18 Si1 1_555 1_555
C23 Si2 1_555 1_555
C24 Si2 1_555 1_555
O3 Si2 1_555 1_555
O4 Si1 1_555 1_555

#END
