
#######################################################################
#
#                 Cambridge Crystallographic Data Centre
#                                CCDC 
#
#######################################################################
#
# If this CIF has been generated from an entry in the Cambridge 
# Structural Database, then it will include bibliographic, chemical, 
# crystal, experimental, refinement or atomic coordinate data resulting 
# from the CCDC's data processing and validation procedures.
#
#######################################################################

data_WEDFOD
_chemical_formula_moiety         'C16 H11 N3'
_chemical_name_systematic        4-phenyl-3H-naphtho[1,2-d][1,2,3]triazole
_symmetry_cell_setting           monoclinic
_symmetry_space_group_name_H-M   'P 21/c'
_symmetry_Int_Tables_number      14
_space_group_name_Hall           '-P 2ybc'
loop_
_symmetry_equiv_pos_site_id
_symmetry_equiv_pos_as_xyz
1 x,y,z
2 -x,1/2+y,1/2-z
3 -x,-y,-z
4 x,1/2-y,1/2+z
_cell_length_a                   11.1451(16)
_cell_length_b                   15.552(2)
_cell_length_c                   6.9737(10)
_cell_angle_alpha                90
_cell_angle_beta                 98.570(2)
_cell_angle_gamma                90
_cell_volume                     1195.25
_exptl_crystal_colour            colorless
_cell_formula_units_Z            4
loop_
_atom_site_label
_atom_site_type_symbol
_atom_site_fract_x
_atom_site_fract_y
_atom_site_fract_z
N1 N 0.06376(17) 0.80824(11) 0.2506(3)
H1 H 0.1388 0.8146 0.2994
C1 C -0.01868(17) 0.58306(12) 0.1931(3)
H2 H 0.0126 0.5279 0.2149
N2 N -0.01605(18) 0.86917(11) 0.2042(3)
C2 C 0.05646(17) 0.65078(12) 0.2361(3)
C3 C 0.00459(15) 0.73289(10) 0.2063(2)
N3 N -0.12428(19) 0.83550(12) 0.1333(3)
C4 C -0.11472(16) 0.74726(12) 0.1336(3)
C5 C -0.19389(17) 0.67562(12) 0.0836(3)
C6 C -0.3157(2) 0.68618(15) 0.0037(3)
H3 H -0.3485 0.7411 -0.0148
C7 C -0.3867(2) 0.61540(18) -0.0472(4)
H4 H -0.4676 0.6224 -0.1008
C8 C -0.3380(2) 0.53271(17) -0.0191(4)
H5 H -0.3867 0.4852 -0.0555
C9 C -0.2191(2) 0.52098(14) 0.0616(3)
H6 H -0.1879 0.4657 0.0810
C10 C -0.14450(18) 0.59255(12) 0.1151(3)
C11 C 0.18723(17) 0.64342(13) 0.3075(3)
C12 C 0.2264(2) 0.58355(14) 0.4519(3)
H7 H 0.1700 0.5506 0.5053
C13 C 0.3493(2) 0.57304(17) 0.5157(4)
H8 H 0.3751 0.5330 0.6121
C14 C 0.4333(2) 0.62123(18) 0.4379(4)
H9 H 0.5156 0.6140 0.4821
C15 C 0.3958(2) 0.68042(17) 0.2942(4)
H10 H 0.4528 0.7127 0.2409
C16 C 0.27339(19) 0.69187(14) 0.2294(3)
H11 H 0.2484 0.7321 0.1331
loop_
_geom_bond_atom_site_label_1
_geom_bond_atom_site_label_2
_geom_bond_site_symmetry_1
_geom_bond_site_symmetry_2
N1 H1 1_555 1_555
C1 H2 1_555 1_555
N2 N1 1_555 1_555
C2 C1 1_555 1_555
C3 N1 1_555 1_555
N3 N2 1_555 1_555
C4 C3 1_555 1_555
C5 C4 1_555 1_555
C6 C5 1_555 1_555
H3 C6 1_555 1_555
C7 C6 1_555 1_555
H4 C7 1_555 1_555
C8 C7 1_555 1_555
H5 C8 1_555 1_555
C9 C8 1_555 1_555
H6 C9 1_555 1_555
C10 C1 1_555 1_555
C11 C2 1_555 1_555
C12 C11 1_555 1_555
H7 C12 1_555 1_555
C13 C12 1_555 1_555
H8 C13 1_555 1_555
C14 C13 1_555 1_555
H9 C14 1_555 1_555
C15 C14 1_555 1_555
H10 C15 1_555 1_555
C16 C11 1_555 1_555
H11 C16 1_555 1_555
C2 C3 1_555 1_555
N3 C4 1_555 1_555
C5 C10 1_555 1_555
C9 C10 1_555 1_555
C15 C16 1_555 1_555

#END
