
#######################################################################
#
#                 Cambridge Crystallographic Data Centre
#                                CCDC 
#
#######################################################################
#
# If this CIF has been generated from an entry in the Cambridge 
# Structural Database, then it will include bibliographic, chemical, 
# crystal, experimental, refinement or atomic coordinate data resulting 
# from the CCDC's data processing and validation procedures.
#
#######################################################################

data_WEDLID
_chemical_formula_moiety         'C21 H16 Cl1 N1 O2 S1'
_chemical_name_systematic        
3-chloro-6-{[(4-methylphenyl)sulfonyl]methyl}phenanthridine
_symmetry_cell_setting           monoclinic
_symmetry_space_group_name_H-M   'P 21/c'
_symmetry_Int_Tables_number      14
_space_group_name_Hall           '-P 2ybc'
loop_
_symmetry_equiv_pos_site_id
_symmetry_equiv_pos_as_xyz
1 x,y,z
2 -x,1/2+y,1/2-z
3 -x,-y,-z
4 x,1/2-y,1/2+z
_cell_length_a                   22.262(3)
_cell_length_b                   5.2166(7)
_cell_length_c                   15.694(2)
_cell_angle_alpha                90
_cell_angle_beta                 100.464(2)
_cell_angle_gamma                90
_cell_volume                     1792.26
_cell_formula_units_Z            4
loop_
_atom_site_label
_atom_site_type_symbol
_atom_site_fract_x
_atom_site_fract_y
_atom_site_fract_z
C1 C 0.06305(12) 0.7560(5) -0.10476(19)
C2 C 0.10356(12) 0.6209(5) -0.14270(17)
H1 H 0.1065 0.6511 -0.2002
C3 C 0.14091(11) 0.4353(5) -0.09404(16)
C4 C 0.13637(12) 0.3874(5) -0.00711(16)
C5 C 0.09400(12) 0.5332(6) 0.02897(19)
H2 H 0.0904 0.5064 0.0864
C6 C 0.05799(13) 0.7133(6) -0.0187(2)
H3 H 0.0302 0.8072 0.0062
C7 C 0.21624(11) 0.1333(5) -0.09421(15)
C8 C 0.21531(11) 0.0590(5) -0.00565(15)
C9 C 0.17500(11) 0.1920(5) 0.03878(16)
C10 C 0.17510(12) 0.1282(5) 0.12644(16)
H4 H 0.1496 0.2165 0.1571
C11 C 0.21200(13) -0.0606(6) 0.16648(17)
H5 H 0.2117 -0.0991 0.2243
C12 C 0.25022(13) -0.1969(5) 0.12152(17)
H6 H 0.2744 -0.3289 0.1490
C13 C 0.25243(12) -0.1374(5) 0.03710(17)
H7 H 0.2786 -0.2272 0.0079
C14 C 0.26108(12) 0.0138(5) -0.14464(16)
H8 H 0.2454 0.0295 -0.2062
H9 H 0.2656 -0.1671 -0.1307
C15 C 0.37074(11) 0.0772(5) -0.20475(15)
C16 C 0.40834(12) -0.1353(5) -0.19646(17)
H10 H 0.4147 -0.2310 -0.1456
C17 C 0.43630(13) -0.2036(6) -0.26483(19)
H11 H 0.4618 -0.3461 -0.2594
C18 C 0.42712(12) -0.0641(6) -0.34159(18)
C19 C 0.38941(13) 0.1465(6) -0.34794(17)
H12 H 0.3829 0.2421 -0.3988
C20 C 0.36099(13) 0.2194(5) -0.28077(17)
H13 H 0.3356 0.3623 -0.2863
C21 C 0.45883(16) -0.1381(8) -0.4151(2)
H14 H 0.4831 -0.2886 -0.3994
H15 H 0.4847 0.0000 -0.4267
H16 H 0.4289 -0.1728 -0.4660
N1 N 0.18151(10) 0.3070(4) -0.13635(13)
O1 O 0.36738(9) 0.0611(4) -0.04014(11)
O2 O 0.32365(10) 0.4398(4) -0.12347(15)
S1 S 0.33415(3) 0.16769(13) -0.11908(4)
Cl1 Cl 0.01663(4) 0.98500(16) -0.16494(5)
loop_
_geom_bond_atom_site_label_1
_geom_bond_atom_site_label_2
_geom_bond_site_symmetry_1
_geom_bond_site_symmetry_2
C1 C2 1_555 1_555
C2 H1 1_555 1_555
C3 C2 1_555 1_555
C4 C3 1_555 1_555
C5 C4 1_555 1_555
H2 C5 1_555 1_555
C6 C1 1_555 1_555
H3 C6 1_555 1_555
C7 C8 1_555 1_555
C8 C9 1_555 1_555
C9 C4 1_555 1_555
C10 C9 1_555 1_555
H4 C10 1_555 1_555
C11 C10 1_555 1_555
H5 C11 1_555 1_555
C12 C11 1_555 1_555
H6 C12 1_555 1_555
C13 C8 1_555 1_555
H7 C13 1_555 1_555
C14 C7 1_555 1_555
H8 C14 1_555 1_555
H9 C14 1_555 1_555
C15 C16 1_555 1_555
C16 H10 1_555 1_555
C17 C16 1_555 1_555
H11 C17 1_555 1_555
C18 C17 1_555 1_555
C19 C18 1_555 1_555
H12 C19 1_555 1_555
C20 C15 1_555 1_555
H13 C20 1_555 1_555
C21 C18 1_555 1_555
H14 C21 1_555 1_555
H15 C21 1_555 1_555
H16 C21 1_555 1_555
N1 C3 1_555 1_555
O1 S1 1_555 1_555
O2 S1 1_555 1_555
S1 C14 1_555 1_555
Cl1 C1 1_555 1_555
C5 C6 1_555 1_555
C7 N1 1_555 1_555
C12 C13 1_555 1_555
C15 S1 1_555 1_555
C19 C20 1_555 1_555

#END
