
#######################################################################
#
#                 Cambridge Crystallographic Data Centre
#                                CCDC 
#
#######################################################################
#
# If this CIF has been generated from an entry in the Cambridge 
# Structural Database, then it will include bibliographic, chemical, 
# crystal, experimental, refinement or atomic coordinate data resulting 
# from the CCDC's data processing and validation procedures.
#
#######################################################################

data_WEFQAB
_chemical_formula_moiety         'C22 H14 F6 I1 N7 O1,0.5(C1 H2 Cl2)'
_chemical_name_systematic        
'(R)-1-(4-((4-cyano-3-(trifluoromethyl)phenyl)imino)-3a-methyl-2-(trifluoromethyl)-3a,4-dihydro-3H-imidazole(1,5-b)-pyrazol-16-yl)-3-(4-iodophenyl)urea dichloromethane solvate'
_symmetry_cell_setting           triclinic
_symmetry_space_group_name_H-M   'P 1'
_symmetry_Int_Tables_number      1
_space_group_name_Hall           'P 1'
loop_
_symmetry_equiv_pos_site_id
_symmetry_equiv_pos_as_xyz
1 x,y,z
_cell_length_a                   8.604(3)
_cell_length_b                   14.493
_cell_length_c                   21.258
_cell_angle_alpha                87.075
_cell_angle_beta                 84.034
_cell_angle_gamma                85.755
_cell_volume                     2626.72
_exptl_crystal_colour            colorless
_exptl_crystal_description       block
_cell_formula_units_Z            4
loop_
_atom_site_label
_atom_site_type_symbol
_atom_site_fract_x
_atom_site_fract_y
_atom_site_fract_z
I1 I 0.5747(2) 0.1389(1) -0.5863(1)
F1 F 0.0654(15) 0.2345(9) 0.0460(5)
F2 F 0.2455(19) 0.1679(10) -0.0098(6)
F3 F 0.2656(19) 0.3039(10) 0.0126(7)
F4 F 0.1793(18) -0.0370(10) -0.3966(7)
F5 F 0.0448(19) -0.1382(9) -0.3431(10)
F6 F 0.1933(17) -0.0600(10) -0.2968(7)
O1 O 0.4664(18) 0.3883(10) -0.2996(7)
N1 N 0.2508(18) 0.3683(9) -0.2328(7)
N2 N 0.0363(16) 0.2756(9) -0.2432(7)
N3 N 0.0494(18) 0.3535(10) -0.1525(7)
N4 N 0.1457(17) 0.3352(11) -0.1012(7)
N5 N -0.1767(19) 0.1869(11) -0.2089(7)
N6 N -0.1590(30) -0.0580(14) -0.4728(9)
C1 C 0.1130(20) 0.3297(15) -0.2111(9)
C2 C 0.0871(19) 0.2793(11) -0.0604(9)
C3 C -0.0600(20) 0.2388(14) -0.0786(8)
C4 C -0.0890(30) 0.2967(14) -0.1421(11)
C5 C -0.0800(20) 0.2481(13) -0.1996(9)
C6 C 0.3430(20) 0.3533(13) -0.2907(10)
N7 N 0.2790(20) 0.3003(10) -0.3308(8)
C7 C 0.3530(20) 0.2678(13) -0.3892(9)
C8 C 0.4660(20) 0.3135(13) -0.4258(9)
C9 C 0.5270(20) 0.2745(14) -0.4805(9)
C10 C 0.4770(20) 0.1978(13) -0.5031(9)
C11 C 0.3650(30) 0.1487(14) -0.4637(10)
C12 C 0.2990(20) 0.1888(14) -0.4081(10)
C13 C 0.1630(30) 0.2474(13) -0.0036(10)
C14 C -0.2480(20) 0.3640(16) -0.1297(13)
C15 C -0.1650(30) 0.1425(14) -0.2650(10)
C16 C -0.0460(30) 0.0708(14) -0.2764(10)
C17 C -0.0400(30) 0.0188(13) -0.3317(9)
C18 C -0.1540(30) 0.0392(13) -0.3733(11)
C19 C -0.2670(30) 0.1039(14) -0.3664(10)
C20 C -0.2750(20) 0.1578(14) -0.3117(9)
C21 C 0.0950(30) -0.0513(16) -0.3399(10)
C22 C -0.1530(30) -0.0149(15) -0.4318(13)
H1 H 0.2859 0.4070 -0.2077
H2 H -0.1482 0.2489 -0.0461
H3 H -0.0419 0.1718 -0.0858
H4 H 0.1834 0.2844 -0.3200
H5 H 0.5009 0.3700 -0.4133
H6 H 0.6109 0.3033 -0.5042
H7 H 0.3359 0.0901 -0.4750
H8 H 0.2168 0.1605 -0.3835
H9 H -0.2428 0.4188 -0.1586
H10 H -0.2572 0.3832 -0.0860
H11 H -0.3388 0.3305 -0.1372
H12 H 0.0306 0.0574 -0.2469
H13 H -0.3422 0.1147 -0.3968
H14 H -0.3569 0.2053 -0.3060
I2 I -0.6657(2) -0.3319(1) 0.1488(1)
F7 F 0.0880(20) -0.4221(11) -0.4485(8)
F8 F 0.1279(16) -0.3360(10) -0.3766(9)
F9 F 0.0892(15) -0.4817(9) -0.3559(7)
F10 F -0.6775(16) 0.1265(9) -0.2419(7)
F11 F -0.7198(17) 0.1036(9) -0.1438(6)
F12 F -0.5499(16) 0.1941(8) -0.1811(7)
O2 O -0.5820(20) -0.5258(10) -0.1578(8)
N8 N -0.4763(18) -0.4431(11) -0.2437(7)
N9 N -0.4262(19) -0.2892(11) -0.2563(7)
N10 N -0.3740(20) -0.3818(11) -0.3394(8)
N11 N -0.2220(20) -0.4272(10) -0.3413(8)
N12 N -0.3414(19) -0.1440(10) -0.3030(8)
N13 N -0.3930(20) 0.1177(12) -0.0464(9)
C23 C -0.4300(20) -0.3665(13) -0.2736(9)
C24 C -0.1250(20) -0.3747(14) -0.3778(9)
C25 C -0.1970(30) -0.2883(15) -0.4038(10)
C26 C -0.3560(30) -0.2819(12) -0.3670(10)
C27 C -0.3670(20) -0.2299(14) -0.3036(9)
C28 C -0.5370(20) -0.4520(14) -0.1801(12)
N14 N -0.5201(19) -0.3806(11) -0.1423(8)
C29 C -0.5650(20) -0.3715(13) -0.0770(9)
C30 C -0.6180(20) -0.4439(14) -0.0400(10)
C31 C -0.6540(30) -0.4295(16) 0.0258(14)
C32 C -0.6160(20) -0.3499(13) 0.0523(9)
C33 C -0.5480(30) -0.2787(15) 0.0165(10)
C34 C -0.5220(20) -0.2926(14) -0.0532(10)
C35 C 0.0540(30) -0.4041(18) -0.3869(12)
C36 C -0.4920(30) -0.2498(16) -0.4069(11)
C37 C -0.3700(30) -0.0980(14) -0.2474(10)
C38 C -0.4740(20) -0.0235(14) -0.2438(11)
C39 C -0.4870(20) 0.0348(13) -0.1899(8)
C40 C -0.3930(20) 0.0128(14) -0.1405(9)
C41 C -0.2830(20) -0.0641(14) -0.1435(10)
C42 C -0.2730(30) -0.1199(14) -0.1960(15)
C43 C -0.5950(30) 0.1093(19) -0.1881(13)
C44 C -0.3960(20) 0.0724(14) -0.0869(10)
H15 H -0.4685 -0.4934 -0.2656
H16 H -0.2063 -0.2913 -0.4498
H17 H -0.1361 -0.2350 -0.3964
H18 H -0.4742 -0.3332 -0.1613
H19 H -0.6302 -0.5018 -0.0572
H20 H -0.7046 -0.4754 0.0518
H21 H -0.5205 -0.2244 0.0348
H22 H -0.4761 -0.2466 -0.0806
H23 H -0.5141 -0.3003 -0.4330
H24 H -0.4625 -0.1963 -0.4343
H25 H -0.5846 -0.2322 -0.3791
H26 H -0.5402 -0.0092 -0.2772
H27 H -0.2160 -0.0781 -0.1104
H28 H -0.2011 -0.1729 -0.1976
I3 I -0.0907(2) 0.3450(1) 0.5865(1)
F13 F 0.7676(16) -0.0189(9) 0.0415(6)
F14 F 0.7090(16) -0.0750(8) 0.1333(6)
F15 F 0.5425(17) -0.0629(9) 0.0616(7)
F16 F 0.3516(19) 0.5577(11) 0.3990(9)
F17 F 0.4755(18) 0.6460(9) 0.3440(9)
F18 F 0.3178(18) 0.5683(11) 0.3041(9)
O3 O 0.0294(17) 0.1316(10) 0.2926(7)
N15 N 0.2382(17) 0.1607(9) 0.2207(7)
N16 N 0.4454(18) 0.2548(10) 0.2321(7)
N17 N 0.4351(17) 0.1867(10) 0.1383(7)
N18 N 0.4498(17) 0.0939(10) 0.1214(6)
N19 N 0.6910(20) 0.3198(13) 0.2092(9)
N20 N 0.6780(30) 0.5618(14) 0.4745(12)
C45 C 0.3740(20) 0.1982(13) 0.1990(12)
C46 C 0.6010(20) 0.0757(13) 0.1065(8)
C47 C 0.7020(20) 0.1469(14) 0.1196(11)
C48 C 0.5880(20) 0.2299(13) 0.1319(9)
C49 C 0.5890(30) 0.2730(15) 0.1930(12)
C50 C 0.1510(30) 0.1700(12) 0.2834(9)
N21 N 0.2197(18) 0.2181(10) 0.3229(7)
C51 C 0.1450(20) 0.2440(14) 0.3802(9)
C52 C 0.0440(30) 0.1872(15) 0.4158(11)
C53 C -0.0230(20) 0.2175(14) 0.4788(10)
C54 C 0.0130(30) 0.2984(16) 0.5001(10)
C55 C 0.1230(30) 0.3499(15) 0.4673(11)
C56 C 0.1900(20) 0.3231(13) 0.4066(10)
C57 C 0.6460(30) -0.0179(16) 0.0844(10)
C58 C 0.5890(30) 0.3017(16) 0.0775(12)
C59 C 0.6720(30) 0.3685(13) 0.2693(10)
C60 C 0.5560(30) 0.4375(16) 0.2779(11)
C61 C 0.5520(30) 0.4901(14) 0.3303(13)
C62 C 0.6660(30) 0.4696(15) 0.3775(13)
C63 C 0.7830(30) 0.3917(17) 0.3590(14)
C64 C 0.7890(30) 0.3436(15) 0.3101(11)
C65 C 0.4300(30) 0.5633(19) 0.3406(15)
C66 C 0.6710(30) 0.5217(16) 0.4279(12)
H29 H 0.1971 0.1267 0.1942
H30 H 0.7778 0.1595 0.0829
H31 H 0.7602 0.1289 0.1570
H32 H 0.3155 0.2341 0.3124
H33 H 0.0185 0.1304 0.4003
H34 H -0.0914 0.1796 0.5041
H35 H 0.1545 0.4037 0.4850
H36 H 0.2651 0.3595 0.3839
H37 H 0.5094 0.3521 0.0876
H38 H 0.5648 0.2729 0.0391
H39 H 0.6919 0.3266 0.0707
H40 H 0.4796 0.4490 0.2483
H41 H 0.8616 0.3763 0.3871
H42 H 0.8668 0.2947 0.3021
I4 I 0.1822(2) -0.1526(1) -0.1481(1)
F19 F 0.1914(14) -0.1726(9) 0.5130(6)
F20 F 0.3518(17) -0.1984(14) 0.4334(7)
F21 F 0.2700(20) -0.0594(12) 0.4543(9)
F22 F 0.1500(20) -0.6198(11) 0.2357(11)
F23 F 0.0323(17) -0.6646(9) 0.1600(8)
F24 F 0.2213(17) -0.5818(10) 0.1372(9)
O4 O 0.0822(18) 0.0433(9) 0.1545(7)
N22 N 0.0070(20) -0.0405(11) 0.2406(8)
N23 N -0.0590(20) -0.1949(11) 0.2512(9)
N24 N -0.0708(19) -0.1078(10) 0.3422(8)
N25 N 0.0609(18) -0.0801(11) 0.3708(7)
N26 N -0.1338(19) -0.3363(10) 0.3054(9)
N27 N -0.0790(20) -0.5508(13) 0.0242(9)
C67 C -0.0420(20) -0.1131(14) 0.2780(12)
C68 C 0.0960(20) -0.1478(15) 0.4120(8)
C69 C 0.0060(30) -0.2355(16) 0.4132(12)
C70 C -0.1180(20) -0.1993(13) 0.3662(9)
C71 C -0.1070(20) -0.2521(14) 0.3042(11)
C72 C 0.0490(30) -0.0289(15) 0.1733(11)
N28 N 0.0558(19) -0.1105(11) 0.1446(9)
C73 C 0.0860(30) -0.1155(14) 0.0768(11)
C74 C 0.1730(20) -0.0554(14) 0.0416(9)
C75 C 0.1940(20) -0.0657(12) -0.0229(8)
C76 C 0.1410(30) -0.1378(15) -0.0520(10)
C77 C 0.0590(20) -0.2027(14) -0.0109(13)
C78 C 0.0270(30) -0.1893(14) 0.0523(9)
C79 C 0.2300(30) -0.1428(18) 0.4523(12)
C80 C -0.2890(20) -0.1936(13) 0.3954(9)
C81 C -0.1310(20) -0.3809(13) 0.2512(13)
C82 C -0.0350(30) -0.4613(14) 0.2401(10)
C83 C -0.0150(30) -0.5061(13) 0.1821(12)
C84 C -0.1050(20) -0.4706(13) 0.1327(11)
C85 C -0.2050(30) -0.3966(15) 0.1391(11)
C86 C -0.2160(20) -0.3485(13) 0.1997(9)
C87 C 0.1160(40) -0.5960(20) 0.1781(14)
C88 C -0.0900(20) -0.5181(15) 0.0759(13)
H43 H 0.0133 0.0099 0.2613
H44 H -0.0436 -0.2512 0.4558
H45 H 0.0721 -0.2894 0.3972
H46 H 0.0413 -0.1617 0.1677
H47 H 0.2184 -0.0072 0.0606
H48 H 0.2475 -0.0203 -0.0483
H49 H 0.0247 -0.2563 -0.0280
H50 H -0.0335 -0.2306 0.0784
H51 H -0.3570 -0.1636 0.3647
H52 H -0.2970 -0.1574 0.4334
H53 H -0.3210 -0.2562 0.4067
H54 H 0.0215 -0.4877 0.2740
H55 H -0.2681 -0.3752 0.1060
H56 H -0.2830 -0.2937 0.2039
Cl1 Cl 0.5938(7) 0.0130(4) 0.2704(3)
Cl2 Cl 0.4126(9) -0.1501(6) 0.2638(4)
C89 C 0.4150(30) -0.0423(17) 0.2776(17)
H57 H 0.3677 -0.0341 0.3212
H58 H 0.3444 -0.0076 0.2490
Cl3 Cl 0.0456(14) 0.5986(7) -0.2141(4)
Cl4 Cl -0.1541(8) 0.6297(5) -0.0986(4)
C90 C 0.0260(20) 0.5887(12) -0.1286(9)
H59 H 0.0435 0.5229 -0.1146
H60 H 0.1062 0.6238 -0.1118
loop_
_geom_bond_atom_site_label_1
_geom_bond_atom_site_label_2
_geom_bond_site_symmetry_1
_geom_bond_site_symmetry_2
I1 C10 1_555 1_555
F1 C13 1_555 1_555
F2 C13 1_555 1_555
F3 C13 1_555 1_555
F4 C21 1_555 1_555
F5 C21 1_555 1_555
F6 C21 1_555 1_555
O1 C6 1_555 1_555
N1 C1 1_555 1_555
N2 C1 1_555 1_555
N3 N4 1_555 1_555
N4 C2 1_555 1_555
N5 C5 1_555 1_555
N6 C22 1_555 1_555
C1 N3 1_555 1_555
C2 C3 1_555 1_555
C3 C4 1_555 1_555
C4 N3 1_555 1_555
C5 N2 1_555 1_555
C6 N1 1_555 1_555
N7 C6 1_555 1_555
C7 N7 1_555 1_555
C8 C7 1_555 1_555
C9 C8 1_555 1_555
C10 C9 1_555 1_555
C11 C10 1_555 1_555
C12 C7 1_555 1_555
C13 C2 1_555 1_555
C14 C4 1_555 1_555
C15 N5 1_555 1_555
C16 C15 1_555 1_555
C17 C16 1_555 1_555
C18 C17 1_555 1_555
C19 C18 1_555 1_555
C20 C15 1_555 1_555
C21 C17 1_555 1_555
C22 C18 1_555 1_555
I2 C32 1_555 1_555
F7 C35 1_555 1_555
F8 C35 1_555 1_555
F9 C35 1_555 1_555
F10 C43 1_555 1_555
F11 C43 1_555 1_555
F12 C43 1_555 1_555
O2 C28 1_555 1_555
N8 C23 1_555 1_555
N9 C23 1_555 1_555
N10 N11 1_555 1_555
N11 C24 1_555 1_555
N12 C27 1_555 1_555
N13 C44 1_555 1_555
C23 N10 1_555 1_555
C24 C25 1_555 1_555
C25 C26 1_555 1_555
C26 N10 1_555 1_555
C27 N9 1_555 1_555
C28 N8 1_555 1_555
N14 C28 1_555 1_555
C29 N14 1_555 1_555
C30 C29 1_555 1_555
C31 C30 1_555 1_555
C32 C31 1_555 1_555
C33 C32 1_555 1_555
C34 C29 1_555 1_555
C35 C24 1_555 1_555
C36 C26 1_555 1_555
C37 N12 1_555 1_555
C38 C37 1_555 1_555
C39 C38 1_555 1_555
C40 C39 1_555 1_555
C41 C40 1_555 1_555
C42 C37 1_555 1_555
C43 C39 1_555 1_555
C44 C40 1_555 1_555
I3 C54 1_555 1_555
F13 C57 1_555 1_555
F14 C57 1_555 1_555
F15 C57 1_555 1_555
F16 C65 1_555 1_555
F17 C65 1_555 1_555
F18 C65 1_555 1_555
O3 C50 1_555 1_555
N15 C45 1_555 1_555
N16 C45 1_555 1_555
N17 N18 1_555 1_555
N18 C46 1_555 1_555
N19 C49 1_555 1_555
N20 C66 1_555 1_555
C45 N17 1_555 1_555
C46 C47 1_555 1_555
C47 C48 1_555 1_555
C48 N17 1_555 1_555
C49 N16 1_555 1_555
C50 N15 1_555 1_555
N21 C50 1_555 1_555
C51 N21 1_555 1_555
C52 C51 1_555 1_555
C53 C52 1_555 1_555
C54 C53 1_555 1_555
C55 C54 1_555 1_555
C56 C51 1_555 1_555
C57 C46 1_555 1_555
C58 C48 1_555 1_555
C59 N19 1_555 1_555
C60 C59 1_555 1_555
C61 C60 1_555 1_555
C62 C61 1_555 1_555
C63 C62 1_555 1_555
C64 C59 1_555 1_555
C65 C61 1_555 1_555
C66 C62 1_555 1_555
I4 C76 1_555 1_555
F19 C79 1_555 1_555
F20 C79 1_555 1_555
F21 C79 1_555 1_555
F22 C87 1_555 1_555
F23 C87 1_555 1_555
F24 C87 1_555 1_555
O4 C72 1_555 1_555
N22 C67 1_555 1_555
N23 C67 1_555 1_555
N24 N25 1_555 1_555
N25 C68 1_555 1_555
N26 C71 1_555 1_555
N27 C88 1_555 1_555
C67 N24 1_555 1_555
C68 C69 1_555 1_555
C69 C70 1_555 1_555
C70 N24 1_555 1_555
C71 N23 1_555 1_555
C72 N22 1_555 1_555
N28 C72 1_555 1_555
C73 N28 1_555 1_555
C74 C73 1_555 1_555
C75 C74 1_555 1_555
C76 C75 1_555 1_555
C77 C76 1_555 1_555
C78 C73 1_555 1_555
C79 C68 1_555 1_555
C80 C70 1_555 1_555
C81 N26 1_555 1_555
C82 C81 1_555 1_555
C83 C82 1_555 1_555
C84 C83 1_555 1_555
C85 C84 1_555 1_555
C86 C81 1_555 1_555
C87 C83 1_555 1_555
C88 C84 1_555 1_555
Cl1 C89 1_555 1_555
Cl2 C89 1_555 1_555
C89 H57 1_555 1_555
Cl3 C90 1_555 1_555
Cl4 C90 1_555 1_555
C90 H59 1_555 1_555
H1 N1 1_555 1_555
H2 C3 1_555 1_555
H3 C3 1_555 1_555
H4 N7 1_555 1_555
H5 C8 1_555 1_555
H6 C9 1_555 1_555
H7 C11 1_555 1_555
H8 C12 1_555 1_555
H9 C14 1_555 1_555
H10 C14 1_555 1_555
H11 C14 1_555 1_555
H12 C16 1_555 1_555
H13 C19 1_555 1_555
H14 C20 1_555 1_555
H15 N8 1_555 1_555
H16 C25 1_555 1_555
H17 C25 1_555 1_555
H18 N14 1_555 1_555
H19 C30 1_555 1_555
H20 C31 1_555 1_555
H21 C33 1_555 1_555
H22 C34 1_555 1_555
H23 C36 1_555 1_555
H24 C36 1_555 1_555
H25 C36 1_555 1_555
H26 C38 1_555 1_555
H27 C41 1_555 1_555
H28 C42 1_555 1_555
H29 N15 1_555 1_555
H30 C47 1_555 1_555
H31 C47 1_555 1_555
H32 N21 1_555 1_555
H33 C52 1_555 1_555
H34 C53 1_555 1_555
H35 C55 1_555 1_555
H36 C56 1_555 1_555
H37 C58 1_555 1_555
H38 C58 1_555 1_555
H39 C58 1_555 1_555
H40 C60 1_555 1_555
H41 C63 1_555 1_555
H42 C64 1_555 1_555
H43 N22 1_555 1_555
H44 C69 1_555 1_555
H45 C69 1_555 1_555
H46 N28 1_555 1_555
H47 C74 1_555 1_555
H48 C75 1_555 1_555
H49 C77 1_555 1_555
H50 C78 1_555 1_555
H51 C80 1_555 1_555
H52 C80 1_555 1_555
H53 C80 1_555 1_555
H54 C82 1_555 1_555
H55 C85 1_555 1_555
H56 C86 1_555 1_555
H58 C89 1_555 1_555
H60 C90 1_555 1_555
C4 C5 1_555 1_555
C11 C12 1_555 1_555
C19 C20 1_555 1_555
C26 C27 1_555 1_555
C33 C34 1_555 1_555
C41 C42 1_555 1_555
C48 C49 1_555 1_555
C55 C56 1_555 1_555
C63 C64 1_555 1_555
C70 C71 1_555 1_555
C77 C78 1_555 1_555
C85 C86 1_555 1_555

#END
