
#######################################################################
#
#                 Cambridge Crystallographic Data Centre
#                                CCDC 
#
#######################################################################
#
# If this CIF has been generated from an entry in the Cambridge 
# Structural Database, then it will include bibliographic, chemical, 
# crystal, experimental, refinement or atomic coordinate data resulting 
# from the CCDC's data processing and validation procedures.
#
#######################################################################

data_WEFTAF
_chemical_name_common            
2-(4-(2-(4-benzylpiperazin-1-yl)ethyl)benzyl)isoindoline-1,3-dione
_chemical_formula_moiety         'C28 H29 N3 O2'
_chemical_name_systematic        
2-({4-[2-(4-benzylpiperazin-1-yl)ethyl]phenyl}methyl)-1H-isoindole-1,3(2H)-dione
_symmetry_cell_setting           triclinic
_symmetry_space_group_name_H-M   'P -1'
_symmetry_Int_Tables_number      2
_space_group_name_Hall           '-P 1'
loop_
_symmetry_equiv_pos_site_id
_symmetry_equiv_pos_as_xyz
1 x,y,z
2 -x,-y,-z
_cell_length_a                   6.7598(9)
_cell_length_b                   10.1294(13)
_cell_length_c                   18.386(3)
_cell_angle_alpha                78.536(7)
_cell_angle_beta                 83.758(8)
_cell_angle_gamma                76.550(8)
_cell_volume                     1197.4
_exptl_crystal_colour            colorless
_exptl_crystal_description       block
_cell_formula_units_Z            2
loop_
_atom_site_label
_atom_site_type_symbol
_atom_site_fract_x
_atom_site_fract_y
_atom_site_fract_z
O1 O 0.8660(2) 0.65881(13) 0.53863(8)
O2 O 0.8327(2) 0.97962(14) 0.32486(7)
N1 N 0.1450(3) 0.10231(16) 0.13796(9)
N2 N 0.2960(2) 0.25639(16) 0.22743(8)
N3 N 0.8640(2) 0.79341(15) 0.42150(8)
C1 C 0.0248(5) -0.2082(3) 0.08416(13)
H1 H -0.1063 -0.2047 0.1063
C2 C 0.1187(8) -0.3172(3) 0.04869(18)
H2 H 0.0498 -0.3859 0.0470
C3 C 0.3127(8) -0.3247(3) 0.0160(2)
H3 H 0.3754 -0.3987 -0.0073
C4 C 0.4138(5) -0.2224(3) 0.01788(15)
H4 H 0.5450 -0.2267 -0.0043
C5 C 0.3186(4) -0.1118(3) 0.05332(13)
H5 H 0.3872 -0.0425 0.0542
C6 C 0.1244(4) -0.1039(2) 0.08702(11)
C7 C 0.0148(3) 0.0144(2) 0.12364(11)
H6 H -0.0914 0.0707 0.0924
H7 H -0.0508 -0.0219 0.1705
C8 C 0.2778(3) 0.0350(2) 0.19798(11)
H8 H 0.3601 -0.0513 0.1865
H9 H 0.1959 0.0145 0.2438
C9 C 0.0214(3) 0.2297(2) 0.15857(12)
H10 H -0.0612 0.2080 0.2040
H11 H -0.0696 0.2768 0.1197
C10 C 0.1552(3) 0.3232(2) 0.17003(11)
H12 H 0.2318 0.3490 0.1237
H13 H 0.0703 0.4068 0.1840
C11 C 0.4142(3) 0.12719(19) 0.20814(11)
H14 H 0.5047 0.0802 0.2472
H15 H 0.4974 0.1463 0.1625
C12 C 0.4298(3) 0.3438(2) 0.23836(11)
H16 H 0.5044 0.3692 0.1915
H17 H 0.5284 0.2909 0.2736
C13 C 0.3190(3) 0.4747(2) 0.26657(12)
H18 H 0.2488 0.5400 0.2265
H19 H 0.2182 0.4530 0.3062
C14 C 0.4701(3) 0.53845(19) 0.29533(11)
C15 C 0.5202(3) 0.49898(19) 0.36845(11)
H20 H 0.4510 0.4394 0.4009
C16 C 0.6702(3) 0.54561(18) 0.39467(10)
H21 H 0.7026 0.5154 0.4440
C17 C 0.7726(3) 0.63633(19) 0.34878(11)
C18 C 0.7201(4) 0.6791(2) 0.27633(12)
H22 H 0.7858 0.7414 0.2445
C19 C 0.5707(4) 0.6309(2) 0.24977(12)
H23 H 0.5381 0.6615 0.2005
C20 C 0.9407(3) 0.68385(19) 0.37745(11)
H24 H 1.0236 0.6056 0.4079
H25 H 1.0272 0.7172 0.3355
C21 C 0.8221(3) 0.93345(19) 0.39085(11)
C22 C 0.8389(3) 0.77143(19) 0.49878(11)
C23 C 0.7753(3) 0.90985(18) 0.51921(10)
C24 C 0.7336(3) 0.9490(2) 0.58849(10)
H26 H 0.7403 0.8839 0.6321
C25 C 0.6818(3) 1.0886(2) 0.58983(11)
H27 H 0.6500 1.1181 0.6353
C26 C 0.6760(3) 1.1854(2) 0.52503(12)
H28 H 0.6423 1.2788 0.5278
C27 C 0.7194(3) 1.14630(19) 0.45619(11)
H29 H 0.7161 1.2114 0.4126
C28 C 0.7678(3) 1.00705(18) 0.45474(10)
loop_
_geom_bond_atom_site_label_1
_geom_bond_atom_site_label_2
_geom_bond_site_symmetry_1
_geom_bond_site_symmetry_2
O1 C22 1_555 1_555
O2 C21 1_555 1_555
N1 C7 1_555 1_555
N2 C10 1_555 1_555
N3 C20 1_555 1_555
C1 H1 1_555 1_555
C2 C1 1_555 1_555
H2 C2 1_555 1_555
C3 C2 1_555 1_555
H3 C3 1_555 1_555
C4 C3 1_555 1_555
H4 C4 1_555 1_555
C5 C4 1_555 1_555
H5 C5 1_555 1_555
C6 C1 1_555 1_555
C7 C6 1_555 1_555
H6 C7 1_555 1_555
H7 C7 1_555 1_555
C8 N1 1_555 1_555
H8 C8 1_555 1_555
H9 C8 1_555 1_555
C9 N1 1_555 1_555
H10 C9 1_555 1_555
H11 C9 1_555 1_555
C10 C9 1_555 1_555
H12 C10 1_555 1_555
H13 C10 1_555 1_555
C11 N2 1_555 1_555
H14 C11 1_555 1_555
H15 C11 1_555 1_555
C12 N2 1_555 1_555
H16 C12 1_555 1_555
H17 C12 1_555 1_555
C13 C12 1_555 1_555
H18 C13 1_555 1_555
H19 C13 1_555 1_555
C14 C13 1_555 1_555
C15 C14 1_555 1_555
H20 C15 1_555 1_555
C16 C15 1_555 1_555
H21 C16 1_555 1_555
C17 C16 1_555 1_555
C18 C17 1_555 1_555
H22 C18 1_555 1_555
C19 C14 1_555 1_555
H23 C19 1_555 1_555
C20 C17 1_555 1_555
H24 C20 1_555 1_555
H25 C20 1_555 1_555
C21 N3 1_555 1_555
C22 N3 1_555 1_555
C23 C22 1_555 1_555
C24 C23 1_555 1_555
H26 C24 1_555 1_555
C25 C24 1_555 1_555
H27 C25 1_555 1_555
C26 C25 1_555 1_555
H28 C26 1_555 1_555
C27 C26 1_555 1_555
H29 C27 1_555 1_555
C28 C21 1_555 1_555
C5 C6 1_555 1_555
C8 C11 1_555 1_555
C18 C19 1_555 1_555
C23 C28 1_555 1_555
C27 C28 1_555 1_555

#END
