
#######################################################################
#
#                 Cambridge Crystallographic Data Centre
#                                CCDC 
#
#######################################################################
#
# If this CIF has been generated from an entry in the Cambridge 
# Structural Database, then it will include bibliographic, chemical, 
# crystal, experimental, refinement or atomic coordinate data resulting 
# from the CCDC's data processing and validation procedures.
#
#######################################################################

data_WEGHAS
_chemical_formula_moiety         'C10 H19 Cl1 O1'
_chemical_name_systematic        
(1R*,2S*,3R*)-3-Chloro-1,2,5,5-tetramethylcyclohexanol
_symmetry_cell_setting           tetragonal
_symmetry_space_group_name_H-M   'I -4'
_symmetry_Int_Tables_number      82
_space_group_name_Hall           'I -4'
loop_
_symmetry_equiv_pos_site_id
_symmetry_equiv_pos_as_xyz
1 x,y,z
2 -x,-y,z
3 y,-x,-z
4 -y,x,-z
5 1/2+x,1/2+y,1/2+z
6 1/2-x,1/2-y,1/2+z
7 1/2+y,1/2-x,1/2-z
8 1/2-y,1/2+x,1/2-z
_cell_length_a                   16.4301(4)
_cell_length_b                   16.4301(4)
_cell_length_c                   8.2720(5)
_cell_angle_alpha                90
_cell_angle_beta                 90
_cell_angle_gamma                90
_cell_volume                     2233.01
_exptl_crystal_colour            colorless
_exptl_crystal_description       columnar
_chemical_melting_point          '328 K'
_cell_formula_units_Z            8
loop_
_atom_site_label
_atom_site_type_symbol
_atom_site_fract_x
_atom_site_fract_y
_atom_site_fract_z
C1 C 0.77078(11) 0.85944(9) 0.8726(2)
H1 H 0.8051 0.8575 0.9724
C2 C 0.81487(10) 0.91169(9) 0.74750(18)
H2 H 0.8691 0.8862 0.7269
C3 C 0.83001(9) 0.99591(8) 0.82356(16)
C4 C 0.75070(10) 1.03376(9) 0.88290(19)
H3 H 0.7186 1.0503 0.7871
H4 H 0.7643 1.0839 0.9434
C5 C 0.69558(10) 0.98026(11) 0.9920(2)
C6 C 0.68784(10) 0.89440(12) 0.9187(2)
H5 H 0.6613 0.8579 0.9980
H6 H 0.6529 0.8969 0.8214
C7 C 0.76981(15) 0.91690(12) 0.5846(2)
H7 H 0.7533 0.8622 0.5506
H8 H 0.8060 0.9405 0.5030
H9 H 0.7215 0.9513 0.5966
C8 C 0.87213(11) 1.05309(11) 0.7037(2)
H10 H 0.8880 1.1033 0.7593
H11 H 0.8347 1.0661 0.6153
H12 H 0.9207 1.0264 0.6599
C9 C 0.72766(13) 0.97630(15) 1.1661(2)
H13 H 0.7289 1.0312 1.2122
H14 H 0.7828 0.9535 1.1660
H15 H 0.6918 0.9416 1.2311
C10 C 0.61000(13) 1.01902(18) 0.9985(4)
H16 H 0.6147 1.0763 1.0302
H17 H 0.5765 0.9899 1.0777
H18 H 0.5845 1.0154 0.8916
Cl1 Cl 0.75988(4) 0.75613(2) 0.79746(6)
O1 O 0.88463(6) 0.98097(7) 0.95750(15)
H19 H 0.9025(17) 1.0251(13) 0.986(3)
loop_
_geom_bond_atom_site_label_1
_geom_bond_atom_site_label_2
_geom_bond_site_symmetry_1
_geom_bond_site_symmetry_2
C1 H1 1_555 1_555
C2 C1 1_555 1_555
H2 C2 1_555 1_555
C3 C2 1_555 1_555
C4 C3 1_555 1_555
H3 C4 1_555 1_555
H4 C4 1_555 1_555
C5 C4 1_555 1_555
C6 C1 1_555 1_555
H5 C6 1_555 1_555
H6 C6 1_555 1_555
C7 C2 1_555 1_555
H7 C7 1_555 1_555
H8 C7 1_555 1_555
H9 C7 1_555 1_555
C8 C3 1_555 1_555
H10 C8 1_555 1_555
H11 C8 1_555 1_555
H12 C8 1_555 1_555
C9 C5 1_555 1_555
H13 C9 1_555 1_555
H14 C9 1_555 1_555
H15 C9 1_555 1_555
C10 C5 1_555 1_555
H16 C10 1_555 1_555
H17 C10 1_555 1_555
H18 C10 1_555 1_555
Cl1 C1 1_555 1_555
O1 C3 1_555 1_555
H19 O1 1_555 1_555
C5 C6 1_555 1_555

#END
