
#######################################################################
#
#                 Cambridge Crystallographic Data Centre
#                                CCDC 
#
#######################################################################
#
# If this CIF has been generated from an entry in the Cambridge 
# Structural Database, then it will include bibliographic, chemical, 
# crystal, experimental, refinement or atomic coordinate data resulting 
# from the CCDC's data processing and validation procedures.
#
#######################################################################

data_WEGJAU
_chemical_formula_moiety         'C30 H39 N1 O6'
_chemical_name_systematic        
(-)-(aS,1'S,1''S,4''R)-N,N-di-isopropyl-8-methoxy-2-(1'-(4'',7'',7''-trimethyl-3''-oxo-2''-oxabicyclo(2.2.1)heptanecarbonyloxy)ethyl)-1-naphthamide
_symmetry_cell_setting           monoclinic
_symmetry_space_group_name_H-M   'P 21'
_symmetry_Int_Tables_number      4
_space_group_name_Hall           'P 2yb'
loop_
_symmetry_equiv_pos_site_id
_symmetry_equiv_pos_as_xyz
1 x,y,z
2 -x,1/2+y,-z
_cell_length_a                   14.0513(9)
_cell_length_b                   14.5754(9)
_cell_length_c                   15.3593(9)
_cell_angle_alpha                90
_cell_angle_beta                 113.3060(10)
_cell_angle_gamma                90
_cell_volume                     2888.97
_exptl_crystal_colour            colorless
_exptl_crystal_description       block
_chemical_melting_point          211-212deg.C
_cell_formula_units_Z            4
loop_
_atom_site_label
_atom_site_type_symbol
_atom_site_fract_x
_atom_site_fract_y
_atom_site_fract_z
O1 O 0.36234(16) 0.04978(13) 0.84869(14)
O2 O 0.59756(16) 0.08041(14) 0.93143(14)
O3 O 0.16792(16) 0.22096(13) 0.77873(13)
O4 O 0.07172(18) 0.13484(16) 0.65221(16)
O5 O -0.06753(16) 0.09759(17) 0.72796(16)
O6 O -0.17715(19) 0.00324(18) 0.75723(17)
N1 N 0.42649(19) 0.08148(17) 0.73747(17)
C1 C 0.4260(2) 0.2003(2) 0.8521(2)
C2 C 0.5219(2) 0.2267(2) 0.9267(2)
C3 C 0.6109(2) 0.1680(2) 0.9659(2)
C4 C 0.7015(2) 0.1987(2) 1.0353(2)
C5 C 0.7076(2) 0.2885(2) 1.0702(2)
C6 C 0.6254(2) 0.3468(2) 1.0363(2)
C7 C 0.5313(2) 0.3165(2) 0.9647(2)
C8 C 0.4444(2) 0.3755(2) 0.9315(2)
C9 C 0.3543(2) 0.3488(2) 0.8610(2)
C10 C 0.3444(2) 0.2616(2) 0.8188(2)
C11 C 0.4058(2) 0.1025(2) 0.8138(2)
C12 C 0.4829(2) 0.1448(2) 0.6995(2)
C13 C 0.5869(2) 0.1061(2) 0.7079(2)
C14 C 0.4165(2) 0.1747(2) 0.5985(2)
C15 C 0.3994(2) -0.0103(2) 0.6928(2)
C16 C 0.4628(2) -0.0858(2) 0.7578(2)
C17 C 0.2841(2) -0.0303(2) 0.6558(2)
C18 C 0.6868(2) 0.0223(2) 0.9641(2)
C19 C 0.2443(2) 0.2372(2) 0.7378(2)
C20 C 0.2036(2) 0.3121(2) 0.6630(2)
C21 C 0.0886(2) 0.1650(2) 0.7295(2)
C22 C 0.0286(2) 0.1425(2) 0.7884(2)
C23 C -0.0043(2) 0.2187(2) 0.8384(2)
C24 C -0.0401(2) 0.1637(2) 0.9068(2)
C25 C -0.0217(2) 0.0624(2) 0.8864(2)
C26 C -0.0993(2) 0.0475(2) 0.7865(2)
C27 C 0.0781(2) 0.0699(2) 0.8665(2)
C28 C 0.1065(2) -0.0182(2) 0.8291(2)
C29 C 0.1743(2) 0.1026(2) 0.9505(2)
C30 C -0.0257(2) -0.0076(2) 0.9575(2)
H2 H 0.7590 0.1603 1.0593
H3 H 0.7692 0.3087 1.1173
H4 H 0.6308 0.4061 1.0601
H5 H 0.4494 0.4335 0.9583
H6 H 0.2978 0.3884 0.8403
H11 H 0.4973 0.1973 0.7370
H12 H 0.4167 -0.0098 0.6403
H13 H 0.2535 0.1835 0.7094
H17 H 0.0537 0.2585 0.8731
H18 H -0.0605 0.2549 0.7941
H19 H 0.0012 0.1795 0.9723
H20 H -0.1127 0.1748 0.8929
H25 H 0.7374 0.0471 0.9431
H26 H 0.6237 0.1512 0.6877
H27 H 0.4541 -0.1418 0.7225
H28 H 0.4502 0.2242 0.5808
H29 H 0.2491 0.3178 0.6304
H30 H 0.1184 -0.0665 0.8747
H31 H 0.6270 0.0901 0.7728
H32 H 0.5756 0.0524 0.6689
H33 H 0.4073 0.1241 0.5558
H34 H 0.3502 0.1948 0.5953
H35 H 0.5345 -0.0683 0.7831
H36 H 0.4406 -0.0949 0.8088
H37 H 0.7157 0.0192 1.0321
H38 H 0.6675 -0.0382 0.9384
H39 H 0.1353 0.2965 0.6185
H40 H 0.2012 0.3693 0.6930
H41 H 0.0506 -0.0351 0.7709
H42 H 0.1682 -0.0084 0.8177
H68 H 0.2461 0.0232 0.6246
H69 H 0.2319 0.1067 0.9320
H70 H -0.0233 -0.0680 0.9335
H71 H 0.2675 -0.0803 0.6115
H72 H 0.2656 -0.0465 0.7077
H73 H 0.1607 0.1619 0.9701
H74 H 0.1905 0.0600 1.0021
H75 H 0.0324 0.0007 1.0168
H76 H -0.0889 -0.0003 0.9668
O7 O 0.40036(17) 0.04908(14) 0.37409(14)
O8 O 0.63019(16) 0.08229(14) 0.45689(14)
O9 O 0.19503(16) 0.22563(14) 0.27004(14)
O10 O 0.12097(19) 0.12574(17) 0.14940(16)
O11 O -0.04302(17) 0.10065(16) 0.19362(14)
O12 O -0.16678(18) 0.01626(17) 0.21239(17)
N2 N 0.45915(19) 0.07633(17) 0.25832(17)
C31 C 0.4583(2) 0.1991(2) 0.3682(2)
C32 C 0.5504(2) 0.2278(2) 0.4441(2)
C33 C 0.6401(2) 0.1706(2) 0.4883(2)
C34 C 0.7281(2) 0.2038(2) 0.5584(2)
C35 C 0.7324(2) 0.2953(2) 0.5893(2)
C36 C 0.6491(2) 0.3507(2) 0.5524(2)
C37 C 0.5569(2) 0.3186(2) 0.4796(2)
C38 C 0.4694(2) 0.3759(2) 0.4417(2)
C39 C 0.3826(2) 0.3484(2) 0.3683(2)
C40 C 0.3766(2) 0.2596(2) 0.3291(2)
C41 C 0.4398(2) 0.1004(2) 0.3343(2)
C42 C 0.5091(2) 0.1394(2) 0.2131(2)
C43 C 0.6185(2) 0.1102(2) 0.2302(2)
C44 C 0.4432(2) 0.1512(2) 0.1084(2)
C45 C 0.4408(2) -0.0196(2) 0.2225(2)
C46 C 0.5130(2) -0.0872(2) 0.2932(2)
C47 C 0.3273(2) -0.0473(2) 0.1893(2)
C48 C 0.7126(2) 0.0201(2) 0.5080(2)
C49 C 0.2828(2) 0.2347(2) 0.2414(2)
C50 C 0.2553(2) 0.3044(2) 0.1622(2)
C51 C 0.1209(2) 0.1671(2) 0.2170(2)
C52 C 0.0408(2) 0.1580(2) 0.2581(2)
C53 C -0.0123(2) 0.2452(2) 0.2700(3)
C54 C -0.0713(3) 0.2085(2) 0.3296(3)
C55 C -0.0415(2) 0.1045(2) 0.3441(2)
C56 C -0.0934(2) 0.0659(2) 0.2462(2)
C57 C 0.0710(2) 0.1067(2) 0.3517(2)
C58 C 0.1159(2) 0.0128(2) 0.3498(2)
C59 C 0.1455(2) 0.1593(3) 0.4374(2)
C60 C -0.0673(3) 0.0549(3) 0.4166(2)
H1 H 0.4714 0.4340 0.4675
H7 H 0.7854 0.1658 0.5857
H8 H 0.6527 0.4103 0.5751
H9 H 0.7934 0.3173 0.6360
H10 H 0.3263 0.3880 0.3439
H14 H 0.5134 0.1965 0.2415
H15 H 0.4570 -0.0215 0.1694
H16 H 0.2946 0.1783 0.2190
H21 H 0.0377 0.2919 0.3041
H22 H -0.0587 0.2693 0.2091
H23 H -0.0501 0.2406 0.3896
H24 H -0.1454 0.2155 0.2947
H43 H 0.7731 0.0353 0.4965
H44 H 0.6478 0.1536 0.2008
H45 H 0.5836 -0.0719 0.3056
H46 H 0.4472 0.0969 0.0747
H47 H 0.2846 -0.0026 0.1452
H48 H 0.3162 0.3178 0.1507
H49 H 0.2124 0.1633 0.4345
H50 H -0.0395 0.0879 0.4754
H51 H 0.6595 0.1084 0.2971
H52 H 0.6175 0.0505 0.2035
H53 H 0.3725 0.1618 0.0994
H54 H 0.4683 0.2027 0.0848
H55 H 0.5025 -0.0847 0.3513
H56 H 0.4983 -0.1481 0.2673
H57 H 0.3177 -0.1061 0.1588
H58 H 0.3083 -0.0510 0.2427
H59 H 0.7282 0.0253 0.5746
H60 H 0.6918 -0.0417 0.4876
H61 H 0.2023 0.2806 0.1054
H62 H 0.2309 0.3596 0.1807
H63 H 0.1185 0.2199 0.4367
H64 H 0.1518 0.1285 0.4946
H65 H -0.1412 0.0506 0.3955
H66 H -0.0380 -0.0056 0.4255
H67 H 0.1212 -0.0206 0.4054
H77 H 0.0718 -0.0200 0.2943
H78 H 0.1835 0.0195 0.3490
loop_
_geom_bond_atom_site_label_1
_geom_bond_atom_site_label_2
_geom_bond_site_symmetry_1
_geom_bond_site_symmetry_2
O1 C11 1_555 1_555
O2 C3 1_555 1_555
O3 C19 1_555 1_555
O4 C21 1_555 1_555
O5 C22 1_555 1_555
O6 C26 1_555 1_555
O7 C41 1_555 1_555
O8 C33 1_555 1_555
O9 C49 1_555 1_555
O10 C51 1_555 1_555
O11 C52 1_555 1_555
O12 C56 1_555 1_555
N1 C11 1_555 1_555
N2 C41 1_555 1_555
C1 C2 1_555 1_555
C2 C3 1_555 1_555
C3 C4 1_555 1_555
C4 C5 1_555 1_555
C5 C6 1_555 1_555
C6 C7 1_555 1_555
C7 C2 1_555 1_555
C8 C7 1_555 1_555
C9 C8 1_555 1_555
C10 C1 1_555 1_555
C11 C1 1_555 1_555
C12 N1 1_555 1_555
C13 C12 1_555 1_555
C14 C12 1_555 1_555
C15 N1 1_555 1_555
C16 C15 1_555 1_555
C17 C15 1_555 1_555
C18 O2 1_555 1_555
C19 C10 1_555 1_555
C20 C19 1_555 1_555
C21 O3 1_555 1_555
C22 C21 1_555 1_555
C23 C22 1_555 1_555
C24 C23 1_555 1_555
C25 C24 1_555 1_555
C26 O5 1_555 1_555
C27 C22 1_555 1_555
C28 C27 1_555 1_555
C29 C27 1_555 1_555
C30 C25 1_555 1_555
C31 C32 1_555 1_555
C32 C33 1_555 1_555
C33 C34 1_555 1_555
C34 C35 1_555 1_555
C35 C36 1_555 1_555
C36 C37 1_555 1_555
C37 C32 1_555 1_555
C38 C37 1_555 1_555
C39 C38 1_555 1_555
C40 C31 1_555 1_555
C41 C31 1_555 1_555
C42 N2 1_555 1_555
C43 C42 1_555 1_555
C44 C42 1_555 1_555
C45 N2 1_555 1_555
C46 C45 1_555 1_555
C47 C45 1_555 1_555
C48 O8 1_555 1_555
C49 C40 1_555 1_555
C50 C49 1_555 1_555
C51 O9 1_555 1_555
C52 C51 1_555 1_555
C53 C52 1_555 1_555
C54 C53 1_555 1_555
C55 C54 1_555 1_555
C56 O11 1_555 1_555
C57 C52 1_555 1_555
C58 C57 1_555 1_555
C59 C57 1_555 1_555
C60 C55 1_555 1_555
H1 C38 1_555 1_555
H2 C4 1_555 1_555
H3 C5 1_555 1_555
H4 C6 1_555 1_555
H5 C8 1_555 1_555
H6 C9 1_555 1_555
H7 C34 1_555 1_555
H8 C36 1_555 1_555
H9 C35 1_555 1_555
H10 C39 1_555 1_555
H11 C12 1_555 1_555
H12 C15 1_555 1_555
H13 C19 1_555 1_555
H14 C42 1_555 1_555
H15 C45 1_555 1_555
H16 C49 1_555 1_555
H17 C23 1_555 1_555
H18 C23 1_555 1_555
H19 C24 1_555 1_555
H20 C24 1_555 1_555
H21 C53 1_555 1_555
H22 C53 1_555 1_555
H23 C54 1_555 1_555
H24 C54 1_555 1_555
H25 C18 1_555 1_555
H26 C13 1_555 1_555
H27 C16 1_555 1_555
H28 C14 1_555 1_555
H29 C20 1_555 1_555
H30 C28 1_555 1_555
H31 C13 1_555 1_555
H32 C13 1_555 1_555
H33 C14 1_555 1_555
H34 C14 1_555 1_555
H35 C16 1_555 1_555
H36 C16 1_555 1_555
H37 C18 1_555 1_555
H38 C18 1_555 1_555
H39 C20 1_555 1_555
H40 C20 1_555 1_555
H41 C28 1_555 1_555
H42 C28 1_555 1_555
H43 C48 1_555 1_555
H44 C43 1_555 1_555
H45 C46 1_555 1_555
H46 C44 1_555 1_555
H47 C47 1_555 1_555
H48 C50 1_555 1_555
H49 C59 1_555 1_555
H50 C60 1_555 1_555
H51 C43 1_555 1_555
H52 C43 1_555 1_555
H53 C44 1_555 1_555
H54 C44 1_555 1_555
H55 C46 1_555 1_555
H56 C46 1_555 1_555
H57 C47 1_555 1_555
H58 C47 1_555 1_555
H59 C48 1_555 1_555
H60 C48 1_555 1_555
H61 C50 1_555 1_555
H62 C50 1_555 1_555
H63 C59 1_555 1_555
H64 C59 1_555 1_555
H65 C60 1_555 1_555
H66 C60 1_555 1_555
H67 C58 1_555 1_555
H68 C17 1_555 1_555
H69 C29 1_555 1_555
H70 C30 1_555 1_555
H71 C17 1_555 1_555
H72 C17 1_555 1_555
H73 C29 1_555 1_555
H74 C29 1_555 1_555
H75 C30 1_555 1_555
H76 C30 1_555 1_555
H77 C58 1_555 1_555
H78 C58 1_555 1_555
C9 C10 1_555 1_555
C25 C26 1_555 1_555
C25 C27 1_555 1_555
C39 C40 1_555 1_555
C55 C56 1_555 1_555
C55 C57 1_555 1_555

#END
