
#######################################################################
#
#                 Cambridge Crystallographic Data Centre
#                                CCDC 
#
#######################################################################
#
# If this CIF has been generated from an entry in the Cambridge 
# Structural Database, then it will include bibliographic, chemical, 
# crystal, experimental, refinement or atomic coordinate data resulting 
# from the CCDC's data processing and validation procedures.
#
#######################################################################

data_WEGNAZ
_chemical_formula_moiety         'C8 H10 N3 O2 1+,Br1 1-'
_chemical_name_systematic        
'1-(2-Amino-2-oxoethyl)-4-carbamoylpyridinium bromide'
_symmetry_cell_setting           monoclinic
_symmetry_space_group_name_H-M   'C c'
_symmetry_Int_Tables_number      9
_space_group_name_Hall           'C -2yc'
loop_
_symmetry_equiv_pos_site_id
_symmetry_equiv_pos_as_xyz
1 x,y,z
2 x,-y,1/2+z
3 1/2+x,1/2+y,z
4 1/2+x,1/2-y,1/2+z
_cell_length_a                   5.03600(10)
_cell_length_b                   28.8208(7)
_cell_length_c                   6.9016(2)
_cell_angle_alpha                90
_cell_angle_beta                 109.0290(10)
_cell_angle_gamma                90
_cell_volume                     946.969
_exptl_crystal_colour            colorless
_exptl_crystal_description       lamellar
_cell_formula_units_Z            4
loop_
_atom_site_label
_atom_site_type_symbol
_atom_site_fract_x
_atom_site_fract_y
_atom_site_fract_z
Br1 Br 0.54574(19) 0.888811(17) 0.49717(17)
C1 C 0.163(3) 0.1161(3) 0.384(2)
H1 H 0.2240 0.0961 0.2977
C2 C 0.2374(16) 0.1625(2) 0.3992(11)
H2 H 0.3573 0.1742 0.3291
C3 C 0.1343(15) 0.1919(3) 0.5182(11)
C4 C -0.0261(15) 0.1735(2) 0.6282(12)
H3 H -0.0930 0.1929 0.7138
C5 C -0.0888(17) 0.1260(4) 0.6118(14)
H4 H -0.1987 0.1131 0.6871
C6 C -0.0939(15) 0.0503(2) 0.4554(12)
H5 H -0.2058 0.0467 0.3089
H6 H -0.2184 0.0435 0.5370
C7 C 0.1436(16) 0.0156(2) 0.5097(11)
C8 C 0.2126(15) 0.2425(2) 0.5223(11)
N1 N 0.0032(13) 0.0990(2) 0.4928(14)
N2 N 0.049(2) -0.02838(18) 0.4802(15)
H7 H 0.1689 -0.0516 0.5064
H8 H -0.1328 -0.0339 0.4349
N3 N 0.0168(13) 0.2719(2) 0.5369(10)
H9 H 0.0477 0.3020 0.5400
H10 H -0.1438 0.2613 0.5436
O1 O 0.3896(11) 0.02662(18) 0.5716(8)
O2 O 0.4412(11) 0.25402(17) 0.5123(9)
loop_
_geom_bond_atom_site_label_1
_geom_bond_atom_site_label_2
_geom_bond_site_symmetry_1
_geom_bond_site_symmetry_2
C1 H1 1_555 1_555
C2 C1 1_555 1_555
H2 C2 1_555 1_555
C3 C2 1_555 1_555
C4 C3 1_555 1_555
H3 C4 1_555 1_555
C5 C4 1_555 1_555
H4 C5 1_555 1_555
C6 H5 1_555 1_555
H6 C6 1_555 1_555
C7 C6 1_555 1_555
C8 C3 1_555 1_555
N1 C1 1_555 1_555
N2 C7 1_555 1_555
H7 N2 1_555 1_555
H8 N2 1_555 1_555
N3 C8 1_555 1_555
H9 N3 1_555 1_555
H10 N3 1_555 1_555
O1 C7 1_555 1_555
O2 C8 1_555 1_555
C5 N1 1_555 1_555
C6 N1 1_555 1_555

#END
