
#######################################################################
#
#                 Cambridge Crystallographic Data Centre
#                                CCDC 
#
#######################################################################
#
# If this CIF has been generated from an entry in the Cambridge 
# Structural Database, then it will include bibliographic, chemical, 
# crystal, experimental, refinement or atomic coordinate data resulting 
# from the CCDC's data processing and validation procedures.
#
#######################################################################

data_WEHBOA
_chemical_formula_moiety         'C28 H84 Ca1 N14 P4 Si4'
_chemical_name_systematic        
bis(P,P,P',P'-tetrakis(Dimethylamino)-N,N'-bis(trimethylsilyl)-diphospha-triazene-N,N,N',N'')-calcium
_symmetry_cell_setting           monoclinic
_symmetry_space_group_name_H-M   'P 21/c'
_symmetry_Int_Tables_number      14
_space_group_name_Hall           '-P 2ybc'
loop_
_symmetry_equiv_pos_site_id
_symmetry_equiv_pos_as_xyz
1 x,y,z
2 -x,1/2+y,1/2-z
3 -x,-y,-z
4 x,1/2-y,1/2+z
_cell_length_a                   19.975(2)
_cell_length_b                   12.55(2)
_cell_length_c                   20.574(3)
_cell_angle_alpha                90
_cell_angle_beta                 104.30(1)
_cell_angle_gamma                90
_cell_volume                     4997.81
_exptl_crystal_colour            'light yellow'
_chemical_melting_point          115deg.C
_cell_formula_units_Z            4
_chemical_properties_physical    'Air- and moisture-sensitive'
loop_
_atom_site_label
_atom_site_type_symbol
_atom_site_fract_x
_atom_site_fract_y
_atom_site_fract_z
Ca1 Ca 0.25141(4) 0.47924(6) 0.20236(4)
N1 N 0.2150(2) 0.2834(2) 0.17600(15)
Si1 Si 0.15175(6) 0.23974(10) 0.11037(5)
C1 C 0.1770(3) 0.2554(4) 0.0296(2)
C2 C 0.1255(2) 0.0962(4) 0.1116(3)
C3 C 0.0719(2) 0.3180(4) 0.1077(2)
P1 P 0.27960(5) 0.23798(8) 0.22845(5)
N2 N 0.3379(2) 0.1769(3) 0.1961(2)
C4 C 0.3197(2) 0.0787(4) 0.1590(2)
C5 C 0.4108(2) 0.1999(4) 0.2119(2)
N3 N 0.2559(2) 0.1412(3) 0.2734(2)
C6 C 0.3090(2) 0.0870(4) 0.3241(2)
C7 C 0.1884(2) 0.1353(4) 0.2875(2)
N4 N 0.3184(2) 0.3352(2) 0.27024(15)
P2 P 0.36022(5) 0.40590(8) 0.33034(5)
N5 N 0.4433(2) 0.3774(3) 0.3559(2)
C8 C 0.4666(2) 0.2758(3) 0.3886(2)
C9 C 0.4966(2) 0.4326(4) 0.3324(2)
N6 N 0.3344(2) 0.3693(3) 0.39872(15)
C10 C 0.3686(2) 0.4191(4) 0.4626(2)
C11 C 0.2610(2) 0.3571(4) 0.3921(2)
N7 N 0.34725(15) 0.5247(2) 0.30688(14)
Si2 Si 0.37395(6) 0.64707(9) 0.33840(5)
C12 C 0.4500(2) 0.6515(4) 0.4134(2)
C13 C 0.3982(2) 0.7261(3) 0.2711(2)
C14 C 0.3028(2) 0.7179(4) 0.3644(2)
N8 N 0.2988(2) 0.5398(2) 0.10354(14)
Si3 Si 0.36700(6) 0.48895(9) 0.07771(5)
C15 C 0.4437(2) 0.4886(4) 0.1510(2)
C16 C 0.3929(2) 0.5616(4) 0.0078(2)
C17 C 0.3512(2) 0.3486(3) 0.0491(2)
P3 P 0.24067(5) 0.62540(8) 0.07886(5)
N9 N 0.1826(2) 0.6007(3) 0.0076(2)
C18 C 0.1201(2) 0.5447(5) 0.0027(2)
C19 C 0.2054(3) 0.5922(5) -0.0545(2)
N10 N 0.2729(2) 0.7395(3) 0.0590(2)
C20 C 0.2267(2) 0.8268(3) 0.0297(2)
C21 C 0.3417(2) 0.7761(3) 0.0903(2)
N11 N 0.2001(2) 0.6348(2) 0.13557(15)
P4 P 0.14167(5) 0.66140(8) 0.17288(5)
N12 N 0.0644(2) 0.6915(3) 0.1239(2)
C22 C 0.0560(2) 0.7884(4) 0.0835(2)
C23 C 0.0091(2) 0.6160(4) 0.1004(2)
N13 N 0.1646(2) 0.7760(2) 0.2123(2)
C24 C 0.1182(2) 0.8284(3) 0.2465(2)
C25 C 0.2216(2) 0.8423(3) 0.2059(2)
N14 N 0.13651(15) 0.5641(2) 0.21945(15)
Si4 Si 0.09025(6) 0.53848(9) 0.27709(5)
C26 C 0.1304(3) 0.5981(4) 0.3611(2)
C27 C -0.0018(2) 0.5852(4) 0.2553(3)
C28 C 0.0853(2) 0.3918(3) 0.2883(2)
H1 H 0.2137(13) 0.2046(20) 0.0278(8)
H2 H 0.1937(17) 0.3281(9) 0.0262(8)
H3 H 0.1368(5) 0.2418(28) -0.0079(2)
H4 H 0.1603(8) 0.0510(4) 0.0991(15)
H5 H 0.0807(8) 0.0856(6) 0.0797(11)
H6 H 0.1218(15) 0.0772(7) 0.1568(5)
H7 H 0.0490(8) 0.2898(14) 0.1410(10)
H8 H 0.0407(6) 0.3126(18) 0.0629(5)
H9 H 0.0841(3) 0.3928(5) 0.1178(13)
H10 H 0.2694(2) 0.0697(12) 0.1476(12)
H11 H 0.3416(12) 0.0186(4) 0.1865(6)
H12 H 0.3358(13) 0.0815(10) 0.1177(7)
H13 H 0.4196(3) 0.2676(11) 0.2361(12)
H14 H 0.4261(3) 0.2049(21) 0.1703(2)
H15 H 0.4361(2) 0.1427(11) 0.2399(11)
H16 H 0.3523(4) 0.0856(20) 0.3097(7)
H17 H 0.2942(7) 0.0139(8) 0.3297(10)
H18 H 0.3163(10) 0.1252(13) 0.3668(4)
H19 H 0.1561(4) 0.1816(16) 0.2564(9)
H20 H 0.1918(3) 0.1585(20) 0.3337(5)
H21 H 0.1716(6) 0.0616(5) 0.2820(13)
H22 H 0.4278(4) 0.2404(11) 0.4010(12)
H23 H 0.5036(10) 0.2887(4) 0.4290(8)
H24 H 0.4839(13) 0.2303(9) 0.3577(5)
H25 H 0.4769(4) 0.4961(12) 0.3071(11)
H26 H 0.5152(10) 0.3852(8) 0.3033(11)
H27 H 0.5338(7) 0.4539(19) 0.3709(2)
H28 H 0.4184(3) 0.4235(21) 0.4663(7)
H29 H 0.3602(12) 0.3763(13) 0.4996(2)
H30 H 0.3500(11) 0.4909(9) 0.4645(6)
H31 H 0.2394(3) 0.3258(21) 0.3484(6)
H32 H 0.2404(3) 0.4270(5) 0.3958(14)
H33 H 0.2534(2) 0.3104(18) 0.4278(9)
H34 H 0.4901(4) 0.6185(20) 0.4020(5)
H35 H 0.4389(6) 0.6125(19) 0.4506(5)
H36 H 0.4608(9) 0.7257(4) 0.4267(9)
H37 H 0.4409(7) 0.6974(13) 0.2627(9)
H38 H 0.4054(13) 0.8006(5) 0.2853(6)
H39 H 0.3611(6) 0.7218(17) 0.2300(4)
H40 H 0.2949(9) 0.6843(13) 0.4049(8)
H41 H 0.2605(4) 0.7139(18) 0.3282(6)
H42 H 0.3157(6) 0.7927(6) 0.3738(13)
H43 H 0.4562(9) 0.5621(4) 0.1650(9)
H44 H 0.4826(5) 0.4541(20) 0.1384(5)
H45 H 0.4326(5) 0.4495(19) 0.1882(5)
H46 H 0.4013(15) 0.6368(6) 0.0200(7)
H47 H 0.3558(7) 0.5561(20) -0.0333(4)
H48 H 0.4352(9) 0.5298(15) 0.0004(10)
H49 H 0.3147(10) 0.3466(4) 0.0074(8)
H50 H 0.3370(14) 0.3069(6) 0.0836(6)
H51 H 0.3938(4) 0.3184(8) 0.0411(13)
H52 H 0.1092(9) 0.5438(24) 0.0466(5)
H53 H 0.1252(6) 0.4714(9) -0.0118(16)
H54 H 0.0827(4) 0.5800(16) -0.0301(13)
H55 H 0.2455(12) 0.6384(23) -0.0514(8)
H56 H 0.1678(7) 0.6141(28) -0.0925(3)
H57 H 0.2181(18) 0.5182(8) -0.0608(10)
H58 H 0.1816(5) 0.7978(4) 0.0065(12)
H59 H 0.2465(7) 0.8657(14) -0.0024(10)
H60 H 0.2212(11) 0.8753(12) 0.0653(3)
H61 H 0.3693(4) 0.7165(6) 0.1134(11)
H62 H 0.3394(2) 0.8322(14) 0.1228(9)
H63 H 0.3632(5) 0.8045(19) 0.0560(3)
H64 H 0.0939(8) 0.8377(10) 0.1022(9)
H65 H 0.0118(7) 0.8221(13) 0.0838(12)
H66 H 0.0567(15) 0.7704(5) 0.0373(4)
H67 H 0.0198(7) 0.5494(8) 0.1257(9)
H68 H 0.0041(9) 0.6020(16) 0.0526(4)
H69 H -0.0342(3) 0.6454(9) 0.1070(12)
H70 H 0.0835(9) 0.7773(7) 0.2535(12)
H71 H 0.0950(11) 0.8878(14) 0.2190(7)
H72 H 0.1446(3) 0.8555(19) 0.2899(6)
H73 H 0.2507(8) 0.8030(8) 0.1822(12)
H74 H 0.2490(8) 0.8623(17) 0.2507(2)
H75 H 0.2038(2) 0.9067(10) 0.1806(11)
H76 H 0.1248(13) 0.6756(4) 0.3587(4)
H77 H 0.1797(4) 0.5803(20) 0.3741(7)
H78 H 0.1077(11) 0.5695(18) 0.3944(4)
H79 H -0.0040(3) 0.6585(9) 0.2386(14)
H80 H -0.0200(5) 0.5825(23) 0.2954(4)
H81 H -0.0296(4) 0.5389(15) 0.2206(11)
H82 H 0.1304(4) 0.3598(4) 0.2896(13)
H83 H 0.0504(10) 0.3617(4) 0.2507(7)
H84 H 0.0726(13) 0.3767(3) 0.3304(7)
loop_
_geom_bond_atom_site_label_1
_geom_bond_atom_site_label_2
_geom_bond_site_symmetry_1
_geom_bond_site_symmetry_2
Ca1 N1 1_555 1_555
N1 Si1 1_555 1_555
Si1 C1 1_555 1_555
C1 H1 1_555 1_555
C2 Si1 1_555 1_555
C3 Si1 1_555 1_555
P1 N1 1_555 1_555
N2 P1 1_555 1_555
C4 N2 1_555 1_555
C5 N2 1_555 1_555
N3 P1 1_555 1_555
C6 N3 1_555 1_555
C7 N3 1_555 1_555
N4 Ca1 1_555 1_555
P2 N4 1_555 1_555
N5 P2 1_555 1_555
C8 N5 1_555 1_555
C9 N5 1_555 1_555
N6 P2 1_555 1_555
C10 N6 1_555 1_555
C11 N6 1_555 1_555
N7 Ca1 1_555 1_555
Si2 N7 1_555 1_555
C12 Si2 1_555 1_555
C13 Si2 1_555 1_555
C14 Si2 1_555 1_555
N8 Ca1 1_555 1_555
Si3 N8 1_555 1_555
C15 Si3 1_555 1_555
C16 Si3 1_555 1_555
C17 Si3 1_555 1_555
P3 N8 1_555 1_555
N9 P3 1_555 1_555
C18 N9 1_555 1_555
C19 N9 1_555 1_555
N10 P3 1_555 1_555
C20 N10 1_555 1_555
C21 N10 1_555 1_555
N11 Ca1 1_555 1_555
P4 N11 1_555 1_555
N12 P4 1_555 1_555
C22 N12 1_555 1_555
C23 N12 1_555 1_555
N13 P4 1_555 1_555
C24 N13 1_555 1_555
C25 N13 1_555 1_555
N14 Ca1 1_555 1_555
Si4 N14 1_555 1_555
C26 Si4 1_555 1_555
C27 Si4 1_555 1_555
C28 Si4 1_555 1_555
H2 C1 1_555 1_555
H3 C1 1_555 1_555
H4 C2 1_555 1_555
H5 C2 1_555 1_555
H6 C2 1_555 1_555
H7 C3 1_555 1_555
H8 C3 1_555 1_555
H9 C3 1_555 1_555
H10 C4 1_555 1_555
H11 C4 1_555 1_555
H12 C4 1_555 1_555
H13 C5 1_555 1_555
H14 C5 1_555 1_555
H15 C5 1_555 1_555
H16 C6 1_555 1_555
H17 C6 1_555 1_555
H18 C6 1_555 1_555
H19 C7 1_555 1_555
H20 C7 1_555 1_555
H21 C7 1_555 1_555
H22 C8 1_555 1_555
H23 C8 1_555 1_555
H24 C8 1_555 1_555
H25 C9 1_555 1_555
H26 C9 1_555 1_555
H27 C9 1_555 1_555
H28 C10 1_555 1_555
H29 C10 1_555 1_555
H30 C10 1_555 1_555
H31 C11 1_555 1_555
H32 C11 1_555 1_555
H33 C11 1_555 1_555
H34 C12 1_555 1_555
H35 C12 1_555 1_555
H36 C12 1_555 1_555
H37 C13 1_555 1_555
H38 C13 1_555 1_555
H39 C13 1_555 1_555
H40 C14 1_555 1_555
H41 C14 1_555 1_555
H42 C14 1_555 1_555
H43 C15 1_555 1_555
H44 C15 1_555 1_555
H45 C15 1_555 1_555
H46 C16 1_555 1_555
H47 C16 1_555 1_555
H48 C16 1_555 1_555
H49 C17 1_555 1_555
H50 C17 1_555 1_555
H51 C17 1_555 1_555
H52 C18 1_555 1_555
H53 C18 1_555 1_555
H54 C18 1_555 1_555
H55 C19 1_555 1_555
H56 C19 1_555 1_555
H57 C19 1_555 1_555
H58 C20 1_555 1_555
H59 C20 1_555 1_555
H60 C20 1_555 1_555
H61 C21 1_555 1_555
H62 C21 1_555 1_555
H63 C21 1_555 1_555
H64 C22 1_555 1_555
H65 C22 1_555 1_555
H66 C22 1_555 1_555
H67 C23 1_555 1_555
H68 C23 1_555 1_555
H69 C23 1_555 1_555
H70 C24 1_555 1_555
H71 C24 1_555 1_555
H72 C24 1_555 1_555
H73 C25 1_555 1_555
H74 C25 1_555 1_555
H75 C25 1_555 1_555
H76 C26 1_555 1_555
H77 C26 1_555 1_555
H78 C26 1_555 1_555
H79 C27 1_555 1_555
H80 C27 1_555 1_555
H81 C27 1_555 1_555
H82 C28 1_555 1_555
H83 C28 1_555 1_555
H84 C28 1_555 1_555
P1 N4 1_555 1_555
P2 N7 1_555 1_555
P3 N11 1_555 1_555
P4 N14 1_555 1_555

#END
