
#######################################################################
#
#                 Cambridge Crystallographic Data Centre
#                                CCDC 
#
#######################################################################
#
# If this CIF has been generated from an entry in the Cambridge 
# Structural Database, then it will include bibliographic, chemical, 
# crystal, experimental, refinement or atomic coordinate data resulting 
# from the CCDC's data processing and validation procedures.
#
#######################################################################

data_WEHBAO
_chemical_formula_moiety         'C7 H9 Cl1 O3'
_chemical_name_systematic        
3-Chloro-4,5-dihydroxy-6-methylcyclohex-2-en-1-one
_symmetry_cell_setting           monoclinic
_symmetry_space_group_name_H-M   'P 21'
_symmetry_Int_Tables_number      4
_space_group_name_Hall           'P 2yb'
loop_
_symmetry_equiv_pos_site_id
_symmetry_equiv_pos_as_xyz
1 x,y,z
2 -x,1/2+y,-z
_cell_length_a                   12.125(2)
_cell_length_b                   4.8704(15)
_cell_length_c                   14.100(3)
_cell_angle_alpha                90
_cell_angle_beta                 92.283(6)
_cell_angle_gamma                90
_cell_volume                     831.995
_exptl_crystal_colour            colorless
_exptl_crystal_description       prisms
_cell_formula_units_Z            4
loop_
_atom_site_label
_atom_site_type_symbol
_atom_site_fract_x
_atom_site_fract_y
_atom_site_fract_z
C1 C 0.3081(4) 0.2241(13) 0.7671(4)
O1 O 0.2390(3) 0.0406(11) 0.7589(3)
C2 C 0.3704(4) 0.3170(15) 0.6863(3)
H1 H 0.3500 0.2532 0.6260
C3 C 0.4542(4) 0.4872(12) 0.6958(3)
Cl1 Cl 0.52108(13) 0.6021(5) 0.59754(10)
C4 C 0.4948(4) 0.6043(12) 0.7889(3)
H2 H 0.4701 0.7954 0.7930
O2 O 0.6117(2) 0.5984(9) 0.7947(3)
H3 H 0.6355 0.7550 0.8022
C5 C 0.4529(4) 0.4471(12) 0.8722(4)
H4 H 0.4645 0.5583 0.9297
O3 O 0.5112(3) 0.1941(8) 0.8845(2)
H5 H 0.5777 0.2220 0.8816
C6 C 0.3297(4) 0.3753(13) 0.8603(3)
H6 H 0.2895 0.5496 0.8553
C7 C 0.2857(5) 0.2230(19) 0.9455(4)
H7 H 0.2084 0.1876 0.9348
H8 H 0.2968 0.3334 1.0014
H9 H 0.3244 0.0522 0.9538
C8 C 0.7941(4) 1.1745(12) 0.7678(4)
O4 O 0.7454(3) 1.0484(9) 0.8286(3)
C9 C 0.7565(4) 1.1647(13) 0.6681(4)
H10 H 0.6903 1.0776 0.6514
C10 C 0.8152(4) 1.2778(13) 0.6011(3)
Cl2 Cl 0.76691(13) 1.2764(6) 0.48365(10)
C11 C 0.9244(4) 1.4187(11) 0.6190(3)
H11 H 0.9121 1.6173 0.6218
O5 O 0.9983(3) 1.3624(9) 0.5460(3)
H12 H 1.0044 1.4990 0.5126
C12 C 0.9756(4) 1.3243(12) 0.7133(3)
H13 H 1.0412 1.4351 0.7293
O6 O 1.0062(3) 1.0394(8) 0.7075(3)
H14 H 1.0736 1.0265 0.7067
C13 C 0.8931(4) 1.3515(13) 0.7915(3)
H15 H 0.8676 1.5425 0.7913
C14 C 0.9430(5) 1.291(2) 0.8917(4)
H16 H 0.8871 1.3128 0.9375
H17 H 1.0024 1.4170 0.9059
H18 H 0.9706 1.1065 0.8941
loop_
_geom_bond_atom_site_label_1
_geom_bond_atom_site_label_2
_geom_bond_site_symmetry_1
_geom_bond_site_symmetry_2
C1 O1 1_555 1_555
C2 C1 1_555 1_555
H1 C2 1_555 1_555
C3 C2 1_555 1_555
Cl1 C3 1_555 1_555
C4 C3 1_555 1_555
H2 C4 1_555 1_555
O2 C4 1_555 1_555
H3 O2 1_555 1_555
C5 C4 1_555 1_555
H4 C5 1_555 1_555
O3 C5 1_555 1_555
H5 O3 1_555 1_555
C6 C1 1_555 1_555
H6 C6 1_555 1_555
C7 C6 1_555 1_555
H7 C7 1_555 1_555
H8 C7 1_555 1_555
H9 C7 1_555 1_555
C8 O4 1_555 1_555
C9 C8 1_555 1_555
H10 C9 1_555 1_555
C10 C9 1_555 1_555
Cl2 C10 1_555 1_555
C11 C10 1_555 1_555
H11 C11 1_555 1_555
O5 C11 1_555 1_555
H12 O5 1_555 1_555
C12 C11 1_555 1_555
H13 C12 1_555 1_555
O6 C12 1_555 1_555
H14 O6 1_555 1_555
C13 C8 1_555 1_555
H15 C13 1_555 1_555
C14 C13 1_555 1_555
H16 C14 1_555 1_555
H17 C14 1_555 1_555
H18 C14 1_555 1_555
C5 C6 1_555 1_555
C12 C13 1_555 1_555

#END
