
#######################################################################
#
#                 Cambridge Crystallographic Data Centre
#                                CCDC 
#
#######################################################################
#
# If this CIF has been generated from an entry in the Cambridge 
# Structural Database, then it will include bibliographic, chemical, 
# crystal, experimental, refinement or atomic coordinate data resulting 
# from the CCDC's data processing and validation procedures.
#
#######################################################################

data_WEHFEU02
_chemical_formula_moiety         'C13 H11 N3 O2'
_chemical_name_systematic        'Salicylaldehyde isonicotinylhydrazone'
_symmetry_cell_setting           monoclinic
_symmetry_space_group_name_H-M   'P 21/n'
_symmetry_Int_Tables_number      14
_space_group_name_Hall           '-P 2yn'
loop_
_symmetry_equiv_pos_site_id
_symmetry_equiv_pos_as_xyz
1 x,y,z
2 1/2-x,1/2+y,1/2-z
3 -x,-y,-z
4 1/2+x,1/2-y,1/2+z
_cell_length_a                   8.135(4)
_cell_length_b                   15.499(7)
_cell_length_c                   9.521(4)
_cell_angle_alpha                90
_cell_angle_beta                 105.768(7)
_cell_angle_gamma                90
_cell_volume                     1155.28
_exptl_crystal_colour            colorless
_chemical_melting_point          '249 deg.C'
_cell_formula_units_Z            4
_exptl_crystal_recrystallization_method benzene/ethanol
loop_
_atom_site_label
_atom_site_type_symbol
_atom_site_fract_x
_atom_site_fract_y
_atom_site_fract_z
N1 N 0.0368(3) 0.00487(12) 0.2932(2)
N2 N 0.0933(3) 0.06820(15) 0.3946(2)
N3 N 0.4205(3) 0.25879(13) 0.8037(2)
O1 O 0.2985(3) -0.01911(12) 0.5294(2)
O2 O 0.0708(3) -0.14329(13) 0.1771(2)
C1 C 0.2290(3) 0.05093(16) 0.5091(3)
C2 C 0.2908(3) 0.12473(14) 0.6102(2)
C3 C 0.4592(4) 0.12619(17) 0.6898(3)
C4 C 0.5191(4) 0.19318(17) 0.7844(3)
C5 C 0.2580(4) 0.25585(17) 0.7276(3)
C6 C 0.1875(4) 0.19180(16) 0.6301(3)
C7 C -0.0909(4) 0.02136(16) 0.1859(3)
C8 C -0.1553(3) -0.04254(15) 0.0732(2)
C9 C -0.0727(4) -0.12237(15) 0.0736(3)
C10 C -0.1409(4) -0.18131(18) -0.0349(3)
C11 C -0.2855(4) -0.16298(19) -0.1434(3)
C12 C -0.3656(4) -0.08470(19) -0.1474(3)
C13 C -0.2997(4) -0.02594(17) -0.0390(3)
H1 H 0.047(4) 0.118(2) 0.378(3)
H2 H 0.537(4) 0.0820(19) 0.677(3)
H3 H 0.641(4) 0.1982(17) 0.844(3)
H4 H 0.189(4) 0.302(2) 0.744(3)
H5 H 0.068(4) 0.1888(16) 0.582(3)
H6 H -0.152(3) 0.0755(18) 0.175(3)
H7 H 0.096(5) -0.104(3) 0.242(4)
H8 H -0.085(4) -0.237(2) -0.030(4)
H9 H -0.333(4) -0.2064(19) -0.223(3)
H10 H -0.470(4) -0.0719(18) -0.229(3)
H11 H -0.350(3) 0.0285(17) -0.037(2)
loop_
_geom_bond_atom_site_label_1
_geom_bond_atom_site_label_2
_geom_bond_site_symmetry_1
_geom_bond_site_symmetry_2
N1 N2 1_555 1_555
N2 C1 1_555 1_555
N3 C4 1_555 1_555
O1 C1 1_555 1_555
O2 C9 1_555 1_555
C1 C2 1_555 1_555
C2 C3 1_555 1_555
C3 C4 1_555 1_555
C4 H3 1_555 1_555
C5 N3 1_555 1_555
C6 C2 1_555 1_555
C7 N1 1_555 1_555
C8 C7 1_555 1_555
C9 C8 1_555 1_555
C10 C9 1_555 1_555
C11 C10 1_555 1_555
C12 C11 1_555 1_555
C13 C8 1_555 1_555
H1 N2 1_555 1_555
H2 C3 1_555 1_555
H4 C5 1_555 1_555
H5 C6 1_555 1_555
H6 C7 1_555 1_555
H7 O2 1_555 1_555
H8 C10 1_555 1_555
H9 C11 1_555 1_555
H10 C12 1_555 1_555
H11 C13 1_555 1_555
C5 C6 1_555 1_555
C12 C13 1_555 1_555

#END
