
#######################################################################
#
#                 Cambridge Crystallographic Data Centre
#                                CCDC 
#
#######################################################################
#
# If this CIF has been generated from an entry in the Cambridge 
# Structural Database, then it will include bibliographic, chemical, 
# crystal, experimental, refinement or atomic coordinate data resulting 
# from the CCDC's data processing and validation procedures.
#
#######################################################################

data_WEJCUK
_chemical_formula_moiety         'C21 H19 N1 O2'
_chemical_name_systematic        2-(4-Methoxyanilino)-1,2-diphenylethanone
_symmetry_cell_setting           monoclinic
_symmetry_space_group_name_H-M   'P 21/n'
_symmetry_Int_Tables_number      14
_space_group_name_Hall           '-P 2yn'
loop_
_symmetry_equiv_pos_site_id
_symmetry_equiv_pos_as_xyz
1 x,y,z
2 1/2-x,1/2+y,1/2-z
3 -x,-y,-z
4 1/2+x,1/2-y,1/2+z
_cell_length_a                   5.8230(8)
_cell_length_b                   10.0690(10)
_cell_length_c                   27.316(3)
_cell_angle_alpha                90
_cell_angle_beta                 91.750(10)
_cell_angle_gamma                90
_cell_volume                     1600.84
_exptl_crystal_colour            'light yellow'
_exptl_crystal_description       block
_chemical_melting_point          '374 K'
_cell_formula_units_Z            4
_exptl_crystal_recrystallization_method ethanol
loop_
_atom_site_label
_atom_site_type_symbol
_atom_site_fract_x
_atom_site_fract_y
_atom_site_fract_z
N1 N 0.19628(17) 0.28342(9) 0.11117(4)
H1 H 0.067(3) 0.2666(15) 0.0950(6)
O1 O -0.11470(13) 0.46729(8) 0.08278(3)
O2 O 0.77405(15) -0.15195(8) 0.14065(3)
C1 C 0.08626(18) 0.49977(10) 0.08100(4)
C2 C 0.26892(18) 0.42084(10) 0.11040(4)
H2 H 0.4204 0.4282 0.0943
C3 C 0.15455(18) 0.61727(10) 0.05166(4)
C4 C 0.37032(18) 0.62806(10) 0.03097(4)
H3 H 0.4870 0.5650 0.0390
C5 C 0.41413(19) 0.73133(11) -0.00134(4)
H4 H 0.5590 0.7367 -0.0163
C6 C 0.2471(2) 0.82639(11) -0.01184(4)
H5 H 0.2771 0.8963 -0.0341
C7 C 0.0354(2) 0.81881(11) 0.01035(4)
H6 H -0.0771 0.8855 0.0041
C8 C -0.01151(18) 0.71431(11) 0.04151(4)
H7 H -0.1574 0.7086 0.0560
C9 C 0.28350(18) 0.48648(10) 0.16094(4)
C10 C 0.1163(2) 0.46034(11) 0.19502(4)
H8 H -0.0016 0.3977 0.1875
C11 C 0.1208(2) 0.52515(13) 0.23988(4)
H9 H 0.0070 0.5062 0.2631
C12 C 0.2914(2) 0.61755(13) 0.25093(4)
H10 H 0.2934 0.6628 0.2815
C13 C 0.4585(2) 0.64357(13) 0.21727(5)
H11 H 0.5762 0.7062 0.2249
C14 C 0.4554(2) 0.57833(12) 0.17219(4)
H12 H 0.5705 0.5967 0.1492
C15 C 0.35234(18) 0.17987(10) 0.11737(4)
C16 C 0.29076(19) 0.05237(10) 0.10095(4)
H13 H 0.1474 0.0395 0.0841
C17 C 0.4356(2) -0.05490(11) 0.10894(4)
H14 H 0.3910 -0.1404 0.0974
C18 C 0.64624(19) -0.03843(11) 0.13369(4)
C19 C 0.71295(19) 0.08765(11) 0.14904(4)
H15 H 0.8582 0.1003 0.1652
C20 C 0.56666(18) 0.19610(10) 0.14085(4)
H16 H 0.6140 0.2820 0.1514
C21 C 0.9481(2) -0.14996(13) 0.17847(5)
H17 H 1.0710 -0.0891 0.1694
H18 H 1.0111 -0.2395 0.1830
H19 H 0.8817 -0.1198 0.2091
loop_
_geom_bond_atom_site_label_1
_geom_bond_atom_site_label_2
_geom_bond_site_symmetry_1
_geom_bond_site_symmetry_2
N1 H1 1_555 1_555
O1 C1 1_555 1_555
O2 C18 1_555 1_555
C1 C2 1_555 1_555
C2 N1 1_555 1_555
H2 C2 1_555 1_555
C3 C1 1_555 1_555
C4 C3 1_555 1_555
H3 C4 1_555 1_555
C5 C4 1_555 1_555
H4 C5 1_555 1_555
C6 C5 1_555 1_555
H5 C6 1_555 1_555
C7 C6 1_555 1_555
H6 C7 1_555 1_555
C8 C3 1_555 1_555
H7 C8 1_555 1_555
C9 C2 1_555 1_555
C10 C9 1_555 1_555
H8 C10 1_555 1_555
C11 C10 1_555 1_555
H9 C11 1_555 1_555
C12 C11 1_555 1_555
H10 C12 1_555 1_555
C13 C12 1_555 1_555
H11 C13 1_555 1_555
C14 C9 1_555 1_555
H12 C14 1_555 1_555
C15 N1 1_555 1_555
C16 C15 1_555 1_555
H13 C16 1_555 1_555
C17 C16 1_555 1_555
H14 C17 1_555 1_555
C18 C17 1_555 1_555
C19 C18 1_555 1_555
H15 C19 1_555 1_555
C20 C15 1_555 1_555
H16 C20 1_555 1_555
C21 O2 1_555 1_555
H17 C21 1_555 1_555
H18 C21 1_555 1_555
H19 C21 1_555 1_555
C7 C8 1_555 1_555
C13 C14 1_555 1_555
C19 C20 1_555 1_555

#END
