
#######################################################################
#
#                 Cambridge Crystallographic Data Centre
#                                CCDC 
#
#######################################################################
#
# If this CIF has been generated from an entry in the Cambridge 
# Structural Database, then it will include bibliographic, chemical, 
# crystal, experimental, refinement or atomic coordinate data resulting 
# from the CCDC's data processing and validation procedures.
#
#######################################################################

data_WEJQIM
_chemical_formula_moiety         'C13 H23 Br1 O1'
_chemical_name_systematic        
(1R,3S,6S,9R)-3-Bromo-5,5,9-trimethylbicyclo(4.4.0)decan-1-ol
_symmetry_cell_setting           orthorhombic
_symmetry_space_group_name_H-M   'P 21 21 21'
_symmetry_Int_Tables_number      19
_space_group_name_Hall           'P 2ac 2ab'
loop_
_symmetry_equiv_pos_site_id
_symmetry_equiv_pos_as_xyz
1 x,y,z
2 1/2-x,-y,1/2+z
3 -x,1/2+y,1/2-z
4 1/2+x,1/2-y,-z
_cell_length_a                   13.658(4)
_cell_length_b                   16.120(4)
_cell_length_c                   18.840(5)
_cell_angle_alpha                90
_cell_angle_beta                 90
_cell_angle_gamma                90
_cell_volume                     4147.95
_exptl_crystal_colour            colorless
_exptl_crystal_description       tabular
_chemical_melting_point          '336 K'
_cell_formula_units_Z            12
loop_
_atom_site_label
_atom_site_type_symbol
_atom_site_fract_x
_atom_site_fract_y
_atom_site_fract_z
Br1 Br 0.05187(4) 0.72271(3) 0.28701(3)
C1 C -0.0565(3) 0.4782(2) 0.3281(2)
C2 C -0.0408(3) 0.5633(2) 0.2929(2)
H1 H -0.0221 0.5551 0.2426
H2 H -0.1029 0.5949 0.2940
C3 C 0.0384(3) 0.6126(2) 0.3303(2)
H3 H 0.0191 0.6198 0.3812
C4 C 0.1350(3) 0.5668(2) 0.3277(2)
H4 H 0.1866 0.6010 0.3502
H5 H 0.1539 0.5571 0.2776
C5 C 0.1267(3) 0.4843(2) 0.3661(2)
C6 C 0.2219(3) 0.4348(3) 0.3626(2)
H6 H 0.2376 0.4235 0.3123
H7 H 0.2755 0.4690 0.3825
C7 C 0.2178(3) 0.3530(3) 0.4027(2)
H8 H 0.2060 0.3658 0.4539
C8 C 0.1309(3) 0.3020(3) 0.3757(2)
H9 H 0.1437 0.2847 0.3262
H10 H 0.1246 0.2512 0.4049
C9 C 0.0352(3) 0.3498(2) 0.3784(2)
H11 H 0.0183 0.3617 0.4285
H12 H -0.0177 0.3152 0.3580
C10 C 0.0418(3) 0.4317(2) 0.3370(2)
H13 H 0.0621 0.4157 0.2879
C11 C -0.1140(3) 0.4878(3) 0.3988(2)
H14 H -0.0759 0.5219 0.4319
H15 H -0.1252 0.4330 0.4197
H16 H -0.1770 0.5147 0.3894
C12 C -0.1236(3) 0.4282(3) 0.2774(2)
H17 H -0.0915 0.4224 0.2311
H18 H -0.1859 0.4575 0.2714
H19 H -0.1358 0.3731 0.2975
C13 C 0.3143(3) 0.3062(3) 0.3974(3)
H20 H 0.3115 0.2566 0.4274
H21 H 0.3678 0.3421 0.4135
H22 H 0.3257 0.2899 0.3480
O1 O 0.10511(17) 0.50289(16) 0.44076(12)
H23 H 0.1553 0.5226 0.4603
Br2 Br 0.76755(4) 0.49366(4) 0.07977(3)
C14 C 0.5249(3) 0.4900(3) 0.2241(2)
C15 C 0.6295(3) 0.4868(3) 0.1939(2)
H24 H 0.6699 0.5297 0.2175
H25 H 0.6587 0.4320 0.2048
C16 C 0.6316(3) 0.5007(3) 0.1147(2)
H26 H 0.5921 0.4562 0.0913
C17 C 0.5894(3) 0.5834(3) 0.0951(2)
H27 H 0.5922 0.5908 0.0429
H28 H 0.6284 0.6282 0.1173
C18 C 0.4829(3) 0.5892(3) 0.1202(2)
C19 C 0.4418(3) 0.6748(3) 0.1029(2)
H29 H 0.4827 0.7175 0.1263
H30 H 0.4460 0.6839 0.0510
C20 C 0.3361(3) 0.6860(3) 0.1263(3)
H31 H 0.2956 0.6437 0.1009
C21 C 0.3300(4) 0.6675(3) 0.2058(3)
H32 H 0.3675 0.7102 0.2319
H33 H 0.2608 0.6713 0.2210
C22 C 0.3694(3) 0.5824(3) 0.2253(2)
H34 H 0.3277 0.5391 0.2034
H35 H 0.3666 0.5753 0.2774
C23 C 0.4754(3) 0.5716(3) 0.1999(2)
H36 H 0.5132 0.6170 0.2235
C24 C 0.4690(3) 0.4109(3) 0.2052(2)
H37 H 0.4042 0.4121 0.2276
H38 H 0.5054 0.3625 0.2224
H39 H 0.4614 0.4073 0.1536
C25 C 0.5355(4) 0.4910(3) 0.3057(2)
H40 H 0.4704 0.4892 0.3276
H41 H 0.5693 0.5418 0.3204
H42 H 0.5734 0.4426 0.3210
C26 C 0.2964(4) 0.7716(3) 0.1070(3)
H43 H 0.3022 0.7801 0.0556
H44 H 0.3342 0.8143 0.1319
H45 H 0.2275 0.7754 0.1209
O2 O 0.42546(18) 0.52649(17) 0.08310(14)
H46 H 0.4304 0.5338 0.0391
Br3 Br 0.19623(4) 0.79794(3) 0.69195(3)
C27 C 0.3570(3) 0.7276(3) 0.5047(2)
C28 C 0.3173(3) 0.7773(3) 0.5695(2)
H47 H 0.3729 0.7929 0.6005
H48 H 0.2866 0.8292 0.5523
C29 C 0.2436(3) 0.7295(3) 0.6126(2)
H49 H 0.1869 0.7143 0.5816
C30 C 0.2899(3) 0.6509(3) 0.6415(2)
H50 H 0.2422 0.6212 0.6718
H51 H 0.3474 0.6654 0.6710
C31 C 0.3218(3) 0.5950(2) 0.5808(2)
C32 C 0.3723(3) 0.5170(3) 0.6090(2)
H52 H 0.4296 0.5336 0.6379
H53 H 0.3264 0.4869 0.6405
C33 C 0.4062(3) 0.4588(3) 0.5505(2)
H54 H 0.3474 0.4405 0.5230
C34 C 0.4742(3) 0.5050(3) 0.5003(2)
H55 H 0.4924 0.4680 0.4605
H56 H 0.5349 0.5202 0.5259
C35 C 0.4264(3) 0.5837(3) 0.4707(2)
H57 H 0.3699 0.5682 0.4407
H58 H 0.4742 0.6135 0.4405
C36 C 0.3915(3) 0.6417(3) 0.5307(2)
H59 H 0.4513 0.6530 0.5598
C37 C 0.2793(3) 0.7237(3) 0.4469(2)
H60 H 0.3082 0.7010 0.4034
H61 H 0.2544 0.7797 0.4375
H62 H 0.2254 0.6880 0.4625
C38 C 0.4449(4) 0.7765(3) 0.4759(2)
H63 H 0.4636 0.7544 0.4294
H64 H 0.5001 0.7712 0.5088
H65 H 0.4271 0.8351 0.4712
C39 C 0.4564(4) 0.3821(3) 0.5806(3)
H66 H 0.4759 0.3454 0.5416
H67 H 0.4110 0.3526 0.6120
H68 H 0.5146 0.3988 0.6074
O3 O 0.23663(19) 0.57105(17) 0.54052(13)
H69 H 0.1997 0.5420 0.5660
loop_
_geom_bond_atom_site_label_1
_geom_bond_atom_site_label_2
_geom_bond_site_symmetry_1
_geom_bond_site_symmetry_2
Br1 C3 1_555 1_555
C1 C2 1_555 1_555
C2 H1 1_555 1_555
H2 C2 1_555 1_555
C3 C2 1_555 1_555
H3 C3 1_555 1_555
C4 C3 1_555 1_555
H4 C4 1_555 1_555
H5 C4 1_555 1_555
C5 C4 1_555 1_555
C6 C5 1_555 1_555
H6 C6 1_555 1_555
H7 C6 1_555 1_555
C7 C6 1_555 1_555
H8 C7 1_555 1_555
C8 C7 1_555 1_555
H9 C8 1_555 1_555
H10 C8 1_555 1_555
C9 C8 1_555 1_555
H11 C9 1_555 1_555
H12 C9 1_555 1_555
C10 C1 1_555 1_555
H13 C10 1_555 1_555
C11 C1 1_555 1_555
H14 C11 1_555 1_555
H15 C11 1_555 1_555
H16 C11 1_555 1_555
C12 C1 1_555 1_555
H17 C12 1_555 1_555
H18 C12 1_555 1_555
H19 C12 1_555 1_555
C13 C7 1_555 1_555
H20 C13 1_555 1_555
H21 C13 1_555 1_555
H22 C13 1_555 1_555
O1 C5 1_555 1_555
H23 O1 1_555 1_555
Br2 C16 1_555 1_555
C14 C15 1_555 1_555
C15 H24 1_555 1_555
H25 C15 1_555 1_555
C16 C15 1_555 1_555
H26 C16 1_555 1_555
C17 C16 1_555 1_555
H27 C17 1_555 1_555
H28 C17 1_555 1_555
C18 C17 1_555 1_555
C19 C18 1_555 1_555
H29 C19 1_555 1_555
H30 C19 1_555 1_555
C20 C19 1_555 1_555
H31 C20 1_555 1_555
C21 C20 1_555 1_555
H32 C21 1_555 1_555
H33 C21 1_555 1_555
C22 C21 1_555 1_555
H34 C22 1_555 1_555
H35 C22 1_555 1_555
C23 C14 1_555 1_555
H36 C23 1_555 1_555
C24 C14 1_555 1_555
H37 C24 1_555 1_555
H38 C24 1_555 1_555
H39 C24 1_555 1_555
C25 C14 1_555 1_555
H40 C25 1_555 1_555
H41 C25 1_555 1_555
H42 C25 1_555 1_555
C26 C20 1_555 1_555
H43 C26 1_555 1_555
H44 C26 1_555 1_555
H45 C26 1_555 1_555
O2 C18 1_555 1_555
H46 O2 1_555 1_555
Br3 C29 1_555 1_555
C27 C28 1_555 1_555
C28 H47 1_555 1_555
H48 C28 1_555 1_555
C29 C28 1_555 1_555
H49 C29 1_555 1_555
C30 C29 1_555 1_555
H50 C30 1_555 1_555
H51 C30 1_555 1_555
C31 C30 1_555 1_555
C32 C31 1_555 1_555
H52 C32 1_555 1_555
H53 C32 1_555 1_555
C33 C32 1_555 1_555
H54 C33 1_555 1_555
C34 C33 1_555 1_555
H55 C34 1_555 1_555
H56 C34 1_555 1_555
C35 C34 1_555 1_555
H57 C35 1_555 1_555
H58 C35 1_555 1_555
C36 C27 1_555 1_555
H59 C36 1_555 1_555
C37 C27 1_555 1_555
H60 C37 1_555 1_555
H61 C37 1_555 1_555
H62 C37 1_555 1_555
C38 C27 1_555 1_555
H63 C38 1_555 1_555
H64 C38 1_555 1_555
H65 C38 1_555 1_555
C39 C33 1_555 1_555
H66 C39 1_555 1_555
H67 C39 1_555 1_555
H68 C39 1_555 1_555
O3 C31 1_555 1_555
H69 O3 1_555 1_555
C5 C10 1_555 1_555
C9 C10 1_555 1_555
C18 C23 1_555 1_555
C22 C23 1_555 1_555
C31 C36 1_555 1_555
C35 C36 1_555 1_555

#END
