
#######################################################################
#
#                 Cambridge Crystallographic Data Centre
#                                CCDC 
#
#######################################################################
#
# If this CIF has been generated from an entry in the Cambridge 
# Structural Database, then it will include bibliographic, chemical, 
# crystal, experimental, refinement or atomic coordinate data resulting 
# from the CCDC's data processing and validation procedures.
#
#######################################################################

data_WEJRUB
_chemical_formula_moiety         'C4 H15 N3 2+,2(C16 H16 B1 O4 1-)'
_chemical_name_systematic        
"2,2'-azanediylbis(ethan-1-ammonium) bis(bis{2-[(oxy)methyl]-4-methylphenolato}borate)"
_symmetry_cell_setting           monoclinic
_symmetry_space_group_name_H-M   'P 21/c'
_symmetry_Int_Tables_number      14
_space_group_name_Hall           '-P 2ybc'
loop_
_symmetry_equiv_pos_site_id
_symmetry_equiv_pos_as_xyz
1 x,y,z
2 -x,1/2+y,1/2-z
3 -x,-y,-z
4 x,1/2-y,1/2+z
_cell_length_a                   13.1824(9)
_cell_length_b                   16.3193(12)
_cell_length_c                   17.3753(12)
_cell_angle_alpha                90
_cell_angle_beta                 106.678(2)
_cell_angle_gamma                90
_cell_volume                     3580.66
_exptl_crystal_description       block
_cell_formula_units_Z            4
loop_
_atom_site_label
_atom_site_type_symbol
_atom_site_fract_x
_atom_site_fract_y
_atom_site_fract_z
B1 B 0.4672(3) 0.0178(2) 0.1409(2)
C1 C 0.6395(3) 0.0625(2) 0.1284(2)
C2 C 0.7012(3) 0.0888(2) 0.0822(2)
H1 H 0.6730 0.0917 0.0267
C3 C 0.8049(3) 0.1111(3) 0.1172(3)
H2 H 0.8460 0.1280 0.0846
C4 C 0.8494(3) 0.1092(3) 0.1991(3)
C5 C 0.7866(3) 0.0808(3) 0.2448(2)
H3 H 0.8154 0.0781 0.3002
C6 C 0.6827(3) 0.0562(2) 0.2116(2)
C7 C 0.6142(3) 0.0231(2) 0.2594(2)
H4 H 0.6194 -0.0362 0.2615
H5 H 0.6385 0.0438 0.3139
C8 C 0.2772(3) 0.0229(2) 0.11228(19)
C9 C 0.1825(3) 0.0655(3) 0.0867(2)
H6 H 0.1811 0.1169 0.0632
C10 C 0.0909(3) 0.0325(3) 0.0955(2)
H7 H 0.0280 0.0617 0.0773
C11 C 0.0900(3) -0.0425(3) 0.1307(3)
C12 C 0.1846(3) -0.0851(3) 0.1554(2)
H8 H 0.1852 -0.1365 0.1787
C13 C 0.2789(3) -0.0538(2) 0.1466(2)
C14 C 0.3808(3) -0.1007(2) 0.1735(2)
H9 H 0.4090 -0.0964 0.2314
H10 H 0.3670 -0.1581 0.1602
C15 C 0.9623(4) 0.1367(4) 0.2381(3)
H11 H 0.9979 0.0968 0.2771
H12 H 0.9619 0.1885 0.2641
H13 H 0.9987 0.1421 0.1978
C16 C -0.0107(4) -0.0791(4) 0.1423(3)
H14 H -0.0377 -0.0437 0.1759
H15 H 0.0047 -0.1320 0.1673
H16 H -0.0627 -0.0849 0.0910
O1 O 0.53797(18) 0.03930(15) 0.09301(12)
O2 O 0.50678(17) 0.04658(13) 0.22415(12)
O3 O 0.36622(18) 0.05811(15) 0.10363(13)
O4 O 0.45671(18) -0.07145(14) 0.13718(14)
B2 B 0.5087(4) 0.3540(3) 0.0420(3)
C17 C 0.6413(3) 0.3229(2) -0.0271(2)
C18 C 0.6676(4) 0.3102(2) -0.0973(3)
H17 H 0.6162 0.3140 -0.1466
C19 C 0.7708(5) 0.2918(3) -0.0936(3)
H18 H 0.7879 0.2826 -0.1412
C20 C 0.8493(4) 0.2866(3) -0.0222(4)
C21 C 0.8209(4) 0.3009(3) 0.0470(3)
H19 H 0.8728 0.2980 0.0961
C22 C 0.7186(3) 0.3193(2) 0.0464(3)
C23 C 0.6881(3) 0.3336(3) 0.1220(2)
H20 H 0.6736 0.2815 0.1436
H21 H 0.7465 0.3595 0.1617
C24 C 0.3413(3) 0.4097(2) 0.05066(19)
C25 C 0.2634(3) 0.4689(3) 0.0300(2)
H22 H 0.2691 0.5115 -0.0040
C26 C 0.1774(4) 0.4651(3) 0.0595(3)
H23 H 0.1256 0.5055 0.0449
C27 C 0.1657(4) 0.4033(3) 0.1101(3)
C28 C 0.2422(4) 0.3428(3) 0.1271(2)
H24 H 0.2339 0.2989 0.1589
C29 C 0.3303(3) 0.3441(2) 0.0995(2)
C30 C 0.4154(4) 0.2801(2) 0.1203(2)
H25 H 0.4656 0.2932 0.1716
H26 H 0.3842 0.2273 0.1253
C31 C 0.9618(4) 0.2642(4) -0.0199(5)
H27 H 0.9945 0.3098 -0.0382
H28 H 0.9607 0.2178 -0.0541
H29 H 1.0013 0.2507 0.0342
C32 C 0.0749(4) 0.4029(4) 0.1477(4)
H30 H 0.0946 0.4340 0.1967
H31 H 0.0594 0.3476 0.1592
H32 H 0.0134 0.4270 0.1111
O5 O 0.5392(2) 0.34115(16) -0.03227(14)
O6 O 0.5972(2) 0.38434(15) 0.10688(14)
O7 O 0.4274(2) 0.41717(14) 0.02346(14)
O8 O 0.4691(2) 0.27541(14) 0.06066(14)
C33 C 0.2889(3) 0.1633(2) 0.2904(2)
H33 H 0.3336 0.1702 0.2553
H34 H 0.2163 0.1739 0.2593
C34 C 0.2978(3) 0.0775(2) 0.3206(2)
H35 H 0.2664 0.0741 0.3646
H36 H 0.2577 0.0419 0.2780
C35 C 0.2922(4) 0.2925(4) 0.3558(4)
H37 H 0.2454 0.3093 0.3074
C36 C 0.3175(3) 0.3541(2) 0.4155(2)
H38 H 0.2769 0.3445 0.4532
H39 H 0.2960 0.4068 0.3902
N1 N 0.3201(4) 0.2225(3) 0.3562(3)
H40 H 0.3894 0.2176 0.3824
N2 N 0.4085(2) 0.04775(18) 0.34877(16)
H41 H 0.4203 0.0166 0.3932
H42 H 0.4496 0.0928 0.3564
H43 H 0.4205 0.0207 0.3071
N3 N 0.4305(2) 0.35782(17) 0.46015(16)
H44 H 0.4401 0.3478 0.5127
H45 H 0.4553 0.4076 0.4525
H46 H 0.4647 0.3208 0.4384
loop_
_geom_bond_atom_site_label_1
_geom_bond_atom_site_label_2
_geom_bond_site_symmetry_1
_geom_bond_site_symmetry_2
B1 O1 1_555 1_555
C1 C2 1_555 1_555
C2 H1 1_555 1_555
C3 C2 1_555 1_555
H2 C3 1_555 1_555
C4 C3 1_555 1_555
C5 C4 1_555 1_555
H3 C5 1_555 1_555
C6 C1 1_555 1_555
C7 C6 1_555 1_555
H4 C7 1_555 1_555
H5 C7 1_555 1_555
C8 C9 1_555 1_555
C9 H6 1_555 1_555
C10 C9 1_555 1_555
H7 C10 1_555 1_555
C11 C10 1_555 1_555
C12 C11 1_555 1_555
H8 C12 1_555 1_555
C13 C8 1_555 1_555
C14 C13 1_555 1_555
H9 C14 1_555 1_555
H10 C14 1_555 1_555
C15 C4 1_555 1_555
H11 C15 1_555 1_555
H12 C15 1_555 1_555
H13 C15 1_555 1_555
C16 C11 1_555 1_555
H14 C16 1_555 1_555
H15 C16 1_555 1_555
H16 C16 1_555 1_555
O1 C1 1_555 1_555
O2 B1 1_555 1_555
O3 B1 1_555 1_555
O4 B1 1_555 1_555
B2 O5 1_555 1_555
C17 C18 1_555 1_555
C18 H17 1_555 1_555
C19 C18 1_555 1_555
H18 C19 1_555 1_555
C20 C19 1_555 1_555
C21 C20 1_555 1_555
H19 C21 1_555 1_555
C22 C17 1_555 1_555
C23 C22 1_555 1_555
H20 C23 1_555 1_555
H21 C23 1_555 1_555
C24 C25 1_555 1_555
C25 H22 1_555 1_555
C26 C25 1_555 1_555
H23 C26 1_555 1_555
C27 C26 1_555 1_555
C28 C27 1_555 1_555
H24 C28 1_555 1_555
C29 C24 1_555 1_555
C30 C29 1_555 1_555
H25 C30 1_555 1_555
H26 C30 1_555 1_555
C31 C20 1_555 1_555
H27 C31 1_555 1_555
H28 C31 1_555 1_555
H29 C31 1_555 1_555
C32 C27 1_555 1_555
H30 C32 1_555 1_555
H31 C32 1_555 1_555
H32 C32 1_555 1_555
O5 C17 1_555 1_555
O6 B2 1_555 1_555
O7 B2 1_555 1_555
O8 B2 1_555 1_555
C33 H33 1_555 1_555
H34 C33 1_555 1_555
C34 C33 1_555 1_555
H35 C34 1_555 1_555
H36 C34 1_555 1_555
C35 H37 1_555 1_555
C36 C35 1_555 1_555
H38 C36 1_555 1_555
H39 C36 1_555 1_555
N1 C33 1_555 1_555
H40 N1 1_555 1_555
N2 C34 1_555 1_555
H41 N2 1_555 1_555
H42 N2 1_555 1_555
H43 N2 1_555 1_555
N3 C36 1_555 1_555
H44 N3 1_555 1_555
H45 N3 1_555 1_555
H46 N3 1_555 1_555
C5 C6 1_555 1_555
C7 O2 1_555 1_555
C8 O3 1_555 1_555
C12 C13 1_555 1_555
C14 O4 1_555 1_555
C21 C22 1_555 1_555
C23 O6 1_555 1_555
C24 O7 1_555 1_555
C28 C29 1_555 1_555
C30 O8 1_555 1_555
C35 N1 1_555 1_555

#END
