
#######################################################################
#
#                 Cambridge Crystallographic Data Centre
#                                CCDC 
#
#######################################################################
#
# If this CIF has been generated from an entry in the Cambridge 
# Structural Database, then it will include bibliographic, chemical, 
# crystal, experimental, refinement or atomic coordinate data resulting 
# from the CCDC's data processing and validation procedures.
#
#######################################################################

data_WEJYAO
_chemical_name_common            '(+-)-pratensilins A'
_chemical_formula_moiety         'C20 H15 N1 O4,0.5(H2 O1)'
_chemical_name_systematic        
"3'-hydroxy-4-methoxy-7'-methylspiro[isoindole-1,2'-naphtho[1,8-bc]furan]-3(2H)-one hemihydrate"
_symmetry_cell_setting           triclinic
_symmetry_space_group_name_H-M   'P -1'
_symmetry_Int_Tables_number      2
_space_group_name_Hall           '-P 1'
loop_
_symmetry_equiv_pos_site_id
_symmetry_equiv_pos_as_xyz
1 x,y,z
2 -x,-y,-z
_cell_length_a                   8.5611(2)
_cell_length_b                   11.5649(3)
_cell_length_c                   17.2271(5)
_cell_angle_alpha                94.1390(10)
_cell_angle_beta                 95.1400(10)
_cell_angle_gamma                109.6890(10)
_cell_volume                     1589.89
_exptl_crystal_colour            colorless
_exptl_crystal_description       block
_cell_formula_units_Z            4
_chemical_properties_physical    'protic solvent'
loop_
_atom_site_label
_atom_site_type_symbol
_atom_site_fract_x
_atom_site_fract_y
_atom_site_fract_z
O1 O 0.04637(12) 0.17226(9) 0.40689(6)
H1 H -0.0550(12) 0.1496(15) 0.3907(10)
H2 H 0.074(2) 0.2460(9) 0.4260(10)
O2 O 1.34291(12) 0.67322(9) 0.53708(6)
O3 O 0.99851(11) 0.54275(8) 0.23838(5)
O4 O 1.12562(11) 0.42553(8) 0.46426(5)
O5 O 0.63772(12) 0.56564(9) 0.41800(5)
H3 H 0.7197 0.5531 0.4416
N1 N 0.96601(14) 0.45357(10) 0.35838(6)
H4 H 0.9091 0.3748 0.3443
C1 C 1.49563(18) 0.75307(14) 0.58085(8)
H5 H 1.5848 0.7717 0.5468
H6 H 1.5253 0.7123 0.6249
H7 H 1.4816 0.8300 0.6009
C2 C 1.27071(16) 0.71752(12) 0.47886(8)
C3 C 1.14748(16) 0.63014(12) 0.42563(8)
C4 C 1.06187(16) 0.66581(12) 0.36502(8)
C5 C 0.94078(16) 0.55051(12) 0.31645(8)
C6 C 0.86064(17) 0.50200(12) 0.18271(8)
C7 C 0.85262(18) 0.46906(12) 0.10448(8)
H8 H 0.9503 0.4724 0.0811
C8 C 0.69257(19) 0.42930(13) 0.05877(8)
C9 C 0.6833(2) 0.38993(16) -0.02738(9)
H9 H 0.5667 0.3620 -0.0513
H10 H 0.7273 0.3222 -0.0339
H11 H 0.7500 0.4600 -0.0529
C10 C 1.30439(17) 0.84171(12) 0.46832(8)
H12 H 1.3868 0.9038 0.5037
C11 C 1.21897(17) 0.87552(12) 0.40684(8)
H13 H 1.2449 0.9607 0.4008
C12 C 1.09634(17) 0.78830(12) 0.35368(8)
H14 H 1.0390 0.8122 0.3115
C13 C 1.08378(16) 0.49353(12) 0.42089(8)
C14 C 0.75615(16) 0.53265(11) 0.29758(8)
C15 C 0.71657(17) 0.49765(11) 0.21658(8)
C16 C 0.55024(18) 0.42480(12) 0.09187(8)
H15 H 0.4455 0.3979 0.0599
C17 C 0.55843(17) 0.46013(11) 0.17362(8)
C18 C 0.42759(17) 0.45910(12) 0.21909(8)
H16 H 0.3157 0.4344 0.1946
C19 C 0.46300(17) 0.49395(12) 0.29850(8)
H17 H 0.3730 0.4929 0.3273
C20 C 0.62692(17) 0.53168(11) 0.34031(8)
O6 O 0.72776(12) -0.03496(9) 0.36412(6)
O7 O 0.44673(12) 0.06905(9) 0.07920(5)
O8 O 0.76598(11) 0.20766(8) 0.31158(6)
O9 O 0.21525(12) 0.11601(9) 0.29546(5)
H18 H 0.1532 0.1368 0.3244
N2 N 0.57041(13) 0.17901(10) 0.20459(7)
H19 H 0.6045 0.2555 0.1926
C21 C 0.7627(2) -0.12211(15) 0.41131(10)
H20 H 0.6637 -0.1650 0.4362
H21 H 0.8564 -0.0787 0.4518
H22 H 0.7920 -0.1824 0.3782
C22 C 0.59814(16) -0.07890(12) 0.30598(8)
C23 C 0.56373(16) 0.00639(12) 0.26037(8)
C24 C 0.43254(16) -0.02975(12) 0.20053(8)
C25 C 0.42519(16) 0.08246(12) 0.16226(8)
C26 C 0.33031(16) 0.10649(12) 0.03664(8)
C27 C 0.31220(17) 0.11920(12) -0.04105(8)
H23 H 0.3828 0.0998 -0.0754
C28 C 0.18221(17) 0.16314(12) -0.06907(8)
C29 C 0.16412(19) 0.18131(14) -0.15501(8)
H24 H 0.0742 0.2146 -0.1660
H25 H 0.1372 0.1018 -0.1868
H26 H 0.2693 0.2393 -0.1679
C30 C 0.33114(17) -0.15159(12) 0.18264(8)
H27 H 0.2410 -0.1762 0.1415
C31 C 0.36676(17) -0.23698(12) 0.22754(9)
H28 H 0.2998 -0.3218 0.2162
C32 C 0.49671(17) -0.20238(12) 0.28820(8)
H29 H 0.5167 -0.2632 0.3178
C33 C 0.64880(15) 0.14119(12) 0.26402(8)
C34 C 0.26752(16) 0.11418(12) 0.16281(8)
C35 C 0.17584(16) 0.13470(12) 0.22037(8)
C36 C 0.04123(17) 0.17520(12) 0.19748(8)
H30 H -0.0238 0.1900 0.2364
C37 C 0.00032(17) 0.19416(13) 0.12113(8)
H31 H -0.0913 0.2212 0.1089
C38 C 0.09354(17) 0.17364(12) 0.06098(8)
C39 C 0.22317(16) 0.13261(12) 0.08630(8)
C40 C 0.07727(17) 0.18957(13) -0.02023(8)
H32 H -0.0073 0.2189 -0.0409
loop_
_geom_bond_atom_site_label_1
_geom_bond_atom_site_label_2
_geom_bond_site_symmetry_1
_geom_bond_site_symmetry_2
O1 H1 1_555 1_555
H2 O1 1_555 1_555
O2 C1 1_555 1_555
O3 C5 1_555 1_555
O4 C13 1_555 1_555
O5 H3 1_555 1_555
N1 H4 1_555 1_555
C1 H5 1_555 1_555
H6 C1 1_555 1_555
H7 C1 1_555 1_555
C2 O2 1_555 1_555
C3 C2 1_555 1_555
C4 C3 1_555 1_555
C5 N1 1_555 1_555
C6 O3 1_555 1_555
C7 C6 1_555 1_555
H8 C7 1_555 1_555
C8 C7 1_555 1_555
C9 C8 1_555 1_555
H9 C9 1_555 1_555
H10 C9 1_555 1_555
H11 C9 1_555 1_555
C10 C2 1_555 1_555
H12 C10 1_555 1_555
C11 C10 1_555 1_555
H13 C11 1_555 1_555
C12 C4 1_555 1_555
H14 C12 1_555 1_555
C13 N1 1_555 1_555
C14 C5 1_555 1_555
C15 C6 1_555 1_555
C16 C8 1_555 1_555
H15 C16 1_555 1_555
C17 C15 1_555 1_555
C18 C17 1_555 1_555
H16 C18 1_555 1_555
C19 C18 1_555 1_555
H17 C19 1_555 1_555
C20 O5 1_555 1_555
O6 C21 1_555 1_555
O7 C25 1_555 1_555
O8 C33 1_555 1_555
O9 H18 1_555 1_555
N2 H19 1_555 1_555
C21 H20 1_555 1_555
H21 C21 1_555 1_555
H22 C21 1_555 1_555
C22 O6 1_555 1_555
C23 C22 1_555 1_555
C24 C23 1_555 1_555
C25 N2 1_555 1_555
C26 O7 1_555 1_555
C27 C26 1_555 1_555
H23 C27 1_555 1_555
C28 C27 1_555 1_555
C29 C28 1_555 1_555
H24 C29 1_555 1_555
H25 C29 1_555 1_555
H26 C29 1_555 1_555
C30 C24 1_555 1_555
H27 C30 1_555 1_555
C31 C30 1_555 1_555
H28 C31 1_555 1_555
C32 C22 1_555 1_555
H29 C32 1_555 1_555
C33 N2 1_555 1_555
C34 C25 1_555 1_555
C35 O9 1_555 1_555
C36 C35 1_555 1_555
H30 C36 1_555 1_555
C37 C36 1_555 1_555
H31 C37 1_555 1_555
C38 C37 1_555 1_555
C39 C26 1_555 1_555
C40 C28 1_555 1_555
H32 C40 1_555 1_555
C3 C13 1_555 1_555
C4 C5 1_555 1_555
C11 C12 1_555 1_555
C14 C15 1_555 1_555
C14 C20 1_555 1_555
C16 C17 1_555 1_555
C19 C20 1_555 1_555
C23 C33 1_555 1_555
C24 C25 1_555 1_555
C31 C32 1_555 1_555
C34 C35 1_555 1_555
C34 C39 1_555 1_555
C38 C39 1_555 1_555
C38 C40 1_555 1_555

#END
