
#######################################################################
#
#                 Cambridge Crystallographic Data Centre
#                                CCDC 
#
#######################################################################
#
# If this CIF has been generated from an entry in the Cambridge 
# Structural Database, then it will include bibliographic, chemical, 
# crystal, experimental, refinement or atomic coordinate data resulting 
# from the CCDC's data processing and validation procedures.
#
#######################################################################

data_WELKOP
_chemical_formula_moiety         'C18 H16 N4 O3'
_chemical_name_systematic        
1-(3,4,5-Trimethoxyphenyl)-1H-[1,2,3]triazolo[4,5-c]quinoline
_symmetry_cell_setting           monoclinic
_symmetry_space_group_name_H-M   'P 21/c'
_symmetry_Int_Tables_number      14
_space_group_name_Hall           '-P 2ybc'
loop_
_symmetry_equiv_pos_site_id
_symmetry_equiv_pos_as_xyz
1 x,y,z
2 -x,1/2+y,1/2-z
3 -x,-y,-z
4 x,1/2-y,1/2+z
_cell_length_a                   9.5689(5)
_cell_length_b                   14.0410(7)
_cell_length_c                   11.5099(6)
_cell_angle_alpha                90
_cell_angle_beta                 91.885(5)
_cell_angle_gamma                90
_cell_volume                     1545.6
_exptl_crystal_colour            red
_exptl_crystal_description       parallelepiped
_cell_formula_units_Z            4
loop_
_atom_site_label
_atom_site_type_symbol
_atom_site_fract_x
_atom_site_fract_y
_atom_site_fract_z
O1 O 0.98883(13) 0.35727(10) 0.21686(11)
O2 O 0.97420(12) 0.22303(9) 0.05131(10)
O3 O 0.79129(13) 0.07979(9) 0.05925(10)
N1 N 0.51732(15) 0.04483(11) 0.70774(12)
N2 N 0.45602(15) 0.26133(11) 0.53288(13)
N3 N 0.52356(16) 0.27842(11) 0.43874(13)
N4 N 0.61584(15) 0.20461(11) 0.42207(12)
C1 C 0.62329(18) 0.00828(13) 0.64133(14)
C2 C 0.68236(19) -0.07903(13) 0.67774(15)
H1 H 0.6470 -0.1105 0.7437
C3 C 0.7902(2) -0.11929(14) 0.61932(15)
H2 H 0.8289 -0.1782 0.6452
C4 C 0.84369(19) -0.07416(14) 0.52188(16)
H3 H 0.9192 -0.1022 0.4826
C5 C 0.78743(18) 0.01050(14) 0.48282(15)
H4 H 0.8243 0.0407 0.4166
C6 C 0.67556(18) 0.05267(13) 0.54026(15)
C7 C 0.60623(17) 0.13968(13) 0.50906(14)
C8 C 0.50278(18) 0.17634(13) 0.57820(15)
C9 C 0.46074(18) 0.12641(13) 0.67779(15)
H5 H 0.3899 0.1527 0.7240
C10 C 0.70628(18) 0.20920(13) 0.32457(14)
C11 C 0.79867(18) 0.28457(13) 0.32059(15)
H6 H 0.8001 0.3326 0.3788
C12 C 0.88945(18) 0.28821(13) 0.22907(15)
C13 C 0.88599(18) 0.21784(13) 0.14362(14)
C14 C 0.78833(17) 0.14402(12) 0.14839(14)
C15 C 0.69705(18) 0.13894(13) 0.23996(14)
H7 H 0.6306 0.0889 0.2443
C16 C 0.9864(2) 0.43576(14) 0.29558(16)
H8 H 1.0620 0.4801 0.2782
H9 H 0.9992 0.4124 0.3755
H10 H 0.8963 0.4687 0.2871
C17 C 1.11326(19) 0.19036(15) 0.07921(17)
H11 H 1.1706 0.1960 0.0105
H12 H 1.1101 0.1236 0.1037
H13 H 1.1541 0.2291 0.1424
C18 C 0.6779(2) 0.01317(14) 0.05081(17)
H14 H 0.6907 -0.0290 -0.0159
H15 H 0.5894 0.0478 0.0404
H16 H 0.6761 -0.0249 0.1221
loop_
_geom_bond_atom_site_label_1
_geom_bond_atom_site_label_2
_geom_bond_site_symmetry_1
_geom_bond_site_symmetry_2
O1 C12 1_555 1_555
O2 C13 1_555 1_555
O3 C14 1_555 1_555
N1 C1 1_555 1_555
N2 N3 1_555 1_555
N3 N4 1_555 1_555
N4 C7 1_555 1_555
C1 C2 1_555 1_555
C2 H1 1_555 1_555
C3 C2 1_555 1_555
H2 C3 1_555 1_555
C4 C3 1_555 1_555
H3 C4 1_555 1_555
C5 C4 1_555 1_555
H4 C5 1_555 1_555
C6 C1 1_555 1_555
C7 C6 1_555 1_555
C8 N2 1_555 1_555
C9 N1 1_555 1_555
H5 C9 1_555 1_555
C10 N4 1_555 1_555
C11 C10 1_555 1_555
H6 C11 1_555 1_555
C12 C11 1_555 1_555
C13 C12 1_555 1_555
C14 C13 1_555 1_555
C15 C10 1_555 1_555
H7 C15 1_555 1_555
C16 O1 1_555 1_555
H8 C16 1_555 1_555
H9 C16 1_555 1_555
H10 C16 1_555 1_555
C17 O2 1_555 1_555
H11 C17 1_555 1_555
H12 C17 1_555 1_555
H13 C17 1_555 1_555
C18 O3 1_555 1_555
H14 C18 1_555 1_555
H15 C18 1_555 1_555
H16 C18 1_555 1_555
C5 C6 1_555 1_555
C7 C8 1_555 1_555
C8 C9 1_555 1_555
C14 C15 1_555 1_555

#END
