
#######################################################################
#
#                 Cambridge Crystallographic Data Centre
#                                CCDC 
#
#######################################################################
#
# If this CIF has been generated from an entry in the Cambridge 
# Structural Database, then it will include bibliographic, chemical, 
# crystal, experimental, refinement or atomic coordinate data resulting 
# from the CCDC's data processing and validation procedures.
#
#######################################################################

data_WELMAE
_chemical_compound_source        'dried rhizomes of Alisma orientale'
_chemical_name_common            '16beta-Hydroperoxyalisol B 23-acetate'
_chemical_formula_moiety         'C32 H50 O7,H2 O1'
_chemical_name_systematic        
'(8\a,9\b,11\b,14\b,16\b,23S,24R)-16-Hydroperoxy-11-hydroxy-3-oxo-24,25-epoxydammar-13(17)-en-23-yl acetate'
_symmetry_cell_setting           orthorhombic
_symmetry_space_group_name_H-M   'P 21 21 21'
_symmetry_Int_Tables_number      19
_space_group_name_Hall           'P 2ac 2ab'
loop_
_symmetry_equiv_pos_site_id
_symmetry_equiv_pos_as_xyz
1 x,y,z
2 1/2+x,1/2-y,-z
3 -x,1/2+y,1/2-z
4 1/2-x,-y,1/2+z
_cell_length_a                   11.9570(12)
_cell_length_b                   11.9806(12)
_cell_length_c                   22.132(2)
_cell_angle_alpha                90
_cell_angle_beta                 90
_cell_angle_gamma                90
_cell_volume                     3170.45
_exptl_crystal_colour            colorless
_exptl_crystal_description       block
_chemical_melting_point          '158.9-159.8 deg.C'
_cell_formula_units_Z            4
loop_
_atom_site_label
_atom_site_type_symbol
_atom_site_fract_x
_atom_site_fract_y
_atom_site_fract_z
O1 O 0.3839(5) 1.4203(6) 0.1868(4)
O2 O 0.8296(5) 0.6154(5) 0.0687(2)
O3 O 1.0699(5) 0.5201(5) 0.0230(2)
O4 O 0.8881(7) 0.7201(7) -0.0082(3)
O5 O 1.0810(5) 0.8199(5) 0.1725(4)
O6 O 1.1706(5) 0.8708(8) 0.2052(4)
H1 H 1.2239 0.8840 0.1815
C1 C 0.7919(6) 1.0794(7) 0.2138(4)
H2 H 0.8682 1.0859 0.2296
H3 H 0.7627 1.0048 0.2227
H4 H 0.7442 1.1357 0.2330
C2 C 0.4662(7) 1.3627(7) 0.1890(4)
C3 C 0.4680(8) 1.2572(8) 0.2251(5)
H5 H 0.3909 1.2413 0.2390
H6 H 0.5145 1.2697 0.2614
C4 C 0.5126(6) 1.1534(7) 0.1919(4)
H7 H 0.5567 1.1078 0.2206
H8 H 0.4485 1.1077 0.1782
C5 C 0.5861(6) 1.1824(6) 0.1372(3)
C6 C 0.6715(6) 1.0862(6) 0.1192(3)
H9 H 0.6798 1.0920 0.0744
C7 C 0.6249(6) 0.9687(6) 0.1305(3)
H10 H 0.6171 0.9585 0.1752
C8 C 0.7015(6) 0.8759(7) 0.1068(4)
H11 H 0.6732 0.8025 0.1206
H12 H 0.7009 0.8764 0.0620
C9 C 0.8194(6) 0.8924(6) 0.1291(3)
C10 C 0.8816(6) 0.8287(7) 0.1633(3)
C11 C 0.8511(6) 0.7134(6) 0.1873(3)
H13 H 0.7727 0.6972 0.1742
C12 C 0.9253(6) 0.6191(7) 0.1632(4)
H14 H 0.9996 0.6249 0.1828
H15 H 0.8921 0.5469 0.1756
C13 C 0.9415(6) 0.6178(7) 0.0964(4)
H16 H 0.9834 0.6858 0.0831
C14 C 0.8142(8) 0.6680(8) 0.0149(4)
C15 C 0.7013(10) 0.6501(11) -0.0090(5)
H17 H 0.6510 0.7075 0.0070
H18 H 0.6745 0.5762 0.0033
H19 H 0.7030 0.6545 -0.0532
C16 C 0.5761(7) 1.3962(7) 0.1610(4)
C17 C 0.6314(8) 1.4743(8) 0.2066(5)
H20 H 0.5923 1.5462 0.2066
H21 H 0.7098 1.4858 0.1954
H22 H 0.6275 1.4411 0.2470
C18 C 0.6520(6) 1.2893(6) 0.1541(4)
H23 H 0.6819 1.2747 0.1956
C19 C 0.5101(7) 1.2025(8) 0.0836(4)
H24 H 0.4789 1.1313 0.0699
H25 H 0.5530 1.2367 0.0507
H26 H 0.4491 1.2526 0.0955
C20 C 0.7929(6) 1.0981(6) 0.1448(3)
C21 C 0.8689(6) 1.0058(6) 0.1148(3)
C22 C 0.9866(6) 0.9941(7) 0.1448(5)
H27 H 1.0455 0.9895 0.1134
H28 H 1.0023 1.0595 0.1708
C23 C 0.9851(7) 0.8888(7) 0.1822(4)
H29 H 0.9798 0.9086 0.2260
C24 C 1.0002(7) 0.5140(8) 0.0753(4)
H30 H 0.9527 0.4453 0.0770
C25 C 1.1201(7) 0.4918(7) 0.0808(4)
C26 C 1.1993(8) 0.5794(9) 0.1041(5)
H31 H 1.2735 0.5678 0.0864
H32 H 1.2044 0.5737 0.1482
H33 H 1.1716 0.6536 0.0930
C27 C 1.1632(10) 0.3743(8) 0.0848(5)
H34 H 1.1044 0.3223 0.0722
H35 H 1.1849 0.3581 0.1266
H36 H 1.2283 0.3659 0.0583
C28 C 0.8524(7) 0.7136(9) 0.2560(3)
H37 H 0.9289 0.7259 0.2703
H38 H 0.8251 0.6416 0.2710
H39 H 0.8039 0.7735 0.2709
O7 O 0.5166(4) 0.9528(5) 0.1038(3)
H40 H 0.5240 0.9360 0.0672
C29 C 0.8824(7) 1.0200(8) 0.0465(4)
H41 H 0.9164 0.9526 0.0294
H42 H 0.9306 1.0844 0.0383
H43 H 0.8089 1.0322 0.0280
C30 C 0.8412(6) 1.2155(7) 0.1313(4)
H44 H 0.8825 1.2417 0.1674
H45 H 0.8956 1.2089 0.0978
C31 C 0.7550(7) 1.3029(7) 0.1145(4)
H46 H 0.7339 1.2944 0.0715
H47 H 0.7870 1.3784 0.1201
C32 C 0.5595(10) 1.4630(9) 0.1029(5)
H48 H 0.5344 1.4130 0.0706
H49 H 0.6304 1.4979 0.0912
H50 H 0.5031 1.5210 0.1096
O8 O 0.3640(7) 0.8056(10) 0.1463(5)
loop_
_geom_bond_atom_site_label_1
_geom_bond_atom_site_label_2
_geom_bond_site_symmetry_1
_geom_bond_site_symmetry_2
O1 C2 1_555 1_555
O2 C13 1_555 1_555
O3 C24 1_555 1_555
O4 C14 1_555 1_555
O5 O6 1_555 1_555
O6 H1 1_555 1_555
C1 H2 1_555 1_555
H3 C1 1_555 1_555
H4 C1 1_555 1_555
C2 C3 1_555 1_555
C3 H5 1_555 1_555
H6 C3 1_555 1_555
C4 C3 1_555 1_555
H7 C4 1_555 1_555
H8 C4 1_555 1_555
C5 C4 1_555 1_555
C6 C5 1_555 1_555
H9 C6 1_555 1_555
C7 C6 1_555 1_555
H10 C7 1_555 1_555
C8 C7 1_555 1_555
H11 C8 1_555 1_555
H12 C8 1_555 1_555
C9 C8 1_555 1_555
C10 C9 1_555 1_555
C11 C10 1_555 1_555
H13 C11 1_555 1_555
C12 C11 1_555 1_555
H14 C12 1_555 1_555
H15 C12 1_555 1_555
C13 C12 1_555 1_555
H16 C13 1_555 1_555
C14 O2 1_555 1_555
C15 C14 1_555 1_555
H17 C15 1_555 1_555
H18 C15 1_555 1_555
H19 C15 1_555 1_555
C16 C2 1_555 1_555
C17 C16 1_555 1_555
H20 C17 1_555 1_555
H21 C17 1_555 1_555
H22 C17 1_555 1_555
C18 C5 1_555 1_555
H23 C18 1_555 1_555
C19 C5 1_555 1_555
H24 C19 1_555 1_555
H25 C19 1_555 1_555
H26 C19 1_555 1_555
C20 C1 1_555 1_555
C21 C9 1_555 1_555
C22 C21 1_555 1_555
H27 C22 1_555 1_555
H28 C22 1_555 1_555
C23 O5 1_555 1_555
H29 C23 1_555 1_555
C24 C13 1_555 1_555
H30 C24 1_555 1_555
C25 O3 1_555 1_555
C26 C25 1_555 1_555
H31 C26 1_555 1_555
H32 C26 1_555 1_555
H33 C26 1_555 1_555
C27 C25 1_555 1_555
H34 C27 1_555 1_555
H35 C27 1_555 1_555
H36 C27 1_555 1_555
C28 C11 1_555 1_555
H37 C28 1_555 1_555
H38 C28 1_555 1_555
H39 C28 1_555 1_555
O7 C7 1_555 1_555
H40 O7 1_555 1_555
C29 C21 1_555 1_555
H41 C29 1_555 1_555
H42 C29 1_555 1_555
H43 C29 1_555 1_555
C30 C20 1_555 1_555
H44 C30 1_555 1_555
H45 C30 1_555 1_555
C31 C18 1_555 1_555
H46 C31 1_555 1_555
H47 C31 1_555 1_555
C32 C16 1_555 1_555
H48 C32 1_555 1_555
H49 C32 1_555 1_555
H50 C32 1_555 1_555
C6 C20 1_555 1_555
C10 C23 1_555 1_555
C16 C18 1_555 1_555
C20 C21 1_555 1_555
C22 C23 1_555 1_555
C24 C25 1_555 1_555
C30 C31 1_555 1_555

#END
