
#######################################################################
#
#                 Cambridge Crystallographic Data Centre
#                                CCDC 
#
#######################################################################
#
# If this CIF has been generated from an entry in the Cambridge 
# Structural Database, then it will include bibliographic, chemical, 
# crystal, experimental, refinement or atomic coordinate data resulting 
# from the CCDC's data processing and validation procedures.
#
#######################################################################

data_WEMQIR
_chemical_formula_moiety         'C9 H8 O3 S1'
_chemical_name_systematic        6-ethoxy-2H-1,3-benzoxathiol-2-one
_symmetry_cell_setting           triclinic
_symmetry_space_group_name_H-M   'P -1'
_symmetry_Int_Tables_number      2
_space_group_name_Hall           '-P 1'
loop_
_symmetry_equiv_pos_site_id
_symmetry_equiv_pos_as_xyz
1 x,y,z
2 -x,-y,-z
_cell_length_a                   3.9149(6)
_cell_length_b                   10.3237(12)
_cell_length_c                   11.7003(14)
_cell_angle_alpha                66.526(6)
_cell_angle_beta                 81.110(9)
_cell_angle_gamma                84.349(9)
_cell_volume                     428.181
_exptl_crystal_colour            colorless
_exptl_crystal_description       plate
_cell_formula_units_Z            2
loop_
_atom_site_label
_atom_site_type_symbol
_atom_site_fract_x
_atom_site_fract_y
_atom_site_fract_z
C1 C 0.0898(4) 0.15148(16) 0.62375(14)
C2 C 0.1487(4) 0.21490(16) 0.40934(14)
C3 C -0.0473(4) 0.33140(16) 0.41485(14)
C4 C -0.1375(4) 0.43830(16) 0.30435(15)
H1 H -0.2733 0.5190 0.3064
C5 C -0.0252(4) 0.42431(16) 0.19181(15)
H2 H -0.0854 0.4961 0.1157
C6 C 0.1770(4) 0.30535(16) 0.18846(14)
C7 C 0.2673(4) 0.19732(16) 0.29857(14)
H3 H 0.4028 0.1161 0.2975
C8 C 0.4817(4) 0.18554(16) 0.06172(15)
H4 H 0.3576 0.0970 0.1095
H5 H 0.7026 0.1773 0.0959
C9 C 0.5494(4) 0.21106(18) -0.07580(15)
H6 H 0.6977 0.1336 -0.0867
H7 H 0.6651 0.3005 -0.1224
H8 H 0.3294 0.2157 -0.1077
O1 O 0.2250(3) 0.11453(11) 0.52491(10)
O2 O 0.1322(3) 0.07887(11) 0.72936(10)
O3 O 0.2727(3) 0.30495(11) 0.07165(10)
S1 S -0.14241(9) 0.31705(4) 0.57093(3)
loop_
_geom_bond_atom_site_label_1
_geom_bond_atom_site_label_2
_geom_bond_site_symmetry_1
_geom_bond_site_symmetry_2
C1 O1 1_555 1_555
C2 C3 1_555 1_555
C3 C4 1_555 1_555
C4 H1 1_555 1_555
C5 C4 1_555 1_555
H2 C5 1_555 1_555
C6 C5 1_555 1_555
C7 C2 1_555 1_555
H3 C7 1_555 1_555
C8 H4 1_555 1_555
H5 C8 1_555 1_555
C9 C8 1_555 1_555
H6 C9 1_555 1_555
H7 C9 1_555 1_555
H8 C9 1_555 1_555
O1 C2 1_555 1_555
O2 C1 1_555 1_555
O3 C6 1_555 1_555
S1 C1 1_555 1_555
C3 S1 1_555 1_555
C6 C7 1_555 1_555
C8 O3 1_555 1_555

#END
