
#######################################################################
#
#                 Cambridge Crystallographic Data Centre
#                                CCDC 
#
#######################################################################
#
# If this CIF has been generated from an entry in the Cambridge 
# Structural Database, then it will include bibliographic, chemical, 
# crystal, experimental, refinement or atomic coordinate data resulting 
# from the CCDC's data processing and validation procedures.
#
#######################################################################

data_WEMZOF
_chemical_formula_moiety         'C38 H45 B1 F2 N2'
_chemical_name_systematic        
3,7-bis(adamantan-1-yl)-5,5-difluoro-10-mesityl-5H-dipyrrolo[1,2-c:2',1'-f][1,3,2]diazaborinine
_symmetry_cell_setting           monoclinic
_symmetry_space_group_name_H-M   'P 21/c'
_symmetry_Int_Tables_number      14
_space_group_name_Hall           '-P 2ybc'
loop_
_symmetry_equiv_pos_site_id
_symmetry_equiv_pos_as_xyz
1 x,y,z
2 -x,1/2+y,1/2-z
3 -x,-y,-z
4 x,1/2-y,1/2+z
_cell_length_a                   14.0557(3)
_cell_length_b                   11.4779(3)
_cell_length_c                   19.3737(13)
_cell_angle_alpha                90
_cell_angle_beta                 98.905(7)
_cell_angle_gamma                90
_cell_volume                     3087.88
_exptl_crystal_colour            red
_exptl_crystal_description       prism
_cell_formula_units_Z            4
_exptl_crystal_recrystallization_method dichloromethane
loop_
_atom_site_label
_atom_site_type_symbol
_atom_site_fract_x
_atom_site_fract_y
_atom_site_fract_z
F1 F 1.26208(6) 0.49098(9) 0.32372(4)
F2 F 1.25747(7) 0.65974(9) 0.26253(5)
N1 N 1.11884(8) 0.60941(13) 0.31541(6)
N2 N 1.16334(8) 0.50084(12) 0.20916(6)
C1 C 1.20784(10) 0.43720(15) 0.16374(7)
C2 C 1.30663(10) 0.38003(15) 0.17834(7)
C3 C 0.71448(11) 0.63049(17) 0.10184(7)
C4 C 1.31005(11) 0.28533(16) 0.23551(7)
H1 H 1.2969 0.3212 0.2795
H2 H 1.2597 0.2261 0.2209
C5 C 1.07098(10) 0.52833(15) 0.17461(7)
C6 C 0.90318(10) 0.60263(16) 0.17010(7)
C7 C 1.40943(11) 0.22656(16) 0.24786(8)
H3 H 1.4110 0.1671 0.2858
C8 C 1.11485(11) 0.65291(16) 0.38057(8)
C9 C 1.42817(11) 0.16692(16) 0.18107(8)
H4 H 1.4920 0.1285 0.1891
H5 H 1.3786 0.1066 0.1671
C10 C 1.06011(11) 0.48221(16) 0.10682(8)
H6 H 1.0046 0.4882 0.0722
C11 C 0.83285(11) 0.52125(16) 0.18123(8)
C12 C 1.02122(11) 0.69384(19) 0.38279(9)
H7 H 0.9991 0.7273 0.4223
C13 C 1.14442(11) 0.42686(17) 0.09987(8)
H8 H 1.1580 0.3882 0.0591
C14 C 0.73934(11) 0.53781(17) 0.14642(8)
H9 H 0.6910 0.4833 0.1536
C15 C 1.19515(10) 0.65646(15) 0.44334(7)
C16 C 1.48773(11) 0.31777(17) 0.26973(8)
H10 H 1.4762 0.3567 0.3133
H11 H 1.5516 0.2795 0.2787
C17 C 1.02704(11) 0.62422(16) 0.27625(8)
C18 C 1.00406(10) 0.58634(15) 0.20771(7)
C19 C 1.38785(10) 0.46947(16) 0.19960(8)
H12 H 1.3869 0.5287 0.1624
H13 H 1.3774 0.5097 0.2430
C20 C 1.48612(11) 0.40773(17) 0.21147(9)
H14 H 1.5379 0.4666 0.2256
C21 C 1.32704(11) 0.31785(17) 0.11137(7)
H15 H 1.2760 0.2595 0.0968
H16 H 1.3255 0.3756 0.0733
C22 C 1.42532(11) 0.25719(16) 0.12336(8)
H17 H 1.4366 0.2180 0.0792
B1 B 1.20512(12) 0.56431(18) 0.27939(9)
C23 C 1.50409(11) 0.34777(17) 0.14464(9)
H18 H 1.5679 0.3094 0.1523
H19 H 1.5037 0.4061 0.1069
C24 C 1.28895(12) 0.70759(19) 0.42600(8)
H20 H 1.2774 0.7878 0.4079
H21 H 1.3120 0.6601 0.3893
C25 C 0.96727(11) 0.67733(18) 0.31842(9)
H22 H 0.9016 0.6980 0.3049
C26 C 0.61136(12) 0.6468(2) 0.06641(9)
H23 H 0.6035 0.7253 0.0464
H24 H 0.5677 0.6368 0.1008
H25 H 0.5962 0.5889 0.0291
C27 C 0.88028(11) 0.69747(17) 0.12570(8)
C28 C 1.24063(13) 0.7351(2) 0.56652(9)
H26 H 1.2181 0.7848 0.6032
C29 C 0.95440(13) 0.7890(2) 0.11577(12)
H27 H 0.9489 0.8547 0.1472
H28 H 0.9433 0.8162 0.0673
H29 H 1.0191 0.7552 0.1264
C30 C 0.85552(13) 0.41860(18) 0.22923(10)
H30 H 0.8740 0.4463 0.2773
H31 H 0.9088 0.3741 0.2151
H32 H 0.7986 0.3686 0.2266
C31 C 1.33298(14) 0.7851(2) 0.54774(9)
H33 H 1.3832 0.7870 0.5896
H34 H 1.3219 0.8658 0.5303
C32 C 1.21345(15) 0.53349(18) 0.47298(9)
H35 H 1.2343 0.4821 0.4371
H36 H 1.1532 0.5013 0.4858
C33 C 1.36590(12) 0.7094(2) 0.49171(9)
H37 H 1.4271 0.7418 0.4793
C34 C 0.78561(11) 0.70876(17) 0.09177(8)
H38 H 0.7696 0.7724 0.0608
C35 C 1.16322(13) 0.7333(2) 0.50090(9)
H39 H 1.1515 0.8137 0.4831
H40 H 1.1022 0.7028 0.5133
C36 C 1.25791(16) 0.6121(2) 0.59395(9)
H41 H 1.1976 0.5798 0.6066
H42 H 1.3073 0.6126 0.6364
C37 C 1.38355(15) 0.5870(2) 0.51854(11)
H43 H 1.4345 0.5873 0.5600
H44 H 1.4058 0.5380 0.4821
C38 C 1.29182(18) 0.5370(2) 0.53795(10)
H45 H 1.3044 0.4561 0.5563
loop_
_geom_bond_atom_site_label_1
_geom_bond_atom_site_label_2
_geom_bond_site_symmetry_1
_geom_bond_site_symmetry_2
F1 B1 1_555 1_555
F2 B1 1_555 1_555
N1 C8 1_555 1_555
N2 C1 1_555 1_555
C1 C2 1_555 1_555
C2 C4 1_555 1_555
C3 C14 1_555 1_555
C4 H1 1_555 1_555
H2 C4 1_555 1_555
C5 N2 1_555 1_555
C6 C11 1_555 1_555
C7 C4 1_555 1_555
H3 C7 1_555 1_555
C8 C12 1_555 1_555
C9 C7 1_555 1_555
H4 C9 1_555 1_555
H5 C9 1_555 1_555
C10 C5 1_555 1_555
H6 C10 1_555 1_555
C11 C14 1_555 1_555
C12 H7 1_555 1_555
C13 C1 1_555 1_555
H8 C13 1_555 1_555
C14 H9 1_555 1_555
C15 C8 1_555 1_555
C16 C7 1_555 1_555
H10 C16 1_555 1_555
H11 C16 1_555 1_555
C17 N1 1_555 1_555
C18 C5 1_555 1_555
C19 C2 1_555 1_555
H12 C19 1_555 1_555
H13 C19 1_555 1_555
C20 C16 1_555 1_555
H14 C20 1_555 1_555
C21 C2 1_555 1_555
H15 C21 1_555 1_555
H16 C21 1_555 1_555
C22 C9 1_555 1_555
H17 C22 1_555 1_555
B1 N1 1_555 1_555
C23 C20 1_555 1_555
H18 C23 1_555 1_555
H19 C23 1_555 1_555
C24 C15 1_555 1_555
H20 C24 1_555 1_555
H21 C24 1_555 1_555
C25 C12 1_555 1_555
H22 C25 1_555 1_555
C26 C3 1_555 1_555
H23 C26 1_555 1_555
H24 C26 1_555 1_555
H25 C26 1_555 1_555
C27 C6 1_555 1_555
C28 H26 1_555 1_555
C29 C27 1_555 1_555
H27 C29 1_555 1_555
H28 C29 1_555 1_555
H29 C29 1_555 1_555
C30 C11 1_555 1_555
H30 C30 1_555 1_555
H31 C30 1_555 1_555
H32 C30 1_555 1_555
C31 C28 1_555 1_555
H33 C31 1_555 1_555
H34 C31 1_555 1_555
C32 C15 1_555 1_555
H35 C32 1_555 1_555
H36 C32 1_555 1_555
C33 C24 1_555 1_555
H37 C33 1_555 1_555
C34 C3 1_555 1_555
H38 C34 1_555 1_555
C35 C15 1_555 1_555
H39 C35 1_555 1_555
H40 C35 1_555 1_555
C36 C28 1_555 1_555
H41 C36 1_555 1_555
H42 C36 1_555 1_555
C37 C33 1_555 1_555
H43 C37 1_555 1_555
H44 C37 1_555 1_555
C38 C32 1_555 1_555
H45 C38 1_555 1_555
N2 B1 1_555 1_555
C6 C18 1_555 1_555
C10 C13 1_555 1_555
C17 C18 1_555 1_555
C17 C25 1_555 1_555
C19 C20 1_555 1_555
C21 C22 1_555 1_555
C22 C23 1_555 1_555
C27 C34 1_555 1_555
C28 C35 1_555 1_555
C31 C33 1_555 1_555
C36 C38 1_555 1_555
C37 C38 1_555 1_555

#END
