
#######################################################################
#
#                 Cambridge Crystallographic Data Centre
#                                CCDC 
#
#######################################################################
#
# If this CIF has been generated from an entry in the Cambridge 
# Structural Database, then it will include bibliographic, chemical, 
# crystal, experimental, refinement or atomic coordinate data resulting 
# from the CCDC's data processing and validation procedures.
#
#######################################################################

data_WENPEK
_chemical_formula_moiety         'C26 H32 O7 Si1'
_chemical_name_systematic        
8-Acetoxy-1-t-butyldimethylsiloxy-12a-hydroxy-1,2,3,4,12a,12b-hexahydro-4a(H),5(H)-epoxybenz(a)anthracene-7(H),12(H)-dione
_symmetry_cell_setting           monoclinic
_symmetry_space_group_name_H-M   'P 21/n'
_symmetry_Int_Tables_number      14
_space_group_name_Hall           '-P 2yn'
loop_
_symmetry_equiv_pos_site_id
_symmetry_equiv_pos_as_xyz
1 x,y,z
2 1/2-x,1/2+y,1/2-z
3 -x,-y,-z
4 1/2+x,1/2-y,1/2+z
_cell_length_a                   10.252(6)
_cell_length_b                   19.089(12)
_cell_length_c                   13.111(7)
_cell_angle_alpha                90
_cell_angle_beta                 103.91(4)
_cell_angle_gamma                90
_cell_volume                     2490.58
_exptl_crystal_colour            'pale yellow'
_cell_formula_units_Z            4
loop_
_atom_site_label
_atom_site_type_symbol
_atom_site_fract_x
_atom_site_fract_y
_atom_site_fract_z
Si1 Si 0.0430(1) 0.3105(1) 0.0835(1)
O1 O 0.3347(3) 0.3387(2) -0.0667(2)
O2 O 0.5684(4) 0.3974(2) 0.3400(3)
O3 O 0.5246(4) 0.5351(2) 0.3020(3)
O4 O 0.7315(4) 0.5152(2) 0.2772(3)
O5 O 0.5870(3) 0.2925(2) 0.0404(3)
O6 O 0.6351(3) 0.1732(2) 0.1427(3)
O7 O 0.1908(3) 0.2794(2) 0.0757(3)
C1 C 0.2764(4) 0.2237(3) 0.1250(4)
C2 C 0.2078(5) 0.1518(3) 0.1094(4)
C3 C 0.3036(5) 0.0944(3) 0.1662(4)
C4 C 0.4346(5) 0.0936(3) 0.1284(4)
C5 C 0.4933(5) 0.1662(3) 0.1407(4)
C6 C 0.5897(5) 0.1875(3) 0.2390(4)
C7 C 0.5877(5) 0.2616(3) 0.2721(4)
C8 C 0.5300(4) 0.3128(3) 0.2053(4)
C9 C 0.5253(5) 0.3856(3) 0.2454(4)
C10 C 0.4620(4) 0.4418(3) 0.1706(4)
C11 C 0.4661(5) 0.5128(3) 0.2001(4)
C12 C 0.4075(5) 0.5642(3) 0.1298(4)
C13 C 0.3400(5) 0.5466(3) 0.0278(4)
C14 C 0.3333(4) 0.4768(3) -0.0033(4)
C15 C 0.3937(4) 0.4247(3) 0.0666(4)
C16 C 0.3903(4) 0.3517(3) 0.0246(4)
C17 C 0.4753(4) 0.2950(2) 0.0914(4)
C18 C 0.4026(4) 0.2230(2) 0.0816(4)
C19 C 0.6620(7) 0.5297(3) 0.3353(5)
C20 C 0.7036(6) 0.5455(3) 0.4505(4)
C21 C -0.0926(5) 0.2486(3) 0.0212(5)
C22 C 0.0233(6) 0.3919(3) 0.0038(5)
C23 C 0.0388(5) 0.3311(3) 0.2215(4)
C24 C 0.1606(6) 0.3752(4) 0.2749(5)
C25 C 0.0386(7) 0.2637(4) 0.2869(5)
C26 C -0.0896(6) 0.3730(3) 0.2245(5)
H1 H 0.3033 0.2332 0.1990
H2 H 0.1288 0.1528 0.1364
H3 H 0.1808 0.1413 0.0357
H4 H 0.3242 0.1026 0.2406
H5 H 0.2604 0.0496 0.1528
H6 H 0.4970 0.0610 0.1694
H7 H 0.4164 0.0795 0.0561
H8 H 0.6114 0.1531 0.2938
H9 H 0.6290 0.2737 0.3437
H10 H 0.4136 0.6124 0.1513
H11 H 0.2981 0.5823 -0.0206
H12 H 0.2868 0.4645 -0.0736
H13 H 0.3769 0.2103 0.0086
H14 H 0.7995 0.5417 0.4742
H15 H 0.6761 0.5921 0.4629
H16 H 0.6619 0.5126 0.4882
H17 H -0.0873 0.2393 -0.0496
H18 H -0.0823 0.2056 0.0603
H19 H -0.1784 0.2690 0.0206
H20 H 0.0255 0.3806 -0.0671
H21 H -0.0611 0.4136 0.0042
H22 H 0.0952 0.4236 0.0330
H23 H 0.1566 0.3853 0.3458
H24 H 0.2415 0.3497 0.2754
H25 H 0.1603 0.4183 0.2371
H26 H 0.0365 0.2761 0.3575
H27 H -0.0391 0.2361 0.2560
H28 H 0.1183 0.2370 0.2880
H29 H -0.0901 0.3832 0.2961
H30 H -0.0910 0.4160 0.1863
H31 H -0.1674 0.3456 0.1929
H32 H 0.6257 0.2550 0.0621
loop_
_geom_bond_atom_site_label_1
_geom_bond_atom_site_label_2
_geom_bond_site_symmetry_1
_geom_bond_site_symmetry_2
Si1 O7 1_555 1_555
O1 C16 1_555 1_555
O2 C9 1_555 1_555
O3 C11 1_555 1_555
O4 C19 1_555 1_555
O5 C17 1_555 1_555
O6 C5 1_555 1_555
O7 C1 1_555 1_555
C1 C2 1_555 1_555
C2 C3 1_555 1_555
C3 C4 1_555 1_555
C4 C5 1_555 1_555
C5 C6 1_555 1_555
C6 O6 1_555 1_555
C7 C6 1_555 1_555
C8 C7 1_555 1_555
C9 C8 1_555 1_555
C10 C9 1_555 1_555
C11 C10 1_555 1_555
C12 C11 1_555 1_555
C13 C12 1_555 1_555
C14 C13 1_555 1_555
C15 C10 1_555 1_555
C16 C15 1_555 1_555
C17 C8 1_555 1_555
C18 C1 1_555 1_555
C19 O3 1_555 1_555
C20 C19 1_555 1_555
C21 Si1 1_555 1_555
C22 Si1 1_555 1_555
C23 Si1 1_555 1_555
C24 C23 1_555 1_555
C25 C23 1_555 1_555
C26 C23 1_555 1_555
H1 C1 1_555 1_555
H2 C2 1_555 1_555
H3 C2 1_555 1_555
H4 C3 1_555 1_555
H5 C3 1_555 1_555
H6 C4 1_555 1_555
H7 C4 1_555 1_555
H8 C6 1_555 1_555
H9 C7 1_555 1_555
H10 C12 1_555 1_555
H11 C13 1_555 1_555
H12 C14 1_555 1_555
H13 C18 1_555 1_555
H14 C20 1_555 1_555
H15 C20 1_555 1_555
H16 C20 1_555 1_555
H17 C21 1_555 1_555
H18 C21 1_555 1_555
H19 C21 1_555 1_555
H20 C22 1_555 1_555
H21 C22 1_555 1_555
H22 C22 1_555 1_555
H23 C24 1_555 1_555
H24 C24 1_555 1_555
H25 C24 1_555 1_555
H26 C25 1_555 1_555
H27 C25 1_555 1_555
H28 C25 1_555 1_555
H29 C26 1_555 1_555
H30 C26 1_555 1_555
H31 C26 1_555 1_555
H32 O5 1_555 1_555
C5 C18 1_555 1_555
C14 C15 1_555 1_555
C16 C17 1_555 1_555
C17 C18 1_555 1_555

#END
