
#######################################################################
#
#                 Cambridge Crystallographic Data Centre
#                                CCDC 
#
#######################################################################
#
# If this CIF has been generated from an entry in the Cambridge 
# Structural Database, then it will include bibliographic, chemical, 
# crystal, experimental, refinement or atomic coordinate data resulting 
# from the CCDC's data processing and validation procedures.
#
#######################################################################

data_WENZUN
_chemical_formula_moiety         'C27 H21 Cl1 N4 O3'
_chemical_name_systematic        
'methyl (1-butyl-5-chloro-2-oxo-1,2-dihydro-3H-indol-3-ylidene)(2-(dicyanomethylene)quinolin-1(2H)-yl)acetate'
_symmetry_cell_setting           triclinic
_symmetry_space_group_name_H-M   'P -1'
_symmetry_Int_Tables_number      2
_space_group_name_Hall           '-P 1'
loop_
_symmetry_equiv_pos_site_id
_symmetry_equiv_pos_as_xyz
1 x,y,z
2 -x,-y,-z
_cell_length_a                   8.4330(7)
_cell_length_b                   16.6858(12)
_cell_length_c                   17.6088(13)
_cell_angle_alpha                82.983(2)
_cell_angle_beta                 79.778(3)
_cell_angle_gamma                82.758(3)
_cell_volume                     2406.31
_exptl_crystal_colour            red
_exptl_crystal_description       block
_cell_formula_units_Z            4
loop_
_atom_site_label
_atom_site_type_symbol
_atom_site_fract_x
_atom_site_fract_y
_atom_site_fract_z
C1 C 0.8060(4) 0.0910(2) 0.64340(16)
H1 H 0.9000 0.0680 0.6108
H2 H 0.7502 0.1342 0.6137
H3 H 0.7350 0.0499 0.6631
C2 C 0.8575(4) 0.12439(18) 0.71054(15)
H4 H 0.9243 0.1680 0.6904
H5 H 0.7619 0.1471 0.7435
C3 C 0.9493(3) 0.06166(16) 0.75771(15)
H6 H 1.0434 0.0383 0.7242
H7 H 0.8816 0.0186 0.7782
C4 C 1.0057(3) 0.09339(16) 0.82500(14)
H8 H 1.0873 0.0536 0.8442
H9 H 1.0558 0.1429 0.8062
C5 C 0.8090(3) 0.05049(14) 0.94488(14)
C6 C 0.8533(3) -0.03176(15) 0.94793(15)
H10 H 0.9317 -0.0540 0.9099
C7 C 0.7773(4) -0.08053(15) 1.00954(16)
H11 H 0.8054 -0.1364 1.0134
C8 C 0.6602(3) -0.04683(14) 1.06510(14)
C9 C 0.6154(3) 0.03576(14) 1.06207(13)
H12 H 0.5369 0.0576 1.1003
C10 C 0.6901(3) 0.08550(13) 1.00056(13)
C11 C 0.6810(3) 0.17357(13) 0.97938(12)
C12 C 0.8039(3) 0.18532(15) 0.90538(13)
C13 C 0.6005(3) 0.23601(13) 1.01568(13)
C14 C 0.4813(3) 0.23075(15) 1.08905(14)
C15 C 0.3804(4) 0.29134(17) 1.20399(15)
H13 H 0.2689 0.2979 1.1972
H14 H 0.4005 0.3347 1.2310
H15 H 0.4036 0.2403 1.2336
C16 C 0.5182(3) 0.36006(14) 0.93848(13)
C17 C 0.3907(4) 0.32304(16) 0.92320(15)
H16 H 0.3779 0.2695 0.9430
C18 C 0.2826(4) 0.36558(18) 0.87865(16)
H17 H 0.1963 0.3408 0.8692
C19 C 0.3016(4) 0.44484(19) 0.84799(16)
H18 H 0.2292 0.4729 0.8174
C20 C 0.4267(4) 0.48161(16) 0.86271(15)
H19 H 0.4383 0.5350 0.8422
C21 C 0.5380(3) 0.44061(14) 0.90808(13)
C22 C 0.6687(4) 0.47571(15) 0.92617(14)
H20 H 0.6830 0.5292 0.9070
C23 C 0.7728(3) 0.43487(14) 0.96993(14)
H21 H 0.8586 0.4601 0.9793
C24 C 0.7546(3) 0.35284(14) 1.00270(13)
C25 C 0.8598(3) 0.31326(15) 1.05170(14)
C26 C 0.8578(3) 0.23390(17) 1.09071(15)
C27 C 0.9821(4) 0.35555(18) 1.06963(16)
Cl1 Cl 0.56895(10) -0.11044(4) 1.14161(4)
N1 N 0.8737(2) 0.11017(12) 0.88914(11)
N2 N 0.6289(2) 0.31820(11) 0.98497(10)
N3 N 0.8642(3) 0.17069(15) 1.12492(14)
N4 N 1.0815(4) 0.38680(18) 1.08672(17)
O1 O 0.8368(2) 0.24896(10) 0.86711(9)
O2 O 0.3960(3) 0.17770(11) 1.10987(11)
O3 O 0.4833(2) 0.29298(9) 1.12907(9)
C28 C 1.1209(4) 0.7483(2) 0.70487(18)
H22 H 1.0653 0.7008 0.7218
H23 H 1.1918 0.7537 0.7406
H24 H 1.1833 0.7432 0.6542
C29 C 1.0004(4) 0.8214(2) 0.70193(16)
H25 H 1.0579 0.8694 0.6890
H26 H 0.9359 0.8251 0.7531
C30 C 0.8867(4) 0.82149(18) 0.64337(15)
H27 H 0.8433 0.7695 0.6504
H28 H 0.7966 0.8631 0.6535
C31 C 0.9689(3) 0.83664(15) 0.56087(14)
H29 H 1.0026 0.8909 0.5524
H30 H 1.0655 0.7985 0.5522
C32 C 0.7766(3) 0.89145(14) 0.46436(14)
C33 C 0.7562(3) 0.97282(15) 0.47496(16)
H31 H 0.7951 0.9916 0.5150
C34 C 0.6754(3) 1.02574(15) 0.42370(18)
H32 H 0.6597 1.0810 0.4292
C35 C 0.6189(3) 0.99711(14) 0.36520(17)
C36 C 0.6321(3) 0.91515(13) 0.35627(14)
H33 H 0.5892 0.8968 0.3172
C37 C 0.7113(3) 0.86117(12) 0.40728(13)
C38 C 0.7486(3) 0.77268(12) 0.41674(12)
C39 C 0.8604(3) 0.75691(14) 0.47627(14)
C40 C 0.6885(3) 0.71181(12) 0.39209(12)
C41 C 0.5685(3) 0.71969(14) 0.33785(13)
C42 C 0.3681(4) 0.65411(17) 0.29907(17)
H34 H 0.2660 0.6792 0.3234
H35 H 0.3575 0.5990 0.2921
H36 H 0.4006 0.6835 0.2495
C43 C 0.8578(3) 0.58585(13) 0.36927(13)
C44 C 0.9290(3) 0.62329(14) 0.29860(13)
H37 H 0.8984 0.6777 0.2840
C45 C 1.0446(3) 0.57922(16) 0.25069(15)
H38 H 1.0905 0.6038 0.2030
C46 C 1.0939(4) 0.49889(18) 0.27225(18)
H39 H 1.1733 0.4698 0.2395
C47 C 1.0256(4) 0.46248(16) 0.34170(18)
H40 H 1.0593 0.4083 0.3559
C48 C 0.9064(3) 0.50437(13) 0.39210(14)
C49 C 0.8327(3) 0.46943(14) 0.46509(16)
H41 H 0.8636 0.4154 0.4809
C50 C 0.7198(3) 0.51216(14) 0.51176(14)
H42 H 0.6757 0.4873 0.5597
C51 C 0.6648(3) 0.59520(13) 0.49003(13)
C52 C 0.5432(3) 0.63628(14) 0.53977(13)
C53 C 0.4591(3) 0.71384(17) 0.52392(14)
C54 C 0.4900(4) 0.59844(17) 0.61496(16)
Cl2 Cl 0.53206(11) 1.06565(4) 0.29749(5)
N5 N 0.8649(2) 0.82863(11) 0.50461(11)
N6 N 0.7365(2) 0.62864(10) 0.41965(10)
N7 N 0.3845(3) 0.77542(15) 0.51490(14)
N8 N 0.4493(4) 0.56902(17) 0.67617(15)
O4 O 0.9358(2) 0.69311(10) 0.49651(10)
O5 O 0.5475(2) 0.77660(11) 0.29174(11)
O6 O 0.4896(2) 0.65505(10) 0.34787(9)
loop_
_geom_bond_atom_site_label_1
_geom_bond_atom_site_label_2
_geom_bond_site_symmetry_1
_geom_bond_site_symmetry_2
C1 H1 1_555 1_555
H2 C1 1_555 1_555
H3 C1 1_555 1_555
C2 C1 1_555 1_555
H4 C2 1_555 1_555
H5 C2 1_555 1_555
C3 C2 1_555 1_555
H6 C3 1_555 1_555
H7 C3 1_555 1_555
C4 C3 1_555 1_555
H8 C4 1_555 1_555
H9 C4 1_555 1_555
C5 C6 1_555 1_555
C6 H10 1_555 1_555
C7 C6 1_555 1_555
H11 C7 1_555 1_555
C8 C7 1_555 1_555
C9 C8 1_555 1_555
H12 C9 1_555 1_555
C10 C5 1_555 1_555
C11 C10 1_555 1_555
C12 C11 1_555 1_555
C13 C11 1_555 1_555
C14 C13 1_555 1_555
C15 H13 1_555 1_555
H14 C15 1_555 1_555
H15 C15 1_555 1_555
C16 C17 1_555 1_555
C17 H16 1_555 1_555
C18 C17 1_555 1_555
H17 C18 1_555 1_555
C19 C18 1_555 1_555
H18 C19 1_555 1_555
C20 C19 1_555 1_555
H19 C20 1_555 1_555
C21 C16 1_555 1_555
C22 C21 1_555 1_555
H20 C22 1_555 1_555
C23 C22 1_555 1_555
H21 C23 1_555 1_555
C24 C23 1_555 1_555
C25 C24 1_555 1_555
C26 C25 1_555 1_555
C27 C25 1_555 1_555
Cl1 C8 1_555 1_555
N1 C4 1_555 1_555
N2 C13 1_555 1_555
N3 C26 1_555 1_555
N4 C27 1_555 1_555
O1 C12 1_555 1_555
O2 C14 1_555 1_555
O3 C14 1_555 1_555
C28 H22 1_555 1_555
H23 C28 1_555 1_555
H24 C28 1_555 1_555
C29 C28 1_555 1_555
H25 C29 1_555 1_555
H26 C29 1_555 1_555
C30 C29 1_555 1_555
H27 C30 1_555 1_555
H28 C30 1_555 1_555
C31 C30 1_555 1_555
H29 C31 1_555 1_555
H30 C31 1_555 1_555
C32 C33 1_555 1_555
C33 H31 1_555 1_555
C34 C33 1_555 1_555
H32 C34 1_555 1_555
C35 C34 1_555 1_555
C36 C35 1_555 1_555
H33 C36 1_555 1_555
C37 C32 1_555 1_555
C38 C37 1_555 1_555
C39 C38 1_555 1_555
C40 C38 1_555 1_555
C41 C40 1_555 1_555
C42 H34 1_555 1_555
H35 C42 1_555 1_555
H36 C42 1_555 1_555
C43 C44 1_555 1_555
C44 H37 1_555 1_555
C45 C44 1_555 1_555
H38 C45 1_555 1_555
C46 C45 1_555 1_555
H39 C46 1_555 1_555
C47 C46 1_555 1_555
H40 C47 1_555 1_555
C48 C43 1_555 1_555
C49 C48 1_555 1_555
H41 C49 1_555 1_555
C50 C49 1_555 1_555
H42 C50 1_555 1_555
C51 C50 1_555 1_555
C52 C51 1_555 1_555
C53 C52 1_555 1_555
C54 C52 1_555 1_555
Cl2 C35 1_555 1_555
N5 C31 1_555 1_555
N6 C40 1_555 1_555
N7 C53 1_555 1_555
N8 C54 1_555 1_555
O4 C39 1_555 1_555
O5 C41 1_555 1_555
O6 C41 1_555 1_555
C5 N1 1_555 1_555
C9 C10 1_555 1_555
C12 N1 1_555 1_555
C15 O3 1_555 1_555
C16 N2 1_555 1_555
C20 C21 1_555 1_555
C24 N2 1_555 1_555
C32 N5 1_555 1_555
C36 C37 1_555 1_555
C39 N5 1_555 1_555
C42 O6 1_555 1_555
C43 N6 1_555 1_555
C47 C48 1_555 1_555
C51 N6 1_555 1_555

#END
