
#######################################################################
#
#                 Cambridge Crystallographic Data Centre
#                                CCDC 
#
#######################################################################
#
# If this CIF has been generated from an entry in the Cambridge 
# Structural Database, then it will include bibliographic, chemical, 
# crystal, experimental, refinement or atomic coordinate data resulting 
# from the CCDC's data processing and validation procedures.
#
#######################################################################

data_WEPGEE
_chemical_formula_moiety         'C8 H7 Cl1 N2 O3'
_chemical_name_systematic        2-Chloro-N-(4-nitrophenyl)acetamide
_symmetry_cell_setting           orthorhombic
_symmetry_space_group_name_H-M   'P b c a'
_symmetry_Int_Tables_number      61
_space_group_name_Hall           '-P 2ac 2ab'
loop_
_symmetry_equiv_pos_site_id
_symmetry_equiv_pos_as_xyz
1 x,y,z
2 1/2-x,-y,1/2+z
3 -x,1/2+y,1/2-z
4 1/2+x,1/2-y,-z
5 -x,-y,-z
6 1/2+x,y,1/2-z
7 x,1/2-y,1/2+z
8 1/2-x,1/2+y,z
_cell_length_a                   9.498(2)
_cell_length_b                   9.457(2)
_cell_length_c                   20.205(5)
_cell_angle_alpha                90
_cell_angle_beta                 90
_cell_angle_gamma                90
_cell_volume                     1814.87
_exptl_crystal_colour            yellow
_exptl_crystal_description       needle
_cell_formula_units_Z            8
_exptl_crystal_recrystallization_method 'ethyl acetate'
loop_
_atom_site_label
_atom_site_type_symbol
_atom_site_fract_x
_atom_site_fract_y
_atom_site_fract_z
Cl1 Cl 1.32657(6) 1.19746(7) 1.33765(3)
O1 O 1.2755(2) 0.5198(2) 0.97622(10)
O2 O 1.0669(2) 0.58870(19) 0.94907(8)
O3 O 1.37564(15) 0.97586(19) 1.23889(8)
N1 N 1.1692(2) 0.5896(2) 0.98604(10)
N2 N 1.14915(16) 0.95372(18) 1.20522(8)
H1 H 1.0655 0.9836 1.2136
C1 C 1.2859(2) 0.7935(2) 1.13352(11)
H2 H 1.3680 0.8100 1.1574
C2 C 1.2870(2) 0.7024(2) 1.08015(11)
H3 H 1.3696 0.6561 1.0683
C3 C 1.1657(2) 0.6805(2) 1.04462(11)
C4 C 1.0413(2) 0.7455(2) 1.06172(11)
H4 H 0.9598 0.7289 1.0375
C5 C 1.0395(2) 0.8348(2) 1.11498(11)
H5 H 0.9559 0.8790 1.1270
C6 C 1.16101(19) 0.8605(2) 1.15143(9)
C7 C 1.2513(2) 1.0026(2) 1.24545(10)
C8 C 1.1944(2) 1.0932(2) 1.30082(11)
H6 H 1.1523 1.0328 1.3342
H7 H 1.1212 1.1545 1.2835
loop_
_geom_bond_atom_site_label_1
_geom_bond_atom_site_label_2
_geom_bond_site_symmetry_1
_geom_bond_site_symmetry_2
Cl1 C8 1_555 1_555
O1 N1 1_555 1_555
O2 N1 1_555 1_555
O3 C7 1_555 1_555
N1 C3 1_555 1_555
N2 H1 1_555 1_555
C1 H2 1_555 1_555
C2 C1 1_555 1_555
H3 C2 1_555 1_555
C3 C2 1_555 1_555
C4 C3 1_555 1_555
H4 C4 1_555 1_555
C5 C4 1_555 1_555
H5 C5 1_555 1_555
C6 N2 1_555 1_555
C7 N2 1_555 1_555
C8 C7 1_555 1_555
H6 C8 1_555 1_555
H7 C8 1_555 1_555
C1 C6 1_555 1_555
C5 C6 1_555 1_555

#END
