
#######################################################################
#
#                 Cambridge Crystallographic Data Centre
#                                CCDC 
#
#######################################################################
#
# If this CIF has been generated from an entry in the Cambridge 
# Structural Database, then it will include bibliographic, chemical, 
# crystal, experimental, refinement or atomic coordinate data resulting 
# from the CCDC's data processing and validation procedures.
#
#######################################################################

data_WEPROY
_chemical_formula_moiety         'C42 H46 O4 S4'
_chemical_name_systematic        
"Di-t-butyl 2,11,26,35-tetrathia(3.3)(2,6)benzeno(3,5) biphenylo(3.3)(3',5')(2,6)benzenophane-9,33-dicarboxylate"
_symmetry_cell_setting           monoclinic
_symmetry_space_group_name_H-M   'P 21/a'
_symmetry_Int_Tables_number      14
_space_group_name_Hall           '-P 2yab'
loop_
_symmetry_equiv_pos_site_id
_symmetry_equiv_pos_as_xyz
1 x,y,z
2 1/2-x,1/2+y,-z
3 -x,-y,-z
4 1/2+x,1/2-y,z
_cell_length_a                   16.948(2)
_cell_length_b                   13.276(3)
_cell_length_c                   18.648(2)
_cell_angle_alpha                90
_cell_angle_beta                 111.67(1)
_cell_angle_gamma                90
_cell_volume                     3899.29
_exptl_crystal_colour            colorless
_chemical_melting_point          'above 270deg.C(dec.)'
_cell_formula_units_Z            4
loop_
_atom_site_label
_atom_site_type_symbol
_atom_site_fract_x
_atom_site_fract_y
_atom_site_fract_z
S1 S 0.4084(1) 0.2736(2) 0.8598(1)
S2 S 0.6834(1) 0.1314(2) 0.6765(1)
S3 S 0.1378(1) 0.1741(2) 0.4778(1)
S4 S 0.2822(4) 0.4224(4) 0.2664(2)
O1 O 0.6585(4) 0.1662(4) 0.9240(3)
O2 O 0.6579(3) 0.0009(3) 0.9112(2)
O3 O 0.0904(6) 0.2832(8) 0.2892(5)
O4 O 0.1274(5) 0.2030(7) 0.1952(4)
C1 C 0.4857(6) 0.3544(6) 0.8467(4)
C2 C 0.4582(6) 0.1517(7) 0.8765(5)
C3 C 0.4768(4) 0.1111(5) 0.8081(4)
C4 C 0.4095(4) 0.0974(5) 0.7382(4)
C5 C 0.4239(5) 0.0668(5) 0.6741(4)
C6 C 0.5046(5) 0.0520(5) 0.6775(4)
C7 C 0.5726(4) 0.0630(4) 0.7457(4)
C8 C 0.5578(4) 0.0884(4) 0.8123(3)
C9 C 0.6631(4) 0.0555(5) 0.7472(4)
C10 C 0.6837(4) 0.2552(6) 0.7120(5)
C11 C 0.5985(4) 0.2960(5) 0.7086(5)
C12 C 0.5334(4) 0.3108(4) 0.6385(4)
C13 C 0.4534(4) 0.3438(4) 0.6333(4)
C14 C 0.4397(4) 0.3579(5) 0.7019(4)
C15 C 0.5040(5) 0.3428(5) 0.7727(4)
C16 C 0.5828(5) 0.3140(5) 0.7750(5)
C17 C 0.3844(4) 0.3576(4) 0.5573(3)
C18 C 0.4013(4) 0.3962(4) 0.4950(4)
C19 C 0.3375(5) 0.4091(5) 0.4248(4)
C20 C 0.2546(4) 0.3833(5) 0.4153(4)
C21 C 0.2376(4) 0.3412(4) 0.4754(4)
C22 C 0.3022(4) 0.3293(4) 0.5464(4)
C23 C 0.1472(4) 0.3066(5) 0.4615(5)
C24 C 0.1492(4) 0.1144(5) 0.3957(4)
C25 C 0.2303(6) 0.137(1) 0.3837(7)
C26 C 0.3053(9) 0.098(2) 0.434(1)
C27 C 0.3810(9) 0.128(2) 0.431(1)
C28 C 0.3802(8) 0.191(2) 0.372(1)
C29 C 0.3043(7) 0.223(1) 0.3171(8)
C30 C 0.2282(6) 0.1995(8) 0.3247(6)
C31 C 0.3064(9) 0.2958(9) 0.2557(7)
C32 C 0.3589(6) 0.4486(7) 0.3572(4)
C33 C 0.6318(4) 0.0912(5) 0.8888(4)
C34 C 0.7315(5) -0.0192(6) 0.9815(4)
C35 C 0.8095(5) 0.0249(8) 0.9757(6)
C36 C 0.7172(7) 0.018(1) 1.0500(5)
C37 C 0.7372(7) -0.1316(7) 0.9834(6)
C38 C 0.1425(9) 0.231(2) 0.2691(6)
C39 C 0.0485(6) 0.2303(9) 0.1341(5)
C40 C 0.054(1) 0.183(2) 0.0623(7)
C41 C -0.028(1) 0.185(2) 0.148(1)
C42 C 0.039(1) 0.345(1) 0.125(1)
H1 H 0.5403 0.3430 0.8911
H2 H 0.4663 0.4252 0.8481
H3 H 0.5131 0.1568 0.9217
H4 H 0.4198 0.1032 0.8886
H5 H 0.3500 0.1098 0.7349
H6 H 0.3749 0.0555 0.6245
H7 H 0.5146 0.0327 0.6297
H8 H 0.7030 0.0770 0.7995
H9 H 0.6744 -0.0164 0.7382
H10 H 0.7233 0.2560 0.7673
H11 H 0.7056 0.3014 0.6813
H12 H 0.5439 0.2978 0.5900
H13 H 0.3823 0.3794 0.6997
H14 H 0.6300 0.3059 0.8262
H15 H 0.4608 0.4146 0.5016
H16 H 0.2073 0.3954 0.3646
H17 H 0.2894 0.2996 0.5903
H18 H 0.1260 0.3453 0.4967
H19 H 0.1110 0.3220 0.4067
H20 H 0.1462 0.0399 0.4022
H21 H 0.1008 0.1364 0.3485
H22 H 0.4351 0.2120 0.3680
H23 H 0.3654 0.2945 0.2557
H24 H 0.2657 0.2715 0.2047
H25 H 0.3660 0.5233 0.3626
H26 H 0.4136 0.4171 0.3601
H27 H 0.8591 0.0106 1.0241
H28 H 0.8022 0.0994 0.9681
H29 H 0.8195 -0.0056 0.9307
H30 H 0.7681 0.0040 1.0972
H31 H 0.7071 0.0920 1.0453
H32 H 0.6666 -0.0160 1.0542
H33 H 0.7864 -0.1535 1.0300
H34 H 0.6836 -0.1609 0.9851
H35 H 0.7455 -0.1555 0.9358
H36 H 0.0020 0.1990 0.0171
H37 H 0.1050 0.2110 0.0533
H38 H 0.0600 0.1085 0.0689
H39 H -0.0820 0.2050 0.1050
H40 H -0.0290 0.2110 0.1980
H41 H -0.0230 0.1100 0.1500
H42 H -0.0160 0.3620 0.0830
H43 H 0.0400 0.3750 0.1750
H44 H 0.0870 0.3730 0.1130
S5? S 0.3324(7) 0.3738(6) 0.2674(4)
O5? O 0.1937(8) 0.145(1) 0.1921(5)
O6? O 0.1218(8) 0.246(1) 0.2494(5)
C43? C 0.2381(6) 0.122(2) 0.3907(7)
C44? C 0.3056(8) 0.098(2) 0.4575(9)
C45? C 0.3883(9) 0.111(2) 0.463(1)
C46? C 0.4049(8) 0.162(2) 0.406(1)
C47? C 0.3393(7) 0.187(2) 0.3380(9)
C48? C 0.2552(6) 0.1635(9) 0.3278(5)
C49? C 0.359(1) 0.2442(9) 0.276(1)
C50? C 0.1872(6) 0.1834(9) 0.2508(5)
C51? C 0.0490(6) 0.2604(8) 0.1793(6)
C52? C 0.073(1) 0.318(2) 0.120(1)
C53? C -0.0102(9) 0.324(1) 0.2051(6)
C54? C 0.007(1) 0.159(1) 0.146(1)
H45? H 0.3054 0.0610 0.4810
H46? H 0.4354 0.0980 0.4670
H47? H 0.2945 0.0550 0.4970
H48? H 0.4359 0.0920 0.5120
H49? H 0.4647 0.1800 0.4130
H50? H 0.4220 0.2388 0.2880
H51? H 0.3270 0.2108 0.2260
H52? H 0.0220 0.3270 0.0720
H53? H 0.0970 0.3850 0.1400
H54? H 0.1170 0.2780 0.1080
H55? H -0.0635 0.3380 0.1598
H56? H 0.0181 0.3890 0.2270
H57? H -0.0242 0.2860 0.2454
H58? H -0.0430 0.1720 0.0970
H59? H -0.0120 0.1250 0.1850
H60? H 0.0490 0.1160 0.1340
loop_
_geom_bond_atom_site_label_1
_geom_bond_atom_site_label_2
_geom_bond_site_symmetry_1
_geom_bond_site_symmetry_2
S1 C1 1_555 1_555
S2 C9 1_555 1_555
S3 C23 1_555 1_555
S4 C31 1_555 1_555
O1 C33 1_555 1_555
O2 C33 1_555 1_555
O3 C38 1_555 1_555
O4 C38 1_555 1_555
C1 C15 1_555 1_555
C2 S1 1_555 1_555
C3 C2 1_555 1_555
C4 C3 1_555 1_555
C5 C4 1_555 1_555
C6 C5 1_555 1_555
C7 C6 1_555 1_555
C8 C3 1_555 1_555
C9 C7 1_555 1_555
C10 S2 1_555 1_555
C11 C10 1_555 1_555
C12 C11 1_555 1_555
C13 C12 1_555 1_555
C14 C13 1_555 1_555
C15 C14 1_555 1_555
C16 C11 1_555 1_555
C17 C13 1_555 1_555
C18 C17 1_555 1_555
C19 C18 1_555 1_555
C20 C19 1_555 1_555
C21 C20 1_555 1_555
C22 C17 1_555 1_555
C23 C21 1_555 1_555
C24 S3 1_555 1_555
C25 C24 1_555 1_555
C26 C25 1_555 1_555
C27 C26 1_555 1_555
C28 C27 1_555 1_555
C29 C28 1_555 1_555
C30 C25 1_555 1_555
C31 C29 1_555 1_555
C32 S4 1_555 1_555
C33 C8 1_555 1_555
C34 O2 1_555 1_555
C35 C34 1_555 1_555
C36 C34 1_555 1_555
C37 C34 1_555 1_555
C38 C30 1_555 1_555
C39 O4 1_555 1_555
C40 C39 1_555 1_555
C41 C39 1_555 1_555
C42 C39 1_555 1_555
H1 C1 1_555 1_555
H2 C1 1_555 1_555
H3 C2 1_555 1_555
H4 C2 1_555 1_555
H5 C4 1_555 1_555
H6 C5 1_555 1_555
H7 C6 1_555 1_555
H8 C9 1_555 1_555
H9 C9 1_555 1_555
H10 C10 1_555 1_555
H11 C10 1_555 1_555
H12 C12 1_555 1_555
H13 C14 1_555 1_555
H14 C16 1_555 1_555
H15 C18 1_555 1_555
H16 C20 1_555 1_555
H17 C22 1_555 1_555
H18 C23 1_555 1_555
H19 C23 1_555 1_555
H20 C24 1_555 1_555
H21 C24 1_555 1_555
H22 C28 1_555 1_555
H23 C31 1_555 1_555
H24 C31 1_555 1_555
H25 C32 1_555 1_555
H26 C32 1_555 1_555
H27 C35 1_555 1_555
H28 C35 1_555 1_555
H29 C35 1_555 1_555
H30 C36 1_555 1_555
H31 C36 1_555 1_555
H32 C36 1_555 1_555
H33 C37 1_555 1_555
H34 C37 1_555 1_555
H35 C37 1_555 1_555
H36 C40 1_555 1_555
H37 C40 1_555 1_555
H38 C40 1_555 1_555
H39 C41 1_555 1_555
H40 C41 1_555 1_555
H41 C41 1_555 1_555
H42 C42 1_555 1_555
H43 C42 1_555 1_555
H44 C42 1_555 1_555
C7 C8 1_555 1_555
C15 C16 1_555 1_555
C19 C32 1_555 1_555
C21 C22 1_555 1_555
C29 C30 1_555 1_555

#END
