
#######################################################################
#
#                 Cambridge Crystallographic Data Centre
#                                CCDC 
#
#######################################################################
#
# If this CIF has been generated from an entry in the Cambridge 
# Structural Database, then it will include bibliographic, chemical, 
# crystal, experimental, refinement or atomic coordinate data resulting 
# from the CCDC's data processing and validation procedures.
#
#######################################################################

data_WEPVUI
_chemical_formula_moiety         'C22 H33 N3 O6,H2 O1'
_chemical_name_systematic        
'N-Benzyloxycarbonyl-D-\a-methyl-leucyl-D-alanyl-D-alanine methyl ester monohydrate'
_symmetry_cell_setting           monoclinic
_symmetry_space_group_name_H-M   'P 21'
_symmetry_Int_Tables_number      4
_space_group_name_Hall           'P 2yb'
loop_
_symmetry_equiv_pos_site_id
_symmetry_equiv_pos_as_xyz
1 x,y,z
2 -x,1/2+y,-z
_cell_length_a                   7.034(1)
_cell_length_b                   22.071(3)
_cell_length_c                   8.653(1)
_cell_angle_alpha                90
_cell_angle_beta                 111.38(1)
_cell_angle_gamma                90
_cell_volume                     1250.91
_exptl_crystal_colour            colorless
_chemical_melting_point          72-74deg.C
_cell_formula_units_Z            2
loop_
_atom_site_label
_atom_site_type_symbol
_atom_site_fract_x
_atom_site_fract_y
_atom_site_fract_z
C1 C 0.344(2) 1.2641(5) 0.292(2)
C2 C 0.540(2) 1.2485(5) 0.301(2)
C3 C 0.624(2) 1.1927(5) 0.368(2)
C4 C 0.512(2) 1.1526(5) 0.425(2)
C5 C 0.316(2) 1.1683(5) 0.417(2)
C6 C 0.232(2) 1.2240(5) 0.350(2)
C7 C 0.577(2) 1.0888(5) 0.496(1)
O1 O 0.629(2) 1.0545(5) 0.3761(8)
C8 C 0.826(2) 1.0338(4) 0.4105(8)
O2 O 0.978(1) 1.0560(3) 0.5083(8)
N1 N 0.8195(7) 0.9819(3) 0.3306(6)
C9 C 1.0021(8) 0.9535(4) 0.3153(6)
C10 C 1.093(2) 0.9952(7) 0.217(1)
C11 C 0.938(1) 0.8932(4) 0.2185(8)
C12 C 0.868(2) 0.8399(4) 0.302(1)
C13 C 0.665(2) 0.8479(8) 0.326(2)
C14 C 0.819(7) 0.788(1) 0.193(4)
C15 C 1.1655(8) 0.9399(3) 0.4838(6)
O3 O 1.3425(7) 0.9330(4) 0.4944(6)
N2 N 1.1068(6) 0.931 0.6133(5)
C16 C 1.2499(8) 0.9120(3) 0.7745(7)
C17 C 1.151(1) 0.8671(4) 0.8522(8)
C18 C 1.3415(8) 0.9646(3) 0.8926(6)
O4 O 1.4636(8) 0.9539(3) 1.0332(5)
N3 N 1.2800(7) 1.0198(3) 0.8381(5)
C19 C 1.3472(8) 1.0731(3) 0.9430(7)
C20 C 1.175(1) 1.1185(4) 0.912(1)
C21 C 1.532(1) 1.0997(4) 0.9218(9)
O5 O 1.6528(9) 1.0741(3) 0.8763(9)
O6 O 1.560(1) 1.1573(4) 0.970(1)
C22 C 1.728(2) 1.1887(7) 0.952(4)
H1 H 1.22(1) 0.977(4) 0.20(1)
H2 H 0.95(1) 1.002(5) 0.10(1)
H3 H 1.15(1) 1.026(5) 0.28(1)
H4 H 1.06(1) 0.885(5) 0.18(1)
H5 H 0.81(2) 0.909(4) 0.09(1)
H6 H 1.03(2) 0.843(5) 0.42(1)
H7 H 0.53(1) 0.854(5) 0.21(1)
H8 H 0.61(1) 0.809(5) 0.38(1)
H9 H 0.96(1) 0.792(4) 0.17(1)
H10 H 0.82(1) 0.747(4) 0.22(1)
H11 H 0.67(1) 0.805(5) 0.06(1)
H12 H 1.39(2) 0.886(4) 0.76(1)
H13 H 1.26(1) 0.861(4) 0.96(1)
H14 H 1.03(2) 0.887(5) 0.85(1)
H15 H 1.11(2) 0.832(5) 0.79(1)
H16 H 1.40(1) 1.057(5) 1.08(1)
H17 H 1.21(2) 1.146(4) 0.98(1)
H18 H 1.14(1) 1.132(5) 0.80(1)
H19 H 1.06(1) 1.102(5) 0.93(1)
H20 H 1.71(2) 1.232(4) 0.98(1)
H21 H 1.92(1) 1.184(5) 1.04(1)
H22 H 1.76(1) 1.178(5) 0.87(1)
H23 H 0.68(1) 0.973(5) 0.24(1)
H24 H 0.96(2) 0.938(5) 0.60(1)
H25 H 1.17(1) 1.030(5) 0.72(1)
O7 O 0.7402(8) 0.9614(4) 0.7003(8)
H26 H 0.59(1) 0.948(3) 0.630(9)
H27 H 0.77(1) 0.997(3) 0.78(1)
H28? H 0.45(1) 1.058 0.55(1)
H29? H 0.69(2) 0.891(5) 0.44(1)
loop_
_geom_bond_atom_site_label_1
_geom_bond_atom_site_label_2
_geom_bond_site_symmetry_1
_geom_bond_site_symmetry_2
C1 C2 1_555 1_555
C2 C3 1_555 1_555
C3 C4 1_555 1_555
C4 C5 1_555 1_555
C5 C6 1_555 1_555
C6 C1 1_555 1_555
C7 C4 1_555 1_555
O1 C7 1_555 1_555
C8 O1 1_555 1_555
O2 C8 1_555 1_555
N1 C8 1_555 1_555
C9 N1 1_555 1_555
C10 C9 1_555 1_555
C11 C9 1_555 1_555
C12 C11 1_555 1_555
C13 C12 1_555 1_555
C14 C12 1_555 1_555
C15 C9 1_555 1_555
O3 C15 1_555 1_555
N2 C15 1_555 1_555
C16 N2 1_555 1_555
C17 C16 1_555 1_555
C18 C16 1_555 1_555
O4 C18 1_555 1_555
N3 C18 1_555 1_555
C19 N3 1_555 1_555
C20 C19 1_555 1_555
C21 C19 1_555 1_555
O5 C21 1_555 1_555
O6 C21 1_555 1_555
C22 O6 1_555 1_555
H1 C10 1_555 1_555
H2 C10 1_555 1_555
H3 C10 1_555 1_555
H4 C11 1_555 1_555
H5 C11 1_555 1_555
H6 C12 1_555 1_555
H7 C13 1_555 1_555
H8 C13 1_555 1_555
H9 C14 1_555 1_555
H10 C14 1_555 1_555
H11 C14 1_555 1_555
H12 C16 1_555 1_555
H13 C17 1_555 1_555
H14 C17 1_555 1_555
H15 C17 1_555 1_555
H16 C19 1_555 1_555
H17 C20 1_555 1_555
H18 C20 1_555 1_555
H19 C20 1_555 1_555
H20 C22 1_555 1_555
H21 C22 1_555 1_555
H22 C22 1_555 1_555
H23 N1 1_555 1_555
H24 N2 1_555 1_555
H25 N3 1_555 1_555
O7 H26 1_555 1_555
H27 O7 1_555 1_555

#END
