
#######################################################################
#
#                 Cambridge Crystallographic Data Centre
#                                CCDC 
#
#######################################################################
#
# If this CIF has been generated from an entry in the Cambridge 
# Structural Database, then it will include bibliographic, chemical, 
# crystal, experimental, refinement or atomic coordinate data resulting 
# from the CCDC's data processing and validation procedures.
#
#######################################################################

data_WEQCOM
_chemical_formula_moiety         'C42 H68 Ca1 N2 O4,2(C4 H8 O1)'
_chemical_name_systematic        
"bis(N,N'-bis(2,6-Di-isopropylphenyl)ethene-1,2-diamine)-tetrakis(tetrahydrofuran)-calcium tetrahydrofuran solvate"
_symmetry_cell_setting           monoclinic
_symmetry_space_group_name_H-M   'P 21/n'
_symmetry_Int_Tables_number      14
_space_group_name_Hall           '-P 2yn'
loop_
_symmetry_equiv_pos_site_id
_symmetry_equiv_pos_as_xyz
1 x,y,z
2 1/2-x,1/2+y,1/2-z
3 -x,-y,-z
4 1/2+x,1/2-y,1/2+z
_cell_length_a                   9.9117(6)
_cell_length_b                   30.9715(19)
_cell_length_c                   16.2712(10)
_cell_angle_alpha                90
_cell_angle_beta                 99.9010(10)
_cell_angle_gamma                90
_cell_volume                     4920.54
_exptl_crystal_colour            orange
_exptl_crystal_description       lath
_cell_formula_units_Z            4
loop_
_atom_site_label
_atom_site_type_symbol
_atom_site_fract_x
_atom_site_fract_y
_atom_site_fract_z
Ca1 Ca 0.37220(5) 0.149046(18) 0.25158(3)
O1 O 0.3718(2) 0.19109(7) 0.37541(13)
O2 O 0.5068(2) 0.10218(7) 0.36114(14)
O3 O 0.59358(19) 0.18260(7) 0.24934(13)
O4 O 0.4610(2) 0.09815(7) 0.16338(13)
N1 N 0.2556(2) 0.19987(7) 0.15688(14)
N2 N 0.1500(2) 0.12116(7) 0.22882(14)
C1 C 0.1246(3) 0.19590(9) 0.17674(16)
H1 H 0.0661 0.2204 0.1692
C2 C 0.0761(3) 0.15912(9) 0.20622(17)
H2 H -0.0176 0.1591 0.2121
C3 C 0.2836(3) 0.23773(9) 0.11698(17)
C4 C 0.3397(3) 0.23368(9) 0.04175(17)
C5 C 0.3760(3) 0.27026(10) 0.00202(18)
H3 H 0.4172 0.2670 -0.0462
C6 C 0.3543(3) 0.31159(10) 0.03037(19)
H4 H 0.3769 0.3363 0.0010
C7 C 0.2990(3) 0.31579(10) 0.10225(19)
H5 H 0.2824 0.3439 0.1216
C8 C 0.2669(3) 0.28016(9) 0.14736(17)
C9 C 0.3490(3) 0.18895(10) 0.00484(18)
H6 H 0.3710 0.1682 0.0523
C10 C 0.2092(3) 0.17635(10) -0.0448(2)
H7 H 0.1404 0.1773 -0.0082
H8 H 0.2140 0.1471 -0.0670
H9 H 0.1837 0.1966 -0.0911
C11 C 0.4596(3) 0.18409(11) -0.0495(2)
H10 H 0.5486 0.1926 -0.0174
H11 H 0.4375 0.2027 -0.0988
H12 H 0.4636 0.1539 -0.0673
C12 C 0.2258(3) 0.28819(9) 0.23219(18)
H13 H 0.2240 0.2597 0.2608
C13 C 0.3289(4) 0.31692(11) 0.2872(2)
H14 H 0.3053 0.3186 0.3432
H15 H 0.3269 0.3459 0.2629
H16 H 0.4210 0.3047 0.2909
C14 C 0.0833(3) 0.30826(10) 0.2246(2)
H17 H 0.0614 0.3128 0.2805
H18 H 0.0155 0.2888 0.1930
H19 H 0.0817 0.3360 0.1956
C15 C 0.0684(3) 0.08398(9) 0.21831(18)
C16 C -0.0059(3) 0.07170(9) 0.13926(19)
C17 C -0.0900(3) 0.03535(10) 0.1324(2)
H20 H -0.1407 0.0278 0.0794
C18 C -0.1012(3) 0.01004(10) 0.2010(2)
H21 H -0.1596 -0.0145 0.1954
C19 C -0.0266(3) 0.02094(10) 0.2775(2)
H22 H -0.0331 0.0034 0.3246
C20 C 0.0582(3) 0.05716(9) 0.28762(19)
C21 C 0.0074(3) 0.09651(10) 0.06048(19)
H23 H 0.0862 0.1169 0.0744
C22 C 0.0384(4) 0.06622(12) -0.0083(2)
H24 H 0.1210 0.0494 0.0126
H25 H 0.0531 0.0833 -0.0567
H26 H -0.0391 0.0466 -0.0247
C23 C -0.1206(4) 0.12315(11) 0.0272(2)
H27 H -0.1405 0.1427 0.0710
H28 H -0.1986 0.1037 0.0105
H29 H -0.1047 0.1401 -0.0211
C24 C 0.1272(3) 0.07096(10) 0.37447(19)
H30 H 0.2089 0.0888 0.3680
C25 C 0.1774(5) 0.03376(12) 0.4330(2)
H31 H 0.2346 0.0144 0.4059
H32 H 0.0986 0.0177 0.4462
H33 H 0.2313 0.0452 0.4846
C26 C 0.0306(4) 0.09972(12) 0.4131(2)
H34 H 0.0019 0.1242 0.3759
H35 H 0.0777 0.1105 0.4671
H36 H -0.0501 0.0830 0.4212
C27 C 0.2504(3) 0.19239(12) 0.4124(2)
H37 H 0.2489 0.1680 0.4514
H38 H 0.1673 0.1910 0.3689
C28 C 0.2573(4) 0.23472(11) 0.4581(2)
H39 H 0.2071 0.2334 0.5056
H40 H 0.2197 0.2585 0.4204
C29 C 0.4093(4) 0.24005(12) 0.4876(2)
H41 H 0.4336 0.2708 0.4979
H42 H 0.4402 0.2234 0.5393
C30 C 0.4706(3) 0.22260(11) 0.4167(2)
H43 H 0.4850 0.2460 0.3777
H44 H 0.5598 0.2086 0.4375
C31 C 0.5881(6) 0.06622(15) 0.3431(3)
H45 H 0.6744 0.0764 0.3268
H46 H 0.5374 0.0488 0.2969
C32 C 0.6174(6) 0.04013(15) 0.4209(3)
H47 H 0.5439 0.0187 0.4233
H48 H 0.7060 0.0248 0.4251
C33 C 0.6221(6) 0.07263(16) 0.4868(3)
H49 H 0.7144 0.0857 0.5003
H50 H 0.5981 0.0597 0.5380
C34 C 0.5174(4) 0.10575(14) 0.4505(2)
H51 H 0.4280 0.0997 0.4675
H52 H 0.5475 0.1351 0.4696
C35 C 0.6021(3) 0.21569(11) 0.1865(2)
H53 H 0.5494 0.2417 0.1971
H54 H 0.5654 0.2047 0.1299
C36 C 0.7518(3) 0.22619(10) 0.1942(2)
H55 H 0.7658 0.2567 0.1797
H56 H 0.7970 0.2072 0.1581
C37 C 0.8048(3) 0.21770(11) 0.2851(2)
H57 H 0.7821 0.2416 0.3207
H58 H 0.9050 0.2129 0.2958
C38 C 0.7276(3) 0.17712(11) 0.2984(2)
H59 H 0.7735 0.1515 0.2794
H60 H 0.7216 0.1735 0.3581
C39 C 0.3679(4) 0.06423(14) 0.1292(3)
H61 H 0.2716 0.0742 0.1220
H62 H 0.3788 0.0385 0.1658
C40 C 0.4089(4) 0.05412(17) 0.0446(3)
H63 H 0.3827 0.0244 0.0261
H64 H 0.3672 0.0748 0.0011
C41 C 0.5552(4) 0.05905(16) 0.0636(3)
H65 H 0.5928 0.0655 0.0124
H66 H 0.5987 0.0323 0.0890
C42 C 0.5807(3) 0.09602(11) 0.1240(2)
H67 H 0.6640 0.0908 0.1660
H68 H 0.5926 0.1233 0.0944
O5 O 0.2482(3) 0.10818(8) 0.61401(16)
C43 C 0.2253(4) 0.15197(12) 0.6333(2)
H69 H 0.1471 0.1638 0.5937
H70 H 0.3076 0.1695 0.6299
C44 C 0.1951(5) 0.15272(14) 0.7194(3)
H71 H 0.2788 0.1591 0.7603
H72 H 0.1247 0.1747 0.7249
C45 C 0.1440(6) 0.10882(16) 0.7326(4)
H73 H 0.0470 0.1098 0.7401
H74 H 0.1990 0.0953 0.7826
C46 C 0.1586(6) 0.08376(16) 0.6547(3)
H75 H 0.1973 0.0547 0.6695
H76 H 0.0685 0.0803 0.6182
O6 O 0.6674(5) 0.04339(18) 0.8700(3)
C47 C 0.7657(8) 0.0423(3) 0.8164(5)
H77 H 0.8163 0.0146 0.8232
H78 H 0.8323 0.0661 0.8306
C48 C 0.6955(12) 0.0469(5) 0.7298(7)
H79 H 0.7022 0.0199 0.6982
H80 H 0.7362 0.0708 0.7017
C49 C 0.5430(10) 0.0571(3) 0.7354(6)
H81 H 0.5071 0.0817 0.6995
H82 H 0.4831 0.0316 0.7213
C50 C 0.5606(10) 0.0684(3) 0.8280(6)
H83 H 0.5822 0.0995 0.8363
H84 H 0.4750 0.0622 0.8494
C51? C 0.6786(11) 0.0657(4) 0.8259(7)
C52? C 0.7267(17) 0.0481(7) 0.7489(11)
C53? C 0.4948(19) 0.0530(7) 0.7122(11)
C54? C 0.5214(12) 0.0684(4) 0.7978(9)
H85? H 0.7185 0.0945 0.8412
H86? H 0.7028 0.0459 0.8739
H87? H 0.7582 0.0719 0.7160
H88? H 0.8029 0.0274 0.7646
H89? H 0.4096 0.0356 0.7018
H90? H 0.4850 0.0775 0.6727
H91? H 0.4738 0.0502 0.8337
H92? H 0.4894 0.0986 0.8008
O7? O 0.6096(8) 0.0271(2) 0.7025(5)
loop_
_geom_bond_atom_site_label_1
_geom_bond_atom_site_label_2
_geom_bond_site_symmetry_1
_geom_bond_site_symmetry_2
Ca1 O1 1_555 1_555
O1 C27 1_555 1_555
O2 Ca1 1_555 1_555
O3 Ca1 1_555 1_555
O4 Ca1 1_555 1_555
N1 Ca1 1_555 1_555
N2 Ca1 1_555 1_555
C1 N1 1_555 1_555
H1 C1 1_555 1_555
C2 N2 1_555 1_555
H2 C2 1_555 1_555
C3 N1 1_555 1_555
C4 C3 1_555 1_555
C5 C4 1_555 1_555
H3 C5 1_555 1_555
C6 C5 1_555 1_555
H4 C6 1_555 1_555
C7 C6 1_555 1_555
H5 C7 1_555 1_555
C8 C3 1_555 1_555
C9 C4 1_555 1_555
H6 C9 1_555 1_555
C10 C9 1_555 1_555
H7 C10 1_555 1_555
H8 C10 1_555 1_555
H9 C10 1_555 1_555
C11 C9 1_555 1_555
H10 C11 1_555 1_555
H11 C11 1_555 1_555
H12 C11 1_555 1_555
C12 C8 1_555 1_555
H13 C12 1_555 1_555
C13 C12 1_555 1_555
H14 C13 1_555 1_555
H15 C13 1_555 1_555
H16 C13 1_555 1_555
C14 C12 1_555 1_555
H17 C14 1_555 1_555
H18 C14 1_555 1_555
H19 C14 1_555 1_555
C15 N2 1_555 1_555
C16 C15 1_555 1_555
C17 C16 1_555 1_555
H20 C17 1_555 1_555
C18 C17 1_555 1_555
H21 C18 1_555 1_555
C19 C18 1_555 1_555
H22 C19 1_555 1_555
C20 C15 1_555 1_555
C21 C16 1_555 1_555
H23 C21 1_555 1_555
C22 C21 1_555 1_555
H24 C22 1_555 1_555
H25 C22 1_555 1_555
H26 C22 1_555 1_555
C23 C21 1_555 1_555
H27 C23 1_555 1_555
H28 C23 1_555 1_555
H29 C23 1_555 1_555
C24 C20 1_555 1_555
H30 C24 1_555 1_555
C25 C24 1_555 1_555
H31 C25 1_555 1_555
H32 C25 1_555 1_555
H33 C25 1_555 1_555
C26 C24 1_555 1_555
H34 C26 1_555 1_555
H35 C26 1_555 1_555
H36 C26 1_555 1_555
C27 H37 1_555 1_555
H38 C27 1_555 1_555
C28 C27 1_555 1_555
H39 C28 1_555 1_555
H40 C28 1_555 1_555
C29 C28 1_555 1_555
H41 C29 1_555 1_555
H42 C29 1_555 1_555
C30 O1 1_555 1_555
H43 C30 1_555 1_555
H44 C30 1_555 1_555
C31 O2 1_555 1_555
H45 C31 1_555 1_555
H46 C31 1_555 1_555
C32 C31 1_555 1_555
H47 C32 1_555 1_555
H48 C32 1_555 1_555
C33 C32 1_555 1_555
H49 C33 1_555 1_555
H50 C33 1_555 1_555
C34 O2 1_555 1_555
H51 C34 1_555 1_555
H52 C34 1_555 1_555
C35 O3 1_555 1_555
H53 C35 1_555 1_555
H54 C35 1_555 1_555
C36 C35 1_555 1_555
H55 C36 1_555 1_555
H56 C36 1_555 1_555
C37 C36 1_555 1_555
H57 C37 1_555 1_555
H58 C37 1_555 1_555
C38 O3 1_555 1_555
H59 C38 1_555 1_555
H60 C38 1_555 1_555
C39 O4 1_555 1_555
H61 C39 1_555 1_555
H62 C39 1_555 1_555
C40 C39 1_555 1_555
H63 C40 1_555 1_555
H64 C40 1_555 1_555
C41 C40 1_555 1_555
H65 C41 1_555 1_555
H66 C41 1_555 1_555
C42 O4 1_555 1_555
H67 C42 1_555 1_555
H68 C42 1_555 1_555
O5 C43 1_555 1_555
C43 H69 1_555 1_555
H70 C43 1_555 1_555
C44 C43 1_555 1_555
H71 C44 1_555 1_555
H72 C44 1_555 1_555
C45 C44 1_555 1_555
H73 C45 1_555 1_555
H74 C45 1_555 1_555
C46 O5 1_555 1_555
H75 C46 1_555 1_555
H76 C46 1_555 1_555
O6 C47 1_555 1_555
C47 H77 1_555 1_555
H78 C47 1_555 1_555
C48 C47 1_555 1_555
H79 C48 1_555 1_555
H80 C48 1_555 1_555
C49 C48 1_555 1_555
H81 C49 1_555 1_555
H82 C49 1_555 1_555
C50 O6 1_555 1_555
H83 C50 1_555 1_555
H84 C50 1_555 1_555
C1 C2 1_555 1_555
C7 C8 1_555 1_555
C19 C20 1_555 1_555
C29 C30 1_555 1_555
C33 C34 1_555 1_555
C37 C38 1_555 1_555
C41 C42 1_555 1_555
C45 C46 1_555 1_555
C49 C50 1_555 1_555

#END
