
#######################################################################
#
#                 Cambridge Crystallographic Data Centre
#                                CCDC 
#
#######################################################################
#
# If this CIF has been generated from an entry in the Cambridge 
# Structural Database, then it will include bibliographic, chemical, 
# crystal, experimental, refinement or atomic coordinate data resulting 
# from the CCDC's data processing and validation procedures.
#
#######################################################################

data_WEQCAY
_chemical_formula_moiety         'C84 H136 Ba2 I2 K2 N4 O8'
_chemical_name_systematic        
bis(\m~3~-Iodo)-bis(\m~2~-N,N'-bis(2,6-di-isopropylphenyl)ethene-1,2-diamine)-octakis(tetrahydrofuran)-di-barium-di-potassium
_symmetry_cell_setting           monoclinic
_symmetry_space_group_name_H-M   'P 21/n'
_symmetry_Int_Tables_number      14
_space_group_name_Hall           '-P 2yn'
loop_
_symmetry_equiv_pos_site_id
_symmetry_equiv_pos_as_xyz
1 x,y,z
2 1/2-x,1/2+y,1/2-z
3 -x,-y,-z
4 1/2+x,1/2-y,1/2+z
_cell_length_a                   12.789(5)
_cell_length_b                   20.362(5)
_cell_length_c                   17.377(5)
_cell_angle_alpha                90
_cell_angle_beta                 94.277(5)
_cell_angle_gamma                90
_cell_volume                     4512.54
_exptl_crystal_colour            white
_exptl_crystal_description       block
_cell_formula_units_Z            2
loop_
_atom_site_label
_atom_site_type_symbol
_atom_site_fract_x
_atom_site_fract_y
_atom_site_fract_z
Ba1 Ba 0.38180(3) 0.921647(18) 0.89592(2)
I1 I 0.56692(4) 1.05284(2) 0.90101(2)
K1 K 0.49491(12) 0.99604(8) 0.71169(8)
O1 O 0.1770(3) 0.8829(2) 0.9202(3)
O2 O 0.3762(4) 0.7969(2) 0.9583(3)
O3 O 0.7020(4) 0.9848(3) 0.6954(4)
O4 O 0.4865(5) 1.1231(3) 0.6705(3)
N1 N 0.2856(4) 0.9742(2) 0.7656(3)
N2 N 0.4503(4) 0.8683(2) 0.7698(3)
C1 C 0.2691(5) 0.9081(3) 0.7439(3)
H1 H 0.2009 0.8961 0.7276
C2 C 0.3432(5) 0.8601(3) 0.7447(3)
H2 H 0.3218 0.8187 0.7273
C3 C 0.2092(5) 1.0183(3) 0.7381(4)
C4 C 0.1864(5) 1.0738(3) 0.7838(4)
C5 C 0.1043(6) 1.1163(3) 0.7624(4)
H3 H 0.0897 1.1515 0.7940
C6 C 0.0436(6) 1.1059(4) 0.6928(4)
H4 H -0.0138 1.1327 0.6794
C7 C 0.0689(6) 1.0565(4) 0.6450(4)
H5 H 0.0289 1.0508 0.5985
C8 C 0.1532(5) 1.0138(3) 0.6632(4)
C9 C 0.1858(5) 0.9682(3) 0.5995(4)
H6 H 0.2465 0.9430 0.6208
C10 C 0.1008(6) 0.9188(4) 0.5724(5)
H7 H 0.0911 0.8879 0.6130
H8 H 0.1218 0.8959 0.5278
H9 H 0.0362 0.9417 0.5595
C11 C 0.2212(7) 1.0077(4) 0.5306(4)
H10 H 0.1637 1.0335 0.5087
H11 H 0.2440 0.9780 0.4923
H12 H 0.2782 1.0361 0.5478
C12 C 0.2516(6) 1.0849(3) 0.8600(4)
H13 H 0.3224 1.0687 0.8531
C13 C 0.2619(7) 1.1578(4) 0.8829(5)
H14 H 0.1992 1.1719 0.9052
H15 H 0.2722 1.1837 0.8379
H16 H 0.3208 1.1633 0.9199
C14 C 0.2114(6) 1.0471(4) 0.9258(5)
H17 H 0.1445 1.0644 0.9374
H18 H 0.2600 1.0510 0.9703
H19 H 0.2039 1.0017 0.9116
C15 C 0.5176(5) 0.8254(3) 0.7336(4)
C16 C 0.5950(5) 0.7902(3) 0.7798(4)
C17 C 0.6588(5) 0.7450(4) 0.7457(4)
H20 H 0.7084 0.7216 0.7765
C18 C 0.6499(6) 0.7342(4) 0.6672(4)
H21 H 0.6917 0.7029 0.6454
C19 C 0.5776(6) 0.7707(4) 0.6205(4)
H22 H 0.5721 0.7640 0.5674
C20 C 0.5135(5) 0.8169(3) 0.6529(4)
C21 C 0.6083(5) 0.8023(3) 0.8664(4)
H23 H 0.5381 0.8080 0.8843
C22 C 0.6673(8) 0.8659(4) 0.8822(5)
H24 H 0.7395 0.8600 0.8723
H25 H 0.6626 0.8783 0.9351
H26 H 0.6370 0.8998 0.8491
C23 C 0.6615(6) 0.7465(4) 0.9142(4)
H27 H 0.6229 0.7065 0.9047
H28 H 0.6628 0.7573 0.9681
H29 H 0.7320 0.7408 0.8998
C24 C 0.4456(5) 0.8595(3) 0.5963(3)
H30 H 0.4095 0.8915 0.6270
C25 C 0.3609(6) 0.8201(3) 0.5491(4)
H31 H 0.3936 0.7869 0.5199
H32 H 0.3211 0.8491 0.5146
H33 H 0.3152 0.7997 0.5834
C26 C 0.5130(6) 0.8983(4) 0.5427(4)
H34 H 0.5666 0.9217 0.5730
H35 H 0.4696 0.9290 0.5131
H36 H 0.5448 0.8686 0.5085
C27 C 0.0766(5) 0.8908(5) 0.8783(5)
H37 H 0.0652 0.8563 0.8401
H38 H 0.0728 0.9329 0.8522
C28 C -0.0047(7) 0.8870(8) 0.9374(6)
H39 H -0.0555 0.9222 0.9295
H40 H -0.0414 0.8453 0.9336
C29 C 0.0548(7) 0.8936(5) 1.0138(5)
H41 H 0.0226 0.8681 1.0529
H42 H 0.0593 0.9392 1.0300
C30 C 0.1602(6) 0.8670(4) 0.9989(4)
H43 H 0.2140 0.8868 1.0337
H44 H 0.1620 0.8198 1.0064
C31 C 0.4119(7) 0.7642(4) 1.0290(5)
H45 H 0.3776 0.7824 1.0721
H46 H 0.4871 0.7694 1.0390
C32 C 0.3848(10) 0.6942(5) 1.0186(7)
H47 H 0.3618 0.6758 1.0660
H48 H 0.4448 0.6693 1.0037
C33 C 0.2987(7) 0.6924(4) 0.9566(6)
H49 H 0.2312 0.7008 0.9767
H50 H 0.2963 0.6506 0.9297
C34 C 0.3299(7) 0.7472(4) 0.9054(5)
H51 H 0.3806 0.7321 0.8705
H52 H 0.2693 0.7647 0.8753
C35 C 0.7747(7) 1.0331(5) 0.7297(6)
H53 H 0.7392 1.0636 0.7620
H54 H 0.8075 1.0578 0.6903
C36 C 0.8556(8) 0.9924(5) 0.7780(6)
H55 H 0.9221 1.0153 0.7851
H56 H 0.8312 0.9821 0.8281
C37 C 0.8656(8) 0.9312(6) 0.7306(7)
H57 H 0.8757 0.8928 0.7635
H58 H 0.9240 0.9346 0.6983
C38 C 0.7602(7) 0.9271(5) 0.6810(5)
H59 H 0.7728 0.9244 0.6267
H60 H 0.7216 0.8884 0.6947
C39 C 0.4068(9) 1.1579(6) 0.7046(9)
H61 H 0.3790 1.1310 0.7444
H62 H 0.3502 1.1672 0.6659
C40 C 0.4465(9) 1.2186(7) 0.7380(13)
H63 H 0.4079 1.2558 0.7156
H64 H 0.4410 1.2189 0.7934
C41 C 0.5547(11) 1.2210(7) 0.7202(11)
H65 H 0.5692 1.2624 0.6956
H66 H 0.6003 1.2173 0.7672
C42 C 0.5733(10) 1.1673(6) 0.6692(7)
H67 H 0.5793 1.1835 0.6172
H68 H 0.6379 1.1450 0.6861
Ba1B Ba 0.61820(3) 1.078353(18) 1.10408(2)
I1B I 0.43308(4) 0.94716(2) 1.09899(2)
K1B K 0.50509(12) 1.00396(8) 1.28831(8)
O1B O 0.8230(3) 1.1171(2) 1.0798(3)
O2B O 0.6238(4) 1.2031(2) 1.0417(3)
O3B O 0.2980(4) 1.0152(3) 1.3046(4)
O4B O 0.5135(5) 0.8769(3) 1.3295(3)
N1B N 0.7144(4) 1.0258(2) 1.2344(3)
N2B N 0.5497(4) 1.1317(2) 1.2302(3)
C1B C 0.7309(5) 1.0919(3) 1.2561(3)
H1B H 0.7991 1.1039 1.2724
C2B C 0.6568(5) 1.1399(3) 1.2553(3)
H2B H 0.6782 1.1813 1.2727
C3B C 0.7908(5) 0.9817(3) 1.2619(4)
C4B C 0.8136(5) 0.9262(3) 1.2162(4)
C5B C 0.8957(6) 0.8837(3) 1.2376(4)
H3B H 0.9103 0.8485 1.2060
C6B C 0.9564(6) 0.8941(4) 1.3072(4)
H4B H 1.0138 0.8673 1.3206
C7B C 0.9311(6) 0.9435(4) 1.3550(4)
H5B H 0.9711 0.9492 1.4015
C8B C 0.8468(5) 0.9862(3) 1.3368(4)
C9B C 0.8142(5) 1.0318(3) 1.4005(4)
H6B H 0.7535 1.0570 1.3792
C10B C 0.8992(6) 1.0812(4) 1.4276(5)
H7B H 0.9089 1.1121 1.3870
H8B H 0.8782 1.1041 1.4722
H9B H 0.9638 1.0583 1.4405
C11B C 0.7788(7) 0.9923(4) 1.4694(4)
H10B H 0.8363 0.9665 1.4913
H11B H 0.7560 1.0220 1.5077
H12B H 0.7218 0.9639 1.4522
C12B C 0.7484(6) 0.9151(3) 1.1400(4)
H13B H 0.6776 0.9313 1.1469
C13B C 0.7381(7) 0.8422(4) 1.1171(5)
H14B H 0.8008 0.8281 1.0948
H15B H 0.7278 0.8163 1.1621
H16B H 0.6792 0.8367 1.0801
C14B C 0.7886(6) 0.9529(4) 1.0742(5)
H17B H 0.8555 0.9356 1.0626
H18B H 0.7400 0.9490 1.0297
H19B H 0.7961 0.9983 1.0884
C15B C 0.4824(5) 1.1746(3) 1.2664(4)
C16B C 0.4050(5) 1.2098(3) 1.2202(4)
C17B C 0.3412(5) 1.2550(4) 1.2543(4)
H20B H 0.2916 1.2784 1.2235
C18B C 0.3501(6) 1.2658(4) 1.3328(4)
H21B H 0.3083 1.2971 1.3546
C19B C 0.4224(6) 1.2293(4) 1.3795(4)
H22B H 0.4279 1.2360 1.4326
C20B C 0.4865(5) 1.1831(3) 1.3471(4)
C21B C 0.3917(5) 1.1977(3) 1.1336(4)
H23B H 0.4619 1.1920 1.1157
C22B C 0.3327(8) 1.1341(4) 1.1178(5)
H24B H 0.2605 1.1400 1.1277
H25B H 0.3374 1.1217 1.0649
H26B H 0.3630 1.1002 1.1509
C23B C 0.3385(6) 1.2535(4) 1.0858(4)
H27B H 0.3771 1.2935 1.0953
H28B H 0.3372 1.2427 1.0319
H29B H 0.2680 1.2592 1.1002
C24B C 0.5544(5) 1.1405(3) 1.4037(3)
H30B H 0.5905 1.1085 1.3730
C25B C 0.6391(6) 1.1799(3) 1.4509(4)
H31B H 0.6064 1.2131 1.4801
H32B H 0.6789 1.1509 1.4854
H33B H 0.6848 1.2003 1.4166
C26B C 0.4870(6) 1.1017(4) 1.4573(4)
H34B H 0.4334 1.0783 1.4270
H35B H 0.5304 1.0710 1.4869
H36B H 0.4552 1.1314 1.4915
C27B C 0.9234(5) 1.1092(5) 1.1217(5)
H37B H 0.9348 1.1437 1.1599
H38B H 0.9272 1.0671 1.1478
C28B C 1.0047(7) 1.1130(8) 1.0626(6)
H39B H 1.0555 1.0778 1.0705
H40B H 1.0414 1.1547 1.0664
C29B C 0.9452(7) 1.1064(5) 0.9862(5)
H41B H 0.9774 1.1319 0.9471
H42B H 0.9407 1.0608 0.9700
C30B C 0.8398(6) 1.1330(4) 1.0011(4)
H43B H 0.7860 1.1132 0.9663
H44B H 0.8380 1.1802 0.9936
C31B C 0.5881(7) 1.2358(4) 0.9710(5)
H45B H 0.6224 1.2176 0.9279
H46B H 0.5129 1.2306 0.9610
C32B C 0.6152(10) 1.3058(5) 0.9814(7)
H47B H 0.6382 1.3242 0.9340
H48B H 0.5552 1.3307 0.9963
C33B C 0.7013(7) 1.3076(4) 1.0434(6)
H49B H 0.7688 1.2992 1.0233
H50B H 0.7037 1.3494 1.0703
C34B C 0.6701(7) 1.2528(4) 1.0946(5)
H51B H 0.6194 1.2679 1.1295
H52B H 0.7307 1.2353 1.1247
C35B C 0.2253(7) 0.9669(5) 1.2703(6)
H53B H 0.2608 0.9364 1.2380
H54B H 0.1925 0.9422 1.3097
C36B C 0.1444(8) 1.0076(5) 1.2220(6)
H55B H 0.0779 0.9847 1.2149
H56B H 0.1688 1.0179 1.1719
C37B C 0.1344(8) 1.0688(6) 1.2694(7)
H57B H 0.1243 1.1072 1.2365
H58B H 0.0760 1.0654 1.3017
C38B C 0.2398(7) 1.0729(5) 1.3190(5)
H59B H 0.2272 1.0756 1.3733
H60B H 0.2784 1.1116 1.3053
C39B C 0.5932(9) 0.8421(6) 1.2954(9)
H61B H 0.6210 0.8690 1.2556
H62B H 0.6498 0.8328 1.3341
C40B C 0.5535(9) 0.7814(7) 1.2620(13)
H63B H 0.5921 0.7442 1.2844
H64B H 0.5590 0.7811 1.2066
C41B C 0.4453(11) 0.7790(7) 1.2798(11)
H65B H 0.4308 0.7376 1.3044
H66B H 0.3997 0.7827 1.2328
C42B C 0.4267(10) 0.8327(6) 1.3308(7)
H67B H 0.4207 0.8165 1.3828
H68B H 0.3621 0.8550 1.3139
loop_
_geom_bond_atom_site_label_1
_geom_bond_atom_site_label_2
_geom_bond_site_symmetry_1
_geom_bond_site_symmetry_2
Ba1 I1 1_555 1_555
I1 K1 1_555 1_555
K1 O3 1_555 1_555
O1 Ba1 1_555 1_555
O2 Ba1 1_555 1_555
O3 C35 1_555 1_555
O4 K1 1_555 1_555
N1 Ba1 1_555 1_555
N2 Ba1 1_555 1_555
C1 N1 1_555 1_555
H1 C1 1_555 1_555
C2 N2 1_555 1_555
H2 C2 1_555 1_555
C3 N1 1_555 1_555
C4 C3 1_555 1_555
C5 C4 1_555 1_555
H3 C5 1_555 1_555
C6 C5 1_555 1_555
H4 C6 1_555 1_555
C7 C6 1_555 1_555
H5 C7 1_555 1_555
C8 C3 1_555 1_555
C9 C8 1_555 1_555
H6 C9 1_555 1_555
C10 C9 1_555 1_555
H7 C10 1_555 1_555
H8 C10 1_555 1_555
H9 C10 1_555 1_555
C11 C9 1_555 1_555
H10 C11 1_555 1_555
H11 C11 1_555 1_555
H12 C11 1_555 1_555
C12 C4 1_555 1_555
H13 C12 1_555 1_555
C13 C12 1_555 1_555
H14 C13 1_555 1_555
H15 C13 1_555 1_555
H16 C13 1_555 1_555
C14 C12 1_555 1_555
H17 C14 1_555 1_555
H18 C14 1_555 1_555
H19 C14 1_555 1_555
C15 N2 1_555 1_555
C16 C15 1_555 1_555
C17 C16 1_555 1_555
H20 C17 1_555 1_555
C18 C17 1_555 1_555
H21 C18 1_555 1_555
C19 C18 1_555 1_555
H22 C19 1_555 1_555
C20 C15 1_555 1_555
C21 C16 1_555 1_555
H23 C21 1_555 1_555
C22 C21 1_555 1_555
H24 C22 1_555 1_555
H25 C22 1_555 1_555
H26 C22 1_555 1_555
C23 C21 1_555 1_555
H27 C23 1_555 1_555
H28 C23 1_555 1_555
H29 C23 1_555 1_555
C24 C20 1_555 1_555
H30 C24 1_555 1_555
C25 C24 1_555 1_555
H31 C25 1_555 1_555
H32 C25 1_555 1_555
H33 C25 1_555 1_555
C26 C24 1_555 1_555
H34 C26 1_555 1_555
H35 C26 1_555 1_555
H36 C26 1_555 1_555
C27 O1 1_555 1_555
H37 C27 1_555 1_555
H38 C27 1_555 1_555
C28 C27 1_555 1_555
H39 C28 1_555 1_555
H40 C28 1_555 1_555
C29 C28 1_555 1_555
H41 C29 1_555 1_555
H42 C29 1_555 1_555
C30 O1 1_555 1_555
H43 C30 1_555 1_555
H44 C30 1_555 1_555
C31 O2 1_555 1_555
H45 C31 1_555 1_555
H46 C31 1_555 1_555
C32 C31 1_555 1_555
H47 C32 1_555 1_555
H48 C32 1_555 1_555
C33 C32 1_555 1_555
H49 C33 1_555 1_555
H50 C33 1_555 1_555
C34 O2 1_555 1_555
H51 C34 1_555 1_555
H52 C34 1_555 1_555
C35 H53 1_555 1_555
H54 C35 1_555 1_555
C36 C35 1_555 1_555
H55 C36 1_555 1_555
H56 C36 1_555 1_555
C37 C36 1_555 1_555
H57 C37 1_555 1_555
H58 C37 1_555 1_555
C38 O3 1_555 1_555
H59 C38 1_555 1_555
H60 C38 1_555 1_555
C39 O4 1_555 1_555
H61 C39 1_555 1_555
H62 C39 1_555 1_555
C40 C39 1_555 1_555
H63 C40 1_555 1_555
H64 C40 1_555 1_555
C41 C40 1_555 1_555
H65 C41 1_555 1_555
H66 C41 1_555 1_555
C42 O4 1_555 1_555
H67 C42 1_555 1_555
H68 C42 1_555 1_555
Ba1B I1 1_555 1_555
I1B Ba1 1_555 1_555
K1B I1B 1_555 1_555
O1B Ba1B 1_555 1_555
O2B Ba1B 1_555 1_555
O3B K1B 1_555 1_555
O4B K1B 1_555 1_555
N1B Ba1B 1_555 1_555
N2B Ba1B 1_555 1_555
C1B N1B 1_555 1_555
H1B C1B 1_555 1_555
C2B N2B 1_555 1_555
H2B C2B 1_555 1_555
C3B N1B 1_555 1_555
C4B C3B 1_555 1_555
C5B C4B 1_555 1_555
H3B C5B 1_555 1_555
C6B C5B 1_555 1_555
H4B C6B 1_555 1_555
C7B C6B 1_555 1_555
H5B C7B 1_555 1_555
C8B C3B 1_555 1_555
C9B C8B 1_555 1_555
H6B C9B 1_555 1_555
C10B C9B 1_555 1_555
H7B C10B 1_555 1_555
H8B C10B 1_555 1_555
H9B C10B 1_555 1_555
C11B C9B 1_555 1_555
H10B C11B 1_555 1_555
H11B C11B 1_555 1_555
H12B C11B 1_555 1_555
C12B C4B 1_555 1_555
H13B C12B 1_555 1_555
C13B C12B 1_555 1_555
H14B C13B 1_555 1_555
H15B C13B 1_555 1_555
H16B C13B 1_555 1_555
C14B C12B 1_555 1_555
H17B C14B 1_555 1_555
H18B C14B 1_555 1_555
H19B C14B 1_555 1_555
C15B N2B 1_555 1_555
C16B C15B 1_555 1_555
C17B C16B 1_555 1_555
H20B C17B 1_555 1_555
C18B C17B 1_555 1_555
H21B C18B 1_555 1_555
C19B C18B 1_555 1_555
H22B C19B 1_555 1_555
C20B C15B 1_555 1_555
C21B C16B 1_555 1_555
H23B C21B 1_555 1_555
C22B C21B 1_555 1_555
H24B C22B 1_555 1_555
H25B C22B 1_555 1_555
H26B C22B 1_555 1_555
C23B C21B 1_555 1_555
H27B C23B 1_555 1_555
H28B C23B 1_555 1_555
H29B C23B 1_555 1_555
C24B C20B 1_555 1_555
H30B C24B 1_555 1_555
C25B C24B 1_555 1_555
H31B C25B 1_555 1_555
H32B C25B 1_555 1_555
H33B C25B 1_555 1_555
C26B C24B 1_555 1_555
H34B C26B 1_555 1_555
H35B C26B 1_555 1_555
H36B C26B 1_555 1_555
C27B O1B 1_555 1_555
H37B C27B 1_555 1_555
H38B C27B 1_555 1_555
C28B C27B 1_555 1_555
H39B C28B 1_555 1_555
H40B C28B 1_555 1_555
C29B C28B 1_555 1_555
H41B C29B 1_555 1_555
H42B C29B 1_555 1_555
C30B O1B 1_555 1_555
H43B C30B 1_555 1_555
H44B C30B 1_555 1_555
C31B O2B 1_555 1_555
H45B C31B 1_555 1_555
H46B C31B 1_555 1_555
C32B C31B 1_555 1_555
H47B C32B 1_555 1_555
H48B C32B 1_555 1_555
C33B C32B 1_555 1_555
H49B C33B 1_555 1_555
H50B C33B 1_555 1_555
C34B O2B 1_555 1_555
H51B C34B 1_555 1_555
H52B C34B 1_555 1_555
C35B O3B 1_555 1_555
H53B C35B 1_555 1_555
H54B C35B 1_555 1_555
C36B C35B 1_555 1_555
H55B C36B 1_555 1_555
H56B C36B 1_555 1_555
C37B C36B 1_555 1_555
H57B C37B 1_555 1_555
H58B C37B 1_555 1_555
C38B O3B 1_555 1_555
H59B C38B 1_555 1_555
H60B C38B 1_555 1_555
C39B O4B 1_555 1_555
H61B C39B 1_555 1_555
H62B C39B 1_555 1_555
C40B C39B 1_555 1_555
H63B C40B 1_555 1_555
H64B C40B 1_555 1_555
C41B C40B 1_555 1_555
H65B C41B 1_555 1_555
H66B C41B 1_555 1_555
C42B O4B 1_555 1_555
H67B C42B 1_555 1_555
H68B C42B 1_555 1_555
K1 N1 1_555 1_555
K1 N2 1_555 1_555
C1 C2 1_555 1_555
C7 C8 1_555 1_555
C19 C20 1_555 1_555
C29 C30 1_555 1_555
C33 C34 1_555 1_555
C37 C38 1_555 1_555
C41 C42 1_555 1_555
Ba1B I1B 1_555 1_555
K1B N1B 1_555 1_555
K1B N2B 1_555 1_555
C1B C2B 1_555 1_555
C7B C8B 1_555 1_555
C19B C20B 1_555 1_555
C29B C30B 1_555 1_555
C33B C34B 1_555 1_555
C37B C38B 1_555 1_555
C41B C42B 1_555 1_555

#END
