
#######################################################################
#
#                 Cambridge Crystallographic Data Centre
#                                CCDC 
#
#######################################################################
#
# If this CIF has been generated from an entry in the Cambridge 
# Structural Database, then it will include bibliographic, chemical, 
# crystal, experimental, refinement or atomic coordinate data resulting 
# from the CCDC's data processing and validation procedures.
#
#######################################################################

data_WEQJIO
_chemical_formula_moiety         'C20 H16 O7'
_chemical_name_systematic        
'5-(2-hydroxy-5-(7-hydroxy-4-oxo-4H-chromen-3-yl)phenyl)-5-oxopentanoic acid'
_symmetry_cell_setting           triclinic
_symmetry_space_group_name_H-M   'P -1'
_symmetry_Int_Tables_number      2
_space_group_name_Hall           '-P 1'
loop_
_symmetry_equiv_pos_site_id
_symmetry_equiv_pos_as_xyz
1 x,y,z
2 -x,-y,-z
_cell_length_a                   8.054(8)
_cell_length_b                   9.659(10)
_cell_length_c                   11.292(11)
_cell_angle_alpha                98.072(10)
_cell_angle_beta                 104.955(9)
_cell_angle_gamma                99.350(10)
_cell_volume                     821.954
_exptl_crystal_colour            colorless
_exptl_crystal_description       block
_cell_formula_units_Z            2
loop_
_atom_site_label
_atom_site_type_symbol
_atom_site_fract_x
_atom_site_fract_y
_atom_site_fract_z
C1 C -0.518(2) 1.0878(12) 0.8464(14)
C2 C -0.346(2) 1.1300(14) 0.9132(14)
H1 H -0.3161 1.1967 0.9871
C3 C -0.221(2) 1.0803(13) 0.8777(12)
H2 H -0.1071 1.1030 0.9313
C4 C -0.2555(18) 0.9945(11) 0.7614(12)
C5 C -0.4312(18) 0.9614(11) 0.6897(11)
C6 C -0.5589(18) 1.0022(12) 0.7310(13)
H3 H -0.6751 0.9730 0.6819
C7 C -0.1193(19) 0.9443(11) 0.7138(12)
C8 C -0.1844(17) 0.8454(12) 0.5981(11)
C9 C -0.3507(19) 0.8205(11) 0.5356(13)
H4 H -0.3848 0.7623 0.4569
C10 C -0.0705(17) 0.7796(11) 0.5340(14)
C11 C 0.0587(16) 0.7173(10) 0.6086(12)
H5 H 0.0695 0.7220 0.6931
C12 C 0.1673(15) 0.6501(11) 0.5544(13)
C13 C 0.1575(19) 0.6491(12) 0.4309(13)
C14 C 0.032(2) 0.7100(12) 0.3575(13)
H6 H 0.0212 0.7053 0.2729
C15 C -0.0722(18) 0.7758(13) 0.4120(13)
H7 H -0.1501 0.8214 0.3638
C16 C 0.3064(18) 0.5880(11) 0.6314(12)
C17 C 0.3274(18) 0.6071(13) 0.7639(12)
H8 H 0.2224 0.5560 0.7780
H9 H 0.3417 0.7077 0.7976
C18 C 0.4890(18) 0.5515(14) 0.8329(13)
H10 H 0.4789 0.5417 0.9152
H11 H 0.4832 0.4567 0.7881
C19 C 0.6615(17) 0.6377(12) 0.8481(10)
H12 H 0.6692 0.7327 0.8933
H13 H 0.6739 0.6469 0.7662
C20 C 0.808(2) 0.5787(15) 0.9147(13)
O1 O -0.6482(13) 1.1322(9) 0.8938(8)
H14 H -0.7447 1.0991 0.8432
O2 O 0.0354(12) 0.9767(9) 0.7704(7)
O3 O -0.4795(11) 0.8728(8) 0.5759(7)
O4 O 0.2557(12) 0.5879(8) 0.3691(7)
H15 H 0.3219 0.5498 0.4159
O5 O 0.3949(12) 0.5239(8) 0.5778(7)
O6 O 0.9599(15) 0.6343(9) 0.9060(8)
H16 H 1.0343 0.5959 0.9451
O7 O 0.7863(13) 0.4854(11) 0.9726(10)
loop_
_geom_bond_atom_site_label_1
_geom_bond_atom_site_label_2
_geom_bond_site_symmetry_1
_geom_bond_site_symmetry_2
C1 C2 1_555 1_555
C2 H1 1_555 1_555
C3 C2 1_555 1_555
H2 C3 1_555 1_555
C4 C3 1_555 1_555
C5 C4 1_555 1_555
C6 C1 1_555 1_555
H3 C6 1_555 1_555
C7 C4 1_555 1_555
C8 C7 1_555 1_555
C9 C8 1_555 1_555
H4 C9 1_555 1_555
C10 C8 1_555 1_555
C11 C10 1_555 1_555
H5 C11 1_555 1_555
C12 C11 1_555 1_555
C13 C12 1_555 1_555
C14 C13 1_555 1_555
H6 C14 1_555 1_555
C15 C10 1_555 1_555
H7 C15 1_555 1_555
C16 C12 1_555 1_555
C17 C16 1_555 1_555
H8 C17 1_555 1_555
H9 C17 1_555 1_555
C18 C17 1_555 1_555
H10 C18 1_555 1_555
H11 C18 1_555 1_555
C19 C18 1_555 1_555
H12 C19 1_555 1_555
H13 C19 1_555 1_555
C20 C19 1_555 1_555
O1 C1 1_555 1_555
H14 O1 1_555 1_555
O2 C7 1_555 1_555
O3 C5 1_555 1_555
O4 C13 1_555 1_555
H15 O4 1_555 1_555
O5 C16 1_555 1_555
O6 C20 1_555 1_555
H16 O6 1_555 1_555
O7 C20 1_555 1_555
C5 C6 1_555 1_555
C9 O3 1_555 1_555
C14 C15 1_555 1_555

#END
