
#######################################################################
#
#                 Cambridge Crystallographic Data Centre
#                                CCDC 
#
#######################################################################
#
# If this CIF has been generated from an entry in the Cambridge 
# Structural Database, then it will include bibliographic, chemical, 
# crystal, experimental, refinement or atomic coordinate data resulting 
# from the CCDC's data processing and validation procedures.
#
#######################################################################

data_WEQPUG
_chemical_formula_moiety         'C27 H22 O2'
_chemical_name_systematic        
2,2,4-triphenyl-2,6,7,8-tetrahydro-5H-1-benzopyran-5-one
_symmetry_cell_setting           monoclinic
_symmetry_space_group_name_H-M   'P 21/c'
_symmetry_Int_Tables_number      14
_space_group_name_Hall           '-P 2ybc'
loop_
_symmetry_equiv_pos_site_id
_symmetry_equiv_pos_as_xyz
1 x,y,z
2 -x,1/2+y,1/2-z
3 -x,-y,-z
4 x,1/2-y,1/2+z
_cell_length_a                   14.1547(10)
_cell_length_b                   12.0909(5)
_cell_length_c                   13.7149(9)
_cell_angle_alpha                90
_cell_angle_beta                 118.536(9)
_cell_angle_gamma                90
_cell_volume                     2062.06
_exptl_crystal_colour            colorless
_exptl_crystal_description       block
_cell_formula_units_Z            4
loop_
_atom_site_label
_atom_site_type_symbol
_atom_site_fract_x
_atom_site_fract_y
_atom_site_fract_z
O1 O 0.19776(11) 0.72037(11) 0.39958(10)
O2 O 0.16860(15) 1.10663(14) 0.35417(14)
C1 C 0.15730(15) 0.81432(18) 0.34107(16)
C2 C 0.08986(19) 0.7914(2) 0.22003(18)
H1 H 0.0485 0.7244 0.2103
H2 H 0.1362 0.7795 0.1869
C3 C 0.0650(2) 0.9960(3) 0.1953(2)
H3 H 0.0085 1.0513 0.1701
H4 H 0.1061 1.0095 0.1566
C4 C 0.13854(18) 1.0135(2) 0.31793(19)
C5 C 0.17376(15) 0.91541(16) 0.38966(16)
C6 C 0.22665(15) 0.91998(15) 0.51195(16)
C7 C 0.27907(15) 0.82960(15) 0.56759(16)
H5 H 0.3071 0.8275 0.6442
C8 C 0.29376(15) 0.73113(15) 0.50889(15)
C9 C 0.21458(18) 1.01507(16) 0.57526(19)
C10 C 0.1166(2) 1.07032(18) 0.5380(2)
H6 H 0.0592 1.0539 0.4687
C11 C 0.1051(3) 1.1499(2) 0.6048(3)
H7 H 0.0398 1.1863 0.5801
C12 C 0.1900(3) 1.1751(2) 0.7074(3)
H8 H 0.1813 1.2270 0.7525
C13 C 0.2875(3) 1.1235(2) 0.7431(2)
H9 H 0.3452 1.1419 0.8115
C14 C 0.2998(2) 1.04447(17) 0.6775(2)
H10 H 0.3662 1.0103 0.7020
C15 C 0.30072(15) 0.62391(15) 0.57089(15)
C16 C 0.37222(18) 0.61767(17) 0.68345(17)
H11 H 0.4147 0.6787 0.7194
C17 C 0.3816(2) 0.52267(18) 0.74313(19)
H12 H 0.4292 0.5206 0.8189
C18 C 0.32119(19) 0.43141(19) 0.6911(2)
H13 H 0.3273 0.3675 0.7314
C19 C 0.25180(18) 0.43482(18) 0.5796(2)
H14 H 0.2117 0.3724 0.5440
C20 C 0.24052(16) 0.53050(17) 0.51884(18)
H15 H 0.1926 0.5320 0.4432
C21 C 0.39182(15) 0.74048(15) 0.48924(14)
C22 C 0.46102(17) 0.82936(17) 0.52686(18)
H16 H 0.4473 0.8870 0.5632
C23 C 0.55111(18) 0.83429(19) 0.51137(19)
H17 H 0.5973 0.8947 0.5379
C24 C 0.57209(19) 0.75071(19) 0.45730(19)
H18 H 0.6321 0.7541 0.4465
C25 C 0.5036(2) 0.6616(2) 0.4191(2)
H19 H 0.5175 0.6045 0.3823
C26 C 0.41435(19) 0.65594(18) 0.43475(18)
H20 H 0.3689 0.5950 0.4086
C27 C 0.0141(3) 0.8863(4) 0.1616(3)
H21 H -0.0142 0.8779 0.0822
H22 H -0.0460 0.8825 0.1770
H23? H 0.1241 0.7345 0.1980
H24? H 0.0203 0.7636 0.2064
H25? H -0.0087 1.0051 0.1806
H26? H 0.0794 1.0535 0.1548
C28? C 0.0743(9) 0.8907(9) 0.1523(7)
H27? H 0.1341 0.8952 0.1366
H28? H 0.0098 0.8798 0.0820
loop_
_geom_bond_atom_site_label_1
_geom_bond_atom_site_label_2
_geom_bond_site_symmetry_1
_geom_bond_site_symmetry_2
O1 C1 1_555 1_555
O2 C4 1_555 1_555
C1 C2 1_555 1_555
C2 H1 1_555 1_555
H2 C2 1_555 1_555
C3 H3 1_555 1_555
H4 C3 1_555 1_555
C4 C3 1_555 1_555
C5 C1 1_555 1_555
C6 C5 1_555 1_555
C7 C6 1_555 1_555
H5 C7 1_555 1_555
C8 O1 1_555 1_555
C9 C6 1_555 1_555
C10 C9 1_555 1_555
H6 C10 1_555 1_555
C11 C10 1_555 1_555
H7 C11 1_555 1_555
C12 C11 1_555 1_555
H8 C12 1_555 1_555
C13 C12 1_555 1_555
H9 C13 1_555 1_555
C14 C9 1_555 1_555
H10 C14 1_555 1_555
C15 C8 1_555 1_555
C16 C15 1_555 1_555
H11 C16 1_555 1_555
C17 C16 1_555 1_555
H12 C17 1_555 1_555
C18 C17 1_555 1_555
H13 C18 1_555 1_555
C19 C18 1_555 1_555
H14 C19 1_555 1_555
C20 C15 1_555 1_555
H15 C20 1_555 1_555
C21 C8 1_555 1_555
C22 C21 1_555 1_555
H16 C22 1_555 1_555
C23 C22 1_555 1_555
H17 C23 1_555 1_555
C24 C23 1_555 1_555
H18 C24 1_555 1_555
C25 C24 1_555 1_555
H19 C25 1_555 1_555
C26 C21 1_555 1_555
H20 C26 1_555 1_555
C27 C2 1_555 1_555
H21 C27 1_555 1_555
H22 C27 1_555 1_555
C3 C27 1_555 1_555
C4 C5 1_555 1_555
C7 C8 1_555 1_555
C13 C14 1_555 1_555
C19 C20 1_555 1_555
C25 C26 1_555 1_555

#END
