
#######################################################################
#
#                 Cambridge Crystallographic Data Centre
#                                CCDC 
#
#######################################################################
#
# If this CIF has been generated from an entry in the Cambridge 
# Structural Database, then it will include bibliographic, chemical, 
# crystal, experimental, refinement or atomic coordinate data resulting 
# from the CCDC's data processing and validation procedures.
#
#######################################################################

data_WERBUR
_chemical_formula_moiety         'C28 H20 O4,2(C3 H6 O1)'
_chemical_name_systematic        
'13-Phenyl-13-methoxy-13H-dibenzo(b,i)xanthene-1,11-diol acetone solvate'
_symmetry_cell_setting           monoclinic
_symmetry_space_group_name_H-M   'P 21/c'
_symmetry_Int_Tables_number      14
_space_group_name_Hall           '-P 2ybc'
loop_
_symmetry_equiv_pos_site_id
_symmetry_equiv_pos_as_xyz
1 x,y,z
2 -x,1/2+y,1/2-z
3 -x,-y,-z
4 x,1/2-y,1/2+z
_cell_length_a                   14.395(3)
_cell_length_b                   8.6291(15)
_cell_length_c                   23.881(5)
_cell_angle_alpha                90
_cell_angle_beta                 102.115(7)
_cell_angle_gamma                90
_cell_volume                     2900.33
_exptl_crystal_colour            yellow
_exptl_crystal_description       needle
_cell_formula_units_Z            4
_exptl_crystal_preparation       fluorescent
loop_
_atom_site_label
_atom_site_type_symbol
_atom_site_fract_x
_atom_site_fract_y
_atom_site_fract_z
O1 O 0.32681(11) 0.88394(19) 0.27683(7)
O2 O 0.70400(12) 0.7827(2) 0.46431(7)
H1 H 0.759(2) 0.796(4) 0.4841(13)
O3 O 0.00389(13) 0.6218(2) 0.39515(8)
H2 H -0.049(2) 0.583(4) 0.3982(14)
O4 O 0.35202(11) 0.74909(16) 0.44545(6)
C1 C 0.41518(16) 0.8753(2) 0.31288(9)
C2 C 0.48749(16) 0.9514(3) 0.29441(10)
H3 H 0.4752 1.0010 0.2581
C3 C 0.57946(16) 0.9559(2) 0.32910(10)
C4 C 0.65432(17) 1.0445(3) 0.31455(10)
H4 H 0.6428 1.1044 0.2804
C5 C 0.74241(17) 1.0441(3) 0.34932(11)
H5 H 0.7914 1.1048 0.3392
C6 C 0.76229(17) 0.9553(3) 0.39998(11)
H6 H 0.8247 0.9539 0.4230
C7 C 0.69136(17) 0.8710(3) 0.41604(10)
C8 C 0.59740(16) 0.8713(2) 0.38155(9)
C9 C 0.52145(15) 0.7936(2) 0.39837(9)
H7 H 0.5335 0.7376 0.4334
C10 C 0.43044(15) 0.7961(2) 0.36572(9)
C11 C 0.34976(15) 0.7132(2) 0.38624(9)
C12 C 0.25459(16) 0.7567(2) 0.34877(9)
C13 C 0.17141(16) 0.7164(3) 0.36492(10)
H8 H 0.1746 0.6578 0.3990
C14 C 0.08156(16) 0.7594(3) 0.33246(10)
C15 C -0.00506(17) 0.7153(3) 0.34843(10)
C16 C -0.09060(17) 0.7646(3) 0.31690(11)
H9 H -0.1478 0.7363 0.3281
C17 C -0.09400(18) 0.8568(3) 0.26804(11)
H10 H -0.1538 0.8911 0.2469
C18 C -0.01341(18) 0.8982(3) 0.25030(11)
H11 H -0.0175 0.9592 0.2168
C19 C 0.07666(16) 0.8500(3) 0.28210(10)
C20 C 0.16197(17) 0.8879(3) 0.26510(10)
H12 H 0.1601 0.9452 0.2309
C21 C 0.24776(16) 0.8423(2) 0.29782(10)
C22 C 0.36940(15) 0.5390(2) 0.38569(9)
C23 C 0.41100(16) 0.4609(2) 0.43546(9)
H13 H 0.4203 0.5125 0.4714
C24 C 0.43918(17) 0.3073(3) 0.43286(10)
H14 H 0.4680 0.2545 0.4670
C25 C 0.42555(17) 0.2311(3) 0.38108(10)
H15 H 0.4467 0.1273 0.3794
C26 C 0.38094(18) 0.3065(3) 0.33141(10)
H16 H 0.3696 0.2534 0.2958
C27 C 0.35288(17) 0.4596(3) 0.33392(10)
H17 H 0.3220 0.5109 0.2999
C28 C 0.33937(19) 0.9077(3) 0.45842(11)
H18 H 0.3921 0.9689 0.4499
H19 H 0.3381 0.9180 0.4991
H20 H 0.2793 0.9453 0.4352
O5 O -0.17630(13) 0.5039(3) 0.38675(8)
C29 C -0.22932(18) 0.4518(3) 0.41538(12)
C30 C -0.3322(2) 0.4278(4) 0.39025(17)
H21 H -0.3446 0.4501 0.3491
H22 H -0.3701 0.4974 0.4089
H23 H -0.3494 0.3200 0.3962
C31 C -0.1945(3) 0.4086(4) 0.47613(14)
H24 H -0.1302 0.4495 0.4896
H25 H -0.1935 0.2955 0.4798
H26 H -0.2369 0.4523 0.4993
O6 O 0.88243(14) 0.8196(3) 0.52676(9)
C32 C 0.90457(18) 0.8034(3) 0.57826(12)
C33 C 0.8355(2) 0.7541(4) 0.61255(13)
H27 H 0.8540 0.6526 0.6297
H28 H 0.7721 0.7470 0.5878
H29 H 0.8346 0.8301 0.6429
C34 C 1.00478(19) 0.8321(4) 0.60964(14)
H30 H 1.0427 0.8681 0.5826
H31 H 1.0320 0.7357 0.6277
H32 H 1.0051 0.9112 0.6391
loop_
_geom_bond_atom_site_label_1
_geom_bond_atom_site_label_2
_geom_bond_site_symmetry_1
_geom_bond_site_symmetry_2
O1 C1 1_555 1_555
O2 H1 1_555 1_555
O3 H2 1_555 1_555
O4 C11 1_555 1_555
C1 C2 1_555 1_555
C2 H3 1_555 1_555
C3 C2 1_555 1_555
C4 C3 1_555 1_555
H4 C4 1_555 1_555
C5 C4 1_555 1_555
H5 C5 1_555 1_555
C6 C5 1_555 1_555
H6 C6 1_555 1_555
C7 O2 1_555 1_555
C8 C3 1_555 1_555
C9 C8 1_555 1_555
H7 C9 1_555 1_555
C10 C1 1_555 1_555
C11 C10 1_555 1_555
C12 C11 1_555 1_555
C13 C12 1_555 1_555
H8 C13 1_555 1_555
C14 C13 1_555 1_555
C15 O3 1_555 1_555
C16 C15 1_555 1_555
H9 C16 1_555 1_555
C17 C16 1_555 1_555
H10 C17 1_555 1_555
C18 C17 1_555 1_555
H11 C18 1_555 1_555
C19 C14 1_555 1_555
C20 C19 1_555 1_555
H12 C20 1_555 1_555
C21 O1 1_555 1_555
C22 C11 1_555 1_555
C23 C22 1_555 1_555
H13 C23 1_555 1_555
C24 C23 1_555 1_555
H14 C24 1_555 1_555
C25 C24 1_555 1_555
H15 C25 1_555 1_555
C26 C25 1_555 1_555
H16 C26 1_555 1_555
C27 C22 1_555 1_555
H17 C27 1_555 1_555
C28 O4 1_555 1_555
H18 C28 1_555 1_555
H19 C28 1_555 1_555
H20 C28 1_555 1_555
O5 C29 1_555 1_555
C29 C30 1_555 1_555
C30 H21 1_555 1_555
H22 C30 1_555 1_555
H23 C30 1_555 1_555
C31 C29 1_555 1_555
H24 C31 1_555 1_555
H25 C31 1_555 1_555
H26 C31 1_555 1_555
O6 C32 1_555 1_555
C32 C33 1_555 1_555
C33 H27 1_555 1_555
H28 C33 1_555 1_555
H29 C33 1_555 1_555
C34 C32 1_555 1_555
H30 C34 1_555 1_555
H31 C34 1_555 1_555
H32 C34 1_555 1_555
C6 C7 1_555 1_555
C7 C8 1_555 1_555
C9 C10 1_555 1_555
C12 C21 1_555 1_555
C14 C15 1_555 1_555
C18 C19 1_555 1_555
C20 C21 1_555 1_555
C26 C27 1_555 1_555

#END
