
#######################################################################
#
#                 Cambridge Crystallographic Data Centre
#                                CCDC 
#
#######################################################################
#
# If this CIF has been generated from an entry in the Cambridge 
# Structural Database, then it will include bibliographic, chemical, 
# crystal, experimental, refinement or atomic coordinate data resulting 
# from the CCDC's data processing and validation procedures.
#
#######################################################################

data_WERCIG
_chemical_formula_moiety         'C27 H26 O5'
_chemical_name_systematic        
(2,5-Dimethoxy-1-naphthyl)(2,4-dimethoxyphenyl)(phenyl)methanol
_symmetry_cell_setting           triclinic
_symmetry_space_group_name_H-M   'P -1'
_symmetry_Int_Tables_number      2
_space_group_name_Hall           '-P 1'
loop_
_symmetry_equiv_pos_site_id
_symmetry_equiv_pos_as_xyz
1 x,y,z
2 -x,-y,-z
_cell_length_a                   8.6597(15)
_cell_length_b                   11.155(2)
_cell_length_c                   11.818(3)
_cell_angle_alpha                100.030(10)
_cell_angle_beta                 99.201(13)
_cell_angle_gamma                97.783(13)
_cell_volume                     1093.93
_exptl_crystal_colour            colorless
_exptl_crystal_description       plate
_cell_formula_units_Z            2
loop_
_atom_site_label
_atom_site_type_symbol
_atom_site_fract_x
_atom_site_fract_y
_atom_site_fract_z
O1 O 0.44585(11) 0.92613(8) 0.71713(8)
H1 H 0.5215(19) 0.9212(14) 0.6808(14)
O2 O 0.27788(11) 0.57107(8) 0.52688(9)
O3 O 0.74217(11) 0.52416(9) 0.97526(9)
O4 O 0.55638(10) 0.82555(9) 0.52737(8)
O5 O 0.15001(11) 0.78872(9) 0.18134(8)
C1 C 0.33357(14) 0.81214(11) 0.67248(11)
C2 C 0.40824(14) 0.70179(11) 0.70590(11)
C3 C 0.38174(15) 0.58707(12) 0.63061(11)
C4 C 0.45913(16) 0.48989(12) 0.65857(12)
H2 H 0.4435 0.4144 0.6033
C5 C 0.55592(15) 0.50341(12) 0.76400(12)
H3 H 0.6106 0.4384 0.7808
C6 C 0.57608(14) 0.61292(12) 0.84883(12)
C7 C 0.67057(15) 0.62414(12) 0.96202(12)
C8 C 0.68606(16) 0.72795(13) 1.04659(12)
H4 H 0.7499 0.7352 1.1215
C9 C 0.60498(16) 0.82416(13) 1.02003(12)
H5 H 0.6127 0.8954 1.0793
C10 C 0.51626(15) 0.81864(12) 0.91276(12)
H6 H 0.4642 0.8857 0.8986
C11 C 0.50044(14) 0.71282(11) 0.82084(11)
C12 C 0.20511(18) 0.44933(13) 0.46852(14)
H7 H 0.2843 0.4057 0.4364
H8 H 0.1195 0.4532 0.4048
H9 H 0.1614 0.4051 0.5241
C13 C 0.83540(19) 0.52713(15) 1.08730(14)
H10 H 0.9217 0.5981 1.1064
H11 H 0.8801 0.4508 1.0856
H12 H 0.7683 0.5344 1.1467
C14 C 0.28569(14) 0.80506(11) 0.54047(11)
C15 C 0.40117(14) 0.81510(11) 0.46996(12)
C16 C 0.36182(15) 0.81212(11) 0.35062(12)
H13 H 0.4426 0.8206 0.3054
C17 C 0.20303(15) 0.79655(11) 0.29820(11)
C18 C 0.08603(15) 0.78807(12) 0.36572(12)
H14 H -0.0226 0.7788 0.3305
C19 C 0.12879(14) 0.79329(12) 0.48435(12)
H15 H 0.0476 0.7886 0.5296
C20 C 0.68213(15) 0.86074(13) 0.46806(13)
H16 H 0.6840 0.7935 0.4030
H17 H 0.7838 0.8776 0.5229
H18 H 0.6646 0.9351 0.4377
C21 C 0.26577(18) 0.80669(14) 0.10925(13)
H19 H 0.3348 0.8867 0.1405
H20 H 0.2120 0.8051 0.0293
H21 H 0.3297 0.7406 0.1085
C22 C 0.19124(14) 0.82782(12) 0.73253(11)
C23 C 0.10051(15) 0.72653(12) 0.75785(12)
H22 H 0.1294 0.6472 0.7404
C24 C -0.03184(16) 0.74018(14) 0.80839(13)
H23 H -0.0931 0.6702 0.8248
C25 C -0.07453(17) 0.85482(15) 0.83476(13)
H24 H -0.1644 0.8642 0.8701
C26 C 0.01419(17) 0.95657(14) 0.80949(14)
H25 H -0.0147 1.0359 0.8278
C27 C 0.14546(16) 0.94240(13) 0.75739(12)
H26 H 0.2044 1.0121 0.7386
loop_
_geom_bond_atom_site_label_1
_geom_bond_atom_site_label_2
_geom_bond_site_symmetry_1
_geom_bond_site_symmetry_2
O1 H1 1_555 1_555
O2 C3 1_555 1_555
O3 C7 1_555 1_555
O4 C15 1_555 1_555
O5 C17 1_555 1_555
C1 O1 1_555 1_555
C2 C1 1_555 1_555
C3 C2 1_555 1_555
C4 C3 1_555 1_555
H2 C4 1_555 1_555
C5 C4 1_555 1_555
H3 C5 1_555 1_555
C6 C5 1_555 1_555
C7 C6 1_555 1_555
C8 C7 1_555 1_555
H4 C8 1_555 1_555
C9 C8 1_555 1_555
H5 C9 1_555 1_555
C10 C9 1_555 1_555
H6 C10 1_555 1_555
C11 C2 1_555 1_555
C12 O2 1_555 1_555
H7 C12 1_555 1_555
H8 C12 1_555 1_555
H9 C12 1_555 1_555
C13 O3 1_555 1_555
H10 C13 1_555 1_555
H11 C13 1_555 1_555
H12 C13 1_555 1_555
C14 C1 1_555 1_555
C15 C14 1_555 1_555
C16 C15 1_555 1_555
H13 C16 1_555 1_555
C17 C16 1_555 1_555
C18 C17 1_555 1_555
H14 C18 1_555 1_555
C19 C14 1_555 1_555
H15 C19 1_555 1_555
C20 O4 1_555 1_555
H16 C20 1_555 1_555
H17 C20 1_555 1_555
H18 C20 1_555 1_555
C21 O5 1_555 1_555
H19 C21 1_555 1_555
H20 C21 1_555 1_555
H21 C21 1_555 1_555
C22 C1 1_555 1_555
C23 C22 1_555 1_555
H22 C23 1_555 1_555
C24 C23 1_555 1_555
H23 C24 1_555 1_555
C25 C24 1_555 1_555
H24 C25 1_555 1_555
C26 C25 1_555 1_555
H25 C26 1_555 1_555
C27 C22 1_555 1_555
H26 C27 1_555 1_555
C6 C11 1_555 1_555
C10 C11 1_555 1_555
C18 C19 1_555 1_555
C26 C27 1_555 1_555

#END
