
#######################################################################
#
#                 Cambridge Crystallographic Data Centre
#                                CCDC 
#
#######################################################################
#
# If this CIF has been generated from an entry in the Cambridge 
# Structural Database, then it will include bibliographic, chemical, 
# crystal, experimental, refinement or atomic coordinate data resulting 
# from the CCDC's data processing and validation procedures.
#
#######################################################################

data_WERROA04
_chemical_formula_moiety         'C19 H17 N1'
_chemical_name_systematic        1,1,1-triphenylmethanamine
_symmetry_cell_setting           rhombohedral
_symmetry_space_group_name_H-M   'R -3'
_symmetry_Int_Tables_number      148
_space_group_name_Hall           '-R 3'
loop_
_symmetry_equiv_pos_site_id
_symmetry_equiv_pos_as_xyz
1 x,y,z
2 -y,x-y,z
3 -x+y,-x,z
4 2/3+x,1/3+y,1/3+z
5 2/3-y,1/3+x-y,1/3+z
6 2/3-x+y,1/3-x,1/3+z
7 1/3+x,2/3+y,2/3+z
8 1/3-y,2/3+x-y,2/3+z
9 1/3-x+y,2/3-x,2/3+z
10 -x,-y,-z
11 y,-x+y,-z
12 x-y,x,-z
13 1/3-x,2/3-y,2/3-z
14 1/3+y,2/3-x+y,2/3-z
15 1/3+x-y,2/3+x,2/3-z
16 2/3-x,1/3-y,1/3-z
17 2/3+y,1/3-x+y,1/3-z
18 2/3+x-y,1/3+x,1/3-z
_cell_length_a                   19.262(4)
_cell_length_b                   19.262(4)
_cell_length_c                   27.055(6)
_cell_angle_alpha                90
_cell_angle_beta                 90
_cell_angle_gamma                120
_cell_volume                     8693.23
_exptl_crystal_colour            colorless
_exptl_crystal_description       block
_cell_formula_units_Z            24
loop_
_atom_site_label
_atom_site_type_symbol
_atom_site_fract_x
_atom_site_fract_y
_atom_site_fract_z
N1 N 0.7041(2) 0.43224(18) 0.06423(12)
C1 C 0.7245(3) 0.5105(3) 0.04529(16)
C2 C 0.8099(3) 0.5688(3) 0.06199(16)
C3 C 0.8667(4) 0.5451(3) 0.06569(19)
H1 H 0.8511 0.4917 0.0596
C4 C 0.9442(4) 0.5966(5) 0.0779(2)
H2 H 0.9803 0.5783 0.0815
C5 C 0.9679(4) 0.6740(6) 0.0848(3)
H3 H 1.0216 0.7100 0.0914
C6 C 0.9143(5) 0.7011(4) 0.0822(3)
H4 H 0.9313 0.7549 0.0881
C7 C 0.8352(4) 0.6481(3) 0.0709(2)
H5 H 0.7987 0.6663 0.0694
C8 C 0.6649(3) 0.5334(3) 0.06630(17)
C9 C 0.6318(4) 0.5690(3) 0.0392(2)
H6 H 0.6446 0.5788 0.0058
C10 C 0.5805(4) 0.5907(4) 0.0593(2)
H7 H 0.5596 0.6158 0.0400
C11 C 0.5603(4) 0.5753(4) 0.1079(3)
H8 H 0.5270 0.5917 0.1223
C12 C 0.5887(4) 0.5364(5) 0.1352(2)
H9 H 0.5717 0.5221 0.1677
C13 C 0.6425(4) 0.5177(4) 0.1151(2)
H10 H 0.6644 0.4940 0.1349
C14 C 0.7184(3) 0.5042(2) -0.01153(16)
C15 C 0.6533(3) 0.4390(3) -0.03274(19)
H11 H 0.6155 0.3987 -0.0126
C16 C 0.6436(3) 0.4326(4) -0.0831(2)
H12 H 0.5997 0.3879 -0.0968
C17 C 0.6981(4) 0.4915(4) -0.11313(19)
H13 H 0.6910 0.4881 -0.1472
C18 C 0.7624(4) 0.5547(4) -0.0928(2)
H14 H 0.8003 0.5946 -0.1131
C19 C 0.7732(3) 0.5613(3) -0.04199(19)
H15 H 0.8184 0.6052 -0.0287
N2 N 0.6667 0.3333 0.15360(19)
C20 C 0.6667 0.3333 0.2067(3)
C21 C 0.6037(3) 0.3547(3) 0.22421(16)
C22 C 0.6131(3) 0.3968(3) 0.26696(18)
H16 H 0.6605 0.4167 0.2848
C23 C 0.5528(4) 0.4100(3) 0.2840(2)
H17 H 0.5595 0.4380 0.3133
C24 C 0.4833(4) 0.3817(4) 0.2574(3)
H18 H 0.4421 0.3892 0.2692
C25 C 0.4743(3) 0.3428(4) 0.2141(3)
H19 H 0.4280 0.3257 0.1954
C26 C 0.5340(3) 0.3288(3) 0.1979(2)
H20 H 0.5269 0.3012 0.1684
C21A C 0.6453(3) 0.2490(4) 0.22421(16)
C22A C 0.6032(3) 0.2163(4) 0.26696(18)
H16A H 0.5833 0.2438 0.2848
C23A C 0.5900(3) 0.1428(5) 0.2840(2)
H17A H 0.5620 0.1215 0.3133
C24A C 0.6183(4) 0.1016(6) 0.2574(3)
H18A H 0.6108 0.0529 0.2692
C25A C 0.6572(4) 0.1315(5) 0.2141(3)
H19A H 0.6743 0.1023 0.1954
C26A C 0.6712(3) 0.2052(4) 0.1979(2)
H20A H 0.6988 0.2257 0.1684
C21B C 0.7510(4) 0.3963(3) 0.22421(16)
C22B C 0.7837(4) 0.3869(3) 0.26696(18)
H16B H 0.7562 0.3395 0.2848
C23B C 0.8572(5) 0.4472(4) 0.2840(2)
H17B H 0.8785 0.4405 0.3133
C24B C 0.8984(6) 0.5167(4) 0.2574(3)
H18B H 0.9471 0.5579 0.2692
C25B C 0.8685(5) 0.5257(3) 0.2141(3)
H19B H 0.8977 0.5720 0.1954
C26B C 0.7948(4) 0.4660(3) 0.1979(2)
H20B H 0.7743 0.4731 0.1684
loop_
_geom_bond_atom_site_label_1
_geom_bond_atom_site_label_2
_geom_bond_site_symmetry_1
_geom_bond_site_symmetry_2
N1 C1 1_555 1_555
C1 C2 1_555 1_555
C2 C3 1_555 1_555
C3 H1 1_555 1_555
C4 C3 1_555 1_555
H2 C4 1_555 1_555
C5 C4 1_555 1_555
H3 C5 1_555 1_555
C6 C5 1_555 1_555
H4 C6 1_555 1_555
C7 C2 1_555 1_555
H5 C7 1_555 1_555
C8 C1 1_555 1_555
C9 C8 1_555 1_555
H6 C9 1_555 1_555
C10 C9 1_555 1_555
H7 C10 1_555 1_555
C11 C10 1_555 1_555
H8 C11 1_555 1_555
C12 C11 1_555 1_555
H9 C12 1_555 1_555
C13 C8 1_555 1_555
H10 C13 1_555 1_555
C14 C1 1_555 1_555
C15 C14 1_555 1_555
H11 C15 1_555 1_555
C16 C15 1_555 1_555
H12 C16 1_555 1_555
C17 C16 1_555 1_555
H13 C17 1_555 1_555
C18 C17 1_555 1_555
H14 C18 1_555 1_555
C19 C14 1_555 1_555
H15 C19 1_555 1_555
N2 C20 1_555 1_555
C20 C21 1_555 1_555
C21 C22 1_555 1_555
C22 H16 1_555 1_555
C23 C22 1_555 1_555
H17 C23 1_555 1_555
C24 C23 1_555 1_555
H18 C24 1_555 1_555
C25 C24 1_555 1_555
H19 C25 1_555 1_555
C26 C21 1_555 1_555
H20 C26 1_555 1_555
C21A C20 1_555 1_555
C22A C21A 1_555 1_555
H16A C22A 1_555 1_555
C23A C22A 1_555 1_555
H17A C23A 1_555 1_555
C24A C23A 1_555 1_555
H18A C24A 1_555 1_555
C25A C24A 1_555 1_555
H19A C25A 1_555 1_555
C26A C21A 1_555 1_555
H20A C26A 1_555 1_555
C21B C20 1_555 1_555
C22B C21B 1_555 1_555
H16B C22B 1_555 1_555
C23B C22B 1_555 1_555
H17B C23B 1_555 1_555
C24B C23B 1_555 1_555
H18B C24B 1_555 1_555
C25B C24B 1_555 1_555
H19B C25B 1_555 1_555
C26B C21B 1_555 1_555
H20B C26B 1_555 1_555
C6 C7 1_555 1_555
C12 C13 1_555 1_555
C18 C19 1_555 1_555
C25 C26 1_555 1_555
C25A C26A 1_555 1_555
C25B C26B 1_555 1_555

#END
