
#######################################################################
#
#                 Cambridge Crystallographic Data Centre
#                                CCDC 
#
#######################################################################
#
# If this CIF has been generated from an entry in the Cambridge 
# Structural Database, then it will include bibliographic, chemical, 
# crystal, experimental, refinement or atomic coordinate data resulting 
# from the CCDC's data processing and validation procedures.
#
#######################################################################

data_WERYOK
_chemical_formula_moiety         'C22 H23 N1 O2'
_chemical_name_systematic        
(2,3-diphenylcyclopent-2-en-1-yl)(morpholin-4-yl)methanone
_symmetry_cell_setting           monoclinic
_symmetry_space_group_name_H-M   'I 2/a'
_symmetry_Int_Tables_number      15
_space_group_name_Hall           '-I 2ya'
loop_
_symmetry_equiv_pos_site_id
_symmetry_equiv_pos_as_xyz
1 x,y,z
2 1/2-x,y,-z
3 1/2+x,1/2+y,1/2+z
4 -x,1/2+y,1/2-z
5 -x,-y,-z
6 1/2+x,-y,z
7 1/2-x,1/2-y,1/2-z
8 x,1/2-y,1/2+z
_cell_length_a                   9.9392(2)
_cell_length_b                   10.7960(2)
_cell_length_c                   32.3003(4)
_cell_angle_alpha                90
_cell_angle_beta                 96.0800(10)
_cell_angle_gamma                90
_cell_volume                     3446.44
_exptl_crystal_description       plate
_cell_formula_units_Z            8
loop_
_atom_site_label
_atom_site_type_symbol
_atom_site_fract_x
_atom_site_fract_y
_atom_site_fract_z
O1 O 0.26187(9) 0.96608(8) 0.31102(3)
O2 O 0.51520(9) 0.59118(8) 0.28786(3)
N1 N 0.37170(13) 0.72412(11) 0.31441(4)
C1 C 0.44967(11) 0.53058(10) 0.39858(3)
C2 C 0.38754(12) 0.52460(11) 0.43540(3)
H1 H 0.320022 0.466283 0.437925
C3 C 0.64065(12) 0.17360(11) 0.44842(3)
H2 H 0.721744 0.191592 0.464378
C4 C 0.40581(11) 0.44653(10) 0.36321(3)
C5 C 0.58103(11) 0.26167(11) 0.42110(3)
H3 H 0.621064 0.339166 0.419586
C6 C 0.41392(12) 0.60742(11) 0.30603(3)
C7 C 0.40479(11) 0.32187(10) 0.36302(3)
C8 C 0.42531(12) 0.60453(11) 0.46822(3)
H4 H 0.383168 0.599139 0.492526
C9 C 0.55093(12) 0.61911(10) 0.39583(4)
H5 H 0.593820 0.624507 0.371660
C10 C 0.33872(12) 0.49659(11) 0.32150(3)
H6 H 0.244717 0.519541 0.324299
C11 C 0.46136(11) 0.23533(10) 0.39579(3)
C12 C 0.52543(12) 0.69239(11) 0.46504(4)
H7 H 0.550189 0.746237 0.487004
C13 C 0.40262(12) 0.11826(11) 0.39946(4)
H8 H 0.323711 0.098313 0.382696
C14 C 0.33604(12) 0.27285(11) 0.32216(3)
H9 H 0.243261 0.248946 0.324811
H10 H 0.384397 0.202268 0.312502
C15 C 0.58838(12) 0.69919(11) 0.42872(4)
H11 H 0.655925 0.757614 0.426398
C16 C 0.58018(13) 0.05876(12) 0.45214(4)
H12 H 0.619691 0.000457 0.470836
C17 C 0.34189(13) 0.38326(11) 0.29288(4)
H13 H 0.264812 0.383352 0.271775
H14 H 0.424373 0.381818 0.279299
C18 C 0.46051(13) 0.03164(12) 0.42778(4)
H15 H 0.418875 -0.044695 0.430389
C19 C 0.35948(14) 0.93058(13) 0.28419(4)
H16 H 0.412537 1.002285 0.277921
H17 H 0.313821 0.899561 0.258219
C20 C 0.45201(13) 0.83171(12) 0.30415(4)
H18 H 0.516572 0.807102 0.285187
H19 H 0.501934 0.864011 0.329273
C21 C 0.26512(14) 0.75808(12) 0.34023(4)
H20 H 0.305298 0.784678 0.367455
H21 H 0.208296 0.686734 0.343931
C22 C 0.18013(15) 0.86206(13) 0.31949(5)
H22 H 0.132603 0.832169 0.293643
H23 H 0.113127 0.887662 0.337518
N2? N 0.3386(12) 0.7123(11) 0.2996(3)
C23? C 0.4036(11) 0.8131(10) 0.2784(3)
H24? H 0.351941 0.829967 0.251778
H25? H 0.493938 0.787920 0.273119
C24? C 0.2077(11) 0.7507(10) 0.3126(3)
H26? H 0.171464 0.685636 0.328937
H27? H 0.143790 0.766239 0.288357
C25? C 0.4116(12) 0.9274(10) 0.3044(4)
H28? H 0.455571 0.993343 0.290490
H29? H 0.463430 0.911585 0.331040
C26? C 0.2286(13) 0.8672(11) 0.3384(4)
H30? H 0.146908 0.887391 0.350911
H31? H 0.301596 0.855409 0.360453
loop_
_geom_bond_atom_site_label_1
_geom_bond_atom_site_label_2
_geom_bond_site_symmetry_1
_geom_bond_site_symmetry_2
O1 C19 1_555 1_555
O2 C6 1_555 1_555
N1 C6 1_555 1_555
C1 C2 1_555 1_555
C2 H1 1_555 1_555
C3 H2 1_555 1_555
C4 C1 1_555 1_555
C5 C3 1_555 1_555
H3 C5 1_555 1_555
C6 C10 1_555 1_555
C7 C4 1_555 1_555
C8 C2 1_555 1_555
H4 C8 1_555 1_555
C9 C1 1_555 1_555
H5 C9 1_555 1_555
C10 C4 1_555 1_555
H6 C10 1_555 1_555
C11 C5 1_555 1_555
C12 C8 1_555 1_555
H7 C12 1_555 1_555
C13 C11 1_555 1_555
H8 C13 1_555 1_555
C14 C7 1_555 1_555
H9 C14 1_555 1_555
H10 C14 1_555 1_555
C15 C9 1_555 1_555
H11 C15 1_555 1_555
C16 C3 1_555 1_555
H12 C16 1_555 1_555
C17 C10 1_555 1_555
H13 C17 1_555 1_555
H14 C17 1_555 1_555
C18 C13 1_555 1_555
H15 C18 1_555 1_555
C19 H16 1_555 1_555
H17 C19 1_555 1_555
C20 N1 1_555 1_555
H18 C20 1_555 1_555
H19 C20 1_555 1_555
C21 N1 1_555 1_555
H20 C21 1_555 1_555
H21 C21 1_555 1_555
C22 O1 1_555 1_555
H22 C22 1_555 1_555
H23 C22 1_555 1_555
C7 C11 1_555 1_555
C12 C15 1_555 1_555
C14 C17 1_555 1_555
C16 C18 1_555 1_555
C19 C20 1_555 1_555
C21 C22 1_555 1_555

#END
