
#######################################################################
#
#                 Cambridge Crystallographic Data Centre
#                                CCDC 
#
#######################################################################
#
# If this CIF has been generated from an entry in the Cambridge 
# Structural Database, then it will include bibliographic, chemical, 
# crystal, experimental, refinement or atomic coordinate data resulting 
# from the CCDC's data processing and validation procedures.
#
#######################################################################

data_WESCIG
_chemical_formula_moiety         'C12 H24 K1 O6 1+,C1 N1 O2 S2 1-'
_chemical_name_systematic        
'(1,4,7,10,13,16-Hexaoxacyclo-octadecane)-potassium thiocyanatosulfite'
_symmetry_cell_setting           triclinic
_symmetry_space_group_name_H-M   'P -1'
_symmetry_Int_Tables_number      2
_space_group_name_Hall           '-P 1'
loop_
_symmetry_equiv_pos_site_id
_symmetry_equiv_pos_as_xyz
1 x,y,z
2 -x,-y,-z
_cell_length_a                   7.635(2)
_cell_length_b                   9.595(2)
_cell_length_c                   8.171(1)
_cell_angle_alpha                102.95(2)
_cell_angle_beta                 95.68(2)
_cell_angle_gamma                111.91(2)
_cell_volume                     530.078
_exptl_crystal_colour            yellow
_cell_formula_units_Z            1
loop_
_atom_site_label
_atom_site_type_symbol
_atom_site_fract_x
_atom_site_fract_y
_atom_site_fract_z
O1 O -0.263(1) 0.0373(8) 0.2034(8)
O2 O -0.074(1) -0.1613(8) 0.2470(9)
O3 O 0.119(1) -0.2496(9) -0.0092(9)
C1 C -0.2660(9) 0.1883(8) 0.2399(8)
C2 C -0.2534(9) -0.0202(8) 0.3505(9)
C3 C -0.2528(9) -0.1729(8) 0.3016(9)
C4 C -0.0564(9) -0.3073(8) 0.2043(9)
C5 C 0.1268(9) -0.2858(9) 0.1492(9)
C6 C -0.2873(9) 0.2295(9) 0.0815(9)
K1 K 0.0000 0.0000 0.0000
H1 H -0.3773(9) 0.1858(8) 0.2961(8)
H2 H -0.1432(9) 0.2677(8) 0.3187(8)
H3 H -0.3675(9) -0.0250(8) 0.4031(9)
H4 H -0.1324(9) 0.0520(8) 0.4362(9)
H5 H -0.2663(9) -0.2201(8) 0.3997(9)
H6 H -0.3635(9) -0.2409(8) 0.2037(9)
H7 H -0.0597(9) -0.3476(8) 0.3074(9)
H8 H -0.1648(9) -0.3853(8) 0.1089(9)
H9 H 0.1502(9) -0.3836(9) 0.1339(9)
H10 H 0.2338(9) -0.1975(9) 0.2380(9)
H11 H -0.3035(9) 0.3307(9) 0.1047(9)
H12 H -0.4031(9) 0.1447(9) -0.0017(9)
C6A C 0.2873(9) -0.2295(9) -0.0815(9)
O3A O -0.119(1) 0.2496(9) 0.0092(9)
O1A O 0.263(1) -0.0373(8) -0.2034(8)
O2A O 0.074(1) 0.1613(8) -0.2470(9)
C1A C 0.2660(9) -0.1883(8) -0.2399(8)
H11A H 0.3035(9) -0.3307(9) -0.1047(9)
H12A H 0.4031(9) -0.1447(9) 0.0017(9)
C5A C -0.1268(9) 0.2858(9) -0.1492(9)
C2A C 0.2534(9) 0.0202(8) -0.3505(9)
C3A C 0.2528(9) 0.1729(8) -0.3016(9)
C4A C 0.0564(9) 0.3073(8) -0.2043(9)
H1A H 0.3773(9) -0.1858(8) -0.2961(8)
H2A H 0.1432(9) -0.2677(8) -0.3187(8)
H9A H -0.1502(9) 0.3836(9) -0.1339(9)
H10A H -0.2338(9) 0.1975(9) -0.2380(9)
H3A H 0.3675(9) 0.0250(8) -0.4031(9)
H4A H 0.1324(9) -0.0520(8) -0.4362(9)
H5A H 0.2663(9) 0.2201(8) -0.3997(9)
H6A H 0.3635(9) 0.2409(8) -0.2037(9)
H7A H 0.0597(9) 0.3476(8) -0.3074(9)
H8A H 0.1648(9) 0.3853(8) -0.1089(9)
S1? S 0.660(1) 0.4625(9) 0.5485(9)
C7? C 0.670(1) 0.605(2) 0.675(2)
N1? N 0.678(2) 0.727(2) 0.781(2)
S2? S 0.3375(9) 0.404(1) 0.3188(9)
O4? O 0.275(1) 0.233(1) 0.271(1)
O5? O 0.246(2) 0.470(2) 0.429(2)
O6? O 0.424(2) 0.481(2) 0.206(2)
loop_
_geom_bond_atom_site_label_1
_geom_bond_atom_site_label_2
_geom_bond_site_symmetry_1
_geom_bond_site_symmetry_2
O1 C1 1_555 1_555
O2 C3 1_555 1_555
O3 C5 1_555 1_555
C1 C6 1_555 1_555
C2 O1 1_555 1_555
C3 C2 1_555 1_555
C4 O2 1_555 1_555
C5 C4 1_555 1_555
C6 H11 1_555 1_555
K1 O1 1_555 1_555
H1 C1 1_555 1_555
H2 C1 1_555 1_555
H3 C2 1_555 1_555
H4 C2 1_555 1_555
H5 C3 1_555 1_555
H6 C3 1_555 1_555
H7 C4 1_555 1_555
H8 C4 1_555 1_555
H9 C5 1_555 1_555
H10 C5 1_555 1_555
H12 C6 1_555 1_555
C6A O3 1_555 1_555
O3A C6 1_555 1_555
O1A K1 1_555 1_555
O2A K1 1_555 1_555
C1A C6A 1_555 1_555
H11A C6A 1_555 1_555
H12A C6A 1_555 1_555
C5A O3A 1_555 1_555
C2A O1A 1_555 1_555
C3A O2A 1_555 1_555
C4A O2A 1_555 1_555
H1A C1A 1_555 1_555
H2A C1A 1_555 1_555
H9A C5A 1_555 1_555
H10A C5A 1_555 1_555
H3A C2A 1_555 1_555
H4A C2A 1_555 1_555
H5A C3A 1_555 1_555
H6A C3A 1_555 1_555
H7A C4A 1_555 1_555
H8A C4A 1_555 1_555
O2 K1 1_555 1_555
O3 K1 1_555 1_555
K1 O3A 1_555 1_555
O1A C1A 1_555 1_555
C5A C4A 1_555 1_555
C2A C3A 1_555 1_555

#END
