
#######################################################################
#
#                 Cambridge Crystallographic Data Centre
#                                CCDC 
#
#######################################################################
#
# If this CIF has been generated from an entry in the Cambridge 
# Structural Database, then it will include bibliographic, chemical, 
# crystal, experimental, refinement or atomic coordinate data resulting 
# from the CCDC's data processing and validation procedures.
#
#######################################################################

data_WESPAM
_chemical_compound_source        
'Aconitum nagarum var. lasiandrum (Ranuculaceae)'
_chemical_name_common            4,5,14-Triacetyl-16-epipyroaconine
_chemical_formula_moiety         'C31 H45 N1 O11'
_chemical_name_systematic        
'11-ethyl-6,16,18-tris(methyloxy)-13-methyloxymethyl-7-oxo-11-azahexacyclo[8.6.2.1^2,5^.0^1,10^.0^3,8^.0^13,17^]nonadecane-4,5,14-triyl triacetate'
_chemical_properties_biological  
'folk medicine to treat rheumatism and neuralgia'
_symmetry_cell_setting           orthorhombic
_symmetry_space_group_name_H-M   'P 21 21 21'
_symmetry_Int_Tables_number      19
_space_group_name_Hall           'P 2ac 2ab'
loop_
_symmetry_equiv_pos_site_id
_symmetry_equiv_pos_as_xyz
1 x,y,z
2 1/2-x,-y,1/2+z
3 -x,1/2+y,1/2-z
4 1/2+x,1/2-y,-z
_cell_length_a                   9.356(1)
_cell_length_b                   12.347(2)
_cell_length_c                   27.425(8)
_cell_angle_alpha                90
_cell_angle_beta                 90
_cell_angle_gamma                90
_cell_volume                     3168.1
_exptl_crystal_colour            colorless
_cell_formula_units_Z            4
_exptl_crystal_recrystallization_method cyclohexane/acetone
loop_
_atom_site_label
_atom_site_type_symbol
_atom_site_fract_x
_atom_site_fract_y
_atom_site_fract_z
O1 O 1.0353(2) 0.75417(18) 0.33996(8)
O2 O 0.9516(3) 1.05499(18) 0.44421(9)
O3 O 1.1111(4) 1.0182(3) 0.50328(11)
O4 O 0.7197(4) 0.9446(2) 0.51507(9)
O5 O 0.4603(3) 0.86303(19) 0.42243(8)
O6 O 0.8351(3) 0.38172(18) 0.30333(8)
O7 O 0.9733(3) 0.3520(2) 0.36913(11)
O8 O 0.5450(3) 0.40656(19) 0.35619(8)
O9 O 0.6283(4) 0.2544(3) 0.38878(17)
O10 O 0.5167(3) 0.6628(2) 0.26319(8)
O11 O 0.7575(3) 0.5520(2) 0.23996(8)
N1 N 0.7491(3) 0.9150(2) 0.33710(9)
C1 C 0.9712(3) 0.7808(2) 0.38585(12)
H1 H 1.0161 0.7353 0.4108
C2 C 1.0080(4) 0.8979(3) 0.39737(12)
H2 H 1.1082 0.9029 0.4062
H3 H 0.9926 0.9420 0.3686
C3 C 0.9182(4) 0.9402(3) 0.43843(12)
H4 H 0.9426 0.9015 0.4685
C4 C 0.7578(4) 0.9291(3) 0.42866(12)
C5 C 0.7233(4) 0.8056(2) 0.42691(11)
H5 H 0.7455 0.7711 0.4582
C6 C 0.5656(3) 0.7816(3) 0.41164(11)
H6 H 0.5360 0.7141 0.4274
C7 C 0.5734(3) 0.7616(3) 0.35675(11)
H7 H 0.5002 0.8035 0.3395
C8 C 0.5534(4) 0.6392(3) 0.34789(11)
H8 H 0.4543 0.6215 0.3561
C9 C 0.6501(3) 0.5768(3) 0.38373(12)
H9 H 0.6097 0.5776 0.4167
C10 C 0.8021(3) 0.6250(2) 0.38342(12)
H10 H 0.8517 0.5978 0.4124
C11 C 0.8122(3) 0.7520(2) 0.38436(11)
C12 C 0.8724(3) 0.5697(3) 0.33773(12)
H11 H 0.8843 0.6217 0.3115
H12 H 0.9652 0.5400 0.3460
C13 C 0.7686(4) 0.4786(3) 0.32236(12)
C14 C 0.6776(4) 0.4613(3) 0.36677(12)
H13 H 0.7313 0.4214 0.3916
C15 C 0.5747(4) 0.6115(3) 0.29430(12)
C16 C 0.6743(4) 0.5167(3) 0.28016(12)
H14 H 0.6150 0.4557 0.2695
C17 C 0.7255(3) 0.7983(2) 0.34155(11)
H15 H 0.7534 0.7620 0.3112
C18 C 0.6815(4) 0.9893(3) 0.46960(12)
H16 H 0.7075 1.0653 0.4688
H17 H 0.5789 0.9839 0.4651
C19 C 0.7117(4) 0.9803(3) 0.38007(11)
H18 H 0.6090 0.9910 0.3806
H19 H 0.7562 1.0509 0.3771
C20 C 1.1796(4) 0.7199(3) 0.34298(16)
H20 H 1.2325 0.7696 0.3629
H21 H 1.2205 0.7179 0.3109
H22 H 1.1836 0.6489 0.3572
C21 C 0.6910(4) 0.9614(3) 0.29201(12)
H23 H 0.6837 1.0393 0.2958
H24 H 0.5953 0.9334 0.2870
C22 C 0.7776(6) 0.9378(4) 0.24836(14)
H25 H 0.8655 0.9776 0.2499
H26 H 0.7255 0.9588 0.2197
H27 H 0.7979 0.8617 0.2470
C23 C 1.0477(6) 1.0815(4) 0.47785(15)
C24 C 1.0665(7) 1.2042(3) 0.47941(18)
H28 H 1.0042 1.2373 0.4559
H29 H 1.1639 1.2222 0.4719
H30 H 1.0434 1.2304 0.5114
C25 C 0.6914(7) 1.0129(4) 0.55426(14)
H34 H 0.7449 1.0787 0.5506
H35 H 0.7185 0.9777 0.5841
H36 H 0.5911 1.0294 0.5551
C26 C 0.3856(4) 0.8405(4) 0.46608(14)
H37 H 0.3281 0.7769 0.4618
H38 H 0.3252 0.9008 0.4741
H39 H 0.4528 0.8287 0.4920
C27 C 0.9277(5) 0.3252(3) 0.33004(17)
C28 C 0.9687(5) 0.2201(3) 0.30512(17)
H40 H 0.9201 0.2149 0.2744
H41 H 0.9418 0.1601 0.3254
H42 H 1.0701 0.2188 0.2998
C29 C 0.5338(5) 0.3019(3) 0.36977(17)
C30 C 0.3924(5) 0.2565(4) 0.35619(17)
H46 H 0.3978 0.2254 0.3242
H47 H 0.3222 0.3132 0.3564
H48 H 0.3658 0.2016 0.3792
C31 C 0.7544(6) 0.4885(4) 0.19887(15)
H49 H 0.8141 0.5202 0.1742
H50 H 0.6581 0.4836 0.1870
H51 H 0.7890 0.4174 0.2066
H31? H 1.1368 1.2226 0.5035
H32? H 0.9771 1.2377 0.4876
H33? H 1.0976 1.2296 0.4481
H43? H 1.0346 0.1809 0.3253
H44? H 1.0129 0.2357 0.2743
H45? H 0.8846 0.1771 0.2999
H52? H 0.6934 0.4273 0.2044
H53? H 0.8494 0.4638 0.1916
H54? H 0.7185 0.5301 0.1719
loop_
_geom_bond_atom_site_label_1
_geom_bond_atom_site_label_2
_geom_bond_site_symmetry_1
_geom_bond_site_symmetry_2
O1 C1 1_555 1_555
O2 C3 1_555 1_555
O3 C23 1_555 1_555
O4 C18 1_555 1_555
O5 C6 1_555 1_555
O6 C13 1_555 1_555
O7 C27 1_555 1_555
O8 C14 1_555 1_555
O9 C29 1_555 1_555
O10 C15 1_555 1_555
O11 C16 1_555 1_555
N1 C17 1_555 1_555
C1 H1 1_555 1_555
C2 C1 1_555 1_555
H2 C2 1_555 1_555
H3 C2 1_555 1_555
C3 C2 1_555 1_555
H4 C3 1_555 1_555
C4 C3 1_555 1_555
C5 C4 1_555 1_555
H5 C5 1_555 1_555
C6 C5 1_555 1_555
H6 C6 1_555 1_555
C7 C6 1_555 1_555
H7 C7 1_555 1_555
C8 C7 1_555 1_555
H8 C8 1_555 1_555
C9 C8 1_555 1_555
H9 C9 1_555 1_555
C10 C9 1_555 1_555
H10 C10 1_555 1_555
C11 C1 1_555 1_555
C12 C10 1_555 1_555
H11 C12 1_555 1_555
H12 C12 1_555 1_555
C13 C12 1_555 1_555
C14 C9 1_555 1_555
H13 C14 1_555 1_555
C15 C8 1_555 1_555
C16 C13 1_555 1_555
H14 C16 1_555 1_555
C17 C7 1_555 1_555
H15 C17 1_555 1_555
C18 C4 1_555 1_555
H16 C18 1_555 1_555
H17 C18 1_555 1_555
C19 N1 1_555 1_555
H18 C19 1_555 1_555
H19 C19 1_555 1_555
C20 O1 1_555 1_555
H20 C20 1_555 1_555
H21 C20 1_555 1_555
H22 C20 1_555 1_555
C21 N1 1_555 1_555
H23 C21 1_555 1_555
H24 C21 1_555 1_555
C22 C21 1_555 1_555
H25 C22 1_555 1_555
H26 C22 1_555 1_555
H27 C22 1_555 1_555
C23 O2 1_555 1_555
C24 C23 1_555 1_555
H28 C24 1_555 1_555
H29 C24 1_555 1_555
H30 C24 1_555 1_555
C25 O4 1_555 1_555
H34 C25 1_555 1_555
H35 C25 1_555 1_555
H36 C25 1_555 1_555
C26 O5 1_555 1_555
H37 C26 1_555 1_555
H38 C26 1_555 1_555
H39 C26 1_555 1_555
C27 O6 1_555 1_555
C28 C27 1_555 1_555
H40 C28 1_555 1_555
H41 C28 1_555 1_555
H42 C28 1_555 1_555
C29 O8 1_555 1_555
C30 C29 1_555 1_555
H46 C30 1_555 1_555
H47 C30 1_555 1_555
H48 C30 1_555 1_555
C31 O11 1_555 1_555
H49 C31 1_555 1_555
H50 C31 1_555 1_555
H51 C31 1_555 1_555
C4 C19 1_555 1_555
C5 C11 1_555 1_555
C10 C11 1_555 1_555
C11 C17 1_555 1_555
C13 C14 1_555 1_555
C15 C16 1_555 1_555

#END
