
#######################################################################
#
#                 Cambridge Crystallographic Data Centre
#                                CCDC 
#
#######################################################################
#
# If this CIF has been generated from an entry in the Cambridge 
# Structural Database, then it will include bibliographic, chemical, 
# crystal, experimental, refinement or atomic coordinate data resulting 
# from the CCDC's data processing and validation procedures.
#
#######################################################################

data_WESWEZ
_chemical_formula_moiety         'C22 H17 Cl1 F3 N3 O7'
_chemical_name_systematic        
'(R)-Methyl 7-chloro-2-((methoxycarbonyl)(4-(trifluoromethoxy)phenyl)carbamoyl)-2,5-dihydroindeno[1,2-e][1,3,4]oxadiazine-4a(3H)-carboxylate'
_symmetry_cell_setting           monoclinic
_symmetry_space_group_name_H-M   'C 2'
_symmetry_Int_Tables_number      5
_space_group_name_Hall           'C 2y'
loop_
_symmetry_equiv_pos_site_id
_symmetry_equiv_pos_as_xyz
1 x,y,z
2 -x,y,-z
3 1/2+x,1/2+y,z
4 1/2-x,1/2+y,-z
_cell_length_a                   19.4985(15)
_cell_length_b                   6.3721(5)
_cell_length_c                   18.9126(15)
_cell_angle_alpha                90
_cell_angle_beta                 101.588(3)
_cell_angle_gamma                90
_cell_volume                     2301.93
_cell_formula_units_Z            4
loop_
_atom_site_label
_atom_site_type_symbol
_atom_site_fract_x
_atom_site_fract_y
_atom_site_fract_z
C1 C 0.1297(4) 1.1937(19) 0.4828(4)
C2 C 0.2262(3) 0.9599(10) 0.6088(2)
H1 H 0.2274 0.8622 0.5725
C3 C 0.2045(2) 1.1605(9) 0.5915(2)
C4 C 0.5864(3) 0.4532(9) 0.9773(3)
H2 H 0.5822 0.3035 0.9726
H3 H 0.5692 0.4977 1.0191
H4 H 0.6346 0.4928 0.9826
C5 C 0.2465(2) 0.9030(9) 0.6804(2)
H5 H 0.2633 0.7688 0.6930
C6 C 0.1999(2) 1.3087(9) 0.6430(3)
H6 H 0.1845 1.4438 0.6297
C7 C 0.2231(3) 0.6220(9) 0.9369(3)
H7 H 0.2432 0.6158 0.9875
H8 H 0.2329 0.4938 0.9142
H9 H 0.1734 0.6402 0.9304
C8 C 0.4100(2) 0.4126(7) 0.7261(2)
H10 H 0.3654 0.3967 0.7358
C9 C 0.5451(2) 0.4642(8) 0.6971(2)
H11 H 0.5897 0.4789 0.6871
C10 C 0.2191(2) 1.2524(8) 0.7161(2)
H12 H 0.2169 1.3498 0.7522
C11 C 0.5572(2) 0.7877(8) 0.7829(2)
H13 H 0.5588 0.9028 0.7497
H14 H 0.6045 0.7538 0.8073
C12 C 0.2281(2) 0.8210(7) 0.8334(2)
C13 C 0.24114(19) 1.0495(7) 0.7332(2)
C14 C 0.4336(2) 0.2790(8) 0.6789(2)
H15 H 0.4051 0.1717 0.6563
C15 C 0.44668(19) 1.1037(7) 0.88151(19)
H16 H 0.4394 1.2539 0.8840
H17 H 0.4612 1.0513 0.9304
C16 C 0.52119(19) 0.5981(7) 0.74379(19)
C17 C 0.5002(2) 0.3061(8) 0.6654(2)
C18 C 0.44146(19) 0.7408(6) 0.80648(18)
C19 C 0.54646(19) 0.7601(6) 0.9120(2)
C20 C 0.45391(19) 0.5714(6) 0.75890(18)
C21 C 0.5109(2) 0.8437(6) 0.83794(19)
C22 C 0.3196(2) 1.0913(7) 0.85134(19)
N1 N 0.25895(17) 0.9910(6) 0.80844(17)
N2 N 0.38118(16) 1.0023(5) 0.84700(16)
N3 N 0.38112(15) 0.8135(5) 0.80855(16)
O1 O 0.1879(2) 1.2213(8) 0.51791(19)
O2 O 0.18430(17) 0.7124(6) 0.79751(18)
O3 O 0.31614(16) 1.2489(6) 0.88543(18)
O4 O 0.25308(16) 0.7980(6) 0.90448(15)
O5 O 0.57469(16) 0.8692(5) 0.96157(16)
O6 O 0.54580(15) 0.5519(5) 0.91371(15)
O7 O 0.49980(13) 1.0635(4) 0.84222(13)
F1 F 0.1171(7) 0.9819(18) 0.4774(4)
F2 F 0.1170(2) 1.2530(8) 0.41556(16)
F3 F 0.0787(3) 1.236(2) 0.5100(3)
Cl1 Cl 0.52932(7) 0.1319(2) 0.60658(7)
loop_
_geom_bond_atom_site_label_1
_geom_bond_atom_site_label_2
_geom_bond_site_symmetry_1
_geom_bond_site_symmetry_2
C1 O1 1_555 1_555
C2 H1 1_555 1_555
C3 C2 1_555 1_555
C4 H2 1_555 1_555
H3 C4 1_555 1_555
H4 C4 1_555 1_555
C5 C2 1_555 1_555
H5 C5 1_555 1_555
C6 C3 1_555 1_555
H6 C6 1_555 1_555
C7 H7 1_555 1_555
H8 C7 1_555 1_555
H9 C7 1_555 1_555
C8 H10 1_555 1_555
C9 H11 1_555 1_555
C10 C6 1_555 1_555
H12 C10 1_555 1_555
C11 H13 1_555 1_555
H14 C11 1_555 1_555
C12 N1 1_555 1_555
C13 C5 1_555 1_555
C14 C8 1_555 1_555
H15 C14 1_555 1_555
C15 H16 1_555 1_555
H17 C15 1_555 1_555
C16 C9 1_555 1_555
C17 C9 1_555 1_555
C18 C20 1_555 1_555
C19 C21 1_555 1_555
C20 C8 1_555 1_555
C21 C11 1_555 1_555
C22 N1 1_555 1_555
N1 C13 1_555 1_555
N2 C15 1_555 1_555
N3 C18 1_555 1_555
O1 C3 1_555 1_555
O2 C12 1_555 1_555
O3 C22 1_555 1_555
O4 C7 1_555 1_555
O5 C19 1_555 1_555
O6 C4 1_555 1_555
O7 C15 1_555 1_555
F1 C1 1_555 1_555
F2 C1 1_555 1_555
F3 C1 1_555 1_555
Cl1 C17 1_555 1_555
C10 C13 1_555 1_555
C11 C16 1_555 1_555
C12 O4 1_555 1_555
C14 C17 1_555 1_555
C16 C20 1_555 1_555
C18 C21 1_555 1_555
C19 O6 1_555 1_555
C21 O7 1_555 1_555
C22 N2 1_555 1_555
N2 N3 1_555 1_555

#END
