
#######################################################################
#
#                 Cambridge Crystallographic Data Centre
#                                CCDC 
#
#######################################################################
#
# If this CIF has been generated from an entry in the Cambridge 
# Structural Database, then it will include bibliographic, chemical, 
# crystal, experimental, refinement or atomic coordinate data resulting 
# from the CCDC's data processing and validation procedures.
#
#######################################################################

data_WETGUZ
_chemical_formula_moiety         'C22 H25 Cl1 O6'
_chemical_name_systematic        
"5'-t-Butyl 2'-ethyl 5-chloro-4,6-dimethyl-3-oxo-3H-spiro[1-benzofuran-2,1'-cyclopent[2]ene]-2',5'-dicarboxylate"
_symmetry_cell_setting           triclinic
_symmetry_space_group_name_H-M   'P -1'
_symmetry_Int_Tables_number      2
_space_group_name_Hall           '-P 1'
loop_
_symmetry_equiv_pos_site_id
_symmetry_equiv_pos_as_xyz
1 x,y,z
2 -x,-y,-z
_cell_length_a                   9.254(4)
_cell_length_b                   10.490(5)
_cell_length_c                   11.773(5)
_cell_angle_alpha                90.722(6)
_cell_angle_beta                 91.612(6)
_cell_angle_gamma                112.650(9)
_cell_volume                     1053.96
_exptl_crystal_colour            colorless
_exptl_crystal_description       prism
_cell_formula_units_Z            2
loop_
_atom_site_label
_atom_site_type_symbol
_atom_site_fract_x
_atom_site_fract_y
_atom_site_fract_z
Cl1 Cl 0.50158(4) 1.15416(3) 0.38804(3)
O1 O -0.07783(10) 0.67123(9) 0.30341(8)
O2 O 0.12872(11) 0.73741(9) 0.04676(8)
O3 O -0.05092(12) 0.34707(10) 0.33060(8)
O4 O 0.15609(11) 0.52828(9) 0.26630(8)
O5 O -0.36440(12) 0.74415(10) 0.03304(10)
O6 O -0.13645(11) 0.86190(9) 0.12934(8)
C1 C 0.05506(15) 0.78650(12) 0.32908(11)
C2 C 0.08440(17) 0.85185(13) 0.43480(12)
H1 H 0.0128 0.8186 0.4941
C3 C 0.22195(17) 0.96768(14) 0.45143(12)
C4 C 0.32623(16) 1.01113(13) 0.36167(12)
C5 C 0.29867(15) 0.94709(13) 0.25484(12)
C6 C 0.15675(15) 0.83155(13) 0.24055(11)
C7 C 0.25733(19) 1.04390(15) 0.56528(13)
H2 H 0.1744 0.9955 0.6176
H3 H 0.2625 1.1382 0.5554
H4 H 0.3581 1.0474 0.5966
C8 C 0.41155(16) 0.99483(15) 0.16027(13)
H5 H 0.4029 1.0763 0.1259
H6 H 0.3867 0.9207 0.1025
H7 H 0.5186 1.0187 0.1908
C9 C 0.08438(16) 0.73856(13) 0.14305(12)
C10 C -0.07081(16) 0.63234(13) 0.18400(11)
C11 C -0.21989(16) 0.62339(14) 0.12188(12)
C12 C -0.32147(18) 0.49341(15) 0.11069(12)
H8 H -0.4228 0.4670 0.0755
C13 C -0.25918(17) 0.39326(14) 0.15952(13)
H9 H -0.2793 0.3134 0.1069
H10 H -0.3055 0.3595 0.2335
C14 C -0.08374(16) 0.48125(13) 0.17371(12)
H11 H -0.0353 0.4724 0.1007
C15 C 0.00502(17) 0.44196(13) 0.26761(12)
C16 C 0.27777(17) 0.51732(14) 0.34618(13)
C17 C 0.2369(2) 0.53648(16) 0.46734(13)
H12 H 0.2218 0.6237 0.4748
H13 H 0.3223 0.5386 0.5195
H14 H 0.1401 0.4596 0.4861
C18 C 0.42354(17) 0.63663(15) 0.31109(15)
H15 H 0.4401 0.6259 0.2303
H16 H 0.5144 0.6372 0.3562
H17 H 0.4103 0.7239 0.3241
C19 C 0.29288(19) 0.37974(15) 0.32548(16)
H18 H 0.1978 0.3045 0.3494
H19 H 0.3838 0.3782 0.3693
H20 H 0.3068 0.3678 0.2444
C20 C -0.25171(17) 0.74635(14) 0.08893(13)
C21 C -0.15075(18) 0.99271(14) 0.10703(14)
H21 H -0.2454 0.9955 0.1423
H22 H -0.1594 1.0046 0.0242
C22 C -0.00657(19) 1.10470(14) 0.15732(13)
H23 H 0.0012 1.0911 0.2391
H24 H -0.0126 1.1947 0.1448
H25 H 0.0860 1.1016 0.1210
loop_
_geom_bond_atom_site_label_1
_geom_bond_atom_site_label_2
_geom_bond_site_symmetry_1
_geom_bond_site_symmetry_2
Cl1 C4 1_555 1_555
O1 C1 1_555 1_555
O2 C9 1_555 1_555
O3 C15 1_555 1_555
O4 C15 1_555 1_555
O5 C20 1_555 1_555
O6 C20 1_555 1_555
C1 C2 1_555 1_555
C2 H1 1_555 1_555
C3 C2 1_555 1_555
C4 C3 1_555 1_555
C5 C4 1_555 1_555
C6 C1 1_555 1_555
C7 C3 1_555 1_555
H2 C7 1_555 1_555
H3 C7 1_555 1_555
H4 C7 1_555 1_555
C8 C5 1_555 1_555
H5 C8 1_555 1_555
H6 C8 1_555 1_555
H7 C8 1_555 1_555
C9 C6 1_555 1_555
C10 O1 1_555 1_555
C11 C10 1_555 1_555
C12 C11 1_555 1_555
H8 C12 1_555 1_555
C13 C12 1_555 1_555
H9 C13 1_555 1_555
H10 C13 1_555 1_555
C14 C10 1_555 1_555
H11 C14 1_555 1_555
C15 C14 1_555 1_555
C16 O4 1_555 1_555
C17 C16 1_555 1_555
H12 C17 1_555 1_555
H13 C17 1_555 1_555
H14 C17 1_555 1_555
C18 C16 1_555 1_555
H15 C18 1_555 1_555
H16 C18 1_555 1_555
H17 C18 1_555 1_555
C19 C16 1_555 1_555
H18 C19 1_555 1_555
H19 C19 1_555 1_555
H20 C19 1_555 1_555
C20 C11 1_555 1_555
C21 O6 1_555 1_555
H21 C21 1_555 1_555
H22 C21 1_555 1_555
C22 C21 1_555 1_555
H23 C22 1_555 1_555
H24 C22 1_555 1_555
H25 C22 1_555 1_555
C5 C6 1_555 1_555
C9 C10 1_555 1_555
C13 C14 1_555 1_555

#END
