
#######################################################################
#
#                 Cambridge Crystallographic Data Centre
#                                CCDC 
#
#######################################################################
#
# If this CIF has been generated from an entry in the Cambridge 
# Structural Database, then it will include bibliographic, chemical, 
# crystal, experimental, refinement or atomic coordinate data resulting 
# from the CCDC's data processing and validation procedures.
#
#######################################################################

data_WETHAG
_chemical_formula_moiety         'C21 H17 F1 O4'
_chemical_name_systematic        
"Ethyl 2'-(2-fluorophenyl)-2-oxospiro[1-benzofuran-3,1'-cyclopent[3]ene]-3'-carboxylate"
_symmetry_cell_setting           monoclinic
_symmetry_space_group_name_H-M   'P 21/n'
_symmetry_Int_Tables_number      14
_space_group_name_Hall           '-P 2yn'
loop_
_symmetry_equiv_pos_site_id
_symmetry_equiv_pos_as_xyz
1 x,y,z
2 1/2-x,1/2+y,1/2-z
3 -x,-y,-z
4 1/2+x,1/2-y,1/2+z
_cell_length_a                   11.757(4)
_cell_length_b                   5.943(2)
_cell_length_c                   25.700(8)
_cell_angle_alpha                90
_cell_angle_beta                 102.394(6)
_cell_angle_gamma                90
_cell_volume                     1753.86
_exptl_crystal_colour            colorless
_exptl_crystal_description       prism
_cell_formula_units_Z            4
loop_
_atom_site_label
_atom_site_type_symbol
_atom_site_fract_x
_atom_site_fract_y
_atom_site_fract_z
F1 F 0.97275(10) 0.12603(18) 0.19564(4)
O1 O 0.90368(13) 0.3240(3) 0.01592(5)
O2 O 1.07834(12) 0.2530(2) 0.06646(5)
O3 O 0.60997(13) 0.3781(4) 0.11374(8)
O4 O 0.56762(12) 0.6930(3) 0.06725(7)
C1 C 0.97442(16) 0.3647(3) 0.05549(7)
C2 C 0.96668(13) 0.5284(3) 0.10031(6)
C3 C 1.08576(13) 0.5042(3) 0.13511(6)
C4 C 1.14475(16) 0.3403(3) 0.11379(7)
C5 C 1.25623(19) 0.2750(4) 0.13633(10)
H1 H 1.2937 0.1627 0.1212
C6 C 1.31031(18) 0.3825(4) 0.18236(10)
H2 H 1.3859 0.3422 0.1989
C7 C 1.25452(16) 0.5485(4) 0.20430(9)
H3 H 1.2929 0.6192 0.2354
C8 C 1.14197(15) 0.6124(3) 0.18084(7)
H4 H 1.1050 0.7264 0.1957
C9 C 0.93210(15) 0.7658(3) 0.07864(7)
H5 H 0.9660 0.8802 0.1042
H6 H 0.9570 0.7920 0.0455
C10 C 0.80259(16) 0.7662(3) 0.06994(7)
H7 H 0.7550 0.8744 0.0501
C11 C 0.76319(14) 0.5941(3) 0.09384(6)
C12 C 0.85949(12) 0.4478(3) 0.12416(5)
H8 H 0.8423 0.2898 0.1148
C13 C 0.87844(11) 0.4766(3) 0.18393(6)
C14 C 0.93409(13) 0.3108(3) 0.21766(6)
C15 C 0.95316(15) 0.3232(3) 0.27237(7)
H9 H 0.9904 0.2069 0.2936
C16 C 0.91573(14) 0.5117(4) 0.29481(6)
H10 H 0.9276 0.5237 0.3317
C17 C 0.86101(14) 0.6819(3) 0.26301(7)
H11 H 0.8362 0.8096 0.2783
C18 C 0.84251(13) 0.6639(3) 0.20789(6)
H12 H 0.8052 0.7803 0.1867
C19 C 0.64045(15) 0.5392(4) 0.09326(7)
C20 C 0.44425(19) 0.6526(6) 0.06348(13)
H13 H 0.4277 0.6402 0.0988
H14 H 0.4206 0.5140 0.0443
C21 C 0.3821(3) 0.8433(8) 0.03512(18)
H15 H 0.4095 0.9801 0.0535
H16 H 0.3002 0.8270 0.0336
H17 H 0.3956 0.8485 -0.0004
loop_
_geom_bond_atom_site_label_1
_geom_bond_atom_site_label_2
_geom_bond_site_symmetry_1
_geom_bond_site_symmetry_2
F1 C14 1_555 1_555
O1 C1 1_555 1_555
O2 C1 1_555 1_555
O3 C19 1_555 1_555
O4 C19 1_555 1_555
C1 C2 1_555 1_555
C2 C3 1_555 1_555
C3 C4 1_555 1_555
C4 O2 1_555 1_555
C5 C4 1_555 1_555
H1 C5 1_555 1_555
C6 C5 1_555 1_555
H2 C6 1_555 1_555
C7 C6 1_555 1_555
H3 C7 1_555 1_555
C8 C3 1_555 1_555
H4 C8 1_555 1_555
C9 C2 1_555 1_555
H5 C9 1_555 1_555
H6 C9 1_555 1_555
C10 C9 1_555 1_555
H7 C10 1_555 1_555
C11 C10 1_555 1_555
C12 C2 1_555 1_555
H8 C12 1_555 1_555
C13 C12 1_555 1_555
C14 C13 1_555 1_555
C15 C14 1_555 1_555
H9 C15 1_555 1_555
C16 C15 1_555 1_555
H10 C16 1_555 1_555
C17 C16 1_555 1_555
H11 C17 1_555 1_555
C18 C13 1_555 1_555
H12 C18 1_555 1_555
C19 C11 1_555 1_555
C20 O4 1_555 1_555
H13 C20 1_555 1_555
H14 C20 1_555 1_555
C21 C20 1_555 1_555
H15 C21 1_555 1_555
H16 C21 1_555 1_555
H17 C21 1_555 1_555
C7 C8 1_555 1_555
C11 C12 1_555 1_555
C17 C18 1_555 1_555

#END
