
#######################################################################
#
#                 Cambridge Crystallographic Data Centre
#                                CCDC 
#
#######################################################################
#
# If this CIF has been generated from an entry in the Cambridge 
# Structural Database, then it will include bibliographic, chemical, 
# crystal, experimental, refinement or atomic coordinate data resulting 
# from the CCDC's data processing and validation procedures.
#
#######################################################################

data_WETPIU
_chemical_formula_moiety         'C6 H5 O3 S1 1-,C1 H6 N3 1+'
_chemical_name_systematic        'Guanidinium benzenesulfonate'
_symmetry_cell_setting           monoclinic
_symmetry_space_group_name_H-M   'P 21/c'
_symmetry_Int_Tables_number      14
_space_group_name_Hall           '-P 2ybc'
loop_
_symmetry_equiv_pos_site_id
_symmetry_equiv_pos_as_xyz
1 x,y,z
2 -x,1/2+y,1/2-z
3 -x,-y,-z
4 x,1/2-y,1/2+z
_cell_length_a                   7.50(1)
_cell_length_b                   23.287(6)
_cell_length_c                   12.060(2)
_cell_angle_alpha                90
_cell_angle_beta                 92.24(8)
_cell_angle_gamma                90
_cell_volume                     2104.7
_exptl_crystal_colour            colorless
_chemical_melting_point          208-210deg.C
_cell_formula_units_Z            8
loop_
_atom_site_label
_atom_site_type_symbol
_atom_site_fract_x
_atom_site_fract_y
_atom_site_fract_z
S1 S 0.9949(2) 0.08590(5) 0.6065(1)
O1 O 1.0022(4) 0.0434(1) 0.6946(2)
O2 O 1.1558(4) 0.0862(1) 0.5435(2)
O3 O 0.8341(4) 0.0818(1) 0.5363(2)
C1 C 0.9870(6) 0.1533(2) 0.6738(4)
C2 C 0.9176(7) 0.2002(3) 0.6182(5)
C3 C 0.920(1) 0.2535(3) 0.6709(7)
C4 C 0.992(1) 0.2580(3) 0.7753(8)
C5 C 1.0585(8) 0.2125(3) 0.8309(5)
C6 C 1.0573(7) 0.1589(2) 0.7801(4)
H1 H 0.8683 0.1964 0.5447
H2 H 0.8728 0.2864 0.6337
H3 H 0.9937 0.2945 0.8105
H4 H 1.1068 0.2169 0.9044
H5 H 1.1045 0.1264 0.8188
S2 S 0.4847(2) 0.10880(6) 0.0680(1)
O4 O 0.4880(4) 0.1095(1) 0.1880(2)
O5 O 0.3224(4) 0.0831(1) 0.0202(2)
O6 O 0.6437(4) 0.0830(1) 0.0250(2)
C7 C 0.4852(6) 0.1815(2) 0.0249(4)
C8 C 0.5559(7) 0.1969(3) -0.0736(4)
C9 C 0.5478(9) 0.2535(4) -0.1068(6)
C10 C 0.471(1) 0.2940(3) -0.0442(8)
C11 C 0.4007(9) 0.2791(3) 0.05266
C12 C 0.4065(7) 0.2223(3) 0.0882(4)
H6 H 0.6100 0.1689 -0.1186
H7 H 0.5975 0.2642 -0.1750
H8 H 0.4664 0.3328 -0.0686
H9 H 0.3469 0.3075 0.0969
H10 H 0.3558 0.2119 0.1564
N1 N 0.6629(6) 0.0381(2) 0.7990(4)
N2 N 0.5053(8) 0.0328(2) 0.6336(4)
N3 N 0.3584(6) 0.0351(2) 0.7963(4)
C13 C 0.5082(7) 0.0360(2) 0.7437(4)
H11 H 0.666(6) 0.041(2) 0.872(4)
H12 H 0.762(6) 0.041(2) 0.765(3)
H13 H 0.414(6) 0.038(2) 0.602(4)
H14 H 0.606(7) 0.041(2) 0.593(4)
H15 H 0.367(6) 0.039(2) 0.878(4)
H16 H 0.261(7) 0.036(2) 0.764(4)
N4 N 0.8456(6) 0.0894(2) 0.2977(4)
N5 N 0.9927(8) 0.0867(2) 0.1366(4)
N6 N 1.1500(6) 0.0886(2) 0.3025(4)
C14 C 0.9958(7) 0.0877(2) 0.2450(4)
H17 H 0.847(5) 0.087(2) 0.369(3)
H18 H 0.750(6) 0.089(2) 0.266(4)
H19 H 0.900(7) 0.084(2) 0.099(4)
H20 H 1.087(7) 0.087(2) 0.098(4)
H21 H 1.151(7) 0.087(2) 0.382(5)
H22 H 1.235(6) 0.088(2) 0.269(3)
loop_
_geom_bond_atom_site_label_1
_geom_bond_atom_site_label_2
_geom_bond_site_symmetry_1
_geom_bond_site_symmetry_2
S1 O1 1_555 1_555
O2 S1 1_555 1_555
O3 S1 1_555 1_555
C1 S1 1_555 1_555
C2 C1 1_555 1_555
C3 C2 1_555 1_555
C4 C3 1_555 1_555
C5 C4 1_555 1_555
C6 C1 1_555 1_555
H1 C2 1_555 1_555
H2 C3 1_555 1_555
H3 C4 1_555 1_555
H4 C5 1_555 1_555
H5 C6 1_555 1_555
S2 O4 1_555 1_555
O5 S2 1_555 1_555
O6 S2 1_555 1_555
C7 S2 1_555 1_555
C8 C7 1_555 1_555
C9 C8 1_555 1_555
C10 C9 1_555 1_555
C11 C10 1_555 1_555
C12 C7 1_555 1_555
H6 C8 1_555 1_555
H7 C9 1_555 1_555
H8 C10 1_555 1_555
H9 C11 1_555 1_555
H10 C12 1_555 1_555
N1 C13 1_555 1_555
N2 C13 1_555 1_555
N3 C13 1_555 1_555
H11 N1 1_555 1_555
H12 N1 1_555 1_555
H13 N2 1_555 1_555
H14 N2 1_555 1_555
H15 N3 1_555 1_555
H16 N3 1_555 1_555
N4 C14 1_555 1_555
N5 C14 1_555 1_555
N6 C14 1_555 1_555
H17 N4 1_555 1_555
H18 N4 1_555 1_555
H19 N5 1_555 1_555
H20 N5 1_555 1_555
H21 N6 1_555 1_555
H22 N6 1_555 1_555
C5 C6 1_555 1_555
C11 C12 1_555 1_555

#END
