
#######################################################################
#
#                 Cambridge Crystallographic Data Centre
#                                CCDC 
#
#######################################################################
#
# If this CIF has been generated from an entry in the Cambridge 
# Structural Database, then it will include bibliographic, chemical, 
# crystal, experimental, refinement or atomic coordinate data resulting 
# from the CCDC's data processing and validation procedures.
#
#######################################################################

data_WETVOH
_chemical_formula_moiety         'C28 H22 O4 S2'
_chemical_name_systematic        
1,4-bis(4-(Acetylsulfanyl)phenylethynyl)-2,6-dimethoxybenzene
_symmetry_cell_setting           monoclinic
_symmetry_space_group_name_H-M   'P 21/n'
_symmetry_Int_Tables_number      14
_space_group_name_Hall           '-P 2yn'
loop_
_symmetry_equiv_pos_site_id
_symmetry_equiv_pos_as_xyz
1 x,y,z
2 1/2-x,1/2+y,1/2-z
3 -x,-y,-z
4 1/2+x,1/2-y,1/2+z
_cell_length_a                   7.2774(3)
_cell_length_b                   10.741(1)
_cell_length_c                   15.284(1)
_cell_angle_alpha                90
_cell_angle_beta                 94.88(1)
_cell_angle_gamma                90
_cell_volume                     1190.37
_exptl_crystal_colour            'light yellow'
_chemical_melting_point          180.7-181.5deg.C
_cell_formula_units_Z            2
_exptl_crystal_recrystallization_method chloroform
loop_
_atom_site_label
_atom_site_type_symbol
_atom_site_fract_x
_atom_site_fract_y
_atom_site_fract_z
S1 S 0.16184(4) 0.34777(3) 0.361022(17)
O1 O 0.43732(12) 0.19616(9) 0.41087(6)
O2 O 0.71549(10) 0.57545(8) 0.86942(5)
C1 C 0.20433(14) 0.38487(10) 0.47368(7)
C2 C 0.18272(15) 0.29363(10) 0.53665(7)
H1 H 0.145(2) 0.2125(14) 0.5198(10)
C3 C 0.22095(15) 0.32010(11) 0.62493(7)
H2 H 0.206(2) 0.2565(15) 0.6688(11)
C4 C 0.28010(13) 0.43946(10) 0.65175(7)
C5 C 0.29515(16) 0.53194(10) 0.58828(8)
H3 H 0.327(2) 0.6160(17) 0.6054(12)
C6 C 0.25855(17) 0.50430(11) 0.49971(7)
H4 H 0.271(2) 0.5666(16) 0.4555(11)
C7 C 0.33054(14) 0.46276(10) 0.74311(7)
C8 C 0.38068(14) 0.47305(10) 0.81980(7)
C9 C 0.44180(14) 0.48579(9) 0.91077(7)
C10 C 0.32966(13) 0.44525(9) 0.97521(7)
H5 H 0.213(2) 0.4080(15) 0.9562(10)
C11 C 0.61440(14) 0.54005(9) 0.93618(7)
C12 C 0.33066(14) 0.22804(10) 0.35068(7)
C13 C 0.32492(18) 0.17370(12) 0.25997(8)
H6 H 0.357(2) 0.2384(17) 0.2201(12)
H7 H 0.411(3) 0.1063(19) 0.2575(12)
H8 H 0.207(3) 0.1432(18) 0.2428(13)
C14 C 0.89712(15) 0.62257(12) 0.89306(8)
H9 H 0.969(2) 0.5643(15) 0.9298(10)
H10 H 0.891(2) 0.7018(14) 0.9251(10)
H11 H 0.952(2) 0.6380(15) 0.8376(12)
S1B S 0.83816(4) 0.65223(3) 1.638978(17)
O1B O 0.56268(12) 0.80384(9) 1.58913(6)
O2B O 0.28451(10) 0.42455(8) 1.13058(5)
C1B C 0.79567(14) 0.61513(10) 1.52632(7)
C2B C 0.81728(15) 0.70637(10) 1.46335(7)
H1B H 0.855(2) 0.7875(14) 1.4802(10)
C3B C 0.77905(15) 0.67990(11) 1.37507(7)
H2B H 0.794(2) 0.7435(15) 1.3312(11)
C4B C 0.71990(13) 0.56054(10) 1.34825(7)
C5B C 0.70485(16) 0.46806(10) 1.41172(8)
H3B H 0.673(2) 0.3840(17) 1.3946(12)
C6B C 0.74145(17) 0.49570(11) 1.50029(7)
H4B H 0.729(2) 0.4334(16) 1.5445(11)
C7B C 0.66946(14) 0.53724(10) 1.25689(7)
C8B C 0.61932(14) 0.52695(10) 1.18020(7)
C9B C 0.55820(14) 0.51421(9) 1.08923(7)
C10B C 0.67034(13) 0.55475(9) 1.02479(7)
H5B H 0.787(2) 0.5920(15) 1.0438(10)
C11B C 0.38560(14) 0.45995(9) 1.06382(7)
C12B C 0.66934(14) 0.77196(10) 1.64932(7)
C13B C 0.67508(18) 0.82630(12) 1.74003(8)
H6B H 0.643(2) 0.7616(17) 1.7799(12)
H7B H 0.589(3) 0.8937(19) 1.7425(12)
H8B H 0.793(3) 0.8568(18) 1.7572(13)
C14B C 0.10288(15) 0.37743(12) 1.10694(8)
H9B H 0.031(2) 0.4357(15) 1.0702(10)
H10B H 0.109(2) 0.2982(14) 1.0749(10)
H11B H 0.048(2) 0.3620(15) 1.1624(12)
loop_
_geom_bond_atom_site_label_1
_geom_bond_atom_site_label_2
_geom_bond_site_symmetry_1
_geom_bond_site_symmetry_2
S1 C1 1_555 1_555
O1 C12 1_555 1_555
O2 C11 1_555 1_555
C1 C2 1_555 1_555
C2 H1 1_555 1_555
C3 C2 1_555 1_555
H2 C3 1_555 1_555
C4 C3 1_555 1_555
C5 C4 1_555 1_555
H3 C5 1_555 1_555
C6 C1 1_555 1_555
H4 C6 1_555 1_555
C7 C4 1_555 1_555
C8 C7 1_555 1_555
C9 C8 1_555 1_555
C10 C9 1_555 1_555
H5 C10 1_555 1_555
C11 C9 1_555 1_555
C12 S1 1_555 1_555
C13 C12 1_555 1_555
H6 C13 1_555 1_555
H7 C13 1_555 1_555
H8 C13 1_555 1_555
C14 O2 1_555 1_555
H9 C14 1_555 1_555
H10 C14 1_555 1_555
H11 C14 1_555 1_555
S1B C1B 1_555 1_555
O1B C12B 1_555 1_555
O2B C11B 1_555 1_555
C1B C2B 1_555 1_555
C2B H1B 1_555 1_555
C3B C2B 1_555 1_555
H2B C3B 1_555 1_555
C4B C3B 1_555 1_555
C5B C4B 1_555 1_555
H3B C5B 1_555 1_555
C6B C1B 1_555 1_555
H4B C6B 1_555 1_555
C7B C4B 1_555 1_555
C8B C7B 1_555 1_555
C9B C8B 1_555 1_555
C10B C11 1_555 1_555
H5B C10B 1_555 1_555
C11B C10 1_555 1_555
C12B S1B 1_555 1_555
C13B C12B 1_555 1_555
H6B C13B 1_555 1_555
H7B C13B 1_555 1_555
H8B C13B 1_555 1_555
C14B O2B 1_555 1_555
H9B C14B 1_555 1_555
H10B C14B 1_555 1_555
H11B C14B 1_555 1_555
C5 C6 1_555 1_555
C5B C6B 1_555 1_555
C9B C10B 1_555 1_555
C9B C11B 1_555 1_555

#END
