
#######################################################################
#
#                 Cambridge Crystallographic Data Centre
#                                CCDC 
#
#######################################################################
#
# If this CIF has been generated from an entry in the Cambridge 
# Structural Database, then it will include bibliographic, chemical, 
# crystal, experimental, refinement or atomic coordinate data resulting 
# from the CCDC's data processing and validation procedures.
#
#######################################################################

data_WEVHOX
_chemical_formula_moiety         'C12 H31 B22 N2 1-,C8 H20 N1 1+'
_chemical_name_systematic        
'tetraethylammonium hydrogen bis(1-(pyridin-4-yl)-1-carba-closo-dodecaborate(11))'
_symmetry_cell_setting           triclinic
_symmetry_space_group_name_H-M   'P -1'
_symmetry_Int_Tables_number      2
_space_group_name_Hall           '-P 1'
loop_
_symmetry_equiv_pos_site_id
_symmetry_equiv_pos_as_xyz
1 x,y,z
2 -x,-y,-z
_cell_length_a                   10.2902(11)
_cell_length_b                   10.7001(12)
_cell_length_c                   16.1214(14)
_cell_angle_alpha                73.928(9)
_cell_angle_beta                 86.356(8)
_cell_angle_gamma                88.275(9)
_cell_volume                     1702.09
_exptl_crystal_colour            colorless
_exptl_crystal_description       plate
_cell_formula_units_Z            2
loop_
_atom_site_label
_atom_site_type_symbol
_atom_site_fract_x
_atom_site_fract_y
_atom_site_fract_z
N3 N 0.5000 0.0000 1.0000
C13 C 0.4524(6) -0.0034(7) 0.9116(4)
H32 H 0.3602 0.0255 0.9067
H33 H 0.4595 -0.0929 0.9054
C14 C 0.6432(5) -0.0298(7) 1.0035(4)
H34 H 0.6724 -0.0298 1.0609
H35 H 0.6916 0.0384 0.9590
C15 C 0.5436(4) 0.0935(4) 0.8378(2)
H36 H 0.5162 0.0939 0.7807
H37 H 0.5356 0.1816 0.8447
H38 H 0.6345 0.0638 0.8434
C16 C 0.6745(3) -0.1702(4) 0.9867(3)
H39 H 0.7683 -0.1884 0.9892
H40 H 0.6275 -0.2377 1.0312
H41 H 0.6467 -0.1696 0.9296
C13A C 0.5476(6) 0.0034(7) 1.0884(4)
H32A H 0.6398 -0.0255 1.0933
H33A H 0.5405 0.0929 1.0946
C14A C 0.3568(5) 0.0298(7) 0.9965(4)
H34A H 0.3276 0.0298 0.9391
H35A H 0.3084 -0.0384 1.0410
C15A C 0.4564(4) -0.0935(4) 1.1622(2)
H36A H 0.4838 -0.0939 1.2193
H37A H 0.4644 -0.1816 1.1553
H38A H 0.3655 -0.0638 1.1566
C16A C 0.3255(3) 0.1702(4) 1.0133(3)
H39A H 0.2317 0.1884 1.0108
H40A H 0.3725 0.2377 0.9688
H41A H 0.3533 0.1696 1.0704
N4 N 1.0000 0.5000 0.0000
C19 C 0.9092(6) 0.5172(6) 0.0726(4)
H52 H 0.8183 0.5034 0.0607
H53 H 0.9157 0.6066 0.0781
C20 C 1.1398(5) 0.5326(7) 0.0093(4)
H54 H 1.1964 0.5185 -0.0394
H55 H 1.1719 0.4762 0.0640
C21 C 0.9488(3) 0.4119(4) 0.1620(2)
H56 H 0.8900 0.4223 0.2100
H57 H 0.9415 0.3237 0.1562
H58 H 1.0386 0.4266 0.1735
C22 C 1.1425(4) 0.6873(4) 0.0094(2)
H59 H 1.2319 0.7113 0.0154
H60 H 1.1108 0.7422 -0.0450
H61 H 1.0864 0.7000 0.0580
C19A C 1.0908(6) 0.4828(6) -0.0726(4)
H52A H 1.1817 0.4966 -0.0607
H53A H 1.0843 0.3934 -0.0781
C20A C 0.8602(5) 0.4674(7) -0.0093(4)
H54A H 0.8036 0.4815 0.0394
H55A H 0.8281 0.5238 -0.0640
C21A C 1.0512(3) 0.5881(4) -0.1620(2)
H56A H 1.1100 0.5777 -0.2100
H57A H 1.0585 0.6763 -0.1562
H58A H 0.9614 0.5734 -0.1735
C22A C 0.8575(4) 0.3127(4) -0.0094(2)
H59A H 0.7681 0.2887 -0.0154
H60A H 0.8892 0.2578 0.0450
H61A H 0.9136 0.3000 -0.0580
N1 N 0.7988(3) 0.3689(3) 0.46557(17)
H1 H 0.752(3) 0.251(3) 0.4996(18)
C1 C 0.9114(3) 0.7524(3) 0.32110(18)
C2 C 0.8759(3) 0.6186(3) 0.37561(18)
C3 C 0.9466(3) 0.5096(3) 0.3675(2)
H2 H 1.0244 0.5195 0.3313
C4 C 0.9043(3) 0.3883(3) 0.4114(2)
H3 H 0.9519 0.3149 0.4032
C5 C 0.7346(3) 0.4719(3) 0.4779(2)
H4 H 0.6619 0.4585 0.5186
C6 C 0.7684(3) 0.5981(3) 0.43421(19)
H5 H 0.7189 0.6695 0.4441
B1 B 0.9787(3) 0.8609(3) 0.3652(2)
H6 H 0.9966 0.8408 0.4355
B2 B 0.8190(3) 0.8866(3) 0.3280(2)
H7 H 0.7317 0.8839 0.3736
B3 B 0.8133(3) 0.8238(4) 0.2375(2)
H8 H 0.7230 0.7790 0.2237
B4 B 0.9713(3) 0.7619(3) 0.2172(2)
H9 H 0.9848 0.6767 0.1897
B5 B 1.0744(3) 0.7845(3) 0.2970(2)
H10 H 1.1555 0.7148 0.3220
B6 B 1.0871(3) 0.9540(3) 0.2822(2)
H11 H 1.1775 0.9975 0.2969
B7 B 0.9293(4) 1.0160(4) 0.3023(2)
H12 H 0.9159 1.1004 0.3305
B8 B 0.8263(4) 0.9933(4) 0.2230(2)
H13 H 0.7446 1.0627 0.1986
B9 B 0.9205(3) 0.9163(4) 0.1542(2)
H14 H 0.9009 0.9347 0.0843
B10 B 1.0811(3) 0.8918(4) 0.1906(2)
H15 H 1.1678 0.8937 0.1447
B11 B 0.9924(4) 1.0352(4) 0.1941(2)
H16 H 1.0206 1.1327 0.1505
N2 N 0.7051(3) 0.1312(3) 0.53238(17)
C7 C 0.5901(3) -0.2514(3) 0.67738(18)
C8 C 0.6262(3) -0.1189(3) 0.62216(18)
C9 C 0.5570(3) -0.0093(3) 0.6312(2)
H17 H 0.4802 -0.0190 0.6682
C10 C 0.5991(3) 0.1125(3) 0.5868(2)
H18 H 0.5515 0.1861 0.5948
C11 C 0.7682(3) 0.0269(3) 0.5203(2)
H19 H 0.8418 0.0394 0.4803
C12 C 0.7325(3) -0.0972(3) 0.56248(19)
H20 H 0.7801 -0.1688 0.5512
B12 B 0.6912(3) -0.3247(4) 0.7587(2)
H21 H 0.7836 -0.2816 0.7708
B13 B 0.6790(3) -0.3866(3) 0.6683(2)
H22 H 0.7632 -0.3844 0.6204
B14 B 0.5181(3) -0.3596(3) 0.6351(2)
H23 H 0.4966 -0.3394 0.5654
B15 B 0.4282(3) -0.2825(3) 0.7048(2)
H24 H 0.3469 -0.2121 0.6815
B16 B 0.5353(3) -0.2607(4) 0.7810(2)
H25 H 0.5251 -0.1749 0.8082
B17 B 0.5860(3) -0.4153(3) 0.8437(2)
H26 H 0.6085 -0.4339 0.9131
B18 B 0.6759(4) -0.4937(4) 0.7742(2)
H27 H 0.7577 -0.5635 0.7973
B19 B 0.5681(4) -0.5166(3) 0.6976(2)
H28 H 0.5789 -0.6021 0.6702
B20 B 0.4122(3) -0.4509(4) 0.7196(2)
H29 H 0.3199 -0.4931 0.7065
B21 B 0.4241(3) -0.3882(3) 0.8099(2)
H30 H 0.3394 -0.3886 0.8572
B22 B 0.5094(3) -0.5325(3) 0.8055(2)
H31 H 0.4807 -0.6293 0.8499
C17? C 0.5805(6) 0.1026(7) 0.9341(4)
H42? H 0.6746 0.0854 0.9420
H43? H 0.5589 0.1903 0.9407
C18? C 0.5209(6) -0.1324(6) 0.9876(4)
H44? H 0.4857 -0.1347 0.9323
H45? H 0.4735 -0.1970 1.0350
H46? H 0.5934 0.1582 0.7930
H47? H 0.5653 0.0063 0.8323
H48? H 0.4502 0.1106 0.8310
H49? H 0.6863 -0.2573 0.9785
H50? H 0.7212 -0.1069 0.9393
H51? H 0.7090 -0.1692 1.0418
C23? C 1.0487(6) 0.4114(7) 0.0848(4)
H62? H 1.1340 0.4422 0.0957
H63? H 1.0606 0.3216 0.0797
C24? C 0.9916(6) 0.6397(6) 0.0062(4)
H64? H 0.9394 0.6441 0.0591
H65? H 0.9498 0.6966 -0.0446
H66? H 0.9811 0.3551 0.2156
H67? H 0.9380 0.5007 0.1674
H68? H 0.8647 0.3803 0.1514
H69? H 1.1409 0.7771 0.0134
H70? H 1.1827 0.6304 0.0600
H71? H 1.1931 0.6827 -0.0432
loop_
_geom_bond_atom_site_label_1
_geom_bond_atom_site_label_2
_geom_bond_site_symmetry_1
_geom_bond_site_symmetry_2
N1 H1 1_555 1_555
H1 N2 1_555 1_555
C1 C2 1_555 1_555
C2 C3 1_555 1_555
C3 H2 1_555 1_555
C4 N1 1_555 1_555
H3 C4 1_555 1_555
C5 N1 1_555 1_555
H4 C5 1_555 1_555
C6 C2 1_555 1_555
H5 C6 1_555 1_555
B1 C1 1_555 1_555
H6 B1 1_555 1_555
B2 C1 1_555 1_555
H7 B2 1_555 1_555
B3 C1 1_555 1_555
H8 B3 1_555 1_555
B4 C1 1_555 1_555
H9 B4 1_555 1_555
B5 C1 1_555 1_555
H10 B5 1_555 1_555
B6 B1 1_555 1_555
H11 B6 1_555 1_555
B7 B1 1_555 1_555
H12 B7 1_555 1_555
B8 B2 1_555 1_555
H13 B8 1_555 1_555
B9 B3 1_555 1_555
H14 B9 1_555 1_555
B10 B4 1_555 1_555
H15 B10 1_555 1_555
B11 B6 1_555 1_555
H16 B11 1_555 1_555
N2 C10 1_555 1_555
C7 C8 1_555 1_555
C8 C9 1_555 1_555
C9 H17 1_555 1_555
C10 C9 1_555 1_555
H18 C10 1_555 1_555
C11 N2 1_555 1_555
H19 C11 1_555 1_555
C12 C8 1_555 1_555
H20 C12 1_555 1_555
B12 C7 1_555 1_555
H21 B12 1_555 1_555
B13 C7 1_555 1_555
H22 B13 1_555 1_555
B14 C7 1_555 1_555
H23 B14 1_555 1_555
B15 C7 1_555 1_555
H24 B15 1_555 1_555
B16 C7 1_555 1_555
H25 B16 1_555 1_555
B17 B12 1_555 1_555
H26 B17 1_555 1_555
B18 B12 1_555 1_555
H27 B18 1_555 1_555
B19 B13 1_555 1_555
H28 B19 1_555 1_555
B20 B14 1_555 1_555
H29 B20 1_555 1_555
B21 B15 1_555 1_555
H30 B21 1_555 1_555
B22 B17 1_555 1_555
H31 B22 1_555 1_555
N3 C13 1_555 1_555
C13 H32 1_555 1_555
H33 C13 1_555 1_555
C14 N3 1_555 1_555
H34 C14 1_555 1_555
H35 C14 1_555 1_555
C15 C13 1_555 1_555
H36 C15 1_555 1_555
H37 C15 1_555 1_555
H38 C15 1_555 1_555
C16 C14 1_555 1_555
H39 C16 1_555 1_555
H40 C16 1_555 1_555
H41 C16 1_555 1_555
N4 C19 1_555 1_555
C19 H52 1_555 1_555
H52 C20A 1_555 1_555
H53 C19 1_555 1_555
C20 N4 1_555 1_555
H54 C20 1_555 1_555
H55 C20 1_555 1_555
C21 C19 1_555 1_555
H56 C21 1_555 1_555
H57 C21 1_555 1_555
H58 C21 1_555 1_555
C22 C20 1_555 1_555
H59 C22 1_555 1_555
H60 C22 1_555 1_555
H61 C22 1_555 1_555
C13A N3 1_555 1_555
H32A C13A 1_555 1_555
H33A C13A 1_555 1_555
C14A N3 1_555 1_555
H34A C14A 1_555 1_555
H35A C14A 1_555 1_555
C15A C13A 1_555 1_555
H36A C15A 1_555 1_555
H37A C15A 1_555 1_555
H38A C15A 1_555 1_555
C16A C14A 1_555 1_555
H39A C16A 1_555 1_555
H40A C16A 1_555 1_555
H41A C16A 1_555 1_555
C19A N4 1_555 1_555
H52A C20 1_555 1_555
H53A C19A 1_555 1_555
C20A N4 1_555 1_555
H54A C19 1_555 1_555
H55A C20A 1_555 1_555
C21A C19A 1_555 1_555
H56A C21A 1_555 1_555
H57A C21A 1_555 1_555
H58A C21A 1_555 1_555
C22A C20A 1_555 1_555
H59A C22A 1_555 1_555
H60A C22A 1_555 1_555
H61A C22A 1_555 1_555
C3 C4 1_555 1_555
C5 C6 1_555 1_555
B1 B2 1_555 1_555
B1 B5 1_555 1_555
B2 B3 1_555 1_555
B2 B7 1_555 1_555
B3 B4 1_555 1_555
B3 B8 1_555 1_555
B4 B5 1_555 1_555
B4 B9 1_555 1_555
B5 B6 1_555 1_555
B5 B10 1_555 1_555
B6 B7 1_555 1_555
B6 B10 1_555 1_555
B7 B8 1_555 1_555
B7 B11 1_555 1_555
B8 B9 1_555 1_555
B8 B11 1_555 1_555
B9 B10 1_555 1_555
B9 B11 1_555 1_555
B10 B11 1_555 1_555
C11 C12 1_555 1_555
B12 B13 1_555 1_555
B12 B16 1_555 1_555
B13 B14 1_555 1_555
B13 B18 1_555 1_555
B14 B15 1_555 1_555
B14 B19 1_555 1_555
B15 B16 1_555 1_555
B15 B20 1_555 1_555
B16 B17 1_555 1_555
B16 B21 1_555 1_555
B17 B18 1_555 1_555
B17 B21 1_555 1_555
B18 B19 1_555 1_555
B18 B22 1_555 1_555
B19 B20 1_555 1_555
B19 B22 1_555 1_555
B20 B21 1_555 1_555
B20 B22 1_555 1_555
B21 B22 1_555 1_555
C13 C14A 1_555 1_555
C14 C13A 1_555 1_555
C19 C20A 1_555 1_555
C20 C19A 1_555 1_555
H54 C19A 1_555 1_555
C19A H52A 1_555 1_555
C20A H54A 1_555 1_555

#END
