
#######################################################################
#
#                 Cambridge Crystallographic Data Centre
#                                CCDC 
#
#######################################################################
#
# If this CIF has been generated from an entry in the Cambridge 
# Structural Database, then it will include bibliographic, chemical, 
# crystal, experimental, refinement or atomic coordinate data resulting 
# from the CCDC's data processing and validation procedures.
#
#######################################################################

data_WEVJAL
_chemical_formula_moiety         'C3 H12 B11 O4 1-,C8 H20 N1 1+'
_chemical_name_systematic        
'tetraethylammonium 1,12-dicarboxy-1-carba-closo-dodecaborate(10)'
_symmetry_cell_setting           tetragonal
_symmetry_space_group_name_H-M   'I 4/m'
_symmetry_Int_Tables_number      87
_space_group_name_Hall           '-I 4'
loop_
_symmetry_equiv_pos_site_id
_symmetry_equiv_pos_as_xyz
1 x,y,z
2 -y,x,z
3 -x,-y,z
4 y,-x,z
5 1/2+x,1/2+y,1/2+z
6 1/2-y,1/2+x,1/2+z
7 1/2-x,1/2-y,1/2+z
8 1/2+y,1/2-x,1/2+z
9 -x,-y,-z
10 y,-x,-z
11 x,y,-z
12 -y,x,-z
13 1/2-x,1/2-y,1/2-z
14 1/2+y,1/2-x,1/2-z
15 1/2+x,1/2+y,1/2-z
16 1/2-y,1/2+x,1/2-z
_cell_length_a                   12.3385(9)
_cell_length_b                   12.3385(9)
_cell_length_c                   13.745(2)
_cell_angle_alpha                90
_cell_angle_beta                 90
_cell_angle_gamma                90
_cell_volume                     2092.52
_exptl_crystal_colour            colorless
_exptl_crystal_description       needle
_cell_formula_units_Z            4
loop_
_atom_site_label
_atom_site_type_symbol
_atom_site_fract_x
_atom_site_fract_y
_atom_site_fract_z
O1 O -0.00821(15) 0.18099(15) 0.5000
O2 O 0.16229(15) 0.22797(16) 0.5000
H1 H 0.167(3) 0.1588(16) 0.5000
C1 C 0.0592(2) 0.2521(2) 0.5000
B1 B 0.05228(19) 0.45089(19) 0.39499(16)
B2 B 0.1341(2) 0.4721(3) 0.5000
B3 B 0.08075(17) 0.58355(18) 0.43544(18)
H2 H 0.0900(16) 0.4162(16) 0.3311(17)
H3 H 0.217(2) 0.447(2) 0.5000
H4 H 0.1264(17) 0.6440(18) 0.3943(16)
B4 B 0.0334(2) 0.3740(2) 0.5000
O1B O 0.00821(15) 0.81901(15) 0.5000
O2B O -0.16229(15) 0.77203(16) 0.5000
H1B H -0.167(3) 0.8412(16) 0.5000
C1B C -0.0592(2) 0.7479(2) 0.5000
B1B B -0.05228(19) 0.54911(19) 0.39499(16)
B2B B -0.1341(2) 0.5279(3) 0.5000
B3B B -0.08075(17) 0.41645(18) 0.43544(18)
H2B H -0.0900(16) 0.5838(16) 0.3311(17)
H3B H -0.217(2) 0.553(2) 0.5000
H4B H -0.1264(17) 0.3560(18) 0.3943(16)
B4B B -0.0334(2) 0.6260(2) 0.5000
B1H B -0.05228(19) 0.54911(19) 0.60501(16)
B3H B -0.08075(17) 0.41645(18) 0.56456(18)
H2H H -0.0900(16) 0.5838(16) 0.6689(17)
H4H H -0.1264(17) 0.3560(18) 0.6057(16)
B1J B 0.05228(19) 0.45089(19) 0.60501(16)
B3J B 0.08075(17) 0.58355(18) 0.56456(18)
H2J H 0.0900(16) 0.4162(16) 0.6689(17)
H4J H 0.1264(17) 0.6440(18) 0.6057(16)
N1 N 0.0000 0.0000 0.2173(2)
C2 C -0.0676(4) 0.0705(4) 0.1523(4)
H5 H -0.1125 0.0257 0.1106
H6 H -0.0208 0.1142 0.1112
C3 C -0.1435(3) 0.1487(3) 0.2178(4)
H7 H -0.1867 0.1937 0.1761
H8 H -0.1902 0.1052 0.2578
H9 H -0.0988 0.1934 0.2584
C4 C -0.0676(5) 0.0716(4) 0.2821(4)
H10 H -0.0206 0.1155 0.3227
H11 H -0.1121 0.0271 0.3244
H12 H -0.1862 0.1938 0.2598
H13 H -0.0993 0.1933 0.1766
H14 H -0.1907 0.1050 0.1784
C2A C -0.0705(4) -0.0676(4) 0.1523(4)
H5A H -0.0257 -0.1125 0.1106
H6A H -0.1142 -0.0208 0.1112
C3A C -0.1487(3) -0.1435(3) 0.2178(4)
H7A H -0.1937 -0.1867 0.1761
H8A H -0.1052 -0.1902 0.2578
H9A H -0.1934 -0.0988 0.2584
C4A C -0.0716(4) -0.0676(5) 0.2821(4)
H10A H -0.1155 -0.0206 0.3227
H11A H -0.0271 -0.1121 0.3244
H12A H -0.1938 -0.1862 0.2598
H13A H -0.1933 -0.0993 0.1766
H14A H -0.1050 -0.1907 0.1784
C2B C 0.0676(4) -0.0705(4) 0.1523(4)
H5B H 0.1125 -0.0257 0.1106
H6B H 0.0208 -0.1142 0.1112
C3B C 0.1435(3) -0.1487(3) 0.2178(4)
H7B H 0.1867 -0.1937 0.1761
H8B H 0.1902 -0.1052 0.2578
H9B H 0.0988 -0.1934 0.2584
C4B C 0.0676(5) -0.0716(4) 0.2821(4)
H10B H 0.0206 -0.1155 0.3227
H11B H 0.1121 -0.0271 0.3244
H12B H 0.1862 -0.1938 0.2598
H13B H 0.0993 -0.1933 0.1766
H14B H 0.1907 -0.1050 0.1784
C2C C 0.0705(4) 0.0676(4) 0.1523(4)
H5C H 0.0257 0.1125 0.1106
H6C H 0.1142 0.0208 0.1112
C3C C 0.1487(3) 0.1435(3) 0.2178(4)
H7C H 0.1937 0.1867 0.1761
H8C H 0.1052 0.1902 0.2578
H9C H 0.1934 0.0988 0.2584
C4C C 0.0716(4) 0.0676(5) 0.2821(4)
H10C H 0.1155 0.0206 0.3227
H11C H 0.0271 0.1121 0.3244
H12C H 0.1938 0.1862 0.2598
H13C H 0.1933 0.0993 0.1766
H14C H 0.1050 0.1907 0.1784
C5? C 0.0334(2) 0.3740(2) 0.5000
loop_
_geom_bond_atom_site_label_1
_geom_bond_atom_site_label_2
_geom_bond_site_symmetry_1
_geom_bond_site_symmetry_2
O1 C1 1_555 1_555
O2 H1 1_555 1_555
C1 O2 1_555 1_555
B1 B2 1_555 1_555
B2 B3 1_555 1_555
B3 B1 1_555 1_555
H2 B1 1_555 1_555
H3 B2 1_555 1_555
H4 B3 1_555 1_555
B4 C1 1_555 1_555
N1 C2 1_555 1_555
C2 H5 1_555 1_555
H6 C2 1_555 1_555
C3 C2 1_555 1_555
H7 C3 1_555 1_555
H8 C3 1_555 1_555
H9 C3 1_555 1_555
C4 N1 1_555 1_555
H10 C4 1_555 1_555
H11 C4 1_555 1_555
H12 C3 1_555 1_555
H13 C3 1_555 1_555
H14 C3 1_555 1_555
O1B C1B 1_555 1_555
O2B H1B 1_555 1_555
C1B O2B 1_555 1_555
B1B B1 1_555 1_555
B2B B1B 1_555 1_555
B3B B1 1_555 1_555
H2B B1B 1_555 1_555
H3B B2B 1_555 1_555
H4B B3B 1_555 1_555
B4B B3 1_555 1_555
B1H B2B 1_555 1_555
B3H B4 1_555 1_555
H2H B1H 1_555 1_555
H4H B3H 1_555 1_555
B1J B2 1_555 1_555
B3J B2 1_555 1_555
H2J B1J 1_555 1_555
H4J B3J 1_555 1_555
C2A N1 1_555 1_555
H5A C2A 1_555 1_555
H6A C2A 1_555 1_555
C3A C2A 1_555 1_555
H7A C3A 1_555 1_555
H8A C3A 1_555 1_555
H9A C3A 1_555 1_555
C4A N1 1_555 1_555
H10A C4A 1_555 1_555
H11A C4A 1_555 1_555
H12A C3A 1_555 1_555
H13A C3A 1_555 1_555
H14A C3A 1_555 1_555
C2B N1 1_555 1_555
H5B C2B 1_555 1_555
H6B C2B 1_555 1_555
C3B C2B 1_555 1_555
H7B C3B 1_555 1_555
H8B C3B 1_555 1_555
H9B C3B 1_555 1_555
C4B N1 1_555 1_555
H10B C4B 1_555 1_555
H11B C4B 1_555 1_555
H12B C3B 1_555 1_555
H13B C3B 1_555 1_555
H14B C3B 1_555 1_555
C2C N1 1_555 1_555
H5C C2C 1_555 1_555
H6C C2C 1_555 1_555
C3C C2C 1_555 1_555
H7C C3C 1_555 1_555
H8C C3C 1_555 1_555
H9C C3C 1_555 1_555
C4C N1 1_555 1_555
H10C C4C 1_555 1_555
H11C C4C 1_555 1_555
H12C C3C 1_555 1_555
H13C C3C 1_555 1_555
H14C C3C 1_555 1_555
B1 B4 1_555 1_555
B2 B4 1_555 1_555
B3 B1B 1_555 1_555
B3 B3J 1_555 1_555
B4 B3B 1_555 1_555
B4 B1J 1_555 1_555
C2 C4 1_555 1_555
C2 C2A 1_555 1_555
C2 C2C 1_555 1_555
C3 C4 1_555 1_555
C4 C4A 1_555 1_555
C4 C4C 1_555 1_555
C1B B4B 1_555 1_555
B1B B3B 1_555 1_555
B1B B4B 1_555 1_555
B2B B3B 1_555 1_555
B2B B4B 1_555 1_555
B2B B3H 1_555 1_555
B3B B3H 1_555 1_555
B4B B1H 1_555 1_555
B4B B3J 1_555 1_555
B1H B3H 1_555 1_555
B1H B1J 1_555 1_555
B1H B3J 1_555 1_555
B3H B1J 1_555 1_555
B1J B3J 1_555 1_555
C2A C4A 1_555 1_555
C2A C2B 1_555 1_555
C3A C4A 1_555 1_555
C4A C4B 1_555 1_555
C2B C4B 1_555 1_555
C2B C2C 1_555 1_555
C3B C4B 1_555 1_555
C4B C4C 1_555 1_555
C2C C4C 1_555 1_555
C3C C4C 1_555 1_555

#END
