
#######################################################################
#
#                 Cambridge Crystallographic Data Centre
#                                CCDC 
#
#######################################################################
#
# If this CIF has been generated from an entry in the Cambridge 
# Structural Database, then it will include bibliographic, chemical, 
# crystal, experimental, refinement or atomic coordinate data resulting 
# from the CCDC's data processing and validation procedures.
#
#######################################################################

data_WEVMEQ
_chemical_formula_moiety         'C16 H15 N3 O1 S1'
_chemical_name_systematic        
(E)-1,5-Dimethyl-2-phenyl-4-(2-thienylmethyleneamino)-1H-pyrazol-3(2H)-one
_symmetry_cell_setting           monoclinic
_symmetry_space_group_name_H-M   'P 21/c'
_symmetry_Int_Tables_number      14
_space_group_name_Hall           '-P 2ybc'
loop_
_symmetry_equiv_pos_site_id
_symmetry_equiv_pos_as_xyz
1 x,y,z
2 -x,1/2+y,1/2-z
3 -x,-y,-z
4 x,1/2-y,1/2+z
_cell_length_a                   8.727(6)
_cell_length_b                   24.836(18)
_cell_length_c                   6.902(5)
_cell_angle_alpha                90
_cell_angle_beta                 98.932(13)
_cell_angle_gamma                90
_cell_volume                     1477.82
_exptl_crystal_colour            colorless
_exptl_crystal_description       block
_cell_formula_units_Z            4
_exptl_crystal_recrystallization_method 'dichloromethane/absolute ethanol'
loop_
_atom_site_label
_atom_site_type_symbol
_atom_site_fract_x
_atom_site_fract_y
_atom_site_fract_z
C1 C 0.3811(3) 0.54754(10) 0.8244(4)
H1 H 0.4071 0.5188 0.7497
C2 C 0.2486(2) 0.48655(9) 0.9918(3)
C3 C 0.2514(3) 0.43997(10) 0.8677(4)
C4 C 0.1684(3) 0.47319(10) 1.1411(4)
C5 C 0.0907(3) 0.35759(9) 0.8446(4)
C6 C -0.0700(3) 0.35651(10) 0.8116(4)
H2 H -0.1266 0.3818 0.8706
C7 C -0.1449(4) 0.31742(13) 0.6901(5)
H3 H -0.2527 0.3165 0.6652
C8 C -0.0597(5) 0.27973(13) 0.6057(4)
H4 H -0.1105 0.2536 0.5229
C9 C 0.1000(5) 0.28045(12) 0.6431(4)
H5 H 0.1566 0.2545 0.5877
C10 C 0.1761(3) 0.31971(11) 0.7629(4)
H6 H 0.2839 0.3205 0.7880
C11 C 0.0660(3) 0.38755(10) 1.2656(4)
H7 H 0.1404 0.3904 1.3831
H8 H 0.0614 0.3510 1.2202
H9 H -0.0343 0.3983 1.2925
C12 C 0.1444(3) 0.50564(10) 1.3145(4)
H10 H 0.0354 0.5114 1.3124
H11 H 0.1958 0.5397 1.3109
H12 H 0.1864 0.4868 1.4321
C13 C 0.4315(3) 0.60128(10) 0.7810(4)
C14 C 0.5123(3) 0.61583(11) 0.6357(4)
H13 H 0.5447 0.5915 0.5479
C15 C 0.5417(3) 0.67169(13) 0.6321(5)
H14 H 0.5964 0.6881 0.5429
C16 C 0.4824(3) 0.69833(12) 0.7706(5)
H15 H 0.4901 0.7354 0.7880
N1 N 0.3018(2) 0.53850(8) 0.9625(3)
N2 N 0.1121(2) 0.42254(8) 1.1149(3)
N3 N 0.1728(2) 0.39951(8) 0.9578(3)
O1 O 0.30122(19) 0.43273(7) 0.7124(3)
S1 S 0.39081(8) 0.65664(3) 0.91226(12)
loop_
_geom_bond_atom_site_label_1
_geom_bond_atom_site_label_2
_geom_bond_site_symmetry_1
_geom_bond_site_symmetry_2
C1 H1 1_555 1_555
C2 C3 1_555 1_555
C3 N3 1_555 1_555
C4 C2 1_555 1_555
C5 C6 1_555 1_555
C6 H2 1_555 1_555
C7 C6 1_555 1_555
H3 C7 1_555 1_555
C8 C7 1_555 1_555
H4 C8 1_555 1_555
C9 C8 1_555 1_555
H5 C9 1_555 1_555
C10 C5 1_555 1_555
H6 C10 1_555 1_555
C11 H7 1_555 1_555
H8 C11 1_555 1_555
H9 C11 1_555 1_555
C12 C4 1_555 1_555
H10 C12 1_555 1_555
H11 C12 1_555 1_555
H12 C12 1_555 1_555
C13 C1 1_555 1_555
C14 C13 1_555 1_555
H13 C14 1_555 1_555
C15 C14 1_555 1_555
H14 C15 1_555 1_555
C16 C15 1_555 1_555
H15 C16 1_555 1_555
N1 C1 1_555 1_555
N2 C4 1_555 1_555
N3 C5 1_555 1_555
O1 C3 1_555 1_555
S1 C13 1_555 1_555
C2 N1 1_555 1_555
C9 C10 1_555 1_555
C11 N2 1_555 1_555
C16 S1 1_555 1_555
N2 N3 1_555 1_555

#END
