
#######################################################################
#
#                 Cambridge Crystallographic Data Centre
#                                CCDC 
#
#######################################################################
#
# If this CIF has been generated from an entry in the Cambridge 
# Structural Database, then it will include bibliographic, chemical, 
# crystal, experimental, refinement or atomic coordinate data resulting 
# from the CCDC's data processing and validation procedures.
#
#######################################################################

data_WEVZII
_chemical_name_common            'resveratrol tricyanate'
_chemical_formula_moiety         'C17 H9 N3 O3'
_chemical_name_systematic        
'3-Cyanato-5-(2-(4-cyanatophenyl)vinyl)phenyl cyanate'
_symmetry_cell_setting           monoclinic
_symmetry_space_group_name_H-M   'P 21/n'
_symmetry_Int_Tables_number      14
_space_group_name_Hall           '-P 2yn'
loop_
_symmetry_equiv_pos_site_id
_symmetry_equiv_pos_as_xyz
1 x,y,z
2 1/2-x,1/2+y,1/2-z
3 -x,-y,-z
4 1/2+x,1/2-y,1/2+z
_cell_length_a                   3.9559(3)
_cell_length_b                   20.3303(14)
_cell_length_c                   18.2471(13)
_cell_angle_alpha                90
_cell_angle_beta                 95.0410(10)
_cell_angle_gamma                90
_cell_volume                     1461.84
_exptl_crystal_colour            colorless
_exptl_crystal_description       Rod
_chemical_melting_point          '438 K'
_cell_formula_units_Z            4
loop_
_atom_site_label
_atom_site_type_symbol
_atom_site_fract_x
_atom_site_fract_y
_atom_site_fract_z
O1 O 0.1835(5) 0.41504(9) 0.20019(10)
O2 O 1.2359(6) 0.89763(10) 0.12367(10)
O3 O 0.9269(6) 0.84909(10) -0.12954(10)
N1 N -0.1877(7) 0.35026(13) 0.11570(16)
N2 N 1.5274(8) 0.99781(15) 0.09631(15)
N3 N 0.6659(9) 0.77790(16) -0.22392(16)
C1 C -0.0118(8) 0.38071(14) 0.15412(17)
C2 C 0.3046(6) 0.47601(12) 0.17481(14)
C3 C 0.2511(7) 0.49541(13) 0.10340(14)
H1 H 0.1366 0.4685 0.0682
C4 C 0.3728(7) 0.55670(14) 0.08461(15)
H2 H 0.3369 0.5713 0.0363
C5 C 0.5480(6) 0.59657(12) 0.13731(16)
C6 C 0.6848(7) 0.66221(14) 0.11995(16)
H3 H 0.7978 0.6855 0.1585
C7 C 0.6609(7) 0.68951(14) 0.05659(16)
H4 H 0.5435 0.6665 0.0183
C8 C 0.8042(6) 0.75502(12) 0.03826(15)
C9 C 0.9554(7) 0.79810(13) 0.09023(15)
H5 H 0.9689 0.7877 0.14
C10 C 1.0851(6) 0.85647(13) 0.06675(14)
C11 C 1.3881(8) 0.95092(18) 0.10674(16)
C12 C 0.6008(7) 0.57331(14) 0.20777(15)
H6 H 0.7228 0.5988 0.2432
C13 C 0.4791(7) 0.51366(13) 0.22729(15)
H7 H 0.5143 0.4989 0.2756
C14 C 0.7891(7) 0.77208(12) -0.03502(14)
H8 H 0.6863 0.7442 -0.0707
C15 C 0.9264(7) 0.83024(12) -0.05451(14)
C16 C 0.7856(9) 0.80989(16) -0.17854(18)
C17 C 1.0774(6) 0.87502(13) -0.00534(14)
H9 H 1.167 0.9147 -0.02
loop_
_geom_bond_atom_site_label_1
_geom_bond_atom_site_label_2
_geom_bond_site_symmetry_1
_geom_bond_site_symmetry_2
O1 C1 1_555 1_555
O2 C10 1_555 1_555
O3 C15 1_555 1_555
N1 C1 1_555 1_555
N2 C11 1_555 1_555
N3 C16 1_555 1_555
C2 O1 1_555 1_555
C3 C2 1_555 1_555
H1 C3 1_555 1_555
C4 C3 1_555 1_555
H2 C4 1_555 1_555
C5 C4 1_555 1_555
C6 C5 1_555 1_555
H3 C6 1_555 1_555
C7 C6 1_555 1_555
H4 C7 1_555 1_555
C8 C7 1_555 1_555
C9 C8 1_555 1_555
H5 C9 1_555 1_555
C10 C9 1_555 1_555
C11 O2 1_555 1_555
C12 C5 1_555 1_555
H6 C12 1_555 1_555
C13 C2 1_555 1_555
H7 C13 1_555 1_555
C14 C8 1_555 1_555
H8 C14 1_555 1_555
C15 C14 1_555 1_555
C16 O3 1_555 1_555
C17 C10 1_555 1_555
H9 C17 1_555 1_555
C12 C13 1_555 1_555
C15 C17 1_555 1_555

#END
