
#######################################################################
#
#                 Cambridge Crystallographic Data Centre
#                                CCDC 
#
#######################################################################
#
# If this CIF has been generated from an entry in the Cambridge 
# Structural Database, then it will include bibliographic, chemical, 
# crystal, experimental, refinement or atomic coordinate data resulting 
# from the CCDC's data processing and validation procedures.
#
#######################################################################

data_WEWVUS
_chemical_formula_moiety         'C17 H17 I1 N4 O1'
_chemical_name_systematic        
2-iodo-5-{4-[(morpholin-4-yl)methyl]phenyl}[1,2,4]triazolo[1,5-a]pyridine
_symmetry_cell_setting           orthorhombic
_symmetry_space_group_name_H-M   'P c a 21'
_symmetry_Int_Tables_number      29
_space_group_name_Hall           'P 2c -2ac'
loop_
_symmetry_equiv_pos_site_id
_symmetry_equiv_pos_as_xyz
1 x,y,z
2 -x,-y,1/2+z
3 1/2-x,y,1/2+z
4 1/2+x,-y,z
_cell_length_a                   13.8355(3)
_cell_length_b                   15.0442(3)
_cell_length_c                   15.9034(3)
_cell_angle_alpha                90
_cell_angle_beta                 90
_cell_angle_gamma                90
_cell_volume                     3310.2
_exptl_crystal_colour            colorless
_exptl_crystal_description       needle
_cell_formula_units_Z            8
loop_
_atom_site_label
_atom_site_type_symbol
_atom_site_fract_x
_atom_site_fract_y
_atom_site_fract_z
I1 I 1.23985(2) 0.27796(2) 0.11600(2)
O1 O 0.3991(3) 0.4112(3) 0.1383(2)
N1 N 1.1504(3) 0.0811(4) 0.1236(3)
N2 N 1.0541(3) 0.2099(4) 0.1224(3)
N3 N 1.0085(3) 0.1246(4) 0.1252(3)
N4 N 0.5846(3) 0.4165(3) 0.1058(3)
C1 C 1.1369(4) 0.1770(4) 0.1211(4)
C2 C 0.9155(4) 0.1143(4) 0.1246(4)
C3 C 0.8861(4) 0.0220(4) 0.1235(4)
H1 H 0.8182 0.0128 0.1250
C4 C 0.9442(4) -0.0598(5) 0.1204(6)
H2 H 0.9165 -0.1174 0.1168
C5 C 1.0330(4) -0.0466(5) 0.1230(4)
H3 H 1.0774 -0.0948 0.1239
C6 C 1.0674(5) 0.0470(4) 0.1247(6)
C7 C 0.8576(4) 0.2004(4) 0.1243(4)
C8 C 0.8771(4) 0.2866(4) 0.1659(4)
H4 H 0.9351 0.2905 0.1976
C9 C 0.8190(4) 0.3636(4) 0.1636(3)
H5 H 0.8364 0.4165 0.1925
C10 C 0.7384(4) 0.3575(4) 0.1184(6)
C11 C 0.7182(4) 0.2714(4) 0.0796(4)
H6 H 0.6589 0.2670 0.0498
C12 C 0.7761(4) 0.1937(4) 0.0810(4)
H7 H 0.7578 0.1406 0.0528
C13 C 0.6773(4) 0.4443(4) 0.1130(5)
H8 H 0.6859 0.4808 0.1643
H9 H 0.6965 0.4801 0.0635
C14 C 0.5264(4) 0.4956(4) 0.0789(4)
H10 H 0.5233 0.5410 0.1238
H11 H 0.5529 0.5227 0.0271
C15 C 0.4341(4) 0.4565(4) 0.0642(3)
H12 H 0.4390 0.4137 0.0171
H13 H 0.3876 0.5034 0.0478
C16 C 0.4575(4) 0.3376(4) 0.1685(5)
H14 H 0.4303 0.3126 0.2211
H15 H 0.4615 0.2898 0.1259
C17 C 0.5498(4) 0.3760(4) 0.1831(4)
H16 H 0.5957 0.3297 0.2020
H17 H 0.5450 0.4216 0.2278
I2 I 1.04420(2) 0.22241(3) 0.38168(2)
O2 O 0.2046(2) 0.0879(3) 0.3685(3)
N5 N 0.9549(3) 0.4181(3) 0.3711(3)
N6 N 0.8586(3) 0.2908(3) 0.3787(4)
N7 N 0.8129(3) 0.3755(3) 0.3736(3)
N8 N 0.3930(3) 0.0821(3) 0.3954(3)
C18 C 0.9426(4) 0.3222(4) 0.3784(4)
C19 C 0.7207(3) 0.3863(4) 0.3725(4)
C20 C 0.6900(4) 0.4787(4) 0.3694(4)
H18 H 0.6221 0.4879 0.3702
C21 C 0.7476(5) 0.5582(4) 0.3655(9)
H19 H 0.7192 0.6157 0.3628
C22 C 0.8375(4) 0.5473(4) 0.3658(5)
H20 H 0.8814 0.5958 0.3639
C23 C 0.8708(4) 0.4529(4) 0.3693(4)
C24 C 0.6641(4) 0.2990(3) 0.3742(5)
C25 C 0.6813(4) 0.2160(4) 0.3264(3)
H21 H 0.7375 0.2145 0.2920
C26 C 0.6234(4) 0.1394(4) 0.3266(3)
H22 H 0.6399 0.0885 0.2943
C27 C 0.5456(3) 0.1414(4) 0.3736(6)
C28 C 0.5277(4) 0.2237(4) 0.4226(4)
H23 H 0.4723 0.2243 0.4579
C29 C 0.5855(4) 0.3017(4) 0.4217(3)
H24 H 0.5687 0.3529 0.4534
C30 C 0.4844(4) 0.0543(4) 0.3783(5)
H25 H 0.4866 0.0218 0.3243
H26 H 0.5085 0.0148 0.4235
C31 C 0.3360(4) -0.0022(4) 0.4133(4)
H27 H 0.3324 -0.0409 0.3631
H28 H 0.3646 -0.0361 0.4606
C32 C 0.2429(4) 0.0329(4) 0.4350(4)
H29 H 0.2484 0.0685 0.4871
H30 H 0.1978 -0.0168 0.4460
C33 C 0.2605(4) 0.1671(4) 0.3483(4)
H31 H 0.2303 0.2006 0.3016
H32 H 0.2664 0.2066 0.3978
C34 C 0.3531(4) 0.1328(4) 0.3239(4)
H33 H 0.3971 0.1822 0.3090
H34 H 0.3462 0.0936 0.2743
loop_
_geom_bond_atom_site_label_1
_geom_bond_atom_site_label_2
_geom_bond_site_symmetry_1
_geom_bond_site_symmetry_2
I1 C1 1_555 1_555
O1 C15 1_555 1_555
N1 C1 1_555 1_555
N2 N3 1_555 1_555
N3 C2 1_555 1_555
N4 C13 1_555 1_555
C1 N2 1_555 1_555
C2 C3 1_555 1_555
C3 H1 1_555 1_555
C4 C3 1_555 1_555
H2 C4 1_555 1_555
C5 C4 1_555 1_555
H3 C5 1_555 1_555
C6 N1 1_555 1_555
C7 C2 1_555 1_555
C8 C7 1_555 1_555
H4 C8 1_555 1_555
C9 C8 1_555 1_555
H5 C9 1_555 1_555
C10 C9 1_555 1_555
C11 C10 1_555 1_555
H6 C11 1_555 1_555
C12 C7 1_555 1_555
H7 C12 1_555 1_555
C13 C10 1_555 1_555
H8 C13 1_555 1_555
H9 C13 1_555 1_555
C14 N4 1_555 1_555
H10 C14 1_555 1_555
H11 C14 1_555 1_555
C15 C14 1_555 1_555
H12 C15 1_555 1_555
H13 C15 1_555 1_555
C16 O1 1_555 1_555
H14 C16 1_555 1_555
H15 C16 1_555 1_555
C17 N4 1_555 1_555
H16 C17 1_555 1_555
H17 C17 1_555 1_555
I2 C18 1_555 1_555
O2 C32 1_555 1_555
N5 C18 1_555 1_555
N6 N7 1_555 1_555
N7 C19 1_555 1_555
N8 C30 1_555 1_555
C18 N6 1_555 1_555
C19 C20 1_555 1_555
C20 H18 1_555 1_555
C21 C20 1_555 1_555
H19 C21 1_555 1_555
C22 C21 1_555 1_555
H20 C22 1_555 1_555
C23 N5 1_555 1_555
C24 C19 1_555 1_555
C25 C24 1_555 1_555
H21 C25 1_555 1_555
C26 C25 1_555 1_555
H22 C26 1_555 1_555
C27 C26 1_555 1_555
C28 C27 1_555 1_555
H23 C28 1_555 1_555
C29 C24 1_555 1_555
H24 C29 1_555 1_555
C30 C27 1_555 1_555
H25 C30 1_555 1_555
H26 C30 1_555 1_555
C31 N8 1_555 1_555
H27 C31 1_555 1_555
H28 C31 1_555 1_555
C32 C31 1_555 1_555
H29 C32 1_555 1_555
H30 C32 1_555 1_555
C33 O2 1_555 1_555
H31 C33 1_555 1_555
H32 C33 1_555 1_555
C34 N8 1_555 1_555
H33 C34 1_555 1_555
H34 C34 1_555 1_555
N3 C6 1_555 1_555
C5 C6 1_555 1_555
C11 C12 1_555 1_555
C16 C17 1_555 1_555
N7 C23 1_555 1_555
C22 C23 1_555 1_555
C28 C29 1_555 1_555
C33 C34 1_555 1_555

#END
