
#######################################################################
#
#                 Cambridge Crystallographic Data Centre
#                                CCDC 
#
#######################################################################
#
# If this CIF has been generated from an entry in the Cambridge 
# Structural Database, then it will include bibliographic, chemical, 
# crystal, experimental, refinement or atomic coordinate data resulting 
# from the CCDC's data processing and validation procedures.
#
#######################################################################

data_WEWYAY
_chemical_formula_moiety         'C20 H22 N2 O5'
_chemical_name_systematic        
(3S)-trans-Hexahydro-1-methoxycarbonylmethyl-2-oxo-3-phthalimido-7-(2-propenyl)-1H-azepine
_symmetry_cell_setting           monoclinic
_symmetry_space_group_name_H-M   'P 21'
_symmetry_Int_Tables_number      4
_space_group_name_Hall           'P 2yb'
loop_
_symmetry_equiv_pos_site_id
_symmetry_equiv_pos_as_xyz
1 x,y,z
2 -x,1/2+y,-z
_cell_length_a                   7.319(2)
_cell_length_b                   13.499(2)
_cell_length_c                   9.721(2)
_cell_angle_alpha                90
_cell_angle_beta                 99.24(2)
_cell_angle_gamma                90
_cell_volume                     947.965
_chemical_melting_point          107-109deg.C
_cell_formula_units_Z            2
loop_
_atom_site_label
_atom_site_type_symbol
_atom_site_fract_x
_atom_site_fract_y
_atom_site_fract_z
N1 N 0.9372(2) 0.535 0.1499(2)
C1 C 0.8512(3) 0.6069(2) 0.2118(2)
C2 C 0.9693(3) 0.6840(2) 0.3015(2)
C3 C 1.0960(3) 0.6399(2) 0.4267(3)
C4 C 1.2744(3) 0.5996(2) 0.3893(3)
C5 C 1.2525(3) 0.5112(2) 0.2929(3)
C6 C 1.1387(3) 0.5244(2) 0.1492(2)
C7 C 0.8140(3) 0.4664(2) 0.0651(2)
C8 C 0.7244(3) 0.3923(2) 0.1491(3)
O1 O 0.7700(2) 0.3752(2) 0.2695(2)
O2 O 0.5876(2) 0.3465(2) 0.0660(2)
C9 C 0.4909(4) 0.2694(3) 0.1289(4)
O3 O 0.6819(2) 0.6117(2) 0.1967(2)
N2 N 0.8449(2) 0.7605(2) 0.3379(2)
C10 C 0.7924(3) 0.8386(2) 0.2465(2)
C11 C 0.6332(3) 0.8871(2) 0.2952(2)
O4 O 0.8679(2) 0.8591(1) 0.1474(2)
C12 C 0.5324(4) 0.9696(2) 0.2440(3)
C13 C 0.3819(4) 0.9957(2) 0.3093(3)
C14 C 0.3383(3) 0.9404(2) 0.4199(3)
C15 C 0.4406(3) 0.8582(2) 0.4697(2)
C16 C 0.5891(3) 0.8328(2) 0.4063(2)
C17 C 0.7216(3) 0.7496(2) 0.4345(2)
O5 O 0.7305(2) 0.6861(2) 0.5211(2)
C18 C 1.2115(3) 0.6039(2) 0.0588(2)
C19 C 1.1001(3) 0.6129(2) -0.0830(3)
C20 C 1.0004(4) 0.6905(2) -0.1283(3)
H1 H 1.0553 0.7123 0.2454
H2 H 1.0308 0.5877 0.4641
H3 H 1.1225 0.6905 0.4964
H4 H 1.3548 0.5821 0.4726
H5 H 1.3326 0.6520 0.3444
H6 H 1.1963 0.4598 0.3381
H7 H 1.3730 0.4903 0.2793
H8 H 1.1518 0.4635 0.1023
H9 H 0.7174 0.5038 0.0084
H10 H 0.8807 0.4314 0.0030
H11 H 0.3971 0.2413 0.0629
H12 H 0.5773 0.2189 0.1656
H13 H 0.4380 0.2967 0.2043
H14 H 0.5651 1.0077 0.1670
H15 H 0.3061 1.0525 0.2766
H16 H 0.2334 0.9603 0.4613
H17 H 0.4019 0.8178 0.5451
H18 H 1.2108 0.6664 0.1051
H19 H 1.3363 0.5880 0.0502
H20 H 1.1029 0.5587 -0.1452
H21 H 0.9322 0.6912 -0.2211
H22 H 0.9945 0.7465 -0.0700
loop_
_geom_bond_atom_site_label_1
_geom_bond_atom_site_label_2
_geom_bond_site_symmetry_1
_geom_bond_site_symmetry_2
N1 C1 1_555 1_555
C1 C2 1_555 1_555
C2 C3 1_555 1_555
C3 C4 1_555 1_555
C4 C5 1_555 1_555
C5 C6 1_555 1_555
C6 N1 1_555 1_555
C7 N1 1_555 1_555
C8 C7 1_555 1_555
O1 C8 1_555 1_555
O2 C8 1_555 1_555
C9 O2 1_555 1_555
O3 C1 1_555 1_555
N2 C2 1_555 1_555
C10 N2 1_555 1_555
C11 C10 1_555 1_555
O4 C10 1_555 1_555
C12 C11 1_555 1_555
C13 C12 1_555 1_555
C14 C13 1_555 1_555
C15 C14 1_555 1_555
C16 C11 1_555 1_555
C17 N2 1_555 1_555
O5 C17 1_555 1_555
C18 C6 1_555 1_555
C19 C18 1_555 1_555
C20 C19 1_555 1_555
H1 C2 1_555 1_555
H2 C3 1_555 1_555
H3 C3 1_555 1_555
H4 C4 1_555 1_555
H5 C4 1_555 1_555
H6 C5 1_555 1_555
H7 C5 1_555 1_555
H8 C6 1_555 1_555
H9 C7 1_555 1_555
H10 C7 1_555 1_555
H11 C9 1_555 1_555
H12 C9 1_555 1_555
H13 C9 1_555 1_555
H14 C12 1_555 1_555
H15 C13 1_555 1_555
H16 C14 1_555 1_555
H17 C15 1_555 1_555
H18 C18 1_555 1_555
H19 C18 1_555 1_555
H20 C19 1_555 1_555
H21 C20 1_555 1_555
H22 C20 1_555 1_555
C15 C16 1_555 1_555
C16 C17 1_555 1_555

#END
