
#######################################################################
#
#                 Cambridge Crystallographic Data Centre
#                                CCDC 
#
#######################################################################
#
# If this CIF has been generated from an entry in the Cambridge 
# Structural Database, then it will include bibliographic, chemical, 
# crystal, experimental, refinement or atomic coordinate data resulting 
# from the CCDC's data processing and validation procedures.
#
#######################################################################

data_WEXBOS
_chemical_formula_moiety         'C30 H20 S2'
_chemical_name_systematic        2,3,5,6-Tetraphenylthieno[3,2-b]thiophene
_symmetry_cell_setting           monoclinic
_symmetry_space_group_name_H-M   'P 21/c'
_symmetry_Int_Tables_number      14
_space_group_name_Hall           '-P 2ybc'
loop_
_symmetry_equiv_pos_site_id
_symmetry_equiv_pos_as_xyz
1 x,y,z
2 -x,1/2+y,1/2-z
3 -x,-y,-z
4 x,1/2-y,1/2+z
_cell_length_a                   6.1134(12)
_cell_length_b                   12.529(3)
_cell_length_c                   14.622(3)
_cell_angle_alpha                90
_cell_angle_beta                 92.51(3)
_cell_angle_gamma                90
_cell_volume                     1118.89
_cell_formula_units_Z            2
loop_
_atom_site_label
_atom_site_type_symbol
_atom_site_fract_x
_atom_site_fract_y
_atom_site_fract_z
S1 S 0.22534(8) 0.53581(4) 0.40313(3)
C1 C 0.2657(3) 0.40127(16) 0.43257(14)
C2 C 0.4304(3) 0.34219(17) 0.38299(13)
C3 C 0.6212(3) 0.39254(18) 0.35633(14)
H1 H 0.6457 0.4635 0.3723
C4 C 0.7740(4) 0.33929(19) 0.30674(14)
H2 H 0.9004 0.3742 0.2899
C5 C 0.7388(4) 0.23372(19) 0.28209(15)
H3 H 0.8413 0.1974 0.2487
C6 C 0.5497(4) 0.18253(18) 0.30750(15)
H4 H 0.5262 0.1116 0.2909
C7 C 0.3956(4) 0.23536(17) 0.35712(15)
H5 H 0.2691 0.2002 0.3733
C8 C 0.1249(3) 0.36778(16) 0.49696(14)
C9 C 0.1156(3) 0.25999(16) 0.53958(13)
C10 C 0.2961(4) 0.21768(18) 0.58838(14)
H6 H 0.4259 0.2564 0.5934
C11 C 0.2837(4) 0.11852(19) 0.62939(15)
H7 H 0.4047 0.0913 0.6624
C12 C 0.0938(4) 0.05990(18) 0.62164(16)
H8 H 0.0870 -0.0073 0.6484
C13 C -0.0885(4) 0.10163(18) 0.57352(15)
H9 H -0.2178 0.0625 0.5686
C14 C -0.0777(3) 0.20061(17) 0.53320(14)
H10 H -0.2002 0.2282 0.5014
C15 C 0.0176(3) 0.54750(16) 0.47789(14)
S1B S -0.22534(8) 0.46419(4) 0.59687(3)
C1B C -0.2657(3) 0.59873(16) 0.56743(14)
C2B C -0.4304(3) 0.65781(17) 0.61701(13)
C3B C -0.6212(3) 0.60746(18) 0.64367(14)
H1B H -0.6457 0.5365 0.6277
C4B C -0.7740(4) 0.66071(19) 0.69326(14)
H2B H -0.9004 0.6258 0.7101
C5B C -0.7388(4) 0.76628(19) 0.71791(15)
H3B H -0.8413 0.8026 0.7513
C6B C -0.5497(4) 0.81747(18) 0.69250(15)
H4B H -0.5262 0.8884 0.7091
C7B C -0.3956(4) 0.76464(17) 0.64288(15)
H5B H -0.2691 0.7998 0.6267
C8B C -0.1249(3) 0.63222(16) 0.50304(14)
C9B C -0.1156(3) 0.74001(16) 0.46042(13)
C10B C -0.2961(4) 0.78232(18) 0.41162(14)
H6B H -0.4259 0.7436 0.4066
C11B C -0.2837(4) 0.88148(19) 0.37061(15)
H7B H -0.4047 0.9087 0.3376
C12B C -0.0938(4) 0.94010(18) 0.37836(16)
H8B H -0.0870 1.0073 0.3516
C13B C 0.0885(4) 0.89837(18) 0.42648(15)
H9B H 0.2178 0.9375 0.4314
C14B C 0.0777(3) 0.79939(17) 0.46680(14)
H10B H 0.2002 0.7718 0.4986
C15B C -0.0176(3) 0.45250(16) 0.52211(14)
loop_
_geom_bond_atom_site_label_1
_geom_bond_atom_site_label_2
_geom_bond_site_symmetry_1
_geom_bond_site_symmetry_2
S1 C1 1_555 1_555
C1 C2 1_555 1_555
C2 C3 1_555 1_555
C3 H1 1_555 1_555
C4 C3 1_555 1_555
H2 C4 1_555 1_555
C5 C4 1_555 1_555
H3 C5 1_555 1_555
C6 C5 1_555 1_555
H4 C6 1_555 1_555
C7 C2 1_555 1_555
H5 C7 1_555 1_555
C8 C1 1_555 1_555
C9 C8 1_555 1_555
C10 C9 1_555 1_555
H6 C10 1_555 1_555
C11 C10 1_555 1_555
H7 C11 1_555 1_555
C12 C11 1_555 1_555
H8 C12 1_555 1_555
C13 C12 1_555 1_555
H9 C13 1_555 1_555
C14 C9 1_555 1_555
H10 C14 1_555 1_555
C15 S1 1_555 1_555
S1B C1B 1_555 1_555
C1B C2B 1_555 1_555
C2B C3B 1_555 1_555
C3B H1B 1_555 1_555
C4B C3B 1_555 1_555
H2B C4B 1_555 1_555
C5B C4B 1_555 1_555
H3B C5B 1_555 1_555
C6B C5B 1_555 1_555
H4B C6B 1_555 1_555
C7B C2B 1_555 1_555
H5B C7B 1_555 1_555
C8B C15 1_555 1_555
C9B C8B 1_555 1_555
C10B C9B 1_555 1_555
H6B C10B 1_555 1_555
C11B C10B 1_555 1_555
H7B C11B 1_555 1_555
C12B C11B 1_555 1_555
H8B C12B 1_555 1_555
C13B C12B 1_555 1_555
H9B C13B 1_555 1_555
C14B C9B 1_555 1_555
H10B C14B 1_555 1_555
C15B C8 1_555 1_555
C6 C7 1_555 1_555
C13 C14 1_555 1_555
C15 C15B 1_555 1_555
S1B C15B 1_555 1_555
C1B C8B 1_555 1_555
C6B C7B 1_555 1_555
C13B C14B 1_555 1_555

#END
