
#######################################################################
#
#                 Cambridge Crystallographic Data Centre
#                                CCDC 
#
#######################################################################
#
# If this CIF has been generated from an entry in the Cambridge 
# Structural Database, then it will include bibliographic, chemical, 
# crystal, experimental, refinement or atomic coordinate data resulting 
# from the CCDC's data processing and validation procedures.
#
#######################################################################

data_WEXFUA
_chemical_formula_moiety         'C31 H34'
_chemical_name_systematic        (15)Triangulane
_symmetry_cell_setting           triclinic
_symmetry_space_group_name_H-M   'P -1'
_symmetry_Int_Tables_number      2
_space_group_name_Hall           '-P 1'
loop_
_symmetry_equiv_pos_site_id
_symmetry_equiv_pos_as_xyz
1 x,y,z
2 -x,-y,-z
_cell_length_a                   8.9454(18)
_cell_length_b                   12.061(2)
_cell_length_c                   12.605(3)
_cell_angle_alpha                67.514(4)
_cell_angle_beta                 79.915(4)
_cell_angle_gamma                80.625(4)
_cell_volume                     1230.25
_exptl_crystal_colour            colorless
_exptl_crystal_description       block
_cell_formula_units_Z            2
loop_
_atom_site_label
_atom_site_type_symbol
_atom_site_fract_x
_atom_site_fract_y
_atom_site_fract_z
C1 C 0.20556(16) 0.43908(14) 0.24581(13)
H1 H 0.2439 0.4899 0.1694
H2 H 0.1197 0.3987 0.2496
C2 C 0.21391(16) 0.47673(14) 0.34665(12)
H3 H 0.1327 0.4592 0.4096
H4 H 0.2570 0.5505 0.3294
C3 C 0.31679(14) 0.37508(12) 0.32912(11)
C4 C 0.36428(15) 0.24899(12) 0.39952(11)
C5 C 0.33444(18) 0.17523(14) 0.52356(12)
H5 H 0.2423 0.1967 0.5666
H6 H 0.4204 0.1427 0.5664
C6 C 0.32044(19) 0.12676(14) 0.43142(13)
H7 H 0.3977 0.0659 0.4196
H8 H 0.2196 0.1198 0.4198
C7 C 0.48071(14) 0.32920(11) 0.32606(10)
C8 C 0.61509(13) 0.33173(11) 0.23808(10)
C9 C 0.69519(13) 0.27500(11) 0.15648(10)
C10 C 0.67630(14) 0.19204(11) 0.09915(10)
C11 C 0.57703(14) 0.10428(12) 0.10167(10)
C12 C 0.43474(16) 0.05322(13) 0.16731(12)
H9 H 0.3494 0.0660 0.1257
H10 H 0.4087 0.0511 0.2452
C13 C 0.57428(15) -0.02755(12) 0.14217(12)
H11 H 0.6308 -0.0772 0.2051
H12 H 0.5715 -0.0623 0.0856
C14 C 0.61737(14) 0.20385(11) -0.00747(10)
C15 C 0.53758(16) 0.29776(13) -0.10072(11)
H13 H 0.5462 0.3806 -0.1145
H14 H 0.4414 0.2825 -0.1134
C16 C 0.68032(15) 0.22096(12) -0.12853(10)
H15 H 0.6684 0.1605 -0.1576
H16 H 0.7732 0.2586 -0.1588
C17 C 0.82660(14) 0.19264(11) 0.13227(10)
C18 C 0.98743(14) 0.20129(12) 0.08008(11)
C19 C 1.09393(17) 0.29504(15) 0.03538(13)
H17 H 1.1856 0.2783 0.0711
H18 H 1.0514 0.3780 0.0100
C20 C 1.07822(17) 0.21949(15) -0.03389(13)
H19 H 1.0255 0.2585 -0.1010
H20 H 1.1597 0.1588 -0.0398
C21 C 0.94765(14) 0.09993(12) 0.18765(11)
C22 C 0.97705(17) -0.03258(13) 0.22339(13)
H21 H 1.0658 -0.0657 0.1861
H22 H 0.8902 -0.0775 0.2448
C23 C 1.00086(18) 0.03024(13) 0.30143(13)
H23 H 0.9283 0.0228 0.3690
H24 H 1.1040 0.0346 0.3102
C24 C 0.65682(15) 0.40951(11) 0.11359(10)
H25 H 0.7386 0.4588 0.0958
H26 H 0.5761 0.4436 0.0657
C25 C 0.62946(14) 0.35526(11) 0.34274(10)
C26 C 0.72769(15) 0.32020(12) 0.43585(10)
C27 C 0.86974(17) 0.24108(15) 0.46868(13)
H27 H 0.9554 0.2781 0.4717
H28 H 0.8954 0.1738 0.4437
C28 C 0.73171(18) 0.23885(14) 0.55808(12)
H29 H 0.6753 0.1699 0.5859
H30 H 0.7353 0.2742 0.6140
C29 C 0.68887(14) 0.44868(12) 0.36793(10)
C30 C 0.77236(16) 0.55504(13) 0.30347(12)
H31 H 0.7656 0.5935 0.2220
H32 H 0.8687 0.5562 0.3265
C31 C 0.62952(17) 0.56269(12) 0.38599(12)
H33 H 0.6410 0.5682 0.4581
H34 H 0.5380 0.6054 0.3536
loop_
_geom_bond_atom_site_label_1
_geom_bond_atom_site_label_2
_geom_bond_site_symmetry_1
_geom_bond_site_symmetry_2
C1 H1 1_555 1_555
H2 C1 1_555 1_555
C2 C1 1_555 1_555
H3 C2 1_555 1_555
H4 C2 1_555 1_555
C3 C1 1_555 1_555
C4 C3 1_555 1_555
C5 C4 1_555 1_555
H5 C5 1_555 1_555
H6 C5 1_555 1_555
C6 C4 1_555 1_555
H7 C6 1_555 1_555
H8 C6 1_555 1_555
C7 C3 1_555 1_555
C8 C7 1_555 1_555
C9 C8 1_555 1_555
C10 C9 1_555 1_555
C11 C10 1_555 1_555
C12 C11 1_555 1_555
H9 C12 1_555 1_555
H10 C12 1_555 1_555
C13 C11 1_555 1_555
H11 C13 1_555 1_555
H12 C13 1_555 1_555
C14 C10 1_555 1_555
C15 C14 1_555 1_555
H13 C15 1_555 1_555
H14 C15 1_555 1_555
C16 C14 1_555 1_555
H15 C16 1_555 1_555
H16 C16 1_555 1_555
C17 C9 1_555 1_555
C18 C17 1_555 1_555
C19 C18 1_555 1_555
H17 C19 1_555 1_555
H18 C19 1_555 1_555
C20 C18 1_555 1_555
H19 C20 1_555 1_555
H20 C20 1_555 1_555
C21 C17 1_555 1_555
C22 C21 1_555 1_555
H21 C22 1_555 1_555
H22 C22 1_555 1_555
C23 C21 1_555 1_555
H23 C23 1_555 1_555
H24 C23 1_555 1_555
C24 C8 1_555 1_555
H25 C24 1_555 1_555
H26 C24 1_555 1_555
C25 C7 1_555 1_555
C26 C25 1_555 1_555
C27 C26 1_555 1_555
H27 C27 1_555 1_555
H28 C27 1_555 1_555
C28 C26 1_555 1_555
H29 C28 1_555 1_555
H30 C28 1_555 1_555
C29 C25 1_555 1_555
C30 C29 1_555 1_555
H31 C30 1_555 1_555
H32 C30 1_555 1_555
C31 C29 1_555 1_555
H33 C31 1_555 1_555
H34 C31 1_555 1_555
C2 C3 1_555 1_555
C4 C7 1_555 1_555
C5 C6 1_555 1_555
C8 C25 1_555 1_555
C9 C24 1_555 1_555
C10 C17 1_555 1_555
C11 C14 1_555 1_555
C12 C13 1_555 1_555
C15 C16 1_555 1_555
C18 C21 1_555 1_555
C19 C20 1_555 1_555
C22 C23 1_555 1_555
C26 C29 1_555 1_555
C27 C28 1_555 1_555
C30 C31 1_555 1_555

#END
