
#######################################################################
#
#                 Cambridge Crystallographic Data Centre
#                                CCDC 
#
#######################################################################
#
# If this CIF has been generated from an entry in the Cambridge 
# Structural Database, then it will include bibliographic, chemical, 
# crystal, experimental, refinement or atomic coordinate data resulting 
# from the CCDC's data processing and validation procedures.
#
#######################################################################

data_WEXXEF
_chemical_formula_moiety         'C30 H32 N2 O3 S1'
_chemical_name_systematic        
4-[3-(2,3-dihydro-1H-indol-1-yl)prop-1-en-2-yl]-5-methyl-1-[(4-methylphenyl)sulfonyl]-3-phenyl-1,2,3,6-tetrahydropyridin-3-ol
_symmetry_cell_setting           monoclinic
_symmetry_space_group_name_H-M   'P 21/n'
_symmetry_Int_Tables_number      14
_space_group_name_Hall           '-P 2yn'
loop_
_symmetry_equiv_pos_site_id
_symmetry_equiv_pos_as_xyz
1 x,y,z
2 1/2-x,1/2+y,1/2-z
3 -x,-y,-z
4 1/2+x,1/2-y,1/2+z
_cell_length_a                   14.6758(17)
_cell_length_b                   8.1119(10)
_cell_length_c                   22.258(3)
_cell_angle_alpha                90
_cell_angle_beta                 97.042(3)
_cell_angle_gamma                90
_cell_volume                     2629.8
_exptl_crystal_colour            colorless
_exptl_crystal_description       prismatic
_cell_formula_units_Z            4
loop_
_atom_site_label
_atom_site_type_symbol
_atom_site_fract_x
_atom_site_fract_y
_atom_site_fract_z
S1 S 0.66230(4) -0.06312(9) 0.00635(2)
N1 N 0.61050(11) 0.0254(2) 0.05879(7)
N2 N 0.33535(12) 0.2076(2) 0.25171(9)
O1 O 0.49625(10) -0.11153(18) 0.14558(6)
H1 H 0.4688 -0.0883 0.1123
O2 O 0.64458(12) -0.2349(2) 0.00937(8)
O3 O 0.63610(11) 0.0263(2) -0.04834(7)
C1 C 0.64291(14) -0.0265(3) 0.12069(9)
H2 H 0.6976 0.0351 0.1358
H3 H 0.6585 -0.1427 0.1211
C2 C 0.56781(13) 0.0042(3) 0.16100(9)
C3 C 0.53275(13) 0.1806(3) 0.15375(9)
C4 C 0.54629(14) 0.2691(3) 0.10504(9)
C5 C 0.59455(15) 0.2035(3) 0.05433(9)
H4 H 0.5580 0.2278 0.0161
H5 H 0.6530 0.2594 0.0547
C6 C 0.51294(18) 0.4424(3) 0.09311(11)
H6 H 0.4871 0.4833 0.1278
H7 H 0.4669 0.4435 0.0585
H8 H 0.5635 0.5111 0.0854
C7 C 0.61012(13) -0.0345(3) 0.22523(9)
C8 C 0.67560(16) 0.0693(3) 0.25450(10)
H9 H 0.6920 0.1646 0.2352
C9 C 0.71714(18) 0.0331(4) 0.31221(11)
H10 H 0.7616 0.1035 0.3314
C10 C 0.6930(2) -0.1056(4) 0.34097(12)
H11 H 0.7203 -0.1294 0.3799
C11 C 0.62870(19) -0.2092(4) 0.31229(12)
H12 H 0.6124 -0.3039 0.3319
C12 C 0.58746(15) -0.1754(3) 0.25445(10)
H13 H 0.5443 -0.2480 0.2352
C13 C 0.47841(14) 0.2447(3) 0.20148(9)
C14 C 0.50640(17) 0.3663(3) 0.23798(11)
H14 H 0.5625 0.4170 0.2349
H15 H 0.4702 0.4018 0.2669
C15 C 0.38852(15) 0.1564(3) 0.20391(11)
H16 H 0.3509 0.1717 0.1653
H17 H 0.4011 0.0394 0.2085
C16 C 0.23540(17) 0.2111(4) 0.23609(14)
H18 H 0.2145 0.1151 0.2123
H19 H 0.2165 0.3096 0.2131
C17 C 0.1976(2) 0.2108(4) 0.29554(17)
H20 H 0.1849 0.3220 0.3082
H21 H 0.1417 0.1461 0.2934
C18 C 0.27205(18) 0.1345(3) 0.33711(14)
C19 C 0.35112(16) 0.1350(3) 0.30852(11)
C20 C 0.43171(18) 0.0694(3) 0.33653(11)
H22 H 0.4846 0.0691 0.3174
C21 C 0.4322(2) 0.0047(4) 0.39324(15)
H23 H 0.4865 -0.0387 0.4128
C22 C 0.3554(3) 0.0020(5) 0.42189(16)
H24 H 0.3578 -0.0435 0.4604
C23 C 0.2740(3) 0.0665(4) 0.39405(17)
H25 H 0.2213 0.0642 0.4134
C24 C 0.78014(14) -0.0334(3) 0.02795(9)
C25 C 0.82222(15) 0.1110(3) 0.01338(9)
H26 H 0.7897 0.1894 -0.0111
C26 C 0.91293(16) 0.1377(3) 0.03545(10)
H27 H 0.9416 0.2338 0.0249
C27 C 0.96201(15) 0.0250(3) 0.07282(10)
C28 C 0.91890(17) -0.1187(3) 0.08569(11)
H28 H 0.9514 -0.1976 0.1099
C29 C 0.82927(17) -0.1484(3) 0.06372(11)
H29 H 0.8016 -0.2467 0.0730
C30 C 1.05977(16) 0.0588(4) 0.09944(12)
H30 H 1.0600 0.1240 0.1354
H31 H 1.0908 0.1175 0.0705
H32 H 1.0907 -0.0437 0.1093
loop_
_geom_bond_atom_site_label_1
_geom_bond_atom_site_label_2
_geom_bond_site_symmetry_1
_geom_bond_site_symmetry_2
S1 N1 1_555 1_555
N1 C1 1_555 1_555
N2 C15 1_555 1_555
O1 H1 1_555 1_555
O2 S1 1_555 1_555
O3 S1 1_555 1_555
C1 H2 1_555 1_555
H3 C1 1_555 1_555
C2 O1 1_555 1_555
C3 C2 1_555 1_555
C4 C3 1_555 1_555
C5 N1 1_555 1_555
H4 C5 1_555 1_555
H5 C5 1_555 1_555
C6 C4 1_555 1_555
H6 C6 1_555 1_555
H7 C6 1_555 1_555
H8 C6 1_555 1_555
C7 C2 1_555 1_555
C8 C7 1_555 1_555
H9 C8 1_555 1_555
C9 C8 1_555 1_555
H10 C9 1_555 1_555
C10 C9 1_555 1_555
H11 C10 1_555 1_555
C11 C10 1_555 1_555
H12 C11 1_555 1_555
C12 C7 1_555 1_555
H13 C12 1_555 1_555
C13 C3 1_555 1_555
C14 C13 1_555 1_555
H14 C14 1_555 1_555
H15 C14 1_555 1_555
C15 C13 1_555 1_555
H16 C15 1_555 1_555
H17 C15 1_555 1_555
C16 N2 1_555 1_555
H18 C16 1_555 1_555
H19 C16 1_555 1_555
C17 C16 1_555 1_555
H20 C17 1_555 1_555
H21 C17 1_555 1_555
C18 C17 1_555 1_555
C19 N2 1_555 1_555
C20 C19 1_555 1_555
H22 C20 1_555 1_555
C21 C20 1_555 1_555
H23 C21 1_555 1_555
C22 C21 1_555 1_555
H24 C22 1_555 1_555
C23 C18 1_555 1_555
H25 C23 1_555 1_555
C24 S1 1_555 1_555
C25 C24 1_555 1_555
H26 C25 1_555 1_555
C26 C25 1_555 1_555
H27 C26 1_555 1_555
C27 C26 1_555 1_555
C28 C27 1_555 1_555
H28 C28 1_555 1_555
C29 C24 1_555 1_555
H29 C29 1_555 1_555
C30 C27 1_555 1_555
H30 C30 1_555 1_555
H31 C30 1_555 1_555
H32 C30 1_555 1_555
C1 C2 1_555 1_555
C4 C5 1_555 1_555
C11 C12 1_555 1_555
C18 C19 1_555 1_555
C22 C23 1_555 1_555
C28 C29 1_555 1_555

#END
