
#######################################################################
#
#                 Cambridge Crystallographic Data Centre
#                                CCDC 
#
#######################################################################
#
# If this CIF has been generated from an entry in the Cambridge 
# Structural Database, then it will include bibliographic, chemical, 
# crystal, experimental, refinement or atomic coordinate data resulting 
# from the CCDC's data processing and validation procedures.
#
#######################################################################

data_WEYXEG
_chemical_formula_moiety         'C26 H19 Cl1 O4 S1'
_chemical_name_systematic        
'benzyl (9-chloro-6H,13H-6,13-methano[1]benzothieno[3,2-d][1,3]benzodioxocin-6-yl)acetate'
_symmetry_cell_setting           triclinic
_symmetry_space_group_name_H-M   'P -1'
_symmetry_Int_Tables_number      2
_space_group_name_Hall           '-P 1'
loop_
_symmetry_equiv_pos_site_id
_symmetry_equiv_pos_as_xyz
1 x,y,z
2 -x,-y,-z
_cell_length_a                   6.4182(10)
_cell_length_b                   8.0455(10)
_cell_length_c                   20.610(3)
_cell_angle_alpha                79.262(6)
_cell_angle_beta                 88.226(8)
_cell_angle_gamma                85.037(7)
_cell_volume                     1041.58
_exptl_crystal_colour            colorless
_exptl_crystal_description       Prism
_cell_formula_units_Z            2
loop_
_atom_site_label
_atom_site_type_symbol
_atom_site_fract_x
_atom_site_fract_y
_atom_site_fract_z
S1 S 0.15588(5) 0.88787(4) 0.445598(15)
Cl1 Cl 0.94054(5) 0.57871(4) 0.609349(14)
O1 O 0.63378(13) 0.69712(11) 0.35363(4)
O2 O 0.63427(13) 0.91500(10) 0.26207(4)
O3 O 0.62136(16) 0.70804(12) 0.13824(5)
O4 O 0.94531(14) 0.75857(11) 0.16424(4)
C1 C 0.3622(2) 0.80862(15) 0.49854(6)
C2 C 0.3710(2) 0.81055(16) 0.56612(6)
H1 H 0.2568 0.8600 0.5884
C3 C 0.5492(2) 0.73895(16) 0.59988(6)
H2 H 0.5591 0.7394 0.6457
C4 C 0.7154(2) 0.66567(15) 0.56623(6)
C5 C 0.7109(2) 0.66249(15) 0.49963(6)
H3 H 0.8254 0.6119 0.4779
C6 C 0.53158(19) 0.73647(14) 0.46529(6)
C7 C 0.48679(19) 0.75329(15) 0.39655(6)
C8 C 0.29538(19) 0.82775(15) 0.37894(6)
C9 C 0.22174(19) 0.85716(15) 0.30885(6)
H4 H 0.0687 0.8435 0.3073
C10 C 0.27322(19) 1.02941(15) 0.27172(6)
C11 C 0.1286(2) 1.16990(16) 0.25868(6)
H5 H -0.0115 1.1612 0.2744
C12 C 0.1876(2) 1.32310(16) 0.22274(6)
H6 H 0.0888 1.4193 0.2149
C13 C 0.3900(2) 1.33557(16) 0.19834(6)
H7 H 0.4286 1.4396 0.1728
C14 C 0.5372(2) 1.19685(15) 0.21094(6)
H8 H 0.6762 1.2050 0.1941
C15 C 0.47778(19) 1.04600(14) 0.24861(6)
C16 C 0.35081(19) 0.72512(15) 0.27557(6)
H9 H 0.3153 0.6092 0.2957
H10 H 0.3201 0.7449 0.2278
C17 C 0.57984(19) 0.74357(14) 0.28551(6)
C18 C 0.7346(2) 0.63203(15) 0.25144(6)
H11 H 0.8730 0.6235 0.2722
H12 H 0.6867 0.5163 0.2574
C19 C 0.7557(2) 0.70293(15) 0.17842(6)
C20 C 0.9883(2) 0.83337(18) 0.09532(6)
H13 H 0.9215 0.7697 0.0660
H14 H 1.1410 0.8231 0.0868
C21 C 0.9079(2) 1.01740(17) 0.07928(6)
C22 C 1.0324(3) 1.14279(19) 0.08964(7)
H15 H 1.1681 1.1122 0.1074
C23 C 0.9587(3) 1.31346(19) 0.07398(7)
H16 H 1.0444 1.3986 0.0812
C24 C 0.7627(3) 1.35900(19) 0.04820(7)
H17 H 0.7134 1.4754 0.0375
C25 C 0.6369(3) 1.23505(19) 0.03770(7)
H18 H 0.5013 1.2664 0.0199
C26 C 0.7097(2) 1.06502(18) 0.05329(7)
H19 H 0.6232 0.9803 0.0461
loop_
_geom_bond_atom_site_label_1
_geom_bond_atom_site_label_2
_geom_bond_site_symmetry_1
_geom_bond_site_symmetry_2
S1 C1 1_555 1_555
Cl1 C4 1_555 1_555
O1 C7 1_555 1_555
O2 C15 1_555 1_555
O3 C19 1_555 1_555
O4 C19 1_555 1_555
C1 C2 1_555 1_555
C2 H1 1_555 1_555
C3 C2 1_555 1_555
H2 C3 1_555 1_555
C4 C3 1_555 1_555
C5 C4 1_555 1_555
H3 C5 1_555 1_555
C6 C1 1_555 1_555
C7 C6 1_555 1_555
C8 S1 1_555 1_555
C9 C8 1_555 1_555
H4 C9 1_555 1_555
C10 C9 1_555 1_555
C11 C10 1_555 1_555
H5 C11 1_555 1_555
C12 C11 1_555 1_555
H6 C12 1_555 1_555
C13 C12 1_555 1_555
H7 C13 1_555 1_555
C14 C13 1_555 1_555
H8 C14 1_555 1_555
C15 C10 1_555 1_555
C16 C9 1_555 1_555
H9 C16 1_555 1_555
H10 C16 1_555 1_555
C17 O1 1_555 1_555
C18 C17 1_555 1_555
H11 C18 1_555 1_555
H12 C18 1_555 1_555
C19 C18 1_555 1_555
C20 O4 1_555 1_555
H13 C20 1_555 1_555
H14 C20 1_555 1_555
C21 C20 1_555 1_555
C22 C21 1_555 1_555
H15 C22 1_555 1_555
C23 C22 1_555 1_555
H16 C23 1_555 1_555
C24 C23 1_555 1_555
H17 C24 1_555 1_555
C25 C24 1_555 1_555
H18 C25 1_555 1_555
C26 C21 1_555 1_555
H19 C26 1_555 1_555
O2 C17 1_555 1_555
C5 C6 1_555 1_555
C7 C8 1_555 1_555
C14 C15 1_555 1_555
C16 C17 1_555 1_555
C25 C26 1_555 1_555

#END
