
#######################################################################
#
#                 Cambridge Crystallographic Data Centre
#                                CCDC 
#
#######################################################################
#
# If this CIF has been generated from an entry in the Cambridge 
# Structural Database, then it will include bibliographic, chemical, 
# crystal, experimental, refinement or atomic coordinate data resulting 
# from the CCDC's data processing and validation procedures.
#
#######################################################################

data_WEYYIJ
_chemical_formula_moiety         'C15 H17 N1 O3'
_chemical_name_systematic        
7-methyl-11-phenyl-8,9-dioxa-5-azatricyclo[5.2.2.0^1,5^]undecan-6-one
_symmetry_cell_setting           monoclinic
_symmetry_space_group_name_H-M   'P 21/a'
_symmetry_Int_Tables_number      14
_space_group_name_Hall           '-P 2yab'
loop_
_symmetry_equiv_pos_site_id
_symmetry_equiv_pos_as_xyz
1 x,y,z
2 1/2-x,1/2+y,-z
3 -x,-y,-z
4 1/2+x,1/2-y,z
_cell_length_a                   12.7723(5)
_cell_length_b                   7.1792(2)
_cell_length_c                   14.2615(7)
_cell_angle_alpha                90
_cell_angle_beta                 105.7669(18)
_cell_angle_gamma                90
_cell_volume                     1258.5
_exptl_crystal_colour            'pale yellow'
_exptl_crystal_description       prism
_cell_formula_units_Z            4
loop_
_atom_site_label
_atom_site_type_symbol
_atom_site_fract_x
_atom_site_fract_y
_atom_site_fract_z
O1 O 0.72795(8) 0.69091(12) 0.30361(7)
O2 O 0.64574(7) 0.20365(12) 0.39257(7)
O3 O 0.56363(7) 0.34397(12) 0.34109(6)
N1 N 0.77786(8) 0.39433(14) 0.35458(7)
C1 C 0.88361(10) 0.42030(19) 0.42616(9)
C2 C 0.89312(12) 0.2449(2) 0.48854(10)
C3 C 0.82848(11) 0.09693(19) 0.41937(10)
C4 C 0.73651(10) 0.20519(17) 0.35030(9)
C5 C 0.69642(11) 0.14205(19) 0.24536(10)
C6 C 0.61207(10) 0.28501(17) 0.18783(9)
C7 C 0.59679(10) 0.43330(16) 0.26202(8)
C8 C 0.70761(10) 0.52512(17) 0.30784(8)
C9 C 0.50803(12) 0.57506(19) 0.22324(11)
C10 C 0.50653(10) 0.19793(16) 0.12917(9)
C11 C 0.44791(11) 0.07457(19) 0.17059(10)
C12 C 0.35211(11) -0.0052(2) 0.11500(11)
C13 C 0.31351(11) 0.0378(2) 0.01690(11)
C14 C 0.37093(11) 0.15960(19) -0.02544(10)
C15 C 0.46685(10) 0.23928(18) 0.03045(9)
H1 H 0.8816(11) 0.537(2) 0.4618(10)
H2 H 0.9423(12) 0.427(2) 0.3924(11)
H3 H 0.8599(13) 0.267(2) 0.5416(13)
H4 H 0.9686(13) 0.210(2) 0.5151(12)
H5 H 0.8010(12) 0.001(2) 0.4523(11)
H6 H 0.8740(13) 0.039(2) 0.3803(12)
H7 H 0.6635(12) 0.020(2) 0.2442(11)
H8 H 0.7593(12) 0.131(2) 0.2168(11)
H9 H 0.6451(11) 0.352(2) 0.1422(10)
H10 H 0.5008(13) 0.661(3) 0.2754(13)
H11 H 0.5257(13) 0.647(2) 0.1712(12)
H12 H 0.4376(14) 0.510(2) 0.1947(12)
H13 H 0.4753(12) 0.043(2) 0.2390(12)
H14 H 0.3121(13) -0.092(2) 0.1448(12)
H15 H 0.2483(13) -0.018(2) -0.0212(11)
H16 H 0.3446(12) 0.187(2) -0.0924(12)
H17 H 0.5098(12) 0.322(2) -0.0003(11)
loop_
_geom_bond_atom_site_label_1
_geom_bond_atom_site_label_2
_geom_bond_site_symmetry_1
_geom_bond_site_symmetry_2
O1 C8 1_555 1_555
O2 O3 1_555 1_555
O3 C7 1_555 1_555
N1 C1 1_555 1_555
C1 C2 1_555 1_555
C2 C3 1_555 1_555
C3 C4 1_555 1_555
C4 O2 1_555 1_555
C5 C4 1_555 1_555
C6 C5 1_555 1_555
C7 C6 1_555 1_555
C8 N1 1_555 1_555
C9 C7 1_555 1_555
C10 C6 1_555 1_555
C11 C10 1_555 1_555
C12 C11 1_555 1_555
C13 C12 1_555 1_555
C14 C13 1_555 1_555
C15 C10 1_555 1_555
H1 C1 1_555 1_555
H2 C1 1_555 1_555
H3 C2 1_555 1_555
H4 C2 1_555 1_555
H5 C3 1_555 1_555
H6 C3 1_555 1_555
H7 C5 1_555 1_555
H8 C5 1_555 1_555
H9 C6 1_555 1_555
H10 C9 1_555 1_555
H11 C9 1_555 1_555
H12 C9 1_555 1_555
H13 C11 1_555 1_555
H14 C12 1_555 1_555
H15 C13 1_555 1_555
H16 C14 1_555 1_555
H17 C15 1_555 1_555
N1 C4 1_555 1_555
C7 C8 1_555 1_555
C14 C15 1_555 1_555

#END
