
#######################################################################
#
#                 Cambridge Crystallographic Data Centre
#                                CCDC 
#
#######################################################################
#
# If this CIF has been generated from an entry in the Cambridge 
# Structural Database, then it will include bibliographic, chemical, 
# crystal, experimental, refinement or atomic coordinate data resulting 
# from the CCDC's data processing and validation procedures.
#
#######################################################################

data_WEYYOP
_chemical_formula_moiety         'C12 H19 N1 O2'
_chemical_name_systematic        
5a-hydroxydecahydropyrrolo[1,2-b]isoquinolin-5(1H)-one
_symmetry_cell_setting           monoclinic
_symmetry_space_group_name_H-M   'P 21/c'
_symmetry_Int_Tables_number      14
_space_group_name_Hall           '-P 2ybc'
loop_
_symmetry_equiv_pos_site_id
_symmetry_equiv_pos_as_xyz
1 x,y,z
2 -x,1/2+y,1/2-z
3 -x,-y,-z
4 x,1/2-y,1/2+z
_cell_length_a                   8.8461(6)
_cell_length_b                   12.6516(9)
_cell_length_c                   9.8467(7)
_cell_angle_alpha                90
_cell_angle_beta                 95.9990(10)
_cell_angle_gamma                90
_cell_volume                     1095.98
_exptl_crystal_colour            colorless
_exptl_crystal_description       prism
_cell_formula_units_Z            4
loop_
_atom_site_label
_atom_site_type_symbol
_atom_site_fract_x
_atom_site_fract_y
_atom_site_fract_z
O1 O 0.37726(10) -0.01330(7) 0.32337(9)
O2 O 0.36190(9) 0.11546(7) 0.58082(8)
H1 H 0.4394 0.0796 0.6070
N1 N 0.15502(11) 0.07229(8) 0.30776(10)
C1 C 0.30334(13) 0.06537(9) 0.35111(11)
C2 C 0.37328(12) 0.15357(9) 0.44484(11)
C3 C 0.53822(13) 0.17435(10) 0.41999(12)
H2 H 0.5969 0.1078 0.4323
H3 H 0.5419 0.1984 0.3247
C4 C 0.61071(14) 0.25799(10) 0.51792(13)
H4 H 0.7149 0.2732 0.4951
H5 H 0.6183 0.2303 0.6124
C5 C 0.51787(16) 0.36009(10) 0.50987(14)
H6 H 0.5616 0.4097 0.5812
H7 H 0.5240 0.3938 0.4199
C6 C 0.35170(14) 0.33919(10) 0.52935(13)
H8 H 0.2936 0.4060 0.5166
H9 H 0.3445 0.3142 0.6238
C7 C 0.28154(13) 0.25673(9) 0.42867(12)
H10 H 0.2894 0.2841 0.3344
C8 C 0.11468(14) 0.23249(11) 0.44064(13)
H11 H 0.1043 0.1958 0.5280
H12 H 0.0558 0.2991 0.4393
C9 C 0.05429(13) 0.16335(11) 0.32268(14)
H13 H 0.0513 0.2065 0.2374
C10 C -0.09845(15) 0.11049(13) 0.32451(16)
H14 H -0.1822 0.1603 0.2965
H15 H -0.1115 0.0826 0.4165
C11 C -0.09347(16) 0.02107(14) 0.22123(16)
H16 H -0.1225 0.0469 0.1272
H17 H -0.1629 -0.0369 0.2411
C12 C 0.07227(15) -0.01628(12) 0.23834(14)
H18 H 0.0837 -0.0813 0.2944
H19 H 0.1092 -0.0303 0.1486
loop_
_geom_bond_atom_site_label_1
_geom_bond_atom_site_label_2
_geom_bond_site_symmetry_1
_geom_bond_site_symmetry_2
O1 C1 1_555 1_555
O2 H1 1_555 1_555
N1 C1 1_555 1_555
C1 C2 1_555 1_555
C2 O2 1_555 1_555
C3 C2 1_555 1_555
H2 C3 1_555 1_555
H3 C3 1_555 1_555
C4 C3 1_555 1_555
H4 C4 1_555 1_555
H5 C4 1_555 1_555
C5 C4 1_555 1_555
H6 C5 1_555 1_555
H7 C5 1_555 1_555
C6 C5 1_555 1_555
H8 C6 1_555 1_555
H9 C6 1_555 1_555
C7 C2 1_555 1_555
H10 C7 1_555 1_555
C8 C7 1_555 1_555
H11 C8 1_555 1_555
H12 C8 1_555 1_555
C9 N1 1_555 1_555
H13 C9 1_555 1_555
C10 C9 1_555 1_555
H14 C10 1_555 1_555
H15 C10 1_555 1_555
C11 C10 1_555 1_555
H16 C11 1_555 1_555
H17 C11 1_555 1_555
C12 N1 1_555 1_555
H18 C12 1_555 1_555
H19 C12 1_555 1_555
C6 C7 1_555 1_555
C8 C9 1_555 1_555
C11 C12 1_555 1_555

#END
