
#######################################################################
#
#                 Cambridge Crystallographic Data Centre
#                                CCDC 
#
#######################################################################
#
# If this CIF has been generated from an entry in the Cambridge 
# Structural Database, then it will include bibliographic, chemical, 
# crystal, experimental, refinement or atomic coordinate data resulting 
# from the CCDC's data processing and validation procedures.
#
#######################################################################

data_WEZJIV
_chemical_formula_moiety         'C34 H38 N8 O2'
_chemical_name_systematic        
6,6'-(1,4-Phenylenebis(methylene-1H-pyrazole-1,3-diyl))-bis(N,N-diethylpyridine-2-carboxamide)
_symmetry_cell_setting           triclinic
_symmetry_space_group_name_H-M   'P -1'
_symmetry_Int_Tables_number      2
_space_group_name_Hall           '-P 1'
loop_
_symmetry_equiv_pos_site_id
_symmetry_equiv_pos_as_xyz
1 x,y,z
2 -x,-y,-z
_cell_length_a                   5.3464(6)
_cell_length_b                   11.5521(13)
_cell_length_c                   13.1243(14)
_cell_angle_alpha                71.846(8)
_cell_angle_beta                 81.774(8)
_cell_angle_gamma                81.590(8)
_cell_volume                     757.843
_exptl_crystal_colour            colorless
_exptl_crystal_description       plate
_cell_formula_units_Z            1
_exptl_crystal_recrystallization_method 'di-isopropyl ether/dichloromethane'
loop_
_atom_site_label
_atom_site_type_symbol
_atom_site_fract_x
_atom_site_fract_y
_atom_site_fract_z
O1 O 0.2960(3) 0.66252(12) 0.85884(11)
N1 N 0.5068(3) 0.96978(14) 0.24132(12)
N2 N 0.6393(3) 0.95140(14) 0.32653(13)
N3 N 0.4810(3) 0.73751(14) 0.58844(13)
N4 N 0.3045(3) 0.52304(14) 0.77000(13)
C1 C 0.8700(4) 0.90790(18) 0.07202(16)
H1 H 0.7823 0.8439 0.1215
C2 C 0.9259(4) 1.12016(18) -0.00227(15)
H2 H 0.8767 1.2032 -0.0041
C3 C 0.7929(4) 1.02862(17) 0.07012(15)
C4 C 0.5661(4) 1.06471(18) 0.14124(15)
H3 H 0.5986 1.1382 0.1588
H4 H 0.4158 1.0876 0.1002
C5 C 0.3217(4) 0.89477(18) 0.26379(16)
H5 H 0.2060 0.8925 0.2160
C6 C 0.3321(4) 0.82296(18) 0.36795(16)
H6 H 0.2272 0.7607 0.4074
C7 C 0.5319(4) 0.86104(17) 0.40424(15)
C8 C 0.6146(4) 0.82046(17) 0.51342(15)
C9 C 0.8152(4) 0.86919(18) 0.53703(16)
H7 H 0.9049 0.9280 0.4820
C10 C 0.8823(4) 0.83136(17) 0.64080(15)
H8 H 1.0210 0.8620 0.6581
C11 C 0.7435(4) 0.74784(17) 0.71929(16)
H9 H 0.7841 0.7206 0.7917
C12 C 0.5435(4) 0.70445(17) 0.69017(16)
C13 C 0.3728(4) 0.62707(18) 0.77875(16)
C14 C 0.4050(4) 0.46803(19) 0.68390(16)
H10 H 0.4645 0.3806 0.7165
H11 H 0.5533 0.5094 0.6423
C15 C 0.2097(4) 0.4773(2) 0.60750(17)
H12 H 0.0619 0.4368 0.6482
H13 H 0.2850 0.4373 0.5528
H14 H 0.1561 0.5638 0.5722
C16 C 0.1461(4) 0.44976(18) 0.86128(16)
H15 H 0.0569 0.3962 0.8360
H16 H 0.0160 0.5051 0.8900
C17 C 0.3037(4) 0.37140(19) 0.95053(17)
H17 H 0.4327 0.3165 0.9223
H18 H 0.1929 0.3227 1.0094
H19 H 0.3872 0.4243 0.9776
O1A O 1.7040(3) 1.33748(12) -0.85884(11)
N1A N 1.4932(3) 1.03022(14) -0.24132(12)
N2A N 1.3607(3) 1.04860(14) -0.32653(13)
N3A N 1.5190(3) 1.26249(14) -0.58844(13)
N4A N 1.6955(3) 1.47696(14) -0.77000(13)
C1A C 1.1300(4) 1.09210(18) -0.07202(16)
H1A H 1.2177 1.1561 -0.1215
C2A C 1.0741(4) 0.87984(18) 0.00227(15)
H2A H 1.1233 0.7968 0.0041
C3A C 1.2071(4) 0.97138(17) -0.07012(15)
C4A C 1.4339(4) 0.93529(18) -0.14124(15)
H3A H 1.4014 0.8618 -0.1588
H4A H 1.5842 0.9124 -0.1002
C5A C 1.6783(4) 1.10523(18) -0.26379(16)
H5A H 1.7940 1.1075 -0.2160
C6A C 1.6679(4) 1.17704(18) -0.36795(16)
H6A H 1.7728 1.2393 -0.4074
C7A C 1.4681(4) 1.13896(17) -0.40424(15)
C8A C 1.3854(4) 1.17954(17) -0.51342(15)
C9A C 1.1848(4) 1.13081(18) -0.53703(16)
H7A H 1.0951 1.0720 -0.4820
C10A C 1.1177(4) 1.16864(17) -0.64080(15)
H8A H 0.9790 1.1380 -0.6581
C11A C 1.2565(4) 1.25216(17) -0.71929(16)
H9A H 1.2159 1.2794 -0.7917
C12A C 1.4565(4) 1.29555(17) -0.69017(16)
C13A C 1.6272(4) 1.37293(18) -0.77875(16)
C14A C 1.5950(4) 1.53197(19) -0.68390(16)
H10A H 1.5355 1.6194 -0.7165
H11A H 1.4467 1.4906 -0.6423
C15A C 1.7903(4) 1.5227(2) -0.60750(17)
H12A H 1.9381 1.5632 -0.6482
H13A H 1.7150 1.5627 -0.5528
H14A H 1.8439 1.4362 -0.5722
C16A C 1.8539(4) 1.55024(18) -0.86128(16)
H15A H 1.9431 1.6038 -0.8360
H16A H 1.9840 1.4949 -0.8900
C17A C 1.6963(4) 1.62860(19) -0.95053(17)
H17A H 1.5673 1.6835 -0.9223
H18A H 1.8071 1.6773 -1.0094
H19A H 1.6128 1.5757 -0.9776
loop_
_geom_bond_atom_site_label_1
_geom_bond_atom_site_label_2
_geom_bond_site_symmetry_1
_geom_bond_site_symmetry_2
O1 C13 1_555 1_555
N1 N2 1_555 1_555
N2 C7 1_555 1_555
N3 C8 1_555 1_555
N4 C13 1_555 1_555
C1 H1 1_555 1_555
C2 H2 1_555 1_555
C3 C1 1_555 1_555
C4 N1 1_555 1_555
H3 C4 1_555 1_555
H4 C4 1_555 1_555
C5 N1 1_555 1_555
H5 C5 1_555 1_555
C6 C5 1_555 1_555
H6 C6 1_555 1_555
C7 C6 1_555 1_555
C8 C7 1_555 1_555
C9 C8 1_555 1_555
H7 C9 1_555 1_555
C10 C9 1_555 1_555
H8 C10 1_555 1_555
C11 C10 1_555 1_555
H9 C11 1_555 1_555
C12 N3 1_555 1_555
C13 C12 1_555 1_555
C14 N4 1_555 1_555
H10 C14 1_555 1_555
H11 C14 1_555 1_555
C15 C14 1_555 1_555
H12 C15 1_555 1_555
H13 C15 1_555 1_555
H14 C15 1_555 1_555
C16 N4 1_555 1_555
H15 C16 1_555 1_555
H16 C16 1_555 1_555
C17 C16 1_555 1_555
H17 C17 1_555 1_555
H18 C17 1_555 1_555
H19 C17 1_555 1_555
O1A C13A 1_555 1_555
N1A N2A 1_555 1_555
N2A C7A 1_555 1_555
N3A C8A 1_555 1_555
N4A C13A 1_555 1_555
C1A C2 1_555 1_555
H1A C1A 1_555 1_555
C2A C1 1_555 1_555
H2A C2A 1_555 1_555
C3A C1A 1_555 1_555
C4A N1A 1_555 1_555
H3A C4A 1_555 1_555
H4A C4A 1_555 1_555
C5A N1A 1_555 1_555
H5A C5A 1_555 1_555
C6A C5A 1_555 1_555
H6A C6A 1_555 1_555
C7A C6A 1_555 1_555
C8A C7A 1_555 1_555
C9A C8A 1_555 1_555
H7A C9A 1_555 1_555
C10A C9A 1_555 1_555
H8A C10A 1_555 1_555
C11A C10A 1_555 1_555
H9A C11A 1_555 1_555
C12A N3A 1_555 1_555
C13A C12A 1_555 1_555
C14A N4A 1_555 1_555
H10A C14A 1_555 1_555
H11A C14A 1_555 1_555
C15A C14A 1_555 1_555
H12A C15A 1_555 1_555
H13A C15A 1_555 1_555
H14A C15A 1_555 1_555
C16A N4A 1_555 1_555
H15A C16A 1_555 1_555
H16A C16A 1_555 1_555
C17A C16A 1_555 1_555
H17A C17A 1_555 1_555
H18A C17A 1_555 1_555
H19A C17A 1_555 1_555
C2 C3 1_555 1_555
C3 C4 1_555 1_555
C11 C12 1_555 1_555
C2A C3A 1_555 1_555
C3A C4A 1_555 1_555
C11A C12A 1_555 1_555

#END
