
#######################################################################
#
#                 Cambridge Crystallographic Data Centre
#                                CCDC 
#
#######################################################################
#
# If this CIF has been generated from an entry in the Cambridge 
# Structural Database, then it will include bibliographic, chemical, 
# crystal, experimental, refinement or atomic coordinate data resulting 
# from the CCDC's data processing and validation procedures.
#
#######################################################################

data_WEZMAS
_chemical_formula_moiety         'C29 H21 N3 O1 S1'
_chemical_name_systematic        
4,4'-(5-oxo-10-propyl-5,10-dihydro-5\l^4^-phenothiazine-3,7-diyl)dibenzonitrile
_symmetry_cell_setting           monoclinic
_symmetry_space_group_name_H-M   'P 21/n'
_symmetry_Int_Tables_number      14
_space_group_name_Hall           '-P 2yn'
loop_
_symmetry_equiv_pos_site_id
_symmetry_equiv_pos_as_xyz
1 x,y,z
2 1/2-x,1/2+y,1/2-z
3 -x,-y,-z
4 1/2+x,1/2-y,1/2+z
_cell_length_a                   13.2605(7)
_cell_length_b                   11.6111(7)
_cell_length_c                   16.6537(8)
_cell_angle_alpha                90
_cell_angle_beta                 92.574(4)
_cell_angle_gamma                90
_cell_volume                     2561.57
_exptl_crystal_colour            colorless
_exptl_crystal_description       prism
_cell_formula_units_Z            4
loop_
_atom_site_label
_atom_site_type_symbol
_atom_site_fract_x
_atom_site_fract_y
_atom_site_fract_z
S1 S 0.65380(13) 0.43854(17) 1.01515(11)
O1 O 0.6005(4) 0.3819(6) 1.0822(3)
C1 C 1.1683(8) 0.7800(10) 1.2966(6)
C2 C 0.1577(7) 0.4323(9) 0.6349(6)
N1 N 0.7661(5) 0.2153(6) 0.9672(4)
C3 C 0.6777(5) 0.2460(7) 0.9217(4)
C4 C 0.5489(5) 0.3824(7) 0.8803(4)
H1 H 0.5202 0.4548 0.8865
C5 C 0.5087(5) 0.3086(6) 0.8203(4)
C6 C 0.9414(5) 0.4663(7) 1.0966(4)
C7 C 1.0010(6) 0.5439(7) 1.1464(5)
C8 C 0.2469(7) 0.4023(8) 0.6779(4)
C9 C 0.7841(5) 0.4068(6) 1.0289(4)
C10 C 0.9801(6) 0.3573(9) 1.0750(5)
H2 H 1.0468 0.3400 1.0899
C11 C 0.3497(6) 0.2574(8) 0.7416(4)
H3 H 0.3607 0.1802 0.7542
C12 C 0.8017(6) 0.0961(7) 0.9652(4)
H4 H 0.7433 0.0456 0.9618
H5 H 0.8385 0.0797 1.0155
C13 C 0.8201(5) 0.2955(6) 1.0096(4)
C14 C 0.4195(6) 0.3428(7) 0.7689(4)
C15 C 0.6304(5) 0.3501(6) 0.9308(4)
C16 C 0.5556(6) 0.2038(8) 0.8143(5)
H6 H 0.5309 0.1532 0.7748
C17 C 0.8422(5) 0.4852(6) 1.0717(4)
H7 H 0.8130 0.5552 1.0846
C18 C 1.1130(7) 0.6973(8) 1.2477(5)
C19 C 0.3147(7) 0.4876(9) 0.7031(5)
H8 H 0.3040 0.5641 0.6885
C20 C 0.8698(6) 0.0661(7) 0.8959(5)
H9 H 0.8374 0.0890 0.8450
H10 H 0.9334 0.1071 0.9025
C21 C 1.1050(6) 0.5332(8) 1.1591(5)
H11 H 1.1385 0.4740 1.1337
C22 C 1.0076(7) 0.7155(8) 1.2342(7)
H12 H 0.9761 0.7782 1.2571
C23 C 0.3983(6) 0.4559(8) 0.7502(5)
H13 H 0.4419 0.5130 0.7701
C24 C 0.9236(6) 0.2751(7) 1.0326(5)
H14 H 0.9536 0.2058 1.0190
C25 C 0.6376(6) 0.1682(7) 0.8631(5)
H15 H 0.6653 0.0953 0.8575
C26 C 0.9523(6) 0.6373(8) 1.1859(5)
H16 H 0.8828 0.6460 1.1792
N2 N 0.0854(8) 0.4628(9) 0.6016(6)
C27 C 0.2654(6) 0.2907(9) 0.6962(5)
H17 H 0.2199 0.2348 0.6776
C28 C 1.1600(7) 0.6085(9) 1.2085(5)
H18 H 1.2295 0.5993 1.2153
N3 N 1.2165(7) 0.8402(9) 1.3361(6)
C29 C 0.8886(11) -0.0611(9) 0.8962(7)
H19 H 0.9316 -0.0806 0.8534
H20 H 0.8255 -0.1011 0.8888
H21 H 0.9206 -0.0831 0.9467
loop_
_geom_bond_atom_site_label_1
_geom_bond_atom_site_label_2
_geom_bond_site_symmetry_1
_geom_bond_site_symmetry_2
S1 O1 1_555 1_555
C1 C18 1_555 1_555
C2 C8 1_555 1_555
N1 C3 1_555 1_555
C3 C15 1_555 1_555
C4 H1 1_555 1_555
C5 C4 1_555 1_555
C6 C7 1_555 1_555
C7 C21 1_555 1_555
C8 C19 1_555 1_555
C9 S1 1_555 1_555
C10 C6 1_555 1_555
H2 C10 1_555 1_555
C11 H3 1_555 1_555
C12 N1 1_555 1_555
H4 C12 1_555 1_555
H5 C12 1_555 1_555
C13 N1 1_555 1_555
C14 C5 1_555 1_555
C15 S1 1_555 1_555
C16 C5 1_555 1_555
H6 C16 1_555 1_555
C17 C6 1_555 1_555
H7 C17 1_555 1_555
C18 C22 1_555 1_555
C19 H8 1_555 1_555
C20 C12 1_555 1_555
H9 C20 1_555 1_555
H10 C20 1_555 1_555
C21 H11 1_555 1_555
C22 H12 1_555 1_555
C23 C14 1_555 1_555
H13 C23 1_555 1_555
C24 C10 1_555 1_555
H14 C24 1_555 1_555
C25 C3 1_555 1_555
H15 C25 1_555 1_555
C26 C7 1_555 1_555
H16 C26 1_555 1_555
N2 C2 1_555 1_555
C27 C8 1_555 1_555
H17 C27 1_555 1_555
C28 C18 1_555 1_555
H18 C28 1_555 1_555
N3 C1 1_555 1_555
C29 C20 1_555 1_555
H19 C29 1_555 1_555
H20 C29 1_555 1_555
H21 C29 1_555 1_555
C4 C15 1_555 1_555
C9 C13 1_555 1_555
C9 C17 1_555 1_555
C11 C14 1_555 1_555
C11 C27 1_555 1_555
C13 C24 1_555 1_555
C16 C25 1_555 1_555
C19 C23 1_555 1_555
C21 C28 1_555 1_555
C22 C26 1_555 1_555

#END
