
#######################################################################
#
#                 Cambridge Crystallographic Data Centre
#                                CCDC 
#
#######################################################################
#
# If this CIF has been generated from an entry in the Cambridge 
# Structural Database, then it will include bibliographic, chemical, 
# crystal, experimental, refinement or atomic coordinate data resulting 
# from the CCDC's data processing and validation procedures.
#
#######################################################################

data_WIBPII
_chemical_formula_moiety         'C7 H2 F3 I1 N2 O5 S1'
_chemical_name_systematic        
"2'-Iodo-2,4'-bi-1,3-oxazol-4-yl trifluoromethanesulfonate"
_symmetry_cell_setting           triclinic
_symmetry_space_group_name_H-M   'P -1'
_symmetry_Int_Tables_number      2
_space_group_name_Hall           '-P 1'
loop_
_symmetry_equiv_pos_site_id
_symmetry_equiv_pos_as_xyz
1 x,y,z
2 -x,-y,-z
_cell_length_a                   5.3805(5)
_cell_length_b                   14.4770(13)
_cell_length_c                   14.8833(13)
_cell_angle_alpha                92.205(2)
_cell_angle_beta                 92.046(2)
_cell_angle_gamma                90.356(2)
_cell_volume                     1157.68
_exptl_crystal_colour            colorless
_exptl_crystal_description       Plate
_cell_formula_units_Z            4
loop_
_atom_site_label
_atom_site_type_symbol
_atom_site_fract_x
_atom_site_fract_y
_atom_site_fract_z
I1 I 0.26111(3) 0.348715(12) 0.155259(11)
S1 S 0.21251(13) 0.82005(5) 0.66032(4)
F1 F 0.2445(4) 0.97153(14) 0.57502(14)
F2 F -0.1292(4) 0.92744(14) 0.59346(12)
F3 F 0.0903(3) 0.85772(12) 0.49432(10)
O1 O -0.1301(3) 0.46094(14) 0.24452(13)
O2 O 0.3752(3) 0.58783(13) 0.46646(12)
O3 O 0.0701(3) 0.72775(13) 0.62858(12)
O4 O 0.4719(4) 0.81168(15) 0.64833(14)
O5 O 0.1112(4) 0.84834(14) 0.74313(12)
N1 N 0.2396(4) 0.48039(15) 0.31608(14)
N2 N -0.0068(4) 0.63920(16) 0.49286(14)
C1 C 0.1153(5) 0.43988(18) 0.25020(17)
C2 C -0.1614(5) 0.5227(2) 0.31598(19)
C3 C 0.0609(5) 0.53421(18) 0.35982(17)
C4 C 0.1312(5) 0.58881(18) 0.44028(17)
C5 C 0.3925(5) 0.6421(2) 0.54422(18)
C6 C 0.1616(5) 0.67237(18) 0.55779(17)
C7 C 0.0954(5) 0.8991(2) 0.57565(19)
H1 H -0.315(6) 0.554(2) 0.323(2)
H2 H 0.546(6) 0.653(2) 0.571(2)
I2 I 0.28952(4) 0.591459(13) 1.068794(13)
S2 S 0.30244(13) 1.17534(5) 0.75532(5)
F4 F 0.3756(3) 1.20360(15) 0.58822(12)
F5 F 0.6039(3) 1.09620(12) 0.64383(11)
F6 F 0.6889(3) 1.24002(12) 0.67694(12)
O6 O 0.0596(3) 0.77234(13) 1.04664(12)
O7 O 0.6105(3) 0.90098(13) 0.85943(12)
O8 O 0.4951(3) 1.13809(13) 0.82877(12)
O9 O 0.1164(4) 1.10762(15) 0.73322(14)
O10 O 0.2497(4) 1.26762(15) 0.78083(15)
N3 N 0.4077(4) 0.76363(15) 0.96884(14)
N4 N 0.3301(4) 1.00619(15) 0.90045(14)
C8 C 0.2595(5) 0.72198(19) 1.02105(17)
C9 C 0.0865(5) 0.85475(19) 1.00514(17)
C10 C 0.2946(5) 0.84888(18) 0.95789(16)
C11 C 0.4040(5) 0.92136(18) 0.90585(16)
C12 C 0.6713(5) 0.98168(19) 0.81919(18)
C13 C 0.5014(5) 1.04393(18) 0.84514(17)
C14 C 0.5080(5) 1.1791(2) 0.65988(19)
H3 H -0.026(5) 0.904(2) 1.0145(19)
H4 H 0.837(5) 0.9877(18) 0.7738(17)
loop_
_geom_bond_atom_site_label_1
_geom_bond_atom_site_label_2
_geom_bond_site_symmetry_1
_geom_bond_site_symmetry_2
I1 C1 1_555 1_555
S1 O3 1_555 1_555
F1 C7 1_555 1_555
F2 C7 1_555 1_555
F3 C7 1_555 1_555
O1 C1 1_555 1_555
O2 C4 1_555 1_555
O3 C6 1_555 1_555
O4 S1 1_555 1_555
O5 S1 1_555 1_555
N1 C1 1_555 1_555
N2 C4 1_555 1_555
C2 O1 1_555 1_555
C3 N1 1_555 1_555
C4 C3 1_555 1_555
C5 O2 1_555 1_555
C6 N2 1_555 1_555
C7 S1 1_555 1_555
H1 C2 1_555 1_555
H2 C5 1_555 1_555
I2 C8 1_555 1_555
S2 O8 1_555 1_555
F4 C14 1_555 1_555
F5 C14 1_555 1_555
F6 C14 1_555 1_555
O6 C8 1_555 1_555
O7 C11 1_555 1_555
O8 C13 1_555 1_555
O9 S2 1_555 1_555
O10 S2 1_555 1_555
N3 C8 1_555 1_555
N4 C11 1_555 1_555
C9 O6 1_555 1_555
C10 N3 1_555 1_555
C11 C10 1_555 1_555
C12 O7 1_555 1_555
C13 N4 1_555 1_555
C14 S2 1_555 1_555
H3 C9 1_555 1_555
H4 C12 1_555 1_555
C2 C3 1_555 1_555
C5 C6 1_555 1_555
C9 C10 1_555 1_555
C12 C13 1_555 1_555

#END
