
#######################################################################
#
#                 Cambridge Crystallographic Data Centre
#                                CCDC 
#
#######################################################################
#
# If this CIF has been generated from an entry in the Cambridge 
# Structural Database, then it will include bibliographic, chemical, 
# crystal, experimental, refinement or atomic coordinate data resulting 
# from the CCDC's data processing and validation procedures.
#
#######################################################################

data_WIBSEH
_chemical_formula_moiety         'C30 H22 O2,2(C15 H26 O1)'
_chemical_name_systematic        
'1,1,6,6-Tetraphenylhexa-2,4-diyne-1,6-diol bis(2,2,6,8-tetramethyltricyclo[5.3.1.0^3,8^]undecan-3-ol)'
_symmetry_cell_setting           triclinic
_symmetry_space_group_name_H-M   'P 1'
_symmetry_Int_Tables_number      1
_space_group_name_Hall           'P 1'
loop_
_symmetry_equiv_pos_site_id
_symmetry_equiv_pos_as_xyz
1 x,y,z
_cell_length_a                   10.000(3)
_cell_length_b                   11.694(4)
_cell_length_c                   12.788(5)
_cell_angle_alpha                106.14(2)
_cell_angle_beta                 98.63(4)
_cell_angle_gamma                113.75(4)
_cell_volume                     1255.1
_cell_formula_units_Z            1
loop_
_atom_site_label
_atom_site_type_symbol
_atom_site_fract_x
_atom_site_fract_y
_atom_site_fract_z
O1 O 1.0834(5) 0.6818(3) 0.8032(3)
H1 H 1.1386 0.6543 0.7755
O2 O 0.7432(5) 0.6257(4) 0.1629(3)
H2 H 0.6793 0.6477 0.1812
C1 C 1.0881(6) 0.7903(4) 0.7712(4)
C2 C 1.0134(6) 0.7373(5) 0.6481(4)
C3 C 0.9542(6) 0.6932(5) 0.5469(5)
C4 C 0.8832(6) 0.6392(5) 0.4309(4)
C5 C 0.8206(6) 0.5894(5) 0.3303(4)
C6 C 0.7433(5) 0.5254(5) 0.2054(4)
C7 C 1.2543(5) 0.8997(4) 0.8054(4)
C8 C 1.3465(7) 0.9483(6) 0.9154(5)
H3 H 1.3077 0.9129 0.9674
C9 C 1.4960(7) 1.0489(6) 0.9497(5)
H4 H 1.5553 1.0814 1.0249
C10 C 1.5580(7) 1.1012(6) 0.8761(5)
H5 H 1.6594 1.1673 0.8989
C11 C 1.4655(8) 1.0530(7) 0.7663(6)
H6 H 1.5047 1.0886 0.7145
C12 C 1.3159(7) 0.9531(6) 0.7314(5)
H7 H 1.2564 0.9218 0.6565
C13 C 0.9975(5) 0.8465(5) 0.8352(4)
C14 C 0.9655(7) 0.8203(6) 0.9294(5)
H8 H 0.9950 0.7636 0.9534
C15 C 0.8899(9) 0.8780(9) 0.9882(6)
H9 H 0.8714 0.8612 1.0530
C16 C 0.8417(8) 0.9581(9) 0.9548(8)
H10 H 0.7887 0.9945 0.9946
C17 C 0.8720(8) 0.9841(7) 0.8624(7)
H11 H 0.8402 1.0399 0.8387
C18 C 0.9490(7) 0.9297(6) 0.8026(6)
H12 H 0.9689 0.9492 0.7392
C19 C 0.8359(5) 0.4656(5) 0.1461(4)
C20 C 0.8786(7) 0.3809(6) 0.1824(5)
H13 H 0.8510 0.3608 0.2438
C21 C 0.9591(8) 0.3269(6) 0.1309(6)
H14 H 0.9863 0.2701 0.1567
C22 C 1.0012(7) 0.3565(7) 0.0395(7)
H15 H 1.0572 0.3198 0.0041
C23 C 0.9609(7) 0.4388(7) 0.0014(5)
H16 H 0.9891 0.4584 -0.0601
C24 C 0.8768(6) 0.4943(6) 0.0547(4)
H17 H 0.8485 0.5503 0.0284
C25 C 0.5800(5) 0.4137(5) 0.1770(4)
C26 C 0.4818(7) 0.3600(7) 0.0685(5)
H18 H 0.5153 0.3925 0.0136
C27 C 0.3341(9) 0.2584(8) 0.0398(8)
H19 H 0.2690 0.2252 -0.0336
C28 C 0.2837(7) 0.2077(7) 0.1144(9)
H20 H 0.1843 0.1388 0.0936
C29 C 0.3796(10) 0.2576(7) 0.2238(8)
H21 H 0.3447 0.2220 0.2767
C30 C 0.5285(7) 0.3612(6) 0.2549(5)
H22 H 0.5928 0.3946 0.3286
O3 O 0.2808(5) 0.6214(4) 0.6960(4)
H23 H 0.2556 0.6328 0.6372
C31 C 0.3770(6) 0.4970(5) 0.7824(4)
C32 C 0.2332(9) 0.4268(7) 0.8158(6)
H24 H 0.1779 0.4789 0.8216
H25 H 0.2630 0.4230 0.8900
C33 C 0.1275(9) 0.2831(8) 0.7278(8)
H26 H 0.1337 0.2177 0.7584
H27 H 0.0222 0.2672 0.7098
C34 C 0.1786(6) 0.2688(5) 0.6206(6)
H28 H 0.1049 0.1823 0.5599
C35 C 0.1927(7) 0.3851(5) 0.5804(5)
C36 C 0.3321(6) 0.5204(5) 0.6722(4)
C37 C 0.3324(7) 0.2717(5) 0.6519(6)
H29 H 0.3711 0.2649 0.5865
H30 H 0.3201 0.1948 0.6722
C38 C 0.4488(7) 0.4028(5) 0.7530(5)
H31 H 0.4693 0.3790 0.8192
C39 C 0.6021(7) 0.4753(6) 0.7317(6)
H32 H 0.6667 0.5586 0.7984
C40 C 0.5764(7) 0.5121(7) 0.6323(6)
H33 H 0.5292 0.4313 0.5637
H34 H 0.6745 0.5718 0.6279
C41 C 0.4755(7) 0.5809(6) 0.6360(6)
H35 H 0.4439 0.5814 0.5607
H36 H 0.5376 0.6740 0.6878
C42 C 0.4850(9) 0.6297(7) 0.8837(6)
H37 H 0.5105 0.6106 0.9500
H38 H 0.4350 0.6849 0.8985
H39 H 0.5767 0.6765 0.8658
C43 C 0.2119(11) 0.3500(8) 0.4595(6)
H40 H 0.1246 0.2673 0.4085
H41 H 0.3028 0.3399 0.4621
H42 H 0.2202 0.4211 0.4330
C44 C 0.0411(8) 0.3929(7) 0.5679(9)
H43 H 0.0228 0.4128 0.6408
H44 H -0.0414 0.3081 0.5151
H45 H 0.0476 0.4626 0.5400
C45 C 0.6863(9) 0.3902(8) 0.7166(9)
H46 H 0.7809 0.4384 0.7027
H47 H 0.6236 0.3065 0.6530
H48 H 0.7069 0.3725 0.7845
O4 O 0.5261(5) 0.6975(4) 0.2247(4)
H49 H 0.6001 0.7101 0.2727
C46 C 0.4295(6) 0.7901(5) 0.3749(4)
C47 C 0.5688(10) 0.8360(9) 0.4767(7)
H50 H 0.5337 0.8211 0.5407
H51 H 0.6204 0.7823 0.4558
C48 C 0.6824(9) 0.9856(8) 0.5126(7)
H52 H 0.6785 1.0379 0.5846
H53 H 0.7858 0.9976 0.5215
C49 C 0.6370(7) 1.0313(6) 0.4201(6)
H54 H 0.7149 1.1235 0.4369
C50 C 0.6252(6) 0.9412(5) 0.3038(5)
C51 C 0.4806(6) 0.8007(5) 0.2682(4)
C52 C 0.4853(7) 1.0315(6) 0.4235(5)
H55 H 0.4977 1.0931 0.4973
H56 H 0.4536 1.0620 0.3657
C53 C 0.3618(7) 0.8879(6) 0.4017(5)
H57 H 0.3357 0.8896 0.4728
C54 C 0.2159(7) 0.8446(7) 0.3101(6)
H58 H 0.1443 0.7525 0.2997
C55 C 0.2510(8) 0.8397(8) 0.1999(6)
H59 H 0.1556 0.7959 0.1390
H60 H 0.3076 0.9311 0.2036
C56 C 0.3423(7) 0.7661(7) 0.1713(5)
H61 H 0.3788 0.7841 0.1085
H62 H 0.2740 0.6702 0.1444
C57 C 0.3142(9) 0.6479(7) 0.3574(8)
H63 H 0.2254 0.6166 0.2952
H64 H 0.2850 0.6481 0.4256
H65 H 0.3596 0.5891 0.3404
C58 C 0.6186(11) 1.0086(8) 0.2163(8)
H66 H 0.5274 1.0186 0.2064
H67 H 0.6178 0.9534 0.1446
H68 H 0.7067 1.0956 0.2435
C59 C 0.7754(8) 0.9304(7) 0.3112(9)
H69 H 0.7870 0.8874 0.3633
H70 H 0.8607 1.0190 0.3378
H71 H 0.7716 0.8782 0.2371
C60 C 0.1385(10) 0.9320(9) 0.3448(9)
H72 H 0.0477 0.9011 0.2845
H73 H 0.2075 1.0239 0.3589
H74 H 0.1117 0.9259 0.4128
loop_
_geom_bond_atom_site_label_1
_geom_bond_atom_site_label_2
_geom_bond_site_symmetry_1
_geom_bond_site_symmetry_2
O1 H1 1_555 1_555
O2 H2 1_555 1_555
C1 O1 1_555 1_555
C2 C1 1_555 1_555
C3 C2 1_555 1_555
C4 C3 1_555 1_555
C5 C4 1_555 1_555
C6 O2 1_555 1_555
C7 C1 1_555 1_555
C8 C7 1_555 1_555
H3 C8 1_555 1_555
C9 C8 1_555 1_555
H4 C9 1_555 1_555
C10 C9 1_555 1_555
H5 C10 1_555 1_555
C11 C10 1_555 1_555
H6 C11 1_555 1_555
C12 C7 1_555 1_555
H7 C12 1_555 1_555
C13 C1 1_555 1_555
C14 C13 1_555 1_555
H8 C14 1_555 1_555
C15 C14 1_555 1_555
H9 C15 1_555 1_555
C16 C15 1_555 1_555
H10 C16 1_555 1_555
C17 C16 1_555 1_555
H11 C17 1_555 1_555
C18 C13 1_555 1_555
H12 C18 1_555 1_555
C19 C6 1_555 1_555
C20 C19 1_555 1_555
H13 C20 1_555 1_555
C21 C20 1_555 1_555
H14 C21 1_555 1_555
C22 C21 1_555 1_555
H15 C22 1_555 1_555
C23 C22 1_555 1_555
H16 C23 1_555 1_555
C24 C19 1_555 1_555
H17 C24 1_555 1_555
C25 C6 1_555 1_555
C26 C25 1_555 1_555
H18 C26 1_555 1_555
C27 C26 1_555 1_555
H19 C27 1_555 1_555
C28 C27 1_555 1_555
H20 C28 1_555 1_555
C29 C28 1_555 1_555
H21 C29 1_555 1_555
C30 C25 1_555 1_555
H22 C30 1_555 1_555
O3 H23 1_555 1_555
C31 C32 1_555 1_555
C32 H24 1_555 1_555
H25 C32 1_555 1_555
C33 C32 1_555 1_555
H26 C33 1_555 1_555
H27 C33 1_555 1_555
C34 C33 1_555 1_555
H28 C34 1_555 1_555
C35 C34 1_555 1_555
C36 O3 1_555 1_555
C37 C34 1_555 1_555
H29 C37 1_555 1_555
H30 C37 1_555 1_555
C38 C31 1_555 1_555
H31 C38 1_555 1_555
C39 C38 1_555 1_555
H32 C39 1_555 1_555
C40 C39 1_555 1_555
H33 C40 1_555 1_555
H34 C40 1_555 1_555
C41 C36 1_555 1_555
H35 C41 1_555 1_555
H36 C41 1_555 1_555
C42 C31 1_555 1_555
H37 C42 1_555 1_555
H38 C42 1_555 1_555
H39 C42 1_555 1_555
C43 C35 1_555 1_555
H40 C43 1_555 1_555
H41 C43 1_555 1_555
H42 C43 1_555 1_555
C44 C35 1_555 1_555
H43 C44 1_555 1_555
H44 C44 1_555 1_555
H45 C44 1_555 1_555
C45 C39 1_555 1_555
H46 C45 1_555 1_555
H47 C45 1_555 1_555
H48 C45 1_555 1_555
O4 H49 1_555 1_555
C46 C47 1_555 1_555
C47 H50 1_555 1_555
H51 C47 1_555 1_555
C48 C47 1_555 1_555
H52 C48 1_555 1_555
H53 C48 1_555 1_555
C49 C48 1_555 1_555
H54 C49 1_555 1_555
C50 C49 1_555 1_555
C51 O4 1_555 1_555
C52 C49 1_555 1_555
H55 C52 1_555 1_555
H56 C52 1_555 1_555
C53 C46 1_555 1_555
H57 C53 1_555 1_555
C54 C53 1_555 1_555
H58 C54 1_555 1_555
C55 C54 1_555 1_555
H59 C55 1_555 1_555
H60 C55 1_555 1_555
C56 C51 1_555 1_555
H61 C56 1_555 1_555
H62 C56 1_555 1_555
C57 C46 1_555 1_555
H63 C57 1_555 1_555
H64 C57 1_555 1_555
H65 C57 1_555 1_555
C58 C50 1_555 1_555
H66 C58 1_555 1_555
H67 C58 1_555 1_555
H68 C58 1_555 1_555
C59 C50 1_555 1_555
H69 C59 1_555 1_555
H70 C59 1_555 1_555
H71 C59 1_555 1_555
C60 C54 1_555 1_555
H72 C60 1_555 1_555
H73 C60 1_555 1_555
H74 C60 1_555 1_555
C5 C6 1_555 1_555
C11 C12 1_555 1_555
C17 C18 1_555 1_555
C23 C24 1_555 1_555
C29 C30 1_555 1_555
C31 C36 1_555 1_555
C35 C36 1_555 1_555
C37 C38 1_555 1_555
C40 C41 1_555 1_555
C46 C51 1_555 1_555
C50 C51 1_555 1_555
C52 C53 1_555 1_555
C55 C56 1_555 1_555

#END
