
#######################################################################
#
#                 Cambridge Crystallographic Data Centre
#                                CCDC 
#
#######################################################################
#
# If this CIF has been generated from an entry in the Cambridge 
# Structural Database, then it will include bibliographic, chemical, 
# crystal, experimental, refinement or atomic coordinate data resulting 
# from the CCDC's data processing and validation procedures.
#
#######################################################################

data_WIBTAE
_chemical_formula_moiety         'C14 H10 Br2 O1'
_chemical_name_systematic        3,9-Dibromo-5,7-dihydrodibenzo[c,e]oxepine
_symmetry_cell_setting           orthorhombic
_symmetry_space_group_name_H-M   'P b c n'
_symmetry_Int_Tables_number      60
_space_group_name_Hall           '-P 2n 2ab'
loop_
_symmetry_equiv_pos_site_id
_symmetry_equiv_pos_as_xyz
1 x,y,z
2 1/2-x,1/2-y,1/2+z
3 -x,y,1/2-z
4 1/2+x,1/2-y,-z
5 -x,-y,-z
6 1/2+x,1/2+y,1/2-z
7 x,-y,1/2+z
8 1/2-x,1/2+y,z
_cell_length_a                   16.5965(3)
_cell_length_b                   10.2476(6)
_cell_length_c                   7.2626(14)
_cell_angle_alpha                90
_cell_angle_beta                 90
_cell_angle_gamma                90
_cell_volume                     1235.18
_exptl_crystal_colour            colorless
_exptl_crystal_description       block
_cell_formula_units_Z            4
_exptl_crystal_recrystallization_method ethanol
loop_
_atom_site_label
_atom_site_type_symbol
_atom_site_fract_x
_atom_site_fract_y
_atom_site_fract_z
Br1 Br 0.677363(15) 0.36711(3) 0.14224(4)
O1 O 1.0000 0.0746(2) 0.2500
C1 C 0.79077(14) 0.3698(3) 0.1813(3)
C2 C 0.82561(17) 0.4814(3) 0.2538(3)
H1 H 0.7943 0.5534 0.2846
C3 C 0.91882(13) 0.2642(2) 0.1600(3)
C4 C 0.96934(14) 0.1504(2) 0.1017(3)
H2 H 0.9373 0.0944 0.0228
H3 H 1.0143 0.1825 0.0293
C5 C 0.95561(13) 0.3761(2) 0.2353(3)
C6 C 0.83600(13) 0.2626(2) 0.1339(3)
H4 H 0.8112 0.1891 0.0845
C7 C 0.90852(16) 0.4830(3) 0.2793(3)
H5 H 0.9329 0.5574 0.3270
Br1B Br 1.322637(15) 0.36711(3) 0.35776(4)
C1B C 1.20923(14) 0.3698(3) 0.3187(3)
C2B C 1.17439(17) 0.4814(3) 0.2462(3)
H1B H 1.2057 0.5534 0.2154
C3B C 1.08118(13) 0.2642(2) 0.3400(3)
C4B C 1.03066(14) 0.1504(2) 0.3983(3)
H2B H 1.0627 0.0944 0.4772
H3B H 0.9857 0.1825 0.4707
C5B C 1.04439(13) 0.3761(2) 0.2647(3)
C6B C 1.16400(13) 0.2626(2) 0.3661(3)
H4B H 1.1888 0.1891 0.4155
C7B C 1.09148(16) 0.4830(3) 0.2207(3)
H5B H 1.0671 0.5574 0.1730
loop_
_geom_bond_atom_site_label_1
_geom_bond_atom_site_label_2
_geom_bond_site_symmetry_1
_geom_bond_site_symmetry_2
Br1 C1 1_555 1_555
O1 C4 1_555 1_555
C1 C2 1_555 1_555
C2 H1 1_555 1_555
C3 C4 1_555 1_555
C4 H2 1_555 1_555
H3 C4 1_555 1_555
C5 C3 1_555 1_555
C6 C1 1_555 1_555
H4 C6 1_555 1_555
C7 C2 1_555 1_555
H5 C7 1_555 1_555
Br1B C1B 1_555 1_555
C1B C2B 1_555 1_555
C2B H1B 1_555 1_555
C3B C4B 1_555 1_555
C4B O1 1_555 1_555
H2B C4B 1_555 1_555
H3B C4B 1_555 1_555
C5B C5 1_555 1_555
C6B C1B 1_555 1_555
H4B C6B 1_555 1_555
C7B C2B 1_555 1_555
H5B C7B 1_555 1_555
C3 C6 1_555 1_555
C5 C7 1_555 1_555
C3B C5B 1_555 1_555
C3B C6B 1_555 1_555
C5B C7B 1_555 1_555

#END
