
#######################################################################
#
#                 Cambridge Crystallographic Data Centre
#                                CCDC 
#
#######################################################################
#
# If this CIF has been generated from an entry in the Cambridge 
# Structural Database, then it will include bibliographic, chemical, 
# crystal, experimental, refinement or atomic coordinate data resulting 
# from the CCDC's data processing and validation procedures.
#
#######################################################################

data_WICKOJ
_chemical_formula_moiety         'C16 H20 N2 O5'
_chemical_name_systematic        
'Methyl (2S*)-1-((3aS*,4S*,7aS*)-2,5-dimethyl-1,3-dioxo-2,3,3a,4,7,7a-hexahydro-1H-isoindol-4-yl)-5-oxopyrrolidine-2-carboxylate'
_symmetry_cell_setting           orthorhombic
_symmetry_space_group_name_H-M   'P 21 21 21'
_symmetry_Int_Tables_number      19
_space_group_name_Hall           'P 2ac 2ab'
loop_
_symmetry_equiv_pos_site_id
_symmetry_equiv_pos_as_xyz
1 x,y,z
2 1/2-x,-y,1/2+z
3 -x,1/2+y,1/2-z
4 1/2+x,1/2-y,-z
_cell_length_a                   6.8830(10)
_cell_length_b                   10.443(2)
_cell_length_c                   21.537(4)
_cell_angle_alpha                90
_cell_angle_beta                 90
_cell_angle_gamma                90
_cell_volume                     1548.06
_exptl_crystal_colour            colorless
_exptl_crystal_description       prism
_cell_formula_units_Z            4
loop_
_atom_site_label
_atom_site_type_symbol
_atom_site_fract_x
_atom_site_fract_y
_atom_site_fract_z
C1 C -0.8811(3) 0.0271(3) -0.75084(10)
C2 C -0.9740(3) 0.1111(3) -0.80000(10)
H1 H -1.0817 0.1621 -0.7810
C3 C -1.0559(3) 0.0253(2) -0.85226(10)
H2 H -1.1856 -0.0065 -0.8381
C4 C -1.0889(3) 0.1013(3) -0.91117(11)
C5 C -0.9731(4) 0.1982(3) -0.92557(12)
H3 H -0.9974 0.2407 -0.9638
C6 C -0.8074(4) 0.2472(3) -0.88718(11)
H4 H -0.8105 0.3419 -0.8875
H5 H -0.6839 0.2199 -0.9067
C7 C -0.8099(3) 0.2008(2) -0.81964(11)
H6 H -0.8222 0.2792 -0.7933
C8 C -0.6287(4) 0.1332(3) -0.79844(11)
C9 C -0.8151(4) -0.0867(3) -0.97145(11)
C10 C -0.7595(3) -0.0866(3) -0.90306(10)
H7 H -0.6732 -0.0126 -0.8927
C11 C -0.6642(4) -0.2145(3) -0.88589(13)
H8 H -0.5881 -0.2491 -0.9211
H9 H -0.5778 -0.2049 -0.8495
C12 C -0.8359(4) -0.3004(3) -0.87090(14)
H10 H -0.8772 -0.3494 -0.9080
H11 H -0.8030 -0.3613 -0.8373
C13 C -0.9937(4) -0.2087(3) -0.85036(11)
C14 C -0.7500(5) -0.0017(3) -1.07045(12)
H12 H -0.6570 0.0545 -1.0915
H13 H -0.8812 0.0336 -1.0747
H14 H -0.7455 -0.0872 -1.0892
C15 C -0.5426(4) -0.0348(3) -0.72079(12)
H15 H -0.4105 -0.0098 -0.7326
H16 H -0.5613 -0.1262 -0.7293
H17 H -0.5621 -0.0186 -0.6764
C16 C -1.2549(4) 0.0578(3) -0.95099(12)
H18 H -1.3201 -0.0148 -0.9311
H19 H -1.2056 0.0314 -0.9917
H20 H -1.3474 0.1282 -0.9562
N1 N -0.6820(3) 0.0393(2) -0.75646(8)
N2 N -0.9346(3) -0.0873(2) -0.86448(8)
O1 O -0.9616(3) -0.04369(18) -0.71453(8)
O2 O -0.4614(3) 0.15556(19) -0.81244(8)
O3 O -1.1478(3) -0.23628(18) -0.82550(8)
O4 O -0.9452(3) -0.1486(2) -0.99288(8)
O5 O -0.6999(3) -0.01063(19) -1.00487(8)
loop_
_geom_bond_atom_site_label_1
_geom_bond_atom_site_label_2
_geom_bond_site_symmetry_1
_geom_bond_site_symmetry_2
C1 C2 1_555 1_555
C2 H1 1_555 1_555
C3 C2 1_555 1_555
H2 C3 1_555 1_555
C4 C3 1_555 1_555
C5 C4 1_555 1_555
H3 C5 1_555 1_555
C6 C5 1_555 1_555
H4 C6 1_555 1_555
H5 C6 1_555 1_555
C7 C2 1_555 1_555
H6 C7 1_555 1_555
C8 C7 1_555 1_555
C9 C10 1_555 1_555
C10 H7 1_555 1_555
C11 C10 1_555 1_555
H8 C11 1_555 1_555
H9 C11 1_555 1_555
C12 C11 1_555 1_555
H10 C12 1_555 1_555
H11 C12 1_555 1_555
C13 C12 1_555 1_555
C14 H12 1_555 1_555
H13 C14 1_555 1_555
H14 C14 1_555 1_555
C15 H15 1_555 1_555
H16 C15 1_555 1_555
H17 C15 1_555 1_555
C16 C4 1_555 1_555
H18 C16 1_555 1_555
H19 C16 1_555 1_555
H20 C16 1_555 1_555
N1 C1 1_555 1_555
N2 C3 1_555 1_555
O1 C1 1_555 1_555
O2 C8 1_555 1_555
O3 C13 1_555 1_555
O4 C9 1_555 1_555
O5 C9 1_555 1_555
C6 C7 1_555 1_555
C8 N1 1_555 1_555
C10 N2 1_555 1_555
C13 N2 1_555 1_555
C14 O5 1_555 1_555
C15 N1 1_555 1_555

#END
