
#######################################################################
#
#                 Cambridge Crystallographic Data Centre
#                                CCDC 
#
#######################################################################
#
# If this CIF has been generated from an entry in the Cambridge 
# Structural Database, then it will include bibliographic, chemical, 
# crystal, experimental, refinement or atomic coordinate data resulting 
# from the CCDC's data processing and validation procedures.
#
#######################################################################

data_WICKEZ
_chemical_formula_moiety         'C15 H18 N2 O5'
_chemical_name_systematic        
'Methyl (2S*)-1-((3aS*,4R*,7aS*)-2-methyl-1,3-dioxo-2,3,3a,4,7,7a-hexahydro-1H-isoindol-4-yl)-5-oxopyrrolidine-2-carboxylate'
_symmetry_cell_setting           orthorhombic
_symmetry_space_group_name_H-M   'P 21 21 21'
_symmetry_Int_Tables_number      19
_space_group_name_Hall           'P 2ac 2ab'
loop_
_symmetry_equiv_pos_site_id
_symmetry_equiv_pos_as_xyz
1 x,y,z
2 1/2-x,-y,1/2+z
3 -x,1/2+y,1/2-z
4 1/2+x,1/2-y,-z
_cell_length_a                   6.7221(13)
_cell_length_b                   10.249(2)
_cell_length_c                   21.492(4)
_cell_angle_alpha                90
_cell_angle_beta                 90
_cell_angle_gamma                90
_cell_volume                     1480.69
_exptl_crystal_colour            colorless
_exptl_crystal_description       prism
_cell_formula_units_Z            4
loop_
_atom_site_label
_atom_site_type_symbol
_atom_site_fract_x
_atom_site_fract_y
_atom_site_fract_z
O1 O -0.46078(12) -0.28924(9) -0.32779(5)
O2 O -0.95643(14) -0.49631(8) -0.22426(4)
O3 O -1.16559(14) -0.68978(9) -0.32374(4)
O4 O -1.00986(15) -0.61331(11) -0.49547(4)
O5 O -0.72529(14) -0.51261(9) -0.52010(4)
N1 N -0.67682(13) -0.41071(9) -0.26962(4)
N2 N -0.94911(14) -0.54747(9) -0.37102(4)
C1 C -1.06891(15) -0.43008(11) -0.36125(5)
H1 H -1.2035 -0.4589 -0.3469
C2 C -1.09676(18) -0.35604(12) -0.42094(6)
H2 H -1.2008 -0.3821 -0.4482
C3 C -0.9843(2) -0.25699(13) -0.43734(6)
H3 H -1.0099 -0.2177 -0.4766
C4 C -0.8192(2) -0.20126(14) -0.39910(6)
H4 H -0.8297 -0.1049 -0.3998
H5 H -0.6908 -0.2251 -0.4186
C5 C -0.81729(16) -0.24701(10) -0.33141(5)
H6 H -0.8294 -0.1669 -0.3051
C6 C -0.62896(16) -0.31429(11) -0.31166(5)
C7 C -0.88060(16) -0.42415(11) -0.26174(5)
C8 C -0.98177(15) -0.34054(11) -0.31010(5)
H7 H -1.0916 -0.2897 -0.2902
C9 C -0.5305(2) -0.48608(15) -0.23584(6)
H8 H -0.5982 -0.5493 -0.2090
H9 H -0.4493 -0.4275 -0.2103
H10 H -0.4449 -0.5325 -0.2654
C10 C -1.01281(17) -0.66779(11) -0.35257(5)
C11 C -0.8609(2) -0.76677(13) -0.37421(7)
H11 H -0.9138 -0.8193 -0.4091
H12 H -0.8230 -0.8261 -0.3398
C12 C -0.68423(19) -0.68527(12) -0.39505(6)
H13 H -0.6154 -0.7260 -0.4308
H14 H -0.5880 -0.6728 -0.3607
C13 C -0.78222(17) -0.55505(11) -0.41378(5)
H15 H -0.6889 -0.4801 -0.4080
C14 C -0.85600(18) -0.56335(12) -0.48066(5)
C15 C -0.7849(2) -0.51735(16) -0.58478(6)
H16 H -0.6807 -0.4782 -0.6107
H17 H -0.9092 -0.4687 -0.5902
H18 H -0.8051 -0.6084 -0.5973
loop_
_geom_bond_atom_site_label_1
_geom_bond_atom_site_label_2
_geom_bond_site_symmetry_1
_geom_bond_site_symmetry_2
O1 C6 1_555 1_555
O2 C7 1_555 1_555
O3 C10 1_555 1_555
O4 C14 1_555 1_555
O5 C14 1_555 1_555
N1 C6 1_555 1_555
N2 C1 1_555 1_555
C1 H1 1_555 1_555
C2 C1 1_555 1_555
H2 C2 1_555 1_555
C3 C2 1_555 1_555
H3 C3 1_555 1_555
C4 C3 1_555 1_555
H4 C4 1_555 1_555
H5 C4 1_555 1_555
C5 C4 1_555 1_555
H6 C5 1_555 1_555
C6 C5 1_555 1_555
C7 N1 1_555 1_555
C8 C1 1_555 1_555
H7 C8 1_555 1_555
C9 N1 1_555 1_555
H8 C9 1_555 1_555
H9 C9 1_555 1_555
H10 C9 1_555 1_555
C10 N2 1_555 1_555
C11 C10 1_555 1_555
H11 C11 1_555 1_555
H12 C11 1_555 1_555
C12 C11 1_555 1_555
H13 C12 1_555 1_555
H14 C12 1_555 1_555
C13 N2 1_555 1_555
H15 C13 1_555 1_555
C14 C13 1_555 1_555
C15 O5 1_555 1_555
H16 C15 1_555 1_555
H17 C15 1_555 1_555
H18 C15 1_555 1_555
C5 C8 1_555 1_555
C7 C8 1_555 1_555
C12 C13 1_555 1_555

#END
