
#######################################################################
#
#                 Cambridge Crystallographic Data Centre
#                                CCDC 
#
#######################################################################
#
# If this CIF has been generated from an entry in the Cambridge 
# Structural Database, then it will include bibliographic, chemical, 
# crystal, experimental, refinement or atomic coordinate data resulting 
# from the CCDC's data processing and validation procedures.
#
#######################################################################

data_WICZUF
_chemical_formula_moiety         'C8 H8 O2,C5 H7 N3'
_chemical_name_systematic        
'2-Amino-4-methylpyrimidine 2-methylbenzoic acid'
_symmetry_cell_setting           monoclinic
_symmetry_space_group_name_H-M   'P 21/n'
_symmetry_Int_Tables_number      14
_space_group_name_Hall           '-P 2yn'
loop_
_symmetry_equiv_pos_site_id
_symmetry_equiv_pos_as_xyz
1 x,y,z
2 1/2-x,1/2+y,1/2-z
3 -x,-y,-z
4 1/2+x,1/2-y,1/2+z
_cell_length_a                   7.2795(10)
_cell_length_b                   13.6699(18)
_cell_length_c                   12.6695(16)
_cell_angle_alpha                90
_cell_angle_beta                 96.646(3)
_cell_angle_gamma                90
_cell_volume                     1252.27
_exptl_crystal_colour            colorless
_exptl_crystal_description       prism
_cell_formula_units_Z            4
_exptl_crystal_recrystallization_method ethanol
loop_
_atom_site_label
_atom_site_type_symbol
_atom_site_fract_x
_atom_site_fract_y
_atom_site_fract_z
N1 N -0.2014(2) 1.05629(10) 0.04985(10)
C1 C -0.1356(2) 1.01550(11) 0.14345(12)
N2 N 0.0361(2) 0.97961(12) 0.15313(11)
H1 H 0.078(2) 0.9469(13) 0.2145(14)
H2 H 0.089(3) 0.9707(13) 0.0959(14)
N3 N -0.23154(18) 1.00838(10) 0.22833(9)
C2 C -0.4026(2) 1.04538(11) 0.21942(12)
C3 C -0.4765(2) 1.09168(13) 0.12732(13)
H3 H -0.5945 1.1204 0.1214
C4 C -0.3701(2) 1.09386(13) 0.04499(13)
H4 H -0.4197 1.1238 -0.0188
C5 C -0.5097(2) 1.03200(14) 0.31211(13)
H5 H -0.6276 1.0654 0.2984
H6 H -0.4403 1.0591 0.3754
H7 H -0.5308 0.9628 0.3227
C6 C 0.0623(2) 0.82593(11) 0.52929(11)
C7 C 0.2288(2) 0.77798(12) 0.56317(12)
C8 C 0.2467(3) 0.73560(12) 0.66401(13)
H11 H 0.3585 0.7046 0.6892
C9 C 0.1065(3) 0.73768(13) 0.72759(13)
H12 H 0.1227 0.7077 0.7948
C10 C -0.0571(3) 0.78332(13) 0.69346(13)
H13 H -0.1541 0.7842 0.7364
C11 C -0.0777(2) 0.82809(13) 0.59511(12)
H14 H -0.1889 0.8607 0.5722
C12 C 0.0273(2) 0.87447(12) 0.42353(12)
O1 O -0.12808(17) 0.92383(10) 0.41108(9)
H15 H -0.152(2) 0.9546(13) 0.3411(15)
O2 O 0.12949(17) 0.86829(10) 0.35444(9)
C13 C 0.3863(2) 0.77007(13) 0.49849(13)
H16 H 0.4865 0.7340 0.5381
H17 H 0.4290 0.8351 0.4826
H18 H 0.3462 0.7360 0.4327
H8? H -0.4338 0.9980 0.3685
H9? H -0.6200 0.9938 0.2904
H10? H -0.5449 1.0954 0.3375
loop_
_geom_bond_atom_site_label_1
_geom_bond_atom_site_label_2
_geom_bond_site_symmetry_1
_geom_bond_site_symmetry_2
N1 C1 1_555 1_555
C1 N2 1_555 1_555
N2 H1 1_555 1_555
H2 N2 1_555 1_555
N3 C1 1_555 1_555
C2 N3 1_555 1_555
C3 C2 1_555 1_555
H3 C3 1_555 1_555
C4 N1 1_555 1_555
H4 C4 1_555 1_555
C5 C2 1_555 1_555
H5 C5 1_555 1_555
H6 C5 1_555 1_555
H7 C5 1_555 1_555
C6 C7 1_555 1_555
C7 C8 1_555 1_555
C8 H11 1_555 1_555
C9 C8 1_555 1_555
H12 C9 1_555 1_555
C10 C9 1_555 1_555
H13 C10 1_555 1_555
C11 C6 1_555 1_555
H14 C11 1_555 1_555
C12 C6 1_555 1_555
O1 C12 1_555 1_555
H15 O1 1_555 1_555
O2 C12 1_555 1_555
C13 C7 1_555 1_555
H16 C13 1_555 1_555
H17 C13 1_555 1_555
H18 C13 1_555 1_555
C3 C4 1_555 1_555
C10 C11 1_555 1_555

#END
