
#######################################################################
#
#                 Cambridge Crystallographic Data Centre
#                                CCDC 
#
#######################################################################
#
# If this CIF has been generated from an entry in the Cambridge 
# Structural Database, then it will include bibliographic, chemical, 
# crystal, experimental, refinement or atomic coordinate data resulting 
# from the CCDC's data processing and validation procedures.
#
#######################################################################

data_WIDKIG
_chemical_formula_moiety         'C32 H23 Cl2 P1'
_chemical_name_systematic        
{4-[2,2-bis(4-chlorophenyl)ethenyl]phenyl}(diphenyl)phosphine
_symmetry_cell_setting           monoclinic
_symmetry_space_group_name_H-M   'P 21/c'
_symmetry_Int_Tables_number      14
_space_group_name_Hall           '-P 2ybc'
loop_
_symmetry_equiv_pos_site_id
_symmetry_equiv_pos_as_xyz
1 x,y,z
2 -x,1/2+y,1/2-z
3 -x,-y,-z
4 x,1/2-y,1/2+z
_cell_length_a                   13.4074(4)
_cell_length_b                   11.4312(3)
_cell_length_c                   18.1544(5)
_cell_angle_alpha                90
_cell_angle_beta                 110.539(3)
_cell_angle_gamma                90
_cell_volume                     2605.53
_exptl_crystal_colour            white
_cell_formula_units_Z            4
loop_
_atom_site_label
_atom_site_type_symbol
_atom_site_fract_x
_atom_site_fract_y
_atom_site_fract_z
P1 P 0.13874(5) 0.23313(5) 0.51604(3)
Cl1 Cl 0.81092(5) 0.30341(7) 0.78338(4)
Cl2 Cl 0.59347(7) 0.88416(6) 1.12344(4)
C1 C 0.54570(15) 0.49842(18) 0.82846(11)
C2 C 0.49159(16) 0.64425(18) 0.91202(12)
C3 C 0.63033(17) 0.5583(2) 0.81874(12)
H1 H 0.6323 0.6395 0.8220
C4 C 0.30385(16) 0.47944(19) 0.72855(12)
C5 C 0.45850(16) 0.56309(18) 0.84343(11)
C6 C 0.58020(18) 0.6194(2) 0.97842(12)
H2 H 0.6193 0.5518 0.9793
C7 C 0.00333(18) 0.21588(19) 0.51735(12)
C8 C 0.19676(16) 0.33903(19) 0.59563(11)
C9 C 0.35471(17) 0.5490(2) 0.80030(12)
H3 H 0.3078 0.5893 0.8186
C10 C 0.35182(17) 0.4490(2) 0.67403(12)
H4 H 0.4200 0.4761 0.6812
C11 C 0.54520(18) 0.37720(19) 0.82440(12)
H5 H 0.4894 0.3358 0.8312
C12 C 0.70836(18) 0.3794(2) 0.80014(12)
C13 C 0.29965(17) 0.3795(2) 0.60986(12)
H6 H 0.3342 0.3592 0.5753
C14 C 0.62583(19) 0.3172(2) 0.81047(13)
H7 H 0.6248 0.2359 0.8080
C15 C 0.43652(19) 0.7471(2) 0.91247(13)
H8 H 0.3781 0.7669 0.8684
C16 C 0.71156(17) 0.4994(2) 0.80433(13)
H9 H 0.7676 0.5405 0.7976
C17 C 0.6114(2) 0.6928(2) 1.04302(13)
H10 H 0.6705 0.6747 1.0870
C18 C 0.14720(18) 0.3744(2) 0.64727(14)
H11 H 0.0773 0.3517 0.6382
C19 C 0.11447(17) 0.3205(2) 0.42689(12)
C20 C 0.19961(18) 0.4426(2) 0.71185(14)
H12 H 0.1640 0.4647 0.7453
C21 C 0.5541(2) 0.7924(2) 1.04142(13)
C22 C 0.4668(2) 0.8206(2) 0.97710(14)
H13 H 0.4284 0.8884 0.9769
C23 C -0.08011(19) 0.2928(2) 0.48176(14)
H14 H -0.0688 0.3579 0.4550
C24 C -0.0169(2) 0.1186(2) 0.55574(15)
H15 H 0.0374 0.0652 0.5792
C25 C 0.1315(2) 0.4396(2) 0.42503(14)
H16 H 0.1574 0.4811 0.4720
C26 C 0.0773(2) 0.2627(3) 0.35550(15)
H17 H 0.0677 0.1821 0.3550
C27 C -0.1800(2) 0.2733(3) 0.48591(17)
H18 H -0.2350 0.3257 0.4624
C28 C 0.0712(2) 0.4394(3) 0.28469(15)
H19 H 0.0560 0.4793 0.2374
C29 C 0.1108(2) 0.4984(3) 0.35446(16)
H20 H 0.1238 0.5783 0.3546
C30 C 0.0539(2) 0.3213(3) 0.28489(16)
H21 H 0.0266 0.2807 0.2376
C31 C -0.1980(2) 0.1767(3) 0.52468(18)
H22 H -0.2652 0.1637 0.5271
C32 C -0.1172(3) 0.1002(3) 0.55949(19)
H23 H -0.1294 0.0352 0.5859
loop_
_geom_bond_atom_site_label_1
_geom_bond_atom_site_label_2
_geom_bond_site_symmetry_1
_geom_bond_site_symmetry_2
P1 C7 1_555 1_555
Cl1 C12 1_555 1_555
Cl2 C21 1_555 1_555
C1 C3 1_555 1_555
C2 C5 1_555 1_555
C3 H1 1_555 1_555
C4 C9 1_555 1_555
C5 C1 1_555 1_555
C6 C2 1_555 1_555
H2 C6 1_555 1_555
C7 C23 1_555 1_555
C8 P1 1_555 1_555
C9 C5 1_555 1_555
H3 C9 1_555 1_555
C10 C4 1_555 1_555
H4 C10 1_555 1_555
C11 C1 1_555 1_555
H5 C11 1_555 1_555
C12 C14 1_555 1_555
C13 C8 1_555 1_555
H6 C13 1_555 1_555
C14 C11 1_555 1_555
H7 C14 1_555 1_555
C15 C2 1_555 1_555
H8 C15 1_555 1_555
C16 C3 1_555 1_555
H9 C16 1_555 1_555
C17 C6 1_555 1_555
H10 C17 1_555 1_555
C18 C8 1_555 1_555
H11 C18 1_555 1_555
C19 P1 1_555 1_555
C20 C4 1_555 1_555
H12 C20 1_555 1_555
C21 C17 1_555 1_555
C22 C15 1_555 1_555
H13 C22 1_555 1_555
C23 H14 1_555 1_555
C24 C7 1_555 1_555
H15 C24 1_555 1_555
C25 C19 1_555 1_555
H16 C25 1_555 1_555
C26 C19 1_555 1_555
H17 C26 1_555 1_555
C27 C23 1_555 1_555
H18 C27 1_555 1_555
C28 H19 1_555 1_555
C29 C25 1_555 1_555
H20 C29 1_555 1_555
C30 C26 1_555 1_555
H21 C30 1_555 1_555
C31 C27 1_555 1_555
H22 C31 1_555 1_555
C32 C24 1_555 1_555
H23 C32 1_555 1_555
C10 C13 1_555 1_555
C12 C16 1_555 1_555
C18 C20 1_555 1_555
C21 C22 1_555 1_555
C28 C29 1_555 1_555
C28 C30 1_555 1_555
C31 C32 1_555 1_555

#END
