
#######################################################################
#
#                 Cambridge Crystallographic Data Centre
#                                CCDC 
#
#######################################################################
#
# If this CIF has been generated from an entry in the Cambridge 
# Structural Database, then it will include bibliographic, chemical, 
# crystal, experimental, refinement or atomic coordinate data resulting 
# from the CCDC's data processing and validation procedures.
#
#######################################################################

data_WIDWIS
_chemical_formula_moiety         'C16 H20 Cl1 N1 O1'
_chemical_name_systematic        
N-[3-(4-chlorophenyl)cyclopent-3-en-1-yl]-2,2-dimethylpropanamide
_symmetry_cell_setting           orthorhombic
_symmetry_space_group_name_H-M   'P 21 21 21'
_symmetry_Int_Tables_number      19
_space_group_name_Hall           'P 2ac 2ab'
loop_
_symmetry_equiv_pos_site_id
_symmetry_equiv_pos_as_xyz
1 x,y,z
2 1/2-x,-y,1/2+z
3 -x,1/2+y,1/2-z
4 1/2+x,1/2-y,-z
_cell_length_a                   5.75663(5)
_cell_length_b                   19.59474(13)
_cell_length_c                   26.88241(18)
_cell_angle_alpha                90
_cell_angle_beta                 90
_cell_angle_gamma                90
_cell_volume                     3032.33
_exptl_crystal_colour            colorless
_exptl_crystal_description       plate
_cell_formula_units_Z            8
loop_
_atom_site_label
_atom_site_type_symbol
_atom_site_fract_x
_atom_site_fract_y
_atom_site_fract_z
Cl1 Cl 0.61105(19) 0.36455(5) 0.57516(3)
O1 O 0.3932(4) 0.18919(10) 0.21522(9)
N1 N 0.3497(4) 0.29753(10) 0.24028(8)
H1 H 0.375968 0.340959 0.234138
C1 C 0.4953(6) 0.34747(15) 0.51634(11)
C2 C 0.2828(6) 0.37527(17) 0.50354(12)
H2 H 0.198300 0.402179 0.526715
C3 C 0.1953(6) 0.36326(16) 0.45647(11)
H3 H 0.049948 0.382585 0.447460
C4 C 0.3150(5) 0.32346(13) 0.42177(11)
C5 C 0.5276(5) 0.29537(14) 0.43674(11)
H4 H 0.611955 0.267535 0.414137
C6 C 0.6180(6) 0.30726(16) 0.48387(11)
H5 H 0.762455 0.287859 0.493461
C7 C 0.2286(5) 0.31366(14) 0.37073(10)
C8 C 0.0371(5) 0.34218(17) 0.35041(11)
H6 H -0.075417 0.366823 0.368989
C9 C 0.0215(5) 0.33077(19) 0.29542(12)
H7 H 0.046542 0.373907 0.277012
H8 H -0.131977 0.311824 0.286185
C10 C 0.2176(5) 0.27903(14) 0.28435(11)
H9 H 0.146416 0.233078 0.278901
C11 C 0.3654(6) 0.27650(16) 0.33208(11)
H10 H 0.392821 0.228660 0.342366
H11 H 0.517332 0.298959 0.326666
C12 C 0.4324(5) 0.25071(13) 0.20883(10)
C13 C 0.5764(5) 0.27453(16) 0.16413(11)
C14 C 0.8144(7) 0.2402(3) 0.16786(16)
H12 H 0.899046 0.258747 0.196441
H13 H 0.902737 0.248877 0.137352
H14 H 0.793816 0.190878 0.172175
C15 C 0.4574(8) 0.2483(3) 0.11651(14)
H15 H 0.433906 0.198868 0.119053
H16 H 0.555792 0.258322 0.087674
H17 H 0.306809 0.270946 0.112503
C16 C 0.6068(10) 0.3510(2) 0.16068(19)
H18 H 0.454512 0.372749 0.156741
H19 H 0.704617 0.362066 0.131944
H20 H 0.680915 0.367903 0.191106
Cl2 Cl 1.4489(2) 0.61057(8) 0.56502(4)
O2 O 0.4002(6) 0.44483(10) 0.24926(9)
N2 N 0.5232(5) 0.54341(11) 0.28012(9)
H21 H 0.524271 0.588268 0.278531
C17 C 1.2540(7) 0.5881(2) 0.51806(13)
C18 C 1.2971(10) 0.6098(3) 0.47005(18)
H22 H 1.428686 0.637248 0.462709
C19 C 1.1436(9) 0.5906(3) 0.43276(15)
H23 H 1.172679 0.605277 0.399670
C20 C 0.9488(7) 0.55054(16) 0.44207(12)
C21 C 0.9162(8) 0.52934(19) 0.49082(13)
H24 H 0.786270 0.501401 0.498573
C22 C 1.0690(9) 0.5479(2) 0.52879(13)
H25 H 1.043548 0.532578 0.561864
C23 C 0.7967(6) 0.52805(15) 0.40162(12)
C24 C 0.8128(7) 0.55502(19) 0.34885(13)
H26 H 0.759612 0.603000 0.347104
H27 H 0.974379 0.552379 0.336374
C25 C 0.6541(7) 0.50877(15) 0.31909(12)
H28 H 0.755430 0.474338 0.302262
C26 C 0.5098(9) 0.4707(2) 0.35659(15)
H29 H 0.349488 0.488906 0.357769
H30 H 0.503647 0.421425 0.348573
C27 C 0.6330(9) 0.4826(2) 0.40491(14)
H31 H 0.595353 0.459327 0.434849
C28 C 0.4015(5) 0.50748(13) 0.24674(11)
C29 C 0.2766(5) 0.54574(13) 0.20450(11)
C30 C 0.0857(7) 0.49981(18) 0.18413(17)
H32 H 0.153500 0.456503 0.173101
H33 H 0.009945 0.522348 0.155915
H34 H -0.029195 0.491026 0.210251
C31 C 0.4583(6) 0.5596(2) 0.16436(12)
H35 H 0.578170 0.590106 0.177651
H36 H 0.383550 0.581252 0.135635
H37 H 0.529617 0.516508 0.154031
C32 C 0.1690(7) 0.61293(15) 0.22162(12)
H38 H 0.055864 0.603928 0.248061
H39 H 0.090760 0.634927 0.193494
H40 H 0.291249 0.643069 0.234304
loop_
_geom_bond_atom_site_label_1
_geom_bond_atom_site_label_2
_geom_bond_site_symmetry_1
_geom_bond_site_symmetry_2
Cl1 C1 1_555 1_555
O1 C12 1_555 1_555
N1 H1 1_555 1_555
C1 C2 1_555 1_555
C2 H2 1_555 1_555
C3 C2 1_555 1_555
H3 C3 1_555 1_555
C4 C3 1_555 1_555
C5 C4 1_555 1_555
H4 C5 1_555 1_555
C6 C1 1_555 1_555
H5 C6 1_555 1_555
C7 C4 1_555 1_555
C8 C7 1_555 1_555
H6 C8 1_555 1_555
C9 C8 1_555 1_555
H7 C9 1_555 1_555
H8 C9 1_555 1_555
C10 N1 1_555 1_555
H9 C10 1_555 1_555
C11 C7 1_555 1_555
H10 C11 1_555 1_555
H11 C11 1_555 1_555
C12 N1 1_555 1_555
C13 C12 1_555 1_555
C14 C13 1_555 1_555
H12 C14 1_555 1_555
H13 C14 1_555 1_555
H14 C14 1_555 1_555
C15 C13 1_555 1_555
H15 C15 1_555 1_555
H16 C15 1_555 1_555
H17 C15 1_555 1_555
C16 C13 1_555 1_555
H18 C16 1_555 1_555
H19 C16 1_555 1_555
H20 C16 1_555 1_555
Cl2 C17 1_555 1_555
O2 C28 1_555 1_555
N2 H21 1_555 1_555
C17 C18 1_555 1_555
C18 H22 1_555 1_555
C19 C18 1_555 1_555
H23 C19 1_555 1_555
C20 C19 1_555 1_555
C21 C20 1_555 1_555
H24 C21 1_555 1_555
C22 C17 1_555 1_555
H25 C22 1_555 1_555
C23 C20 1_555 1_555
C24 C23 1_555 1_555
H26 C24 1_555 1_555
H27 C24 1_555 1_555
C25 N2 1_555 1_555
H28 C25 1_555 1_555
C26 C25 1_555 1_555
H29 C26 1_555 1_555
H30 C26 1_555 1_555
C27 C23 1_555 1_555
H31 C27 1_555 1_555
C28 N2 1_555 1_555
C29 C28 1_555 1_555
C30 C29 1_555 1_555
H32 C30 1_555 1_555
H33 C30 1_555 1_555
H34 C30 1_555 1_555
C31 C29 1_555 1_555
H35 C31 1_555 1_555
H36 C31 1_555 1_555
H37 C31 1_555 1_555
C32 C29 1_555 1_555
H38 C32 1_555 1_555
H39 C32 1_555 1_555
H40 C32 1_555 1_555
C5 C6 1_555 1_555
C9 C10 1_555 1_555
C10 C11 1_555 1_555
C21 C22 1_555 1_555
C24 C25 1_555 1_555
C26 C27 1_555 1_555

#END
