
#######################################################################
#
#                 Cambridge Crystallographic Data Centre
#                                CCDC 
#
#######################################################################
#
# If this CIF has been generated from an entry in the Cambridge 
# Structural Database, then it will include bibliographic, chemical, 
# crystal, experimental, refinement or atomic coordinate data resulting 
# from the CCDC's data processing and validation procedures.
#
#######################################################################

data_WIDXUF
_chemical_formula_moiety         'C17 H14 O3'
_chemical_name_systematic        
'[3-(2-methylphenyl)-1-benzofuran-4-yl]acetic acid'
_symmetry_cell_setting           monoclinic
_symmetry_space_group_name_H-M   'P 21/c'
_symmetry_Int_Tables_number      14
_space_group_name_Hall           '-P 2ybc'
loop_
_symmetry_equiv_pos_site_id
_symmetry_equiv_pos_as_xyz
1 x,y,z
2 -x,1/2+y,1/2-z
3 -x,-y,-z
4 x,1/2-y,1/2+z
_cell_length_a                   6.7535(6)
_cell_length_b                   27.5521(16)
_cell_length_c                   8.0193(12)
_cell_angle_alpha                90
_cell_angle_beta                 115.509(8)
_cell_angle_gamma                90
_cell_volume                     1346.72
_exptl_crystal_colour            colorless
_exptl_crystal_description       block
_cell_formula_units_Z            4
loop_
_atom_site_label
_atom_site_type_symbol
_atom_site_fract_x
_atom_site_fract_y
_atom_site_fract_z
O1 O 1.0930(3) 0.96725(6) 0.3536(2)
O2 O 0.9010(3) 0.94425(5) 0.5054(3)
O3 O 0.3921(3) 0.79308(6) 0.2932(2)
C1 C 0.9998(4) 0.93434(8) 0.4142(3)
C2 C 1.0343(4) 0.88343(8) 0.3634(3)
H1 H 0.9801 0.8814 0.2302
H2 H 1.1906 0.8769 0.4171
C3 C 0.9250(4) 0.84476(7) 0.4257(3)
C4 C 1.0434(5) 0.81925(9) 0.5873(3)
H3 H 1.1925 0.8256 0.6527
C5 C 0.9480(6) 0.78449(9) 0.6549(4)
H4 H 1.0347 0.7677 0.7624
C6 C 0.7277(6) 0.77451(9) 0.5660(4)
H5 H 0.6609 0.7523 0.6129
C7 C 0.6113(4) 0.79916(8) 0.4040(3)
C8 C 0.7024(4) 0.83294(7) 0.3279(3)
C9 C 0.5234(4) 0.84725(8) 0.1542(3)
C10 C 0.3482(4) 0.82237(10) 0.1444(4)
H6 H 0.2100 0.8248 0.0459
C11 C 0.5318(4) 0.87869(8) 0.0066(3)
C12 C 0.6584(4) 0.86293(9) -0.0857(3)
H7 H 0.7329 0.8335 -0.0521
C13 C 0.6730(4) 0.89045(10) -0.2229(4)
H8 H 0.7545 0.8795 -0.2839
C14 C 0.5646(4) 0.93417(10) -0.2685(4)
H9 H 0.5775 0.9536 -0.3582
C15 C 0.4378(4) 0.94978(10) -0.1837(4)
H10 H 0.3638 0.9792 -0.2185
C16 C 0.4183(4) 0.92211(9) -0.0445(3)
C17 C 0.2756(5) 0.93940(11) 0.0422(5)
H11 H 0.1487 0.9189 0.0045
H12 H 0.2300 0.9722 0.0039
H13 H 0.3561 0.9383 0.1742
loop_
_geom_bond_atom_site_label_1
_geom_bond_atom_site_label_2
_geom_bond_site_symmetry_1
_geom_bond_site_symmetry_2
O1 C1 1_555 1_555
O2 C1 1_555 1_555
O3 C7 1_555 1_555
C1 C2 1_555 1_555
C2 H1 1_555 1_555
H2 C2 1_555 1_555
C3 C2 1_555 1_555
C4 C3 1_555 1_555
H3 C4 1_555 1_555
C5 C4 1_555 1_555
H4 C5 1_555 1_555
C6 C5 1_555 1_555
H5 C6 1_555 1_555
C7 C6 1_555 1_555
C8 C3 1_555 1_555
C9 C8 1_555 1_555
C10 O3 1_555 1_555
H6 C10 1_555 1_555
C11 C9 1_555 1_555
C12 C11 1_555 1_555
H7 C12 1_555 1_555
C13 C12 1_555 1_555
H8 C13 1_555 1_555
C14 C13 1_555 1_555
H9 C14 1_555 1_555
C15 C14 1_555 1_555
H10 C15 1_555 1_555
C16 C11 1_555 1_555
C17 C16 1_555 1_555
H11 C17 1_555 1_555
H12 C17 1_555 1_555
H13 C17 1_555 1_555
C7 C8 1_555 1_555
C9 C10 1_555 1_555
C15 C16 1_555 1_555

#END
