
#######################################################################
#
#                 Cambridge Crystallographic Data Centre
#                                CCDC 
#
#######################################################################
#
# If this CIF has been generated from an entry in the Cambridge 
# Structural Database, then it will include bibliographic, chemical, 
# crystal, experimental, refinement or atomic coordinate data resulting 
# from the CCDC's data processing and validation procedures.
#
#######################################################################

data_WIDYAM
_chemical_formula_moiety         'C13 H12 O3'
_chemical_name_systematic        
'(2,3-dihydro-1H-benzo[b]cyclopenta[d]furan-8-yl)acetic acid'
_symmetry_cell_setting           triclinic
_symmetry_space_group_name_H-M   'P -1'
_symmetry_Int_Tables_number      2
_space_group_name_Hall           '-P 1'
loop_
_symmetry_equiv_pos_site_id
_symmetry_equiv_pos_as_xyz
1 x,y,z
2 -x,-y,-z
_cell_length_a                   7.9647(6)
_cell_length_b                   8.7733(7)
_cell_length_c                   9.0731(8)
_cell_angle_alpha                114.401(3)
_cell_angle_beta                 109.132(2)
_cell_angle_gamma                93.9100(10)
_cell_volume                     529.986
_exptl_crystal_colour            yellow
_exptl_crystal_description       block
_cell_formula_units_Z            2
loop_
_atom_site_label
_atom_site_type_symbol
_atom_site_fract_x
_atom_site_fract_y
_atom_site_fract_z
O1 O 0.3322(3) 0.9513(3) 0.6478(3)
O2 O 0.3837(3) 0.7959(3) -0.0545(3)
H1 H 0.4739 0.8547 -0.0464
O3 O 0.3174(3) 1.0516(3) 0.0568(3)
C1 C 0.2872(4) 0.8938(5) 0.0095(4)
C2 C 0.1323(4) 0.8061(4) 0.0312(4)
H2 H 0.0610 0.7033 -0.0780
H3 H 0.0524 0.8831 0.0566
C3 C 0.2050(3) 0.7573(4) 0.1792(4)
C4 C 0.2434(4) 0.5980(4) 0.1465(4)
H4 H 0.2216 0.5189 0.0317
C5 C 0.3137(4) 0.5526(4) 0.2809(5)
H5 H 0.3374 0.4440 0.2536
C6 C 0.3488(4) 0.6647(5) 0.4527(5)
H6 H 0.3961 0.6350 0.5427
C7 C 0.3105(3) 0.8225(4) 0.4846(4)
C8 C 0.2389(3) 0.8745(4) 0.3525(4)
C9 C 0.2152(3) 1.0455(4) 0.4443(4)
C10 C 0.2707(4) 1.0814(4) 0.6136(4)
C11 C 0.2544(4) 1.2475(5) 0.7365(4)
H7 H 0.3720 1.3177 0.8290
H8 H 0.1697 1.2323 0.7883
C12 C 0.1784(5) 1.3246(5) 0.6089(5)
H9 H 0.2653 1.4284 0.6438
H10 H 0.0648 1.3549 0.6138
C13 C 0.1444(4) 1.1904(4) 0.4184(4)
H11 H 0.0153 1.1534 0.3431
H12 H 0.2114 1.2366 0.3681
loop_
_geom_bond_atom_site_label_1
_geom_bond_atom_site_label_2
_geom_bond_site_symmetry_1
_geom_bond_site_symmetry_2
O1 C7 1_555 1_555
O2 H1 1_555 1_555
O3 C1 1_555 1_555
C1 O2 1_555 1_555
C2 C1 1_555 1_555
H2 C2 1_555 1_555
H3 C2 1_555 1_555
C3 C2 1_555 1_555
C4 C3 1_555 1_555
H4 C4 1_555 1_555
C5 C4 1_555 1_555
H5 C5 1_555 1_555
C6 C5 1_555 1_555
H6 C6 1_555 1_555
C7 C6 1_555 1_555
C8 C3 1_555 1_555
C9 C8 1_555 1_555
C10 O1 1_555 1_555
C11 C10 1_555 1_555
H7 C11 1_555 1_555
H8 C11 1_555 1_555
C12 C11 1_555 1_555
H9 C12 1_555 1_555
H10 C12 1_555 1_555
C13 C9 1_555 1_555
H11 C13 1_555 1_555
H12 C13 1_555 1_555
C7 C8 1_555 1_555
C9 C10 1_555 1_555
C12 C13 1_555 1_555

#END
