
#######################################################################
#
#                 Cambridge Crystallographic Data Centre
#                                CCDC 
#
#######################################################################
#
# If this CIF has been generated from an entry in the Cambridge 
# Structural Database, then it will include bibliographic, chemical, 
# crystal, experimental, refinement or atomic coordinate data resulting 
# from the CCDC's data processing and validation procedures.
#
#######################################################################

data_WIFDOH
_chemical_formula_moiety         'C19 H24 N4 O2'
_chemical_name_systematic        N^1^,N^9^-bis(pyridin-3-yl)nonanediamide
_symmetry_cell_setting           triclinic
_symmetry_space_group_name_H-M   'P -1'
_symmetry_Int_Tables_number      2
_space_group_name_Hall           '-P 1'
loop_
_symmetry_equiv_pos_site_id
_symmetry_equiv_pos_as_xyz
1 x,y,z
2 -x,-y,-z
_cell_length_a                   4.715(4)
_cell_length_b                   10.493(8)
_cell_length_c                   19.088(14)
_cell_angle_alpha                102.52(3)
_cell_angle_beta                 93.32(3)
_cell_angle_gamma                95.97(3)
_cell_volume                     913.759
_exptl_crystal_colour            colorless
_exptl_crystal_description       block
_cell_formula_units_Z            2
loop_
_atom_site_label
_atom_site_type_symbol
_atom_site_fract_x
_atom_site_fract_y
_atom_site_fract_z
N1 N 0.3261(16) 0.6231(7) 0.0661(4)
N2 N 0.8941(9) 0.8547(4) 0.1837(2)
H1 H 0.9776 0.9301 0.1809
C1 C 0.6736(13) 0.7996(5) 0.1287(3)
C2 C 0.5428(15) 0.6722(6) 0.1181(3)
H2 H 0.6048 0.6185 0.1473
C3 C 0.254(2) 0.7070(13) 0.0215(4)
H3 H 0.1112 0.6762 -0.0158
C4 C 0.3837(19) 0.8299(9) 0.0309(4)
H4 H 0.3289 0.8839 0.0010
C5 C 0.5865(15) 0.8731(6) 0.0820(3)
H5 H 0.6774 0.9580 0.0872
N3 N 0.9259(12) 1.8615(4) 0.8177(3)
N4 N 1.1683(9) 1.5542(4) 0.7191(2)
H6 H 1.1483 1.4746 0.7244
C6 C 1.0299(11) 1.6436(5) 0.7670(2)
C7 C 1.0541(13) 1.7781(5) 0.7707(3)
H7 H 1.1656 1.8114 0.7386
C8 C 0.7701(13) 1.8143(6) 0.8636(3)
H8 H 0.6807 1.8722 0.8967
C9 C 0.7344(13) 1.6834(6) 0.8643(3)
H9 H 0.6236 1.6534 0.8975
C10 C 0.8643(12) 1.5971(5) 0.8154(3)
H10 H 0.8409 1.5078 0.8149
O1 O 0.9048(10) 0.7006(4) 0.24512(19)
O2 O 1.3656(11) 1.6826(4) 0.6499(2)
C11 C 0.9924(13) 0.8099(5) 0.2383(3)
C12 C 1.2151(12) 0.8989(5) 0.2902(3)
H11 H 1.3212 0.9579 0.2657
H12 H 1.3486 0.8470 0.3084
C13 C 1.0780(12) 0.9789(5) 0.3529(3)
H13 H 0.9472 1.0313 0.3341
H14 H 0.9664 0.9189 0.3758
C14 C 1.2884(12) 1.0688(5) 0.4089(3)
H15 H 1.4275 1.1147 0.3847
H16 H 1.3905 1.0158 0.4352
C15 C 1.1546(12) 1.1699(5) 0.4625(3)
H17 H 1.0159 1.1241 0.4868
H18 H 1.0525 1.2230 0.4363
C16 C 1.3696(11) 1.2604(5) 0.5188(3)
H19 H 1.4552 1.2087 0.5489
H20 H 1.5211 1.2984 0.4946
C17 C 1.2373(12) 1.3708(5) 0.5664(3)
H21 H 1.0816 1.3329 0.5893
H22 H 1.1575 1.4243 0.5364
C18 C 1.4499(13) 1.4577(6) 0.6238(3)
H23 H 1.5119 1.4064 0.6572
H24 H 1.6166 1.4867 0.6013
C19 C 1.3297(13) 1.5766(6) 0.6652(3)
loop_
_geom_bond_atom_site_label_1
_geom_bond_atom_site_label_2
_geom_bond_site_symmetry_1
_geom_bond_site_symmetry_2
N1 C2 1_555 1_555
N2 H1 1_555 1_555
C1 N2 1_555 1_555
C2 C1 1_555 1_555
H2 C2 1_555 1_555
C3 N1 1_555 1_555
H3 C3 1_555 1_555
C4 C3 1_555 1_555
H4 C4 1_555 1_555
C5 C1 1_555 1_555
H5 C5 1_555 1_555
N3 C7 1_555 1_555
N4 H6 1_555 1_555
C6 N4 1_555 1_555
C7 C6 1_555 1_555
H7 C7 1_555 1_555
C8 N3 1_555 1_555
H8 C8 1_555 1_555
C9 C8 1_555 1_555
H9 C9 1_555 1_555
C10 C6 1_555 1_555
H10 C10 1_555 1_555
O1 C11 1_555 1_555
O2 C19 1_555 1_555
C11 N2 1_555 1_555
C12 C11 1_555 1_555
H11 C12 1_555 1_555
H12 C12 1_555 1_555
C13 C12 1_555 1_555
H13 C13 1_555 1_555
H14 C13 1_555 1_555
C14 C13 1_555 1_555
H15 C14 1_555 1_555
H16 C14 1_555 1_555
C15 C14 1_555 1_555
H17 C15 1_555 1_555
H18 C15 1_555 1_555
C16 C15 1_555 1_555
H19 C16 1_555 1_555
H20 C16 1_555 1_555
C17 C16 1_555 1_555
H21 C17 1_555 1_555
H22 C17 1_555 1_555
C18 C17 1_555 1_555
H23 C18 1_555 1_555
H24 C18 1_555 1_555
C19 N4 1_555 1_555
C4 C5 1_555 1_555
C9 C10 1_555 1_555
C18 C19 1_555 1_555

#END
