
#######################################################################
#
#                 Cambridge Crystallographic Data Centre
#                                CCDC 
#
#######################################################################
#
# If this CIF has been generated from an entry in the Cambridge 
# Structural Database, then it will include bibliographic, chemical, 
# crystal, experimental, refinement or atomic coordinate data resulting 
# from the CCDC's data processing and validation procedures.
#
#######################################################################

data_WIHKUW
_chemical_formula_moiety         'C16 H19 Cl1 O6'
_chemical_name_systematic        
'diethyl 2-(2-chlorophenyl)-1,3-dioxane-5,5-dicarboxylate'
_symmetry_cell_setting           triclinic
_symmetry_space_group_name_H-M   'P -1'
_symmetry_Int_Tables_number      2
_space_group_name_Hall           '-P 1'
loop_
_symmetry_equiv_pos_site_id
_symmetry_equiv_pos_as_xyz
1 x,y,z
2 -x,-y,-z
_cell_length_a                   7.827(8)
_cell_length_b                   9.253(9)
_cell_length_c                   12.978(13)
_cell_angle_alpha                101.910(11)
_cell_angle_beta                 100.040(11)
_cell_angle_gamma                110.345(10)
_cell_volume                     830.702
_exptl_crystal_colour            colorless
_exptl_crystal_description       block
_cell_formula_units_Z            2
loop_
_atom_site_label
_atom_site_type_symbol
_atom_site_fract_x
_atom_site_fract_y
_atom_site_fract_z
Cl1 Cl 0.49710(8) 0.31396(7) 0.51100(4)
O1 O 0.61496(13) 0.32404(10) 0.76595(7)
O2 O 0.57604(14) 0.06040(11) 0.75375(8)
O3 O 0.36133(13) 0.21607(12) 1.05394(8)
O4 O 0.73344(13) 0.41942(11) 1.03399(8)
O5 O 0.73910(15) 0.17444(13) 1.00941(9)
C1 C 0.48353(19) 0.32145(16) 0.82934(11)
H1 H 0.3584 0.2886 0.7815
H2 H 0.5194 0.4285 0.8775
C2 C 0.5636(2) 0.16858(15) 0.69424(10)
H3 H 0.4342 0.1300 0.6482
C3 C 0.66560(18) 0.26133(16) 0.98590(10)
C4 C 0.6979(2) 0.18326(16) 0.62409(11)
C5 C 0.4453(2) 0.04047(16) 0.81845(11)
H4 H 0.4582 -0.0329 0.8600
H5 H 0.3174 -0.0063 0.7712
C6 C 0.31255(19) 0.17965(17) 0.94631(11)
C7 C 0.6794(2) 0.25043(19) 0.53899(12)
O6 O 0.15421(15) 0.13210(18) 0.89003(10)
C8 C 0.8475(2) 0.13631(19) 0.64430(13)
H6 H 0.8625 0.0900 0.7006
C9 C 0.9059(2) 0.48609(19) 1.12364(13)
H7 H 0.9607 0.6024 1.1397
H8 H 0.9970 0.4459 1.1014
C10 C 0.8056(3) 0.2708(2) 0.47540(15)
H9 H 0.7907 0.3156 0.4183
C11 C 0.2060(2) 0.1813(2) 1.10553(14)
H10 H 0.1412 0.0659 1.0914
H11 H 0.1156 0.2221 1.0759
C12 C 0.2854(3) 0.2600(2) 1.22466(14)
H12 H 0.3437 0.3745 1.2381
H13 H 0.3782 0.2220 1.2528
H14 H 0.1858 0.2344 1.2604
C13 C 0.9744(3) 0.1579(2) 0.58139(17)
H15 H 1.0751 0.1271 0.5961
C14 C 0.8679(3) 0.4424(2) 1.22419(13)
H16 H 0.8254 0.3279 1.2106
H17 H 0.7719 0.4760 1.2438
H18 H 0.9818 0.4951 1.2830
C15 C 0.9529(3) 0.2242(3) 0.49760(18)
H19 H 1.0387 0.2377 0.4554
C16 C 0.48016(18) 0.20315(15) 0.89746(10)
loop_
_geom_bond_atom_site_label_1
_geom_bond_atom_site_label_2
_geom_bond_site_symmetry_1
_geom_bond_site_symmetry_2
Cl1 C7 1_555 1_555
O1 C1 1_555 1_555
O2 C2 1_555 1_555
O3 C6 1_555 1_555
O4 C3 1_555 1_555
O5 C3 1_555 1_555
C1 H1 1_555 1_555
H2 C1 1_555 1_555
C2 O1 1_555 1_555
H3 C2 1_555 1_555
C3 C16 1_555 1_555
C4 C2 1_555 1_555
C5 O2 1_555 1_555
H4 C5 1_555 1_555
H5 C5 1_555 1_555
C6 O6 1_555 1_555
C7 C4 1_555 1_555
C8 C4 1_555 1_555
H6 C8 1_555 1_555
C9 O4 1_555 1_555
H7 C9 1_555 1_555
H8 C9 1_555 1_555
C10 C7 1_555 1_555
H9 C10 1_555 1_555
C11 O3 1_555 1_555
H10 C11 1_555 1_555
H11 C11 1_555 1_555
C12 C11 1_555 1_555
H12 C12 1_555 1_555
H13 C12 1_555 1_555
H14 C12 1_555 1_555
C13 C8 1_555 1_555
H15 C13 1_555 1_555
C14 C9 1_555 1_555
H16 C14 1_555 1_555
H17 C14 1_555 1_555
H18 C14 1_555 1_555
C15 C10 1_555 1_555
H19 C15 1_555 1_555
C16 C1 1_555 1_555
C5 C16 1_555 1_555
C6 C16 1_555 1_555
C13 C15 1_555 1_555

#END
