
#######################################################################
#
#                 Cambridge Crystallographic Data Centre
#                                CCDC 
#
#######################################################################
#
# If this CIF has been generated from an entry in the Cambridge 
# Structural Database, then it will include bibliographic, chemical, 
# crystal, experimental, refinement or atomic coordinate data resulting 
# from the CCDC's data processing and validation procedures.
#
#######################################################################

data_WIHNEI
_chemical_formula_moiety         'C14 H12 O5,H2 O1'
_chemical_name_systematic        
'2,9-Dihydroxy-7-methoxy-4-methylnaphtho[1,2-b]furan-3(2H)-one monohydrate'
_symmetry_cell_setting           monoclinic
_symmetry_space_group_name_H-M   'P 21/c'
_symmetry_Int_Tables_number      14
_space_group_name_Hall           '-P 2ybc'
loop_
_symmetry_equiv_pos_site_id
_symmetry_equiv_pos_as_xyz
1 x,y,z
2 -x,1/2+y,1/2-z
3 -x,-y,-z
4 x,1/2-y,1/2+z
_cell_length_a                   7.6654(15)
_cell_length_b                   15.313(3)
_cell_length_c                   10.814(2)
_cell_angle_alpha                90
_cell_angle_beta                 99.19(3)
_cell_angle_gamma                90
_cell_volume                     1253.06
_cell_formula_units_Z            4
loop_
_atom_site_label
_atom_site_type_symbol
_atom_site_fract_x
_atom_site_fract_y
_atom_site_fract_z
C1 C 0.4462(6) 1.1782(2) 0.1276(3)
C2 C 0.3987(4) 1.15873(19) -0.0124(3)
C3 C 0.3185(4) 1.07489(19) -0.0233(3)
C4 C 0.2426(4) 1.02372(19) -0.1292(3)
C5 C 0.1730(4) 0.9452(2) -0.1050(3)
H1 H 0.1199 0.9116 -0.1723
C6 C 0.1770(4) 0.91145(19) 0.0191(3)
C7 C 0.1033(4) 0.8290(2) 0.0357(3)
H2 H 0.0507 0.7967 -0.0331
C8 C 0.1102(4) 0.7968(2) 0.1556(3)
C9 C 0.1905(4) 0.8441(2) 0.2597(3)
H3 H 0.1970 0.8202 0.3394
C10 C 0.2598(4) 0.9252(2) 0.2462(3)
C11 C 0.2541(4) 0.96159(19) 0.1246(3)
C12 C 0.3195(4) 1.04417(18) 0.0978(3)
C13 C 0.2390(5) 1.0566(2) -0.2602(3)
H4 H 0.1789 1.0150 -0.3186
H5 H 0.3578 1.0642 -0.2759
H6 H 0.1779 1.1115 -0.2700
C14 C -0.0398(5) 0.6639(2) 0.0852(4)
H7 H -0.1250 0.6971 0.0294
H8 H -0.0980 0.6163 0.1195
H9 H 0.0485 0.6415 0.0401
H10 H 0.553(2) 1.2169(12) 0.1689(18)
O1 O 0.3901(3) 1.10131(13) 0.1888(2)
O2 O 0.3557(4) 1.24959(17) 0.1529(2)
H11 H 0.3793 1.2609 0.2278
O3 O 0.4302(3) 1.21140(14) -0.0923(2)
O4 O 0.0420(3) 0.71906(15) 0.1847(2)
O5 O 0.3349(3) 0.97369(15) 0.3461(2)
H12 H 0.3459 0.9437 0.4096
O6 O 0.5816(4) 0.11766(19) 0.4464(3)
H13 H 0.536(6) 0.174(4) 0.450(5)
H14 H 0.492(8) 0.097(4) 0.397(6)
loop_
_geom_bond_atom_site_label_1
_geom_bond_atom_site_label_2
_geom_bond_site_symmetry_1
_geom_bond_site_symmetry_2
C1 C2 1_555 1_555
C2 C3 1_555 1_555
C3 C4 1_555 1_555
C4 C5 1_555 1_555
C5 H1 1_555 1_555
C6 C5 1_555 1_555
C7 C6 1_555 1_555
H2 C7 1_555 1_555
C8 C7 1_555 1_555
C9 C8 1_555 1_555
H3 C9 1_555 1_555
C10 C9 1_555 1_555
C11 C6 1_555 1_555
C12 C3 1_555 1_555
C13 C4 1_555 1_555
H4 C13 1_555 1_555
H5 C13 1_555 1_555
H6 C13 1_555 1_555
C14 H7 1_555 1_555
H8 C14 1_555 1_555
H9 C14 1_555 1_555
H10 C1 1_555 1_555
O1 C1 1_555 1_555
O2 C1 1_555 1_555
H11 O2 1_555 1_555
O3 C2 1_555 1_555
O4 C8 1_555 1_555
O5 C10 1_555 1_555
H12 O5 1_555 1_555
O6 H13 1_555 1_555
H14 O6 1_555 1_555
C10 C11 1_555 1_555
C11 C12 1_555 1_555
C12 O1 1_555 1_555
C14 O4 1_555 1_555

#END
