
#######################################################################
#
#                 Cambridge Crystallographic Data Centre
#                                CCDC 
#
#######################################################################
#
# If this CIF has been generated from an entry in the Cambridge 
# Structural Database, then it will include bibliographic, chemical, 
# crystal, experimental, refinement or atomic coordinate data resulting 
# from the CCDC's data processing and validation procedures.
#
#######################################################################

data_WIHNIN01
_chemical_formula_moiety         'C54 H66 Si2'
_chemical_name_systematic        
{pyrene-2,7-diylbis[(2,5-dimethyl-4,1-phenylene)ethyne-2,1-diyl]}bis[tris(propan-2-yl)silane]
_symmetry_cell_setting           triclinic
_symmetry_space_group_name_H-M   'P -1'
_symmetry_Int_Tables_number      2
_space_group_name_Hall           '-P 1'
loop_
_symmetry_equiv_pos_site_id
_symmetry_equiv_pos_as_xyz
1 x,y,z
2 -x,-y,-z
_cell_length_a                   7.9699(6)
_cell_length_b                   10.8209(8)
_cell_length_c                   14.3403(11)
_cell_angle_alpha                73.718(3)
_cell_angle_beta                 78.431(3)
_cell_angle_gamma                72.814(3)
_cell_volume                     1124.74
_exptl_crystal_colour            colorless
_exptl_crystal_description       plate
_cell_formula_units_Z            1
_exptl_crystal_recrystallization_method chloroform/methanol
loop_
_atom_site_label
_atom_site_type_symbol
_atom_site_fract_x
_atom_site_fract_y
_atom_site_fract_z
Si1 Si 0.89282(5) 0.87395(4) 0.22589(3)
C1 C 0.22507(19) 0.60539(14) 0.76551(10)
C2 C 0.04014(19) 0.63694(14) 0.78106(10)
H1 H -0.024604 0.686780 0.727834
C3 C -0.05145(18) 0.59660(14) 0.87341(10)
C4 C 0.04529(18) 0.52088(13) 0.95277(10)
C5 C 0.23367(18) 0.48700(13) 0.93714(10)
C6 C 0.31951(19) 0.53066(14) 0.84396(11)
H2 H 0.445261 0.509071 0.833547
C7 C 0.32822(18) 0.40830(14) 1.01832(11)
H3 H 0.454008 0.383382 1.008650
C8 C 0.24155(18) 0.36903(14) 1.10819(11)
H4 H 0.307915 0.317488 1.160437
C9 C 0.32340(18) 0.65519(14) 0.66886(11)
C10 C 0.44328(19) 0.72765(14) 0.66706(10)
H5 H 0.456123 0.743371 0.726876
C11 C 0.54461(18) 0.77780(14) 0.58198(11)
C12 C 0.52620(18) 0.75091(14) 0.49487(10)
C13 C 0.40629(19) 0.67856(14) 0.49602(11)
H6 H 0.395481 0.661166 0.436430
C14 C 0.30215(19) 0.63103(14) 0.58117(11)
C15 C 0.1766(2) 0.55259(16) 0.57671(11)
H7 H 0.174412 0.480967 0.636218
H8 H 0.216567 0.514197 0.519292
H9 H 0.057307 0.611748 0.571719
C16 C 0.6704(2) 0.85667(16) 0.58371(11)
H10 H 0.659692 0.869227 0.649927
H11 H 0.641504 0.943675 0.537615
H12 H 0.792013 0.808490 0.564718
C17 C 0.63461(19) 0.79467(14) 0.40557(11)
C18 C 0.73191(19) 0.82913(15) 0.33286(11)
C19 C 1.05305(19) 0.71315(15) 0.20513(11)
H13 H 0.978721 0.652951 0.205517
C20 C 1.1695(2) 0.64018(18) 0.28699(13)
H14 H 1.258908 0.687819 0.282930
H15 H 1.228405 0.549463 0.279705
H16 H 1.095701 0.636576 0.350710
C21 C 1.1667(2) 0.72903(16) 0.10455(12)
H17 H 1.089706 0.774165 0.053157
H18 H 1.233874 0.641037 0.094328
H19 H 1.248904 0.782018 0.101995
C22 C 0.9916(2) 0.99682(16) 0.25318(11)
H20 H 0.897053 1.082299 0.246847
C23 C 1.0370(3) 0.9612(2) 0.35758(14)
H21 H 0.933683 0.943896 0.404192
H22 H 1.070514 1.035382 0.368987
H23 H 1.136056 0.881414 0.366538
C24 C 1.1474(2) 1.02731(18) 0.17807(14)
H24 H 1.186358 1.097189 0.192287
H25 H 1.110990 1.057679 0.112333
H26 H 1.245146 0.946688 0.181222
C25 C 0.7667(2) 0.95405(15) 0.11719(11)
H27 H 0.853729 0.977371 0.058679
C26 C 0.6808(2) 0.85572(17) 0.09709(12)
H28 H 0.773152 0.777941 0.083002
H29 H 0.615176 0.899336 0.040689
H30 H 0.599400 0.827218 0.154777
C27 C 0.6281(2) 1.08235(16) 0.12911(12)
H31 H 0.547367 1.064032 0.189561
H32 H 0.560844 1.117070 0.073008
H33 H 0.687166 1.148364 0.132409
Si1A Si -0.89282(5) 0.12605(4) 1.77411(3)
C1A C -0.22507(19) 0.39461(14) 1.23449(10)
C2A C -0.04014(19) 0.36306(14) 1.21894(10)
H1A H 0.024604 0.313220 1.272166
C3A C 0.05145(18) 0.40340(14) 1.12659(10)
C4A C -0.04529(18) 0.47912(13) 1.04723(10)
C5A C -0.23367(18) 0.51300(13) 1.06286(10)
C6A C -0.31951(19) 0.46934(14) 1.15604(11)
H2A H -0.445261 0.490929 1.166453
C7A C -0.32822(18) 0.59170(14) 0.98168(11)
H3A H -0.454008 0.616618 0.991350
C8A C -0.24155(18) 0.63097(14) 0.89181(11)
H4A H -0.307915 0.682512 0.839563
C9A C -0.32340(18) 0.34481(14) 1.33114(11)
C10A C -0.44328(19) 0.27235(14) 1.33294(10)
H5A H -0.456123 0.256629 1.273124
C11A C -0.54461(18) 0.22220(14) 1.41802(11)
C12A C -0.52620(18) 0.24909(14) 1.50513(10)
C13A C -0.40629(19) 0.32144(14) 1.50398(11)
H6A H -0.395481 0.338834 1.563570
C14A C -0.30215(19) 0.36897(14) 1.41883(11)
C15A C -0.1766(2) 0.44741(16) 1.42329(11)
H7A H -0.174412 0.519033 1.363782
H8A H -0.216567 0.485803 1.480708
H9A H -0.057307 0.388252 1.428281
C16A C -0.6704(2) 0.14333(16) 1.41629(11)
H10A H -0.659692 0.130773 1.350073
H11A H -0.641504 0.056325 1.462385
H12A H -0.792013 0.191510 1.435282
C17A C -0.63461(19) 0.20533(14) 1.59443(11)
C18A C -0.73191(19) 0.17087(15) 1.66714(11)
C19A C -1.05305(19) 0.28685(15) 1.79487(11)
H13A H -0.978721 0.347049 1.794483
C20A C -1.1695(2) 0.35982(18) 1.71301(13)
H14A H -1.258908 0.312181 1.717070
H15A H -1.228405 0.450537 1.720295
H16A H -1.095701 0.363424 1.649290
C21A C -1.1667(2) 0.27097(16) 1.89545(12)
H17A H -1.089706 0.225835 1.946843
H18A H -1.233874 0.358963 1.905672
H19A H -1.248904 0.217982 1.898005
C22A C -0.9916(2) 0.00318(16) 1.74682(11)
H20A H -0.897053 -0.082299 1.753153
C23A C -1.0370(3) 0.0388(2) 1.64242(14)
H21A H -0.933683 0.056104 1.595808
H22A H -1.070514 -0.035382 1.631013
H23A H -1.136056 0.118586 1.633462
C24A C -1.1474(2) -0.02731(18) 1.82193(14)
H24A H -1.186358 -0.097189 1.807713
H25A H -1.110990 -0.057679 1.887667
H26A H -1.245146 0.053312 1.818778
C25A C -0.7667(2) 0.04595(15) 1.88281(11)
H27A H -0.853729 0.022629 1.941321
C26A C -0.6808(2) 0.14428(17) 1.90291(12)
H28A H -0.773152 0.222059 1.916998
H29A H -0.615176 0.100664 1.959311
H30A H -0.599400 0.172782 1.845223
C27A C -0.6281(2) -0.08235(16) 1.87089(12)
H31A H -0.547367 -0.064032 1.810439
H32A H -0.560844 -0.117070 1.926992
H33A H -0.687166 -0.148364 1.867591
loop_
_geom_bond_atom_site_label_1
_geom_bond_atom_site_label_2
_geom_bond_site_symmetry_1
_geom_bond_site_symmetry_2
Si1 C18 1_555 1_555
C1 C2 1_555 1_555
C2 H1 1_555 1_555
C3 C2 1_555 1_555
C4 C3 1_555 1_555
C5 C4 1_555 1_555
C6 C1 1_555 1_555
H2 C6 1_555 1_555
C7 C5 1_555 1_555
H3 C7 1_555 1_555
C8 C7 1_555 1_555
H4 C8 1_555 1_555
C9 C1 1_555 1_555
C10 C9 1_555 1_555
H5 C10 1_555 1_555
C11 C10 1_555 1_555
C12 C11 1_555 1_555
C13 C12 1_555 1_555
H6 C13 1_555 1_555
C14 C9 1_555 1_555
C15 C14 1_555 1_555
H7 C15 1_555 1_555
H8 C15 1_555 1_555
H9 C15 1_555 1_555
C16 C11 1_555 1_555
H10 C16 1_555 1_555
H11 C16 1_555 1_555
H12 C16 1_555 1_555
C17 C12 1_555 1_555
C18 C17 1_555 1_555
C19 Si1 1_555 1_555
H13 C19 1_555 1_555
C20 C19 1_555 1_555
H14 C20 1_555 1_555
H15 C20 1_555 1_555
H16 C20 1_555 1_555
C21 C19 1_555 1_555
H17 C21 1_555 1_555
H18 C21 1_555 1_555
H19 C21 1_555 1_555
C22 Si1 1_555 1_555
H20 C22 1_555 1_555
C23 C22 1_555 1_555
H21 C23 1_555 1_555
H22 C23 1_555 1_555
H23 C23 1_555 1_555
C24 C22 1_555 1_555
H24 C24 1_555 1_555
H25 C24 1_555 1_555
H26 C24 1_555 1_555
C25 Si1 1_555 1_555
H27 C25 1_555 1_555
C26 C25 1_555 1_555
H28 C26 1_555 1_555
H29 C26 1_555 1_555
H30 C26 1_555 1_555
C27 C25 1_555 1_555
H31 C27 1_555 1_555
H32 C27 1_555 1_555
H33 C27 1_555 1_555
Si1A C18A 1_555 1_555
C1A C2A 1_555 1_555
C2A H1A 1_555 1_555
C3A C8 1_555 1_555
C4A C4 1_555 1_555
C5A C4A 1_555 1_555
C6A C1A 1_555 1_555
H2A C6A 1_555 1_555
C7A C5A 1_555 1_555
H3A C7A 1_555 1_555
C8A C3 1_555 1_555
H4A C8A 1_555 1_555
C9A C1A 1_555 1_555
C10A C9A 1_555 1_555
H5A C10A 1_555 1_555
C11A C10A 1_555 1_555
C12A C11A 1_555 1_555
C13A C12A 1_555 1_555
H6A C13A 1_555 1_555
C14A C9A 1_555 1_555
C15A C14A 1_555 1_555
H7A C15A 1_555 1_555
H8A C15A 1_555 1_555
H9A C15A 1_555 1_555
C16A C11A 1_555 1_555
H10A C16A 1_555 1_555
H11A C16A 1_555 1_555
H12A C16A 1_555 1_555
C17A C12A 1_555 1_555
C18A C17A 1_555 1_555
C19A Si1A 1_555 1_555
H13A C19A 1_555 1_555
C20A C19A 1_555 1_555
H14A C20A 1_555 1_555
H15A C20A 1_555 1_555
H16A C20A 1_555 1_555
C21A C19A 1_555 1_555
H17A C21A 1_555 1_555
H18A C21A 1_555 1_555
H19A C21A 1_555 1_555
C22A Si1A 1_555 1_555
H20A C22A 1_555 1_555
C23A C22A 1_555 1_555
H21A C23A 1_555 1_555
H22A C23A 1_555 1_555
H23A C23A 1_555 1_555
C24A C22A 1_555 1_555
H24A C24A 1_555 1_555
H25A C24A 1_555 1_555
H26A C24A 1_555 1_555
C25A Si1A 1_555 1_555
H27A C25A 1_555 1_555
C26A C25A 1_555 1_555
H28A C26A 1_555 1_555
H29A C26A 1_555 1_555
H30A C26A 1_555 1_555
C27A C25A 1_555 1_555
H31A C27A 1_555 1_555
H32A C27A 1_555 1_555
H33A C27A 1_555 1_555
C5 C6 1_555 1_555
C13 C14 1_555 1_555
C2A C3A 1_555 1_555
C3A C4A 1_555 1_555
C5A C6A 1_555 1_555
C7A C8A 1_555 1_555
C13A C14A 1_555 1_555

#END
