
#######################################################################
#
#                 Cambridge Crystallographic Data Centre
#                                CCDC 
#
#######################################################################
#
# If this CIF has been generated from an entry in the Cambridge 
# Structural Database, then it will include bibliographic, chemical, 
# crystal, experimental, refinement or atomic coordinate data resulting 
# from the CCDC's data processing and validation procedures.
#
#######################################################################

data_WILZAU
_chemical_formula_moiety         'C26 H22 O3 S1'
_chemical_name_systematic        
4-Methoxy-2'-((4-methylphenyl)sulfonyl)-1,1':4',1''-terphenyl
_symmetry_cell_setting           triclinic
_symmetry_space_group_name_H-M   'P -1'
_symmetry_Int_Tables_number      2
_space_group_name_Hall           '-P 1'
loop_
_symmetry_equiv_pos_site_id
_symmetry_equiv_pos_as_xyz
1 x,y,z
2 -x,-y,-z
_cell_length_a                   6.4366(5)
_cell_length_b                   9.7802(8)
_cell_length_c                   17.0284(16)
_cell_angle_alpha                105.380(4)
_cell_angle_beta                 96.514(4)
_cell_angle_gamma                94.866(4)
_cell_volume                     1019.48
_exptl_crystal_colour            colorless
_exptl_crystal_description       Acicular
_cell_formula_units_Z            2
loop_
_atom_site_label
_atom_site_type_symbol
_atom_site_fract_x
_atom_site_fract_y
_atom_site_fract_z
S1 S 0.13809(11) 0.36733(7) 0.28421(5)
O1 O -0.3693(3) 0.94948(19) 0.32155(13)
O2 O 0.2185(3) 0.23409(19) 0.28303(13)
O3 O -0.0781(3) 0.3786(2) 0.29601(13)
C1 C -0.2967(5) 1.0955(3) 0.3302(2)
H1 H -0.1706 1.1258 0.3715
H2 H -0.4072 1.1551 0.3477
H3 H -0.2623 1.1059 0.2773
C2 C -0.2434(4) 0.8503(3) 0.28732(18)
C3 C -0.3333(4) 0.7093(3) 0.26404(18)
H4 H -0.4727 0.6867 0.2739
C4 C -0.2224(4) 0.6007(3) 0.22658(19)
H5 H -0.2869 0.5046 0.2104
C5 C -0.0161(4) 0.6314(3) 0.21241(18)
C6 C 0.1055(4) 0.5211(3) 0.16539(18)
C7 C 0.1813(4) 0.4056(3) 0.19035(18)
C8 C 0.3055(4) 0.3169(3) 0.14285(18)
H6 H 0.3585 0.2417 0.1616
C9 C 0.3538(4) 0.3358(3) 0.06851(18)
C10 C 0.4892(4) 0.2422(3) 0.01824(18)
C11 C 0.6786(4) 0.2117(3) 0.0554(2)
H7 H 0.7166 0.2458 0.1134
C12 C 0.8101(5) 0.1323(3) 0.0080(2)
H8 H 0.9400 0.1141 0.0336
C13 C 0.7550(5) 0.0789(3) -0.0762(2)
H9 H 0.8462 0.0241 -0.1083
C14 C 0.7153(5) 0.8494(3) 0.5294(2)
H10 H 0.8134 0.8865 0.4979
H11 H 0.7946 0.8159 0.5719
H12 H 0.6349 0.9254 0.5555
C15 C 0.5660(5) 0.7268(3) 0.4725(2)
C16 C 0.3558(5) 0.7413(3) 0.45106(19)
H13 H 0.3032 0.8284 0.4749
C17 C 0.2214(5) 0.6312(3) 0.39567(18)
H14 H 0.0778 0.6422 0.3819
C18 C 0.2996(4) 0.5037(3) 0.36039(18)
C19 C 0.5657(4) 0.1059(3) -0.11353(19)
H15 H 0.5256 0.0678 -0.1712
C20 C 0.4351(4) 0.1883(3) -0.06660(19)
H16 H 0.3073 0.2083 -0.0926
C21 C 0.2740(4) 0.4473(3) 0.04310(19)
H17 H 0.2999 0.4606 -0.0084
C22 C 0.1579(4) 0.5387(3) 0.09145(18)
H18 H 0.1119 0.6167 0.0736
C23 C -0.0380(4) 0.8834(3) 0.27395(18)
H19 H 0.0262 0.9796 0.2902
C24 C 0.0713(4) 0.7732(3) 0.23646(18)
H20 H 0.2111 0.7958 0.2270
C25 C 0.5086(4) 0.4862(3) 0.38196(19)
H21 H 0.5608 0.3988 0.3583
C26 C 0.6403(5) 0.5971(3) 0.43828(19)
H22 H 0.7825 0.5848 0.4538
loop_
_geom_bond_atom_site_label_1
_geom_bond_atom_site_label_2
_geom_bond_site_symmetry_1
_geom_bond_site_symmetry_2
S1 O2 1_555 1_555
O1 C1 1_555 1_555
O3 S1 1_555 1_555
C1 H1 1_555 1_555
H2 C1 1_555 1_555
H3 C1 1_555 1_555
C2 O1 1_555 1_555
C3 C2 1_555 1_555
H4 C3 1_555 1_555
C4 C3 1_555 1_555
H5 C4 1_555 1_555
C5 C4 1_555 1_555
C6 C5 1_555 1_555
C7 S1 1_555 1_555
C8 C7 1_555 1_555
H6 C8 1_555 1_555
C9 C8 1_555 1_555
C10 C9 1_555 1_555
C11 C10 1_555 1_555
H7 C11 1_555 1_555
C12 C11 1_555 1_555
H8 C12 1_555 1_555
C13 C12 1_555 1_555
H9 C13 1_555 1_555
C14 H10 1_555 1_555
H11 C14 1_555 1_555
H12 C14 1_555 1_555
C15 C14 1_555 1_555
C16 C15 1_555 1_555
H13 C16 1_555 1_555
C17 C16 1_555 1_555
H14 C17 1_555 1_555
C18 S1 1_555 1_555
C19 C13 1_555 1_555
H15 C19 1_555 1_555
C20 C10 1_555 1_555
H16 C20 1_555 1_555
C21 C9 1_555 1_555
H17 C21 1_555 1_555
C22 C6 1_555 1_555
H18 C22 1_555 1_555
C23 C2 1_555 1_555
H19 C23 1_555 1_555
C24 C5 1_555 1_555
H20 C24 1_555 1_555
C25 C18 1_555 1_555
H21 C25 1_555 1_555
C26 C15 1_555 1_555
H22 C26 1_555 1_555
C6 C7 1_555 1_555
C17 C18 1_555 1_555
C19 C20 1_555 1_555
C21 C22 1_555 1_555
C23 C24 1_555 1_555
C25 C26 1_555 1_555

#END
