
#######################################################################
#
#                 Cambridge Crystallographic Data Centre
#                                CCDC 
#
#######################################################################
#
# If this CIF has been generated from an entry in the Cambridge 
# Structural Database, then it will include bibliographic, chemical, 
# crystal, experimental, refinement or atomic coordinate data resulting 
# from the CCDC's data processing and validation procedures.
#
#######################################################################

data_WIMFIK
_chemical_formula_moiety         'C19 H16 Cl1 N1 O1 S1'
_chemical_name_systematic        
7-(4-chlorophenyl)-6-methyl-2-phenyl-6,7-dihydro-5H-pyrano[2,3-d][1,3]thiazole
_symmetry_cell_setting           triclinic
_symmetry_space_group_name_H-M   'P 1'
_symmetry_Int_Tables_number      1
_space_group_name_Hall           'P 1'
loop_
_symmetry_equiv_pos_site_id
_symmetry_equiv_pos_as_xyz
1 x,y,z
_cell_length_a                   8.2107(2)
_cell_length_b                   13.5374(3)
_cell_length_c                   16.2207(4)
_cell_angle_alpha                88.475(2)
_cell_angle_beta                 77.644(2)
_cell_angle_gamma                72.485(2)
_cell_volume                     1678.16
_exptl_crystal_colour            'light colorless'
_exptl_crystal_description       block
_cell_formula_units_Z            4
loop_
_atom_site_label
_atom_site_type_symbol
_atom_site_fract_x
_atom_site_fract_y
_atom_site_fract_z
S1 S 0.72246(14) 0.57222(8) 0.09945(7)
Cl1 Cl 0.6538(3) 1.06992(14) 0.15489(16)
O1 O 0.2648(6) 0.5446(4) 0.1234(4)
N1 N 0.5382(6) 0.4494(3) 0.1442(3)
C1 C 0.4691(6) 0.8060(3) 0.0875(3)
C2 C 0.4699(10) 0.9346(4) 0.1884(4)
H1 H 0.4310 0.9658 0.2424
C3 C 0.6965(7) 0.4553(3) 0.1367(3)
C4 C 0.5858(7) 0.8435(4) 0.0284(3)
H2 H 0.6258 0.8131 -0.0258
C5 C 0.4130(8) 0.8540(4) 0.1680(3)
H3 H 0.3356 0.8313 0.2088
C6 C 0.4110(7) 0.7177(4) 0.0631(3)
H4 H 0.4348 0.7121 0.0013
C7 C 0.8424(7) 0.3712(4) 0.1559(3)
C8 C 0.5835(8) 0.9680(4) 0.1286(4)
C9 C 0.8118(9) 0.2831(4) 0.1919(4)
H5 H 0.6989 0.2778 0.2045
C10 C 0.4341(7) 0.5388(4) 0.1199(4)
C11 C 1.1480(10) 0.2981(6) 0.1562(5)
H6 H 1.2606 0.3039 0.1448
C12 C 0.6427(9) 0.9233(5) 0.0481(4)
H7 H 0.7199 0.9470 0.0078
C13 C 0.5066(6) 0.6150(3) 0.0937(3)
C14 C 0.9505(11) 0.2020(5) 0.2092(4)
H8 H 0.9294 0.1427 0.2332
C15 C 1.1185(10) 0.2091(5) 0.1910(4)
H9 H 1.2109 0.1546 0.2020
C16 C 1.0124(8) 0.3782(4) 0.1385(4)
H10 H 1.0342 0.4374 0.1146
C17 C 0.2157(8) 0.7307(5) 0.0963(4)
H11 H 0.1871 0.7446 0.1575
C18 C 0.1788(9) 0.6314(6) 0.0788(6)
H12 H 0.0536 0.6426 0.0944
H13 H 0.2161 0.6144 0.0186
C19 C 0.1005(11) 0.8198(6) 0.0562(6)
H14 H 0.1096 0.8842 0.0748
H15 H -0.0188 0.8194 0.0725
H16 H 0.1379 0.8119 -0.0042
S2 S -0.06032(13) 0.42883(8) 0.89727(7)
Cl2 Cl 0.3978(2) -0.06935(13) 0.83842(13)
O2 O -0.5399(6) 0.4661(4) 0.8954(4)
N2 N -0.3386(6) 0.5579(3) 0.8660(3)
C20 C 0.0014(7) 0.1552(4) 0.9727(3)
H17 H -0.0342 0.1824 1.0280
C21 C -0.0953(7) 0.6316(4) 0.8439(3)
C22 C -0.0982(6) 0.1971(3) 0.9147(3)
C23 C -0.2638(6) 0.2866(3) 0.9419(3)
H18 H -0.2935 0.2908 1.0038
C24 C -0.1758(6) 0.5482(3) 0.8661(3)
C25 C -0.1898(8) 0.7224(4) 0.8139(4)
H19 H -0.3018 0.7294 0.8062
C26 C -0.0423(8) 0.1555(4) 0.8326(3)
H20 H -0.1077 0.1828 0.7925
C27 C 0.2074(7) 0.0337(4) 0.8684(4)
C28 C 0.1559(7) 0.0722(4) 0.9497(4)
H21 H 0.2219 0.0440 0.9894
C29 C 0.1108(8) 0.0733(4) 0.8096(4)
H22 H 0.1472 0.0455 0.7545
C30 C -0.2448(6) 0.3892(3) 0.9125(3)
C31 C -0.3750(7) 0.4686(4) 0.8920(4)
C32 C 0.0734(8) 0.6215(4) 0.8523(4)
H23 H 0.1393 0.5597 0.8707
C33 C -0.4227(7) 0.2770(4) 0.9118(4)
H24 H -0.3915 0.2684 0.8501
C34 C -0.5735(8) 0.3765(5) 0.9354(5)
H25 H -0.6763 0.3673 0.9203
H26 H -0.5997 0.3886 0.9961
C35 C -0.1182(10) 0.8032(5) 0.7951(5)
H27 H -0.1833 0.8646 0.7759
C36 C 0.1452(10) 0.7018(6) 0.8338(4)
H28 H 0.2575 0.6947 0.8409
C37 C 0.0481(11) 0.7928(5) 0.8047(4)
H29 H 0.0957 0.8470 0.7917
C38 C -0.4796(10) 0.1840(5) 0.9470(5)
H30 H -0.3888 0.1212 0.9258
H31 H -0.5847 0.1847 0.9297
H32 H -0.5010 0.1877 1.0075
S3 S 0.44129(15) 0.54044(8) 0.66324(8)
Cl3 Cl 0.9121(2) 0.03223(13) 0.62653(15)
O3 O 0.0269(6) 0.5634(3) 0.5822(3)
N3 N 0.2092(6) 0.6618(3) 0.5934(3)
C39 C 0.4185(6) 0.3030(3) 0.6552(3)
C40 C 0.5570(7) 0.2922(4) 0.5856(3)
H33 H 0.5479 0.3421 0.5449
C41 C 0.4369(7) 0.2275(4) 0.7153(3)
H34 H 0.3461 0.2331 0.7622
C42 C 0.7080(7) 0.2083(4) 0.5758(4)
H35 H 0.7981 0.2012 0.5284
C43 C 0.1691(7) 0.5713(4) 0.6075(3)
C44 C 0.2509(6) 0.3919(4) 0.6638(3)
H36 H 0.1849 0.3957 0.7223
C45 C 0.3496(7) 0.6570(4) 0.6199(3)
C46 C 0.2773(6) 0.4957(4) 0.6442(3)
C47 C 0.5874(9) 0.1442(4) 0.7069(4)
H37 H 0.5980 0.0943 0.7476
C48 C 0.1354(7) 0.3757(4) 0.6054(3)
H38 H 0.2041 0.3654 0.5472
C49 C 0.4259(7) 0.7427(4) 0.6143(3)
C50 C 0.7224(8) 0.1363(4) 0.6369(4)
C51 C 0.5945(8) 0.7282(5) 0.6247(4)
H39 H 0.6607 0.6634 0.6379
C52 C 0.6646(11) 0.8094(6) 0.6156(5)
H40 H 0.7789 0.7987 0.6212
C53 C 0.3251(10) 0.8412(4) 0.5979(4)
H41 H 0.2106 0.8526 0.5923
C54 C -0.0205(8) 0.4721(5) 0.6106(4)
H42 H -0.0971 0.4597 0.5768
H43 H -0.0856 0.4846 0.6687
C55 C 0.3978(12) 0.9221(5) 0.5901(5)
H44 H 0.3310 0.9879 0.5791
C56 C 0.5658(12) 0.9068(6) 0.5981(5)
H45 H 0.6133 0.9615 0.5919
C57 C 0.0712(12) 0.2822(7) 0.6274(7)
H46 H 0.1696 0.2214 0.6254
H47 H 0.0050 0.2733 0.5876
H48 H -0.0017 0.2928 0.6832
S4 S 1.12126(15) 0.45702(8) 0.33613(8)
Cl4 Cl 1.0564(3) 0.96544(12) 0.37176(15)
O4 O 0.6614(5) 0.4345(3) 0.4199(3)
N4 N 0.9504(6) 0.3360(3) 0.4080(3)
C58 C 1.1092(7) 0.3412(3) 0.3806(3)
C59 C 0.8557(6) 0.6946(3) 0.3450(3)
C60 C 0.9231(7) 0.7065(4) 0.4143(3)
H49 H 0.9272 0.6574 0.4557
C61 C 1.2662(7) 0.2560(4) 0.3857(3)
C62 C 0.8480(7) 0.7707(4) 0.2852(3)
H50 H 0.8019 0.7652 0.2385
C63 C 0.7843(6) 0.6063(4) 0.3356(3)
H51 H 0.7729 0.6025 0.2770
C64 C 0.8329(7) 0.4262(4) 0.3933(3)
C65 C 0.8977(6) 0.5023(3) 0.3554(3)
C66 C 0.9841(7) 0.7890(4) 0.4236(4)
H52 H 1.0294 0.7956 0.4703
C67 C 0.9081(8) 0.8547(4) 0.2940(4)
H53 H 0.9013 0.9055 0.2540
C68 C 0.9765(7) 0.8615(4) 0.3619(4)
C69 C 1.4283(8) 0.2709(4) 0.3743(4)
H54 H 1.4409 0.3358 0.3605
C70 C 1.2490(10) 0.1574(4) 0.4023(4)
H55 H 1.1409 0.1460 0.4083
C71 C 0.6012(7) 0.6222(4) 0.3937(3)
H56 H 0.6084 0.6346 0.4519
C72 C 1.5732(9) 0.1890(6) 0.3834(4)
H57 H 1.6815 0.2000 0.3777
C73 C 1.3966(11) 0.0765(5) 0.4097(5)
H58 H 1.3860 0.0107 0.4210
C74 C 1.5571(10) 0.0917(5) 0.4007(4)
H59 H 1.6542 0.0369 0.4061
C75 C 0.5475(7) 0.5251(5) 0.3903(4)
H60 H 0.4300 0.5377 0.4242
H61 H 0.5442 0.5111 0.3325
C76 C 0.4633(10) 0.7133(7) 0.3696(7)
H62 H 0.5020 0.7739 0.3668
H63 H 0.3561 0.7255 0.4112
H64 H 0.4444 0.6986 0.3155
loop_
_geom_bond_atom_site_label_1
_geom_bond_atom_site_label_2
_geom_bond_site_symmetry_1
_geom_bond_site_symmetry_2
S1 C3 1_555 1_555
Cl1 C8 1_555 1_555
O1 C10 1_555 1_555
N1 C3 1_555 1_555
C1 C4 1_555 1_555
C2 H1 1_555 1_555
C3 C7 1_555 1_555
C4 H2 1_555 1_555
C5 C1 1_555 1_555
H3 C5 1_555 1_555
C6 C1 1_555 1_555
H4 C6 1_555 1_555
C7 C9 1_555 1_555
C8 C2 1_555 1_555
C9 H5 1_555 1_555
C10 N1 1_555 1_555
C11 H6 1_555 1_555
C12 C4 1_555 1_555
H7 C12 1_555 1_555
C13 S1 1_555 1_555
C14 C9 1_555 1_555
H8 C14 1_555 1_555
C15 C11 1_555 1_555
H9 C15 1_555 1_555
C16 C7 1_555 1_555
H10 C16 1_555 1_555
C17 C6 1_555 1_555
H11 C17 1_555 1_555
C18 O1 1_555 1_555
H12 C18 1_555 1_555
H13 C18 1_555 1_555
C19 C17 1_555 1_555
H14 C19 1_555 1_555
H15 C19 1_555 1_555
H16 C19 1_555 1_555
S2 C24 1_555 1_555
Cl2 C27 1_555 1_555
O2 C31 1_555 1_555
N2 C24 1_555 1_555
C20 H17 1_555 1_555
C21 C24 1_555 1_555
C22 C20 1_555 1_555
C23 C22 1_555 1_555
H18 C23 1_555 1_555
C25 C21 1_555 1_555
H19 C25 1_555 1_555
C26 C22 1_555 1_555
H20 C26 1_555 1_555
C27 C28 1_555 1_555
C28 C20 1_555 1_555
H21 C28 1_555 1_555
C29 C26 1_555 1_555
H22 C29 1_555 1_555
C30 S2 1_555 1_555
C31 N2 1_555 1_555
C32 C21 1_555 1_555
H23 C32 1_555 1_555
C33 C23 1_555 1_555
H24 C33 1_555 1_555
C34 O2 1_555 1_555
H25 C34 1_555 1_555
H26 C34 1_555 1_555
C35 C25 1_555 1_555
H27 C35 1_555 1_555
C36 C32 1_555 1_555
H28 C36 1_555 1_555
C37 C35 1_555 1_555
H29 C37 1_555 1_555
C38 C33 1_555 1_555
H30 C38 1_555 1_555
H31 C38 1_555 1_555
H32 C38 1_555 1_555
S3 C45 1_555 1_555
Cl3 C50 1_555 1_555
O3 C43 1_555 1_555
N3 C43 1_555 1_555
C39 C40 1_555 1_555
C40 H33 1_555 1_555
C41 C39 1_555 1_555
H34 C41 1_555 1_555
C42 C40 1_555 1_555
H35 C42 1_555 1_555
C43 C46 1_555 1_555
C44 C39 1_555 1_555
H36 C44 1_555 1_555
C45 N3 1_555 1_555
C46 S3 1_555 1_555
C47 C41 1_555 1_555
H37 C47 1_555 1_555
C48 C44 1_555 1_555
H38 C48 1_555 1_555
C49 C45 1_555 1_555
C50 C42 1_555 1_555
C51 C49 1_555 1_555
H39 C51 1_555 1_555
C52 C51 1_555 1_555
H40 C52 1_555 1_555
C53 C49 1_555 1_555
H41 C53 1_555 1_555
C54 O3 1_555 1_555
H42 C54 1_555 1_555
H43 C54 1_555 1_555
C55 C53 1_555 1_555
H44 C55 1_555 1_555
C56 C52 1_555 1_555
H45 C56 1_555 1_555
C57 C48 1_555 1_555
H46 C57 1_555 1_555
H47 C57 1_555 1_555
H48 C57 1_555 1_555
S4 C58 1_555 1_555
Cl4 C68 1_555 1_555
O4 C64 1_555 1_555
N4 C58 1_555 1_555
C58 C61 1_555 1_555
C59 C60 1_555 1_555
C60 H49 1_555 1_555
C61 C69 1_555 1_555
C62 C59 1_555 1_555
H50 C62 1_555 1_555
C63 C59 1_555 1_555
H51 C63 1_555 1_555
C64 N4 1_555 1_555
C65 S4 1_555 1_555
C66 C60 1_555 1_555
H52 C66 1_555 1_555
C67 C62 1_555 1_555
H53 C67 1_555 1_555
C68 C66 1_555 1_555
C69 H54 1_555 1_555
C70 C61 1_555 1_555
H55 C70 1_555 1_555
C71 C63 1_555 1_555
H56 C71 1_555 1_555
C72 C69 1_555 1_555
H57 C72 1_555 1_555
C73 C70 1_555 1_555
H58 C73 1_555 1_555
C74 C72 1_555 1_555
H59 C74 1_555 1_555
C75 O4 1_555 1_555
H60 C75 1_555 1_555
H61 C75 1_555 1_555
C76 C71 1_555 1_555
H62 C76 1_555 1_555
H63 C76 1_555 1_555
H64 C76 1_555 1_555
C2 C5 1_555 1_555
C6 C13 1_555 1_555
C8 C12 1_555 1_555
C10 C13 1_555 1_555
C11 C16 1_555 1_555
C14 C15 1_555 1_555
C17 C18 1_555 1_555
C23 C30 1_555 1_555
C27 C29 1_555 1_555
C30 C31 1_555 1_555
C33 C34 1_555 1_555
C36 C37 1_555 1_555
C44 C46 1_555 1_555
C47 C50 1_555 1_555
C48 C54 1_555 1_555
C55 C56 1_555 1_555
C63 C65 1_555 1_555
C64 C65 1_555 1_555
C67 C68 1_555 1_555
C71 C75 1_555 1_555
C73 C74 1_555 1_555

#END
