
#######################################################################
#
#                 Cambridge Crystallographic Data Centre
#                                CCDC 
#
#######################################################################
#
# If this CIF has been generated from an entry in the Cambridge 
# Structural Database, then it will include bibliographic, chemical, 
# crystal, experimental, refinement or atomic coordinate data resulting 
# from the CCDC's data processing and validation procedures.
#
#######################################################################

data_WINWAT
_chemical_formula_moiety         'C20 H20 O3'
_chemical_name_systematic        
3-(3,4-Dimethoxy-2-(prop-1-en-1-yl)phenyl)-1-phenylprop-2-en-1-one
_symmetry_cell_setting           orthorhombic
_symmetry_space_group_name_H-M   'P b c a'
_symmetry_Int_Tables_number      61
_space_group_name_Hall           '-P 2ac 2ab'
loop_
_symmetry_equiv_pos_site_id
_symmetry_equiv_pos_as_xyz
1 x,y,z
2 1/2+x,1/2-y,-z
3 -x,1/2+y,1/2-z
4 1/2-x,-y,1/2+z
5 -x,-y,-z
6 1/2-x,1/2+y,z
7 x,1/2-y,1/2+z
8 1/2+x,y,1/2-z
_cell_length_a                   7.3376(7)
_cell_length_b                   11.2660(10)
_cell_length_c                   38.619(4)
_cell_angle_alpha                90
_cell_angle_beta                 90
_cell_angle_gamma                90
_cell_volume                     3192.46
_exptl_crystal_colour            colorless
_exptl_crystal_description       Lamellar
_cell_formula_units_Z            8
loop_
_atom_site_label
_atom_site_type_symbol
_atom_site_fract_x
_atom_site_fract_y
_atom_site_fract_z
O1 O 1.03082(16) 0.61426(9) 0.45837(3)
O2 O 0.78684(16) 1.09147(10) 0.29697(3)
O3 O 1.02634(15) 0.85045(9) 0.46891(3)
C1 C 1.0573(2) 0.49026(13) 0.45192(4)
H1 H 0.9449 0.4561 0.4425
H2 H 1.0886 0.4501 0.4736
H3 H 1.1566 0.4797 0.4352
C2 C 0.9934(2) 0.68399(13) 0.43027(4)
C3 C 0.98754(19) 0.80656(13) 0.43629(4)
C4 C 0.95579(19) 0.88697(13) 0.40933(4)
C5 C 0.92332(19) 0.84299(13) 0.37541(4)
C6 C 0.8759(2) 0.92351(13) 0.34694(4)
H4 H 0.8266 0.9985 0.3532
C7 C 0.8951(2) 0.90206(14) 0.31308(4)
H5 H 0.9425 0.8281 0.3054
C8 C 0.8423(2) 0.99393(13) 0.28754(4)
C9 C 0.85955(19) 0.96791(13) 0.24948(4)
C10 C 0.9196(2) 0.85932(14) 0.23635(4)
H6 H 0.9532 0.7974 0.2518
C11 C 0.9306(2) 0.84120(14) 0.20074(4)
H7 H 0.9723 0.7673 0.1919
C12 C 0.8806(2) 0.93118(15) 0.17813(4)
H8 H 0.8864 0.9184 0.1538
C13 C 0.9586(2) 1.01537(13) 0.41756(4)
H9 H 0.9002 1.0399 0.4383
C14 C 1.0359(2) 1.09896(14) 0.39834(4)
H10 H 1.0988 1.0748 0.3780
C15 C 1.0306(2) 1.22885(14) 0.40652(5)
H11 H 0.9689 1.2410 0.4287
H12 H 0.9642 1.2709 0.3882
H13 H 1.1553 1.2596 0.4079
C16 C 0.8121(2) 1.05821(14) 0.22640(4)
H14 H 0.7726 1.1328 0.2351
C17 C 0.8221(2) 1.03974(15) 0.19093(4)
H15 H 0.7889 1.1015 0.1754
C18 C 0.9267(2) 0.72022(13) 0.37010(4)
H16 H 0.9037 0.6900 0.3476
C19 C 0.9628(2) 0.64138(13) 0.39683(4)
H17 H 0.9668 0.5585 0.3924
C20 C 0.8808(2) 0.83519(15) 0.49350(4)
H18 H 0.7686 0.8699 0.4842
H19 H 0.9128 0.8749 0.5152
H20 H 0.8620 0.7504 0.4978
loop_
_geom_bond_atom_site_label_1
_geom_bond_atom_site_label_2
_geom_bond_site_symmetry_1
_geom_bond_site_symmetry_2
O1 C1 1_555 1_555
O2 C8 1_555 1_555
O3 C3 1_555 1_555
C1 H1 1_555 1_555
H2 C1 1_555 1_555
H3 C1 1_555 1_555
C2 O1 1_555 1_555
C3 C2 1_555 1_555
C4 C3 1_555 1_555
C5 C4 1_555 1_555
C6 C5 1_555 1_555
H4 C6 1_555 1_555
C7 C6 1_555 1_555
H5 C7 1_555 1_555
C8 C7 1_555 1_555
C9 C8 1_555 1_555
C10 C9 1_555 1_555
H6 C10 1_555 1_555
C11 C10 1_555 1_555
H7 C11 1_555 1_555
C12 C11 1_555 1_555
H8 C12 1_555 1_555
C13 C4 1_555 1_555
H9 C13 1_555 1_555
C14 C13 1_555 1_555
H10 C14 1_555 1_555
C15 C14 1_555 1_555
H11 C15 1_555 1_555
H12 C15 1_555 1_555
H13 C15 1_555 1_555
C16 C9 1_555 1_555
H14 C16 1_555 1_555
C17 C12 1_555 1_555
H15 C17 1_555 1_555
C18 C5 1_555 1_555
H16 C18 1_555 1_555
C19 C2 1_555 1_555
H17 C19 1_555 1_555
C20 O3 1_555 1_555
H18 C20 1_555 1_555
H19 C20 1_555 1_555
H20 C20 1_555 1_555
C16 C17 1_555 1_555
C18 C19 1_555 1_555

#END
