
#######################################################################
#
#                 Cambridge Crystallographic Data Centre
#                                CCDC 
#
#######################################################################
#
# If this CIF has been generated from an entry in the Cambridge 
# Structural Database, then it will include bibliographic, chemical, 
# crystal, experimental, refinement or atomic coordinate data resulting 
# from the CCDC's data processing and validation procedures.
#
#######################################################################

data_WINYUP
_chemical_formula_moiety         'C30 H39 Cl1 N2 Na1 O9 1+,Cl1 O4 1-'
_chemical_name_systematic        
'(1-Ethyl-2-(2-(16-methyl-2,3,5,6,8,9,11,12,15,16-decahydro-14H-1,4,7,10,13,16-benzopentaoxazacyclooctadecin-19-yl)vinyl)quinolinium)-perchlorate-sodium perchlorate'
_symmetry_cell_setting           triclinic
_symmetry_space_group_name_H-M   'P -1'
_symmetry_Int_Tables_number      2
_space_group_name_Hall           '-P 1'
loop_
_symmetry_equiv_pos_site_id
_symmetry_equiv_pos_as_xyz
1 x,y,z
2 -x,-y,-z
_cell_length_a                   8.3396(6)
_cell_length_b                   9.6570(8)
_cell_length_c                   21.7107(17)
_cell_angle_alpha                94.045(4)
_cell_angle_beta                 99.674(4)
_cell_angle_gamma                100.827(4)
_cell_volume                     1683.5
_exptl_crystal_colour            red
_exptl_crystal_description       prism
_cell_formula_units_Z            2
loop_
_atom_site_label
_atom_site_type_symbol
_atom_site_fract_x
_atom_site_fract_y
_atom_site_fract_z
Na1 Na 0.2474(3) 0.5252(2) 0.13459(11)
Cl1 Cl 0.49413(19) 0.79876(15) 0.11766(7)
O1 O 0.5076(6) 0.7190(5) 0.1721(2)
O2 O 0.3508(6) 0.7229(5) 0.0721(2)
O3 O 0.6426(6) 0.8104(5) 0.0910(2)
O4 O 0.4720(7) 0.9379(5) 0.1367(3)
O5 O 0.2259(5) 0.5877(4) 0.25100(18)
O6 O 0.2699(5) 0.3270(4) 0.20197(19)
O7 O 0.4627(5) 0.3752(4) 0.11148(19)
O8 O 0.1280(5) 0.3251(4) 0.04854(19)
O9 O -0.0517(5) 0.4731(4) 0.11733(19)
N1 N 0.8423(6) 0.8899(4) 0.5419(2)
N2 N 0.0948(6) 0.7723(5) 0.1797(2)
C1 C 0.9599(7) 0.9484(6) 0.5967(3)
C2 C 1.0401(7) 0.8645(6) 0.6362(3)
H1 H 1.0139 0.7643 0.6269
C3 C 1.1566(7) 0.9251(6) 0.6882(3)
H2 H 1.2109 0.8668 0.7145
C4 C 1.1961(7) 1.0743(6) 0.7027(3)
H3 H 1.2788 1.1161 0.7381
C5 C 1.1151(7) 1.1583(6) 0.6658(3)
H4 H 1.1405 1.2580 0.6766
C6 C 0.9939(7) 1.0994(5) 0.6117(3)
C7 C 0.9094(7) 1.1818(5) 0.5719(3)
H5 H 0.9332 1.2819 0.5814
C8 C 0.7948(7) 1.1221(6) 0.5203(3)
H6 H 0.7380 1.1801 0.4947
C9 C 0.7594(7) 0.9715(6) 0.5045(3)
C10 C 0.6319(7) 0.9054(6) 0.4500(3)
H7 H 0.6029 0.8048 0.4439
C11 C 0.5533(7) 0.9777(5) 0.4082(3)
H8 H 0.5808 1.0781 0.4166
C12 C 0.4321(7) 0.9218(6) 0.3519(3)
C13 C 0.3670(7) 1.0167(6) 0.3135(3)
H9 H 0.4007 1.1157 0.3258
C14 C 0.2551(7) 0.9693(6) 0.2582(3)
H10 H 0.2128 1.0366 0.2337
C15 C 0.2020(7) 0.8242(6) 0.2372(3)
C16 C 0.2706(7) 0.7287(6) 0.2761(3)
C17 C 0.3807(7) 0.7733(6) 0.3320(3)
H11 H 0.4220 0.7062 0.3570
C18 C 0.0661(8) 0.8803(7) 0.1370(3)
H12 H 0.1726 0.9405 0.1342
H13 H -0.0050 0.9387 0.1532
H14 H 0.0115 0.8338 0.0952
C19 C 0.2489(8) 0.4828(6) 0.2934(3)
H15 H 0.1840 0.4907 0.3273
H16 H 0.3677 0.4950 0.3127
C20 C 0.1883(8) 0.3400(6) 0.2544(3)
H17 H 0.2072 0.2641 0.2814
H18 H 0.0672 0.3265 0.2388
C21 C 0.4465(8) 0.3431(6) 0.2184(3)
H19 H 0.4758 0.2871 0.2536
H20 H 0.4992 0.4439 0.2314
C22 C 0.5050(8) 0.2905(7) 0.1611(3)
H21 H 0.6268 0.2975 0.1705
H22 H 0.4513 0.1898 0.1481
C23 C 0.4048(8) 0.2940(6) 0.0509(3)
H23 H 0.4746 0.2231 0.0460
H24 H 0.4162 0.3580 0.0176
C24 C 0.2261(7) 0.2191(6) 0.0434(3)
H25 H 0.1899 0.1624 0.0018
H26 H 0.2129 0.1545 0.0764
C25 C -0.0391(7) 0.2624(6) 0.0555(3)
H27 H -0.0361 0.2112 0.0935
H28 H -0.0948 0.1941 0.0185
C26 C -0.1319(8) 0.3812(7) 0.0612(3)
H29 H -0.1306 0.4348 0.0240
H30 H -0.2490 0.3422 0.0637
C27 C -0.1464(7) 0.5814(6) 0.1257(3)
H31 H -0.2616 0.5367 0.1285
H32 H -0.1507 0.6373 0.0892
C28 C -0.0667(7) 0.6779(6) 0.1850(3)
H33 H -0.1448 0.7378 0.1954
H34 H -0.0465 0.6193 0.2201
C29 C 0.8148(7) 0.7327(5) 0.5240(3)
H35 H 0.9178 0.6990 0.5394
H36 H 0.7888 0.7129 0.4777
C30 C 0.6732(8) 0.6531(6) 0.5517(3)
H37 H 0.6579 0.5512 0.5394
H38 H 0.5707 0.6853 0.5360
H39 H 0.6995 0.6714 0.5976
O10 O 0.6580(5) 0.5571(4) 0.3856(2)
O11 O 0.6399(6) 0.3105(4) 0.3686(2)
Cl2 Cl 0.7495(10) 0.4436(9) 0.3919(6)
O12 O 0.8854(19) 0.4706(11) 0.3601(14)
O13 O 0.811(3) 0.4335(15) 0.4575(7)
Cl3? Cl 0.7523(13) 0.4461(10) 0.3799(8)
O14? O 0.874(3) 0.4573(16) 0.4357(12)
O15? O 0.833(3) 0.4605(15) 0.3261(13)
loop_
_geom_bond_atom_site_label_1
_geom_bond_atom_site_label_2
_geom_bond_site_symmetry_1
_geom_bond_site_symmetry_2
Na1 O1 1_555 1_555
Cl1 O1 1_555 1_555
O2 Na1 1_555 1_555
O3 Cl1 1_555 1_555
O4 Cl1 1_555 1_555
O5 Na1 1_555 1_555
O6 Na1 1_555 1_555
O7 Na1 1_555 1_555
O8 Na1 1_555 1_555
O9 Na1 1_555 1_555
N1 C1 1_555 1_555
N2 C15 1_555 1_555
C1 C2 1_555 1_555
C2 H1 1_555 1_555
C3 C2 1_555 1_555
H2 C3 1_555 1_555
C4 C3 1_555 1_555
H3 C4 1_555 1_555
C5 C4 1_555 1_555
H4 C5 1_555 1_555
C6 C1 1_555 1_555
C7 C6 1_555 1_555
H5 C7 1_555 1_555
C8 C7 1_555 1_555
H6 C8 1_555 1_555
C9 N1 1_555 1_555
C10 C9 1_555 1_555
H7 C10 1_555 1_555
C11 C10 1_555 1_555
H8 C11 1_555 1_555
C12 C11 1_555 1_555
C13 C12 1_555 1_555
H9 C13 1_555 1_555
C14 C13 1_555 1_555
H10 C14 1_555 1_555
C15 C14 1_555 1_555
C16 O5 1_555 1_555
C17 C12 1_555 1_555
H11 C17 1_555 1_555
C18 N2 1_555 1_555
H12 C18 1_555 1_555
H13 C18 1_555 1_555
H14 C18 1_555 1_555
C19 O5 1_555 1_555
H15 C19 1_555 1_555
H16 C19 1_555 1_555
C20 O6 1_555 1_555
H17 C20 1_555 1_555
H18 C20 1_555 1_555
C21 O6 1_555 1_555
H19 C21 1_555 1_555
H20 C21 1_555 1_555
C22 O7 1_555 1_555
H21 C22 1_555 1_555
H22 C22 1_555 1_555
C23 O7 1_555 1_555
H23 C23 1_555 1_555
H24 C23 1_555 1_555
C24 O8 1_555 1_555
H25 C24 1_555 1_555
H26 C24 1_555 1_555
C25 O8 1_555 1_555
H27 C25 1_555 1_555
H28 C25 1_555 1_555
C26 O9 1_555 1_555
H29 C26 1_555 1_555
H30 C26 1_555 1_555
C27 O9 1_555 1_555
H31 C27 1_555 1_555
H32 C27 1_555 1_555
C28 N2 1_555 1_555
H33 C28 1_555 1_555
H34 C28 1_555 1_555
C29 N1 1_555 1_555
H35 C29 1_555 1_555
H36 C29 1_555 1_555
C30 C29 1_555 1_555
H37 C30 1_555 1_555
H38 C30 1_555 1_555
H39 C30 1_555 1_555
O10 Cl2 1_555 1_555
O11 Cl2 1_555 1_555
Cl2 O12 1_555 1_555
O13 Cl2 1_555 1_555
Cl1 O2 1_555 1_555
C5 C6 1_555 1_555
C8 C9 1_555 1_555
C15 C16 1_555 1_555
C16 C17 1_555 1_555
C19 C20 1_555 1_555
C21 C22 1_555 1_555
C23 C24 1_555 1_555
C25 C26 1_555 1_555
C27 C28 1_555 1_555

#END
