
#######################################################################
#
#                 Cambridge Crystallographic Data Centre
#                                CCDC 
#
#######################################################################
#
# If this CIF has been generated from an entry in the Cambridge 
# Structural Database, then it will include bibliographic, chemical, 
# crystal, experimental, refinement or atomic coordinate data resulting 
# from the CCDC's data processing and validation procedures.
#
#######################################################################

data_WIPDOR
_chemical_formula_moiety         'C26 H22 F3 N1 O3 S1'
_chemical_name_systematic        
1,1,1-trifluoro-N-[(4-oxo-2,3-diphenylcyclobut-2-en-1-yl)methyl]-N-(2-phenylethyl)methanesulfonamide
_symmetry_cell_setting           triclinic
_symmetry_space_group_name_H-M   'P -1'
_symmetry_Int_Tables_number      2
_space_group_name_Hall           '-P 1'
loop_
_symmetry_equiv_pos_site_id
_symmetry_equiv_pos_as_xyz
1 x,y,z
2 -x,-y,-z
_cell_length_a                   10.6882(3)
_cell_length_b                   11.5547(3)
_cell_length_c                   11.9271(3)
_cell_angle_alpha                61.8240(10)
_cell_angle_beta                 73.9560(10)
_cell_angle_gamma                67.0900(10)
_cell_volume                     1188.22
_exptl_crystal_colour            colorless
_exptl_crystal_description       block
_cell_formula_units_Z            2
loop_
_atom_site_label
_atom_site_type_symbol
_atom_site_fract_x
_atom_site_fract_y
_atom_site_fract_z
S1 S 0.84141(5) 0.06360(5) 0.79486(5)
F1 F 0.8485(2) 0.01313(19) 0.60152(17)
O1 O 0.42913(16) 0.49988(17) 0.78532(17)
N1 N 0.72599(18) 0.20776(18) 0.74748(17)
C1 C 0.58175(19) 0.5834(2) 0.83375(18)
F2 F 0.9579(2) 0.15140(19) 0.55861(17)
O2 O 0.78270(18) -0.04595(17) 0.86324(17)
C2 C 0.71153(19) 0.49238(19) 0.84180(17)
F3 F 1.0422(2) -0.06453(19) 0.67082(19)
O3 O 0.94382(18) 0.07400(19) 0.84164(18)
C3 C 0.67429(19) 0.3798(2) 0.83566(19)
H1 H 0.673363 0.299730 0.920645
C4 C 0.5321(2) 0.4915(2) 0.81496(19)
C5 C 0.50893(19) 0.71517(19) 0.84390(18)
C6 C 0.3781(2) 0.7889(2) 0.8039(2)
H2 H 0.339011 0.754196 0.768386
C7 C 0.3058(2) 0.9118(3) 0.8159(2)
H3 H 0.217503 0.961249 0.787894
C8 C 0.3598(3) 0.9635(2) 0.8679(2)
H4 H 0.309591 1.048329 0.875194
C9 C 0.4880(2) 0.8909(2) 0.9094(2)
H5 H 0.525271 0.925642 0.946345
C10 C 0.5626(2) 0.7675(2) 0.8977(2)
H6 H 0.650646 0.718508 0.926324
C11 C 0.84654(19) 0.4890(2) 0.84885(17)
C12 C 0.8845(2) 0.6089(2) 0.79573(19)
H7 H 0.820381 0.696063 0.755544
C13 C 1.0155(2) 0.6011(2) 0.8015(2)
H8 H 1.041141 0.682844 0.763864
C14 C 1.1089(2) 0.4754(3) 0.8614(2)
H9 H 1.197830 0.470997 0.866736
C15 C 1.0731(2) 0.3561(3) 0.9136(2)
H10 H 1.137632 0.269598 0.954844
C16 C 0.9436(2) 0.3615(2) 0.90610(19)
H11 H 0.920587 0.278718 0.939853
C17 C 0.7508(2) 0.3343(2) 0.7275(2)
H12 H 0.720143 0.409173 0.644807
H13 H 0.849979 0.316332 0.723465
C18 C 0.5915(2) 0.2180(2) 0.72625(19)
H14 H 0.518662 0.264224 0.777124
H15 H 0.585825 0.124011 0.757231
C19 C 0.5663(2) 0.2979(3) 0.5858(2)
H16 H 0.566458 0.393718 0.555659
H17 H 0.641125 0.254661 0.533884
C20 C 0.4316(2) 0.2996(2) 0.56764(19)
C21 C 0.4251(3) 0.2218(3) 0.5109(2)
H18 H 0.507001 0.165811 0.482329
C22 C 0.2997(4) 0.2254(4) 0.4958(3)
H19 H 0.296128 0.171688 0.456814
C23 C 0.1788(4) 0.3067(4) 0.5369(3)
H20 H 0.092989 0.309132 0.525854
C24 C 0.1846(3) 0.3831(3) 0.5934(2)
H21 H 0.102410 0.438941 0.621701
C25 C 0.3091(2) 0.3795(3) 0.6095(2)
H22 H 0.311517 0.432374 0.649910
C26 C 0.9276(3) 0.0407(3) 0.6466(3)
loop_
_geom_bond_atom_site_label_1
_geom_bond_atom_site_label_2
_geom_bond_site_symmetry_1
_geom_bond_site_symmetry_2
S1 N1 1_555 1_555
F1 C26 1_555 1_555
O1 C4 1_555 1_555
N1 C17 1_555 1_555
C1 C2 1_555 1_555
F2 C26 1_555 1_555
O2 S1 1_555 1_555
C2 C3 1_555 1_555
F3 C26 1_555 1_555
O3 S1 1_555 1_555
C3 H1 1_555 1_555
C4 C1 1_555 1_555
C5 C1 1_555 1_555
C6 C5 1_555 1_555
H2 C6 1_555 1_555
C7 C6 1_555 1_555
H3 C7 1_555 1_555
C8 C7 1_555 1_555
H4 C8 1_555 1_555
C9 C8 1_555 1_555
H5 C9 1_555 1_555
C10 C5 1_555 1_555
H6 C10 1_555 1_555
C11 C2 1_555 1_555
C12 C11 1_555 1_555
H7 C12 1_555 1_555
C13 C12 1_555 1_555
H8 C13 1_555 1_555
C14 C13 1_555 1_555
H9 C14 1_555 1_555
C15 C14 1_555 1_555
H10 C15 1_555 1_555
C16 C11 1_555 1_555
H11 C16 1_555 1_555
C17 C3 1_555 1_555
H12 C17 1_555 1_555
H13 C17 1_555 1_555
C18 N1 1_555 1_555
H14 C18 1_555 1_555
H15 C18 1_555 1_555
C19 C18 1_555 1_555
H16 C19 1_555 1_555
H17 C19 1_555 1_555
C20 C19 1_555 1_555
C21 C20 1_555 1_555
H18 C21 1_555 1_555
C22 C21 1_555 1_555
H19 C22 1_555 1_555
C23 C22 1_555 1_555
H20 C23 1_555 1_555
C24 C23 1_555 1_555
H21 C24 1_555 1_555
C25 C20 1_555 1_555
H22 C25 1_555 1_555
C26 S1 1_555 1_555
C3 C4 1_555 1_555
C9 C10 1_555 1_555
C15 C16 1_555 1_555
C24 C25 1_555 1_555

#END
