
#######################################################################
#
#                 Cambridge Crystallographic Data Centre
#                                CCDC 
#
#######################################################################
#
# If this CIF has been generated from an entry in the Cambridge 
# Structural Database, then it will include bibliographic, chemical, 
# crystal, experimental, refinement or atomic coordinate data resulting 
# from the CCDC's data processing and validation procedures.
#
#######################################################################

data_WIPNIV
_chemical_formula_moiety         'C19 H16 Br1 O3 P1'
_chemical_name_systematic        
3-bromo-2-(diphenylphosphoryl)-4-methoxyphenol
_symmetry_cell_setting           monoclinic
_symmetry_space_group_name_H-M   'P 21/c'
_symmetry_Int_Tables_number      14
_space_group_name_Hall           '-P 2ybc'
loop_
_symmetry_equiv_pos_site_id
_symmetry_equiv_pos_as_xyz
1 x,y,z
2 -x,1/2+y,1/2-z
3 -x,-y,-z
4 x,1/2-y,1/2+z
_cell_length_a                   14.870(3)
_cell_length_b                   8.1150(18)
_cell_length_c                   15.295(4)
_cell_angle_alpha                90
_cell_angle_beta                 106.026(3)
_cell_angle_gamma                90
_cell_volume                     1773.92
_exptl_crystal_colour            white
_exptl_crystal_description       Block
_cell_formula_units_Z            4
loop_
_atom_site_label
_atom_site_type_symbol
_atom_site_fract_x
_atom_site_fract_y
_atom_site_fract_z
Br1 Br 0.15737(2) 0.37962(3) 0.22065(2)
C1 C 0.34038(18) 0.6437(3) 0.16483(17)
H1 H 0.2783 0.6695 0.1360
C2 C 0.4020(2) 0.6128(3) 0.11339(19)
H2 H 0.3815 0.6215 0.0504
C3 C 0.4918(2) 0.5702(4) 0.1543(2)
H3 H 0.5320 0.5455 0.1192
C4 C 0.5239(2) 0.5631(4) 0.2480(2)
H4 H 0.5857 0.5349 0.2760
C5 C 0.46358(19) 0.5983(4) 0.2997(2)
H5 H 0.4854 0.5965 0.3628
C6 C 0.37017(17) 0.6364(3) 0.25798(17)
C7 C 0.29334(17) 0.5347(3) 0.40837(15)
C8 C 0.2428(2) 0.5649(4) 0.46979(19)
H6 H 0.2085 0.6617 0.4660
C9 C 0.2433(2) 0.4498(4) 0.5379(2)
H7 H 0.2083 0.4693 0.5788
C10 C 0.2945(2) 0.3098(4) 0.5445(2)
H8 H 0.2959 0.2353 0.5911
C11 C 0.3438(2) 0.2770(4) 0.4836(2)
H9 H 0.3772 0.1792 0.4875
C12 C 0.3440(2) 0.3899(3) 0.4162(2)
H10 H 0.3787 0.3683 0.3754
C13 C 0.17983(16) 0.7296(3) 0.25171(16)
C14 C 0.14835(18) 0.8930(3) 0.23476(18)
C15 C 0.0601(2) 0.9242(4) 0.1755(2)
H11 H 0.0399 1.0325 0.1642
C16 C 0.00328(19) 0.7991(4) 0.1339(2)
H12 H -0.0556 0.8234 0.0957
C17 C 0.03163(18) 0.6355(3) 0.14748(18)
C18 C 0.11964(18) 0.6028(3) 0.20613(17)
C19 C -0.1089(2) 0.5357(5) 0.0440(2)
H13 H -0.1383 0.4333 0.0208
H14 H -0.1479 0.5945 0.0739
H15 H -0.1000 0.6009 -0.0053
O1 O 0.32790(13) 0.8524(2) 0.37835(12)
O2 O 0.20066(15) 1.0253(2) 0.27059(14)
H16 H 0.2478 0.9948 0.3091
O3 O -0.01975(12) 0.5032(3) 0.10778(14)
P1 P 0.29532(4) 0.69571(8) 0.32733(4)
loop_
_geom_bond_atom_site_label_1
_geom_bond_atom_site_label_2
_geom_bond_site_symmetry_1
_geom_bond_site_symmetry_2
Br1 C18 1_555 1_555
C1 H1 1_555 1_555
C2 C1 1_555 1_555
H2 C2 1_555 1_555
C3 C2 1_555 1_555
H3 C3 1_555 1_555
C4 C3 1_555 1_555
H4 C4 1_555 1_555
C5 C4 1_555 1_555
H5 C5 1_555 1_555
C6 C1 1_555 1_555
C7 C8 1_555 1_555
C8 H6 1_555 1_555
C9 C8 1_555 1_555
H7 C9 1_555 1_555
C10 C9 1_555 1_555
H8 C10 1_555 1_555
C11 C10 1_555 1_555
H9 C11 1_555 1_555
C12 C7 1_555 1_555
H10 C12 1_555 1_555
C13 C14 1_555 1_555
C14 C15 1_555 1_555
C15 H11 1_555 1_555
C16 C15 1_555 1_555
H12 C16 1_555 1_555
C17 C16 1_555 1_555
C18 C13 1_555 1_555
C19 H13 1_555 1_555
H14 C19 1_555 1_555
H15 C19 1_555 1_555
O1 P1 1_555 1_555
O2 C14 1_555 1_555
H16 O2 1_555 1_555
O3 C17 1_555 1_555
P1 C6 1_555 1_555
C5 C6 1_555 1_555
C7 P1 1_555 1_555
C11 C12 1_555 1_555
C13 P1 1_555 1_555
C17 C18 1_555 1_555
C19 O3 1_555 1_555

#END
