
#######################################################################
#
#                 Cambridge Crystallographic Data Centre
#                                CCDC 
#
#######################################################################
#
# If this CIF has been generated from an entry in the Cambridge 
# Structural Database, then it will include bibliographic, chemical, 
# crystal, experimental, refinement or atomic coordinate data resulting 
# from the CCDC's data processing and validation procedures.
#
#######################################################################

data_WIPQUJ
_chemical_formula_moiety         'C18 H20 N2 O6'
_chemical_name_systematic        
"Diethyl 6,6'-(1,2-dihydroxyethane-1,2-diyl)dinicotinate"
_symmetry_cell_setting           monoclinic
_symmetry_space_group_name_H-M   'P 21/c'
_symmetry_Int_Tables_number      14
_space_group_name_Hall           '-P 2ybc'
loop_
_symmetry_equiv_pos_site_id
_symmetry_equiv_pos_as_xyz
1 x,y,z
2 -x,1/2+y,1/2-z
3 -x,-y,-z
4 x,1/2-y,1/2+z
_cell_length_a                   17.1687(8)
_cell_length_b                   5.4389(2)
_cell_length_c                   9.3261(4)
_cell_angle_alpha                90
_cell_angle_beta                 95.270(5)
_cell_angle_gamma                90
_cell_volume                     867.179
_exptl_crystal_colour            colorless
_exptl_crystal_description       prism
_cell_formula_units_Z            2
loop_
_atom_site_label
_atom_site_type_symbol
_atom_site_fract_x
_atom_site_fract_y
_atom_site_fract_z
O1 O 0.45704(8) 0.4885(3) 0.31677(17)
H1 H 0.4447(19) 0.353(3) 0.278(3)
O2 O 0.87101(7) 0.2167(2) 0.34655(15)
O3 O 0.83963(7) 0.5524(2) 0.21222(13)
N1 N 0.61697(8) 0.5818(3) 0.32779(17)
C1 C 0.50417(12) 0.4160(4) 0.4332(2)
H2 H 0.4860 0.2543 0.4688
C2 C 0.59032(10) 0.4006(3) 0.40764(19)
C3 C 0.63822(11) 0.2105(3) 0.4621(2)
H3 H 0.6182 0.0875 0.5211
C4 C 0.71495(11) 0.2013(3) 0.4301(2)
H4 H 0.7484 0.0720 0.4662
C5 C 0.74250(10) 0.3846(3) 0.34387(19)
C6 C 0.69143(10) 0.5730(3) 0.2971(2)
H5 H 0.7104 0.7015 0.2407
C7 C 0.82409(10) 0.3722(3) 0.30297(19)
C8 C 0.91901(10) 0.5586(4) 0.1685(2)
H6 H 0.9318 0.4009 0.1231
H7 H 0.9572 0.5870 0.2530
C9 C 0.92164(10) 0.7655(4) 0.0629(2)
H8 H 0.9742 0.7761 0.0301
H9 H 0.9091 0.9203 0.1094
H10 H 0.8834 0.7353 -0.0199
O1B O 0.54296(8) 0.5115(3) 0.68323(17)
H1B H 0.5553(19) 0.647(3) 0.722(3)
O2B O 0.12899(7) 0.7833(2) 0.65345(15)
O3B O 0.16037(7) 0.4476(2) 0.78778(13)
N1B N 0.38303(8) 0.4182(3) 0.67221(17)
C1B C 0.49583(12) 0.5840(4) 0.5668(2)
H2B H 0.5140 0.7457 0.5312
C2B C 0.40968(10) 0.5994(3) 0.59236(19)
C3B C 0.36178(11) 0.7895(3) 0.5379(2)
H3B H 0.3818 0.9125 0.4789
C4B C 0.28505(11) 0.7987(3) 0.5699(2)
H4B H 0.2516 0.9280 0.5338
C5B C 0.25750(10) 0.6154(3) 0.65613(19)
C6B C 0.30857(10) 0.4270(3) 0.7029(2)
H5B H 0.2896 0.2985 0.7593
C7B C 0.17591(10) 0.6278(3) 0.69703(19)
C8B C 0.08099(10) 0.4414(4) 0.8315(2)
H6B H 0.0682 0.5991 0.8769
H7B H 0.0428 0.4130 0.7470
C9B C 0.07836(10) 0.2345(4) 0.9371(2)
H8B H 0.0258 0.2239 0.9699
H9B H 0.0909 0.0797 0.8906
H10B H 0.1166 0.2647 1.0199
O4? O 0.5321(4) 0.7831(14) 0.5745(9)
C10? C 0.4876(5) 0.6138(15) 0.5354(7)
loop_
_geom_bond_atom_site_label_1
_geom_bond_atom_site_label_2
_geom_bond_site_symmetry_1
_geom_bond_site_symmetry_2
O1 H1 1_555 1_555
O2 C7 1_555 1_555
O3 C7 1_555 1_555
N1 C2 1_555 1_555
C1 O1 1_555 1_555
H2 C1 1_555 1_555
C2 C1 1_555 1_555
C3 C2 1_555 1_555
H3 C3 1_555 1_555
C4 C3 1_555 1_555
H4 C4 1_555 1_555
C5 C4 1_555 1_555
C6 N1 1_555 1_555
H5 C6 1_555 1_555
C7 C5 1_555 1_555
C8 O3 1_555 1_555
H6 C8 1_555 1_555
H7 C8 1_555 1_555
C9 C8 1_555 1_555
H8 C9 1_555 1_555
H9 C9 1_555 1_555
H10 C9 1_555 1_555
O1B H1B 1_555 1_555
O2B C7B 1_555 1_555
O3B C7B 1_555 1_555
N1B C2B 1_555 1_555
C1B C1 1_555 1_555
H2B C1B 1_555 1_555
C2B C1B 1_555 1_555
C3B C2B 1_555 1_555
H3B C3B 1_555 1_555
C4B C3B 1_555 1_555
H4B C4B 1_555 1_555
C5B C4B 1_555 1_555
C6B N1B 1_555 1_555
H5B C6B 1_555 1_555
C7B C5B 1_555 1_555
C8B O3B 1_555 1_555
H6B C8B 1_555 1_555
H7B C8B 1_555 1_555
C9B C8B 1_555 1_555
H8B C9B 1_555 1_555
H9B C9B 1_555 1_555
H10B C9B 1_555 1_555
C5 C6 1_555 1_555
O1B C1B 1_555 1_555
C5B C6B 1_555 1_555

#END
