
#######################################################################
#
#                 Cambridge Crystallographic Data Centre
#                                CCDC 
#
#######################################################################
#
# If this CIF has been generated from an entry in the Cambridge 
# Structural Database, then it will include bibliographic, chemical, 
# crystal, experimental, refinement or atomic coordinate data resulting 
# from the CCDC's data processing and validation procedures.
#
#######################################################################

data_WIQFOT
_chemical_formula_moiety         'C38 H38 O13,H2 O1'
_chemical_name_systematic        
'2,4-Dimethyl-5-(7-((2-methyl-6-(2,3,8-trihydroxy-3-methyl-1,7,12-trioxo-1,2,3,4,7,12-hexahydrotetraphen-9-yl)tetrahydro-2H-pyran-3-yl)oxy)-7-oxohepta-1,3,5-trien-1-yl)-1,3-dioxolane-2-carboxylic acid monohydrate'
_symmetry_cell_setting           monoclinic
_symmetry_space_group_name_H-M   'P 21'
_symmetry_Int_Tables_number      4
_space_group_name_Hall           'P 2yb'
loop_
_symmetry_equiv_pos_site_id
_symmetry_equiv_pos_as_xyz
1 x,y,z
2 -x,1/2+y,-z
_cell_length_a                   8.86858(16)
_cell_length_b                   7.77531(14)
_cell_length_c                   26.4265(5)
_cell_angle_alpha                90
_cell_angle_beta                 94.353(7)
_cell_angle_gamma                90
_cell_volume                     1817.01
_exptl_crystal_colour            yellow
_exptl_crystal_description       platelet
_cell_formula_units_Z            2
loop_
_atom_site_label
_atom_site_type_symbol
_atom_site_fract_x
_atom_site_fract_y
_atom_site_fract_z
O1 O 0.58309(14) 0.0775(2) 0.25099(5)
O2 O 1.80307(14) 0.0681(3) 0.75195(4)
O3 O 1.59184(14) 0.20866(18) 0.63471(5)
O4 O 0.72620(15) 0.37042(18) 0.29057(5)
O5 O 1.20585(15) -0.33598(18) 0.49176(5)
O6 O 1.37160(15) -0.22534(19) 0.56724(5)
O7 O 1.03433(14) 0.30139(17) 0.44539(5)
O8 O 2.05247(14) 0.0957(2) 0.74257(5)
O9 O 2.40259(16) -0.3840(2) 1.14338(5)
O10 O 2.48331(17) 0.0573(2) 1.13621(5)
O11 O 2.5435(2) -0.2214(3) 1.19600(6)
O12 O 2.33675(15) -0.1070(2) 1.08216(5)
O13 O 0.98127(14) 0.31012(18) 0.34503(5)
C1 C 1.0648(2) -0.1548(3) 0.43463(6)
C2 C 1.2237(2) 0.1266(3) 0.48578(7)
C3 C 0.8890(2) 0.1962(3) 0.34788(6)
C4 C 1.2534(2) -0.0408(3) 0.50347(7)
C5 C 0.91916(19) 0.0306(3) 0.37561(7)
C6 C 1.3538(2) -0.0672(3) 0.54692(7)
C7 C 1.0281(2) 0.0107(3) 0.41751(7)
C8 C 0.8468(2) -0.1160(3) 0.35412(7)
C9 C 1.43046(19) 0.0724(3) 0.57053(7)
C10 C 0.7222(2) -0.1039(3) 0.31220(7)
C11 C 1.1774(2) -0.1865(3) 0.47827(7)
C12 C 1.0930(2) 0.1600(3) 0.44788(7)
C13 C 1.6538(2) 0.2165(3) 0.68656(6)
C14 C 1.51988(19) 0.0481(3) 0.62176(6)
C15 C 1.4078(2) 0.2339(3) 0.54919(7)
C16 C 0.7384(2) 0.2114(3) 0.31601(7)
C17 C 0.99491(19) -0.2990(3) 0.41205(7)
C18 C 1.7660(2) 0.0692(3) 0.69713(6)
C19 C 1.6989(3) -0.1029(3) 0.68191(7)
C20 C 1.9495(2) 0.0751(3) 0.76921(7)
C21 C 0.8864(2) -0.2781(3) 0.37257(7)
C22 C 0.7248(2) 0.0579(3) 0.27952(7)
C23 C 1.3034(2) 0.2638(3) 0.50786(7)
C24 C 1.6379(2) -0.0944(3) 0.62624(7)
C25 C 1.7269(2) 0.3904(3) 0.69280(7)
C26 C 2.1034(3) 0.0494(3) 0.84927(7)
C27 C 2.2695(3) 0.0074(3) 0.92665(7)
C28 C 2.3009(3) -0.0260(3) 0.98012(7)
C29 C 2.5532(3) 0.0635(4) 1.08880(7)
C30 C 1.9658(2) 0.0533(3) 0.82463(7)
C31 C 2.1309(3) 0.0223(3) 0.90337(8)
C32 C 0.8529(2) 0.0537(3) 0.24410(7)
C33 C 2.4512(3) -0.2365(3) 1.16093(7)
C34 C 2.4386(3) -0.0442(3) 1.00271(7)
C35 C 2.3755(3) -0.0766(3) 1.13353(7)
C36 C 2.4728(3) -0.0823(3) 1.05797(7)
C37 C 2.7221(3) 0.0443(4) 1.09681(9)
C38 C 2.2380(3) -0.0212(4) 1.15981(8)
H1 H 0.5689 -0.0061 0.2311
H2 H 0.8131 0.4091 0.2868
H3 H 1.3221 -0.2968 0.5488
H4 H 2.3693 -0.3728 1.1129
H5 H 0.6238 -0.1092 0.3275
H6 H 0.7285 -0.2055 0.2899
H7 H 1.5703 0.2068 0.7098
H8 H 1.4455 0.0248 0.6475
H9 H 1.4653 0.3278 0.5632
H10 H 0.6549 0.2035 0.3393
H11 H 1.0221 -0.4110 0.4239
H12 H 1.8594 0.0901 0.6791
H13 H 1.6160 -0.1315 0.7035
H14 H 1.7772 -0.1936 0.6865
H15 H 0.8377 -0.3766 0.3576
H16 H 1.2873 0.3770 0.4951
H17 H 1.7209 -0.0689 0.6044
H18 H 1.5917 -0.2057 0.6155
H19 H 1.8053 0.4021 0.6688
H20 H 1.7727 0.4024 0.7276
H21 H 1.6503 0.4801 0.6861
H22 H 2.1884 0.0655 0.8300
H23 H 2.3533 0.0197 0.9066
H24 H 2.2174 -0.0355 1.0005
H25 H 2.5288 0.1759 1.0717
H26 H 1.8784 0.0419 0.8430
H27 H 2.0464 0.0148 0.9233
H28 H 0.8367 -0.0419 0.2201
H29 H 0.9496 0.0380 0.2641
H30 H 0.8547 0.1622 0.2253
H31 H 2.5218 -0.0323 0.9823
H32 H 2.5355 -0.1891 1.0616
H33 H 2.7464 -0.0594 1.1169
H34 H 2.7648 0.1452 1.1149
H35 H 2.7651 0.0347 1.0639
H36 H 2.1913 0.0784 1.1421
H37 H 2.2685 0.0100 1.1950
H38 H 2.1652 -0.1161 1.1593
O14 O 1.44246(17) -0.1169(3) 0.80765(5)
loop_
_geom_bond_atom_site_label_1
_geom_bond_atom_site_label_2
_geom_bond_site_symmetry_1
_geom_bond_site_symmetry_2
O1 C22 1_555 1_555
O2 C18 1_555 1_555
O3 C13 1_555 1_555
O4 C16 1_555 1_555
O5 C11 1_555 1_555
O6 C6 1_555 1_555
O7 C12 1_555 1_555
O8 C20 1_555 1_555
O9 C33 1_555 1_555
O10 C29 1_555 1_555
O11 C33 1_555 1_555
O12 C35 1_555 1_555
O13 C3 1_555 1_555
C1 C7 1_555 1_555
C2 C4 1_555 1_555
C3 C5 1_555 1_555
C4 C6 1_555 1_555
C5 C7 1_555 1_555
C6 C9 1_555 1_555
C7 C12 1_555 1_555
C8 C5 1_555 1_555
C9 C14 1_555 1_555
C10 C8 1_555 1_555
C11 C1 1_555 1_555
C12 C2 1_555 1_555
C13 C18 1_555 1_555
C14 O3 1_555 1_555
C15 C9 1_555 1_555
C16 C3 1_555 1_555
C17 C1 1_555 1_555
C18 C19 1_555 1_555
C19 C24 1_555 1_555
C20 O2 1_555 1_555
C21 C8 1_555 1_555
C22 C10 1_555 1_555
C23 C2 1_555 1_555
C24 C14 1_555 1_555
C25 C13 1_555 1_555
C26 C30 1_555 1_555
C27 C28 1_555 1_555
C28 C34 1_555 1_555
C29 C36 1_555 1_555
C30 C20 1_555 1_555
C31 C26 1_555 1_555
C32 C22 1_555 1_555
C33 C35 1_555 1_555
C34 C36 1_555 1_555
C35 O10 1_555 1_555
C36 O12 1_555 1_555
C37 C29 1_555 1_555
C38 C35 1_555 1_555
H1 O1 1_555 1_555
H2 O4 1_555 1_555
H3 O6 1_555 1_555
H4 O9 1_555 1_555
H5 C10 1_555 1_555
H6 C10 1_555 1_555
H7 C13 1_555 1_555
H8 C14 1_555 1_555
H9 C15 1_555 1_555
H10 C16 1_555 1_555
H11 C17 1_555 1_555
H12 C18 1_555 1_555
H13 C19 1_555 1_555
H14 C19 1_555 1_555
H15 C21 1_555 1_555
H16 C23 1_555 1_555
H17 C24 1_555 1_555
H18 C24 1_555 1_555
H19 C25 1_555 1_555
H20 C25 1_555 1_555
H21 C25 1_555 1_555
H22 C26 1_555 1_555
H23 C27 1_555 1_555
H24 C28 1_555 1_555
H25 C29 1_555 1_555
H26 C30 1_555 1_555
H27 C31 1_555 1_555
H28 C32 1_555 1_555
H29 C32 1_555 1_555
H30 C32 1_555 1_555
H31 C34 1_555 1_555
H32 C36 1_555 1_555
H33 C37 1_555 1_555
H34 C37 1_555 1_555
H35 C37 1_555 1_555
H36 C38 1_555 1_555
H37 C38 1_555 1_555
H38 C38 1_555 1_555
C4 C11 1_555 1_555
C15 C23 1_555 1_555
C16 C22 1_555 1_555
C17 C21 1_555 1_555
C27 C31 1_555 1_555

#END
