
#######################################################################
#
#                 Cambridge Crystallographic Data Centre
#                                CCDC 
#
#######################################################################
#
# If this CIF has been generated from an entry in the Cambridge 
# Structural Database, then it will include bibliographic, chemical, 
# crystal, experimental, refinement or atomic coordinate data resulting 
# from the CCDC's data processing and validation procedures.
#
#######################################################################

data_WIQXUS
_chemical_compound_source        'Penicillium aurantiogriseum'
_chemical_formula_moiety         'C19 H16 N4 O2'
_chemical_name_systematic        
3-((7S,7aS)-5,13-Dioxo-5,6,7,7a,8,13-hexahydrobenzo[6,7][1,4]diazepino[2,1-b]quinazolin-7-yl)propanenitrile
_symmetry_cell_setting           monoclinic
_symmetry_space_group_name_H-M   'P 21'
_symmetry_Int_Tables_number      4
_space_group_name_Hall           'P 2yb'
loop_
_symmetry_equiv_pos_site_id
_symmetry_equiv_pos_as_xyz
1 x,y,z
2 -x,1/2+y,-z
_cell_length_a                   5.7735(3)
_cell_length_b                   13.1860(7)
_cell_length_c                   10.8190(5)
_cell_angle_alpha                90
_cell_angle_beta                 104.311(3)
_cell_angle_gamma                90
_cell_volume                     798.085
_exptl_crystal_colour            colorless
_exptl_crystal_description       needle
_cell_formula_units_Z            2
loop_
_atom_site_label
_atom_site_type_symbol
_atom_site_fract_x
_atom_site_fract_y
_atom_site_fract_z
O1 O 0.6852(7) 0.6168(3) 0.0825(4)
O2 O 0.8180(7) 0.6845(3) 0.5897(4)
N1 N 0.6843(10) 0.4743(4) 0.2002(5)
H1 H 0.776(11) 0.444(5) 0.165(6)
N2 N 0.7019(9) 0.5522(4) 0.4498(5)
N3 N 0.9768(10) 0.4180(4) 0.4542(5)
H2 H 0.985(12) 0.358(6) 0.434(7)
N4 N 0.0078(10) 0.3345(4) 0.0897(5)
C1 C 0.6239(10) 0.5720(5) 0.1703(6)
C2 C 0.4687(10) 0.6221(5) 0.2445(6)
C3 C 0.2801(11) 0.6814(5) 0.1779(6)
H3 H 0.2598 0.6919 0.089
C4 C 0.1223(11) 0.7250(5) 0.2386(6)
H4 H -0.004 0.7668 0.1928
C5 C 0.1505(11) 0.7071(4) 0.3686(6)
H5 H 0.0394 0.7354 0.4107
C6 C 0.3380(11) 0.6487(5) 0.4374(6)
H6 H 0.3546 0.6367 0.5257
C7 C 0.5002(10) 0.6081(5) 0.3766(5)
C8 C 0.7232(10) 0.4424(4) 0.4282(6)
H7 H 0.6499 0.4039 0.4886
C9 C 0.5929(11) 0.4159(5) 0.2919(5)
H8 H 0.422 0.436 0.2809
C10 C 0.5949(11) 0.3025(5) 0.2651(5)
H9 H 0.5281 0.2659 0.3283
H10 H 0.7624 0.28 0.2762
C11 C 0.4499(11) 0.2741(5) 0.1293(6)
H11 H 0.5242 0.306 0.0658
H12 H 0.4546 0.1996 0.1183
C12 C 0.1987(12) 0.3075(5) 0.1061(6)
C13 C 0.8419(10) 0.5948(4) 0.5605(5)
C14 C 1.0286(11) 0.5282(5) 0.6347(6)
C15 C 1.1517(11) 0.5571(5) 0.7580(6)
H13 H 1.0996 0.6145 0.797
C16 C 1.3498(12) 0.5022(5) 0.8238(6)
H14 H 1.4296 0.5203 0.9087
C17 C 1.4295(12) 0.4208(5) 0.7642(7)
H15 H 1.569 0.3852 0.8076
C18 C 1.3090(11) 0.3901(5) 0.6418(6)
H16 H 1.3639 0.3337 0.6025
C19 C 1.1049(11) 0.4442(5) 0.5777(5)
loop_
_geom_bond_atom_site_label_1
_geom_bond_atom_site_label_2
_geom_bond_site_symmetry_1
_geom_bond_site_symmetry_2
O1 C1 1_555 1_555
O2 C13 1_555 1_555
N1 H1 1_555 1_555
N2 C7 1_555 1_555
N3 H2 1_555 1_555
N4 C12 1_555 1_555
C1 N1 1_555 1_555
C2 C1 1_555 1_555
C3 C2 1_555 1_555
H3 C3 1_555 1_555
C4 C3 1_555 1_555
H4 C4 1_555 1_555
C5 C4 1_555 1_555
H5 C5 1_555 1_555
C6 C5 1_555 1_555
H6 C6 1_555 1_555
C7 C2 1_555 1_555
C8 N2 1_555 1_555
H7 C8 1_555 1_555
C9 N1 1_555 1_555
H8 C9 1_555 1_555
C10 C9 1_555 1_555
H9 C10 1_555 1_555
H10 C10 1_555 1_555
C11 C10 1_555 1_555
H11 C11 1_555 1_555
H12 C11 1_555 1_555
C12 C11 1_555 1_555
C13 N2 1_555 1_555
C14 C13 1_555 1_555
C15 C14 1_555 1_555
H13 C15 1_555 1_555
C16 C15 1_555 1_555
H14 C16 1_555 1_555
C17 C16 1_555 1_555
H15 C17 1_555 1_555
C18 C17 1_555 1_555
H16 C18 1_555 1_555
C19 N3 1_555 1_555
N3 C8 1_555 1_555
C6 C7 1_555 1_555
C8 C9 1_555 1_555
C14 C19 1_555 1_555
C18 C19 1_555 1_555

#END
