
#######################################################################
#
#                 Cambridge Crystallographic Data Centre
#                                CCDC 
#
#######################################################################
#
# If this CIF has been generated from an entry in the Cambridge 
# Structural Database, then it will include bibliographic, chemical, 
# crystal, experimental, refinement or atomic coordinate data resulting 
# from the CCDC's data processing and validation procedures.
#
#######################################################################

data_WIRGEL
_chemical_formula_moiety         'C34 H29 N1 O4'
_chemical_name_systematic        
'Dimethyl 1-(4-methylphenyl)-4,6,6-triphenyl-1,6-dihydropyridine-2,3-dicarboxylate'
_symmetry_cell_setting           monoclinic
_symmetry_space_group_name_H-M   'C 2/c'
_symmetry_Int_Tables_number      15
_space_group_name_Hall           '-C 2yn'
loop_
_symmetry_equiv_pos_site_id
_symmetry_equiv_pos_as_xyz
1 x,y,z
2 -x,y,1/2-z
3 1/2+x,1/2+y,z
4 1/2-x,1/2+y,1/2-z
5 -x,-y,-z
6 x,-y,1/2+z
7 1/2-x,1/2-y,-z
8 1/2+x,1/2-y,1/2+z
_cell_length_a                   25.1699(12)
_cell_length_b                   12.3501(5)
_cell_length_c                   18.3377(9)
_cell_angle_alpha                90
_cell_angle_beta                 94.440(5)
_cell_angle_gamma                90
_cell_volume                     5683.18
_exptl_crystal_colour            yellow
_exptl_crystal_description       block
_cell_formula_units_Z            8
loop_
_atom_site_label
_atom_site_type_symbol
_atom_site_fract_x
_atom_site_fract_y
_atom_site_fract_z
O1 O 0.17103(6) 0.08649(11) 0.11307(9)
O2 O 0.08599(6) 0.12879(11) 0.08888(11)
O3 O 0.25624(6) 0.23115(11) 0.19608(8)
O4 O 0.26398(5) 0.19478(10) 0.07810(7)
N1 N 0.20196(6) 0.42083(11) 0.11799(8)
C1 C 0.16270(9) 0.40167(16) 0.25742(11)
H1 H 0.1942 0.3689 0.2459
C2 C 0.14375(11) 0.38361(19) 0.32537(13)
H2 H 0.1624 0.3382 0.3587
C3 C 0.09799(13) 0.4321(3) 0.34351(16)
H3 H 0.0856 0.4204 0.3893
C4 C 0.07027(11) 0.4980(3) 0.29416(17)
H4 H 0.0392 0.5317 0.3067
C5 C 0.08832(9) 0.5148(2) 0.22548(14)
H5 H 0.0687 0.5581 0.1917
C6 C 0.13546(8) 0.46753(15) 0.20668(11)
C7 C 0.15318(7) 0.48709(14) 0.12942(10)
C8 C 0.16526(7) 0.60614(14) 0.11370(11)
C9 C 0.17434(8) 0.63632(15) 0.04273(11)
H6 H 0.1730 0.5841 0.0061
C10 C 0.18529(9) 0.74232(16) 0.02567(13)
H7 H 0.1914 0.7610 -0.0221
C11 C 0.18723(10) 0.82012(17) 0.07894(14)
H8 H 0.1944 0.8917 0.0674
C12 C 0.17868(10) 0.79230(17) 0.14871(14)
H9 H 0.1804 0.8451 0.1850
C13 C 0.16741(9) 0.68566(15) 0.16662(12)
H10 H 0.1613 0.6679 0.2145
C14 C 0.10996(8) 0.44699(14) 0.07400(11)
H11 H 0.0859 0.4966 0.0521
C15 C 0.10523(7) 0.34317(15) 0.05559(11)
C16 C 0.06346(8) 0.30586(15) -0.00036(13)
C17 C 0.01045(10) 0.32739(19) 0.00554(19)
H12 H 0.0000 0.3656 0.0457
C18 C -0.02769(12) 0.2923(2) -0.0484(3)
H13 H -0.0636 0.3060 -0.0436
C19 C -0.01262(17) 0.2380(2) -0.1078(2)
H14 H -0.0382 0.2158 -0.1439
C20 C 0.03906(16) 0.2160(2) -0.11462(17)
H15 H 0.0491 0.1787 -0.1554
C21 C 0.07715(11) 0.24894(18) -0.06108(14)
H16 H 0.1128 0.2325 -0.0659
C22 C 0.14695(8) 0.26891(14) 0.08480(10)
C23 C 0.13774(9) 0.15306(16) 0.09638(11)
C24 C 0.07171(11) 0.01778(18) 0.10110(19)
H17 H 0.0892 -0.0282 0.0681
H18 H 0.0338 0.0095 0.0927
H19 H 0.0826 -0.0020 0.1506
C25 C 0.19494(8) 0.31233(14) 0.10823(10)
C26 C 0.24175(8) 0.24157(14) 0.13301(11)
C27 C 0.30175(9) 0.11081(18) 0.09942(13)
H20 H 0.3195 0.0879 0.0576
H21 H 0.2834 0.0504 0.1187
H22 H 0.3275 0.1382 0.1362
C28 C 0.25448(7) 0.46598(14) 0.12677(10)
C29 C 0.28894(8) 0.44959(15) 0.07295(11)
H23 H 0.2779 0.4107 0.0311
C30 C 0.33996(9) 0.49117(17) 0.08146(13)
H24 H 0.3632 0.4780 0.0454
C31 C 0.35753(9) 0.55143(18) 0.14155(14)
C32 C 0.32225(9) 0.56838(17) 0.19416(13)
H25 H 0.3331 0.6093 0.2352
C33 C 0.27146(8) 0.52655(16) 0.18768(11)
H26 H 0.2485 0.5389 0.2242
C34 C 0.41340(10) 0.5980(2) 0.14986(19)
H27 H 0.4383 0.5415 0.1638
H28 H 0.4152 0.6532 0.1869
H29 H 0.4220 0.6288 0.1042
loop_
_geom_bond_atom_site_label_1
_geom_bond_atom_site_label_2
_geom_bond_site_symmetry_1
_geom_bond_site_symmetry_2
O1 C23 1_555 1_555
O2 C23 1_555 1_555
O3 C26 1_555 1_555
O4 C26 1_555 1_555
N1 C7 1_555 1_555
C1 H1 1_555 1_555
C2 C1 1_555 1_555
H2 C2 1_555 1_555
C3 C2 1_555 1_555
H3 C3 1_555 1_555
C4 C3 1_555 1_555
H4 C4 1_555 1_555
C5 C4 1_555 1_555
H5 C5 1_555 1_555
C6 C1 1_555 1_555
C7 C6 1_555 1_555
C8 C7 1_555 1_555
C9 C8 1_555 1_555
H6 C9 1_555 1_555
C10 C9 1_555 1_555
H7 C10 1_555 1_555
C11 C10 1_555 1_555
H8 C11 1_555 1_555
C12 C11 1_555 1_555
H9 C12 1_555 1_555
C13 C8 1_555 1_555
H10 C13 1_555 1_555
C14 C7 1_555 1_555
H11 C14 1_555 1_555
C15 C14 1_555 1_555
C16 C15 1_555 1_555
C17 C16 1_555 1_555
H12 C17 1_555 1_555
C18 C17 1_555 1_555
H13 C18 1_555 1_555
C19 C18 1_555 1_555
H14 C19 1_555 1_555
C20 C19 1_555 1_555
H15 C20 1_555 1_555
C21 C16 1_555 1_555
H16 C21 1_555 1_555
C22 C15 1_555 1_555
C23 C22 1_555 1_555
C24 O2 1_555 1_555
H17 C24 1_555 1_555
H18 C24 1_555 1_555
H19 C24 1_555 1_555
C25 N1 1_555 1_555
C26 C25 1_555 1_555
C27 O4 1_555 1_555
H20 C27 1_555 1_555
H21 C27 1_555 1_555
H22 C27 1_555 1_555
C28 N1 1_555 1_555
C29 C28 1_555 1_555
H23 C29 1_555 1_555
C30 C29 1_555 1_555
H24 C30 1_555 1_555
C31 C30 1_555 1_555
C32 C31 1_555 1_555
H25 C32 1_555 1_555
C33 C28 1_555 1_555
H26 C33 1_555 1_555
C34 C31 1_555 1_555
H27 C34 1_555 1_555
H28 C34 1_555 1_555
H29 C34 1_555 1_555
C5 C6 1_555 1_555
C12 C13 1_555 1_555
C20 C21 1_555 1_555
C22 C25 1_555 1_555
C32 C33 1_555 1_555

#END
