
#######################################################################
#
#                 Cambridge Crystallographic Data Centre
#                                CCDC 
#
#######################################################################
#
# If this CIF has been generated from an entry in the Cambridge 
# Structural Database, then it will include bibliographic, chemical, 
# crystal, experimental, refinement or atomic coordinate data resulting 
# from the CCDC's data processing and validation procedures.
#
#######################################################################

data_WIRKOA
_chemical_formula_moiety         'C41 H34 O2 P2'
_chemical_name_systematic        
(3,3'-dimethyl-3H,3'H-1,1'-spirobi[[2]benzofuran]-7,7'-diyl)bis(diphenylphosphane)
_symmetry_cell_setting           monoclinic
_symmetry_space_group_name_H-M   'P 21'
_symmetry_Int_Tables_number      4
_space_group_name_Hall           'P 2yb'
loop_
_symmetry_equiv_pos_site_id
_symmetry_equiv_pos_as_xyz
1 x,y,z
2 -x,1/2+y,-z
_cell_length_a                   10.2427(17)
_cell_length_b                   27.713(5)
_cell_length_c                   12.453(2)
_cell_angle_alpha                90
_cell_angle_beta                 105.650(3)
_cell_angle_gamma                90
_cell_volume                     3403.81
_exptl_crystal_colour            colorless
_exptl_crystal_description       block
_cell_formula_units_Z            4
loop_
_atom_site_label
_atom_site_type_symbol
_atom_site_fract_x
_atom_site_fract_y
_atom_site_fract_z
P1 P -0.05539(13) 0.63514(6) -0.00379(12)
P2 P 0.23341(14) 0.66883(7) 0.33837(12)
O1 O 0.3771(4) 0.70382(18) 0.1272(4)
O2 O 0.1959(4) 0.71226(17) -0.0335(3)
C1 C 0.4602(5) 0.6616(3) 0.1302(5)
H1 H 0.5152 0.6563 0.2069
C2 C 0.3600(5) 0.6211(3) 0.0971(5)
C3 C 0.3849(6) 0.5731(3) 0.0896(5)
H2 H 0.4732 0.5615 0.1063
C4 C 0.2742(6) 0.5419(3) 0.0562(5)
H3 H 0.2885 0.5089 0.0518
C5 C 0.1424(6) 0.5601(2) 0.0294(5)
H4 H 0.0695 0.5389 0.0079
C6 C 0.1183(5) 0.6095(2) 0.0343(4)
C7 C 0.2289(5) 0.6399(2) 0.0706(4)
C8 C 0.2372(5) 0.6943(3) 0.0767(5)
C9 C 0.1553(5) 0.7231(2) 0.1405(5)
C10 C 0.1457(5) 0.7188(2) 0.2488(5)
C11 C 0.0718(7) 0.7535(3) 0.2856(5)
H5 H 0.0622 0.7514 0.3576
C12 C 0.0113(8) 0.7916(3) 0.2179(7)
H6 H -0.0378 0.8147 0.2450
C13 C 0.0239(7) 0.7954(3) 0.1109(6)
H7 H -0.0146 0.8213 0.0659
C14 C 0.0941(6) 0.7603(2) 0.0716(5)
C15 C 0.1257(7) 0.7568(3) -0.0376(6)
H8 H 0.0405 0.7550 -0.0968
C16 C 0.5534(7) 0.6691(4) 0.0556(8)
H9 H 0.5004 0.6765 -0.0187
H10 H 0.6045 0.6401 0.0543
H11 H 0.6144 0.6952 0.0838
C17 C -0.1618(5) 0.5808(2) -0.0039(5)
C18 C -0.2685(6) 0.5689(3) -0.0936(5)
H12 H -0.2826 0.5864 -0.1595
C19 C -0.3548(6) 0.5315(3) -0.0873(7)
H13 H -0.4246 0.5232 -0.1495
C20 C -0.3379(7) 0.5068(3) 0.0091(8)
H14 H -0.3962 0.4816 0.0132
C21 C -0.2369(8) 0.5187(3) 0.0994(7)
H15 H -0.2269 0.5020 0.1660
C22 C -0.1469(7) 0.5559(3) 0.0932(6)
H16 H -0.0768 0.5637 0.1555
C23 C -0.0847(5) 0.6459(2) -0.1534(5)
C24 C -0.0311(6) 0.6175(3) -0.2219(5)
H17 H 0.0258 0.5921 -0.1907
C25 C -0.0594(8) 0.6257(4) -0.3359(6)
H18 H -0.0189 0.6068 -0.3797
C26 C -0.1446(11) 0.6606(6) -0.3819(8)
H19 H -0.1669 0.6653 -0.4587
C27 C -0.1996(11) 0.6896(5) -0.3183(9)
H20 H -0.2554 0.7150 -0.3514
C28 C -0.1733(9) 0.6819(4) -0.2015(7)
H21 H -0.2151 0.7008 -0.1587
C29 C 0.0946(6) 0.6281(3) 0.3439(5)
C30 C -0.0412(6) 0.6399(3) 0.3242(6)
H22 H -0.0704 0.6707 0.2987
C31 C -0.1330(9) 0.6071(5) 0.3417(9)
H23 H -0.2232 0.6160 0.3306
C32 C -0.0916(12) 0.5606(5) 0.3759(7)
H24 H -0.1541 0.5381 0.3865
C33 C 0.0393(11) 0.5484(4) 0.3935(6)
H25 H 0.0680 0.5174 0.4172
C34 C 0.1316(8) 0.5821(3) 0.3763(6)
H26 H 0.2216 0.5730 0.3872
C35 C 0.2703(5) 0.6970(2) 0.4783(5)
C36 C 0.1949(6) 0.6920(3) 0.5535(5)
H27 H 0.1150 0.6742 0.5334
C37 C 0.2346(8) 0.7127(3) 0.6583(6)
H28 H 0.1827 0.7086 0.7085
C38 C 0.3516(8) 0.7393(3) 0.6871(6)
H29 H 0.3790 0.7539 0.7569
C39 C 0.4269(8) 0.7444(4) 0.6145(7)
H30 H 0.5061 0.7626 0.6341
C40 C 0.3873(7) 0.7228(3) 0.5112(6)
H31 H 0.4418 0.7259 0.4628
C41 C 0.2086(11) 0.7990(4) -0.0612(7)
H32 H 0.2922 0.8011 -0.0035
H33 H 0.1582 0.8284 -0.0634
H34 H 0.2278 0.7942 -0.1318
P3 P 0.79656(14) 0.96224(6) 0.36789(12)
P4 P 0.62698(18) 0.87202(9) 0.63676(14)
O3 O 0.7995(5) 0.80414(17) 0.4884(4)
O4 O 0.9353(4) 0.85843(16) 0.4215(3)
C42 C 0.6717(7) 0.7883(3) 0.4198(5)
H35 H 0.6164 0.7773 0.4681
C43 C 0.6073(5) 0.8321(2) 0.3589(4)
C44 C 0.4825(6) 0.8369(3) 0.2832(6)
H36 H 0.4237 0.8107 0.2646
C45 C 0.4476(7) 0.8811(3) 0.2364(6)
H37 H 0.3617 0.8855 0.1880
C46 C 0.5388(6) 0.9207(3) 0.2594(5)
H38 H 0.5142 0.9504 0.2250
C47 C 0.6671(5) 0.9144(2) 0.3353(4)
C48 C 0.6961(5) 0.8705(2) 0.3859(4)
C49 C 0.8249(5) 0.8533(2) 0.4697(5)
C50 C 0.8746(5) 0.8788(2) 0.5817(4)
C51 C 0.8065(6) 0.8880(3) 0.6635(5)
C52 C 0.8837(8) 0.9086(4) 0.7618(5)
H39 H 0.8425 0.9151 0.8182
C53 C 1.0161(8) 0.9197(3) 0.7788(6)
H40 H 1.0629 0.9336 0.8461
C54 C 1.0841(7) 0.9107(3) 0.6983(6)
H41 H 1.1754 0.9182 0.7104
C55 C 1.0095(6) 0.8902(2) 0.5992(5)
C56 C 1.0561(5) 0.8754(3) 0.5009(5)
H42 H 1.0893 0.9040 0.4702
C57 C 0.6875(9) 0.7472(3) 0.3454(7)
H43 H 0.7296 0.7588 0.2902
H44 H 0.5999 0.7341 0.3092
H45 H 0.7431 0.7226 0.3893
C58 C 0.7012(5) 1.0181(2) 0.3231(5)
C59 C 0.6144(7) 1.0340(3) 0.3844(6)
H46 H 0.5995 1.0145 0.4407
C60 C 0.5506(7) 1.0777(4) 0.3640(7)
H47 H 0.4910 1.0872 0.4046
C61 C 0.5743(7) 1.1077(3) 0.2835(7)
H48 H 0.5326 1.1378 0.2706
C62 C 0.6606(7) 1.0928(3) 0.2221(7)
H49 H 0.6777 1.1129 0.1677
C63 C 0.7219(6) 1.0478(3) 0.2414(6)
H50 H 0.7779 1.0377 0.1982
C64 C 0.8819(6) 0.9536(2) 0.2575(5)
C65 C 0.8298(8) 0.9265(3) 0.1615(6)
H51 H 0.7457 0.9115 0.1497
C66 C 0.9040(12) 0.9216(4) 0.0828(7)
H52 H 0.8689 0.9034 0.0187
C67 C 1.0268(13) 0.9433(5) 0.0991(10)
H53 H 1.0757 0.9398 0.0466
C68 C 1.0789(9) 0.9707(4) 0.1934(10)
H54 H 1.1623 0.9859 0.2044
C69 C 1.0057(7) 0.9752(3) 0.2719(6)
H55 H 1.0416 0.9934 0.3358
C70 C 0.5425(7) 0.9307(4) 0.6081(6)
C71 C 0.5862(12) 0.9735(5) 0.6645(7)
H56 H 0.6662 0.9734 0.7217
C72 C 0.5153(17) 1.0162(5) 0.6387(10)
H57 H 0.5462 1.0444 0.6779
C73 C 0.3979(17) 1.0158(8) 0.5534(18)
H58 H 0.3482 1.0442 0.5359
C74 C 0.3522(11) 0.9756(8) 0.4941(15)
H59 H 0.2727 0.9764 0.4363
C75 C 0.4268(9) 0.9318(5) 0.5208(10)
H60 H 0.3973 0.9041 0.4794
C76 C 0.6162(7) 0.8589(3) 0.7790(6)
C77 C 0.6883(8) 0.8193(4) 0.8313(7)
H61 H 0.7450 0.8024 0.7975
C78 C 0.6748(9) 0.8048(4) 0.9367(7)
H62 H 0.7248 0.7787 0.9730
C79 C 0.5903(11) 0.8282(5) 0.9855(8)
H63 H 0.5815 0.8181 1.0544
C80 C 0.5193(11) 0.8661(5) 0.9338(8)
H64 H 0.4608 0.8823 0.9672
C81 C 0.5320(8) 0.8817(4) 0.8305(6)
H65 H 0.4820 0.9082 0.7963
C82 C 1.1663(6) 0.8370(3) 0.5234(7)
H66 H 1.1345 0.8086 0.5525
H67 H 1.2457 0.8490 0.5767
H68 H 1.1882 0.8292 0.4552
loop_
_geom_bond_atom_site_label_1
_geom_bond_atom_site_label_2
_geom_bond_site_symmetry_1
_geom_bond_site_symmetry_2
P1 C6 1_555 1_555
P2 C10 1_555 1_555
O1 C1 1_555 1_555
O2 C8 1_555 1_555
C1 H1 1_555 1_555
C2 C1 1_555 1_555
C3 C2 1_555 1_555
H2 C3 1_555 1_555
C4 C3 1_555 1_555
H3 C4 1_555 1_555
C5 C4 1_555 1_555
H4 C5 1_555 1_555
C6 C5 1_555 1_555
C7 C2 1_555 1_555
C8 O1 1_555 1_555
C9 C8 1_555 1_555
C10 C9 1_555 1_555
C11 C10 1_555 1_555
H5 C11 1_555 1_555
C12 C11 1_555 1_555
H6 C12 1_555 1_555
C13 C12 1_555 1_555
H7 C13 1_555 1_555
C14 C9 1_555 1_555
C15 O2 1_555 1_555
H8 C15 1_555 1_555
C16 C1 1_555 1_555
H9 C16 1_555 1_555
H10 C16 1_555 1_555
H11 C16 1_555 1_555
C17 P1 1_555 1_555
C18 C17 1_555 1_555
H12 C18 1_555 1_555
C19 C18 1_555 1_555
H13 C19 1_555 1_555
C20 C19 1_555 1_555
H14 C20 1_555 1_555
C21 C20 1_555 1_555
H15 C21 1_555 1_555
C22 C17 1_555 1_555
H16 C22 1_555 1_555
C23 P1 1_555 1_555
C24 C23 1_555 1_555
H17 C24 1_555 1_555
C25 C24 1_555 1_555
H18 C25 1_555 1_555
C26 C25 1_555 1_555
H19 C26 1_555 1_555
C27 C26 1_555 1_555
H20 C27 1_555 1_555
C28 C23 1_555 1_555
H21 C28 1_555 1_555
C29 P2 1_555 1_555
C30 C29 1_555 1_555
H22 C30 1_555 1_555
C31 C30 1_555 1_555
H23 C31 1_555 1_555
C32 C31 1_555 1_555
H24 C32 1_555 1_555
C33 C32 1_555 1_555
H25 C33 1_555 1_555
C34 C29 1_555 1_555
H26 C34 1_555 1_555
C35 P2 1_555 1_555
C36 C35 1_555 1_555
H27 C36 1_555 1_555
C37 C36 1_555 1_555
H28 C37 1_555 1_555
C38 C37 1_555 1_555
H29 C38 1_555 1_555
C39 C38 1_555 1_555
H30 C39 1_555 1_555
C40 C35 1_555 1_555
H31 C40 1_555 1_555
C41 C15 1_555 1_555
H32 C41 1_555 1_555
H33 C41 1_555 1_555
H34 C41 1_555 1_555
P3 C47 1_555 1_555
P4 C51 1_555 1_555
O3 C42 1_555 1_555
O4 C49 1_555 1_555
C42 H35 1_555 1_555
C43 C42 1_555 1_555
C44 C43 1_555 1_555
H36 C44 1_555 1_555
C45 C44 1_555 1_555
H37 C45 1_555 1_555
C46 C45 1_555 1_555
H38 C46 1_555 1_555
C47 C46 1_555 1_555
C48 C43 1_555 1_555
C49 O3 1_555 1_555
C50 C49 1_555 1_555
C51 C50 1_555 1_555
C52 C51 1_555 1_555
H39 C52 1_555 1_555
C53 C52 1_555 1_555
H40 C53 1_555 1_555
C54 C53 1_555 1_555
H41 C54 1_555 1_555
C55 C50 1_555 1_555
C56 O4 1_555 1_555
H42 C56 1_555 1_555
C57 C42 1_555 1_555
H43 C57 1_555 1_555
H44 C57 1_555 1_555
H45 C57 1_555 1_555
C58 P3 1_555 1_555
C59 C58 1_555 1_555
H46 C59 1_555 1_555
C60 C59 1_555 1_555
H47 C60 1_555 1_555
C61 C60 1_555 1_555
H48 C61 1_555 1_555
C62 C61 1_555 1_555
H49 C62 1_555 1_555
C63 C58 1_555 1_555
H50 C63 1_555 1_555
C64 P3 1_555 1_555
C65 C64 1_555 1_555
H51 C65 1_555 1_555
C66 C65 1_555 1_555
H52 C66 1_555 1_555
C67 C66 1_555 1_555
H53 C67 1_555 1_555
C68 C67 1_555 1_555
H54 C68 1_555 1_555
C69 C64 1_555 1_555
H55 C69 1_555 1_555
C70 P4 1_555 1_555
C71 C70 1_555 1_555
H56 C71 1_555 1_555
C72 C71 1_555 1_555
H57 C72 1_555 1_555
C73 C72 1_555 1_555
H58 C73 1_555 1_555
C74 C73 1_555 1_555
H59 C74 1_555 1_555
C75 C70 1_555 1_555
H60 C75 1_555 1_555
C76 P4 1_555 1_555
C77 C76 1_555 1_555
H61 C77 1_555 1_555
C78 C77 1_555 1_555
H62 C78 1_555 1_555
C79 C78 1_555 1_555
H63 C79 1_555 1_555
C80 C79 1_555 1_555
H64 C80 1_555 1_555
C81 C76 1_555 1_555
H65 C81 1_555 1_555
C82 C56 1_555 1_555
H66 C82 1_555 1_555
H67 C82 1_555 1_555
H68 C82 1_555 1_555
C6 C7 1_555 1_555
C7 C8 1_555 1_555
C13 C14 1_555 1_555
C14 C15 1_555 1_555
C21 C22 1_555 1_555
C27 C28 1_555 1_555
C33 C34 1_555 1_555
C39 C40 1_555 1_555
C47 C48 1_555 1_555
C48 C49 1_555 1_555
C54 C55 1_555 1_555
C55 C56 1_555 1_555
C62 C63 1_555 1_555
C68 C69 1_555 1_555
C74 C75 1_555 1_555
C80 C81 1_555 1_555

#END
