
#######################################################################
#
#                 Cambridge Crystallographic Data Centre
#                                CCDC 
#
#######################################################################
#
# If this CIF has been generated from an entry in the Cambridge 
# Structural Database, then it will include bibliographic, chemical, 
# crystal, experimental, refinement or atomic coordinate data resulting 
# from the CCDC's data processing and validation procedures.
#
#######################################################################

data_WISCUW01
_chemical_formula_moiety         'C14 H22 N2 O3'
_chemical_name_systematic        
1,2,3,5,6,8,9,11,12,13-Decahydro-4,7,10,1,13-benzotrioxadiazacyclopentadecine
_symmetry_cell_setting           monoclinic
_symmetry_space_group_name_H-M   'P 21/n'
_symmetry_Int_Tables_number      14
_space_group_name_Hall           '-P 2yn'
loop_
_symmetry_equiv_pos_site_id
_symmetry_equiv_pos_as_xyz
1 x,y,z
2 1/2-x,1/2+y,1/2-z
3 -x,-y,-z
4 1/2+x,1/2-y,1/2+z
_cell_length_a                   8.4832(4)
_cell_length_b                   17.2639(8)
_cell_length_c                   9.9592(5)
_cell_angle_alpha                90
_cell_angle_beta                 109.030(1)
_cell_angle_gamma                90
_cell_volume                     1378.84
_exptl_crystal_colour            colorless
_exptl_crystal_description       block
_chemical_melting_point          '108-110deg. C'
_cell_formula_units_Z            4
_exptl_crystal_recrystallization_method dichloromethane/hexane
loop_
_atom_site_label
_atom_site_type_symbol
_atom_site_fract_x
_atom_site_fract_y
_atom_site_fract_z
O1 O 0.69089(9) 0.15403(4) 0.22673(8)
O2 O 0.57993(10) 0.01646(4) 0.31616(8)
O3 O 0.82741(10) -0.06371(5) 0.53631(8)
N1 N 0.79989(11) 0.18688(5) 0.51478(9)
N2 N 0.99266(11) 0.07316(5) 0.68510(10)
C1 C 0.89100(12) 0.11798(5) 0.73835(10)
C2 C 0.88527(13) 0.10799(6) 0.87589(11)
C3 C 0.79295(13) 0.15734(6) 0.93219(11)
C4 C 0.70262(13) 0.21723(6) 0.85047(12)
C5 C 0.70211(13) 0.22703(6) 0.71092(11)
C6 C 0.79328(12) 0.17794(5) 0.65287(10)
C7 C 0.68523(13) 0.24043(6) 0.41756(11)
C8 C 0.70653(14) 0.23308(6) 0.27246(11)
C9 C 0.52231(13) 0.12854(6) 0.17072(12)
C10 C 0.52075(14) 0.04163(6) 0.17318(11)
C11 C 0.59028(14) -0.06600(6) 0.32626(12)
C12 C 0.65793(14) -0.08842(6) 0.47983(13)
C13 C 0.88943(15) -0.06085(6) 0.68712(12)
C14 C 1.03700(13) -0.00605(6) 0.72991(11)
H1 H 0.7975(17) 0.1431(8) 0.4728(15)
H2 H 0.9974(17) 0.0850(8) 0.6021(15)
H3 H 0.9504(17) 0.0672(8) 0.9351(14)
H4 H 0.7936(16) 0.1488(7) 1.0277(15)
H5 H 0.6371(16) 0.2522(7) 0.8878(14)
H6 H 0.6354(16) 0.2678(7) 0.6517(14)
H7 H 0.7115(16) 0.2947(8) 0.4536(14)
H8 H 0.5683(17) 0.2318(7) 0.4109(14)
H9 H 0.6240(16) 0.2666(7) 0.2016(14)
H10 H 0.8192(17) 0.2490(7) 0.2782(14)
H11 H 0.4715(16) 0.1474(7) 0.0721(14)
H12 H 0.4572(17) 0.1498(8) 0.2263(15)
H13 H 0.4072(18) 0.0225(8) 0.1230(15)
H14 H 0.5954(16) 0.0203(7) 0.1206(14)
H15 H 0.6626(16) -0.0851(7) 0.2715(14)
H16 H 0.4791(18) -0.0885(7) 0.2796(15)
H17 H 0.5920(17) -0.0636(8) 0.5336(15)
H18 H 0.6522(17) -0.1456(8) 0.4885(15)
H19 H 0.9247(17) -0.1131(8) 0.7276(15)
H20 H 0.8010(18) -0.0429(8) 0.7246(15)
H21 H 1.0913(16) -0.0095(7) 0.8346(14)
H22 H 1.1186(17) -0.0237(7) 0.6853(14)
loop_
_geom_bond_atom_site_label_1
_geom_bond_atom_site_label_2
_geom_bond_site_symmetry_1
_geom_bond_site_symmetry_2
O1 C8 1_555 1_555
O2 C10 1_555 1_555
O3 C12 1_555 1_555
N1 C6 1_555 1_555
N2 C1 1_555 1_555
C1 C2 1_555 1_555
C2 C3 1_555 1_555
C3 C4 1_555 1_555
C4 C5 1_555 1_555
C5 C6 1_555 1_555
C6 C1 1_555 1_555
C7 N1 1_555 1_555
C8 C7 1_555 1_555
C9 O1 1_555 1_555
C10 C9 1_555 1_555
C11 O2 1_555 1_555
C12 C11 1_555 1_555
C13 O3 1_555 1_555
C14 N2 1_555 1_555
H1 N1 1_555 1_555
H2 N2 1_555 1_555
H3 C2 1_555 1_555
H4 C3 1_555 1_555
H5 C4 1_555 1_555
H6 C5 1_555 1_555
H7 C7 1_555 1_555
H8 C7 1_555 1_555
H9 C8 1_555 1_555
H10 C8 1_555 1_555
H11 C9 1_555 1_555
H12 C9 1_555 1_555
H13 C10 1_555 1_555
H14 C10 1_555 1_555
H15 C11 1_555 1_555
H16 C11 1_555 1_555
H17 C12 1_555 1_555
H18 C12 1_555 1_555
H19 C13 1_555 1_555
H20 C13 1_555 1_555
H21 C14 1_555 1_555
H22 C14 1_555 1_555
C13 C14 1_555 1_555

#END
