
#######################################################################
#
#                 Cambridge Crystallographic Data Centre
#                                CCDC 
#
#######################################################################
#
# If this CIF has been generated from an entry in the Cambridge 
# Structural Database, then it will include bibliographic, chemical, 
# crystal, experimental, refinement or atomic coordinate data resulting 
# from the CCDC's data processing and validation procedures.
#
#######################################################################

data_WISDEH
_chemical_formula_moiety         'C7 H5 Cl1 N2'
_chemical_name_systematic        2-Chlorobenzimidazole
_symmetry_cell_setting           orthorhombic
_symmetry_space_group_name_H-M   'P b c a'
_symmetry_Int_Tables_number      61
_space_group_name_Hall           '-P 2ac 2ab'
loop_
_symmetry_equiv_pos_site_id
_symmetry_equiv_pos_as_xyz
1 x,y,z
2 1/2-x,-y,1/2+z
3 1/2+x,1/2-y,-z
4 -x,1/2+y,1/2-z
5 -x,-y,-z
6 1/2+x,y,1/2-z
7 1/2-x,1/2+y,z
8 x,1/2-y,1/2+z
_cell_length_a                   9.937(4)
_cell_length_b                   9.192(1)
_cell_length_c                   14.417(3)
_cell_angle_alpha                90
_cell_angle_beta                 90
_cell_angle_gamma                90
_cell_volume                     1316.86
_exptl_crystal_colour            colorless
_cell_formula_units_Z            8
loop_
_atom_site_label
_atom_site_type_symbol
_atom_site_fract_x
_atom_site_fract_y
_atom_site_fract_z
Cl1 Cl 0.4035(1) 0.8919(1) 0.4074(1)
C1 C 0.3336(4) 0.5947(4) 0.5855(2)
C2 C 0.2630(5) 0.4948(4) 0.6377(3)
C3 C 0.3337(4) 0.4102(4) 0.6985(2)
C4 C 0.4731(5) 0.4262(4) 0.7083(2)
C5 C 0.5434(4) 0.5276(4) 0.6574(2)
C6 C 0.4715(4) 0.6126(4) 0.5948(2)
N1 N 0.5175(3) 0.7213(3) 0.5343(2)
C7 C 0.4081(3) 0.7607(4) 0.4920(3)
N2 N 0.2945(3) 0.6925(3) 0.5173(2)
H1 H 0.1816(44) 0.4819(50) 0.6268(30)
H2 H 0.2735(39) 0.3418(40) 0.7352(26)
H3 H 0.5254(34) 0.3690(34) 0.7493(23)
H4 H 0.6409(46) 0.5455(48) 0.6626(28)
H5 H 0.2058(56) 0.7167(60) 0.5071(35)
loop_
_geom_bond_atom_site_label_1
_geom_bond_atom_site_label_2
_geom_bond_site_symmetry_1
_geom_bond_site_symmetry_2
Cl1 C7 1_555 1_555
C1 C2 1_555 1_555
C2 C3 1_555 1_555
C3 C4 1_555 1_555
C4 C5 1_555 1_555
C5 C6 1_555 1_555
C6 C1 1_555 1_555
N1 C6 1_555 1_555
C7 N1 1_555 1_555
N2 C1 1_555 1_555
H1 C2 1_555 1_555
H2 C3 1_555 1_555
H3 C4 1_555 1_555
H4 C5 1_555 1_555
H5 N2 1_555 1_555
C7 N2 1_555 1_555

#END
