
#######################################################################
#
#                 Cambridge Crystallographic Data Centre
#                                CCDC 
#
#######################################################################
#
# If this CIF has been generated from an entry in the Cambridge 
# Structural Database, then it will include bibliographic, chemical, 
# crystal, experimental, refinement or atomic coordinate data resulting 
# from the CCDC's data processing and validation procedures.
#
#######################################################################

data_WISJOA
_chemical_formula_moiety         'C30 H31 N5 O7'
_chemical_name_systematic        
"t-butyl (3S,6'S,2''R)-3'''-methyl-2,2',5'''-trioxo-1'''-phenyl-1-(prop-2-en-1-yl)-1,1''',2,5'''-tetrahydro-3''H-trispiro[indole-3,4'-[1,3]oxazinane-6',4''-[1,3]oxazolidine-2'',4'''-pyrazole]-3''-carboxylate"
_symmetry_cell_setting           orthorhombic
_symmetry_space_group_name_H-M   'C 2 2 21'
_symmetry_Int_Tables_number      20
_space_group_name_Hall           'C 2n 2'
loop_
_symmetry_equiv_pos_site_id
_symmetry_equiv_pos_as_xyz
1 x,y,z
2 -x,-y,1/2+z
3 -x,y,1/2-z
4 x,-y,-z
5 1/2+x,1/2+y,z
6 1/2-x,1/2-y,1/2+z
7 1/2-x,1/2+y,1/2-z
8 1/2+x,1/2-y,-z
_cell_length_a                   10.4443(3)
_cell_length_b                   14.5326(4)
_cell_length_c                   38.8497(10)
_cell_angle_alpha                90
_cell_angle_beta                 90
_cell_angle_gamma                90
_cell_volume                     5896.72
_exptl_crystal_colour            colorless
_exptl_crystal_description       prismatic
_cell_formula_units_Z            8
loop_
_atom_site_label
_atom_site_type_symbol
_atom_site_fract_x
_atom_site_fract_y
_atom_site_fract_z
N1 N 0.2661(3) 0.3351(2) 0.46738(7)
N2 N 0.1553(3) 0.3032(3) 0.44982(8)
N3 N 0.3928(3) 0.2911(2) 0.38722(7)
N4 N 0.5536(3) 0.3195(2) 0.29455(7)
N5 N 0.7701(3) 0.48557(19) 0.30587(7)
O1 O 0.4674(3) 0.38982(19) 0.45244(6)
O2 O 0.2923(3) 0.42825(18) 0.39152(6)
O3 O 0.3555(2) 0.29252(16) 0.27396(5)
O4 O 0.3726(2) 0.32434(18) 0.32895(5)
O5 O 0.5588(3) 0.51787(18) 0.31715(7)
O6 O 0.4616(3) 0.15081(17) 0.36811(6)
O7 O 0.3571(3) 0.16781(18) 0.41915(6)
C1 C 0.3622(4) 0.3600(3) 0.44570(9)
C2 C 0.3065(4) 0.3441(3) 0.40924(8)
C3 C 0.1766(4) 0.3060(3) 0.41752(9)
C4 C 0.0827(5) 0.2801(4) 0.39076(11)
H1 H 0.1100 0.2228 0.3797
H2 H 0.0774 0.3292 0.3735
H3 H -0.0015 0.2712 0.4014
C5 C 0.4070(4) 0.4426(3) 0.37180(9)
H4 H 0.4750 0.4705 0.3862
H5 H 0.3902 0.4833 0.3519
C6 C 0.4458(4) 0.3463(2) 0.35987(8)
C7 C 0.4267(3) 0.3120(2) 0.29772(8)
C8 C 0.6390(3) 0.3580(2) 0.32024(8)
C9 C 0.5891(3) 0.3308(2) 0.35538(8)
H6 H 0.6354 0.3666 0.3731
H7 H 0.6081 0.2649 0.3593
C10 C 0.6490(4) 0.4641(2) 0.31472(8)
C11 C 0.8483(3) 0.4061(2) 0.30475(8)
C12 C 0.7754(3) 0.3292(2) 0.31350(8)
C13 C 0.8308(4) 0.2430(2) 0.31388(9)
H8 H 0.7822 0.1903 0.3202
C14 C 0.9595(4) 0.2347(3) 0.30484(9)
H9 H 0.9992 0.1759 0.3047
C15 C 1.0293(4) 0.3116(3) 0.29607(10)
H10 H 1.1168 0.3047 0.2899
C16 C 0.9752(4) 0.3991(3) 0.29599(9)
H11 H 1.0242 0.4519 0.2901
C17 C 0.8057(4) 0.5766(2) 0.29320(9)
H12 H 0.8971 0.5880 0.2985
H13 H 0.7544 0.6237 0.3054
C18 C 0.7849(5) 0.5861(3) 0.25518(10)
H14 H 0.8072 0.6436 0.2452
C19 C 0.7397(5) 0.5241(3) 0.23457(10)
H15 H 0.7160 0.4654 0.2433
H16 H 0.7303 0.5372 0.2107
C20 C 0.4100(4) 0.1969(3) 0.38954(8)
C21 C 0.3498(5) 0.0684(3) 0.42782(10)
C22 C 0.2819(7) 0.0169(4) 0.39984(14)
H17 H 0.1996 0.0466 0.3950
H18 H 0.2669 -0.0467 0.4073
H19 H 0.3346 0.0169 0.3790
C23 C 0.4845(6) 0.0321(3) 0.43400(15)
H20 H 0.5319 0.0317 0.4122
H21 H 0.4798 -0.0306 0.4432
H22 H 0.5286 0.0719 0.4506
C24 C 0.2717(8) 0.0713(4) 0.46044(14)
H23 H 0.3181 0.1063 0.4780
H24 H 0.2570 0.0084 0.4687
H25 H 0.1893 0.1010 0.4558
C25 C 0.2676(4) 0.3295(3) 0.50387(9)
C26 C 0.3545(4) 0.3820(3) 0.52251(9)
H26 H 0.4126 0.4216 0.5109
C27 C 0.3559(5) 0.3761(3) 0.55795(9)
H27 H 0.4134 0.4134 0.5707
C28 C 0.2752(4) 0.3170(3) 0.57494(9)
H28 H 0.2782 0.3125 0.5993
C29 C 0.1892(4) 0.2639(3) 0.55638(9)
H29 H 0.1326 0.2234 0.5681
C30 C 0.1856(4) 0.2699(3) 0.52064(9)
H30 H 0.1271 0.2332 0.5079
H31 H 0.572(4) 0.310(3) 0.2739(11)
loop_
_geom_bond_atom_site_label_1
_geom_bond_atom_site_label_2
_geom_bond_site_symmetry_1
_geom_bond_site_symmetry_2
N1 N2 1_555 1_555
N2 C3 1_555 1_555
N3 C2 1_555 1_555
N4 C7 1_555 1_555
N5 C10 1_555 1_555
O1 C1 1_555 1_555
O2 C2 1_555 1_555
O3 C7 1_555 1_555
O4 C6 1_555 1_555
O5 C10 1_555 1_555
O6 C20 1_555 1_555
O7 C20 1_555 1_555
C1 N1 1_555 1_555
C2 C1 1_555 1_555
C3 C2 1_555 1_555
C4 C3 1_555 1_555
H1 C4 1_555 1_555
H2 C4 1_555 1_555
H3 C4 1_555 1_555
C5 O2 1_555 1_555
H4 C5 1_555 1_555
H5 C5 1_555 1_555
C6 N3 1_555 1_555
C7 O4 1_555 1_555
C8 N4 1_555 1_555
C9 C6 1_555 1_555
H6 C9 1_555 1_555
H7 C9 1_555 1_555
C10 C8 1_555 1_555
C11 N5 1_555 1_555
C12 C8 1_555 1_555
C13 C12 1_555 1_555
H8 C13 1_555 1_555
C14 C13 1_555 1_555
H9 C14 1_555 1_555
C15 C14 1_555 1_555
H10 C15 1_555 1_555
C16 C11 1_555 1_555
H11 C16 1_555 1_555
C17 N5 1_555 1_555
H12 C17 1_555 1_555
H13 C17 1_555 1_555
C18 C17 1_555 1_555
H14 C18 1_555 1_555
C19 C18 1_555 1_555
H15 C19 1_555 1_555
H16 C19 1_555 1_555
C20 N3 1_555 1_555
C21 O7 1_555 1_555
C22 C21 1_555 1_555
H17 C22 1_555 1_555
H18 C22 1_555 1_555
H19 C22 1_555 1_555
C23 C21 1_555 1_555
H20 C23 1_555 1_555
H21 C23 1_555 1_555
H22 C23 1_555 1_555
C24 C21 1_555 1_555
H23 C24 1_555 1_555
H24 C24 1_555 1_555
H25 C24 1_555 1_555
C25 N1 1_555 1_555
C26 C25 1_555 1_555
H26 C26 1_555 1_555
C27 C26 1_555 1_555
H27 C27 1_555 1_555
C28 C27 1_555 1_555
H28 C28 1_555 1_555
C29 C28 1_555 1_555
H29 C29 1_555 1_555
C30 C25 1_555 1_555
H30 C30 1_555 1_555
H31 N4 1_555 1_555
C5 C6 1_555 1_555
C8 C9 1_555 1_555
C11 C12 1_555 1_555
C15 C16 1_555 1_555
C29 C30 1_555 1_555

#END
