
#######################################################################
#
#                 Cambridge Crystallographic Data Centre
#                                CCDC 
#
#######################################################################
#
# If this CIF has been generated from an entry in the Cambridge 
# Structural Database, then it will include bibliographic, chemical, 
# crystal, experimental, refinement or atomic coordinate data resulting 
# from the CCDC's data processing and validation procedures.
#
#######################################################################

data_WISMAP
_chemical_formula_moiety         'C7 H8 N1 O2 1+,C6 H5 O3 S1 1-'
_chemical_name_systematic        '2-carboxyanilinium benzenesulfonate'
_symmetry_cell_setting           triclinic
_symmetry_space_group_name_H-M   'P -1'
_symmetry_Int_Tables_number      2
_space_group_name_Hall           '-P 1'
loop_
_symmetry_equiv_pos_site_id
_symmetry_equiv_pos_as_xyz
1 x,y,z
2 -x,-y,-z
_cell_length_a                   5.6459(6)
_cell_length_b                   9.8480(9)
_cell_length_c                   12.9016(11)
_cell_angle_alpha                100.265(2)
_cell_angle_beta                 92.8040(10)
_cell_angle_gamma                101.863(2)
_cell_volume                     688.051
_exptl_crystal_colour            colorless
_exptl_crystal_description       BLOCK
_cell_formula_units_Z            2
loop_
_atom_site_label
_atom_site_type_symbol
_atom_site_fract_x
_atom_site_fract_y
_atom_site_fract_z
N1 N 0.6928(4) 0.8204(3) -0.0137(2)
H1 H 0.8032 0.7943 -0.0554
H2 H 0.7506 0.9078 0.0225
H3 H 0.5577 0.8182 -0.0532
O1 O 0.2731(4) 0.8923(2) 0.04806(18)
O2 O 0.2130(4) 0.8827(3) 0.21686(18)
H4 H 0.1331 0.9419 0.2106
C1 C 0.3096(5) 0.8470(3) 0.1270(2)
C2 C 0.4600(5) 0.7399(3) 0.1309(2)
C3 C 0.6382(5) 0.7232(3) 0.0599(2)
C4 C 0.7701(6) 0.6204(3) 0.0603(3)
H5 H 0.8881 0.6120 0.0132
C5 C 0.7265(6) 0.5289(3) 0.1314(3)
H6 H 0.8173 0.4604 0.1328
C6 C 0.5476(7) 0.5403(4) 0.2001(3)
H7 H 0.5142 0.4770 0.2458
C7 C 0.4182(6) 0.6458(4) 0.2008(3)
H8 H 0.3015 0.6541 0.2487
O3 O -0.0364(4) 0.7179(2) 0.82407(19)
O4 O 0.3895(4) 0.8062(3) 0.80187(19)
O5 O 0.1150(5) 0.9665(3) 0.82526(18)
S1 S 0.14093(13) 0.82214(8) 0.78501(6)
C8 C 0.0719(6) 0.7923(4) 0.6463(3)
C9 C -0.1655(11) 0.7445(9) 0.6026(5)
H9 H -0.2909 0.7246 0.6454
C10 C -0.2145(15) 0.7265(10) 0.4940(5)
H10 H -0.3686 0.6800 0.4628
C11 C -0.0382(16) 0.7767(11) 0.4316(8)
H11 H -0.0790 0.7808 0.3616
C12 C 0.1985(16) 0.8204(11) 0.4744(6)
H12 H 0.3230 0.8387 0.4309
C13 C 0.2522(14) 0.8371(10) 0.5826(5)
H13 H 0.4094 0.8785 0.6127
C14? C -0.053(3) 0.6566(12) 0.5954(8)
H14? H -0.1092 0.5893 0.6358
C15? C -0.095(3) 0.6204(17) 0.4857(8)
H15? H -0.1737 0.5300 0.4512
C16? C -0.012(4) 0.7271(15) 0.4314(15)
H16? H -0.0337 0.7064 0.3579
C17? C 0.100(3) 0.8634(16) 0.4808(10)
H17? H 0.1392 0.9339 0.4413
C18? C 0.155(3) 0.8940(14) 0.5891(9)
H18? H 0.2458 0.9821 0.6226
loop_
_geom_bond_atom_site_label_1
_geom_bond_atom_site_label_2
_geom_bond_site_symmetry_1
_geom_bond_site_symmetry_2
N1 H1 1_555 1_555
H2 N1 1_555 1_555
H3 N1 1_555 1_555
O1 C1 1_555 1_555
O2 H4 1_555 1_555
C1 O2 1_555 1_555
C2 C1 1_555 1_555
C3 N1 1_555 1_555
C4 C3 1_555 1_555
H5 C4 1_555 1_555
C5 C4 1_555 1_555
H6 C5 1_555 1_555
C6 C5 1_555 1_555
H7 C6 1_555 1_555
C7 C2 1_555 1_555
H8 C7 1_555 1_555
O3 S1 1_555 1_555
O4 S1 1_555 1_555
O5 S1 1_555 1_555
S1 C8 1_555 1_555
C8 C9 1_555 1_555
C9 H9 1_555 1_555
C10 C9 1_555 1_555
H10 C10 1_555 1_555
C11 C10 1_555 1_555
H11 C11 1_555 1_555
C12 C11 1_555 1_555
H12 C12 1_555 1_555
C13 C8 1_555 1_555
H13 C13 1_555 1_555
C2 C3 1_555 1_555
C6 C7 1_555 1_555
C12 C13 1_555 1_555

#END
