
#######################################################################
#
#                 Cambridge Crystallographic Data Centre
#                                CCDC 
#
#######################################################################
#
# If this CIF has been generated from an entry in the Cambridge 
# Structural Database, then it will include bibliographic, chemical, 
# crystal, experimental, refinement or atomic coordinate data resulting 
# from the CCDC's data processing and validation procedures.
#
#######################################################################

data_WIVHOY
_chemical_formula_moiety         'C20 H20 N4 2+,2(Cl1 O4 1-)'
_chemical_name_systematic        
"4,4'-bis((Imidazolium-3-yl)methyl)biphenyl diperchlorate"
_symmetry_cell_setting           monoclinic
_symmetry_space_group_name_H-M   'P 21/c'
_symmetry_Int_Tables_number      14
_space_group_name_Hall           '-P 2ybc'
loop_
_symmetry_equiv_pos_site_id
_symmetry_equiv_pos_as_xyz
1 x,y,z
2 x,1/2-y,1/2+z
3 -x,-y,-z
4 -x,1/2+y,1/2-z
_cell_length_a                   4.8950(10)
_cell_length_b                   15.164(2)
_cell_length_c                   14.904(2)
_cell_angle_alpha                90
_cell_angle_beta                 97.210(10)
_cell_angle_gamma                90
_cell_volume                     1097.54
_cell_formula_units_Z            2
loop_
_atom_site_label
_atom_site_type_symbol
_atom_site_fract_x
_atom_site_fract_y
_atom_site_fract_z
Cl1 Cl 0.4160(3) 0.62473(10) 0.62495(10)
O1 O 0.1189(8) 0.6199(3) 0.6212(4)
O2 O 0.4922(11) 0.7063(3) 0.6618(4)
O3 O 0.5232(10) 0.5573(3) 0.6821(4)
O4 O 0.4681(14) 0.6172(6) 0.5387(4)
N1 N -0.1209(8) 0.8014(2) 0.8571(3)
N2 N 0.0321(12) 0.9323(3) 0.8505(3)
C1 C -0.1137(12) 0.8791(3) 0.8949(4)
H1 H -0.1982 0.8943 0.9453
C2 C 0.1235(13) 0.8885(4) 0.7827(4)
H2 H 0.2318 0.9109 0.7410
C3 C 0.0295(12) 0.8063(4) 0.7860(4)
H3 H 0.0606 0.7605 0.7471
C4 C -0.2472(10) 0.7211(3) 0.8895(4)
H4 H -0.3723 0.6956 0.8407
H5 H -0.3522 0.7360 0.9383
C5 C -0.0258(10) 0.6544(3) 0.9225(3)
C6 C 0.0442(12) 0.5882(4) 0.8673(4)
H6 H -0.0453 0.5837 0.8087
C7 C 0.2484(12) 0.5276(4) 0.8982(4)
H7 H 0.2895 0.4824 0.8599
C8 C 0.3907(9) 0.5326(3) 0.9836(3)
C9 C 0.3247(12) 0.6017(3) 1.0374(3)
H8 H 0.4222 0.6087 1.0946
C10 C 0.1160(11) 0.6611(3) 1.0079(3)
H9 H 0.0720 0.7058 1.0464
H10 H 0.045(11) 0.979(4) 0.856(4)
C8B C 0.6093(9) 0.4674(3) 1.0164(3)
C7B C 0.7516(12) 0.4724(4) 1.1018(4)
C6B C 0.9558(12) 0.4118(4) 1.1327(4)
C5B C 1.0258(10) 0.3456(3) 1.0775(3)
C4B C 1.2472(10) 0.2789(3) 1.1105(4)
N1B N 1.1209(8) 0.1986(2) 1.1429(3)
C1B C 1.1137(12) 0.1209(3) 1.1051(4)
N2B N 0.9679(12) 0.0677(3) 1.1495(3)
C2B C 0.8765(13) 0.1115(4) 1.2173(4)
H2B H 0.7682 0.0891 1.2590
C3B C 0.9705(12) 0.1937(4) 1.2140(4)
H3B H 0.9394 0.2395 1.2529
H10B H 0.955(11) 0.021(4) 1.144(4)
H1B H 1.1982 0.1057 1.0547
H4B H 1.3723 0.3044 1.1593
H5B H 1.3522 0.2640 1.0617
C10B C 0.8840(11) 0.3389(3) 0.9921(3)
C9B C 0.6753(12) 0.3983(3) 0.9626(3)
H8B H 0.5778 0.3913 0.9054
H9B H 0.9280 0.2942 0.9536
H6B H 1.0453 0.4163 1.1913
H7B H 0.7105 0.5176 1.1401
loop_
_geom_bond_atom_site_label_1
_geom_bond_atom_site_label_2
_geom_bond_site_symmetry_1
_geom_bond_site_symmetry_2
Cl1 O1 1_555 1_555
N1 C1 1_555 1_555
N2 C1 1_555 1_555
C1 H1 1_555 1_555
C2 N2 1_555 1_555
H2 C2 1_555 1_555
C3 N1 1_555 1_555
H3 C3 1_555 1_555
C4 N1 1_555 1_555
H4 C4 1_555 1_555
H5 C4 1_555 1_555
C5 C4 1_555 1_555
C6 C5 1_555 1_555
H6 C6 1_555 1_555
C7 C6 1_555 1_555
H7 C7 1_555 1_555
C8 C7 1_555 1_555
C9 C8 1_555 1_555
H8 C9 1_555 1_555
C10 C5 1_555 1_555
H9 C10 1_555 1_555
O2 Cl1 1_555 1_555
O3 Cl1 1_555 1_555
O4 Cl1 1_555 1_555
H10 N2 1_555 1_555
C8B C8 1_555 1_555
C7B C8B 1_555 1_555
C6B C7B 1_555 1_555
C5B C6B 1_555 1_555
C4B C5B 1_555 1_555
N1B C4B 1_555 1_555
C1B N1B 1_555 1_555
N2B C1B 1_555 1_555
C2B N2B 1_555 1_555
H2B C2B 1_555 1_555
C3B N1B 1_555 1_555
H3B C3B 1_555 1_555
H10B N2B 1_555 1_555
H1B C1B 1_555 1_555
H4B C4B 1_555 1_555
H5B C4B 1_555 1_555
C10B C5B 1_555 1_555
C9B C8B 1_555 1_555
H8B C9B 1_555 1_555
H9B C10B 1_555 1_555
H6B C6B 1_555 1_555
H7B C7B 1_555 1_555
C2 C3 1_555 1_555
C9 C10 1_555 1_555
C2B C3B 1_555 1_555
C10B C9B 1_555 1_555

#END
