
#######################################################################
#
#                 Cambridge Crystallographic Data Centre
#                                CCDC 
#
#######################################################################
#
# If this CIF has been generated from an entry in the Cambridge 
# Structural Database, then it will include bibliographic, chemical, 
# crystal, experimental, refinement or atomic coordinate data resulting 
# from the CCDC's data processing and validation procedures.
#
#######################################################################

data_WIVJER
_chemical_formula_moiety         'C17 H18 O3'
_chemical_name_systematic        1,3-bis(p-Methoxyphenyl)acetone
_symmetry_cell_setting           monoclinic
_symmetry_space_group_name_H-M   'C 2/c'
_symmetry_Int_Tables_number      15
_space_group_name_Hall           '-C 2yn'
loop_
_symmetry_equiv_pos_site_id
_symmetry_equiv_pos_as_xyz
1 x,y,z
2 1/2+x,1/2+y,z
3 -x,y,1/2-z
4 1/2-x,1/2+y,1/2-z
5 -x,-y,-z
6 1/2-x,1/2-y,-z
7 x,-y,1/2+z
8 1/2+x,1/2-y,1/2+z
_cell_length_a                   27.502(4)
_cell_length_b                   5.7391(9)
_cell_length_c                   9.1652(12)
_cell_angle_alpha                90
_cell_angle_beta                 105.962(9)
_cell_angle_gamma                90
_cell_volume                     1390.83
_exptl_crystal_colour            colorless
_exptl_crystal_description       Plate
_cell_formula_units_Z            4
loop_
_atom_site_label
_atom_site_type_symbol
_atom_site_fract_x
_atom_site_fract_y
_atom_site_fract_z
O1 O 0.5000 0.7091(3) 0.7500
O2 O 0.29549(4) 0.21348(19) 0.89292(13)
C1 C 0.5000 0.4972(4) 0.7500
C2 C 0.45965(6) 0.3608(3) 0.6370(2)
H1 H 0.4737 0.2115 0.6128
H2 H 0.4473 0.4508 0.5419
C3 C 0.41634(6) 0.3145(3) 0.70706(18)
C4 C 0.37879(6) 0.4818(3) 0.69656(18)
H3 H 0.3803 0.6239 0.6448
C5 C 0.33935(6) 0.4439(3) 0.76037(18)
H4 H 0.3140 0.5595 0.7518
C6 C 0.33673(6) 0.2367(2) 0.83710(17)
C7 C 0.37434(6) 0.0704(3) 0.85174(19)
H5 H 0.3732 -0.0697 0.9059
C8 C 0.41386(6) 0.1103(3) 0.78628(19)
H6 H 0.4395 -0.0043 0.7961
C9 C 0.29039(6) -0.0008(3) 0.9654(2)
H7 H 0.2599 0.0041 1.0009
H8 H 0.3201 -0.0249 1.0521
H9 H 0.2877 -0.1292 0.8931
O2B O 0.70451(4) 0.21348(19) 0.60708(13)
C2B C 0.54035(6) 0.3608(3) 0.8630(2)
H1B H 0.5263 0.2115 0.8872
H2B H 0.5527 0.4508 0.9581
C3B C 0.58366(6) 0.3145(3) 0.79294(18)
C4B C 0.62121(6) 0.4818(3) 0.80344(18)
H3B H 0.6197 0.6239 0.8552
C5B C 0.66065(6) 0.4439(3) 0.73963(18)
H4B H 0.6860 0.5595 0.7482
C6B C 0.66327(6) 0.2367(2) 0.66290(17)
C7B C 0.62566(6) 0.0704(3) 0.64826(19)
H5B H 0.6268 -0.0697 0.5941
C8B C 0.58614(6) 0.1103(3) 0.71372(19)
H6B H 0.5605 -0.0043 0.7039
C9B C 0.70961(6) -0.0008(3) 0.5346(2)
H7B H 0.7401 0.0041 0.4991
H8B H 0.6799 -0.0249 0.4479
H9B H 0.7123 -0.1292 0.6069
loop_
_geom_bond_atom_site_label_1
_geom_bond_atom_site_label_2
_geom_bond_site_symmetry_1
_geom_bond_site_symmetry_2
O1 C1 1_555 1_555
O2 C6 1_555 1_555
C1 C2 1_555 1_555
C2 H1 1_555 1_555
H2 C2 1_555 1_555
C3 C2 1_555 1_555
C4 C3 1_555 1_555
H3 C4 1_555 1_555
C5 C4 1_555 1_555
H4 C5 1_555 1_555
C6 C5 1_555 1_555
C7 C6 1_555 1_555
H5 C7 1_555 1_555
C8 C3 1_555 1_555
H6 C8 1_555 1_555
C9 O2 1_555 1_555
H7 C9 1_555 1_555
H8 C9 1_555 1_555
H9 C9 1_555 1_555
O2B C6B 1_555 1_555
C2B C1 1_555 1_555
H1B C2B 1_555 1_555
H2B C2B 1_555 1_555
C3B C2B 1_555 1_555
C4B C3B 1_555 1_555
H3B C4B 1_555 1_555
C5B C4B 1_555 1_555
H4B C5B 1_555 1_555
C6B C5B 1_555 1_555
C7B C6B 1_555 1_555
H5B C7B 1_555 1_555
C8B C3B 1_555 1_555
H6B C8B 1_555 1_555
C9B O2B 1_555 1_555
H7B C9B 1_555 1_555
H8B C9B 1_555 1_555
H9B C9B 1_555 1_555
C7 C8 1_555 1_555
C7B C8B 1_555 1_555

#END
