
#######################################################################
#
#                 Cambridge Crystallographic Data Centre
#                                CCDC 
#
#######################################################################
#
# If this CIF has been generated from an entry in the Cambridge 
# Structural Database, then it will include bibliographic, chemical, 
# crystal, experimental, refinement or atomic coordinate data resulting 
# from the CCDC's data processing and validation procedures.
#
#######################################################################

data_WIVKES
_chemical_formula_moiety         'C27 H30 B1 N1'
_chemical_name_systematic        N-(Dimesitylboryl)-3-methylindole
_symmetry_cell_setting           triclinic
_symmetry_space_group_name_H-M   'P -1'
_symmetry_Int_Tables_number      2
_space_group_name_Hall           '-P 1'
loop_
_symmetry_equiv_pos_site_id
_symmetry_equiv_pos_as_xyz
1 x,y,z
2 -x,-y,-z
_cell_length_a                   8.635(4)
_cell_length_b                   11.606(6)
_cell_length_c                   12.262(7)
_cell_angle_alpha                99.281(9)
_cell_angle_beta                 98.716(9)
_cell_angle_gamma                107.487(9)
_cell_volume                     1130.32
_chemical_melting_point          191deg.C
_cell_formula_units_Z            2
loop_
_atom_site_label
_atom_site_type_symbol
_atom_site_fract_x
_atom_site_fract_y
_atom_site_fract_z
B1 B 0.2845(3) 0.8751(2) 0.23116(19)
N1 N 0.1574(2) 0.80103(16) 0.27892(14)
C1 C 0.1014(3) 0.8503(3) 0.37602(19)
H1 H 0.139(3) 0.939(2) 0.4090(19)
C2 C 0.0043(3) 0.7588(3) 0.4137(2)
C3 C -0.1065(3) 0.5207(3) 0.3331(3)
H2 H -0.172(4) 0.510(3) 0.398(3)
C4 C -0.1023(4) 0.4313(3) 0.2463(3)
H3 H -0.174(4) 0.344(3) 0.243(2)
C5 C -0.0119(3) 0.4614(2) 0.1674(2)
H4 H -0.0131 0.3989 0.1090
C6 C 0.0830(3) 0.5837(2) 0.1716(2)
H5 H 0.142(3) 0.605(2) 0.1120(19)
C7 C 0.0809(2) 0.6724(2) 0.25734(19)
C8 C -0.0147(2) 0.6454(2) 0.33889(19)
C9 C 0.3941(2) 0.81182(18) 0.16889(17)
C10 C 0.4044(2) 0.81497(18) 0.05689(17)
C11 C 0.5045(3) 0.7598(2) 0.0055(2)
H6 H 0.508(2) 0.7602(19) -0.073(2)
C12 C 0.5994(3) 0.7023(2) 0.0632(2)
C13 C 0.5898(3) 0.7007(2) 0.1740(2)
H7 H 0.651(3) 0.6655(19) 0.2161(17)
C14 C 0.4892(2) 0.75369(19) 0.22814(18)
C15 C 0.4897(3) 0.7464(2) 0.34987(19)
H8 H 0.5742 0.7137 0.3771
H9 H 0.3832 0.6932 0.3553
H10 H 0.5120 0.8277 0.3947
C16 C 0.7066(3) 0.6415(3) 0.0069(2)
H11 H 0.7674 0.6951 -0.0353
H12 H 0.6378 0.5646 -0.0433
H13 H 0.7831 0.6260 0.0634
C17 C 0.3038(3) 0.8747(2) -0.01197(18)
H14 H 0.3297 0.9596 0.0255
H15 H 0.1876 0.8314 -0.0197
H16 H 0.3301 0.8712 -0.0855
C18 C 0.3103(2) 1.01769(18) 0.25152(16)
C19 C 0.4652(2) 1.1066(2) 0.30544(17)
C20 C 0.4813(3) 1.2314(2) 0.32682(19)
H17 H 0.590(3) 1.288(2) 0.3664(19)
C21 C 0.3535(3) 1.2734(2) 0.2944(2)
C22 C 0.2033(3) 1.1865(2) 0.23836(19)
H18 H 0.113(3) 1.217(2) 0.2172(19)
C23 C 0.1781(2) 1.06066(19) 0.21781(17)
C24 C 0.0071(3) 0.9737(2) 0.1585(2)
H19 H -0.0530 1.0180 0.1200
H20 H -0.0512 0.9401 0.2131
H21 H 0.0165 0.9075 0.1047
C25 C 0.3768(4) 1.4102(2) 0.3204(3)
H22 H 0.2717 1.4212 0.3237
H23 H 0.4209 1.4470 0.2621
H24 H 0.4526 1.4492 0.3918
C26 C 0.6159(3) 1.0719(2) 0.3438(2)
H25 H 0.7108 1.1456 0.3726
H26 H 0.6358 1.0213 0.2810
H27 H 0.5972 1.0266 0.4023
C27 C -0.0715(3) 0.7720(3) 0.5149(2)
H28 H -0.0404 0.8581 0.5501
H29 H -0.0325 0.7290 0.5678
H30 H -0.1903 0.7373 0.4918
loop_
_geom_bond_atom_site_label_1
_geom_bond_atom_site_label_2
_geom_bond_site_symmetry_1
_geom_bond_site_symmetry_2
B1 N1 1_555 1_555
N1 C1 1_555 1_555
C1 H1 1_555 1_555
C2 C1 1_555 1_555
C3 H2 1_555 1_555
C4 C3 1_555 1_555
H3 C4 1_555 1_555
C5 C4 1_555 1_555
H4 C5 1_555 1_555
C6 C5 1_555 1_555
H5 C6 1_555 1_555
C7 N1 1_555 1_555
C8 C2 1_555 1_555
C9 B1 1_555 1_555
C10 C9 1_555 1_555
C11 C10 1_555 1_555
H6 C11 1_555 1_555
C12 C11 1_555 1_555
C13 C12 1_555 1_555
H7 C13 1_555 1_555
C14 C9 1_555 1_555
C15 C14 1_555 1_555
H8 C15 1_555 1_555
H9 C15 1_555 1_555
H10 C15 1_555 1_555
C16 C12 1_555 1_555
H11 C16 1_555 1_555
H12 C16 1_555 1_555
H13 C16 1_555 1_555
C17 C10 1_555 1_555
H14 C17 1_555 1_555
H15 C17 1_555 1_555
H16 C17 1_555 1_555
C18 B1 1_555 1_555
C19 C18 1_555 1_555
C20 C19 1_555 1_555
H17 C20 1_555 1_555
C21 C20 1_555 1_555
C22 C21 1_555 1_555
H18 C22 1_555 1_555
C23 C18 1_555 1_555
C24 C23 1_555 1_555
H19 C24 1_555 1_555
H20 C24 1_555 1_555
H21 C24 1_555 1_555
C25 C21 1_555 1_555
H22 C25 1_555 1_555
H23 C25 1_555 1_555
H24 C25 1_555 1_555
C26 C19 1_555 1_555
H25 C26 1_555 1_555
H26 C26 1_555 1_555
H27 C26 1_555 1_555
C27 C2 1_555 1_555
H28 C27 1_555 1_555
H29 C27 1_555 1_555
H30 C27 1_555 1_555
C3 C8 1_555 1_555
C6 C7 1_555 1_555
C7 C8 1_555 1_555
C13 C14 1_555 1_555
C22 C23 1_555 1_555

#END
