
#######################################################################
#
#                 Cambridge Crystallographic Data Centre
#                                CCDC 
#
#######################################################################
#
# If this CIF has been generated from an entry in the Cambridge 
# Structural Database, then it will include bibliographic, chemical, 
# crystal, experimental, refinement or atomic coordinate data resulting 
# from the CCDC's data processing and validation procedures.
#
#######################################################################

data_WIVZOQ
_chemical_formula_moiety         'C34 H24 N4 O4 S2'
_chemical_name_systematic        
1-(4-(Dimethylamino)phenyl)-3-(2-(4-(dimethylamino)phenyl)ethynyl)-4-(2-(5-nitro-2-thienyl)ethynyl)-6-(5-nitro-2-thienyl)hex-3-ene-1,5-diyne
_symmetry_cell_setting           triclinic
_symmetry_space_group_name_H-M   'P -1'
_symmetry_Int_Tables_number      2
_space_group_name_Hall           '-P 1'
loop_
_symmetry_equiv_pos_site_id
_symmetry_equiv_pos_as_xyz
1 x,y,z
2 -x,-y,-z
_cell_length_a                   7.751(2)
_cell_length_b                   14.022(4)
_cell_length_c                   14.220(2)
_cell_angle_alpha                94.18(2)
_cell_angle_beta                 91.20(2)
_cell_angle_gamma                103.39(2)
_cell_volume                     1498.34
_exptl_crystal_colour            black
_chemical_melting_point          'decomposes at 210deg.C'
_cell_formula_units_Z            2
_exptl_crystal_recrystallization_method dichloromethane/acetonitrile
loop_
_atom_site_label
_atom_site_type_symbol
_atom_site_fract_x
_atom_site_fract_y
_atom_site_fract_z
S1 S 0.15607(9) 0.18795(5) 0.26096(5)
S2 S 0.78178(9) 0.35341(5) 0.68470(5)
C1 C 0.2767(3) -0.05657(19) 0.59380(17)
C2 C 0.3364(3) -0.07872(19) 0.68252(18)
C3 C 0.3776(3) -0.1057(2) 0.75623(18)
C4 C 0.4234(3) -0.14484(19) 0.84019(17)
C5 C 0.3557(4) -0.2444(2) 0.85371(19)
H1 H 0.2717 -0.2841 0.8078
C6 C 0.4057(4) -0.28528(19) 0.93123(18)
H2 H 0.3586 -0.3539 0.9383
C7 C 0.5268(3) -0.22881(19) 1.00025(17)
C8 C 0.5873(3) -0.12834(19) 0.98892(18)
H3 H 0.6650 -0.0875 1.0369
C9 C 0.5389(3) -0.08775(19) 0.91116(17)
H4 H 0.5847 -0.0191 0.9040
N1 N 0.5803(3) -0.27118(17) 1.07651(16)
C10 C 0.7076(4) -0.2133(3) 1.1461(2)
H5 H 0.7170 -0.1447 1.1390
H6 H 0.6692 -0.2282 1.2082
H7 H 0.8212 -0.2282 1.1372
C11 C 0.5476(6) -0.3774(3) 1.0755(3)
H8 H 0.4609 -0.4068 1.0262
H9 H 0.6558 -0.3978 1.0642
H10 H 0.5038 -0.3978 1.1352
C12 C 0.3354(3) 0.03503(19) 0.55924(17)
C13 C 0.2738(3) 0.05407(18) 0.46961(18)
C14 C 0.2179(3) 0.06607(19) 0.39300(18)
C15 C 0.1488(3) 0.07486(19) 0.30264(18)
C16 C 0.0677(4) -0.0007(2) 0.23714(19)
H11 H 0.0496 -0.0690 0.2478
C17 C 0.0163(4) 0.0328(2) 0.15360(19)
H12 H -0.0380 -0.0086 0.0991
C18 C 0.0552(3) 0.1320(2) 0.15732(18)
N2 N 0.0260(3) 0.1893(2) 0.08192(17)
O1 O -0.0520(3) 0.1460(2) 0.00885(15)
O2 O 0.0812(4) 0.2790(2) 0.09378(18)
C19 C 0.4606(3) 0.10929(19) 0.61386(17)
C20 C 0.5683(3) 0.1690(2) 0.66292(19)
C21 C 0.6942(3) 0.23826(19) 0.72168(19)
C22 C 0.7599(4) 0.2280(2) 0.8094(2)
H13 H 0.7250 0.1686 0.8409
C23 C 0.8822(4) 0.3123(2) 0.8489(2)
H14 H 0.9415 0.3190 0.9098
C24 C 0.9058(3) 0.3850(2) 0.7875(2)
N3 N 1.0217(3) 0.4816(2) 0.8027(2)
O3 O 1.1174(4) 0.4988(2) 0.8731(2)
O4 O 1.0170(4) 0.53941(17) 0.7423(2)
C25 C 0.1536(3) -0.13490(19) 0.54298(17)
C26 C 0.0438(3) -0.20626(19) 0.51126(17)
C27 C -0.0824(3) -0.29302(18) 0.47659(17)
C28 C -0.1014(4) -0.3792(2) 0.52392(19)
H15 H -0.0340 -0.3766 0.5818
C29 C -0.2146(4) -0.4657(2) 0.4889(2)
H16 H -0.2254 -0.5236 0.5225
C30 C -0.3156(3) -0.47176(19) 0.40424(19)
C31 C -0.3012(4) -0.3843(2) 0.35938(19)
H17 H -0.3696 -0.3853 0.3021
C32 C -0.1870(4) -0.2977(2) 0.39513(19)
H18 H -0.1800 -0.2389 0.3634
N4 N -0.4217(3) -0.55887(17) 0.36676(17)
C33 C -0.5253(5) -0.5641(2) 0.2804(2)
H19 H -0.5070 -0.4991 0.2594
H20 H -0.4889 -0.6067 0.2328
H21 H -0.6489 -0.5886 0.2915
C34 C -0.4296(5) -0.6502(2) 0.4123(3)
H22 H -0.3543 -0.6359 0.4684
H23 H -0.5494 -0.6780 0.4285
H24 H -0.3893 -0.6962 0.3699
loop_
_geom_bond_atom_site_label_1
_geom_bond_atom_site_label_2
_geom_bond_site_symmetry_1
_geom_bond_site_symmetry_2
S1 C15 1_555 1_555
S2 C21 1_555 1_555
C1 C2 1_555 1_555
C2 C3 1_555 1_555
C3 C4 1_555 1_555
C4 C5 1_555 1_555
C5 H1 1_555 1_555
C6 C5 1_555 1_555
H2 C6 1_555 1_555
C7 C6 1_555 1_555
C8 C7 1_555 1_555
H3 C8 1_555 1_555
C9 C4 1_555 1_555
H4 C9 1_555 1_555
N1 C7 1_555 1_555
C10 N1 1_555 1_555
H5 C10 1_555 1_555
H6 C10 1_555 1_555
H7 C10 1_555 1_555
C11 N1 1_555 1_555
H8 C11 1_555 1_555
H9 C11 1_555 1_555
H10 C11 1_555 1_555
C12 C1 1_555 1_555
C13 C12 1_555 1_555
C14 C13 1_555 1_555
C15 C14 1_555 1_555
C16 C15 1_555 1_555
H11 C16 1_555 1_555
C17 C16 1_555 1_555
H12 C17 1_555 1_555
C18 S1 1_555 1_555
N2 C18 1_555 1_555
O1 N2 1_555 1_555
O2 N2 1_555 1_555
C19 C12 1_555 1_555
C20 C19 1_555 1_555
C21 C20 1_555 1_555
C22 C21 1_555 1_555
H13 C22 1_555 1_555
C23 C22 1_555 1_555
H14 C23 1_555 1_555
C24 S2 1_555 1_555
N3 C24 1_555 1_555
O3 N3 1_555 1_555
O4 N3 1_555 1_555
C25 C1 1_555 1_555
C26 C25 1_555 1_555
C27 C26 1_555 1_555
C28 C27 1_555 1_555
H15 C28 1_555 1_555
C29 C28 1_555 1_555
H16 C29 1_555 1_555
C30 C29 1_555 1_555
C31 C30 1_555 1_555
H17 C31 1_555 1_555
C32 C27 1_555 1_555
H18 C32 1_555 1_555
N4 C30 1_555 1_555
C33 N4 1_555 1_555
H19 C33 1_555 1_555
H20 C33 1_555 1_555
H21 C33 1_555 1_555
C34 N4 1_555 1_555
H22 C34 1_555 1_555
H23 C34 1_555 1_555
H24 C34 1_555 1_555
C8 C9 1_555 1_555
C17 C18 1_555 1_555
C23 C24 1_555 1_555
C31 C32 1_555 1_555

#END
