
#######################################################################
#
#                 Cambridge Crystallographic Data Centre
#                                CCDC 
#
#######################################################################
#
# If this CIF has been generated from an entry in the Cambridge 
# Structural Database, then it will include bibliographic, chemical, 
# crystal, experimental, refinement or atomic coordinate data resulting 
# from the CCDC's data processing and validation procedures.
#
#######################################################################

data_WIWVII
_chemical_formula_moiety         'C23 H46 Li1 N1 O1 Si2'
_chemical_name_systematic        
'(2,6-diisopropylphenyl(bis(trimethylsilyl)methyl)amido)-(diethyl ether)-lithium'
_symmetry_cell_setting           monoclinic
_symmetry_space_group_name_H-M   'P 21/n'
_symmetry_Int_Tables_number      14
_space_group_name_Hall           '-P 2yn'
loop_
_symmetry_equiv_pos_site_id
_symmetry_equiv_pos_as_xyz
1 x,y,z
2 1/2-x,1/2+y,1/2-z
3 -x,-y,-z
4 1/2+x,1/2-y,1/2+z
_cell_length_a                   9.9324(12)
_cell_length_b                   17.397(2)
_cell_length_c                   16.0983(18)
_cell_angle_alpha                90
_cell_angle_beta                 101.203(2)
_cell_angle_gamma                90
_cell_volume                     2728.68
_exptl_crystal_colour            colorless
_exptl_crystal_description       prism
_chemical_melting_point          '53-55 deg.C'
_cell_formula_units_Z            4
_exptl_crystal_recrystallization_method n-hexane
loop_
_atom_site_label
_atom_site_type_symbol
_atom_site_fract_x
_atom_site_fract_y
_atom_site_fract_z
Si1 Si 0.76988(5) 0.14096(2) 0.37785(3)
Si2 Si 0.65241(4) -0.02589(2) 0.31105(2)
O1 O 1.02249(13) -0.10120(7) 0.18005(8)
N1 N 0.82652(13) 0.05984(7) 0.23932(8)
C1 C 0.85742(16) 0.11794(8) 0.18624(10)
C2 C 0.99856(18) 0.14031(9) 0.19315(11)
C3 C 1.0326(2) 0.19848(10) 0.14127(14)
H1 H 1.1264 0.2124 0.1463
C4 C 0.9357(2) 0.23633(10) 0.08315(14)
H2 H 0.9610 0.2776 0.0507
C5 C 0.8003(2) 0.21299(9) 0.07297(11)
H3 H 0.7329 0.2382 0.0321
C6 C 0.75983(18) 0.15360(9) 0.12091(10)
C7 C 1.11249(18) 0.10486(11) 0.25843(13)
H4 H 1.0699 0.0645 0.2893
C8 C 1.1819(2) 0.16377(14) 0.32461(18)
H5 H 1.2285 0.2029 0.2967
H6 H 1.2491 0.1375 0.3680
H7 H 1.1122 0.1883 0.3512
C9 C 1.2215(2) 0.06504(13) 0.21731(16)
H8 H 1.1769 0.0274 0.1756
H9 H 1.2880 0.0388 0.2610
H10 H 1.2690 0.1036 0.1891
C10 C 0.61263(18) 0.12539(10) 0.09604(10)
H11 H 0.6029 0.0789 0.1310
C11 C 0.5084(2) 0.18542(11) 0.11338(12)
H12 H 0.5273 0.1986 0.1737
H13 H 0.4154 0.1643 0.0977
H14 H 0.5158 0.2317 0.0798
C12 C 0.5786(2) 0.10146(12) 0.00229(11)
H15 H 0.5807 0.1468 -0.0335
H16 H 0.4870 0.0783 -0.0104
H17 H 0.6466 0.0640 -0.0090
C13 C 0.71282(15) 0.07260(8) 0.28698(9)
H18 H 0.6357 0.0979 0.2472
C14 C 0.91884(19) 0.10080(10) 0.45483(11)
H19 H 0.9901 0.0842 0.4243
H20 H 0.8883 0.0567 0.4843
H21 H 0.9561 0.1404 0.4962
C15 C 0.81479(19) 0.23699(9) 0.33824(11)
H22 H 0.8533 0.2699 0.3864
H23 H 0.7320 0.2611 0.3055
H24 H 0.8826 0.2303 0.3020
C16 C 0.6299(2) 0.16246(11) 0.43790(12)
H25 H 0.6559 0.2071 0.4746
H26 H 0.6163 0.1179 0.4726
H27 H 0.5445 0.1736 0.3978
C17 C 0.80285(17) -0.09273(9) 0.34261(11)
H28 H 0.7782 -0.1338 0.3786
H29 H 0.8814 -0.0639 0.3739
H30 H 0.8272 -0.1153 0.2917
C18 C 0.54168(17) -0.06805(10) 0.21482(11)
H31 H 0.5139 -0.1201 0.2276
H32 H 0.5931 -0.0702 0.1687
H33 H 0.4599 -0.0360 0.1976
C19 C 0.5532(2) -0.02855(10) 0.39864(12)
H34 H 0.4800 0.0101 0.3881
H35 H 0.6148 -0.0174 0.4526
H36 H 0.5127 -0.0797 0.4011
C20 C 0.8690(3) -0.06537(15) 0.05263(13)
H37 H 0.7911 -0.0837 0.0762
H38 H 0.8488 -0.0719 -0.0090
H39 H 0.8850 -0.0109 0.0664
C21 C 0.9938(2) -0.11039(13) 0.08944(14)
H40 H 0.9787 -0.1654 0.0748
H41 H 1.0728 -0.0921 0.0657
C22 C 1.1405(2) -0.14488(12) 0.22034(18)
H42 H 1.2210 -0.1305 0.1958
H43 H 1.1228 -0.2004 0.2100
C23 C 1.1705(2) -0.12962(13) 0.31337(17)
H44 H 1.1859 -0.0745 0.3234
H45 H 1.2527 -0.1581 0.3399
H46 H 1.0924 -0.1462 0.3379
Li1 Li 0.9205(3) -0.03159(17) 0.2347(2)
loop_
_geom_bond_atom_site_label_1
_geom_bond_atom_site_label_2
_geom_bond_site_symmetry_1
_geom_bond_site_symmetry_2
Si1 C13 1_555 1_555
Si2 C13 1_555 1_555
O1 C21 1_555 1_555
N1 C1 1_555 1_555
C1 C2 1_555 1_555
C2 C3 1_555 1_555
C3 H1 1_555 1_555
C4 C3 1_555 1_555
H2 C4 1_555 1_555
C5 C4 1_555 1_555
H3 C5 1_555 1_555
C6 C1 1_555 1_555
C7 C2 1_555 1_555
H4 C7 1_555 1_555
C8 C7 1_555 1_555
H5 C8 1_555 1_555
H6 C8 1_555 1_555
H7 C8 1_555 1_555
C9 C7 1_555 1_555
H8 C9 1_555 1_555
H9 C9 1_555 1_555
H10 C9 1_555 1_555
C10 C6 1_555 1_555
H11 C10 1_555 1_555
C11 C10 1_555 1_555
H12 C11 1_555 1_555
H13 C11 1_555 1_555
H14 C11 1_555 1_555
C12 C10 1_555 1_555
H15 C12 1_555 1_555
H16 C12 1_555 1_555
H17 C12 1_555 1_555
C13 N1 1_555 1_555
H18 C13 1_555 1_555
C14 Si1 1_555 1_555
H19 C14 1_555 1_555
H20 C14 1_555 1_555
H21 C14 1_555 1_555
C15 Si1 1_555 1_555
H22 C15 1_555 1_555
H23 C15 1_555 1_555
H24 C15 1_555 1_555
C16 Si1 1_555 1_555
H25 C16 1_555 1_555
H26 C16 1_555 1_555
H27 C16 1_555 1_555
C17 Si2 1_555 1_555
H28 C17 1_555 1_555
H29 C17 1_555 1_555
H30 C17 1_555 1_555
C18 Si2 1_555 1_555
H31 C18 1_555 1_555
H32 C18 1_555 1_555
H33 C18 1_555 1_555
C19 Si2 1_555 1_555
H34 C19 1_555 1_555
H35 C19 1_555 1_555
H36 C19 1_555 1_555
C20 H37 1_555 1_555
H38 C20 1_555 1_555
H39 C20 1_555 1_555
C21 C20 1_555 1_555
H40 C21 1_555 1_555
H41 C21 1_555 1_555
C22 O1 1_555 1_555
H42 C22 1_555 1_555
H43 C22 1_555 1_555
C23 C22 1_555 1_555
H44 C23 1_555 1_555
H45 C23 1_555 1_555
H46 C23 1_555 1_555
Li1 O1 1_555 1_555
N1 Li1 1_555 1_555
C5 C6 1_555 1_555

#END
