
#######################################################################
#
#                 Cambridge Crystallographic Data Centre
#                                CCDC 
#
#######################################################################
#
# If this CIF has been generated from an entry in the Cambridge 
# Structural Database, then it will include bibliographic, chemical, 
# crystal, experimental, refinement or atomic coordinate data resulting 
# from the CCDC's data processing and validation procedures.
#
#######################################################################

data_WIXBEM
_chemical_formula_moiety         'C50 H68 N20 O12 4+,13.14(H2 O1),4(Cl1 1-)'
_chemical_name_systematic        
"2,2',2'',2'''-((19b,19c,25b,25c-tetramethyl-6,8,10,12,19,21,23,25-octaoxo-5,13,18,19b,19c,21b,21c,23b,23c,25b,25c,26-dodecahydro-5a,6a,7a,8a,9a,10a,11a,12a,18a,19a,20a,21a,22a,23a,24a,25a-hexadecaazabenzo[5,6]cyclohepta[1,2,3-cd]benzo[5'''''',6'''''']cyclohepta[1'''''',2'''''',3'''''':3''''',4''''']pentaleno[1''''',6''''':5'''',6'''',7'''']cycloocta[1'''',2'''',3'''':3''',4''']pentaleno[1''',6''':5'',6'',7'']cycloocta[1'',2'',3'':3',4']pentaleno[1',6':5,6,7]cycloocta[1,2,3-gh]pentalene-1,4,14,17-tetrayl)tetrakis(oxy))tetraethanaminium tetrachloride hydrate"
_symmetry_cell_setting           monoclinic
_symmetry_space_group_name_H-M   'P 21'
_symmetry_Int_Tables_number      4
_space_group_name_Hall           'P 2yb'
loop_
_symmetry_equiv_pos_site_id
_symmetry_equiv_pos_as_xyz
1 x,y,z
2 -x,1/2+y,-z
_cell_length_a                   13.7177(10)
_cell_length_b                   27.048(2)
_cell_length_c                   18.9817(14)
_cell_angle_alpha                90
_cell_angle_beta                 92.5526(12)
_cell_angle_gamma                90
_cell_volume                     7035.91
_exptl_crystal_colour            colorless
_exptl_crystal_description       plate
_cell_formula_units_Z            4
loop_
_atom_site_label
_atom_site_type_symbol
_atom_site_fract_x
_atom_site_fract_y
_atom_site_fract_z
O1 O 0.8542(3) 0.48303(12) 0.63811(15)
N2 N 1.0061(6) 0.4235(2) 0.5718(3)
H8 H 1.0289 0.4409 0.6101
H9 H 1.0557 0.4179 0.5425
H10 H 0.9816 0.3940 0.5861
C3 C 0.9275(5) 0.4523(2) 0.5337(3)
H11 H 0.9121 0.4366 0.4874
H12 H 0.9514 0.4862 0.5249
C4 C 0.8342(6) 0.4552(3) 0.5753(3)
H13 H 0.7815 0.4713 0.5463
H14 H 0.8123 0.4215 0.5874
C5 C 0.7905(3) 0.48211(15) 0.69245(19)
C6 C 0.6989(4) 0.46070(16) 0.6879(2)
H15 H 0.6758 0.4461 0.6448
C7 C 0.6409(3) 0.46024(15) 0.7451(2)
H16 H 0.5779 0.4457 0.7410
C8 C 0.6738(3) 0.48090(14) 0.8088(2)
O2 O 0.6230(2) 0.48040(11) 0.86920(14)
C9 C 0.5280(3) 0.45835(14) 0.8664(2)
H17 H 0.5315 0.4235 0.8507
H18 H 0.4835 0.4766 0.8332
C10 C 0.4925(3) 0.46118(15) 0.9403(2)
H19 H 0.4940 0.4960 0.9565
H20 H 0.4241 0.4495 0.9406
N3 N 0.5549(3) 0.43027(12) 0.98963(17)
H21 H 0.5516 0.3981 0.9757
H22 H 0.5332 0.4330 1.0341
H23 H 0.6178 0.4409 0.9891
C11 C 0.8235(3) 0.50530(14) 0.75492(18)
C12 C 0.7653(3) 0.50442(13) 0.81323(18)
C13 C 0.9219(3) 0.53047(15) 0.75891(18)
H24 H 0.9634 0.5146 0.7964
H25 H 0.9538 0.5256 0.7136
C14 C 0.7988(3) 0.52928(13) 0.88194(17)
H26 H 0.7490 0.5238 0.9174
H27 H 0.8603 0.5137 0.8999
N4 N 0.9162(2) 0.58329(12) 0.77340(14)
C15 C 0.9017(2) 0.60292(13) 0.84412(16)
C16 C 0.9909(2) 0.59405(14) 0.89294(17)
H28 H 0.9793 0.6077 0.9397
H29 H 1.0477 0.6103 0.8736
H30 H 1.0032 0.5584 0.8970
N5 N 0.8146(2) 0.58234(11) 0.87400(14)
O3 O 0.88973(18) 0.60916(11) 0.65766(12)
C17 C 0.8916(2) 0.61704(14) 0.72189(16)
C18 C 0.7439(2) 0.61682(12) 0.88413(15)
O4 O 0.66807(16) 0.61014(9) 0.91299(11)
N6 N 0.8716(2) 0.66105(12) 0.75282(14)
C19 C 0.8733(2) 0.65877(13) 0.83014(15)
C20 C 0.9426(3) 0.69643(14) 0.86425(18)
H31 H 1.0083 0.6914 0.8472
H32 H 0.9441 0.6924 0.9156
H33 H 0.9202 0.7299 0.8519
N7 N 0.7751(2) 0.66153(11) 0.85707(13)
C21 C 0.8620(3) 0.70562(15) 0.71170(18)
H34 H 0.8810 0.6985 0.6630
H35 H 0.9079 0.7306 0.7318
C22 C 0.7270(2) 0.70688(13) 0.87600(15)
H36 H 0.7765 0.7302 0.8960
H37 H 0.6806 0.6996 0.9131
N8 N 0.7642(2) 0.72633(12) 0.70886(14)
C23 C 0.7272(2) 0.75744(13) 0.76342(16)
H38 H 0.7790 0.7793 0.7852
N9 N 0.6741(2) 0.73063(11) 0.81638(14)
O5 O 0.7180(2) 0.70364(12) 0.59463(13)
C24 C 0.7061(3) 0.72832(15) 0.64835(17)
C25 C 0.5842(2) 0.75062(13) 0.82401(17)
O6 O 0.52897(19) 0.74084(10) 0.87168(13)
N10 N 0.6309(2) 0.76034(12) 0.65790(14)
C26 C 0.6452(3) 0.78737(13) 0.72458(16)
H39 H 0.6647 0.8225 0.7168
N11 N 0.5655(2) 0.78362(11) 0.77042(14)
C27 C 0.5776(3) 0.78257(15) 0.59787(18)
H40 H 0.5840 0.8190 0.6009
H41 H 0.6075 0.7717 0.5539
C28 C 0.4741(3) 0.81041(13) 0.75805(18)
H42 H 0.4421 0.8141 0.8035
H43 H 0.4889 0.8440 0.7406
N12 N 0.4762(2) 0.76985(13) 0.59415(15)
C29 C 0.4027(3) 0.79581(14) 0.63264(17)
H44 H 0.4016 0.8320 0.6215
N13 N 0.4069(2) 0.78678(12) 0.70823(15)
O7 O 0.48464(18) 0.70933(11) 0.50926(13)
C30 C 0.4384(3) 0.73382(14) 0.55008(17)
C31 C 0.3226(3) 0.76484(14) 0.72970(18)
O8 O 0.3011(2) 0.75936(11) 0.79106(13)
N14 N 0.3396(2) 0.73163(13) 0.55907(15)
C32 C 0.3068(3) 0.76975(15) 0.60675(17)
H45 H 0.2604 0.7933 0.5823
N15 N 0.2677(2) 0.75018(14) 0.67138(15)
C33 C 0.2745(2) 0.69740(15) 0.52217(16)
H46 H 0.3065 0.6852 0.4798
H47 H 0.2148 0.7154 0.5060
C34 C 0.1691(3) 0.73123(16) 0.67659(18)
H48 H 0.1437 0.7416 0.7223
H49 H 0.1268 0.7460 0.6386
N16 N 0.2465(2) 0.65526(13) 0.56379(14)
C35 C 0.1592(2) 0.65023(16) 0.60512(17)
C36 C 0.0670(3) 0.66210(18) 0.56114(18)
H50 H 0.0643 0.6977 0.5515
H51 H 0.0098 0.6523 0.5870
H52 H 0.0673 0.6439 0.5165
N17 N 0.1640(2) 0.67871(13) 0.67124(14)
O9 O 0.39354(18) 0.61504(12) 0.55235(13)
C37 C 0.3114(2) 0.61748(15) 0.57688(16)
C38 C 0.1606(2) 0.64881(16) 0.72992(17)
O10 O 0.15956(19) 0.66336(12) 0.79152(13)
N18 N 0.2699(2) 0.58349(13) 0.61697(15)
C39 C 0.1696(2) 0.59555(15) 0.63338(16)
C40 C 0.0994(3) 0.55724(17) 0.60082(18)
H53 H 0.1083 0.5552 0.5500
H54 H 0.0321 0.5670 0.6092
H55 H 0.1128 0.5249 0.6224
N19 N 0.1560(2) 0.60038(13) 0.70901(14)
C41 C 0.3253(3) 0.54391(15) 0.65229(17)
H56 H 0.3822 0.5354 0.6243
H57 H 0.2837 0.5141 0.6550
C42 C 0.1850(2) 0.56103(16) 0.75910(16)
H58 H 0.1691 0.5284 0.7378
H59 H 0.1476 0.5645 0.8022
C43 C 0.3605(2) 0.55902(14) 0.72592(17)
C44 C 0.2942(2) 0.56328(15) 0.77886(17)
N20 N 0.5957(2) 0.61677(17) 0.56641(18)
H60 H 0.5311 0.6103 0.5706
H61 H 0.6131 0.6092 0.5220
H62 H 0.6072 0.6494 0.5749
C45 C 0.6539(3) 0.58651(17) 0.6182(2)
H63 H 0.7222 0.5984 0.6207
H64 H 0.6540 0.5516 0.6023
C46 C 0.6120(3) 0.58957(16) 0.6909(2)
H65 H 0.6543 0.5718 0.7260
H66 H 0.6062 0.6244 0.7059
O11 O 0.51878(17) 0.56702(11) 0.68388(13)
C47 C 0.4597(2) 0.56981(13) 0.74047(17)
C48 C 0.4925(3) 0.58196(15) 0.80825(18)
H67 H 0.5595 0.5893 0.8179
C49 C 0.4270(3) 0.58339(14) 0.86238(18)
H68 H 0.4498 0.5908 0.9092
C50 C 0.3283(2) 0.57397(14) 0.84798(17)
O12 O 0.25911(18) 0.57540(11) 0.89857(12)
C51 C 0.2933(2) 0.57333(14) 0.97103(16)
H69 H 0.3278 0.6043 0.9846
H70 H 0.3389 0.5453 0.9787
C52 C 0.2045(3) 0.56667(13) 1.01384(16)
H71 H 0.2230 0.5709 1.0645
H72 H 0.1557 0.5924 1.0005
N21 N 0.1600(2) 0.51670(12) 1.00238(15)
H73 H 0.1470 0.5119 0.9555
H74 H 0.1035 0.5147 1.0257
H75 H 0.2023 0.4931 1.0191
O13 O 0.8590(3) 0.5841(2) 0.5104(2)
O15 O 0.6696(2) 0.77993(11) 0.30061(14)
N23 N 0.5286(5) 0.8415(3) 0.3653(3)
H83 H 0.5472 0.8738 0.3675
H84 H 0.4690 0.8381 0.3840
H85 H 0.5253 0.8315 0.3195
C55 C 0.6019(6) 0.8105(3) 0.4065(3)
H86 H 0.6185 0.8265 0.4523
H87 H 0.5733 0.7777 0.4160
C56 C 0.6922(14) 0.8041(14) 0.3666(9)
H88 H 0.7217 0.8368 0.3580
H89 H 0.7402 0.7841 0.3948
C57 C 0.7301(3) 0.78358(14) 0.24415(18)
C58 C 0.8192(3) 0.80534(15) 0.2479(2)
H90 H 0.8439 0.8191 0.2912
C59 C 0.8750(3) 0.80753(15) 0.1878(2)
H91 H 0.9373 0.8229 0.1901
C60 C 0.8386(3) 0.78719(13) 0.12525(18)
O16 O 0.88767(19) 0.78858(10) 0.06261(14)
C61 C 0.9836(3) 0.80885(15) 0.0656(2)
H92 H 1.0260 0.7907 0.1004
H93 H 0.9820 0.8441 0.0793
C62 C 1.0205(3) 0.80322(16) -0.0074(2)
H94 H 1.0901 0.8129 -0.0069
H95 H 1.0158 0.7681 -0.0217
N24 N 0.9643(3) 0.83400(15) -0.0598(2)
H96 H 0.9008 0.8241 -0.0620
H97 H 0.9898 0.8304 -0.1029
H98 H 0.9678 0.8663 -0.0465
C63 C 0.6920(3) 0.76173(13) 0.18118(17)
C64 C 0.7480(3) 0.76336(12) 0.12143(17)
C65 C 0.5926(2) 0.73704(13) 0.17830(18)
H99 H 0.5620 0.7420 0.2241
H100 H 0.5506 0.7533 0.1414
C66 C 0.7119(2) 0.73855(12) 0.05354(16)
H101 H 0.6499 0.7543 0.0368
H102 H 0.7603 0.7439 0.0171
N25 N 0.5963(2) 0.68417(10) 0.16336(13)
C67 C 0.6098(2) 0.66522(12) 0.09248(15)
C68 C 0.5197(2) 0.67402(14) 0.04390(17)
H103 H 0.5070 0.7096 0.0402
H104 H 0.4632 0.6575 0.0634
H105 H 0.5310 0.6606 -0.0030
N26 N 0.69603(19) 0.68535(10) 0.06159(14)
O17 O 0.62117(17) 0.65869(10) 0.27866(12)
C69 C 0.6195(2) 0.65101(13) 0.21483(16)
C70 C 0.7658(2) 0.65130(12) 0.05136(15)
O18 O 0.84352(17) 0.65813(9) 0.02235(11)
N27 N 0.6402(2) 0.60612(11) 0.18348(13)
C71 C 0.6380(2) 0.60927(12) 0.10599(15)
C72 C 0.5688(2) 0.57139(13) 0.07188(18)
H106 H 0.5713 0.5736 0.0205
H107 H 0.5021 0.5780 0.0859
H108 H 0.5883 0.5381 0.0874
N28 N 0.73606(19) 0.60656(10) 0.07832(13)
C73 C 0.6495(2) 0.56112(14) 0.22419(17)
H109 H 0.6043 0.5361 0.2031
H110 H 0.6291 0.5678 0.2726
C74 C 0.7866(2) 0.56154(12) 0.06124(15)
H111 H 0.8342 0.5689 0.0250
H112 H 0.7388 0.5376 0.0407
N29 N 0.7469(2) 0.54064(11) 0.22823(14)
C75 C 0.7858(2) 0.51017(12) 0.17315(16)
H113 H 0.7350 0.4883 0.1502
N30 N 0.8379(2) 0.53889(10) 0.12193(14)
O19 O 0.7912(2) 0.56237(11) 0.34300(13)
C76 C 0.8036(2) 0.53862(14) 0.28882(17)
C77 C 0.9320(2) 0.52150(12) 0.11554(17)
O20 O 0.98809(18) 0.53468(10) 0.07126(13)
N31 N 0.8784(2) 0.50554(11) 0.27982(14)
C78 C 0.8678(2) 0.48047(12) 0.21191(16)
H114 H 0.8499 0.4449 0.2173
N32 N 0.9496(2) 0.48671(11) 0.16772(14)
C79 C 0.9353(3) 0.48602(14) 0.33951(18)
H115 H 0.9057 0.4971 0.3835
H116 H 0.9321 0.4495 0.3382
C80 C 1.0406(3) 0.46026(13) 0.17925(18)
H117 H 1.0263 0.4266 0.1966
H118 H 1.0721 0.4567 0.1336
N33 N 1.0364(2) 0.50097(12) 0.34155(15)
C81 C 1.1111(3) 0.47563(13) 0.30456(17)
H119 H 1.1132 0.4396 0.3162
N34 N 1.1083(2) 0.48399(12) 0.22904(15)
O21 O 1.02459(18) 0.56108(10) 0.42685(12)
C82 C 1.0730(2) 0.53685(13) 0.38590(16)
C83 C 1.1913(3) 0.50641(13) 0.20723(17)
O22 O 1.2129(2) 0.51249(10) 0.14644(13)
N35 N 1.1715(2) 0.53974(12) 0.37759(15)
C84 C 1.2061(3) 0.50253(13) 0.33035(17)
H120 H 1.2525 0.4793 0.3554
N36 N 1.2458(2) 0.52111(11) 0.26634(14)
C85 C 1.2360(2) 0.57479(13) 0.41484(16)
H121 H 1.2033 0.5871 0.4569
H122 H 1.2960 0.5572 0.4315
C86 C 1.3434(3) 0.54073(14) 0.26065(18)
H123 H 1.3687 0.5305 0.2149
H124 H 1.3864 0.5263 0.2985
N37 N 1.2632(2) 0.61660(11) 0.37268(14)
C87 C 1.3504(2) 0.62231(14) 0.33176(16)
C88 C 1.4434(2) 0.61112(15) 0.37606(17)
H125 H 1.4452 0.5759 0.3882
H126 H 1.4443 0.6309 0.4194
H127 H 1.5004 0.6194 0.3491
N38 N 1.3470(2) 0.59416(11) 0.26583(14)
O23 O 1.11549(17) 0.65592(10) 0.38339(12)
C89 C 1.1971(2) 0.65408(13) 0.35929(15)
C90 C 1.3498(2) 0.62376(14) 0.20653(16)
O24 O 1.35197(18) 0.60899(10) 0.14563(12)
N39 N 1.23887(19) 0.68904(11) 0.31939(13)
C91 C 1.3397(2) 0.67710(13) 0.30325(15)
C92 C 1.4094(2) 0.71550(14) 0.33581(17)
H128 H 1.4764 0.7075 0.3237
H129 H 1.4049 0.7153 0.3872
H130 H 1.3919 0.7483 0.3174
N40 N 1.35321(19) 0.67206(11) 0.22774(13)
C93 C 1.1820(2) 0.72747(13) 0.28353(16)
H131 H 1.2221 0.7578 0.2806
H132 H 1.1245 0.7354 0.3111
C94 C 1.3233(2) 0.71138(13) 0.17697(16)
H133 H 1.3612 0.7082 0.1340
H134 H 1.3376 0.7442 0.1982
C95 C 1.1483(2) 0.71158(12) 0.20998(16)
C96 C 1.2163(2) 0.70771(13) 0.15738(16)
N41 N 0.9138(2) 0.65142(13) 0.37036(16)
H135 H 0.9044 0.6185 0.3624
H136 H 0.8940 0.6593 0.4141
H137 H 0.9783 0.6587 0.3676
C97 C 0.8560(3) 0.68046(16) 0.31622(19)
H138 H 0.8544 0.7156 0.3308
H139 H 0.7880 0.6681 0.3134
C98 C 0.8983(2) 0.67681(15) 0.24484(18)
H140 H 0.9054 0.6418 0.2308
H141 H 0.8558 0.6938 0.2089
O25 O 0.99118(17) 0.70028(10) 0.25172(12)
C99 C 1.0515(2) 0.69867(13) 0.19527(16)
C100 C 1.0189(2) 0.68532(13) 0.12738(17)
H142 H 0.9527 0.6764 0.1179
C101 C 1.0847(3) 0.68529(14) 0.07363(17)
H143 H 1.0626 0.6774 0.0268
C102 C 1.1820(2) 0.69661(13) 0.08770(16)
O26 O 1.25182(18) 0.69671(11) 0.03734(12)
C103 C 1.2176(3) 0.69731(14) -0.03513(16)
H144 H 1.1714 0.7250 -0.0438
H145 H 1.1837 0.6660 -0.0475
C104 C 1.3054(3) 0.70355(13) -0.07839(17)
H146 H 1.3544 0.6780 -0.0648
H147 H 1.2864 0.6989 -0.1289
N42 N 1.3489(2) 0.75337(11) -0.06789(14)
H148 H 1.3070 0.7767 -0.0860
H149 H 1.4061 0.7551 -0.0903
H150 H 1.3604 0.7590 -0.0210
O27 O 0.6497(5) 0.6802(3) 0.4260(4)
Cl1 Cl 0.43875(8) 0.81697(4) 0.06433(5)
Cl2 Cl 0.07687(10) 0.45165(5) 0.86289(7)
Cl3 Cl 0.78146(8) 0.43376(4) 0.02753(6)
Cl4 Cl 0.68059(10) 0.90432(4) 0.79689(7)
Cl5 Cl 0.81787(15) 0.36042(6) 0.29044(10)
O29 O 0.6497(3) 0.85697(12) 0.0219(2)
O30 O 0.7862(3) 0.35133(19) 0.9079(3)
O31 O 0.3047(2) 0.44920(11) 0.04500(16)
O32 O 0.5178(3) 0.44455(16) 0.1349(2)
O33 O 0.7580(2) 0.82488(11) 0.91103(17)
O34 O 0.7079(3) 0.90932(19) 0.1373(2)
O35 O 0.9922(3) 0.92936(16) -0.0109(2)
N1? N 0.8717(8) 0.5386(4) 0.5173(5)
H1? H 0.8150 0.5481 0.4944
H2? H 0.9232 0.5507 0.4941
H3? H 0.8736 0.5505 0.5621
C1? C 0.8772(10) 0.4832(5) 0.5191(6)
H4? H 0.9443 0.4725 0.5327
H5? H 0.8590 0.4694 0.4720
C2? C 0.8050(13) 0.4651(7) 0.5741(6)
H6? H 0.7397 0.4802 0.5664
H7? H 0.7989 0.4287 0.5740
O14? O 0.8140(9) 0.6402(5) 0.4922(6)
N22? N 0.6416(5) 0.7270(3) 0.4186(4)
H76? H 0.6234 0.7154 0.3750
H77? H 0.5987 0.7163 0.4505
H78? H 0.7025 0.7158 0.4311
C53? C 0.6421(8) 0.7827(3) 0.4174(5)
H79? H 0.5755 0.7950 0.4052
H80? H 0.6620 0.7954 0.4648
C54? C 0.7109(15) 0.8011(15) 0.3648(9)
H81? H 0.7114 0.8377 0.3626
H82? H 0.7781 0.7890 0.3752
O28? O 0.6889(5) 0.6194(4) 0.4424(4)
loop_
_geom_bond_atom_site_label_1
_geom_bond_atom_site_label_2
_geom_bond_site_symmetry_1
_geom_bond_site_symmetry_2
O1 C4 1_555 1_555
N2 H8 1_555 1_555
H9 N2 1_555 1_555
H10 N2 1_555 1_555
C3 N2 1_555 1_555
H11 C3 1_555 1_555
H12 C3 1_555 1_555
C4 C3 1_555 1_555
H13 C4 1_555 1_555
H14 C4 1_555 1_555
C5 O1 1_555 1_555
C6 C5 1_555 1_555
H15 C6 1_555 1_555
C7 C6 1_555 1_555
H16 C7 1_555 1_555
C8 C7 1_555 1_555
O2 C8 1_555 1_555
C9 O2 1_555 1_555
H17 C9 1_555 1_555
H18 C9 1_555 1_555
C10 C9 1_555 1_555
H19 C10 1_555 1_555
H20 C10 1_555 1_555
N3 C10 1_555 1_555
H21 N3 1_555 1_555
H22 N3 1_555 1_555
H23 N3 1_555 1_555
C11 C5 1_555 1_555
C12 C8 1_555 1_555
C13 C11 1_555 1_555
H24 C13 1_555 1_555
H25 C13 1_555 1_555
C14 C12 1_555 1_555
H26 C14 1_555 1_555
H27 C14 1_555 1_555
N4 C13 1_555 1_555
C15 N4 1_555 1_555
C16 C15 1_555 1_555
H28 C16 1_555 1_555
H29 C16 1_555 1_555
H30 C16 1_555 1_555
N5 C14 1_555 1_555
O3 C17 1_555 1_555
C17 N4 1_555 1_555
C18 N5 1_555 1_555
O4 C18 1_555 1_555
N6 C17 1_555 1_555
C19 C15 1_555 1_555
C20 C19 1_555 1_555
H31 C20 1_555 1_555
H32 C20 1_555 1_555
H33 C20 1_555 1_555
N7 C18 1_555 1_555
C21 N6 1_555 1_555
H34 C21 1_555 1_555
H35 C21 1_555 1_555
C22 N7 1_555 1_555
H36 C22 1_555 1_555
H37 C22 1_555 1_555
N8 C21 1_555 1_555
C23 N8 1_555 1_555
H38 C23 1_555 1_555
N9 C22 1_555 1_555
O5 C24 1_555 1_555
C24 N8 1_555 1_555
C25 N9 1_555 1_555
O6 C25 1_555 1_555
N10 C24 1_555 1_555
C26 C23 1_555 1_555
H39 C26 1_555 1_555
N11 C25 1_555 1_555
C27 N10 1_555 1_555
H40 C27 1_555 1_555
H41 C27 1_555 1_555
C28 N11 1_555 1_555
H42 C28 1_555 1_555
H43 C28 1_555 1_555
N12 C27 1_555 1_555
C29 N12 1_555 1_555
H44 C29 1_555 1_555
N13 C28 1_555 1_555
O7 C30 1_555 1_555
C30 N12 1_555 1_555
C31 N13 1_555 1_555
O8 C31 1_555 1_555
N14 C30 1_555 1_555
C32 C29 1_555 1_555
H45 C32 1_555 1_555
N15 C31 1_555 1_555
C33 N14 1_555 1_555
H46 C33 1_555 1_555
H47 C33 1_555 1_555
C34 N15 1_555 1_555
H48 C34 1_555 1_555
H49 C34 1_555 1_555
N16 C33 1_555 1_555
C35 N16 1_555 1_555
C36 C35 1_555 1_555
H50 C36 1_555 1_555
H51 C36 1_555 1_555
H52 C36 1_555 1_555
N17 C34 1_555 1_555
O9 C37 1_555 1_555
C37 N16 1_555 1_555
C38 N17 1_555 1_555
O10 C38 1_555 1_555
N18 C37 1_555 1_555
C39 C35 1_555 1_555
C40 C39 1_555 1_555
H53 C40 1_555 1_555
H54 C40 1_555 1_555
H55 C40 1_555 1_555
N19 C38 1_555 1_555
C41 N18 1_555 1_555
H56 C41 1_555 1_555
H57 C41 1_555 1_555
C42 N19 1_555 1_555
H58 C42 1_555 1_555
H59 C42 1_555 1_555
C43 C41 1_555 1_555
C44 C42 1_555 1_555
N20 H60 1_555 1_555
H61 N20 1_555 1_555
H62 N20 1_555 1_555
C45 N20 1_555 1_555
H63 C45 1_555 1_555
H64 C45 1_555 1_555
C46 C45 1_555 1_555
H65 C46 1_555 1_555
H66 C46 1_555 1_555
O11 C46 1_555 1_555
C47 C43 1_555 1_555
C48 C47 1_555 1_555
H67 C48 1_555 1_555
C49 C48 1_555 1_555
H68 C49 1_555 1_555
C50 C44 1_555 1_555
O12 C50 1_555 1_555
C51 O12 1_555 1_555
H69 C51 1_555 1_555
H70 C51 1_555 1_555
C52 C51 1_555 1_555
H71 C52 1_555 1_555
H72 C52 1_555 1_555
N21 C52 1_555 1_555
H73 N21 1_555 1_555
H74 N21 1_555 1_555
H75 N21 1_555 1_555
O15 C56 1_555 1_555
N23 H83 1_555 1_555
H84 N23 1_555 1_555
H85 N23 1_555 1_555
C55 N23 1_555 1_555
H86 C55 1_555 1_555
H87 C55 1_555 1_555
C56 C55 1_555 1_555
H88 C56 1_555 1_555
H89 C56 1_555 1_555
C57 O15 1_555 1_555
C58 C57 1_555 1_555
H90 C58 1_555 1_555
C59 C58 1_555 1_555
H91 C59 1_555 1_555
C60 C59 1_555 1_555
O16 C60 1_555 1_555
C61 O16 1_555 1_555
H92 C61 1_555 1_555
H93 C61 1_555 1_555
C62 C61 1_555 1_555
H94 C62 1_555 1_555
H95 C62 1_555 1_555
N24 C62 1_555 1_555
H96 N24 1_555 1_555
H97 N24 1_555 1_555
H98 N24 1_555 1_555
C63 C57 1_555 1_555
C64 C60 1_555 1_555
C65 C63 1_555 1_555
H99 C65 1_555 1_555
H100 C65 1_555 1_555
C66 C64 1_555 1_555
H101 C66 1_555 1_555
H102 C66 1_555 1_555
N25 C65 1_555 1_555
C67 N25 1_555 1_555
C68 C67 1_555 1_555
H103 C68 1_555 1_555
H104 C68 1_555 1_555
H105 C68 1_555 1_555
N26 C66 1_555 1_555
O17 C69 1_555 1_555
C69 N25 1_555 1_555
C70 N26 1_555 1_555
O18 C70 1_555 1_555
N27 C69 1_555 1_555
C71 C67 1_555 1_555
C72 C71 1_555 1_555
H106 C72 1_555 1_555
H107 C72 1_555 1_555
H108 C72 1_555 1_555
N28 C70 1_555 1_555
C73 N27 1_555 1_555
H109 C73 1_555 1_555
H110 C73 1_555 1_555
C74 N28 1_555 1_555
H111 C74 1_555 1_555
H112 C74 1_555 1_555
N29 C73 1_555 1_555
C75 N29 1_555 1_555
H113 C75 1_555 1_555
N30 C74 1_555 1_555
O19 C76 1_555 1_555
C76 N29 1_555 1_555
C77 N30 1_555 1_555
O20 C77 1_555 1_555
N31 C76 1_555 1_555
C78 C75 1_555 1_555
H114 C78 1_555 1_555
N32 C77 1_555 1_555
C79 N31 1_555 1_555
H115 C79 1_555 1_555
H116 C79 1_555 1_555
C80 N32 1_555 1_555
H117 C80 1_555 1_555
H118 C80 1_555 1_555
N33 C79 1_555 1_555
C81 N33 1_555 1_555
H119 C81 1_555 1_555
N34 C80 1_555 1_555
O21 C82 1_555 1_555
C82 N33 1_555 1_555
C83 N34 1_555 1_555
O22 C83 1_555 1_555
N35 C82 1_555 1_555
C84 C81 1_555 1_555
H120 C84 1_555 1_555
N36 C83 1_555 1_555
C85 N35 1_555 1_555
H121 C85 1_555 1_555
H122 C85 1_555 1_555
C86 N36 1_555 1_555
H123 C86 1_555 1_555
H124 C86 1_555 1_555
N37 C85 1_555 1_555
C87 N37 1_555 1_555
C88 C87 1_555 1_555
H125 C88 1_555 1_555
H126 C88 1_555 1_555
H127 C88 1_555 1_555
N38 C86 1_555 1_555
O23 C89 1_555 1_555
C89 N37 1_555 1_555
C90 N38 1_555 1_555
O24 C90 1_555 1_555
N39 C89 1_555 1_555
C91 C87 1_555 1_555
C92 C91 1_555 1_555
H128 C92 1_555 1_555
H129 C92 1_555 1_555
H130 C92 1_555 1_555
N40 C90 1_555 1_555
C93 N39 1_555 1_555
H131 C93 1_555 1_555
H132 C93 1_555 1_555
C94 N40 1_555 1_555
H133 C94 1_555 1_555
H134 C94 1_555 1_555
C95 C93 1_555 1_555
C96 C94 1_555 1_555
N41 H135 1_555 1_555
H136 N41 1_555 1_555
H137 N41 1_555 1_555
C97 N41 1_555 1_555
H138 C97 1_555 1_555
H139 C97 1_555 1_555
C98 C97 1_555 1_555
H140 C98 1_555 1_555
H141 C98 1_555 1_555
O25 C98 1_555 1_555
C99 C95 1_555 1_555
C100 C99 1_555 1_555
H142 C100 1_555 1_555
C101 C100 1_555 1_555
H143 C101 1_555 1_555
C102 C96 1_555 1_555
O26 C102 1_555 1_555
C103 O26 1_555 1_555
H144 C103 1_555 1_555
H145 C103 1_555 1_555
C104 C103 1_555 1_555
H146 C104 1_555 1_555
H147 C104 1_555 1_555
N42 C104 1_555 1_555
H148 N42 1_555 1_555
H149 N42 1_555 1_555
H150 N42 1_555 1_555
C11 C12 1_555 1_555
C15 N5 1_555 1_555
N6 C19 1_555 1_555
C19 N7 1_555 1_555
C23 N9 1_555 1_555
N10 C26 1_555 1_555
C26 N11 1_555 1_555
C29 N13 1_555 1_555
N14 C32 1_555 1_555
C32 N15 1_555 1_555
C35 N17 1_555 1_555
N18 C39 1_555 1_555
C39 N19 1_555 1_555
C43 C44 1_555 1_555
O11 C47 1_555 1_555
C49 C50 1_555 1_555
C63 C64 1_555 1_555
C67 N26 1_555 1_555
N27 C71 1_555 1_555
C71 N28 1_555 1_555
C75 N30 1_555 1_555
N31 C78 1_555 1_555
C78 N32 1_555 1_555
C81 N34 1_555 1_555
N35 C84 1_555 1_555
C84 N36 1_555 1_555
C87 N38 1_555 1_555
N39 C91 1_555 1_555
C91 N40 1_555 1_555
C95 C96 1_555 1_555
O25 C99 1_555 1_555
C101 C102 1_555 1_555

#END
