
#######################################################################
#
#                 Cambridge Crystallographic Data Centre
#                                CCDC 
#
#######################################################################
#
# If this CIF has been generated from an entry in the Cambridge 
# Structural Database, then it will include bibliographic, chemical, 
# crystal, experimental, refinement or atomic coordinate data resulting 
# from the CCDC's data processing and validation procedures.
#
#######################################################################

data_WIXMOH
_chemical_formula_moiety         'C13 H26 N2 O7 P2'
_chemical_name_systematic        
'Hydrogen (6-(2-butyl-1H-imidazol-3-ium-1-yl)-1-hydroxy-1-phosphonohexyl)phosphonate'
_symmetry_cell_setting           orthorhombic
_symmetry_space_group_name_H-M   'P b c a'
_symmetry_Int_Tables_number      61
_space_group_name_Hall           '-P 2ac 2ab'
loop_
_symmetry_equiv_pos_site_id
_symmetry_equiv_pos_as_xyz
1 x,y,z
2 1/2-x,-y,1/2+z
3 -x,1/2+y,1/2-z
4 1/2+x,1/2-y,-z
5 -x,-y,-z
6 1/2+x,y,1/2-z
7 x,1/2-y,1/2+z
8 1/2-x,1/2+y,z
_cell_length_a                   10.3055(17)
_cell_length_b                   16.810(3)
_cell_length_c                   20.146(3)
_cell_angle_alpha                90
_cell_angle_beta                 90
_cell_angle_gamma                90
_cell_volume                     3490
_exptl_crystal_colour            colorless
_exptl_crystal_description       Platelet
_cell_formula_units_Z            8
loop_
_atom_site_label
_atom_site_type_symbol
_atom_site_fract_x
_atom_site_fract_y
_atom_site_fract_z
P1 P 0.66239(6) 0.64896(3) 0.51884(3)
P2 P 0.41889(6) 0.63860(3) 0.43574(3)
O1 O 0.71355(17) 0.69175(10) 0.58238(8)
H1 H 0.7266 0.7400 0.5739
O2 O 0.71539(17) 0.68802(11) 0.45701(9)
O3 O 0.69109(17) 0.56114(10) 0.52557(9)
O4 O 0.46795(17) 0.74808(10) 0.52572(8)
H2 H 0.3890 0.7586 0.5314
O5 O 0.28010(17) 0.66185(10) 0.43050(9)
O6 O 0.44386(19) 0.54927(10) 0.42149(9)
H3 H 0.3876 0.5217 0.4410
O7 O 0.50588(19) 0.68481(11) 0.38531(9)
H4 H 0.5805 0.6907 0.4014
N1 N 0.4739(2) 0.54631(13) 0.87785(10)
N2 N 0.6182(2) 0.51097(13) 0.94910(11)
C1 C 0.4982(3) 0.61158(15) 0.91804(13)
H5 H 0.4589 0.6625 0.9146
C2 C 0.5878(3) 0.58929(15) 0.96287(13)
H6 H 0.6234 0.6212 0.9973
C3 C 0.5479(3) 0.48538(15) 0.89781(12)
C4 C 0.3898(3) 0.54904(17) 0.81901(13)
H7 H 0.3086 0.5776 0.8298
H8 H 0.3670 0.4943 0.8052
C5 C 0.4596(3) 0.59126(17) 0.76267(13)
H9 H 0.5465 0.5670 0.7570
H10 H 0.4724 0.6477 0.7751
C6 C 0.3879(3) 0.58792(16) 0.69619(12)
H11 H 0.3683 0.5319 0.6847
H12 H 0.3048 0.6172 0.6997
C7 C 0.4714(3) 0.62489(15) 0.64216(12)
H13 H 0.5572 0.5985 0.6420
H14 H 0.4853 0.6818 0.6526
C8 C 0.4113(2) 0.61809(14) 0.57285(11)
H15 H 0.3210 0.6379 0.5748
H16 H 0.4078 0.5612 0.5604
C9 C 0.4840(2) 0.66373(13) 0.51824(11)
C10 C 0.5553(3) 0.40432(15) 0.86856(14)
H17 H 0.4703 0.3910 0.8485
H18 H 0.5722 0.3655 0.9045
C11 C 0.6609(3) 0.39607(16) 0.81563(14)
H19 H 0.6393 0.4308 0.7775
H20 H 0.7446 0.4143 0.8342
C12 C 0.6752(3) 0.31098(17) 0.79146(15)
H21 H 0.5927 0.2937 0.7707
H22 H 0.6922 0.2758 0.8299
C13 C 0.7847(4) 0.3021(2) 0.74141(16)
H23 H 0.7665 0.3352 0.7025
H24 H 0.7916 0.2463 0.7278
H25 H 0.8665 0.3191 0.7617
H26 H 0.679(4) 0.481(2) 0.9709(19)
loop_
_geom_bond_atom_site_label_1
_geom_bond_atom_site_label_2
_geom_bond_site_symmetry_1
_geom_bond_site_symmetry_2
P1 O1 1_555 1_555
P2 O5 1_555 1_555
O1 H1 1_555 1_555
O2 P1 1_555 1_555
O3 P1 1_555 1_555
O4 H2 1_555 1_555
O6 P2 1_555 1_555
H3 O6 1_555 1_555
O7 P2 1_555 1_555
H4 O7 1_555 1_555
N1 C1 1_555 1_555
N2 C2 1_555 1_555
C1 H5 1_555 1_555
C2 C1 1_555 1_555
H6 C2 1_555 1_555
C3 N1 1_555 1_555
C4 N1 1_555 1_555
H7 C4 1_555 1_555
H8 C4 1_555 1_555
C5 C4 1_555 1_555
H9 C5 1_555 1_555
H10 C5 1_555 1_555
C6 C5 1_555 1_555
H11 C6 1_555 1_555
H12 C6 1_555 1_555
C7 C6 1_555 1_555
H13 C7 1_555 1_555
H14 C7 1_555 1_555
C8 C7 1_555 1_555
H15 C8 1_555 1_555
H16 C8 1_555 1_555
C9 P1 1_555 1_555
C10 C3 1_555 1_555
H17 C10 1_555 1_555
H18 C10 1_555 1_555
C11 C10 1_555 1_555
H19 C11 1_555 1_555
H20 C11 1_555 1_555
C12 C11 1_555 1_555
H21 C12 1_555 1_555
H22 C12 1_555 1_555
C13 C12 1_555 1_555
H23 C13 1_555 1_555
H24 C13 1_555 1_555
H25 C13 1_555 1_555
H26 N2 1_555 1_555
P2 C9 1_555 1_555
O4 C9 1_555 1_555
N2 C3 1_555 1_555
C8 C9 1_555 1_555

#END
