
#######################################################################
#
#                 Cambridge Crystallographic Data Centre
#                                CCDC 
#
#######################################################################
#
# If this CIF has been generated from an entry in the Cambridge 
# Structural Database, then it will include bibliographic, chemical, 
# crystal, experimental, refinement or atomic coordinate data resulting 
# from the CCDC's data processing and validation procedures.
#
#######################################################################

data_WIXZOT
_chemical_formula_moiety         'C16 H12 O1'
_chemical_name_systematic        3H-7,12-Methanocyclohepta(10)annulen-3-one
_symmetry_cell_setting           monoclinic
_symmetry_space_group_name_H-M   'P 21/n'
_symmetry_Int_Tables_number      14
_space_group_name_Hall           '-P 2yn'
loop_
_symmetry_equiv_pos_site_id
_symmetry_equiv_pos_as_xyz
1 x,y,z
2 1/2-x,1/2+y,1/2-z
3 -x,-y,-z
4 1/2+x,1/2-y,1/2+z
_cell_length_a                   9.677(3)
_cell_length_b                   10.198(5)
_cell_length_c                   11.649(2)
_cell_angle_alpha                90
_cell_angle_beta                 103.09(2)
_cell_angle_gamma                90
_cell_volume                     1119.72
_exptl_crystal_colour            yellow
_exptl_crystal_description       prismatic
_cell_formula_units_Z            4
loop_
_atom_site_label
_atom_site_type_symbol
_atom_site_fract_x
_atom_site_fract_y
_atom_site_fract_z
O1 O 0.3907(3) 0.4320(3) 0.8192(3)
C1 C 0.6715(3) 0.0837(3) 0.9390(3)
C2 C 0.6608(4) 0.2187(3) 0.9784(3)
C3 C 0.5717(4) 0.3192(4) 0.9442(3)
C4 C 0.4443(4) 0.3242(4) 0.8523(3)
C5 C 0.3744(4) 0.2056(4) 0.8032(3)
C6 C 0.4218(3) 0.0815(4) 0.8086(3)
C7 C 0.5575(3) 0.0193(3) 0.8575(2)
C8 C 0.5579(4) -0.1163(4) 0.8327(3)
C9 C 0.6769(3) -0.1959(3) 0.8444(3)
C10 C 0.6848(4) -0.3324(4) 0.8718(3)
C11 C 0.8006(5) -0.3880(4) 0.9413(4)
C12 C 0.9119(4) -0.3237(4) 1.0220(4)
C13 C 0.9243(4) -0.1936(4) 1.0461(4)
C14 C 0.8477(3) -0.0970(3) 0.9693(3)
C15 C 0.7921(3) 0.0173(3) 1.0036(3)
C16 C 0.8120(4) -0.1298(4) 0.8429(3)
H1 H 0.743(3) 0.235(3) 1.042(3)
H2 H 0.591(4) 0.410(4) 0.989(3)
H3 H 0.275(4) 0.216(3) 0.756(3)
H4 H 0.357(3) 0.019(3) 0.769(3)
H5 H 0.469(3) -0.160(3) 0.815(3)
H6 H 0.606(3) -0.388(3) 0.848(3)
H7 H 0.796(3) -0.482(3) 0.955(3)
H8 H 0.968(3) -0.383(3) 1.075(3)
H9 H 0.983(3) -0.167(3) 1.117(3)
H10 H 0.836(3) 0.056(3) 1.079(3)
H11 H 0.793(3) -0.052(3) 0.789(3)
H12 H 0.878(3) -0.193(3) 0.820(3)
loop_
_geom_bond_atom_site_label_1
_geom_bond_atom_site_label_2
_geom_bond_site_symmetry_1
_geom_bond_site_symmetry_2
O1 C4 1_555 1_555
C1 C2 1_555 1_555
C2 C3 1_555 1_555
C3 C4 1_555 1_555
C4 C5 1_555 1_555
C5 C6 1_555 1_555
C6 C7 1_555 1_555
C7 C1 1_555 1_555
C8 C7 1_555 1_555
C9 C8 1_555 1_555
C10 C9 1_555 1_555
C11 C10 1_555 1_555
C12 C11 1_555 1_555
C13 C12 1_555 1_555
C14 C13 1_555 1_555
C15 C1 1_555 1_555
C16 C9 1_555 1_555
H1 C2 1_555 1_555
H2 C3 1_555 1_555
H3 C5 1_555 1_555
H4 C6 1_555 1_555
H5 C8 1_555 1_555
H6 C10 1_555 1_555
H7 C11 1_555 1_555
H8 C12 1_555 1_555
H9 C13 1_555 1_555
H10 C15 1_555 1_555
H11 C16 1_555 1_555
H12 C16 1_555 1_555
C14 C15 1_555 1_555
C14 C16 1_555 1_555

#END
