
#######################################################################
#
#                 Cambridge Crystallographic Data Centre
#                                CCDC 
#
#######################################################################
#
# If this CIF has been generated from an entry in the Cambridge 
# Structural Database, then it will include bibliographic, chemical, 
# crystal, experimental, refinement or atomic coordinate data resulting 
# from the CCDC's data processing and validation procedures.
#
#######################################################################

data_WIYCUE
_chemical_formula_moiety         'C30 H44 O8'
_chemical_name_systematic        
4-(3-hydroxy-6-((5-hydroxy-4-methoxy-6-methyltetrahydro-2H-pyran-2-yl)oxy)-9,13-dimethyl-17-oxotetracyclo[11.3.1.0^1,10^.0^4,9^]heptadec-14-yl)furan-2(5H)-one
_symmetry_cell_setting           orthorhombic
_symmetry_space_group_name_H-M   'P 21 21 21'
_symmetry_Int_Tables_number      19
_space_group_name_Hall           'P 2ac 2ab'
loop_
_symmetry_equiv_pos_site_id
_symmetry_equiv_pos_as_xyz
1 x,y,z
2 1/2+x,1/2-y,-z
3 -x,1/2+y,1/2-z
4 1/2-x,-y,1/2+z
_cell_length_a                   7.4181(2)
_cell_length_b                   12.2709(2)
_cell_length_c                   30.1226(6)
_cell_angle_alpha                90
_cell_angle_beta                 90
_cell_angle_gamma                90
_cell_volume                     2741.96
_exptl_crystal_colour            colorless
_exptl_crystal_description       block
_cell_formula_units_Z            4
loop_
_atom_site_label
_atom_site_type_symbol
_atom_site_fract_x
_atom_site_fract_y
_atom_site_fract_z
O1 O 1.2273(3) 0.5557(2) -0.05626(8)
O2 O 0.6531(4) 0.3679(3) 0.00320(10)
H1 H 0.5888 0.3759 0.0259
O3 O 0.5175(3) 0.4027(2) 0.09005(7)
O4 O 0.4422(5) 0.2630(3) 0.26129(9)
O5 O 0.3350(5) 0.1353(3) 0.21585(12)
O6 O 1.3041(4) 0.4709(2) -0.20938(9)
O7 O 1.5120(4) 0.6524(2) -0.18577(8)
H2 H 1.4350 0.6449 -0.2060
O8 O 1.4932(3) 0.59452(18) -0.09034(8)
C1 C 1.0469(4) 0.6481(3) 0.02176(10)
H3 H 1.0115 0.6756 -0.0079
H4 H 1.0353 0.7094 0.0430
C2 C 1.2442(4) 0.6134(3) 0.02000(11)
H5 H 1.3192 0.6757 0.0103
H6 H 1.2845 0.5915 0.0500
C3 C 1.2692(5) 0.5191(3) -0.01178(11)
H7 H 1.3971 0.4936 -0.0106
C4 C 1.1444(5) 0.4259(3) 0.00068(11)
H8 H 1.1831 0.3957 0.0296
H9 H 1.1564 0.3673 -0.0218
C5 C 0.9454(5) 0.4593(2) 0.00388(10)
H10 H 0.9073 0.4831 -0.0265
C6 C 0.8322(5) 0.3587(3) 0.01566(11)
H11 H 0.8826 0.2975 -0.0024
C7 C 0.8582(5) 0.3257(2) 0.06384(11)
H12 H 0.9794 0.2928 0.0668
H13 H 0.7690 0.2682 0.0709
C8 C 0.8406(4) 0.4161(2) 0.09893(10)
C9 C 0.9452(4) 0.5221(2) 0.08490(10)
H14 H 1.0759 0.5031 0.0870
C10 C 0.9139(4) 0.5574(2) 0.03554(10)
C11 C 0.9165(5) 0.6169(3) 0.11824(11)
H15 H 1.0014 0.6071 0.1433
H16 H 0.9483 0.6861 0.1033
C12 C 0.7242(5) 0.6277(2) 0.13728(11)
H17 H 0.6517 0.6703 0.1158
H18 H 0.7319 0.6712 0.1649
C13 C 0.6184(5) 0.5219(3) 0.14809(10)
C14 C 0.6446(4) 0.4430(2) 0.10953(10)
C15 C 0.9200(5) 0.3659(3) 0.14257(11)
H19 H 0.8687 0.2919 0.1462
H20 H 1.0517 0.3574 0.1385
C16 C 0.8884(5) 0.4285(3) 0.18548(11)
H21 H 0.9687 0.4930 0.1860
H22 H 0.9213 0.3815 0.2109
C17 C 0.6918(5) 0.4668(3) 0.19121(10)
H23 H 0.6916 0.5236 0.2150
C18 C 0.4203(5) 0.5527(3) 0.15421(12)
H24 H 0.3750 0.5865 0.1269
H25 H 0.4091 0.6043 0.1789
H26 H 0.3499 0.4870 0.1607
C19 C 0.7251(4) 0.6056(3) 0.02868(11)
H27 H 0.7185 0.6774 0.0428
H28 H 0.6350 0.5572 0.0420
H29 H 0.7011 0.6130 -0.0032
C20 C 0.5792(5) 0.3736(3) 0.20769(11)
C21 C 0.5477(6) 0.3621(3) 0.25641(12)
H30 H 0.6635 0.3560 0.2725
H31 H 0.4806 0.4257 0.2681
C22 C 0.5021(6) 0.2892(3) 0.18776(12)
H32 H 0.5028 0.2767 0.1566
C23 C 0.4159(6) 0.2182(4) 0.22032(14)
C24 C 1.3472(5) 0.5192(3) -0.08834(11)
H33 H 1.3937 0.4457 -0.0798
C25 C 1.2553(5) 0.5123(3) -0.13300(12)
H34 H 1.1527 0.4609 -0.1314
H35 H 1.2081 0.5848 -0.1415
C26 C 1.3900(5) 0.4736(3) -0.16704(11)
H36 H 1.4286 0.3980 -0.1591
C27 C 1.5569(5) 0.5474(3) -0.16770(11)
H37 H 1.6517 0.5129 -0.1867
C28 C 1.6297(4) 0.5603(3) -0.12077(11)
H38 H 1.6767 0.4880 -0.1107
C29 C 1.7817(5) 0.6430(3) -0.11739(13)
H39 H 1.7339 0.7163 -0.1227
H40 H 1.8741 0.6263 -0.1396
H41 H 1.8351 0.6397 -0.0877
C30 C 1.3778(6) 0.3890(4) -0.23818(13)
H42 H 1.5083 0.3996 -0.2408
H43 H 1.3221 0.3950 -0.2676
H44 H 1.3534 0.3167 -0.2258
loop_
_geom_bond_atom_site_label_1
_geom_bond_atom_site_label_2
_geom_bond_site_symmetry_1
_geom_bond_site_symmetry_2
O1 C3 1_555 1_555
O2 H1 1_555 1_555
O3 C14 1_555 1_555
O4 C21 1_555 1_555
O5 C23 1_555 1_555
O6 C26 1_555 1_555
O7 H2 1_555 1_555
O8 C24 1_555 1_555
C1 H3 1_555 1_555
H4 C1 1_555 1_555
C2 C1 1_555 1_555
H5 C2 1_555 1_555
H6 C2 1_555 1_555
C3 C2 1_555 1_555
H7 C3 1_555 1_555
C4 C3 1_555 1_555
H8 C4 1_555 1_555
H9 C4 1_555 1_555
C5 C4 1_555 1_555
H10 C5 1_555 1_555
C6 O2 1_555 1_555
H11 C6 1_555 1_555
C7 C6 1_555 1_555
H12 C7 1_555 1_555
H13 C7 1_555 1_555
C8 C7 1_555 1_555
C9 C8 1_555 1_555
H14 C9 1_555 1_555
C10 C1 1_555 1_555
C11 C9 1_555 1_555
H15 C11 1_555 1_555
H16 C11 1_555 1_555
C12 C11 1_555 1_555
H17 C12 1_555 1_555
H18 C12 1_555 1_555
C13 C12 1_555 1_555
C14 C8 1_555 1_555
C15 C8 1_555 1_555
H19 C15 1_555 1_555
H20 C15 1_555 1_555
C16 C15 1_555 1_555
H21 C16 1_555 1_555
H22 C16 1_555 1_555
C17 C13 1_555 1_555
H23 C17 1_555 1_555
C18 C13 1_555 1_555
H24 C18 1_555 1_555
H25 C18 1_555 1_555
H26 C18 1_555 1_555
C19 C10 1_555 1_555
H27 C19 1_555 1_555
H28 C19 1_555 1_555
H29 C19 1_555 1_555
C20 C17 1_555 1_555
C21 C20 1_555 1_555
H30 C21 1_555 1_555
H31 C21 1_555 1_555
C22 C20 1_555 1_555
H32 C22 1_555 1_555
C23 O4 1_555 1_555
C24 O1 1_555 1_555
H33 C24 1_555 1_555
C25 C24 1_555 1_555
H34 C25 1_555 1_555
H35 C25 1_555 1_555
C26 C25 1_555 1_555
H36 C26 1_555 1_555
C27 O7 1_555 1_555
H37 C27 1_555 1_555
C28 O8 1_555 1_555
H38 C28 1_555 1_555
C29 C28 1_555 1_555
H39 C29 1_555 1_555
H40 C29 1_555 1_555
H41 C29 1_555 1_555
C30 O6 1_555 1_555
H42 C30 1_555 1_555
H43 C30 1_555 1_555
H44 C30 1_555 1_555
C5 C6 1_555 1_555
C5 C10 1_555 1_555
C9 C10 1_555 1_555
C13 C14 1_555 1_555
C16 C17 1_555 1_555
C22 C23 1_555 1_555
C26 C27 1_555 1_555
C27 C28 1_555 1_555

#END
