
#######################################################################
#
#                 Cambridge Crystallographic Data Centre
#                                CCDC 
#
#######################################################################
#
# If this CIF has been generated from an entry in the Cambridge 
# Structural Database, then it will include bibliographic, chemical, 
# crystal, experimental, refinement or atomic coordinate data resulting 
# from the CCDC's data processing and validation procedures.
#
#######################################################################

data_WIYTAA
_chemical_name_common            'hydroxylylcoctonine monohydrate'
_chemical_formula_moiety         'C25 H41 N1 O8,H2 O1'
_chemical_name_systematic        
'7-ethyl-5-(hydroxymethyl)-2,13,15,19-tetramethoxy-9-oxa-7-azahexacyclo[8.7.2.1^14,17^.0^1,8^.0^5,18^.0^11,16^]icosane-10,11-diol monohydrate'
_symmetry_cell_setting           monoclinic
_symmetry_space_group_name_H-M   'P 21'
_symmetry_Int_Tables_number      4
_space_group_name_Hall           'P 2yb'
loop_
_symmetry_equiv_pos_site_id
_symmetry_equiv_pos_as_xyz
1 x,y,z
2 -x,1/2+y,-z
_cell_length_a                   7.842(2)
_cell_length_b                   10.170(3)
_cell_length_c                   15.656(4)
_cell_angle_alpha                90
_cell_angle_beta                 99.79(2)
_cell_angle_gamma                90
_cell_volume                     1230.43
_exptl_crystal_colour            colorless
_exptl_crystal_description       block
_chemical_melting_point          '123-125 deg.C'
_cell_formula_units_Z            2
_exptl_crystal_recrystallization_method acetone/hexanes
loop_
_atom_site_label
_atom_site_type_symbol
_atom_site_fract_x
_atom_site_fract_y
_atom_site_fract_z
O1 O 0.1410(3) 0.8098(3) 0.92331(15)
O2 O -0.0801(3) 1.3041(3) 0.67227(18)
H1 H -0.1870 1.3112 0.6717
O3 O 0.1525(3) 0.9507(3) 0.55179(13)
O4 O 0.5332(3) 0.9703(3) 0.62612(16)
H2 H 0.5295 1.0520 0.6332
O5 O 0.4646(3) 0.9208(2) 0.75729(14)
O6 O 0.3829(3) 0.7539(3) 0.54661(14)
H3 H 0.2938 0.7955 0.5243
O7 O 0.3642(3) 0.4753(2) 0.62017(15)
O8 O 0.7268(3) 0.5220(3) 0.74971(16)
N1 N 0.3141(4) 1.0781(3) 0.83744(18)
C1 C 0.0460(5) 0.8705(4) 0.8469(2)
H4 H -0.0520 0.8105 0.8235
C2 C -0.0316(5) 1.0005(4) 0.8689(2)
H5 H -0.1265 0.9844 0.9020
H6 H 0.0579 1.0544 0.9052
C3 C -0.1008(5) 1.0732(4) 0.7858(2)
H7 H -0.1451 1.1602 0.8002
H8 H -0.1988 1.0231 0.7529
C4 C 0.0382(4) 1.0928(4) 0.7285(2)
C5 C 0.0968(4) 0.9563(4) 0.6993(2)
H9 H -0.0052 0.9094 0.6658
C6 C 0.2339(4) 0.9797(4) 0.6396(2)
H10 H 0.2594 1.0761 0.6417
C7 C 0.4063(4) 0.9098(4) 0.6657(2)
C8 C 0.4043(5) 0.7630(4) 0.6400(2)
C9 C 0.2518(5) 0.6914(4) 0.6682(2)
H11 H 0.1482 0.6995 0.6215
C10 C 0.1993(5) 0.7271(4) 0.7568(2)
H12 H 0.0832 0.6854 0.7549
C11 C 0.1719(4) 0.8740(4) 0.7798(2)
C12 C 0.3242(5) 0.6428(4) 0.8235(2)
H13 H 0.4051 0.7000 0.8623
H14 H 0.2579 0.5891 0.8592
C13 C 0.4239(5) 0.5539(4) 0.7695(2)
H15 H 0.4453 0.4653 0.7971
C14 C 0.2932(5) 0.5449(4) 0.6852(2)
H16 H 0.1869 0.4985 0.6966
C15 C 0.5808(5) 0.6983(4) 0.6728(2)
H17 H 0.6094 0.6403 0.6265
H18 H 0.6697 0.7683 0.6824
C16 C 0.5942(5) 0.6178(4) 0.7557(2)
H19 H 0.6356 0.6768 0.8061
C17 C 0.3402(4) 0.9434(4) 0.8160(2)
H20 H 0.3879 0.8981 0.8717
C18 C -0.0414(5) 1.1733(4) 0.6493(2)
H21 H 0.0402 1.1761 0.6075
H22 H -0.1490 1.1299 0.6205
C19 C 0.1980(5) 1.1633(4) 0.7785(2)
H23 H 0.2638 1.2026 0.7363
H24 H 0.1587 1.2359 0.8125
C20 C 0.0381(6) 0.7708(5) 0.9847(2)
H25 H 0.1112 0.7278 1.0338
H26 H -0.0511 0.7093 0.9576
H27 H -0.0170 0.8484 1.0053
C21 C 0.2117(5) 1.0335(4) 0.4874(2)
H28 H 0.1508 1.0093 0.4296
H29 H 0.3364 1.0213 0.4900
H30 H 0.1880 1.1258 0.4990
C22 C 0.8073(5) 0.4721(5) 0.8307(3)
H31 H 0.8970 0.4088 0.8220
H32 H 0.7208 0.4283 0.8592
H33 H 0.8601 0.5446 0.8672
C23 C 0.2370(5) 0.4497(4) 0.5447(2)
H34 H 0.2903 0.4004 0.5023
H35 H 0.1916 0.5332 0.5191
H36 H 0.1421 0.3980 0.5611
C24 C 0.4717(5) 1.1463(4) 0.8787(2)
H37 H 0.5261 1.1892 0.8334
H38 H 0.5546 1.0809 0.9086
C25 C 0.4366(5) 1.2492(5) 0.9437(2)
H39 H 0.5451 1.2931 0.9683
H40 H 0.3874 1.2068 0.9902
H41 H 0.3545 1.3143 0.9146
O9 O 0.5529(3) 1.2472(2) 0.62409(16)
H42 H 0.4924 1.3072 0.6361
H43 H 0.5585 1.2534 0.5724
loop_
_geom_bond_atom_site_label_1
_geom_bond_atom_site_label_2
_geom_bond_site_symmetry_1
_geom_bond_site_symmetry_2
O1 C1 1_555 1_555
O2 H1 1_555 1_555
O3 C6 1_555 1_555
O4 H2 1_555 1_555
O5 C7 1_555 1_555
O6 H3 1_555 1_555
O7 C14 1_555 1_555
O8 C16 1_555 1_555
N1 C17 1_555 1_555
C1 H4 1_555 1_555
C2 C1 1_555 1_555
H5 C2 1_555 1_555
H6 C2 1_555 1_555
C3 C2 1_555 1_555
H7 C3 1_555 1_555
H8 C3 1_555 1_555
C4 C3 1_555 1_555
C5 C4 1_555 1_555
H9 C5 1_555 1_555
C6 C5 1_555 1_555
H10 C6 1_555 1_555
C7 O4 1_555 1_555
C8 O6 1_555 1_555
C9 C8 1_555 1_555
H11 C9 1_555 1_555
C10 C9 1_555 1_555
H12 C10 1_555 1_555
C11 C1 1_555 1_555
C12 C10 1_555 1_555
H13 C12 1_555 1_555
H14 C12 1_555 1_555
C13 C12 1_555 1_555
H15 C13 1_555 1_555
C14 C9 1_555 1_555
H16 C14 1_555 1_555
C15 C8 1_555 1_555
H17 C15 1_555 1_555
H18 C15 1_555 1_555
C16 C13 1_555 1_555
H19 C16 1_555 1_555
C17 O5 1_555 1_555
H20 C17 1_555 1_555
C18 O2 1_555 1_555
H21 C18 1_555 1_555
H22 C18 1_555 1_555
C19 N1 1_555 1_555
H23 C19 1_555 1_555
H24 C19 1_555 1_555
C20 O1 1_555 1_555
H25 C20 1_555 1_555
H26 C20 1_555 1_555
H27 C20 1_555 1_555
C21 O3 1_555 1_555
H28 C21 1_555 1_555
H29 C21 1_555 1_555
H30 C21 1_555 1_555
C22 O8 1_555 1_555
H31 C22 1_555 1_555
H32 C22 1_555 1_555
H33 C22 1_555 1_555
C23 O7 1_555 1_555
H34 C23 1_555 1_555
H35 C23 1_555 1_555
H36 C23 1_555 1_555
C24 N1 1_555 1_555
H37 C24 1_555 1_555
H38 C24 1_555 1_555
C25 C24 1_555 1_555
H39 C25 1_555 1_555
H40 C25 1_555 1_555
H41 C25 1_555 1_555
O9 H42 1_555 1_555
H43 O9 1_555 1_555
C4 C18 1_555 1_555
C4 C19 1_555 1_555
C5 C11 1_555 1_555
C6 C7 1_555 1_555
C7 C8 1_555 1_555
C10 C11 1_555 1_555
C11 C17 1_555 1_555
C13 C14 1_555 1_555
C15 C16 1_555 1_555

#END
