
#######################################################################
#
#                 Cambridge Crystallographic Data Centre
#                                CCDC 
#
#######################################################################
#
# If this CIF has been generated from an entry in the Cambridge 
# Structural Database, then it will include bibliographic, chemical, 
# crystal, experimental, refinement or atomic coordinate data resulting 
# from the CCDC's data processing and validation procedures.
#
#######################################################################

data_WIZCEO
_chemical_formula_moiety         'C26 H56 Ba2 N9 O14 1+,N3 1-,0.67(C1 H4 O1)'
_chemical_name_systematic        
'tris(\m~2~-Azido)-bis(1,4,7,10,13,16-hexaoxacyclo-octadecane)-bis(methanol)-di-barium(ii) azide methanol solvate'
_symmetry_cell_setting           triclinic
_symmetry_space_group_name_H-M   'P -1'
_symmetry_Int_Tables_number      2
_space_group_name_Hall           '-P 1'
loop_
_symmetry_equiv_pos_site_id
_symmetry_equiv_pos_as_xyz
1 x,y,z
2 -x,-y,-z
_cell_length_a                   8.8449(10)
_cell_length_b                   17.3250(10)
_cell_length_c                   20.969(2)
_cell_angle_alpha                83.789(4)
_cell_angle_beta                 86.470(4)
_cell_angle_gamma                88.953(5)
_cell_volume                     3188.11
_exptl_crystal_colour            colorless
_exptl_crystal_description       block
_cell_formula_units_Z            3
_exptl_crystal_recrystallization_method 'diethyl ether/methanol'
loop_
_atom_site_label
_atom_site_type_symbol
_atom_site_fract_x
_atom_site_fract_y
_atom_site_fract_z
Ba3 Ba 1.36294(3) 0.670633(14) 0.000746(15)
N10 N 1.2885(8) 0.5294(4) -0.0619(4)
N11 N 1.3638(7) 0.4763(4) -0.0765(3)
N12 N 1.5607(8) 0.5760(4) 0.0917(3)
N13 N 1.6026(6) 0.5950(2) -0.0588(2)
N14 N 1.5658(9) 0.5227(4) -0.0717(3)
N15 N 1.4436(10) 0.5449(4) 0.0805(4)
N17 N 1.6804(7) 0.5410(4) -0.0337(3)
N18 N 1.2630(8) 0.5193(4) 0.0144(4)
O13 O 1.6120(3) 0.76652(18) 0.03038(15)
O14 O 1.3809(5) 0.7281(2) 0.12700(17)
O15 O 1.1238(4) 0.6488(2) 0.1032(3)
O16 O 1.0407(4) 0.6692(2) -0.0235(3)
O17 O 1.2612(4) 0.70627(19) -0.12653(18)
O18 O 1.5214(3) 0.78139(16) -0.09507(14)
C25 C 1.6032(6) 0.7984(3) 0.0901(2)
H49 H 1.5399 0.8463 0.0871
H50 H 1.7057 0.8120 0.1015
C26 C 1.5351(8) 0.7398(4) 0.1402(3)
H51 H 1.5925 0.6902 0.1401
H52 H 1.5396 0.7581 0.1832
C27 C 1.3030(10) 0.6764(3) 0.1756(3)
H53 H 1.3159 0.6934 0.2185
H54 H 1.3456 0.6232 0.1750
C28 C 1.1413(10) 0.6767(4) 0.1631(4)
H55 H 1.0852 0.6432 0.1976
H56 H 1.0993 0.7301 0.1626
C29 C 0.9686(7) 0.6478(5) 0.0881(5)
H57 H 0.9246 0.7009 0.0866
H58 H 0.9101 0.6140 0.1216
C30 C 0.9603(7) 0.6179(4) 0.0247(5)
H59 H 1.0058 0.5651 0.0261
H60 H 0.8531 0.6147 0.0142
C31 C 1.0260(6) 0.6493(4) -0.0871(5)
H61 H 0.9176 0.6463 -0.0958
H62 H 1.0741 0.5980 -0.0920
C32 C 1.1007(6) 0.7094(4) -0.1325(4)
H63 H 1.0782 0.7014 -0.1770
H64 H 1.0611 0.7612 -0.1237
C33 C 1.3371(6) 0.7651(3) -0.1685(3)
H65 H 1.2962 0.8168 -0.1600
H66 H 1.3203 0.7578 -0.2137
C34 C 1.5020(6) 0.7610(3) -0.1583(2)
H67 H 1.5417 0.7079 -0.1625
H68 H 1.5576 0.7976 -0.1907
C35 C 1.6778(5) 0.7846(3) -0.0813(2)
H69 H 1.7344 0.8174 -0.1161
H70 H 1.7234 0.7319 -0.0780
C36 C 1.6850(5) 0.8182(3) -0.0195(2)
H71 H 1.7920 0.8252 -0.0102
H72 H 1.6336 0.8696 -0.0221
O21 O 1.2518(3) 0.82500(17) -0.00516(16)
C39 C 1.1176(5) 0.8454(3) 0.0308(2)
Ba3A Ba 1.63706(3) 0.329367(14) -0.000746(15)
N10A N 1.7115(8) 0.4706(4) 0.0619(4)
N11A N 1.6362(7) 0.5237(4) 0.0765(3)
N12A N 1.4393(8) 0.4240(4) -0.0917(3)
N13A N 1.3974(6) 0.4050(2) 0.0588(2)
N14A N 1.4342(9) 0.4773(4) 0.0717(3)
N15A N 1.5564(10) 0.4551(4) -0.0805(4)
N17A N 1.3196(7) 0.4590(4) 0.0337(3)
N18A N 1.7370(8) 0.4807(4) -0.0144(4)
O13A O 1.3880(3) 0.23348(18) -0.03038(15)
O14A O 1.6191(5) 0.2719(2) -0.12700(17)
O15A O 1.8762(4) 0.3512(2) -0.1032(3)
O16A O 1.9593(4) 0.3308(2) 0.0235(3)
O17A O 1.7388(4) 0.29373(19) 0.12653(18)
O18A O 1.4786(3) 0.21861(16) 0.09507(14)
C25A C 1.3968(6) 0.2016(3) -0.0901(2)
H49A H 1.4601 0.1537 -0.0871
H50A H 1.2943 0.1880 -0.1015
C26A C 1.4649(8) 0.2602(4) -0.1402(3)
H51A H 1.4075 0.3098 -0.1401
H52A H 1.4604 0.2419 -0.1832
C27A C 1.6970(10) 0.3236(3) -0.1756(3)
H53A H 1.6841 0.3066 -0.2185
H54A H 1.6544 0.3768 -0.1750
C28A C 1.8587(10) 0.3233(4) -0.1631(4)
H55A H 1.9148 0.3568 -0.1976
H56A H 1.9007 0.2699 -0.1626
C29A C 2.0314(7) 0.3522(5) -0.0881(5)
H57A H 2.0754 0.2991 -0.0866
H58A H 2.0899 0.3860 -0.1216
C30A C 2.0397(7) 0.3821(4) -0.0247(5)
H59A H 1.9942 0.4349 -0.0261
H60A H 2.1469 0.3853 -0.0142
C31A C 1.9740(6) 0.3507(4) 0.0871(5)
H61A H 2.0824 0.3537 0.0958
H62A H 1.9259 0.4020 0.0920
C32A C 1.8993(6) 0.2906(4) 0.1325(4)
H63A H 1.9218 0.2986 0.1770
H64A H 1.9389 0.2388 0.1237
C33A C 1.6629(6) 0.2349(3) 0.1685(3)
H65A H 1.7038 0.1832 0.1600
H66A H 1.6797 0.2422 0.2137
C34A C 1.4980(6) 0.2390(3) 0.1583(2)
H67A H 1.4583 0.2921 0.1625
H68A H 1.4424 0.2024 0.1907
C35A C 1.3222(5) 0.2154(3) 0.0813(2)
H69A H 1.2656 0.1826 0.1161
H70A H 1.2766 0.2681 0.0780
C36A C 1.3150(5) 0.1818(3) 0.0195(2)
H71A H 1.2080 0.1748 0.0102
H72A H 1.3664 0.1304 0.0221
O21A O 1.7482(3) 0.17500(17) 0.00516(16)
C39A C 1.8824(5) 0.1546(3) -0.0308(2)
N19 N 0.9682(5) 0.2960(2) 0.6865(2)
N20 N 0.8601(4) 0.3303(2) 0.66806(18)
N21 N 0.7535(4) 0.3652(2) 0.6491(2)
N22 N 0.5000 0.0000 1.0000
N23 N 0.6149(5) 0.0321(2) 1.0022(2)
N23A N 0.3851(5) -0.0321(2) 0.9978(2)
O22 O 0.4604(4) 0.30441(18) 0.67771(18)
C40 C 0.3670(5) 0.3664(3) 0.6978(2)
Ba1 Ba 0.77286(3) 0.666331(13) 0.638641(12)
Ba2 Ba 1.00579(3) 0.992231(13) 0.694105(11)
N1 N 0.8703(5) 0.7316(2) 0.74632(19)
N2 N 0.8677(4) 0.7970(2) 0.75710(17)
N3 N 0.8661(5) 0.8624(2) 0.76906(19)
N4 N 1.0204(4) 0.7601(2) 0.59232(17)
N5 N 1.0693(4) 0.80873(19) 0.62006(17)
N6 N 1.1235(4) 0.8560(2) 0.6474(2)
N7 N 0.6594(4) 0.8186(2) 0.6376(2)
N8 N 0.7203(4) 0.8790(2) 0.62947(18)
N9 N 0.7774(4) 0.9406(2) 0.62096(18)
O1 O 0.8053(3) 0.54725(17) 0.74569(15)
O2 O 0.5269(3) 0.62789(16) 0.73125(14)
O3 O 0.4578(3) 0.68050(16) 0.60202(14)
O4 O 0.6844(3) 0.70429(17) 0.50752(14)
O5 O 0.9398(3) 0.60893(16) 0.52653(14)
O6 O 1.0395(3) 0.56015(16) 0.65123(15)
O7 O 0.8682(3) 1.11633(16) 0.61145(14)
O8 O 1.1394(3) 1.04518(16) 0.56888(14)
O9 O 1.3356(3) 0.99925(16) 0.66711(14)
O10 O 1.2218(3) 0.96104(17) 0.79385(14)
O11 O 0.9408(3) 1.02080(17) 0.82889(14)
O12 O 0.7330(3) 1.07569(16) 0.73569(14)
C1 C 0.7081(5) 0.5636(3) 0.7993(2)
H1 H 0.7330 0.6147 0.8127
H2 H 0.7216 0.5235 0.8359
C2 C 0.5471(5) 0.5642(2) 0.7799(2)
H3 H 0.5251 0.5147 0.7631
H4 H 0.4766 0.5700 0.8177
C3 C 0.3793(5) 0.6268(2) 0.7077(2)
H5 H 0.3018 0.6301 0.7434
H6 H 0.3650 0.5775 0.6890
C4 C 0.3610(5) 0.6938(2) 0.6576(2)
H7 H 0.2542 0.6986 0.6460
H8 H 0.3894 0.7426 0.6742
C5 C 0.4398(5) 0.7399(2) 0.5501(2)
H9 H 0.4773 0.7899 0.5613
H10 H 0.3315 0.7464 0.5411
C6 C 0.5297(5) 0.7155(3) 0.4923(2)
H11 H 0.4890 0.6666 0.4802
H12 H 0.5221 0.7560 0.4555
C7 C 0.7744(5) 0.6787(3) 0.4548(2)
H13 H 0.7700 0.7178 0.4169
H14 H 0.7343 0.6293 0.4434
C8 C 0.9340(5) 0.6671(3) 0.4727(2)
H15 H 0.9973 0.6507 0.4359
H16 H 0.9743 0.7165 0.4840
C9 C 1.0926(5) 0.5878(3) 0.5387(2)
H17 H 1.1485 0.6339 0.5478
H18 H 1.1430 0.5673 0.5004
C10 C 1.0942(5) 0.5275(3) 0.5947(2)
H19 H 1.0295 0.4837 0.5875
H20 H 1.1987 0.5075 0.5999
C11 C 1.0446(5) 0.5053(2) 0.7072(2)
H21 H 1.1511 0.4945 0.7176
H22 H 0.9982 0.4559 0.6992
C12 C 0.9600(5) 0.5385(3) 0.7614(2)
H23 H 0.9681 0.5034 0.8016
H24 H 1.0022 0.5895 0.7677
C13 C 0.9003(5) 1.1046(3) 0.5455(2)
H25 H 0.8497 1.1456 0.5174
H26 H 0.8616 1.0537 0.5371
C14 C 1.0679(5) 1.1075(3) 0.5311(2)
H27 H 1.0915 1.1030 0.4849
H28 H 1.1069 1.1577 0.5411
C15 C 1.3011(5) 1.0498(3) 0.5593(2)
H29 H 1.3354 1.1008 0.5698
H30 H 1.3322 1.0447 0.5138
C16 C 1.3719(5) 0.9861(3) 0.6017(2)
H31 H 1.3326 0.9352 0.5934
H32 H 1.4831 0.9858 0.5929
C17 C 1.4137(5) 0.9458(3) 0.7111(2)
H33 H 1.5241 0.9476 0.7001
H34 H 1.3790 0.8923 0.7088
C18 C 1.3805(5) 0.9684(3) 0.7774(2)
H35 H 1.4384 0.9344 0.8085
H36 H 1.4116 1.0227 0.7792
C19 C 1.1835(5) 0.9763(3) 0.8584(2)
H37 H 1.2115 1.0300 0.8643
H38 H 1.2395 0.9401 0.8885
C20 C 1.0172(5) 0.9659(3) 0.8718(2)
H39 H 0.9887 0.9125 0.8653
H40 H 0.9884 0.9746 0.9169
C21 C 0.7798(5) 1.0212(3) 0.8423(2)
H41 H 0.7555 1.0262 0.8885
H42 H 0.7360 0.9723 0.8318
C22 C 0.7162(5) 1.0892(3) 0.8018(2)
H43 H 0.6077 1.0964 0.8145
H44 H 0.7703 1.1370 0.8083
C23 C 0.6858(5) 1.1422(3) 0.6948(2)
H45 H 0.7451 1.1879 0.7023
H46 H 0.5774 1.1536 0.7048
C24 C 0.7097(5) 1.1267(3) 0.6261(2)
H47 H 0.6547 1.0794 0.6189
H48 H 0.6702 1.1709 0.5977
O19 O 0.6582(4) 0.51966(17) 0.62349(15)
O20 O 1.0911(4) 1.14439(17) 0.70629(17)
C37 C 0.5841(5) 0.5069(3) 0.5673(2)
C38 C 1.1935(6) 1.1692(3) 0.7499(3)
N16? N 1.6026(6) 0.5950(2) -0.0588(2)
loop_
_geom_bond_atom_site_label_1
_geom_bond_atom_site_label_2
_geom_bond_site_symmetry_1
_geom_bond_site_symmetry_2
Ba1 N1 1_555 1_555
Ba2 N3 1_555 1_555
Ba3 N10 1_555 1_555
N1 N2 1_555 1_555
N2 N3 1_555 1_555
N4 Ba1 1_555 1_555
N5 N4 1_555 1_555
N6 Ba2 1_555 1_555
N7 Ba1 1_555 1_555
N8 N7 1_555 1_555
N9 Ba2 1_555 1_555
N10 N11 1_555 1_555
N11 N12A 1_555 1_555
N12 Ba3 1_555 1_555
N13 Ba3 1_555 1_555
N14 N13 1_555 1_555
N15 Ba3 1_555 1_555
N17 N13 1_555 1_555
N18 Ba3 1_555 1_555
N19 N20 1_555 1_555
N20 N21 1_555 1_555
N22 N23 1_555 1_555
O1 Ba1 1_555 1_555
O2 Ba1 1_555 1_555
O3 Ba1 1_555 1_555
O4 Ba1 1_555 1_555
O5 Ba1 1_555 1_555
O6 Ba1 1_555 1_555
O7 Ba2 1_555 1_555
O8 Ba2 1_555 1_555
O9 Ba2 1_555 1_555
O10 Ba2 1_555 1_555
O11 Ba2 1_555 1_555
O12 Ba2 1_555 1_555
O13 Ba3 1_555 1_555
O14 Ba3 1_555 1_555
O15 Ba3 1_555 1_555
O16 Ba3 1_555 1_555
O17 Ba3 1_555 1_555
O18 Ba3 1_555 1_555
C1 O1 1_555 1_555
H1 C1 1_555 1_555
H2 C1 1_555 1_555
C2 O2 1_555 1_555
H3 C2 1_555 1_555
H4 C2 1_555 1_555
C3 O2 1_555 1_555
H5 C3 1_555 1_555
H6 C3 1_555 1_555
C4 O3 1_555 1_555
H7 C4 1_555 1_555
H8 C4 1_555 1_555
C5 O3 1_555 1_555
H9 C5 1_555 1_555
H10 C5 1_555 1_555
C6 O4 1_555 1_555
H11 C6 1_555 1_555
H12 C6 1_555 1_555
C7 O4 1_555 1_555
H13 C7 1_555 1_555
H14 C7 1_555 1_555
C8 O5 1_555 1_555
H15 C8 1_555 1_555
H16 C8 1_555 1_555
C9 O5 1_555 1_555
H17 C9 1_555 1_555
H18 C9 1_555 1_555
C10 O6 1_555 1_555
H19 C10 1_555 1_555
H20 C10 1_555 1_555
C11 O6 1_555 1_555
H21 C11 1_555 1_555
H22 C11 1_555 1_555
C12 O1 1_555 1_555
H23 C12 1_555 1_555
H24 C12 1_555 1_555
C13 O7 1_555 1_555
H25 C13 1_555 1_555
H26 C13 1_555 1_555
C14 O8 1_555 1_555
H27 C14 1_555 1_555
H28 C14 1_555 1_555
C15 O8 1_555 1_555
H29 C15 1_555 1_555
H30 C15 1_555 1_555
C16 O9 1_555 1_555
H31 C16 1_555 1_555
H32 C16 1_555 1_555
C17 O9 1_555 1_555
H33 C17 1_555 1_555
H34 C17 1_555 1_555
C18 O10 1_555 1_555
H35 C18 1_555 1_555
H36 C18 1_555 1_555
C19 O10 1_555 1_555
H37 C19 1_555 1_555
H38 C19 1_555 1_555
C20 O11 1_555 1_555
H39 C20 1_555 1_555
H40 C20 1_555 1_555
C21 O11 1_555 1_555
H41 C21 1_555 1_555
H42 C21 1_555 1_555
C22 O12 1_555 1_555
H43 C22 1_555 1_555
H44 C22 1_555 1_555
C23 O12 1_555 1_555
H45 C23 1_555 1_555
H46 C23 1_555 1_555
C24 O7 1_555 1_555
H47 C24 1_555 1_555
H48 C24 1_555 1_555
C25 O13 1_555 1_555
H49 C25 1_555 1_555
H50 C25 1_555 1_555
C26 O14 1_555 1_555
H51 C26 1_555 1_555
H52 C26 1_555 1_555
C27 O14 1_555 1_555
H53 C27 1_555 1_555
H54 C27 1_555 1_555
C28 O15 1_555 1_555
H55 C28 1_555 1_555
H56 C28 1_555 1_555
C29 O15 1_555 1_555
H57 C29 1_555 1_555
H58 C29 1_555 1_555
C30 O16 1_555 1_555
H59 C30 1_555 1_555
H60 C30 1_555 1_555
C31 O16 1_555 1_555
H61 C31 1_555 1_555
H62 C31 1_555 1_555
C32 O17 1_555 1_555
H63 C32 1_555 1_555
H64 C32 1_555 1_555
C33 O17 1_555 1_555
H65 C33 1_555 1_555
H66 C33 1_555 1_555
C34 O18 1_555 1_555
H67 C34 1_555 1_555
H68 C34 1_555 1_555
C35 O18 1_555 1_555
H69 C35 1_555 1_555
H70 C35 1_555 1_555
C36 O13 1_555 1_555
H71 C36 1_555 1_555
H72 C36 1_555 1_555
O19 Ba1 1_555 1_555
O20 Ba2 1_555 1_555
O21 Ba3 1_555 1_555
O22 C40 1_555 1_555
C37 O19 1_555 1_555
C38 O20 1_555 1_555
C39 O21 1_555 1_555
Ba3A N10A 1_555 1_555
N10A N11A 1_555 1_555
N11A N12 1_555 1_555
N12A Ba3A 1_555 1_555
N13A Ba3A 1_555 1_555
N14A N15 1_555 1_555
N15A N11 1_555 1_555
N17A N18 1_555 1_555
N18A N17 1_555 1_555
N23A N22 1_555 1_555
O13A Ba3A 1_555 1_555
O14A Ba3A 1_555 1_555
O15A Ba3A 1_555 1_555
O16A Ba3A 1_555 1_555
O17A Ba3A 1_555 1_555
O18A Ba3A 1_555 1_555
C25A O13A 1_555 1_555
H49A C25A 1_555 1_555
H50A C25A 1_555 1_555
C26A O14A 1_555 1_555
H51A C26A 1_555 1_555
H52A C26A 1_555 1_555
C27A O14A 1_555 1_555
H53A C27A 1_555 1_555
H54A C27A 1_555 1_555
C28A O15A 1_555 1_555
H55A C28A 1_555 1_555
H56A C28A 1_555 1_555
C29A O15A 1_555 1_555
H57A C29A 1_555 1_555
H58A C29A 1_555 1_555
C30A O16A 1_555 1_555
H59A C30A 1_555 1_555
H60A C30A 1_555 1_555
C31A O16A 1_555 1_555
H61A C31A 1_555 1_555
H62A C31A 1_555 1_555
C32A O17A 1_555 1_555
H63A C32A 1_555 1_555
H64A C32A 1_555 1_555
C33A O17A 1_555 1_555
H65A C33A 1_555 1_555
H66A C33A 1_555 1_555
C34A O18A 1_555 1_555
H67A C34A 1_555 1_555
H68A C34A 1_555 1_555
C35A O18A 1_555 1_555
H69A C35A 1_555 1_555
H70A C35A 1_555 1_555
C36A O13A 1_555 1_555
H71A C36A 1_555 1_555
H72A C36A 1_555 1_555
O21A Ba3A 1_555 1_555
C39A O21A 1_555 1_555
N5 N6 1_555 1_555
N8 N9 1_555 1_555
N10 N18 1_555 1_555
N12 N15 1_555 1_555
N14 N17 1_555 1_555
N14 N15A 1_555 1_555
N15 N11A 1_555 1_555
C1 C2 1_555 1_555
C3 C4 1_555 1_555
C5 C6 1_555 1_555
C7 C8 1_555 1_555
C9 C10 1_555 1_555
C11 C12 1_555 1_555
C13 C14 1_555 1_555
C15 C16 1_555 1_555
C17 C18 1_555 1_555
C19 C20 1_555 1_555
C21 C22 1_555 1_555
C23 C24 1_555 1_555
C25 C26 1_555 1_555
C27 C28 1_555 1_555
C29 C30 1_555 1_555
C31 C32 1_555 1_555
C33 C34 1_555 1_555
C35 C36 1_555 1_555
Ba3A N15A 1_555 1_555
Ba3A N18A 1_555 1_555
N10A N18A 1_555 1_555
N12A N15A 1_555 1_555
N13A N14A 1_555 1_555
N13A N17A 1_555 1_555
N14A N17A 1_555 1_555
C25A C26A 1_555 1_555
C27A C28A 1_555 1_555
C29A C30A 1_555 1_555
C31A C32A 1_555 1_555
C33A C34A 1_555 1_555
C35A C36A 1_555 1_555

#END
