
#######################################################################
#
#                 Cambridge Crystallographic Data Centre
#                                CCDC 
#
#######################################################################
#
# If this CIF has been generated from an entry in the Cambridge 
# Structural Database, then it will include bibliographic, chemical, 
# crystal, experimental, refinement or atomic coordinate data resulting 
# from the CCDC's data processing and validation procedures.
#
#######################################################################

data_WOBFAV
_chemical_compound_source        
'culture of a marine-derived fungus Fusarium sp. 05ABR26'
_chemical_name_common            "5'-Hydroxyzearalenol monohydrate"
_chemical_formula_moiety         'C18 H24 O6,H2 O1'
_chemical_name_systematic        
'(4S,8S,9R,12E)-8,9,16,18-Tetrahydroxy-4-methyl-3-oxabicyclo[12.4.0]octadeca-12,14,16,18-tetraen-2-one monohydrate'
_chemical_properties_biological  
'closely related in structure to the zearalenone series compounds, which show attractive cytotoxic and genotoxic effects. No activity against Pyricularia oryzae'
_symmetry_cell_setting           monoclinic
_symmetry_space_group_name_H-M   'C 2'
_symmetry_Int_Tables_number      5
_space_group_name_Hall           'C 2y'
loop_
_symmetry_equiv_pos_site_id
_symmetry_equiv_pos_as_xyz
1 x,y,z
2 -x,y,-z
3 1/2+x,1/2+y,z
4 1/2-x,1/2+y,-z
_cell_length_a                   18.230(13)
_cell_length_b                   8.078(6)
_cell_length_c                   13.859(10)
_cell_angle_alpha                90
_cell_angle_beta                 118.441(7)
_cell_angle_gamma                90
_cell_volume                     1794.58
_exptl_crystal_colour            colorless
_exptl_crystal_description       prismatic
_cell_formula_units_Z            4
_exptl_crystal_recrystallization_method n-hexane/acetone
loop_
_atom_site_label
_atom_site_type_symbol
_atom_site_fract_x
_atom_site_fract_y
_atom_site_fract_z
O1 O 0.87041(14) 0.9823(4) 0.35088(18)
H1 H 0.9095 0.9537 0.4097
O2 O 0.57717(14) 1.0109(4) 0.17068(18)
H2 H 0.5858 1.0169 0.1179
O3 O 0.94595(16) 0.9216(6) 0.5568(2)
O4 O 0.88071(13) 0.9854(4) 0.65314(17)
O5 O 0.72718(18) 1.0008(6) 0.9735(2)
H3 H 0.7625 0.9468 1.0246
O6 O 0.66680(16) 1.3023(4) 0.84561(19)
H4 H 0.6419 1.3637 0.7927
C1 C 0.7995(2) 0.9662(5) 0.4620(2)
C2 C 0.7992(2) 0.9843(5) 0.3592(2)
C3 C 0.7262(2) 1.0060(5) 0.2629(2)
H5 H 0.7276 1.0236 0.1974
C4 C 0.6507(2) 1.0013(5) 0.2640(3)
C5 C 0.6486(2) 0.9815(6) 0.3631(3)
H6 H 0.5974 0.9796 0.3627
C6 C 0.7212(2) 0.9647(5) 0.4616(2)
C7 C 0.8817(2) 0.9544(5) 0.5596(3)
C8 C 0.95980(19) 0.9713(6) 0.7568(3)
H7 H 0.9929 0.8807 0.7503
C9 C 1.0078(3) 1.1291(7) 0.7781(3)
H8 H 0.9743 1.2193 0.7802
H9 H 1.0219 1.1477 0.7206
H10 H 1.0579 1.1217 0.8472
C10 C 0.9323(2) 0.9242(6) 0.8403(3)
H11 H 0.9815 0.9076 0.9106
H12 H 0.9029 0.8194 0.8186
C11 C 0.8762(2) 1.0502(6) 0.8548(3)
H13 H 0.8392 1.1000 0.7845
H14 H 0.9101 1.1374 0.9039
C12 C 0.8244(2) 0.9679(6) 0.9019(3)
H15 H 0.7923 0.8784 0.8535
H16 H 0.8621 0.9195 0.9725
C13 C 0.7651(2) 1.0828(6) 0.9170(3)
H17 H 0.7984 1.1742 0.9639
C14 C 0.6964(2) 1.1592(5) 0.8125(3)
H18 H 0.7219 1.1980 0.7684
C15 C 0.6219(2) 1.0505(6) 0.7391(3)
H19 H 0.5768 1.1230 0.6911
H20 H 0.6037 0.9939 0.7857
C16 C 0.6331(2) 0.9197(6) 0.6671(3)
H21 H 0.6776 0.8455 0.7143
H22 H 0.5823 0.8549 0.6312
C17 C 0.6529(2) 0.9851(6) 0.5804(3)
H23 H 0.6215 1.0736 0.5378
C18 C 0.7121(2) 0.9253(5) 0.5606(3)
H24 H 0.7508 0.8534 0.6122
O7 O 0.58903(19) 1.0466(9) -0.0085(2)
H25 H 0.6336(15) 1.034(7) -0.014(3)
H26 H 0.5421(16) 1.052(11) -0.067(3)
loop_
_geom_bond_atom_site_label_1
_geom_bond_atom_site_label_2
_geom_bond_site_symmetry_1
_geom_bond_site_symmetry_2
O1 H1 1_555 1_555
O2 H2 1_555 1_555
O3 C7 1_555 1_555
O4 C7 1_555 1_555
O5 H3 1_555 1_555
O6 H4 1_555 1_555
C1 C2 1_555 1_555
C2 O1 1_555 1_555
C3 C2 1_555 1_555
H5 C3 1_555 1_555
C4 O2 1_555 1_555
C5 C4 1_555 1_555
H6 C5 1_555 1_555
C6 C1 1_555 1_555
C7 C1 1_555 1_555
C8 O4 1_555 1_555
H7 C8 1_555 1_555
C9 C8 1_555 1_555
H8 C9 1_555 1_555
H9 C9 1_555 1_555
H10 C9 1_555 1_555
C10 C8 1_555 1_555
H11 C10 1_555 1_555
H12 C10 1_555 1_555
C11 C10 1_555 1_555
H13 C11 1_555 1_555
H14 C11 1_555 1_555
C12 C11 1_555 1_555
H15 C12 1_555 1_555
H16 C12 1_555 1_555
C13 O5 1_555 1_555
H17 C13 1_555 1_555
C14 O6 1_555 1_555
H18 C14 1_555 1_555
C15 C14 1_555 1_555
H19 C15 1_555 1_555
H20 C15 1_555 1_555
C16 C15 1_555 1_555
H21 C16 1_555 1_555
H22 C16 1_555 1_555
C17 C16 1_555 1_555
H23 C17 1_555 1_555
C18 C6 1_555 1_555
H24 C18 1_555 1_555
O7 H25 1_555 1_555
H26 O7 1_555 1_555
C3 C4 1_555 1_555
C5 C6 1_555 1_555
C12 C13 1_555 1_555
C13 C14 1_555 1_555
C17 C18 1_555 1_555

#END
