
#######################################################################
#
#                 Cambridge Crystallographic Data Centre
#                                CCDC 
#
#######################################################################
#
# If this CIF has been generated from an entry in the Cambridge 
# Structural Database, then it will include bibliographic, chemical, 
# crystal, experimental, refinement or atomic coordinate data resulting 
# from the CCDC's data processing and validation procedures.
#
#######################################################################

data_WOBNEG
_chemical_formula_moiety         'C15 H14 N2 O2,H2 O1'
_chemical_name_systematic        
'p-Methoxybenzaldehyde benzoylhydrazone monohydrate'
_symmetry_cell_setting           monoclinic
_symmetry_space_group_name_H-M   'P 21/c'
_symmetry_Int_Tables_number      14
_space_group_name_Hall           '-P 2ybc'
loop_
_symmetry_equiv_pos_site_id
_symmetry_equiv_pos_as_xyz
1 x,y,z
2 -x,1/2+y,1/2-z
3 -x,-y,-z
4 x,1/2-y,1/2+z
_cell_length_a                   11.9398(6)
_cell_length_b                   11.8595(6)
_cell_length_c                   11.3972(6)
_cell_angle_alpha                90
_cell_angle_beta                 116.3890(10)
_cell_angle_gamma                90
_cell_volume                     1445.68
_exptl_crystal_colour            colorless
_exptl_crystal_description       slab
_cell_formula_units_Z            4
_exptl_crystal_recrystallization_method ethanol
loop_
_atom_site_label
_atom_site_type_symbol
_atom_site_fract_x
_atom_site_fract_y
_atom_site_fract_z
O1 O 1.14877(15) 0.41833(15) 0.62626(15)
O2 O 0.48621(14) 0.11530(13) 0.60664(14)
N1 N 0.68145(16) 0.25838(15) 0.71384(16)
N2 N 0.59483(15) 0.24386(15) 0.76335(16)
H1 H 0.6013 0.2817 0.8305
C1 C 1.2651(2) 0.4674(3) 0.7165(3)
H2 H 1.3180 0.4775 0.6739
H3 H 1.3056 0.4184 0.7906
H4 H 1.2497 0.5392 0.7455
C2 C 1.0620(2) 0.39819(19) 0.6718(2)
C3 C 0.9541(2) 0.3440(2) 0.5833(2)
H5 H 0.9448 0.3258 0.5001
C4 C 0.8610(2) 0.3174(2) 0.6188(2)
H6 H 0.7895 0.2804 0.5594
C5 C 0.87257(19) 0.34513(18) 0.74243(19)
C6 C 0.9807(2) 0.39945(19) 0.8279(2)
H7 H 0.9899 0.4189 0.9107
C7 C 1.0761(2) 0.4260(2) 0.7946(2)
H8 H 1.1482 0.4619 0.8542
C8 C 0.77408(19) 0.32161(18) 0.7817(2)
H9 H 0.7791 0.3536 0.8584
C9 C 0.50076(19) 0.16983(18) 0.7048(2)
C10 C 0.4136(2) 0.15748(17) 0.7660(2)
C11 C 0.2865(2) 0.1510(2) 0.6843(2)
H10 H 0.2570 0.1557 0.5940
C12 C 0.2038(3) 0.1375(2) 0.7380(3)
H11 H 0.1183 0.1351 0.6836
C13 C 0.2470(3) 0.1277(2) 0.8707(3)
H12 H 0.1909 0.1180 0.9061
C14 C 0.3720(3) 0.1324(2) 0.9509(3)
H13 H 0.4012 0.1248 1.0410
C15 C 0.4561(2) 0.1483(2) 0.8985(2)
H14 H 0.5414 0.1527 0.9537
O3 O 0.62976(17) 0.09820(14) 0.46274(16)
H15 H 0.608(3) 0.120(2) 0.525(2)
H16 H 0.590(3) 0.034(2) 0.430(3)
loop_
_geom_bond_atom_site_label_1
_geom_bond_atom_site_label_2
_geom_bond_site_symmetry_1
_geom_bond_site_symmetry_2
O1 C1 1_555 1_555
O2 C9 1_555 1_555
N1 N2 1_555 1_555
N2 H1 1_555 1_555
C1 H2 1_555 1_555
H3 C1 1_555 1_555
H4 C1 1_555 1_555
C2 O1 1_555 1_555
C3 C2 1_555 1_555
H5 C3 1_555 1_555
C4 C3 1_555 1_555
H6 C4 1_555 1_555
C5 C4 1_555 1_555
C6 C5 1_555 1_555
H7 C6 1_555 1_555
C7 C2 1_555 1_555
H8 C7 1_555 1_555
C8 N1 1_555 1_555
H9 C8 1_555 1_555
C9 N2 1_555 1_555
C10 C9 1_555 1_555
C11 C10 1_555 1_555
H10 C11 1_555 1_555
C12 C11 1_555 1_555
H11 C12 1_555 1_555
C13 C12 1_555 1_555
H12 C13 1_555 1_555
C14 C13 1_555 1_555
H13 C14 1_555 1_555
C15 C10 1_555 1_555
H14 C15 1_555 1_555
O3 H15 1_555 1_555
H16 O3 1_555 1_555
C5 C8 1_555 1_555
C6 C7 1_555 1_555
C14 C15 1_555 1_555

#END
