
#######################################################################
#
#                 Cambridge Crystallographic Data Centre
#                                CCDC 
#
#######################################################################
#
# If this CIF has been generated from an entry in the Cambridge 
# Structural Database, then it will include bibliographic, chemical, 
# crystal, experimental, refinement or atomic coordinate data resulting 
# from the CCDC's data processing and validation procedures.
#
#######################################################################

data_WOBNIK
_chemical_formula_moiety         'C19 H14 N4 O2'
_chemical_name_systematic        
'4-Hydroxy-3-methoxybenzaldehyde 4,5-diaza-9-fluorenylidenehydrazone'
_symmetry_cell_setting           orthorhombic
_symmetry_space_group_name_H-M   'P n a 21'
_symmetry_Int_Tables_number      33
_space_group_name_Hall           'P 2c -2n'
loop_
_symmetry_equiv_pos_site_id
_symmetry_equiv_pos_as_xyz
1 x,y,z
2 -x,-y,1/2+z
3 1/2-x,1/2+y,1/2+z
4 1/2+x,1/2-y,z
_cell_length_a                   7.5130(2)
_cell_length_b                   26.9091(5)
_cell_length_c                   7.91410(10)
_cell_angle_alpha                90
_cell_angle_beta                 90
_cell_angle_gamma                90
_cell_volume                     1599.98
_exptl_crystal_colour            yellow
_exptl_crystal_description       slab
_cell_formula_units_Z            4
_exptl_crystal_recrystallization_method ethanol
loop_
_atom_site_label
_atom_site_type_symbol
_atom_site_fract_x
_atom_site_fract_y
_atom_site_fract_z
O1 O 0.7711(2) 0.43423(6) 0.4619(3)
H1 H 0.8081 0.4177 0.5414
O2 O 0.6694(2) 0.49751(6) 0.2260(2)
N1 N 0.6434(3) 0.80233(8) -0.0038(3)
N2 N 0.7414(3) 0.87917(7) 0.2684(3)
N3 N 0.8335(3) 0.71907(7) 0.5134(3)
N4 N 0.8097(3) 0.66955(7) 0.4617(3)
C1 C 0.7257(3) 0.74481(8) 0.2208(3)
C2 C 0.6917(3) 0.70404(9) 0.1185(4)
H2 H 0.7085 0.6717 0.1571
C3 C 0.6319(4) 0.71351(10) -0.0425(4)
H3 H 0.6060 0.6872 -0.1146
C4 C 0.6100(4) 0.76198(10) -0.0983(4)
H4 H 0.5696 0.7668 -0.2081
C5 C 0.7009(3) 0.79257(8) 0.1516(3)
C6 C 0.7472(3) 0.82960(8) 0.2821(3)
C7 C 0.7863(4) 0.90388(9) 0.4103(4)
H5 H 0.7842 0.9384 0.4059
C8 C 0.8350(3) 0.88232(9) 0.5610(4)
H6 H 0.8624 0.9020 0.6542
C9 C 0.8426(3) 0.83119(9) 0.5722(4)
H7 H 0.8760 0.8154 0.6717
C10 C 0.7984(3) 0.80459(8) 0.4293(3)
C11 C 0.7893(3) 0.75057(8) 0.3973(3)
C12 C 0.8597(3) 0.63852(8) 0.5753(3)
H8 H 0.9087 0.6500 0.6759
C13 C 0.8398(3) 0.58524(8) 0.5469(3)
C14 C 0.8966(3) 0.55167(8) 0.6688(3)
H9 H 0.9485 0.5629 0.7684
C15 C 0.8747(3) 0.50077(9) 0.6398(3)
H10 H 0.9134 0.4783 0.7210
C16 C 0.7975(3) 0.48325(8) 0.4942(3)
C17 C 0.7430(3) 0.51746(9) 0.3687(3)
C18 C 0.7640(3) 0.56748(8) 0.3968(3)
H11 H 0.7273 0.5900 0.3147
C19 C 0.6391(4) 0.53099(10) 0.0897(4)
H12 H 0.5873 0.5133 -0.0035
H13 H 0.7501 0.5454 0.0551
H14 H 0.5595 0.5568 0.1257
loop_
_geom_bond_atom_site_label_1
_geom_bond_atom_site_label_2
_geom_bond_site_symmetry_1
_geom_bond_site_symmetry_2
O1 H1 1_555 1_555
O2 C17 1_555 1_555
N1 C4 1_555 1_555
N2 C6 1_555 1_555
N3 N4 1_555 1_555
N4 C12 1_555 1_555
C1 C2 1_555 1_555
C2 H2 1_555 1_555
C3 C2 1_555 1_555
H3 C3 1_555 1_555
C4 C3 1_555 1_555
H4 C4 1_555 1_555
C5 N1 1_555 1_555
C6 C5 1_555 1_555
C7 N2 1_555 1_555
H5 C7 1_555 1_555
C8 C7 1_555 1_555
H6 C8 1_555 1_555
C9 C8 1_555 1_555
H7 C9 1_555 1_555
C10 C6 1_555 1_555
C11 N3 1_555 1_555
C12 H8 1_555 1_555
C13 C12 1_555 1_555
C14 C13 1_555 1_555
H9 C14 1_555 1_555
C15 C14 1_555 1_555
H10 C15 1_555 1_555
C16 O1 1_555 1_555
C17 C16 1_555 1_555
C18 C13 1_555 1_555
H11 C18 1_555 1_555
C19 O2 1_555 1_555
H12 C19 1_555 1_555
H13 C19 1_555 1_555
H14 C19 1_555 1_555
C1 C11 1_555 1_555
C1 C5 1_555 1_555
C9 C10 1_555 1_555
C10 C11 1_555 1_555
C15 C16 1_555 1_555
C17 C18 1_555 1_555

#END
