
#######################################################################
#
#                 Cambridge Crystallographic Data Centre
#                                CCDC 
#
#######################################################################
#
# If this CIF has been generated from an entry in the Cambridge 
# Structural Database, then it will include bibliographic, chemical, 
# crystal, experimental, refinement or atomic coordinate data resulting 
# from the CCDC's data processing and validation procedures.
#
#######################################################################

data_WOBXOA01
_chemical_formula_moiety         'C26 H20 N2 S2'
_chemical_name_systematic        1,2-bis(8-Quinolylthiomethyl)benzene
_symmetry_cell_setting           triclinic
_symmetry_space_group_name_H-M   'P -1'
_symmetry_Int_Tables_number      2
_space_group_name_Hall           '-P 1'
loop_
_symmetry_equiv_pos_site_id
_symmetry_equiv_pos_as_xyz
1 x,y,z
2 -x,-y,-z
_cell_length_a                   9.1127(10)
_cell_length_b                   10.8405(12)
_cell_length_c                   11.9404(13)
_cell_angle_alpha                112.196(2)
_cell_angle_beta                 95.392(2)
_cell_angle_gamma                105.669(2)
_cell_volume                     1025.82
_exptl_crystal_colour            colorless
_exptl_crystal_description       block
_cell_formula_units_Z            2
_exptl_crystal_recrystallization_method 'dichloromethane/di-isopropyl ether'
loop_
_atom_site_label
_atom_site_type_symbol
_atom_site_fract_x
_atom_site_fract_y
_atom_site_fract_z
N1 N 0.85568(14) 0.75672(13) 0.47647(11)
C1 C 0.95817(18) 0.82508(16) 0.58388(14)
H1 H 0.9229 0.8206 0.6551
C2 C 1.11463(18) 0.90359(16) 0.60060(14)
H2 H 1.1826 0.9495 0.6803
C3 C 1.16714(18) 0.91262(16) 0.49983(14)
H3 H 1.2730 0.9646 0.5084
C4 C 1.06342(17) 0.84438(15) 0.38291(13)
C5 C 1.11036(18) 0.85072(17) 0.27498(15)
H4 H 1.2150 0.9030 0.2804
C6 C 1.00696(19) 0.78258(18) 0.16341(15)
H5 H 1.0396 0.7876 0.0915
C7 C 0.85147(18) 0.70460(17) 0.15433(14)
H6 H 0.7804 0.6576 0.0760
C8 C 0.80075(17) 0.69529(15) 0.25668(13)
C9 C 0.90748(16) 0.76619(14) 0.37517(13)
S1 S 0.60648(4) 0.58777(4) 0.23683(3)
C10 C 0.51906(16) 0.71686(14) 0.32405(12)
H7 H 0.5834 0.7758 0.4092
H8 H 0.5110 0.7794 0.2827
C11 C 0.35917(16) 0.63402(13) 0.32764(12)
C12 C 0.23599(17) 0.58170(14) 0.22525(12)
H9 H 0.2543 0.6007 0.1554
C13 C 0.08815(17) 0.50296(15) 0.22366(14)
H10 H 0.0055 0.4685 0.1534
C14 C 0.06088(18) 0.47446(16) 0.32465(14)
H11 H -0.0408 0.4209 0.3243
C15 C 0.18200(18) 0.52412(15) 0.42654(13)
H12 H 0.1625 0.5039 0.4956
C16 C 0.33209(16) 0.60329(14) 0.42924(12)
C17 C 0.46028(17) 0.65492(14) 0.54235(12)
H13 H 0.5612 0.6551 0.5179
H14 H 0.4362 0.5925 0.5857
S2 S 0.47155(4) 0.83365(4) 0.64360(3)
N2 N 0.55445(14) 1.08829(12) 0.86524(10)
C18 C 0.57652(17) 1.20831(14) 0.96195(13)
H15 H 0.5252 1.2702 0.9520
C19 C 0.67126(18) 1.25011(15) 1.07861(13)
H16 H 0.6823 1.3373 1.1452
C20 C 0.74691(17) 1.16356(15) 1.09450(13)
H17 H 0.8116 1.1900 1.1726
C21 C 0.72867(16) 1.03399(14) 0.99417(12)
C22 C 0.80351(17) 0.93861(16) 1.00347(13)
H18 H 0.8700 0.9605 1.0794
C23 C 0.77995(17) 0.81542(16) 0.90332(13)
H19 H 0.8320 0.7525 0.9097
C24 C 0.67960(16) 0.77928(15) 0.79005(12)
H20 H 0.6641 0.6921 0.7217
C25 C 0.60415(15) 0.86870(14) 0.77761(11)
C26 C 0.62941(15) 1.00051(14) 0.88100(11)
loop_
_geom_bond_atom_site_label_1
_geom_bond_atom_site_label_2
_geom_bond_site_symmetry_1
_geom_bond_site_symmetry_2
N1 C1 1_555 1_555
C1 H1 1_555 1_555
C2 C1 1_555 1_555
H2 C2 1_555 1_555
C3 C2 1_555 1_555
H3 C3 1_555 1_555
C4 C3 1_555 1_555
C5 C4 1_555 1_555
H4 C5 1_555 1_555
C6 C5 1_555 1_555
H5 C6 1_555 1_555
C7 C6 1_555 1_555
H6 C7 1_555 1_555
C8 C7 1_555 1_555
C9 N1 1_555 1_555
S1 C8 1_555 1_555
C10 S1 1_555 1_555
H7 C10 1_555 1_555
H8 C10 1_555 1_555
C11 C10 1_555 1_555
C12 C11 1_555 1_555
H9 C12 1_555 1_555
C13 C12 1_555 1_555
H10 C13 1_555 1_555
C14 C13 1_555 1_555
H11 C14 1_555 1_555
C15 C14 1_555 1_555
H12 C15 1_555 1_555
C16 C11 1_555 1_555
C17 C16 1_555 1_555
H13 C17 1_555 1_555
H14 C17 1_555 1_555
S2 C17 1_555 1_555
N2 C18 1_555 1_555
C18 H15 1_555 1_555
C19 C18 1_555 1_555
H16 C19 1_555 1_555
C20 C19 1_555 1_555
H17 C20 1_555 1_555
C21 C20 1_555 1_555
C22 C21 1_555 1_555
H18 C22 1_555 1_555
C23 C22 1_555 1_555
H19 C23 1_555 1_555
C24 C23 1_555 1_555
H20 C24 1_555 1_555
C25 S2 1_555 1_555
C26 N2 1_555 1_555
C4 C9 1_555 1_555
C8 C9 1_555 1_555
C15 C16 1_555 1_555
C21 C26 1_555 1_555
C24 C25 1_555 1_555
C25 C26 1_555 1_555

#END
