
#######################################################################
#
#                 Cambridge Crystallographic Data Centre
#                                CCDC 
#
#######################################################################
#
# If this CIF has been generated from an entry in the Cambridge 
# Structural Database, then it will include bibliographic, chemical, 
# crystal, experimental, refinement or atomic coordinate data resulting 
# from the CCDC's data processing and validation procedures.
#
#######################################################################

data_WOCBIB
_chemical_formula_moiety         'C21 H20 O3'
_chemical_name_systematic        
'(3-(4-t-butylbenzylidene)-2-benzofuran-1(3H)-ylidene)acetic acid'
_symmetry_cell_setting           triclinic
_symmetry_space_group_name_H-M   'P -1'
_symmetry_Int_Tables_number      2
_space_group_name_Hall           '-P 1'
loop_
_symmetry_equiv_pos_site_id
_symmetry_equiv_pos_as_xyz
1 x,y,z
2 -x,-y,-z
_cell_length_a                   11.2047(16)
_cell_length_b                   12.2098(18)
_cell_length_c                   13.3534(17)
_cell_angle_alpha                97.661(10)
_cell_angle_beta                 96.853(8)
_cell_angle_gamma                99.139(9)
_cell_volume                     1769.03
_exptl_crystal_colour            white
_exptl_crystal_description       block
_cell_formula_units_Z            4
loop_
_atom_site_label
_atom_site_type_symbol
_atom_site_fract_x
_atom_site_fract_y
_atom_site_fract_z
O1 O 0.34909(14) -0.00874(13) 0.28761(12)
O2 O 0.43498(17) 0.02905(14) 0.10930(13)
H1 H 0.4869 0.0474 0.0734
O3 O 0.38845(19) -0.11790(15) -0.01480(14)
C1 C 0.2771(2) -0.09815(19) 0.22520(18)
C2 C 0.3172(2) -0.0026(2) 0.38618(18)
C3 C 0.6439(2) 0.3718(2) 0.46750(19)
C4 C 0.3753(2) 0.0770(2) 0.46107(19)
H2 H 0.3514 0.0709 0.5247
C5 C 0.3754(2) -0.0674(2) 0.07207(18)
C6 C 0.4706(2) 0.1724(2) 0.45956(18)
C7 C 0.2153(2) -0.0945(2) 0.38233(19)
C8 C 0.1911(2) -0.1530(2) 0.28456(19)
C9 C 0.2890(2) -0.1261(2) 0.12694(19)
H3 H 0.2366 -0.1894 0.0907
C10 C 0.7311(2) 0.4826(2) 0.4707(2)
C11 C 0.5043(3) 0.2103(2) 0.3717(2)
H4 H 0.4697 0.1695 0.3082
C12 C 0.5304(3) 0.2350(2) 0.55031(19)
H5 H 0.5130 0.2114 0.6112
C13 C 0.5882(3) 0.3075(2) 0.37701(19)
H6 H 0.6079 0.3304 0.3164
C14 C 0.6148(3) 0.3308(2) 0.5541(2)
H7 H 0.6534 0.3693 0.6174
C15 C 0.0957(3) -0.2430(2) 0.2554(2)
H8 H 0.0803 -0.2816 0.1890
C16 C 0.0488(4) -0.2141(3) 0.4260(3)
H9 H -0.0008 -0.2356 0.4736
C17 C 0.1433(3) -0.1255(3) 0.4552(2)
H10 H 0.1588 -0.0871 0.5217
C18 C 0.0248(3) -0.2732(3) 0.3269(3)
H11 H -0.0398 -0.3335 0.3094
C19 C 0.8406(5) 0.4602(4) 0.4248(7)
H12 H 0.8163 0.4247 0.3551
H13 H 0.8811 0.4116 0.4624
H14 H 0.8953 0.5297 0.4270
C20 C 0.7712(9) 0.5418(6) 0.5716(4)
H15 H 0.7016 0.5505 0.6055
H16 H 0.8168 0.6145 0.5684
H17 H 0.8222 0.5003 0.6089
C21 C 0.6770(6) 0.5562(4) 0.4072(6)
H18 H 0.6071 0.5775 0.4345
H19 H 0.6523 0.5170 0.3387
H20 H 0.7362 0.6222 0.4067
O4 O 0.67436(14) 0.58674(13) 0.12634(12)
O5 O 0.89319(16) 0.55426(14) 0.07018(16)
H21 H 0.9579 0.5670 0.0473
O6 O 0.89823(17) 0.38228(15) -0.00517(16)
C22 C 0.6470(2) 0.4724(2) 0.10251(17)
C23 C 0.5721(2) 0.6279(2) 0.15524(17)
C24 C 0.6738(2) 0.8324(2) 0.18948(18)
C25 C 0.4755(2) 0.5318(2) 0.14938(17)
C26 C 0.7258(2) 0.4101(2) 0.06772(19)
H22 H 0.7009 0.3326 0.0584
C27 C 0.5753(2) 0.7373(2) 0.18285(18)
H23 H 0.5026 0.7560 0.2009
C28 C 0.5215(2) 0.4360(2) 0.11812(17)
C29 C 0.7461(3) 1.0317(2) 0.2398(2)
H24 H 0.7318 1.1006 0.2701
C30 C 0.8452(2) 0.4506(2) 0.04320(19)
C31 C 0.8548(2) 1.0269(2) 0.20265(19)
C32 C 0.6579(2) 0.9380(2) 0.2336(2)
H25 H 0.5857 0.9454 0.2596
C33 C 0.4504(3) 0.3292(2) 0.1041(2)
H26 H 0.4819 0.2656 0.0823
C34 C 0.3549(2) 0.5231(3) 0.1679(2)
H27 H 0.3225 0.5867 0.1883
C35 C 0.8720(3) 0.9219(2) 0.1605(2)
H28 H 0.9452 0.9151 0.1359
C36 C 0.7852(2) 0.8270(2) 0.1534(2)
H29 H 0.8008 0.7581 0.1243
C37 C 0.9546(3) 1.1308(2) 0.2073(2)
C38 C 0.2850(3) 0.4169(3) 0.1549(2)
H30 H 0.2044 0.4091 0.1673
C39 C 0.3322(3) 0.3213(3) 0.1236(2)
H31 H 0.2829 0.2510 0.1158
C40 C 0.9133(4) 1.2392(3) 0.2473(4)
H32 H 0.8918 1.2355 0.3144
H33 H 0.8435 1.2490 0.2023
H34 H 0.9785 1.3015 0.2503
C41 C 0.9857(4) 1.1395(3) 0.0998(3)
H35 H 1.0473 1.2046 0.1024
H36 H 0.9137 1.1460 0.0558
H37 H 1.0157 1.0735 0.0739
C42 C 1.0687(4) 1.1224(3) 0.2766(4)
H38 H 1.0490 1.1146 0.3436
H39 H 1.1284 1.1891 0.2804
H40 H 1.1011 1.0582 0.2497
loop_
_geom_bond_atom_site_label_1
_geom_bond_atom_site_label_2
_geom_bond_site_symmetry_1
_geom_bond_site_symmetry_2
O1 C1 1_555 1_555
O2 H1 1_555 1_555
O3 C5 1_555 1_555
C1 C8 1_555 1_555
C2 O1 1_555 1_555
C3 C10 1_555 1_555
C4 C2 1_555 1_555
H2 C4 1_555 1_555
C5 O2 1_555 1_555
C6 C4 1_555 1_555
C7 C2 1_555 1_555
C8 C7 1_555 1_555
C9 C1 1_555 1_555
H3 C9 1_555 1_555
C10 C19 1_555 1_555
C11 C6 1_555 1_555
H4 C11 1_555 1_555
C12 C6 1_555 1_555
H5 C12 1_555 1_555
C13 C3 1_555 1_555
H6 C13 1_555 1_555
C14 C3 1_555 1_555
H7 C14 1_555 1_555
C15 C8 1_555 1_555
H8 C15 1_555 1_555
C16 H9 1_555 1_555
C17 C7 1_555 1_555
H10 C17 1_555 1_555
C18 C15 1_555 1_555
H11 C18 1_555 1_555
C19 H12 1_555 1_555
H13 C19 1_555 1_555
H14 C19 1_555 1_555
C20 C10 1_555 1_555
H15 C20 1_555 1_555
H16 C20 1_555 1_555
H17 C20 1_555 1_555
C21 C10 1_555 1_555
H18 C21 1_555 1_555
H19 C21 1_555 1_555
H20 C21 1_555 1_555
O4 C22 1_555 1_555
O5 H21 1_555 1_555
O6 C30 1_555 1_555
C22 C26 1_555 1_555
C23 O4 1_555 1_555
C24 C27 1_555 1_555
C25 C23 1_555 1_555
C26 H22 1_555 1_555
C27 C23 1_555 1_555
H23 C27 1_555 1_555
C28 C22 1_555 1_555
C29 H24 1_555 1_555
C30 O5 1_555 1_555
C31 C29 1_555 1_555
C32 C24 1_555 1_555
H25 C32 1_555 1_555
C33 C28 1_555 1_555
H26 C33 1_555 1_555
C34 C25 1_555 1_555
H27 C34 1_555 1_555
C35 C31 1_555 1_555
H28 C35 1_555 1_555
C36 C24 1_555 1_555
H29 C36 1_555 1_555
C37 C31 1_555 1_555
C38 C34 1_555 1_555
H30 C38 1_555 1_555
C39 C33 1_555 1_555
H31 C39 1_555 1_555
C40 C37 1_555 1_555
H32 C40 1_555 1_555
H33 C40 1_555 1_555
H34 C40 1_555 1_555
C41 C37 1_555 1_555
H35 C41 1_555 1_555
H36 C41 1_555 1_555
H37 C41 1_555 1_555
C42 C37 1_555 1_555
H38 C42 1_555 1_555
H39 C42 1_555 1_555
H40 C42 1_555 1_555
C5 C9 1_555 1_555
C11 C13 1_555 1_555
C12 C14 1_555 1_555
C16 C17 1_555 1_555
C16 C18 1_555 1_555
C25 C28 1_555 1_555
C26 C30 1_555 1_555
C29 C32 1_555 1_555
C35 C36 1_555 1_555
C38 C39 1_555 1_555

#END
