
#######################################################################
#
#                 Cambridge Crystallographic Data Centre
#                                CCDC 
#
#######################################################################
#
# If this CIF has been generated from an entry in the Cambridge 
# Structural Database, then it will include bibliographic, chemical, 
# crystal, experimental, refinement or atomic coordinate data resulting 
# from the CCDC's data processing and validation procedures.
#
#######################################################################

data_WOCKUW
_chemical_formula_moiety         'C22 H30 N1 O5 P1'
_chemical_name_systematic        
'Diisopropyl ((4-methoxyphenyl)((4-methylbenzoyl)amino)methyl)phosphonate'
_symmetry_cell_setting           triclinic
_symmetry_space_group_name_H-M   'P -1'
_symmetry_Int_Tables_number      2
_space_group_name_Hall           '-P 1'
loop_
_symmetry_equiv_pos_site_id
_symmetry_equiv_pos_as_xyz
1 x,y,z
2 -x,-y,-z
_cell_length_a                   12.4900(7)
_cell_length_b                   14.0338(8)
_cell_length_c                   14.5693(9)
_cell_angle_alpha                73.389(5)
_cell_angle_beta                 76.324(5)
_cell_angle_gamma                78.609(5)
_cell_volume                     2354.52
_exptl_crystal_colour            colorless
_exptl_crystal_description       block
_cell_formula_units_Z            4
_exptl_crystal_recrystallization_method ethanol
loop_
_atom_site_label
_atom_site_type_symbol
_atom_site_fract_x
_atom_site_fract_y
_atom_site_fract_z
P1 P 0.57811(7) 0.44284(7) 0.16751(6)
N1 N 0.6169(2) 0.6091(2) 0.0288(2)
H1 H 0.5685 0.6027 -0.0015
C1 C 0.6337(3) 0.7016(3) 0.0261(3)
O1 O 0.7087(3) 0.7155(2) 0.0598(3)
O2 O 0.49931(17) 0.41867(18) 0.11966(17)
C2 C 0.5546(3) 0.7864(2) -0.0178(3)
O3 O 0.52694(19) 0.5103(2) 0.2420(2)
C3 C 0.5913(4) 0.8747(3) -0.0739(4)
H2 H 0.6668 0.8799 -0.0872
O4 O 0.6468(2) 0.35073(19) 0.22714(18)
C4 C 0.5166(6) 0.9569(4) -0.1114(5)
H3 H 0.5432 1.0156 -0.1505
O5 O 0.98353(19) 0.2768(2) -0.1426(2)
C5 C 0.4038(5) 0.9519(4) -0.0909(4)
C6 C 0.3690(4) 0.8631(4) -0.0355(4)
H4 H 0.2934 0.8580 -0.0219
C7 C 0.4419(3) 0.7802(3) 0.0013(3)
H5 H 0.4151 0.7208 0.0385
C8 C 0.6792(3) 0.5189(2) 0.0822(3)
H6 H 0.7198 0.5406 0.1208
C9 C 0.7636(2) 0.4594(2) 0.0191(2)
C10 C 0.7348(3) 0.4320(3) -0.0546(3)
H7 H 0.6639 0.4541 -0.0690
C11 C 0.8103(3) 0.3722(3) -0.1069(3)
H8 H 0.7896 0.3544 -0.1564
C12 C 0.9168(2) 0.3378(3) -0.0877(3)
C13 C 0.9486(3) 0.3677(3) -0.0166(3)
H9 H 1.0201 0.3474 -0.0035
C14 C 0.8705(3) 0.4291(3) 0.0351(3)
H10 H 0.8918 0.4503 0.0823
C15 C 0.4143(3) 0.5126(4) 0.2970(3)
H11 H 0.3680 0.4918 0.2625
C16 C 0.3747(5) 0.6195(5) 0.2997(5)
H12 H 0.3785 0.6609 0.2343
H13 H 0.4209 0.6407 0.3320
H14 H 0.2992 0.6255 0.3345
C17 C 0.4119(6) 0.4438(6) 0.3946(5)
H15 H 0.4374 0.3763 0.3885
H16 H 0.3371 0.4478 0.4314
H17 H 0.4595 0.4622 0.4277
C18 C 0.6608(3) 0.2496(3) 0.2166(3)
H18 H 0.6488 0.2520 0.1518
C19 C 0.5788(5) 0.1938(4) 0.2909(5)
H19 H 0.5052 0.2252 0.2818
H20 H 0.5880 0.1937 0.3545
H21 H 0.5895 0.1260 0.2852
C20 C 0.7770(4) 0.2024(4) 0.2251(5)
H22 H 0.8281 0.2407 0.1749
H23 H 0.7879 0.1350 0.2180
H24 H 0.7898 0.2011 0.2879
C21 C 1.0901(3) 0.2388(5) -0.1218(4)
H25 H 1.1288 0.1967 -0.1643
H26 H 1.0837 0.2002 -0.0552
H27 H 1.1306 0.2935 -0.1316
C22 C 0.3224(6) 1.0398(4) -0.1290(6)
H28 H 0.2484 1.0225 -0.1067
H29 H 0.3392 1.0574 -0.1991
H30 H 0.3276 1.0959 -0.1057
P2 P 0.14534(7) 0.06980(7) 0.34174(7)
N2 N 0.1934(2) -0.0972(2) 0.4752(2)
H31 H 0.1239 -0.0969 0.5007
O6 O 0.3615(2) -0.1907(2) 0.4513(3)
O7 O 0.02795(18) 0.08346(19) 0.38750(19)
O8 O 0.1754(2) 0.0138(3) 0.2580(2)
O9 O 0.2008(2) 0.1666(2) 0.2895(2)
O10 O 0.2849(2) 0.2332(3) 0.6678(2)
C23 C 0.1632(3) 0.0901(3) 0.5589(3)
H32 H 0.0931 0.0731 0.5649
C24 C 0.2062(3) -0.2782(3) 0.5246(3)
C25 C 0.2810(3) 0.1747(3) 0.6079(3)
C26 C 0.3702(3) 0.1407(3) 0.5440(3)
H33 H 0.4406 0.1568 0.5386
C27 C 0.1773(3) 0.1485(4) 0.6153(3)
H34 H 0.1167 0.1706 0.6588
C28 C 0.1018(3) -0.2839(3) 0.5090(3)
H35 H 0.0624 -0.2278 0.4735
C29 C 0.2597(4) -0.3628(4) 0.5797(4)
H36 H 0.3296 -0.3608 0.5905
C30 C 0.1138(6) -0.4590(4) 0.6033(4)
C31 C 0.1482(4) 0.2670(3) 0.2820(4)
H37 H 0.0876 0.2683 0.3386
C32 C 0.0569(5) -0.3729(4) 0.5465(5)
H38 H -0.0118 -0.3765 0.5342
C33 C 0.3887(4) 0.2620(4) 0.6653(4)
H39 H 0.3788 0.3025 0.7107
H40 H 0.4163 0.3000 0.6007
H41 H 0.4410 0.2031 0.6830
C34 C 0.2333(6) 0.3271(5) 0.2858(7)
H42 H 0.2601 0.2996 0.3459
H43 H 0.2000 0.3956 0.2821
H44 H 0.2943 0.3247 0.2318
C35 C 0.2137(7) -0.4490(4) 0.6187(4)
H45 H 0.2521 -0.5032 0.6574
C36 C 0.1099(4) -0.0422(4) 0.2348(4)
H46 H 0.0467 -0.0566 0.2888
C37 C 0.1784(9) -0.1388(5) 0.2208(6)
H47 H 0.2058 -0.1746 0.2793
H48 H 0.2399 -0.1251 0.1675
H49 H 0.1334 -0.1789 0.2066
C38 C 0.1017(7) 0.3054(6) 0.1941(6)
H50 H 0.0466 0.2654 0.1962
H51 H 0.1598 0.3025 0.1382
H52 H 0.0678 0.3738 0.1899
C39 C 0.0581(8) -0.5530(5) 0.6473(6)
H53 H 0.1063 -0.6044 0.6835
H54 H 0.0434 -0.5760 0.5960
H55 H -0.0107 -0.5380 0.6901
C40 C 0.0687(9) 0.0138(8) 0.1473(8)
H56 H 0.0215 0.0737 0.1588
H57 H 0.0270 -0.0267 0.1298
H58 H 0.1303 0.0315 0.0952
C41 C 0.2356(2) -0.0021(3) 0.4265(3)
H59 H 0.3088 -0.0178 0.3871
C42 C 0.2520(3) 0.0561(3) 0.4933(2)
C43 C 0.2607(3) -0.1856(3) 0.4811(3)
C44 C 0.3538(3) 0.0825(3) 0.4882(3)
H60 H 0.4146 0.0600 0.4451
loop_
_geom_bond_atom_site_label_1
_geom_bond_atom_site_label_2
_geom_bond_site_symmetry_1
_geom_bond_site_symmetry_2
P1 O2 1_555 1_555
N1 H1 1_555 1_555
C1 N1 1_555 1_555
O1 C1 1_555 1_555
C2 C1 1_555 1_555
O3 P1 1_555 1_555
C3 C2 1_555 1_555
H2 C3 1_555 1_555
O4 P1 1_555 1_555
C4 C3 1_555 1_555
H3 C4 1_555 1_555
O5 C12 1_555 1_555
C5 C4 1_555 1_555
C6 C5 1_555 1_555
H4 C6 1_555 1_555
C7 C2 1_555 1_555
H5 C7 1_555 1_555
C8 P1 1_555 1_555
H6 C8 1_555 1_555
C9 C8 1_555 1_555
C10 C9 1_555 1_555
H7 C10 1_555 1_555
C11 C10 1_555 1_555
H8 C11 1_555 1_555
C12 C11 1_555 1_555
C13 C12 1_555 1_555
H9 C13 1_555 1_555
C14 C9 1_555 1_555
H10 C14 1_555 1_555
C15 O3 1_555 1_555
H11 C15 1_555 1_555
C16 C15 1_555 1_555
H12 C16 1_555 1_555
H13 C16 1_555 1_555
H14 C16 1_555 1_555
C17 C15 1_555 1_555
H15 C17 1_555 1_555
H16 C17 1_555 1_555
H17 C17 1_555 1_555
C18 O4 1_555 1_555
H18 C18 1_555 1_555
C19 C18 1_555 1_555
H19 C19 1_555 1_555
H20 C19 1_555 1_555
H21 C19 1_555 1_555
C20 C18 1_555 1_555
H22 C20 1_555 1_555
H23 C20 1_555 1_555
H24 C20 1_555 1_555
C21 O5 1_555 1_555
H25 C21 1_555 1_555
H26 C21 1_555 1_555
H27 C21 1_555 1_555
C22 C5 1_555 1_555
H28 C22 1_555 1_555
H29 C22 1_555 1_555
H30 C22 1_555 1_555
P2 O7 1_555 1_555
N2 H31 1_555 1_555
O6 C43 1_555 1_555
O8 P2 1_555 1_555
O9 P2 1_555 1_555
O10 C25 1_555 1_555
C23 H32 1_555 1_555
C24 C28 1_555 1_555
C25 C26 1_555 1_555
C26 H33 1_555 1_555
C27 C23 1_555 1_555
H34 C27 1_555 1_555
C28 H35 1_555 1_555
C29 C24 1_555 1_555
H36 C29 1_555 1_555
C30 C32 1_555 1_555
C31 O9 1_555 1_555
H37 C31 1_555 1_555
C32 C28 1_555 1_555
H38 C32 1_555 1_555
C33 O10 1_555 1_555
H39 C33 1_555 1_555
H40 C33 1_555 1_555
H41 C33 1_555 1_555
C34 C31 1_555 1_555
H42 C34 1_555 1_555
H43 C34 1_555 1_555
H44 C34 1_555 1_555
C35 C29 1_555 1_555
H45 C35 1_555 1_555
C36 O8 1_555 1_555
H46 C36 1_555 1_555
C37 C36 1_555 1_555
H47 C37 1_555 1_555
H48 C37 1_555 1_555
H49 C37 1_555 1_555
C38 C31 1_555 1_555
H50 C38 1_555 1_555
H51 C38 1_555 1_555
H52 C38 1_555 1_555
C39 C30 1_555 1_555
H53 C39 1_555 1_555
H54 C39 1_555 1_555
H55 C39 1_555 1_555
C40 C36 1_555 1_555
H56 C40 1_555 1_555
H57 C40 1_555 1_555
H58 C40 1_555 1_555
C41 P2 1_555 1_555
H59 C41 1_555 1_555
C42 C23 1_555 1_555
C43 N2 1_555 1_555
C44 C26 1_555 1_555
H60 C44 1_555 1_555
N1 C8 1_555 1_555
C6 C7 1_555 1_555
C13 C14 1_555 1_555
N2 C41 1_555 1_555
C24 C43 1_555 1_555
C25 C27 1_555 1_555
C30 C35 1_555 1_555
C41 C42 1_555 1_555
C42 C44 1_555 1_555

#END
