
#######################################################################
#
#                 Cambridge Crystallographic Data Centre
#                                CCDC 
#
#######################################################################
#
# If this CIF has been generated from an entry in the Cambridge 
# Structural Database, then it will include bibliographic, chemical, 
# crystal, experimental, refinement or atomic coordinate data resulting 
# from the CCDC's data processing and validation procedures.
#
#######################################################################

data_WOCRAH
_chemical_formula_moiety         'C15 H16 N1 O1 1+,C24 H20 B1 1-'
_chemical_name_systematic        
'4-(2-(4-Methoxyphenyl)ethenyl)-N-methylpyridinium tetraphenylborate'
_symmetry_cell_setting           monoclinic
_symmetry_space_group_name_H-M   'P 21/c'
_symmetry_Int_Tables_number      14
_space_group_name_Hall           '-P 2ybc'
loop_
_symmetry_equiv_pos_site_id
_symmetry_equiv_pos_as_xyz
1 x,y,z
2 x,1/2-y,1/2+z
3 -x,-y,-z
4 -x,1/2+y,1/2-z
_cell_length_a                   13.029(2)
_cell_length_b                   10.819(2)
_cell_length_c                   21.660(3)
_cell_angle_alpha                90
_cell_angle_beta                 99.160(10)
_cell_angle_gamma                90
_cell_volume                     3014.27
_exptl_crystal_colour            yellow-green
_exptl_crystal_description       granular
_chemical_melting_point          509-510K
_cell_formula_units_Z            4
_exptl_crystal_recrystallization_method ethanol/water
loop_
_atom_site_label
_atom_site_type_symbol
_atom_site_fract_x
_atom_site_fract_y
_atom_site_fract_z
O1 O 0.10266(9) 0.19999(12) 0.53477(6)
N1 N 0.29052(10) -0.74021(13) 0.65390(6)
C1 C 0.33552(16) -0.86130(17) 0.67301(8)
H1 H 0.3487 -0.9059 0.6368
H2 H 0.2877 -0.9072 0.6936
H3 H 0.3995 -0.8500 0.7012
C2 C 0.22191(14) -0.68803(17) 0.68588(8)
H4 H 0.1996 -0.7314 0.7184
C3 C 0.18459(13) -0.57303(18) 0.67152(8)
H5 H 0.1369 -0.5388 0.6943
C4 C 0.21622(12) -0.50480(16) 0.62314(7)
C5 C 0.28438(12) -0.56409(16) 0.58945(7)
H6 H 0.3053 -0.5246 0.5554
C6 C 0.32044(13) -0.67866(17) 0.60586(7)
H7 H 0.3672 -0.7158 0.5833
C7 C 0.18011(13) -0.37902(17) 0.61133(7)
H8 H 0.1262 -0.3529 0.6316
C8 C 0.21639(12) -0.29757(16) 0.57449(7)
H9 H 0.2672 -0.3256 0.5522
C9 C 0.18524(12) -0.16908(16) 0.56520(7)
C10 C 0.10596(13) -0.11727(17) 0.59262(8)
H10 H 0.0718 -0.1664 0.6182
C11 C 0.07637(14) 0.00368(17) 0.58330(8)
H11 H 0.0228 0.0354 0.6023
C12 C 0.12592(13) 0.07825(17) 0.54584(7)
C13 C 0.20576(13) 0.02960(18) 0.51816(8)
H12 H 0.2400 0.0795 0.4930
C14 C 0.23460(13) -0.09173(18) 0.52766(7)
H13 H 0.2882 -0.1230 0.5086
C15 C 0.01622(14) 0.25046(17) 0.55875(9)
H14 H -0.0453 0.2044 0.5428
H15 H 0.0069 0.3353 0.5460
H16 H 0.0287 0.2458 0.6036
B1 B 0.69076(13) -0.64864(16) 0.65696(7)
C16 C 0.61630(11) -0.63389(13) 0.71136(6)
C17 C 0.63123(12) -0.69754(14) 0.76809(7)
H17 H 0.6890 -0.7487 0.7773
C18 C 0.56405(14) -0.68797(16) 0.81118(8)
H18 H 0.5767 -0.7335 0.8480
C19 C 0.47916(13) -0.61218(16) 0.80010(8)
H19 H 0.4343 -0.6054 0.8293
C20 C 0.46104(12) -0.54604(15) 0.74514(7)
H20 H 0.4042 -0.4932 0.7372
C21 C 0.52774(11) -0.55848(14) 0.70190(7)
H21 H 0.5131 -0.5146 0.6646
C22 C 0.74043(11) -0.51675(14) 0.63833(6)
C23 C 0.71699(12) -0.39954(14) 0.65789(7)
H22 H 0.6677 -0.3920 0.6843
C24 C 0.76355(14) -0.29307(15) 0.63989(8)
H23 H 0.7452 -0.2167 0.6545
C25 C 0.83580(14) -0.29923(18) 0.60106(8)
H24 H 0.8671 -0.2278 0.5890
C26 C 0.86168(14) -0.41300(19) 0.58002(8)
H25 H 0.9108 -0.4190 0.5533
C27 C 0.81494(13) -0.51884(16) 0.59837(8)
H26 H 0.8339 -0.5947 0.5835
C28 C 0.61428(11) -0.70558(13) 0.59592(6)
C29 C 0.58404(12) -0.64129(14) 0.54018(6)
H27 H 0.6113 -0.5628 0.5362
C30 C 0.51534(13) -0.68871(17) 0.49038(7)
H28 H 0.4968 -0.6417 0.4544
C31 C 0.47465(13) -0.80478(18) 0.49410(8)
H29 H 0.4297 -0.8378 0.4605
C32 C 0.50112(12) -0.87181(15) 0.54827(8)
H30 H 0.4740 -0.9506 0.5515
C33 C 0.56820(11) -0.82186(14) 0.59802(7)
H31 H 0.5833 -0.8679 0.6346
C34 C 0.79047(11) -0.73873(14) 0.68235(7)
C35 C 0.80708(12) -0.85890(15) 0.66266(7)
H32 H 0.7582 -0.8940 0.6316
C36 C 0.89368(15) -0.92842(17) 0.68753(9)
H33 H 0.9005 -1.0090 0.6738
C37 C 0.96907(14) -0.87920(19) 0.73217(9)
H34 H 1.0274 -0.9252 0.7485
C38 C 0.95669(13) -0.76085(18) 0.75218(8)
H35 H 1.0074 -0.7254 0.7820
C39 C 0.86929(12) -0.69418(15) 0.72819(7)
H36 H 0.8624 -0.6148 0.7435
loop_
_geom_bond_atom_site_label_1
_geom_bond_atom_site_label_2
_geom_bond_site_symmetry_1
_geom_bond_site_symmetry_2
O1 C12 1_555 1_555
N1 C1 1_555 1_555
B1 C16 1_555 1_555
C1 H1 1_555 1_555
H2 C1 1_555 1_555
H3 C1 1_555 1_555
C2 N1 1_555 1_555
H4 C2 1_555 1_555
C3 C2 1_555 1_555
H5 C3 1_555 1_555
C4 C3 1_555 1_555
C5 C4 1_555 1_555
H6 C5 1_555 1_555
C6 N1 1_555 1_555
H7 C6 1_555 1_555
C7 C4 1_555 1_555
H8 C7 1_555 1_555
C8 C7 1_555 1_555
H9 C8 1_555 1_555
C9 C8 1_555 1_555
C10 C9 1_555 1_555
H10 C10 1_555 1_555
C11 C10 1_555 1_555
H11 C11 1_555 1_555
C12 C11 1_555 1_555
C13 C12 1_555 1_555
H12 C13 1_555 1_555
C14 C9 1_555 1_555
H13 C14 1_555 1_555
C15 O1 1_555 1_555
H14 C15 1_555 1_555
H15 C15 1_555 1_555
H16 C15 1_555 1_555
C16 C17 1_555 1_555
C17 H17 1_555 1_555
C18 C17 1_555 1_555
H18 C18 1_555 1_555
C19 C18 1_555 1_555
H19 C19 1_555 1_555
C20 C19 1_555 1_555
H20 C20 1_555 1_555
C21 C16 1_555 1_555
H21 C21 1_555 1_555
C22 B1 1_555 1_555
C23 C22 1_555 1_555
H22 C23 1_555 1_555
C24 C23 1_555 1_555
H23 C24 1_555 1_555
C25 C24 1_555 1_555
H24 C25 1_555 1_555
C26 C25 1_555 1_555
H25 C26 1_555 1_555
C27 C22 1_555 1_555
H26 C27 1_555 1_555
C28 B1 1_555 1_555
C29 C28 1_555 1_555
H27 C29 1_555 1_555
C30 C29 1_555 1_555
H28 C30 1_555 1_555
C31 C30 1_555 1_555
H29 C31 1_555 1_555
C32 C31 1_555 1_555
H30 C32 1_555 1_555
C33 C28 1_555 1_555
H31 C33 1_555 1_555
C34 B1 1_555 1_555
C35 C34 1_555 1_555
H32 C35 1_555 1_555
C36 C35 1_555 1_555
H33 C36 1_555 1_555
C37 C36 1_555 1_555
H34 C37 1_555 1_555
C38 C37 1_555 1_555
H35 C38 1_555 1_555
C39 C34 1_555 1_555
H36 C39 1_555 1_555
C5 C6 1_555 1_555
C13 C14 1_555 1_555
C20 C21 1_555 1_555
C26 C27 1_555 1_555
C32 C33 1_555 1_555
C38 C39 1_555 1_555

#END
