
#######################################################################
#
#                 Cambridge Crystallographic Data Centre
#                                CCDC 
#
#######################################################################
#
# If this CIF has been generated from an entry in the Cambridge 
# Structural Database, then it will include bibliographic, chemical, 
# crystal, experimental, refinement or atomic coordinate data resulting 
# from the CCDC's data processing and validation procedures.
#
#######################################################################

data_WODVES
_chemical_formula_moiety         'C24 H18 N2 O5'
_chemical_name_systematic        
'Methyl 1,3-bis(1H-indol-3-yl)-4-methoxy-2,5-dioxocyclopent-3-ene-1-carboxylate'
_symmetry_cell_setting           monoclinic
_symmetry_space_group_name_H-M   'P 21/c'
_symmetry_Int_Tables_number      14
_space_group_name_Hall           '-P 2ybc'
loop_
_symmetry_equiv_pos_site_id
_symmetry_equiv_pos_as_xyz
1 x,y,z
2 -x,1/2+y,1/2-z
3 -x,-y,-z
4 x,1/2-y,1/2+z
_cell_length_a                   9.8848(19)
_cell_length_b                   10.654(2)
_cell_length_c                   19.076(4)
_cell_angle_alpha                90
_cell_angle_beta                 103.334(4)
_cell_angle_gamma                90
_cell_volume                     1954.79
_cell_formula_units_Z            4
loop_
_atom_site_label
_atom_site_type_symbol
_atom_site_fract_x
_atom_site_fract_y
_atom_site_fract_z
N1 N 0.6299(3) 0.3427(2) 1.03577(16)
H1 H 0.6267 0.2963 1.0722
N2 N 1.0562(3) 0.6194(3) 0.76752(16)
H2 H 1.0673 0.5606 0.7384
O1 O 0.8277(2) 0.9743(2) 0.83414(14)
O2 O 0.7278(2) 0.9259(2) 0.92347(14)
O3 O 1.0392(3) 0.8294(2) 0.99967(13)
O4 O 0.6524(3) 0.6671(2) 0.83805(15)
O5 O 0.9437(2) 0.6037(2) 1.06654(12)
C1 C 0.6635(4) 1.0491(3) 0.9191(2)
H3 H 0.7345 1.1125 0.9277
H4 H 0.6092 1.0556 0.9546
H5 H 0.6044 1.0606 0.8720
C2 C 0.8081(3) 0.9017(3) 0.8781(2)
C3 C 0.8686(3) 0.7704(3) 0.89115(18)
C4 C 0.9476(4) 0.7582(3) 0.9703(2)
C5 C 0.8934(3) 0.6492(3) 1.00059(19)
C6 C 0.7815(3) 0.5962(3) 0.95410(17)
C7 C 0.7526(3) 0.6730(3) 0.8885(2)
C8 C 0.7015(3) 0.4903(3) 0.96926(17)
C9 C 0.5803(3) 0.4253(3) 0.92520(19)
C10 C 0.5024(4) 0.4333(3) 0.8543(2)
H6 H 0.5264 0.4908 0.8225
C11 C 0.3895(4) 0.3551(4) 0.8319(2)
H7 H 0.3384 0.3600 0.7845
C12 C 0.3504(4) 0.2702(3) 0.8777(2)
H8 H 0.2724 0.2204 0.8611
C13 C 0.4250(4) 0.2575(3) 0.9480(2)
H9 H 0.3999 0.1996 0.9792
C14 C 0.5390(4) 0.3353(3) 0.9695(2)
C15 C 0.7247(3) 0.4331(3) 1.03533(19)
H10 H 0.7962 0.4540 1.0745
C16 C 1.0407(4) 0.6741(3) 1.1199(2)
H11 H 1.1268 0.6824 1.1053
H12 H 1.0568 0.6309 1.1653
H13 H 1.0032 0.7558 1.1249
C17 C 0.9614(3) 0.7344(3) 0.84207(18)
C18 C 0.9449(4) 0.6327(3) 0.79763(18)
H14 H 0.8682 0.5796 0.7891
C19 C 1.1471(4) 0.7148(3) 0.79121(18)
C20 C 1.2759(4) 0.7392(4) 0.7759(2)
H15 H 1.3124 0.6871 0.7457
C21 C 1.3463(4) 0.8432(4) 0.8071(2)
H16 H 1.4326 0.8618 0.7981
C22 C 1.2917(4) 0.9215(3) 0.8520(2)
H17 H 1.3416 0.9923 0.8714
C23 C 1.1654(4) 0.8971(3) 0.86865(19)
H18 H 1.1309 0.9492 0.8996
C24 C 1.0909(3) 0.7910(3) 0.83738(18)
loop_
_geom_bond_atom_site_label_1
_geom_bond_atom_site_label_2
_geom_bond_site_symmetry_1
_geom_bond_site_symmetry_2
N1 H1 1_555 1_555
N2 H2 1_555 1_555
O1 C2 1_555 1_555
O2 C1 1_555 1_555
O3 C4 1_555 1_555
O4 C7 1_555 1_555
O5 C5 1_555 1_555
C1 H3 1_555 1_555
H4 C1 1_555 1_555
H5 C1 1_555 1_555
C2 O2 1_555 1_555
C3 C2 1_555 1_555
C4 C3 1_555 1_555
C5 C4 1_555 1_555
C6 C5 1_555 1_555
C7 C3 1_555 1_555
C8 C6 1_555 1_555
C9 C8 1_555 1_555
C10 C9 1_555 1_555
H6 C10 1_555 1_555
C11 C10 1_555 1_555
H7 C11 1_555 1_555
C12 C11 1_555 1_555
H8 C12 1_555 1_555
C13 C12 1_555 1_555
H9 C13 1_555 1_555
C14 N1 1_555 1_555
C15 N1 1_555 1_555
H10 C15 1_555 1_555
C16 O5 1_555 1_555
H11 C16 1_555 1_555
H12 C16 1_555 1_555
H13 C16 1_555 1_555
C17 C3 1_555 1_555
C18 N2 1_555 1_555
H14 C18 1_555 1_555
C19 N2 1_555 1_555
C20 C19 1_555 1_555
H15 C20 1_555 1_555
C21 C20 1_555 1_555
H16 C21 1_555 1_555
C22 C21 1_555 1_555
H17 C22 1_555 1_555
C23 C22 1_555 1_555
H18 C23 1_555 1_555
C24 C17 1_555 1_555
C6 C7 1_555 1_555
C8 C15 1_555 1_555
C9 C14 1_555 1_555
C13 C14 1_555 1_555
C17 C18 1_555 1_555
C19 C24 1_555 1_555
C23 C24 1_555 1_555

#END
