
#######################################################################
#
#                 Cambridge Crystallographic Data Centre
#                                CCDC 
#
#######################################################################
#
# If this CIF has been generated from an entry in the Cambridge 
# Structural Database, then it will include bibliographic, chemical, 
# crystal, experimental, refinement or atomic coordinate data resulting 
# from the CCDC's data processing and validation procedures.
#
#######################################################################

data_WOGVOE
_chemical_formula_moiety         'C16 H12 O5 S1'
_chemical_name_systematic        
'4-Methyl-2-oxo-2H-1-benzopyran-7-yl benzenesulfonate'
_symmetry_cell_setting           orthorhombic
_symmetry_space_group_name_H-M   'P b c n'
_symmetry_Int_Tables_number      60
_space_group_name_Hall           '-P 2n 2ab'
loop_
_symmetry_equiv_pos_site_id
_symmetry_equiv_pos_as_xyz
1 x,y,z
2 1/2-x,1/2-y,1/2+z
3 -x,y,1/2-z
4 1/2+x,1/2-y,-z
5 -x,-y,-z
6 1/2+x,1/2+y,1/2-z
7 x,-y,1/2+z
8 1/2-x,1/2+y,z
_cell_length_a                   23.319(3)
_cell_length_b                   9.0865(12)
_cell_length_c                   13.7280(17)
_cell_angle_alpha                90
_cell_angle_beta                 90
_cell_angle_gamma                90
_cell_volume                     2908.8
_exptl_crystal_colour            colorless
_exptl_crystal_description       block
_chemical_melting_point          '493 K'
_cell_formula_units_Z            8
_exptl_crystal_recrystallization_method ethanol
loop_
_atom_site_label
_atom_site_type_symbol
_atom_site_fract_x
_atom_site_fract_y
_atom_site_fract_z
O1 O 0.06623(10) 0.5712(3) 0.1179(2)
O2 O 0.01987(13) 0.7814(3) 0.1253(2)
O3 O 0.17597(10) 0.1409(3) 0.1092(2)
O4 O 0.25437(12) 0.0001(4) 0.0562(3)
O5 O 0.15694(13) -0.0921(3) 0.0244(2)
S1 S 0.19688(4) 0.02586(12) 0.02911(9)
C1 C 0.01573(17) 0.6497(5) 0.1241(3)
C2 C -0.03663(17) 0.5658(5) 0.1266(3)
H1 H -0.0712 0.6168 0.1297
C3 C -0.03837(15) 0.4190(4) 0.1249(3)
C4 C 0.01530(14) 0.3395(4) 0.1195(3)
C5 C 0.06587(16) 0.4202(4) 0.1156(3)
C6 C 0.11874(15) 0.3532(4) 0.1088(3)
H2 H 0.1521 0.4088 0.1047
C7 C 0.12071(15) 0.2032(4) 0.1081(3)
C8 C 0.07195(17) 0.1177(4) 0.1123(3)
H3 H 0.0743 0.0155 0.1116
C9 C 0.01984(17) 0.1871(4) 0.1176(3)
H4 H -0.0134 0.1306 0.1199
C10 C -0.09430(15) 0.3386(5) 0.1251(3)
H5 H -0.1251 0.4079 0.1317
H6 H -0.0951 0.2708 0.1787
H7 H -0.0985 0.2855 0.0651
C11 C 0.19416(16) 0.1231(4) -0.0797(3)
C12 C 0.24038(18) 0.2080(5) -0.1072(4)
H8 H 0.2721 0.2163 -0.0665
C13 C 0.2393(3) 0.2794(6) -0.1940(5)
H9 H 0.2705 0.3363 -0.2131
C14 C 0.1923(3) 0.2683(6) -0.2538(4)
H10 H 0.1919 0.3175 -0.3132
C15 C 0.1467(2) 0.1859(6) -0.2267(4)
H11 H 0.1149 0.1795 -0.2675
C16 C 0.14680(18) 0.1116(5) -0.1394(3)
H12 H 0.1155 0.0547 -0.1209
loop_
_geom_bond_atom_site_label_1
_geom_bond_atom_site_label_2
_geom_bond_site_symmetry_1
_geom_bond_site_symmetry_2
O1 C1 1_555 1_555
O2 C1 1_555 1_555
O3 S1 1_555 1_555
O4 S1 1_555 1_555
O5 S1 1_555 1_555
S1 C11 1_555 1_555
C1 C2 1_555 1_555
C2 H1 1_555 1_555
C3 C2 1_555 1_555
C4 C3 1_555 1_555
C5 O1 1_555 1_555
C6 C5 1_555 1_555
H2 C6 1_555 1_555
C7 O3 1_555 1_555
C8 C7 1_555 1_555
H3 C8 1_555 1_555
C9 C4 1_555 1_555
H4 C9 1_555 1_555
C10 C3 1_555 1_555
H5 C10 1_555 1_555
H6 C10 1_555 1_555
H7 C10 1_555 1_555
C11 C12 1_555 1_555
C12 H8 1_555 1_555
C13 C12 1_555 1_555
H9 C13 1_555 1_555
C14 C13 1_555 1_555
H10 C14 1_555 1_555
C15 C14 1_555 1_555
H11 C15 1_555 1_555
C16 C11 1_555 1_555
H12 C16 1_555 1_555
C4 C5 1_555 1_555
C6 C7 1_555 1_555
C8 C9 1_555 1_555
C15 C16 1_555 1_555

#END
