
#######################################################################
#
#                 Cambridge Crystallographic Data Centre
#                                CCDC 
#
#######################################################################
#
# If this CIF has been generated from an entry in the Cambridge 
# Structural Database, then it will include bibliographic, chemical, 
# crystal, experimental, refinement or atomic coordinate data resulting 
# from the CCDC's data processing and validation procedures.
#
#######################################################################

data_WOGWAR
_chemical_formula_moiety         'C11 H10 N3 O4 S1 1+,Cl1 1-'
_chemical_name_systematic        
'4-(4-Nitrobenzenesulfonamido)pyridinium chloride'
_symmetry_cell_setting           monoclinic
_symmetry_space_group_name_H-M   'C 2/c'
_symmetry_Int_Tables_number      15
_space_group_name_Hall           '-C 2yn'
loop_
_symmetry_equiv_pos_site_id
_symmetry_equiv_pos_as_xyz
1 x,y,z
2 1/2+x,1/2+y,z
3 -x,y,1/2-z
4 1/2-x,1/2+y,1/2-z
5 -x,-y,-z
6 1/2-x,1/2-y,-z
7 x,-y,1/2+z
8 1/2+x,1/2-y,1/2+z
_cell_length_a                   37.942(8)
_cell_length_b                   5.2446(10)
_cell_length_c                   13.713(3)
_cell_angle_alpha                90
_cell_angle_beta                 107.77(3)
_cell_angle_gamma                90
_cell_volume                     2598.57
_exptl_crystal_colour            colorless
_exptl_crystal_description       block
_cell_formula_units_Z            8
loop_
_atom_site_label
_atom_site_type_symbol
_atom_site_fract_x
_atom_site_fract_y
_atom_site_fract_z
S1 S 0.130148(12) 0.37275(10) 0.40268(4)
O1 O 0.12396(4) 0.1690(3) 0.32996(12)
O2 O 0.14305(4) 0.3226(3) 0.51052(12)
O3 O 0.21998(4) 1.2270(3) 0.21517(12)
O4 O 0.25562(4) 1.2246(3) 0.37259(12)
N1 N 0.05555(5) 1.1001(4) 0.52726(16)
N2 N 0.09049(4) 0.5214(4) 0.37499(15)
N3 N 0.22877(5) 1.1462(3) 0.30326(14)
C1 C 0.08046(5) 0.7177(4) 0.42979(16)
C2 C 0.10010(6) 0.7864(4) 0.52953(17)
H1 H 0.1227 0.7032 0.5645
C3 C 0.08643(6) 0.9760(4) 0.57664(18)
H2 H 0.0992 1.0196 0.6456
C4 C 0.03605(6) 1.0410(5) 0.43021(19)
H3 H 0.0141 1.1327 0.3966
C5 C 0.04777(5) 0.8496(4) 0.38013(18)
H4 H 0.0338 0.8060 0.3120
C6 C 0.16110(5) 0.5922(4) 0.37472(16)
C7 C 0.15830(5) 0.6369(4) 0.27247(16)
H5 H 0.1409 0.5446 0.2196
C8 C 0.18104(5) 0.8169(4) 0.24842(16)
H6 H 0.1797 0.8499 0.1793
C9 C 0.20570(5) 0.9469(4) 0.32797(16)
C10 C 0.20940(5) 0.9012(4) 0.43010(16)
H7 H 0.2272 0.9914 0.4827
C11 C 0.18659(5) 0.7207(4) 0.45380(16)
H8 H 0.1884 0.6856 0.5231
H9 H 0.0477(8) 1.233(6) 0.561(2)
H10 H 0.0771(8) 0.504(6) 0.310(2)
Cl1 Cl 0.038070(13) 0.52540(11) 0.65583(4)
loop_
_geom_bond_atom_site_label_1
_geom_bond_atom_site_label_2
_geom_bond_site_symmetry_1
_geom_bond_site_symmetry_2
S1 O1 1_555 1_555
O2 S1 1_555 1_555
O3 N3 1_555 1_555
O4 N3 1_555 1_555
N1 C3 1_555 1_555
N2 S1 1_555 1_555
N3 C9 1_555 1_555
C1 N2 1_555 1_555
C2 C1 1_555 1_555
H1 C2 1_555 1_555
C3 C2 1_555 1_555
H2 C3 1_555 1_555
C4 N1 1_555 1_555
H3 C4 1_555 1_555
C5 C1 1_555 1_555
H4 C5 1_555 1_555
C6 S1 1_555 1_555
C7 C6 1_555 1_555
H5 C7 1_555 1_555
C8 C7 1_555 1_555
H6 C8 1_555 1_555
C9 C8 1_555 1_555
C10 C9 1_555 1_555
H7 C10 1_555 1_555
C11 C6 1_555 1_555
H8 C11 1_555 1_555
H9 N1 1_555 1_555
H10 N2 1_555 1_555
C4 C5 1_555 1_555
C10 C11 1_555 1_555

#END
