
#######################################################################
#
#                 Cambridge Crystallographic Data Centre
#                                CCDC 
#
#######################################################################
#
# If this CIF has been generated from an entry in the Cambridge 
# Structural Database, then it will include bibliographic, chemical, 
# crystal, experimental, refinement or atomic coordinate data resulting 
# from the CCDC's data processing and validation procedures.
#
#######################################################################

data_WOGXAS
_chemical_formula_moiety         'C20 H14 F1 N3'
_chemical_name_systematic        
6-(2-Fluorophenyl)-5,6-dihydrobenzimidazolo(1,2-c)quinazoline
_symmetry_cell_setting           monoclinic
_symmetry_space_group_name_H-M   'P 21/c'
_symmetry_Int_Tables_number      14
_space_group_name_Hall           '-P 2ybc'
loop_
_symmetry_equiv_pos_site_id
_symmetry_equiv_pos_as_xyz
1 x,y,z
2 -x,1/2+y,1/2-z
3 -x,-y,-z
4 x,1/2-y,1/2+z
_cell_length_a                   8.7344(17)
_cell_length_b                   13.623(3)
_cell_length_c                   13.356(3)
_cell_angle_alpha                90
_cell_angle_beta                 99.78(3)
_cell_angle_gamma                90
_cell_volume                     1566.12
_exptl_crystal_colour            brown
_exptl_crystal_description       chunk
_chemical_melting_point          '521 K'
_cell_formula_units_Z            4
_exptl_crystal_recrystallization_method ethanol
loop_
_atom_site_label
_atom_site_type_symbol
_atom_site_fract_x
_atom_site_fract_y
_atom_site_fract_z
F1 F 0.22484(19) 0.16127(14) 0.15884(10)
N1 N 0.51477(19) 0.25468(13) 0.34079(11)
H1 H 0.5498 0.2553 0.2844
N2 N 0.41799(18) 0.15511(12) 0.45924(10)
N3 N 0.4822(2) 0.16940(12) 0.62780(11)
C1 C 0.4941(2) 0.20758(14) 0.53935(12)
C2 C 0.3860(2) 0.08770(15) 0.60402(14)
C3 C 0.3286(3) 0.02189(17) 0.66787(16)
H2 H 0.3564 0.0268 0.7381
C4 C 0.2299(3) -0.05068(18) 0.62477(19)
H3 H 0.1894 -0.0949 0.6664
C5 C 0.1893(3) -0.05921(18) 0.5196(2)
H4 H 0.1232 -0.1095 0.4924
C6 C 0.2453(3) 0.00545(16) 0.45505(17)
H5 H 0.2180 0.0003 0.3848
C7 C 0.3436(2) 0.07804(14) 0.49963(14)
C8 C 0.5723(2) 0.29641(14) 0.51872(13)
C9 C 0.5753(2) 0.31982(15) 0.41612(13)
C10 C 0.6471(3) 0.40634(17) 0.39484(16)
H6 H 0.6476 0.4239 0.3276
C11 C 0.7168(3) 0.46590(18) 0.47110(19)
H7 H 0.7660 0.5230 0.4551
C12 C 0.7158(3) 0.44306(17) 0.57132(18)
H8 H 0.7646 0.4842 0.6225
C13 C 0.6429(3) 0.35968(15) 0.59553(15)
H9 H 0.6401 0.3450 0.6632
C14 C 0.3936(2) 0.18490(15) 0.35345(12)
H10 H 0.4050 0.1270 0.3119
C15 C 0.2318(2) 0.22592(14) 0.32082(13)
C16 C 0.1535(3) 0.21340(17) 0.22401(16)
C17 C 0.0088(3) 0.2507(2) 0.1890(2)
H11 H -0.0400 0.2398 0.1224
C18 C -0.0614(3) 0.3038(2) 0.2538(3)
H12 H -0.1598 0.3297 0.2317
C19 C 0.0113(3) 0.3198(2) 0.3516(2)
H13 H -0.0373 0.3570 0.3955
C20 C 0.1567(3) 0.28070(19) 0.38496(18)
H14 H 0.2051 0.2913 0.4517
loop_
_geom_bond_atom_site_label_1
_geom_bond_atom_site_label_2
_geom_bond_site_symmetry_1
_geom_bond_site_symmetry_2
F1 C16 1_555 1_555
N1 H1 1_555 1_555
N2 C1 1_555 1_555
N3 C1 1_555 1_555
C1 C8 1_555 1_555
C2 N3 1_555 1_555
C3 C2 1_555 1_555
H2 C3 1_555 1_555
C4 C3 1_555 1_555
H3 C4 1_555 1_555
C5 C4 1_555 1_555
H4 C5 1_555 1_555
C6 C5 1_555 1_555
H5 C6 1_555 1_555
C7 N2 1_555 1_555
C8 C9 1_555 1_555
C9 N1 1_555 1_555
C10 C9 1_555 1_555
H6 C10 1_555 1_555
C11 C10 1_555 1_555
H7 C11 1_555 1_555
C12 C11 1_555 1_555
H8 C12 1_555 1_555
C13 C8 1_555 1_555
H9 C13 1_555 1_555
C14 N1 1_555 1_555
H10 C14 1_555 1_555
C15 C14 1_555 1_555
C16 C15 1_555 1_555
C17 C16 1_555 1_555
H11 C17 1_555 1_555
C18 C17 1_555 1_555
H12 C18 1_555 1_555
C19 C18 1_555 1_555
H13 C19 1_555 1_555
C20 C15 1_555 1_555
H14 C20 1_555 1_555
N2 C14 1_555 1_555
C2 C7 1_555 1_555
C6 C7 1_555 1_555
C12 C13 1_555 1_555
C19 C20 1_555 1_555

#END
