
#######################################################################
#
#                 Cambridge Crystallographic Data Centre
#                                CCDC 
#
#######################################################################
#
# If this CIF has been generated from an entry in the Cambridge 
# Structural Database, then it will include bibliographic, chemical, 
# crystal, experimental, refinement or atomic coordinate data resulting 
# from the CCDC's data processing and validation procedures.
#
#######################################################################

data_WOHFUW
_chemical_name_common            
'5,11,17,23-tetra-t-butyl-25,27-dihydroxy-26,28-bis(3-cyanopropoxy)calix(4)arene acetone solvate'
_chemical_formula_moiety         'C52 H66 N2 O4,3(C3 H6 O1)'
_chemical_name_systematic        
"4,4'-((5,11,17,23-tetra-t-butyl-26,28-dihydroxypentacyclo[19.3.1.1^3,7^.1^9,13^.1^15,19^]octacosa-1(25),3(28),4,6,9(27),10,12,15(26),16,18,21,23-dodecaene-25,27-diyl)bis(oxy))dibutanenitrile acetone solvate"
_symmetry_cell_setting           monoclinic
_symmetry_space_group_name_H-M   'C 2/c'
_symmetry_Int_Tables_number      15
_space_group_name_Hall           '-C 2yn'
loop_
_symmetry_equiv_pos_site_id
_symmetry_equiv_pos_as_xyz
1 x,y,z
2 -x,y,1/2-z
3 1/2+x,1/2+y,z
4 1/2-x,1/2+y,1/2-z
5 -x,-y,-z
6 x,-y,1/2+z
7 1/2-x,1/2-y,-z
8 1/2+x,1/2-y,1/2+z
_cell_length_a                   21.951(4)
_cell_length_b                   12.163(3)
_cell_length_c                   21.185(3)
_cell_angle_alpha                90
_cell_angle_beta                 91.170(10)
_cell_angle_gamma                90
_cell_volume                     5655
_exptl_crystal_colour            colorless
_exptl_crystal_description       prism
_cell_formula_units_Z            4
loop_
_atom_site_label
_atom_site_type_symbol
_atom_site_fract_x
_atom_site_fract_y
_atom_site_fract_z
O1 O 0.06551(5) 0.24911(9) 0.33220(6)
O2 O 0.05431(6) 0.22453(11) 0.19479(6)
H1 H 0.0188 0.2294 0.1796
N1 N 0.19613(9) 0.47166(18) 0.23876(10)
C1 C -0.00255(7) 0.12578(14) 0.42186(8)
H2 H 0.0005 0.2070 0.4225
H3 H -0.0014 0.0999 0.4662
C2 C 0.05241(7) 0.07913(14) 0.38802(8)
C3 C 0.08435(7) 0.14159(13) 0.34406(8)
C4 C 0.13243(7) 0.09637(14) 0.30998(8)
C5 C 0.15090(8) -0.01044(14) 0.32460(8)
H4 H 0.1847 -0.0406 0.3032
C6 C 0.12160(8) -0.07499(14) 0.36956(8)
C7 C 0.07160(8) -0.02871(14) 0.39967(8)
H5 H 0.0500 -0.0720 0.4290
C8 C 0.14545(10) -0.19026(16) 0.38690(10)
C9 C 0.19087(17) -0.1765(3) 0.44179(19)
H6 H 0.2242 -0.1284 0.4289
H7 H 0.2073 -0.2485 0.4539
H8 H 0.1703 -0.1436 0.4778
C10 C 0.09551(15) -0.2613(2) 0.41679(15)
H9 H 0.0808 -0.2249 0.4548
H10 H 0.1124 -0.3335 0.4281
H11 H 0.0616 -0.2708 0.3865
C11 C 0.16584(15) -0.2529(2) 0.32873(13)
H12 H 0.1321 -0.2564 0.2978
H13 H 0.1780 -0.3276 0.3409
H14 H 0.2005 -0.2149 0.3101
C12 C 0.16199(7) 0.15733(15) 0.25566(8)
H15 H 0.1511 0.2363 0.2576
H16 H 0.2069 0.1511 0.2598
C13 C 0.14083(7) 0.10999(14) 0.19259(8)
C14 C 0.08495(7) 0.14226(14) 0.16456(8)
C15 C 0.06362(7) 0.09336(14) 0.10857(8)
C16 C 0.09990(8) 0.01338(14) 0.08016(8)
H17 H 0.0857 -0.0198 0.0420
C17 C 0.15612(8) -0.01934(14) 0.10587(8)
C18 C 0.17530(7) 0.03070(14) 0.16234(8)
H18 H 0.2134 0.0097 0.1807
C19 C 0.19742(8) -0.10501(15) 0.07498(8)
C20 C 0.25869(9) -0.05072(17) 0.05950(10)
H19 H 0.2516 0.0107 0.0303
H20 H 0.2853 -0.1050 0.0399
H21 H 0.2781 -0.0233 0.0985
C21 C 0.16888(10) -0.15101(19) 0.01374(10)
H22 H 0.1302 -0.1871 0.0231
H23 H 0.1967 -0.2045 -0.0048
H24 H 0.1615 -0.0908 -0.0162
C22 C 0.20904(10) -0.20089(17) 0.12121(10)
H25 H 0.2280 -0.1727 0.1602
H26 H 0.2363 -0.2546 0.1019
H27 H 0.1703 -0.2364 0.1309
C23 C 0.10011(8) 0.33181(15) 0.36586(9)
H28 H 0.1440 0.3245 0.3568
H29 H 0.0948 0.3236 0.4119
C24 C 0.07681(9) 0.44262(16) 0.34405(10)
H30 H 0.0995 0.5007 0.3673
H31 H 0.0334 0.4491 0.3551
C25 C 0.08279(9) 0.46308(16) 0.27285(10)
H32 H 0.0620 0.4031 0.2493
H33 H 0.0621 0.5329 0.2616
C26 C 0.14646(9) 0.46874(16) 0.25358(10)
O1A O -0.06551(5) 0.24911(9) 0.16780(6)
O2A O -0.05431(6) 0.22453(11) 0.30521(6)
H1A H -0.0188 0.2294 0.3204
N1A N -0.19613(9) 0.47166(18) 0.26124(10)
C1A C 0.00255(7) 0.12578(14) 0.07814(8)
H2A H -0.0005 0.2070 0.0775
H3A H 0.0014 0.0999 0.0338
C2A C -0.05241(7) 0.07913(14) 0.11198(8)
C3A C -0.08435(7) 0.14159(13) 0.15594(8)
C4A C -0.13243(7) 0.09637(14) 0.19002(8)
C5A C -0.15090(8) -0.01044(14) 0.17540(8)
H4A H -0.1847 -0.0406 0.1968
C6A C -0.12160(8) -0.07499(14) 0.13044(8)
C7A C -0.07160(8) -0.02871(14) 0.10033(8)
H5A H -0.0500 -0.0720 0.0710
C8A C -0.14545(10) -0.19026(16) 0.11310(10)
C9A C -0.19087(17) -0.1765(3) 0.05821(19)
H6A H -0.2242 -0.1284 0.0711
H7A H -0.2073 -0.2485 0.0461
H8A H -0.1703 -0.1436 0.0222
C10A C -0.09551(15) -0.2613(2) 0.08321(15)
H9A H -0.0808 -0.2249 0.0452
H10A H -0.1124 -0.3335 0.0719
H11A H -0.0616 -0.2708 0.1135
C11A C -0.16584(15) -0.2529(2) 0.17127(13)
H12A H -0.1321 -0.2564 0.2022
H13A H -0.1780 -0.3276 0.1591
H14A H -0.2005 -0.2149 0.1899
C12A C -0.16199(7) 0.15733(15) 0.24434(8)
H15A H -0.1511 0.2363 0.2424
H16A H -0.2069 0.1511 0.2402
C13A C -0.14083(7) 0.10999(14) 0.30741(8)
C14A C -0.08495(7) 0.14226(14) 0.33544(8)
C15A C -0.06362(7) 0.09336(14) 0.39143(8)
C16A C -0.09990(8) 0.01338(14) 0.41984(8)
H17A H -0.0857 -0.0198 0.4580
C17A C -0.15612(8) -0.01934(14) 0.39413(8)
C18A C -0.17530(7) 0.03070(14) 0.33766(8)
H18A H -0.2134 0.0097 0.3193
C19A C -0.19742(8) -0.10501(15) 0.42502(8)
C20A C -0.25869(9) -0.05072(17) 0.44050(10)
H19A H -0.2516 0.0107 0.4697
H20A H -0.2853 -0.1050 0.4601
H21A H -0.2781 -0.0233 0.4015
C21A C -0.16888(10) -0.15101(19) 0.48626(10)
H22A H -0.1302 -0.1871 0.4769
H23A H -0.1967 -0.2045 0.5048
H24A H -0.1615 -0.0908 0.5162
C22A C -0.20904(10) -0.20089(17) 0.37879(10)
H25A H -0.2280 -0.1727 0.3398
H26A H -0.2363 -0.2546 0.3981
H27A H -0.1703 -0.2364 0.3691
C23A C -0.10011(8) 0.33181(15) 0.13414(9)
H28A H -0.1440 0.3245 0.1432
H29A H -0.0948 0.3236 0.0881
C24A C -0.07681(9) 0.44262(16) 0.15595(10)
H30A H -0.0995 0.5007 0.1327
H31A H -0.0334 0.4491 0.1449
C25A C -0.08279(9) 0.46308(16) 0.22715(10)
H32A H -0.0620 0.4031 0.2507
H33A H -0.0621 0.5329 0.2384
C26A C -0.14646(9) 0.46874(16) 0.24642(10)
O3 O -0.03027(11) 0.3954(2) 0.44606(13)
C27 C -0.13508(18) 0.3885(3) 0.42293(16)
H34 H -0.1279 0.3090 0.4221
H35 H -0.1526 0.4120 0.3822
H36 H -0.1634 0.4062 0.4566
C28 C -0.07808(16) 0.4450(3) 0.43443(15)
C29 C -0.0765(2) 0.5668(4) 0.4321(3)
H37 H -0.0837 0.5913 0.3885
H38 H -0.0365 0.5928 0.4471
H39 H -0.1082 0.5966 0.4590
C30? C 0.2110(3) -0.1779(6) 0.4179(3)
H40? H 0.2379 -0.1411 0.3882
H41? H 0.2274 -0.2509 0.4281
H42? H 0.2085 -0.1341 0.4566
C31? C 0.0280(2) -0.1140(5) 0.2242(3)
H43? H 0.0711 -0.1163 0.2327
H44? H 0.0205 -0.1123 0.1793
H45? H 0.0111 -0.0492 0.2429
O4? O 0.00476(19) -0.3036(2) 0.23763(16)
C32? C 0.0505(2) -0.1770(4) 0.1995(2)
H46? H 0.0665 -0.2431 0.1814
H47? H 0.0323 -0.1326 0.1667
H48? H 0.0828 -0.1367 0.2200
C33? C 0.0000 -0.2083(2) 0.2500
loop_
_geom_bond_atom_site_label_1
_geom_bond_atom_site_label_2
_geom_bond_site_symmetry_1
_geom_bond_site_symmetry_2
O1 C3 1_555 1_555
O2 H1 1_555 1_555
N1 C26 1_555 1_555
C1 H2 1_555 1_555
H3 C1 1_555 1_555
C2 C1 1_555 1_555
C3 C2 1_555 1_555
C4 C3 1_555 1_555
C5 C4 1_555 1_555
H4 C5 1_555 1_555
C6 C5 1_555 1_555
C7 C2 1_555 1_555
H5 C7 1_555 1_555
C8 C6 1_555 1_555
C9 C8 1_555 1_555
H6 C9 1_555 1_555
H7 C9 1_555 1_555
H8 C9 1_555 1_555
C10 C8 1_555 1_555
H9 C10 1_555 1_555
H10 C10 1_555 1_555
H11 C10 1_555 1_555
C11 C8 1_555 1_555
H12 C11 1_555 1_555
H13 C11 1_555 1_555
H14 C11 1_555 1_555
C12 C4 1_555 1_555
H15 C12 1_555 1_555
H16 C12 1_555 1_555
C13 C12 1_555 1_555
C14 O2 1_555 1_555
C15 C14 1_555 1_555
C16 C15 1_555 1_555
H17 C16 1_555 1_555
C17 C16 1_555 1_555
C18 C13 1_555 1_555
H18 C18 1_555 1_555
C19 C17 1_555 1_555
C20 C19 1_555 1_555
H19 C20 1_555 1_555
H20 C20 1_555 1_555
H21 C20 1_555 1_555
C21 C19 1_555 1_555
H22 C21 1_555 1_555
H23 C21 1_555 1_555
H24 C21 1_555 1_555
C22 C19 1_555 1_555
H25 C22 1_555 1_555
H26 C22 1_555 1_555
H27 C22 1_555 1_555
C23 O1 1_555 1_555
H28 C23 1_555 1_555
H29 C23 1_555 1_555
C24 C23 1_555 1_555
H30 C24 1_555 1_555
H31 C24 1_555 1_555
C25 C24 1_555 1_555
H32 C25 1_555 1_555
H33 C25 1_555 1_555
C26 C25 1_555 1_555
O3 C28 1_555 1_555
C27 H34 1_555 1_555
H35 C27 1_555 1_555
H36 C27 1_555 1_555
C28 C27 1_555 1_555
C29 C28 1_555 1_555
H37 C29 1_555 1_555
H38 C29 1_555 1_555
H39 C29 1_555 1_555
O1A C3A 1_555 1_555
O2A H1A 1_555 1_555
N1A C26A 1_555 1_555
C1A C15 1_555 1_555
H2A C1A 1_555 1_555
H3A C1A 1_555 1_555
C2A C1A 1_555 1_555
C3A C2A 1_555 1_555
C4A C3A 1_555 1_555
C5A C4A 1_555 1_555
H4A C5A 1_555 1_555
C6A C5A 1_555 1_555
C7A C2A 1_555 1_555
H5A C7A 1_555 1_555
C8A C6A 1_555 1_555
C9A C8A 1_555 1_555
H6A C9A 1_555 1_555
H7A C9A 1_555 1_555
H8A C9A 1_555 1_555
C10A C8A 1_555 1_555
H9A C10A 1_555 1_555
H10A C10A 1_555 1_555
H11A C10A 1_555 1_555
C11A C8A 1_555 1_555
H12A C11A 1_555 1_555
H13A C11A 1_555 1_555
H14A C11A 1_555 1_555
C12A C4A 1_555 1_555
H15A C12A 1_555 1_555
H16A C12A 1_555 1_555
C13A C12A 1_555 1_555
C14A O2A 1_555 1_555
C15A C1 1_555 1_555
C16A C15A 1_555 1_555
H17A C16A 1_555 1_555
C17A C16A 1_555 1_555
C18A C13A 1_555 1_555
H18A C18A 1_555 1_555
C19A C17A 1_555 1_555
C20A C19A 1_555 1_555
H19A C20A 1_555 1_555
H20A C20A 1_555 1_555
H21A C20A 1_555 1_555
C21A C19A 1_555 1_555
H22A C21A 1_555 1_555
H23A C21A 1_555 1_555
H24A C21A 1_555 1_555
C22A C19A 1_555 1_555
H25A C22A 1_555 1_555
H26A C22A 1_555 1_555
H27A C22A 1_555 1_555
C23A O1A 1_555 1_555
H28A C23A 1_555 1_555
H29A C23A 1_555 1_555
C24A C23A 1_555 1_555
H30A C24A 1_555 1_555
H31A C24A 1_555 1_555
C25A C24A 1_555 1_555
H32A C25A 1_555 1_555
H33A C25A 1_555 1_555
C26A C25A 1_555 1_555
C6 C7 1_555 1_555
C13 C14 1_555 1_555
C17 C18 1_555 1_555
C6A C7A 1_555 1_555
C13A C14A 1_555 1_555
C14A C15A 1_555 1_555
C17A C18A 1_555 1_555

#END
