
#######################################################################
#
#                 Cambridge Crystallographic Data Centre
#                                CCDC 
#
#######################################################################
#
# If this CIF has been generated from an entry in the Cambridge 
# Structural Database, then it will include bibliographic, chemical, 
# crystal, experimental, refinement or atomic coordinate data resulting 
# from the CCDC's data processing and validation procedures.
#
#######################################################################

data_WOHSUJ
_chemical_formula_moiety         'C15 H12 N2 O1'
_chemical_name_systematic        
2-(4-aminophenyl)-3-(4-hydroxyphenyl)acrylonitrile
_symmetry_cell_setting           triclinic
_symmetry_space_group_name_H-M   'P -1'
_symmetry_Int_Tables_number      2
_space_group_name_Hall           '-P 1'
loop_
_symmetry_equiv_pos_site_id
_symmetry_equiv_pos_as_xyz
1 x,y,z
2 -x,-y,-z
_cell_length_a                   8.802(3)
_cell_length_b                   9.314(3)
_cell_length_c                   16.169(6)
_cell_angle_alpha                105.534(5)
_cell_angle_beta                 101.721(5)
_cell_angle_gamma                93.517(5)
_cell_volume                     1241.06
_exptl_crystal_colour            white
_exptl_crystal_description       needle
_cell_formula_units_Z            4
loop_
_atom_site_label
_atom_site_type_symbol
_atom_site_fract_x
_atom_site_fract_y
_atom_site_fract_z
O1 O 1.1392(3) 0.4311(3) 1.2105(2)
H1 H 1.1773 0.5134 1.2100
C1 C 0.9363(4) 0.4777(4) 1.1004(2)
H2 H 0.9975 0.5611 1.0984
C2 C 0.7872(4) 0.4355(4) 1.0473(2)
H3 H 0.7498 0.4908 1.0091
C3 C 0.7542(4) 0.2304(4) 1.1054(2)
H4 H 0.6943 0.1460 1.1073
C4 C 0.9030(4) 0.2704(4) 1.1580(3)
H5 H 0.9426 0.2132 1.1947
N1 N 0.4016(4) 0.1139(4) 1.1421(2)
C5 C 0.9932(4) 0.3956(4) 1.1562(2)
C6 C 0.6913(4) 0.3124(4) 1.0496(2)
C7 C 0.5331(4) 0.2769(4) 0.9947(2)
H6 H 0.5185 0.3104 0.9447
C8 C 0.4048(4) 0.2036(4) 1.0046(2)
C9 C 0.2512(4) 0.1686(3) 0.9421(2)
C10 C 0.1144(4) 0.1550(4) 0.9715(2)
H7 H 0.1210 0.1715 1.0316
C11 C -0.0301(4) 0.1179(4) 0.9146(2)
H8 H -0.1195 0.1104 0.9362
C12 C -0.0428(4) 0.0917(4) 0.8249(2)
N2 N -0.1912(3) 0.0536(3) 0.76631(18)
H9 H -0.1992 0.0397 0.7107
H10 H -0.2737 0.0443 0.7862
C13 C 0.4090(4) 0.1545(4) 1.0824(3)
C14 C 0.0908(4) 0.1071(4) 0.7943(2)
H11 H 0.0835 0.0926 0.7343
C15 C 0.2351(4) 0.1439(4) 0.8521(2)
H12 H 0.3240 0.1524 0.8302
O2 O -0.6884(3) 0.6833(3) 0.20835(18)
H13 H -0.7227 0.7627 0.2268
C16 C -0.4632(5) 0.8156(4) 0.3215(2)
H14 H -0.5146 0.8998 0.3367
C17 C -0.3123(5) 0.8151(4) 0.3656(2)
H15 H -0.2625 0.9005 0.4101
C18 C -0.3084(4) 0.5710(4) 0.2762(2)
H16 H -0.2556 0.4886 0.2587
C19 C -0.5379(4) 0.6904(4) 0.2547(2)
C20 C -0.0737(4) 0.6824(4) 0.3924(3)
H17 H -0.0169 0.6188 0.3590
C21 C 0.0018(5) 0.7515(4) 0.4755(3)
C22 C 0.1629(5) 0.7367(4) 0.5167(3)
C23 C 0.2084(5) 0.7614(5) 0.6066(3)
H18 H 0.1360 0.7889 0.6409
C24 C 0.3551(7) 0.7469(5) 0.6467(3)
H19 H 0.3804 0.7645 0.7075
C25 C 0.4677(6) 0.7071(6) 0.5999(3)
N3 N 0.6185(5) 0.6912(5) 0.6391(3)
H20 H 0.6453 0.7065 0.6953
H21 H 0.6853 0.6661 0.6074
C26 C -0.4593(5) 0.5681(4) 0.2318(2)
H22 H -0.5084 0.4837 0.1863
C27 C -0.0785(5) 0.8474(6) 0.5322(3)
N4 N -0.1351(5) 0.9256(5) 0.5817(3)
C28 C 0.4256(5) 0.6851(6) 0.5098(3)
H23 H 0.4989 0.6599 0.4760
C29 C 0.2753(6) 0.7002(6) 0.4698(3)
H24 H 0.2497 0.6851 0.4091
C30 C -0.2320(4) 0.6916(4) 0.3458(2)
loop_
_geom_bond_atom_site_label_1
_geom_bond_atom_site_label_2
_geom_bond_site_symmetry_1
_geom_bond_site_symmetry_2
O1 H1 1_555 1_555
C1 H2 1_555 1_555
C2 C1 1_555 1_555
H3 C2 1_555 1_555
C3 H4 1_555 1_555
C4 C3 1_555 1_555
H5 C4 1_555 1_555
N1 C13 1_555 1_555
C5 O1 1_555 1_555
C6 C2 1_555 1_555
C7 C6 1_555 1_555
H6 C7 1_555 1_555
C8 C7 1_555 1_555
C9 C8 1_555 1_555
C10 C9 1_555 1_555
H7 C10 1_555 1_555
C11 C10 1_555 1_555
H8 C11 1_555 1_555
C12 C11 1_555 1_555
N2 C12 1_555 1_555
H9 N2 1_555 1_555
H10 N2 1_555 1_555
C13 C8 1_555 1_555
C14 C12 1_555 1_555
H11 C14 1_555 1_555
C15 C9 1_555 1_555
H12 C15 1_555 1_555
O2 H13 1_555 1_555
C16 H14 1_555 1_555
C17 C16 1_555 1_555
H15 C17 1_555 1_555
C18 H16 1_555 1_555
C19 O2 1_555 1_555
C20 H17 1_555 1_555
C21 C20 1_555 1_555
C22 C21 1_555 1_555
C23 C22 1_555 1_555
H18 C23 1_555 1_555
C24 C23 1_555 1_555
H19 C24 1_555 1_555
C25 C24 1_555 1_555
N3 C25 1_555 1_555
H20 N3 1_555 1_555
H21 N3 1_555 1_555
C26 C18 1_555 1_555
H22 C26 1_555 1_555
C27 C21 1_555 1_555
N4 C27 1_555 1_555
C28 C25 1_555 1_555
H23 C28 1_555 1_555
C29 C22 1_555 1_555
H24 C29 1_555 1_555
C30 C17 1_555 1_555
C1 C5 1_555 1_555
C3 C6 1_555 1_555
C4 C5 1_555 1_555
C14 C15 1_555 1_555
C16 C19 1_555 1_555
C18 C30 1_555 1_555
C19 C26 1_555 1_555
C20 C30 1_555 1_555
C28 C29 1_555 1_555

#END
