
#######################################################################
#
#                 Cambridge Crystallographic Data Centre
#                                CCDC 
#
#######################################################################
#
# If this CIF has been generated from an entry in the Cambridge 
# Structural Database, then it will include bibliographic, chemical, 
# crystal, experimental, refinement or atomic coordinate data resulting 
# from the CCDC's data processing and validation procedures.
#
#######################################################################

data_WOHZAW
_chemical_formula_moiety         'C27 H21 N1 O3 S1'
_chemical_name_systematic        
4-Methyl-N-(4-oxospiro[cyclohexa[2,5]diene-1,1'-inden]-2'-yl)-N-phenylbenzenesulfonamide
_symmetry_cell_setting           monoclinic
_symmetry_space_group_name_H-M   'C c'
_symmetry_Int_Tables_number      9
_space_group_name_Hall           'C -2yc'
loop_
_symmetry_equiv_pos_site_id
_symmetry_equiv_pos_as_xyz
1 x,y,z
2 x,-y,1/2+z
3 1/2+x,1/2+y,z
4 1/2+x,1/2-y,1/2+z
_cell_length_a                   26.342(5)
_cell_length_b                   19.322(4)
_cell_length_c                   18.311(4)
_cell_angle_alpha                90
_cell_angle_beta                 110.59(3)
_cell_angle_gamma                90
_cell_volume                     8724.59
_exptl_crystal_colour            white
_cell_formula_units_Z            16
_exptl_crystal_recrystallization_method 'ethyl acetate/hexane'
loop_
_atom_site_label
_atom_site_type_symbol
_atom_site_fract_x
_atom_site_fract_y
_atom_site_fract_z
S1 S 0.33558(5) 0.35720(6) 0.39762(7)
O1 O 0.33042(14) 0.34549(18) 0.31834(19)
N1 N 0.29422(17) 0.30178(18) 0.4171(2)
O2 O 0.32356(14) 0.42430(15) 0.4227(2)
O3 O 0.10798(17) 0.3787(2) 0.2688(3)
C1 C 0.28254(19) 0.2370(2) 0.3768(3)
C2 C 0.3152(2) 0.1831(2) 0.3830(3)
H1 H 0.3513 0.1805 0.4156
C3 C 0.2847(2) 0.1277(2) 0.3294(3)
C4 C 0.2997(2) 0.0620(2) 0.3148(3)
H2 H 0.3350 0.0463 0.3393
C5 C 0.2605(2) 0.0200(3) 0.2623(3)
H3 H 0.2697 -0.0246 0.2525
C6 C 0.2084(2) 0.0436(3) 0.2248(3)
H4 H 0.1831 0.0148 0.1899
C7 C 0.1930(2) 0.1107(2) 0.2387(3)
H5 H 0.1580 0.1268 0.2133
C8 C 0.2316(2) 0.1515(2) 0.2910(3)
C9 C 0.2257(2) 0.2256(2) 0.3166(3)
C10 C 0.2143(2) 0.2759(2) 0.2493(3)
H6 H 0.2354 0.2730 0.2180
C11 C 0.1760(2) 0.3237(3) 0.2325(3)
H7 H 0.1717 0.3538 0.1911
C12 C 0.1401(2) 0.3302(3) 0.2780(3)
C13 C 0.1447(2) 0.2770(3) 0.3371(3)
H8 H 0.1198 0.2765 0.3626
C14 C 0.1840(2) 0.2292(2) 0.3552(3)
H9 H 0.1856 0.1967 0.3934
C15 C 0.2845(2) 0.3092(2) 0.4894(3)
C16 C 0.2473(2) 0.3579(2) 0.4954(3)
H10 H 0.2281 0.3847 0.4524
C17 C 0.2386(3) 0.3667(3) 0.5649(3)
H11 H 0.2137 0.3994 0.5685
C18 C 0.2669(3) 0.3267(3) 0.6295(4)
H12 H 0.2614 0.3328 0.6765
C19 C 0.3037(3) 0.2774(3) 0.6227(4)
H13 H 0.3225 0.2502 0.6656
C20 C 0.3124(2) 0.2685(3) 0.5534(3)
H14 H 0.3369 0.2352 0.5495
C21 C 0.40191(19) 0.3358(2) 0.4578(3)
C22 C 0.4211(2) 0.3594(3) 0.5348(3)
H15 H 0.3994 0.3868 0.5538
C23 C 0.4733(2) 0.3411(3) 0.5824(3)
H16 H 0.4860 0.3552 0.6343
C24 C 0.5064(2) 0.3028(3) 0.5546(3)
C25 C 0.4873(2) 0.2810(2) 0.4772(3)
H17 H 0.5096 0.2553 0.4577
C26 C 0.4347(2) 0.2977(2) 0.4289(3)
H18 H 0.4219 0.2832 0.3772
C27 C 0.5639(3) 0.2843(3) 0.6071(4)
H19 H 0.5708 0.3027 0.6584
H20 H 0.5893 0.3038 0.5859
H21 H 0.5680 0.2349 0.6100
S2 S 0.08456(5) 0.10492(6) 0.39700(7)
N2 N 0.04404(17) 0.05075(19) 0.4196(3)
O4 O 0.07418(14) 0.17290(15) 0.4220(2)
O5 O 0.07673(14) 0.09193(17) 0.31646(19)
O6 O -0.14518(16) 0.14026(18) 0.2983(2)
C28 C 0.02687(18) -0.0117(2) 0.3753(3)
C29 C 0.0549(2) -0.0690(2) 0.3767(3)
H22 H 0.0912 -0.0758 0.4070
C30 C 0.0198(2) -0.1198(2) 0.3229(3)
C31 C 0.0301(2) -0.1869(2) 0.3058(3)
H23 H 0.0642 -0.2067 0.3292
C32 C -0.0120(2) -0.2236(3) 0.2526(3)
H24 H -0.0060 -0.2689 0.2405
C33 C -0.0632(2) -0.1942(2) 0.2169(3)
H25 H -0.0906 -0.2197 0.1809
C34 C -0.0732(2) -0.1265(3) 0.2352(3)
H26 H -0.1073 -0.1066 0.2124
C35 C -0.0316(2) -0.0902(2) 0.2875(3)
C36 C -0.03203(19) -0.0161(2) 0.3192(3)
C37 C -0.0445(2) 0.0392(2) 0.2577(3)
H27 H -0.0259 0.0388 0.2229
C38 C -0.0812(2) 0.0887(3) 0.2507(3)
H28 H -0.0865 0.1222 0.2123
C39 C -0.1135(2) 0.0921(3) 0.3018(3)
C40 C -0.1072(2) 0.0344(2) 0.3567(3)
H29 H -0.1302 0.0316 0.3852
C41 C -0.0694(2) -0.0137(2) 0.3661(3)
H30 H -0.0655 -0.0477 0.4036
C42 C 0.1516(2) 0.0835(2) 0.4538(3)
C43 C 0.1728(2) 0.1091(2) 0.5301(3)
H31 H 0.1517 0.1360 0.5504
C44 C 0.2257(2) 0.0934(3) 0.5744(3)
H32 H 0.2395 0.1079 0.6261
C45 C 0.2587(2) 0.0571(3) 0.5447(3)
C46 C 0.2370(2) 0.0323(2) 0.4683(3)
H33 H 0.2585 0.0062 0.4478
C47 C 0.1832(2) 0.0465(2) 0.4226(3)
H34 H 0.1690 0.0309 0.3713
C48 C 0.3176(2) 0.0423(3) 0.5936(4)
H35 H 0.3259 0.0625 0.6444
H36 H 0.3408 0.0618 0.5687
H37 H 0.3232 -0.0068 0.5987
C49 C 0.0410(2) 0.0529(2) 0.4973(3)
C50 C 0.0094(3) 0.1042(3) 0.5139(4)
H38 H -0.0085 0.1370 0.4765
C51 C 0.0051(3) 0.1055(4) 0.5874(4)
H39 H -0.0152 0.1400 0.5994
C52 C 0.0305(3) 0.0563(4) 0.6426(4)
H40 H 0.0271 0.0573 0.6915
C53 C 0.0613(3) 0.0051(3) 0.6248(3)
H41 H 0.0783 -0.0285 0.6618
C54 C 0.0668(2) 0.0037(3) 0.5519(3)
H42 H 0.0878 -0.0303 0.5403
S3 S 0.59362(5) 0.11372(6) 0.44484(7)
N3 N 0.54058(15) 0.06185(17) 0.4249(2)
O7 O 0.62527(14) 0.10396(17) 0.5255(2)
O8 O 0.57214(14) 0.18075(15) 0.4168(2)
O9 O 0.42469(17) 0.1388(2) 0.5701(3)
C55 C 0.5477(2) -0.0033(2) 0.4640(3)
C56 C 0.5759(2) -0.0586(2) 0.4558(3)
H43 H 0.5955 -0.0618 0.4225
C57 C 0.5707(2) -0.1126(2) 0.5080(3)
C58 C 0.5906(2) -0.1810(2) 0.5181(3)
H44 H 0.6121 -0.1976 0.4912
C59 C 0.5767(2) -0.2218(3) 0.5695(3)
H45 H 0.5905 -0.2666 0.5783
C60 C 0.5438(2) -0.2003(2) 0.6088(3)
H46 H 0.5348 -0.2306 0.6418
C61 C 0.5237(2) -0.1329(2) 0.5989(3)
H47 H 0.5016 -0.1173 0.6253
C62 C 0.53784(18) -0.0897(2) 0.5482(3)
C63 C 0.51951(19) -0.0158(2) 0.5238(3)
C64 C 0.5413(2) 0.0346(2) 0.5916(3)
H48 H 0.5773 0.0309 0.6243
C65 C 0.5102(2) 0.0842(3) 0.6057(3)
H49 H 0.5260 0.1155 0.6459
C66 C 0.4525(2) 0.0905(3) 0.5600(3)
C67 C 0.4286(2) 0.0366(2) 0.5009(3)
H50 H 0.3913 0.0361 0.4743
C68 C 0.45925(19) -0.0112(2) 0.4848(3)
H51 H 0.4422 -0.0440 0.4468
C69 C 0.63129(18) 0.0864(2) 0.3879(3)
C70 C 0.6780(2) 0.0467(2) 0.4218(3)
H52 H 0.6891 0.0342 0.4741
C71 C 0.7074(2) 0.0264(3) 0.3761(3)
H53 H 0.7384 -0.0003 0.3983
C72 C 0.6919(2) 0.0446(3) 0.2981(4)
C73 C 0.6455(2) 0.0853(3) 0.2656(3)
H54 H 0.6347 0.0983 0.2134
C74 C 0.6155(2) 0.1064(3) 0.3107(3)
H55 H 0.5849 0.1339 0.2890
C75 C 0.7250(3) 0.0232(4) 0.2491(4)
H56 H 0.7554 -0.0039 0.2802
H57 H 0.7376 0.0638 0.2304
H58 H 0.7028 -0.0037 0.2055
C76 C 0.49589(19) 0.0698(2) 0.3519(3)
C77 C 0.4902(2) 0.0277(3) 0.2897(3)
H59 H 0.5154 -0.0073 0.2940
C78 C 0.4472(3) 0.0368(3) 0.2201(3)
H60 H 0.4435 0.0083 0.1777
C79 C 0.4097(2) 0.0890(3) 0.2145(4)
H61 H 0.3809 0.0957 0.1678
C80 C 0.4148(2) 0.1303(3) 0.2770(3)
H62 H 0.3892 0.1646 0.2730
C81 C 0.4576(2) 0.1215(2) 0.3461(3)
H63 H 0.4610 0.1499 0.3886
S4 S 0.84929(5) 0.35676(6) 0.45053(8)
N4 N 0.79592(16) 0.30572(18) 0.4289(2)
O10 O 0.88090(14) 0.34373(18) 0.5305(2)
O11 O 0.82904(14) 0.42471(15) 0.4262(2)
O12 O 0.66810(17) 0.3899(2) 0.5476(3)
C82 C 0.80032(19) 0.2418(2) 0.4694(3)
C83 C 0.8285(2) 0.1855(2) 0.4662(3)
H64 H 0.8496 0.1803 0.4351
C84 C 0.8213(2) 0.1330(2) 0.5190(3)
C85 C 0.8405(2) 0.0647(2) 0.5338(3)
H65 H 0.8634 0.0465 0.5099
C86 C 0.8246(2) 0.0253(3) 0.5847(3)
H66 H 0.8367 -0.0201 0.5944
C87 C 0.7913(2) 0.0512(3) 0.6215(3)
H67 H 0.7815 0.0235 0.6558
C88 C 0.7721(2) 0.1193(2) 0.6074(3)
H68 H 0.7493 0.1370 0.6318
C89 C 0.7877(2) 0.1598(2) 0.5563(3)
C90 C 0.76975(19) 0.2317(2) 0.5272(3)
C91 C 0.7873(2) 0.2862(2) 0.5899(3)
H69 H 0.8230 0.2851 0.6246
C92 C 0.7545(2) 0.3364(3) 0.5988(3)
H70 H 0.7679 0.3688 0.6385
C93 C 0.6975(2) 0.3405(3) 0.5461(3)
C94 C 0.6769(2) 0.2821(2) 0.4925(3)
H71 H 0.6399 0.2789 0.4646
C95 C 0.7095(2) 0.2342(2) 0.4827(3)
H72 H 0.6944 0.1997 0.4460
C96 C 0.7502(2) 0.3162(2) 0.3597(3)
C97 C 0.7403(2) 0.2741(3) 0.2963(3)
H73 H 0.7647 0.2388 0.2977
C98 C 0.6951(3) 0.2827(3) 0.2304(4)
H74 H 0.6887 0.2532 0.1880
C99 C 0.6592(2) 0.3357(3) 0.2277(3)
H75 H 0.6286 0.3421 0.1832
C100 C 0.6686(2) 0.3787(3) 0.2905(3)
H76 H 0.6444 0.4143 0.2884
C101 C 0.7139(2) 0.3698(3) 0.3571(3)
H77 H 0.7200 0.3991 0.3996
C102 C 0.88688(19) 0.3318(2) 0.3922(3)
C103 C 0.9310(2) 0.2877(3) 0.4229(3)
H78 H 0.9400 0.2704 0.4733
C104 C 0.9610(2) 0.2699(2) 0.3777(3)
H79 H 0.9896 0.2390 0.3975
C105 C 0.9497(2) 0.2968(3) 0.3037(3)
C106 C 0.9057(2) 0.3411(3) 0.2740(4)
H80 H 0.8971 0.3590 0.2240
C107 C 0.8745(2) 0.3588(3) 0.3183(3)
H81 H 0.8453 0.3889 0.2982
C108 C 0.9841(3) 0.2785(3) 0.2554(4)
H82 H 1.0127 0.2477 0.2845
H83 H 0.9996 0.3199 0.2431
H84 H 0.9620 0.2564 0.2080
loop_
_geom_bond_atom_site_label_1
_geom_bond_atom_site_label_2
_geom_bond_site_symmetry_1
_geom_bond_site_symmetry_2
S1 O1 1_555 1_555
N1 S1 1_555 1_555
O2 S1 1_555 1_555
O3 C12 1_555 1_555
C1 N1 1_555 1_555
C2 C1 1_555 1_555
H1 C2 1_555 1_555
C3 C2 1_555 1_555
C4 C3 1_555 1_555
H2 C4 1_555 1_555
C5 C4 1_555 1_555
H3 C5 1_555 1_555
C6 C5 1_555 1_555
H4 C6 1_555 1_555
C7 C6 1_555 1_555
H5 C7 1_555 1_555
C8 C3 1_555 1_555
C9 C1 1_555 1_555
C10 C9 1_555 1_555
H6 C10 1_555 1_555
C11 C10 1_555 1_555
H7 C11 1_555 1_555
C12 C11 1_555 1_555
C13 C12 1_555 1_555
H8 C13 1_555 1_555
C14 C9 1_555 1_555
H9 C14 1_555 1_555
C15 N1 1_555 1_555
C16 C15 1_555 1_555
H10 C16 1_555 1_555
C17 C16 1_555 1_555
H11 C17 1_555 1_555
C18 C17 1_555 1_555
H12 C18 1_555 1_555
C19 C18 1_555 1_555
H13 C19 1_555 1_555
C20 C15 1_555 1_555
H14 C20 1_555 1_555
C21 S1 1_555 1_555
C22 C21 1_555 1_555
H15 C22 1_555 1_555
C23 C22 1_555 1_555
H16 C23 1_555 1_555
C24 C23 1_555 1_555
C25 C24 1_555 1_555
H17 C25 1_555 1_555
C26 C21 1_555 1_555
H18 C26 1_555 1_555
C27 C24 1_555 1_555
H19 C27 1_555 1_555
H20 C27 1_555 1_555
H21 C27 1_555 1_555
S2 N2 1_555 1_555
N2 C28 1_555 1_555
O4 S2 1_555 1_555
O5 S2 1_555 1_555
O6 C39 1_555 1_555
C28 C29 1_555 1_555
C29 H22 1_555 1_555
C30 C29 1_555 1_555
C31 C30 1_555 1_555
H23 C31 1_555 1_555
C32 C31 1_555 1_555
H24 C32 1_555 1_555
C33 C32 1_555 1_555
H25 C33 1_555 1_555
C34 C33 1_555 1_555
H26 C34 1_555 1_555
C35 C30 1_555 1_555
C36 C28 1_555 1_555
C37 C36 1_555 1_555
H27 C37 1_555 1_555
C38 C37 1_555 1_555
H28 C38 1_555 1_555
C39 C38 1_555 1_555
C40 C39 1_555 1_555
H29 C40 1_555 1_555
C41 C36 1_555 1_555
H30 C41 1_555 1_555
C42 S2 1_555 1_555
C43 C42 1_555 1_555
H31 C43 1_555 1_555
C44 C43 1_555 1_555
H32 C44 1_555 1_555
C45 C44 1_555 1_555
C46 C45 1_555 1_555
H33 C46 1_555 1_555
C47 C42 1_555 1_555
H34 C47 1_555 1_555
C48 C45 1_555 1_555
H35 C48 1_555 1_555
H36 C48 1_555 1_555
H37 C48 1_555 1_555
C49 N2 1_555 1_555
C50 C49 1_555 1_555
H38 C50 1_555 1_555
C51 C50 1_555 1_555
H39 C51 1_555 1_555
C52 C51 1_555 1_555
H40 C52 1_555 1_555
C53 C52 1_555 1_555
H41 C53 1_555 1_555
C54 C49 1_555 1_555
H42 C54 1_555 1_555
S3 N3 1_555 1_555
N3 C55 1_555 1_555
O7 S3 1_555 1_555
O8 S3 1_555 1_555
O9 C66 1_555 1_555
C55 C56 1_555 1_555
C56 H43 1_555 1_555
C57 C56 1_555 1_555
C58 C57 1_555 1_555
H44 C58 1_555 1_555
C59 C58 1_555 1_555
H45 C59 1_555 1_555
C60 C59 1_555 1_555
H46 C60 1_555 1_555
C61 C60 1_555 1_555
H47 C61 1_555 1_555
C62 C57 1_555 1_555
C63 C55 1_555 1_555
C64 C63 1_555 1_555
H48 C64 1_555 1_555
C65 C64 1_555 1_555
H49 C65 1_555 1_555
C66 C65 1_555 1_555
C67 C66 1_555 1_555
H50 C67 1_555 1_555
C68 C63 1_555 1_555
H51 C68 1_555 1_555
C69 S3 1_555 1_555
C70 C69 1_555 1_555
H52 C70 1_555 1_555
C71 C70 1_555 1_555
H53 C71 1_555 1_555
C72 C71 1_555 1_555
C73 C72 1_555 1_555
H54 C73 1_555 1_555
C74 C69 1_555 1_555
H55 C74 1_555 1_555
C75 C72 1_555 1_555
H56 C75 1_555 1_555
H57 C75 1_555 1_555
H58 C75 1_555 1_555
C76 N3 1_555 1_555
C77 C76 1_555 1_555
H59 C77 1_555 1_555
C78 C77 1_555 1_555
H60 C78 1_555 1_555
C79 C78 1_555 1_555
H61 C79 1_555 1_555
C80 C79 1_555 1_555
H62 C80 1_555 1_555
C81 C76 1_555 1_555
H63 C81 1_555 1_555
S4 N4 1_555 1_555
N4 C82 1_555 1_555
O10 S4 1_555 1_555
O11 S4 1_555 1_555
O12 C93 1_555 1_555
C82 C83 1_555 1_555
C83 H64 1_555 1_555
C84 C83 1_555 1_555
C85 C84 1_555 1_555
H65 C85 1_555 1_555
C86 C85 1_555 1_555
H66 C86 1_555 1_555
C87 C86 1_555 1_555
H67 C87 1_555 1_555
C88 C87 1_555 1_555
H68 C88 1_555 1_555
C89 C84 1_555 1_555
C90 C82 1_555 1_555
C91 C90 1_555 1_555
H69 C91 1_555 1_555
C92 C91 1_555 1_555
H70 C92 1_555 1_555
C93 C92 1_555 1_555
C94 C93 1_555 1_555
H71 C94 1_555 1_555
C95 C90 1_555 1_555
H72 C95 1_555 1_555
C96 N4 1_555 1_555
C97 C96 1_555 1_555
H73 C97 1_555 1_555
C98 C97 1_555 1_555
H74 C98 1_555 1_555
C99 C98 1_555 1_555
H75 C99 1_555 1_555
C100 C99 1_555 1_555
H76 C100 1_555 1_555
C101 C96 1_555 1_555
H77 C101 1_555 1_555
C102 S4 1_555 1_555
C103 C102 1_555 1_555
H78 C103 1_555 1_555
C104 C103 1_555 1_555
H79 C104 1_555 1_555
C105 C104 1_555 1_555
C106 C105 1_555 1_555
H80 C106 1_555 1_555
C107 C102 1_555 1_555
H81 C107 1_555 1_555
C108 C105 1_555 1_555
H82 C108 1_555 1_555
H83 C108 1_555 1_555
H84 C108 1_555 1_555
C7 C8 1_555 1_555
C8 C9 1_555 1_555
C13 C14 1_555 1_555
C19 C20 1_555 1_555
C25 C26 1_555 1_555
C34 C35 1_555 1_555
C35 C36 1_555 1_555
C40 C41 1_555 1_555
C46 C47 1_555 1_555
C53 C54 1_555 1_555
C61 C62 1_555 1_555
C62 C63 1_555 1_555
C67 C68 1_555 1_555
C73 C74 1_555 1_555
C80 C81 1_555 1_555
C88 C89 1_555 1_555
C89 C90 1_555 1_555
C94 C95 1_555 1_555
C100 C101 1_555 1_555
C106 C107 1_555 1_555

#END
