
#######################################################################
#
#                 Cambridge Crystallographic Data Centre
#                                CCDC 
#
#######################################################################
#
# If this CIF has been generated from an entry in the Cambridge 
# Structural Database, then it will include bibliographic, chemical, 
# crystal, experimental, refinement or atomic coordinate data resulting 
# from the CCDC's data processing and validation procedures.
#
#######################################################################

data_WOHZID
_chemical_formula_moiety         'C17 H14 N2 O3'
_chemical_name_systematic        
'5-Methyl-2-(6-methyl-4-oxoquinazolin-3(4H)-yl)benzoic acid'
_symmetry_cell_setting           monoclinic
_symmetry_space_group_name_H-M   'P 21/n'
_symmetry_Int_Tables_number      14
_space_group_name_Hall           '-P 2yn'
loop_
_symmetry_equiv_pos_site_id
_symmetry_equiv_pos_as_xyz
1 x,y,z
2 1/2-x,1/2+y,1/2-z
3 -x,-y,-z
4 1/2+x,1/2-y,1/2+z
_cell_length_a                   9.841(2)
_cell_length_b                   10.901(2)
_cell_length_c                   13.791(3)
_cell_angle_alpha                90
_cell_angle_beta                 95.17(3)
_cell_angle_gamma                90
_cell_volume                     1473.43
_exptl_crystal_colour            colorless
_exptl_crystal_description       Block
_chemical_melting_point          269-270deg.C
_cell_formula_units_Z            4
loop_
_atom_site_label
_atom_site_type_symbol
_atom_site_fract_x
_atom_site_fract_y
_atom_site_fract_z
O1 O 0.13799(14) 0.30315(13) 0.85127(9)
O2 O -0.18467(13) 0.32393(12) 0.72176(9)
O3 O -0.14651(15) 0.39270(13) 0.57590(10)
N1 N -0.00552(13) 0.14669(12) 0.80422(9)
N2 N -0.15561(14) 0.05658(12) 0.90769(10)
C1 C 0.05099(18) 0.23137(16) 0.87293(12)
C2 C -0.00488(16) 0.22267(15) 0.96741(12)
C3 C 0.04017(19) 0.30166(17) 1.04358(13)
H1 H 0.1083 0.3583 1.0340
C4 C -0.01363(19) 0.29781(17) 1.13237(13)
C5 C -0.11460(19) 0.21024(17) 1.14521(13)
H2 H -0.1519 0.2057 1.2047
C6 C -0.15999(18) 0.13062(16) 1.07167(13)
H3 H -0.2269 0.0731 1.0821
C7 C -0.10599(17) 0.13607(14) 0.98198(12)
C8 C 0.0326(2) 0.3857(2) 1.21359(14)
H4 H 0.1042 0.3485 1.2555
H5 H -0.0429 0.4046 1.2505
H6 H 0.0657 0.4598 1.1864
C9 C -0.10492(17) 0.06575(15) 0.82570(12)
H7 H -0.1386 0.0128 0.7764
C10 C 0.03861(16) 0.14529(14) 0.70670(12)
C11 C 0.13552(18) 0.06008(15) 0.68698(13)
H8 H 0.1745 0.0102 0.7367
C12 C 0.17533(18) 0.04799(16) 0.59426(14)
H9 H 0.2397 -0.0111 0.5820
C13 C 0.12166(17) 0.12170(15) 0.51935(13)
C14 C 0.02593(17) 0.20890(15) 0.54075(12)
H10 H -0.0105 0.2602 0.4911
C15 C -0.01787(16) 0.22274(14) 0.63344(11)
C16 C -0.12374(17) 0.31733(16) 0.64994(13)
C17 C 0.16497(19) 0.10882(18) 0.41844(13)
H11 H 0.2558 0.1403 0.4167
H12 H 0.1036 0.1541 0.3737
H13 H 0.1633 0.0238 0.4003
H14 H -0.228(3) 0.461(2) 0.5878(16)
loop_
_geom_bond_atom_site_label_1
_geom_bond_atom_site_label_2
_geom_bond_site_symmetry_1
_geom_bond_site_symmetry_2
O1 C1 1_555 1_555
O2 C16 1_555 1_555
O3 C16 1_555 1_555
N1 C1 1_555 1_555
N2 C7 1_555 1_555
C1 C2 1_555 1_555
C2 C3 1_555 1_555
C3 H1 1_555 1_555
C4 C3 1_555 1_555
C5 C4 1_555 1_555
H2 C5 1_555 1_555
C6 C5 1_555 1_555
H3 C6 1_555 1_555
C7 C2 1_555 1_555
C8 C4 1_555 1_555
H4 C8 1_555 1_555
H5 C8 1_555 1_555
H6 C8 1_555 1_555
C9 N1 1_555 1_555
H7 C9 1_555 1_555
C10 N1 1_555 1_555
C11 C10 1_555 1_555
H8 C11 1_555 1_555
C12 C11 1_555 1_555
H9 C12 1_555 1_555
C13 C12 1_555 1_555
C14 C13 1_555 1_555
H10 C14 1_555 1_555
C15 C10 1_555 1_555
C16 C15 1_555 1_555
C17 C13 1_555 1_555
H11 C17 1_555 1_555
H12 C17 1_555 1_555
H13 C17 1_555 1_555
H14 O3 1_555 1_555
N2 C9 1_555 1_555
C6 C7 1_555 1_555
C14 C15 1_555 1_555

#END
