
#######################################################################
#
#                 Cambridge Crystallographic Data Centre
#                                CCDC 
#
#######################################################################
#
# If this CIF has been generated from an entry in the Cambridge 
# Structural Database, then it will include bibliographic, chemical, 
# crystal, experimental, refinement or atomic coordinate data resulting 
# from the CCDC's data processing and validation procedures.
#
#######################################################################

data_WOJMIT
_chemical_formula_moiety         'C17 H21 Cl1 N1 O4 P1,C3 H7 N1 O1'
_chemical_name_systematic        
'Diethyl (((4-chlorophenyl)amino)(4-hydroxyphenyl)methyl)phosphonate N,N-dimethylformamide solvate'
_symmetry_cell_setting           triclinic
_symmetry_space_group_name_H-M   'P -1'
_symmetry_Int_Tables_number      2
_space_group_name_Hall           '-P 1'
loop_
_symmetry_equiv_pos_site_id
_symmetry_equiv_pos_as_xyz
1 x,y,z
2 -x,-y,-z
_cell_length_a                   7.7230(3)
_cell_length_b                   11.6834(5)
_cell_length_c                   13.4582(5)
_cell_angle_alpha                69.872(2)
_cell_angle_beta                 88.159(2)
_cell_angle_gamma                83.841(2)
_cell_volume                     1133.58
_exptl_crystal_colour            yellow
_exptl_crystal_description       block
_cell_formula_units_Z            2
loop_
_atom_site_label
_atom_site_type_symbol
_atom_site_fract_x
_atom_site_fract_y
_atom_site_fract_z
C1 C 0.3710(3) 0.80977(18) 0.82727(15)
C2 C 0.3340(3) 0.93464(19) 0.77767(17)
H1 H 0.4242 0.9847 0.7633
C3 C 0.0306(3) 0.9130(2) 0.76955(17)
C4 C 0.1652(3) 0.9867(2) 0.74897(18)
H2 H 0.1425 1.0710 0.7160
C5 C 0.0659(3) 0.7874(2) 0.81811(19)
H3 H -0.0241 0.7373 0.8317
C6 C 0.2337(3) 0.73708(19) 0.84612(18)
H4 H 0.2561 0.6527 0.8784
C7 C 0.5553(3) 0.75408(18) 0.86193(15)
H5 H 0.6331 0.8180 0.8305
C8 C 0.6226(2) 0.66491(19) 0.72271(16)
C9 C 0.6075(3) 0.5653(2) 0.69055(18)
H6 H 0.5904 0.4897 0.7410
C10 C 0.6176(3) 0.5765(2) 0.58476(19)
H7 H 0.6067 0.5091 0.5645
C11 C 0.6438(3) 0.6878(2) 0.50973(17)
C12 C 0.6600(3) 0.7882(2) 0.53900(18)
H8 H 0.6782 0.8631 0.4879
C13 C 0.6491(3) 0.7771(2) 0.64451(18)
H9 H 0.6595 0.8452 0.6639
C14 C 0.3741(5) 0.8376(4) 1.1019(2)
H10 H 0.3369 0.7573 1.1394
H11 H 0.4171 0.8685 1.1537
C15 C 0.2261(5) 0.9194(3) 1.0463(3)
H12 H 0.2638 0.9978 1.0060
H13 H 0.1401 0.9292 1.0966
H14 H 0.1767 0.8853 0.9995
C16 C 0.8504(6) 0.6584(6) 1.1231(3)
H15 H 0.8621 0.7317 1.1397
H16 H 0.7723 0.6098 1.1745
C17 C 1.0151(6) 0.5904(5) 1.1311(4)
H17 H 1.0022 0.5138 1.1219
H18 H 1.0648 0.5751 1.1995
H19 H 1.0904 0.6361 1.0772
Cl1 Cl 0.65380(12) 0.70206(8) 0.37615(5)
N1 N 0.6162(3) 0.65004(18) 0.82953(14)
H20 H 0.589(3) 0.584(3) 0.862(2)
O1 O 0.5143(2) 0.82636(17) 1.02988(14)
O2 O 0.4857(3) 0.60211(17) 1.06464(14)
O3 O 0.7772(3) 0.6924(2) 1.01916(15)
O4 O -0.1380(2) 0.95971(17) 0.74345(16)
H21 H -0.1433 1.0346 0.7171
P1 P 0.57543(8) 0.70788(5) 1.00447(4)
C18 C 0.8263(6) 0.1600(4) 0.4743(3)
H22 H 0.9352 0.1152 0.4677
H23 H 0.7566 0.1764 0.4122
H24 H 0.7658 0.1123 0.5355
C19 C 0.8875(5) 0.3742(4) 0.3889(3)
H25 H 0.9054 0.4455 0.4057
H26 H 0.7877 0.3919 0.3433
H27 H 0.9884 0.3515 0.3537
C20 C 0.8634(4) 0.2850(3) 0.5803(3)
H28 H 0.8868 0.3608 0.5818
N2 N 0.8584(3) 0.2738(2) 0.4857(2)
O5 O 0.8404(3) 0.2062(2) 0.66580(19)
loop_
_geom_bond_atom_site_label_1
_geom_bond_atom_site_label_2
_geom_bond_site_symmetry_1
_geom_bond_site_symmetry_2
C1 C2 1_555 1_555
C2 H1 1_555 1_555
C3 C4 1_555 1_555
C4 C2 1_555 1_555
H2 C4 1_555 1_555
C5 C3 1_555 1_555
H3 C5 1_555 1_555
C6 C1 1_555 1_555
H4 C6 1_555 1_555
C7 C1 1_555 1_555
H5 C7 1_555 1_555
C8 C9 1_555 1_555
C9 H6 1_555 1_555
C10 C9 1_555 1_555
H7 C10 1_555 1_555
C11 C10 1_555 1_555
C12 C11 1_555 1_555
H8 C12 1_555 1_555
C13 C8 1_555 1_555
H9 C13 1_555 1_555
C14 H10 1_555 1_555
H11 C14 1_555 1_555
C15 C14 1_555 1_555
H12 C15 1_555 1_555
H13 C15 1_555 1_555
H14 C15 1_555 1_555
C16 H15 1_555 1_555
H16 C16 1_555 1_555
C17 C16 1_555 1_555
H17 C17 1_555 1_555
H18 C17 1_555 1_555
H19 C17 1_555 1_555
Cl1 C11 1_555 1_555
N1 C7 1_555 1_555
H20 N1 1_555 1_555
O1 C14 1_555 1_555
O2 P1 1_555 1_555
O3 C16 1_555 1_555
O4 C3 1_555 1_555
H21 O4 1_555 1_555
P1 C7 1_555 1_555
C18 H22 1_555 1_555
H23 C18 1_555 1_555
H24 C18 1_555 1_555
C19 H25 1_555 1_555
H26 C19 1_555 1_555
H27 C19 1_555 1_555
C20 H28 1_555 1_555
N2 C18 1_555 1_555
O5 C20 1_555 1_555
C5 C6 1_555 1_555
C8 N1 1_555 1_555
C12 C13 1_555 1_555
O1 P1 1_555 1_555
O3 P1 1_555 1_555
C19 N2 1_555 1_555
C20 N2 1_555 1_555

#END
