
#######################################################################
#
#                 Cambridge Crystallographic Data Centre
#                                CCDC 
#
#######################################################################
#
# If this CIF has been generated from an entry in the Cambridge 
# Structural Database, then it will include bibliographic, chemical, 
# crystal, experimental, refinement or atomic coordinate data resulting 
# from the CCDC's data processing and validation procedures.
#
#######################################################################

data_WOJXAW
_chemical_formula_moiety         'C23 H12 Cl1 F3 N2 O8'
_chemical_name_systematic        
7-(3-chloro-2,6-dinitro-4-(trifluoromethyl)phenoxy)-3-(4-methoxyphenyl)-4H-chromen-4-one
_symmetry_cell_setting           monoclinic
_symmetry_space_group_name_H-M   'P 21/n'
_symmetry_Int_Tables_number      14
_space_group_name_Hall           '-P 2yn'
loop_
_symmetry_equiv_pos_site_id
_symmetry_equiv_pos_as_xyz
1 x,y,z
2 1/2-x,1/2+y,1/2-z
3 -x,-y,-z
4 1/2+x,1/2-y,1/2+z
_cell_length_a                   5.2194(7)
_cell_length_b                   12.8950(18)
_cell_length_c                   33.098(4)
_cell_angle_alpha                90
_cell_angle_beta                 92.436(5)
_cell_angle_gamma                90
_cell_volume                     2225.62
_exptl_crystal_colour            colorless
_exptl_crystal_description       block
_cell_formula_units_Z            4
loop_
_atom_site_label
_atom_site_type_symbol
_atom_site_fract_x
_atom_site_fract_y
_atom_site_fract_z
Cl1 Cl -0.0365(2) 0.26057(8) 0.07538(3)
F1 F 0.2351(5) 0.1180(2) 0.01805(6)
F2 F -0.0428(4) 0.0304(2) 0.04831(7)
F3 F 0.3297(5) -0.03106(19) 0.04027(7)
O1 O 0.3153(6) 0.4023(2) 0.15207(11)
O2 O -0.0315(6) 0.3294(2) 0.16817(10)
O3 O 0.9486(5) 0.0107(2) 0.15657(8)
O4 O 0.7029(5) 0.0056(2) 0.20715(8)
O5 O 0.5492(4) 0.21645(17) 0.20010(6)
O6 O -0.0667(4) 0.07128(17) 0.28541(7)
O7 O -0.0616(4) 0.32959(18) 0.35613(7)
O8 O -0.7894(5) 0.1052(2) 0.48274(8)
N1 N 0.1797(6) 0.3287(2) 0.15460(9)
N2 N 0.7502(5) 0.0297(2) 0.17279(10)
C1 C 0.2026(8) 0.0541(3) 0.04875(11)
C2 C 0.1909(6) 0.1914(3) 0.10284(11)
C3 C 0.2762(6) 0.2288(2) 0.14039(10)
C4 C 0.4554(6) 0.1762(2) 0.16427(9)
C5 C 0.5537(5) 0.0864(2) 0.14932(9)
C6 C 0.4784(6) 0.0493(3) 0.11161(9)
H1 H 0.5529 -0.0107 0.1018
C7 C 0.2942(6) 0.1003(3) 0.08853(9)
C8 C 0.3878(6) 0.2216(3) 0.23310(10)
C9 C 0.4116(6) 0.3107(3) 0.25626(11)
H2 H 0.5244 0.3631 0.2495
C10 C 0.2648(6) 0.3197(3) 0.28946(10)
H3 H 0.2773 0.3795 0.3051
C11 C 0.0976(6) 0.2414(2) 0.30018(9)
C12 C 0.0861(6) 0.1533(3) 0.27649(10)
C13 C 0.2306(6) 0.1422(3) 0.24235(10)
H4 H 0.2198 0.0826 0.2265
C14 C -0.0595(6) 0.2497(3) 0.33576(10)
C15 C -0.2052(6) 0.1573(2) 0.34500(10)
C16 C -0.2029(6) 0.0776(3) 0.31927(10)
H5 H -0.3047 0.0208 0.3252
C17 C -0.3542(6) 0.1479(3) 0.38195(10)
C18 C -0.5142(6) 0.2259(3) 0.39399(11)
H6 H -0.5220 0.2875 0.3794
C19 C -0.6637(7) 0.2148(3) 0.42728(12)
H7 H -0.7720 0.2681 0.4347
C20 C -0.6511(7) 0.1249(3) 0.44917(11)
C21 C -0.4900(8) 0.0472(3) 0.43819(12)
H8 H -0.4799 -0.0137 0.4532
C22 C -0.3424(7) 0.0591(3) 0.40488(11)
H9 H -0.2326 0.0059 0.3978
C23 C -0.9733(8) 0.1783(4) 0.49387(13)
H10 H -0.8895 0.2424 0.5010
H11 H -1.0622 0.1526 0.5166
H12 H -1.0936 0.1897 0.4716
loop_
_geom_bond_atom_site_label_1
_geom_bond_atom_site_label_2
_geom_bond_site_symmetry_1
_geom_bond_site_symmetry_2
Cl1 C2 1_555 1_555
F1 C1 1_555 1_555
F2 C1 1_555 1_555
F3 C1 1_555 1_555
O1 N1 1_555 1_555
O2 N1 1_555 1_555
O3 N2 1_555 1_555
O4 N2 1_555 1_555
O5 C4 1_555 1_555
O6 C12 1_555 1_555
O7 C14 1_555 1_555
O8 C20 1_555 1_555
N1 C3 1_555 1_555
N2 C5 1_555 1_555
C1 C7 1_555 1_555
C2 C3 1_555 1_555
C3 C4 1_555 1_555
C4 C5 1_555 1_555
C5 C6 1_555 1_555
C6 H1 1_555 1_555
C7 C2 1_555 1_555
C8 O5 1_555 1_555
C9 C8 1_555 1_555
H2 C9 1_555 1_555
C10 C9 1_555 1_555
H3 C10 1_555 1_555
C11 C10 1_555 1_555
C12 C11 1_555 1_555
C13 C8 1_555 1_555
H4 C13 1_555 1_555
C14 C11 1_555 1_555
C15 C14 1_555 1_555
C16 O6 1_555 1_555
H5 C16 1_555 1_555
C17 C15 1_555 1_555
C18 C17 1_555 1_555
H6 C18 1_555 1_555
C19 C18 1_555 1_555
H7 C19 1_555 1_555
C20 C19 1_555 1_555
C21 C20 1_555 1_555
H8 C21 1_555 1_555
C22 C17 1_555 1_555
H9 C22 1_555 1_555
C23 O8 1_555 1_555
H10 C23 1_555 1_555
H11 C23 1_555 1_555
H12 C23 1_555 1_555
C6 C7 1_555 1_555
C12 C13 1_555 1_555
C15 C16 1_555 1_555
C21 C22 1_555 1_555

#END
