
#######################################################################
#
#                 Cambridge Crystallographic Data Centre
#                                CCDC 
#
#######################################################################
#
# If this CIF has been generated from an entry in the Cambridge 
# Structural Database, then it will include bibliographic, chemical, 
# crystal, experimental, refinement or atomic coordinate data resulting 
# from the CCDC's data processing and validation procedures.
#
#######################################################################

data_WOJZOL
_chemical_formula_moiety         'C8 H13 N1 O6 P2,3(H2 O1)'
_chemical_name_systematic        
'Hydrogen (1-ammonio-2-phenyl-1-phosphonoethyl)phosphonate trihydrate'
_symmetry_cell_setting           monoclinic
_symmetry_space_group_name_H-M   'P 21/c'
_symmetry_Int_Tables_number      14
_space_group_name_Hall           '-P 2ybc'
loop_
_symmetry_equiv_pos_site_id
_symmetry_equiv_pos_as_xyz
1 x,y,z
2 -x,1/2+y,1/2-z
3 -x,-y,-z
4 x,1/2-y,1/2+z
_cell_length_a                   17.0240(14)
_cell_length_b                   6.4303(5)
_cell_length_c                   13.1242(11)
_cell_angle_alpha                90
_cell_angle_beta                 94.6390(10)
_cell_angle_gamma                90
_cell_volume                     1431.99
_exptl_crystal_colour            colorless
_exptl_crystal_description       block
_cell_formula_units_Z            4
_exptl_crystal_preparation       luminescent
loop_
_atom_site_label
_atom_site_type_symbol
_atom_site_fract_x
_atom_site_fract_y
_atom_site_fract_z
C1 C 0.27975(13) 0.9116(3) 0.30518(16)
C2 C 0.19036(13) 0.8605(4) 0.29924(18)
H1 H 0.1744 0.8131 0.2305
H2 H 0.1826 0.7457 0.3453
C3 C 0.13633(13) 1.0358(4) 0.32491(19)
C4 C 0.10605(16) 1.0455(5) 0.4201(2)
H3 H 0.1194 0.9434 0.4686
C5 C 0.05630(18) 1.2053(6) 0.4433(3)
H4 H 0.0364 1.2093 0.5072
C6 C 0.0360(2) 1.3582(6) 0.3730(3)
H5 H 0.0028 1.4661 0.3893
C7 C 0.06520(18) 1.3505(5) 0.2777(3)
H6 H 0.0519 1.4537 0.2297
C8 C 0.11429(15) 1.1890(5) 0.2538(2)
H7 H 0.1328 1.1831 0.1891
H8 H 0.312(3) 1.342(8) 0.408(4)
H9 H 0.286(3) 0.553(8) 0.140(4)
H10 H 0.425(3) 0.914(8) 0.466(4)
N1 N 0.29413(11) 1.0745(3) 0.22613(14)
H17 H 0.2703 1.0369 0.1661
H18 H 0.3457 1.0866 0.2206
H19 H 0.2749 1.1959 0.2451
O1 O 0.35511(11) 0.5627(3) 0.37448(13)
O2 O 0.28218(11) 0.5382(3) 0.20390(13)
O3 O 0.40813(10) 0.7499(3) 0.22370(14)
O4 O 0.40530(11) 1.0163(3) 0.43439(16)
O5 O 0.28675(12) 1.2490(3) 0.42508(15)
O6 O 0.28027(11) 0.9033(3) 0.51249(12)
P1 P 0.33809(3) 0.67868(9) 0.27490(5)
P2 P 0.31650(4) 1.02291(9) 0.43015(5)
H11 H 0.231(3) 0.859(7) 0.024(3)
H12 H 0.223(3) 1.064(8) 0.008(3)
O7 O 0.20996(15) 0.9676(4) 0.04698(16)
H13 H 0.432(4) 0.375(11) 0.174(5)
H14 H 0.486(3) 0.230(7) 0.204(3)
O8 O 0.44070(14) 0.2452(4) 0.1727(2)
H15 H 0.521(4) 0.764(11) 0.559(5)
H16 H 0.457(3) 0.691(9) 0.602(4)
O9 O 0.47755(17) 0.7034(8) 0.5450(2)
loop_
_geom_bond_atom_site_label_1
_geom_bond_atom_site_label_2
_geom_bond_site_symmetry_1
_geom_bond_site_symmetry_2
C1 C2 1_555 1_555
C2 H1 1_555 1_555
H2 C2 1_555 1_555
C3 C2 1_555 1_555
C4 C3 1_555 1_555
H3 C4 1_555 1_555
C5 C4 1_555 1_555
H4 C5 1_555 1_555
C6 C5 1_555 1_555
H5 C6 1_555 1_555
C7 C6 1_555 1_555
H6 C7 1_555 1_555
C8 C3 1_555 1_555
H7 C8 1_555 1_555
H8 O5 1_555 1_555
H9 O2 1_555 1_555
H10 O4 1_555 1_555
H11 O7 1_555 1_555
H12 O7 1_555 1_555
H13 O8 1_555 1_555
H14 O8 1_555 1_555
H15 O9 1_555 1_555
H16 O9 1_555 1_555
N1 C1 1_555 1_555
H17 N1 1_555 1_555
H18 N1 1_555 1_555
H19 N1 1_555 1_555
O1 P1 1_555 1_555
O2 P1 1_555 1_555
O3 P1 1_555 1_555
O4 P2 1_555 1_555
O5 P2 1_555 1_555
O6 P2 1_555 1_555
P1 C1 1_555 1_555
P2 C1 1_555 1_555
C7 C8 1_555 1_555

#END
