
#######################################################################
#
#                 Cambridge Crystallographic Data Centre
#                                CCDC 
#
#######################################################################
#
# If this CIF has been generated from an entry in the Cambridge 
# Structural Database, then it will include bibliographic, chemical, 
# crystal, experimental, refinement or atomic coordinate data resulting 
# from the CCDC's data processing and validation procedures.
#
#######################################################################

data_WOKFAF
_chemical_formula_moiety         'C36 H36 Be1 N2 O6,2(C1 H1 Cl3)'
_chemical_name_systematic        
'bis(3-(4-(dimethylamino)phenyl)-1-(2-(hydroxy)-4-methoxyphenyl)prop-2-en-1-onato)-beryllium chloroform solvate'
_symmetry_cell_setting           triclinic
_symmetry_space_group_name_H-M   'P -1'
_symmetry_Int_Tables_number      2
_space_group_name_Hall           '-P 1'
loop_
_symmetry_equiv_pos_site_id
_symmetry_equiv_pos_as_xyz
1 x,y,z
2 -x,-y,-z
_cell_length_a                   12.210(2)
_cell_length_b                   12.505(3)
_cell_length_c                   15.530(3)
_cell_angle_alpha                101.76(3)
_cell_angle_beta                 108.27(3)
_cell_angle_gamma                106.81(3)
_cell_volume                     2039.23
_exptl_crystal_colour            brown
_exptl_crystal_description       block
_cell_formula_units_Z            2
loop_
_atom_site_label
_atom_site_type_symbol
_atom_site_fract_x
_atom_site_fract_y
_atom_site_fract_z
Be1 Be -0.1391(4) 0.6629(3) 0.1246(3)
O1 O -0.0721(2) 0.59812(17) 0.18851(14)
O2 O -0.1996(2) 0.57512(17) 0.01275(14)
O3 O 0.0624(2) 0.2864(2) 0.24095(17)
N1 N -0.4805(4) 0.2587(3) -0.5857(2)
C1 C -0.0621(3) 0.4981(2) 0.1535(2)
C2 C -0.0074(3) 0.4453(3) 0.2178(2)
H1 H 0.0180 0.4800 0.2834
C3 C 0.0088(3) 0.3425(3) 0.1840(2)
C4 C -0.0299(3) 0.2882(3) 0.0853(2)
H2 H -0.0186 0.2190 0.0632
C5 C -0.0835(3) 0.3369(3) 0.0228(2)
H3 H -0.1083 0.3003 -0.0424
C6 C -0.1037(3) 0.4423(2) 0.0527(2)
C7 C -0.1711(3) 0.4876(2) -0.0148(2)
C8 C -0.2128(3) 0.4317(2) -0.1176(2)
H4 H -0.1830 0.3752 -0.1385
C9 C -0.2918(3) 0.4583(3) -0.1827(2)
H5 H -0.3205 0.5146 -0.1598
C10 C -0.3375(3) 0.4076(3) -0.2863(2)
C11 C -0.4367(4) 0.4251(3) -0.3455(3)
H6 H -0.4721 0.4712 -0.3178
C12 C -0.4859(4) 0.3774(4) -0.4441(3)
H7 H -0.5533 0.3911 -0.4813
C13 C -0.4338(4) 0.3080(3) -0.4883(2)
C14 C -0.3313(4) 0.2896(3) -0.4282(2)
H8 H -0.2950 0.2440 -0.4553
C15 C -0.2859(3) 0.3379(3) -0.3315(2)
H9 H -0.2185 0.3246 -0.2937
C16 C 0.1021(5) 0.3367(4) 0.3422(3)
H10 H 0.1381 0.2894 0.3741
H11 H 0.0317 0.3389 0.3566
H12 H 0.1630 0.4154 0.3638
C17 C -0.5833(7) 0.2751(5) -0.6470(3)
H13 H -0.6072 0.3281 -0.6097
H14 H -0.6521 0.2005 -0.6805
H15 H -0.5604 0.3080 -0.6925
C18 C -0.4271(6) 0.1819(5) -0.6287(3)
H16 H -0.3580 0.1795 -0.5792
H17 H -0.3989 0.2125 -0.6732
H18 H -0.4895 0.1036 -0.6619
O4 O -0.2394(2) 0.69470(17) 0.15685(15)
O5 O -0.0417(2) 0.78542(16) 0.12734(14)
O6 O -0.4399(2) 0.94754(19) 0.24133(18)
N2 N 0.5211(3) 1.2773(2) 0.0562(2)
C19 C -0.2440(3) 0.8000(2) 0.17321(19)
C20 C -0.3396(3) 0.8163(3) 0.1991(2)
H19 H -0.3961 0.7535 0.2055
C21 C -0.3509(3) 0.9243(3) 0.2153(2)
C22 C -0.2669(3) 1.0207(3) 0.2056(2)
H20 H -0.2762 1.0929 0.2151
C23 C -0.1724(3) 1.0075(3) 0.1824(2)
H21 H -0.1163 1.0720 0.1774
C24 C -0.1562(3) 0.8975(2) 0.1652(2)
C25 C -0.0555(3) 0.8843(2) 0.14179(19)
C26 C 0.0361(3) 0.9816(2) 0.1329(2)
H22 H 0.0243 1.0522 0.1350
C27 C 0.1377(3) 0.9701(2) 0.12165(19)
H23 H 0.1466 0.8993 0.1240
C28 C 0.2342(3) 1.0524(2) 0.1065(2)
C29 C 0.2351(3) 1.1617(2) 0.0962(2)
H24 H 0.1707 1.1847 0.1009
C30 C 0.3280(3) 1.2355(3) 0.0795(2)
H25 H 0.3248 1.3068 0.0724
C31 C 0.4287(3) 1.2048(3) 0.0729(2)
C32 C 0.4289(3) 1.0954(3) 0.0847(2)
H26 H 0.4942 1.0728 0.0821
C33 C 0.3341(3) 1.0227(3) 0.0998(2)
H27 H 0.3360 0.9507 0.1058
C34 C -0.5212(4) 0.8570(3) 0.2597(3)
H28 H -0.5789 0.8846 0.2778
H29 H -0.4735 0.8359 0.3107
H30 H -0.5664 0.7891 0.2029
C35 C 0.5239(4) 1.3919(3) 0.0488(3)
H31 H 0.4560 1.4061 0.0607
H32 H 0.5161 1.3931 -0.0144
H33 H 0.6014 1.4523 0.0952
C36 C 0.6165(4) 1.2398(4) 0.0410(4)
H34 H 0.6042 1.1633 0.0483
H35 H 0.6969 1.2954 0.0871
H36 H 0.6119 1.2356 -0.0225
C37 C 0.8261(5) 0.5925(4) 0.3518(3)
H37 H 0.8509 0.6152 0.3019
Cl1 Cl 0.6989(6) 0.4539(4) 0.2942(5)
Cl2 Cl 0.95987(18) 0.59397(18) 0.43965(9)
Cl3 Cl 0.77789(17) 0.70031(15) 0.40032(10)
C38 C 0.1417(8) 0.9777(7) 0.4453(5)
H38 H 0.0855 1.0194 0.4287
Cl5 Cl 0.2886(3) 1.0663(2) 0.4602(2)
Cl6 Cl 0.1496(3) 0.9549(2) 0.55508(14)
Cl7 Cl 0.08351(17) 0.84419(15) 0.35363(10)
Cl4? Cl 0.729(2) 0.4554(11) 0.329(2)
C39? C 0.172(4) 0.946(7) 0.439(6)
H39? H 0.1290 0.8627 0.4007
Cl8? Cl 0.0600(14) 1.001(2) 0.3925(7)
Cl9? Cl 0.296(2) 0.9841(16) 0.4067(17)
Cl10? Cl 0.2082(15) 0.9378(16) 0.5450(9)
loop_
_geom_bond_atom_site_label_1
_geom_bond_atom_site_label_2
_geom_bond_site_symmetry_1
_geom_bond_site_symmetry_2
Be1 O1 1_555 1_555
O1 C1 1_555 1_555
O2 Be1 1_555 1_555
O3 C3 1_555 1_555
N1 C13 1_555 1_555
C1 C2 1_555 1_555
C2 H1 1_555 1_555
C3 C2 1_555 1_555
C4 C3 1_555 1_555
H2 C4 1_555 1_555
C5 C4 1_555 1_555
H3 C5 1_555 1_555
C6 C1 1_555 1_555
C7 O2 1_555 1_555
C8 C7 1_555 1_555
H4 C8 1_555 1_555
C9 C8 1_555 1_555
H5 C9 1_555 1_555
C10 C9 1_555 1_555
C11 C10 1_555 1_555
H6 C11 1_555 1_555
C12 C11 1_555 1_555
H7 C12 1_555 1_555
C13 C12 1_555 1_555
C14 C13 1_555 1_555
H8 C14 1_555 1_555
C15 C10 1_555 1_555
H9 C15 1_555 1_555
C16 O3 1_555 1_555
H10 C16 1_555 1_555
H11 C16 1_555 1_555
H12 C16 1_555 1_555
C17 N1 1_555 1_555
H13 C17 1_555 1_555
H14 C17 1_555 1_555
H15 C17 1_555 1_555
C18 N1 1_555 1_555
H16 C18 1_555 1_555
H17 C18 1_555 1_555
H18 C18 1_555 1_555
O4 Be1 1_555 1_555
O5 Be1 1_555 1_555
O6 C21 1_555 1_555
N2 C31 1_555 1_555
C19 O4 1_555 1_555
C20 C19 1_555 1_555
H19 C20 1_555 1_555
C21 C20 1_555 1_555
C22 C21 1_555 1_555
H20 C22 1_555 1_555
C23 C22 1_555 1_555
H21 C23 1_555 1_555
C24 C19 1_555 1_555
C25 O5 1_555 1_555
C26 C25 1_555 1_555
H22 C26 1_555 1_555
C27 C26 1_555 1_555
H23 C27 1_555 1_555
C28 C27 1_555 1_555
C29 C28 1_555 1_555
H24 C29 1_555 1_555
C30 C29 1_555 1_555
H25 C30 1_555 1_555
C31 C30 1_555 1_555
C32 C31 1_555 1_555
H26 C32 1_555 1_555
C33 C28 1_555 1_555
H27 C33 1_555 1_555
C34 O6 1_555 1_555
H28 C34 1_555 1_555
H29 C34 1_555 1_555
H30 C34 1_555 1_555
C35 N2 1_555 1_555
H31 C35 1_555 1_555
H32 C35 1_555 1_555
H33 C35 1_555 1_555
C36 N2 1_555 1_555
H34 C36 1_555 1_555
H35 C36 1_555 1_555
H36 C36 1_555 1_555
C37 H37 1_555 1_555
Cl1 C37 1_555 1_555
Cl2 C37 1_555 1_555
Cl3 C37 1_555 1_555
C38 H38 1_555 1_555
Cl5 C38 1_555 1_555
Cl6 C38 1_555 1_555
Cl7 C38 1_555 1_555
C5 C6 1_555 1_555
C6 C7 1_555 1_555
C14 C15 1_555 1_555
C23 C24 1_555 1_555
C24 C25 1_555 1_555
C32 C33 1_555 1_555

#END
