
#######################################################################
#
#                 Cambridge Crystallographic Data Centre
#                                CCDC 
#
#######################################################################
#
# If this CIF has been generated from an entry in the Cambridge 
# Structural Database, then it will include bibliographic, chemical, 
# crystal, experimental, refinement or atomic coordinate data resulting 
# from the CCDC's data processing and validation procedures.
#
#######################################################################

data_WOLGIN
_chemical_formula_moiety         'C7 H14 N2 O4'
_chemical_name_systematic        
11-Methyl-3,4,8,9-tetraoxa-1,6-diazabicyclo(4.4.2)dodecane
_symmetry_cell_setting           monoclinic
_symmetry_space_group_name_H-M   'P 21/c'
_symmetry_Int_Tables_number      14
_space_group_name_Hall           '-P 2ybc'
loop_
_symmetry_equiv_pos_site_id
_symmetry_equiv_pos_as_xyz
1 x,y,z
2 -x,1/2+y,1/2-z
3 -x,-y,-z
4 x,1/2-y,1/2+z
_cell_length_a                   11.1141(23)
_cell_length_b                   6.408(3)
_cell_length_c                   13.1614(24)
_cell_angle_alpha                90
_cell_angle_beta                 101.404(16)
_cell_angle_gamma                90
_cell_volume                     918.838
_exptl_crystal_description       'chunky prisms'
_chemical_melting_point          80-81deg.C
_cell_formula_units_Z            4
_exptl_crystal_recrystallization_method 'petroleum ether'
loop_
_atom_site_label
_atom_site_type_symbol
_atom_site_fract_x
_atom_site_fract_y
_atom_site_fract_z
O1 O 0.44457(19) 0.8234(3) 0.09102(15)
O2 O 0.47061(17) 0.6330(4) 0.14879(15)
O3 O 0.18522(24) 0.3197(4) 0.0935(3)
O4 O 0.29243(23) 0.3059(3) 0.04674(23)
N1 N 0.27194(22) 0.6634(4) -0.01951(17)
N2 N 0.27024(24) 0.6123(4) 0.19770(18)
C1 C 0.3836(3) 0.7704(6) -0.01139(23)
C2 C 0.3976(3) 0.6469(7) 0.22914(25)
C3 C 0.2261(5) 0.4078(7) 0.1951(4)
C4 C 0.2666(4) 0.4482(6) -0.0414(3)
C5 C 0.1750(3) 0.7588(6) 0.0229(3)
C6 C 0.1973(3) 0.7787(5) 0.1423(3)
C7 C 0.0761(4) 0.8096(10) 0.1775(5)
H1 H 0.369(3) 0.917(5) -0.0420(22)
H2 H 0.444(3) 0.692(4) -0.0464(21)
H3 H 0.409(3) 0.795(6) 0.252(3)
H4 H 0.433(3) 0.541(5) 0.2797(21)
H5 H 0.294(4) 0.321(7) 0.235(3)
H6 H 0.145(4) 0.402(6) 0.215(3)
H7 H 0.328(3) 0.410(5) -0.0794(23)
H8 H 0.191(3) 0.405(5) -0.0741(24)
H9 H 0.104(3) 0.681(5) 0.0012(22)
H10 H 0.165(3) 0.899(5) -0.0014(22)
H11 H 0.2490(24) 0.908(4) 0.1603(19)
H12 H 0.035(4) 0.693(6) 0.162(3)
H13 H 0.039(4) 0.928(6) 0.144(3)
H14 H 0.087(3) 0.829(6) 0.254(3)
loop_
_geom_bond_atom_site_label_1
_geom_bond_atom_site_label_2
_geom_bond_site_symmetry_1
_geom_bond_site_symmetry_2
O1 O2 1_555 1_555
O2 C2 1_555 1_555
O3 O4 1_555 1_555
O4 C4 1_555 1_555
N1 C1 1_555 1_555
N2 C2 1_555 1_555
C1 O1 1_555 1_555
C2 H3 1_555 1_555
C3 O3 1_555 1_555
C4 N1 1_555 1_555
C5 N1 1_555 1_555
C6 N2 1_555 1_555
C7 C6 1_555 1_555
H1 C1 1_555 1_555
H2 C1 1_555 1_555
H4 C2 1_555 1_555
H5 C3 1_555 1_555
H6 C3 1_555 1_555
H7 C4 1_555 1_555
H8 C4 1_555 1_555
H9 C5 1_555 1_555
H10 C5 1_555 1_555
H11 C6 1_555 1_555
H12 C7 1_555 1_555
H13 C7 1_555 1_555
H14 C7 1_555 1_555
N2 C3 1_555 1_555
C5 C6 1_555 1_555

#END
