
#######################################################################
#
#                 Cambridge Crystallographic Data Centre
#                                CCDC 
#
#######################################################################
#
# If this CIF has been generated from an entry in the Cambridge 
# Structural Database, then it will include bibliographic, chemical, 
# crystal, experimental, refinement or atomic coordinate data resulting 
# from the CCDC's data processing and validation procedures.
#
#######################################################################

data_WOLWAW
_chemical_formula_moiety         
'C14 H40 N7 5+,3(C7 H4 N1 O4 1-),C7 H3 N1 O4 2-,0.5(C2 H6 O1),H2 O1'
_chemical_name_systematic        
'1,10-Diaza-4,7,13,16,19-penta-azoniacyclohenicosane tris(6-carboxypyridine-2-carboxylate) pyridine-2,6-dicarboxylate ethanol solvate monohydrate'
_symmetry_cell_setting           monoclinic
_symmetry_space_group_name_H-M   'P 21/c'
_symmetry_Int_Tables_number      14
_space_group_name_Hall           '-P 2ybc'
loop_
_symmetry_equiv_pos_site_id
_symmetry_equiv_pos_as_xyz
1 x,y,z
2 -x,1/2+y,1/2-z
3 -x,-y,-z
4 x,1/2-y,1/2+z
_cell_length_a                   15.406(2)
_cell_length_b                   30.106(3)
_cell_length_c                   21.455(2)
_cell_angle_alpha                90
_cell_angle_beta                 100.943(8)
_cell_angle_gamma                90
_cell_volume                     9770.16
_exptl_crystal_colour            colorless
_exptl_crystal_description       prismatic
_cell_formula_units_Z            8
loop_
_atom_site_label
_atom_site_type_symbol
_atom_site_fract_x
_atom_site_fract_y
_atom_site_fract_z
C1 C 0.2236(8) 0.1816(4) -0.2299(5)
C2 C 0.2844(8) 0.1761(4) -0.2693(5)
H1 H 0.2657 0.1767 -0.3131
C3 C 0.3719(8) 0.1696(4) -0.2437(6)
H2 H 0.4138 0.1657 -0.2693
C4 C 0.3954(7) 0.1690(4) -0.1776(6)
H3 H 0.4538 0.1637 -0.1583
C5 C 0.3328(8) 0.1763(4) -0.1410(5)
N1 N 0.2477(5) 0.1823(3) -0.1669(4)
O2 O 0.0755(5) 0.1926(3) -0.2188(3)
O22 O 0.1034(4) 0.1833(2) -0.3162(3)
O23 O 0.3059(5) 0.1934(3) -0.0389(3)
O24 O 0.4348(5) 0.1624(3) -0.0461(3)
C44 C 0.1270(7) 0.1851(4) -0.2582(6)
C70 C 0.3577(9) 0.1775(4) -0.0702(5)
C6 C 0.1646(8) 0.4349(4) 0.0970(5)
C7 C 0.2544(7) 0.4327(4) 0.1145(5)
H4 H 0.2898 0.4318 0.0839
C8 C 0.2919(8) 0.4317(4) 0.1776(6)
H5 H 0.3528 0.4300 0.1910
C9 C 0.2358(8) 0.4333(4) 0.2205(5)
H6 H 0.2603 0.4346 0.2636
C10 C 0.1476(8) 0.4332(4) 0.2030(5)
N2 N 0.1100(5) 0.4347(3) 0.1393(4)
O3 O 0.0364(5) 0.4401(2) 0.0152(3)
O16 O 0.0041(5) 0.4342(3) 0.2266(3)
O17 O 0.1200(4) 0.4290(3) 0.3070(3)
O20 O 0.1702(5) 0.4340(3) -0.0122(3)
C48 C 0.0885(8) 0.4318(4) 0.2497(6)
C57 C 0.1201(8) 0.4361(4) 0.0278(5)
C11 C -0.1946(7) 0.0898(4) -0.1418(5)
C12 C -0.2849(8) 0.0980(4) -0.1488(6)
H7 H -0.3196 0.0982 -0.1893
C13 C -0.3254(8) 0.1062(4) -0.0962(6)
H8 H -0.3858 0.1110 -0.1004
C14 C -0.2703(8) 0.1066(4) -0.0398(5)
H9 H -0.2933 0.1129 -0.0037
C15 C -0.1824(8) 0.0984(4) -0.0329(5)
N3 N -0.1418(5) 0.0897(3) -0.0818(4)
O21 O -0.0717(5) 0.0698(3) -0.1847(3)
O25 O -0.0454(5) 0.0858(3) 0.0367(3)
O26 O -0.2009(5) 0.0816(3) -0.2515(3)
C47 C -0.1208(10) 0.0994(5) 0.0314(6)
O29 O -0.1570(6) 0.1119(3) 0.0764(4)
C72 C -0.1543(9) 0.0804(4) -0.1994(6)
C16 C -0.3381(7) 0.3210(3) 0.1590(5)
C17 C -0.4037(7) 0.3163(4) 0.1937(5)
H10 H -0.4620 0.3227 0.1754
C18 C -0.3831(7) 0.3019(4) 0.2560(5)
H11 H -0.4272 0.2965 0.2792
C19 C -0.2954(8) 0.2959(4) 0.2824(5)
H12 H -0.2792 0.2868 0.3244
C20 C -0.2316(7) 0.3035(4) 0.2466(5)
N4 N -0.2525(5) 0.3149(3) 0.1851(4)
O5 O -0.3063(5) 0.3249(3) 0.0574(3)
O7 O -0.0816(5) 0.3050(3) 0.2368(3)
O12 O -0.1110(4) 0.2940(3) 0.3330(3)
O19 O -0.4325(5) 0.3546(3) 0.0728(3)
C42 C -0.1354(7) 0.2998(4) 0.2762(6)
C77 C -0.3626(8) 0.3348(4) 0.0916(5)
C21 C 0.2846(7) 0.0856(4) 0.3021(5)
C22 C 0.2408(8) 0.0925(3) 0.3514(5)
H13 H 0.2726 0.0945 0.3927
C23 C 0.1506(8) 0.0964(4) 0.3399(5)
H14 H 0.1204 0.1015 0.3728
C24 C 0.1054(7) 0.0926(4) 0.2774(5)
H15 H 0.0442 0.0954 0.2677
C25 C 0.1524(7) 0.0847(4) 0.2306(5)
N5 N 0.2417(6) 0.0811(3) 0.2413(4)
O4 O 0.4227(4) 0.0748(2) 0.3684(3)
O10 O 0.4201(4) 0.0783(3) 0.2644(3)
O15 O 0.0253(5) 0.0870(3) 0.1509(3)
C62 C 0.3802(8) 0.0780(4) 0.3132(6)
O30 O 0.1493(6) 0.0651(4) 0.1211(4)
C75 C 0.1077(9) 0.0785(5) 0.1600(6)
C26 C 0.1597(8) 0.1998(4) 0.1535(5)
C27 C 0.0966(7) 0.1992(3) 0.1900(5)
H16 H 0.0369 0.1981 0.1717
C28 C 0.1242(7) 0.2003(4) 0.2561(4)
H17 H 0.0837 0.2010 0.2832
C29 C 0.2120(7) 0.2002(4) 0.2788(5)
H18 H 0.2320 0.2003 0.3225
C30 C 0.2723(7) 0.2000(4) 0.2404(5)
N6 N 0.2465(5) 0.1999(3) 0.1755(4)
O8 O 0.0496(5) 0.2023(3) 0.0583(3)
O11 O 0.4245(5) 0.2016(3) 0.2325(3)
O14 O 0.1880(5) 0.1949(3) 0.0490(3)
O27 O 0.3870(5) 0.1954(5) 0.3254(4)
C52 C 0.3693(8) 0.1984(4) 0.2677(6)
C54 C 0.1292(8) 0.1984(4) 0.0809(5)
C31 C -0.2667(7) 0.3243(4) -0.2247(5)
C32 C -0.2080(8) 0.3360(4) -0.2638(5)
H19 H -0.2281 0.3389 -0.3073
C33 C -0.1230(7) 0.3431(4) -0.2392(5)
H20 H -0.0838 0.3522 -0.2647
C34 C -0.0945(7) 0.3364(4) -0.1748(5)
H21 H -0.0350 0.3401 -0.1569
C35 C -0.1541(8) 0.3244(4) -0.1367(5)
N7 N -0.2404(6) 0.3185(3) -0.1622(4)
O1 O -0.1839(5) 0.3163(3) -0.0323(3)
O6 O -0.0413(5) 0.3196(2) -0.0453(3)
C53 C -0.1264(8) 0.3202(4) -0.0654(5)
O31 O -0.4177(4) 0.3095(3) -0.2160(3)
O32 O -0.3857(5) 0.3150(4) -0.3119(4)
C84 C -0.3656(8) 0.3154(4) -0.2525(6)
C36 C -0.2865(7) 0.4462(4) -0.2486(5)
C37 C -0.2418(8) 0.4522(4) -0.2973(5)
H22 H -0.2731 0.4527 -0.3389
C38 C -0.1506(8) 0.4577(4) -0.2859(5)
H23 H -0.1195 0.4605 -0.3189
C39 C -0.1086(7) 0.4588(4) -0.2228(5)
H24 H -0.0477 0.4628 -0.2124
C40 C -0.1566(8) 0.4540(4) -0.1763(5)
N8 N -0.2447(6) 0.4476(3) -0.1876(4)
O9 O -0.4195(4) 0.4363(3) -0.2117(3)
O13 O -0.0260(5) 0.4479(3) -0.0982(3)
O18 O -0.1533(5) 0.4557(3) -0.0634(3)
C49 C -0.1098(8) 0.4524(4) -0.1047(5)
C50 C -0.3834(8) 0.4395(4) -0.2603(6)
O28 O -0.4266(5) 0.4368(3) -0.3158(3)
N9 N 0.3769(5) 0.1863(4) 0.0895(4)
H25 H 0.3471 0.1867 0.0491
H26 H 0.3396 0.1950 0.1147
N10 N 0.1208(5) 0.1897(3) -0.0742(3)
H27 H 0.1604 0.1873 -0.1000
H28 H 0.1512 0.1887 -0.0340
N15 N 0.0576(6) 0.0701(3) -0.0720(4)
H35 H 0.0518 0.0668 -0.1143
H36 H 0.0030 0.0737 -0.0636
C56 C 0.4062(8) 0.1400(5) 0.1066(5)
H53 H 0.4392 0.1386 0.1498
H54 H 0.4431 0.1288 0.0781
C59 C 0.1449(7) 0.2698(4) -0.0799(4)
H57 H 0.1829 0.2634 -0.1101
H58 H 0.1139 0.2972 -0.0935
C60 C 0.3195(10) 0.1129(5) 0.0996(6)
H59 H 0.2766 0.1302 0.1169
H60 H 0.2962 0.1085 0.0548
C61 C 0.0636(7) 0.1510(4) -0.0843(4)
H61 H 0.0459 0.1457 -0.1295
H62 H 0.0107 0.1568 -0.0673
C63 C 0.1080(6) 0.1110(4) -0.0535(4)
H63 H 0.1658 0.1083 -0.0648
H64 H 0.1165 0.1144 -0.0078
C66 C 0.2944(8) 0.0135(4) 0.0480(5)
H69 H 0.3194 -0.0128 0.0323
H70 H 0.2462 0.0038 0.0680
C67 C 0.0951(9) 0.0281(4) -0.0411(5)
H71 H 0.0568 0.0035 -0.0575
H72 H 0.0965 0.0300 0.0042
N19 N 0.2018(9) 0.2779(4) -0.0180(4)
H79 H 0.2240 0.2518 -0.0017
H80 H 0.1688 0.2892 0.0086
N20 N 0.3575(8) 0.2772(4) 0.0865(6)
C74 C 0.0791(8) 0.2342(4) -0.0846(5)
H83 H 0.0414 0.2350 -0.1263
H84 H 0.0422 0.2391 -0.0533
N21 N 0.2575(7) 0.0409(3) -0.0061(5)
C76 C 0.2825(10) 0.3115(4) -0.0216(6)
H85 H 0.3236 0.2993 -0.0462
H86 H 0.2618 0.3403 -0.0385
N22 N 0.3280(6) 0.0708(6) 0.1299(4)
H87 H 0.2744 0.0629 0.1370
H88 H 0.3636 0.0741 0.1680
C78 C 0.4493(9) 0.2175(6) 0.0957(6)
H89 H 0.4689 0.2243 0.1403
H90 H 0.4982 0.2034 0.0809
C79 C 0.3624(9) 0.0335(5) 0.0972(7)
H91 H 0.4107 0.0441 0.0780
H92 H 0.3858 0.0110 0.1282
C80 C 0.1881(8) 0.0187(4) -0.0523(6)
H93 H 0.1983 -0.0131 -0.0501
H94 H 0.1923 0.0284 -0.0947
C82 C 0.3226(10) 0.3136(7) 0.0500(6)
H97 H 0.3694 0.3356 0.0546
H98 H 0.2770 0.3259 0.0705
C83 C 0.4290(10) 0.2572(7) 0.0625(7)
H99 H 0.4115 0.2515 0.0173
H100 H 0.4800 0.2768 0.0691
N11 N -0.2680(5) 0.4821(3) 0.0400(3)
N12 N -0.1192(6) 0.3224(3) 0.1005(3)
H29 H -0.1666 0.3232 0.0687
H30 H -0.1398 0.3221 0.1371
N13 N -0.3707(6) 0.3233(4) -0.0749(3)
H31 H -0.3314 0.3196 -0.0385
H32 H -0.3431 0.3167 -0.1071
N14 N -0.3333(6) 0.4470(3) -0.0816(3)
H33 H -0.3546 0.4492 -0.1235
H34 H -0.2800 0.4604 -0.0742
N16 N -0.0944(5) 0.4466(3) 0.0941(4)
H37 H -0.0357 0.4473 0.1088
H38 H -0.1037 0.4506 0.0518
C41 C -0.1294(7) 0.4016(4) 0.1082(4)
H39 H -0.1378 0.4011 0.1519
H40 H -0.1867 0.3971 0.0811
N17 N -0.2147(5) 0.2422(3) 0.0546(3)
H41 H -0.2432 0.2682 0.0568
H42 H -0.1991 0.2408 0.0163
C43 C -0.4456(7) 0.2910(6) -0.0759(5)
H43 H -0.4948 0.2997 -0.1088
H44 H -0.4652 0.2924 -0.0355
C45 C -0.3935(6) 0.4738(4) -0.0477(4)
H45 H -0.3943 0.5045 -0.0614
H46 H -0.4532 0.4623 -0.0585
C46 C -0.0705(7) 0.3646(4) 0.0984(4)
H47 H -0.0178 0.3648 0.1314
H48 H -0.0525 0.3677 0.0577
C51 C -0.2388(6) 0.4805(4) 0.1089(4)
H49 H -0.2577 0.4529 0.1255
H50 H -0.2642 0.5050 0.1286
C55 C -0.1368(6) 0.4837(4) 0.1233(5)
H51 H -0.1191 0.5118 0.1074
H52 H -0.1162 0.4833 0.1689
C58 C -0.4198(9) 0.2449(5) -0.0874(6)
H55 H -0.4693 0.2254 -0.0855
H56 H -0.4070 0.2429 -0.1299
C64 C -0.3185(8) 0.3987(4) -0.0665(5)
H65 H -0.2755 0.3875 -0.0903
H66 H -0.2928 0.3959 -0.0217
C65 C -0.3620(7) 0.4714(4) 0.0220(4)
H67 H -0.3958 0.4919 0.0427
H68 H -0.3720 0.4416 0.0366
C68 C -0.2748(6) 0.2055(4) 0.0608(4)
H73 H -0.2918 0.2062 0.1020
H74 H -0.2466 0.1772 0.0560
C69 C -0.0738(7) 0.2799(4) 0.0961(4)
H75 H -0.0203 0.2788 0.1282
H76 H -0.0571 0.2776 0.0548
N18 N -0.3453(9) 0.2302(5) -0.0432(6)
C71 C -0.1333(6) 0.2413(4) 0.1052(4)
H77 H -0.1020 0.2136 0.1030
H78 H -0.1494 0.2433 0.1466
C73 C -0.3977(8) 0.3702(5) -0.0802(5)
H81 H -0.4361 0.3765 -0.0504
H82 H -0.4301 0.3761 -0.1227
C81 C -0.3575(8) 0.2119(5) 0.0069(6)
H95 H -0.3835 0.1829 -0.0041
H96 H -0.4006 0.2293 0.0238
O33 O -0.1200(4) 0.2057(2) -0.0323(3)
O34 O 0.1072(6) 0.3245(3) 0.0483(4)
O35 O 0.4627(8) -0.5739(5) 0.4718(6)
H101 H 0.5105 -0.5864 0.4740
C86 C 0.4171(11) -0.5441(6) 0.3637(7)
H105 H 0.4223 -0.5161 0.3432
H106 H 0.3558 -0.5519 0.3594
H107 H 0.4472 -0.5667 0.3442
C88 C 0.4529(15) -0.5410(8) 0.4241(10)
H111 H 0.4214 -0.5170 0.4401
H112 H 0.5123 -0.5300 0.4248
O36 O -0.5088(8) 0.4131(5) 0.1455(5)
H102 H -0.4947 0.4062 0.1118
C85 C -0.4393(11) 0.4416(6) 0.1825(7)
H103 H -0.3868 0.4235 0.1949
H104 H -0.4250 0.4645 0.1542
C87 C -0.4541(11) 0.4598(6) 0.2299(7)
H108 H -0.4024 0.4757 0.2503
H109 H -0.4694 0.4379 0.2585
H110 H -0.5023 0.4803 0.2184
O37 O 0.4149(9) 0.4129(5) 0.0001(6)
O38 O -0.3751(11) 0.3906(7) 0.5845(7)
O39? O -0.3927(17) 0.4215(10) 0.5650(12)
loop_
_geom_bond_atom_site_label_1
_geom_bond_atom_site_label_2
_geom_bond_site_symmetry_1
_geom_bond_site_symmetry_2
C1 C2 1_555 1_555
C2 H1 1_555 1_555
C3 C2 1_555 1_555
H2 C3 1_555 1_555
C4 C3 1_555 1_555
H3 C4 1_555 1_555
C5 C4 1_555 1_555
N1 C1 1_555 1_555
C6 C7 1_555 1_555
C7 H4 1_555 1_555
C8 C7 1_555 1_555
H5 C8 1_555 1_555
C9 C8 1_555 1_555
H6 C9 1_555 1_555
C10 C9 1_555 1_555
N2 C6 1_555 1_555
C11 C12 1_555 1_555
C12 H7 1_555 1_555
C13 C12 1_555 1_555
H8 C13 1_555 1_555
C14 C13 1_555 1_555
H9 C14 1_555 1_555
C15 C14 1_555 1_555
N3 C11 1_555 1_555
C16 C17 1_555 1_555
C17 H10 1_555 1_555
C18 C17 1_555 1_555
H11 C18 1_555 1_555
C19 C18 1_555 1_555
H12 C19 1_555 1_555
C20 C19 1_555 1_555
N4 C16 1_555 1_555
C21 C22 1_555 1_555
C22 H13 1_555 1_555
C23 C22 1_555 1_555
H14 C23 1_555 1_555
C24 C23 1_555 1_555
H15 C24 1_555 1_555
C25 C24 1_555 1_555
N5 C21 1_555 1_555
C26 C27 1_555 1_555
C27 H16 1_555 1_555
C28 C27 1_555 1_555
H17 C28 1_555 1_555
C29 C28 1_555 1_555
H18 C29 1_555 1_555
C30 C29 1_555 1_555
N6 C26 1_555 1_555
C31 C32 1_555 1_555
C32 H19 1_555 1_555
C33 C32 1_555 1_555
H20 C33 1_555 1_555
C34 C33 1_555 1_555
H21 C34 1_555 1_555
C35 C34 1_555 1_555
N7 C31 1_555 1_555
C36 C37 1_555 1_555
C37 H22 1_555 1_555
C38 C37 1_555 1_555
H23 C38 1_555 1_555
C39 C38 1_555 1_555
H24 C39 1_555 1_555
C40 C39 1_555 1_555
N8 C36 1_555 1_555
O1 C53 1_555 1_555
O2 C44 1_555 1_555
N9 H25 1_555 1_555
H26 N9 1_555 1_555
O3 C57 1_555 1_555
O4 C62 1_555 1_555
O5 C77 1_555 1_555
O6 C53 1_555 1_555
N10 H27 1_555 1_555
H28 N10 1_555 1_555
O7 C42 1_555 1_555
O8 C54 1_555 1_555
O9 C50 1_555 1_555
N11 C51 1_555 1_555
O10 C62 1_555 1_555
O11 C52 1_555 1_555
O12 C42 1_555 1_555
N12 H29 1_555 1_555
H30 N12 1_555 1_555
N13 H31 1_555 1_555
H32 N13 1_555 1_555
O13 C49 1_555 1_555
O14 C54 1_555 1_555
O15 C75 1_555 1_555
O16 C48 1_555 1_555
O17 C48 1_555 1_555
O18 C49 1_555 1_555
N14 H33 1_555 1_555
H34 N14 1_555 1_555
O19 C77 1_555 1_555
O20 C57 1_555 1_555
O21 C72 1_555 1_555
O22 C44 1_555 1_555
O23 C70 1_555 1_555
N15 H35 1_555 1_555
H36 N15 1_555 1_555
O24 C70 1_555 1_555
N16 H37 1_555 1_555
H38 N16 1_555 1_555
C41 N16 1_555 1_555
H39 C41 1_555 1_555
H40 C41 1_555 1_555
O25 C47 1_555 1_555
N17 H41 1_555 1_555
H42 N17 1_555 1_555
O26 C72 1_555 1_555
O27 C52 1_555 1_555
C42 C20 1_555 1_555
C43 N13 1_555 1_555
H43 C43 1_555 1_555
H44 C43 1_555 1_555
C44 C1 1_555 1_555
C45 N14 1_555 1_555
H45 C45 1_555 1_555
H46 C45 1_555 1_555
C46 N12 1_555 1_555
H47 C46 1_555 1_555
H48 C46 1_555 1_555
C47 C15 1_555 1_555
C48 C10 1_555 1_555
C49 C40 1_555 1_555
C50 C36 1_555 1_555
C51 H49 1_555 1_555
H50 C51 1_555 1_555
C52 C30 1_555 1_555
C53 C35 1_555 1_555
O28 C50 1_555 1_555
C54 C26 1_555 1_555
C55 N16 1_555 1_555
H51 C55 1_555 1_555
H52 C55 1_555 1_555
C56 N9 1_555 1_555
H53 C56 1_555 1_555
H54 C56 1_555 1_555
C57 C6 1_555 1_555
C58 C43 1_555 1_555
H55 C58 1_555 1_555
H56 C58 1_555 1_555
O29 C47 1_555 1_555
C59 H57 1_555 1_555
H58 C59 1_555 1_555
C60 C56 1_555 1_555
H59 C60 1_555 1_555
H60 C60 1_555 1_555
C61 N10 1_555 1_555
H61 C61 1_555 1_555
H62 C61 1_555 1_555
C62 C21 1_555 1_555
C63 N15 1_555 1_555
H63 C63 1_555 1_555
H64 C63 1_555 1_555
C64 N14 1_555 1_555
H65 C64 1_555 1_555
H66 C64 1_555 1_555
C65 N11 1_555 1_555
H67 C65 1_555 1_555
H68 C65 1_555 1_555
C66 H69 1_555 1_555
H70 C66 1_555 1_555
C67 N15 1_555 1_555
H71 C67 1_555 1_555
H72 C67 1_555 1_555
C68 N17 1_555 1_555
H73 C68 1_555 1_555
H74 C68 1_555 1_555
C69 N12 1_555 1_555
H75 C69 1_555 1_555
H76 C69 1_555 1_555
N18 C58 1_555 1_555
C70 C5 1_555 1_555
C71 N17 1_555 1_555
H77 C71 1_555 1_555
H78 C71 1_555 1_555
O30 C75 1_555 1_555
N19 C59 1_555 1_555
H79 N19 1_555 1_555
H80 N19 1_555 1_555
C72 C11 1_555 1_555
C73 N13 1_555 1_555
H81 C73 1_555 1_555
H82 C73 1_555 1_555
N20 C82 1_555 1_555
C74 N10 1_555 1_555
H83 C74 1_555 1_555
H84 C74 1_555 1_555
C75 C25 1_555 1_555
N21 C66 1_555 1_555
C76 N19 1_555 1_555
H85 C76 1_555 1_555
H86 C76 1_555 1_555
C77 C16 1_555 1_555
N22 C60 1_555 1_555
H87 N22 1_555 1_555
H88 N22 1_555 1_555
C78 N9 1_555 1_555
H89 C78 1_555 1_555
H90 C78 1_555 1_555
C79 C66 1_555 1_555
H91 C79 1_555 1_555
H92 C79 1_555 1_555
C80 C67 1_555 1_555
H93 C80 1_555 1_555
H94 C80 1_555 1_555
C81 C68 1_555 1_555
H95 C81 1_555 1_555
H96 C81 1_555 1_555
C82 C76 1_555 1_555
H97 C82 1_555 1_555
H98 C82 1_555 1_555
C83 N20 1_555 1_555
H99 C83 1_555 1_555
H100 C83 1_555 1_555
O31 C84 1_555 1_555
O32 C84 1_555 1_555
C84 C31 1_555 1_555
O35 H101 1_555 1_555
O36 H102 1_555 1_555
C85 O36 1_555 1_555
H103 C85 1_555 1_555
H104 C85 1_555 1_555
C86 H105 1_555 1_555
H106 C86 1_555 1_555
H107 C86 1_555 1_555
C87 C85 1_555 1_555
H108 C87 1_555 1_555
H109 C87 1_555 1_555
H110 C87 1_555 1_555
C88 O35 1_555 1_555
H111 C88 1_555 1_555
H112 C88 1_555 1_555
C5 N1 1_555 1_555
C10 N2 1_555 1_555
C15 N3 1_555 1_555
C20 N4 1_555 1_555
C25 N5 1_555 1_555
C30 N6 1_555 1_555
C35 N7 1_555 1_555
C40 N8 1_555 1_555
C41 C46 1_555 1_555
C45 C65 1_555 1_555
C51 C55 1_555 1_555
C59 C74 1_555 1_555
C61 C63 1_555 1_555
C64 C73 1_555 1_555
C69 C71 1_555 1_555
N18 C81 1_555 1_555
N21 C80 1_555 1_555
N22 C79 1_555 1_555
C78 C83 1_555 1_555
C86 C88 1_555 1_555

#END
