
#######################################################################
#
#                 Cambridge Crystallographic Data Centre
#                                CCDC 
#
#######################################################################
#
# If this CIF has been generated from an entry in the Cambridge 
# Structural Database, then it will include bibliographic, chemical, 
# crystal, experimental, refinement or atomic coordinate data resulting 
# from the CCDC's data processing and validation procedures.
#
#######################################################################

data_WOLYOM02
_chemical_formula_moiety         'C12 H18 N2 O2'
_chemical_name_systematic        2,5-bis(Isopropylamino)-1,4-benzoquinone
_symmetry_cell_setting           monoclinic
_symmetry_space_group_name_H-M   'C 2/c'
_symmetry_Int_Tables_number      15
_space_group_name_Hall           '-C 2yn'
loop_
_symmetry_equiv_pos_site_id
_symmetry_equiv_pos_as_xyz
1 x,y,z
2 -x,y,1/2-z
3 1/2+x,1/2+y,z
4 1/2-x,1/2+y,1/2-z
5 -x,-y,-z
6 x,-y,1/2+z
7 1/2-x,1/2-y,-z
8 1/2+x,1/2-y,1/2+z
_cell_length_a                   10.783(2)
_cell_length_b                   9.109(2)
_cell_length_c                   12.867(3)
_cell_angle_alpha                90
_cell_angle_beta                 106.472(15)
_cell_angle_gamma                90
_cell_volume                     1211.96
_exptl_crystal_colour            red
_exptl_crystal_description       block
_cell_formula_units_Z            4
loop_
_atom_site_label
_atom_site_type_symbol
_atom_site_fract_x
_atom_site_fract_y
_atom_site_fract_z
O1 O 0.54386(11) 0.10741(14) 0.37659(9)
N1 N 0.82491(15) 0.22826(17) 0.72196(11)
C1 C 0.63874(16) 0.17027(18) 0.43757(13)
C2 C 0.67584(16) 0.15710(19) 0.55144(13)
H1 H 0.6281 0.0973 0.5844
C3 C 0.78110(16) 0.23103(18) 0.61423(13)
C4 C 0.76731(19) 0.1463(2) 0.79470(14)
H2 H 0.7170 0.0647 0.7540
C5 C 0.6779(3) 0.2431(4) 0.8340(3)
H3 H 0.7263 0.3216 0.8765
H4 H 0.6365 0.1866 0.8777
H5 H 0.6135 0.2831 0.7730
C6 C 0.8733(2) 0.0838(3) 0.88725(18)
H6 H 0.9307 0.0259 0.8589
H7 H 0.8360 0.0231 0.9315
H8 H 0.9208 0.1625 0.9302
H9 H 0.8946(15) 0.286(2) 0.7519(16)
O1F O 0.95614(11) 0.39259(14) 0.62341(9)
N1F N 0.67509(15) 0.27174(17) 0.27804(11)
C1F C 0.86126(16) 0.32973(18) 0.56243(13)
C2F C 0.82416(16) 0.34290(19) 0.44856(13)
H1F H 0.8719 0.4027 0.4156
C3F C 0.71890(16) 0.26897(18) 0.38577(13)
C4F C 0.73269(19) 0.3537(2) 0.20530(14)
H2F H 0.7830 0.4353 0.2460
C5F C 0.8221(3) 0.2569(4) 0.1660(3)
H3F H 0.7737 0.1784 0.1235
H4F H 0.8635 0.3134 0.1223
H5F H 0.8865 0.2169 0.2270
C6F C 0.6267(2) 0.4162(3) 0.11275(18)
H6F H 0.5693 0.4741 0.1411
H7F H 0.6640 0.4769 0.0685
H8F H 0.5792 0.3375 0.0698
H9F H 0.6054(15) 0.214(2) 0.2481(16)
loop_
_geom_bond_atom_site_label_1
_geom_bond_atom_site_label_2
_geom_bond_site_symmetry_1
_geom_bond_site_symmetry_2
O1 C1 1_555 1_555
N1 C3 1_555 1_555
C1 C2 1_555 1_555
C2 H1 1_555 1_555
C3 C2 1_555 1_555
C4 N1 1_555 1_555
H2 C4 1_555 1_555
C5 C4 1_555 1_555
H3 C5 1_555 1_555
H4 C5 1_555 1_555
H5 C5 1_555 1_555
C6 C4 1_555 1_555
H6 C6 1_555 1_555
H7 C6 1_555 1_555
H8 C6 1_555 1_555
H9 N1 1_555 1_555
O1F C1F 1_555 1_555
N1F C3F 1_555 1_555
C1F C3 1_555 1_555
C2F C1F 1_555 1_555
H1F C2F 1_555 1_555
C3F C1 1_555 1_555
C4F N1F 1_555 1_555
H2F C4F 1_555 1_555
C5F C4F 1_555 1_555
H3F C5F 1_555 1_555
H4F C5F 1_555 1_555
H5F C5F 1_555 1_555
C6F C4F 1_555 1_555
H6F C6F 1_555 1_555
H7F C6F 1_555 1_555
H8F C6F 1_555 1_555
H9F N1F 1_555 1_555
C2F C3F 1_555 1_555

#END
