
#######################################################################
#
#                 Cambridge Crystallographic Data Centre
#                                CCDC 
#
#######################################################################
#
# If this CIF has been generated from an entry in the Cambridge 
# Structural Database, then it will include bibliographic, chemical, 
# crystal, experimental, refinement or atomic coordinate data resulting 
# from the CCDC's data processing and validation procedures.
#
#######################################################################

data_WOLYUS01
_chemical_formula_moiety         'C18 H26 N2 O2'
_chemical_name_systematic        2,5-bis(Cyclohexylamino)-1,4-benzoquinone
_symmetry_cell_setting           monoclinic
_symmetry_space_group_name_H-M   'P 21/c'
_symmetry_Int_Tables_number      14
_space_group_name_Hall           '-P 2ybc'
loop_
_symmetry_equiv_pos_site_id
_symmetry_equiv_pos_as_xyz
1 x,y,z
2 -x,1/2+y,1/2-z
3 -x,-y,-z
4 x,1/2-y,1/2+z
_cell_length_a                   14.225(2)
_cell_length_b                   8.9705(16)
_cell_length_c                   13.369(2)
_cell_angle_alpha                90
_cell_angle_beta                 99.348(9)
_cell_angle_gamma                90
_cell_volume                     1683.3
_exptl_crystal_colour            red
_exptl_crystal_description       block
_cell_formula_units_Z            4
loop_
_atom_site_label
_atom_site_type_symbol
_atom_site_fract_x
_atom_site_fract_y
_atom_site_fract_z
O1 O 0.75417(12) 0.0842(2) 0.78572(14)
O2 O 0.86385(13) 0.4613(2) 1.09216(15)
N1 N 0.93126(15) 0.1777(3) 0.81285(18)
N2 N 0.68890(15) 0.3596(2) 1.06839(17)
C1 C 0.74160(16) 0.3133(3) 1.00129(18)
C2 C 0.87764(16) 0.2303(3) 0.87802(19)
C3 C 0.84267(17) 0.3735(3) 1.02023(19)
C4 C 0.77549(16) 0.1724(3) 0.85673(19)
C5 C 0.90648(17) 0.3264(3) 0.9563(2)
H1 H 0.9689 0.3610 0.9675
C6 C 0.71215(16) 0.2203(3) 0.92113(19)
H2 H 0.6492 0.1880 0.9089
C7 C 0.59108(16) 0.3114(3) 1.07096(19)
H3 H 0.5572 0.3072 1.0011
C8 C 0.54102(18) 0.4248(3) 1.1286(2)
H4 H 0.5748 0.4335 1.1975
H5 H 0.5417 0.5215 1.0964
C9 C 1.03339(16) 0.2061(3) 0.8198(2)
H6 H 1.0456 0.3104 0.8395
C10 C 0.58754(18) 0.1575(3) 1.1173(2)
H7 H 0.6226 0.1582 1.1859
H8 H 0.6176 0.0860 1.0781
C11 C 1.0630(2) 0.1824(4) 0.7172(2)
H9 H 1.0280 0.2505 0.6684
H10 H 1.0475 0.0814 0.6944
C12 C 0.4851(2) 0.1112(3) 1.1189(2)
H11 H 0.4844 0.0146 1.1515
H12 H 0.4519 0.1016 1.0499
C13 C 0.4390(2) 0.3779(4) 1.1307(2)
H13 H 0.4094 0.4491 1.1705
H14 H 0.4038 0.3791 1.0621
C14 C 1.1696(2) 0.2086(4) 0.7227(3)
H15 H 1.1874 0.1870 0.6572
H16 H 1.1838 0.3127 0.7381
C15 C 1.1973(2) 0.1369(5) 0.9043(3)
H17 H 1.2114 0.2388 0.9258
H18 H 1.2332 0.0711 0.9540
C16 C 1.0915(2) 0.1076(4) 0.8997(3)
H19 H 1.0736 0.1278 0.9654
H20 H 1.0779 0.0036 0.8834
C17 C 0.4333(2) 0.2238(4) 1.1752(3)
H21 H 0.3671 0.1948 1.1707
H22 H 0.4617 0.2251 1.2463
C18 C 1.2276(2) 0.1119(4) 0.8027(3)
H23 H 1.2188 0.0078 0.7837
H24 H 1.2946 0.1356 0.8071
H25 H 0.723(2) 0.406(3) 1.1229(17)
H26 H 0.904(2) 0.120(3) 0.7616(19)
loop_
_geom_bond_atom_site_label_1
_geom_bond_atom_site_label_2
_geom_bond_site_symmetry_1
_geom_bond_site_symmetry_2
O1 C4 1_555 1_555
O2 C3 1_555 1_555
N1 C2 1_555 1_555
N2 C1 1_555 1_555
C1 C3 1_555 1_555
C2 C4 1_555 1_555
C3 C5 1_555 1_555
C4 C6 1_555 1_555
C5 C2 1_555 1_555
H1 C5 1_555 1_555
C6 C1 1_555 1_555
H2 C6 1_555 1_555
C7 N2 1_555 1_555
H3 C7 1_555 1_555
C8 C7 1_555 1_555
H4 C8 1_555 1_555
H5 C8 1_555 1_555
C9 N1 1_555 1_555
H6 C9 1_555 1_555
C10 C7 1_555 1_555
H7 C10 1_555 1_555
H8 C10 1_555 1_555
C11 C9 1_555 1_555
H9 C11 1_555 1_555
H10 C11 1_555 1_555
C12 C10 1_555 1_555
H11 C12 1_555 1_555
H12 C12 1_555 1_555
C13 C8 1_555 1_555
H13 C13 1_555 1_555
H14 C13 1_555 1_555
C14 C11 1_555 1_555
H15 C14 1_555 1_555
H16 C14 1_555 1_555
C15 H17 1_555 1_555
H18 C15 1_555 1_555
C16 C9 1_555 1_555
H19 C16 1_555 1_555
H20 C16 1_555 1_555
C17 C12 1_555 1_555
H21 C17 1_555 1_555
H22 C17 1_555 1_555
C18 C14 1_555 1_555
H23 C18 1_555 1_555
H24 C18 1_555 1_555
H25 N2 1_555 1_555
H26 N1 1_555 1_555
C13 C17 1_555 1_555
C15 C16 1_555 1_555
C15 C18 1_555 1_555

#END
