
#######################################################################
#
#                 Cambridge Crystallographic Data Centre
#                                CCDC 
#
#######################################################################
#
# If this CIF has been generated from an entry in the Cambridge 
# Structural Database, then it will include bibliographic, chemical, 
# crystal, experimental, refinement or atomic coordinate data resulting 
# from the CCDC's data processing and validation procedures.
#
#######################################################################

data_WOLZON
_chemical_name_common            
5,6-Dicyano-2-(4,5-dithia-(3',6',9',12'-tetraoxatetradecyl)-1,3-dithio-2-ylidene)benzo-1,3-dithiole
_chemical_formula_moiety         'C22 H22 N2 O4 S6'
_chemical_name_systematic        
2-(5,6,8,9,11,12,14,15,17,18-Decahydro(1,3)dithiolo(4,5-n)(1,4,7,10,13,16)tetraoxadithiacyclo-octadecin-2-ylidene)-1,3-benzodithiole-5,6-dicarbonitrile
_symmetry_cell_setting           triclinic
_symmetry_space_group_name_H-M   'P -1'
_symmetry_Int_Tables_number      2
_space_group_name_Hall           '-P 1'
loop_
_symmetry_equiv_pos_site_id
_symmetry_equiv_pos_as_xyz
1 x,y,z
2 -x,-y,-z
_cell_length_a                   5.185(3)
_cell_length_b                   14.816(8)
_cell_length_c                   18.029(8)
_cell_angle_alpha                111.918(18)
_cell_angle_beta                 90.171(9)
_cell_angle_gamma                94.791(9)
_cell_volume                     1279.53
_exptl_crystal_colour            black
_exptl_crystal_description       block
_cell_formula_units_Z            2
_exptl_crystal_recrystallization_method dichloromethane/hexane
loop_
_atom_site_label
_atom_site_type_symbol
_atom_site_fract_x
_atom_site_fract_y
_atom_site_fract_z
S1 S 0.5223(3) 0.18188(13) -0.08645(12)
S2 S 0.7196(3) 0.38989(13) -0.04711(11)
S3 S 0.9292(3) 0.16160(13) 0.03691(11)
S4 S 1.1469(3) 0.36624(13) 0.08010(11)
S5 S 1.3411(3) 0.11786(15) 0.13512(13)
S6 S 1.5569(3) 0.35437(15) 0.19302(12)
C1 C -0.1523(15) 0.2078(5) -0.2896(5)
C2 C 0.0486(15) 0.4032(6) -0.2606(5)
C3 C 0.0640(12) 0.2514(5) -0.2332(4)
C4 C 0.1608(12) 0.3495(5) -0.2181(4)
C5 C 0.3593(12) 0.3923(5) -0.1615(4)
H1 H 0.4220 0.4567 -0.1508
C6 C 0.4669(11) 0.3419(5) -0.1203(4)
C7 C 0.3736(12) 0.2425(5) -0.1372(4)
C8 C 0.1695(12) 0.2025(5) -0.1923(4)
H2 H 0.1014 0.1389 -0.2017
C9 C 0.7445(12) 0.2816(5) -0.0295(4)
C10 C 0.9164(12) 0.2723(5) 0.0220(4)
C11 C 1.2928(12) 0.2976(5) 0.1261(4)
C12 C 1.1969(12) 0.2034(5) 0.1062(4)
C13 C 1.0670(13) 0.0471(5) 0.1559(4)
H3 H 0.9379 0.0294 0.1126
H4 H 1.1246 -0.0129 0.1573
C14 C 0.9427(13) 0.1008(5) 0.2339(4)
H5 H 1.0694 0.1231 0.2782
H6 H 0.8623 0.1566 0.2318
C15 C 0.6204(15) 0.0592(6) 0.3148(5)
H7 H 0.4521 0.0222 0.3054
H8 H 0.5916 0.1276 0.3303
C16 C 0.7544(19) 0.0467(7) 0.3813(6)
H9 H 0.6331 0.0485 0.4226
H10 H 0.8253 -0.0162 0.3628
C17 C 1.077(2) 0.1159(10) 0.4800(7)
H11 H 1.2036 0.0683 0.4636
H12 H 0.9499 0.0957 0.5115
C18 C 1.207(2) 0.2150(13) 0.5285(7)
H13 H 1.0792 0.2625 0.5426
H14 H 1.2807 0.2141 0.5777
C19 C 1.518(3) 0.3393(11) 0.5247(9)
H15 H 1.6137 0.3445 0.5726
H16 H 1.3848 0.3846 0.5402
C20 C 1.690(3) 0.3627(9) 0.4704(9)
H17 H 1.7890 0.3085 0.4415
H18 H 1.8072 0.4201 0.4983
C21 C 1.621(2) 0.3707(10) 0.3499(5)
H19 H 1.6981 0.3091 0.3303
H20 H 1.7558 0.4234 0.3587
C22 C 1.4054(17) 0.3725(7) 0.2886(5)
H21 H 1.3308 0.4347 0.3083
H22 H 1.2683 0.3210 0.2816
N1 N -0.3223(13) 0.1699(6) -0.3361(4)
N2 N -0.0460(15) 0.4396(5) -0.2965(5)
O1 O 0.7529(9) 0.0296(4) 0.2420(3)
O2 O 0.9552(13) 0.1219(5) 0.4129(4)
O3 O 1.4024(17) 0.2427(6) 0.4857(5)
O4 O 1.5015(17) 0.3817(7) 0.4156(7)
loop_
_geom_bond_atom_site_label_1
_geom_bond_atom_site_label_2
_geom_bond_site_symmetry_1
_geom_bond_site_symmetry_2
S1 C7 1_555 1_555
S2 C6 1_555 1_555
S3 C10 1_555 1_555
S4 C10 1_555 1_555
S5 C12 1_555 1_555
S6 C11 1_555 1_555
C1 C3 1_555 1_555
C2 C4 1_555 1_555
C3 C4 1_555 1_555
C4 C5 1_555 1_555
C5 H1 1_555 1_555
C6 C5 1_555 1_555
C7 C6 1_555 1_555
C8 C3 1_555 1_555
H2 C8 1_555 1_555
C9 S1 1_555 1_555
C10 C9 1_555 1_555
C11 S4 1_555 1_555
C12 S3 1_555 1_555
C13 S5 1_555 1_555
H3 C13 1_555 1_555
H4 C13 1_555 1_555
C14 C13 1_555 1_555
H5 C14 1_555 1_555
H6 C14 1_555 1_555
C15 H7 1_555 1_555
H8 C15 1_555 1_555
C16 C15 1_555 1_555
H9 C16 1_555 1_555
H10 C16 1_555 1_555
C17 H11 1_555 1_555
H12 C17 1_555 1_555
C18 C17 1_555 1_555
H13 C18 1_555 1_555
H14 C18 1_555 1_555
C19 H15 1_555 1_555
H16 C19 1_555 1_555
C20 C19 1_555 1_555
H17 C20 1_555 1_555
H18 C20 1_555 1_555
C21 H19 1_555 1_555
H20 C21 1_555 1_555
C22 S6 1_555 1_555
H21 C22 1_555 1_555
H22 C22 1_555 1_555
N1 C1 1_555 1_555
N2 C2 1_555 1_555
O1 C14 1_555 1_555
O2 C16 1_555 1_555
O3 C18 1_555 1_555
O4 C20 1_555 1_555
S2 C9 1_555 1_555
C7 C8 1_555 1_555
C11 C12 1_555 1_555
C15 O1 1_555 1_555
C17 O2 1_555 1_555
C19 O3 1_555 1_555
C21 C22 1_555 1_555
C21 O4 1_555 1_555

#END
