
#######################################################################
#
#                 Cambridge Crystallographic Data Centre
#                                CCDC 
#
#######################################################################
#
# If this CIF has been generated from an entry in the Cambridge 
# Structural Database, then it will include bibliographic, chemical, 
# crystal, experimental, refinement or atomic coordinate data resulting 
# from the CCDC's data processing and validation procedures.
#
#######################################################################

data_WOMCEH
_chemical_name_common            'C.I. Disperse Red 65'
_chemical_formula_moiety         'C18 H18 Cl1 N5 O2'
_chemical_name_systematic        
3-((4-((2-Chloro-4-nitrophenyl)diazenyl)-3-methylphenyl)(ethyl)amino)propanenitrile
_symmetry_cell_setting           monoclinic
_symmetry_space_group_name_H-M   'C 2/c'
_symmetry_Int_Tables_number      15
_space_group_name_Hall           '-C 2yn'
loop_
_symmetry_equiv_pos_site_id
_symmetry_equiv_pos_as_xyz
1 x,y,z
2 1/2+x,1/2+y,z
3 -x,y,1/2-z
4 1/2-x,1/2+y,1/2-z
5 -x,-y,-z
6 1/2-x,1/2-y,-z
7 x,-y,1/2+z
8 1/2+x,1/2-y,1/2+z
_cell_length_a                   30.412(5)
_cell_length_b                   7.8362(13)
_cell_length_c                   15.399(2)
_cell_angle_alpha                90
_cell_angle_beta                 104.067(3)
_cell_angle_gamma                90
_cell_volume                     3559.76
_exptl_crystal_colour            red
_exptl_crystal_description       plate
_cell_formula_units_Z            8
_exptl_crystal_recrystallization_method 'ethyl acetate'
_exptl_crystal_preparation       dye
loop_
_atom_site_label
_atom_site_type_symbol
_atom_site_fract_x
_atom_site_fract_y
_atom_site_fract_z
Cl1 Cl -0.05967(4) 0.54799(17) 0.16805(7)
O1 O -0.19920(10) 0.3423(4) -0.0739(2)
O2 O -0.18763(10) 0.3935(4) -0.2043(2)
N1 N -0.17566(12) 0.3974(5) -0.1224(3)
N2 N -0.00969(11) 0.7028(4) 0.0494(2)
N3 N 0.01158(11) 0.7825(4) -0.0001(2)
N4 N 0.17575(11) 1.0752(5) 0.1827(2)
N5 N 0.30620(13) 1.2159(5) 0.0739(2)
C1 C -0.13167(13) 0.4753(5) -0.0799(3)
C2 C -0.11840(13) 0.4757(5) 0.0117(3)
H1 H -0.1369 0.4264 0.0466
C3 C -0.07736(14) 0.5498(6) 0.0517(2)
C4 C -0.05047(13) 0.6266(5) 0.0010(2)
C5 C -0.06527(14) 0.6214(5) -0.0922(3)
H2 H -0.0471 0.6711 -0.1277
C6 C -0.10589(14) 0.5452(6) -0.1335(3)
H3 H -0.1158 0.5409 -0.1969
C7 C 0.05182(13) 0.8570(5) 0.0479(3)
C8 C 0.06716(13) 0.8515(5) 0.1416(3)
H4 H 0.0489 0.7969 0.1754
C9 C 0.10723(14) 0.9217(5) 0.1854(3)
H5 H 0.1165 0.9151 0.2488
C10 C 0.13540(13) 1.0046(5) 0.1375(3)
C11 C 0.11989(14) 1.0110(5) 0.0434(3)
H6 H 0.1384 1.0644 0.0098
C12 C 0.07872(13) 0.9423(5) -0.0019(2)
C13 C 0.06379(14) 0.9551(6) -0.1018(2)
H7 H 0.0865 1.0184 -0.1243
H8 H 0.0347 1.0149 -0.1187
H9 H 0.0604 0.8402 -0.1278
C14 C 0.19306(14) 1.0536(6) 0.2791(3)
H10 H 0.2266 1.0589 0.2942
H11 H 0.1842 0.9396 0.2968
C15 C 0.17502(16) 1.1901(6) 0.3321(3)
H12 H 0.1874 1.1711 0.3963
H13 H 0.1419 1.1838 0.3182
H14 H 0.1842 1.3031 0.3157
C16 C 0.20548(13) 1.1677(5) 0.1378(3)
H15 H 0.2231 1.2535 0.1793
H16 H 0.1869 1.2290 0.0853
C17 C 0.23836(13) 1.0461(6) 0.1067(3)
H17 H 0.2499 0.9604 0.1540
H18 H 0.2220 0.9848 0.0522
C18 C 0.27664(14) 1.1401(6) 0.0874(3)
loop_
_geom_bond_atom_site_label_1
_geom_bond_atom_site_label_2
_geom_bond_site_symmetry_1
_geom_bond_site_symmetry_2
Cl1 C3 1_555 1_555
O1 N1 1_555 1_555
O2 N1 1_555 1_555
N1 C1 1_555 1_555
N2 N3 1_555 1_555
N3 C7 1_555 1_555
N4 C10 1_555 1_555
N5 C18 1_555 1_555
C1 C2 1_555 1_555
C2 H1 1_555 1_555
C3 C2 1_555 1_555
C4 N2 1_555 1_555
C5 C4 1_555 1_555
H2 C5 1_555 1_555
C6 C1 1_555 1_555
H3 C6 1_555 1_555
C7 C8 1_555 1_555
C8 H4 1_555 1_555
C9 C8 1_555 1_555
H5 C9 1_555 1_555
C10 C9 1_555 1_555
C11 C10 1_555 1_555
H6 C11 1_555 1_555
C12 C7 1_555 1_555
C13 C12 1_555 1_555
H7 C13 1_555 1_555
H8 C13 1_555 1_555
H9 C13 1_555 1_555
C14 N4 1_555 1_555
H10 C14 1_555 1_555
H11 C14 1_555 1_555
C15 C14 1_555 1_555
H12 C15 1_555 1_555
H13 C15 1_555 1_555
H14 C15 1_555 1_555
C16 N4 1_555 1_555
H15 C16 1_555 1_555
H16 C16 1_555 1_555
C17 C16 1_555 1_555
H17 C17 1_555 1_555
H18 C17 1_555 1_555
C18 C17 1_555 1_555
C3 C4 1_555 1_555
C5 C6 1_555 1_555
C11 C12 1_555 1_555

#END
