
#######################################################################
#
#                 Cambridge Crystallographic Data Centre
#                                CCDC 
#
#######################################################################
#
# If this CIF has been generated from an entry in the Cambridge 
# Structural Database, then it will include bibliographic, chemical, 
# crystal, experimental, refinement or atomic coordinate data resulting 
# from the CCDC's data processing and validation procedures.
#
#######################################################################

data_WOMHOX
_chemical_formula_moiety         'C12 H9 F2 N3 O1'
_chemical_name_systematic        1-(2,4-difluorophenyl)-3-pyridin-3-ylurea
_symmetry_cell_setting           monoclinic
_symmetry_space_group_name_H-M   'P 21/c'
_symmetry_Int_Tables_number      14
_space_group_name_Hall           '-P 2ybc'
loop_
_symmetry_equiv_pos_site_id
_symmetry_equiv_pos_as_xyz
1 x,y,z
2 -x,1/2+y,1/2-z
3 -x,-y,-z
4 x,1/2-y,1/2+z
_cell_length_a                   3.7683(8)
_cell_length_b                   27.238(5)
_cell_length_c                   10.409(2)
_cell_angle_alpha                90
_cell_angle_beta                 97.29(3)
_cell_angle_gamma                90
_cell_volume                     1059.75
_cell_formula_units_Z            4
loop_
_atom_site_label
_atom_site_type_symbol
_atom_site_fract_x
_atom_site_fract_y
_atom_site_fract_z
F1 F 0.7294(6) 0.45899(8) 0.8251(2)
F2 F 0.1003(6) 0.56654(7) 0.52372(18)
O1 O 0.2288(7) 0.68318(9) 0.8825(2)
N1 N -0.1941(8) 0.82071(11) 0.9238(3)
N2 N -0.0816(8) 0.71767(10) 0.7009(2)
H1 H -0.1832 0.7068 0.6162
N3 N 0.1786(7) 0.64274(10) 0.6875(2)
H2 H 0.0748 0.6445 0.6099
C1 C -0.3719(9) 0.85201(13) 0.8409(3)
H3 H -0.4407 0.8822 0.8718
C2 C -0.4587(9) 0.84136(13) 0.7103(3)
H4 H -0.5822 0.8641 0.6548
C3 C -0.3597(9) 0.79683(12) 0.6640(3)
H5 H -0.4135 0.7892 0.5766
C4 C -0.1773(8) 0.76316(12) 0.7496(3)
C5 C -0.0964(9) 0.77724(13) 0.8791(3)
H6 H 0.0306 0.7555 0.9367
C6 C 0.1173(9) 0.68129(12) 0.7670(3)
C7 C 0.3334(8) 0.59759(12) 0.7294(3)
C8 C 0.5269(9) 0.58836(13) 0.8500(3)
H7 H 0.5669 0.6137 0.9101
C9 C 0.6607(9) 0.54192(13) 0.8817(3)
H8 H 0.7912 0.5361 0.9622
C10 C 0.5990(9) 0.50471(12) 0.7936(3)
C11 C 0.4146(10) 0.51155(13) 0.6721(3)
H9 H 0.3775 0.4861 0.6125
C12 C 0.2883(9) 0.55820(13) 0.6438(3)
loop_
_geom_bond_atom_site_label_1
_geom_bond_atom_site_label_2
_geom_bond_site_symmetry_1
_geom_bond_site_symmetry_2
F1 C10 1_555 1_555
F2 C12 1_555 1_555
O1 C6 1_555 1_555
N1 C1 1_555 1_555
N2 H1 1_555 1_555
N3 H2 1_555 1_555
C1 H3 1_555 1_555
C2 C1 1_555 1_555
H4 C2 1_555 1_555
C3 C2 1_555 1_555
H5 C3 1_555 1_555
C4 N2 1_555 1_555
C5 N1 1_555 1_555
H6 C5 1_555 1_555
C6 N2 1_555 1_555
C7 N3 1_555 1_555
C8 C7 1_555 1_555
H7 C8 1_555 1_555
C9 C8 1_555 1_555
H8 C9 1_555 1_555
C10 C9 1_555 1_555
C11 C10 1_555 1_555
H9 C11 1_555 1_555
C12 C7 1_555 1_555
N3 C6 1_555 1_555
C3 C4 1_555 1_555
C4 C5 1_555 1_555
C11 C12 1_555 1_555

#END
