
#######################################################################
#
#                 Cambridge Crystallographic Data Centre
#                                CCDC 
#
#######################################################################
#
# If this CIF has been generated from an entry in the Cambridge 
# Structural Database, then it will include bibliographic, chemical, 
# crystal, experimental, refinement or atomic coordinate data resulting 
# from the CCDC's data processing and validation procedures.
#
#######################################################################

data_WOPTIG
_chemical_formula_moiety         'C52 H68 N2 O12 S2'
_chemical_name_systematic        
(9,10-bis(2,5-Dimethyl-3-thienyl)phenanthrene-2,7-diyl)bis(1,4,7,10,13-pentaoxa-16-azacyclooctadecan-16-ylmethanone)
_symmetry_cell_setting           triclinic
_symmetry_space_group_name_H-M   'P -1'
_symmetry_Int_Tables_number      2
_space_group_name_Hall           '-P 1'
loop_
_symmetry_equiv_pos_site_id
_symmetry_equiv_pos_as_xyz
1 x,y,z
2 -x,-y,-z
_cell_length_a                   8.8993(6)
_cell_length_b                   12.6608(11)
_cell_length_c                   24.2498(19)
_cell_angle_alpha                99.206(2)
_cell_angle_beta                 99.022(2)
_cell_angle_gamma                96.9600(10)
_cell_volume                     2633.57
_cell_formula_units_Z            2
loop_
_atom_site_label
_atom_site_type_symbol
_atom_site_fract_x
_atom_site_fract_y
_atom_site_fract_z
N1 N 0.7750(4) 0.5738(3) 0.40065(15)
N2 N 1.1286(5) 0.9164(4) 0.89178(17)
O1 O 0.5599(4) 0.6099(3) 0.43440(14)
O2 O 1.3144(5) 0.8147(4) 0.87562(17)
O3 O 1.0464(4) 0.5889(3) 0.33228(17)
O4 O 1.0354(10) 0.6836(6) 0.2320(3)
O5 O 0.7560(12) 0.6360(7) 0.1355(3)
O6 O 0.4827(13) 0.4855(9) 0.1804(4)
O7 O 0.4863(5) 0.4042(4) 0.2831(2)
O8 O 1.2010(5) 1.1201(4) 0.98807(17)
O9 O 1.1430(7) 1.3155(5) 1.0632(3)
O10 O 0.8528(7) 1.3580(4) 1.0023(3)
O11 O 0.6025(8) 1.1763(5) 0.9187(3)
O12 O 0.7732(5) 1.0330(4) 0.86063(18)
S1 S 1.35875(14) 0.85848(10) 0.46546(5)
S2 S 1.52523(19) 1.12322(13) 0.69657(7)
C1 C 0.9296(5) 0.5418(4) 0.4090(2)
H1 H 0.9234 0.4691 0.3878
H2 H 0.9605 0.5393 0.4489
C2 C 1.0541(6) 0.6154(4) 0.3911(2)
H3 H 1.0398 0.6903 0.4014
H4 H 1.1545 0.6069 0.4106
C3 C 1.1779(8) 0.6434(6) 0.3153(3)
H5 H 1.2699 0.6153 0.3299
H6 H 1.1914 0.7203 0.3305
C4 C 1.1531(11) 0.6251(8) 0.2520(4)
H7 H 1.2477 0.6496 0.2396
H8 H 1.1231 0.5486 0.2366
C5 C 1.0192(15) 0.7022(9) 0.1744(5)
H9 H 1.0360 0.6379 0.1498
H10 H 1.0972 0.7613 0.1723
C6 C 0.8658(18) 0.7286(11) 0.1539(5)
H11 H 0.8341 0.7755 0.1843
H12 H 0.8715 0.7677 0.1229
C7 C 0.6617(16) 0.6125(11) 0.1740(5)
H13 H 0.5912 0.6647 0.1782
H14 H 0.7225 0.6125 0.2109
C8 C 0.5734(17) 0.4981(12) 0.1473(6)
H15 H 0.5194 0.4959 0.1091
H16 H 0.6418 0.4440 0.1467
C9 C 0.4537(13) 0.3690(10) 0.1819(4)
H17 H 0.3443 0.3461 0.1790
H18 H 0.4873 0.3282 0.1499
C10 C 0.5375(10) 0.3479(6) 0.2351(3)
H19 H 0.5216 0.2708 0.2353
H20 H 0.6468 0.3709 0.2378
C11 C 0.6004(7) 0.4271(5) 0.3317(2)
H21 H 0.6749 0.3778 0.3276
H22 H 0.5541 0.4153 0.3643
C12 C 0.6837(6) 0.5446(4) 0.3425(2)
H23 H 0.7512 0.5520 0.3151
H24 H 0.6087 0.5934 0.3376
C13 C 1.1764(8) 0.9307(5) 0.9539(2)
H25 H 1.2244 0.8691 0.9627
H26 H 1.0856 0.9313 0.9714
C14 C 1.2865(8) 1.0325(7) 0.9794(3)
H27 H 1.3453 1.0245 1.0153
H28 H 1.3578 1.0468 0.9541
C15 C 1.2992(10) 1.2189(8) 1.0107(4)
H29 H 1.3710 1.2328 0.9855
H30 H 1.3580 1.2146 1.0473
C16 C 1.2080(13) 1.3070(8) 1.0172(4)
H31 H 1.2738 1.3746 1.0185
H32 H 1.1278 1.2966 0.9840
C17 C 1.0768(13) 1.4119(8) 1.0739(4)
H33 H 1.1127 1.4615 1.0505
H34 H 1.1121 1.4462 1.1133
C18 C 0.9086(12) 1.3927(7) 1.0624(4)
H35 H 0.8716 1.3376 1.0826
H36 H 0.8697 1.4587 1.0756
C19 C 0.6985(11) 1.3326(7) 0.9898(4)
H37 H 0.6525 1.3983 0.9951
H38 H 0.6639 1.2876 1.0155
C20 C 0.6480(12) 1.2756(10) 0.9317(4)
H39 H 0.5654 1.3105 0.9151
H40 H 0.7328 1.2901 0.9119
C21 C 0.5542(9) 1.1186(7) 0.8630(4)
H41 H 0.5940 1.1600 0.8367
H42 H 0.4427 1.1078 0.8537
C22 C 0.6102(8) 1.0106(6) 0.8569(3)
H43 H 0.5855 0.9731 0.8870
H44 H 0.5626 0.9659 0.8206
C23 C 0.8520(8) 0.9462(5) 0.8715(3)
H45 H 0.8123 0.8822 0.8427
H46 H 0.8412 0.9291 0.9084
C24 C 1.0168(7) 0.9844(5) 0.8700(2)
H47 H 1.0261 0.9885 0.8310
H48 H 1.0450 1.0571 0.8920
C25 C 0.7001(5) 0.6063(4) 0.44355(19)
C26 C 0.7860(5) 0.6376(3) 0.50346(19)
C27 C 0.9202(5) 0.7118(3) 0.51945(18)
H49 H 0.9664 0.7381 0.4915
C28 C 0.9892(4) 0.7487(3) 0.57778(18)
C29 C 0.9166(5) 0.7092(3) 0.62049(18)
C30 C 0.7811(5) 0.6341(3) 0.6032(2)
H50 H 0.7333 0.6072 0.6306
C31 C 0.7174(5) 0.5995(3) 0.5468(2)
H51 H 0.6272 0.5499 0.5370
C32 C 1.1998(7) 0.8533(5) 0.8576(2)
C33 C 1.1248(5) 0.8223(4) 0.7956(2)
C34 C 1.1885(5) 0.8609(4) 0.75285(19)
H52 H 1.2768 0.9123 0.7625
C35 C 1.1229(5) 0.8242(3) 0.69505(18)
C36 C 0.9883(5) 0.7474(3) 0.68033(19)
C37 C 0.9237(6) 0.7080(4) 0.7246(2)
H53 H 0.8347 0.6573 0.7155
C38 C 0.9902(6) 0.7435(4) 0.7801(2)
H54 H 0.9469 0.7158 0.8083
C39 C 1.1298(4) 0.8279(3) 0.59400(18)
C40 C 1.1925(5) 0.8663(3) 0.64987(18)
C41 C 1.3450(6) 0.6951(4) 0.5320(2)
H55 H 1.4343 0.7092 0.5615
H56 H 1.3684 0.6549 0.4981
H57 H 1.2621 0.6539 0.5439
C42 C 1.2980(5) 0.8011(4) 0.51999(19)
C43 C 1.2065(4) 0.8620(3) 0.54717(17)
C44 C 1.1879(5) 0.9581(4) 0.52441(19)
H58 H 1.1305 1.0091 0.5389
C45 C 1.2618(5) 0.9691(4) 0.47943(19)
C46 C 1.2668(7) 1.0562(5) 0.4447(2)
H59 H 1.1758 1.0432 0.4160
H60 H 1.3560 1.0564 0.4270
H61 H 1.2718 1.1250 0.4688
C47 C 1.2041(8) 1.1166(5) 0.6668(3)
H62 H 1.1297 1.0784 0.6346
H63 H 1.2389 1.1877 0.6604
H64 H 1.1579 1.1225 0.7001
C48 C 1.3385(6) 1.0561(4) 0.6750(2)
C49 C 1.3370(5) 0.9475(4) 0.66756(18)
C50 C 1.4877(5) 0.9204(4) 0.6795(2)
H65 H 1.5071 0.8493 0.6765
C51 C 1.6007(6) 1.0071(5) 0.6957(2)
C52 C 1.7738(6) 1.0085(6) 0.7120(3)
H66 H 1.8052 1.0327 0.7522
H67 H 1.8272 1.0569 0.6924
H68 H 1.7978 0.9369 0.7016
loop_
_geom_bond_atom_site_label_1
_geom_bond_atom_site_label_2
_geom_bond_site_symmetry_1
_geom_bond_site_symmetry_2
N1 C1 1_555 1_555
N2 C13 1_555 1_555
O1 C25 1_555 1_555
O2 C32 1_555 1_555
O3 C2 1_555 1_555
O4 C4 1_555 1_555
O5 C6 1_555 1_555
O6 C8 1_555 1_555
O7 C10 1_555 1_555
O8 C14 1_555 1_555
O9 C16 1_555 1_555
O10 C18 1_555 1_555
O11 C20 1_555 1_555
O12 C22 1_555 1_555
S1 C42 1_555 1_555
S2 C48 1_555 1_555
C1 H1 1_555 1_555
H2 C1 1_555 1_555
C2 C1 1_555 1_555
H3 C2 1_555 1_555
H4 C2 1_555 1_555
C3 O3 1_555 1_555
H5 C3 1_555 1_555
H6 C3 1_555 1_555
C4 C3 1_555 1_555
H7 C4 1_555 1_555
H8 C4 1_555 1_555
C5 O4 1_555 1_555
H9 C5 1_555 1_555
H10 C5 1_555 1_555
C6 C5 1_555 1_555
H11 C6 1_555 1_555
H12 C6 1_555 1_555
C7 O5 1_555 1_555
H13 C7 1_555 1_555
H14 C7 1_555 1_555
C8 C7 1_555 1_555
H15 C8 1_555 1_555
H16 C8 1_555 1_555
C9 O6 1_555 1_555
H17 C9 1_555 1_555
H18 C9 1_555 1_555
C10 C9 1_555 1_555
H19 C10 1_555 1_555
H20 C10 1_555 1_555
C11 O7 1_555 1_555
H21 C11 1_555 1_555
H22 C11 1_555 1_555
C12 N1 1_555 1_555
H23 C12 1_555 1_555
H24 C12 1_555 1_555
C13 H25 1_555 1_555
H26 C13 1_555 1_555
C14 C13 1_555 1_555
H27 C14 1_555 1_555
H28 C14 1_555 1_555
C15 O8 1_555 1_555
H29 C15 1_555 1_555
H30 C15 1_555 1_555
C16 C15 1_555 1_555
H31 C16 1_555 1_555
H32 C16 1_555 1_555
C17 O9 1_555 1_555
H33 C17 1_555 1_555
H34 C17 1_555 1_555
C18 C17 1_555 1_555
H35 C18 1_555 1_555
H36 C18 1_555 1_555
C19 O10 1_555 1_555
H37 C19 1_555 1_555
H38 C19 1_555 1_555
C20 C19 1_555 1_555
H39 C20 1_555 1_555
H40 C20 1_555 1_555
C21 O11 1_555 1_555
H41 C21 1_555 1_555
H42 C21 1_555 1_555
C22 C21 1_555 1_555
H43 C22 1_555 1_555
H44 C22 1_555 1_555
C23 O12 1_555 1_555
H45 C23 1_555 1_555
H46 C23 1_555 1_555
C24 N2 1_555 1_555
H47 C24 1_555 1_555
H48 C24 1_555 1_555
C25 N1 1_555 1_555
C26 C25 1_555 1_555
C27 C26 1_555 1_555
H49 C27 1_555 1_555
C28 C27 1_555 1_555
C29 C28 1_555 1_555
C30 C29 1_555 1_555
H50 C30 1_555 1_555
C31 C26 1_555 1_555
H51 C31 1_555 1_555
C32 N2 1_555 1_555
C33 C32 1_555 1_555
C34 C33 1_555 1_555
H52 C34 1_555 1_555
C35 C34 1_555 1_555
C36 C29 1_555 1_555
C37 C36 1_555 1_555
H53 C37 1_555 1_555
C38 C33 1_555 1_555
H54 C38 1_555 1_555
C39 C28 1_555 1_555
C40 C35 1_555 1_555
C41 H55 1_555 1_555
H56 C41 1_555 1_555
H57 C41 1_555 1_555
C42 C41 1_555 1_555
C43 C39 1_555 1_555
C44 C43 1_555 1_555
H58 C44 1_555 1_555
C45 S1 1_555 1_555
C46 C45 1_555 1_555
H59 C46 1_555 1_555
H60 C46 1_555 1_555
H61 C46 1_555 1_555
C47 H62 1_555 1_555
H63 C47 1_555 1_555
H64 C47 1_555 1_555
C48 C47 1_555 1_555
C49 C40 1_555 1_555
C50 C49 1_555 1_555
H65 C50 1_555 1_555
C51 S2 1_555 1_555
C52 C51 1_555 1_555
H66 C52 1_555 1_555
H67 C52 1_555 1_555
H68 C52 1_555 1_555
C11 C12 1_555 1_555
C23 C24 1_555 1_555
C30 C31 1_555 1_555
C35 C36 1_555 1_555
C37 C38 1_555 1_555
C39 C40 1_555 1_555
C42 C43 1_555 1_555
C44 C45 1_555 1_555
C48 C49 1_555 1_555
C50 C51 1_555 1_555

#END
