
#######################################################################
#
#                 Cambridge Crystallographic Data Centre
#                                CCDC 
#
#######################################################################
#
# If this CIF has been generated from an entry in the Cambridge 
# Structural Database, then it will include bibliographic, chemical, 
# crystal, experimental, refinement or atomic coordinate data resulting 
# from the CCDC's data processing and validation procedures.
#
#######################################################################

data_WOPZIM
_chemical_formula_moiety         'C56 H72 O11'
_chemical_name_systematic        
4-((10-ethoxydecyl)oxy)-9,14,19,24,26,28,30,32,34-nonamethoxyhexacyclo[21.2.2.2^3,6^.2^8,11^.2^13,16^.2^18,21^]pentatriaconta-1(25),3,5,8,10,13,15,18,20,23,26,28,30,32,34-pentadecaene
_symmetry_cell_setting           orthorhombic
_symmetry_space_group_name_H-M   'P n a 21'
_symmetry_Int_Tables_number      33
_space_group_name_Hall           'P 2c -2n'
loop_
_symmetry_equiv_pos_site_id
_symmetry_equiv_pos_as_xyz
1 x,y,z
2 -x,-y,1/2+z
3 1/2-x,1/2+y,1/2+z
4 1/2+x,1/2-y,z
_cell_length_a                   35.6715(5)
_cell_length_b                   12.04830(14)
_cell_length_c                   11.93243(15)
_cell_angle_alpha                90
_cell_angle_beta                 90
_cell_angle_gamma                90
_cell_volume                     5128.33
_exptl_crystal_colour            colorless
_exptl_crystal_description       block
_cell_formula_units_Z            4
loop_
_atom_site_label
_atom_site_type_symbol
_atom_site_fract_x
_atom_site_fract_y
_atom_site_fract_z
O1 O 0.96308(6) 0.29722(15) 0.37259(16)
O2 O 1.00091(6) 0.19202(14) -0.06403(17)
O3 O 0.84275(7) 0.5334(2) 0.3614(2)
O4 O 0.95040(5) 0.57423(15) 0.02993(17)
O5 O 0.74470(6) 0.27299(16) 0.22198(19)
O6 O 0.81224(5) 0.56871(15) -0.07005(18)
O7 O 0.80301(5) -0.10991(14) 0.10347(17)
O8 O 0.76865(5) 0.20430(16) -0.21763(17)
O9 O 0.93315(5) -0.08518(15) 0.20872(16)
O10 O 0.89665(6) -0.04047(18) -0.23856(17)
O11 O 0.84491(6) 0.10277(19) 1.3403(2)
C1 C 0.98635(7) 0.01423(19) 0.0753(2)
H1 H 1.0060 0.0092 0.0169
H2 H 0.9940 -0.0340 0.1385
C2 C 0.87769(10) 0.2448(2) 0.9700(3)
H3 H 0.8913 0.1740 0.9593
H4 H 0.8517 0.2335 0.9436
C3 C 0.97197(7) 0.26700(19) 0.2643(2)
C4 C 0.97460(7) 0.15791(18) 0.2266(2)
H5 H 0.9701 0.0988 0.2775
C5 C 0.98370(6) 0.13350(19) 0.1162(2)
C6 C 0.99092(7) 0.2215(2) 0.0427(2)
C7 C 0.98814(7) 0.33093(19) 0.0802(2)
H6 H 0.9931 0.3900 0.0297
C8 C 0.97827(6) 0.35510(19) 0.1902(2)
C9 C 0.96593(8) 0.2137(2) 0.4568(3)
H7 H 0.9904 0.1754 0.4509
H8 H 0.9458 0.1580 0.4468
C10 C 0.97369(7) 0.47456(19) 0.2282(3)
H9 H 0.9805 0.4802 0.3085
H10 H 0.9912 0.5222 0.1853
C11 C 0.96231(9) 0.2686(3) 0.5705(3)
H11 H 0.9846 0.3158 0.5838
H12 H 0.9619 0.2105 0.6292
C12 C 0.92718(11) 0.3395(3) 0.5814(3)
H13 H 0.9055 0.2960 0.5538
H14 H 0.9299 0.4050 0.5319
C13 C 0.90315(11) 0.2918(3) 0.7783(3)
H15 H 0.9213 0.2298 0.7809
H16 H 0.8795 0.2626 0.7464
C14 C 0.89564(9) 0.3309(3) 0.8977(3)
H17 H 0.9197 0.3537 0.9323
H18 H 0.8792 0.3970 0.8951
C15 C 0.91824(11) 0.3805(3) 0.7007(3)
H19 H 0.9414 0.4118 0.7340
H20 H 0.8996 0.4412 0.6957
C16 C 0.87657(8) 0.2702(2) 1.0932(3)
H21 H 0.8631 0.3411 1.1045
H22 H 0.9026 0.2804 1.1205
C17 C 0.85791(9) 0.1817(2) 1.1622(3)
H23 H 0.8307 0.1831 1.1463
H24 H 0.8676 0.1085 1.1379
C18 C 0.86341(9) 0.1919(3) 1.2848(3)
H25 H 0.8905 0.1902 1.3025
H26 H 0.8531 0.2636 1.3112
C19 C 0.85201(11) 0.0972(4) 1.4548(3)
H27 H 0.8420 0.1641 1.4924
H28 H 0.8794 0.0942 1.4682
C20 C 0.83353(12) -0.0056(4) 1.5021(3)
H29 H 0.8451 -0.0718 1.4691
H30 H 0.8067 -0.0046 1.4841
H31 H 0.8368 -0.0071 1.5836
C21 C 1.01120(10) 0.2787(3) -0.1384(3)
H32 H 1.0183 0.2470 -0.2110
H33 H 1.0325 0.3197 -0.1070
H34 H 0.9899 0.3292 -0.1485
C22 C 0.87068(8) 0.5413(2) 0.2812(2)
C23 C 0.90735(8) 0.5066(2) 0.2971(2)
H35 H 0.9144 0.4755 0.3671
C24 C 0.93408(7) 0.51647(18) 0.2120(2)
C25 C 0.92293(7) 0.56447(19) 0.1103(2)
C26 C 0.88614(7) 0.59754(18) 0.0947(2)
H36 H 0.8790 0.6292 0.0250
C27 C 0.85948(7) 0.58573(18) 0.1781(2)
C28 C 0.85144(13) 0.5001(5) 0.4683(4)
H37 H 0.8612 0.4242 0.4664
H38 H 0.8288 0.5025 0.5149
H39 H 0.8704 0.5499 0.4997
C29 C 0.94132(8) 0.6344(2) -0.0687(3)
H40 H 0.9639 0.6435 -0.1146
H41 H 0.9315 0.7076 -0.0481
H42 H 0.9223 0.5937 -0.1114
C30 C 0.81875(7) 0.61502(19) 0.1571(3)
H43 H 0.8073 0.6418 0.2276
H44 H 0.8173 0.6758 0.1014
C31 C 0.76089(7) 0.3487(2) 0.1512(2)
C32 C 0.78052(7) 0.4419(2) 0.1888(2)
H45 H 0.7826 0.4551 0.2670
C33 C 0.79704(7) 0.51574(19) 0.1144(2)
C34 C 0.79413(7) 0.4950(2) 0.0005(2)
C35 C 0.77383(7) 0.4039(2) -0.0381(2)
H46 H 0.7715 0.3916 -0.1165
C36 C 0.75688(6) 0.33018(19) 0.0373(2)
C37 C 0.75669(9) 0.2718(3) 0.3354(3)
H47 H 0.7839 0.2605 0.3383
H48 H 0.7441 0.2114 0.3754
H49 H 0.7504 0.3428 0.3708
C38 C 0.81163(10) 0.5460(3) -0.1867(3)
H50 H 0.8270 0.6010 -0.2262
H51 H 0.7858 0.5498 -0.2141
H52 H 0.8217 0.4716 -0.2003
C39 C 0.73523(7) 0.2309(2) -0.0076(3)
H53 H 0.7167 0.2067 0.0490
H54 H 0.7214 0.2532 -0.0759
C40 C 0.79460(7) -0.02940(19) 0.0259(2)
C41 C 0.76927(7) 0.0563(2) 0.0463(2)
H55 H 0.7574 0.0611 0.1174
C42 C 0.76111(6) 0.13490(19) -0.0354(2)
C43 C 0.77841(7) 0.1249(2) -0.1391(2)
C44 C 0.80380(7) 0.0395(2) -0.1596(2)
H56 H 0.8154 0.0340 -0.2311
C45 C 0.81245(6) -0.03789(18) -0.0771(2)
C46 C 0.79125(9) -0.0925(2) 0.2149(3)
H57 H 0.7638 -0.0953 0.2185
H58 H 0.7999 -0.0196 0.2405
H59 H 0.8018 -0.1504 0.2631
C47 C 0.78381(9) 0.1935(3) -0.3268(3)
H60 H 0.7728 0.2500 -0.3759
H61 H 0.7780 0.1195 -0.3563
H62 H 0.8111 0.2034 -0.3238
C48 C 0.84090(7) -0.1287(2) -0.0992(2)
H63 H 0.8326 -0.1980 -0.0620
H64 H 0.8423 -0.1431 -0.1808
C49 C 0.92291(7) -0.07551(19) 0.0980(2)
C50 C 0.88853(7) -0.10993(18) 0.0560(2)
H65 H 0.8708 -0.1428 0.1054
C51 C 0.87945(6) -0.09747(18) -0.0564(2)
C52 C 0.90641(7) -0.0517(2) -0.1276(2)
C53 C 0.94107(7) -0.01809(19) -0.0854(2)
H66 H 0.9592 0.0120 -0.1350
C54 C 0.94956(7) -0.02775(18) 0.0275(2)
C55 C 0.90620(9) -0.1310(3) 0.2837(3)
H67 H 0.9004 -0.2074 0.2611
H68 H 0.8833 -0.0863 0.2815
H69 H 0.9164 -0.1310 0.3600
C56 C 0.92372(13) -0.0347(8) -0.3156(4)
H70 H 0.9125 -0.0329 -0.3905
H71 H 0.9401 -0.0997 -0.3090
H72 H 0.9385 0.0329 -0.3038
loop_
_geom_bond_atom_site_label_1
_geom_bond_atom_site_label_2
_geom_bond_site_symmetry_1
_geom_bond_site_symmetry_2
O1 C3 1_555 1_555
O2 C6 1_555 1_555
O3 C22 1_555 1_555
O4 C25 1_555 1_555
O5 C31 1_555 1_555
O6 C34 1_555 1_555
O7 C40 1_555 1_555
O8 C43 1_555 1_555
O9 C49 1_555 1_555
O10 C52 1_555 1_555
O11 C18 1_555 1_555
C1 H1 1_555 1_555
H2 C1 1_555 1_555
C2 H3 1_555 1_555
H4 C2 1_555 1_555
C3 C4 1_555 1_555
C4 H5 1_555 1_555
C5 C1 1_555 1_555
C6 C5 1_555 1_555
C7 C6 1_555 1_555
H6 C7 1_555 1_555
C8 C3 1_555 1_555
C9 O1 1_555 1_555
H7 C9 1_555 1_555
H8 C9 1_555 1_555
C10 C8 1_555 1_555
H9 C10 1_555 1_555
H10 C10 1_555 1_555
C11 C9 1_555 1_555
H11 C11 1_555 1_555
H12 C11 1_555 1_555
C12 C11 1_555 1_555
H13 C12 1_555 1_555
H14 C12 1_555 1_555
C13 H15 1_555 1_555
H16 C13 1_555 1_555
C14 C2 1_555 1_555
H17 C14 1_555 1_555
H18 C14 1_555 1_555
C15 C12 1_555 1_555
H19 C15 1_555 1_555
H20 C15 1_555 1_555
C16 C2 1_555 1_555
H21 C16 1_555 1_555
H22 C16 1_555 1_555
C17 C16 1_555 1_555
H23 C17 1_555 1_555
H24 C17 1_555 1_555
C18 C17 1_555 1_555
H25 C18 1_555 1_555
H26 C18 1_555 1_555
C19 O11 1_555 1_555
H27 C19 1_555 1_555
H28 C19 1_555 1_555
C20 C19 1_555 1_555
H29 C20 1_555 1_555
H30 C20 1_555 1_555
H31 C20 1_555 1_555
C21 O2 1_555 1_555
H32 C21 1_555 1_555
H33 C21 1_555 1_555
H34 C21 1_555 1_555
C22 C23 1_555 1_555
C23 H35 1_555 1_555
C24 C10 1_555 1_555
C25 C24 1_555 1_555
C26 C25 1_555 1_555
H36 C26 1_555 1_555
C27 C22 1_555 1_555
C28 O3 1_555 1_555
H37 C28 1_555 1_555
H38 C28 1_555 1_555
H39 C28 1_555 1_555
C29 O4 1_555 1_555
H40 C29 1_555 1_555
H41 C29 1_555 1_555
H42 C29 1_555 1_555
C30 C27 1_555 1_555
H43 C30 1_555 1_555
H44 C30 1_555 1_555
C31 C32 1_555 1_555
C32 H45 1_555 1_555
C33 C30 1_555 1_555
C34 C33 1_555 1_555
C35 C34 1_555 1_555
H46 C35 1_555 1_555
C36 C31 1_555 1_555
C37 O5 1_555 1_555
H47 C37 1_555 1_555
H48 C37 1_555 1_555
H49 C37 1_555 1_555
C38 O6 1_555 1_555
H50 C38 1_555 1_555
H51 C38 1_555 1_555
H52 C38 1_555 1_555
C39 C36 1_555 1_555
H53 C39 1_555 1_555
H54 C39 1_555 1_555
C40 C41 1_555 1_555
C41 H55 1_555 1_555
C42 C39 1_555 1_555
C43 C42 1_555 1_555
C44 C43 1_555 1_555
H56 C44 1_555 1_555
C45 C40 1_555 1_555
C46 O7 1_555 1_555
H57 C46 1_555 1_555
H58 C46 1_555 1_555
H59 C46 1_555 1_555
C47 O8 1_555 1_555
H60 C47 1_555 1_555
H61 C47 1_555 1_555
H62 C47 1_555 1_555
C48 C45 1_555 1_555
H63 C48 1_555 1_555
H64 C48 1_555 1_555
C49 C50 1_555 1_555
C50 H65 1_555 1_555
C51 C48 1_555 1_555
C52 C51 1_555 1_555
C53 C52 1_555 1_555
H66 C53 1_555 1_555
C54 C1 1_555 1_555
C55 O9 1_555 1_555
H67 C55 1_555 1_555
H68 C55 1_555 1_555
H69 C55 1_555 1_555
C56 O10 1_555 1_555
H70 C56 1_555 1_555
H71 C56 1_555 1_555
H72 C56 1_555 1_555
C4 C5 1_555 1_555
C7 C8 1_555 1_555
C13 C14 1_555 1_555
C13 C15 1_555 1_555
C23 C24 1_555 1_555
C26 C27 1_555 1_555
C32 C33 1_555 1_555
C35 C36 1_555 1_555
C41 C42 1_555 1_555
C44 C45 1_555 1_555
C49 C54 1_555 1_555
C50 C51 1_555 1_555
C53 C54 1_555 1_555

#END
