
#######################################################################
#
#                 Cambridge Crystallographic Data Centre
#                                CCDC 
#
#######################################################################
#
# If this CIF has been generated from an entry in the Cambridge 
# Structural Database, then it will include bibliographic, chemical, 
# crystal, experimental, refinement or atomic coordinate data resulting 
# from the CCDC's data processing and validation procedures.
#
#######################################################################

data_WOQGEQ
_chemical_name_common            
'5,11,17,23,29,31,32,33,34,35-deca(trifluoromethanesulfonato)calix(5)arene dichloromethane solvate'
_chemical_formula_moiety         'C45 H20 F30 O30 S10,C1 H2 Cl2'
_chemical_name_systematic        
'hexacyclo[21.2.2.2^3,6^.2^8,11^.2^13,16^.2^18,21^]pentatriaconta-1(25),3,5,8,10,13,15,18,20,23,26,28,30,32,34-pentadecaene-4,9,14,19,24,26,28,30,32,34-decayl decakis(trifluoromethanesulfonate) dichloromethane solvate'
_symmetry_cell_setting           orthorhombic
_symmetry_space_group_name_H-M   'P b c a'
_symmetry_Int_Tables_number      61
_space_group_name_Hall           '-P 2ac 2ab'
loop_
_symmetry_equiv_pos_site_id
_symmetry_equiv_pos_as_xyz
1 x,y,z
2 1/2-x,-y,1/2+z
3 1/2+x,1/2-y,-z
4 -x,1/2+y,1/2-z
5 -x,-y,-z
6 1/2+x,y,1/2-z
7 1/2-x,1/2+y,z
8 x,1/2-y,1/2+z
_cell_length_a                   28.1706(13)
_cell_length_b                   21.6600(11)
_cell_length_c                   23.6814(11)
_cell_angle_alpha                90
_cell_angle_beta                 90
_cell_angle_gamma                90
_cell_volume                     14449.8
_exptl_crystal_colour            colorless
_cell_formula_units_Z            8
_exptl_crystal_recrystallization_method 'Vapour Deposition'
_exptl_crystal_preparation       Luminescent
loop_
_atom_site_label
_atom_site_type_symbol
_atom_site_fract_x
_atom_site_fract_y
_atom_site_fract_z
C1 C 0.3417(4) 0.5175(5) 0.0569(4)
C2 C 0.3784(2) 0.4690(3) 0.2680(3)
H1 H 0.3708 0.4823 0.3060
H2 H 0.3824 0.5056 0.2449
C3 C 0.3372(2) 0.4316(3) 0.2449(3)
C4 C 0.3279(2) 0.4248(3) 0.1877(3)
C5 C 0.2919(2) 0.3878(3) 0.1667(3)
H3 H 0.2878 0.3840 0.1279
C6 C 0.2622(2) 0.3563(3) 0.2033(3)
C7 C 0.2699(2) 0.3662(3) 0.2598(3)
C8 C 0.3064(2) 0.4016(3) 0.2815(3)
H4 H 0.3102 0.4053 0.3204
C9 C 0.2025(3) 0.3736(4) 0.3942(4)
C10 C 0.2239(2) 0.3135(3) 0.1811(3)
H5 H 0.2193 0.3207 0.1411
H6 H 0.1942 0.3220 0.2002
C11 C 0.3098(4) 0.2045(4) 0.0138(4)
C12 C 0.2379(2) 0.2461(3) 0.1907(3)
C13 C 0.2711(2) 0.2161(3) 0.1575(3)
C14 C 0.2874(2) 0.1579(3) 0.1678(3)
H7 H 0.3102 0.1408 0.1443
C15 C 0.2701(2) 0.1242(3) 0.2131(3)
C16 C 0.2357(2) 0.1530(3) 0.2451(3)
C17 C 0.2190(2) 0.2117(3) 0.2346(3)
H8 H 0.1950 0.2282 0.2570
C18 C 0.2242(4) 0.0715(5) 0.3878(4)
C19 C 0.2892(2) 0.0599(3) 0.2256(3)
H9 H 0.2727 0.0429 0.2580
H10 H 0.2832 0.0332 0.1935
C20 C 0.3277(4) -0.0404(4) 0.0664(4)
C21 C 0.3764(2) 0.0442(3) 0.1992(3)
C22 C 0.4241(2) 0.0456(3) 0.2098(3)
H11 H 0.4454 0.0327 0.1822
C23 C 0.4409(2) 0.0663(3) 0.2614(3)
C24 C 0.4065(2) 0.0860(3) 0.2989(3)
C25 C 0.3586(2) 0.0842(3) 0.2887(3)
H12 H 0.3374 0.0979 0.3160
C26 C 0.3421(2) 0.0618(3) 0.2374(3)
C27 C 0.3950(4) 0.1562(5) 0.4442(4)
C28 C 0.4934(2) 0.0692(3) 0.2741(3)
H13 H 0.5104 0.0449 0.2462
H14 H 0.4992 0.0508 0.3108
C29 C 0.5583(4) 0.1556(4) 0.0825(4)
C30 C 0.5126(2) 0.1345(3) 0.2738(3)
C31 C 0.5186(2) 0.1684(3) 0.2253(3)
C32 C 0.5340(2) 0.2291(3) 0.2238(3)
H15 H 0.5375 0.2491 0.1893
C33 C 0.5443(2) 0.2596(3) 0.2732(3)
C34 C 0.5392(2) 0.2256(3) 0.3224(3)
C35 C 0.5243(2) 0.1652(3) 0.3235(3)
H16 H 0.5221 0.1446 0.3578
C36 C 0.5872(3) 0.2041(3) 0.4623(3)
C37 C 0.5566(2) 0.3274(3) 0.2724(3)
H17 H 0.5762 0.3363 0.2397
H18 H 0.5748 0.3377 0.3059
C38 C 0.5014(3) 0.4148(4) 0.0729(4)
C39 C 0.5124(2) 0.3667(3) 0.2704(3)
C40 C 0.4883(2) 0.3810(3) 0.2214(3)
C41 C 0.4464(2) 0.4136(3) 0.2201(3)
H19 H 0.4322 0.4224 0.1856
C42 C 0.4252(2) 0.4333(3) 0.2691(3)
C43 C 0.4489(2) 0.4197(3) 0.3187(3)
C44 C 0.4915(2) 0.3881(3) 0.3203(3)
H20 H 0.5064 0.3810 0.3547
C45 C 0.4420(4) 0.4221(6) 0.4750(4)
F1 F 0.3091(2) 0.4765(3) 0.0463(2)
F2 F 0.3281(3) 0.5725(3) 0.0386(3)
F3 F 0.3809(2) 0.5016(3) 0.0329(2)
F4 F 0.2032(2) 0.3186(3) 0.4158(2)
F5 F 0.24390(17) 0.4003(2) 0.40441(19)
F6 F 0.1689(2) 0.4065(3) 0.4171(2)
F7 F 0.3046(3) 0.1471(3) 0.0299(3)
F8 F 0.3008(2) 0.2088(3) -0.0406(2)
F9 F 0.3536(2) 0.2204(3) 0.0223(3)
F10 F 0.2593(3) 0.0378(3) 0.3693(3)
F11 F 0.2313(3) 0.0807(3) 0.4420(3)
F12 F 0.1850(3) 0.0418(3) 0.3813(3)
F13 F 0.3286(3) -0.0925(3) 0.0405(3)
F14 F 0.2850(2) -0.0307(4) 0.0868(3)
F15 F 0.3357(2) 0.0039(3) 0.0320(2)
F16 F 0.3573(2) 0.1768(3) 0.4197(3)
F17 F 0.3860(2) 0.1429(3) 0.4978(2)
F18 F 0.4288(3) 0.1969(2) 0.4417(3)
F19 F 0.58079(19) 0.2019(2) 0.1044(2)
F20 F 0.5855(3) 0.1266(3) 0.0468(3)
F21 F 0.5198(2) 0.1754(3) 0.0570(2)
F22 F 0.5768(2) 0.1483(2) 0.4454(2)
F23 F 0.5511(2) 0.2250(3) 0.4906(2)
F24 F 0.62425(19) 0.2032(3) 0.4948(2)
F25 F 0.47054(18) 0.4562(3) 0.0896(2)
F26 F 0.52654(18) 0.4374(2) 0.03172(19)
F27 F 0.47923(19) 0.3656(3) 0.0552(2)
F28 F 0.4341(3) 0.4819(4) 0.4834(3)
F29 F 0.4857(2) 0.4128(4) 0.4663(3)
F30 F 0.4273(2) 0.3905(4) 0.5193(2)
O1 O 0.3084(2) 0.5462(3) 0.1579(3)
O2 O 0.3946(2) 0.5552(2) 0.1400(2)
O3 O 0.35850(16) 0.45478(19) 0.14785(19)
O4 O 0.23940(16) 0.3362(2) 0.29940(19)
O5 O 0.15460(17) 0.3280(3) 0.3100(2)
O6 O 0.19110(19) 0.4307(2) 0.2978(2)
O7 O 0.29288(16) 0.2507(2) 0.1127(2)
O8 O 0.2252(2) 0.2273(4) 0.0519(2)
O9 O 0.2789(2) 0.3147(3) 0.0324(2)
O10 O 0.21476(18) 0.1194(2) 0.2912(2)
O11 O 0.2681(2) 0.1723(3) 0.3573(3)
O12 O 0.1816(3) 0.1768(3) 0.3712(3)
O13 O 0.36076(17) 0.0269(2) 0.1438(2)
O14 O 0.4161(2) -0.0482(3) 0.1005(3)
O15 O 0.3545(3) -0.0827(2) 0.1653(2)
O16 O 0.42398(18) 0.1117(2) 0.3504(2)
O17 O 0.3756(2) 0.0429(3) 0.4101(2)
O18 O 0.4580(2) 0.0690(3) 0.4348(2)
O19 O 0.50457(17) 0.1408(2) 0.17286(19)
O20 O 0.5809(2) 0.0861(2) 0.1695(2)
O21 O 0.5123(2) 0.0556(2) 0.1099(2)
O22 O 0.54773(17) 0.2556(2) 0.37484(19)
O23 O 0.6071(3) 0.3126(3) 0.4248(3)
O24 O 0.6310(2) 0.2226(4) 0.3658(3)
O25 O 0.50585(15) 0.35626(19) 0.16957(18)
O26 O 0.5559(2) 0.4476(2) 0.1579(2)
O27 O 0.57241(18) 0.3506(3) 0.1075(2)
O28 O 0.42904(17) 0.4412(2) 0.37005(19)
O29 O 0.4189(3) 0.3353(3) 0.4029(3)
O30 O 0.3604(2) 0.4138(3) 0.4255(2)
S1 S 0.35071(7) 0.52506(8) 0.13333(8)
S2 S 0.19202(6) 0.37003(9) 0.31827(8)
S3 S 0.26985(8) 0.25413(10) 0.05236(9)
S4 S 0.22280(8) 0.14537(10) 0.35271(9)
S5 S 0.36899(8) -0.04182(8) 0.12459(8)
S6 S 0.41411(8) 0.08431(9) 0.41041(8)
S7 S 0.54034(8) 0.10041(8) 0.13733(9)
S8 S 0.59918(8) 0.25379(11) 0.40174(9)
S9 S 0.54086(6) 0.39371(8) 0.13076(7)
S10 S 0.40682(7) 0.39587(9) 0.41471(9)
C46 C 0.3662(4) 0.2763(7) 0.2331(3)
H21 H 0.3365 0.2539 0.2365
H22 H 0.3606 0.3202 0.2284
Cl1 Cl 0.40391(15) 0.2460(3) 0.1850(2)
Cl2 Cl 0.4063(2) 0.2591(3) 0.2842(3)
Cl3? Cl 0.34717(16) 0.2448(2) 0.2944(2)
loop_
_geom_bond_atom_site_label_1
_geom_bond_atom_site_label_2
_geom_bond_site_symmetry_1
_geom_bond_site_symmetry_2
C1 F1 1_555 1_555
C2 H1 1_555 1_555
H2 C2 1_555 1_555
C3 C2 1_555 1_555
C4 C3 1_555 1_555
C5 C4 1_555 1_555
H3 C5 1_555 1_555
C6 C5 1_555 1_555
C7 C6 1_555 1_555
C8 C3 1_555 1_555
H4 C8 1_555 1_555
C9 F4 1_555 1_555
C10 C6 1_555 1_555
H5 C10 1_555 1_555
H6 C10 1_555 1_555
C11 F7 1_555 1_555
C12 C10 1_555 1_555
C13 C12 1_555 1_555
C14 C13 1_555 1_555
H7 C14 1_555 1_555
C15 C14 1_555 1_555
C16 C15 1_555 1_555
C17 C12 1_555 1_555
H8 C17 1_555 1_555
C18 F10 1_555 1_555
C19 C15 1_555 1_555
H9 C19 1_555 1_555
H10 C19 1_555 1_555
C20 F13 1_555 1_555
C21 C22 1_555 1_555
C22 H11 1_555 1_555
C23 C22 1_555 1_555
C24 C23 1_555 1_555
C25 C24 1_555 1_555
H12 C25 1_555 1_555
C26 C19 1_555 1_555
C27 F16 1_555 1_555
C28 C23 1_555 1_555
H13 C28 1_555 1_555
H14 C28 1_555 1_555
C29 F19 1_555 1_555
C30 C28 1_555 1_555
C31 C30 1_555 1_555
C32 C31 1_555 1_555
H15 C32 1_555 1_555
C33 C32 1_555 1_555
C34 C33 1_555 1_555
C35 C30 1_555 1_555
H16 C35 1_555 1_555
C36 F22 1_555 1_555
C37 C33 1_555 1_555
H17 C37 1_555 1_555
H18 C37 1_555 1_555
C38 F25 1_555 1_555
C39 C37 1_555 1_555
C40 C39 1_555 1_555
C41 C40 1_555 1_555
H19 C41 1_555 1_555
C42 C2 1_555 1_555
C43 C42 1_555 1_555
C44 C39 1_555 1_555
H20 C44 1_555 1_555
C45 F28 1_555 1_555
F2 C1 1_555 1_555
F3 C1 1_555 1_555
F5 C9 1_555 1_555
F6 C9 1_555 1_555
F8 C11 1_555 1_555
F9 C11 1_555 1_555
F11 C18 1_555 1_555
F12 C18 1_555 1_555
F14 C20 1_555 1_555
F15 C20 1_555 1_555
F17 C27 1_555 1_555
F18 C27 1_555 1_555
F20 C29 1_555 1_555
F21 C29 1_555 1_555
F23 C36 1_555 1_555
F24 C36 1_555 1_555
F26 C38 1_555 1_555
F27 C38 1_555 1_555
F29 C45 1_555 1_555
F30 C45 1_555 1_555
O1 S1 1_555 1_555
O2 S1 1_555 1_555
O3 C4 1_555 1_555
O4 C7 1_555 1_555
O5 S2 1_555 1_555
O6 S2 1_555 1_555
O7 C13 1_555 1_555
O8 S3 1_555 1_555
O9 S3 1_555 1_555
O10 C16 1_555 1_555
O11 S4 1_555 1_555
O12 S4 1_555 1_555
O13 C21 1_555 1_555
O14 S5 1_555 1_555
O15 S5 1_555 1_555
O16 C24 1_555 1_555
O17 S6 1_555 1_555
O18 S6 1_555 1_555
O19 C31 1_555 1_555
O20 S7 1_555 1_555
O21 S7 1_555 1_555
O22 C34 1_555 1_555
O23 S8 1_555 1_555
O24 S8 1_555 1_555
O25 C40 1_555 1_555
O26 S9 1_555 1_555
O27 S9 1_555 1_555
O28 C43 1_555 1_555
O29 S10 1_555 1_555
O30 S10 1_555 1_555
S1 C1 1_555 1_555
S2 C9 1_555 1_555
S3 C11 1_555 1_555
S4 C18 1_555 1_555
S5 C20 1_555 1_555
S6 C27 1_555 1_555
S7 C29 1_555 1_555
S8 C36 1_555 1_555
S9 C38 1_555 1_555
S10 C45 1_555 1_555
C46 H21 1_555 1_555
H22 C46 1_555 1_555
Cl1 C46 1_555 1_555
Cl2 C46 1_555 1_555
C7 C8 1_555 1_555
C16 C17 1_555 1_555
C21 C26 1_555 1_555
C25 C26 1_555 1_555
C34 C35 1_555 1_555
C41 C42 1_555 1_555
C43 C44 1_555 1_555
O3 S1 1_555 1_555
O4 S2 1_555 1_555
O7 S3 1_555 1_555
O10 S4 1_555 1_555
O13 S5 1_555 1_555
O16 S6 1_555 1_555
O19 S7 1_555 1_555
O22 S8 1_555 1_555
O25 S9 1_555 1_555
O28 S10 1_555 1_555

#END
