
#######################################################################
#
#                 Cambridge Crystallographic Data Centre
#                                CCDC 
#
#######################################################################
#
# If this CIF has been generated from an entry in the Cambridge 
# Structural Database, then it will include bibliographic, chemical, 
# crystal, experimental, refinement or atomic coordinate data resulting 
# from the CCDC's data processing and validation procedures.
#
#######################################################################

data_WOQQUQ
_chemical_formula_moiety         'C13 H11 Cl1 N1 1+,C1 H4 O1,Cl1 1-'
_chemical_name_systematic        
'4-(2-(4-Chlorophenyl)ethenyl)pyridium chloride methanol solvate'
_symmetry_cell_setting           monoclinic
_symmetry_space_group_name_H-M   'P 21/m'
_symmetry_Int_Tables_number      11
_space_group_name_Hall           '-P 2yb'
loop_
_symmetry_equiv_pos_site_id
_symmetry_equiv_pos_as_xyz
1 x,y,z
2 -x,1/2+y,-z
3 -x,-y,-z
4 x,1/2-y,z
_cell_length_a                   4.7973(5)
_cell_length_b                   8.5668(8)
_cell_length_c                   17.3529(18)
_cell_angle_alpha                90
_cell_angle_beta                 90.321(2)
_cell_angle_gamma                90
_cell_volume                     713.15
_exptl_crystal_colour            yellow
_exptl_crystal_description       Plate
_cell_formula_units_Z            2
loop_
_atom_site_label
_atom_site_type_symbol
_atom_site_fract_x
_atom_site_fract_y
_atom_site_fract_z
Cl2 Cl 0.91117(17) 0.7500 0.42239(4)
C10 C 0.1990(10) 0.7500 0.2214(3)
O1 O -0.0726(8) 0.7500 0.2429(2)
Cl1 Cl 0.9027(2) 0.7500 1.01905(5)
N1 N -0.6757(5) 0.7500 0.55495(14)
H1 H -0.8056 0.7500 0.5206
C1 C -0.5783(5) 0.6166(3) 0.58069(13)
H2 H -0.6508 0.5233 0.5618
C2 C -0.3737(5) 0.6136(3) 0.63444(14)
H3 H -0.3060 0.5182 0.6520
C3 C -0.2637(6) 0.7500 0.66368(18)
C4 C -0.0525(9) 0.6922(5) 0.7221(3)
C5 C 0.0792(9) 0.6999(4) 0.7620(3)
C6 C 0.2868(6) 0.7500 0.82349(17)
C7 C 0.3877(5) 0.6118(3) 0.85358(13)
H4 H 0.3245 0.5175 0.8335
C8 C 0.5792(5) 0.6107(3) 0.91254(12)
H5 H 0.6457 0.5168 0.9323
C9 C 0.6709(6) 0.7500 0.94194(16)
H6 H 0.007(5) 0.591(3) 0.7411(14)
C1C C -0.5783(5) 0.8834(3) 0.58069(13)
H2C H -0.6508 0.9767 0.5618
C2C C -0.3737(5) 0.8864(3) 0.63444(14)
H3C H -0.3060 0.9818 0.6520
C4C C -0.0525(9) 0.8078(5) 0.7221(3)
C5C C 0.0792(9) 0.8001(4) 0.7620(3)
C7C C 0.3877(5) 0.8882(3) 0.85358(13)
H4C H 0.3245 0.9825 0.8335
C8C C 0.5792(5) 0.8893(3) 0.91254(12)
H5C H 0.6457 0.9832 0.9323
H6C H 0.007(5) 0.909(3) 0.7411(14)
H7? H -0.0831 0.7319 0.2892
H8? H 0.2601 0.8555 0.2136
H9? H 0.2189 0.6921 0.1744
H10? H 0.3102 0.7024 0.2611
loop_
_geom_bond_atom_site_label_1
_geom_bond_atom_site_label_2
_geom_bond_site_symmetry_1
_geom_bond_site_symmetry_2
Cl1 C9 1_555 1_555
N1 H1 1_555 1_555
C1 N1 1_555 1_555
H2 C1 1_555 1_555
C2 C1 1_555 1_555
H3 C2 1_555 1_555
C3 C2 1_555 1_555
C4 C3 1_555 1_555
C5 C4 1_555 1_555
C6 C5 1_555 1_555
C7 C6 1_555 1_555
H4 C7 1_555 1_555
C8 C7 1_555 1_555
H5 C8 1_555 1_555
C9 C8 1_555 1_555
H6 C4 1_555 1_555
C10 O1 1_555 1_555
C1C N1 1_555 1_555
H2C C1C 1_555 1_555
C2C C3 1_555 1_555
H3C C2C 1_555 1_555
C4C C3 1_555 1_555
C5C C4 1_555 1_555
C7C C6 1_555 1_555
H4C C7C 1_555 1_555
C8C C9 1_555 1_555
H5C C8C 1_555 1_555
H6C C4C 1_555 1_555
C4 C4C 1_555 1_555
C5 H6 1_555 1_555
C5 C4C 1_555 1_555
C5 C5C 1_555 1_555
C6 C5C 1_555 1_555
C1C C2C 1_555 1_555
C4C C5C 1_555 1_555
C5C H6C 1_555 1_555
C7C C8C 1_555 1_555

#END
