
#######################################################################
#
#                 Cambridge Crystallographic Data Centre
#                                CCDC 
#
#######################################################################
#
# If this CIF has been generated from an entry in the Cambridge 
# Structural Database, then it will include bibliographic, chemical, 
# crystal, experimental, refinement or atomic coordinate data resulting 
# from the CCDC's data processing and validation procedures.
#
#######################################################################

data_WORQIF
_chemical_formula_moiety         '2(C5 H8 N3 O1 1+),C8 Cl4 O4 2-,2(H2 O1)'
_chemical_name_systematic        
'bis(6-methyl-4-oxo-3,4-dihydropyrimidin-2(1H)-iminium) 3,4,5,6-tetrachlorophthalate dihydrate'
_symmetry_cell_setting           triclinic
_symmetry_space_group_name_H-M   'P -1'
_symmetry_Int_Tables_number      2
_space_group_name_Hall           '-P 1'
loop_
_symmetry_equiv_pos_site_id
_symmetry_equiv_pos_as_xyz
1 x,y,z
2 -x,-y,-z
_cell_length_a                   7.4149(4)
_cell_length_b                   8.9129(6)
_cell_length_c                   18.7130(11)
_cell_angle_alpha                97.470(5)
_cell_angle_beta                 97.712(5)
_cell_angle_gamma                98.484(5)
_cell_volume                     1197.87
_exptl_crystal_colour            'light orange'
_exptl_crystal_description       plank
_cell_formula_units_Z            2
loop_
_atom_site_label
_atom_site_type_symbol
_atom_site_fract_x
_atom_site_fract_y
_atom_site_fract_z
Cl1 Cl 0.37940(13) 0.83148(10) 0.12197(5)
Cl2 Cl 0.25246(14) 0.12196(10) 0.03444(5)
Cl3 Cl 0.22724(13) 0.68305(11) -0.03976(5)
Cl4 Cl 0.15793(13) 0.32719(11) -0.08194(4)
O1 O 0.6196(3) 0.6344(3) 0.25184(12)
O2 O 0.5514(3) 0.2149(3) 0.17392(12)
C1 C 0.2746(4) 0.5694(4) 0.02559(16)
C2 C 0.3419(4) 0.6333(4) 0.09706(16)
C3 C 0.3612(4) 0.3832(3) 0.13073(15)
C4 C 0.2459(4) 0.4102(4) 0.00675(16)
O3 O 0.3559(3) 0.2902(3) 0.24511(12)
C5 C 0.3840(3) 0.5426(3) 0.15055(15)
C6 C 0.4259(4) 0.2882(4) 0.18793(16)
C7 C 0.4503(4) 0.6165(4) 0.22937(16)
C8 C 0.2913(4) 0.3192(4) 0.05907(16)
O4 O 0.3278(3) 0.6516(3) 0.26424(12)
N1 N 0.7213(3) 0.0599(3) 0.26382(14)
H1 H 0.6623 0.1113 0.2356
N2 N 0.7543(3) -0.0450(3) 0.37007(15)
H2 H 0.7170 -0.0582 0.4107
C9 C 0.6583(4) 0.0309(4) 0.32516(17)
N3 N 0.5077(4) 0.0800(3) 0.34184(15)
H3 H 0.4494 0.1309 0.3132
H4 H 0.4678 0.0610 0.3814
C10 C 0.8779(4) 0.0099(4) 0.24450(17)
O5 O 0.9818(3) -0.1783(3) 0.39810(15)
C11 C 0.9290(5) 0.0536(4) 0.17442(18)
H5 H 0.8341 0.0046 0.1348
H6 H 1.0437 0.0213 0.1668
H7 H 0.9418 0.1630 0.1767
C12 C 0.9116(5) -0.1038(4) 0.35434(19)
C13 C 0.9716(4) -0.0687(4) 0.2883(2)
H8 H 1.0780 -0.1012 0.2754
O6 O 1.2169(3) 0.2531(3) 0.40178(12)
N4 N 0.8119(3) 0.4712(3) 0.33407(13)
H9 H 0.7219 0.5137 0.3169
N5 N 1.0832(3) 0.3830(3) 0.32009(13)
H10 H 1.1699 0.3721 0.2945
C14 C 1.0892(4) 0.3213(4) 0.38477(16)
C15 C 0.9505(4) 0.4583(4) 0.29540(16)
C16 C 0.9420(4) 0.3444(4) 0.42480(16)
H11 H 0.9388 0.3070 0.4688
C17 C 0.8081(4) 0.4194(4) 0.39990(16)
N6 N 0.9518(4) 0.5149(4) 0.23450(15)
H12 H 1.0393 0.5041 0.2094
H13 H 0.8651 0.5630 0.2195
C18 C 0.6531(4) 0.4565(5) 0.43805(19)
H14 H 0.6651 0.5659 0.4506
H15 H 0.6562 0.4104 0.4817
H16 H 0.5380 0.4174 0.4065
O7 O 0.6310(4) -0.0983(4) 0.49801(15)
H17 H 0.6953 -0.1595 0.5164
H18 H 0.530(5) -0.158(7) 0.4800(8)
O8 O 0.3290(4) -0.2646(4) 0.41065(14)
H19 H 0.3336 -0.3016 0.3669
H20 H 0.2316 -0.2252 0.4121
loop_
_geom_bond_atom_site_label_1
_geom_bond_atom_site_label_2
_geom_bond_site_symmetry_1
_geom_bond_site_symmetry_2
Cl1 C2 1_555 1_555
Cl2 C8 1_555 1_555
Cl3 C1 1_555 1_555
Cl4 C4 1_555 1_555
O1 C7 1_555 1_555
O2 C6 1_555 1_555
C1 C2 1_555 1_555
C2 C5 1_555 1_555
C3 C5 1_555 1_555
C4 C1 1_555 1_555
O3 C6 1_555 1_555
C5 C7 1_555 1_555
C6 C3 1_555 1_555
C7 O4 1_555 1_555
C8 C3 1_555 1_555
N1 H1 1_555 1_555
N2 H2 1_555 1_555
C9 N1 1_555 1_555
N3 C9 1_555 1_555
H3 N3 1_555 1_555
H4 N3 1_555 1_555
C10 N1 1_555 1_555
O5 C12 1_555 1_555
C11 C10 1_555 1_555
H5 C11 1_555 1_555
H6 C11 1_555 1_555
H7 C11 1_555 1_555
C12 N2 1_555 1_555
C13 C10 1_555 1_555
H8 C13 1_555 1_555
O6 C14 1_555 1_555
N4 H9 1_555 1_555
N5 H10 1_555 1_555
C14 N5 1_555 1_555
C15 N4 1_555 1_555
C16 C14 1_555 1_555
H11 C16 1_555 1_555
C17 N4 1_555 1_555
N6 C15 1_555 1_555
H12 N6 1_555 1_555
H13 N6 1_555 1_555
C18 C17 1_555 1_555
H14 C18 1_555 1_555
H15 C18 1_555 1_555
H16 C18 1_555 1_555
O7 H17 1_555 1_555
H18 O7 1_555 1_555
O8 H19 1_555 1_555
H20 O8 1_555 1_555
C4 C8 1_555 1_555
N2 C9 1_555 1_555
C12 C13 1_555 1_555
N5 C15 1_555 1_555
C16 C17 1_555 1_555

#END
