
#######################################################################
#
#                 Cambridge Crystallographic Data Centre
#                                CCDC 
#
#######################################################################
#
# If this CIF has been generated from an entry in the Cambridge 
# Structural Database, then it will include bibliographic, chemical, 
# crystal, experimental, refinement or atomic coordinate data resulting 
# from the CCDC's data processing and validation procedures.
#
#######################################################################

data_WORTOM
_chemical_formula_moiety         'C23 H22 Br2 O4'
_chemical_name_systematic        
'15-Oxadodecacyclo(10.5.2.2^3,10^.1^5,8^.0^2,11^.0^3,20^.0^4,9^.0^7,21^.0^13,17^.0^19,20^)docosan-6,18-dibromo-4,9-dicarboxylic acid anhydride'
_symmetry_cell_setting           monoclinic
_symmetry_space_group_name_H-M   'P 21/n'
_symmetry_Int_Tables_number      14
_space_group_name_Hall           '-P 2yn'
loop_
_symmetry_equiv_pos_site_id
_symmetry_equiv_pos_as_xyz
1 x,y,z
2 1/2-x,1/2+y,1/2-z
3 -x,-y,-z
4 1/2+x,1/2-y,1/2+z
_cell_length_a                   11.7181(3)
_cell_length_b                   9.0408(2)
_cell_length_c                   19.1377(5)
_cell_angle_alpha                90
_cell_angle_beta                 105.485(1)
_cell_angle_gamma                90
_cell_volume                     1953.87
_exptl_crystal_colour            colorless
_exptl_crystal_description       columnar
_chemical_melting_point          238-241deg.C
_cell_formula_units_Z            4
loop_
_atom_site_label
_atom_site_type_symbol
_atom_site_fract_x
_atom_site_fract_y
_atom_site_fract_z
Br1 Br 0.9441(1) 0.1289(1) 0.8694(1)
Br2 Br 1.0469(1) 0.3246(1) 1.2134(1)
O1 O 1.2228(7) -0.0949(7) 0.7778(4)
O3 O 1.3516(3) 0.6083(4) 1.0303(2)
O4 O 1.1605(4) 0.6550(4) 0.9742(2)
O5 O 1.5229(3) 0.5074(5) 1.0929(3)
C1 C 1.3428(4) 0.0122(6) 0.8890(3)
C2 C 1.3018(5) -0.1331(6) 0.8488(4)
C3 C 1.2403(5) 0.0519(7) 0.7626(3)
C4 C 1.2844(4) 0.1361(6) 0.8343(3)
C5 C 1.1876(4) 0.2100(5) 0.8642(2)
C6 C 1.1148(4) 0.0801(5) 0.8821(3)
C7 C 1.1796(4) 0.0353(5) 0.9593(3)
C8 C 1.3149(4) 0.0390(5) 0.9613(3)
C9 C 1.3515(4) 0.1993(5) 0.9826(3)
C10 C 1.2473(4) 0.2940(4) 0.9351(2)
C11 C 1.1604(3) 0.3100(4) 0.9824(2)
C12 C 1.1565(4) 0.1500(5) 1.0140(2)
C13 C 1.2580(4) 0.1414(5) 1.0850(3)
C14 C 1.3624(4) 0.2202(5) 1.0631(3)
C15 C 1.3385(4) 0.3765(5) 1.0853(2)
C16 C 1.4192(5) 0.4968(5) 1.0726(3)
C17 C 1.2315(5) 0.5723(5) 1.0111(3)
C18 C 1.2120(4) 0.4251(5) 1.0431(2)
C19 C 1.1464(4) 0.4565(6) 1.1040(3)
C20 C 1.1152(5) 0.3063(6) 1.1302(3)
C21 C 1.2378(5) 0.2295(6) 1.1504(3)
C22 C 1.3263(4) 0.3654(6) 1.1627(3)
C23 C 1.2513(5) 0.5018(6) 1.1677(3)
H1 H 1.4179 0.0200 0.8865
H2 H 1.3644 -0.2156 0.8579
H3 H 1.2421 -0.1961 0.8761
H4 H 1.2793 0.0613 0.7236
H5 H 1.1413 0.0859 0.7351
H6 H 1.3382 0.2147 0.8255
H7 H 1.1381 0.2718 0.8241
H8 H 1.1032 -0.0164 0.8435
H9 H 1.1544 -0.0710 0.9764
H10 H 1.3595 -0.0394 1.0007
H11 H 1.4340 0.2194 0.9786
H12 H 1.2776 0.3890 0.9208
H13 H 1.0829 0.3558 0.9524
H14 H 1.0748 0.1297 1.0212
H15 H 1.2705 0.0278 1.0986
H16 H 1.4410 0.1922 1.0961
H17 H 1.0701 0.5319 1.0857
H18 H 1.0472 0.2394 1.0911
H19 H 1.2505 0.1709 1.2006
H20 H 1.2282 0.5097 1.2147
H21 H 1.4071 0.3530 1.2051
H22 H 1.3027 0.5896 1.1707
O2? O 1.2952(20) -0.1085(20) 0.7823(10)
loop_
_geom_bond_atom_site_label_1
_geom_bond_atom_site_label_2
_geom_bond_site_symmetry_1
_geom_bond_site_symmetry_2
Br1 C6 1_555 1_555
Br2 C20 1_555 1_555
O1 C2 1_555 1_555
O3 C16 1_555 1_555
O4 C17 1_555 1_555
O5 C16 1_555 1_555
C1 C2 1_555 1_555
C2 H2 1_555 1_555
C3 O1 1_555 1_555
C4 C1 1_555 1_555
C5 C4 1_555 1_555
C6 C5 1_555 1_555
C7 C6 1_555 1_555
C8 C1 1_555 1_555
C9 C8 1_555 1_555
C10 C5 1_555 1_555
C11 C10 1_555 1_555
C12 C7 1_555 1_555
C13 C12 1_555 1_555
C14 C9 1_555 1_555
C15 C14 1_555 1_555
C16 C15 1_555 1_555
C17 O3 1_555 1_555
C18 C11 1_555 1_555
C19 C18 1_555 1_555
C20 C19 1_555 1_555
C21 C13 1_555 1_555
C22 C15 1_555 1_555
C23 C19 1_555 1_555
H1 C1 1_555 1_555
H3 C2 1_555 1_555
H4 C3 1_555 1_555
H5 C3 1_555 1_555
H6 C4 1_555 1_555
H7 C5 1_555 1_555
H8 C6 1_555 1_555
H9 C7 1_555 1_555
H10 C8 1_555 1_555
H11 C9 1_555 1_555
H12 C10 1_555 1_555
H13 C11 1_555 1_555
H14 C12 1_555 1_555
H15 C13 1_555 1_555
H16 C14 1_555 1_555
H17 C19 1_555 1_555
H18 C20 1_555 1_555
H19 C21 1_555 1_555
H20 C23 1_555 1_555
H21 C22 1_555 1_555
H22 C23 1_555 1_555
C3 C4 1_555 1_555
C7 C8 1_555 1_555
C9 C10 1_555 1_555
C11 C12 1_555 1_555
C13 C14 1_555 1_555
C15 C18 1_555 1_555
C17 C18 1_555 1_555
C20 C21 1_555 1_555
C21 C22 1_555 1_555
C22 C23 1_555 1_555

#END
