
#######################################################################
#
#                 Cambridge Crystallographic Data Centre
#                                CCDC 
#
#######################################################################
#
# If this CIF has been generated from an entry in the Cambridge 
# Structural Database, then it will include bibliographic, chemical, 
# crystal, experimental, refinement or atomic coordinate data resulting 
# from the CCDC's data processing and validation procedures.
#
#######################################################################

data_WORZAG
_chemical_formula_moiety         'C21 H14 Br1 I1 O1'
_chemical_name_systematic        4-Bromo-3-iodo-2,2-diphenyl-2H-chromene
_symmetry_cell_setting           triclinic
_symmetry_space_group_name_H-M   'P -1'
_symmetry_Int_Tables_number      2
_space_group_name_Hall           '-P 1'
loop_
_symmetry_equiv_pos_site_id
_symmetry_equiv_pos_as_xyz
1 x,y,z
2 -x,-y,-z
_cell_length_a                   8.7716(7)
_cell_length_b                   8.8724(7)
_cell_length_c                   12.6171(11)
_cell_angle_alpha                98.445(7)
_cell_angle_beta                 91.814(7)
_cell_angle_gamma                113.248(7)
_cell_volume                     888.068
_exptl_crystal_colour            'light colorless'
_exptl_crystal_description       block
_cell_formula_units_Z            2
loop_
_atom_site_label
_atom_site_type_symbol
_atom_site_fract_x
_atom_site_fract_y
_atom_site_fract_z
I1 I 0.46928(4) 0.09685(4) 0.33530(2)
Br1 Br 0.40865(11) 0.24065(11) 0.10263(7)
O1 O 0.8359(3) 0.0725(3) 0.12199(19)
C1 C 0.7923(5) 0.1204(4) 0.2279(3)
C2 C 0.6291(5) 0.1444(5) 0.2132(3)
C3 C 0.5989(5) 0.2023(5) 0.1270(3)
C4 C 0.7176(5) 0.2396(5) 0.0463(3)
C5 C 0.7202(6) 0.3348(6) -0.0325(3)
H1 H 0.6443 0.3840 -0.0343
C6 C 0.8335(7) 0.3570(6) -0.1076(4)
H2 H 0.8341 0.4215 -0.1595
C7 C 0.9451(7) 0.2854(6) -0.1067(4)
H3 H 1.0207 0.3003 -0.1583
C8 C 0.9462(6) 0.1910(5) -0.0295(3)
H4 H 1.0209 0.1402 -0.0297
C9 C 0.8366(5) 0.1723(5) 0.0475(3)
C10 C 0.7671(4) -0.0282(4) 0.2843(3)
C11 C 0.6875(5) -0.1870(5) 0.2279(3)
H5 H 0.6555 -0.2039 0.1547
C12 C 0.6547(6) -0.3219(6) 0.2792(4)
H6 H 0.6009 -0.4295 0.2405
C13 C 0.7015(6) -0.2976(6) 0.3876(4)
H7 H 0.6785 -0.3887 0.4221
C14 C 0.7804(5) -0.1419(6) 0.4437(3)
H8 H 0.8130 -0.1259 0.5167
C15 C 0.8133(5) -0.0052(5) 0.3929(3)
H9 H 0.8666 0.1020 0.4322
C16 C 0.9363(5) 0.2791(5) 0.2835(3)
C17 C 0.9176(5) 0.4233(5) 0.3258(3)
H10 H 0.8126 0.4255 0.3209
C18 C 1.0533(6) 0.5641(5) 0.3752(3)
H11 H 1.0388 0.6601 0.4029
C19 C 1.2098(6) 0.5625(6) 0.3834(3)
H12 H 1.3009 0.6566 0.4171
C20 C 1.2292(6) 0.4207(6) 0.3414(4)
H13 H 1.3343 0.4187 0.3465
C21 C 1.0955(5) 0.2819(5) 0.2920(3)
H14 H 1.1117 0.1872 0.2633
loop_
_geom_bond_atom_site_label_1
_geom_bond_atom_site_label_2
_geom_bond_site_symmetry_1
_geom_bond_site_symmetry_2
I1 C2 1_555 1_555
Br1 C3 1_555 1_555
O1 C1 1_555 1_555
C1 C2 1_555 1_555
C2 C3 1_555 1_555
C3 C4 1_555 1_555
C4 C5 1_555 1_555
C5 H1 1_555 1_555
C6 C5 1_555 1_555
H2 C6 1_555 1_555
C7 C6 1_555 1_555
H3 C7 1_555 1_555
C8 C7 1_555 1_555
H4 C8 1_555 1_555
C9 O1 1_555 1_555
C10 C1 1_555 1_555
C11 C10 1_555 1_555
H5 C11 1_555 1_555
C12 C11 1_555 1_555
H6 C12 1_555 1_555
C13 C12 1_555 1_555
H7 C13 1_555 1_555
C14 C13 1_555 1_555
H8 C14 1_555 1_555
C15 C10 1_555 1_555
H9 C15 1_555 1_555
C16 C1 1_555 1_555
C17 C16 1_555 1_555
H10 C17 1_555 1_555
C18 C17 1_555 1_555
H11 C18 1_555 1_555
C19 C18 1_555 1_555
H12 C19 1_555 1_555
C20 C19 1_555 1_555
H13 C20 1_555 1_555
C21 C16 1_555 1_555
H14 C21 1_555 1_555
C4 C9 1_555 1_555
C8 C9 1_555 1_555
C14 C15 1_555 1_555
C20 C21 1_555 1_555

#END
