
#######################################################################
#
#                 Cambridge Crystallographic Data Centre
#                                CCDC 
#
#######################################################################
#
# If this CIF has been generated from an entry in the Cambridge 
# Structural Database, then it will include bibliographic, chemical, 
# crystal, experimental, refinement or atomic coordinate data resulting 
# from the CCDC's data processing and validation procedures.
#
#######################################################################

data_WOTXAG
_chemical_formula_moiety         'C29 H23 N1 O4'
_chemical_name_systematic        
'Methyl 5,6-dimethoxy-1-methyl-4,7-bis(phenylethynyl)-1H-indole-2-carboxylate'
_symmetry_cell_setting           triclinic
_symmetry_space_group_name_H-M   'P -1'
_symmetry_Int_Tables_number      2
_space_group_name_Hall           '-P 1'
loop_
_symmetry_equiv_pos_site_id
_symmetry_equiv_pos_as_xyz
1 x,y,z
2 -x,-y,-z
_cell_length_a                   7.8653(6)
_cell_length_b                   12.7093(10)
_cell_length_c                   12.7665(9)
_cell_angle_alpha                105.750(2)
_cell_angle_beta                 100.500(2)
_cell_angle_gamma                105.510(2)
_cell_volume                     1137.98
_exptl_crystal_colour            yellow
_exptl_crystal_description       plate
_cell_formula_units_Z            2
loop_
_atom_site_label
_atom_site_type_symbol
_atom_site_fract_x
_atom_site_fract_y
_atom_site_fract_z
O1 O 0.46211(14) 0.39394(9) 0.32409(9)
O2 O 0.21757(14) 0.29493(9) 0.10697(9)
O3 O 0.62609(14) -0.18933(9) 0.24061(9)
O4 O 0.42168(15) -0.28457(10) 0.06998(10)
N1 N 0.36061(15) -0.06081(10) 0.08349(10)
C1 C -0.2191(2) -0.06760(16) -0.47444(14)
H1 H -0.2868 -0.0943 -0.5517
C2 C -0.2101(2) 0.03840(15) -0.40216(14)
H2 H -0.2714 0.0844 -0.4301
C3 C -0.1121(2) 0.07748(14) -0.28932(13)
H3 H -0.1056 0.1504 -0.2402
C4 C -0.02260(19) 0.00982(13) -0.24750(12)
C5 C 0.08097(19) 0.05043(13) -0.13110(13)
C6 C 0.17002(19) 0.08044(13) -0.03455(12)
C7 C 0.28155(18) 0.11957(13) 0.07974(12)
C8 C 0.36868(18) 0.05246(12) 0.12725(12)
C9 C 0.49094(18) 0.10112(12) 0.23764(12)
C10 C 0.52423(18) 0.21683(12) 0.30477(12)
C11 C 0.64954(19) 0.26722(13) 0.41590(13)
C12 C 0.7560(2) 0.31082(13) 0.50850(13)
C13 C 0.87593(19) 0.36962(13) 0.62176(12)
C14 C 1.0434(2) 0.45592(14) 0.64243(13)
H4 H 1.0839 0.4719 0.5810
C15 C 1.1506(2) 0.51829(14) 0.75276(14)
H5 H 1.2635 0.5777 0.7665
C16 C 1.0944(2) 0.49465(14) 0.84283(13)
H6 H 1.1680 0.5381 0.9181
C17 C -0.0321(2) -0.09663(14) -0.32088(13)
H7 H 0.0282 -0.1433 -0.2934
C18 C -0.1294(2) -0.13445(15) -0.43382(14)
H8 H -0.1346 -0.2067 -0.4836
C19 C 0.47607(18) -0.08326(12) 0.16490(12)
C20 C 0.55727(18) 0.01444(12) 0.25913(12)
H9 H 0.6423 0.0221 0.3263
C21 C 0.43111(19) 0.28051(12) 0.26037(12)
C22 C 0.3169(2) 0.40987(16) 0.37243(17)
H10 H 0.2032 0.3848 0.3119
H11 H 0.3480 0.4921 0.4162
H12 H 0.2999 0.3637 0.4223
C23 C 0.31291(19) 0.23272(13) 0.14925(12)
C24 C 0.3250(2) 0.39727(15) 0.09255(15)
H13 H 0.3837 0.4584 0.1666
H14 H 0.2456 0.4233 0.0443
H15 H 0.4194 0.3803 0.0569
C25 C 0.8214(2) 0.34554(13) 0.71324(13)
H16 H 0.7087 0.2862 0.7001
C26 C 0.9301(2) 0.40736(14) 0.82303(13)
H17 H 0.8923 0.3900 0.8847
C27 C 0.50081(19) -0.19596(13) 0.14974(13)
C28 C 0.6740(2) -0.29203(14) 0.23510(16)
H18 H 0.5706 -0.3520 0.2401
H19 H 0.7814 -0.2735 0.2982
H20 H 0.7026 -0.3205 0.1633
C29 C 0.2466(2) -0.14390(14) -0.02782(13)
H21 H 0.1197 -0.1735 -0.0248
H22 H 0.2935 -0.2085 -0.0485
H23 H 0.2505 -0.1051 -0.0845
loop_
_geom_bond_atom_site_label_1
_geom_bond_atom_site_label_2
_geom_bond_site_symmetry_1
_geom_bond_site_symmetry_2
O1 C21 1_555 1_555
O2 C23 1_555 1_555
O3 C27 1_555 1_555
O4 C27 1_555 1_555
N1 C8 1_555 1_555
C1 H1 1_555 1_555
C2 C1 1_555 1_555
H2 C2 1_555 1_555
C3 C2 1_555 1_555
H3 C3 1_555 1_555
C4 C3 1_555 1_555
C5 C4 1_555 1_555
C6 C5 1_555 1_555
C7 C6 1_555 1_555
C8 C7 1_555 1_555
C9 C8 1_555 1_555
C10 C9 1_555 1_555
C11 C10 1_555 1_555
C12 C11 1_555 1_555
C13 C12 1_555 1_555
C14 C13 1_555 1_555
H4 C14 1_555 1_555
C15 C14 1_555 1_555
H5 C15 1_555 1_555
C16 C15 1_555 1_555
H6 C16 1_555 1_555
C17 C4 1_555 1_555
H7 C17 1_555 1_555
C18 C1 1_555 1_555
H8 C18 1_555 1_555
C19 N1 1_555 1_555
C20 C9 1_555 1_555
H9 C20 1_555 1_555
C21 C10 1_555 1_555
C22 O1 1_555 1_555
H10 C22 1_555 1_555
H11 C22 1_555 1_555
H12 C22 1_555 1_555
C23 C7 1_555 1_555
C24 O2 1_555 1_555
H13 C24 1_555 1_555
H14 C24 1_555 1_555
H15 C24 1_555 1_555
C25 C13 1_555 1_555
H16 C25 1_555 1_555
C26 C16 1_555 1_555
H17 C26 1_555 1_555
C27 C19 1_555 1_555
C28 O3 1_555 1_555
H18 C28 1_555 1_555
H19 C28 1_555 1_555
H20 C28 1_555 1_555
C29 N1 1_555 1_555
H21 C29 1_555 1_555
H22 C29 1_555 1_555
H23 C29 1_555 1_555
C17 C18 1_555 1_555
C19 C20 1_555 1_555
C21 C23 1_555 1_555
C25 C26 1_555 1_555

#END
