
#######################################################################
#
#                 Cambridge Crystallographic Data Centre
#                                CCDC 
#
#######################################################################
#
# If this CIF has been generated from an entry in the Cambridge 
# Structural Database, then it will include bibliographic, chemical, 
# crystal, experimental, refinement or atomic coordinate data resulting 
# from the CCDC's data processing and validation procedures.
#
#######################################################################

data_WOVBIU
_chemical_formula_moiety         'C29 H21 N1 O1'
_chemical_name_systematic        
2-((4-(2-(9-anthryl)vinyl)phenyl)carbonoimidoyl)phenol
_symmetry_cell_setting           monoclinic
_symmetry_space_group_name_H-M   'P 21/c'
_symmetry_Int_Tables_number      14
_space_group_name_Hall           '-P 2ybc'
loop_
_symmetry_equiv_pos_site_id
_symmetry_equiv_pos_as_xyz
1 x,y,z
2 -x,1/2+y,1/2-z
3 -x,-y,-z
4 x,1/2-y,1/2+z
_cell_length_a                   24.405(18)
_cell_length_b                   7.319(5)
_cell_length_c                   11.824(9)
_cell_angle_alpha                90
_cell_angle_beta                 101.249(9)
_cell_angle_gamma                90
_cell_volume                     2071.43
_cell_formula_units_Z            4
loop_
_atom_site_label
_atom_site_type_symbol
_atom_site_fract_x
_atom_site_fract_y
_atom_site_fract_z
N1 N 0.4843 0.3066(2) 0.8943(1)
C1 C 0.4297 0.3232(2) 0.8278(1)
C2 C 0.5270(1) 0.3790(2) 0.8644(1)
H1 H 0.5223 0.4450 0.7959
C3 C 0.3177(1) 0.3466(2) 0.7120(1)
C4 C 0.5822(1) 0.3609(2) 0.9338(1)
C5 C 0.3606(1) 0.4282(2) 0.6673(1)
H2 H 0.3520 0.4916 0.5979
O1 O 0.5496 0.1920(2) 1.0824(1)
H3 H 0.5206 0.1998 1.0341
C6 C 0.3874(1) 0.2397(2) 0.8724(1)
H4 H 0.3961 0.1755 0.9414
C7 C 0.6280(1) 0.4376(2) 0.8960(1)
H5 H 0.6222 0.5006 0.8264
C8 C 0.6812(1) 0.4219(2) 0.9592(2)
H6 H 0.7112 0.4727 0.9323
C9 C 0.4153(1) 0.4170(2) 0.7232(1)
H7 H 0.4430 0.4723 0.6913
C10 C 0.3327(1) 0.2510(2) 0.8156(1)
H8 H 0.3051 0.1936 0.8468
C11 C 0.6459(1) 0.2542(2) 1.1038(1)
H9 H 0.6524 0.1935 1.1742
C12 C 0.2589(1) 0.3615(2) 0.6558(1)
H10 H 0.2343 0.2893 0.6869
C13 C 0.5920(1) 0.2681(2) 1.0402(1)
C14 C 0.1487(1) 0.3439(2) 0.4441(1)
C15 C 0.1766(1) 0.4785(2) 0.5188(1)
C16 C 0.6898(1) 0.3302(2) 1.0629(2)
H11 H 0.7258 0.3194 1.1060
C17 C 0.1471(1) 0.6335(2) 0.5465(1)
C18 C 0.0887(1) 0.6501(2) 0.4991(2)
C19 C 0.0622(1) 0.5155(3) 0.4263(2)
H12 H 0.0242 0.5276 0.3958
C20 C 0.0903(1) 0.3632(2) 0.3974(1)
C21 C 0.1762(1) 0.1865(3) 0.4111(2)
H13 H 0.2142 0.1709 0.4400
C22 C 0.2367(1) 0.4611(2) 0.5690(2)
H14 H 0.2611 0.5291 0.5343
C23 C 0.1428(1) 0.9180(3) 0.6500(2)
H15 H 0.1604 1.0075 0.7001
C24 C 0.0595(1) 0.8055(3) 0.5312(2)
H16 H 0.0216 0.8185 0.5009
C25 C 0.0856(1) 0.9324(4) 0.6037(2)
H17 H 0.0655 1.0314 0.6236
C26 C 0.0631(1) 0.2245(3) 0.3226(2)
H18 H 0.0250 0.2350 0.2929
C27 C 0.0910(1) 0.0785(3) 0.2937(2)
H19 H 0.0723 -0.0096 0.2440
C28 C 0.1728(1) 0.7739(3) 0.6222(2)
H20 H 0.2109 0.7669 0.6531
C29 C 0.1486(1) 0.0593(3) 0.3388(2)
H21 H 0.1677 -0.0418 0.3187
loop_
_geom_bond_atom_site_label_1
_geom_bond_atom_site_label_2
_geom_bond_site_symmetry_1
_geom_bond_site_symmetry_2
N1 C1 1_555 1_555
C1 C6 1_555 1_555
C2 N1 1_555 1_555
H1 C2 1_555 1_555
C3 C5 1_555 1_555
C4 C2 1_555 1_555
C5 H2 1_555 1_555
O1 H3 1_555 1_555
C6 H4 1_555 1_555
C7 C4 1_555 1_555
H5 C7 1_555 1_555
C8 C7 1_555 1_555
H6 C8 1_555 1_555
C9 C1 1_555 1_555
H7 C9 1_555 1_555
C10 C3 1_555 1_555
H8 C10 1_555 1_555
C11 H9 1_555 1_555
C12 C3 1_555 1_555
H10 C12 1_555 1_555
C13 C4 1_555 1_555
C14 C15 1_555 1_555
C15 C17 1_555 1_555
C16 C8 1_555 1_555
H11 C16 1_555 1_555
C17 C18 1_555 1_555
C18 C19 1_555 1_555
C19 H12 1_555 1_555
C20 C14 1_555 1_555
C21 C14 1_555 1_555
H13 C21 1_555 1_555
C22 C12 1_555 1_555
H14 C22 1_555 1_555
C23 H15 1_555 1_555
C24 C18 1_555 1_555
H16 C24 1_555 1_555
C25 C23 1_555 1_555
H17 C25 1_555 1_555
C26 C20 1_555 1_555
H18 C26 1_555 1_555
C27 C26 1_555 1_555
H19 C27 1_555 1_555
C28 C17 1_555 1_555
H20 C28 1_555 1_555
C29 C21 1_555 1_555
H21 C29 1_555 1_555
C5 C9 1_555 1_555
O1 C13 1_555 1_555
C6 C10 1_555 1_555
C11 C13 1_555 1_555
C11 C16 1_555 1_555
C15 C22 1_555 1_555
C19 C20 1_555 1_555
C23 C28 1_555 1_555
C24 C25 1_555 1_555
C27 C29 1_555 1_555

#END
