
#######################################################################
#
#                 Cambridge Crystallographic Data Centre
#                                CCDC 
#
#######################################################################
#
# If this CIF has been generated from an entry in the Cambridge 
# Structural Database, then it will include bibliographic, chemical, 
# crystal, experimental, refinement or atomic coordinate data resulting 
# from the CCDC's data processing and validation procedures.
#
#######################################################################

data_WOVBUG
_chemical_formula_moiety         'C33 H30 N2'
_chemical_name_systematic        
4-((4-(2-(9-anthryl)vinyl)phenyl)carbonoimidoyl)-N,N-diethylaniline
_symmetry_cell_setting           monoclinic
_symmetry_space_group_name_H-M   'P 21/n'
_symmetry_Int_Tables_number      14
_space_group_name_Hall           '-P 2yn'
loop_
_symmetry_equiv_pos_site_id
_symmetry_equiv_pos_as_xyz
1 x,y,z
2 1/2-x,1/2+y,1/2-z
3 -x,-y,-z
4 1/2+x,1/2-y,1/2+z
_cell_length_a                   13.740(5)
_cell_length_b                   12.487(5)
_cell_length_c                   15.071(6)
_cell_angle_alpha                90
_cell_angle_beta                 100.349(5)
_cell_angle_gamma                90
_cell_volume                     2543.69
_cell_formula_units_Z            4
loop_
_atom_site_label
_atom_site_type_symbol
_atom_site_fract_x
_atom_site_fract_y
_atom_site_fract_z
N1 N 0.96212(11) 1.09853(11) 0.23411(10)
N2 N 1.10316(12) 1.39966(13) -0.06797(11)
C1 C 0.95112(12) 1.09598(13) 0.14866(12)
H1 H 0.9173 1.0381 0.1189
C2 C 0.98776(12) 1.17719(13) 0.09456(11)
C3 C 0.86655(13) 0.83173(12) 0.36761(11)
C4 C 1.03756(12) 1.26790(13) 0.13139(12)
H2 H 1.0452 1.2796 0.1932
C5 C 1.07574(13) 1.34075(13) 0.07875(12)
H3 H 1.1086 1.4008 0.1057
C6 C 1.06630(12) 1.32675(14) -0.01473(12)
C7 C 0.98232(13) 0.97353(14) 0.35669(11)
H4 H 1.0404 1.0093 0.3810
C8 C 0.95437(13) 0.88475(14) 0.40016(12)
H5 H 0.9950 0.8600 0.4522
C9 C 0.97899(14) 1.16250(15) 0.00221(12)
H6 H 0.9459 1.1023 -0.0242
C10 C 0.92567(12) 1.01026(12) 0.27773(11)
C11 C 0.84692(13) 0.48491(16) 0.48077(14)
C12 C 0.83692(14) 0.96006(15) 0.24646(12)
H7 H 0.7962 0.9852 0.1946
C13 C 1.01754(14) 1.23396(15) -0.05144(12)
H8 H 1.0112 1.2206 -0.1129
C14 C 0.83751(13) 0.58742(16) 0.51626(14)
C15 C 0.83315(13) 0.73702(14) 0.41112(12)
H9 H 0.7694 0.7142 0.3871
C16 C 0.80079(14) 0.39531(16) 0.51569(14)
C17 C 0.80800(14) 0.87330(15) 0.29115(13)
H10 H 0.7472 0.8415 0.2694
C18 C 0.78888(14) 0.60081(15) 0.58979(14)
C19 C 0.74330(14) 0.51063(17) 0.62497(13)
C20 C 0.90013(15) 0.4646(2) 0.41039(16)
H11 H 0.9308 0.5213 0.3865
C21 C 1.14289(16) 1.50300(15) -0.03217(15)
H12 H 1.1060 1.5270 0.0133
H13 H 1.1333 1.5553 -0.0806
C22 C 0.74988(15) 0.41161(16) 0.58609(15)
H14 H 0.7190 0.3535 0.6079
C23 C 0.69174(16) 0.5276(2) 0.69706(16)
H15 H 0.6611 0.4698 0.7196
C24 C 1.09704(17) 1.38016(19) -0.16501(14)
H16 H 1.1097 1.3050 -0.1745
H17 H 1.1480 1.4214 -0.1864
C25 C 0.90764(16) 0.3654(2) 0.37703(17)
H18 H 0.9445 0.3549 0.3317
C26 C 0.78132(17) 0.70194(19) 0.63165(17)
H19 H 0.8111 0.7613 0.6106
C27 C 0.87682(15) 0.68206(17) 0.47550(16)
H20 H 0.9409 0.7030 0.5004
C28 C 0.86059(18) 0.2776(2) 0.40970(18)
H21 H 0.8648 0.2098 0.3853
C29 C 0.80944(17) 0.29302(18) 0.47669(18)
H22 H 0.7786 0.2347 0.4983
C30 C 1.25054(16) 1.49862(16) 0.00867(17)
H23 H 1.2600 1.4511 0.0596
H24 H 1.2732 1.5690 0.0280
H25 H 1.2874 1.4729 -0.0354
C31 C 0.68588(19) 0.6252(3) 0.73390(17)
H26 H 0.6513 0.6340 0.7811
C32 C 0.9968(2) 1.4101(2) -0.21957(16)
H27 H 0.9455 1.3787 -0.1925
H28 H 0.9919 1.3840 -0.2801
H29 H 0.9898 1.4866 -0.2206
C33 C 0.7323(2) 0.7144(2) 0.70091(18)
H30 H 0.7290 0.7815 0.7270
loop_
_geom_bond_atom_site_label_1
_geom_bond_atom_site_label_2
_geom_bond_site_symmetry_1
_geom_bond_site_symmetry_2
N1 C1 1_555 1_555
N2 C6 1_555 1_555
C1 H1 1_555 1_555
C2 C1 1_555 1_555
C3 C8 1_555 1_555
C4 C2 1_555 1_555
H2 C4 1_555 1_555
C5 C4 1_555 1_555
H3 C5 1_555 1_555
C6 C5 1_555 1_555
C7 H4 1_555 1_555
C8 C7 1_555 1_555
H5 C8 1_555 1_555
C9 C2 1_555 1_555
H6 C9 1_555 1_555
C10 N1 1_555 1_555
C11 C14 1_555 1_555
C12 C10 1_555 1_555
H7 C12 1_555 1_555
C13 C6 1_555 1_555
H8 C13 1_555 1_555
C14 C18 1_555 1_555
C15 C3 1_555 1_555
H9 C15 1_555 1_555
C16 C11 1_555 1_555
C17 C3 1_555 1_555
H10 C17 1_555 1_555
C18 C19 1_555 1_555
C19 C22 1_555 1_555
C20 C11 1_555 1_555
H11 C20 1_555 1_555
C21 N2 1_555 1_555
H12 C21 1_555 1_555
H13 C21 1_555 1_555
C22 C16 1_555 1_555
H14 C22 1_555 1_555
C23 C19 1_555 1_555
H15 C23 1_555 1_555
C24 N2 1_555 1_555
H16 C24 1_555 1_555
H17 C24 1_555 1_555
C25 C20 1_555 1_555
H18 C25 1_555 1_555
C26 C18 1_555 1_555
H19 C26 1_555 1_555
C27 C14 1_555 1_555
H20 C27 1_555 1_555
C28 C25 1_555 1_555
H21 C28 1_555 1_555
C29 C16 1_555 1_555
H22 C29 1_555 1_555
C30 C21 1_555 1_555
H23 C30 1_555 1_555
H24 C30 1_555 1_555
H25 C30 1_555 1_555
C31 C23 1_555 1_555
H26 C31 1_555 1_555
C32 C24 1_555 1_555
H27 C32 1_555 1_555
H28 C32 1_555 1_555
H29 C32 1_555 1_555
C33 C26 1_555 1_555
H30 C33 1_555 1_555
C7 C10 1_555 1_555
C9 C13 1_555 1_555
C12 C17 1_555 1_555
C15 C27 1_555 1_555
C28 C29 1_555 1_555
C31 C33 1_555 1_555

#END
