
#######################################################################
#
#                 Cambridge Crystallographic Data Centre
#                                CCDC 
#
#######################################################################
#
# If this CIF has been generated from an entry in the Cambridge 
# Structural Database, then it will include bibliographic, chemical, 
# crystal, experimental, refinement or atomic coordinate data resulting 
# from the CCDC's data processing and validation procedures.
#
#######################################################################

data_WOVMOL
_chemical_formula_moiety         'C31 H38 O11'
_chemical_name_systematic        
'methyl (3,14-diacetoxy-6-(3-furyl)-10-hydroxy-1,5,15,15-tetramethyl-8,17-dioxo-7-oxatetracyclo[11.3.1.0^2,11^.0^5,10^]heptadec-11-en-16-yl)acetate'
_symmetry_cell_setting           monoclinic
_symmetry_space_group_name_H-M   'P 21'
_symmetry_Int_Tables_number      4
_space_group_name_Hall           'P 2yb'
loop_
_symmetry_equiv_pos_site_id
_symmetry_equiv_pos_as_xyz
1 x,y,z
2 -x,1/2+y,-z
_cell_length_a                   9.82600(10)
_cell_length_b                   14.5902(2)
_cell_length_c                   10.34730(10)
_cell_angle_alpha                90
_cell_angle_beta                 99.4430(10)
_cell_angle_gamma                90
_cell_volume                     1463.32
_cell_formula_units_Z            2
loop_
_atom_site_label
_atom_site_type_symbol
_atom_site_fract_x
_atom_site_fract_y
_atom_site_fract_z
O1 O 0.49831(17) 0.11487(14) 0.73921(18)
O2 O 0.91387(17) 0.40367(13) 0.64175(17)
O3 O 0.5831(2) 0.35243(16) 0.31547(19)
C1 C 0.7588(2) 0.19265(17) 0.5345(2)
O4 O 0.4767(2) 0.37703(18) 0.9582(2)
O5 O 0.5388(2) 0.40500(16) 0.7646(2)
O6 O 1.01374(19) 0.10144(16) 0.7796(2)
O7 O 0.3322(2) 0.21840(17) 0.7547(2)
C2 C 0.7055(2) 0.14952(17) 0.6514(2)
H1 H 0.7135 0.0829 0.6435
C3 C 0.4679(2) 0.15076(19) 0.5096(3)
H2 H 0.3729 0.1689 0.5094
H3 H 0.4687 0.0850 0.4959
C4 C 0.5510(2) 0.17194(18) 0.6435(2)
H4 H 0.5399 0.2367 0.6646
O8 O 0.7716(3) 0.3723(2) 0.2307(2)
O9 O 1.0820(3) 0.50759(18) 0.6885(3)
O10 O 0.6751(2) 0.07610(16) 0.3796(3)
H5 H 0.7514 0.0606 0.3653
C5 C 0.8772(2) 0.23804(18) 0.5451(2)
H6 H 0.8979 0.2668 0.4705
O11 O 0.1755(2) 0.3969(2) 0.4474(2)
C6 C 0.9429(2) 0.16861(19) 0.7536(2)
C7 C 0.7697(2) 0.28194(18) 0.8162(2)
H7 H 0.7256 0.3087 0.7329
C8 C 0.9814(2) 0.24633(19) 0.6707(2)
H8 H 1.0739 0.2349 0.6504
C9 C 0.6652(3) 0.2938(2) 0.9104(2)
H9 H 0.6199 0.2355 0.9187
H10 H 0.7146 0.3102 0.9962
C10 C 0.5131(3) 0.30251(19) 0.4091(2)
H11 H 0.5604 0.3180 0.4973
C11 C 0.7835(3) 0.1102(2) 0.8957(3)
H12 H 0.6927 0.1147 0.9181
H13 H 0.8509 0.1241 0.9713
H14 H 0.7982 0.0491 0.8665
C12 C 0.5568(2) 0.3654(2) 0.8674(2)
C13 C 0.3707(3) 0.3412(2) 0.3951(2)
C14 C 1.0003(3) 0.2959(3) 0.9762(3)
H15 H 0.9536 0.2943 1.0507
H16 H 1.0825 0.3323 0.9964
H17 H 1.0245 0.2347 0.9546
C15 C 0.9743(3) 0.4830(2) 0.6243(3)
C16 C 0.5195(2) 0.19768(19) 0.3951(2)
C17 C 0.9044(3) 0.3384(2) 0.8584(2)
C18 C 0.6733(3) 0.17170(18) 0.4000(2)
C19 C 0.3867(2) 0.1463(2) 0.7866(3)
C20 C 0.3446(3) 0.0821(3) 0.8847(3)
H18 H 0.4036 0.0293 0.8928
H19 H 0.2508 0.0633 0.8565
H20 H 0.3522 0.1124 0.9680
C21 C 0.7252(3) 0.2193(2) 0.2868(3)
H21 H 0.8238 0.2091 0.2951
H22 H 0.6819 0.1911 0.2055
C22 C 0.9813(2) 0.3397(2) 0.7398(2)
H23 H 1.0767 0.3594 0.7689
C23 C 0.7975(2) 0.17886(18) 0.7853(2)
C24 C 0.2692(4) 0.3517(3) 0.2800(3)
H24 H 0.2800 0.3370 0.1948
C25 C 0.6989(3) 0.3202(2) 0.2778(2)
C26 C 0.4310(3) 0.1647(2) 0.2666(3)
H25 H 0.4624 0.1936 0.1935
H26 H 0.3362 0.1804 0.2669
H27 H 0.4394 0.0994 0.2595
C27 C 0.1575(4) 0.3861(3) 0.3169(3)
H28 H 0.0771 0.4009 0.2601
C28 C 0.3594(4) 0.4372(3) 0.9180(5)
H29 H 0.3066 0.4425 0.9880
H30 H 0.3023 0.4122 0.8420
H31 H 0.3917 0.4967 0.8976
C29 C 0.3081(4) 0.3697(3) 0.4922(3)
H32 H 0.3492 0.3710 0.5797
C30 C 0.8928(5) 0.5357(3) 0.5151(5)
H33 H 0.8115 0.5017 0.4797
H34 H 0.9477 0.5458 0.4477
H35 H 0.8665 0.5937 0.5474
C31 C 0.8709(3) 0.4373(2) 0.8942(3)
H36 H 0.8229 0.4366 0.9678
H37 H 0.8139 0.4656 0.8208
H38 H 0.9551 0.4714 0.9162
loop_
_geom_bond_atom_site_label_1
_geom_bond_atom_site_label_2
_geom_bond_site_symmetry_1
_geom_bond_site_symmetry_2
O1 C4 1_555 1_555
O2 C15 1_555 1_555
O3 C10 1_555 1_555
C1 C2 1_555 1_555
O4 C12 1_555 1_555
O5 C12 1_555 1_555
O6 C6 1_555 1_555
O7 C19 1_555 1_555
C2 H1 1_555 1_555
C3 H2 1_555 1_555
H3 C3 1_555 1_555
C4 C2 1_555 1_555
H4 C4 1_555 1_555
O8 C25 1_555 1_555
O9 C15 1_555 1_555
O10 H5 1_555 1_555
C5 C1 1_555 1_555
H6 C5 1_555 1_555
O11 C27 1_555 1_555
C6 C8 1_555 1_555
C7 H7 1_555 1_555
C8 C5 1_555 1_555
H8 C8 1_555 1_555
C9 C7 1_555 1_555
H9 C9 1_555 1_555
H10 C9 1_555 1_555
C10 H11 1_555 1_555
C11 H12 1_555 1_555
H13 C11 1_555 1_555
H14 C11 1_555 1_555
C12 C9 1_555 1_555
C13 C10 1_555 1_555
C14 H15 1_555 1_555
H16 C14 1_555 1_555
H17 C14 1_555 1_555
C15 C30 1_555 1_555
C16 C3 1_555 1_555
C17 C7 1_555 1_555
C18 C1 1_555 1_555
C19 O1 1_555 1_555
C20 C19 1_555 1_555
H18 C20 1_555 1_555
H19 C20 1_555 1_555
H20 C20 1_555 1_555
C21 C18 1_555 1_555
H21 C21 1_555 1_555
H22 C21 1_555 1_555
C22 O2 1_555 1_555
H23 C22 1_555 1_555
C23 C2 1_555 1_555
C24 C13 1_555 1_555
H24 C24 1_555 1_555
C25 O3 1_555 1_555
C26 C16 1_555 1_555
H25 C26 1_555 1_555
H26 C26 1_555 1_555
H27 C26 1_555 1_555
C27 C24 1_555 1_555
H28 C27 1_555 1_555
C28 O4 1_555 1_555
H29 C28 1_555 1_555
H30 C28 1_555 1_555
H31 C28 1_555 1_555
C29 O11 1_555 1_555
H32 C29 1_555 1_555
C30 H33 1_555 1_555
H34 C30 1_555 1_555
H35 C30 1_555 1_555
C31 C17 1_555 1_555
H36 C31 1_555 1_555
H37 C31 1_555 1_555
H38 C31 1_555 1_555
C3 C4 1_555 1_555
O10 C18 1_555 1_555
C6 C23 1_555 1_555
C7 C23 1_555 1_555
C8 C22 1_555 1_555
C10 C16 1_555 1_555
C11 C23 1_555 1_555
C13 C29 1_555 1_555
C14 C17 1_555 1_555
C16 C18 1_555 1_555
C17 C22 1_555 1_555
C21 C25 1_555 1_555

#END
