
#######################################################################
#
#                 Cambridge Crystallographic Data Centre
#                                CCDC 
#
#######################################################################
#
# If this CIF has been generated from an entry in the Cambridge 
# Structural Database, then it will include bibliographic, chemical, 
# crystal, experimental, refinement or atomic coordinate data resulting 
# from the CCDC's data processing and validation procedures.
#
#######################################################################

data_WOVRAC
_chemical_formula_moiety         'C33 H30 O1'
_chemical_name_systematic        
4-t-butyl-2,3,4,5-tetraphenylcyclopent-2-en-1-one
_symmetry_cell_setting           triclinic
_symmetry_space_group_name_H-M   'P -1'
_symmetry_Int_Tables_number      2
_space_group_name_Hall           '-P 1'
loop_
_symmetry_equiv_pos_site_id
_symmetry_equiv_pos_as_xyz
1 x,y,z
2 -x,-y,-z
_cell_length_a                   8.3226(19)
_cell_length_b                   11.043(3)
_cell_length_c                   13.817(3)
_cell_angle_alpha                75.530(4)
_cell_angle_beta                 78.847(4)
_cell_angle_gamma                81.424(4)
_cell_volume                     1199.56
_exptl_crystal_colour            colorless
_exptl_crystal_description       prism
_cell_formula_units_Z            2
loop_
_atom_site_label
_atom_site_type_symbol
_atom_site_fract_x
_atom_site_fract_y
_atom_site_fract_z
O1 O 0.24755(14) 0.76275(10) 0.43659(9)
C1 C 0.37201(18) 0.78067(13) 0.37412(11)
C2 C 0.51866(17) 0.68198(13) 0.36335(11)
H1 H 0.5624 0.6590 0.4288
C3 C 0.65457(17) 0.75261(13) 0.27962(10)
C4 C 0.56198(17) 0.88500(13) 0.24654(10)
C5 C 0.40654(18) 0.89868(13) 0.29890(10)
C6 C 0.46929(18) 0.56218(13) 0.34701(11)
C7 C 0.56326(19) 0.44752(14) 0.37612(11)
H2 H 0.6561 0.4443 0.4077
C8 C 0.5218(2) 0.33770(15) 0.35925(13)
H3 H 0.5876 0.2604 0.3786
C9 C 0.3862(2) 0.33999(16) 0.31468(14)
H4 H 0.3584 0.2647 0.3036
C10 C 0.2909(2) 0.45315(17) 0.28623(15)
H5 H 0.1973 0.4555 0.2557
C11 C 0.3321(2) 0.56290(16) 0.30231(14)
H6 H 0.2659 0.6399 0.2826
C12 C 0.69372(18) 0.68777(13) 0.18976(11)
C13 C 0.58078(19) 0.70929(15) 0.12249(12)
H7 H 0.4878 0.7696 0.1297
C14 C 0.6005(2) 0.64519(17) 0.04551(13)
H8 H 0.5223 0.6627 0.0007
C15 C 0.7342(2) 0.55560(16) 0.03411(13)
H9 H 0.7479 0.5108 -0.0179
C16 C 0.8469(2) 0.53257(16) 0.09925(13)
H10 H 0.9389 0.4714 0.0919
C17 C 0.8282(2) 0.59751(15) 0.17580(12)
H11 H 0.9082 0.5803 0.2194
C18 C 0.80716(18) 0.76364(15) 0.33121(11)
C19 C 0.9535(2) 0.81651(17) 0.25259(13)
H12 H 0.9171 0.8996 0.2132
H13 H 0.9942 0.7595 0.2070
H14 H 1.0420 0.8239 0.2877
C20 C 0.7535(2) 0.85475(16) 0.40281(13)
H15 H 0.8430 0.8541 0.4398
H16 H 0.6555 0.8280 0.4511
H17 H 0.7280 0.9400 0.3630
C21 C 0.8705(2) 0.63797(16) 0.39885(12)
H18 H 0.8952 0.5727 0.3598
H19 H 0.7858 0.6129 0.4578
H20 H 0.9707 0.6489 0.4218
C22 C 0.64013(17) 0.98988(14) 0.17018(11)
C23 C 0.63247(19) 1.10517(14) 0.19716(12)
H21 H 0.5764 1.1144 0.2621
C24 C 0.7053(2) 1.20595(15) 0.13071(13)
H22 H 0.6991 1.2832 0.1505
C25 C 0.7872(2) 1.19417(16) 0.03552(13)
H23 H 0.8371 1.2631 -0.0101
C26 C 0.7957(2) 1.08103(16) 0.00741(12)
H24 H 0.8512 1.0727 -0.0578
C27 C 0.7235(2) 0.97999(15) 0.07391(12)
H25 H 0.7309 0.9029 0.0538
C28 C 0.27856(17) 1.00803(13) 0.28717(11)
C29 C 0.17822(19) 1.04019(14) 0.37307(12)
H26 H 0.1960 0.9942 0.4387
C30 C 0.0527(2) 1.13909(15) 0.36281(13)
H27 H -0.0147 1.1601 0.4214
C31 C 0.0261(2) 1.20670(16) 0.26747(14)
H28 H -0.0598 1.2738 0.2605
C32 C 0.1253(2) 1.17623(16) 0.18191(13)
H29 H 0.1071 1.2227 0.1164
C33 C 0.25045(19) 1.07855(15) 0.19173(12)
H30 H 0.3183 1.0591 0.1327
loop_
_geom_bond_atom_site_label_1
_geom_bond_atom_site_label_2
_geom_bond_site_symmetry_1
_geom_bond_site_symmetry_2
O1 C1 1_555 1_555
C1 C2 1_555 1_555
C2 H1 1_555 1_555
C3 C2 1_555 1_555
C4 C3 1_555 1_555
C5 C1 1_555 1_555
C6 C2 1_555 1_555
C7 C6 1_555 1_555
H2 C7 1_555 1_555
C8 C7 1_555 1_555
H3 C8 1_555 1_555
C9 C8 1_555 1_555
H4 C9 1_555 1_555
C10 C9 1_555 1_555
H5 C10 1_555 1_555
C11 C6 1_555 1_555
H6 C11 1_555 1_555
C12 C3 1_555 1_555
C13 C12 1_555 1_555
H7 C13 1_555 1_555
C14 C13 1_555 1_555
H8 C14 1_555 1_555
C15 C14 1_555 1_555
H9 C15 1_555 1_555
C16 C15 1_555 1_555
H10 C16 1_555 1_555
C17 C12 1_555 1_555
H11 C17 1_555 1_555
C18 C3 1_555 1_555
C19 C18 1_555 1_555
H12 C19 1_555 1_555
H13 C19 1_555 1_555
H14 C19 1_555 1_555
C20 C18 1_555 1_555
H15 C20 1_555 1_555
H16 C20 1_555 1_555
H17 C20 1_555 1_555
C21 C18 1_555 1_555
H18 C21 1_555 1_555
H19 C21 1_555 1_555
H20 C21 1_555 1_555
C22 C4 1_555 1_555
C23 C22 1_555 1_555
H21 C23 1_555 1_555
C24 C23 1_555 1_555
H22 C24 1_555 1_555
C25 C24 1_555 1_555
H23 C25 1_555 1_555
C26 C25 1_555 1_555
H24 C26 1_555 1_555
C27 C22 1_555 1_555
H25 C27 1_555 1_555
C28 C5 1_555 1_555
C29 C28 1_555 1_555
H26 C29 1_555 1_555
C30 C29 1_555 1_555
H27 C30 1_555 1_555
C31 C30 1_555 1_555
H28 C31 1_555 1_555
C32 C31 1_555 1_555
H29 C32 1_555 1_555
C33 C28 1_555 1_555
H30 C33 1_555 1_555
C4 C5 1_555 1_555
C10 C11 1_555 1_555
C16 C17 1_555 1_555
C26 C27 1_555 1_555
C32 C33 1_555 1_555

#END
