
#######################################################################
#
#                 Cambridge Crystallographic Data Centre
#                                CCDC 
#
#######################################################################
#
# If this CIF has been generated from an entry in the Cambridge 
# Structural Database, then it will include bibliographic, chemical, 
# crystal, experimental, refinement or atomic coordinate data resulting 
# from the CCDC's data processing and validation procedures.
#
#######################################################################

data_WOVYUB10
_chemical_formula_moiety         'C18 H17 N3 O2'
_chemical_name_systematic        
4-{[(2-hydroxyphenyl)methylidene]amino}-1,5-dimethyl-2-phenyl-1,2-dihydro-3H-pyrazol-3-one
_symmetry_cell_setting           monoclinic
_symmetry_space_group_name_H-M   'P 21/n'
_symmetry_Int_Tables_number      14
_space_group_name_Hall           '-P 2yn'
loop_
_symmetry_equiv_pos_site_id
_symmetry_equiv_pos_as_xyz
1 x,y,z
2 1/2-x,1/2+y,1/2-z
3 -x,-y,-z
4 1/2+x,1/2-y,1/2+z
_cell_length_a                   7.4861(3)
_cell_length_b                   7.4773(3)
_cell_length_c                   27.3003(10)
_cell_angle_alpha                90
_cell_angle_beta                 95.532(4)
_cell_angle_gamma                90
_cell_volume                     1521.04
_exptl_crystal_colour            yellow
_exptl_crystal_description       block
_cell_formula_units_Z            4
loop_
_atom_site_label
_atom_site_type_symbol
_atom_site_fract_x
_atom_site_fract_y
_atom_site_fract_z
O1 O 0.82622(17) 0.20208(15) 0.45109(4)
H1 H 0.7897 0.1941 0.4791
O2 O 0.59937(15) 0.56209(14) 0.61889(4)
N1 N 0.70317(15) 0.31562(16) 0.53187(4)
N2 N 0.54430(16) 0.28459(15) 0.65276(4)
N3 N 0.57847(16) 0.10544(15) 0.64115(4)
C1 C 0.84293(19) 0.3763(2) 0.43922(5)
C2 C 0.9151(2) 0.4189(2) 0.39533(5)
H2 H 0.9493 0.3258 0.3745
C3 C 0.9369(2) 0.5948(3) 0.38209(5)
H3 H 0.9851 0.6219 0.3520
C4 C 0.8893(2) 0.7330(2) 0.41223(5)
H4 H 0.9060 0.8541 0.4032
C5 C 0.8170(2) 0.6916(2) 0.45572(5)
H5 H 0.7835 0.7859 0.4763
C6 C 0.79201(18) 0.5143(2) 0.47015(5)
C7 C 0.72232(18) 0.47797(19) 0.51708(5)
H6 H 0.6905 0.5747 0.5371
C8 C 0.64276(18) 0.27697(18) 0.57751(5)
C9 C 0.59483(18) 0.39790(18) 0.61573(5)
C10 C 0.62785(18) 0.10627(19) 0.59399(5)
C11 C 0.6599(2) -0.0624(2) 0.56744(6)
H7 H 0.7196 -0.1491 0.5905
H8 H 0.7364 -0.0379 0.5410
H9 H 0.5450 -0.1116 0.5533
C12 C 0.4556(2) -0.0297(2) 0.65767(6)
H10 H 0.4565 -0.0240 0.6936
H11 H 0.4943 -0.1488 0.6481
H12 H 0.3339 -0.0067 0.6424
C13 C 0.53403(18) 0.33622(19) 0.70265(5)
C14 C 0.42768(19) 0.48233(19) 0.71214(5)
H13 H 0.3632 0.5453 0.6859
C15 C 0.4169(2) 0.5351(2) 0.76064(6)
H14 H 0.3453 0.6353 0.7675
C16 C 0.5096(2) 0.4428(2) 0.79906(5)
H15 H 0.5009 0.4793 0.8321
C17 C 0.6152(2) 0.2968(2) 0.78929(5)
H16 H 0.6780 0.2329 0.8157
C18 C 0.62912(19) 0.2439(2) 0.74096(5)
H17 H 0.7031 0.1455 0.7342
loop_
_geom_bond_atom_site_label_1
_geom_bond_atom_site_label_2
_geom_bond_site_symmetry_1
_geom_bond_site_symmetry_2
O1 H1 1_555 1_555
O2 C9 1_555 1_555
N1 C7 1_555 1_555
N2 N3 1_555 1_555
N3 C10 1_555 1_555
C1 O1 1_555 1_555
C2 C1 1_555 1_555
H2 C2 1_555 1_555
C3 C2 1_555 1_555
H3 C3 1_555 1_555
C4 C3 1_555 1_555
H4 C4 1_555 1_555
C5 C4 1_555 1_555
H5 C5 1_555 1_555
C6 C1 1_555 1_555
C7 C6 1_555 1_555
H6 C7 1_555 1_555
C8 N1 1_555 1_555
C9 N2 1_555 1_555
C10 C8 1_555 1_555
C11 C10 1_555 1_555
H7 C11 1_555 1_555
H8 C11 1_555 1_555
H9 C11 1_555 1_555
C12 N3 1_555 1_555
H10 C12 1_555 1_555
H11 C12 1_555 1_555
H12 C12 1_555 1_555
C13 N2 1_555 1_555
C14 C13 1_555 1_555
H13 C14 1_555 1_555
C15 C14 1_555 1_555
H14 C15 1_555 1_555
C16 C15 1_555 1_555
H15 C16 1_555 1_555
C17 C16 1_555 1_555
H16 C17 1_555 1_555
C18 C13 1_555 1_555
H17 C18 1_555 1_555
C5 C6 1_555 1_555
C8 C9 1_555 1_555
C17 C18 1_555 1_555

#END
