
#######################################################################
#
#                 Cambridge Crystallographic Data Centre
#                                CCDC 
#
#######################################################################
#
# If this CIF has been generated from an entry in the Cambridge 
# Structural Database, then it will include bibliographic, chemical, 
# crystal, experimental, refinement or atomic coordinate data resulting 
# from the CCDC's data processing and validation procedures.
#
#######################################################################

data_WOWZIT
_chemical_formula_moiety         'C21 H24 N2 Se1'
_chemical_name_systematic        
1,3-Dimesityl-1,3-dihydro-2H-imidazole-2-selenone
_symmetry_cell_setting           orthorhombic
_symmetry_space_group_name_H-M   'P b c n'
_symmetry_Int_Tables_number      60
_space_group_name_Hall           '-P 2n 2ab'
loop_
_symmetry_equiv_pos_site_id
_symmetry_equiv_pos_as_xyz
1 x,y,z
2 1/2-x,1/2-y,1/2+z
3 1/2+x,1/2-y,-z
4 -x,y,1/2-z
5 -x,-y,-z
6 1/2+x,1/2+y,1/2-z
7 1/2-x,1/2+y,z
8 x,-y,1/2+z
_cell_length_a                   16.043(2)
_cell_length_b                   7.3937(9)
_cell_length_c                   16.055(2)
_cell_angle_alpha                90
_cell_angle_beta                 90
_cell_angle_gamma                90
_cell_volume                     1904.4
_exptl_crystal_colour            yellow
_exptl_crystal_description       prism
_cell_formula_units_Z            4
_exptl_crystal_recrystallization_method chloroform/pentane
loop_
_atom_site_label
_atom_site_type_symbol
_atom_site_fract_x
_atom_site_fract_y
_atom_site_fract_z
Se1 Se 0.000 0.02035(9) 0.750
N1 N 0.0318(2) 0.3801(5) 0.6907(2)
C1 C 0.000 0.2686(9) 0.750
C2 C 0.0203(3) 0.5586(7) 0.7138(3)
C3 C 0.0737(3) 0.3210(6) 0.6159(2)
C4 C 0.0265(3) 0.2678(6) 0.5477(2)
C5 C 0.0694(3) 0.2126(6) 0.4773(3)
C6 C 0.1556(3) 0.2138(6) 0.4727(3)
C7 C 0.1999(3) 0.2716(7) 0.5424(3)
C8 C 0.1600(3) 0.3238(6) 0.6153(2)
C9 C -0.0671(3) 0.2711(6) 0.5490(3)
C10 C 0.1996(3) 0.1568(8) 0.3941(3)
C11 C 0.2088(3) 0.3798(9) 0.6914(3)
H1 H 0.03815 0.66219 0.68367
H2 H 0.03852 0.17237 0.43034
H3 H 0.25908 0.27535 0.54002
H4 H -0.08853 0.2152 0.49793
H5 H -0.08645 0.39655 0.55231
H6 H -0.08726 0.20359 0.59746
H7 H 0.20999 0.26316 0.35922
H8 H 0.16475 0.07048 0.36359
H9 H 0.25283 0.09949 0.40844
H10 H 0.19647 0.50633 0.70465
H11 H 0.26856 0.36638 0.68029
H12 H 0.19309 0.30291 0.73854
N1C N -0.0318(2) 0.3801(5) 0.8093(2)
C2C C -0.0203(3) 0.5586(7) 0.7862(3)
C3C C -0.0737(3) 0.3210(6) 0.8841(2)
C4C C -0.0265(3) 0.2678(6) 0.9523(2)
C5C C -0.0694(3) 0.2126(6) 1.0227(3)
C6C C -0.1556(3) 0.2138(6) 1.0273(3)
C7C C -0.1999(3) 0.2716(7) 0.9576(3)
C8C C -0.1600(3) 0.3238(6) 0.8847(2)
C9C C 0.0671(3) 0.2711(6) 0.9510(3)
C10C C -0.1996(3) 0.1568(8) 1.1059(3)
C11C C -0.2088(3) 0.3798(9) 0.8086(3)
H1C H -0.03815 0.66219 0.81633
H2C H -0.03852 0.17237 1.06966
H3C H -0.25908 0.27535 0.95998
H4C H 0.08853 0.2152 1.00207
H5C H 0.08645 0.39655 0.94769
H6C H 0.08726 0.20359 0.90254
H7C H -0.20999 0.26316 1.14078
H8C H -0.16475 0.07048 1.13641
H9C H -0.25283 0.09949 1.09156
H10C H -0.19647 0.50633 0.79535
H11C H -0.26856 0.36638 0.81971
H12C H -0.19309 0.30291 0.76146
loop_
_geom_bond_atom_site_label_1
_geom_bond_atom_site_label_2
_geom_bond_site_symmetry_1
_geom_bond_site_symmetry_2
Se1 C1 1_555 1_555
N1 C1 1_555 1_555
C1 N1C 1_555 1_555
C2 N1 1_555 1_555
C3 N1 1_555 1_555
C4 C3 1_555 1_555
C5 C4 1_555 1_555
C6 C5 1_555 1_555
C7 C6 1_555 1_555
C8 C3 1_555 1_555
C9 C4 1_555 1_555
C10 C6 1_555 1_555
C11 C8 1_555 1_555
H1 C2 1_555 1_555
H2 C5 1_555 1_555
H3 C7 1_555 1_555
H4 C9 1_555 1_555
H5 C9 1_555 1_555
H6 C9 1_555 1_555
H7 C10 1_555 1_555
H8 C10 1_555 1_555
H9 C10 1_555 1_555
H10 C11 1_555 1_555
H11 C11 1_555 1_555
H12 C11 1_555 1_555
N1C C2C 1_555 1_555
C2C C2 1_555 1_555
C3C N1C 1_555 1_555
C4C C3C 1_555 1_555
C5C C4C 1_555 1_555
C6C C5C 1_555 1_555
C7C C6C 1_555 1_555
C8C C3C 1_555 1_555
C9C C4C 1_555 1_555
C10C C6C 1_555 1_555
C11C C8C 1_555 1_555
H1C C2C 1_555 1_555
H2C C5C 1_555 1_555
H3C C7C 1_555 1_555
H4C C9C 1_555 1_555
H5C C9C 1_555 1_555
H6C C9C 1_555 1_555
H7C C10C 1_555 1_555
H8C C10C 1_555 1_555
H9C C10C 1_555 1_555
H10C C11C 1_555 1_555
H11C C11C 1_555 1_555
H12C C11C 1_555 1_555
C7 C8 1_555 1_555
C7C C8C 1_555 1_555

#END
