
#######################################################################
#
#                 Cambridge Crystallographic Data Centre
#                                CCDC 
#
#######################################################################
#
# If this CIF has been generated from an entry in the Cambridge 
# Structural Database, then it will include bibliographic, chemical, 
# crystal, experimental, refinement or atomic coordinate data resulting 
# from the CCDC's data processing and validation procedures.
#
#######################################################################

data_WOXJOK
_chemical_formula_moiety         'C22 H22 N4 O2 S1'
_chemical_name_systematic        
1'-methyl-2-(methylsulfanyl)-1-(pyridin-2-ylcarbonyl)-1,4a,5,6,7,7a-hexahydrospiro[cyclopenta[d]pyrimidine-4,3'-indol]-2'(1'H)-one
_symmetry_cell_setting           monoclinic
_symmetry_space_group_name_H-M   'P 21'
_symmetry_Int_Tables_number      4
_space_group_name_Hall           'P 2yb'
loop_
_symmetry_equiv_pos_site_id
_symmetry_equiv_pos_as_xyz
1 x,y,z
2 -x,1/2+y,-z
_cell_length_a                   10.363(3)
_cell_length_b                   9.318(2)
_cell_length_c                   11.453(4)
_cell_angle_alpha                90
_cell_angle_beta                 112.70(4)
_cell_angle_gamma                90
_cell_volume                     1020.26
_exptl_crystal_colour            colorless
_exptl_crystal_description       plate
_cell_formula_units_Z            2
loop_
_atom_site_label
_atom_site_type_symbol
_atom_site_fract_x
_atom_site_fract_y
_atom_site_fract_z
S1 S 0.01603(12) 0.91496(14) 0.21474(12)
O1 O 0.0463(4) 1.3843(5) 0.4461(3)
O2 O 0.2688(4) 0.9651(5) 0.2154(4)
N1 N -0.1702(4) 1.4841(5) 0.3407(4)
N2 N -0.0824(4) 1.1742(5) 0.2245(4)
N3 N 0.1538(4) 1.1682(5) 0.2355(4)
N4 N 0.4201(4) 1.2133(6) 0.4441(4)
C1 C -0.2789(5) 1.4713(6) 0.2208(5)
C2 C -0.4088(5) 1.5337(7) 0.1780(5)
H1 H -0.4349 1.5957 0.2286
C3 C -0.4991(6) 1.5004(7) 0.0561(6)
H2 H -0.5882 1.5404 0.0246
C4 C -0.4611(5) 1.4096(8) -0.0201(5)
H3 H -0.5250 1.3889 -0.1013
C5 C -0.3269(5) 1.3479(6) 0.0233(5)
H4 H -0.3002 1.2876 -0.0281
C6 C -0.2357(5) 1.3805(5) 0.1460(4)
C7 C -0.0871(5) 1.3307(6) 0.2191(5)
C8 C -0.0584(5) 1.3989(7) 0.3509(5)
C9 C -0.1785(7) 1.5674(8) 0.4444(5)
H5 H -0.2056 1.6640 0.4166
H6 H -0.0888 1.5680 0.5134
H7 H -0.2466 1.5253 0.4718
C10 C 0.0256(5) 1.1060(6) 0.2253(4)
C11 C 0.1604(5) 1.3267(6) 0.2411(5)
H8 H 0.1913 1.3587 0.3292
C12 C 0.0146(5) 1.3850(5) 0.1646(5)
H9 H -0.0146 1.3471 0.0784
C13 C 0.0420(6) 1.5469(6) 0.1593(6)
H10 H -0.0316 1.5920 0.0882
H11 H 0.0490 1.5945 0.2368
C14 C 0.1827(6) 1.5510(7) 0.1427(6)
H12 H 0.2440 1.6226 0.1982
H13 H 0.1679 1.5747 0.0560
C15 C 0.2481(5) 1.3996(8) 0.1770(6)
H14 H 0.2419 1.3476 0.1017
H15 H 0.3455 1.4058 0.2343
C16 C -0.1497(5) 0.8883(7) 0.2275(6)
H16 H -0.2203 0.9430 0.1631
H17 H -0.1436 0.9193 0.3094
H18 H -0.1738 0.7883 0.2167
C17 C 0.2737(5) 1.0862(6) 0.2569(5)
C18 C 0.4135(5) 1.1490(7) 0.3389(5)
C19 C 0.5278(6) 1.1231(8) 0.3090(7)
H19 H 0.5183 1.0771 0.2340
C20 C 0.6571(6) 1.1676(10) 0.3939(9)
H20 H 0.7367 1.1526 0.3767
C21 C 0.6671(7) 1.2336(9) 0.5032(8)
H21 H 0.7535 1.2634 0.5617
C22 C 0.5470(6) 1.2556(8) 0.5258(6)
H22 H 0.5541 1.3014 0.6002
loop_
_geom_bond_atom_site_label_1
_geom_bond_atom_site_label_2
_geom_bond_site_symmetry_1
_geom_bond_site_symmetry_2
S1 C10 1_555 1_555
O1 C8 1_555 1_555
O2 C17 1_555 1_555
N1 C1 1_555 1_555
N2 C7 1_555 1_555
N3 C10 1_555 1_555
N4 C18 1_555 1_555
C1 C2 1_555 1_555
C2 H1 1_555 1_555
C3 C2 1_555 1_555
H2 C3 1_555 1_555
C4 C3 1_555 1_555
H3 C4 1_555 1_555
C5 C4 1_555 1_555
H4 C5 1_555 1_555
C6 C1 1_555 1_555
C7 C6 1_555 1_555
C8 N1 1_555 1_555
C9 N1 1_555 1_555
H5 C9 1_555 1_555
H6 C9 1_555 1_555
H7 C9 1_555 1_555
C10 N2 1_555 1_555
C11 N3 1_555 1_555
H8 C11 1_555 1_555
C12 C7 1_555 1_555
H9 C12 1_555 1_555
C13 C12 1_555 1_555
H10 C13 1_555 1_555
H11 C13 1_555 1_555
C14 C13 1_555 1_555
H12 C14 1_555 1_555
H13 C14 1_555 1_555
C15 C11 1_555 1_555
H14 C15 1_555 1_555
H15 C15 1_555 1_555
C16 S1 1_555 1_555
H16 C16 1_555 1_555
H17 C16 1_555 1_555
H18 C16 1_555 1_555
C17 N3 1_555 1_555
C18 C17 1_555 1_555
C19 C18 1_555 1_555
H19 C19 1_555 1_555
C20 C19 1_555 1_555
H20 C20 1_555 1_555
C21 C20 1_555 1_555
H21 C21 1_555 1_555
C22 N4 1_555 1_555
H22 C22 1_555 1_555
C5 C6 1_555 1_555
C7 C8 1_555 1_555
C11 C12 1_555 1_555
C14 C15 1_555 1_555
C21 C22 1_555 1_555

#END
