
#######################################################################
#
#                 Cambridge Crystallographic Data Centre
#                                CCDC 
#
#######################################################################
#
# If this CIF has been generated from an entry in the Cambridge 
# Structural Database, then it will include bibliographic, chemical, 
# crystal, experimental, refinement or atomic coordinate data resulting 
# from the CCDC's data processing and validation procedures.
#
#######################################################################

data_WOYMOO
_chemical_formula_moiety         'C24 H20 N4 O2,C1 H4 O1'
_chemical_name_systematic        
'4-(((3-methyl-5-oxo-1-phenyl-1,5-dihydro-4H-pyrazol-4-ylidene)(phenyl)methyl)amino)benzamide methanol solvate'
_symmetry_cell_setting           triclinic
_symmetry_space_group_name_H-M   'P -1'
_symmetry_Int_Tables_number      2
_space_group_name_Hall           '-P 1'
loop_
_symmetry_equiv_pos_site_id
_symmetry_equiv_pos_as_xyz
1 x,y,z
2 -x,-y,-z
_cell_length_a                   7.3752(6)
_cell_length_b                   10.9275(9)
_cell_length_c                   14.5614(12)
_cell_angle_alpha                101.707(2)
_cell_angle_beta                 92.7690(10)
_cell_angle_gamma                98.5440(10)
_cell_volume                     1132.64
_exptl_crystal_colour            'light yellow'
_exptl_crystal_description       block
_cell_formula_units_Z            2
loop_
_atom_site_label
_atom_site_type_symbol
_atom_site_fract_x
_atom_site_fract_y
_atom_site_fract_z
N1 N 0.2937(5) 0.5161(3) 0.3126(2)
N2 N 0.2427(5) 0.4657(3) 0.3909(2)
N3 N 0.6936(5) 0.3035(3) 0.2243(3)
N4 N 1.3558(5) 0.1231(3) -0.0149(3)
H1 H 1.4451 0.0913 -0.0412
H2 H 1.3067 0.1782 -0.0379
O1 O 0.5018(4) 0.4865(3) 0.1967(2)
O2 O 1.3591(4) 0.0083(3) 0.0978(2)
C1 C 0.3499(6) 0.3825(4) 0.3989(3)
C2 C 0.4774(5) 0.3751(3) 0.3264(3)
C3 C 0.4355(6) 0.4630(4) 0.2701(3)
C4 C 0.3256(7) 0.3130(4) 0.4768(3)
H3 H 0.2190 0.3330 0.5082
H4 H 0.4323 0.3376 0.5208
H5 H 0.3100 0.2235 0.4514
C5 C 0.1917(6) 0.6052(4) 0.2844(3)
C6 C 0.2737(6) 0.6951(4) 0.2385(3)
H6 H 0.3948 0.6956 0.2234
C7 C 0.1754(7) 0.7847(4) 0.2150(3)
H7 H 0.2311 0.8457 0.1846
C8 C -0.0056(7) 0.7833(5) 0.2367(3)
H8 H -0.0721 0.8431 0.2209
C9 C -0.0856(7) 0.6933(5) 0.2816(4)
H9 H -0.2071 0.6925 0.2963
C10 C 0.0102(6) 0.6032(4) 0.3058(3)
H10 H -0.0462 0.5422 0.3361
C11 C 0.6106(5) 0.2962(3) 0.3033(3)
C12 C 0.6488(5) 0.2019(4) 0.3585(3)
C13 C 0.7413(6) 0.2386(4) 0.4475(3)
H11 H 0.7741 0.3241 0.4750
C14 C 0.7849(7) 0.1482(5) 0.4954(3)
H12 H 0.8479 0.1729 0.5548
C15 C 0.7349(8) 0.0223(5) 0.4551(4)
H13 H 0.7644 -0.0386 0.4870
C16 C 0.6413(7) -0.0144(4) 0.3677(4)
H14 H 0.6064 -0.1002 0.3414
C17 C 0.5985(6) 0.0735(4) 0.3186(3)
H15 H 0.5363 0.0475 0.2591
C18 C 1.2938(6) 0.0874(4) 0.0612(3)
C19 C 1.1361(5) 0.1444(3) 0.1031(3)
C20 C 1.0026(6) 0.1831(4) 0.0487(3)
H16 H 1.0117 0.1758 -0.0156
C21 C 0.8567(6) 0.2323(4) 0.0907(3)
H17 H 0.7671 0.2566 0.0542
C22 C 0.8437(5) 0.2455(3) 0.1862(3)
C23 C 0.9761(6) 0.2080(4) 0.2407(3)
H18 H 0.9692 0.2184 0.3053
C24 C 1.1188(6) 0.1549(4) 0.1982(3)
H19 H 1.2039 0.1260 0.2343
H20 H 0.661(5) 0.359(4) 0.192(3)
O3 O 0.6596(6) 0.6296(4) 0.0632(3)
H21 H 0.5941 0.5974 0.0987
C25 C 0.7769(10) 0.5462(6) 0.0251(5)
H22 H 0.8271 0.5715 -0.0291
H23 H 0.7089 0.4619 0.0068
H24 H 0.8751 0.5480 0.0713
loop_
_geom_bond_atom_site_label_1
_geom_bond_atom_site_label_2
_geom_bond_site_symmetry_1
_geom_bond_site_symmetry_2
N1 N2 1_555 1_555
N2 C1 1_555 1_555
N3 C11 1_555 1_555
N4 H1 1_555 1_555
H2 N4 1_555 1_555
O1 C3 1_555 1_555
O2 C18 1_555 1_555
C1 C2 1_555 1_555
C2 C3 1_555 1_555
C3 N1 1_555 1_555
C4 C1 1_555 1_555
H3 C4 1_555 1_555
H4 C4 1_555 1_555
H5 C4 1_555 1_555
C5 N1 1_555 1_555
C6 C5 1_555 1_555
H6 C6 1_555 1_555
C7 C6 1_555 1_555
H7 C7 1_555 1_555
C8 C7 1_555 1_555
H8 C8 1_555 1_555
C9 C8 1_555 1_555
H9 C9 1_555 1_555
C10 C5 1_555 1_555
H10 C10 1_555 1_555
C11 C2 1_555 1_555
C12 C11 1_555 1_555
C13 C12 1_555 1_555
H11 C13 1_555 1_555
C14 C13 1_555 1_555
H12 C14 1_555 1_555
C15 C14 1_555 1_555
H13 C15 1_555 1_555
C16 C15 1_555 1_555
H14 C16 1_555 1_555
C17 C12 1_555 1_555
H15 C17 1_555 1_555
C18 N4 1_555 1_555
C19 C18 1_555 1_555
C20 C19 1_555 1_555
H16 C20 1_555 1_555
C21 C20 1_555 1_555
H17 C21 1_555 1_555
C22 N3 1_555 1_555
C23 C22 1_555 1_555
H18 C23 1_555 1_555
C24 C19 1_555 1_555
H19 C24 1_555 1_555
H20 N3 1_555 1_555
O3 H21 1_555 1_555
C25 O3 1_555 1_555
H22 C25 1_555 1_555
H23 C25 1_555 1_555
H24 C25 1_555 1_555
C9 C10 1_555 1_555
C16 C17 1_555 1_555
C21 C22 1_555 1_555
C23 C24 1_555 1_555

#END
