
#######################################################################
#
#                 Cambridge Crystallographic Data Centre
#                                CCDC 
#
#######################################################################
#
# If this CIF has been generated from an entry in the Cambridge 
# Structural Database, then it will include bibliographic, chemical, 
# crystal, experimental, refinement or atomic coordinate data resulting 
# from the CCDC's data processing and validation procedures.
#
#######################################################################

data_WOYMII
_chemical_formula_moiety         'C25 H21 N3 O3,C1 H4 O1'
_chemical_name_systematic        
'(4-(((3-methyl-5-oxo-1-phenyl-1,5-dihydro-4H-pyrazol-4-ylidene)(phenyl)methyl)amino)phenyl)acetic acid methanol solvate'
_symmetry_cell_setting           triclinic
_symmetry_space_group_name_H-M   'P -1'
_symmetry_Int_Tables_number      2
_space_group_name_Hall           '-P 1'
loop_
_symmetry_equiv_pos_site_id
_symmetry_equiv_pos_as_xyz
1 x,y,z
2 -x,-y,-z
_cell_length_a                   10.1589(11)
_cell_length_b                   11.3338(12)
_cell_length_c                   11.6688(14)
_cell_angle_alpha                68.3220(10)
_cell_angle_beta                 67.3960(10)
_cell_angle_gamma                82.841(2)
_cell_volume                     1152.37
_exptl_crystal_colour            'light yellow'
_exptl_crystal_description       block
_cell_formula_units_Z            2
loop_
_atom_site_label
_atom_site_type_symbol
_atom_site_fract_x
_atom_site_fract_y
_atom_site_fract_z
N1 N 0.3181(2) 0.3281(2) 0.7493(2)
N2 N 0.5269(2) 0.5782(2) 0.8017(2)
N3 N 0.6671(2) 0.5421(2) 0.7475(2)
O1 O -0.0718(3) -0.1451(2) 0.6624(2)
H1 H -0.0523 -0.2205 0.6866
O2 O -0.0153(4) -0.1510(2) 0.8272(3)
O3 O 0.30102(19) 0.51251(18) 0.83957(19)
C1 C -0.0477(3) -0.0915(3) 0.7343(3)
C2 C -0.0627(3) 0.0496(3) 0.6840(4)
H2 H -0.1595 0.0704 0.7304
H3 H -0.0478 0.0778 0.5906
C3 C 0.0396(3) 0.1218(3) 0.7010(3)
C4 C 0.1494(3) 0.1951(3) 0.5918(3)
H4 H 0.1605 0.1989 0.5076
C5 C 0.2425(3) 0.2627(3) 0.6058(3)
H5 H 0.3149 0.3125 0.5313
C6 C 0.2283(3) 0.2564(2) 0.7298(3)
C7 C 0.1196(3) 0.1843(3) 0.8392(3)
H6 H 0.1084 0.1809 0.9234
C8 C 0.0270(3) 0.1170(3) 0.8238(3)
H7 H -0.0455 0.0674 0.8984
C9 C 0.6637(3) 0.4547(2) 0.7003(3)
C10 C 0.5207(3) 0.4283(2) 0.7212(2)
C11 C 0.4341(3) 0.5077(2) 0.7923(2)
C12 C 0.4960(3) 0.6689(2) 0.8648(2)
C13 C 0.3662(3) 0.7288(3) 0.8853(4)
H8 H 0.2996 0.7102 0.8572
C14 C 0.3365(4) 0.8161(3) 0.9475(4)
H9 H 0.2487 0.8557 0.9623
C15 C 0.4336(4) 0.8461(3) 0.9884(3)
H10 H 0.4118 0.9043 1.0318
C16 C 0.5614(4) 0.7896(3) 0.9643(3)
H11 H 0.6291 0.8111 0.9893
C17 C 0.5936(3) 0.7006(3) 0.9032(3)
H12 H 0.6820 0.6620 0.8883
C18 C 0.8004(3) 0.3963(3) 0.6392(3)
H13 H 0.8239 0.4236 0.5453
H14 H 0.7899 0.3055 0.6768
H15 H 0.8753 0.4223 0.6563
C19 C 0.4598(3) 0.3398(2) 0.6979(2)
C20 C 0.5420(3) 0.2568(2) 0.6240(3)
C21 C 0.5230(3) 0.1261(3) 0.6847(3)
H16 H 0.4622 0.0911 0.7727
C22 C 0.5944(4) 0.0482(3) 0.6142(4)
H17 H 0.5823 -0.0395 0.6550
C23 C 0.6830(4) 0.0995(3) 0.4844(4)
H18 H 0.7291 0.0466 0.4366
C24 C 0.7039(3) 0.2278(3) 0.4247(3)
H19 H 0.7655 0.2620 0.3369
C25 C 0.6345(3) 0.3067(3) 0.4936(3)
H20 H 0.6496 0.3941 0.4525
H21 H 0.273(3) 0.382(3) 0.800(3)
O4 O 0.9330(2) 0.6099(2) 0.7295(2)
H22 H 0.8597 0.5862 0.7302
C26 C 0.9651(4) 0.5241(4) 0.8393(4)
H23 H 0.9100 0.5444 0.9170
H24 H 1.0648 0.5309 0.8216
H25 H 0.9421 0.4390 0.8535
loop_
_geom_bond_atom_site_label_1
_geom_bond_atom_site_label_2
_geom_bond_site_symmetry_1
_geom_bond_site_symmetry_2
N1 C6 1_555 1_555
N2 N3 1_555 1_555
N3 C9 1_555 1_555
O1 H1 1_555 1_555
O2 C1 1_555 1_555
O3 C11 1_555 1_555
C1 O1 1_555 1_555
C2 C1 1_555 1_555
H2 C2 1_555 1_555
H3 C2 1_555 1_555
C3 C2 1_555 1_555
C4 C3 1_555 1_555
H4 C4 1_555 1_555
C5 C4 1_555 1_555
H5 C5 1_555 1_555
C6 C5 1_555 1_555
C7 C6 1_555 1_555
H6 C7 1_555 1_555
C8 C3 1_555 1_555
H7 C8 1_555 1_555
C9 C10 1_555 1_555
C10 C11 1_555 1_555
C11 N2 1_555 1_555
C12 N2 1_555 1_555
C13 C12 1_555 1_555
H8 C13 1_555 1_555
C14 C13 1_555 1_555
H9 C14 1_555 1_555
C15 C14 1_555 1_555
H10 C15 1_555 1_555
C16 C15 1_555 1_555
H11 C16 1_555 1_555
C17 C12 1_555 1_555
H12 C17 1_555 1_555
C18 C9 1_555 1_555
H13 C18 1_555 1_555
H14 C18 1_555 1_555
H15 C18 1_555 1_555
C19 N1 1_555 1_555
C20 C19 1_555 1_555
C21 C20 1_555 1_555
H16 C21 1_555 1_555
C22 C21 1_555 1_555
H17 C22 1_555 1_555
C23 C22 1_555 1_555
H18 C23 1_555 1_555
C24 C23 1_555 1_555
H19 C24 1_555 1_555
C25 C20 1_555 1_555
H20 C25 1_555 1_555
H21 N1 1_555 1_555
O4 H22 1_555 1_555
C26 O4 1_555 1_555
H23 C26 1_555 1_555
H24 C26 1_555 1_555
H25 C26 1_555 1_555
C7 C8 1_555 1_555
C10 C19 1_555 1_555
C16 C17 1_555 1_555
C24 C25 1_555 1_555

#END
