
#######################################################################
#
#                 Cambridge Crystallographic Data Centre
#                                CCDC 
#
#######################################################################
#
# If this CIF has been generated from an entry in the Cambridge 
# Structural Database, then it will include bibliographic, chemical, 
# crystal, experimental, refinement or atomic coordinate data resulting 
# from the CCDC's data processing and validation procedures.
#
#######################################################################

data_WOYMAA
_chemical_formula_moiety         'C25 H19 N3 O5,C2 H6 O1'
_chemical_name_systematic        
'5-(((3-methyl-5-oxo-1-phenyl-1,5-dihydro-4H-pyrazol-4-ylidene)(phenyl)methyl)amino)isophthalic acid ethanol solvate'
_symmetry_cell_setting           triclinic
_symmetry_space_group_name_H-M   'P -1'
_symmetry_Int_Tables_number      2
_space_group_name_Hall           '-P 1'
loop_
_symmetry_equiv_pos_site_id
_symmetry_equiv_pos_as_xyz
1 x,y,z
2 -x,-y,-z
_cell_length_a                   8.4482(7)
_cell_length_b                   10.4238(11)
_cell_length_c                   13.9303(12)
_cell_angle_alpha                86.458(2)
_cell_angle_beta                 77.2390(10)
_cell_angle_gamma                86.317(2)
_cell_volume                     1192.54
_exptl_crystal_colour            yellow
_exptl_crystal_description       block
_cell_formula_units_Z            2
loop_
_atom_site_label
_atom_site_type_symbol
_atom_site_fract_x
_atom_site_fract_y
_atom_site_fract_z
N1 N 0.6674(4) 0.5671(3) 0.5603(3)
N2 N 0.4355(4) 0.8359(3) 0.4052(2)
N3 N 0.3312(4) 0.8971(3) 0.4829(2)
O1 O 0.8697(5) 0.4686(4) 0.8787(2)
O2 O 1.0621(4) 0.3168(3) 0.8393(2)
H1 H 1.0710 0.3249 0.8960
O3 O 1.1392(4) 0.1149(3) 0.5342(2)
H2 H 1.1844 0.0624 0.4942
O4 O 1.0631(4) 0.2109(3) 0.4039(2)
O5 O 0.6248(3) 0.6614(3) 0.38623(18)
C1 C 0.9482(6) 0.3979(5) 0.8192(3)
C2 C 1.0618(5) 0.2062(4) 0.4893(3)
C3 C 0.9215(5) 0.3921(4) 0.7181(3)
C4 C 1.0016(5) 0.3008(4) 0.6548(3)
H3 H 1.0754 0.2405 0.6747
C5 C 0.9710(5) 0.2996(4) 0.5610(3)
C6 C 0.8591(5) 0.3889(4) 0.5333(3)
H4 H 0.8396 0.3886 0.4701
C7 C 0.7759(5) 0.4782(4) 0.5972(3)
C8 C 0.8098(5) 0.4807(4) 0.6897(3)
H5 H 0.7572 0.5423 0.7329
C9 C 0.5555(5) 0.6535(4) 0.6038(3)
C10 C 0.5107(5) 0.6539(4) 0.7128(3)
C11 C 0.5595(5) 0.7500(4) 0.7623(3)
H6 H 0.6153 0.8182 0.7272
C12 C 0.5251(6) 0.7443(5) 0.8636(3)
H7 H 0.5580 0.8086 0.8972
C13 C 0.4420(6) 0.6437(5) 0.9151(3)
H8 H 0.4188 0.6404 0.9837
C14 C 0.3934(6) 0.5488(5) 0.8670(3)
H9 H 0.3369 0.4810 0.9023
C15 C 0.4283(5) 0.5538(4) 0.7658(3)
H10 H 0.3959 0.4888 0.7328
C16 C 0.5275(5) 0.7375(4) 0.4381(3)
C17 C 0.4850(5) 0.7398(4) 0.5440(3)
C18 C 0.3607(5) 0.8410(4) 0.5640(3)
C19 C 0.2665(5) 0.8845(4) 0.6611(3)
H11 H 0.1801 0.9446 0.6510
H12 H 0.3372 0.9253 0.6939
H13 H 0.2218 0.8115 0.7010
C20 C 0.4147(5) 0.8623(4) 0.3076(3)
C21 C 0.2715(5) 0.9212(4) 0.2915(3)
H14 H 0.1895 0.9462 0.3443
C22 C 0.2508(6) 0.9424(4) 0.1965(3)
H15 H 0.1538 0.9816 0.1856
C23 C 0.3702(7) 0.9070(5) 0.1176(3)
H16 H 0.3543 0.9216 0.0538
C24 C 0.5136(7) 0.8498(5) 0.1336(3)
H17 H 0.5956 0.8256 0.0805
C25 C 0.5361(6) 0.8281(4) 0.2290(3)
H18 H 0.6337 0.7902 0.2398
H19 H 0.680(5) 0.569(4) 0.498(3)
O6 O 0.8861(4) 0.6766(4) 0.9831(2)
H20 H 0.8778 0.6047 0.9645
C26 C 0.9780(10) 0.7510(7) 0.9054(5)
H21 H 1.0619 0.6952 0.8673
H22 H 0.9076 0.7846 0.8624
C27 C 1.0515(9) 0.8537(7) 0.9347(5)
H23 H 0.9695 0.9114 0.9704
H24 H 1.1122 0.8988 0.8775
H25 H 1.1235 0.8216 0.9762
loop_
_geom_bond_atom_site_label_1
_geom_bond_atom_site_label_2
_geom_bond_site_symmetry_1
_geom_bond_site_symmetry_2
N1 C7 1_555 1_555
N2 N3 1_555 1_555
N3 C18 1_555 1_555
O1 C1 1_555 1_555
O2 H1 1_555 1_555
O3 H2 1_555 1_555
O4 C2 1_555 1_555
O5 C16 1_555 1_555
C1 O2 1_555 1_555
C2 O3 1_555 1_555
C3 C1 1_555 1_555
C4 C3 1_555 1_555
H3 C4 1_555 1_555
C5 C2 1_555 1_555
C6 C5 1_555 1_555
H4 C6 1_555 1_555
C7 C6 1_555 1_555
C8 C3 1_555 1_555
H5 C8 1_555 1_555
C9 N1 1_555 1_555
C10 C9 1_555 1_555
C11 C10 1_555 1_555
H6 C11 1_555 1_555
C12 C11 1_555 1_555
H7 C12 1_555 1_555
C13 C12 1_555 1_555
H8 C13 1_555 1_555
C14 C13 1_555 1_555
H9 C14 1_555 1_555
C15 C10 1_555 1_555
H10 C15 1_555 1_555
C16 N2 1_555 1_555
C17 C9 1_555 1_555
C18 C17 1_555 1_555
C19 C18 1_555 1_555
H11 C19 1_555 1_555
H12 C19 1_555 1_555
H13 C19 1_555 1_555
C20 N2 1_555 1_555
C21 C20 1_555 1_555
H14 C21 1_555 1_555
C22 C21 1_555 1_555
H15 C22 1_555 1_555
C23 C22 1_555 1_555
H16 C23 1_555 1_555
C24 C23 1_555 1_555
H17 C24 1_555 1_555
C25 C20 1_555 1_555
H18 C25 1_555 1_555
H19 N1 1_555 1_555
O6 H20 1_555 1_555
C26 O6 1_555 1_555
H21 C26 1_555 1_555
H22 C26 1_555 1_555
C27 C26 1_555 1_555
H23 C27 1_555 1_555
H24 C27 1_555 1_555
H25 C27 1_555 1_555
C4 C5 1_555 1_555
C7 C8 1_555 1_555
C14 C15 1_555 1_555
C16 C17 1_555 1_555
C24 C25 1_555 1_555

#END
