
#######################################################################
#
#                 Cambridge Crystallographic Data Centre
#                                CCDC 
#
#######################################################################
#
# If this CIF has been generated from an entry in the Cambridge 
# Structural Database, then it will include bibliographic, chemical, 
# crystal, experimental, refinement or atomic coordinate data resulting 
# from the CCDC's data processing and validation procedures.
#
#######################################################################

data_WOZGEZ
_chemical_formula_moiety         'C21 H17 Br1 N2 O3 S1'
_chemical_name_systematic        
5-((4-Bromophenyl)sulfonyl)-3,5,6,7-tetrahydro-5,11b-diazacyclohepta[1,2,3-jk]fluoren-1(2H)-one
_symmetry_cell_setting           monoclinic
_symmetry_space_group_name_H-M   'C 2/c'
_symmetry_Int_Tables_number      15
_space_group_name_Hall           '-C 2yn'
loop_
_symmetry_equiv_pos_site_id
_symmetry_equiv_pos_as_xyz
1 x,y,z
2 -x,y,1/2-z
3 1/2+x,1/2+y,z
4 1/2-x,1/2+y,1/2-z
5 -x,-y,-z
6 x,-y,1/2+z
7 1/2-x,1/2-y,-z
8 1/2+x,1/2-y,1/2+z
_cell_length_a                   13.5186(13)
_cell_length_b                   8.9191(9)
_cell_length_c                   30.525(3)
_cell_angle_alpha                90
_cell_angle_beta                 93.041(2)
_cell_angle_gamma                90
_cell_volume                     3675.33
_exptl_crystal_colour            green
_exptl_crystal_description       prismatic
_cell_formula_units_Z            8
loop_
_atom_site_label
_atom_site_type_symbol
_atom_site_fract_x
_atom_site_fract_y
_atom_site_fract_z
Br1 Br -0.37445(2) 0.12365(4) 0.27077(2)
S1 S 0.08487(4) 0.12994(6) 0.33088(2)
N1 N 0.13454(12) 0.52260(19) 0.49406(6)
N2 N 0.08901(13) 0.21815(19) 0.37813(6)
O1 O 0.13688(12) 0.76362(18) 0.51764(6)
O2 O 0.13791(13) 0.2194(2) 0.30139(6)
O3 O 0.11412(12) -0.02155(19) 0.33894(6)
C1 C 0.13564(15) 0.4484(2) 0.53468(7)
C2 C 0.14556(17) 0.5020(3) 0.57733(7)
H1 H 0.1492 0.6043 0.5832
C3 C 0.1498(2) 0.3976(3) 0.61076(8)
H2 H 0.1569 0.4304 0.6397
C4 C 0.14382(18) 0.2463(3) 0.60236(8)
H3 H 0.1476 0.1790 0.6257
C5 C 0.13226(16) 0.1920(3) 0.56000(8)
H4 H 0.1280 0.0895 0.5546
C6 C 0.12714(14) 0.2939(2) 0.52569(7)
C7 C 0.11893(14) 0.2754(2) 0.47911(7)
C8 C 0.12483(15) 0.4122(2) 0.46025(7)
C9 C 0.13400(15) 0.6756(2) 0.48703(7)
C10 C 0.12705(18) 0.7234(2) 0.44032(8)
H5 H 0.1606 0.8190 0.4379
H6 H 0.0578 0.7391 0.4315
C11 C 0.17055(18) 0.6143(2) 0.40867(8)
H7 H 0.2421 0.6135 0.4132
H8 H 0.1544 0.6468 0.3788
C12 C 0.13093(15) 0.4573(2) 0.41497(7)
C13 C 0.11642(16) 0.3699(2) 0.37976(7)
H9 H 0.1256 0.4153 0.3529
C14 C 0.03862(16) 0.1449(2) 0.41380(7)
H10 H 0.0169 0.0460 0.4042
H11 H -0.0198 0.2026 0.4201
C15 C 0.10419(17) 0.1297(2) 0.45547(8)
H12 H 0.0745 0.0582 0.4748
H13 H 0.1682 0.0906 0.4481
C16 C -0.04230(17) 0.1279(2) 0.31408(7)
C17 C -0.09638(18) 0.2589(3) 0.31507(8)
H14 H -0.0657 0.3480 0.3240
C18 C -0.19593(18) 0.2574(3) 0.30283(8)
H15 H -0.2334 0.3447 0.3038
C19 C -0.23853(19) 0.1250(2) 0.28930(8)
C20 C -0.18606(18) -0.0062(3) 0.28812(8)
H16 H -0.2169 -0.0948 0.2789
C21 C -0.08676(17) -0.0046(3) 0.30085(8)
H17 H -0.0499 -0.0926 0.3005
loop_
_geom_bond_atom_site_label_1
_geom_bond_atom_site_label_2
_geom_bond_site_symmetry_1
_geom_bond_site_symmetry_2
Br1 C19 1_555 1_555
S1 N2 1_555 1_555
N1 C1 1_555 1_555
N2 C13 1_555 1_555
O1 C9 1_555 1_555
O2 S1 1_555 1_555
O3 S1 1_555 1_555
C1 C2 1_555 1_555
C2 H1 1_555 1_555
C3 C2 1_555 1_555
H2 C3 1_555 1_555
C4 C3 1_555 1_555
H3 C4 1_555 1_555
C5 C4 1_555 1_555
H4 C5 1_555 1_555
C6 C1 1_555 1_555
C7 C6 1_555 1_555
C8 N1 1_555 1_555
C9 N1 1_555 1_555
C10 C9 1_555 1_555
H5 C10 1_555 1_555
H6 C10 1_555 1_555
C11 C10 1_555 1_555
H7 C11 1_555 1_555
H8 C11 1_555 1_555
C12 C8 1_555 1_555
C13 C12 1_555 1_555
H9 C13 1_555 1_555
C14 N2 1_555 1_555
H10 C14 1_555 1_555
H11 C14 1_555 1_555
C15 C7 1_555 1_555
H12 C15 1_555 1_555
H13 C15 1_555 1_555
C16 S1 1_555 1_555
C17 C16 1_555 1_555
H14 C17 1_555 1_555
C18 C17 1_555 1_555
H15 C18 1_555 1_555
C19 C18 1_555 1_555
C20 C19 1_555 1_555
H16 C20 1_555 1_555
C21 C16 1_555 1_555
H17 C21 1_555 1_555
C5 C6 1_555 1_555
C7 C8 1_555 1_555
C11 C12 1_555 1_555
C14 C15 1_555 1_555
C20 C21 1_555 1_555

#END
