
#######################################################################
#
#                 Cambridge Crystallographic Data Centre
#                                CCDC 
#
#######################################################################
#
# If this CIF has been generated from an entry in the Cambridge 
# Structural Database, then it will include bibliographic, chemical, 
# crystal, experimental, refinement or atomic coordinate data resulting 
# from the CCDC's data processing and validation procedures.
#
#######################################################################

data_WOZQAD
_chemical_name_common            
4-Deoxy-4-ethynyl-alpha-D-glucopyranosylacetylene
_chemical_formula_moiety         'C10 H12 O4'
_chemical_name_systematic        
2,6-Anhydro-3-ethynyl-3,7,8-trideoxy-D-glycero-L-gulo-oct-7-ynitol
_symmetry_cell_setting           orthorhombic
_symmetry_space_group_name_H-M   'P 21 21 21'
_symmetry_Int_Tables_number      19
_space_group_name_Hall           'P 2ac 2ab'
loop_
_symmetry_equiv_pos_site_id
_symmetry_equiv_pos_as_xyz
1 x,y,z
2 1/2-x,-y,1/2+z
3 -x,1/2+y,1/2-z
4 1/2+x,1/2-y,-z
_cell_length_a                   5.0578(15)
_cell_length_b                   12.834(5)
_cell_length_c                   14.450(4)
_cell_angle_alpha                90
_cell_angle_beta                 90
_cell_angle_gamma                90
_cell_volume                     937.976
_exptl_crystal_colour            colorless
_exptl_crystal_description       needle
_chemical_melting_point          127-128deg.C
_cell_formula_units_Z            4
_exptl_crystal_recrystallization_method 'ethyl acetate'
loop_
_atom_site_label
_atom_site_type_symbol
_atom_site_fract_x
_atom_site_fract_y
_atom_site_fract_z
C1 C 0.8664(6) 1.0401(2) 0.36213(15)
H1 H 0.683(13) 1.0878(36) 0.3615(25)
C2 C 0.8273(5) 0.9432(2) 0.42391(14)
H2 H 0.6581(80) 0.9002(23) 0.4166(24)
C3 C 1.0534(5) 0.8660(2) 0.41332(14)
H3 H 1.2090(87) 0.8958(22) 0.4377(20)
C4 C 1.0949(5) 0.8422(2) 0.30954(14)
H4 H 0.8996(75) 0.7982(22) 0.2915(20)
C5 C 1.1386(5) 0.9440(2) 0.2569(2)
H5 H 1.3094(95) 0.9825(26) 0.2896(22)
C6 C 1.1643(5) 0.9247(2) 0.15305(15)
H6 H 0.9970(86) 0.8900(24) 0.1357(21)
H7 H 1.3278(80) 0.8754(26) 0.1551(20)
C7 C 1.3136(5) 0.7676(2) 0.29940(14)
C8 C 1.4854(6) 0.7060(2) 0.2967(2)
H8 H 1.6148(79) 0.6597(21) 0.3018(18)
C9 C 1.0746(6) 1.1106(2) 0.3984(2)
C10 C 1.2338(7) 1.1705(2) 0.4277(2)
H9 H 1.3505(82) 1.2218(24) 0.4470(19)
O1 O 0.9097(4) 1.00957(12) 0.26851(10)
O2 O 0.7871(4) 0.97279(13) 0.51805(10)
H10 H 0.939(15) 1.0017(51) 0.5610(39)
O3 O 0.9906(4) 0.77492(13) 0.46332(12)
H11 H 1.129(11) 0.7497(33) 0.4793(25)
O4 O 1.2118(4) 1.01987(12) 0.10479(10)
H12 H 1.0840(93) 1.0570(29) 0.0659(27)
loop_
_geom_bond_atom_site_label_1
_geom_bond_atom_site_label_2
_geom_bond_site_symmetry_1
_geom_bond_site_symmetry_2
C1 H1 1_555 1_555
C2 C1 1_555 1_555
H2 C2 1_555 1_555
C3 C2 1_555 1_555
H3 C3 1_555 1_555
C4 C3 1_555 1_555
H4 C4 1_555 1_555
C5 C4 1_555 1_555
H5 C5 1_555 1_555
C6 C5 1_555 1_555
H6 C6 1_555 1_555
H7 C6 1_555 1_555
C7 C4 1_555 1_555
C8 C7 1_555 1_555
H8 C8 1_555 1_555
C9 C1 1_555 1_555
C10 C9 1_555 1_555
H9 C10 1_555 1_555
O1 C1 1_555 1_555
O2 C2 1_555 1_555
H10 O2 1_555 1_555
O3 C3 1_555 1_555
H11 O3 1_555 1_555
O4 C6 1_555 1_555
H12 O4 1_555 1_555
C5 O1 1_555 1_555

#END
