
#######################################################################
#
#                 Cambridge Crystallographic Data Centre
#                                CCDC 
#
#######################################################################
#
# If this CIF has been generated from an entry in the Cambridge 
# Structural Database, then it will include bibliographic, chemical, 
# crystal, experimental, refinement or atomic coordinate data resulting 
# from the CCDC's data processing and validation procedures.
#
#######################################################################

data_WUBDEC
_chemical_formula_moiety         'C18 H18 N4'
_chemical_name_systematic        1,4-bis(Benzimidazol-2-yl)butane
_symmetry_cell_setting           orthorhombic
_symmetry_space_group_name_H-M   'P b c a'
_symmetry_Int_Tables_number      61
_space_group_name_Hall           '-P 2ac 2ab'
loop_
_symmetry_equiv_pos_site_id
_symmetry_equiv_pos_as_xyz
1 x,y,z
2 1/2-x,-y,1/2+z
3 -x,1/2+y,1/2-z
4 1/2+x,1/2-y,-z
5 -x,-y,-z
6 1/2+x,y,1/2-z
7 x,1/2-y,1/2+z
8 1/2-x,1/2+y,z
_cell_length_a                   8.793(5)
_cell_length_b                   9.366(5)
_cell_length_c                   17.881(10)
_cell_angle_alpha                90
_cell_angle_beta                 90
_cell_angle_gamma                90
_cell_volume                     1472.59
_exptl_crystal_colour            purple
_exptl_crystal_description       block
_cell_formula_units_Z            4
_exptl_crystal_recrystallization_method ethanol
loop_
_atom_site_label
_atom_site_type_symbol
_atom_site_fract_x
_atom_site_fract_y
_atom_site_fract_z
N1 N 0.19151(12) 0.43457(11) 0.07042(6)
H1 H 0.241 0.3582 0.0594
N2 N 0.11986(12) 0.66223(11) 0.06746(6)
C1 C 0.08017(14) 0.44761(13) 0.12406(7)
C2 C 0.01507(16) 0.35052(14) 0.17258(8)
H2 H 0.0466 0.2558 0.174
C3 C -0.09861(18) 0.40031(17) 0.21875(8)
H3 H -0.1444 0.338 0.2524
C4 C -0.14626(18) 0.54169(16) 0.21612(8)
H4 H -0.2244 0.5716 0.2475
C5 C -0.08006(16) 0.63847(15) 0.16802(8)
H5 H -0.112 0.7331 0.1668
C6 C 0.03555(14) 0.59065(13) 0.12148(7)
C7 C 0.20861(14) 0.56470(13) 0.03810(7)
C8 C 0.30912(15) 0.58992(15) -0.02747(8)
H6 H 0.3451 0.6877 -0.0257
H7 H 0.2492 0.5794 -0.0727
C9 C 0.44584(15) 0.49136(14) -0.03266(7)
H8 H 0.50000 0.5108 -0.0788
H9 H 0.4108 0.3932 -0.0345
C9D C 0.55416(15) 0.50864(14) 0.03266(7)
C8D C 0.69088(15) 0.41008(15) 0.02747(8)
C7D C 0.79139(14) 0.43530(13) -0.03810(7)
N1D N 0.80849(12) 0.56543(11) -0.07042(6)
H1D H 0.759 0.6418 -0.0594
C1D C 0.91983(14) 0.55239(13) -0.12406(7)
C2D C 0.98493(16) 0.64948(14) -0.17258(8)
H2D H 0.9534 0.7442 -0.174
C3D C 1.09861(18) 0.59969(17) -0.21875(8)
H3D H 1.1444 0.662 -0.2524
C4D C 1.14626(18) 0.45831(16) -0.21612(8)
H4D H 1.2244 0.4284 -0.2475
C5D C 1.08006(16) 0.36153(15) -0.16802(8)
H5D H 1.112 0.2669 -0.1668
C6D C 0.96445(14) 0.40935(13) -0.12148(7)
N2D N 0.88014(12) 0.33777(11) -0.06746(6)
H6D H 0.6549 0.3123 0.0257
H7D H 0.7508 0.4206 0.0727
H8D H 0.50000 0.4892 0.0788
H9D H 0.5892 0.6068 0.0345
loop_
_geom_bond_atom_site_label_1
_geom_bond_atom_site_label_2
_geom_bond_site_symmetry_1
_geom_bond_site_symmetry_2
N1 H1 1_555 1_555
N2 C6 1_555 1_555
C1 N1 1_555 1_555
C2 C1 1_555 1_555
H2 C2 1_555 1_555
C3 C2 1_555 1_555
H3 C3 1_555 1_555
C4 C3 1_555 1_555
H4 C4 1_555 1_555
C5 C4 1_555 1_555
H5 C5 1_555 1_555
C6 C1 1_555 1_555
C7 N1 1_555 1_555
C8 C7 1_555 1_555
H6 C8 1_555 1_555
H7 C8 1_555 1_555
C9 C8 1_555 1_555
H8 C9 1_555 1_555
H9 C9 1_555 1_555
C9D C9 1_555 1_555
C8D C9D 1_555 1_555
C7D C8D 1_555 1_555
N1D C7D 1_555 1_555
H1D N1D 1_555 1_555
C1D N1D 1_555 1_555
C2D C1D 1_555 1_555
H2D C2D 1_555 1_555
C3D C2D 1_555 1_555
H3D C3D 1_555 1_555
C4D C3D 1_555 1_555
H4D C4D 1_555 1_555
C5D C4D 1_555 1_555
H5D C5D 1_555 1_555
C6D C1D 1_555 1_555
N2D C7D 1_555 1_555
H6D C8D 1_555 1_555
H7D C8D 1_555 1_555
H8D C9D 1_555 1_555
H9D C9D 1_555 1_555
N2 C7 1_555 1_555
C5 C6 1_555 1_555
C5D C6D 1_555 1_555
C6D N2D 1_555 1_555

#END
