
#######################################################################
#
#                 Cambridge Crystallographic Data Centre
#                                CCDC 
#
#######################################################################
#
# If this CIF has been generated from an entry in the Cambridge 
# Structural Database, then it will include bibliographic, chemical, 
# crystal, experimental, refinement or atomic coordinate data resulting 
# from the CCDC's data processing and validation procedures.
#
#######################################################################

data_WUBHIK
_chemical_formula_moiety         'C17 H14 O3'
_chemical_name_systematic        10-Acetonyl-10-hydroxyphenanthren-9(10H)-one
_symmetry_cell_setting           orthorhombic
_symmetry_space_group_name_H-M   'P c a 21'
_symmetry_Int_Tables_number      29
_space_group_name_Hall           'P 2c -2ac'
loop_
_symmetry_equiv_pos_site_id
_symmetry_equiv_pos_as_xyz
1 x,y,z
2 -x,-y,1/2+z
3 1/2+x,-y,z
4 1/2-x,y,1/2+z
_cell_length_a                   9.2240(8)
_cell_length_b                   15.2406(9)
_cell_length_c                   9.2898(8)
_cell_angle_alpha                90
_cell_angle_beta                 90
_cell_angle_gamma                90
_cell_volume                     1305.95
_exptl_crystal_colour            colorless
_exptl_crystal_description       needle
_chemical_melting_point          340K
_cell_formula_units_Z            4
_exptl_crystal_recrystallization_method 'acetone-petroleum ether'
loop_
_atom_site_label
_atom_site_type_symbol
_atom_site_fract_x
_atom_site_fract_y
_atom_site_fract_z
O1 O 0.0501(3) 0.37416(18) 0.2867(3)
H1 H 0.1133 0.4119 0.2844
O2 O 0.3128(3) 0.31552(18) 0.3639(4)
O3 O 0.2477(4) 0.46586(17) 0.6171(4)
C1 C 0.0604(4) 0.3271(2) 0.4160(4)
C2 C 0.2106(4) 0.2861(2) 0.4311(5)
C3 C 0.2247(4) 0.2131(2) 0.5344(4)
C4 C 0.3618(4) 0.1933(3) 0.5897(4)
H2 H 0.4421 0.2259 0.5614
C5 C 0.3778(6) 0.1253(3) 0.6866(5)
H3 H 0.4689 0.1114 0.7227
C6 C 0.2576(6) 0.0780(3) 0.7294(5)
H4 H 0.2682 0.0326 0.7954
C7 C 0.1212(5) 0.0974(3) 0.6754(5)
H5 H 0.0412 0.0656 0.7067
C8 C 0.1031(5) 0.1645(2) 0.5740(4)
C9 C -0.0384(4) 0.1817(2) 0.5047(4)
C10 C -0.1540(5) 0.1219(3) 0.5120(5)
H6 H -0.1433 0.0704 0.5648
C11 C -0.2837(5) 0.1384(3) 0.4417(6)
H7 H -0.3601 0.0989 0.4500
C12 C -0.3002(4) 0.2136(3) 0.3592(6)
H8 H -0.3872 0.2245 0.3118
C13 C -0.1874(4) 0.2718(3) 0.3481(5)
H9 H -0.1980 0.3218 0.2917
C14 C -0.0569(4) 0.2572(2) 0.4199(5)
C15 C 0.0355(4) 0.3887(2) 0.5472(5)
H10 H -0.0644 0.4085 0.5461
H11 H 0.0500 0.3553 0.6349
C16 C 0.1340(4) 0.4684(2) 0.5506(4)
C17 C 0.0901(5) 0.5475(3) 0.4704(6)
H12 H 0.1597 0.5933 0.4862
H13 H -0.0035 0.5665 0.5032
H14 H 0.0854 0.5342 0.3695
loop_
_geom_bond_atom_site_label_1
_geom_bond_atom_site_label_2
_geom_bond_site_symmetry_1
_geom_bond_site_symmetry_2
O1 H1 1_555 1_555
O2 C2 1_555 1_555
O3 C16 1_555 1_555
C1 O1 1_555 1_555
C2 C1 1_555 1_555
C3 C2 1_555 1_555
C4 C3 1_555 1_555
H2 C4 1_555 1_555
C5 C4 1_555 1_555
H3 C5 1_555 1_555
C6 C5 1_555 1_555
H4 C6 1_555 1_555
C7 C6 1_555 1_555
H5 C7 1_555 1_555
C8 C3 1_555 1_555
C9 C8 1_555 1_555
C10 C9 1_555 1_555
H6 C10 1_555 1_555
C11 C10 1_555 1_555
H7 C11 1_555 1_555
C12 C11 1_555 1_555
H8 C12 1_555 1_555
C13 C12 1_555 1_555
H9 C13 1_555 1_555
C14 C1 1_555 1_555
C15 C1 1_555 1_555
H10 C15 1_555 1_555
H11 C15 1_555 1_555
C16 C15 1_555 1_555
C17 C16 1_555 1_555
H12 C17 1_555 1_555
H13 C17 1_555 1_555
H14 C17 1_555 1_555
C7 C8 1_555 1_555
C9 C14 1_555 1_555
C13 C14 1_555 1_555

#END
