
#######################################################################
#
#                 Cambridge Crystallographic Data Centre
#                                CCDC 
#
#######################################################################
#
# If this CIF has been generated from an entry in the Cambridge 
# Structural Database, then it will include bibliographic, chemical, 
# crystal, experimental, refinement or atomic coordinate data resulting 
# from the CCDC's data processing and validation procedures.
#
#######################################################################

data_WUCHEJ
_chemical_formula_moiety         'C114 H60 S15,0.25(C1 H2 Cl2)'
_chemical_name_systematic        
'dodecakis(phenylthio)-tri-sulfur-annulated-hexa-peri-hexabenzocoronene dichloromethane solvate'
_symmetry_cell_setting           monoclinic
_symmetry_space_group_name_H-M   'P 21/c'
_symmetry_Int_Tables_number      14
_space_group_name_Hall           '-P 2ybc'
loop_
_symmetry_equiv_pos_site_id
_symmetry_equiv_pos_as_xyz
1 x,y,z
2 -x,1/2+y,1/2-z
3 -x,-y,-z
4 x,1/2-y,1/2+z
_cell_length_a                   12.0459(5)
_cell_length_b                   35.1058(12)
_cell_length_c                   22.9434(7)
_cell_angle_alpha                90
_cell_angle_beta                 99.446(3)
_cell_angle_gamma                90
_cell_volume                     9570.77
_cell_formula_units_Z            4
loop_
_atom_site_label
_atom_site_type_symbol
_atom_site_fract_x
_atom_site_fract_y
_atom_site_fract_z
S1 S 0.60053(16) 0.32197(6) 0.13034(9)
S2 S 0.09444(14) 0.23846(5) 0.44322(8)
S3 S 0.25304(14) 0.18356(5) 0.24427(8)
S4 S -0.06506(15) 0.38373(6) 0.48562(9)
S5 S 0.61321(15) 0.22597(5) 0.15550(8)
S6 S 0.15061(15) 0.16199(5) 0.35566(8)
S7 S 0.49003(14) 0.19633(5) 0.25721(8)
S8 S 0.58497(19) 0.47830(6) 0.17535(10)
S9 S 0.13279(16) 0.43105(6) 0.53916(8)
S10 S 0.21153(19) 0.53046(6) 0.35856(9)
S11 S 0.12922(16) 0.51851(6) 0.49229(9)
S12 S 0.6958(2) 0.41451(7) 0.11255(12)
S13 S -0.06474(15) 0.29705(6) 0.51844(9)
S14 S 0.3569(2) 0.50811(6) 0.14096(10)
S15 S 0.3052(2) 0.56955(6) 0.23895(11)
C1 C 0.2011(5) 0.20889(18) 0.3490(3)
C2 C 0.1727(5) 0.2390(2) 0.3848(3)
C3 C 0.0937(5) 0.28874(19) 0.4458(3)
C4 C 0.1997(5) 0.41857(19) 0.3743(3)
C5 C 0.0409(6) 0.3537(2) 0.4652(3)
C6 C 0.1497(5) 0.40959(19) 0.4247(3)
C7 C 0.1397(5) 0.4409(2) 0.4638(3)
C8 C 0.1531(6) 0.47916(19) 0.4473(3)
C9 C 0.1863(6) 0.4870(2) 0.3923(3)
C10 C 0.2657(6) 0.5064(2) 0.3016(3)
C11 C 0.3066(7) 0.5196(2) 0.2515(4)
C12 C 0.3454(7) 0.4933(2) 0.2131(3)
C13 C 0.3625(6) 0.45359(19) 0.2283(3)
C14 C 0.4294(6) 0.4257(2) 0.2017(3)
C15 C 0.5196(6) 0.4327(2) 0.1703(3)
C16 C 0.5752(6) 0.4032(2) 0.1438(3)
C17 C 0.5442(6) 0.3652(2) 0.1514(3)
C18 C 0.5172(6) 0.2955(2) 0.1723(3)
C19 C 0.5209(5) 0.2568(2) 0.1862(3)
C20 C 0.4576(5) 0.24298(18) 0.2288(3)
C21 C 0.6749(7) 0.2328(2) 0.3228(3)
H1 H 0.6268 0.2535 0.3280
C22 C 0.2583(6) 0.2180(2) 0.3017(3)
C23 C 0.2049(5) 0.27532(18) 0.3733(3)
C24 C 0.1613(5) 0.30350(19) 0.4075(3)
C25 C 0.1772(5) 0.3421(2) 0.3998(3)
C26 C 0.1231(5) 0.3695(2) 0.4324(3)
C27 C 0.2136(6) 0.45625(19) 0.3591(3)
C28 C 0.2594(6) 0.4672(2) 0.3091(3)
C29 C 0.3084(5) 0.44067(19) 0.2752(3)
C30 C 0.2990(5) 0.40197(19) 0.2908(3)
C31 C 0.4075(5) 0.38695(19) 0.2133(3)
C32 C 0.4628(5) 0.35839(18) 0.1871(3)
C33 C 0.4501(5) 0.3190(2) 0.1997(3)
C34 C 0.3835(5) 0.30608(19) 0.2401(3)
C35 C 0.3795(5) 0.26647(19) 0.2531(3)
C36 C 0.3051(5) 0.25455(18) 0.2949(3)
C37 C 0.2681(5) 0.28441(18) 0.3289(3)
C38 C 0.2825(5) 0.32409(18) 0.3191(3)
C39 C 0.2384(5) 0.3524(2) 0.3535(3)
C40 C 0.2439(5) 0.39083(19) 0.3385(3)
C41 C 0.3442(6) 0.3742(2) 0.2576(3)
C42 C 0.3333(5) 0.3352(2) 0.2715(3)
C43 C 0.1856(6) 0.1534(2) 0.4327(3)
C44 C 0.2850(7) 0.1652(2) 0.4665(4)
H2 H 0.3362 0.1801 0.4487
C45 C 0.3116(9) 0.1559(3) 0.5255(4)
H3 H 0.3782 0.1655 0.5487
C46 C 0.2403(11) 0.1323(4) 0.5503(5)
H4 H 0.2589 0.1249 0.5905
C47 C 0.1414(12) 0.1197(4) 0.5163(5)
H5 H 0.0923 0.1035 0.5335
C48 C 0.1134(9) 0.1302(3) 0.4578(4)
H6 H 0.0450 0.1217 0.4350
C49 C 0.0160(6) 0.2606(2) 0.5601(3)
C50 C 0.1266(7) 0.2663(2) 0.5866(3)
H7 H 0.1637 0.2896 0.5810
C51 C 0.1822(7) 0.2380(3) 0.6211(4)
H8 H 0.2587 0.2415 0.6386
C52 C 0.1282(9) 0.2053(3) 0.6301(5)
H9 H 0.1674 0.1859 0.6542
C53 C 0.0194(9) 0.1995(3) 0.6055(5)
H10 H -0.0177 0.1767 0.6136
C54 C -0.0377(8) 0.2267(3) 0.5688(4)
H11 H -0.1127 0.2222 0.5497
C55 C -0.1879(4) 0.3639(2) 0.4426(3)
C56 C -0.1944(6) 0.3513(2) 0.3847(3)
H12 H -0.1282 0.3499 0.3673
C57 C -0.2976(8) 0.3407(2) 0.3524(3)
H13 H -0.3021 0.3321 0.3129
C58 C -0.3944(5) 0.3428(3) 0.3780(5)
H14 H -0.4650 0.3356 0.3559
C59 C -0.3879(5) 0.3555(3) 0.4359(6)
H15 H -0.4540 0.3569 0.4533
C60 C -0.2846(6) 0.3660(3) 0.4682(4)
H16 H -0.2802 0.3747 0.5077
C61 C 0.2617(6) 0.4054(2) 0.5588(3)
C62 C 0.2581(8) 0.3717(2) 0.5882(4)
H17 H 0.1882 0.3614 0.5945
C63 C 0.3569(11) 0.3531(3) 0.6086(4)
H18 H 0.3550 0.3300 0.6298
C64 C 0.4589(11) 0.3672(3) 0.5988(6)
H19 H 0.5265 0.3537 0.6124
C65 C 0.4615(9) 0.4004(3) 0.5696(7)
H20 H 0.5315 0.4103 0.5625
C66 C 0.3639(7) 0.4203(3) 0.5499(5)
H21 H 0.3668 0.4441 0.5305
C67 C 0.2591(7) 0.5232(3) 0.5380(4)
C68 C 0.3621(8) 0.5253(3) 0.5183(4)
H22 H 0.3650 0.5238 0.4773
C69 C 0.4607(7) 0.5297(4) 0.5587(7)
H23 H 0.5311 0.5312 0.5452
C70 C 0.4565(10) 0.5320(5) 0.6187(6)
H24 H 0.5239 0.5350 0.6463
C71 C 0.3535(13) 0.5299(5) 0.6385(4)
H25 H 0.3506 0.5314 0.6795
C72 C 0.2549(9) 0.5255(4) 0.5981(4)
H26 H 0.1845 0.5240 0.6116
C73 C 0.2177(5) 0.5152(2) 0.1126(3)
C74 C 0.1957(7) 0.5432(2) 0.0694(3)
H27 H 0.2559 0.5575 0.0584
C75 C 0.0857(8) 0.5502(3) 0.0423(4)
H28 H 0.0707 0.5693 0.0128
C76 C -0.0023(6) 0.5292(3) 0.0585(4)
H29 H -0.0775 0.5340 0.0400
C77 C 0.0197(6) 0.5012(3) 0.1016(4)
H30 H -0.0404 0.4868 0.1126
C78 C 0.1297(7) 0.4942(2) 0.1287(3)
H31 H 0.1448 0.4751 0.1582
C79 C 0.7135(9) 0.4719(4) 0.2201(6)
C80 C 0.7306(14) 0.4448(4) 0.2649(7)
H32 H 0.6717 0.4279 0.2702
C81 C 0.8340(17) 0.4426(6) 0.3019(8)
H33 H 0.8457 0.4241 0.3325
C82 C 0.9203(11) 0.4674(7) 0.2941(9)
H34 H 0.9910 0.4659 0.3195
C83 C 0.9032(10) 0.4945(5) 0.2494(9)
H35 H 0.9621 0.5115 0.2441
C84 C 0.7998(13) 0.4967(4) 0.2123(7)
H36 H 0.7880 0.5152 0.1817
C85 C 0.5709(6) 0.2348(2) 0.0794(3)
C86 C 0.4603(6) 0.2386(3) 0.0533(4)
H37 H 0.4031 0.2376 0.0772
C87 C 0.4304(7) 0.2438(3) -0.0070(4)
H38 H 0.3534 0.2461 -0.0242
C88 C 0.5122(10) 0.2456(4) -0.0415(4)
H39 H 0.4924 0.2499 -0.0828
C89 C 0.6219(10) 0.2413(5) -0.0169(5)
H40 H 0.6780 0.2417 -0.0416
C90 C 0.6540(7) 0.2364(3) 0.0441(4)
H41 H 0.7312 0.2342 0.0610
C91 C 0.6847(7) 0.3848(2) 0.0489(4)
C92 C 0.5876(8) 0.3791(3) 0.0108(4)
H42 H 0.5192 0.3900 0.0184
C93 C 0.5887(9) 0.3574(3) -0.0395(4)
H43 H 0.5206 0.3524 -0.0657
C94 C 0.6883(12) 0.3430(4) -0.0514(5)
H44 H 0.6892 0.3288 -0.0866
C95 C 0.7847(11) 0.3489(3) -0.0138(5)
H45 H 0.8532 0.3386 -0.0223
C96 C 0.7847(8) 0.3697(3) 0.0369(4)
H46 H 0.8528 0.3737 0.0636
C97 C 0.6335(5) 0.2018(2) 0.2888(3)
C98 C 0.7055(6) 0.1719(2) 0.2818(3)
H47 H 0.6772 0.1507 0.2582
C99 C 0.8172(6) 0.1720(2) 0.3081(3)
H48 H 0.8650 0.1512 0.3029
C100 C 0.8577(7) 0.2029(3) 0.3420(4)
H49 H 0.9343 0.2035 0.3605
C101 C 0.7861(7) 0.2334(3) 0.3492(4)
H50 H 0.8147 0.2547 0.3724
C102 C -0.0447(7) 0.1416(3) 0.1675(4)
H51 H -0.0711 0.1179 0.1508
C103 C 0.0665(6) 0.1455(2) 0.1935(4)
H52 H 0.1163 0.1244 0.1951
C104 C 0.1055(6) 0.1805(2) 0.2174(3)
C105 C 0.0314(6) 0.2107(2) 0.2156(3)
H53 H 0.0562 0.2346 0.2320
C106 C -0.0796(7) 0.2054(3) 0.1898(3)
H54 H -0.1307 0.2261 0.1889
C107 C -0.1176(7) 0.1720(3) 0.1658(4)
H55 H -0.1940 0.1694 0.1479
C108 C 0.4768(10) 0.5957(3) 0.1849(5)
H56 H 0.4194 0.6044 0.1545
C109 C 0.4492(9) 0.5772(2) 0.2346(4)
C110 C 0.5338(10) 0.5640(3) 0.2774(5)
H57 H 0.5144 0.5507 0.3103
C111 C 0.6467(11) 0.5693(3) 0.2739(6)
H58 H 0.7038 0.5606 0.3045
C112 C 0.6740(11) 0.5877(3) 0.2247(6)
H59 H 0.7507 0.5912 0.2210
C113 C 0.0322(5) 0.3145(2) 0.4748(3)
C114 C 0.5893(11) 0.6011(3) 0.1808(6)
H60 H 0.6088 0.6140 0.1475
Cl1 Cl 0.9533(15) 0.3114(5) 0.2618(8)
Cl2 Cl 0.9996(18) 0.3802(6) 0.2226(9)
C115 C 0.893(3) 0.3508(11) 0.230(3)
H61 H 0.8488 0.3447 0.1905
H62 H 0.8425 0.3625 0.2545
C116? C 0.2772(19) 0.5258(9) 0.5338(13)
C117? C 0.330(2) 0.5567(8) 0.5120(11)
H63? H 0.2929 0.5703 0.4785
C118? C 0.437(2) 0.5677(7) 0.5391(12)
H64? H 0.4729 0.5888 0.5242
C119? C 0.4911(19) 0.5478(8) 0.5880(12)
H65? H 0.5642 0.5553 0.6065
C120? C 0.438(2) 0.5170(8) 0.6098(12)
H66? H 0.4754 0.5034 0.6432
C121? C 0.331(2) 0.5060(7) 0.5827(13)
H67? H 0.2954 0.4849 0.5976
C122? C 0.5965(12) 0.4943(4) 0.1066(5)
C123? C 0.6693(11) 0.5248(4) 0.1046(6)
H68? H 0.7153 0.5334 0.1398
C124? C 0.6747(12) 0.5428(3) 0.0512(7)
H69? H 0.7245 0.5637 0.0498
C125? C 0.6074(13) 0.5303(4) -0.0003(6)
H70? H 0.6112 0.5427 -0.0372
C126? C 0.5346(12) 0.4997(5) 0.0017(5)
H71? H 0.4881 0.4911 -0.0339
C127? C 0.5292(11) 0.4818(4) 0.0551(6)
H72? H 0.4789 0.4607 0.0564
loop_
_geom_bond_atom_site_label_1
_geom_bond_atom_site_label_2
_geom_bond_site_symmetry_1
_geom_bond_site_symmetry_2
S1 C17 1_555 1_555
S2 C2 1_555 1_555
S3 C22 1_555 1_555
S4 C5 1_555 1_555
S5 C19 1_555 1_555
S6 C1 1_555 1_555
S7 C20 1_555 1_555
S8 C15 1_555 1_555
S9 C7 1_555 1_555
S10 C9 1_555 1_555
S11 C8 1_555 1_555
S12 C16 1_555 1_555
S13 C49 1_555 1_555
S14 C12 1_555 1_555
S15 C11 1_555 1_555
C1 C2 1_555 1_555
C2 C23 1_555 1_555
C3 S2 1_555 1_555
C4 C6 1_555 1_555
C5 C26 1_555 1_555
C6 C7 1_555 1_555
C7 C8 1_555 1_555
C8 C9 1_555 1_555
C9 C27 1_555 1_555
C10 S10 1_555 1_555
C11 C10 1_555 1_555
C12 C11 1_555 1_555
C13 C12 1_555 1_555
C14 C13 1_555 1_555
C15 C14 1_555 1_555
C16 C15 1_555 1_555
C17 C16 1_555 1_555
C18 S1 1_555 1_555
C19 C18 1_555 1_555
C20 C19 1_555 1_555
C21 H1 1_555 1_555
C22 C1 1_555 1_555
C23 C24 1_555 1_555
C24 C3 1_555 1_555
C25 C24 1_555 1_555
C26 C6 1_555 1_555
C27 C4 1_555 1_555
C28 C10 1_555 1_555
C29 C13 1_555 1_555
C30 C29 1_555 1_555
C31 C14 1_555 1_555
C32 C17 1_555 1_555
C33 C18 1_555 1_555
C34 C33 1_555 1_555
C35 C20 1_555 1_555
C36 C22 1_555 1_555
C37 C23 1_555 1_555
C38 C37 1_555 1_555
C39 C25 1_555 1_555
C40 C4 1_555 1_555
C41 C30 1_555 1_555
C42 C34 1_555 1_555
C43 S6 1_555 1_555
C44 C43 1_555 1_555
H2 C44 1_555 1_555
C45 C44 1_555 1_555
H3 C45 1_555 1_555
C46 C45 1_555 1_555
H4 C46 1_555 1_555
C47 C46 1_555 1_555
H5 C47 1_555 1_555
C48 C43 1_555 1_555
H6 C48 1_555 1_555
C49 C50 1_555 1_555
C50 H7 1_555 1_555
C51 C50 1_555 1_555
H8 C51 1_555 1_555
C52 C51 1_555 1_555
H9 C52 1_555 1_555
C53 C52 1_555 1_555
H10 C53 1_555 1_555
C54 C49 1_555 1_555
H11 C54 1_555 1_555
C55 S4 1_555 1_555
C56 C55 1_555 1_555
H12 C56 1_555 1_555
C57 C56 1_555 1_555
H13 C57 1_555 1_555
C58 C57 1_555 1_555
H14 C58 1_555 1_555
C59 C58 1_555 1_555
H15 C59 1_555 1_555
C60 C55 1_555 1_555
H16 C60 1_555 1_555
C61 S9 1_555 1_555
C62 C61 1_555 1_555
H17 C62 1_555 1_555
C63 C62 1_555 1_555
H18 C63 1_555 1_555
C64 C63 1_555 1_555
H19 C64 1_555 1_555
C65 C64 1_555 1_555
H20 C65 1_555 1_555
C66 C61 1_555 1_555
H21 C66 1_555 1_555
C67 S11 1_555 1_555
C68 C67 1_555 1_555
H22 C68 1_555 1_555
C69 C68 1_555 1_555
H23 C69 1_555 1_555
C70 C69 1_555 1_555
H24 C70 1_555 1_555
C71 C70 1_555 1_555
H25 C71 1_555 1_555
C72 C67 1_555 1_555
H26 C72 1_555 1_555
C73 S14 1_555 1_555
C74 C73 1_555 1_555
H27 C74 1_555 1_555
C75 C74 1_555 1_555
H28 C75 1_555 1_555
C76 C75 1_555 1_555
H29 C76 1_555 1_555
C77 C76 1_555 1_555
H30 C77 1_555 1_555
C78 C73 1_555 1_555
H31 C78 1_555 1_555
C79 S8 1_555 1_555
C80 C79 1_555 1_555
H32 C80 1_555 1_555
C81 C80 1_555 1_555
H33 C81 1_555 1_555
C82 C81 1_555 1_555
H34 C82 1_555 1_555
C83 C82 1_555 1_555
H35 C83 1_555 1_555
C84 C79 1_555 1_555
H36 C84 1_555 1_555
C85 S5 1_555 1_555
C86 C85 1_555 1_555
H37 C86 1_555 1_555
C87 C86 1_555 1_555
H38 C87 1_555 1_555
C88 C87 1_555 1_555
H39 C88 1_555 1_555
C89 C88 1_555 1_555
H40 C89 1_555 1_555
C90 C85 1_555 1_555
H41 C90 1_555 1_555
C91 S12 1_555 1_555
C92 C91 1_555 1_555
H42 C92 1_555 1_555
C93 C92 1_555 1_555
H43 C93 1_555 1_555
C94 C93 1_555 1_555
H44 C94 1_555 1_555
C95 C94 1_555 1_555
H45 C95 1_555 1_555
C96 C91 1_555 1_555
H46 C96 1_555 1_555
C97 S7 1_555 1_555
C98 C97 1_555 1_555
H47 C98 1_555 1_555
C99 C98 1_555 1_555
H48 C99 1_555 1_555
C100 C99 1_555 1_555
H49 C100 1_555 1_555
C101 C21 1_555 1_555
H50 C101 1_555 1_555
C102 H51 1_555 1_555
C103 C102 1_555 1_555
H52 C103 1_555 1_555
C104 S3 1_555 1_555
C105 C104 1_555 1_555
H53 C105 1_555 1_555
C106 C105 1_555 1_555
H54 C106 1_555 1_555
C107 C102 1_555 1_555
H55 C107 1_555 1_555
C108 H56 1_555 1_555
C109 S15 1_555 1_555
C110 C109 1_555 1_555
H57 C110 1_555 1_555
C111 C110 1_555 1_555
H58 C111 1_555 1_555
C112 C111 1_555 1_555
H59 C112 1_555 1_555
C113 S13 1_555 1_555
C114 C108 1_555 1_555
H60 C114 1_555 1_555
Cl1 C115 1_555 1_555
Cl2 C115 1_555 1_555
C115 H61 1_555 1_555
H62 C115 1_555 1_555
C3 C113 1_555 1_555
C5 C113 1_555 1_555
C21 C97 1_555 1_555
C25 C26 1_555 1_555
C27 C28 1_555 1_555
C28 C29 1_555 1_555
C30 C40 1_555 1_555
C31 C32 1_555 1_555
C31 C41 1_555 1_555
C32 C33 1_555 1_555
C34 C35 1_555 1_555
C35 C36 1_555 1_555
C36 C37 1_555 1_555
C38 C39 1_555 1_555
C38 C42 1_555 1_555
C39 C40 1_555 1_555
C41 C42 1_555 1_555
C47 C48 1_555 1_555
C53 C54 1_555 1_555
C59 C60 1_555 1_555
C65 C66 1_555 1_555
C71 C72 1_555 1_555
C77 C78 1_555 1_555
C83 C84 1_555 1_555
C89 C90 1_555 1_555
C95 C96 1_555 1_555
C100 C101 1_555 1_555
C103 C104 1_555 1_555
C106 C107 1_555 1_555
C108 C109 1_555 1_555
C112 C114 1_555 1_555

#END
