
#######################################################################
#
#                 Cambridge Crystallographic Data Centre
#                                CCDC 
#
#######################################################################
#
# If this CIF has been generated from an entry in the Cambridge 
# Structural Database, then it will include bibliographic, chemical, 
# crystal, experimental, refinement or atomic coordinate data resulting 
# from the CCDC's data processing and validation procedures.
#
#######################################################################

data_WUCZEB
_chemical_formula_moiety         'C33 H28 N2 O5 S1,0.25(C1 H4 O1)'
_chemical_name_systematic        
"1-benzyl-5-methoxy-1'-((4-methylphenyl)sulfonyl)-6'-phenyl-1'H-spiro[indole-3,4'-pyridine]-2,2'(1H,3'H)-dione methanol solvate"
_symmetry_cell_setting           monoclinic
_symmetry_space_group_name_H-M   'P 21'
_symmetry_Int_Tables_number      4
_space_group_name_Hall           'P 2yb'
loop_
_symmetry_equiv_pos_site_id
_symmetry_equiv_pos_as_xyz
1 x,y,z
2 -x,1/2+y,-z
_cell_length_a                   10.8299(4)
_cell_length_b                   17.8426(7)
_cell_length_c                   16.7462(6)
_cell_angle_alpha                90
_cell_angle_beta                 105.418(4)
_cell_angle_gamma                90
_cell_volume                     3119.47
_exptl_crystal_colour            colorless
_exptl_crystal_description       prism
_cell_formula_units_Z            4
loop_
_atom_site_label
_atom_site_type_symbol
_atom_site_fract_x
_atom_site_fract_y
_atom_site_fract_z
S1 S 0.23198(15) 0.73384(8) 0.48014(7)
O1 O 0.3156(5) 0.7441(3) 0.5619(2)
O2 O 0.0947(4) 0.7370(3) 0.4654(2)
O3 O 0.4834(4) 0.8049(2) 0.4834(2)
O4 O 0.3000(3) 1.0324(2) 0.2773(2)
O5 O 0.1790(5) 0.9634(2) 0.6696(2)
N1 N 0.2674(4) 0.8020(2) 0.4186(2)
N2 N 0.2764(4) 1.0909(2) 0.3941(3)
C1 C 0.2731(5) 0.6493(3) 0.4409(3)
C2 C 0.1776(6) 0.5958(3) 0.4128(4)
H1 H 0.0927 0.6051 0.4141
C3 C 0.2118(6) 0.5282(3) 0.3827(4)
H2 H 0.1481 0.4919 0.3631
C4 C 0.3357(6) 0.5126(3) 0.3807(3)
C5 C 0.4273(6) 0.5667(4) 0.4079(4)
H3 H 0.5117 0.5574 0.4056
C6 C 0.3988(6) 0.6346(3) 0.4386(4)
H4 H 0.4635 0.6704 0.4578
C7 C 0.3703(7) 0.4394(4) 0.3497(5)
H5 H 0.3992 0.4476 0.3003
H6 H 0.2958 0.4069 0.3365
H7 H 0.4383 0.4161 0.3920
C8 C 0.1664(4) 0.8355(3) 0.3562(3)
C9 C 0.1664(4) 0.9098(3) 0.3447(3)
H8 H 0.0993 0.9318 0.3040
C10 C 0.2719(4) 0.9591(3) 0.3958(3)
C11 C 0.3967(4) 0.9138(3) 0.4098(3)
H9 H 0.4199 0.9105 0.3572
H10 H 0.4652 0.9411 0.4489
C12 C 0.3905(5) 0.8372(3) 0.4417(3)
C13 C 0.0718(4) 0.7864(3) 0.3006(3)
C14 C 0.1109(5) 0.7265(3) 0.2607(3)
H11 H 0.1984 0.7147 0.2713
C15 C 0.0208(5) 0.6843(3) 0.2053(3)
H12 H 0.0483 0.6437 0.1787
C16 C -0.1065(6) 0.6997(4) 0.1879(4)
H13 H -0.1660 0.6703 0.1495
C17 C -0.1466(5) 0.7579(5) 0.2265(5)
H14 H -0.2346 0.7681 0.2156
C18 C -0.0581(5) 0.8036(4) 0.2829(4)
H15 H -0.0863 0.8449 0.3080
C19 C 0.2845(4) 1.0299(3) 0.3464(3)
C20 C 0.2493(4) 1.0700(3) 0.4685(3)
C21 C 0.2288(5) 1.1144(3) 0.5317(3)
H16 H 0.2300 1.1670 0.5285
C22 C 0.2062(5) 1.0777(3) 0.6009(3)
H17 H 0.1928 1.1065 0.6449
C23 C 0.2033(5) 1.0024(3) 0.6056(3)
C24 C 0.2230(5) 0.9577(3) 0.5419(3)
H18 H 0.2216 0.9051 0.5460
C25 C 0.2446(4) 0.9913(3) 0.4732(3)
C26 C 0.1678(7) 1.0019(4) 0.7419(3)
H19 H 0.2473 1.0280 0.7670
H20 H 0.1501 0.9662 0.7810
H21 H 0.0984 1.0380 0.7268
C27 C 0.2852(5) 1.1688(3) 0.3676(4)
H22 H 0.3103 1.1689 0.3155
H23 H 0.3521 1.1948 0.4093
C28 C 0.1611(5) 1.2106(3) 0.3553(3)
C29 C 0.0482(6) 1.1813(4) 0.3089(5)
H24 H 0.0470 1.1344 0.2831
C30 C -0.0679(7) 1.2222(5) 0.2997(6)
H25 H -0.1452 1.2007 0.2691
C31 C -0.0711(7) 1.2882(4) 0.3321(5)
H26 H -0.1485 1.3145 0.3245
C32 C 0.0423(8) 1.3177(4) 0.3777(5)
H27 H 0.0421 1.3649 0.4027
C33 C 0.1581(7) 1.2800(4) 0.3881(4)
H28 H 0.2348 1.3027 0.4181
S2 S 0.84135(10) 0.54329(7) 1.00511(6)
O6 O 0.7465(3) 0.5593(2) 1.0486(2)
O7 O 0.9540(3) 0.5039(2) 1.04685(19)
O8 O 0.5751(3) 0.5486(2) 0.8957(2)
O9 O 0.5858(3) 0.2864(2) 0.7407(2)
O10 O 0.6412(4) 0.3481(3) 1.1713(2)
N3 N 0.7696(3) 0.4887(2) 0.9217(2)
N4 N 0.5340(4) 0.2352(3) 0.8538(2)
C34 C 0.8850(4) 0.6275(3) 0.9648(3)
C35 C 0.7928(5) 0.6737(3) 0.9215(4)
H29 H 0.7057 0.6623 0.9136
C36 C 0.8310(5) 0.7395(3) 0.8883(4)
H30 H 0.7679 0.7714 0.8563
C37 C 0.9562(5) 0.7582(3) 0.9013(3)
C38 C 1.0483(5) 0.7101(3) 0.9468(3)
H31 H 1.1355 0.7219 0.9561
C39 C 1.0124(5) 0.6449(3) 0.9788(3)
H32 H 1.0752 0.6124 1.0100
C40 C 0.9962(7) 0.8311(3) 0.8677(4)
H33 H 0.9536 0.8353 0.8091
H34 H 1.0882 0.8313 0.8757
H35 H 0.9720 0.8732 0.8970
C41 C 0.8410(4) 0.4271(3) 0.9000(2)
C42 C 0.7819(4) 0.3618(3) 0.8795(2)
H36 H 0.8288 0.3210 0.8673
C43 C 0.6425(4) 0.3510(3) 0.8753(3)
C44 C 0.5746(4) 0.4246(3) 0.8413(3)
H37 H 0.5747 0.4300 0.7831
H38 H 0.4851 0.4218 0.8434
C45 C 0.6355(4) 0.4930(3) 0.8882(3)
C46 C 0.9722(4) 0.4422(3) 0.8917(3)
C47 C 1.0686(5) 0.3903(4) 0.9200(3)
H39 H 1.0523 0.3458 0.9454
C48 C 1.1897(6) 0.4047(6) 0.9104(4)
H40 H 1.2561 0.3702 0.9310
C49 C 1.2135(6) 0.4664(6) 0.8725(5)
H41 H 1.2957 0.4746 0.8654
C50 C 1.1182(5) 0.5182(5) 0.8437(4)
H42 H 1.1359 0.5620 0.8176
C51 C 0.9970(4) 0.5066(3) 0.8528(3)
H43 H 0.9319 0.5421 0.8328
C52 C 0.5844(4) 0.2877(3) 0.8139(3)
C53 C 0.5530(4) 0.2537(3) 0.9382(3)
C54 C 0.5193(5) 0.2143(3) 0.9999(4)
H44 H 0.4783 0.1676 0.9887
C55 C 0.5470(5) 0.2451(4) 1.0793(4)
H45 H 0.5229 0.2194 1.1218
C56 C 0.6093(4) 0.3130(3) 1.0959(3)
C57 C 0.6443(4) 0.3538(3) 1.0319(3)
H46 H 0.6845 0.4008 1.0424
C58 C 0.6173(4) 0.3222(3) 0.9548(3)
C59 C 0.5853(7) 0.3216(6) 1.2326(4)
H47 H 0.4934 0.3172 1.2096
H48 H 0.6031 0.3564 1.2788
H49 H 0.6208 0.2729 1.2518
C60 C 0.4748(4) 0.1652(3) 0.8164(3)
H50 H 0.4529 0.1702 0.7560
H51 H 0.3949 0.1574 0.8323
C61 C 0.5568(4) 0.0986(3) 0.8408(3)
C62 C 0.5223(5) 0.0410(4) 0.8852(4)
H52 H 0.4443 0.0442 0.8996
C63 C 0.6000(6) -0.0220(4) 0.9095(5)
H53 H 0.5747 -0.0606 0.9398
C64 C 0.7149(6) -0.0265(4) 0.8881(4)
H54 H 0.7684 -0.0684 0.9039
C65 C 0.7498(5) 0.0302(4) 0.8440(4)
H55 H 0.8279 0.0273 0.8298
C66 C 0.6729(5) 0.0908(3) 0.8205(3)
H56 H 0.6988 0.1287 0.7896
O11 O 0.6796(11) 0.9676(7) 0.3485(7)
C67 C 0.7469(15) 0.9147(11) 0.3975(11)
loop_
_geom_bond_atom_site_label_1
_geom_bond_atom_site_label_2
_geom_bond_site_symmetry_1
_geom_bond_site_symmetry_2
S1 O1 1_555 1_555
O2 S1 1_555 1_555
O3 C12 1_555 1_555
O4 C19 1_555 1_555
O5 C23 1_555 1_555
N1 S1 1_555 1_555
N2 C19 1_555 1_555
C1 S1 1_555 1_555
C2 C1 1_555 1_555
H1 C2 1_555 1_555
C3 C2 1_555 1_555
H2 C3 1_555 1_555
C4 C3 1_555 1_555
C5 C4 1_555 1_555
H3 C5 1_555 1_555
C6 C1 1_555 1_555
H4 C6 1_555 1_555
C7 C4 1_555 1_555
H5 C7 1_555 1_555
H6 C7 1_555 1_555
H7 C7 1_555 1_555
C8 N1 1_555 1_555
C9 C8 1_555 1_555
H8 C9 1_555 1_555
C10 C9 1_555 1_555
C11 C10 1_555 1_555
H9 C11 1_555 1_555
H10 C11 1_555 1_555
C12 N1 1_555 1_555
C13 C8 1_555 1_555
C14 C13 1_555 1_555
H11 C14 1_555 1_555
C15 C14 1_555 1_555
H12 C15 1_555 1_555
C16 C15 1_555 1_555
H13 C16 1_555 1_555
C17 C16 1_555 1_555
H14 C17 1_555 1_555
C18 C13 1_555 1_555
H15 C18 1_555 1_555
C19 C10 1_555 1_555
C20 N2 1_555 1_555
C21 C20 1_555 1_555
H16 C21 1_555 1_555
C22 C21 1_555 1_555
H17 C22 1_555 1_555
C23 C22 1_555 1_555
C24 C23 1_555 1_555
H18 C24 1_555 1_555
C25 C10 1_555 1_555
C26 O5 1_555 1_555
H19 C26 1_555 1_555
H20 C26 1_555 1_555
H21 C26 1_555 1_555
C27 N2 1_555 1_555
H22 C27 1_555 1_555
H23 C27 1_555 1_555
C28 C27 1_555 1_555
C29 C28 1_555 1_555
H24 C29 1_555 1_555
C30 C29 1_555 1_555
H25 C30 1_555 1_555
C31 C30 1_555 1_555
H26 C31 1_555 1_555
C32 C31 1_555 1_555
H27 C32 1_555 1_555
C33 C28 1_555 1_555
H28 C33 1_555 1_555
S2 O6 1_555 1_555
O7 S2 1_555 1_555
O8 C45 1_555 1_555
O9 C52 1_555 1_555
O10 C56 1_555 1_555
N3 S2 1_555 1_555
N4 C52 1_555 1_555
C34 S2 1_555 1_555
C35 C34 1_555 1_555
H29 C35 1_555 1_555
C36 C35 1_555 1_555
H30 C36 1_555 1_555
C37 C36 1_555 1_555
C38 C37 1_555 1_555
H31 C38 1_555 1_555
C39 C34 1_555 1_555
H32 C39 1_555 1_555
C40 C37 1_555 1_555
H33 C40 1_555 1_555
H34 C40 1_555 1_555
H35 C40 1_555 1_555
C41 N3 1_555 1_555
C42 C41 1_555 1_555
H36 C42 1_555 1_555
C43 C42 1_555 1_555
C44 C43 1_555 1_555
H37 C44 1_555 1_555
H38 C44 1_555 1_555
C45 N3 1_555 1_555
C46 C41 1_555 1_555
C47 C46 1_555 1_555
H39 C47 1_555 1_555
C48 C47 1_555 1_555
H40 C48 1_555 1_555
C49 C48 1_555 1_555
H41 C49 1_555 1_555
C50 C49 1_555 1_555
H42 C50 1_555 1_555
C51 C46 1_555 1_555
H43 C51 1_555 1_555
C52 C43 1_555 1_555
C53 N4 1_555 1_555
C54 C53 1_555 1_555
H44 C54 1_555 1_555
C55 C54 1_555 1_555
H45 C55 1_555 1_555
C56 C55 1_555 1_555
C57 C56 1_555 1_555
H46 C57 1_555 1_555
C58 C43 1_555 1_555
C59 O10 1_555 1_555
H47 C59 1_555 1_555
H48 C59 1_555 1_555
H49 C59 1_555 1_555
C60 N4 1_555 1_555
H50 C60 1_555 1_555
H51 C60 1_555 1_555
C61 C60 1_555 1_555
C62 C61 1_555 1_555
H52 C62 1_555 1_555
C63 C62 1_555 1_555
H53 C63 1_555 1_555
C64 C63 1_555 1_555
H54 C64 1_555 1_555
C65 C64 1_555 1_555
H55 C65 1_555 1_555
C66 C61 1_555 1_555
H56 C66 1_555 1_555
O11 C67 1_555 1_555
C5 C6 1_555 1_555
C11 C12 1_555 1_555
C17 C18 1_555 1_555
C20 C25 1_555 1_555
C24 C25 1_555 1_555
C32 C33 1_555 1_555
C38 C39 1_555 1_555
C44 C45 1_555 1_555
C50 C51 1_555 1_555
C53 C58 1_555 1_555
C57 C58 1_555 1_555
C65 C66 1_555 1_555

#END
