
#######################################################################
#
#                 Cambridge Crystallographic Data Centre
#                                CCDC 
#
#######################################################################
#
# If this CIF has been generated from an entry in the Cambridge 
# Structural Database, then it will include bibliographic, chemical, 
# crystal, experimental, refinement or atomic coordinate data resulting 
# from the CCDC's data processing and validation procedures.
#
#######################################################################

data_WUDLOX
_chemical_formula_moiety         'C22 H20 N2 O2'
_chemical_name_systematic        
3,3'-Diphenyl-1,1'-bi(3-azabicyclo[3.1.0]hexane)-2,2'-dione
_symmetry_cell_setting           monoclinic
_symmetry_space_group_name_H-M   'C 2/c'
_symmetry_Int_Tables_number      15
_space_group_name_Hall           '-C 2yn'
loop_
_symmetry_equiv_pos_site_id
_symmetry_equiv_pos_as_xyz
1 x,y,z
2 -x,y,1/2-z
3 1/2+x,1/2+y,z
4 1/2-x,1/2+y,1/2-z
5 -x,-y,-z
6 x,-y,1/2+z
7 1/2-x,1/2-y,-z
8 1/2+x,1/2-y,1/2+z
_cell_length_a                   26.489(3)
_cell_length_b                   12.0415(14)
_cell_length_c                   12.4956(14)
_cell_angle_alpha                90
_cell_angle_beta                 117.786(9)
_cell_angle_gamma                90
_cell_volume                     3526.12
_exptl_crystal_colour            colorless
_exptl_crystal_description       needle
_cell_formula_units_Z            8
loop_
_atom_site_label
_atom_site_type_symbol
_atom_site_fract_x
_atom_site_fract_y
_atom_site_fract_z
O1 O 0.16949(4) 0.43020(8) 0.22044(8)
O2 O 0.09111(4) 0.66306(9) 0.18309(9)
N1 N 0.08363(5) 0.37484(10) 0.05916(10)
N2 N 0.17707(5) 0.75907(10) 0.25537(11)
C1 C 0.12756(6) 0.53335(12) 0.03224(12)
C2 C 0.13078(6) 0.44198(11) 0.11694(12)
C3 C 0.04200(6) 0.41725(12) -0.06121(13)
H1 H 0.0057(7) 0.4386(14) -0.0613(14)
H2 H 0.0332(7) 0.3567(15) -0.1232(16)
C4 C 0.07190(7) 0.51526(13) -0.08274(13)
H3 H 0.0489(8) 0.5780(16) -0.1284(17)
C5 C 0.12732(7) 0.49024(14) -0.08292(14)
H4 H 0.1396(7) 0.5401(15) -0.1265(16)
H5 H 0.1363(7) 0.4115(15) -0.0840(15)
C6 C 0.07321(6) 0.27377(12) 0.10462(12)
C7 C 0.11697(6) 0.21362(12) 0.19700(13)
H6 H 0.1556(8) 0.2433(15) 0.2328(16)
C8 C 0.10495(7) 0.11203(13) 0.23385(14)
H7 H 0.1370(7) 0.0712(14) 0.2974(15)
C9 C 0.05005(8) 0.06990(14) 0.18062(16)
H8 H 0.0411(8) -0.0022(17) 0.2051(17)
C10 C 0.00664(8) 0.12999(16) 0.08961(18)
H9 H -0.0322(10) 0.1004(19) 0.050(2)
C11 C 0.01782(7) 0.23162(14) 0.05125(16)
H10 H -0.0130(8) 0.2703(16) -0.0146(18)
C12 C 0.15123(6) 0.64384(12) 0.08627(13)
C13 C 0.13488(6) 0.68799(11) 0.17823(12)
C14 C 0.22859(6) 0.75562(13) 0.23777(14)
H11 H 0.2619(7) 0.7201(14) 0.3106(15)
H12 H 0.2405(7) 0.8336(15) 0.2289(15)
C15 C 0.21054(7) 0.68845(13) 0.12280(15)
H13 H 0.2387(8) 0.6407(16) 0.1159(16)
C16 C 0.16107(8) 0.73449(15) 0.01266(15)
H14 H 0.1572(8) 0.7099(17) -0.0664(18)
H15 H 0.1474(8) 0.8114(17) 0.0175(17)
C17 C 0.17576(6) 0.82468(11) 0.34872(13)
C18 C 0.12680(7) 0.83259(12) 0.36482(14)
H16 H 0.0920(8) 0.7955(15) 0.3111(16)
C19 C 0.12782(7) 0.89728(12) 0.45876(14)
H17 H 0.0931(8) 0.9014(15) 0.4687(16)
C20 C 0.17681(8) 0.95407(13) 0.53747(14)
H18 H 0.1773(8) 0.9973(16) 0.6060(17)
C21 C 0.22505(7) 0.94786(14) 0.52075(14)
H19 H 0.2602(8) 0.9873(17) 0.5746(17)
C22 C 0.22477(7) 0.88393(13) 0.42718(14)
H20 H 0.2581(8) 0.8794(16) 0.4154(16)
loop_
_geom_bond_atom_site_label_1
_geom_bond_atom_site_label_2
_geom_bond_site_symmetry_1
_geom_bond_site_symmetry_2
O1 C2 1_555 1_555
O2 C13 1_555 1_555
N1 C2 1_555 1_555
N2 C13 1_555 1_555
C1 C2 1_555 1_555
C3 N1 1_555 1_555
H1 C3 1_555 1_555
H2 C3 1_555 1_555
C4 C1 1_555 1_555
H3 C4 1_555 1_555
C5 C1 1_555 1_555
H4 C5 1_555 1_555
H5 C5 1_555 1_555
C6 N1 1_555 1_555
C7 C6 1_555 1_555
H6 C7 1_555 1_555
C8 C7 1_555 1_555
H7 C8 1_555 1_555
C9 C8 1_555 1_555
H8 C9 1_555 1_555
C10 C9 1_555 1_555
H9 C10 1_555 1_555
C11 C6 1_555 1_555
H10 C11 1_555 1_555
C12 C1 1_555 1_555
C13 C12 1_555 1_555
C14 N2 1_555 1_555
H11 C14 1_555 1_555
H12 C14 1_555 1_555
C15 C12 1_555 1_555
H13 C15 1_555 1_555
C16 C12 1_555 1_555
H14 C16 1_555 1_555
H15 C16 1_555 1_555
C17 N2 1_555 1_555
C18 C17 1_555 1_555
H16 C18 1_555 1_555
C19 C18 1_555 1_555
H17 C19 1_555 1_555
C20 C19 1_555 1_555
H18 C20 1_555 1_555
C21 C20 1_555 1_555
H19 C21 1_555 1_555
C22 C17 1_555 1_555
H20 C22 1_555 1_555
C3 C4 1_555 1_555
C4 C5 1_555 1_555
C10 C11 1_555 1_555
C14 C15 1_555 1_555
C15 C16 1_555 1_555
C21 C22 1_555 1_555

#END
