
#######################################################################
#
#                 Cambridge Crystallographic Data Centre
#                                CCDC 
#
#######################################################################
#
# If this CIF has been generated from an entry in the Cambridge 
# Structural Database, then it will include bibliographic, chemical, 
# crystal, experimental, refinement or atomic coordinate data resulting 
# from the CCDC's data processing and validation procedures.
#
#######################################################################

data_WUDMIS
_chemical_formula_moiety         'C20 H18 Br1 N1 O2'
_chemical_name_systematic        
(R)-2-(7-Bromo-9-methyl-1,3,4,9-tetrahydropyrano[3,4-b]indol-4-yl)-1-phenylethanone
_symmetry_cell_setting           orthorhombic
_symmetry_space_group_name_H-M   'P 21 21 21'
_symmetry_Int_Tables_number      19
_space_group_name_Hall           'P 2ac 2ab'
loop_
_symmetry_equiv_pos_site_id
_symmetry_equiv_pos_as_xyz
1 x,y,z
2 1/2-x,-y,1/2+z
3 -x,1/2+y,1/2-z
4 1/2+x,1/2-y,-z
_cell_length_a                   4.8176(7)
_cell_length_b                   14.121(2)
_cell_length_c                   24.807(4)
_cell_angle_alpha                90
_cell_angle_beta                 90
_cell_angle_gamma                90
_cell_volume                     1687.6
_exptl_crystal_colour            colorless
_exptl_crystal_description       prismatic
_chemical_melting_point          178-179deg.C
_cell_formula_units_Z            4
loop_
_atom_site_label
_atom_site_type_symbol
_atom_site_fract_x
_atom_site_fract_y
_atom_site_fract_z
Br1 Br 0.08203(12) 0.53444(3) 0.990413(16)
O1 O 0.9325(5) 0.86590(19) 0.75064(9)
O2 O 0.5188(7) 1.10793(18) 0.80540(10)
N1 N 0.7035(6) 0.6581(2) 0.82784(12)
C1 C 0.5165(8) 0.6653(2) 0.86931(13)
C2 C 0.4223(9) 0.5974(2) 0.90504(14)
H1 H 0.4893 0.5356 0.9044
C3 C 0.2257(9) 0.6257(2) 0.94129(14)
C4 C 0.1266(8) 0.7164(2) 0.94425(13)
H2 H -0.0071 0.7321 0.9698
C5 C 0.2249(8) 0.7840(3) 0.90945(13)
H3 H 0.1601 0.8459 0.9116
C6 C 0.4216(8) 0.7595(2) 0.87101(12)
C7 C 0.5647(8) 0.8086(2) 0.82874(12)
C8 C 0.7284(7) 0.7453(3) 0.80470(14)
C9 C 0.9120(8) 0.7669(3) 0.75795(14)
H4 H 1.0951 0.7406 0.7642
H5 H 0.8368 0.7380 0.7256
C10 C 0.6675(8) 0.9107(3) 0.75329(13)
H6 H 0.5399 0.8785 0.7292
H7 H 0.6844 0.9758 0.7413
C11 C 0.5514(8) 0.9089(2) 0.81025(11)
H8 H 0.3567 0.9289 0.8092
C12 C 0.7095(7) 0.9734(2) 0.84836(13)
H9 H 0.6536 0.9585 0.8850
H10 H 0.9057 0.9590 0.8453
C13 C 0.6711(8) 1.0778(2) 0.83954(14)
C14 C 0.8316(7) 1.1445(2) 0.87435(13)
C15 C 0.7977(10) 1.2398(3) 0.86792(17)
H11 H 0.6744 1.2621 0.8420
C16 C 0.9426(12) 1.3033(3) 0.89907(18)
H12 H 0.9157 1.3680 0.8943
C17 C 1.1221(11) 1.2723(3) 0.93619(19)
H13 H 1.2224 1.3155 0.9567
C18 C 1.1585(10) 1.1779(3) 0.94396(16)
H14 H 1.2820 1.1566 0.9701
C19 C 1.0137(8) 1.1140(3) 0.91339(14)
H15 H 1.0386 1.0494 0.9191
C20 C 0.8515(9) 0.5726(2) 0.81222(15)
H16 H 0.7857 0.5515 0.7777
H17 H 0.8198 0.5240 0.8386
H18 H 1.0466 0.5858 0.8100
loop_
_geom_bond_atom_site_label_1
_geom_bond_atom_site_label_2
_geom_bond_site_symmetry_1
_geom_bond_site_symmetry_2
Br1 C3 1_555 1_555
O1 C9 1_555 1_555
O2 C13 1_555 1_555
N1 C1 1_555 1_555
C1 C2 1_555 1_555
C2 H1 1_555 1_555
C3 C2 1_555 1_555
C4 C3 1_555 1_555
H2 C4 1_555 1_555
C5 C4 1_555 1_555
H3 C5 1_555 1_555
C6 C1 1_555 1_555
C7 C6 1_555 1_555
C8 N1 1_555 1_555
C9 C8 1_555 1_555
H4 C9 1_555 1_555
H5 C9 1_555 1_555
C10 O1 1_555 1_555
H6 C10 1_555 1_555
H7 C10 1_555 1_555
C11 C7 1_555 1_555
H8 C11 1_555 1_555
C12 C11 1_555 1_555
H9 C12 1_555 1_555
H10 C12 1_555 1_555
C13 C12 1_555 1_555
C14 C13 1_555 1_555
C15 C14 1_555 1_555
H11 C15 1_555 1_555
C16 C15 1_555 1_555
H12 C16 1_555 1_555
C17 C16 1_555 1_555
H13 C17 1_555 1_555
C18 C17 1_555 1_555
H14 C18 1_555 1_555
C19 C14 1_555 1_555
H15 C19 1_555 1_555
C20 N1 1_555 1_555
H16 C20 1_555 1_555
H17 C20 1_555 1_555
H18 C20 1_555 1_555
C5 C6 1_555 1_555
C7 C8 1_555 1_555
C10 C11 1_555 1_555
C18 C19 1_555 1_555

#END
