
#######################################################################
#
#                 Cambridge Crystallographic Data Centre
#                                CCDC 
#
#######################################################################
#
# If this CIF has been generated from an entry in the Cambridge 
# Structural Database, then it will include bibliographic, chemical, 
# crystal, experimental, refinement or atomic coordinate data resulting 
# from the CCDC's data processing and validation procedures.
#
#######################################################################

data_WUDPOB
_chemical_formula_moiety         'C34 H25 N3 O3'
_chemical_name_systematic        
1-Methyl-2,6-dioxo-5-(4-(2,4,6-triphenylpyridinium-1-yl)phenyl)-1,2,3,6-tetrahydropyrimidin-4-olate
_symmetry_cell_setting           triclinic
_symmetry_space_group_name_H-M   'P -1'
_symmetry_Int_Tables_number      2
_space_group_name_Hall           '-P 1'
loop_
_symmetry_equiv_pos_site_id
_symmetry_equiv_pos_as_xyz
1 x,y,z
2 -x,-y,-z
_cell_length_a                   10.1875(13)
_cell_length_b                   10.7854(19)
_cell_length_c                   13.198(2)
_cell_angle_alpha                65.926(16)
_cell_angle_beta                 78.875(12)
_cell_angle_gamma                86.164(12)
_cell_volume                     1299.02
_exptl_crystal_colour            red
_exptl_crystal_description       plate
_cell_formula_units_Z            2
_exptl_crystal_recrystallization_method methanol
loop_
_atom_site_label
_atom_site_type_symbol
_atom_site_fract_x
_atom_site_fract_y
_atom_site_fract_z
N1 N 0.0284(3) 0.2279(3) 0.1244(2)
O1 O 0.2003(3) 0.0195(2) -0.2686(2)
O2 O 0.4072(3) 0.4415(2) -0.3672(2)
C1 C 0.2158(3) 0.2376(3) -0.1964(3)
N2 N 0.4221(3) 0.3403(3) -0.4877(2)
C2 C 0.2072(3) 0.3049(3) -0.0404(3)
H1 H 0.2447 0.3505 -0.0062
N3 N 0.3262(3) 0.1304(3) -0.4390(2)
O3 O 0.4492(3) 0.2457(3) -0.6152(2)
C3 C 0.2705(3) 0.3084(3) -0.1434(3)
H2 H 0.3500 0.3575 -0.1788
C4 C 0.0880(3) 0.2338(3) 0.0124(3)
C5 C 0.2836(3) 0.2358(3) -0.3048(3)
C6 C 0.0936(3) 0.1708(3) -0.1402(3)
H3 H 0.0538 0.1258 -0.1736
C7 C -0.0907(3) 0.2922(3) 0.1401(3)
C8 C -0.1252(4) 0.4317(3) -0.0601(3)
H4 H -0.0350 0.4559 -0.0833
C9 C 0.0294(3) 0.1683(3) -0.0380(3)
H5 H -0.0524 0.1232 -0.0034
C10 C -0.1310(3) 0.3039(3) 0.2425(3)
H6 H -0.2112 0.3468 0.2543
C11 C 0.2643(3) 0.1240(3) -0.3314(3)
C12 C -0.1723(3) 0.3469(3) 0.0512(3)
C13 C 0.1001(3) 0.1668(3) 0.2093(3)
C14 C 0.0572(3) 0.1807(4) 0.3100(3)
H7 H 0.1059 0.1395 0.3678
C15 C -0.0556(3) 0.2537(3) 0.3283(3)
C16 C 0.4018(4) 0.2391(4) -0.5206(3)
C17 C -0.0912(3) 0.2799(3) 0.4312(3)
C18 C 0.3711(3) 0.3429(3) -0.3834(3)
C19 C 0.2245(4) -0.0070(4) 0.1478(3)
H8 H 0.1482 -0.0233 0.1260
C20 C -0.2217(4) 0.2983(4) 0.4748(3)
H9 H -0.2904 0.2923 0.4397
C21 C -0.2102(4) 0.4808(4) -0.1369(3)
H10 H -0.1768 0.5387 -0.2111
C22 C 0.3388(4) -0.0780(4) 0.1353(4)
H11 H 0.3400 -0.1418 0.1045
C23 C 0.3355(4) 0.1095(4) 0.2284(3)
H12 H 0.3353 0.1718 0.2607
C24 C 0.3084(4) 0.0135(4) -0.4637(3)
H13 H 0.3559 0.0291 -0.5382
H14 H 0.2150 0.0002 -0.4595
H15 H 0.3427 -0.0659 -0.4097
C25 C -0.3928(4) 0.3613(5) 0.0045(4)
H16 H -0.4828 0.3364 0.0262
C26 C -0.0188(5) 0.3210(5) 0.5788(4)
H17 H 0.0496 0.3305 0.6128
C27 C 0.0099(4) 0.2921(5) 0.4852(3)
H18 H 0.0985 0.2803 0.4567
C28 C -0.3422(4) 0.4458(5) -0.1059(4)
H19 H -0.3983 0.4786 -0.1588
C29 C -0.3083(4) 0.3140(4) 0.0830(3)
H20 H -0.3429 0.2595 0.1578
C30 C 0.2225(3) 0.0898(3) 0.1933(3)
C31 C 0.4498(4) 0.0355(5) 0.2151(4)
H21 H 0.5259 0.0487 0.2388
C32 C -0.1498(4) 0.3359(5) 0.6220(3)
H22 H -0.1701 0.3532 0.6868
C33 C -0.2516(4) 0.3256(5) 0.5707(3)
H23 H -0.3399 0.3369 0.6001
C34 C 0.4522(4) -0.0551(4) 0.1684(4)
H24 H 0.5301 -0.1021 0.1585
H25 H 0.481(5) 0.414(5) -0.543(4)
loop_
_geom_bond_atom_site_label_1
_geom_bond_atom_site_label_2
_geom_bond_site_symmetry_1
_geom_bond_site_symmetry_2
N1 C4 1_555 1_555
O1 C11 1_555 1_555
O2 C18 1_555 1_555
C1 C3 1_555 1_555
N2 C16 1_555 1_555
C2 H1 1_555 1_555
N3 C11 1_555 1_555
O3 C16 1_555 1_555
C3 C2 1_555 1_555
H2 C3 1_555 1_555
C4 C2 1_555 1_555
C5 C1 1_555 1_555
C6 C1 1_555 1_555
H3 C6 1_555 1_555
C7 N1 1_555 1_555
C8 H4 1_555 1_555
C9 C4 1_555 1_555
H5 C9 1_555 1_555
C10 C7 1_555 1_555
H6 C10 1_555 1_555
C11 C5 1_555 1_555
C12 C7 1_555 1_555
C13 N1 1_555 1_555
C14 C13 1_555 1_555
H7 C14 1_555 1_555
C15 C10 1_555 1_555
C16 N3 1_555 1_555
C17 C15 1_555 1_555
C18 N2 1_555 1_555
C19 H8 1_555 1_555
C20 C17 1_555 1_555
H9 C20 1_555 1_555
C21 C8 1_555 1_555
H10 C21 1_555 1_555
C22 C19 1_555 1_555
H11 C22 1_555 1_555
C23 H12 1_555 1_555
C24 N3 1_555 1_555
H13 C24 1_555 1_555
H14 C24 1_555 1_555
H15 C24 1_555 1_555
C25 H16 1_555 1_555
C26 H17 1_555 1_555
C27 C17 1_555 1_555
H18 C27 1_555 1_555
C28 C21 1_555 1_555
H19 C28 1_555 1_555
C29 C12 1_555 1_555
H20 C29 1_555 1_555
C30 C13 1_555 1_555
C31 C23 1_555 1_555
H21 C31 1_555 1_555
C32 C26 1_555 1_555
H22 C32 1_555 1_555
C33 C20 1_555 1_555
H23 C33 1_555 1_555
C34 C22 1_555 1_555
H24 C34 1_555 1_555
H25 N2 1_555 1_555
C5 C18 1_555 1_555
C6 C9 1_555 1_555
C8 C12 1_555 1_555
C14 C15 1_555 1_555
C19 C30 1_555 1_555
C23 C30 1_555 1_555
C25 C28 1_555 1_555
C25 C29 1_555 1_555
C26 C27 1_555 1_555
C31 C34 1_555 1_555
C32 C33 1_555 1_555

#END
