
#######################################################################
#
#                 Cambridge Crystallographic Data Centre
#                                CCDC 
#
#######################################################################
#
# If this CIF has been generated from an entry in the Cambridge 
# Structural Database, then it will include bibliographic, chemical, 
# crystal, experimental, refinement or atomic coordinate data resulting 
# from the CCDC's data processing and validation procedures.
#
#######################################################################

data_WUFCOQ
_chemical_formula_moiety         'C32 H50 Cl2 N2 O6'
_chemical_name_systematic        
4,4'-(Butane-1,4-diyldiimino)bis(3-chloro-5-((2-isopropyl-5-methylcyclohexyl)oxy)furan-2(5H)-one)
_symmetry_cell_setting           orthorhombic
_symmetry_space_group_name_H-M   'P 21 21 2'
_symmetry_Int_Tables_number      18
_space_group_name_Hall           'P 2 2ab'
loop_
_symmetry_equiv_pos_site_id
_symmetry_equiv_pos_as_xyz
1 x,y,z
2 -x,-y,z
3 1/2-x,1/2+y,-z
4 1/2+x,1/2-y,-z
_cell_length_a                   13.0431(3)
_cell_length_b                   15.5220(4)
_cell_length_c                   8.2329(2)
_cell_angle_alpha                90
_cell_angle_beta                 90
_cell_angle_gamma                90
_cell_volume                     1666.79
_exptl_crystal_colour            colorless
_exptl_crystal_description       block
_cell_formula_units_Z            2
loop_
_atom_site_label
_atom_site_type_symbol
_atom_site_fract_x
_atom_site_fract_y
_atom_site_fract_z
Cl1 Cl 0.10801(5) 0.07097(4) 1.06044(10)
O1 O 0.03292(12) 0.25924(13) 1.0061(2)
O2 O 0.19062(13) 0.30368(10) 0.9348(2)
O3 O 0.30904(13) 0.25559(11) 0.74275(19)
N1 N 0.35700(15) 0.12083(13) 0.9688(3)
H1 H 0.4157 0.1452 0.9565
C1 C 0.5858(2) 0.2377(2) 0.5939(4)
H2 H 0.6225 0.2601 0.5019
H3 H 0.6230 0.1900 0.6390
H4 H 0.5788 0.2820 0.6745
C2 C 0.4891(3) 0.1464(2) 0.3965(4)
H5 H 0.4219 0.1293 0.3615
H6 H 0.5273 0.0964 0.4284
H7 H 0.5238 0.1749 0.3089
C3 C 0.4797(2) 0.20764(18) 0.5402(3)
H8 H 0.4507 0.1745 0.6304
C4 C 0.4054(2) 0.28202(16) 0.5052(3)
H9 H 0.3461 0.2569 0.4495
C5 C 0.4495(2) 0.3507(2) 0.3912(4)
H10 H 0.5110 0.3747 0.4396
H11 H 0.4687 0.3238 0.2894
C6 C 0.3740(3) 0.4232(2) 0.3572(4)
H12 H 0.4057 0.4653 0.2863
H13 H 0.3143 0.4001 0.3020
C7 C 0.3407(2) 0.46681(17) 0.5140(4)
H14 H 0.4019 0.4907 0.5663
C8 C 0.2658(3) 0.5404(2) 0.4844(5)
H15 H 0.2046 0.5183 0.4350
H16 H 0.2967 0.5821 0.4136
H17 H 0.2489 0.5672 0.5860
C9 C 0.2944(2) 0.39974(17) 0.6283(3)
H18 H 0.2779 0.4273 0.7309
H19 H 0.2308 0.3787 0.5817
C10 C 0.36471(18) 0.32384(16) 0.6605(3)
H20 H 0.4224 0.3425 0.7282
C11 C 0.28888(17) 0.26304(16) 0.9063(3)
H21 H 0.3443 0.2931 0.9633
C12 C 0.12214(18) 0.24183(17) 0.9826(3)
C13 C 0.17489(17) 0.16114(15) 1.0009(3)
C14 C 0.27536(17) 0.17171(14) 0.9686(3)
C15 C 0.3568(2) 0.02763(17) 0.9878(5)
H22 H 0.3285 0.0131 1.0933
H23 H 0.3129 0.0023 0.9055
C16 C 0.4571(3) -0.0083(2) 0.9742(12)
H24 H 0.4546 -0.0525 1.0574
H25 H 0.4511 -0.0397 0.8728
Cl1A Cl 0.89199(5) -0.07097(4) 1.06044(10)
O1A O 0.96708(12) -0.25924(13) 1.0061(2)
O2A O 0.80938(13) -0.30368(10) 0.9348(2)
O3A O 0.69096(13) -0.25559(11) 0.74275(19)
N1A N 0.64300(15) -0.12083(13) 0.9688(3)
H1A H 0.5843 -0.1452 0.9565
C1A C 0.4142(2) -0.2377(2) 0.5939(4)
H2A H 0.3775 -0.2601 0.5019
H3A H 0.3770 -0.1900 0.6390
H4A H 0.4212 -0.2820 0.6745
C2A C 0.5109(3) -0.1464(2) 0.3965(4)
H5A H 0.5781 -0.1293 0.3615
H6A H 0.4727 -0.0964 0.4284
H7A H 0.4762 -0.1749 0.3089
C3A C 0.5203(2) -0.20764(18) 0.5402(3)
H8A H 0.5493 -0.1745 0.6304
C4A C 0.5946(2) -0.28202(16) 0.5052(3)
H9A H 0.6539 -0.2569 0.4495
C5A C 0.5505(2) -0.3507(2) 0.3912(4)
H10A H 0.4890 -0.3747 0.4396
H11A H 0.5313 -0.3238 0.2894
C6A C 0.6260(3) -0.4232(2) 0.3572(4)
H12A H 0.5943 -0.4653 0.2863
H13A H 0.6857 -0.4001 0.3020
C7A C 0.6593(2) -0.46681(17) 0.5140(4)
H14A H 0.5981 -0.4907 0.5663
C8A C 0.7342(3) -0.5404(2) 0.4844(5)
H15A H 0.7954 -0.5183 0.4350
H16A H 0.7033 -0.5821 0.4136
H17A H 0.7511 -0.5672 0.5860
C9A C 0.7056(2) -0.39974(17) 0.6283(3)
H18A H 0.7221 -0.4273 0.7309
H19A H 0.7692 -0.3787 0.5817
C10A C 0.63529(18) -0.32384(16) 0.6605(3)
H20A H 0.5776 -0.3425 0.7282
C11A C 0.71112(17) -0.26304(16) 0.9063(3)
H21A H 0.6557 -0.2931 0.9633
C12A C 0.87786(18) -0.24183(17) 0.9826(3)
C13A C 0.82511(17) -0.16114(15) 1.0009(3)
C14A C 0.72464(17) -0.17171(14) 0.9686(3)
C15A C 0.6432(2) -0.02763(17) 0.9878(5)
H22A H 0.6715 -0.0131 1.0933
H23A H 0.6871 -0.0023 0.9055
C16A C 0.5429(3) 0.0083(2) 0.9742(12)
H24A H 0.5454 0.0525 1.0574
H25A H 0.5489 0.0397 0.8728
loop_
_geom_bond_atom_site_label_1
_geom_bond_atom_site_label_2
_geom_bond_site_symmetry_1
_geom_bond_site_symmetry_2
Cl1 C13 1_555 1_555
O1 C12 1_555 1_555
O2 C11 1_555 1_555
O3 C10 1_555 1_555
N1 H1 1_555 1_555
C1 H2 1_555 1_555
H3 C1 1_555 1_555
H4 C1 1_555 1_555
C2 H5 1_555 1_555
H6 C2 1_555 1_555
H7 C2 1_555 1_555
C3 C1 1_555 1_555
H8 C3 1_555 1_555
C4 C3 1_555 1_555
H9 C4 1_555 1_555
C5 C4 1_555 1_555
H10 C5 1_555 1_555
H11 C5 1_555 1_555
C6 C5 1_555 1_555
H12 C6 1_555 1_555
H13 C6 1_555 1_555
C7 C6 1_555 1_555
H14 C7 1_555 1_555
C8 C7 1_555 1_555
H15 C8 1_555 1_555
H16 C8 1_555 1_555
H17 C8 1_555 1_555
C9 C7 1_555 1_555
H18 C9 1_555 1_555
H19 C9 1_555 1_555
C10 C4 1_555 1_555
H20 C10 1_555 1_555
C11 O3 1_555 1_555
H21 C11 1_555 1_555
C12 O2 1_555 1_555
C13 C12 1_555 1_555
C14 N1 1_555 1_555
C15 N1 1_555 1_555
H22 C15 1_555 1_555
H23 C15 1_555 1_555
C16 C15 1_555 1_555
H24 C16 1_555 1_555
H25 C16 1_555 1_555
Cl1A C13A 1_555 1_555
O1A C12A 1_555 1_555
O2A C11A 1_555 1_555
O3A C10A 1_555 1_555
N1A H1A 1_555 1_555
C1A H2A 1_555 1_555
H3A C1A 1_555 1_555
H4A C1A 1_555 1_555
C2A H5A 1_555 1_555
H6A C2A 1_555 1_555
H7A C2A 1_555 1_555
C3A C1A 1_555 1_555
H8A C3A 1_555 1_555
C4A C3A 1_555 1_555
H9A C4A 1_555 1_555
C5A C4A 1_555 1_555
H10A C5A 1_555 1_555
H11A C5A 1_555 1_555
C6A C5A 1_555 1_555
H12A C6A 1_555 1_555
H13A C6A 1_555 1_555
C7A C6A 1_555 1_555
H14A C7A 1_555 1_555
C8A C7A 1_555 1_555
H15A C8A 1_555 1_555
H16A C8A 1_555 1_555
H17A C8A 1_555 1_555
C9A C7A 1_555 1_555
H18A C9A 1_555 1_555
H19A C9A 1_555 1_555
C10A C4A 1_555 1_555
H20A C10A 1_555 1_555
C11A O3A 1_555 1_555
H21A C11A 1_555 1_555
C12A O2A 1_555 1_555
C13A C12A 1_555 1_555
C14A N1A 1_555 1_555
C15A N1A 1_555 1_555
H22A C15A 1_555 1_555
H23A C15A 1_555 1_555
C16A C16 1_555 1_555
H24A C16A 1_555 1_555
H25A C16A 1_555 1_555
C2 C3 1_555 1_555
C9 C10 1_555 1_555
C11 C14 1_555 1_555
C13 C14 1_555 1_555
C2A C3A 1_555 1_555
C9A C10A 1_555 1_555
C11A C14A 1_555 1_555
C13A C14A 1_555 1_555
C15A C16A 1_555 1_555

#END
