
#######################################################################
#
#                 Cambridge Crystallographic Data Centre
#                                CCDC 
#
#######################################################################
#
# If this CIF has been generated from an entry in the Cambridge 
# Structural Database, then it will include bibliographic, chemical, 
# crystal, experimental, refinement or atomic coordinate data resulting 
# from the CCDC's data processing and validation procedures.
#
#######################################################################

data_WUFTEY
_chemical_formula_moiety         'C50 H34 N2 Se1'
_chemical_name_systematic        
5,9-bis(4-(2,2-diphenylvinyl)phenyl)selenopheno[3,4-g]quinoxaline
_symmetry_cell_setting           monoclinic
_symmetry_space_group_name_H-M   'P 21/c'
_symmetry_Int_Tables_number      14
_space_group_name_Hall           '-P 2ybc'
loop_
_symmetry_equiv_pos_site_id
_symmetry_equiv_pos_as_xyz
1 x,y,z
2 -x,1/2+y,1/2-z
3 -x,-y,-z
4 x,1/2-y,1/2+z
_cell_length_a                   10.2218(7)
_cell_length_b                   9.8805(10)
_cell_length_c                   20.3205(16)
_cell_angle_alpha                90
_cell_angle_beta                 117.561(6)
_cell_angle_gamma                90
_cell_volume                     1819.4
_exptl_crystal_colour            black
_exptl_crystal_description       prism
_cell_formula_units_Z            2
loop_
_atom_site_label
_atom_site_type_symbol
_atom_site_fract_x
_atom_site_fract_y
_atom_site_fract_z
N1 N 0.6413(2) 0.21692(19) -0.02926(10)
N2 N 0.5589(2) 0.0011(2) -0.12129(9)
C1 C 0.5697(2) 0.1126(2) -0.01292(10)
C2 C 0.7273(2) 0.3289(2) 0.22350(11)
H1 H 0.7905 0.3157 0.2737
C3 C 0.54393(19) 0.1164(2) 0.04959(10)
C4 C 0.6793(2) 0.4595(2) 0.19719(10)
C5 C 0.5258(2) -0.0037(2) -0.06224(10)
C6 C 0.8453(2) 0.6095(2) 0.30631(11)
C7 C 0.6825(2) 0.2193(2) 0.17626(10)
H2 H 0.7157 0.1333 0.1953
C8 C 0.5883(2) 0.2344(2) 0.10038(10)
C9 C 0.5808(2) 0.4736(2) 0.12180(10)
H3 H 0.5432 0.5588 0.1032
C10 C 0.8669(2) 0.7455(2) 0.34157(12)
C11 C 0.7225(2) 0.5832(2) 0.24282(11)
H4 H 0.6547 0.6537 0.2250
C12 C 0.9683(2) 0.5107(2) 0.34103(11)
C13 C 0.5380(2) 0.3637(2) 0.07434(10)
H5 H 0.4745 0.3766 0.0242
C14 C 1.0448(2) 0.4668(2) 0.30356(13)
H6 H 1.0227 0.5029 0.2573
C15 C 0.7499(3) 0.8210(3) 0.33827(16)
H7 H 0.6557 0.7838 0.3171
C16 C 1.1542(3) 0.3693(3) 0.33483(17)
H8 H 1.2051 0.3405 0.3095
C17 C 1.1150(3) 0.3602(3) 0.44160(15)
H9 H 1.1389 0.3245 0.4881
C18 C 1.0065(3) 0.4586(3) 0.41105(12)
H10 H 0.9590 0.4899 0.4376
C19 C 1.1875(3) 0.3154(3) 0.40289(18)
H11 H 1.2591 0.2484 0.4230
C20 C 1.0284(3) 0.9321(3) 0.40423(15)
H12 H 1.1229 0.9689 0.4266
C21 C 0.7716(3) 0.9505(3) 0.3660(2)
H13 H 0.6917 1.0006 0.3626
C22 C 1.0070(2) 0.8022(3) 0.37657(13)
H14 H 1.0877 0.7516 0.3814
C23 C 0.9121(3) 1.0072(3) 0.39908(18)
H15 H 0.9265 1.0952 0.4175
C24 C 0.6768(6) 0.2152(7) -0.0807(3)
H16 H 0.7316 0.2853 -0.0862
C25 C 0.6269(7) 0.0937(7) -0.1344(4)
H17 H 0.6466 0.0894 -0.1747
N1B N 0.3587(2) -0.21692(19) 0.02926(10)
N2B N 0.4411(2) -0.0011(2) 0.12129(9)
C1B C 0.4303(2) -0.1126(2) 0.01292(10)
C2B C 0.2727(2) -0.3289(2) -0.22350(11)
H1B H 0.2095 -0.3157 -0.2737
C3B C 0.45607(19) -0.1164(2) -0.04959(10)
C4B C 0.3207(2) -0.4595(2) -0.19719(10)
C5B C 0.4742(2) 0.0037(2) 0.06224(10)
C6B C 0.1547(2) -0.6095(2) -0.30631(11)
C7B C 0.3175(2) -0.2193(2) -0.17626(10)
H2B H 0.2843 -0.1333 -0.1953
C8B C 0.4117(2) -0.2344(2) -0.10038(10)
C9B C 0.4192(2) -0.4736(2) -0.12180(10)
H3B H 0.4568 -0.5588 -0.1032
C10B C 0.1331(2) -0.7455(2) -0.34157(12)
C11B C 0.2775(2) -0.5832(2) -0.24282(11)
H4B H 0.3453 -0.6537 -0.2250
C12B C 0.0317(2) -0.5107(2) -0.34103(11)
C13B C 0.4620(2) -0.3637(2) -0.07434(10)
H5B H 0.5255 -0.3766 -0.0242
C14B C -0.0448(2) -0.4668(2) -0.30356(13)
H6B H -0.0227 -0.5029 -0.2573
C15B C 0.2501(3) -0.8210(3) -0.33827(16)
H7B H 0.3443 -0.7838 -0.3171
C16B C -0.1542(3) -0.3693(3) -0.33483(17)
H8B H -0.2051 -0.3405 -0.3095
C17B C -0.1150(3) -0.3602(3) -0.44160(15)
H9B H -0.1389 -0.3245 -0.4881
C18B C -0.0065(3) -0.4586(3) -0.41105(12)
H10B H 0.0410 -0.4899 -0.4376
C19B C -0.1875(3) -0.3154(3) -0.40289(18)
H11B H -0.2591 -0.2484 -0.4230
C20B C -0.0284(3) -0.9321(3) -0.40423(15)
H12B H -0.1229 -0.9689 -0.4266
C21B C 0.2284(3) -0.9505(3) -0.3660(2)
H13B H 0.3083 -1.0006 -0.3626
C22B C -0.0070(2) -0.8022(3) -0.37657(13)
H14B H -0.0877 -0.7516 -0.3814
C23B C 0.0879(3) -1.0072(3) -0.39908(18)
H15B H 0.0735 -1.0952 -0.4175
C24B C 0.3232(6) -0.2152(7) 0.0807(3)
H16B H 0.2684 -0.2853 0.0862
C25B C 0.3731(7) -0.0937(7) 0.1344(4)
H17B H 0.3534 -0.0894 0.1747
Se1? Se 0.64569(7) 0.16477(8) -0.11476(4)
C26? C 0.5589(2) 0.0011(2) -0.12129(9)
H18? H 0.6647 0.2941 0.0002
H19? H 0.5274 -0.0715 -0.1542
C27? C 0.6413(2) 0.21692(19) -0.02926(10)
loop_
_geom_bond_atom_site_label_1
_geom_bond_atom_site_label_2
_geom_bond_site_symmetry_1
_geom_bond_site_symmetry_2
N1 C1 1_555 1_555
N2 C5 1_555 1_555
C1 C3 1_555 1_555
C2 H1 1_555 1_555
C3 C8 1_555 1_555
C4 C2 1_555 1_555
C5 C1 1_555 1_555
C6 C10 1_555 1_555
C7 C2 1_555 1_555
H2 C7 1_555 1_555
C8 C7 1_555 1_555
C9 C4 1_555 1_555
H3 C9 1_555 1_555
C10 C15 1_555 1_555
C11 C4 1_555 1_555
H4 C11 1_555 1_555
C12 C6 1_555 1_555
C13 C8 1_555 1_555
H5 C13 1_555 1_555
C14 C12 1_555 1_555
H6 C14 1_555 1_555
C15 H7 1_555 1_555
C16 C14 1_555 1_555
H8 C16 1_555 1_555
C17 H9 1_555 1_555
C18 C12 1_555 1_555
H10 C18 1_555 1_555
C19 C16 1_555 1_555
H11 C19 1_555 1_555
C20 H12 1_555 1_555
C21 C15 1_555 1_555
H13 C21 1_555 1_555
C22 C10 1_555 1_555
H14 C22 1_555 1_555
C23 C20 1_555 1_555
H15 C23 1_555 1_555
C24 N1 1_555 1_555
H16 C24 1_555 1_555
C25 N2 1_555 1_555
H17 C25 1_555 1_555
N1B C1B 1_555 1_555
N2B C5B 1_555 1_555
C1B C3B 1_555 1_555
C2B H1B 1_555 1_555
C3B C5 1_555 1_555
C4B C2B 1_555 1_555
C5B C3 1_555 1_555
C6B C10B 1_555 1_555
C7B C2B 1_555 1_555
H2B C7B 1_555 1_555
C8B C3B 1_555 1_555
C9B C4B 1_555 1_555
H3B C9B 1_555 1_555
C10B C15B 1_555 1_555
C11B C4B 1_555 1_555
H4B C11B 1_555 1_555
C12B C6B 1_555 1_555
C13B C8B 1_555 1_555
H5B C13B 1_555 1_555
C14B C12B 1_555 1_555
H6B C14B 1_555 1_555
C15B H7B 1_555 1_555
C16B C14B 1_555 1_555
H8B C16B 1_555 1_555
C17B H9B 1_555 1_555
C18B C12B 1_555 1_555
H10B C18B 1_555 1_555
C19B C16B 1_555 1_555
H11B C19B 1_555 1_555
C20B H12B 1_555 1_555
C21B C15B 1_555 1_555
H13B C21B 1_555 1_555
C22B C10B 1_555 1_555
H14B C22B 1_555 1_555
C23B C20B 1_555 1_555
H15B C23B 1_555 1_555
C24B N1B 1_555 1_555
H16B C24B 1_555 1_555
C25B N2B 1_555 1_555
H17B C25B 1_555 1_555
C6 C11 1_555 1_555
C9 C13 1_555 1_555
C17 C18 1_555 1_555
C17 C19 1_555 1_555
C20 C22 1_555 1_555
C21 C23 1_555 1_555
C24 C25 1_555 1_555
C1B C5B 1_555 1_555
C6B C11B 1_555 1_555
C7B C8B 1_555 1_555
C9B C13B 1_555 1_555
C17B C18B 1_555 1_555
C17B C19B 1_555 1_555
C20B C22B 1_555 1_555
C21B C23B 1_555 1_555
C24B C25B 1_555 1_555

#END
