
#######################################################################
#
#                 Cambridge Crystallographic Data Centre
#                                CCDC 
#
#######################################################################
#
# If this CIF has been generated from an entry in the Cambridge 
# Structural Database, then it will include bibliographic, chemical, 
# crystal, experimental, refinement or atomic coordinate data resulting 
# from the CCDC's data processing and validation procedures.
#
#######################################################################

data_WUFTUM
_chemical_formula_moiety         'C32 H36 B1 N1 S1'
_chemical_name_systematic        
(2-(4'-(N,N-dimethylamino)styryl)thiophen-5-yl)-bis(2,4,6-trimethylphenyl)borane
_symmetry_cell_setting           triclinic
_symmetry_space_group_name_H-M   'P -1'
_symmetry_Int_Tables_number      2
_space_group_name_Hall           '-P 1'
loop_
_symmetry_equiv_pos_site_id
_symmetry_equiv_pos_as_xyz
1 x,y,z
2 -x,-y,-z
_cell_length_a                   8.0588(12)
_cell_length_b                   10.4341(14)
_cell_length_c                   17.705(3)
_cell_angle_alpha                74.182(12)
_cell_angle_beta                 86.993(9)
_cell_angle_gamma                79.471(11)
_cell_volume                     1408.25
_exptl_crystal_colour            orange
_exptl_crystal_description       plate
_chemical_melting_point          436-437K
_cell_formula_units_Z            2
loop_
_atom_site_label
_atom_site_type_symbol
_atom_site_fract_x
_atom_site_fract_y
_atom_site_fract_z
S1 S 0.13840(12) 0.13701(8) 0.28313(5)
N1 N -0.3707(4) 0.6718(3) 0.56744(16)
B1 B 0.3010(5) -0.0504(3) 0.1987(2)
C1 C -0.4281(6) 0.6232(4) 0.6471(2)
H1 H -0.4075 0.5261 0.6622
H2 H -0.5468 0.6561 0.6504
H3 H -0.3681 0.6553 0.6817
C2 C -0.3891(6) 0.8150(3) 0.5338(2)
H4 H -0.3438 0.8328 0.4815
H5 H -0.3293 0.8534 0.5652
H6 H -0.5065 0.8548 0.5322
C3 C -0.3028(4) 0.5823(3) 0.52445(18)
C4 C -0.3084(5) 0.4442(3) 0.55209(19)
H7 H -0.3592 0.4117 0.6002
C5 C -0.2401(4) 0.3563(3) 0.50907(19)
H8 H -0.2491 0.2654 0.5280
C6 C -0.1572(4) 0.3988(3) 0.43762(18)
C7 C -0.1518(5) 0.5351(3) 0.4112(2)
H9 H -0.0983 0.5672 0.3638
C8 C -0.2229(5) 0.6246(3) 0.45271(19)
H10 H -0.2176 0.7159 0.4325
C9 C -0.0779(4) 0.3066(4) 0.3925(2)
H11 H -0.0208 0.3451 0.3474
C10 C -0.0764(4) 0.1739(3) 0.40725(19)
H12 H -0.1353 0.1343 0.4514
C11 C 0.0078(4) 0.0861(3) 0.36133(17)
C12 C -0.0017(4) -0.0474(3) 0.37247(18)
H13 H -0.0625 -0.0953 0.4131
C13 C 0.0896(4) -0.1048(3) 0.31639(18)
H14 H 0.0910 -0.1937 0.3156
C14 C 0.1758(4) -0.0201(3) 0.26331(18)
C15 C 0.4363(4) 0.0433(3) 0.16975(17)
C16 C 0.5492(4) 0.0606(3) 0.22269(18)
C17 C 0.6605(4) 0.1494(3) 0.1968(2)
H15 H 0.7328 0.1600 0.2331
C18 C 0.6693(5) 0.2225(3) 0.1205(2)
C19 C 0.5600(5) 0.2041(3) 0.0677(2)
H16 H 0.5650 0.2511 0.0151
C20 C 0.4438(4) 0.1182(3) 0.09087(18)
C21 C 0.7928(6) 0.3184(4) 0.0944(3)
H17 H 0.8568 0.3179 0.1387
H18 H 0.7324 0.4081 0.0720
H19 H 0.8678 0.2903 0.0557
C22 C 0.3240(5) 0.1104(4) 0.03043(19)
H20 H 0.3482 0.1680 -0.0197
H21 H 0.2100 0.1395 0.0454
H22 H 0.3373 0.0188 0.0271
C23 C 0.5622(5) -0.0230(4) 0.30761(18)
H23 H 0.6458 0.0037 0.3339
H24 H 0.5940 -0.1171 0.3096
H25 H 0.4550 -0.0085 0.3331
C24 C 0.2824(4) -0.1785(3) 0.17024(17)
C25 C 0.1289(4) -0.1903(3) 0.14159(19)
C26 C 0.1094(5) -0.3083(4) 0.1238(2)
H26 H 0.0060 -0.3134 0.1049
C27 C 0.2386(6) -0.4182(4) 0.1334(2)
C28 C 0.3910(5) -0.4058(3) 0.1593(2)
H27 H 0.4804 -0.4780 0.1650
C29 C 0.4166(4) -0.2884(3) 0.17736(18)
C30 C 0.5879(5) -0.2866(4) 0.2075(2)
H28 H 0.6621 -0.3698 0.2076
H29 H 0.5767 -0.2768 0.2600
H30 H 0.6337 -0.2121 0.1742
C31 C 0.2136(7) -0.5478(4) 0.1165(3)
H31 H 0.3165 -0.6126 0.1270
H32 H 0.1834 -0.5296 0.0624
H33 H 0.1252 -0.5835 0.1494
C32 C -0.0212(5) -0.0756(4) 0.1263(2)
H34 H -0.1138 -0.1041 0.1071
H35 H 0.0088 0.0012 0.0878
H36 H -0.0539 -0.0515 0.1742
loop_
_geom_bond_atom_site_label_1
_geom_bond_atom_site_label_2
_geom_bond_site_symmetry_1
_geom_bond_site_symmetry_2
S1 C11 1_555 1_555
N1 C1 1_555 1_555
B1 C14 1_555 1_555
C1 H1 1_555 1_555
H2 C1 1_555 1_555
H3 C1 1_555 1_555
C2 N1 1_555 1_555
H4 C2 1_555 1_555
H5 C2 1_555 1_555
H6 C2 1_555 1_555
C3 N1 1_555 1_555
C4 C3 1_555 1_555
H7 C4 1_555 1_555
C5 C4 1_555 1_555
H8 C5 1_555 1_555
C6 C5 1_555 1_555
C7 C6 1_555 1_555
H9 C7 1_555 1_555
C8 C3 1_555 1_555
H10 C8 1_555 1_555
C9 C6 1_555 1_555
H11 C9 1_555 1_555
C10 C9 1_555 1_555
H12 C10 1_555 1_555
C11 C10 1_555 1_555
C12 C11 1_555 1_555
H13 C12 1_555 1_555
C13 C12 1_555 1_555
H14 C13 1_555 1_555
C14 S1 1_555 1_555
C15 B1 1_555 1_555
C16 C15 1_555 1_555
C17 C16 1_555 1_555
H15 C17 1_555 1_555
C18 C17 1_555 1_555
C19 C18 1_555 1_555
H16 C19 1_555 1_555
C20 C15 1_555 1_555
C21 C18 1_555 1_555
H17 C21 1_555 1_555
H18 C21 1_555 1_555
H19 C21 1_555 1_555
C22 C20 1_555 1_555
H20 C22 1_555 1_555
H21 C22 1_555 1_555
H22 C22 1_555 1_555
C23 C16 1_555 1_555
H23 C23 1_555 1_555
H24 C23 1_555 1_555
H25 C23 1_555 1_555
C24 B1 1_555 1_555
C25 C24 1_555 1_555
C26 C25 1_555 1_555
H26 C26 1_555 1_555
C27 C26 1_555 1_555
C28 C27 1_555 1_555
H27 C28 1_555 1_555
C29 C24 1_555 1_555
C30 C29 1_555 1_555
H28 C30 1_555 1_555
H29 C30 1_555 1_555
H30 C30 1_555 1_555
C31 C27 1_555 1_555
H31 C31 1_555 1_555
H32 C31 1_555 1_555
H33 C31 1_555 1_555
C32 C25 1_555 1_555
H34 C32 1_555 1_555
H35 C32 1_555 1_555
H36 C32 1_555 1_555
C7 C8 1_555 1_555
C13 C14 1_555 1_555
C19 C20 1_555 1_555
C28 C29 1_555 1_555

#END
