
#######################################################################
#
#                 Cambridge Crystallographic Data Centre
#                                CCDC 
#
#######################################################################
#
# If this CIF has been generated from an entry in the Cambridge 
# Structural Database, then it will include bibliographic, chemical, 
# crystal, experimental, refinement or atomic coordinate data resulting 
# from the CCDC's data processing and validation procedures.
#
#######################################################################

data_WUGBAC
_chemical_formula_moiety         'C32 H46 N6 2+,2(B1 F4 1-)'
_chemical_name_systematic        
"N,N'-bis(Dipyrrolidin-1-ylmethylidene)-1,2-diphenylethane-1,2-diaminium bis(tetrafluoroborate)"
_symmetry_cell_setting           orthorhombic
_symmetry_space_group_name_H-M   'P 21 21 21'
_symmetry_Int_Tables_number      19
_space_group_name_Hall           'P 2ac 2ab'
loop_
_symmetry_equiv_pos_site_id
_symmetry_equiv_pos_as_xyz
1 x,y,z
2 1/2-x,-y,1/2+z
3 -x,1/2+y,1/2-z
4 1/2+x,1/2-y,-z
_cell_length_a                   11.5290(5)
_cell_length_b                   12.7273(6)
_cell_length_c                   23.2684(10)
_cell_angle_alpha                90
_cell_angle_beta                 90
_cell_angle_gamma                90
_cell_volume                     3414.24
_exptl_crystal_colour            colorless
_exptl_crystal_description       rod
_cell_formula_units_Z            4
loop_
_atom_site_label
_atom_site_type_symbol
_atom_site_fract_x
_atom_site_fract_y
_atom_site_fract_z
N1 N 0.35568(16) 0.52249(14) 0.46500(8)
H1 H 0.309(3) 0.473(2) 0.4782(12)
N2 N 0.24162(15) 0.40186(14) 0.37617(8)
H2 H 0.206(2) 0.4644(19) 0.3838(10)
N3 N 0.43907(16) 0.68308(14) 0.49084(8)
N4 N 0.38798(17) 0.56234(14) 0.56033(8)
N5 N 0.08479(16) 0.34510(13) 0.32326(8)
N6 N 0.21862(18) 0.22378(14) 0.35505(8)
C1 C 0.40545(19) 0.50983(16) 0.40679(9)
H3 H 0.3718 0.5642 0.3813
C2 C 0.36839(18) 0.40040(16) 0.38434(9)
H4 H 0.3878 0.3470 0.4137
C3 C 0.39438(17) 0.58959(15) 0.50515(9)
C4 C 0.18152(18) 0.32349(15) 0.35198(8)
C5 C 0.53673(19) 0.52256(16) 0.40724(9)
C6 C 0.5890(2) 0.58539(18) 0.36617(10)
H5 H 0.5435 0.6190 0.3382
C7 C 0.7093(2) 0.5990(2) 0.36621(12)
H6 H 0.7444 0.6421 0.3384
C8 C 0.7763(2) 0.5491(2) 0.40698(13)
H7 H 0.8571 0.5593 0.4075
C9 C 0.7250(2) 0.4847(2) 0.44672(12)
H8 H 0.7713 0.4494 0.4738
C10 C 0.6055(2) 0.4708(2) 0.44750(10)
H9 H 0.5712 0.4267 0.4751
C11 C 0.43047(18) 0.37295(18) 0.32905(10)
C12 C 0.4072(2) 0.4279(2) 0.27887(10)
H10 H 0.3505 0.4809 0.2786
C13 C 0.4679(2) 0.4042(3) 0.22936(12)
H11 H 0.4533 0.4425 0.1956
C14 C 0.5497(2) 0.3247(3) 0.22894(13)
H12 H 0.5902 0.3088 0.1950
C15 C 0.5714(2) 0.2695(2) 0.27823(15)
H13 H 0.6264 0.2151 0.2780
C16 C 0.5126(2) 0.2935(2) 0.32838(12)
H14 H 0.5286 0.2558 0.3622
C17 C 0.4020(2) 0.74693(17) 0.44115(10)
H15 H 0.3187 0.7619 0.4427
H16 H 0.4199 0.7115 0.4048
C18 C 0.4728(3) 0.8463(2) 0.44801(13)
H17 H 0.4316 0.8980 0.4716
H18 H 0.4903 0.8778 0.4105
C19 C 0.5828(3) 0.8092(2) 0.47766(12)
H19 H 0.6351 0.7742 0.4506
H20 H 0.6238 0.8679 0.4959
C20 C 0.5369(2) 0.7332(2) 0.52187(12)
H21 H 0.5959 0.6814 0.5327
H22 H 0.5100 0.7700 0.5564
C21 C 0.3770(2) 0.6395(2) 0.60781(10)
H23 H 0.3341 0.7020 0.5953
H24 H 0.4534 0.6611 0.6221
C22 C 0.3110(3) 0.5801(3) 0.65291(12)
H25 H 0.2272 0.5831 0.6458
H26 H 0.3272 0.6077 0.6914
C23 C 0.3568(3) 0.4694(3) 0.64611(12)
H27 H 0.3035 0.4181 0.6631
H28 H 0.4332 0.4619 0.6641
C24 C 0.3646(3) 0.4553(2) 0.58150(11)
H29 H 0.4277 0.4073 0.5712
H30 H 0.2916 0.4281 0.5658
C25 C 0.0477(2) 0.45314(16) 0.30967(10)
H31 H 0.1034 0.4879 0.2842
H32 H 0.0386 0.4951 0.3447
C26 C -0.0678(2) 0.4371(2) 0.27988(12)
H33 H -0.0572 0.4211 0.2390
H34 H -0.1174 0.4993 0.2837
C27 C -0.1187(2) 0.3434(2) 0.31210(13)
H35 H -0.1503 0.3647 0.3494
H36 H -0.1798 0.3092 0.2896
C28 C -0.0142(2) 0.27166(19) 0.31936(12)
H37 H -0.0211 0.2294 0.3544
H38 H -0.0058 0.2246 0.2863
C29 C 0.2088(3) 0.1480(2) 0.30744(13)
H39 H 0.2404 0.1769 0.2717
H40 H 0.1280 0.1271 0.3011
C30 C 0.2809(3) 0.0567(2) 0.32881(18)
H41 H 0.2542 -0.0098 0.3122
H42 H 0.3631 0.0666 0.3196
C31 C 0.2609(3) 0.0594(2) 0.39291(16)
H43 H 0.1838 0.0325 0.4028
H44 H 0.3197 0.0183 0.4134
C32 C 0.2712(3) 0.17479(19) 0.40676(12)
H45 H 0.2279 0.1929 0.4416
H46 H 0.3524 0.1958 0.4114
B1 B 0.1513(3) 0.6977(2) 0.33479(12)
F1 F 0.16731(13) 0.63371(10) 0.38318(6)
F2 F 0.21892(17) 0.65824(13) 0.29070(8)
F3 F 0.03522(14) 0.69435(12) 0.31943(7)
F4 F 0.18306(16) 0.79957(11) 0.34837(8)
B2 B 0.0603(3) 0.3618(2) 0.50035(17)
F5 F 0.0295(3) 0.3957(2) 0.55442(13)
F6 F 0.17859(16) 0.36095(19) 0.49719(8)
F7 F 0.0207(2) 0.2645(2) 0.4896(2)
F8 F 0.0212(3) 0.4334(2) 0.46025(13)
loop_
_geom_bond_atom_site_label_1
_geom_bond_atom_site_label_2
_geom_bond_site_symmetry_1
_geom_bond_site_symmetry_2
N1 H1 1_555 1_555
N2 H2 1_555 1_555
N3 C3 1_555 1_555
N4 C3 1_555 1_555
N5 C4 1_555 1_555
N6 C4 1_555 1_555
C1 N1 1_555 1_555
H3 C1 1_555 1_555
C2 N2 1_555 1_555
H4 C2 1_555 1_555
C3 N1 1_555 1_555
C4 N2 1_555 1_555
C5 C1 1_555 1_555
C6 C5 1_555 1_555
H5 C6 1_555 1_555
C7 C6 1_555 1_555
H6 C7 1_555 1_555
C8 C7 1_555 1_555
H7 C8 1_555 1_555
C9 C8 1_555 1_555
H8 C9 1_555 1_555
C10 C5 1_555 1_555
H9 C10 1_555 1_555
C11 C2 1_555 1_555
C12 C11 1_555 1_555
H10 C12 1_555 1_555
C13 C12 1_555 1_555
H11 C13 1_555 1_555
C14 C13 1_555 1_555
H12 C14 1_555 1_555
C15 C14 1_555 1_555
H13 C15 1_555 1_555
C16 C11 1_555 1_555
H14 C16 1_555 1_555
C17 N3 1_555 1_555
H15 C17 1_555 1_555
H16 C17 1_555 1_555
C18 C17 1_555 1_555
H17 C18 1_555 1_555
H18 C18 1_555 1_555
C19 C18 1_555 1_555
H19 C19 1_555 1_555
H20 C19 1_555 1_555
C20 N3 1_555 1_555
H21 C20 1_555 1_555
H22 C20 1_555 1_555
C21 N4 1_555 1_555
H23 C21 1_555 1_555
H24 C21 1_555 1_555
C22 C21 1_555 1_555
H25 C22 1_555 1_555
H26 C22 1_555 1_555
C23 C22 1_555 1_555
H27 C23 1_555 1_555
H28 C23 1_555 1_555
C24 N4 1_555 1_555
H29 C24 1_555 1_555
H30 C24 1_555 1_555
C25 N5 1_555 1_555
H31 C25 1_555 1_555
H32 C25 1_555 1_555
C26 C25 1_555 1_555
H33 C26 1_555 1_555
H34 C26 1_555 1_555
C27 C26 1_555 1_555
H35 C27 1_555 1_555
H36 C27 1_555 1_555
C28 N5 1_555 1_555
H37 C28 1_555 1_555
H38 C28 1_555 1_555
C29 N6 1_555 1_555
H39 C29 1_555 1_555
H40 C29 1_555 1_555
C30 C29 1_555 1_555
H41 C30 1_555 1_555
H42 C30 1_555 1_555
C31 C30 1_555 1_555
H43 C31 1_555 1_555
H44 C31 1_555 1_555
C32 N6 1_555 1_555
H45 C32 1_555 1_555
H46 C32 1_555 1_555
B1 F1 1_555 1_555
F2 B1 1_555 1_555
F3 B1 1_555 1_555
F4 B1 1_555 1_555
B2 F5 1_555 1_555
F6 B2 1_555 1_555
F7 B2 1_555 1_555
F8 B2 1_555 1_555
C1 C2 1_555 1_555
C9 C10 1_555 1_555
C15 C16 1_555 1_555
C19 C20 1_555 1_555
C23 C24 1_555 1_555
C27 C28 1_555 1_555
C31 C32 1_555 1_555

#END
