
#######################################################################
#
#                 Cambridge Crystallographic Data Centre
#                                CCDC 
#
#######################################################################
#
# If this CIF has been generated from an entry in the Cambridge 
# Structural Database, then it will include bibliographic, chemical, 
# crystal, experimental, refinement or atomic coordinate data resulting 
# from the CCDC's data processing and validation procedures.
#
#######################################################################

data_WUGBEG
_chemical_formula_moiety         'C32 H45 N6 1+,B1 F4 1-'
_chemical_name_systematic        
'N-(Dipyrrolidin-1-ylmethylidene)-2-((dipyrrolidin-1-ylmethylidene)amino)-1,2-diphenylethanaminium tetrafluoroborate'
_symmetry_cell_setting           triclinic
_symmetry_space_group_name_H-M   'P 1'
_symmetry_Int_Tables_number      1
_space_group_name_Hall           'P 1'
loop_
_symmetry_equiv_pos_site_id
_symmetry_equiv_pos_as_xyz
1 x,y,z
_cell_length_a                   9.0422(7)
_cell_length_b                   10.0131(8)
_cell_length_c                   10.4033(8)
_cell_angle_alpha                109.499(2)
_cell_angle_beta                 105.606(2)
_cell_angle_gamma                108.381(2)
_cell_volume                     765.303
_exptl_crystal_colour            colorless
_exptl_crystal_description       block
_cell_formula_units_Z            1
loop_
_atom_site_label
_atom_site_type_symbol
_atom_site_fract_x
_atom_site_fract_y
_atom_site_fract_z
N1 N 0.4414(3) 0.0280(3) 0.6682(3)
H1 H 0.514(5) -0.011(5) 0.690(5)
N2 N 0.7837(3) 0.1888(3) 0.8625(3)
N3 N 0.1814(4) 0.0460(3) 0.6216(3)
N4 N 0.2394(3) -0.1031(3) 0.7348(3)
N5 N 0.9982(4) 0.4115(3) 1.0951(3)
N6 N 0.9463(3) 0.1549(3) 1.0492(3)
C1 C 0.5476(4) 0.1715(4) 0.6664(4)
H2 H 0.4773 0.2280 0.6516
C2 C 0.6014(4) 0.1338(4) 0.5369(4)
C3 C 0.6369(6) 0.2437(5) 0.4830(5)
H3 H 0.6234 0.3358 0.5238
C4 C 0.6927(7) 0.2184(7) 0.3687(6)
H4 H 0.7202 0.2952 0.3350
C5 C 0.7079(6) 0.0832(7) 0.3050(6)
H5 H 0.7420 0.0649 0.2256
C6 C 0.6723(6) -0.0271(5) 0.3591(5)
H6 H 0.6853 -0.1194 0.3174
C7 C 0.6180(5) -0.0031(4) 0.4734(5)
H7 H 0.5925 -0.0795 0.5079
C8 C 0.7033(4) 0.2818(4) 0.8209(4)
H8 H 0.7873 0.3635 0.8096
C9 C 0.6415(4) 0.3651(4) 0.9318(4)
C10 C 0.6216(5) 0.4966(4) 0.9315(5)
H9 H 0.6482 0.5338 0.8648
C11 C 0.5628(6) 0.5741(5) 1.0285(5)
H10 H 0.5524 0.6648 1.0290
C12 C 0.5198(6) 0.5176(5) 1.1238(5)
H11 H 0.4783 0.5686 1.1887
C13 C 0.5376(5) 0.3870(5) 1.1238(5)
H12 H 0.5089 0.3490 1.1893
C14 C 0.5969(4) 0.3110(4) 1.0291(4)
H13 H 0.6075 0.2209 1.0301
C15 C 0.2884(4) -0.0087(3) 0.6746(4)
C16 C 0.1637(5) 0.0883(5) 0.4978(4)
H14 H 0.0567 0.0098 0.4092
H15 H 0.2605 0.0962 0.4702
C17 C 0.1623(6) 0.2475(5) 0.5606(6)
H16 H 0.0848 0.2577 0.4821
H17 H 0.2777 0.3337 0.6023
C18 C 0.0990(6) 0.2525(5) 0.6843(5)
H18 H -0.0122 0.2551 0.6568
H19 H 0.1813 0.3467 0.7794
C19 C 0.0823(5) 0.1007(5) 0.6991(5)
H20 H 0.1308 0.1239 0.8048
H21 H -0.0379 0.0215 0.6508
C20 C 0.0562(4) -0.2160(4) 0.6802(5)
H22 H -0.0089 -0.2482 0.5742
H23 H 0.0015 -0.1694 0.7395
C21 C 0.0698(6) -0.3538(5) 0.7024(6)
H24 H -0.0292 -0.4124 0.7163
H25 H 0.0769 -0.4263 0.6163
C22 C 0.2325(6) -0.2781(5) 0.8419(6)
H26 H 0.2769 -0.3545 0.8473
H27 H 0.2139 -0.2342 0.9322
C23 C 0.3552(5) -0.1467(4) 0.8244(5)
H28 H 0.4365 -0.0563 0.9224
H29 H 0.4193 -0.1854 0.7716
C24 C 0.9046(4) 0.2524(4) 0.9954(4)
C25 C 1.0589(5) 0.5383(4) 1.0528(4)
H30 H 0.9629 0.5506 0.9958
H31 H 1.1237 0.5171 0.9930
C26 C 1.1731(5) 0.6831(4) 1.2030(5)
H32 H 1.1757 0.7793 1.1968
H33 H 1.2904 0.6946 1.2390
C27 C 1.0892(6) 0.6503(5) 1.3040(5)
H34 H 0.9869 0.6687 1.2865
H35 H 1.1691 0.7162 1.4101
C28 C 1.0423(5) 0.4765(4) 1.2567(4)
H36 H 1.1395 0.4626 1.3093
H37 H 0.9443 0.4263 1.2760
C29 C 0.8484(4) -0.0175(4) 0.9560(4)
H38 H 0.8363 -0.0481 0.8525
H39 H 0.7341 -0.0563 0.9555
C30 C 0.9584(5) -0.0803(4) 1.0336(5)
H40 H 0.9318 -0.0911 1.1160
H41 H 0.9410 -0.1832 0.9623
C31 C 1.1401(5) 0.0450(4) 1.0923(5)
H42 H 1.1799 0.0339 1.0122
H43 H 1.2196 0.0402 1.1739
C32 C 1.1218(4) 0.1986(4) 1.1489(4)
H44 H 1.1369 0.2356 1.2536
H45 H 1.2061 0.2820 1.1414
B1 B 0.5509(7) -0.3833(5) 0.5510(6)
F1 F 0.6742(5) -0.3135(5) 0.5024(6)
F2 F 0.6444(7) -0.3803(4) 0.6772(4)
F3 F 0.4447(4) -0.5321(3) 0.4406(4)
F4 F 0.4709(5) -0.2897(4) 0.5687(5)
loop_
_geom_bond_atom_site_label_1
_geom_bond_atom_site_label_2
_geom_bond_site_symmetry_1
_geom_bond_site_symmetry_2
N1 H1 1_555 1_555
N2 C8 1_555 1_555
N3 C15 1_555 1_555
N4 C15 1_555 1_555
N5 C24 1_555 1_555
N6 C24 1_555 1_555
C1 N1 1_555 1_555
H2 C1 1_555 1_555
C2 C1 1_555 1_555
C3 C2 1_555 1_555
H3 C3 1_555 1_555
C4 C3 1_555 1_555
H4 C4 1_555 1_555
C5 C4 1_555 1_555
H5 C5 1_555 1_555
C6 C5 1_555 1_555
H6 C6 1_555 1_555
C7 C2 1_555 1_555
H7 C7 1_555 1_555
C8 C1 1_555 1_555
H8 C8 1_555 1_555
C9 C8 1_555 1_555
C10 C9 1_555 1_555
H9 C10 1_555 1_555
C11 C10 1_555 1_555
H10 C11 1_555 1_555
C12 C11 1_555 1_555
H11 C12 1_555 1_555
C13 C12 1_555 1_555
H12 C13 1_555 1_555
C14 C9 1_555 1_555
H13 C14 1_555 1_555
C15 N1 1_555 1_555
C16 N3 1_555 1_555
H14 C16 1_555 1_555
H15 C16 1_555 1_555
C17 C16 1_555 1_555
H16 C17 1_555 1_555
H17 C17 1_555 1_555
C18 C17 1_555 1_555
H18 C18 1_555 1_555
H19 C18 1_555 1_555
C19 N3 1_555 1_555
H20 C19 1_555 1_555
H21 C19 1_555 1_555
C20 N4 1_555 1_555
H22 C20 1_555 1_555
H23 C20 1_555 1_555
C21 C20 1_555 1_555
H24 C21 1_555 1_555
H25 C21 1_555 1_555
C22 C21 1_555 1_555
H26 C22 1_555 1_555
H27 C22 1_555 1_555
C23 N4 1_555 1_555
H28 C23 1_555 1_555
H29 C23 1_555 1_555
C24 N2 1_555 1_555
C25 N5 1_555 1_555
H30 C25 1_555 1_555
H31 C25 1_555 1_555
C26 C25 1_555 1_555
H32 C26 1_555 1_555
H33 C26 1_555 1_555
C27 C26 1_555 1_555
H34 C27 1_555 1_555
H35 C27 1_555 1_555
C28 N5 1_555 1_555
H36 C28 1_555 1_555
H37 C28 1_555 1_555
C29 N6 1_555 1_555
H38 C29 1_555 1_555
H39 C29 1_555 1_555
C30 C29 1_555 1_555
H40 C30 1_555 1_555
H41 C30 1_555 1_555
C31 C30 1_555 1_555
H42 C31 1_555 1_555
H43 C31 1_555 1_555
C32 N6 1_555 1_555
H44 C32 1_555 1_555
H45 C32 1_555 1_555
B1 F1 1_555 1_555
F2 B1 1_555 1_555
F3 B1 1_555 1_555
F4 B1 1_555 1_555
C6 C7 1_555 1_555
C13 C14 1_555 1_555
C18 C19 1_555 1_555
C22 C23 1_555 1_555
C27 C28 1_555 1_555
C31 C32 1_555 1_555

#END
