
#######################################################################
#
#                 Cambridge Crystallographic Data Centre
#                                CCDC 
#
#######################################################################
#
# If this CIF has been generated from an entry in the Cambridge 
# Structural Database, then it will include bibliographic, chemical, 
# crystal, experimental, refinement or atomic coordinate data resulting 
# from the CCDC's data processing and validation procedures.
#
#######################################################################

data_WUGNES
_chemical_name_common            '2,4-dihydroxy-3-acetyl-6-methyl acetophenone'
_chemical_formula_moiety         'C11 H12 O4'
_chemical_name_systematic        
1,1'-(2,4-Dihydroxy-6-methyl-1,3-phenylene)diethanone
_symmetry_cell_setting           orthorhombic
_symmetry_space_group_name_H-M   'P b c a'
_symmetry_Int_Tables_number      61
_space_group_name_Hall           '-P 2ac 2ab'
loop_
_symmetry_equiv_pos_site_id
_symmetry_equiv_pos_as_xyz
1 x,y,z
2 1/2-x,-y,1/2+z
3 1/2+x,1/2-y,-z
4 -x,1/2+y,1/2-z
5 -x,-y,-z
6 1/2+x,y,1/2-z
7 1/2-x,1/2+y,z
8 x,1/2-y,1/2+z
_cell_length_a                   7.255
_cell_length_b                   14.410
_cell_length_c                   18.332
_cell_angle_alpha                90
_cell_angle_beta                 90
_cell_angle_gamma                90
_cell_volume                     1916.51
_exptl_crystal_colour            colorless
_exptl_crystal_description       block
_cell_formula_units_Z            8
loop_
_atom_site_label
_atom_site_type_symbol
_atom_site_fract_x
_atom_site_fract_y
_atom_site_fract_z
O1 O 0.46112(14) 0.00844(6) 0.75788(5)
H1 H 0.4788 -0.0079 0.8002
O2 O 0.47907(13) 0.01473(6) 0.88944(5)
O3 O 0.24889(14) 0.27069(7) 0.62585(5)
H2 H 0.2810 0.2387 0.5911
O4 O 0.37094(14) 0.13258(7) 0.56024(5)
C1 C 0.24982(18) 0.27272(9) 0.75283(7)
H3 H 0.2014 0.3324 0.7507
C2 C 0.28336(17) 0.23367(9) 0.81988(7)
C3 C 0.35694(17) 0.13442(9) 0.68802(7)
C4 C 0.39266(17) 0.09389(9) 0.75719(7)
C5 C 0.35913(17) 0.14208(9) 0.82413(7)
C6 C 0.28603(18) 0.22585(9) 0.68811(7)
C7 C 0.39408(18) 0.08834(9) 0.61797(7)
C8 C 0.4592(2) -0.00959(10) 0.61204(7)
H4 H 0.4787 -0.0248 0.5617
H5 H 0.3679 -0.0504 0.6323
H6 H 0.5727 -0.0165 0.6384
C9 C 0.2345(2) 0.29279(9) 0.88516(8)
H7 H 0.1750 0.3486 0.8690
H8 H 0.3447 0.3084 0.9114
H9 H 0.1527 0.2589 0.9166
C10 C 0.40922(17) 0.09426(9) 0.89186(7)
C11 C 0.3837(2) 0.13319(10) 0.96705(8)
H10 H 0.4348 0.0911 1.0022
H11 H 0.2546 0.1415 0.9765
H12 H 0.4455 0.1919 0.9705
loop_
_geom_bond_atom_site_label_1
_geom_bond_atom_site_label_2
_geom_bond_site_symmetry_1
_geom_bond_site_symmetry_2
O1 H1 1_555 1_555
O2 C10 1_555 1_555
O3 H2 1_555 1_555
O4 C7 1_555 1_555
C1 H3 1_555 1_555
C2 C1 1_555 1_555
C3 C4 1_555 1_555
C4 O1 1_555 1_555
C5 C2 1_555 1_555
C6 O3 1_555 1_555
C7 C3 1_555 1_555
C8 C7 1_555 1_555
H4 C8 1_555 1_555
H5 C8 1_555 1_555
H6 C8 1_555 1_555
C9 C2 1_555 1_555
H7 C9 1_555 1_555
H8 C9 1_555 1_555
H9 C9 1_555 1_555
C10 C5 1_555 1_555
C11 C10 1_555 1_555
H10 C11 1_555 1_555
H11 C11 1_555 1_555
H12 C11 1_555 1_555
C1 C6 1_555 1_555
C3 C6 1_555 1_555
C4 C5 1_555 1_555

#END
