
#######################################################################
#
#                 Cambridge Crystallographic Data Centre
#                                CCDC 
#
#######################################################################
#
# If this CIF has been generated from an entry in the Cambridge 
# Structural Database, then it will include bibliographic, chemical, 
# crystal, experimental, refinement or atomic coordinate data resulting 
# from the CCDC's data processing and validation procedures.
#
#######################################################################

data_WUGXOM
_chemical_name_common            
'(Thiene-2,5-diyldiethene-2,1-diyl)bis(dimesitylborane) dichloromethane solvate'
_chemical_formula_moiety         'C44 H50 B2 S1,0.5(C1 H2 Cl2)'
_chemical_name_systematic        
'2,5-bis((E)-Dimesitylborylethenyl)thiophene dichloromethane solvate'
_symmetry_cell_setting           triclinic
_symmetry_space_group_name_H-M   'P -1'
_symmetry_Int_Tables_number      2
_space_group_name_Hall           '-P 1'
loop_
_symmetry_equiv_pos_site_id
_symmetry_equiv_pos_as_xyz
1 x,y,z
2 -x,-y,-z
_cell_length_a                   12.4785(12)
_cell_length_b                   17.7688(17)
_cell_length_c                   18.5164(18)
_cell_angle_alpha                79.05(2)
_cell_angle_beta                 80.04(2)
_cell_angle_gamma                78.07(3)
_cell_volume                     3905.41
_exptl_crystal_colour            yellow
_cell_formula_units_Z            4
_chemical_properties_physical    air-sensitive
_exptl_crystal_recrystallization_method dichloromethane/hexane
loop_
_atom_site_label
_atom_site_type_symbol
_atom_site_fract_x
_atom_site_fract_y
_atom_site_fract_z
S1 S 0.44184(4) 0.76959(3) 0.20075(3)
B1 B 0.2523(2) 0.60997(13) 0.39707(13)
B2 B 0.71046(18) 0.90915(13) 0.05561(12)
C1 C 0.30653(18) 0.66492(12) 0.33209(11)
H1 H 0.3539 0.6954 0.3429
C2 C 0.28938(17) 0.67152(11) 0.26152(11)
H2 H 0.2387 0.6423 0.2529
C3 C 0.33982(16) 0.71816(11) 0.19677(11)
C4 C 0.32227(17) 0.72299(12) 0.12488(11)
H3 H 0.2690 0.6992 0.1114
C5 C 0.39168(17) 0.76720(12) 0.07297(11)
H4 H 0.3890 0.7767 0.0212
C6 C 0.46315(16) 0.79482(11) 0.10513(10)
C7 C 0.55152(16) 0.83511(11) 0.06749(11)
H5 H 0.5654 0.8392 0.0151
C8 C 0.61553(17) 0.86742(12) 0.09928(11)
H6 H 0.6021 0.8646 0.1516
C9 C 0.19696(19) 0.54556(12) 0.37762(11)
C10 C 0.0820(2) 0.54799(13) 0.39698(12)
C11 C 0.0316(2) 0.49264(14) 0.37821(13)
H7 H -0.0459 0.4957 0.3909
C12 C 0.0925(2) 0.43328(13) 0.34111(13)
C13 C 0.2049(2) 0.43030(13) 0.32258(13)
H8 H 0.2473 0.3895 0.2980
C14 C 0.2587(2) 0.48592(12) 0.33897(11)
C15 C 0.0099(2) 0.61238(15) 0.43512(14)
H9 H 0.0082 0.6619 0.4013
H10 H 0.0399 0.6156 0.4796
H11 H -0.0651 0.6013 0.4492
C16 C 0.0360(3) 0.37461(16) 0.32025(18)
H12 H -0.0085 0.4001 0.2809
H13 H -0.0118 0.3534 0.3636
H14 H 0.0919 0.3324 0.3026
C17 C 0.3822(2) 0.47775(14) 0.31544(14)
H15 H 0.4172 0.4234 0.3286
H16 H 0.4120 0.5107 0.3407
H17 H 0.3972 0.4938 0.2617
C18 C 0.25562(19) 0.62101(12) 0.47949(11)
C19 C 0.2205(2) 0.69509(13) 0.50167(12)
C20 C 0.2268(2) 0.70450(13) 0.57392(12)
H18 H 0.2019 0.7545 0.5879
C21 C 0.2681(2) 0.64337(14) 0.62553(12)
C22 C 0.3030(2) 0.57104(14) 0.60367(13)
H19 H 0.3328 0.5286 0.6381
C23 C 0.2961(2) 0.55822(13) 0.53263(12)
C24 C 0.1733(3) 0.76619(14) 0.45035(14)
H20 H 0.1299 0.8051 0.4798
H21 H 0.1258 0.7518 0.4203
H22 H 0.2337 0.7879 0.4178
C25 C 0.2764(3) 0.65569(17) 0.70269(14)
H23 H 0.2934 0.6052 0.7342
H24 H 0.2060 0.6845 0.7236
H25 H 0.3350 0.6854 0.7002
C26 C 0.3372(3) 0.47711(15) 0.51451(15)
H26 H 0.4002 0.4776 0.4750
H27 H 0.2780 0.4591 0.4980
H28 H 0.3600 0.4420 0.5588
C27 C 0.77398(15) 0.88014(11) -0.01808(11)
C28 C 0.78905(16) 0.93298(11) -0.08482(11)
C29 C 0.84375(16) 0.90609(12) -0.14973(11)
H29 H 0.8516 0.9422 -0.1942
C30 C 0.88696(16) 0.82770(13) -0.15084(12)
C31 C 0.87300(17) 0.77598(12) -0.08516(13)
H30 H 0.9028 0.7224 -0.0850
C32 C 0.81666(16) 0.79990(11) -0.01963(12)
C33 C 0.74545(18) 1.01933(11) -0.08815(12)
H31 H 0.7873 1.0410 -0.0597
H32 H 0.6674 1.0277 -0.0671
H33 H 0.7536 1.0451 -0.1398
C34 C 0.9427(2) 0.79882(16) -0.22226(14)
H34 H 1.0092 0.7605 -0.2128
H35 H 0.9630 0.8427 -0.2590
H36 H 0.8920 0.7746 -0.2412
C35 C 0.80602(19) 0.73721(12) 0.04836(13)
H37 H 0.7365 0.7187 0.0521
H38 H 0.8068 0.7589 0.0929
H39 H 0.8679 0.6938 0.0437
C36 C 0.73711(16) 0.97597(11) 0.09063(10)
C37 C 0.64971(17) 1.03177(11) 0.11890(11)
C38 C 0.6712(2) 1.08495(12) 0.15856(12)
H40 H 0.6119 1.1224 0.1767
C39 C 0.8630(2) 1.03201(13) 0.14234(13)
H41 H 0.9360 1.0324 0.1499
C40 C 0.7766(2) 1.08446(13) 0.17240(13)
C41 C 0.84544(17) 0.97856(12) 0.10133(12)
C42 C 0.94367(18) 0.92162(14) 0.07270(15)
H42 H 1.0108 0.9312 0.0870
H43 H 0.9505 0.9282 0.0186
H44 H 0.9333 0.8685 0.0939
C43 C 0.7963(3) 1.13878(16) 0.22012(17)
H45 H 0.7331 1.1815 0.2234
H46 H 0.8630 1.1598 0.1980
H47 H 0.8057 1.1101 0.2698
C44 C 0.53145(18) 1.03736(13) 0.10665(13)
H48 H 0.4968 0.9996 0.1440
H49 H 0.5305 1.0263 0.0571
H50 H 0.4907 1.0899 0.1110
S2 S 0.53540(4) 0.73907(3) 0.75125(3)
B3 B 0.28017(18) 0.57789(13) 0.95225(13)
B4 B 0.7376(2) 0.91799(14) 0.58955(13)
C45 C 0.37371(16) 0.62714(12) 0.93127(11)
H51 H 0.3940 0.6471 0.9699
C46 C 0.42780(16) 0.64345(11) 0.86279(11)
H52 H 0.4143 0.6186 0.8252
C47 C 0.50581(16) 0.69662(11) 0.84255(11)
C48 C 0.56296(16) 0.72257(11) 0.88773(11)
H53 H 0.5586 0.7056 0.9397
C49 C 0.62843(16) 0.77708(12) 0.84847(11)
H54 H 0.6728 0.8002 0.8714
C50 C 0.62139(16) 0.79328(11) 0.77394(11)
C51 C 0.67544(17) 0.84823(11) 0.71920(11)
H55 H 0.7181 0.8773 0.7369
C52 C 0.67129(19) 0.86217(12) 0.64577(12)
H56 H 0.6250 0.8364 0.6273
C53 C 0.19529(16) 0.59945(11) 1.02185(11)
C54 C 0.18367(16) 0.54537(12) 1.08773(11)
C55 C 0.12022(17) 0.56925(13) 1.15199(12)
H57 H 0.1151 0.5327 1.1963
C56 C 0.06469(17) 0.64515(13) 1.15229(13)
C57 C 0.07322(17) 0.69720(12) 1.08651(13)
H58 H 0.0329 0.7487 1.0854
C58 C 0.13851(16) 0.67694(11) 1.02243(12)
C59 C 0.24226(19) 0.46152(12) 1.09080(13)
H59 H 0.2259 0.4329 1.1408
H60 H 0.3220 0.4600 1.0785
H61 H 0.2169 0.4375 1.0551
C60 C -0.0018(2) 0.67167(16) 1.22244(15)
H62 H 0.0365 0.7060 1.2399
H63 H -0.0099 0.6263 1.2607
H64 H -0.0748 0.6998 1.2119
C61 C 0.14793(19) 0.73924(12) 0.95469(14)
H65 H 0.0820 0.7799 0.9572
H66 H 0.1545 0.7162 0.9099
H67 H 0.2134 0.7619 0.9533
C62 C 0.27501(16) 0.51690(11) 0.90231(11)
C63 C 0.17803(17) 0.51594(11) 0.87303(11)
C64 C 0.18109(18) 0.46989(12) 0.81946(12)
H68 H 0.1153 0.4708 0.8001
C65 C 0.2780(2) 0.42269(12) 0.79368(13)
C66 C 0.37164(18) 0.42053(12) 0.82530(13)
H69 H 0.4378 0.3871 0.8098
C67 C 0.37224(17) 0.46551(11) 0.87850(12)
C68 C 0.06855(18) 0.56613(14) 0.89638(14)
H70 H 0.0707 0.6206 0.8750
H71 H 0.0548 0.5610 0.9505
H72 H 0.0094 0.5492 0.8787
C69 C 0.2824(2) 0.37383(16) 0.73476(16)
H73 H 0.3532 0.3728 0.7024
H74 H 0.2222 0.3962 0.7054
H75 H 0.2747 0.3208 0.7583
C70 C 0.47756(19) 0.45296(14) 0.91262(15)
H76 H 0.5057 0.3971 0.9242
H77 H 0.4621 0.4758 0.9582
H78 H 0.5328 0.4779 0.8775
C71 C 0.78992(18) 0.97667(12) 0.62064(11)
C72 C 0.90617(18) 0.97211(12) 0.61120(11)
C73 C 0.95249(19) 1.01984(12) 0.64416(12)
H79 H 1.0304 1.0152 0.6378
C74 C 0.8872(2) 1.07405(12) 0.68598(12)
C75 C 0.7737(2) 1.07975(12) 0.69422(11)
H80 H 0.7281 1.1171 0.7218
C76 C 0.72390(19) 1.03223(12) 0.66300(11)
C77 C 0.9829(2) 0.91383(14) 0.56795(14)
H81 H 1.0581 0.9244 0.5609
H82 H 0.9590 0.9181 0.5196
H83 H 0.9813 0.8612 0.5953
C78 C 0.9386(2) 1.12516(14) 0.72162(14)
H84 H 0.8802 1.1622 0.7452
H85 H 0.9868 1.1536 0.6837
H86 H 0.9819 1.0927 0.7591
C79 C 0.5989(2) 1.04429(14) 0.67467(13)
H87 H 0.5733 1.0182 0.7241
H88 H 0.5741 1.0225 0.6372
H89 H 0.5687 1.1000 0.6703
C80 C 0.74794(19) 0.90950(13) 0.50505(11)
C81 C 0.78852(19) 0.83574(13) 0.48234(12)
C82 C 0.7858(2) 0.82646(14) 0.40987(12)
H90 H 0.8137 0.7768 0.3956
C83 C 0.7437(2) 0.88712(14) 0.35775(12)
C84 C 0.7060(2) 0.95961(14) 0.37939(12)
H91 H 0.6773 1.0020 0.3445
C85 C 0.7092(2) 0.97186(13) 0.45101(12)
C86 C 0.8378(2) 0.76591(14) 0.53406(13)
H92 H 0.8036 0.7215 0.5328
H93 H 0.8243 0.7779 0.5846
H94 H 0.9174 0.7531 0.5184
C87 C 0.7373(3) 0.87385(17) 0.28033(13)
H95 H 0.8077 0.8444 0.2604
H96 H 0.7216 0.9241 0.2482
H97 H 0.6783 0.8446 0.2825
C88 C 0.6638(3) 1.05248(14) 0.47021(15)
H98 H 0.6589 1.0902 0.4245
H99 H 0.7130 1.0660 0.4995
H100 H 0.5903 1.0533 0.4990
Cl1 Cl 0.54458(7) 0.73799(4) 0.39726(4)
Cl2 Cl 0.54869(10) 0.71567(6) 0.55590(5)
C89 C 0.5091(4) 0.7785(2) 0.4781(2)
H101 H 0.5438 0.8251 0.4716
H102 H 0.4280 0.7959 0.4862
C90? C 0.4695(8) 0.7281(6) 0.4865(5)
H103? H 0.4117 0.7751 0.4906
H104? H 0.4319 0.6829 0.4936
loop_
_geom_bond_atom_site_label_1
_geom_bond_atom_site_label_2
_geom_bond_site_symmetry_1
_geom_bond_site_symmetry_2
S1 C3 1_555 1_555
B1 C1 1_555 1_555
B2 C8 1_555 1_555
C1 H1 1_555 1_555
C2 C1 1_555 1_555
H2 C2 1_555 1_555
C3 C2 1_555 1_555
C4 C3 1_555 1_555
H3 C4 1_555 1_555
C5 C4 1_555 1_555
H4 C5 1_555 1_555
C6 S1 1_555 1_555
C7 C6 1_555 1_555
H5 C7 1_555 1_555
C8 C7 1_555 1_555
H6 C8 1_555 1_555
C9 B1 1_555 1_555
C10 C9 1_555 1_555
C11 C10 1_555 1_555
H7 C11 1_555 1_555
C12 C11 1_555 1_555
C13 C12 1_555 1_555
H8 C13 1_555 1_555
C14 C9 1_555 1_555
C15 C10 1_555 1_555
H9 C15 1_555 1_555
H10 C15 1_555 1_555
H11 C15 1_555 1_555
C16 C12 1_555 1_555
H12 C16 1_555 1_555
H13 C16 1_555 1_555
H14 C16 1_555 1_555
C17 C14 1_555 1_555
H15 C17 1_555 1_555
H16 C17 1_555 1_555
H17 C17 1_555 1_555
C18 B1 1_555 1_555
C19 C18 1_555 1_555
C20 C19 1_555 1_555
H18 C20 1_555 1_555
C21 C20 1_555 1_555
C22 C21 1_555 1_555
H19 C22 1_555 1_555
C23 C18 1_555 1_555
C24 C19 1_555 1_555
H20 C24 1_555 1_555
H21 C24 1_555 1_555
H22 C24 1_555 1_555
C25 C21 1_555 1_555
H23 C25 1_555 1_555
H24 C25 1_555 1_555
H25 C25 1_555 1_555
C26 C23 1_555 1_555
H26 C26 1_555 1_555
H27 C26 1_555 1_555
H28 C26 1_555 1_555
C27 B2 1_555 1_555
C28 C27 1_555 1_555
C29 C28 1_555 1_555
H29 C29 1_555 1_555
C30 C29 1_555 1_555
C31 C30 1_555 1_555
H30 C31 1_555 1_555
C32 C27 1_555 1_555
C33 C28 1_555 1_555
H31 C33 1_555 1_555
H32 C33 1_555 1_555
H33 C33 1_555 1_555
C34 C30 1_555 1_555
H34 C34 1_555 1_555
H35 C34 1_555 1_555
H36 C34 1_555 1_555
C35 C32 1_555 1_555
H37 C35 1_555 1_555
H38 C35 1_555 1_555
H39 C35 1_555 1_555
C36 B2 1_555 1_555
C37 C36 1_555 1_555
C38 C37 1_555 1_555
H40 C38 1_555 1_555
C39 H41 1_555 1_555
C40 C38 1_555 1_555
C41 C36 1_555 1_555
C42 C41 1_555 1_555
H42 C42 1_555 1_555
H43 C42 1_555 1_555
H44 C42 1_555 1_555
C43 C40 1_555 1_555
H45 C43 1_555 1_555
H46 C43 1_555 1_555
H47 C43 1_555 1_555
C44 C37 1_555 1_555
H48 C44 1_555 1_555
H49 C44 1_555 1_555
H50 C44 1_555 1_555
S2 C47 1_555 1_555
B3 C45 1_555 1_555
B4 C52 1_555 1_555
C45 H51 1_555 1_555
C46 C45 1_555 1_555
H52 C46 1_555 1_555
C47 C46 1_555 1_555
C48 C47 1_555 1_555
H53 C48 1_555 1_555
C49 C48 1_555 1_555
H54 C49 1_555 1_555
C50 S2 1_555 1_555
C51 C50 1_555 1_555
H55 C51 1_555 1_555
C52 C51 1_555 1_555
H56 C52 1_555 1_555
C53 B3 1_555 1_555
C54 C53 1_555 1_555
C55 C54 1_555 1_555
H57 C55 1_555 1_555
C56 C55 1_555 1_555
C57 C56 1_555 1_555
H58 C57 1_555 1_555
C58 C53 1_555 1_555
C59 C54 1_555 1_555
H59 C59 1_555 1_555
H60 C59 1_555 1_555
H61 C59 1_555 1_555
C60 C56 1_555 1_555
H62 C60 1_555 1_555
H63 C60 1_555 1_555
H64 C60 1_555 1_555
C61 C58 1_555 1_555
H65 C61 1_555 1_555
H66 C61 1_555 1_555
H67 C61 1_555 1_555
C62 B3 1_555 1_555
C63 C62 1_555 1_555
C64 C63 1_555 1_555
H68 C64 1_555 1_555
C65 C64 1_555 1_555
C66 C65 1_555 1_555
H69 C66 1_555 1_555
C67 C62 1_555 1_555
C68 C63 1_555 1_555
H70 C68 1_555 1_555
H71 C68 1_555 1_555
H72 C68 1_555 1_555
C69 C65 1_555 1_555
H73 C69 1_555 1_555
H74 C69 1_555 1_555
H75 C69 1_555 1_555
C70 C67 1_555 1_555
H76 C70 1_555 1_555
H77 C70 1_555 1_555
H78 C70 1_555 1_555
C71 B4 1_555 1_555
C72 C71 1_555 1_555
C73 C72 1_555 1_555
H79 C73 1_555 1_555
C74 C73 1_555 1_555
C75 C74 1_555 1_555
H80 C75 1_555 1_555
C76 C71 1_555 1_555
C77 C72 1_555 1_555
H81 C77 1_555 1_555
H82 C77 1_555 1_555
H83 C77 1_555 1_555
C78 C74 1_555 1_555
H84 C78 1_555 1_555
H85 C78 1_555 1_555
H86 C78 1_555 1_555
C79 C76 1_555 1_555
H87 C79 1_555 1_555
H88 C79 1_555 1_555
H89 C79 1_555 1_555
C80 B4 1_555 1_555
C81 C80 1_555 1_555
C82 C81 1_555 1_555
H90 C82 1_555 1_555
C83 C82 1_555 1_555
C84 C83 1_555 1_555
H91 C84 1_555 1_555
C85 C80 1_555 1_555
C86 C81 1_555 1_555
H92 C86 1_555 1_555
H93 C86 1_555 1_555
H94 C86 1_555 1_555
C87 C83 1_555 1_555
H95 C87 1_555 1_555
H96 C87 1_555 1_555
H97 C87 1_555 1_555
C88 C85 1_555 1_555
H98 C88 1_555 1_555
H99 C88 1_555 1_555
H100 C88 1_555 1_555
Cl1 C89 1_555 1_555
Cl2 C89 1_555 1_555
C89 H101 1_555 1_555
H102 C89 1_555 1_555
C5 C6 1_555 1_555
C13 C14 1_555 1_555
C22 C23 1_555 1_555
C31 C32 1_555 1_555
C39 C40 1_555 1_555
C39 C41 1_555 1_555
C49 C50 1_555 1_555
C57 C58 1_555 1_555
C66 C67 1_555 1_555
C75 C76 1_555 1_555
C84 C85 1_555 1_555

#END
