
#######################################################################
#
#                 Cambridge Crystallographic Data Centre
#                                CCDC 
#
#######################################################################
#
# If this CIF has been generated from an entry in the Cambridge 
# Structural Database, then it will include bibliographic, chemical, 
# crystal, experimental, refinement or atomic coordinate data resulting 
# from the CCDC's data processing and validation procedures.
#
#######################################################################

data_WUHNIX
_chemical_formula_moiety         'C24 H23 N1 O1 S1'
_chemical_name_systematic        
3-((2-((2,6-Dimethylphenyl)sulfanyl)phenyl)amino)-1-phenylbut-2-en-1-one
_symmetry_cell_setting           monoclinic
_symmetry_space_group_name_H-M   'P 21/c'
_symmetry_Int_Tables_number      14
_space_group_name_Hall           '-P 2ybc'
loop_
_symmetry_equiv_pos_site_id
_symmetry_equiv_pos_as_xyz
1 x,y,z
2 -x,1/2+y,1/2-z
3 -x,-y,-z
4 x,1/2-y,1/2+z
_cell_length_a                   21.6646(19)
_cell_length_b                   8.0100(7)
_cell_length_c                   24.360(2)
_cell_angle_alpha                90
_cell_angle_beta                 106.432(2)
_cell_angle_gamma                90
_cell_volume                     4054.62
_exptl_crystal_colour            yellow
_cell_formula_units_Z            8
loop_
_atom_site_label
_atom_site_type_symbol
_atom_site_fract_x
_atom_site_fract_y
_atom_site_fract_z
S1 S 0.19156(5) 0.12519(16) 0.08425(5)
O1 O 0.30205(13) 0.4582(4) 0.15826(12)
N1 N 0.18439(17) 0.3902(4) 0.16113(15)
C1 C 0.11875(17) 0.2184(5) 0.08698(17)
C2 C 0.0587(2) 0.1731(5) 0.05139(18)
H1 H 0.0557 0.0915 0.0236
C3 C 0.0037(2) 0.2488(6) 0.0571(2)
H2 H -0.0364 0.2150 0.0343
C4 C 0.0081(2) 0.3714(7) 0.0957(2)
H3 H -0.0290 0.4249 0.0984
C5 C 0.0669(2) 0.4191(6) 0.1314(2)
H4 H 0.0692 0.5031 0.1583
C6 C 0.12224(18) 0.3419(5) 0.12719(17)
C7 C 0.2059(2) 0.4250(5) 0.21763(18)
C8 C 0.2683(2) 0.4711(5) 0.2413(2)
C9 C 0.31507(19) 0.4867(4) 0.21093(18)
C10 C 0.38156(19) 0.5393(4) 0.24141(17)
C11 C 0.4093(2) 0.5195(5) 0.29956(19)
H5 H 0.3854 0.4694 0.3213
C12 C 0.4710(2) 0.5715(6) 0.3262(2)
H6 H 0.4882 0.5570 0.3655
C13 C 0.5068(2) 0.6443(6) 0.2950(2)
H7 H 0.5487 0.6789 0.3127
C14 C 0.4801(2) 0.6663(6) 0.2365(2)
H8 H 0.5040 0.7177 0.2149
C15 C 0.4193(2) 0.6131(5) 0.21054(19)
H9 H 0.4025 0.6264 0.1712
C16 C 0.16149(19) 0.4040(5) 0.25467(17)
H10 H 0.1379 0.5056 0.2545
H11 H 0.1863 0.3786 0.2931
H12 H 0.1320 0.3145 0.2400
C17 C 0.17356(17) 0.0150(5) 0.01882(17)
C18 C 0.16153(17) 0.0977(5) -0.03320(19)
C19 C 0.1573(2) 0.0074(9) -0.0820(2)
H13 H 0.1485 0.0609 -0.1172
C20 C 0.1661(2) -0.1628(10) -0.0784(3)
H14 H 0.1642 -0.2236 -0.1114
C21 C 0.1774(3) -0.2416(7) -0.0285(4)
H15 H 0.1830 -0.3568 -0.0275
C22 C 0.1810(2) -0.1594(6) 0.0217(2)
C23 C 0.1532(2) 0.2859(6) -0.0368(2)
H16 H 0.1619 0.3260 -0.0710
H17 H 0.1825 0.3368 -0.0040
H18 H 0.1098 0.3139 -0.0378
C24 C 0.1934(3) -0.2555(6) 0.0764(3)
H19 H 0.2250 -0.1983 0.1060
H20 H 0.2089 -0.3650 0.0712
H21 H 0.1541 -0.2650 0.0871
H43 H 0.2129(19) 0.404(6) 0.144(2)
H45 H 0.2799(16) 0.490(4) 0.2793(14)
S2 S 0.30647(5) 0.31690(14) 0.40787(5)
O2 O 0.18268(13) -0.0232(4) 0.32921(12)
N2 N 0.30263(17) 0.0433(4) 0.32886(15)
C25 C 0.37443(18) 0.2000(5) 0.40513(17)
C26 C 0.4356(2) 0.2300(5) 0.44098(19)
H22 H 0.4421 0.3136 0.4685
C27 C 0.4872(2) 0.1339(7) 0.4355(2)
H23 H 0.5284 0.1537 0.4593
C28 C 0.4771(2) 0.0088(7) 0.3944(2)
H24 H 0.5116 -0.0556 0.3909
C29 C 0.4172(2) -0.0196(5) 0.35930(18)
H25 H 0.4108 -0.1042 0.3321
C30 C 0.36547(19) 0.0760(5) 0.36342(17)
C31 C 0.2807(2) 0.0148(4) 0.27211(18)
C32 C 0.2175(2) -0.0288(5) 0.2468(2)
C33 C 0.1706(2) -0.0487(5) 0.27650(18)
C34 C 0.10519(19) -0.1104(5) 0.24509(19)
C35 C 0.0786(2) -0.0919(5) 0.18672(19)
H26 H 0.1022 -0.0386 0.1654
C36 C 0.0179(2) -0.1508(6) 0.1595(2)
H27 H 0.0007 -0.1364 0.1203
C37 C -0.0175(2) -0.2318(6) 0.1910(2)
H28 H -0.0579 -0.2753 0.1727
C38 C 0.0070(2) -0.2473(6) 0.2484(2)
H29 H -0.0169 -0.2999 0.2697
C39 C 0.0675(2) -0.1850(5) 0.2755(2)
H30 H 0.0833 -0.1936 0.3151
C40 C 0.32673(19) 0.0334(5) 0.23656(17)
H31 H 0.3569 0.1208 0.2522
H32 H 0.3032 0.0609 0.1979
H33 H 0.3495 -0.0696 0.2369
C41 C 0.33967(19) 0.5739(5) 0.48451(19)
C42 C 0.35215(19) 0.6381(5) 0.5393(2)
H34 H 0.3576 0.7527 0.5447
C43 C 0.3566(2) 0.5374(6) 0.58565(19)
H35 H 0.3653 0.5842 0.6220
C44 C 0.34845(18) 0.3685(5) 0.57894(18)
H36 H 0.3519 0.3008 0.6107
C45 C 0.33510(17) 0.2989(5) 0.52507(17)
C46 C 0.33075(17) 0.4019(5) 0.47839(16)
C47 C 0.3370(2) 0.6887(5) 0.4336(2)
H37 H 0.3516 0.7982 0.4474
H38 H 0.2935 0.6952 0.4095
H39 H 0.3642 0.6447 0.4121
C48 C 0.3276(2) 0.1108(4) 0.52021(19)
H40 H 0.3642 0.0635 0.5110
H41 H 0.2892 0.0837 0.4906
H42 H 0.3249 0.0659 0.5560
H44 H 0.2729(13) 0.046(4) 0.3443(14)
H46 H 0.2060(13) -0.045(3) 0.2072(13)
loop_
_geom_bond_atom_site_label_1
_geom_bond_atom_site_label_2
_geom_bond_site_symmetry_1
_geom_bond_site_symmetry_2
S1 C1 1_555 1_555
S2 C25 1_555 1_555
O1 C9 1_555 1_555
O2 C33 1_555 1_555
N1 C6 1_555 1_555
N2 C30 1_555 1_555
C1 C2 1_555 1_555
C2 H1 1_555 1_555
C3 C2 1_555 1_555
H2 C3 1_555 1_555
C4 C3 1_555 1_555
H3 C4 1_555 1_555
C5 C4 1_555 1_555
H4 C5 1_555 1_555
C6 C1 1_555 1_555
C7 N1 1_555 1_555
C8 C7 1_555 1_555
C9 C8 1_555 1_555
C10 C9 1_555 1_555
C11 C10 1_555 1_555
H5 C11 1_555 1_555
C12 C11 1_555 1_555
H6 C12 1_555 1_555
C13 C12 1_555 1_555
H7 C13 1_555 1_555
C14 C13 1_555 1_555
H8 C14 1_555 1_555
C15 C10 1_555 1_555
H9 C15 1_555 1_555
C16 C7 1_555 1_555
H10 C16 1_555 1_555
H11 C16 1_555 1_555
H12 C16 1_555 1_555
C17 S1 1_555 1_555
C18 C17 1_555 1_555
C19 C18 1_555 1_555
H13 C19 1_555 1_555
C20 C19 1_555 1_555
H14 C20 1_555 1_555
C21 C20 1_555 1_555
H15 C21 1_555 1_555
C22 C17 1_555 1_555
C23 C18 1_555 1_555
H16 C23 1_555 1_555
H17 C23 1_555 1_555
H18 C23 1_555 1_555
C24 C22 1_555 1_555
H19 C24 1_555 1_555
H20 C24 1_555 1_555
H21 C24 1_555 1_555
C25 C26 1_555 1_555
C26 H22 1_555 1_555
C27 C26 1_555 1_555
H23 C27 1_555 1_555
C28 C27 1_555 1_555
H24 C28 1_555 1_555
C29 C28 1_555 1_555
H25 C29 1_555 1_555
C30 C25 1_555 1_555
C31 N2 1_555 1_555
C32 C31 1_555 1_555
C33 C32 1_555 1_555
C34 C33 1_555 1_555
C35 C34 1_555 1_555
H26 C35 1_555 1_555
C36 C35 1_555 1_555
H27 C36 1_555 1_555
C37 C36 1_555 1_555
H28 C37 1_555 1_555
C38 C37 1_555 1_555
H29 C38 1_555 1_555
C39 C34 1_555 1_555
H30 C39 1_555 1_555
C40 C31 1_555 1_555
H31 C40 1_555 1_555
H32 C40 1_555 1_555
H33 C40 1_555 1_555
C41 C42 1_555 1_555
C42 H34 1_555 1_555
C43 C42 1_555 1_555
H35 C43 1_555 1_555
C44 C43 1_555 1_555
H36 C44 1_555 1_555
C45 C44 1_555 1_555
C46 S2 1_555 1_555
C47 C41 1_555 1_555
H37 C47 1_555 1_555
H38 C47 1_555 1_555
H39 C47 1_555 1_555
C48 C45 1_555 1_555
H40 C48 1_555 1_555
H41 C48 1_555 1_555
H42 C48 1_555 1_555
H43 N1 1_555 1_555
H44 N2 1_555 1_555
H45 C8 1_555 1_555
H46 C32 1_555 1_555
C5 C6 1_555 1_555
C14 C15 1_555 1_555
C21 C22 1_555 1_555
C29 C30 1_555 1_555
C38 C39 1_555 1_555
C41 C46 1_555 1_555
C45 C46 1_555 1_555

#END
