
#######################################################################
#
#                 Cambridge Crystallographic Data Centre
#                                CCDC 
#
#######################################################################
#
# If this CIF has been generated from an entry in the Cambridge 
# Structural Database, then it will include bibliographic, chemical, 
# crystal, experimental, refinement or atomic coordinate data resulting 
# from the CCDC's data processing and validation procedures.
#
#######################################################################

data_WUHQUN
_chemical_formula_moiety         'C23 H28 O7,2(H2 O1)'
_chemical_name_systematic        
'2,5b,8-trihydroxy-3a-methyl-3-(2-oxo-2H-pyran-5-yl)tetradecahydrocyclohepta[6,7]-as-indaceno[1,8b-b]oxiren-10(1aH)-one dihydrate'
_symmetry_cell_setting           monoclinic
_symmetry_space_group_name_H-M   'P 21'
_symmetry_Int_Tables_number      4
_space_group_name_Hall           'P 2yb'
loop_
_symmetry_equiv_pos_site_id
_symmetry_equiv_pos_as_xyz
1 x,y,z
2 -x,1/2+y,-z
_cell_length_a                   6.1349(3)
_cell_length_b                   17.9070(9)
_cell_length_c                   10.0389(6)
_cell_angle_alpha                90
_cell_angle_beta                 103.477(6)
_cell_angle_gamma                90
_cell_volume                     1072.48
_exptl_crystal_colour            colorless
_exptl_crystal_description       block
_cell_formula_units_Z            2
loop_
_atom_site_label
_atom_site_type_symbol
_atom_site_fract_x
_atom_site_fract_y
_atom_site_fract_z
O1 O 0.7940(5) 0.52797(18) 0.6687(3)
H1 H 0.6968 0.4959 0.6471
O2 O 0.4997(5) 0.74568(16) 0.5425(3)
O3 O 0.4452(4) 0.57456(13) 0.2020(3)
H2 H 0.4747 0.5439 0.2643
O4 O 0.0537(4) 0.85083(12) 0.0024(2)
O5 O 0.2704(4) 0.98890(13) -0.0998(3)
H3 H 0.3643 1.0162 -0.1209
O6 O -0.2824(5) 0.92588(18) -0.3861(3)
O7 O -0.4405(5) 0.92339(16) -0.6159(3)
C1 C 0.7586(6) 0.6370(2) 0.3373(4)
H4 H 0.8057 0.6836 0.3848
H5 H 0.8540 0.6287 0.2741
C2 C 0.8012(7) 0.5734(2) 0.4440(4)
H6 H 0.7167 0.5299 0.4036
H7 H 0.9589 0.5603 0.4631
C3 C 0.7403(7) 0.5904(2) 0.5781(4)
H8 H 0.8341 0.6323 0.6204
C4 C 0.4979(7) 0.6133(2) 0.5636(4)
H9 H 0.4684 0.6193 0.6538
H10 H 0.4002 0.5743 0.5162
C5 C 0.4465(6) 0.6860(2) 0.4848(4)
C6 C 0.3446(6) 0.6799(2) 0.3344(4)
H11 H 0.2197 0.6445 0.3230
C7 C 0.2510(6) 0.75252(19) 0.2627(4)
H12 H 0.0966 0.7605 0.2676
H13 H 0.3403 0.7952 0.3020
C8 C 0.2688(5) 0.73828(18) 0.1156(3)
H14 H 0.1613 0.6990 0.0771
C9 C 0.5043(5) 0.70526(18) 0.1386(3)
H15 H 0.6091 0.7453 0.1768
C10 C 0.5182(6) 0.64668(19) 0.2539(4)
C11 C 0.5629(6) 0.6806(2) 0.0052(4)
H16 H 0.7170 0.6634 0.0238
H17 H 0.4662 0.6397 -0.0354
C12 C 0.5317(5) 0.7467(2) -0.0936(3)
H18 H 0.5626 0.7302 -0.1794
H19 H 0.6405 0.7849 -0.0556
C13 C 0.2927(5) 0.78182(18) -0.1235(3)
C14 C 0.2417(5) 0.80029(19) 0.0137(3)
C15 C 0.2828(6) 0.87987(19) 0.0441(3)
H20 H 0.3428 0.8964 0.1386
C16 C 0.3613(6) 0.91575(19) -0.0715(3)
H21 H 0.5250 0.9200 -0.0445
C17 C 0.2996(6) 0.85971(19) -0.1932(3)
H22 H 0.4271 0.8586 -0.2366
C18 C 0.1195(6) 0.7284(2) -0.2076(4)
H23 H 0.1507 0.7211 -0.2960
H24 H -0.0277 0.7493 -0.2184
H25 H 0.1268 0.6813 -0.1611
C19 C 0.0934(6) 0.8799(2) -0.3051(3)
C20 C -0.1010(6) 0.9106(2) -0.2814(3)
H26 H -0.1086 0.9212 -0.1919
C21 C 0.0972(6) 0.8662(2) -0.4392(4)
H27 H 0.2262 0.8463 -0.4588
C22 C -0.0815(6) 0.88068(19) -0.5436(3)
H28 H -0.0710 0.8709 -0.6328
C23 C -0.2789(6) 0.9095(2) -0.5217(3)
O8 O 1.2135(7) 0.5117(3) 0.8024(4)
H29 H 1.2789 0.4837 0.7555
H30 H 1.0747 0.5143 0.7640
O9 O 0.0700(5) 0.5570(2) 0.0131(4)
H31 H 0.203(4) 0.569(4) 0.046(6)
H32 H 0.057(10) 0.526(3) -0.050(5)
loop_
_geom_bond_atom_site_label_1
_geom_bond_atom_site_label_2
_geom_bond_site_symmetry_1
_geom_bond_site_symmetry_2
O1 H1 1_555 1_555
O2 C5 1_555 1_555
O3 H2 1_555 1_555
O4 C14 1_555 1_555
O5 H3 1_555 1_555
O6 C20 1_555 1_555
O7 C23 1_555 1_555
C1 H4 1_555 1_555
H5 C1 1_555 1_555
C2 C1 1_555 1_555
H6 C2 1_555 1_555
H7 C2 1_555 1_555
C3 O1 1_555 1_555
H8 C3 1_555 1_555
C4 C3 1_555 1_555
H9 C4 1_555 1_555
H10 C4 1_555 1_555
C5 C4 1_555 1_555
C6 C5 1_555 1_555
H11 C6 1_555 1_555
C7 C6 1_555 1_555
H12 C7 1_555 1_555
H13 C7 1_555 1_555
C8 C7 1_555 1_555
H14 C8 1_555 1_555
C9 C8 1_555 1_555
H15 C9 1_555 1_555
C10 O3 1_555 1_555
C11 C9 1_555 1_555
H16 C11 1_555 1_555
H17 C11 1_555 1_555
C12 C11 1_555 1_555
H18 C12 1_555 1_555
H19 C12 1_555 1_555
C13 C12 1_555 1_555
C14 C8 1_555 1_555
C15 O4 1_555 1_555
H20 C15 1_555 1_555
C16 O5 1_555 1_555
H21 C16 1_555 1_555
C17 C13 1_555 1_555
H22 C17 1_555 1_555
C18 C13 1_555 1_555
H23 C18 1_555 1_555
H24 C18 1_555 1_555
H25 C18 1_555 1_555
C19 C17 1_555 1_555
C20 C19 1_555 1_555
H26 C20 1_555 1_555
C21 C19 1_555 1_555
H27 C21 1_555 1_555
C22 C21 1_555 1_555
H28 C22 1_555 1_555
C23 O6 1_555 1_555
O8 H29 1_555 1_555
H30 O8 1_555 1_555
O9 H31 1_555 1_555
H32 O9 1_555 1_555
C1 C10 1_555 1_555
C2 C3 1_555 1_555
C6 C10 1_555 1_555
C9 C10 1_555 1_555
C13 C14 1_555 1_555
C14 C15 1_555 1_555
C15 C16 1_555 1_555
C16 C17 1_555 1_555
C22 C23 1_555 1_555

#END
