
#######################################################################
#
#                 Cambridge Crystallographic Data Centre
#                                CCDC 
#
#######################################################################
#
# If this CIF has been generated from an entry in the Cambridge 
# Structural Database, then it will include bibliographic, chemical, 
# crystal, experimental, refinement or atomic coordinate data resulting 
# from the CCDC's data processing and validation procedures.
#
#######################################################################

data_WUJMIZ
_chemical_formula_moiety         'C20 H28 O4'
_chemical_name_systematic        
4a,9-dihydroxy-1,1,3,6,9-pentamethyl-1a,4a,7a,8,9,10,11,11a-octahydro-1H-cyclopenta[a]cyclopropa[f][11]annulene-4,7-dione
_symmetry_cell_setting           trigonal
_symmetry_space_group_name_H-M   'P 31'
_symmetry_Int_Tables_number      144
_space_group_name_Hall           'P 31'
loop_
_symmetry_equiv_pos_site_id
_symmetry_equiv_pos_as_xyz
1 x,y,z
2 -y,x-y,1/3+z
3 -x+y,-x,2/3+z
_cell_length_a                   14.57764(10)
_cell_length_b                   14.57764(10)
_cell_length_c                   7.54977(6)
_cell_angle_alpha                90
_cell_angle_beta                 90
_cell_angle_gamma                120
_cell_volume                     1389.44
_cell_formula_units_Z            3
loop_
_atom_site_label
_atom_site_type_symbol
_atom_site_fract_x
_atom_site_fract_y
_atom_site_fract_z
O1 O 0.33597(7) 0.21150(7) 0.04941(12)
O2 O 0.50583(7) 0.40188(7) -0.50671(11)
O3 O 0.33080(7) 0.39108(7) -0.67197(10)
H1 H 0.3830 0.3926 -0.6279
O4 O 0.35179(6) 0.44988(6) -0.01176(10)
H2 H 0.3459 0.4412 0.0958
C1 C 0.29693(9) 0.25970(9) -0.01922(14)
C2 C 0.47859(9) 0.39742(8) -0.35210(15)
C3 C 0.37020(8) 0.37821(8) -0.29532(13)
H3 H 0.3157 0.3089 -0.3396
C4 C 0.29199(10) 0.53171(10) -0.62989(15)
H4 H 0.3644 0.5821 -0.6577
H5 H 0.2650 0.5628 -0.5479
H6 H 0.2504 0.5121 -0.7363
C5 C 0.13871(9) 0.26254(9) -0.11656(14)
H7 H 0.1855 0.3345 -0.1325
C6 C 0.18104(9) 0.20735(9) -0.04704(15)
C7 C 0.37365(9) 0.37396(9) -0.08896(14)
C8 C 0.03637(10) 0.39157(11) -0.02155(17)
H8 H 0.0230 0.3734 0.1016
H9 H 0.0127 0.4404 -0.0513
H10 H 0.1109 0.4238 -0.0445
C9 C 0.65652(10) 0.43806(11) -0.21045(18)
H11 H 0.6582 0.3774 -0.2559
H12 H 0.6895 0.4560 -0.0959
H13 H 0.6940 0.4968 -0.2896
C10 C 0.10290(9) 0.37926(9) -0.41015(15)
H14 H 0.1475 0.4302 -0.3214
H15 H 0.0763 0.4139 -0.4873
C11 C 0.35061(9) 0.46468(9) -0.37391(13)
H16 H 0.3138 0.4831 -0.2864
H17 H 0.4186 0.5275 -0.3961
C12 C 0.17049(9) 0.34596(9) -0.52033(14)
H18 H 0.1698 0.2862 -0.4625
H19 H 0.1378 0.3223 -0.6357
C13 C 0.48610(9) 0.40049(9) -0.05090(15)
H20 H 0.5125 0.4075 0.0635
C14 C -0.02276(9) 0.29261(10) -0.13249(16)
C15 C 0.02911(9) 0.22528(9) -0.17095(16)
H21 H -0.0184 0.1484 -0.1707
C16 C 0.28594(9) 0.43333(9) -0.54682(14)
C17 C 0.01016(9) 0.28698(10) -0.31879(17)
H22 H -0.0489 0.2424 -0.3980
C18 C 0.54438(9) 0.41304(9) -0.19480(15)
C19 C -0.14007(10) 0.23144(12) -0.09282(19)
H23 H -0.1507 0.2095 0.0289
H24 H -0.1737 0.1702 -0.1679
H25 H -0.1702 0.2758 -0.1143
C20 C 0.12121(11) 0.09211(11) 0.0031(2)
H26 H 0.1469 0.0541 -0.0654
H27 H 0.0471 0.0638 -0.0201
H28 H 0.1314 0.0848 0.1268
loop_
_geom_bond_atom_site_label_1
_geom_bond_atom_site_label_2
_geom_bond_site_symmetry_1
_geom_bond_site_symmetry_2
O1 C1 1_555 1_555
O2 C2 1_555 1_555
O3 H1 1_555 1_555
O4 H2 1_555 1_555
C1 C6 1_555 1_555
C2 C3 1_555 1_555
C3 H3 1_555 1_555
C4 H4 1_555 1_555
H5 C4 1_555 1_555
H6 C4 1_555 1_555
C5 H7 1_555 1_555
C6 C5 1_555 1_555
C7 O4 1_555 1_555
C8 H8 1_555 1_555
H9 C8 1_555 1_555
H10 C8 1_555 1_555
C9 H11 1_555 1_555
H12 C9 1_555 1_555
H13 C9 1_555 1_555
C10 H14 1_555 1_555
H15 C10 1_555 1_555
C11 C3 1_555 1_555
H16 C11 1_555 1_555
H17 C11 1_555 1_555
C12 C10 1_555 1_555
H18 C12 1_555 1_555
H19 C12 1_555 1_555
C13 C7 1_555 1_555
H20 C13 1_555 1_555
C14 C8 1_555 1_555
C15 C5 1_555 1_555
H21 C15 1_555 1_555
C16 O3 1_555 1_555
C17 C10 1_555 1_555
H22 C17 1_555 1_555
C18 C2 1_555 1_555
C19 C14 1_555 1_555
H23 C19 1_555 1_555
H24 C19 1_555 1_555
H25 C19 1_555 1_555
C20 C6 1_555 1_555
H26 C20 1_555 1_555
H27 C20 1_555 1_555
H28 C20 1_555 1_555
C1 C7 1_555 1_555
C3 C7 1_555 1_555
C4 C16 1_555 1_555
C9 C18 1_555 1_555
C11 C16 1_555 1_555
C12 C16 1_555 1_555
C13 C18 1_555 1_555
C14 C15 1_555 1_555
C14 C17 1_555 1_555
C15 C17 1_555 1_555

#END
