
#######################################################################
#
#                 Cambridge Crystallographic Data Centre
#                                CCDC 
#
#######################################################################
#
# If this CIF has been generated from an entry in the Cambridge 
# Structural Database, then it will include bibliographic, chemical, 
# crystal, experimental, refinement or atomic coordinate data resulting 
# from the CCDC's data processing and validation procedures.
#
#######################################################################

data_WUJTOL
_chemical_name_common            
9a-Allylhexahydro-5H-furo[2,3-b]pyrrolo[1,2-d][1,4]oxazin-2(1H)-one
_chemical_formula_moiety         'C12 H17 N1 O3'
_chemical_name_systematic        
(3aR,5aS,8bS)-8b-allyl-hexahydro-3,4-dioxa-8a-aza-as-indacen-2-one
_symmetry_cell_setting           monoclinic
_symmetry_space_group_name_H-M   'P 21'
_symmetry_Int_Tables_number      4
_space_group_name_Hall           'P 2yb'
loop_
_symmetry_equiv_pos_site_id
_symmetry_equiv_pos_as_xyz
1 x,y,z
2 -x,1/2+y,-z
_cell_length_a                   8.0426(11)
_cell_length_b                   6.6423(12)
_cell_length_c                   11.1500(17)
_cell_angle_alpha                90
_cell_angle_beta                 92.028(10)
_cell_angle_gamma                90
_cell_volume                     595.275
_cell_formula_units_Z            2
loop_
_atom_site_label
_atom_site_type_symbol
_atom_site_fract_x
_atom_site_fract_y
_atom_site_fract_z
O1 O 0.1129(4) -0.0567(7) -0.1123(2)
O2 O 0.2336(3) -0.2527(4) 0.02490(19)
O3 O 0.4931(2) -0.2158(4) 0.10172(19)
N1 N 0.3832(3) 0.0438(3) 0.27698(18)
C1 C 0.1830(4) -0.0685(7) -0.0159(3)
C2 C 0.2215(4) 0.0880(5) 0.0752(3)
H1 H 0.1271 0.1766 0.0851
H2 H 0.3168 0.1677 0.0533
C3 C 0.2599(3) -0.0332(4) 0.1898(2)
C4 C 0.3258(3) -0.2275(5) 0.1350(2)
H3 H 0.3091 -0.3422 0.1886
C5 C 0.6044(4) -0.1400(6) 0.1945(3)
H4 H 0.7162 -0.1325 0.1649
H5 H 0.6060 -0.2311 0.2625
C6 C 0.5515(3) 0.0610(6) 0.2330(3)
H6 H 0.5511 0.1533 0.1644
C7 C 0.6451(4) 0.1551(7) 0.3376(3)
H7 H 0.7407 0.2301 0.3112
H8 H 0.6827 0.0536 0.3949
C8 C 0.5177(6) 0.2952(7) 0.3923(4)
H9 H 0.5186 0.2796 0.4788
H10 H 0.5423 0.4344 0.3736
C9 C 0.3492(4) 0.2347(5) 0.3369(4)
H11 H 0.2678 0.2171 0.3982
H12 H 0.3086 0.3349 0.2798
C10 C 0.0957(3) -0.0793(5) 0.2522(2)
H13 H 0.0437 0.0473 0.2726
H14 H 0.0214 -0.1481 0.1954
C11 C 0.1129(3) -0.2039(6) 0.3629(2)
H15 H 0.1877 -0.1597 0.4227
C12 C 0.0324(4) -0.3687(7) 0.3829(3)
H16 H -0.0436 -0.4182 0.3254
H17 H 0.0506 -0.4376 0.4547
loop_
_geom_bond_atom_site_label_1
_geom_bond_atom_site_label_2
_geom_bond_site_symmetry_1
_geom_bond_site_symmetry_2
O1 C1 1_555 1_555
O2 C1 1_555 1_555
O3 C4 1_555 1_555
N1 C3 1_555 1_555
C1 C2 1_555 1_555
C2 H1 1_555 1_555
H2 C2 1_555 1_555
C3 C2 1_555 1_555
C4 O2 1_555 1_555
H3 C4 1_555 1_555
C5 O3 1_555 1_555
H4 C5 1_555 1_555
H5 C5 1_555 1_555
C6 N1 1_555 1_555
H6 C6 1_555 1_555
C7 C6 1_555 1_555
H7 C7 1_555 1_555
H8 C7 1_555 1_555
C8 C7 1_555 1_555
H9 C8 1_555 1_555
H10 C8 1_555 1_555
C9 N1 1_555 1_555
H11 C9 1_555 1_555
H12 C9 1_555 1_555
C10 C3 1_555 1_555
H13 C10 1_555 1_555
H14 C10 1_555 1_555
C11 C10 1_555 1_555
H15 C11 1_555 1_555
C12 C11 1_555 1_555
H16 C12 1_555 1_555
H17 C12 1_555 1_555
C3 C4 1_555 1_555
C5 C6 1_555 1_555
C8 C9 1_555 1_555

#END
