
#######################################################################
#
#                 Cambridge Crystallographic Data Centre
#                                CCDC 
#
#######################################################################
#
# If this CIF has been generated from an entry in the Cambridge 
# Structural Database, then it will include bibliographic, chemical, 
# crystal, experimental, refinement or atomic coordinate data resulting 
# from the CCDC's data processing and validation procedures.
#
#######################################################################

data_WUJVII
_chemical_formula_moiety         'C26 H33 N5 O6'
_chemical_name_systematic        
'dimethyl 7-(2-acetamidoethyl)-9-hydroxy-3-methyl-2,4-bis(pyridin-2-yl)-3,7-diazabicyclo[3.3.1]nonane-1,5-dicarboxylate'
_symmetry_cell_setting           monoclinic
_symmetry_space_group_name_H-M   'P 21/n'
_symmetry_Int_Tables_number      14
_space_group_name_Hall           '-P 2yn'
loop_
_symmetry_equiv_pos_site_id
_symmetry_equiv_pos_as_xyz
1 x,y,z
2 1/2-x,1/2+y,1/2-z
3 -x,-y,-z
4 1/2+x,1/2-y,1/2+z
_cell_length_a                   9.44377(9)
_cell_length_b                   15.69171(18)
_cell_length_c                   16.73352(15)
_cell_angle_alpha                90
_cell_angle_beta                 93.1352(8)
_cell_angle_gamma                90
_cell_volume                     2476.01
_exptl_crystal_colour            blue
_exptl_crystal_description       plate
_cell_formula_units_Z            4
loop_
_atom_site_label
_atom_site_type_symbol
_atom_site_fract_x
_atom_site_fract_y
_atom_site_fract_z
O1 O 0.15703(9) 0.71236(6) 0.50488(6)
O2 O 0.37521(9) 0.68851(6) 0.56006(5)
O3 O 0.68885(10) 0.85710(6) 0.29075(5)
O4 O 0.77455(9) 0.77746(6) 0.39370(6)
O5 O 0.45067(9) 0.83286(6) 0.43846(5)
H1 H 0.5176(18) 0.8528(11) 0.4678(10)
O6 O 0.14564(12) 0.58114(7) 0.03100(6)
N1 N 0.59197(11) 0.62119(7) 0.18459(6)
N2 N 0.25200(12) 0.49747(7) 0.47489(7)
N3 N 0.47623(11) 0.58528(7) 0.33410(6)
N4 N 0.28343(13) 0.63264(8) 0.13409(7)
H2 H 0.3549(19) 0.6217(11) 0.1688(10)
N5 N 0.30436(11) 0.72424(7) 0.27477(6)
C1 C 0.35164(12) 0.69307(8) 0.41816(7)
C2 C 0.39746(13) 0.59824(8) 0.40688(7)
H3 H 0.4579(16) 0.5827(9) 0.4556(9)
C3 C 0.59543(13) 0.64518(8) 0.32922(7)
H4 H 0.6679(16) 0.6348(10) 0.3748(9)
C4 C 0.54741(12) 0.73961(8) 0.33734(7)
C5 C 0.43744(13) 0.77152(8) 0.27329(7)
H5 H 0.4233(16) 0.8335(10) 0.2828(9)
H6 H 0.4766(15) 0.7670(10) 0.2205(9)
C6 C 0.24584(13) 0.72769(8) 0.35325(7)
H7 H 0.1586(17) 0.6942(10) 0.3516(9)
H8 H 0.2198(16) 0.7872(10) 0.3686(9)
C7 C 0.48610(12) 0.74771(8) 0.42079(7)
H9 H 0.5557(16) 0.7247(10) 0.4605(9)
C8 C 0.28177(13) 0.69963(8) 0.49805(7)
C9 C 0.31448(14) 0.68634(9) 0.63752(7)
H10 H 0.2542(10) 0.7372(6) 0.6437(3)
H11 H 0.3914(7) 0.6860(7) 0.6800(4)
H12 H 0.2563(10) 0.6343(6) 0.6418(2)
C10 C 0.67613(13) 0.79834(8) 0.33607(7)
C11 C 0.89607(15) 0.83357(10) 0.40095(9)
H13 H 0.9418(8) 0.8360(6) 0.3494(6)
H14 H 0.9644(9) 0.8117(4) 0.4428(6)
H15 H 0.8649(4) 0.8912(6) 0.4157(7)
C12 C 0.27151(13) 0.53796(8) 0.40575(7)
C13 C 0.18452(14) 0.52513(9) 0.33687(8)
H16 H 0.2033(16) 0.5549(10) 0.2899(10)
C14 C 0.07413(14) 0.46734(9) 0.33916(8)
H17 H 0.0124(17) 0.4571(11) 0.2922(10)
C15 C 0.05403(15) 0.42417(9) 0.40974(9)
H18 H -0.0192(18) 0.3819(11) 0.4141(10)
C16 C 0.14427(15) 0.44162(10) 0.47544(9)
H19 H 0.1303(18) 0.4120(11) 0.5266(10)
C17 C 0.67211(13) 0.62764(8) 0.25313(7)
C18 C 0.81821(14) 0.61530(9) 0.25610(8)
H20 H 0.8713(17) 0.6201(10) 0.3070(10)
C19 C 0.88301(15) 0.59294(9) 0.18657(8)
H21 H 0.9853(18) 0.5826(11) 0.1891(10)
C20 C 0.80116(15) 0.58466(9) 0.11600(8)
H22 H 0.8407(17) 0.5685(11) 0.0683(10)
C21 C 0.65728(15) 0.60065(9) 0.11812(8)
H23 H 0.5955(17) 0.5968(11) 0.0693(10)
C22 C 0.53355(14) 0.49801(8) 0.33614(8)
H24 H 0.5838(10) 0.4871(2) 0.2866(5)
H25 H 0.4547(7) 0.4567(4) 0.3398(6)
H26 H 0.6008(10) 0.4915(2) 0.3834(5)
C23 C 0.20065(14) 0.75167(9) 0.21224(8)
H27 H 0.1880(17) 0.8153(11) 0.2120(9)
H28 H 0.1073(17) 0.7252(10) 0.2254(9)
C24 C 0.23928(16) 0.72111(9) 0.12961(8)
H29 H 0.1553(18) 0.7246(11) 0.0923(10)
H30 H 0.3171(18) 0.7560(11) 0.1084(10)
C25 C 0.23632(13) 0.57082(9) 0.08559(7)
C26 C 0.30057(16) 0.48431(9) 0.10182(9)
H31 H 0.2258(8) 0.4421(5) 0.1030(6)
H32 H 0.3539(11) 0.4850(2) 0.1530(6)
H33 H 0.3634(11) 0.4701(3) 0.0599(6)
loop_
_geom_bond_atom_site_label_1
_geom_bond_atom_site_label_2
_geom_bond_site_symmetry_1
_geom_bond_site_symmetry_2
O1 C8 1_555 1_555
O2 C8 1_555 1_555
O3 C10 1_555 1_555
O4 C10 1_555 1_555
O5 H1 1_555 1_555
O6 C25 1_555 1_555
N1 C17 1_555 1_555
N2 C12 1_555 1_555
N3 C2 1_555 1_555
N4 H2 1_555 1_555
N5 C5 1_555 1_555
C1 C2 1_555 1_555
C2 H3 1_555 1_555
C3 N3 1_555 1_555
H4 C3 1_555 1_555
C4 C3 1_555 1_555
C5 C4 1_555 1_555
H5 C5 1_555 1_555
H6 C5 1_555 1_555
C6 N5 1_555 1_555
H7 C6 1_555 1_555
H8 C6 1_555 1_555
C7 O5 1_555 1_555
H9 C7 1_555 1_555
C8 C1 1_555 1_555
C9 O2 1_555 1_555
H10 C9 1_555 1_555
H11 C9 1_555 1_555
H12 C9 1_555 1_555
C10 C4 1_555 1_555
C11 O4 1_555 1_555
H13 C11 1_555 1_555
H14 C11 1_555 1_555
H15 C11 1_555 1_555
C12 C2 1_555 1_555
C13 C12 1_555 1_555
H16 C13 1_555 1_555
C14 C13 1_555 1_555
H17 C14 1_555 1_555
C15 C14 1_555 1_555
H18 C15 1_555 1_555
C16 N2 1_555 1_555
H19 C16 1_555 1_555
C17 C3 1_555 1_555
C18 C17 1_555 1_555
H20 C18 1_555 1_555
C19 C18 1_555 1_555
H21 C19 1_555 1_555
C20 C19 1_555 1_555
H22 C20 1_555 1_555
C21 N1 1_555 1_555
H23 C21 1_555 1_555
C22 N3 1_555 1_555
H24 C22 1_555 1_555
H25 C22 1_555 1_555
H26 C22 1_555 1_555
C23 N5 1_555 1_555
H27 C23 1_555 1_555
H28 C23 1_555 1_555
C24 N4 1_555 1_555
H29 C24 1_555 1_555
H30 C24 1_555 1_555
C25 N4 1_555 1_555
C26 C25 1_555 1_555
H31 C26 1_555 1_555
H32 C26 1_555 1_555
H33 C26 1_555 1_555
C1 C6 1_555 1_555
C1 C7 1_555 1_555
C4 C7 1_555 1_555
C15 C16 1_555 1_555
C20 C21 1_555 1_555
C23 C24 1_555 1_555

#END
