
#######################################################################
#
#                 Cambridge Crystallographic Data Centre
#                                CCDC 
#
#######################################################################
#
# If this CIF has been generated from an entry in the Cambridge 
# Structural Database, then it will include bibliographic, chemical, 
# crystal, experimental, refinement or atomic coordinate data resulting 
# from the CCDC's data processing and validation procedures.
#
#######################################################################

data_WUJWOO
_chemical_compound_source        
'solid-state fermented culture Aspergillus versicolor'
_chemical_name_common            'Brevianamide J'
_chemical_formula_moiety         'C42 H42 N6 O5'
_chemical_name_systematic        
3,12-bis((2-(2-methylbut-3-en-2-yl)-1H-indol-3-yl)methylene)decahydropyrazino[1''',2''':1'',2'']pyrrolo[3'',2'':4',5']furo[2',3':2,3]pyrrolo[1,2-a]pyrazine-1,4,11,14-tetrone
_symmetry_cell_setting           monoclinic
_symmetry_space_group_name_H-M   'C 2/c'
_symmetry_Int_Tables_number      15
_space_group_name_Hall           '-C 2yn'
loop_
_symmetry_equiv_pos_site_id
_symmetry_equiv_pos_as_xyz
1 x,y,z
2 -x,y,1/2-z
3 1/2+x,1/2+y,z
4 1/2-x,1/2+y,1/2-z
5 -x,-y,-z
6 x,-y,1/2+z
7 1/2-x,1/2-y,-z
8 1/2+x,1/2-y,1/2+z
_cell_length_a                   24.171(1)
_cell_length_b                   9.0645(4)
_cell_length_c                   19.641(1)
_cell_angle_alpha                90
_cell_angle_beta                 123.943(1)
_cell_angle_gamma                90
_cell_volume                     3569.99
_cell_formula_units_Z            4
loop_
_atom_site_label
_atom_site_type_symbol
_atom_site_fract_x
_atom_site_fract_y
_atom_site_fract_z
O1 O 0.5000 0.2095(2) 0.2500
O2 O 0.49897(8) 0.09350(16) 0.40045(9)
O3 O 0.68646(9) 0.34079(17) 0.37573(11)
N1 N 0.56252(10) 0.2951(2) 0.42097(11)
N2 N 0.61337(10) 0.15424(19) 0.34678(12)
N3 N 0.54293(9) 0.7793(2) 0.49539(11)
C1 C 0.53379(11) 0.1655(2) 0.38544(13)
C2 C 0.60450(11) 0.3761(2) 0.40590(13)
C3 C 0.63957(11) 0.2919(2) 0.37569(13)
C4 C 0.63268(13) 0.0645(2) 0.30152(16)
H1 H 0.6814 0.0469 0.3343
H2 H 0.6192 0.1118 0.2489
C5 C 0.59442(13) -0.0784(2) 0.28717(15)
H3 H 0.6233 -0.1518 0.3299
H4 H 0.5792 -0.1203 0.2328
C6 C 0.53392(12) -0.0399(2) 0.29101(14)
C7 C 0.54644(11) 0.1207(2) 0.32093(13)
C8 C 0.61401(11) 0.5212(2) 0.42058(13)
H5 H 0.6482 0.5672 0.4183
C9 C 0.57478(11) 0.6128(2) 0.43993(13)
C10 C 0.50308(11) 0.6114(2) 0.39505(13)
C11 C 0.45220(11) 0.5360(2) 0.32466(14)
H6 H 0.4629 0.4669 0.2973
C12 C 0.38681(12) 0.5644(3) 0.29637(14)
H7 H 0.3523 0.5116 0.2502
C13 C 0.36997(12) 0.6696(2) 0.33424(14)
H8 H 0.3244 0.6868 0.3134
C14 C 0.41903(11) 0.7491(2) 0.40175(14)
H9 H 0.4080 0.8222 0.4269
C15 C 0.48476(11) 0.7174(2) 0.43095(13)
C16 C 0.59735(11) 0.7182(2) 0.50132(13)
C17 C 0.66695(11) 0.7699(2) 0.56517(14)
C18 C 0.66931(12) 0.8447(2) 0.63530(14)
H10 H 0.6505 0.7929 0.6598
C19 C 0.69536(13) 0.9761(3) 0.66582(17)
H11 H 0.7147 1.0318 0.6432
H12 H 0.6947 1.0148 0.7103
C20 C 0.71468(13) 0.6385(3) 0.60276(15)
H13 H 0.6981 0.5686 0.6254
H14 H 0.7591 0.6734 0.6466
H15 H 0.7174 0.5895 0.5603
C21 C 0.69034(14) 0.8742(3) 0.52379(16)
H16 H 0.6899 0.8211 0.4800
H17 H 0.7357 0.9084 0.5647
H18 H 0.6602 0.9592 0.5004
H19 H 0.5535(13) 0.331(3) 0.4514(17)
H20 H 0.5432(14) 0.840(3) 0.5276(17)
H21 H 0.5329(12) -0.100(3) 0.3295(15)
O2A O 0.50103(8) 0.09350(16) 0.09955(9)
O3A O 0.31354(9) 0.34079(17) 0.12427(11)
N1A N 0.43748(10) 0.2951(2) 0.07903(11)
N2A N 0.38663(10) 0.15424(19) 0.15322(12)
N3A N 0.45707(9) 0.7793(2) 0.00461(11)
C1A C 0.46621(11) 0.1655(2) 0.11456(13)
C2A C 0.39550(11) 0.3761(2) 0.09410(13)
C3A C 0.36043(11) 0.2919(2) 0.12431(13)
C4A C 0.36732(13) 0.0645(2) 0.19848(16)
H1A H 0.3186 0.0469 0.1657
H2A H 0.3808 0.1118 0.2511
C5A C 0.40558(13) -0.0784(2) 0.21283(15)
H3A H 0.3767 -0.1518 0.1701
H4A H 0.4208 -0.1203 0.2672
C6A C 0.46608(12) -0.0399(2) 0.20899(14)
C7A C 0.45356(11) 0.1207(2) 0.17907(13)
C8A C 0.38599(11) 0.5212(2) 0.07942(13)
H5A H 0.3518 0.5672 0.0817
C9A C 0.42522(11) 0.6128(2) 0.06007(13)
C10A C 0.49692(11) 0.6114(2) 0.10495(13)
C11A C 0.54780(11) 0.5360(2) 0.17534(14)
H6A H 0.5371 0.4669 0.2027
C12A C 0.61319(12) 0.5644(3) 0.20363(14)
H7A H 0.6477 0.5116 0.2498
C13A C 0.63003(12) 0.6696(2) 0.16576(14)
H8A H 0.6756 0.6868 0.1866
C14A C 0.58097(11) 0.7491(2) 0.09825(14)
H9A H 0.5920 0.8222 0.0731
C15A C 0.51524(11) 0.7174(2) 0.06905(13)
C16A C 0.40265(11) 0.7182(2) -0.00132(13)
C17A C 0.33305(11) 0.7699(2) -0.06517(14)
C18A C 0.33069(12) 0.8447(2) -0.13530(14)
H10A H 0.3495 0.7929 -0.1598
C19A C 0.30464(13) 0.9761(3) -0.16582(17)
H11A H 0.2853 1.0318 -0.1432
H12A H 0.3053 1.0148 -0.2103
C20A C 0.28532(13) 0.6385(3) -0.10276(15)
H13A H 0.3019 0.5686 -0.1254
H14A H 0.2409 0.6734 -0.1466
H15A H 0.2826 0.5895 -0.0603
C21A C 0.30966(14) 0.8742(3) -0.02379(16)
H16A H 0.3101 0.8211 0.0200
H17A H 0.2643 0.9084 -0.0647
H18A H 0.3398 0.9592 -0.0004
H19A H 0.4465(13) 0.331(3) 0.0486(17)
H20A H 0.4568(14) 0.840(3) -0.0276(17)
H21A H 0.4671(12) -0.100(3) 0.1705(15)
loop_
_geom_bond_atom_site_label_1
_geom_bond_atom_site_label_2
_geom_bond_site_symmetry_1
_geom_bond_site_symmetry_2
O1 C7 1_555 1_555
O2 C1 1_555 1_555
O3 C3 1_555 1_555
N1 C1 1_555 1_555
N2 C3 1_555 1_555
N3 C15 1_555 1_555
C1 C7 1_555 1_555
C2 N1 1_555 1_555
C3 C2 1_555 1_555
C4 N2 1_555 1_555
H1 C4 1_555 1_555
H2 C4 1_555 1_555
C5 C4 1_555 1_555
H3 C5 1_555 1_555
H4 C5 1_555 1_555
C6 C5 1_555 1_555
C7 N2 1_555 1_555
C8 C2 1_555 1_555
H5 C8 1_555 1_555
C9 C8 1_555 1_555
C10 C9 1_555 1_555
C11 C10 1_555 1_555
H6 C11 1_555 1_555
C12 C11 1_555 1_555
H7 C12 1_555 1_555
C13 C12 1_555 1_555
H8 C13 1_555 1_555
C14 C13 1_555 1_555
H9 C14 1_555 1_555
C15 C10 1_555 1_555
C16 N3 1_555 1_555
C17 C16 1_555 1_555
C18 C17 1_555 1_555
H10 C18 1_555 1_555
C19 C18 1_555 1_555
H11 C19 1_555 1_555
H12 C19 1_555 1_555
C20 C17 1_555 1_555
H13 C20 1_555 1_555
H14 C20 1_555 1_555
H15 C20 1_555 1_555
C21 C17 1_555 1_555
H16 C21 1_555 1_555
H17 C21 1_555 1_555
H18 C21 1_555 1_555
H19 N1 1_555 1_555
H20 N3 1_555 1_555
H21 C6 1_555 1_555
O2A C1A 1_555 1_555
O3A C3A 1_555 1_555
N1A C1A 1_555 1_555
N2A C3A 1_555 1_555
N3A C15A 1_555 1_555
C1A C7A 1_555 1_555
C2A N1A 1_555 1_555
C3A C2A 1_555 1_555
C4A N2A 1_555 1_555
H1A C4A 1_555 1_555
H2A C4A 1_555 1_555
C5A C4A 1_555 1_555
H3A C5A 1_555 1_555
H4A C5A 1_555 1_555
C6A C6 1_555 1_555
C7A O1 1_555 1_555
C8A C2A 1_555 1_555
H5A C8A 1_555 1_555
C9A C8A 1_555 1_555
C10A C9A 1_555 1_555
C11A C10A 1_555 1_555
H6A C11A 1_555 1_555
C12A C11A 1_555 1_555
H7A C12A 1_555 1_555
C13A C12A 1_555 1_555
H8A C13A 1_555 1_555
C14A C13A 1_555 1_555
H9A C14A 1_555 1_555
C15A C10A 1_555 1_555
C16A N3A 1_555 1_555
C17A C16A 1_555 1_555
C18A C17A 1_555 1_555
H10A C18A 1_555 1_555
C19A C18A 1_555 1_555
H11A C19A 1_555 1_555
H12A C19A 1_555 1_555
C20A C17A 1_555 1_555
H13A C20A 1_555 1_555
H14A C20A 1_555 1_555
H15A C20A 1_555 1_555
C21A C17A 1_555 1_555
H16A C21A 1_555 1_555
H17A C21A 1_555 1_555
H18A C21A 1_555 1_555
H19A N1A 1_555 1_555
H20A N3A 1_555 1_555
H21A C6A 1_555 1_555
C6 C7 1_555 1_555
C9 C16 1_555 1_555
C14 C15 1_555 1_555
N2A C7A 1_555 1_555
C5A C6A 1_555 1_555
C6A C7A 1_555 1_555
C9A C16A 1_555 1_555
C14A C15A 1_555 1_555

#END
