
#######################################################################
#
#                 Cambridge Crystallographic Data Centre
#                                CCDC 
#
#######################################################################
#
# If this CIF has been generated from an entry in the Cambridge 
# Structural Database, then it will include bibliographic, chemical, 
# crystal, experimental, refinement or atomic coordinate data resulting 
# from the CCDC's data processing and validation procedures.
#
#######################################################################

data_WUKTAZ
_chemical_formula_moiety         'C14 H5 F5 O4'
_chemical_name_systematic        '2-((Pentafluorobenzoyl)oxy)benzoic acid'
_symmetry_cell_setting           monoclinic
_symmetry_space_group_name_H-M   'P 21/c'
_symmetry_Int_Tables_number      14
_space_group_name_Hall           '-P 2ybc'
loop_
_symmetry_equiv_pos_site_id
_symmetry_equiv_pos_as_xyz
1 x,y,z
2 -x,1/2+y,1/2-z
3 -x,-y,-z
4 x,1/2-y,1/2+z
_cell_length_a                   7.7639(7)
_cell_length_b                   14.0775(6)
_cell_length_c                   12.4810(6)
_cell_angle_alpha                90
_cell_angle_beta                 106.881(7)
_cell_angle_gamma                90
_cell_volume                     1305.35
_exptl_crystal_colour            colorless
_exptl_crystal_description       plate
_chemical_melting_point          '75 deg.C'
_cell_formula_units_Z            4
_exptl_crystal_recrystallization_method 'diethyl ether/N,N-dimethylformamide'
loop_
_atom_site_label
_atom_site_type_symbol
_atom_site_fract_x
_atom_site_fract_y
_atom_site_fract_z
F1 F 0.36413(16) 0.37522(8) 0.71180(10)
F2 F 0.44106(19) 0.41222(9) 0.93054(11)
F3 F 0.7902(2) 0.42384(8) 1.05886(10)
F4 F 1.05914(19) 0.38911(10) 0.96835(11)
F5 F 0.98639(16) 0.34761(10) 0.75053(11)
O1 O 0.50417(18) 0.38537(9) 0.53638(11)
O2 O 0.8887(2) 0.44375(11) 0.36557(12)
H1 H 0.984(3) 0.4749(16) 0.4069(19)
O3 O 0.81538(18) 0.46738(10) 0.52342(11)
O4 O 0.7166(2) 0.27075(9) 0.57205(12)
C1 C 0.4702(3) 0.37387(12) 0.42061(16)
C2 C 0.5988(3) 0.39778(12) 0.36649(16)
C3 C 0.5513(3) 0.38662(12) 0.25062(16)
H2 H 0.6372 0.4002 0.2119
C4 C 0.3816(3) 0.35622(14) 0.19132(16)
H3 H 0.3509 0.3500 0.1122
C5 C 0.2557(3) 0.33467(14) 0.24665(17)
H4 H 0.1384 0.3144 0.2056
C6 C 0.3015(3) 0.34275(14) 0.36210(17)
H5 H 0.2164 0.3268 0.4007
C7 C 0.7767(3) 0.43883(12) 0.42691(16)
C8 C 0.6374(3) 0.33205(13) 0.60351(16)
C9 C 0.6726(3) 0.35927(12) 0.72334(16)
C10 C 0.5369(3) 0.37795(12) 0.77248(17)
C11 C 0.5759(3) 0.39777(13) 0.88534(17)
C12 C 0.7501(3) 0.40213(13) 0.95055(16)
C13 C 0.8871(3) 0.38492(14) 0.90384(18)
C14 C 0.8482(3) 0.36302(14) 0.79214(17)
loop_
_geom_bond_atom_site_label_1
_geom_bond_atom_site_label_2
_geom_bond_site_symmetry_1
_geom_bond_site_symmetry_2
F1 C10 1_555 1_555
F2 C11 1_555 1_555
F3 C12 1_555 1_555
F4 C13 1_555 1_555
F5 C14 1_555 1_555
O1 C1 1_555 1_555
O2 H1 1_555 1_555
O3 C7 1_555 1_555
O4 C8 1_555 1_555
C1 C2 1_555 1_555
C2 C3 1_555 1_555
C3 H2 1_555 1_555
C4 C3 1_555 1_555
H3 C4 1_555 1_555
C5 C4 1_555 1_555
H4 C5 1_555 1_555
C6 C1 1_555 1_555
H5 C6 1_555 1_555
C7 O2 1_555 1_555
C8 O1 1_555 1_555
C9 C8 1_555 1_555
C10 C9 1_555 1_555
C11 C10 1_555 1_555
C12 C11 1_555 1_555
C13 C12 1_555 1_555
C14 C9 1_555 1_555
C2 C7 1_555 1_555
C5 C6 1_555 1_555
C13 C14 1_555 1_555

#END
