
#######################################################################
#
#                 Cambridge Crystallographic Data Centre
#                                CCDC 
#
#######################################################################
#
# If this CIF has been generated from an entry in the Cambridge 
# Structural Database, then it will include bibliographic, chemical, 
# crystal, experimental, refinement or atomic coordinate data resulting 
# from the CCDC's data processing and validation procedures.
#
#######################################################################

data_WUKTEC
_chemical_formula_moiety         'C16 H25 N1 O2 S1'
_chemical_name_systematic        
N-(2-Hydroxy-2-phenylcyclohexyl)-2-t-butane-2-sulfinamide
_symmetry_cell_setting           monoclinic
_symmetry_space_group_name_H-M   'P c'
_symmetry_Int_Tables_number      7
_space_group_name_Hall           'P -2yc'
loop_
_symmetry_equiv_pos_site_id
_symmetry_equiv_pos_as_xyz
1 x,y,z
2 x,-y,1/2+z
_cell_length_a                   6.119(4)
_cell_length_b                   13.231(10)
_cell_length_c                   20.150(15)
_cell_angle_alpha                90
_cell_angle_beta                 91.940(13)
_cell_angle_gamma                90
_cell_volume                     1630.42
_exptl_crystal_colour            colorless
_exptl_crystal_description       prism
_chemical_melting_point          '146-148 deg.C'
_cell_formula_units_Z            4
loop_
_atom_site_label
_atom_site_type_symbol
_atom_site_fract_x
_atom_site_fract_y
_atom_site_fract_z
S1 S 0.6366(2) 0.51085(11) 0.07015(9)
O1 O 0.8118(8) 0.2730(3) 0.2445(3)
H1 H 0.8904 0.2251 0.2552
O2 O 0.4834(8) 0.5916(4) 0.0924(3)
N1 N 0.8239(8) 0.4822(4) 0.1276(3)
H2 H 0.922(7) 0.533(3) 0.142(2)
C1 C 1.1418(13) 0.2721(6) 0.0987(4)
H3 H 1.2576 0.3127 0.1134
C2 C 1.1659(15) 0.2158(7) 0.0430(4)
H4 H 1.2947 0.2196 0.0199
C3 C 0.998(2) 0.1527(7) 0.0207(5)
H5 H 1.0125 0.1131 -0.0170
C4 C 0.8128(16) 0.1500(6) 0.0551(5)
H6 H 0.6995 0.1077 0.0407
C5 C 0.7861(13) 0.2078(6) 0.1109(4)
H7 H 0.6555 0.2042 0.1331
C6 C 0.9509(10) 0.2717(4) 0.1347(3)
C7 C 0.9149(10) 0.3314(4) 0.1968(3)
C8 C 0.7488(10) 0.4175(4) 0.1821(3)
H8 H 0.6110 0.3861 0.1669
C9 C 0.7028(12) 0.4775(5) 0.2449(4)
H9 H 0.6040 0.5328 0.2338
H10 H 0.6318 0.4340 0.2763
C10 C 0.9119(14) 0.5195(6) 0.2767(4)
H11 H 0.8787 0.5512 0.3186
H12 H 0.9702 0.5711 0.2480
C11 C 1.0861(12) 0.4374(7) 0.2891(4)
H13 H 1.2215 0.4684 0.3051
H14 H 1.0379 0.3911 0.3230
C12 C 1.1246(10) 0.3806(5) 0.2271(3)
H15 H 1.2323 0.3283 0.2364
H16 H 1.1844 0.4263 0.1947
C13 C 0.8162(11) 0.5732(4) 0.0104(3)
C14 C 0.9834(14) 0.4981(5) -0.0110(4)
H17 H 1.0587 0.5245 -0.0482
H18 H 0.9119 0.4360 -0.0235
H19 H 1.0865 0.4856 0.0250
C15 C 0.6565(14) 0.6031(8) -0.0467(4)
H20 H 0.7371 0.6195 -0.0853
H21 H 0.5729 0.6608 -0.0338
H22 H 0.5596 0.5477 -0.0566
C16 C 0.9224(15) 0.6676(5) 0.0426(4)
H23 H 0.9991 0.6487 0.0831
H24 H 0.8110 0.7160 0.0522
H25 H 1.0232 0.6969 0.0126
S2 S 0.1352(3) -0.01129(11) 0.81315(10)
O3 O 0.2834(7) 0.2753(4) 0.6769(3)
H26 H 0.3309 0.2835 0.6397
O4 O -0.0114(9) -0.0862(4) 0.7811(3)
N2 N 0.3175(8) 0.0323(4) 0.7620(3)
H27 H 0.44(2) -0.005(13) 0.764(8)
C17 C 0.6683(11) 0.2183(5) 0.8110(4)
H28 H 0.7761 0.1842 0.7885
C18 C 0.7130(14) 0.2512(6) 0.8740(4)
H29 H 0.8507 0.2390 0.8933
C19 C 0.5635(16) 0.3012(6) 0.9093(4)
H30 H 0.5971 0.3236 0.9522
C20 C 0.3642(17) 0.3175(6) 0.8806(5)
H31 H 0.2573 0.3502 0.9044
C21 C 0.3165(13) 0.2859(5) 0.8155(4)
H32 H 0.1804 0.3001 0.7958
C22 C 0.4697(10) 0.2338(4) 0.7802(3)
C23 C 0.4043(9) 0.1970(5) 0.7104(3)
C24 C 0.2331(9) 0.1102(5) 0.7157(3)
H33 H 0.1021 0.1392 0.7349
C25 C 0.1658(13) 0.0684(7) 0.6472(4)
H34 H 0.0860 0.1198 0.6221
H35 H 0.0695 0.0109 0.6524
C26 C 0.3660(14) 0.0358(6) 0.6090(4)
H36 H 0.4374 -0.0205 0.6316
H37 H 0.3202 0.0137 0.5648
C27 C 0.5240(12) 0.1224(6) 0.6042(4)
H38 H 0.6512 0.1003 0.5806
H39 H 0.4551 0.1767 0.5788
C28 C 0.5954(10) 0.1613(5) 0.6711(3)
H40 H 0.6966 0.2169 0.6658
H41 H 0.6718 0.1081 0.6956
C29 C 0.3238(11) -0.0821(5) 0.8695(4)
C30 C 0.4668(18) -0.0061(6) 0.9058(5)
H42 H 0.5470 -0.0391 0.9414
H43 H 0.3773 0.0463 0.9235
H44 H 0.5674 0.0228 0.8756
C31 C 0.4460(17) -0.1599(7) 0.8314(5)
H45 H 0.5853 -0.1330 0.8197
H46 H 0.3632 -0.1773 0.7917
H47 H 0.4678 -0.2192 0.8583
C32 C 0.1638(17) -0.1360(8) 0.9164(5)
H48 H 0.0490 -0.1678 0.8904
H49 H 0.1018 -0.0871 0.9456
H50 H 0.2418 -0.1861 0.9422
loop_
_geom_bond_atom_site_label_1
_geom_bond_atom_site_label_2
_geom_bond_site_symmetry_1
_geom_bond_site_symmetry_2
S1 O2 1_555 1_555
O1 H1 1_555 1_555
N1 S1 1_555 1_555
H2 N1 1_555 1_555
C1 H3 1_555 1_555
C2 C1 1_555 1_555
H4 C2 1_555 1_555
C3 C2 1_555 1_555
H5 C3 1_555 1_555
C4 C3 1_555 1_555
H6 C4 1_555 1_555
C5 C4 1_555 1_555
H7 C5 1_555 1_555
C6 C1 1_555 1_555
C7 O1 1_555 1_555
C8 N1 1_555 1_555
H8 C8 1_555 1_555
C9 C8 1_555 1_555
H9 C9 1_555 1_555
H10 C9 1_555 1_555
C10 C9 1_555 1_555
H11 C10 1_555 1_555
H12 C10 1_555 1_555
C11 C10 1_555 1_555
H13 C11 1_555 1_555
H14 C11 1_555 1_555
C12 C7 1_555 1_555
H15 C12 1_555 1_555
H16 C12 1_555 1_555
C13 S1 1_555 1_555
C14 C13 1_555 1_555
H17 C14 1_555 1_555
H18 C14 1_555 1_555
H19 C14 1_555 1_555
C15 C13 1_555 1_555
H20 C15 1_555 1_555
H21 C15 1_555 1_555
H22 C15 1_555 1_555
C16 C13 1_555 1_555
H23 C16 1_555 1_555
H24 C16 1_555 1_555
H25 C16 1_555 1_555
S2 O4 1_555 1_555
O3 H26 1_555 1_555
N2 S2 1_555 1_555
H27 N2 1_555 1_555
C17 H28 1_555 1_555
C18 C17 1_555 1_555
H29 C18 1_555 1_555
C19 C18 1_555 1_555
H30 C19 1_555 1_555
C20 C19 1_555 1_555
H31 C20 1_555 1_555
C21 C20 1_555 1_555
H32 C21 1_555 1_555
C22 C17 1_555 1_555
C23 O3 1_555 1_555
C24 N2 1_555 1_555
H33 C24 1_555 1_555
C25 C24 1_555 1_555
H34 C25 1_555 1_555
H35 C25 1_555 1_555
C26 C25 1_555 1_555
H36 C26 1_555 1_555
H37 C26 1_555 1_555
C27 C26 1_555 1_555
H38 C27 1_555 1_555
H39 C27 1_555 1_555
C28 C23 1_555 1_555
H40 C28 1_555 1_555
H41 C28 1_555 1_555
C29 S2 1_555 1_555
C30 C29 1_555 1_555
H42 C30 1_555 1_555
H43 C30 1_555 1_555
H44 C30 1_555 1_555
C31 C29 1_555 1_555
H45 C31 1_555 1_555
H46 C31 1_555 1_555
H47 C31 1_555 1_555
C32 C29 1_555 1_555
H48 C32 1_555 1_555
H49 C32 1_555 1_555
H50 C32 1_555 1_555
C5 C6 1_555 1_555
C6 C7 1_555 1_555
C7 C8 1_555 1_555
C11 C12 1_555 1_555
C21 C22 1_555 1_555
C22 C23 1_555 1_555
C23 C24 1_555 1_555
C27 C28 1_555 1_555

#END
