
#######################################################################
#
#                 Cambridge Crystallographic Data Centre
#                                CCDC 
#
#######################################################################
#
# If this CIF has been generated from an entry in the Cambridge 
# Structural Database, then it will include bibliographic, chemical, 
# crystal, experimental, refinement or atomic coordinate data resulting 
# from the CCDC's data processing and validation procedures.
#
#######################################################################

data_WULDEN
_chemical_formula_moiety         'C17 H15 N1 O4'
_chemical_name_systematic        
'2-(3,5-Dioxo-4-azatricyclo[5.2.1.0^2,6^]dec-8-en-4-yl)-3-methylbenzoic acid'
_symmetry_cell_setting           monoclinic
_symmetry_space_group_name_H-M   'P 21/n'
_symmetry_Int_Tables_number      14
_space_group_name_Hall           '-P 2yn'
loop_
_symmetry_equiv_pos_site_id
_symmetry_equiv_pos_as_xyz
1 x,y,z
2 1/2-x,1/2+y,1/2-z
3 -x,-y,-z
4 1/2+x,1/2-y,1/2+z
_cell_length_a                   13.5426(13)
_cell_length_b                   7.7407(7)
_cell_length_c                   14.5124(14)
_cell_angle_alpha                90
_cell_angle_beta                 114.739(2)
_cell_angle_gamma                90
_cell_volume                     1381.7
_exptl_crystal_colour            colorless
_exptl_crystal_description       plate
_cell_formula_units_Z            4
loop_
_atom_site_label
_atom_site_type_symbol
_atom_site_fract_x
_atom_site_fract_y
_atom_site_fract_z
C1 C 0.20506(9) 0.09038(15) 0.52877(8)
C2 C 0.17269(9) 0.25071(15) 0.46415(9)
H1 H 0.1188 0.3201 0.4791
C3 C 0.27944(9) 0.35222(15) 0.49256(8)
H2 H 0.2754 0.4679 0.5214
C4 C 0.36631(9) 0.24213(15) 0.56979(8)
C5 C 0.13176(10) 0.22055(16) 0.34730(9)
H3 H 0.0535 0.1881 0.3098
C6 C 0.21317(10) 0.10232(16) 0.33286(9)
H4 H 0.2009 -0.0143 0.3106
C7 C 0.30512(10) 0.19089(16) 0.35698(9)
H5 H 0.3701 0.1486 0.3550
C8 C 0.28748(10) 0.37119(16) 0.38809(9)
H6 H 0.3377 0.4629 0.3844
C9 C 0.16577(10) 0.39523(17) 0.31787(9)
H7 H 0.1514 0.4016 0.2452
H8 H 0.1330 0.4956 0.3370
C10 C 0.37115(9) -0.03139(15) 0.66439(8)
C11 C 0.40395(9) -0.18478(15) 0.63497(9)
C12 C 0.45231(10) -0.31145(16) 0.70881(10)
H9 H 0.4742 -0.4176 0.6902
C13 C 0.46891(10) -0.28498(16) 0.80862(10)
H10 H 0.5011 -0.3731 0.8577
C14 C 0.43842(10) -0.12973(16) 0.83692(9)
H11 H 0.4517 -0.1111 0.9058
C15 C 0.38850(9) -0.00083(15) 0.76534(8)
C16 C 0.38766(11) -0.21260(17) 0.52692(10)
H12 H 0.4268 -0.3167 0.5229
H13 H 0.4156 -0.1126 0.5039
H14 H 0.3100 -0.2267 0.4837
C17 C 0.35668(9) 0.16653(16) 0.79724(9)
N1 N 0.31573(8) 0.09482(12) 0.58744(7)
O1 O 0.14540(7) -0.02657(12) 0.52945(6)
O2 O 0.46299(7) 0.26705(11) 0.60982(6)
O3 O 0.32557(8) 0.29297(12) 0.74447(7)
O4 O 0.36954(9) 0.16351(14) 0.89361(7)
H15 H 0.3540(17) 0.268(3) 0.9068(16)
loop_
_geom_bond_atom_site_label_1
_geom_bond_atom_site_label_2
_geom_bond_site_symmetry_1
_geom_bond_site_symmetry_2
C1 C2 1_555 1_555
C2 H1 1_555 1_555
C3 C2 1_555 1_555
H2 C3 1_555 1_555
C4 C3 1_555 1_555
C5 C2 1_555 1_555
H3 C5 1_555 1_555
C6 C5 1_555 1_555
H4 C6 1_555 1_555
C7 C6 1_555 1_555
H5 C7 1_555 1_555
C8 C3 1_555 1_555
H6 C8 1_555 1_555
C9 C5 1_555 1_555
H7 C9 1_555 1_555
H8 C9 1_555 1_555
C10 C11 1_555 1_555
C11 C12 1_555 1_555
C12 H9 1_555 1_555
C13 C12 1_555 1_555
H10 C13 1_555 1_555
C14 C13 1_555 1_555
H11 C14 1_555 1_555
C15 C10 1_555 1_555
C16 C11 1_555 1_555
H12 C16 1_555 1_555
H13 C16 1_555 1_555
H14 C16 1_555 1_555
C17 C15 1_555 1_555
N1 C1 1_555 1_555
O1 C1 1_555 1_555
O2 C4 1_555 1_555
O3 C17 1_555 1_555
O4 C17 1_555 1_555
H15 O4 1_555 1_555
C4 N1 1_555 1_555
C7 C8 1_555 1_555
C8 C9 1_555 1_555
C10 N1 1_555 1_555
C14 C15 1_555 1_555

#END
