
#######################################################################
#
#                 Cambridge Crystallographic Data Centre
#                                CCDC 
#
#######################################################################
#
# If this CIF has been generated from an entry in the Cambridge 
# Structural Database, then it will include bibliographic, chemical, 
# crystal, experimental, refinement or atomic coordinate data resulting 
# from the CCDC's data processing and validation procedures.
#
#######################################################################

data_WULTON
_chemical_formula_moiety         'C16 H19 N1 O1'
_chemical_name_systematic        
(1S*,5R*,6S*)-3-Phenyl-6-vinyl-2-azabicyclo[3.3.1]non-2-en-1-ol
_symmetry_cell_setting           monoclinic
_symmetry_space_group_name_H-M   'P 21/n'
_symmetry_Int_Tables_number      14
_space_group_name_Hall           '-P 2yn'
loop_
_symmetry_equiv_pos_site_id
_symmetry_equiv_pos_as_xyz
1 x,y,z
2 1/2-x,1/2+y,1/2-z
3 -x,-y,-z
4 1/2+x,1/2-y,1/2+z
_cell_length_a                   10.4412(9)
_cell_length_b                   7.8614(7)
_cell_length_c                   15.9788(13)
_cell_angle_alpha                90
_cell_angle_beta                 93.057(4)
_cell_angle_gamma                90
_cell_volume                     1309.71
_exptl_crystal_colour            colorless
_exptl_crystal_description       prism
_chemical_melting_point          '113-114 deg.C'
_cell_formula_units_Z            4
_exptl_crystal_recrystallization_method 'ethyl acetate/hexane'
loop_
_atom_site_label
_atom_site_type_symbol
_atom_site_fract_x
_atom_site_fract_y
_atom_site_fract_z
C1 C 0.7140(3) 0.0991(4) 0.92096(18)
C2 C 0.6319(2) 0.2547(3) 0.93196(15)
H1 H 0.5466 0.2175 0.9491
H2 H 0.6192 0.3124 0.8771
C3 C 0.6864(3) 0.3835(4) 0.9961(2)
H3 H 0.6518 0.4986 0.9807
C4 C 0.8339(6) 0.3861(9) 0.9892(4)
H4 H 0.8557 0.4147 0.9314
H5 H 0.8734 0.4721 1.0278
C5 C 0.8825(2) 0.2105(4) 1.01258(16)
C6 C 0.8552(2) 0.1667(3) 1.1022(2)
H6 H 0.9007 0.2479 1.1407
H7 H 0.8880 0.0511 1.1156
C7 C 0.7120(6) 0.1736(10) 1.1155(5)
H8 H 0.6983 0.1586 1.1759
H9 H 0.6692 0.0778 1.0850
C8 C 0.6490(2) 0.3413(4) 1.08550(18)
H10 H 0.5541 0.3230 1.0831
C9 C 0.6779(3) 0.4855(4) 1.14663(19)
H11 H 0.6729 0.4575 1.2042
C10 C 0.7093(6) 0.6462(7) 1.1308(3)
H12 H 0.7160 0.6831 1.0746
H13 H 0.7249 0.7239 1.1757
C11 C 0.6679(9) -0.0356(9) 0.8608(4)
C12 C 0.5654(7) -0.0001(13) 0.8050(7)
H14 H 0.5216 0.1056 0.8074
C13 C 0.5273(10) -0.1214(11) 0.7452(6)
H15 H 0.4568 -0.0993 0.7066
C14 C 0.5925(12) -0.2744(13) 0.7422(7)
H16 H 0.5727 -0.3514 0.6975
C15 C 0.6860(10) -0.3170(12) 0.8031(6)
H17 H 0.7251 -0.4260 0.8038
C16 C 0.7205(9) -0.1973(12) 0.8625(5)
H18 H 0.7822 -0.2262 0.9061
N1 N 0.8266(4) 0.0771(5) 0.9565(2)
O1 O 1.01607(13) 0.2140(2) 1.00025(11)
H19 H 1.0482 0.1187 1.0126
C17? C 0.7460(7) 0.1795(14) 1.1080(6)
C18? C 0.8567(2) 0.1417(4) 1.0537(2)
C19? C 0.9129(3) 0.3066(4) 1.02188(18)
C20? C 0.8115(8) 0.4113(12) 0.9738(5)
C21? C 0.6920(4) 0.4427(5) 1.0214(3)
C22? C 0.7163(3) 0.5846(5) 1.0851(3)
C23? C 0.6707(8) 0.6022(13) 1.1580(4)
C24? C 0.5690(10) -0.0137(16) 0.8142(7)
C25? C 0.5325(13) -0.1169(15) 0.7474(8)
C26? C 0.5811(14) -0.2797(15) 0.7418(7)
C27? C 0.6803(11) -0.3221(12) 0.7987(6)
C28? C 0.7230(12) -0.2145(14) 0.8623(7)
C29? C 0.6609(12) -0.0610(11) 0.8761(5)
C30? C 0.7031(3) 0.0467(4) 0.9486(2)
C31? C 0.5978(2) 0.1554(4) 0.98205(17)
C32? C 0.6421(3) 0.2729(5) 1.0539(2)
H20? H 0.7753 0.2515 1.1561
H21? H 0.7110 0.0723 1.1300
H22? H 0.9492 0.3736 1.0700
H23? H 0.9833 0.2800 0.9849
H24? H 0.8491 0.5224 0.9593
H25? H 0.7867 0.3520 0.9207
H26? H 0.6251 0.4858 0.9795
H27? H 0.7728 0.6721 1.0690
H28? H 0.6136 0.5194 1.1780
H29? H 0.6941 0.6981 1.1916
H30? H 0.5296 0.0947 0.8181
H31? H 0.9695 -0.0378 1.0780
H32? H 0.4734 -0.0758 0.7048
H33? H 0.5482 -0.3583 0.7010
H34? H 0.7206 -0.4297 0.7938
H35? H 0.7957 -0.2454 0.8973
H36? H 0.5296 0.0798 1.0016
H37? H 0.5597 0.2254 0.9356
H38? H 0.5676 0.2962 1.0890
N2? N 0.8173(4) 0.0362(6) 0.9805(2)
O2? O 0.94809(17) 0.0501(3) 1.10366(11)
loop_
_geom_bond_atom_site_label_1
_geom_bond_atom_site_label_2
_geom_bond_site_symmetry_1
_geom_bond_site_symmetry_2
C1 C2 1_555 1_555
C2 H1 1_555 1_555
H2 C2 1_555 1_555
C3 C2 1_555 1_555
H3 C3 1_555 1_555
C4 C3 1_555 1_555
H4 C4 1_555 1_555
H5 C4 1_555 1_555
C5 C4 1_555 1_555
C6 C5 1_555 1_555
H6 C6 1_555 1_555
H7 C6 1_555 1_555
C7 C6 1_555 1_555
H8 C7 1_555 1_555
H9 C7 1_555 1_555
C8 C3 1_555 1_555
H10 C8 1_555 1_555
C9 C8 1_555 1_555
H11 C9 1_555 1_555
C10 C9 1_555 1_555
H12 C10 1_555 1_555
H13 C10 1_555 1_555
C11 C1 1_555 1_555
C12 C11 1_555 1_555
H14 C12 1_555 1_555
C13 C12 1_555 1_555
H15 C13 1_555 1_555
C14 C13 1_555 1_555
H16 C14 1_555 1_555
C15 C14 1_555 1_555
H17 C15 1_555 1_555
C16 C11 1_555 1_555
H18 C16 1_555 1_555
N1 C1 1_555 1_555
O1 C5 1_555 1_555
H19 O1 1_555 1_555
C5 N1 1_555 1_555
C7 C8 1_555 1_555
C15 C16 1_555 1_555

#END
