
#######################################################################
#
#                 Cambridge Crystallographic Data Centre
#                                CCDC 
#
#######################################################################
#
# If this CIF has been generated from an entry in the Cambridge 
# Structural Database, then it will include bibliographic, chemical, 
# crystal, experimental, refinement or atomic coordinate data resulting 
# from the CCDC's data processing and validation procedures.
#
#######################################################################

data_WUMYIO
_chemical_compound_source        'Euphorbia lathyris'
_chemical_formula_moiety         'C24 H34 O6'
_chemical_name_systematic        
'10-isopropylidene-3,13-dimethyl-7-methylene-14-oxo-15-oxatricyclo[9.3.1.0^1,5^]pentadecane-4,6-diyl diacetate'
_chemical_properties_biological  'MDR reversal activity'
_symmetry_cell_setting           orthorhombic
_symmetry_space_group_name_H-M   'P 21 21 21'
_symmetry_Int_Tables_number      19
_space_group_name_Hall           'P 2ac 2ab'
loop_
_symmetry_equiv_pos_site_id
_symmetry_equiv_pos_as_xyz
1 x,y,z
2 1/2-x,-y,1/2+z
3 1/2+x,1/2-y,-z
4 -x,1/2+y,1/2-z
_cell_length_a                   10.2622(3)
_cell_length_b                   14.5208(7)
_cell_length_c                   15.7595(6)
_cell_angle_alpha                90
_cell_angle_beta                 90
_cell_angle_gamma                90
_cell_volume                     2348.41
_exptl_crystal_colour            colorless
_exptl_crystal_description       block
_cell_formula_units_Z            4
loop_
_atom_site_label
_atom_site_type_symbol
_atom_site_fract_x
_atom_site_fract_y
_atom_site_fract_z
O1 O -0.77629(13) -0.54523(12) -0.02904(10)
O2 O -1.03700(18) -0.46534(17) 0.10074(13)
O3 O -0.92540(15) -0.73789(13) -0.07298(12)
O4 O -1.0651(10) -0.8430(7) -0.1247(7)
O5 O -1.08930(15) -0.57572(15) -0.17930(11)
O6 O -0.9775(12) -0.6021(10) -0.2974(12)
C1 C -0.8759(2) -0.64016(19) 0.08161(16)
H1 H -0.7981 -0.6751 0.0679
H2 H -0.8704 -0.6202 0.1402
C2 C -0.9627(3) -0.8035(3) -0.12555(19)
C3 C -1.0788(3) -0.6110(2) -0.25711(17)
C4 C -0.9979(3) -0.6986(2) 0.06759(17)
H3 H -1.0696 -0.6689 0.0981
C5 C -0.8518(3) -0.8496(3) -0.1676(2)
H4 H -0.8024 -0.8833 -0.1262
H5 H -0.7969 -0.8042 -0.1938
H6 H -0.8839 -0.8912 -0.2100
C6 C -1.2076(3) -0.6361(3) -0.2930(2)
H7 H -1.2580 -0.5813 -0.3022
H8 H -1.2527 -0.6758 -0.2541
H9 H -1.1954 -0.6675 -0.3461
C7 C -1.0229(2) -0.6856(2) -0.02695(16)
H10 H -1.1116 -0.7037 -0.0428
C8 C -0.9992(2) -0.58351(19) -0.04081(15)
H11 H -1.0784 -0.5508 -0.0235
C9 C -0.9693(2) -0.5555(2) -0.13201(15)
H12 H -0.8989 -0.5945 -0.1538
C10 C -0.9314(2) -0.4557(2) -0.14294(16)
C11 C -0.8087(2) -0.4342(2) -0.19180(18)
H13 H -0.7894 -0.3695 -0.1829
H14 H -0.8287 -0.4415 -0.2516
C12 C -0.6838(2) -0.4878(2) -0.17437(16)
H15 H -0.7060 -0.5527 -0.1725
H16 H -0.6263 -0.4790 -0.2226
C13 C -0.6064(2) -0.4657(2) -0.09458(16)
C14 C -0.4809(2) -0.4427(2) -0.09702(17)
C15 C -0.6770(2) -0.47901(19) -0.01064(15)
H17 H -0.6162 -0.5058 0.0304
C16 C -0.7313(3) -0.3910(2) 0.02563(17)
H18 H -0.7820 -0.3595 -0.0175
H19 H -0.6601 -0.3509 0.0422
C17 C -0.8178(3) -0.4103(2) 0.10290(17)
H20 H -0.7644 -0.4443 0.1438
C18 C -0.9258(3) -0.4735(2) 0.07634(16)
C19 C -0.8898(2) -0.55614(18) 0.02158(14)
C20 C -0.9900(4) -0.7969(3) 0.0983(2)
H21 H -0.9798 -0.7975 0.1589
H22 H -0.9167 -0.8268 0.0724
H23 H -1.0685 -0.8289 0.0832
C21 C -1.0087(3) -0.3895(3) -0.1149(2)
H24 H -0.990(3) -0.329(3) -0.121(2)
H25 H -1.091(3) -0.403(2) -0.0865(18)
C22 C -0.4044(3) -0.4301(3) -0.1786(2)
H26 H -0.4445 -0.3828 -0.2123
H27 H -0.4038 -0.4869 -0.2098
H28 H -0.3165 -0.4126 -0.1654
C23 C -0.3988(3) -0.4292(3) -0.0188(2)
H29 H -0.3329 -0.4761 -0.0165
H30 H -0.4529 -0.4333 0.0307
H31 H -0.3581 -0.3698 -0.0208
C24 C -0.8654(4) -0.3240(3) 0.1474(2)
H32 H -0.9181 -0.2886 0.1091
H33 H -0.7920 -0.2880 0.1652
H34 H -0.9163 -0.3410 0.1961
O7? O -1.0816(11) -0.7998(7) -0.1521(7)
O8? O -0.9751(12) -0.6394(10) -0.2864(12)
loop_
_geom_bond_atom_site_label_1
_geom_bond_atom_site_label_2
_geom_bond_site_symmetry_1
_geom_bond_site_symmetry_2
O1 C15 1_555 1_555
O2 C18 1_555 1_555
O3 C2 1_555 1_555
O4 C2 1_555 1_555
O5 C3 1_555 1_555
O6 C3 1_555 1_555
C1 H1 1_555 1_555
H2 C1 1_555 1_555
C2 C5 1_555 1_555
C3 C6 1_555 1_555
C4 C1 1_555 1_555
H3 C4 1_555 1_555
C5 H4 1_555 1_555
H5 C5 1_555 1_555
H6 C5 1_555 1_555
C6 H7 1_555 1_555
H8 C6 1_555 1_555
H9 C6 1_555 1_555
C7 O3 1_555 1_555
H10 C7 1_555 1_555
C8 C7 1_555 1_555
H11 C8 1_555 1_555
C9 O5 1_555 1_555
H12 C9 1_555 1_555
C10 C9 1_555 1_555
C11 C10 1_555 1_555
H13 C11 1_555 1_555
H14 C11 1_555 1_555
C12 C11 1_555 1_555
H15 C12 1_555 1_555
H16 C12 1_555 1_555
C13 C12 1_555 1_555
C14 C13 1_555 1_555
C15 C13 1_555 1_555
H17 C15 1_555 1_555
C16 C15 1_555 1_555
H18 C16 1_555 1_555
H19 C16 1_555 1_555
C17 C16 1_555 1_555
H20 C17 1_555 1_555
C18 C17 1_555 1_555
C19 O1 1_555 1_555
C20 C4 1_555 1_555
H21 C20 1_555 1_555
H22 C20 1_555 1_555
H23 C20 1_555 1_555
C21 C10 1_555 1_555
H24 C21 1_555 1_555
H25 C21 1_555 1_555
C22 C14 1_555 1_555
H26 C22 1_555 1_555
H27 C22 1_555 1_555
H28 C22 1_555 1_555
C23 C14 1_555 1_555
H29 C23 1_555 1_555
H30 C23 1_555 1_555
H31 C23 1_555 1_555
C24 C17 1_555 1_555
H32 C24 1_555 1_555
H33 C24 1_555 1_555
H34 C24 1_555 1_555
C1 C19 1_555 1_555
C4 C7 1_555 1_555
C8 C9 1_555 1_555
C8 C19 1_555 1_555
C18 C19 1_555 1_555

#END
