
#######################################################################
#
#                 Cambridge Crystallographic Data Centre
#                                CCDC 
#
#######################################################################
#
# If this CIF has been generated from an entry in the Cambridge 
# Structural Database, then it will include bibliographic, chemical, 
# crystal, experimental, refinement or atomic coordinate data resulting 
# from the CCDC's data processing and validation procedures.
#
#######################################################################

data_WUNFES
_chemical_formula_moiety         'C22 H27 N3 O1'
_chemical_name_systematic        
3-benzyl-2-((2,6-diisopropylphenyl)imino)imidazolidin-4-one
_symmetry_cell_setting           triclinic
_symmetry_space_group_name_H-M   'P -1'
_symmetry_Int_Tables_number      2
_space_group_name_Hall           '-P 1'
loop_
_symmetry_equiv_pos_site_id
_symmetry_equiv_pos_as_xyz
1 x,y,z
2 -x,-y,-z
_cell_length_a                   10.4497(10)
_cell_length_b                   11.0458(9)
_cell_length_c                   18.6328(17)
_cell_angle_alpha                99.725(7)
_cell_angle_beta                 90.094(8)
_cell_angle_gamma                109.993(8)
_cell_volume                     1987.94
_exptl_crystal_colour            yellow
_cell_formula_units_Z            4
loop_
_atom_site_label
_atom_site_type_symbol
_atom_site_fract_x
_atom_site_fract_y
_atom_site_fract_z
C1 C 0.5128(3) 0.4785(3) 0.25378(17)
C2 C 0.5064(4) 0.5554(3) 0.19523(17)
H1 H 0.5806 0.5590 0.1617
H2 H 0.4175 0.5168 0.1666
C3 C 0.5472(3) 0.6904(3) 0.30889(16)
C4 C 0.5382(3) 0.5259(3) 0.38991(17)
H3 H 0.6015 0.6015 0.4240
H4 H 0.5745 0.4532 0.3854
C5 C 0.3994(3) 0.4841(3) 0.42049(16)
C6 C 0.3505(4) 0.5757(3) 0.45982(17)
H5 H 0.4053 0.6659 0.4679
C7 C 0.2238(4) 0.5374(4) 0.48716(19)
H6 H 0.1912 0.6015 0.5133
C8 C 0.1435(4) 0.4073(4) 0.47711(19)
H7 H 0.0561 0.3814 0.4963
C9 C 0.1908(4) 0.3147(4) 0.4390(2)
H8 H 0.1366 0.2245 0.4326
C10 C 0.3171(4) 0.3531(3) 0.40994(18)
H9 H 0.3479 0.2890 0.3824
C11 C 0.6001(3) 0.9142(3) 0.35507(15)
C12 C 0.7317(3) 0.9948(3) 0.34356(16)
C13 C 0.7577(4) 1.1278(3) 0.34544(18)
H10 H 0.8465 1.1835 0.3375
C14 C 0.6532(4) 1.1792(3) 0.35904(19)
H11 H 0.6712 1.2702 0.3613
C15 C 0.5246(4) 1.0978(3) 0.36910(19)
H12 H 0.4542 1.1337 0.3776
C16 C 0.4939(3) 0.9644(3) 0.36720(17)
C17 C 0.8457(3) 0.9386(3) 0.33128(18)
H13 H 0.8040 0.8479 0.3025
C18 C 0.9602(4) 1.0139(3) 0.28767(18)
H14 H 0.9212 1.0238 0.2421
H15 H 1.0230 0.9656 0.2765
H16 H 1.0100 1.1006 0.3164
C19 C 0.9021(4) 0.9262(4) 0.40413(19)
H17 H 0.9409 1.0132 0.4347
H18 H 0.9734 0.8873 0.3957
H19 H 0.8284 0.8702 0.4288
C20 C 0.3484(4) 0.8758(3) 0.37520(19)
H20 H 0.3514 0.7871 0.3776
C21 C 0.2585(4) 0.8614(4) 0.3085(2)
H21 H 0.2540 0.9470 0.3040
H22 H 0.1665 0.8006 0.3131
H23 H 0.2966 0.8272 0.2649
C22 C 0.2901(4) 0.9210(5) 0.4449(2)
H24 H 0.3493 0.9259 0.4869
H25 H 0.1985 0.8587 0.4485
H26 H 0.2849 1.0077 0.4442
N1 N 0.5318(3) 0.5621(2) 0.31836(13)
N2 N 0.5235(3) 0.6846(2) 0.23630(14)
N3 N 0.5773(3) 0.7828(2) 0.36326(13)
O1 O 0.5014(2) 0.36277(19) 0.24573(12)
H27 H 0.563(3) 0.761(3) 0.2154(18)
C23 C 0.7525(3) 0.2017(3) 0.13066(15)
C24 C 0.6565(3) -0.0125(3) 0.14467(16)
C25 C 0.5617(3) 0.0573(3) 0.17371(18)
H28 H 0.4715 0.0185 0.1464
H29 H 0.5495 0.0550 0.2262
C26 C 0.8709(3) 0.0448(3) 0.07909(16)
H30 H 0.8890 -0.0266 0.0981
H31 H 0.9552 0.1229 0.0882
C27 C 0.8355(3) 0.0037(3) -0.00210(16)
C28 C 0.8757(3) 0.0944(3) -0.04827(17)
H32 H 0.9275 0.1832 -0.0289
C29 C 0.8408(4) 0.0562(3) -0.12236(18)
H33 H 0.8675 0.1190 -0.1536
C30 C 0.7673(4) -0.0728(4) -0.15094(19)
H34 H 0.7448 -0.0992 -0.2019
C31 C 0.7267(4) -0.1631(3) -0.10559(19)
H35 H 0.6757 -0.2519 -0.1253
C32 C 0.7599(3) -0.1253(3) -0.03123(18)
H36 H 0.7306 -0.1881 -0.0001
C33 C 0.8403(3) 0.4258(3) 0.13044(16)
C34 C 0.8861(3) 0.5007(3) 0.19996(17)
C35 C 0.8898(3) 0.6300(3) 0.21292(19)
H37 H 0.9198 0.6823 0.2599
C36 C 0.8506(4) 0.6831(3) 0.1585(2)
H38 H 0.8527 0.7710 0.1684
C37 C 0.8087(4) 0.6094(3) 0.09031(19)
H39 H 0.7841 0.6477 0.0530
C38 C 0.8014(3) 0.4789(3) 0.07442(17)
C39 C 0.9353(4) 0.4437(3) 0.25866(17)
H40 H 0.8746 0.3499 0.2535
C40 C 0.9285(4) 0.5095(3) 0.33603(18)
H41 H 0.9922 0.6001 0.3442
H42 H 0.9532 0.4619 0.3704
H43 H 0.8356 0.5091 0.3435
C41 C 1.0814(4) 0.4449(4) 0.2464(2)
H44 H 1.0835 0.3950 0.1979
H45 H 1.1102 0.4049 0.2836
H46 H 1.1435 0.5354 0.2498
C42 C 0.7511(4) 0.3964(3) -0.00005(18)
H47 H 0.7828 0.3199 -0.0043
C43 C 0.8068(5) 0.4672(5) -0.0625(2)
H48 H 0.7878 0.4037 -0.1082
H49 H 0.9055 0.5120 -0.0535
H50 H 0.7629 0.5317 -0.0661
C44 C 0.5988(5) 0.3433(5) -0.0088(2)
H51 H 0.5628 0.2921 0.0294
H52 H 0.5697 0.2870 -0.0568
H53 H 0.5641 0.4159 -0.0048
N4 N 0.7615(3) 0.0750(2) 0.11794(13)
N5 N 0.6324(3) 0.1893(2) 0.16184(16)
N6 N 0.8467(3) 0.2973(2) 0.11323(13)
O2 O 0.6414(2) -0.12806(18) 0.14367(11)
H54 H 0.611(4) 0.258(3) 0.1844(18)
loop_
_geom_bond_atom_site_label_1
_geom_bond_atom_site_label_2
_geom_bond_site_symmetry_1
_geom_bond_site_symmetry_2
C1 C2 1_555 1_555
C2 H1 1_555 1_555
H2 C2 1_555 1_555
C3 N1 1_555 1_555
C4 H3 1_555 1_555
H4 C4 1_555 1_555
C5 C4 1_555 1_555
C6 C5 1_555 1_555
H5 C6 1_555 1_555
C7 C6 1_555 1_555
H6 C7 1_555 1_555
C8 C7 1_555 1_555
H7 C8 1_555 1_555
C9 C8 1_555 1_555
H8 C9 1_555 1_555
C10 C5 1_555 1_555
H9 C10 1_555 1_555
C11 C12 1_555 1_555
C12 C13 1_555 1_555
C13 H10 1_555 1_555
C14 C13 1_555 1_555
H11 C14 1_555 1_555
C15 C14 1_555 1_555
H12 C15 1_555 1_555
C16 C11 1_555 1_555
C17 C12 1_555 1_555
H13 C17 1_555 1_555
C18 C17 1_555 1_555
H14 C18 1_555 1_555
H15 C18 1_555 1_555
H16 C18 1_555 1_555
C19 C17 1_555 1_555
H17 C19 1_555 1_555
H18 C19 1_555 1_555
H19 C19 1_555 1_555
C20 C16 1_555 1_555
H20 C20 1_555 1_555
C21 C20 1_555 1_555
H21 C21 1_555 1_555
H22 C21 1_555 1_555
H23 C21 1_555 1_555
C22 C20 1_555 1_555
H24 C22 1_555 1_555
H25 C22 1_555 1_555
H26 C22 1_555 1_555
N1 C1 1_555 1_555
N2 C2 1_555 1_555
N3 C3 1_555 1_555
O1 C1 1_555 1_555
H27 N2 1_555 1_555
C23 N4 1_555 1_555
C24 C25 1_555 1_555
C25 H28 1_555 1_555
H29 C25 1_555 1_555
C26 H30 1_555 1_555
H31 C26 1_555 1_555
C27 C26 1_555 1_555
C28 C27 1_555 1_555
H32 C28 1_555 1_555
C29 C28 1_555 1_555
H33 C29 1_555 1_555
C30 C29 1_555 1_555
H34 C30 1_555 1_555
C31 C30 1_555 1_555
H35 C31 1_555 1_555
C32 C27 1_555 1_555
H36 C32 1_555 1_555
C33 C34 1_555 1_555
C34 C35 1_555 1_555
C35 H37 1_555 1_555
C36 C35 1_555 1_555
H38 C36 1_555 1_555
C37 C36 1_555 1_555
H39 C37 1_555 1_555
C38 C33 1_555 1_555
C39 C34 1_555 1_555
H40 C39 1_555 1_555
C40 C39 1_555 1_555
H41 C40 1_555 1_555
H42 C40 1_555 1_555
H43 C40 1_555 1_555
C41 C39 1_555 1_555
H44 C41 1_555 1_555
H45 C41 1_555 1_555
H46 C41 1_555 1_555
C42 C38 1_555 1_555
H47 C42 1_555 1_555
C43 C42 1_555 1_555
H48 C43 1_555 1_555
H49 C43 1_555 1_555
H50 C43 1_555 1_555
C44 C42 1_555 1_555
H51 C44 1_555 1_555
H52 C44 1_555 1_555
H53 C44 1_555 1_555
N4 C24 1_555 1_555
N5 C23 1_555 1_555
N6 C23 1_555 1_555
O2 C24 1_555 1_555
H54 N5 1_555 1_555
C3 N2 1_555 1_555
C4 N1 1_555 1_555
C9 C10 1_555 1_555
C11 N3 1_555 1_555
C15 C16 1_555 1_555
C25 N5 1_555 1_555
C26 N4 1_555 1_555
C31 C32 1_555 1_555
C33 N6 1_555 1_555
C37 C38 1_555 1_555

#END
