
#######################################################################
#
#                 Cambridge Crystallographic Data Centre
#                                CCDC 
#
#######################################################################
#
# If this CIF has been generated from an entry in the Cambridge 
# Structural Database, then it will include bibliographic, chemical, 
# crystal, experimental, refinement or atomic coordinate data resulting 
# from the CCDC's data processing and validation procedures.
#
#######################################################################

data_WUNGAP
_chemical_formula_moiety         'C20 H28 O3,0.5(H2 O1)'
_chemical_name_systematic        
'13,18-dihydroxykaura-9(11),16-dien-15-one hemihydrate'
_chemical_properties_biological  'anticancer activity'
_symmetry_cell_setting           orthorhombic
_symmetry_space_group_name_H-M   'P 21 21 2'
_symmetry_Int_Tables_number      18
_space_group_name_Hall           'P 2 2ab'
loop_
_symmetry_equiv_pos_site_id
_symmetry_equiv_pos_as_xyz
1 x,y,z
2 -x,-y,z
3 1/2-x,1/2+y,-z
4 1/2+x,1/2-y,-z
_cell_length_a                   13.0132(11)
_cell_length_b                   21.6913(16)
_cell_length_c                   6.3473(6)
_cell_angle_alpha                90
_cell_angle_beta                 90
_cell_angle_gamma                90
_cell_volume                     1791.67
_chemical_melting_point          '437-439 K'
_cell_formula_units_Z            4
_exptl_crystal_recrystallization_method methanol
loop_
_atom_site_label
_atom_site_type_symbol
_atom_site_fract_x
_atom_site_fract_y
_atom_site_fract_z
O1 O 0.3478(2) 0.50721(10) 0.6924(4)
H1 H 0.3623 0.4888 0.5835
O2 O 0.0779(2) 0.93950(9) 0.6637(4)
H2 H 0.0588 0.9554 0.7741
O3 O 0.31069(18) 0.77292(10) 0.7692(5)
C1 C 0.0392(2) 0.64657(14) 0.8877(6)
H3 H 0.0805 0.6650 0.9982
H4 H -0.0320 0.6575 0.9138
C2 C 0.0503(3) 0.57665(14) 0.8986(6)
H5 H 0.0065 0.5577 0.7932
H6 H 0.0285 0.5621 1.0361
C3 C 0.1618(3) 0.55799(14) 0.8602(5)
H7 H 0.1675 0.5135 0.8693
H8 H 0.2046 0.5756 0.9698
C4 C 0.2017(2) 0.57924(13) 0.6447(5)
C5 C 0.1833(2) 0.65034(13) 0.6256(5)
H9 H 0.2261 0.6685 0.7364
C6 C 0.2264(3) 0.67690(15) 0.4191(6)
H10 H 0.3009 0.6758 0.4261
H11 H 0.2055 0.6503 0.3040
C7 C 0.1933(3) 0.74268(15) 0.3678(6)
H12 H 0.2514 0.7645 0.3077
H13 H 0.1399 0.7411 0.2613
C8 C 0.1535(3) 0.77925(13) 0.5544(5)
C9 C 0.0747(2) 0.74445(13) 0.6891(5)
C10 C 0.0721(2) 0.67345(12) 0.6750(5)
C11 C 0.0113(2) 0.77643(13) 0.8136(5)
H14 H -0.0345 0.7546 0.8977
C12 C 0.0095(2) 0.84608(13) 0.8259(6)
H15 H 0.0161 0.8587 0.9719
H16 H -0.0560 0.8610 0.7741
C13 C 0.0960(3) 0.87511(13) 0.6975(6)
C14 C 0.1049(3) 0.84157(14) 0.4886(6)
H17 H 0.1489 0.8638 0.3914
H18 H 0.0380 0.8356 0.4244
C15 C 0.2336(2) 0.80047(15) 0.7170(6)
C16 C 0.1981(3) 0.86107(14) 0.7995(6)
C17 C 0.2513(3) 0.89643(19) 0.9236(9)
H19 H 0.3166 0.8844 0.9670
H20 H 0.2242 0.9338 0.9690
C18 C 0.3190(2) 0.56949(14) 0.6430(6)
H21 H 0.3456 0.5800 0.5049
H22 H 0.3503 0.5971 0.7447
C19 C 0.1555(3) 0.53909(14) 0.4692(6)
H23 H 0.1783 0.4973 0.4861
H24 H 0.1775 0.5544 0.3346
H25 H 0.0819 0.5405 0.4773
C20 C -0.0078(3) 0.65672(15) 0.5039(6)
H26 H -0.0176 0.6129 0.5013
H27 H 0.0164 0.6703 0.3688
H28 H -0.0719 0.6766 0.5353
O4 O 0.5000 0.5000 0.9858(6)
H29 H 0.450(3) 0.5067(19) 0.903(6)
H29A H 0.550(3) 0.4933(19) 0.903(6)
loop_
_geom_bond_atom_site_label_1
_geom_bond_atom_site_label_2
_geom_bond_site_symmetry_1
_geom_bond_site_symmetry_2
O1 H1 1_555 1_555
O2 H2 1_555 1_555
O3 C15 1_555 1_555
C1 H3 1_555 1_555
H4 C1 1_555 1_555
C2 C1 1_555 1_555
H5 C2 1_555 1_555
H6 C2 1_555 1_555
C3 C2 1_555 1_555
H7 C3 1_555 1_555
H8 C3 1_555 1_555
C4 C3 1_555 1_555
C5 C4 1_555 1_555
H9 C5 1_555 1_555
C6 C5 1_555 1_555
H10 C6 1_555 1_555
H11 C6 1_555 1_555
C7 C6 1_555 1_555
H12 C7 1_555 1_555
H13 C7 1_555 1_555
C8 C7 1_555 1_555
C9 C8 1_555 1_555
C10 C1 1_555 1_555
C11 C9 1_555 1_555
H14 C11 1_555 1_555
C12 C11 1_555 1_555
H15 C12 1_555 1_555
H16 C12 1_555 1_555
C13 O2 1_555 1_555
C14 C8 1_555 1_555
H17 C14 1_555 1_555
H18 C14 1_555 1_555
C15 C8 1_555 1_555
C16 C13 1_555 1_555
C17 C16 1_555 1_555
H19 C17 1_555 1_555
H20 C17 1_555 1_555
C18 O1 1_555 1_555
H21 C18 1_555 1_555
H22 C18 1_555 1_555
C19 C4 1_555 1_555
H23 C19 1_555 1_555
H24 C19 1_555 1_555
H25 C19 1_555 1_555
C20 C10 1_555 1_555
H26 C20 1_555 1_555
H27 C20 1_555 1_555
H28 C20 1_555 1_555
O4 H29 1_555 1_555
H29A O4 1_555 1_555
C4 C18 1_555 1_555
C5 C10 1_555 1_555
C9 C10 1_555 1_555
C12 C13 1_555 1_555
C13 C14 1_555 1_555
C15 C16 1_555 1_555

#END
