
#######################################################################
#
#                 Cambridge Crystallographic Data Centre
#                                CCDC 
#
#######################################################################
#
# If this CIF has been generated from an entry in the Cambridge 
# Structural Database, then it will include bibliographic, chemical, 
# crystal, experimental, refinement or atomic coordinate data resulting 
# from the CCDC's data processing and validation procedures.
#
#######################################################################

data_WUNHUK
_chemical_formula_moiety         'C13 H22 N2 O2'
_chemical_name_systematic        
4-((6-methoxypyridin-3-yl)amino)-2,4-dimethylpentan-2-ol
_symmetry_cell_setting           triclinic
_symmetry_space_group_name_H-M   'P -1'
_symmetry_Int_Tables_number      2
_space_group_name_Hall           '-P 1'
loop_
_symmetry_equiv_pos_site_id
_symmetry_equiv_pos_as_xyz
1 x,y,z
2 -x,-y,-z
_cell_length_a                   6.5477(5)
_cell_length_b                   9.1126(7)
_cell_length_c                   11.2278(9)
_cell_angle_alpha                101.638(3)
_cell_angle_beta                 97.238(3)
_cell_angle_gamma                93.239(3)
_cell_volume                     648.606
_exptl_crystal_colour            colorless
_exptl_crystal_description       block
_cell_formula_units_Z            2
loop_
_atom_site_label
_atom_site_type_symbol
_atom_site_fract_x
_atom_site_fract_y
_atom_site_fract_z
O1 O 0.19444(16) 1.17417(11) 0.41324(10)
O2 O 0.24705(16) 0.38197(11) -0.03178(9)
H1 H 0.361(3) 0.3718(18) -0.0699(15)
N1 N 0.09368(19) 0.93802(13) 0.29124(11)
N2 N 0.4071(2) 0.62841(14) 0.16821(12)
C1 C -0.0201(2) 1.19086(18) 0.42125(15)
H2 H -0.0976 1.1731 0.3384
H3 H -0.0365 1.2930 0.4652
H4 H -0.0729 1.1179 0.4656
C2 C 0.2431(2) 1.03994(16) 0.34935(13)
C3 C 0.1531(2) 0.80568(16) 0.23266(14)
H5 H 0.0480 0.7303 0.1905
C4 C 0.3563(2) 0.77302(16) 0.23018(13)
C5 C 0.4526(2) 0.51645(16) 0.24784(14)
C6 C 0.4438(2) 0.35921(16) 0.16282(14)
H6 H 0.5682 0.3581 0.1209
H7 H 0.4603 0.2861 0.2170
C7 C 0.2591(2) 0.29507(16) 0.06273(13)
C8 C 0.6738(2) 0.55353(17) 0.31487(14)
H8 H 0.7694 0.5573 0.2548
H9 H 0.7099 0.4757 0.3608
H10 H 0.6837 0.6513 0.3719
C9 C 0.2955(3) 0.13275(17) 0.00686(15)
H11 H 0.1885 0.0928 -0.0633
H12 H 0.2896 0.0713 0.0688
H13 H 0.4317 0.1302 -0.0207
C10 C 0.0485(2) 0.29861(18) 0.10621(15)
H14 H 0.0107 0.4025 0.1236
H15 H 0.0538 0.2583 0.1810
H16 H -0.0547 0.2373 0.0420
C11 C 0.3077(2) 0.52157(17) 0.34597(14)
H17 H 0.3377 0.6167 0.4064
H18 H 0.3290 0.4375 0.3872
H19 H 0.1639 0.5138 0.3068
C12 C 0.5100(2) 0.88626(17) 0.28928(14)
H20 H 0.6518 0.8703 0.2876
C13 C 0.4527(2) 1.02115(17) 0.34999(14)
H21 H 0.5540 1.0997 0.3914
H22 H 0.309(3) 0.5880(19) 0.1086(16)
loop_
_geom_bond_atom_site_label_1
_geom_bond_atom_site_label_2
_geom_bond_site_symmetry_1
_geom_bond_site_symmetry_2
O1 C1 1_555 1_555
O2 H1 1_555 1_555
N1 C2 1_555 1_555
N2 C4 1_555 1_555
C1 H2 1_555 1_555
H3 C1 1_555 1_555
H4 C1 1_555 1_555
C2 O1 1_555 1_555
C3 N1 1_555 1_555
H5 C3 1_555 1_555
C4 C3 1_555 1_555
C5 N2 1_555 1_555
C6 C5 1_555 1_555
H6 C6 1_555 1_555
H7 C6 1_555 1_555
C7 O2 1_555 1_555
C8 C5 1_555 1_555
H8 C8 1_555 1_555
H9 C8 1_555 1_555
H10 C8 1_555 1_555
C9 C7 1_555 1_555
H11 C9 1_555 1_555
H12 C9 1_555 1_555
H13 C9 1_555 1_555
C10 C7 1_555 1_555
H14 C10 1_555 1_555
H15 C10 1_555 1_555
H16 C10 1_555 1_555
C11 C5 1_555 1_555
H17 C11 1_555 1_555
H18 C11 1_555 1_555
H19 C11 1_555 1_555
C12 C4 1_555 1_555
H20 C12 1_555 1_555
C13 C2 1_555 1_555
H21 C13 1_555 1_555
H22 N2 1_555 1_555
C6 C7 1_555 1_555
C12 C13 1_555 1_555

#END
