
#######################################################################
#
#                 Cambridge Crystallographic Data Centre
#                                CCDC 
#
#######################################################################
#
# If this CIF has been generated from an entry in the Cambridge 
# Structural Database, then it will include bibliographic, chemical, 
# crystal, experimental, refinement or atomic coordinate data resulting 
# from the CCDC's data processing and validation procedures.
#
#######################################################################

data_WUNWAF
_chemical_formula_moiety         'C1 H12 B11 1-,0.5(H12 Mg1 O6 2+),0.75(H2 O1)'
_chemical_name_systematic        
'bis(1-carba-closo-dodecaborate(12)) hemikis(hexa-aqua-magnesium(ii)) sesquihydrate'
_symmetry_cell_setting           triclinic
_symmetry_space_group_name_H-M   'P -1'
_symmetry_Int_Tables_number      2
_space_group_name_Hall           '-P 1'
loop_
_symmetry_equiv_pos_site_id
_symmetry_equiv_pos_as_xyz
1 x,y,z
2 -x,-y,-z
_cell_length_a                   10.2650(4)
_cell_length_b                   11.9726(2)
_cell_length_c                   12.3503(5)
_cell_angle_alpha                64.124(6)
_cell_angle_beta                 65.480(4)
_cell_angle_gamma                78.322(5)
_cell_volume                     1242.08
_exptl_crystal_colour            colorless
_exptl_crystal_description       needle
_cell_formula_units_Z            4
_exptl_crystal_recrystallization_method Water
loop_
_atom_site_label
_atom_site_type_symbol
_atom_site_fract_x
_atom_site_fract_y
_atom_site_fract_z
H13 H 0.1862(18) 0.0683(15) 0.8919(16)
H14 H 0.0059(17) -0.0256(15) 0.8431(15)
H15 H -0.0899(18) 0.1453(16) 0.9557(17)
H16 H 0.1223(17) 0.3128(14) 0.8716(15)
H17 H 0.3638(17) 0.2489(14) 0.6804(15)
H18 H 0.2896(17) 0.0415(15) 0.6647(15)
H19 H 0.0531(17) 0.1187(15) 0.5648(16)
H20 H -0.1924(18) 0.1821(15) 0.7629(16)
H21 H -0.1159(19) 0.3965(16) 0.7782(17)
H22 H 0.1766(17) 0.4595(15) 0.5882(16)
H23 H 0.2875(17) 0.2947(14) 0.4569(15)
H24 H -0.0144(17) 0.3827(14) 0.5192(15)
B12 B 0.03506(16) 0.07162(13) 0.78869(13)
B13 B -0.02656(15) 0.17744(13) 0.86390(13)
B14 B 0.10829(14) 0.28177(12) 0.80512(13)
B15 B 0.25866(14) 0.24237(12) 0.68732(12)
B16 B 0.21316(15) 0.11224(12) 0.67696(13)
B17 B 0.06871(15) 0.15850(12) 0.62107(13)
B18 B -0.08134(14) 0.19806(13) 0.73937(13)
B19 B -0.03630(14) 0.32862(13) 0.74919(13)
B20 B 0.14233(13) 0.36807(12) 0.63778(12)
B21 B 0.20714(14) 0.26405(11) 0.55833(12)
B22 B 0.02476(14) 0.31709(12) 0.59643(12)
C2 C 0.14795(14) 0.13014(12) 0.82178(12)
Mg1 Mg -0.25522(4) 0.29356(3) 0.36257(4)
O1 O -0.43333(9) 0.19016(9) 0.44242(9)
O2 O -0.12960(10) 0.13309(9) 0.38458(10)
O3 O -0.07066(9) 0.39136(8) 0.27502(10)
O4 O -0.36864(10) 0.45856(8) 0.34479(11)
O5 O -0.28275(10) 0.26592(9) 0.54698(9)
O6 O -0.22984(12) 0.31314(12) 0.17966(10)
H25 H -0.481(2) 0.176(2) 0.4084(19)
H26 H -0.4916(18) 0.1770(19) 0.5183(11)
H27 H -0.0408(10) 0.131(2) 0.351(2)
H28 H -0.158(2) 0.0612(12) 0.419(2)
H29 H -0.003(4) 0.403(5) 0.204(3)
H30 H -0.049(3) 0.428(2) 0.309(3)
H31 H -0.328(2) 0.5236(14) 0.321(2)
H32 H -0.4516(12) 0.4792(17) 0.345(2)
H33 H -0.307(2) 0.3204(14) 0.5789(19)
H34 H -0.234(2) 0.2105(15) 0.585(2)
H35 H -0.280(5) 0.377(3) 0.153(5)
H36 H -0.229(5) 0.272(4) 0.139(4)
O7 O -0.36711(9) 0.44254(8) 0.66455(8)
H37 H -0.370(2) 0.4125(18) 0.7410(11)
H38 H -0.3041(19) 0.4962(16) 0.6259(18)
O8 O 0.0228(3) 0.5054(3) 0.0014(3)
H39 H -0.0514(17) 0.5551(16) 0.016(2)
O8A O -0.0228(3) 0.4946(3) -0.0014(3)
H39A H 0.0514(17) 0.4449(16) -0.016(2)
H1 H 0.5750(17) 0.1280(14) -0.0469(15)
H2 H 0.5972(18) 0.3613(16) -0.0647(17)
H3 H 0.6534(18) 0.1439(16) 0.1339(17)
H4 H 0.4735(17) -0.0451(15) 0.2016(15)
H5 H 0.3792(17) 0.3022(15) -0.1184(16)
H6 H 0.3038(17) 0.0599(15) 0.0465(16)
H7 H 0.2933(17) 0.4517(15) 0.0447(15)
H8 H 0.4708(16) 0.3501(14) 0.2068(15)
H9 H 0.3941(17) 0.0911(14) 0.3735(15)
H10 H 0.1746(17) 0.0282(15) 0.3153(16)
H11 H 0.1132(16) 0.2487(13) 0.1121(14)
H12 H 0.1744(16) 0.2779(14) 0.3153(15)
B1 B 0.50939(14) 0.30469(13) 0.01241(13)
B2 B 0.54552(14) 0.16905(13) 0.13655(13)
B3 B 0.43397(14) 0.04932(12) 0.17877(13)
B4 B 0.37526(14) 0.26825(12) -0.02204(13)
B5 B 0.32936(14) 0.11264(12) 0.08164(13)
B6 B 0.32863(14) 0.35323(12) 0.07668(13)
B7 B 0.43462(14) 0.29175(12) 0.17516(13)
B8 B 0.38788(14) 0.13353(12) 0.27817(12)
B9 B 0.25347(14) 0.09719(12) 0.24373(12)
B10 B 0.21698(14) 0.23256(12) 0.11915(12)
B11 B 0.25363(14) 0.24696(12) 0.24131(13)
C1 C 0.50055(13) 0.15789(11) 0.02223(12)
loop_
_geom_bond_atom_site_label_1
_geom_bond_atom_site_label_2
_geom_bond_site_symmetry_1
_geom_bond_site_symmetry_2
H1 C1 1_555 1_555
H2 B1 1_555 1_555
H3 B2 1_555 1_555
H4 B3 1_555 1_555
H5 B4 1_555 1_555
H6 B5 1_555 1_555
H7 B6 1_555 1_555
H8 B7 1_555 1_555
H9 B8 1_555 1_555
H10 B9 1_555 1_555
H11 B10 1_555 1_555
H12 B11 1_555 1_555
B1 B2 1_555 1_555
B2 B3 1_555 1_555
B3 B5 1_555 1_555
B4 B1 1_555 1_555
B5 B4 1_555 1_555
B6 B1 1_555 1_555
B7 B1 1_555 1_555
B8 B2 1_555 1_555
B9 B3 1_555 1_555
B10 B4 1_555 1_555
B11 B6 1_555 1_555
C1 B1 1_555 1_555
H13 C2 1_555 1_555
H14 B12 1_555 1_555
H15 B13 1_555 1_555
H16 B14 1_555 1_555
H17 B15 1_555 1_555
H18 B16 1_555 1_555
H19 B17 1_555 1_555
H20 B18 1_555 1_555
H21 B19 1_555 1_555
H22 B20 1_555 1_555
H23 B21 1_555 1_555
H24 B22 1_555 1_555
B12 B13 1_555 1_555
B13 B14 1_555 1_555
B14 B15 1_555 1_555
B15 B16 1_555 1_555
B16 B12 1_555 1_555
B17 B12 1_555 1_555
B18 B12 1_555 1_555
B19 B13 1_555 1_555
B20 B14 1_555 1_555
B21 B15 1_555 1_555
B22 B17 1_555 1_555
C2 B12 1_555 1_555
Mg1 O1 1_555 1_555
O1 H25 1_555 1_555
O2 Mg1 1_555 1_555
O3 Mg1 1_555 1_555
O4 Mg1 1_555 1_555
O5 Mg1 1_555 1_555
O6 Mg1 1_555 1_555
H26 O1 1_555 1_555
H27 O2 1_555 1_555
H28 O2 1_555 1_555
H29 O3 1_555 1_555
H30 O3 1_555 1_555
H31 O4 1_555 1_555
H32 O4 1_555 1_555
H33 O5 1_555 1_555
H34 O5 1_555 1_555
H35 O6 1_555 1_555
H36 O6 1_555 1_555
O7 H37 1_555 1_555
H38 O7 1_555 1_555
O8 H39 1_555 1_555
H39 O8A 1_555 1_555
O8A H39A 1_555 1_555
H39A O8 1_555 1_555
B2 B7 1_555 1_555
B2 C1 1_555 1_555
B3 B8 1_555 1_555
B3 C1 1_555 1_555
B4 B6 1_555 1_555
B4 C1 1_555 1_555
B5 B9 1_555 1_555
B5 B10 1_555 1_555
B5 C1 1_555 1_555
B6 B7 1_555 1_555
B6 B10 1_555 1_555
B7 B8 1_555 1_555
B7 B11 1_555 1_555
B8 B9 1_555 1_555
B8 B11 1_555 1_555
B9 B10 1_555 1_555
B9 B11 1_555 1_555
B10 B11 1_555 1_555
B13 B18 1_555 1_555
B13 C2 1_555 1_555
B14 B19 1_555 1_555
B14 C2 1_555 1_555
B15 B20 1_555 1_555
B15 C2 1_555 1_555
B16 B17 1_555 1_555
B16 B21 1_555 1_555
B16 C2 1_555 1_555
B17 B18 1_555 1_555
B17 B21 1_555 1_555
B18 B19 1_555 1_555
B18 B22 1_555 1_555
B19 B20 1_555 1_555
B19 B22 1_555 1_555
B20 B21 1_555 1_555
B20 B22 1_555 1_555
B21 B22 1_555 1_555

#END
