
#######################################################################
#
#                 Cambridge Crystallographic Data Centre
#                                CCDC 
#
#######################################################################
#
# If this CIF has been generated from an entry in the Cambridge 
# Structural Database, then it will include bibliographic, chemical, 
# crystal, experimental, refinement or atomic coordinate data resulting 
# from the CCDC's data processing and validation procedures.
#
#######################################################################

data_WUPKIC
_chemical_formula_moiety         'C22 H22 Cl1 F2 N1 O5 S2'
_chemical_name_systematic        
N-(10a-((4-Chlorophenyl)sulfonyl)-1,4-difluoro-6a,7,8,9,10,10a-hexahydro-6H-benzo[c]chromen-8-yl)cyclopropanesulfonamide
_symmetry_cell_setting           monoclinic
_symmetry_space_group_name_H-M   'C 2'
_symmetry_Int_Tables_number      5
_space_group_name_Hall           'C 2y'
loop_
_symmetry_equiv_pos_site_id
_symmetry_equiv_pos_as_xyz
1 x,y,z
2 -x,y,-z
3 1/2+x,1/2+y,z
4 1/2-x,1/2+y,-z
_cell_length_a                   40.310(3)
_cell_length_b                   7.443(1)
_cell_length_c                   7.760(1)
_cell_angle_alpha                90
_cell_angle_beta                 98.31(1)
_cell_angle_gamma                90
_cell_volume                     2303.77
_exptl_crystal_colour            colorless
_exptl_crystal_description       plate
_cell_formula_units_Z            4
loop_
_atom_site_label
_atom_site_type_symbol
_atom_site_fract_x
_atom_site_fract_y
_atom_site_fract_z
C1 C 0.29902(10) 0.0268(6) 0.1975(5)
C2 C 0.31139(10) 0.2173(6) 0.2252(6)
C3 C 0.33566(9) 0.2464(5) 0.3971(5)
C4 C 0.34737(11) 0.4404(6) 0.4015(6)
O1 O 0.36781(9) 0.4771(4) 0.2702(5)
C5 C 0.38969(10) 0.3482(6) 0.2345(5)
C6 C 0.41199(12) 0.4016(7) 0.1229(6)
C7 C 0.43534(12) 0.2869(9) 0.0720(6)
C8 C 0.43611(11) 0.1099(9) 0.1302(6)
C9 C 0.41424(11) 0.0580(7) 0.2390(6)
C10 C 0.39007(9) 0.1711(5) 0.2965(5)
C11 C 0.36506(9) 0.1105(5) 0.4132(5)
C12 C 0.35123(10) -0.0809(5) 0.3843(6)
C13 C 0.32884(10) -0.1008(5) 0.2073(5)
F1 F 0.40976(10) 0.5712(5) 0.0639(5)
F2 F 0.41621(8) -0.1151(5) 0.2940(5)
N1 N 0.27739(8) -0.0212(6) 0.3306(5)
S1 S 0.24213(2) -0.12373(14) 0.26963(13)
O2 O 0.24836(10) -0.2618(6) 0.1523(6)
O3 O 0.22902(8) -0.1703(5) 0.4257(5)
C14 C 0.21528(11) 0.0339(7) 0.1566(6)
C15 C 0.19870(16) 0.1674(9) 0.2601(9)
C16 C 0.17850(13) 0.0222(9) 0.1630(7)
S2 S 0.38492(3) 0.12565(15) 0.64517(13)
O4 O 0.39899(13) 0.3030(6) 0.6748(6)
O5 O 0.36081(10) 0.0663(7) 0.7494(5)
C17 C 0.41900(10) -0.0269(7) 0.6704(6)
C18 C 0.45078(13) 0.0395(9) 0.6571(7)
C19 C 0.47776(13) -0.0761(14) 0.6806(10)
C20 C 0.47172(17) -0.2551(14) 0.7138(10)
C21 C 0.44056(18) -0.3223(10) 0.7285(9)
C22 C 0.41382(12) -0.2034(8) 0.7077(7)
Cl1 Cl 0.50608(7) -0.3994(6) 0.7477(4)
H1 H 0.2859 0.0165 0.0843
H2 H 0.2923 0.2943 0.2265
H3 H 0.3229 0.2499 0.1297
H4 H 0.3244 0.2247 0.4961
H5 H 0.3601 0.4646 0.5135
H6 H 0.3281 0.5175 0.3837
H7 H 0.4509 0.3279 -0.0023
H8 H 0.4518 0.0257 0.0942
H9 H 0.3383 -0.1095 0.4751
H10 H 0.3697 -0.1631 0.3888
H11 H 0.3416 -0.0727 0.1157
H12 H 0.3209 -0.2222 0.1940
H13 H 0.2842 0.0081 0.4510
H14 H 0.2288 0.0398 0.0646
H15 H 0.1960 0.2897 0.2212
H16 H 0.2030 0.1647 0.3850
H17 H 0.1697 -0.0740 0.2254
H18 H 0.1628 0.0510 0.0616
H19 H 0.4539 0.1641 0.6319
H20 H 0.5001 -0.0339 0.6742
H21 H 0.4374 -0.4472 0.7523
H22 H 0.3917 -0.2448 0.7194
loop_
_geom_bond_atom_site_label_1
_geom_bond_atom_site_label_2
_geom_bond_site_symmetry_1
_geom_bond_site_symmetry_2
C1 C2 1_555 1_555
C2 C3 1_555 1_555
C3 C4 1_555 1_555
C4 O1 1_555 1_555
O1 C5 1_555 1_555
C5 C6 1_555 1_555
C6 C7 1_555 1_555
C7 C8 1_555 1_555
C8 C9 1_555 1_555
C9 C10 1_555 1_555
C10 C5 1_555 1_555
C11 C3 1_555 1_555
C12 C11 1_555 1_555
C13 C1 1_555 1_555
F1 C6 1_555 1_555
F2 C9 1_555 1_555
N1 C1 1_555 1_555
S1 N1 1_555 1_555
O2 S1 1_555 1_555
O3 S1 1_555 1_555
C14 S1 1_555 1_555
C15 C14 1_555 1_555
C16 C14 1_555 1_555
S2 C11 1_555 1_555
O4 S2 1_555 1_555
O5 S2 1_555 1_555
C17 S2 1_555 1_555
C18 C17 1_555 1_555
C19 C18 1_555 1_555
C20 C19 1_555 1_555
C21 C20 1_555 1_555
C22 C17 1_555 1_555
Cl1 C20 1_555 1_555
H1 C1 1_555 1_555
H2 C2 1_555 1_555
H3 C2 1_555 1_555
H4 C3 1_555 1_555
H5 C4 1_555 1_555
H6 C4 1_555 1_555
H7 C7 1_555 1_555
H8 C8 1_555 1_555
H9 C12 1_555 1_555
H10 C12 1_555 1_555
H11 C13 1_555 1_555
H12 C13 1_555 1_555
H13 N1 1_555 1_555
H14 C14 1_555 1_555
H15 C15 1_555 1_555
H16 C15 1_555 1_555
H17 C16 1_555 1_555
H18 C16 1_555 1_555
H19 C18 1_555 1_555
H20 C19 1_555 1_555
H21 C21 1_555 1_555
H22 C22 1_555 1_555
C10 C11 1_555 1_555
C12 C13 1_555 1_555
C15 C16 1_555 1_555
C21 C22 1_555 1_555

#END
