
#######################################################################
#
#                 Cambridge Crystallographic Data Centre
#                                CCDC 
#
#######################################################################
#
# If this CIF has been generated from an entry in the Cambridge 
# Structural Database, then it will include bibliographic, chemical, 
# crystal, experimental, refinement or atomic coordinate data resulting 
# from the CCDC's data processing and validation procedures.
#
#######################################################################

data_WUQROP
_chemical_formula_moiety         'C20 H19 N2 1+,I1 1-,0.6(C1 H2 Cl2),0.4(H2 O1)'
_chemical_name_systematic        
'1-(9-Anthracenylmethyl)-3-ethylimidazolium iodide dichloromethane solvate hydrate'
_symmetry_cell_setting           triclinic
_symmetry_space_group_name_H-M   'P -1'
_symmetry_Int_Tables_number      2
_space_group_name_Hall           '-P 1'
loop_
_symmetry_equiv_pos_site_id
_symmetry_equiv_pos_as_xyz
1 x,y,z
2 -x,-y,-z
_cell_length_a                   11.299(16)
_cell_length_b                   11.826(16)
_cell_length_c                   15.67(2)
_cell_angle_alpha                70.15(2)
_cell_angle_beta                 78.05(3)
_cell_angle_gamma                81.23(3)
_cell_volume                     1919.07
_exptl_crystal_colour            yellow
_chemical_melting_point          196-198deg.C
_cell_formula_units_Z            4
_exptl_crystal_recrystallization_method dichloromethane/acetone
loop_
_atom_site_label
_atom_site_type_symbol
_atom_site_fract_x
_atom_site_fract_y
_atom_site_fract_z
I1 I -0.00163(8) 0.71482(7) 0.45513(6)
I2 I 0.43171(7) 0.14696(7) 0.67064(6)
N1 N 0.7518(8) 0.5180(7) 0.3858(6)
N2 N 0.6844(10) 0.4425(10) 0.5307(7)
C1 C 0.7437(11) 0.5602(9) 0.1680(7)
C2 C 0.6333(11) 0.6332(9) 0.1775(8)
H1 H 0.6161 0.6697 0.2233
C3 C 0.5527(11) 0.6502(10) 0.1202(10)
H2 H 0.4808 0.6984 0.1279
C4 C 0.5733(14) 0.5983(12) 0.0508(9)
H3 H 0.5155 0.6120 0.0130
C5 C 0.6733(13) 0.5305(12) 0.0382(8)
H4 H 0.6874 0.4953 -0.0082
C6 C 0.7601(11) 0.5113(10) 0.0963(8)
C7 C 0.8633(12) 0.4403(10) 0.0837(7)
H5 H 0.8744 0.4060 0.0370
C8 C 0.9558(11) 0.4154(9) 0.1385(8)
C9 C 1.0667(12) 0.3449(9) 0.1225(8)
H6 H 1.0827 0.3163 0.0725
C10 C 1.1488(12) 0.3191(11) 0.1793(11)
H7 H 1.2204 0.2713 0.1695
C11 C 1.1252(13) 0.3654(12) 0.2541(10)
H8 H 1.1824 0.3483 0.2927
C12 C 1.0232(11) 0.4327(10) 0.2704(8)
H9 H 1.0097 0.4597 0.3212
C13 C 0.9354(11) 0.4641(9) 0.2128(7)
C14 C 0.8321(10) 0.5361(9) 0.2263(7)
C15 C 0.8121(9) 0.5926(8) 0.3000(6)
H10 H 0.8899 0.6086 0.3084
H11 H 0.7638 0.6693 0.2811
C16 C 0.6691(12) 0.4382(11) 0.3992(9)
H12 H 0.6455 0.4189 0.3527
C17 C 0.6276(11) 0.3924(11) 0.4880(9)
H13 H 0.5703 0.3363 0.5152
C18 C 0.7613(11) 0.5197(11) 0.4669(10)
H14 H 0.8118 0.5656 0.4790
C19 C 0.6706(15) 0.4082(16) 0.6325(9)
H15 H 0.5856 0.3999 0.6589
H16 H 0.7153 0.3304 0.6556
C20 C 0.7094(18) 0.4865(19) 0.6591(11)
H17 H 0.7008 0.4590 0.7250
H18 H 0.6627 0.5627 0.6391
H19 H 0.7934 0.4955 0.6328
N3 N 0.1213(8) 0.9769(7) 0.6985(7)
N4 N 0.1954(8) 0.9399(9) 0.5717(6)
C21 C -0.0993(10) 0.9793(9) 0.8677(8)
C22 C -0.1664(12) 1.0451(10) 0.7987(9)
H20 H -0.1257 1.0851 0.7406
C23 C -0.2891(15) 1.0525(13) 0.8137(11)
H21 H -0.3318 1.1004 0.7673
C24 C -0.3523(13) 0.9873(14) 0.9000(14)
H22 H -0.4365 0.9897 0.9092
C25 C -0.2943(15) 0.9242(12) 0.9664(11)
H23 H -0.3375 0.8830 1.0232
C26 C -0.1657(11) 0.9171(10) 0.9537(9)
C27 C -0.1031(14) 0.8485(10) 1.0224(8)
H24 H -0.1468 0.8095 1.0796
C28 C 0.0199(15) 0.8347(11) 1.0110(10)
C29 C 0.094(2) 0.7585(12) 1.0796(9)
H25 H 0.0550 0.7144 1.1372
C30 C 0.2131(19) 0.7508(17) 1.0617(16)
H26 H 0.2571 0.7024 1.1072
C31 C 0.2724(16) 0.8113(14) 0.9790(12)
H27 H 0.3568 0.8058 0.9687
C32 C 0.2144(12) 0.8773(11) 0.9134(9)
H28 H 0.2596 0.9133 0.8561
C33 C 0.0870(11) 0.8978(10) 0.9233(8)
C34 C 0.0223(10) 0.9686(9) 0.8553(7)
C35 C 0.0909(10) 1.0404(9) 0.7675(7)
H29 H 0.0430 1.1158 0.7430
H30 H 0.1653 1.0597 0.7791
C36 C 0.0743(12) 0.8761(10) 0.7011(9)
H31 H 0.0198 0.8312 0.7492
C37 C 0.1210(13) 0.8530(11) 0.6216(10)
H32 H 0.1050 0.7896 0.6044
C38 C 0.1929(11) 1.0167(10) 0.6181(9)
H33 H 0.2341 1.0859 0.5976
C39 C 0.2621(13) 0.9550(12) 0.4786(10)
H34 H 0.3432 0.9755 0.4755
H35 H 0.2705 0.8783 0.4672
C40 C 0.2087(16) 1.0433(16) 0.4084(10)
H36 H 0.2572 1.0460 0.3498
H37 H 0.2036 1.1205 0.4171
H38 H 0.1286 1.0236 0.4103
C41 C 0.540(2) 0.1902(15) 0.2878(8)
Cl1 Cl 0.4934(6) 0.1992(5) 0.3958(4)
Cl2 Cl 0.501(2) 0.3218(12) 0.2075(12)
O1 O 0.588(3) 0.270(3) 0.238(2)
Cl3? Cl 0.4583(14) 0.2608(16) 0.2010(11)
loop_
_geom_bond_atom_site_label_1
_geom_bond_atom_site_label_2
_geom_bond_site_symmetry_1
_geom_bond_site_symmetry_2
N1 C15 1_555 1_555
N2 C17 1_555 1_555
N3 C35 1_555 1_555
N4 C37 1_555 1_555
C1 C2 1_555 1_555
C2 H1 1_555 1_555
C3 C2 1_555 1_555
H2 C3 1_555 1_555
C4 C3 1_555 1_555
H3 C4 1_555 1_555
C5 C4 1_555 1_555
H4 C5 1_555 1_555
C6 C1 1_555 1_555
C7 C6 1_555 1_555
H5 C7 1_555 1_555
C8 C7 1_555 1_555
C9 C8 1_555 1_555
H6 C9 1_555 1_555
C10 C9 1_555 1_555
H7 C10 1_555 1_555
C11 C10 1_555 1_555
H8 C11 1_555 1_555
C12 C11 1_555 1_555
H9 C12 1_555 1_555
C13 C8 1_555 1_555
C14 C1 1_555 1_555
C15 C14 1_555 1_555
H10 C15 1_555 1_555
H11 C15 1_555 1_555
C16 N1 1_555 1_555
H12 C16 1_555 1_555
C17 C16 1_555 1_555
H13 C17 1_555 1_555
C18 N1 1_555 1_555
H14 C18 1_555 1_555
C19 N2 1_555 1_555
H15 C19 1_555 1_555
H16 C19 1_555 1_555
C20 C19 1_555 1_555
H17 C20 1_555 1_555
H18 C20 1_555 1_555
H19 C20 1_555 1_555
C21 C22 1_555 1_555
C22 H20 1_555 1_555
C23 C22 1_555 1_555
H21 C23 1_555 1_555
C24 C23 1_555 1_555
H22 C24 1_555 1_555
C25 C24 1_555 1_555
H23 C25 1_555 1_555
C26 C21 1_555 1_555
C27 C26 1_555 1_555
H24 C27 1_555 1_555
C28 C27 1_555 1_555
C29 C28 1_555 1_555
H25 C29 1_555 1_555
C30 C29 1_555 1_555
H26 C30 1_555 1_555
C31 C30 1_555 1_555
H27 C31 1_555 1_555
C32 C31 1_555 1_555
H28 C32 1_555 1_555
C33 C28 1_555 1_555
C34 C21 1_555 1_555
C35 C34 1_555 1_555
H29 C35 1_555 1_555
H30 C35 1_555 1_555
C36 N3 1_555 1_555
H31 C36 1_555 1_555
C37 C36 1_555 1_555
H32 C37 1_555 1_555
C38 N3 1_555 1_555
H33 C38 1_555 1_555
C39 N4 1_555 1_555
H34 C39 1_555 1_555
H35 C39 1_555 1_555
C40 C39 1_555 1_555
H36 C40 1_555 1_555
H37 C40 1_555 1_555
H38 C40 1_555 1_555
C41 Cl1 1_555 1_555
Cl2 C41 1_555 1_555
N2 C18 1_555 1_555
N4 C38 1_555 1_555
C5 C6 1_555 1_555
C12 C13 1_555 1_555
C13 C14 1_555 1_555
C25 C26 1_555 1_555
C32 C33 1_555 1_555
C33 C34 1_555 1_555

#END
