
#######################################################################
#
#                 Cambridge Crystallographic Data Centre
#                                CCDC 
#
#######################################################################
#
# If this CIF has been generated from an entry in the Cambridge 
# Structural Database, then it will include bibliographic, chemical, 
# crystal, experimental, refinement or atomic coordinate data resulting 
# from the CCDC's data processing and validation procedures.
#
#######################################################################

data_WURBER
_chemical_formula_moiety         'C20 H18 N2 O2 S1'
_chemical_name_systematic        
5-(Dimethylamino)-N-(4-ethynylphenyl)naphthalene-1-sulfonamide
_chemical_properties_biological  
'cytotoxic activity; anti-tumour (anti-cancer) activity; two-photon induced bio-imaging agent'
_symmetry_cell_setting           monoclinic
_symmetry_space_group_name_H-M   'C c'
_symmetry_Int_Tables_number      9
_space_group_name_Hall           'C -2yc'
loop_
_symmetry_equiv_pos_site_id
_symmetry_equiv_pos_as_xyz
1 x,y,z
2 x,-y,1/2+z
3 1/2+x,1/2+y,z
4 1/2+x,1/2-y,1/2+z
_cell_length_a                   8.5113(5)
_cell_length_b                   23.0131(15)
_cell_length_c                   9.8663(6)
_cell_angle_alpha                90
_cell_angle_beta                 115.160(1)
_cell_angle_gamma                90
_cell_volume                     1749.18
_exptl_crystal_colour            yellow
_exptl_crystal_description       block
_cell_formula_units_Z            4
loop_
_atom_site_label
_atom_site_type_symbol
_atom_site_fract_x
_atom_site_fract_y
_atom_site_fract_z
C1 C -0.1029(3) 0.02593(9) 1.0331(3)
H1 H -0.0952 0.0265 0.9368
H2 H -0.1847 -0.0043 1.0315
H3 H 0.0118 0.0178 1.1136
C2 C -0.1780(3) 0.08378(9) 1.2004(3)
H4 H -0.2190 0.1221 1.2142
H5 H -0.0640 0.0761 1.2826
H6 H -0.2605 0.0540 1.1999
C3 C -0.0883(2) 0.13143(7) 1.0246(2)
C4 C 0.0055(3) 0.17255(8) 1.1294(2)
H7 H 0.0149 0.1699 1.2287
C5 C 0.0869(3) 0.21820(8) 1.0902(2)
H8 H 0.1487 0.2466 1.1635
C6 C 0.0803(3) 0.22325(7) 0.9490(2)
H9 H 0.1442 0.2529 0.9277
C7 C -0.0231(2) 0.18368(7) 0.83497(19)
C8 C -0.1148(2) 0.13905(6) 0.8720(2)
C9 C -0.2401(2) 0.10559(8) 0.7549(2)
H10 H -0.3078 0.0780 0.7784
C10 C -0.2658(2) 0.11206(8) 0.6098(2)
H11 H -0.3531 0.0901 0.5331
C11 C -0.1627(2) 0.15134(7) 0.5736(2)
H12 H -0.1738 0.1535 0.4738
C12 C -0.0460(2) 0.18667(7) 0.68250(19)
C13 C 0.3118(2) 0.14784(7) 0.7138(2)
C14 C 0.2722(2) 0.11830(7) 0.5800(2)
H13 H 0.2297 0.1389 0.4878
C15 C 0.2953(2) 0.05837(8) 0.5826(2)
H14 H 0.2659 0.0379 0.4915
C16 C 0.3617(2) 0.02803(7) 0.7186(2)
C17 C 0.4062(2) 0.05901(7) 0.8520(2)
H15 H 0.4551 0.0390 0.9450
C18 C 0.3797(2) 0.11865(7) 0.8497(2)
H16 H 0.4078 0.1393 0.9405
C19 C 0.3822(2) -0.03422(8) 0.7208(2)
C20 C 0.3960(3) -0.08541(9) 0.7206(3)
N1 N -0.1637(2) 0.08246(7) 1.0591(2)
N2 N 0.28011(19) 0.20911(6) 0.71201(17)
O1 O 0.02245(18) 0.22581(5) 0.46832(15)
O2 O 0.08496(18) 0.29138(5) 0.68342(17)
S1 S 0.08116(5) 0.233344(15) 0.62783(4)
H17 H 0.332(3) 0.2281(10) 0.791(3)
H18 H 0.400(4) -0.1203(12) 0.719(3)
loop_
_geom_bond_atom_site_label_1
_geom_bond_atom_site_label_2
_geom_bond_site_symmetry_1
_geom_bond_site_symmetry_2
C1 H1 1_555 1_555
H2 C1 1_555 1_555
H3 C1 1_555 1_555
C2 H4 1_555 1_555
H5 C2 1_555 1_555
H6 C2 1_555 1_555
C3 C4 1_555 1_555
C4 H7 1_555 1_555
C5 C4 1_555 1_555
H8 C5 1_555 1_555
C6 C5 1_555 1_555
H9 C6 1_555 1_555
C7 C6 1_555 1_555
C8 C3 1_555 1_555
C9 C8 1_555 1_555
H10 C9 1_555 1_555
C10 C9 1_555 1_555
H11 C10 1_555 1_555
C11 C10 1_555 1_555
H12 C11 1_555 1_555
C12 C7 1_555 1_555
C13 C14 1_555 1_555
C14 H13 1_555 1_555
C15 C14 1_555 1_555
H14 C15 1_555 1_555
C16 C15 1_555 1_555
C17 C16 1_555 1_555
H15 C17 1_555 1_555
C18 C13 1_555 1_555
H16 C18 1_555 1_555
C19 C16 1_555 1_555
C20 C19 1_555 1_555
N1 C1 1_555 1_555
N2 C13 1_555 1_555
O1 S1 1_555 1_555
O2 S1 1_555 1_555
S1 C12 1_555 1_555
H17 N2 1_555 1_555
H18 C20 1_555 1_555
C2 N1 1_555 1_555
C3 N1 1_555 1_555
C7 C8 1_555 1_555
C11 C12 1_555 1_555
C17 C18 1_555 1_555
N2 S1 1_555 1_555

#END
