
#######################################################################
#
#                 Cambridge Crystallographic Data Centre
#                                CCDC 
#
#######################################################################
#
# If this CIF has been generated from an entry in the Cambridge 
# Structural Database, then it will include bibliographic, chemical, 
# crystal, experimental, refinement or atomic coordinate data resulting 
# from the CCDC's data processing and validation procedures.
#
#######################################################################

data_WURLIG
_chemical_name_common            1-(2-pyridyl)-3,4,5-triphenyl-1H-pyrazole
_chemical_formula_moiety         'C26 H19 N3'
_chemical_name_systematic        2-(3,4,5-triphenyl-1H-pyrazol-1-yl)pyridine
_symmetry_cell_setting           monoclinic
_symmetry_space_group_name_H-M   'P 21'
_symmetry_Int_Tables_number      4
_space_group_name_Hall           'P 2yb'
loop_
_symmetry_equiv_pos_site_id
_symmetry_equiv_pos_as_xyz
1 x,y,z
2 -x,1/2+y,-z
_cell_length_a                   9.7331(3)
_cell_length_b                   9.7771(3)
_cell_length_c                   10.5392(3)
_cell_angle_alpha                90
_cell_angle_beta                 90.204(2)
_cell_angle_gamma                90
_cell_volume                     1002.92
_exptl_crystal_colour            colorless
_exptl_crystal_description       plate
_chemical_melting_point          '447.15 K'
_cell_formula_units_Z            2
_exptl_crystal_recrystallization_method 'vapour deposition'
loop_
_atom_site_label
_atom_site_type_symbol
_atom_site_fract_x
_atom_site_fract_y
_atom_site_fract_z
C1 C -0.1611(3) -0.2708(3) -0.2401(2)
N1 N -0.2506(2) -0.2090(3) -0.3181(2)
C2 C 0.0237(4) -0.2992(4) -0.3946(3)
N2 N -0.3403(2) -0.1470(3) -0.2396(2)
C3 C -0.1119(3) -0.3052(3) -0.0046(3)
C4 C -0.3875(3) -0.1127(3) -0.0049(2)
C5 C -0.4470(3) -0.0639(3) -0.2979(3)
C6 C -0.0532(3) -0.3546(3) -0.2988(3)
C7 C -0.5396(4) 0.0037(4) 0.1902(3)
C8 C 0.0400(4) -0.4221(4) 0.1923(4)
C9 C -0.1914(3) -0.2494(3) -0.1126(2)
C10 C 0.0297(3) -0.2866(4) 0.0032(3)
C11 C -0.3084(3) -0.1685(3) -0.1130(2)
C12 C -0.3239(4) -0.0370(3) 0.0889(3)
C13 C -0.1757(4) -0.3811(3) 0.0898(3)
C14 C -0.5293(3) -0.1318(4) 0.0017(3)
C15 C -0.5252(4) -0.1178(4) -0.3943(3)
C16 C -0.4007(4) 0.0220(4) 0.1853(3)
C17 C -0.0989(5) -0.4386(4) 0.1862(4)
C18 C 0.1043(4) -0.3444(5) 0.1008(4)
C19 C -0.6035(4) -0.0740(4) 0.0998(4)
C20 C -0.0355(5) -0.4850(4) -0.2607(4)
C21 C -0.6204(4) -0.0351(5) -0.4534(4)
C22 C 0.1218(4) -0.3802(5) -0.4553(4)
N3 N -0.4600(4) 0.0673(3) -0.2573(4)
C23 C -0.6371(5) 0.0975(5) -0.4161(5)
C24 C 0.1387(5) -0.5140(5) -0.4182(4)
C25 C 0.0604(5) -0.5643(5) -0.3215(5)
C26 C -0.5572(5) 0.1464(5) -0.3184(5)
H1 H 0.010(3) -0.196(4) -0.423(3)
H2 H 0.082(6) -0.648(8) -0.300(6)
H3 H 0.225(5) -0.574(5) -0.464(5)
H4 H 0.174(4) -0.337(5) -0.525(4)
H5 H -0.075(5) -0.512(5) -0.211(5)
H6 H 0.097(4) -0.463(4) 0.265(4)
H7 H -0.143(4) -0.490(5) 0.248(4)
H8 H 0.208(5) -0.332(5) 0.111(4)
H9 H 0.067(4) -0.236(5) -0.063(4)
H10 H -0.274(5) -0.397(5) 0.083(5)
H11 H -0.353(4) 0.077(4) 0.252(4)
H12 H -0.573(3) -0.183(4) -0.066(3)
H13 H -0.233(4) -0.023(4) 0.086(3)
H14 H -0.585(4) 0.061(5) 0.258(4)
H15 H -0.720(7) -0.078(7) 0.096(6)
H16 H -0.512(3) -0.214(4) -0.418(3)
H17 H -0.703(5) 0.156(5) -0.462(4)
H18 H -0.572(5) 0.243(7) -0.293(5)
H19 H -0.682(5) -0.075(5) -0.512(4)
loop_
_geom_bond_atom_site_label_1
_geom_bond_atom_site_label_2
_geom_bond_site_symmetry_1
_geom_bond_site_symmetry_2
C1 N1 1_555 1_555
N1 N2 1_555 1_555
C2 C6 1_555 1_555
N2 C5 1_555 1_555
C3 C9 1_555 1_555
C4 C11 1_555 1_555
C5 C15 1_555 1_555
C6 C1 1_555 1_555
C7 C16 1_555 1_555
C8 C17 1_555 1_555
C9 C1 1_555 1_555
C10 C3 1_555 1_555
C11 N2 1_555 1_555
C12 C4 1_555 1_555
C13 C3 1_555 1_555
C14 C4 1_555 1_555
C15 C21 1_555 1_555
C16 C12 1_555 1_555
C17 C13 1_555 1_555
C18 C8 1_555 1_555
C19 C7 1_555 1_555
C20 C6 1_555 1_555
C21 C23 1_555 1_555
C22 C2 1_555 1_555
N3 C5 1_555 1_555
C23 C26 1_555 1_555
C24 C22 1_555 1_555
C25 C20 1_555 1_555
C26 N3 1_555 1_555
H1 C2 1_555 1_555
H2 C25 1_555 1_555
H3 C24 1_555 1_555
H4 C22 1_555 1_555
H5 C20 1_555 1_555
H6 C8 1_555 1_555
H7 C17 1_555 1_555
H8 C18 1_555 1_555
H9 C10 1_555 1_555
H10 C13 1_555 1_555
H11 C16 1_555 1_555
H12 C14 1_555 1_555
H13 C12 1_555 1_555
H14 C7 1_555 1_555
H15 C19 1_555 1_555
H16 C15 1_555 1_555
H17 C23 1_555 1_555
H18 C26 1_555 1_555
H19 C21 1_555 1_555
C9 C11 1_555 1_555
C10 C18 1_555 1_555
C14 C19 1_555 1_555
C24 C25 1_555 1_555

#END
