
#######################################################################
#
#                 Cambridge Crystallographic Data Centre
#                                CCDC 
#
#######################################################################
#
# If this CIF has been generated from an entry in the Cambridge 
# Structural Database, then it will include bibliographic, chemical, 
# crystal, experimental, refinement or atomic coordinate data resulting 
# from the CCDC's data processing and validation procedures.
#
#######################################################################

data_WURVEL
_chemical_formula_moiety         'C27 H29 N3 O6'
_chemical_name_systematic        
17,20,23,26-Tetraoxa-3,7,11-triazatetracyclo[25.2.2.2^13,16^.1^5,9^]tetratriaconta-1(29),5(34),6,8,13,15,27,30,32-nonaene-4,10-dione
_symmetry_cell_setting           monoclinic
_symmetry_space_group_name_H-M   'P 21/c'
_symmetry_Int_Tables_number      14
_space_group_name_Hall           '-P 2ybc'
loop_
_symmetry_equiv_pos_site_id
_symmetry_equiv_pos_as_xyz
1 x,y,z
2 -x,1/2+y,1/2-z
3 -x,-y,-z
4 x,1/2-y,1/2+z
_cell_length_a                   12.3749(14)
_cell_length_b                   21.444(2)
_cell_length_c                   9.7237(11)
_cell_angle_alpha                90
_cell_angle_beta                 93.946(2)
_cell_angle_gamma                90
_cell_volume                     2574.24
_exptl_crystal_colour            colorless
_exptl_crystal_description       block
_chemical_melting_point          '241.1-244.0 deg.C'
_cell_formula_units_Z            4
loop_
_atom_site_label
_atom_site_type_symbol
_atom_site_fract_x
_atom_site_fract_y
_atom_site_fract_z
C1 C 0.1231(2) 0.32738(10) 0.5904(2)
C2 C 0.0606(2) 0.29868(12) 0.6846(3)
H1 H 0.0925 0.2883 0.7710
C3 C -0.0470(2) 0.28495(13) 0.6549(3)
H2 H -0.0868 0.2655 0.7202
C4 C -0.0952(2) 0.30021(11) 0.5278(3)
C5 C -0.0364(3) 0.33180(11) 0.4348(3)
H3 H -0.0697 0.3445 0.3508
C6 C 0.0712(2) 0.34468(11) 0.4656(2)
H4 H 0.1101 0.3655 0.4012
C7 C 0.15004(19) -0.04494(10) 0.3545(2)
C8 C 0.0626(2) -0.07341(10) 0.4101(2)
H5 H 0.0749 -0.1027 0.4800
C9 C -0.0425(2) -0.05935(11) 0.3641(2)
H6 H -0.1001 -0.0790 0.4029
C10 C -0.0620(2) -0.01600(10) 0.2604(2)
C11 C 0.0241(2) 0.01265(11) 0.2043(2)
H7 H 0.0120 0.0419 0.1344
C12 C 0.1279(2) -0.00209(11) 0.2518(2)
H8 H 0.1853 0.0177 0.2129
C13 C -0.1896(2) 0.04190(14) 0.1154(2)
H9 H -0.1638 0.0275 0.0289
H10 H -0.1515 0.0801 0.1416
C14 C -0.3070(2) 0.05395(16) 0.0983(3)
H11 H -0.3229 0.0823 0.0219
H12 H -0.3458 0.0153 0.0789
C15 C -0.4243(2) 0.12280(12) 0.2058(3)
H13 H -0.4904 0.1012 0.1746
H14 H -0.4088 0.1536 0.1369
C16 C -0.4392(2) 0.15404(13) 0.3384(3)
H15 H -0.5010 0.1819 0.3282
H16 H -0.4536 0.1231 0.4076
C17 C -0.3601(2) 0.22447(15) 0.4995(3)
H17 H -0.4013 0.2009 0.5630
H18 H -0.4009 0.2617 0.4733
C18 C -0.2540(2) 0.24249(13) 0.5689(3)
H19 H -0.2650 0.2607 0.6582
H20 H -0.2088 0.2058 0.5834
C19 C 0.2423(2) 0.33601(10) 0.6207(2)
H21 H 0.2701 0.3639 0.5529
H22 H 0.2556 0.3550 0.7108
C20 C 0.32331(18) 0.24298(10) 0.7299(2)
C21 C 0.34717(17) 0.04015(10) 0.4763(2)
C22 C 0.26451(19) -0.05932(10) 0.4044(3)
H23 H 0.2674 -0.1011 0.4426
H24 H 0.3094 -0.0586 0.3265
C23 C 0.34084(16) 0.14160(9) 0.59824(19)
H25 H 0.2979 0.1570 0.5236
C24 C 0.44670(19) 0.06114(11) 0.7076(2)
H26 H 0.4738 0.0207 0.7055
C25 C 0.43307(19) 0.15321(12) 0.8176(2)
H27 H 0.4492 0.1778 0.8950
C26 C 0.36676(16) 0.17889(9) 0.7115(2)
C27 C 0.37922(16) 0.08121(10) 0.5967(2)
N1 N 0.30902(15) -0.01572(8) 0.50859(18)
H28 H 0.3107 -0.0264 0.5939
N2 N 0.29881(15) 0.27652(8) 0.61777(17)
H29 H 0.3171 0.2625 0.5398
N3 N 0.47516(17) 0.09648(10) 0.8174(2)
O1 O -0.16888(13) -0.00458(8) 0.22005(17)
O2 O -0.33926(14) 0.08038(9) 0.22119(17)
O3 O -0.34573(14) 0.18814(9) 0.3811(2)
O4 O -0.20127(16) 0.28644(8) 0.4864(2)
O5 O 0.31192(14) 0.26331(7) 0.84691(14)
O6 O 0.35448(13) 0.05808(7) 0.35787(15)
loop_
_geom_bond_atom_site_label_1
_geom_bond_atom_site_label_2
_geom_bond_site_symmetry_1
_geom_bond_site_symmetry_2
C1 C2 1_555 1_555
C2 H1 1_555 1_555
C3 C2 1_555 1_555
H2 C3 1_555 1_555
C4 C3 1_555 1_555
C5 C4 1_555 1_555
H3 C5 1_555 1_555
C6 C1 1_555 1_555
H4 C6 1_555 1_555
C7 C8 1_555 1_555
C8 H5 1_555 1_555
C9 C8 1_555 1_555
H6 C9 1_555 1_555
C10 C9 1_555 1_555
C11 C10 1_555 1_555
H7 C11 1_555 1_555
C12 C7 1_555 1_555
H8 C12 1_555 1_555
C13 H9 1_555 1_555
H10 C13 1_555 1_555
C14 C13 1_555 1_555
H11 C14 1_555 1_555
H12 C14 1_555 1_555
C15 H13 1_555 1_555
H14 C15 1_555 1_555
C16 C15 1_555 1_555
H15 C16 1_555 1_555
H16 C16 1_555 1_555
C17 H17 1_555 1_555
H18 C17 1_555 1_555
C18 C17 1_555 1_555
H19 C18 1_555 1_555
H20 C18 1_555 1_555
C19 C1 1_555 1_555
H21 C19 1_555 1_555
H22 C19 1_555 1_555
C20 C26 1_555 1_555
C21 C27 1_555 1_555
C22 C7 1_555 1_555
H23 C22 1_555 1_555
H24 C22 1_555 1_555
C23 H25 1_555 1_555
C24 H26 1_555 1_555
C25 H27 1_555 1_555
C26 C23 1_555 1_555
C27 C23 1_555 1_555
N1 C21 1_555 1_555
H28 N1 1_555 1_555
N2 C19 1_555 1_555
H29 N2 1_555 1_555
N3 C24 1_555 1_555
O1 C10 1_555 1_555
O2 C14 1_555 1_555
O3 C16 1_555 1_555
O4 C4 1_555 1_555
O5 C20 1_555 1_555
O6 C21 1_555 1_555
C5 C6 1_555 1_555
C11 C12 1_555 1_555
C13 O1 1_555 1_555
C15 O2 1_555 1_555
C17 O3 1_555 1_555
C18 O4 1_555 1_555
C20 N2 1_555 1_555
C22 N1 1_555 1_555
C24 C27 1_555 1_555
C25 C26 1_555 1_555
C25 N3 1_555 1_555

#END
