
#######################################################################
#
#                 Cambridge Crystallographic Data Centre
#                                CCDC 
#
#######################################################################
#
# If this CIF has been generated from an entry in the Cambridge 
# Structural Database, then it will include bibliographic, chemical, 
# crystal, experimental, refinement or atomic coordinate data resulting 
# from the CCDC's data processing and validation procedures.
#
#######################################################################

data_WUTBIX
_chemical_formula_moiety         'C17 H16 Br4 N2 O2'
_chemical_name_systematic        
2,4,10,12-Tetrabromo-6,8-dimethyl-7,8-dihydro-6H-dibenzo[f,h][1,5]dioxonine-1,13-diamine
_symmetry_cell_setting           orthorhombic
_symmetry_space_group_name_H-M   'P 21 21 21'
_symmetry_Int_Tables_number      19
_space_group_name_Hall           'P 2ac 2ab'
loop_
_symmetry_equiv_pos_site_id
_symmetry_equiv_pos_as_xyz
1 x,y,z
2 1/2-x,-y,1/2+z
3 -x,1/2+y,1/2-z
4 1/2+x,1/2-y,-z
_cell_length_a                   10.507(2)
_cell_length_b                   11.213(2)
_cell_length_c                   16.751(4)
_cell_angle_alpha                90
_cell_angle_beta                 90
_cell_angle_gamma                90
_cell_volume                     1973.52
_exptl_crystal_colour            yellow
_exptl_crystal_description       block
_cell_formula_units_Z            4
loop_
_atom_site_label
_atom_site_type_symbol
_atom_site_fract_x
_atom_site_fract_y
_atom_site_fract_z
Br1 Br 1.10202(5) 0.80280(5) -0.22824(3)
Br2 Br 0.80339(6) 0.44270(5) -0.08519(4)
Br3 Br 1.13725(6) 0.88389(7) 0.27744(4)
Br4 Br 0.68768(5) 1.09890(5) 0.16610(4)
O1 O 1.0396(3) 0.9305(3) -0.06533(18)
O2 O 0.7455(3) 0.9394(3) 0.01750(19)
N1 N 0.8220(4) 0.6110(4) 0.0601(2)
H1 H 0.7886 0.5410 0.0591
H2 H 0.8197 0.6527 0.1032
N2 N 1.1137(4) 0.7423(4) 0.1200(2)
H3 H 1.1160 0.6988 0.0778
H4 H 1.1698 0.7328 0.1568
C1 C 0.9910(4) 0.8168(5) -0.0726(3)
C2 C 1.0031(4) 0.7481(5) -0.1407(3)
C3 C 0.9481(5) 0.6365(5) -0.1437(3)
H5 H 0.9536 0.5909 -0.1900
C4 C 0.8851(5) 0.5929(4) -0.0777(3)
C5 C 0.8787(4) 0.6560(4) -0.0068(3)
C6 C 0.9333(4) 0.7699(4) -0.0049(3)
C7 C 0.9290(4) 0.8430(4) 0.0696(3)
C8 C 1.0203(5) 0.8269(4) 0.1287(3)
C9 C 1.0132(4) 0.8993(5) 0.1969(3)
C10 C 0.9179(5) 0.9818(5) 0.2059(3)
H6 H 0.9153 1.0292 0.2514
C11 C 0.8264(5) 0.9946(4) 0.1479(3)
C12 C 0.8334(4) 0.9282(4) 0.0777(3)
C13 C 1.0314(5) 1.1372(5) -0.0719(4)
H7 H 1.0157 1.1375 -0.0154
H8 H 0.9927 1.2062 -0.0957
H9 H 1.1215 1.1389 -0.0814
C14 C 0.9761(5) 1.0274(4) -0.1078(3)
H10 H 1.0043 1.0241 -0.1636
C15 C 0.8301(4) 1.0208(5) -0.1081(3)
H11 H 0.7999 1.0756 -0.1487
H12 H 0.8067 0.9412 -0.1253
C16 C 0.7561(5) 1.0469(5) -0.0321(3)
H13 H 0.7978 1.1109 -0.0020
C17 C 0.6213(5) 1.0822(5) -0.0524(3)
H14 H 0.5821 1.0201 -0.0832
H15 H 0.6221 1.1547 -0.0828
H16 H 0.5740 1.0942 -0.0040
loop_
_geom_bond_atom_site_label_1
_geom_bond_atom_site_label_2
_geom_bond_site_symmetry_1
_geom_bond_site_symmetry_2
Br1 C2 1_555 1_555
Br2 C4 1_555 1_555
Br3 C9 1_555 1_555
Br4 C11 1_555 1_555
O1 C1 1_555 1_555
O2 C12 1_555 1_555
N1 H1 1_555 1_555
H2 N1 1_555 1_555
N2 H3 1_555 1_555
H4 N2 1_555 1_555
C1 C2 1_555 1_555
C2 C3 1_555 1_555
C3 H5 1_555 1_555
C4 C3 1_555 1_555
C5 N1 1_555 1_555
C6 C1 1_555 1_555
C7 C6 1_555 1_555
C8 N2 1_555 1_555
C9 C8 1_555 1_555
C10 C9 1_555 1_555
H6 C10 1_555 1_555
C11 C10 1_555 1_555
C12 C7 1_555 1_555
C13 H7 1_555 1_555
H8 C13 1_555 1_555
H9 C13 1_555 1_555
C14 O1 1_555 1_555
H10 C14 1_555 1_555
C15 C14 1_555 1_555
H11 C15 1_555 1_555
H12 C15 1_555 1_555
C16 O2 1_555 1_555
H13 C16 1_555 1_555
C17 C16 1_555 1_555
H14 C17 1_555 1_555
H15 C17 1_555 1_555
H16 C17 1_555 1_555
C4 C5 1_555 1_555
C5 C6 1_555 1_555
C7 C8 1_555 1_555
C11 C12 1_555 1_555
C13 C14 1_555 1_555
C15 C16 1_555 1_555

#END
