
#######################################################################
#
#                 Cambridge Crystallographic Data Centre
#                                CCDC 
#
#######################################################################
#
# If this CIF has been generated from an entry in the Cambridge 
# Structural Database, then it will include bibliographic, chemical, 
# crystal, experimental, refinement or atomic coordinate data resulting 
# from the CCDC's data processing and validation procedures.
#
#######################################################################

data_WUTKUS
_chemical_formula_moiety         'C22 H24 O6'
_chemical_name_systematic        
(-)-(6S,7S,P~ax~)-13,14-Dimethoxy-6,7-dimethyl-5,6,7,8-tetrahydro[1,3]benzodioxolo[5',6':3,4]cycloocta[1,2-f][1,3]benzodioxole
_symmetry_cell_setting           orthorhombic
_symmetry_space_group_name_H-M   'P 21 21 21'
_symmetry_Int_Tables_number      19
_space_group_name_Hall           'P 2ac 2ab'
loop_
_symmetry_equiv_pos_site_id
_symmetry_equiv_pos_as_xyz
1 x,y,z
2 1/2-x,-y,1/2+z
3 -x,1/2+y,1/2-z
4 1/2+x,1/2-y,-z
_cell_length_a                   8.0851(16)
_cell_length_b                   11.048(2)
_cell_length_c                   21.235(4)
_cell_angle_alpha                90
_cell_angle_beta                 90
_cell_angle_gamma                90
_cell_volume                     1896.8
_exptl_crystal_colour            colorless
_exptl_crystal_description       prismatic
_cell_formula_units_Z            4
loop_
_atom_site_label
_atom_site_type_symbol
_atom_site_fract_x
_atom_site_fract_y
_atom_site_fract_z
O1 O 0.83513(18) 0.67630(13) 0.08880(7)
O2 O 0.0259(2) 0.04148(14) 0.16313(8)
O3 O 0.59832(18) 0.67472(12) 0.02799(7)
O4 O 0.1666(2) 0.03988(14) 0.06845(7)
O5 O 0.33853(16) 0.49522(14) 0.03837(6)
O6 O 0.42542(17) 0.22584(13) 0.03646(6)
C1 C 0.6414(2) 0.40688(16) 0.16210(8)
C2 C 0.2889(2) 0.30912(18) 0.19585(9)
C3 C 0.1671(3) 0.2201(2) 0.20761(10)
H1 H 0.1111 0.2173 0.2458
C4 C 0.7628(2) 0.49582(18) 0.15279(9)
H2 H 0.8583 0.4978 0.1771
C5 C 0.7352(2) 0.57916(16) 0.10671(9)
C6 C 0.1345(3) 0.13872(19) 0.16111(10)
C7 C 0.5952(2) 0.57887(16) 0.07017(9)
C8 C 0.2149(3) 0.13961(18) 0.10423(10)
C9 C 0.3345(2) 0.22413(17) 0.09053(9)
C10 C 0.4723(2) 0.49438(17) 0.07842(8)
C11 C 0.4983(2) 0.40540(16) 0.12544(8)
C12 C 0.3697(2) 0.31112(17) 0.13757(8)
C13 C 0.6729(3) 0.31188(18) 0.21217(9)
H3 H 0.7883 0.2882 0.2102
H4 H 0.6070 0.2409 0.2024
C14 C 0.3262(3) 0.39893(19) 0.24726(9)
H5 H 0.2231 0.4213 0.2675
H6 H 0.3717 0.4714 0.2282
C15 C 0.6333(3) 0.3519(2) 0.28024(9)
H7 H 0.6768 0.4340 0.2858
C16 C 0.4482(3) 0.3538(2) 0.29850(9)
H8 H 0.4164 0.2709 0.3095
C17 C 0.7271(4) 0.2687(2) 0.32508(11)
H9 H 0.7055 0.2926 0.3678
H10 H 0.8436 0.2746 0.3168
H11 H 0.6914 0.1867 0.3189
C18 C 0.4239(4) 0.4324(2) 0.35742(11)
H12 H 0.4971 0.4053 0.3901
H13 H 0.3115 0.4258 0.3716
H14 H 0.4479 0.5153 0.3474
C19 C 0.7677(3) 0.7129(2) 0.02967(11)
H15 H 0.8289 0.6760 -0.0046
H16 H 0.7745 0.8002 0.0253
C20 C 0.0201(3) -0.0018(2) 0.09963(11)
H17 H -0.0775 0.0291 0.0785
H18 H 0.0158 -0.0895 0.0991
C21 C 0.1803(3) 0.5164(2) 0.06523(11)
H19 H 0.0979 0.5150 0.0327
H20 H 0.1796 0.5940 0.0855
H21 H 0.1565 0.4545 0.0956
C22 C 0.3369(3) 0.2100(2) -0.02094(9)
H22 H 0.4128 0.2122 -0.0557
H23 H 0.2571 0.2738 -0.0255
H24 H 0.2810 0.1333 -0.0203
loop_
_geom_bond_atom_site_label_1
_geom_bond_atom_site_label_2
_geom_bond_site_symmetry_1
_geom_bond_site_symmetry_2
O1 C5 1_555 1_555
O2 C6 1_555 1_555
O3 C7 1_555 1_555
O4 C8 1_555 1_555
O5 C10 1_555 1_555
O6 C9 1_555 1_555
C1 C4 1_555 1_555
C2 C3 1_555 1_555
C3 H1 1_555 1_555
C4 H2 1_555 1_555
C5 C4 1_555 1_555
C6 C3 1_555 1_555
C7 C5 1_555 1_555
C8 C6 1_555 1_555
C9 C8 1_555 1_555
C10 C7 1_555 1_555
C11 C1 1_555 1_555
C12 C2 1_555 1_555
C13 C1 1_555 1_555
H3 C13 1_555 1_555
H4 C13 1_555 1_555
C14 C2 1_555 1_555
H5 C14 1_555 1_555
H6 C14 1_555 1_555
C15 C13 1_555 1_555
H7 C15 1_555 1_555
C16 C14 1_555 1_555
H8 C16 1_555 1_555
C17 C15 1_555 1_555
H9 C17 1_555 1_555
H10 C17 1_555 1_555
H11 C17 1_555 1_555
C18 C16 1_555 1_555
H12 C18 1_555 1_555
H13 C18 1_555 1_555
H14 C18 1_555 1_555
C19 O1 1_555 1_555
H15 C19 1_555 1_555
H16 C19 1_555 1_555
C20 O2 1_555 1_555
H17 C20 1_555 1_555
H18 C20 1_555 1_555
C21 O5 1_555 1_555
H19 C21 1_555 1_555
H20 C21 1_555 1_555
H21 C21 1_555 1_555
C22 O6 1_555 1_555
H22 C22 1_555 1_555
H23 C22 1_555 1_555
H24 C22 1_555 1_555
O3 C19 1_555 1_555
O4 C20 1_555 1_555
C9 C12 1_555 1_555
C10 C11 1_555 1_555
C11 C12 1_555 1_555
C15 C16 1_555 1_555

#END
