
#######################################################################
#
#                 Cambridge Crystallographic Data Centre
#                                CCDC 
#
#######################################################################
#
# If this CIF has been generated from an entry in the Cambridge 
# Structural Database, then it will include bibliographic, chemical, 
# crystal, experimental, refinement or atomic coordinate data resulting 
# from the CCDC's data processing and validation procedures.
#
#######################################################################

data_WUTMOO
_chemical_formula_moiety         'C52 H58 N2 O4 P2'
_chemical_name_systematic        
1,3,7,9-Tetraethyl-N,N,N',N'-tetrakis(1-phenylethyl)[1,3,2]benzodioxaphosphepino[6,5,4-def][1,3,2]benzodioxaphosphepine-5,11-diamine
_symmetry_cell_setting           orthorhombic
_symmetry_space_group_name_H-M   'P 21 21 21'
_symmetry_Int_Tables_number      19
_space_group_name_Hall           'P 2ac 2ab'
loop_
_symmetry_equiv_pos_site_id
_symmetry_equiv_pos_as_xyz
1 x,y,z
2 1/2-x,-y,1/2+z
3 -x,1/2+y,1/2-z
4 1/2+x,1/2-y,-z
_cell_length_a                   11.3264(9)
_cell_length_b                   12.6123(11)
_cell_length_c                   33.148(3)
_cell_angle_alpha                90
_cell_angle_beta                 90
_cell_angle_gamma                90
_cell_volume                     4735.26
_exptl_crystal_colour            colorless
_exptl_crystal_description       prismatic
_cell_formula_units_Z            4
loop_
_atom_site_label
_atom_site_type_symbol
_atom_site_fract_x
_atom_site_fract_y
_atom_site_fract_z
P1 P 0.10099(10) 0.80474(9) 0.03893(3)
P2 P -0.04354(10) 0.59370(9) 0.21199(3)
O1 O 0.0778(2) 0.8540(2) 0.08420(7)
O2 O 0.0888(3) 0.6779(2) 0.05103(7)
O3 O -0.1186(2) 0.6054(2) 0.16975(7)
O4 O 0.0874(3) 0.6253(2) 0.19465(8)
N1 N 0.2418(3) 0.8395(3) 0.03581(10)
N2 N -0.0558(3) 0.4642(3) 0.21716(9)
C1 C -0.0228(4) 0.8223(3) 0.10546(11)
C2 C -0.1209(4) 0.8902(3) 0.10608(12)
C3 C -0.2143(4) 0.8580(4) 0.12953(13)
H1 H -0.2810 0.9010 0.1303
C4 C -0.2153(4) 0.7662(3) 0.15198(12)
C5 C -0.1165(3) 0.7013(3) 0.14985(10)
C6 C -0.0192(3) 0.7266(3) 0.12621(11)
C7 C 0.0840(4) 0.6534(3) 0.12275(12)
C8 C 0.1349(4) 0.6309(3) 0.08554(13)
C9 C 0.2258(5) 0.5589(4) 0.08076(15)
C10 C 0.2716(5) 0.5142(4) 0.11619(18)
H2 H 0.3348 0.4674 0.1140
C11 C 0.2283(4) 0.5358(4) 0.15400(15)
C12 C 0.1327(4) 0.6018(3) 0.15665(12)
C13 C -0.1235(5) 0.9915(4) 0.08248(14)
H3 H -0.0821 0.9807 0.0572
H4 H -0.2049 1.0087 0.0761
C14 C -0.0706(8) 1.0812(5) 0.1033(2)
H5 H -0.1188 1.1003 0.1260
H6 H -0.0650 1.1403 0.0852
H7 H 0.0069 1.0621 0.1126
C15 C -0.3222(4) 0.7358(4) 0.17728(15)
H8 H -0.3935 0.7582 0.1635
H9 H -0.3250 0.6593 0.1801
C16 C -0.3184(5) 0.7861(6) 0.21888(17)
H10 H -0.2469 0.7657 0.2323
H11 H -0.3851 0.7625 0.2343
H12 H -0.3209 0.8619 0.2163
C17 C 0.2743(6) 0.5304(4) 0.03985(17)
H13 H 0.2539 0.5858 0.0208
H14 H 0.3598 0.5267 0.0414
C18 C 0.2295(10) 0.4311(9) 0.0255(3)
H15 H 0.1454 0.4292 0.0290
H16 H 0.2650 0.3743 0.0404
H17 H 0.2481 0.4234 -0.0026
C19 C 0.2887(5) 0.4928(5) 0.19022(17)
H18 H 0.2338 0.4919 0.2127
H19 H 0.3130 0.4204 0.1850
C20 C 0.3917(8) 0.5555(7) 0.2011(2)
H20 H 0.4456 0.5575 0.1788
H21 H 0.4299 0.5240 0.2240
H22 H 0.3675 0.6263 0.2077
C21 C 0.2902(4) 0.8661(3) -0.00449(13)
H23 H 0.3755 0.8538 -0.0026
C22 C 0.2462(5) 0.7914(4) -0.03743(13)
H24 H 0.2586 0.7193 -0.0292
H25 H 0.2889 0.8048 -0.0619
H26 H 0.1635 0.8033 -0.0419
C23 C 0.2765(5) 0.9799(4) -0.01710(13)
C24 C 0.3592(6) 1.0250(4) -0.04067(19)
H27 H 0.4262 0.9864 -0.0476
C25 C 0.3469(8) 1.1270(6) -0.0548(2)
H28 H 0.4059 1.1563 -0.0708
C26 C 0.2504(8) 1.1850(6) -0.0458(3)
H29 H 0.2419 1.2542 -0.0550
C27 C 0.1670(8) 1.1390(6) -0.0229(3)
H30 H 0.0983 1.1764 -0.0169
C28 C 0.1805(6) 1.0406(5) -0.00855(19)
H31 H 0.1218 1.0126 0.0079
C29 C 0.3239(4) 0.8525(4) 0.07064(14)
H32 H 0.2787 0.8350 0.0950
C30 C 0.4257(5) 0.7752(5) 0.06875(16)
H33 H 0.4687 0.7856 0.0441
H34 H 0.3959 0.7040 0.0697
H35 H 0.4773 0.7868 0.0913
C31 C 0.3607(5) 0.9660(5) 0.07463(15)
C32 C 0.2866(7) 1.0364(6) 0.0920(3)
H36 H 0.2141 1.0133 0.1019
C33 C 0.3181(10) 1.1456(7) 0.0954(3)
H37 H 0.2656 1.1943 0.1065
C34 C 0.4241(14) 1.1763(9) 0.0825(3)
H38 H 0.4458 1.2472 0.0845
C35 C 0.4977(11) 1.1075(10) 0.0672(3)
H39 H 0.5717 1.1308 0.0588
C36 C 0.4694(7) 1.0012(7) 0.0628(2)
H40 H 0.5240 0.9542 0.0520
C37 C -0.0621(4) 0.3875(3) 0.18280(12)
H41 H -0.0532 0.4290 0.1580
C38 C 0.0402(5) 0.3104(5) 0.18408(16)
H42 H 0.0379 0.2713 0.2089
H43 H 0.1132 0.3489 0.1824
H44 H 0.0345 0.2622 0.1618
C39 C -0.1801(5) 0.3334(4) 0.18037(14)
C40 C -0.2050(6) 0.2374(5) 0.19682(17)
H45 H -0.1468 0.2025 0.2115
C41 C -0.3117(9) 0.1910(8) 0.1925(3)
H46 H -0.3245 0.1238 0.2032
C42 C -0.4007(10) 0.2412(10) 0.1728(3)
H47 H -0.4749 0.2100 0.1711
C43 C -0.3815(9) 0.3344(9) 0.1561(4)
H48 H -0.4410 0.3685 0.1417
C44 C -0.2709(7) 0.3808(6) 0.1602(2)
H49 H -0.2581 0.4470 0.1486
C45 C -0.0738(4) 0.4193(4) 0.25769(11)
H50 H -0.0590 0.3430 0.2555
C46 C 0.0163(5) 0.4623(5) 0.28749(15)
H51 H 0.0944 0.4517 0.2770
H52 H 0.0085 0.4256 0.3127
H53 H 0.0028 0.5367 0.2916
C47 C -0.1967(4) 0.4314(3) 0.27485(13)
C48 C -0.2446(5) 0.3556(5) 0.29765(19)
H54 H -0.2015 0.2937 0.3017
C49 C -0.3555(7) 0.3634(6) 0.31583(19)
H55 H -0.3855 0.3075 0.3310
C50 C -0.4178(6) 0.4524(6) 0.3111(2)
H56 H -0.4903 0.4607 0.3239
C51 C -0.3750(7) 0.5288(7) 0.2878(3)
H57 H -0.4181 0.5907 0.2839
C52 C -0.2663(7) 0.5167(6) 0.2694(3)
H58 H -0.2399 0.5702 0.2524
loop_
_geom_bond_atom_site_label_1
_geom_bond_atom_site_label_2
_geom_bond_site_symmetry_1
_geom_bond_site_symmetry_2
P1 O1 1_555 1_555
P2 O3 1_555 1_555
O1 C1 1_555 1_555
O2 P1 1_555 1_555
O3 C5 1_555 1_555
O4 P2 1_555 1_555
N1 P1 1_555 1_555
N2 P2 1_555 1_555
C1 C2 1_555 1_555
C2 C3 1_555 1_555
C3 H1 1_555 1_555
C4 C3 1_555 1_555
C5 C4 1_555 1_555
C6 C1 1_555 1_555
C7 C6 1_555 1_555
C8 O2 1_555 1_555
C9 C8 1_555 1_555
C10 C9 1_555 1_555
H2 C10 1_555 1_555
C11 C10 1_555 1_555
C12 O4 1_555 1_555
C13 C2 1_555 1_555
H3 C13 1_555 1_555
H4 C13 1_555 1_555
C14 C13 1_555 1_555
H5 C14 1_555 1_555
H6 C14 1_555 1_555
H7 C14 1_555 1_555
C15 C4 1_555 1_555
H8 C15 1_555 1_555
H9 C15 1_555 1_555
C16 C15 1_555 1_555
H10 C16 1_555 1_555
H11 C16 1_555 1_555
H12 C16 1_555 1_555
C17 C9 1_555 1_555
H13 C17 1_555 1_555
H14 C17 1_555 1_555
C18 C17 1_555 1_555
H15 C18 1_555 1_555
H16 C18 1_555 1_555
H17 C18 1_555 1_555
C19 C11 1_555 1_555
H18 C19 1_555 1_555
H19 C19 1_555 1_555
C20 C19 1_555 1_555
H20 C20 1_555 1_555
H21 C20 1_555 1_555
H22 C20 1_555 1_555
C21 N1 1_555 1_555
H23 C21 1_555 1_555
C22 C21 1_555 1_555
H24 C22 1_555 1_555
H25 C22 1_555 1_555
H26 C22 1_555 1_555
C23 C21 1_555 1_555
C24 C23 1_555 1_555
H27 C24 1_555 1_555
C25 C24 1_555 1_555
H28 C25 1_555 1_555
C26 C25 1_555 1_555
H29 C26 1_555 1_555
C27 C26 1_555 1_555
H30 C27 1_555 1_555
C28 C23 1_555 1_555
H31 C28 1_555 1_555
C29 N1 1_555 1_555
H32 C29 1_555 1_555
C30 C29 1_555 1_555
H33 C30 1_555 1_555
H34 C30 1_555 1_555
H35 C30 1_555 1_555
C31 C29 1_555 1_555
C32 C31 1_555 1_555
H36 C32 1_555 1_555
C33 C32 1_555 1_555
H37 C33 1_555 1_555
C34 C33 1_555 1_555
H38 C34 1_555 1_555
C35 C34 1_555 1_555
H39 C35 1_555 1_555
C36 C31 1_555 1_555
H40 C36 1_555 1_555
C37 N2 1_555 1_555
H41 C37 1_555 1_555
C38 C37 1_555 1_555
H42 C38 1_555 1_555
H43 C38 1_555 1_555
H44 C38 1_555 1_555
C39 C37 1_555 1_555
C40 C39 1_555 1_555
H45 C40 1_555 1_555
C41 C40 1_555 1_555
H46 C41 1_555 1_555
C42 C41 1_555 1_555
H47 C42 1_555 1_555
C43 C42 1_555 1_555
H48 C43 1_555 1_555
C44 C39 1_555 1_555
H49 C44 1_555 1_555
C45 N2 1_555 1_555
H50 C45 1_555 1_555
C46 C45 1_555 1_555
H51 C46 1_555 1_555
H52 C46 1_555 1_555
H53 C46 1_555 1_555
C47 C45 1_555 1_555
C48 C47 1_555 1_555
H54 C48 1_555 1_555
C49 C48 1_555 1_555
H55 C49 1_555 1_555
C50 C49 1_555 1_555
H56 C50 1_555 1_555
C51 C50 1_555 1_555
H57 C51 1_555 1_555
C52 C47 1_555 1_555
H58 C52 1_555 1_555
C5 C6 1_555 1_555
C7 C8 1_555 1_555
C7 C12 1_555 1_555
C11 C12 1_555 1_555
C27 C28 1_555 1_555
C35 C36 1_555 1_555
C43 C44 1_555 1_555
C51 C52 1_555 1_555

#END
