
#######################################################################
#
#                 Cambridge Crystallographic Data Centre
#                                CCDC 
#
#######################################################################
#
# If this CIF has been generated from an entry in the Cambridge 
# Structural Database, then it will include bibliographic, chemical, 
# crystal, experimental, refinement or atomic coordinate data resulting 
# from the CCDC's data processing and validation procedures.
#
#######################################################################

data_WUTVIR
_chemical_name_common            (14S)-14,21-epoxytriptolide
_chemical_formula_moiety         'C21 H24 O6'
_chemical_name_systematic        
6a'-Isopropyl-8b'-methyl-3b',4',4a',7a',7b',8b',9',10'-octahydro-6a'H-spiro[oxirane-2,6'-trisoxireno[6,7:8a,9:4b,5]phenanthro[1,2-c]furan]-1'(3'H)-one
_symmetry_cell_setting           monoclinic
_symmetry_space_group_name_H-M   'P 21'
_symmetry_Int_Tables_number      4
_space_group_name_Hall           'P 2yb'
loop_
_symmetry_equiv_pos_site_id
_symmetry_equiv_pos_as_xyz
1 x,y,z
2 -x,1/2+y,-z
_cell_length_a                   9.7642(14)
_cell_length_b                   8.0842(11)
_cell_length_c                   11.6940(17)
_cell_angle_alpha                90
_cell_angle_beta                 98.007(2)
_cell_angle_gamma                90
_cell_volume                     914.076
_exptl_crystal_colour            colorless
_exptl_crystal_description       prismatic
_cell_formula_units_Z            2
loop_
_atom_site_label
_atom_site_type_symbol
_atom_site_fract_x
_atom_site_fract_y
_atom_site_fract_z
O1 O 1.00521(18) 0.6087(3) 0.67276(18)
O2 O 0.8217(2) 0.4168(3) 0.85756(16)
O3 O 0.64473(19) 0.7958(3) 0.78418(18)
O4 O 0.9703(2) 0.9015(3) 0.79178(19)
O5 O 0.6271(3) -0.0685(4) 0.3185(3)
O6 O 0.6599(2) 0.1890(4) 0.2574(2)
C1 C 0.6780(3) 0.2111(4) 0.6618(3)
H1 H 0.7038 0.1591 0.7365
H2 H 0.5881 0.2621 0.6616
C2 C 0.6681(4) 0.0791(5) 0.5676(3)
H3 H 0.7460 0.0040 0.5825
H4 H 0.5838 0.0156 0.5676
C3 C 0.6681(3) 0.1604(5) 0.4531(3)
C4 C 0.6938(3) 0.3179(5) 0.4369(2)
C5 C 0.7301(3) 0.4417(4) 0.5318(2)
C6 C 0.8259(3) 0.5783(4) 0.5003(3)
H5 H 0.9000 0.5284 0.4649
H6 H 0.7743 0.6502 0.4434
C7 C 0.8879(3) 0.6810(4) 0.6013(3)
C8 C 0.8790(3) 0.6305(4) 0.7212(2)
C9 C 0.7983(3) 0.4764(4) 0.7399(2)
C10 C 0.7858(3) 0.3469(4) 0.6443(2)
C11 C 0.6911(3) 0.4968(4) 0.8151(3)
C12 C 0.6637(3) 0.6589(4) 0.8639(3)
H7 H 0.6036 0.6581 0.9244
C13 C 0.7664(3) 0.7906(4) 0.8718(2)
C14 C 0.8937(3) 0.7571(4) 0.8179(2)
C15 C 0.7745(3) 0.9147(5) 0.9705(3)
C16 C 0.8181(4) 0.8243(6) 1.0852(3)
H8 H 0.7464 0.7490 1.0995
H9 H 0.8333 0.9036 1.1468
H10 H 0.9019 0.7639 1.0811
C17 C 0.6378(4) 1.0054(6) 0.9733(3)
H11 H 0.6104 1.0589 0.9004
H12 H 0.6491 1.0868 1.0336
H13 H 0.5679 0.9276 0.9876
C18 C 0.9254(3) 0.2608(4) 0.6383(3)
H14 H 0.9955 0.3427 0.6332
H15 H 0.9176 0.1908 0.5713
H16 H 0.9501 0.1951 0.7064
C19 C 0.6483(3) 0.0749(6) 0.3401(4)
C20 C 0.6889(3) 0.3486(6) 0.3100(3)
H17 H 0.6166 0.4272 0.2827
H18 H 0.7767 0.3911 0.2929
C21 C 1.0324(3) 0.7889(4) 0.8796(3)
H19 H 1.0399 0.8244 0.9595
H20 H 1.1075 0.7195 0.8617
H21 H 0.649(3) 0.495(4) 0.549(3)
H22 H 0.900(3) 0.802(2) 0.590(2)
H23 H 0.621(3) 0.417(4) 0.809(3)
H24 H 0.839(3) 1.002(5) 0.953(3)
loop_
_geom_bond_atom_site_label_1
_geom_bond_atom_site_label_2
_geom_bond_site_symmetry_1
_geom_bond_site_symmetry_2
O1 C7 1_555 1_555
O2 C9 1_555 1_555
O3 C12 1_555 1_555
O4 C14 1_555 1_555
O5 C19 1_555 1_555
O6 C19 1_555 1_555
C1 H1 1_555 1_555
H2 C1 1_555 1_555
C2 C1 1_555 1_555
H3 C2 1_555 1_555
H4 C2 1_555 1_555
C3 C2 1_555 1_555
C4 C3 1_555 1_555
C5 C4 1_555 1_555
C6 C5 1_555 1_555
H5 C6 1_555 1_555
H6 C6 1_555 1_555
C7 C6 1_555 1_555
C8 O1 1_555 1_555
C9 C8 1_555 1_555
C10 C1 1_555 1_555
C11 O2 1_555 1_555
C12 C11 1_555 1_555
H7 C12 1_555 1_555
C13 O3 1_555 1_555
C14 C8 1_555 1_555
C15 C13 1_555 1_555
C16 C15 1_555 1_555
H8 C16 1_555 1_555
H9 C16 1_555 1_555
H10 C16 1_555 1_555
C17 C15 1_555 1_555
H11 C17 1_555 1_555
H12 C17 1_555 1_555
H13 C17 1_555 1_555
C18 C10 1_555 1_555
H14 C18 1_555 1_555
H15 C18 1_555 1_555
H16 C18 1_555 1_555
C19 C3 1_555 1_555
C20 O6 1_555 1_555
H17 C20 1_555 1_555
H18 C20 1_555 1_555
C21 O4 1_555 1_555
H19 C21 1_555 1_555
H20 C21 1_555 1_555
H21 C5 1_555 1_555
H22 C7 1_555 1_555
H23 C11 1_555 1_555
H24 C15 1_555 1_555
C4 C20 1_555 1_555
C5 C10 1_555 1_555
C7 C8 1_555 1_555
C9 C10 1_555 1_555
C9 C11 1_555 1_555
C12 C13 1_555 1_555
C13 C14 1_555 1_555
C14 C21 1_555 1_555

#END
