
#######################################################################
#
#                 Cambridge Crystallographic Data Centre
#                                CCDC 
#
#######################################################################
#
# If this CIF has been generated from an entry in the Cambridge 
# Structural Database, then it will include bibliographic, chemical, 
# crystal, experimental, refinement or atomic coordinate data resulting 
# from the CCDC's data processing and validation procedures.
#
#######################################################################

data_WUTVOX
_chemical_name_common            
(14S,S!S$)-14-spiro-14alpha,21-sulfinyldioxytriptolide
_chemical_formula_moiety         'C21 H24 O8 S1'
_chemical_name_systematic        
"6a'-Isopropyl-8b'-methyl-3b',4',4a',7a',7b',8b',9',10'-octahydro-6a'H-spiro[1,3,2-dioxathiolane-4,6'-trisoxireno[6,7:8a,9:4b,5]phenanthro[1,2-c]furan]-1'(3'H)-one 2-oxide"
_symmetry_cell_setting           orthorhombic
_symmetry_space_group_name_H-M   'P 21 21 21'
_symmetry_Int_Tables_number      19
_space_group_name_Hall           'P 2ac 2ab'
loop_
_symmetry_equiv_pos_site_id
_symmetry_equiv_pos_as_xyz
1 x,y,z
2 1/2-x,-y,1/2+z
3 -x,1/2+y,1/2-z
4 1/2+x,1/2-y,-z
_cell_length_a                   9.8274(8)
_cell_length_b                   11.5318(9)
_cell_length_c                   17.6885(15)
_cell_angle_alpha                90
_cell_angle_beta                 90
_cell_angle_gamma                90
_cell_volume                     2004.6
_exptl_crystal_colour            colorless
_exptl_crystal_description       prismatic
_cell_formula_units_Z            4
loop_
_atom_site_label
_atom_site_type_symbol
_atom_site_fract_x
_atom_site_fract_y
_atom_site_fract_z
S1 S 0.58608(6) 0.86229(5) 0.87411(4)
O1 O 0.89312(15) 0.85694(12) 0.78993(9)
O2 O 1.08286(14) 0.71819(12) 0.91385(8)
O3 O 0.83552(15) 0.50936(11) 0.86065(8)
O4 O 1.5238(2) 0.65819(18) 0.57099(12)
O5 O 1.3120(2) 0.67050(14) 0.52591(9)
O6 O 0.66235(14) 0.74543(12) 0.84469(8)
O7 O 0.71067(18) 0.90079(13) 0.92726(10)
O8 O 0.47658(18) 0.82448(18) 0.92095(12)
C1 C 1.2788(2) 0.6377(2) 0.78998(12)
H1 H 1.3142 0.6529 0.8402
H2 H 1.2522 0.5568 0.7878
C2 C 1.3904(2) 0.6599(2) 0.73197(13)
H3 H 1.4365 0.7321 0.7436
H4 H 1.4569 0.5978 0.7339
C3 C 1.3301(2) 0.66624(19) 0.65519(12)
C4 C 1.1982(2) 0.67278(17) 0.64062(11)
C5 C 1.0900(2) 0.67606(18) 0.69986(11)
C6 C 0.9658(2) 0.7467(2) 0.67620(12)
H5 H 0.9955 0.8225 0.6590
H6 H 0.9214 0.7083 0.6341
C7 C 0.8654(2) 0.76190(19) 0.73893(12)
C8 C 0.90139(19) 0.74045(15) 0.81836(10)
C9 C 1.0437(2) 0.69592(16) 0.83646(11)
C10 C 1.1524(2) 0.71456(17) 0.77632(11)
C11 C 1.0503(2) 0.60145(18) 0.89203(11)
C12 C 0.9250(2) 0.54617(17) 0.92127(12)
C13 C 0.7899(2) 0.59947(15) 0.91143(11)
C14 C 0.79299(18) 0.72090(15) 0.87872(11)
C15 C 0.6659(2) 0.56683(19) 0.95785(13)
C16 C 0.6974(2) 0.4955(2) 1.02800(13)
H7 H 0.6169 0.4888 1.0584
H8 H 0.7677 0.5331 1.0567
H9 H 0.7275 0.4197 1.0132
C17 C 0.5614(2) 0.5052(2) 0.90876(14)
H10 H 0.5447 0.5502 0.8641
H11 H 0.4782 0.4962 0.9365
H12 H 0.5955 0.4303 0.8947
C18 C 1.1968(2) 0.84200(18) 0.77763(12)
H13 H 1.1181 0.8910 0.7739
H14 H 1.2565 0.8569 0.7358
H15 H 1.2437 0.8580 0.8241
C19 C 1.4032(3) 0.66394(19) 0.58299(15)
C20 C 1.1773(3) 0.6742(2) 0.55739(13)
H16 H 1.1246 0.6075 0.5413
H17 H 1.1302 0.7443 0.5419
C21 C 0.8063(2) 0.81137(17) 0.94292(12)
H18 H 0.7869 0.7759 0.9914
H19 H 0.8979 0.8427 0.9443
H20 H 1.062(2) 0.5958(18) 0.7071(11)
H21 H 0.774(2) 0.7542(18) 0.7234(13)
H22 H 1.129(2) 0.5475(18) 0.8911(12)
H23 H 0.934(2) 0.4915(16) 0.9588(10)
H24 H 0.633(2) 0.6344(19) 0.9760(12)
loop_
_geom_bond_atom_site_label_1
_geom_bond_atom_site_label_2
_geom_bond_site_symmetry_1
_geom_bond_site_symmetry_2
S1 O6 1_555 1_555
O1 C7 1_555 1_555
O2 C9 1_555 1_555
O3 C12 1_555 1_555
O4 C19 1_555 1_555
O5 C19 1_555 1_555
O6 C14 1_555 1_555
O7 S1 1_555 1_555
O8 S1 1_555 1_555
C1 H1 1_555 1_555
H2 C1 1_555 1_555
C2 C1 1_555 1_555
H3 C2 1_555 1_555
H4 C2 1_555 1_555
C3 C2 1_555 1_555
C4 C3 1_555 1_555
C5 C4 1_555 1_555
C6 C5 1_555 1_555
H5 C6 1_555 1_555
H6 C6 1_555 1_555
C7 C6 1_555 1_555
C8 O1 1_555 1_555
C9 C8 1_555 1_555
C10 C1 1_555 1_555
C11 O2 1_555 1_555
C12 C11 1_555 1_555
C13 O3 1_555 1_555
C14 C8 1_555 1_555
C15 C13 1_555 1_555
C16 C15 1_555 1_555
H7 C16 1_555 1_555
H8 C16 1_555 1_555
H9 C16 1_555 1_555
C17 C15 1_555 1_555
H10 C17 1_555 1_555
H11 C17 1_555 1_555
H12 C17 1_555 1_555
C18 C10 1_555 1_555
H13 C18 1_555 1_555
H14 C18 1_555 1_555
H15 C18 1_555 1_555
C19 C3 1_555 1_555
C20 O5 1_555 1_555
H16 C20 1_555 1_555
H17 C20 1_555 1_555
C21 O7 1_555 1_555
H18 C21 1_555 1_555
H19 C21 1_555 1_555
H20 C5 1_555 1_555
H21 C7 1_555 1_555
H22 C11 1_555 1_555
H23 C12 1_555 1_555
H24 C15 1_555 1_555
C4 C20 1_555 1_555
C5 C10 1_555 1_555
C7 C8 1_555 1_555
C9 C10 1_555 1_555
C9 C11 1_555 1_555
C12 C13 1_555 1_555
C13 C14 1_555 1_555
C14 C21 1_555 1_555

#END
