
#######################################################################
#
#                 Cambridge Crystallographic Data Centre
#                                CCDC 
#
#######################################################################
#
# If this CIF has been generated from an entry in the Cambridge 
# Structural Database, then it will include bibliographic, chemical, 
# crystal, experimental, refinement or atomic coordinate data resulting 
# from the CCDC's data processing and validation procedures.
#
#######################################################################

data_WUVSOV
_chemical_formula_moiety         'C17 H21 N1 O3'
_chemical_name_systematic        
cis-1-(N-Hydroxyacetamido)-4-[(E)-1-hydroxy-2-methyl-3-phenylprop-2-enyl]cyclopent-2-ene
_symmetry_cell_setting           monoclinic
_symmetry_space_group_name_H-M   'P 21/c'
_symmetry_Int_Tables_number      14
_space_group_name_Hall           '-P 2ybc'
loop_
_symmetry_equiv_pos_site_id
_symmetry_equiv_pos_as_xyz
1 x,y,z
2 -x,1/2+y,1/2-z
3 -x,-y,-z
4 x,1/2-y,1/2+z
_cell_length_a                   10.3434(6)
_cell_length_b                   14.6080(8)
_cell_length_c                   10.4658(6)
_cell_angle_alpha                90
_cell_angle_beta                 90.8350(10)
_cell_angle_gamma                90
_cell_volume                     1581.18
_cell_formula_units_Z            4
loop_
_atom_site_label
_atom_site_type_symbol
_atom_site_fract_x
_atom_site_fract_y
_atom_site_fract_z
O1 O 0.4232(1) 0.0026(1) 0.6992(1)
N1 N 0.5646(1) 0.1133(1) 0.6509(1)
C1 C 0.3649(1) 0.1044(1) 0.5268(1)
O2 O 0.5874(1) 0.1936(1) 0.5822(1)
C2 C 0.4511(1) 0.0696(1) 0.6324(1)
O3 O 0.7332(1) 0.3730(1) 0.8943(1)
C3 C 0.6535(1) 0.0970(1) 0.7584(1)
C4 C 0.6576(1) 0.1772(1) 0.8549(1)
C5 C 0.7947(1) 0.2190(1) 0.8495(1)
C6 C 0.7908(1) 0.0891(1) 0.7152(1)
C7 C 0.8661(1) 0.1536(1) 0.7643(1)
C8 C 0.7982(1) 0.3182(1) 0.8008(1)
C9 C 0.9368(1) 0.3484(1) 0.7836(1)
C10 C 0.9790(1) 0.3597(1) 0.6646(1)
C11 C 1.0163(1) 0.3561(1) 0.9039(1)
C12 C 1.1112(1) 0.3741(1) 0.6173(1)
C13 C 1.1245(2) 0.4166(1) 0.4983(2)
C14 C 1.2458(2) 0.4315(1) 0.4473(2)
C15 C 1.3539(2) 0.4034(1) 0.5114(2)
C16 C 1.3441(2) 0.3585(1) 0.6267(2)
C17 C 1.2225(1) 0.3436(1) 0.6804(2)
H1 H 0.3475 0.1643 0.5399
H2 H 0.2933 0.0699 0.5220
H3 H 0.4043 0.0992 0.4489
H4 H 0.6376 0.1779 0.5250
H5 H 0.6937 0.4185 0.8573
H6 H 0.6283 0.0437 0.7938
H7 H 0.5993 0.2189 0.8305
H8 H 0.6458 0.1557 0.9356
H9 H 0.8365 0.2205 0.9319
H10 H 0.8216 0.0433 0.6573
H11 H 0.9559 0.1608 0.7493
H12 H 0.7510 0.3213 0.7235
H13 H 0.9163 0.3595 0.5989
H14 H 1.0841 0.3940 0.8974
H15 H 0.9693 0.3777 0.9707
H16 H 1.0533 0.2987 0.9310
H17 H 1.0408 0.4379 0.4484
H18 H 1.2538 0.4652 0.3643
H19 H 1.4409 0.4128 0.4771
H20 H 1.4046 0.3346 0.6817
H21 H 1.2179 0.3128 0.7535
loop_
_geom_bond_atom_site_label_1
_geom_bond_atom_site_label_2
_geom_bond_site_symmetry_1
_geom_bond_site_symmetry_2
O1 C2 1_555 1_555
N1 O2 1_555 1_555
C1 C2 1_555 1_555
O2 H4 1_555 1_555
C2 N1 1_555 1_555
O3 C8 1_555 1_555
C3 N1 1_555 1_555
C4 C3 1_555 1_555
C5 C4 1_555 1_555
C6 C3 1_555 1_555
C7 C5 1_555 1_555
C8 C5 1_555 1_555
C9 C8 1_555 1_555
C10 C9 1_555 1_555
C11 C9 1_555 1_555
C12 C10 1_555 1_555
C13 C12 1_555 1_555
C14 C13 1_555 1_555
C15 C14 1_555 1_555
C16 C15 1_555 1_555
C17 C12 1_555 1_555
H1 C1 1_555 1_555
H2 C1 1_555 1_555
H3 C1 1_555 1_555
H5 O3 1_555 1_555
H6 C3 1_555 1_555
H7 C4 1_555 1_555
H8 C4 1_555 1_555
H9 C5 1_555 1_555
H10 C6 1_555 1_555
H11 C7 1_555 1_555
H12 C8 1_555 1_555
H13 C10 1_555 1_555
H14 C11 1_555 1_555
H15 C11 1_555 1_555
H16 C11 1_555 1_555
H17 C13 1_555 1_555
H18 C14 1_555 1_555
H19 C15 1_555 1_555
H20 C16 1_555 1_555
H21 C17 1_555 1_555
C6 C7 1_555 1_555
C16 C17 1_555 1_555

#END
