
#######################################################################
#
#                 Cambridge Crystallographic Data Centre
#                                CCDC 
#
#######################################################################
#
# If this CIF has been generated from an entry in the Cambridge 
# Structural Database, then it will include bibliographic, chemical, 
# crystal, experimental, refinement or atomic coordinate data resulting 
# from the CCDC's data processing and validation procedures.
#
#######################################################################

data_WUWWAO
_chemical_compound_source        'Chaetomium globosum'
_chemical_formula_moiety         'C37 H33 Br2 Cl1 O8'
_chemical_name_systematic        
'5-(7-((4-bromobenzoyl)oxy)-5-chloro-7-methyl-3-(3-methylpent-1-en-1-yl)-6-oxo-7,8-dihydro-6H-isochromen-8-yl)-2,3-dimethyl-6-oxo-3,6-dihydro-2H-pyran-4-yl 4-bromobenzoate'
_symmetry_cell_setting           monoclinic
_symmetry_space_group_name_H-M   'P 21'
_symmetry_Int_Tables_number      4
_space_group_name_Hall           'P 2yb'
loop_
_symmetry_equiv_pos_site_id
_symmetry_equiv_pos_as_xyz
1 x,y,z
2 -x,1/2+y,-z
_cell_length_a                   10.5886(1)
_cell_length_b                   14.0647(2)
_cell_length_c                   22.8400(3)
_cell_angle_alpha                90
_cell_angle_beta                 96.6029(7)
_cell_angle_gamma                90
_cell_volume                     3378.9
_exptl_crystal_colour            yellow
_exptl_crystal_description       plate
_cell_formula_units_Z            4
_chemical_properties_physical    Air-sensitive
_exptl_crystal_recrystallization_method chloroform/methanol
loop_
_atom_site_label
_atom_site_type_symbol
_atom_site_fract_x
_atom_site_fract_y
_atom_site_fract_z
Br1 Br 0.32290(4) 0.52162(5) 1.02213(2)
Br2 Br 1.35366(5) 0.75154(5) 1.47504(2)
Cl1 Cl 0.64657(11) 0.84715(10) 1.10294(5)
O1 O 0.9327(3) 0.7499(3) 0.93589(14)
O2 O 1.3439(4) 0.7733(3) 1.12186(16)
O3 O 1.3258(3) 0.6354(3) 1.16615(16)
O4 O 0.9444(3) 0.6242(3) 1.10205(15)
O5 O 0.9748(3) 0.5259(3) 1.02672(16)
O6 O 0.8583(4) 0.9173(3) 1.18553(16)
O7 O 1.1058(3) 0.8509(3) 1.19441(15)
O8 O 0.9690(3) 0.7345(3) 1.21348(15)
C1 C 1.0146(5) 0.7673(4) 0.9851(2)
C2 C 0.8046(5) 0.7544(5) 0.9410(2)
C3 C 0.7638(5) 0.7802(4) 0.9924(3)
C4 C 0.8473(5) 0.8048(4) 1.0436(2)
C5 C 0.8079(5) 0.8390(4) 1.0955(2)
C6 C 0.8924(5) 0.8754(4) 1.1432(3)
C7 C 1.0381(5) 0.8726(4) 1.1372(2)
C8 C 1.0811(5) 0.8028(4) 1.0904(2)
C9 C 0.9810(5) 0.7917(4) 1.0381(2)
C10 C 0.7224(5) 0.7298(4) 0.8886(3)
C11 C 0.7559(5) 0.7044(4) 0.8365(3)
C12 C 0.6656(6) 0.6802(4) 0.7823(3)
C13 C 0.5272(5) 0.6609(4) 0.7943(3)
C14 C 0.5105(6) 0.5702(5) 0.8302(3)
C15 C 0.7154(6) 0.5994(5) 0.7474(3)
C16 C 1.1351(5) 0.7091(4) 1.1160(2)
C17 C 1.2750(5) 0.7109(4) 1.1346(3)
C18 C 1.2468(5) 0.5658(4) 1.1904(3)
C19 C 1.1325(5) 0.5378(4) 1.1466(3)
C20 C 1.0739(5) 0.6273(4) 1.1193(2)
C21 C 1.0771(5) 0.9733(4) 1.1243(3)
C22 C 1.3325(5) 0.4827(5) 1.2093(3)
C23 C 1.0376(5) 0.4801(5) 1.1772(3)
C24 C 0.9035(5) 0.5653(4) 1.0562(3)
C25 C 0.7618(5) 0.5578(4) 1.0489(3)
C26 C 0.7031(5) 0.5114(4) 0.9995(3)
C27 C 0.5725(5) 0.5017(5) 0.9902(3)
C28 C 0.5015(5) 0.5388(4) 1.0326(2)
C29 C 0.5579(5) 0.5874(4) 1.0820(2)
C30 C 0.6896(5) 0.5966(4) 1.0903(3)
C31 C 1.0612(5) 0.7816(4) 1.2277(2)
C32 C 1.1427(4) 0.7723(4) 1.28579(19)
C33 C 1.1064(5) 0.7045(4) 1.3251(3)
C34 C 1.1724(5) 0.6952(4) 1.3805(3)
C35 C 1.2736(4) 0.7547(4) 1.3965(2)
C36 C 1.3152(5) 0.8209(4) 1.3579(3)
C37 C 1.2481(5) 0.8290(4) 1.3015(3)
H1 H 1.1010 0.7628 0.9817
H2 H 0.6766 0.7819 0.9946
H3 H 1.1523 0.8347 1.0747
H4 H 0.6356 0.7312 0.8918
H5 H 0.8425 0.7016 0.8329
H6 H 0.6625 0.7357 0.7562
H7 H 0.4728 0.6570 0.7567
H8 H 0.4997 0.7143 0.8174
H9 H 0.5363 0.5156 0.8077
H10 H 0.5632 0.5730 0.8684
H11 H 0.4210 0.5633 0.8366
H12 H 0.7979 0.6172 0.7352
H13 H 0.6561 0.5843 0.7124
H14 H 0.7258 0.5436 0.7732
H15 H 1.2146 0.5928 1.2253
H16 H 1.1627 0.4990 1.1154
H17 H 1.0347 0.9934 1.0859
H18 H 1.1695 0.9757 1.1237
H19 H 1.0529 1.0161 1.1550
H20 H 1.4000 0.5052 1.2391
H21 H 1.3705 0.4580 1.1752
H22 H 1.2846 0.4319 1.2262
H23 H 1.0076 0.5184 1.2087
H24 H 1.0789 0.4224 1.1942
H25 H 0.9653 0.4624 1.1486
H26 H 0.7529 0.4866 0.9722
H27 H 0.5339 0.4716 0.9566
H28 H 0.5083 0.6131 1.1091
H29 H 0.7291 0.6281 1.1233
H30 H 1.0360 0.6661 1.3144
H31 H 1.1502 0.6486 1.4064
H32 H 1.3864 0.8583 1.3690
H33 H 1.2738 0.8732 1.2751
Br3 Br 0.31441(5) 0.49589(5) 0.49571(3)
Br4 Br 1.39470(5) 0.76269(5) 0.97209(2)
Cl2 Cl 0.60995(10) 0.78514(9) 0.61746(5)
O9 O 0.8842(3) 0.7520(3) 0.43784(14)
O10 O 1.3099(3) 0.7676(3) 0.61377(15)
O11 O 1.3142(3) 0.6214(3) 0.64878(16)
O12 O 0.9293(3) 0.5928(3) 0.59257(15)
O13 O 0.9684(4) 0.5072(3) 0.51276(16)
O14 O 0.8244(4) 0.8375(3) 0.70454(15)
O15 O 1.0802(3) 0.8274(3) 0.69758(14)
O16 O 0.9970(4) 0.6847(3) 0.71868(15)
C38 C 0.9683(5) 0.7671(4) 0.4870(2)
C39 C 0.7586(5) 0.7394(4) 0.4465(3)
C40 C 0.7187(4) 0.7498(4) 0.49973(19)
C41 C 0.8045(5) 0.7714(4) 0.5513(2)
C42 C 0.7687(4) 0.7888(4) 0.6063(2)
C43 C 0.8564(5) 0.8176(4) 0.6563(2)
C44 C 0.9951(5) 0.8385(4) 0.6443(2)
C45 C 1.0438(5) 0.7834(4) 0.59187(19)
C46 C 0.9384(4) 0.7741(4) 0.5416(2)
C47 C 0.6754(5) 0.7110(4) 0.3939(3)
C48 C 0.7143(5) 0.6941(4) 0.3403(2)
C49 C 0.6287(5) 0.6594(4) 0.2877(3)
C50 C 0.6715(5) 0.5587(4) 0.2700(3)
C51 C 0.6463(6) 0.4824(5) 0.3143(3)
C52 C 0.6290(6) 0.7282(5) 0.2364(3)
C53 C 1.1101(5) 0.6905(4) 0.60938(19)
C54 C 1.2504(5) 0.6979(4) 0.6249(2)
C55 C 1.2429(5) 0.5461(4) 0.6744(3)
C56 C 1.1295(5) 0.5141(4) 0.6308(2)
C57 C 1.0589(5) 0.6026(4) 0.6087(2)
C58 C 0.9986(5) 0.9458(4) 0.6316(3)
C59 C 1.3369(6) 0.4671(5) 0.6912(3)
C60 C 1.0469(5) 0.4466(4) 0.6614(3)
C61 C 0.8929(5) 0.5377(4) 0.5441(3)
C62 C 0.7528(5) 0.5259(4) 0.5349(2)
C63 C 0.7000(5) 0.4884(4) 0.4817(3)
C64 C 0.5696(5) 0.4793(4) 0.4692(3)
C65 C 0.4933(5) 0.5082(4) 0.5113(3)
C66 C 0.5450(5) 0.5473(4) 0.5649(3)
C67 C 0.6749(5) 0.5543(4) 0.5770(3)
C68 C 1.0666(5) 0.7504(4) 0.73234(19)
C69 C 1.1522(4) 0.7564(4) 0.78875(19)
C70 C 1.1600(5) 0.6757(4) 0.8257(3)
C71 C 1.2330(5) 0.6767(4) 0.8788(3)
C72 C 1.2975(4) 0.7582(4) 0.8970(2)
C73 C 1.2940(5) 0.8385(4) 0.8616(3)
C74 C 1.2199(5) 0.8368(4) 0.8075(3)
H34 H 1.0533 0.7745 0.4813
H35 H 0.6327 0.7435 0.5037
H36 H 1.1085 0.8239 0.5771
H37 H 0.5889 0.7059 0.3971
H38 H 0.7998 0.7034 0.3363
H39 H 0.5419 0.6548 0.2984
H40 H 0.7632 0.5590 0.2673
H41 H 0.6261 0.5408 0.2318
H42 H 0.6754 0.4208 0.3010
H43 H 0.5549 0.4795 0.3174
H44 H 0.6920 0.4976 0.3530
H45 H 0.5977 0.7903 0.2480
H46 H 0.7154 0.7353 0.2255
H47 H 0.5730 0.7039 0.2025
H48 H 1.2105 0.5702 0.7101
H49 H 1.1611 0.4816 0.5974
H50 H 0.9424 0.9591 0.5954
H51 H 0.9693 0.9812 0.6644
H52 H 1.0855 0.9654 0.6265
H53 H 1.2944 0.4137 0.7083
H54 H 1.3745 0.4453 0.6563
H55 H 1.4040 0.4920 0.7203
H56 H 1.0173 0.4783 0.6956
H57 H 0.9735 0.4278 0.6338
H58 H 1.0962 0.3899 0.6746
H59 H 0.7518 0.4687 0.4537
H60 H 0.5333 0.4547 0.4334
H61 H 0.4926 0.5668 0.5926
H62 H 0.7110 0.5786 0.6129
H63 H 1.1150 0.6211 0.8134
H64 H 1.2373 0.6234 0.9030
H65 H 1.3399 0.8927 0.8739
H66 H 1.2154 0.8906 0.7836
loop_
_geom_bond_atom_site_label_1
_geom_bond_atom_site_label_2
_geom_bond_site_symmetry_1
_geom_bond_site_symmetry_2
Br1 C28 1_555 1_555
Br2 C35 1_555 1_555
Cl1 C5 1_555 1_555
O1 C1 1_555 1_555
O2 C17 1_555 1_555
O3 C17 1_555 1_555
O4 C20 1_555 1_555
O5 C24 1_555 1_555
O6 C6 1_555 1_555
O7 C7 1_555 1_555
O8 C31 1_555 1_555
C1 C9 1_555 1_555
C2 O1 1_555 1_555
C3 C2 1_555 1_555
C4 C3 1_555 1_555
C5 C4 1_555 1_555
C6 C5 1_555 1_555
C7 C6 1_555 1_555
C8 C7 1_555 1_555
C9 C4 1_555 1_555
C10 C2 1_555 1_555
C11 C10 1_555 1_555
C12 C11 1_555 1_555
C13 C12 1_555 1_555
C14 C13 1_555 1_555
C15 C12 1_555 1_555
C16 C8 1_555 1_555
C17 C16 1_555 1_555
C18 O3 1_555 1_555
C19 C18 1_555 1_555
C20 C16 1_555 1_555
C21 C7 1_555 1_555
C22 C18 1_555 1_555
C23 C19 1_555 1_555
C24 O4 1_555 1_555
C25 C24 1_555 1_555
C26 C25 1_555 1_555
C27 C26 1_555 1_555
C28 C27 1_555 1_555
C29 C28 1_555 1_555
C30 C25 1_555 1_555
C31 O7 1_555 1_555
C32 C31 1_555 1_555
C33 C32 1_555 1_555
C34 C33 1_555 1_555
C35 C34 1_555 1_555
C36 C35 1_555 1_555
C37 C32 1_555 1_555
H1 C1 1_555 1_555
H2 C3 1_555 1_555
H3 C8 1_555 1_555
H4 C10 1_555 1_555
H5 C11 1_555 1_555
H6 C12 1_555 1_555
H7 C13 1_555 1_555
H8 C13 1_555 1_555
H9 C14 1_555 1_555
H10 C14 1_555 1_555
H11 C14 1_555 1_555
H12 C15 1_555 1_555
H13 C15 1_555 1_555
H14 C15 1_555 1_555
H15 C18 1_555 1_555
H16 C19 1_555 1_555
H17 C21 1_555 1_555
H18 C21 1_555 1_555
H19 C21 1_555 1_555
H20 C22 1_555 1_555
H21 C22 1_555 1_555
H22 C22 1_555 1_555
H23 C23 1_555 1_555
H24 C23 1_555 1_555
H25 C23 1_555 1_555
H26 C26 1_555 1_555
H27 C27 1_555 1_555
H28 C29 1_555 1_555
H29 C30 1_555 1_555
H30 C33 1_555 1_555
H31 C34 1_555 1_555
H32 C36 1_555 1_555
H33 C37 1_555 1_555
Br3 C65 1_555 1_555
Br4 C72 1_555 1_555
Cl2 C42 1_555 1_555
O9 C38 1_555 1_555
O10 C54 1_555 1_555
O11 C54 1_555 1_555
O12 C57 1_555 1_555
O13 C61 1_555 1_555
O14 C43 1_555 1_555
O15 C44 1_555 1_555
O16 C68 1_555 1_555
C38 C46 1_555 1_555
C39 O9 1_555 1_555
C40 C39 1_555 1_555
C41 C40 1_555 1_555
C42 C41 1_555 1_555
C43 C42 1_555 1_555
C44 C43 1_555 1_555
C45 C44 1_555 1_555
C46 C41 1_555 1_555
C47 C39 1_555 1_555
C48 C47 1_555 1_555
C49 C48 1_555 1_555
C50 C49 1_555 1_555
C51 C50 1_555 1_555
C52 C49 1_555 1_555
C53 C45 1_555 1_555
C54 C53 1_555 1_555
C55 O11 1_555 1_555
C56 C55 1_555 1_555
C57 C53 1_555 1_555
C58 C44 1_555 1_555
C59 C55 1_555 1_555
C60 C56 1_555 1_555
C61 O12 1_555 1_555
C62 C61 1_555 1_555
C63 C62 1_555 1_555
C64 C63 1_555 1_555
C65 C64 1_555 1_555
C66 C65 1_555 1_555
C67 C62 1_555 1_555
C68 O15 1_555 1_555
C69 C68 1_555 1_555
C70 C69 1_555 1_555
C71 C70 1_555 1_555
C72 C71 1_555 1_555
C73 C72 1_555 1_555
C74 C69 1_555 1_555
H34 C38 1_555 1_555
H35 C40 1_555 1_555
H36 C45 1_555 1_555
H37 C47 1_555 1_555
H38 C48 1_555 1_555
H39 C49 1_555 1_555
H40 C50 1_555 1_555
H41 C50 1_555 1_555
H42 C51 1_555 1_555
H43 C51 1_555 1_555
H44 C51 1_555 1_555
H45 C52 1_555 1_555
H46 C52 1_555 1_555
H47 C52 1_555 1_555
H48 C55 1_555 1_555
H49 C56 1_555 1_555
H50 C58 1_555 1_555
H51 C58 1_555 1_555
H52 C58 1_555 1_555
H53 C59 1_555 1_555
H54 C59 1_555 1_555
H55 C59 1_555 1_555
H56 C60 1_555 1_555
H57 C60 1_555 1_555
H58 C60 1_555 1_555
H59 C63 1_555 1_555
H60 C64 1_555 1_555
H61 C66 1_555 1_555
H62 C67 1_555 1_555
H63 C70 1_555 1_555
H64 C71 1_555 1_555
H65 C73 1_555 1_555
H66 C74 1_555 1_555
C8 C9 1_555 1_555
C19 C20 1_555 1_555
C29 C30 1_555 1_555
C36 C37 1_555 1_555
C45 C46 1_555 1_555
C56 C57 1_555 1_555
C66 C67 1_555 1_555
C73 C74 1_555 1_555

#END
