
#######################################################################
#
#                 Cambridge Crystallographic Data Centre
#                                CCDC 
#
#######################################################################
#
# If this CIF has been generated from an entry in the Cambridge 
# Structural Database, then it will include bibliographic, chemical, 
# crystal, experimental, refinement or atomic coordinate data resulting 
# from the CCDC's data processing and validation procedures.
#
#######################################################################

data_WUXPOW
_chemical_formula_moiety         'C21 H28 N1 O1 1+,Cl1 1-'
_chemical_name_systematic        
'N,N-dibenzyl-2-hydroxy-2-methylcyclohexanaminium chloride'
_symmetry_cell_setting           orthorhombic
_symmetry_space_group_name_H-M   'P n a 21'
_symmetry_Int_Tables_number      33
_space_group_name_Hall           'P 2c -2n'
loop_
_symmetry_equiv_pos_site_id
_symmetry_equiv_pos_as_xyz
1 x,y,z
2 -x,-y,1/2+z
3 1/2-x,1/2+y,1/2+z
4 1/2+x,1/2-y,z
_cell_length_a                   18.8610(10)
_cell_length_b                   7.1930(3)
_cell_length_c                   13.7442(6)
_cell_angle_alpha                90
_cell_angle_beta                 90
_cell_angle_gamma                90
_cell_volume                     1864.64
_exptl_crystal_colour            colorless
_exptl_crystal_description       slab
_cell_formula_units_Z            4
loop_
_atom_site_label
_atom_site_type_symbol
_atom_site_fract_x
_atom_site_fract_y
_atom_site_fract_z
Cl1 Cl 1.036829(18) 0.55018(4) 0.24416(2)
O1 O 0.97038(5) 0.20677(13) -0.06544(6)
N1 N 1.00086(5) 0.16415(14) 0.15324(7)
C1 C 0.93158(6) 0.14260(16) 0.09724(8)
H1 H 0.8930 0.1779 0.1436
C2 C 0.92307(7) 0.27117(16) 0.00825(8)
C3 C 0.84606(7) 0.25067(19) -0.02661(9)
H2 H 0.8139 0.2988 0.0244
H3 H 0.8392 0.3275 -0.0856
C4 C 0.82585(7) 0.04975(19) -0.04972(10)
H4 H 0.7749 0.0437 -0.0666
H5 H 0.8534 0.0063 -0.1067
C5 C 0.84047(7) -0.07723(18) 0.03665(10)
H6 H 0.8305 -0.2077 0.0182
H7 H 0.8087 -0.0437 0.0912
C6 C 0.91767(7) -0.05947(16) 0.06930(9)
H8 H 0.9266 -0.1416 0.1258
H9 H 0.9498 -0.0971 0.0158
C7 C 0.93805(8) 0.47427(18) 0.03134(10)
H10 H 0.9880 0.4887 0.0496
H11 H 0.9078 0.5144 0.0854
H12 H 0.9280 0.5505 -0.0261
C8 C 1.06516(6) 0.11557(19) 0.09166(9)
H13 H 1.0547 -0.0002 0.0555
H14 H 1.0721 0.2156 0.0431
C9 C 1.13365(6) 0.08895(18) 0.14619(8)
C10 C 1.17654(7) 0.23868(19) 0.17097(9)
H15 H 1.1606 0.3621 0.1595
C11 C 1.24283(7) 0.2081(2) 0.21267(10)
H16 H 1.2716 0.3109 0.2306
C12 C 1.26681(7) 0.0294(2) 0.22799(9)
H17 H 1.3126 0.0092 0.2547
C13 C 1.22423(7) -0.1200(2) 0.20458(10)
H18 H 1.2404 -0.2431 0.2160
C14 C 1.15786(7) -0.09045(19) 0.16445(9)
H19 H 1.1285 -0.1938 0.1492
C15 C 1.00167(6) 0.05625(15) 0.24842(9)
H20 H 1.0102 -0.0766 0.2336
H21 H 1.0420 0.1008 0.2882
C16 C 0.93481(6) 0.07149(18) 0.30822(8)
C17 C 0.91843(7) 0.23355(19) 0.35847(9)
H22 H 0.9481 0.3396 0.3525
C18 C 0.85859(8) 0.2407(2) 0.41754(9)
H23 H 0.8477 0.3518 0.4519
C19 C 0.81486(7) 0.0879(2) 0.42671(10)
H24 H 0.7736 0.0945 0.4661
C20 C 0.83134(7) -0.0747(2) 0.37840(10)
H25 H 0.8018 -0.1808 0.3854
C21 C 0.89122(7) -0.0833(2) 0.31937(9)
H26 H 0.9024 -0.1956 0.2864
H27 H 1.0047(8) 0.285(2) 0.1680(12)
H28 H 0.9651(10) 0.268(3) -0.1149(15)
loop_
_geom_bond_atom_site_label_1
_geom_bond_atom_site_label_2
_geom_bond_site_symmetry_1
_geom_bond_site_symmetry_2
O1 C2 1_555 1_555
N1 C1 1_555 1_555
C1 H1 1_555 1_555
C2 C1 1_555 1_555
C3 C2 1_555 1_555
H2 C3 1_555 1_555
H3 C3 1_555 1_555
C4 C3 1_555 1_555
H4 C4 1_555 1_555
H5 C4 1_555 1_555
C5 C4 1_555 1_555
H6 C5 1_555 1_555
H7 C5 1_555 1_555
C6 C1 1_555 1_555
H8 C6 1_555 1_555
H9 C6 1_555 1_555
C7 C2 1_555 1_555
H10 C7 1_555 1_555
H11 C7 1_555 1_555
H12 C7 1_555 1_555
C8 N1 1_555 1_555
H13 C8 1_555 1_555
H14 C8 1_555 1_555
C9 C8 1_555 1_555
C10 C9 1_555 1_555
H15 C10 1_555 1_555
C11 C10 1_555 1_555
H16 C11 1_555 1_555
C12 C11 1_555 1_555
H17 C12 1_555 1_555
C13 C12 1_555 1_555
H18 C13 1_555 1_555
C14 C9 1_555 1_555
H19 C14 1_555 1_555
C15 N1 1_555 1_555
H20 C15 1_555 1_555
H21 C15 1_555 1_555
C16 C15 1_555 1_555
C17 C16 1_555 1_555
H22 C17 1_555 1_555
C18 C17 1_555 1_555
H23 C18 1_555 1_555
C19 C18 1_555 1_555
H24 C19 1_555 1_555
C20 C19 1_555 1_555
H25 C20 1_555 1_555
C21 C16 1_555 1_555
H26 C21 1_555 1_555
H27 N1 1_555 1_555
H28 O1 1_555 1_555
C5 C6 1_555 1_555
C13 C14 1_555 1_555
C20 C21 1_555 1_555

#END
