
#######################################################################
#
#                 Cambridge Crystallographic Data Centre
#                                CCDC 
#
#######################################################################
#
# If this CIF has been generated from an entry in the Cambridge 
# Structural Database, then it will include bibliographic, chemical, 
# crystal, experimental, refinement or atomic coordinate data resulting 
# from the CCDC's data processing and validation procedures.
#
#######################################################################

data_WUZMOV
_chemical_formula_moiety         'C8 H25 B10 N1'
_chemical_name_systematic        
1-(Di-isopropylamino)-1,2-dicarba-closo-dodecaborane
_symmetry_cell_setting           monoclinic
_symmetry_space_group_name_H-M   'P 21/c'
_symmetry_Int_Tables_number      14
_space_group_name_Hall           '-P 2ybc'
loop_
_symmetry_equiv_pos_site_id
_symmetry_equiv_pos_as_xyz
1 x,y,z
2 -x,1/2+y,1/2-z
3 -x,-y,-z
4 x,1/2-y,1/2+z
_cell_length_a                   12.202(3)
_cell_length_b                   6.7569(16)
_cell_length_c                   18.418(5)
_cell_angle_alpha                90
_cell_angle_beta                 92.381(4)
_cell_angle_gamma                90
_cell_volume                     1517.21
_exptl_crystal_colour            colorless
_exptl_crystal_description       plate
_cell_formula_units_Z            4
loop_
_atom_site_label
_atom_site_type_symbol
_atom_site_fract_x
_atom_site_fract_y
_atom_site_fract_z
B1 B 0.12806(17) 0.0590(3) 0.22204(10)
H1 H 0.0612 0.0367 0.1793
B2 B 0.24693(18) -0.0939(3) 0.22803(11)
H2 H 0.2579 -0.2264 0.1925
B3 B 0.35678(18) 0.0687(3) 0.25453(11)
H3 H 0.4424 0.0482 0.2362
B4 B 0.29666(18) 0.3105(3) 0.26711(10)
H4 H 0.3401 0.4514 0.2542
B5 B 0.09822(18) 0.1390(3) 0.31224(11)
H5 H 0.0124 0.1603 0.3302
B6 B 0.15389(18) -0.1011(3) 0.29760(10)
H6 H 0.1038 -0.2373 0.3063
B7 B 0.29722(18) -0.0895(3) 0.31955(11)
H7 H 0.3438 -0.2171 0.3444
B8 B 0.3308(2) 0.1600(3) 0.34308(11)
H8 H 0.4004 0.1989 0.3820
B9 B 0.20696(19) 0.2971(3) 0.34155(10)
H9 H 0.1946 0.4234 0.3797
B10 B 0.2058(2) 0.0476(3) 0.37126(11)
H10 H 0.1920 0.0080 0.4292
C1 C 0.25405(15) 0.1429(3) 0.19555(9)
C2 C 0.15990(15) 0.2884(3) 0.25460(9)
H11 H 0.1118 0.4200 0.2344
C3 C 0.37999(15) 0.2889(3) 0.10955(9)
H12 H 0.4221 0.3077 0.1568
C4 C 0.36902(19) 0.4908(3) 0.07337(10)
H13 H 0.3266 0.5789 0.1038
H14 H 0.3312 0.4764 0.0257
H15 H 0.4421 0.5470 0.0673
C5 C 0.44538(17) 0.1458(3) 0.06368(11)
H16 H 0.4510 0.0173 0.0883
H17 H 0.5190 0.1993 0.0575
H18 H 0.4079 0.1291 0.0160
C6 C 0.19328(15) 0.1757(3) 0.06324(9)
H19 H 0.2337 0.2209 0.0201
C7 C 0.09317(16) 0.3118(3) 0.06518(10)
H20 H 0.1173 0.4475 0.0758
H21 H 0.0449 0.2667 0.1030
H22 H 0.0532 0.3085 0.0179
C8 C 0.16311(18) -0.0391(3) 0.04675(10)
H23 H 0.2300 -0.1193 0.0464
H24 H 0.1245 -0.0470 -0.0009
H25 H 0.1154 -0.0891 0.0842
N1 N 0.27204(12) 0.2036(2) 0.12616(7)
loop_
_geom_bond_atom_site_label_1
_geom_bond_atom_site_label_2
_geom_bond_site_symmetry_1
_geom_bond_site_symmetry_2
B1 H1 1_555 1_555
B2 B1 1_555 1_555
H2 B2 1_555 1_555
B3 B2 1_555 1_555
H3 B3 1_555 1_555
B4 B3 1_555 1_555
H4 B4 1_555 1_555
B5 B1 1_555 1_555
H5 B5 1_555 1_555
B6 B1 1_555 1_555
H6 B6 1_555 1_555
B7 B2 1_555 1_555
H7 B7 1_555 1_555
B8 B3 1_555 1_555
H8 B8 1_555 1_555
B9 B4 1_555 1_555
H9 B9 1_555 1_555
B10 B5 1_555 1_555
H10 B10 1_555 1_555
C1 B1 1_555 1_555
C2 B1 1_555 1_555
H11 C2 1_555 1_555
C3 H12 1_555 1_555
C4 C3 1_555 1_555
H13 C4 1_555 1_555
H14 C4 1_555 1_555
H15 C4 1_555 1_555
C5 C3 1_555 1_555
H16 C5 1_555 1_555
H17 C5 1_555 1_555
H18 C5 1_555 1_555
C6 H19 1_555 1_555
C7 C6 1_555 1_555
H20 C7 1_555 1_555
H21 C7 1_555 1_555
H22 C7 1_555 1_555
C8 C6 1_555 1_555
H23 C8 1_555 1_555
H24 C8 1_555 1_555
H25 C8 1_555 1_555
N1 C1 1_555 1_555
B2 B6 1_555 1_555
B2 C1 1_555 1_555
B3 B7 1_555 1_555
B3 C1 1_555 1_555
B4 B8 1_555 1_555
B4 C1 1_555 1_555
B4 C2 1_555 1_555
B5 B6 1_555 1_555
B5 B9 1_555 1_555
B5 C2 1_555 1_555
B6 B7 1_555 1_555
B6 B10 1_555 1_555
B7 B8 1_555 1_555
B7 B10 1_555 1_555
B8 B9 1_555 1_555
B8 B10 1_555 1_555
B9 B10 1_555 1_555
B9 C2 1_555 1_555
C1 C2 1_555 1_555
C3 N1 1_555 1_555
C6 N1 1_555 1_555

#END
