
#######################################################################
#
#                 Cambridge Crystallographic Data Centre
#                                CCDC 
#
#######################################################################
#
# If this CIF has been generated from an entry in the Cambridge 
# Structural Database, then it will include bibliographic, chemical, 
# crystal, experimental, refinement or atomic coordinate data resulting 
# from the CCDC's data processing and validation procedures.
#
#######################################################################

data_WUZMAH
_chemical_formula_moiety         'C56 H73 N4 O3 1+,C1 F3 O3 S1 1-,2(C1 H2 Cl2)'
_chemical_name_systematic        
'4-(2-(1,3-bis(2,6-Di-isopropylphenyl)-2-hydroxy-5-oxoimidazolidin-4-ylidene)ethylidene)-1,3-bis(2,6-di-isopropylphenyl)-5-oxo-4,5-dihydro-1H-imidazol-3-ium trifluoromethanesulfonate dichloromethane solvate'
_symmetry_cell_setting           monoclinic
_symmetry_space_group_name_H-M   'P 21/n'
_symmetry_Int_Tables_number      14
_space_group_name_Hall           '-P 2yn'
loop_
_symmetry_equiv_pos_site_id
_symmetry_equiv_pos_as_xyz
1 x,y,z
2 1/2-x,1/2+y,1/2-z
3 -x,-y,-z
4 1/2+x,1/2-y,1/2+z
_cell_length_a                   15.861(2)
_cell_length_b                   20.409(3)
_cell_length_c                   20.452(3)
_cell_angle_alpha                90
_cell_angle_beta                 103.081(2)
_cell_angle_gamma                90
_cell_volume                     6448.66
_exptl_crystal_colour            yellow
_exptl_crystal_description       block
_cell_formula_units_Z            4
loop_
_atom_site_label
_atom_site_type_symbol
_atom_site_fract_x
_atom_site_fract_y
_atom_site_fract_z
N1 N 0.38126(17) 0.16490(13) 0.28161(13)
N2 N 0.32244(18) 0.15959(13) 0.17284(13)
N3 N 0.75419(18) 0.18489(14) 0.25088(14)
N4 N 0.81063(18) 0.18290(14) 0.36065(13)
O1 O 0.44444(16) 0.17629(13) 0.13052(11)
O2 O 0.68467(17) 0.19250(14) 0.39970(12)
C1 C 0.4484(2) 0.17574(15) 0.25013(15)
C2 C 0.4098(2) 0.17164(15) 0.17724(16)
C3 C 0.5330(2) 0.18577(15) 0.28214(15)
H1 H 0.5467 0.1900 0.3296
C4 C 0.5999(2) 0.19005(16) 0.24836(16)
H2 H 0.5856 0.1932 0.2008
C5 C 0.6854(2) 0.18986(16) 0.28096(16)
C6 C 0.7216(2) 0.18929(17) 0.35413(16)
C7 C 0.3926(2) 0.15872(19) 0.35370(17)
C8 C 0.3830(2) 0.2147(2) 0.38989(19)
C9 C 0.3970(3) 0.2060(3) 0.4607(2)
H3 H 0.3913 0.2424 0.4883
C10 C 0.4181(4) 0.1467(4) 0.4891(3)
H4 H 0.4269 0.1425 0.5364
C11 C 0.4275(4) 0.0920(3) 0.4515(2)
H5 H 0.4421 0.0509 0.4729
C12 C 0.4156(3) 0.0976(2) 0.3829(2)
C13 C 0.3595(3) 0.2794(2) 0.3572(2)
H6 H 0.3720 0.2766 0.3115
C14 C 0.2621(4) 0.2941(3) 0.3465(4)
H7 H 0.2288 0.2595 0.3188
H8 H 0.2492 0.3364 0.3239
H9 H 0.2461 0.2955 0.3901
C15 C 0.4128(6) 0.3366(4) 0.3927(5)
H10 H 0.3908 0.3495 0.4319
H11 H 0.4083 0.3738 0.3618
H12 H 0.4735 0.3233 0.4073
C16 C 0.4285(4) 0.0379(2) 0.3426(3)
H13 H 0.4146 0.0504 0.2941
C17 C 0.3666(7) -0.0161(3) 0.3522(5)
H14 H 0.3685 -0.0213 0.4002
H15 H 0.3837 -0.0574 0.3343
H16 H 0.3077 -0.0046 0.3284
C18 C 0.5249(5) 0.0166(4) 0.3622(4)
H17 H 0.5430 0.0120 0.4110
H18 H 0.5608 0.0498 0.3470
H19 H 0.5318 -0.0254 0.3409
C19 C 0.2602(2) 0.14846(17) 0.11047(17)
C20 C 0.2077(2) 0.19985(18) 0.08184(18)
C21 C 0.1501(3) 0.1881(2) 0.0206(2)
H20 H 0.1125 0.2220 -0.0004
C22 C 0.1475(3) 0.1275(2) -0.0097(2)
H21 H 0.1089 0.1205 -0.0520
C23 C 0.1994(3) 0.0773(2) 0.0200(2)
H22 H 0.1949 0.0356 -0.0011
C24 C 0.2588(3) 0.08635(19) 0.0808(2)
C25 C 0.2100(3) 0.26652(18) 0.11555(19)
H23 H 0.2592 0.2656 0.1560
C26 C 0.2289(5) 0.3206(3) 0.0704(3)
H24 H 0.1821 0.3228 0.0299
H25 H 0.2838 0.3115 0.0578
H26 H 0.2330 0.3625 0.0942
C27 C 0.1279(4) 0.2790(3) 0.1405(3)
H27 H 0.1337 0.3202 0.1656
H28 H 0.1189 0.2429 0.1698
H29 H 0.0783 0.2818 0.1020
C28 C 0.3047(2) 0.15370(17) 0.23618(17)
C29 C 0.8320(2) 0.1764(2) 0.29816(18)
C30 C 0.3249(11) 0.0319(7) 0.1043(8)
H30 H 0.3592 0.0456 0.1495
C31 C 0.3900(7) 0.0190(5) 0.0618(5)
H31 H 0.3599 0.0024 0.0177
H32 H 0.4323 -0.0136 0.0841
H33 H 0.4201 0.0598 0.0560
C32 C 0.2773(8) -0.0310(4) 0.1154(7)
H34 H 0.2401 -0.0222 0.1467
H35 H 0.3196 -0.0649 0.1341
H36 H 0.2416 -0.0460 0.0724
H37 H 0.2504 0.1439 0.2460
H38 H 0.8788 0.2070 0.2918
O3 O 0.8539(5) 0.1018(4) 0.2902(3)
H39 H 0.9006 0.0925 0.3173
C33 C 0.7455(2) 0.1835(2) 0.17922(17)
C34 C 0.7624(3) 0.2423(3) 0.1486(2)
C35 C 0.7472(4) 0.2419(4) 0.0790(3)
H40 H 0.7580 0.2805 0.0562
C36 C 0.7172(4) 0.1873(5) 0.0430(3)
H41 H 0.7057 0.1889 -0.0047
C37 C 0.7032(4) 0.1301(4) 0.0741(3)
H42 H 0.6836 0.0922 0.0481
C38 C 0.7177(3) 0.1274(3) 0.1445(2)
C39 C 0.7953(4) 0.3030(3) 0.1882(3)
H43 H 0.7855 0.2967 0.2344
C40 C 0.8950(5) 0.3126(4) 0.1955(5)
H44 H 0.9259 0.2744 0.2181
H45 H 0.9140 0.3520 0.2221
H46 H 0.9073 0.3174 0.1509
C41 C 0.7486(8) 0.3645(4) 0.1606(6)
H47 H 0.7526 0.3703 0.1138
H48 H 0.7752 0.4021 0.1873
H49 H 0.6877 0.3612 0.1627
C42 C 0.7034(4) 0.0646(3) 0.1784(3)
H50 H 0.7096 0.0745 0.2271
C43 C 0.6162(5) 0.0351(4) 0.1534(5)
H51 H 0.6045 0.0307 0.1045
H52 H 0.5723 0.0634 0.1657
H53 H 0.6144 -0.0082 0.1738
C44 C 0.7760(6) 0.0149(4) 0.1729(5)
H54 H 0.7767 0.0083 0.1256
H55 H 0.7649 -0.0270 0.1927
H56 H 0.8322 0.0321 0.1970
C45 C 0.8713(2) 0.17693(18) 0.42422(16)
C46 C 0.9195(2) 0.2314(2) 0.45036(18)
C47 C 0.9753(3) 0.2246(3) 0.5139(2)
H57 H 1.0104 0.2605 0.5331
C48 C 0.9797(3) 0.1678(3) 0.5477(2)
H58 H 1.0164 0.1646 0.5913
C49 C 0.9321(3) 0.1144(2) 0.5204(2)
H59 H 0.9377 0.0746 0.5450
C50 C 0.8758(3) 0.1174(2) 0.45745(19)
C51 C 0.9097(3) 0.2964(2) 0.4147(2)
H60 H 0.8862 0.2869 0.3660
C52 C 0.9944(4) 0.3336(3) 0.4195(4)
H61 H 1.0205 0.3433 0.4667
H62 H 0.9828 0.3746 0.3943
H63 H 1.0344 0.3067 0.4007
C53 C 0.8422(5) 0.3355(3) 0.4379(4)
H64 H 0.7924 0.3075 0.4390
H65 H 0.8236 0.3720 0.4068
H66 H 0.8664 0.3527 0.4829
C54 C 0.8246(3) 0.0571(2) 0.4275(2)
H67 H 0.7906 0.0688 0.3816
C55 C 0.7613(4) 0.0344(3) 0.4686(3)
H68 H 0.7924 0.0269 0.5151
H69 H 0.7337 -0.0065 0.4497
H70 H 0.7169 0.0680 0.4674
C56 C 0.8896(4) 0.0018(3) 0.4201(4)
H71 H 0.9233 0.0155 0.3878
H72 H 0.8576 -0.0383 0.4040
H73 H 0.9287 -0.0065 0.4637
S1 S 0.06929(9) 0.13293(9) 0.30492(8)
O5 O 0.0030(3) 0.0851(2) 0.2896(2)
O6 O 0.0352(3) 0.1985(2) 0.3137(3)
O7 O 0.1319(3) 0.1318(4) 0.2663(3)
C60 C 0.1271(4) 0.1138(3) 0.3868(4)
F1 F 0.0811(3) 0.1121(3) 0.4305(2)
F2 F 0.1621(5) 0.0538(3) 0.3883(3)
F3 F 0.1931(3) 0.1497(4) 0.4090(3)
C61 C 0.0215(4) 0.0877(3) 0.1165(4)
H84 H 0.0657 0.1030 0.0927
H85 H 0.0489 0.0863 0.1650
Cl1 Cl -0.06104(13) 0.14376(11) 0.10390(13)
Cl2 Cl -0.00852(17) 0.01029(12) 0.09021(15)
C62 C 0.9839(10) 0.0743(4) 0.7325(7)
H86 H 0.9982 0.0560 0.6916
H87 H 0.9903 0.0388 0.7662
Cl3 Cl 1.0559(3) 0.13471(13) 0.7630(2)
Cl4 Cl 0.8800(3) 0.0992(3) 0.7137(2)
H74? H 0.2603 0.1866 0.2419
O4? O 0.2727(4) 0.0884(4) 0.2404(4)
H75? H 0.2293 0.0895 0.2575
H76? H 0.8875 0.1681 0.2898
C57? C 0.3074(18) 0.0308(10) 0.1256(11)
H77? H 0.3586 0.0507 0.1569
C58? C 0.3405(16) -0.0125(10) 0.0772(9)
H78? H 0.2968 -0.0458 0.0591
H79? H 0.3940 -0.0341 0.1007
H80? H 0.3521 0.0141 0.0404
C59? C 0.2548(11) -0.0065(7) 0.1680(9)
H81? H 0.2008 -0.0223 0.1390
H82? H 0.2415 0.0228 0.2023
H83? H 0.2886 -0.0439 0.1899
loop_
_geom_bond_atom_site_label_1
_geom_bond_atom_site_label_2
_geom_bond_site_symmetry_1
_geom_bond_site_symmetry_2
N1 C1 1_555 1_555
N2 C2 1_555 1_555
N3 C5 1_555 1_555
N4 C6 1_555 1_555
O1 C2 1_555 1_555
O2 C6 1_555 1_555
C1 C2 1_555 1_555
C3 C1 1_555 1_555
H1 C3 1_555 1_555
C4 C3 1_555 1_555
H2 C4 1_555 1_555
C5 C4 1_555 1_555
C6 C5 1_555 1_555
C7 N1 1_555 1_555
C8 C7 1_555 1_555
C9 C8 1_555 1_555
H3 C9 1_555 1_555
C10 C9 1_555 1_555
H4 C10 1_555 1_555
C11 C10 1_555 1_555
H5 C11 1_555 1_555
C12 C7 1_555 1_555
C13 C8 1_555 1_555
H6 C13 1_555 1_555
C14 C13 1_555 1_555
H7 C14 1_555 1_555
H8 C14 1_555 1_555
H9 C14 1_555 1_555
C15 C13 1_555 1_555
H10 C15 1_555 1_555
H11 C15 1_555 1_555
H12 C15 1_555 1_555
C16 C12 1_555 1_555
H13 C16 1_555 1_555
C17 C16 1_555 1_555
H14 C17 1_555 1_555
H15 C17 1_555 1_555
H16 C17 1_555 1_555
C18 C16 1_555 1_555
H17 C18 1_555 1_555
H18 C18 1_555 1_555
H19 C18 1_555 1_555
C19 N2 1_555 1_555
C20 C19 1_555 1_555
C21 C20 1_555 1_555
H20 C21 1_555 1_555
C22 C21 1_555 1_555
H21 C22 1_555 1_555
C23 C22 1_555 1_555
H22 C23 1_555 1_555
C24 C19 1_555 1_555
C25 C20 1_555 1_555
H23 C25 1_555 1_555
C26 C25 1_555 1_555
H24 C26 1_555 1_555
H25 C26 1_555 1_555
H26 C26 1_555 1_555
C27 C25 1_555 1_555
H27 C27 1_555 1_555
H28 C27 1_555 1_555
H29 C27 1_555 1_555
C28 N1 1_555 1_555
C29 N3 1_555 1_555
C30 C24 1_555 1_555
H30 C30 1_555 1_555
C31 C30 1_555 1_555
H31 C31 1_555 1_555
H32 C31 1_555 1_555
H33 C31 1_555 1_555
C32 C30 1_555 1_555
H34 C32 1_555 1_555
H35 C32 1_555 1_555
H36 C32 1_555 1_555
H37 C28 1_555 1_555
H38 C29 1_555 1_555
O3 C29 1_555 1_555
H39 O3 1_555 1_555
C33 N3 1_555 1_555
C34 C33 1_555 1_555
C35 C34 1_555 1_555
H40 C35 1_555 1_555
C36 C35 1_555 1_555
H41 C36 1_555 1_555
C37 C36 1_555 1_555
H42 C37 1_555 1_555
C38 C33 1_555 1_555
C39 C34 1_555 1_555
H43 C39 1_555 1_555
C40 C39 1_555 1_555
H44 C40 1_555 1_555
H45 C40 1_555 1_555
H46 C40 1_555 1_555
C41 C39 1_555 1_555
H47 C41 1_555 1_555
H48 C41 1_555 1_555
H49 C41 1_555 1_555
C42 C38 1_555 1_555
H50 C42 1_555 1_555
C43 C42 1_555 1_555
H51 C43 1_555 1_555
H52 C43 1_555 1_555
H53 C43 1_555 1_555
C44 C42 1_555 1_555
H54 C44 1_555 1_555
H55 C44 1_555 1_555
H56 C44 1_555 1_555
C45 N4 1_555 1_555
C46 C45 1_555 1_555
C47 C46 1_555 1_555
H57 C47 1_555 1_555
C48 C47 1_555 1_555
H58 C48 1_555 1_555
C49 C48 1_555 1_555
H59 C49 1_555 1_555
C50 C45 1_555 1_555
C51 C46 1_555 1_555
H60 C51 1_555 1_555
C52 C51 1_555 1_555
H61 C52 1_555 1_555
H62 C52 1_555 1_555
H63 C52 1_555 1_555
C53 C51 1_555 1_555
H64 C53 1_555 1_555
H65 C53 1_555 1_555
H66 C53 1_555 1_555
C54 C50 1_555 1_555
H67 C54 1_555 1_555
C55 C54 1_555 1_555
H68 C55 1_555 1_555
H69 C55 1_555 1_555
H70 C55 1_555 1_555
C56 C54 1_555 1_555
H71 C56 1_555 1_555
H72 C56 1_555 1_555
H73 C56 1_555 1_555
S1 O5 1_555 1_555
O6 S1 1_555 1_555
O7 S1 1_555 1_555
C60 S1 1_555 1_555
F1 C60 1_555 1_555
F2 C60 1_555 1_555
F3 C60 1_555 1_555
C61 H84 1_555 1_555
H85 C61 1_555 1_555
Cl1 C61 1_555 1_555
Cl2 C61 1_555 1_555
C62 H86 1_555 1_555
H87 C62 1_555 1_555
Cl3 C62 1_555 1_555
Cl4 C62 1_555 1_555
N2 C28 1_555 1_555
N4 C29 1_555 1_555
C11 C12 1_555 1_555
C23 C24 1_555 1_555
C37 C38 1_555 1_555
C49 C50 1_555 1_555

#END
