
#######################################################################
#
#                 Cambridge Crystallographic Data Centre
#                                CCDC 
#
#######################################################################
#
# If this CIF has been generated from an entry in the Cambridge 
# Structural Database, then it will include bibliographic, chemical, 
# crystal, experimental, refinement or atomic coordinate data resulting 
# from the CCDC's data processing and validation procedures.
#
#######################################################################

data_WUZNAI
_chemical_formula_moiety         'C14 H21 B10 N1'
_chemical_name_systematic        
1-(Diphenylamino)-1,2-dicarba-closo-dodecaborane
_symmetry_cell_setting           orthorhombic
_symmetry_space_group_name_H-M   'P 21 21 21'
_symmetry_Int_Tables_number      19
_space_group_name_Hall           'P 2ac 2ab'
loop_
_symmetry_equiv_pos_site_id
_symmetry_equiv_pos_as_xyz
1 x,y,z
2 1/2-x,-y,1/2+z
3 -x,1/2+y,1/2-z
4 1/2+x,1/2-y,-z
_cell_length_a                   8.8618(7)
_cell_length_b                   12.9385(10)
_cell_length_c                   14.9806(12)
_cell_angle_alpha                90
_cell_angle_beta                 90
_cell_angle_gamma                90
_cell_volume                     1717.65
_exptl_crystal_colour            colorless
_exptl_crystal_description       prism
_cell_formula_units_Z            4
loop_
_atom_site_label
_atom_site_type_symbol
_atom_site_fract_x
_atom_site_fract_y
_atom_site_fract_z
N1 N 0.1873(2) 0.45642(19) 0.43930(15)
B1 B -0.0372(3) 0.4351(2) 0.3217(2)
H1 H -0.1022 0.5043 0.3449
B2 B 0.1293(3) 0.4406(2) 0.26697(17)
H2 H 0.1764 0.5194 0.2536
B3 B 0.2546(3) 0.3435(2) 0.2927(2)
H3 H 0.3800 0.3530 0.2969
B4 B 0.1542(3) 0.2603(2) 0.36516(19)
H4 H 0.2129 0.2127 0.4170
B5 B -0.1250(4) 0.3232(2) 0.2816(2)
H5 H -0.2510 0.3164 0.2787
B6 B -0.0251(4) 0.4035(3) 0.2071(2)
H6 H -0.0831 0.4504 0.1545
B7 B 0.1564(4) 0.3482(3) 0.1893(2)
H7 H 0.2182 0.3601 0.1249
B8 B 0.1669(4) 0.2307(3) 0.2507(2)
H8 H 0.2342 0.1631 0.2264
B9 B -0.0066(4) 0.2152(2) 0.3077(2)
H9 H -0.0551 0.1369 0.3217
B10 B -0.0047(4) 0.2676(3) 0.1984(2)
H10 H -0.0506 0.2238 0.1399
C1 C 0.1322(3) 0.39221(19) 0.37131(15)
C2 C -0.0253(3) 0.3191(2) 0.3845(2)
H11 H -0.0850 0.3109 0.4500
C3 C 0.1051(3) 0.4650(2) 0.52201(17)
C4 C 0.1235(3) 0.3908(2) 0.58779(18)
H12 H 0.1886 0.3335 0.5783
C5 C 0.0457(3) 0.4012(3) 0.66790(19)
H13 H 0.0577 0.3507 0.7133
C6 C -0.0492(3) 0.4848(2) 0.6819(2)
H14 H -0.1017 0.4918 0.7369
C7 C -0.0668(3) 0.5573(2) 0.6160(2)
H15 H -0.1327 0.6142 0.6253
C8 C 0.0111(3) 0.5483(2) 0.53533(18)
H16 H -0.0006 0.5992 0.4901
C9 C 0.3382(3) 0.4976(2) 0.43850(16)
C10 C 0.3581(3) 0.6003(2) 0.41547(19)
H17 H 0.2740 0.6409 0.3978
C11 C 0.5007(4) 0.6436(2) 0.4182(2)
H18 H 0.5143 0.7141 0.4025
C12 C 0.6230(3) 0.5849(2) 0.44382(18)
H19 H 0.7207 0.6151 0.4460
C13 C 0.6039(3) 0.4831(2) 0.46602(19)
H20 H 0.6885 0.4426 0.4830
C14 C 0.4606(3) 0.4387(2) 0.46386(18)
H21 H 0.4473 0.3682 0.4798
loop_
_geom_bond_atom_site_label_1
_geom_bond_atom_site_label_2
_geom_bond_site_symmetry_1
_geom_bond_site_symmetry_2
N1 C1 1_555 1_555
B1 H1 1_555 1_555
B2 B1 1_555 1_555
H2 B2 1_555 1_555
B3 B2 1_555 1_555
H3 B3 1_555 1_555
B4 B3 1_555 1_555
H4 B4 1_555 1_555
B5 B1 1_555 1_555
H5 B5 1_555 1_555
B6 B1 1_555 1_555
H6 B6 1_555 1_555
B7 B2 1_555 1_555
H7 B7 1_555 1_555
B8 B3 1_555 1_555
H8 B8 1_555 1_555
B9 B4 1_555 1_555
H9 B9 1_555 1_555
B10 B5 1_555 1_555
H10 B10 1_555 1_555
C1 B1 1_555 1_555
C2 B1 1_555 1_555
H11 C2 1_555 1_555
C3 N1 1_555 1_555
C4 C3 1_555 1_555
H12 C4 1_555 1_555
C5 C4 1_555 1_555
H13 C5 1_555 1_555
C6 C5 1_555 1_555
H14 C6 1_555 1_555
C7 C6 1_555 1_555
H15 C7 1_555 1_555
C8 C3 1_555 1_555
H16 C8 1_555 1_555
C9 N1 1_555 1_555
C10 C9 1_555 1_555
H17 C10 1_555 1_555
C11 C10 1_555 1_555
H18 C11 1_555 1_555
C12 C11 1_555 1_555
H19 C12 1_555 1_555
C13 C12 1_555 1_555
H20 C13 1_555 1_555
C14 C9 1_555 1_555
H21 C14 1_555 1_555
B2 B6 1_555 1_555
B2 C1 1_555 1_555
B3 B7 1_555 1_555
B3 C1 1_555 1_555
B4 B8 1_555 1_555
B4 C1 1_555 1_555
B4 C2 1_555 1_555
B5 B6 1_555 1_555
B5 B9 1_555 1_555
B5 C2 1_555 1_555
B6 B7 1_555 1_555
B6 B10 1_555 1_555
B7 B8 1_555 1_555
B7 B10 1_555 1_555
B8 B9 1_555 1_555
B8 B10 1_555 1_555
B9 B10 1_555 1_555
B9 C2 1_555 1_555
C1 C2 1_555 1_555
C7 C8 1_555 1_555
C13 C14 1_555 1_555

#END
