
#######################################################################
#
#                 Cambridge Crystallographic Data Centre
#                                CCDC 
#
#######################################################################
#
# If this CIF has been generated from an entry in the Cambridge 
# Structural Database, then it will include bibliographic, chemical, 
# crystal, experimental, refinement or atomic coordinate data resulting 
# from the CCDC's data processing and validation procedures.
#
#######################################################################

data_XABWIJ
_chemical_formula_moiety         'C19 H17 N1 O4'
_chemical_name_systematic        
'2-((4-acetylphenyl)amino)-2-oxoethyl 3-phenylacrylate'
_symmetry_cell_setting           orthorhombic
_symmetry_space_group_name_H-M   'P c a 21'
_symmetry_Int_Tables_number      29
_space_group_name_Hall           'P 2c -2ac'
loop_
_symmetry_equiv_pos_site_id
_symmetry_equiv_pos_as_xyz
1 x,y,z
2 -x,-y,1/2+z
3 1/2+x,-y,z
4 1/2-x,y,1/2+z
_cell_length_a                   9.7969(15)
_cell_length_b                   17.594(3)
_cell_length_c                   9.6425(15)
_cell_angle_alpha                90
_cell_angle_beta                 90
_cell_angle_gamma                90
_cell_volume                     1662.05
_exptl_crystal_colour            colorless
_exptl_crystal_description       plate
_cell_formula_units_Z            4
loop_
_atom_site_label
_atom_site_type_symbol
_atom_site_fract_x
_atom_site_fract_y
_atom_site_fract_z
O1 O 0.8574(4) 0.3135(2) 0.4874(4)
C1 C 0.7449(7) 0.2863(2) 0.4653(5)
C2 C 0.7323(5) 0.2206(2) 0.3704(4)
C3 C 0.6205(6) 0.3195(3) 0.5314(6)
H1 H 0.6472 0.3529 0.6052
H2 H 0.5646 0.2794 0.5679
H3 H 0.5697 0.3476 0.4634
C4 C 0.8482(4) 0.1850(3) 0.3212(6)
H4 H 0.9328 0.2024 0.3512
C5 C 0.8442(4) 0.1257(2) 0.2308(5)
H5 H 0.9247 0.1026 0.2015
C6 C 0.7192(3) 0.0999(2) 0.1828(4)
C7 C 0.6030(4) 0.1343(2) 0.2313(5)
H6 H 0.5182 0.1172 0.2013
C8 C 0.6099(4) 0.1936(2) 0.3230(5)
H7 H 0.5295 0.2160 0.3538
N1 N 0.7033(3) 0.04028(18) 0.0870(3)
H8 H 0.620(4) 0.025(2) 0.062(5)
C9 C 0.7993(4) -0.0064(2) 0.0340(5)
O2 O 0.9198(2) -0.00278(15) 0.0659(4)
C10 C 0.7502(5) -0.0647(2) -0.0685(4)
H9 H 0.6513 -0.0672 -0.0666
H10 H 0.7783 -0.0504 -0.1613
O3 O 0.8069(3) -0.13785(15) -0.0332(3)
C11 C 0.7484(4) -0.1718(2) 0.0733(5)
O4 O 0.6561(3) -0.14411(17) 0.1369(4)
C12 C 0.8134(4) -0.2450(2) 0.1080(5)
H11 H 0.8902 -0.2609 0.0592
C13 C 0.7634(4) -0.2880(2) 0.2077(4)
H12 H 0.6871 -0.2690 0.2535
C14 C 0.8132(4) -0.3621(2) 0.2553(4)
C15 C 0.9287(4) -0.3959(2) 0.1999(5)
H13 H 0.9788 -0.3709 0.1318
C16 C 0.9695(5) -0.4671(3) 0.2463(6)
H14 H 1.0464 -0.4901 0.2082
C17 C 0.8971(6) -0.5038(3) 0.3482(6)
H15 H 0.9246 -0.5516 0.3783
C18 C 0.7852(5) -0.4703(3) 0.4052(5)
H16 H 0.7373 -0.4946 0.4755
C19 C 0.7430(5) -0.3997(2) 0.3580(5)
H17 H 0.6658 -0.3773 0.3965
loop_
_geom_bond_atom_site_label_1
_geom_bond_atom_site_label_2
_geom_bond_site_symmetry_1
_geom_bond_site_symmetry_2
O1 C1 1_555 1_555
C1 C2 1_555 1_555
C2 C4 1_555 1_555
C3 C1 1_555 1_555
H1 C3 1_555 1_555
H2 C3 1_555 1_555
H3 C3 1_555 1_555
C4 H4 1_555 1_555
C5 C4 1_555 1_555
H5 C5 1_555 1_555
C6 C5 1_555 1_555
C7 C6 1_555 1_555
H6 C7 1_555 1_555
C8 C2 1_555 1_555
H7 C8 1_555 1_555
N1 C6 1_555 1_555
H8 N1 1_555 1_555
C9 N1 1_555 1_555
O2 C9 1_555 1_555
C10 C9 1_555 1_555
H9 C10 1_555 1_555
H10 C10 1_555 1_555
O3 C10 1_555 1_555
C11 O3 1_555 1_555
O4 C11 1_555 1_555
C12 C11 1_555 1_555
H11 C12 1_555 1_555
C13 C12 1_555 1_555
H12 C13 1_555 1_555
C14 C13 1_555 1_555
C15 C14 1_555 1_555
H13 C15 1_555 1_555
C16 C15 1_555 1_555
H14 C16 1_555 1_555
C17 C16 1_555 1_555
H15 C17 1_555 1_555
C18 C17 1_555 1_555
H16 C18 1_555 1_555
C19 C14 1_555 1_555
H17 C19 1_555 1_555
C7 C8 1_555 1_555
C18 C19 1_555 1_555

#END
