
#######################################################################
#
#                 Cambridge Crystallographic Data Centre
#                                CCDC 
#
#######################################################################
#
# If this CIF has been generated from an entry in the Cambridge 
# Structural Database, then it will include bibliographic, chemical, 
# crystal, experimental, refinement or atomic coordinate data resulting 
# from the CCDC's data processing and validation procedures.
#
#######################################################################

data_XACFAK
_chemical_formula_moiety         'C17 H18 I1 N1 O1'
_chemical_name_systematic        
N-Benzyl-N-(2-iodo-4,6-dimethylphenyl)acetamide
_symmetry_cell_setting           orthorhombic
_symmetry_space_group_name_H-M   'P 21 21 21'
_symmetry_Int_Tables_number      19
_space_group_name_Hall           'P 2ac 2ab'
loop_
_symmetry_equiv_pos_site_id
_symmetry_equiv_pos_as_xyz
1 x,y,z
2 1/2-x,-y,1/2+z
3 -x,1/2+y,1/2-z
4 1/2+x,1/2-y,-z
_cell_length_a                   9.1093(3)
_cell_length_b                   10.1239(3)
_cell_length_c                   17.6114(5)
_cell_angle_alpha                90
_cell_angle_beta                 90
_cell_angle_gamma                90
_cell_volume                     1624.15
_exptl_crystal_colour            colorless
_exptl_crystal_description       plate
_cell_formula_units_Z            4
loop_
_atom_site_label
_atom_site_type_symbol
_atom_site_fract_x
_atom_site_fract_y
_atom_site_fract_z
N1 N 0.8983(3) 0.9443(3) 0.83683(17)
C1 C 0.8931(4) 1.0583(4) 0.8768(3)
O1 O 0.8786(4) 1.1660(3) 0.8458(2)
C2 C 0.9095(5) 1.0477(4) 0.9624(2)
H1 H 0.8721 1.1273 0.9861
H2 H 1.0124 1.0369 0.9752
H3 H 0.8546 0.9720 0.9806
C3 C 0.9147(4) 0.8173(4) 0.8714(2)
C4 C 1.0552(4) 0.7626(4) 0.8796(2)
I1 I 1.24033(2) 0.87117(3) 0.846666(15)
C5 C 1.0751(4) 0.6383(4) 0.9097(2)
H4 H 1.1703 0.6036 0.9146
C6 C 0.9552(5) 0.5644(4) 0.9328(2)
C7 C 0.8162(4) 0.6201(4) 0.9253(2)
H5 H 0.7343 0.5710 0.9415
C8 C 0.7930(4) 0.7454(4) 0.8948(2)
C9 C 0.6376(4) 0.7983(4) 0.8897(2)
H6 H 0.6003 0.7849 0.8387
H7 H 0.6374 0.8919 0.9014
H8 H 0.5756 0.7518 0.9256
C10 C 0.9748(6) 0.4266(4) 0.9644(3)
H9 H 0.9544 0.3623 0.9249
H10 H 0.9076 0.4135 1.0064
H11 H 1.0750 0.4158 0.9820
C11 C 0.8980(4) 0.9495(4) 0.7525(2)
H12 H 0.9734 0.8893 0.7329
H13 H 0.9233 1.0391 0.7360
C12 C 0.7515(4) 0.9118(3) 0.71939(17)
C13 C 0.7290(5) 0.7867(4) 0.6889(2)
H14 H 0.8071 0.7261 0.6867
C14 C 0.5915(5) 0.7509(5) 0.6616(3)
H15 H 0.5767 0.6659 0.6415
C15 C 0.4775(5) 0.8386(5) 0.6640(3)
H16 H 0.3844 0.8135 0.6460
C16 C 0.4988(5) 0.9637(5) 0.6928(3)
H17 H 0.4208 1.0245 0.6936
C17 C 0.6353(4) 0.9996(4) 0.7205(2)
H18 H 0.6491 1.0849 0.7404
loop_
_geom_bond_atom_site_label_1
_geom_bond_atom_site_label_2
_geom_bond_site_symmetry_1
_geom_bond_site_symmetry_2
N1 C1 1_555 1_555
C1 O1 1_555 1_555
C2 C1 1_555 1_555
H1 C2 1_555 1_555
H2 C2 1_555 1_555
H3 C2 1_555 1_555
C3 N1 1_555 1_555
C4 C3 1_555 1_555
I1 C4 1_555 1_555
C5 C4 1_555 1_555
H4 C5 1_555 1_555
C6 C5 1_555 1_555
C7 C6 1_555 1_555
H5 C7 1_555 1_555
C8 C3 1_555 1_555
C9 C8 1_555 1_555
H6 C9 1_555 1_555
H7 C9 1_555 1_555
H8 C9 1_555 1_555
C10 C6 1_555 1_555
H9 C10 1_555 1_555
H10 C10 1_555 1_555
H11 C10 1_555 1_555
C11 N1 1_555 1_555
H12 C11 1_555 1_555
H13 C11 1_555 1_555
C12 C11 1_555 1_555
C13 C12 1_555 1_555
H14 C13 1_555 1_555
C14 C13 1_555 1_555
H15 C14 1_555 1_555
C15 C14 1_555 1_555
H16 C15 1_555 1_555
C16 C15 1_555 1_555
H17 C16 1_555 1_555
C17 C12 1_555 1_555
H18 C17 1_555 1_555
C7 C8 1_555 1_555
C16 C17 1_555 1_555

#END
