
#######################################################################
#
#                 Cambridge Crystallographic Data Centre
#                                CCDC 
#
#######################################################################
#
# If this CIF has been generated from an entry in the Cambridge 
# Structural Database, then it will include bibliographic, chemical, 
# crystal, experimental, refinement or atomic coordinate data resulting 
# from the CCDC's data processing and validation procedures.
#
#######################################################################

data_XACTEC
_chemical_formula_moiety         'C13 H20 O3'
_chemical_name_systematic        
2-(2-Hydroxypropan-2-yl)hexahydro-2H-cyclopropa[e]chromen-6(7H)-one
_symmetry_cell_setting           monoclinic
_symmetry_space_group_name_H-M   'P 21'
_symmetry_Int_Tables_number      4
_space_group_name_Hall           'P 2yb'
loop_
_symmetry_equiv_pos_site_id
_symmetry_equiv_pos_as_xyz
1 x,y,z
2 -x,1/2+y,-z
_cell_length_a                   9.3223(11)
_cell_length_b                   11.2605(11)
_cell_length_c                   12.1482(15)
_cell_angle_alpha                90
_cell_angle_beta                 107.923(4)
_cell_angle_gamma                90
_cell_volume                     1213.36
_exptl_crystal_colour            colorless
_exptl_crystal_description       block
_cell_formula_units_Z            4
loop_
_atom_site_label
_atom_site_type_symbol
_atom_site_fract_x
_atom_site_fract_y
_atom_site_fract_z
O1 O -0.29442(16) 0.41823(13) 0.92460(13)
O2 O -0.12636(19) 0.14006(14) 0.88411(16)
O5 O -0.2256(2) 0.90061(17) 0.8965(2)
C1 C -0.2406(2) 0.53756(19) 0.9426(2)
C2 C -0.2020(2) 0.5814(2) 0.8375(2)
C4 C -0.3916(2) 0.1934(2) 0.8132(2)
C6 C -0.3590(3) 0.6127(2) 0.9709(2)
C7 C -0.1812(2) 0.33945(19) 0.9075(2)
C9 C -0.2407(2) 0.2127(2) 0.9071(2)
C10 C -0.0848(2) 0.5029(2) 0.8107(2)
C12 C -0.1400(2) 0.3749(2) 0.8008(2)
C14 C -0.2018(2) 0.7140(2) 0.8187(2)
C16 C -0.3233(2) 0.6321(2) 0.7390(2)
C18 C -0.3074(3) 0.7416(2) 0.9877(2)
C23 C -0.2458(2) 0.7946(2) 0.8978(2)
C24 C -0.2555(2) 0.1820(2) 1.0246(2)
H1 H -0.4500 0.6083 0.9084
H2 H -0.3758 0.5834 1.0392
H5 H -0.0698 0.5275 0.7403
H6 H 0.0075 0.5091 0.8718
H7 H -0.0629 0.3238 0.7925
H8 H -0.2266 0.3676 0.7349
H11 H -0.3905 0.7891 0.9903
H12 H -0.2301 0.7462 1.0599
H17 H -0.4007 0.2485 0.7521
H18 H -0.4718 0.2051 0.8449
H19 H -0.3957 0.1148 0.7840
H23 H -0.3283 0.1209 1.0165
H24 H -0.2865 0.2506 1.0568
H25 H -0.1609 0.1556 1.0742
H29 H -0.3253 0.6170 0.6616
H30 H -0.4235 0.6362 0.7425
H33 H -0.1517 0.5392 1.0072
H34 H -0.0935 0.3474 0.9726
H36 H -0.1273 0.7430 0.7870
H39 H -0.1737 0.0593 0.8794
O3 O 0.25084(17) 0.63000(13) 0.66079(12)
O4 O 0.1829(2) 0.91314(16) 0.51575(16)
O6 O 0.2492(2) 0.15581(17) 0.55009(19)
C3 C 0.2963(2) 0.47878(19) 0.5347(2)
C5 C 0.2617(2) 0.2598(2) 0.5799(2)
C8 C 0.2516(2) 0.42612(19) 0.72283(19)
C11 C 0.2064(2) 0.7129(2) 0.5664(2)
C13 C 0.2113(2) 0.3000(2) 0.6797(2)
C15 C 0.2149(2) 0.5103(2) 0.6199(2)
C17 C 0.2215(2) 0.8391(2) 0.6169(2)
C19 C 0.2930(3) 0.6904(2) 0.4815(2)
C20 C 0.2630(3) 0.5640(2) 0.4339(2)
C21 C 0.3821(2) 0.8660(2) 0.6944(2)
C22 C 0.4512(2) 0.4272(2) 0.5789(2)
C25 C 0.1102(3) 0.8580(2) 0.6824(2)
C26 C 0.3178(2) 0.3483(2) 0.5139(2)
H3 H 0.1959 0.4484 0.7732
H4 H 0.3564 0.4300 0.7633
H9 H 0.1045 0.2940 0.6562
H10 H 0.2534 0.2471 0.7423
H13 H 0.2619 0.7460 0.4198
H14 H 0.3977 0.6999 0.5201
H15 H 0.3256 0.5470 0.3872
H16 H 0.1602 0.5565 0.3888
H20 H 0.4508 0.8161 0.6725
H21 H 0.3898 0.8517 0.7731
H22 H 0.4055 0.9468 0.6851
H26 H 0.1450 0.9195 0.7377
H27 H 0.0997 0.7866 0.7208
H28 H 0.0153 0.8797 0.6298
H31 H 0.5249 0.4482 0.5430
H32 H 0.4984 0.4168 0.6596
H35 H 0.1027 0.6995 0.5267
H37 H 0.1097 0.5058 0.5812
H38 H 0.3108 0.3272 0.4367
H40 H 0.2087 0.9899 0.5435
loop_
_geom_bond_atom_site_label_1
_geom_bond_atom_site_label_2
_geom_bond_site_symmetry_1
_geom_bond_site_symmetry_2
O1 C1 1_555 1_555
O2 C9 1_555 1_555
O3 C11 1_555 1_555
O4 C17 1_555 1_555
O5 C23 1_555 1_555
O6 C5 1_555 1_555
C1 C2 1_555 1_555
C2 C10 1_555 1_555
C3 C15 1_555 1_555
C4 C9 1_555 1_555
C5 C13 1_555 1_555
C6 C1 1_555 1_555
C7 O1 1_555 1_555
C8 C13 1_555 1_555
C9 C7 1_555 1_555
C10 C12 1_555 1_555
C11 C17 1_555 1_555
C12 C7 1_555 1_555
C13 H9 1_555 1_555
C14 C2 1_555 1_555
C15 O3 1_555 1_555
C16 C2 1_555 1_555
C17 C21 1_555 1_555
C18 C6 1_555 1_555
C19 C11 1_555 1_555
C20 C3 1_555 1_555
C21 H20 1_555 1_555
C22 C3 1_555 1_555
C23 C14 1_555 1_555
C24 C9 1_555 1_555
C25 C17 1_555 1_555
C26 C3 1_555 1_555
H1 C6 1_555 1_555
H2 C6 1_555 1_555
H3 C8 1_555 1_555
H4 C8 1_555 1_555
H5 C10 1_555 1_555
H6 C10 1_555 1_555
H7 C12 1_555 1_555
H8 C12 1_555 1_555
H10 C13 1_555 1_555
H11 C18 1_555 1_555
H12 C18 1_555 1_555
H13 C19 1_555 1_555
H14 C19 1_555 1_555
H15 C20 1_555 1_555
H16 C20 1_555 1_555
H17 C4 1_555 1_555
H18 C4 1_555 1_555
H19 C4 1_555 1_555
H21 C21 1_555 1_555
H22 C21 1_555 1_555
H23 C24 1_555 1_555
H24 C24 1_555 1_555
H25 C24 1_555 1_555
H26 C25 1_555 1_555
H27 C25 1_555 1_555
H28 C25 1_555 1_555
H29 C16 1_555 1_555
H30 C16 1_555 1_555
H31 C22 1_555 1_555
H32 C22 1_555 1_555
H33 C1 1_555 1_555
H34 C7 1_555 1_555
H35 C11 1_555 1_555
H36 C14 1_555 1_555
H37 C15 1_555 1_555
H38 C26 1_555 1_555
H39 O2 1_555 1_555
H40 O4 1_555 1_555
C5 C26 1_555 1_555
C8 C15 1_555 1_555
C14 C16 1_555 1_555
C18 C23 1_555 1_555
C19 C20 1_555 1_555
C22 C26 1_555 1_555

#END
