
#######################################################################
#
#                 Cambridge Crystallographic Data Centre
#                                CCDC 
#
#######################################################################
#
# If this CIF has been generated from an entry in the Cambridge 
# Structural Database, then it will include bibliographic, chemical, 
# crystal, experimental, refinement or atomic coordinate data resulting 
# from the CCDC's data processing and validation procedures.
#
#######################################################################

data_XACWAZ
_chemical_formula_moiety         'C19 H18 N2 O1,C2 H6 O1'
_chemical_name_systematic        
'cis-2-Amino-3-cyano-4-phenyl-1-(p-tolyl)cyclopent-2-en-1-ol ethanol solvate'
_symmetry_cell_setting           triclinic
_symmetry_space_group_name_H-M   'P -1'
_symmetry_Int_Tables_number      2
_space_group_name_Hall           '-P 1'
loop_
_symmetry_equiv_pos_site_id
_symmetry_equiv_pos_as_xyz
1 x,y,z
2 -x,-y,-z
_cell_length_a                   10.389(4)
_cell_length_b                   12.292(4)
_cell_length_c                   8.027(3)
_cell_angle_alpha                93.29(3)
_cell_angle_beta                 93.29(3)
_cell_angle_gamma                113.32(2)
_cell_volume                     936.176
_chemical_melting_point          '196-198 deg.C'
_cell_formula_units_Z            2
loop_
_atom_site_label
_atom_site_type_symbol
_atom_site_fract_x
_atom_site_fract_y
_atom_site_fract_z
O1 O 0.4575(4) 0.9126(3) 0.3045(5)
N1 N 0.2659(5) 0.9740(4) 0.4942(7)
N2 N -0.1165(5) 0.8833(5) 0.3408(7)
C1 C 0.3191(6) 0.8259(5) 0.3206(7)
C2 C 0.2209(6) 0.8840(5) 0.3737(8)
C3 C 0.0934(6) 0.8289(5) 0.2869(7)
C4 C 0.0859(6) 0.7264(5) 0.1625(8)
C5 C 0.2448(6) 0.7578(5) 0.1516(7)
C6 C -0.0236(7) 0.8581(5) 0.3146(8)
C7 C 0.0063(6) 0.7159(5) -0.0055(7)
C8 C 0.0239(7) 0.8151(6) -0.0923(8)
C9 C -0.0448(7) 0.8029(6) -0.2495(8)
C10 C -0.1326(7) 0.6910(7) -0.3249(8)
C11 C -0.1512(7) 0.5930(6) -0.2398(9)
C12 C -0.0822(6) 0.6044(5) -0.0811(8)
C13 C 0.3321(6) 0.7423(5) 0.4469(7)
C14 C 0.4506(7) 0.7143(6) 0.4540(8)
C15 C 0.4581(7) 0.6308(6) 0.5610(9)
C16 C 0.3525(8) 0.5743(6) 0.6609(8)
C17 C 0.2368(7) 0.6039(6) 0.6554(9)
C18 C 0.2259(7) 0.6857(6) 0.5492(9)
C19 C 0.3619(9) 0.4827(7) 0.7752(10)
loop_
_geom_bond_atom_site_label_1
_geom_bond_atom_site_label_2
_geom_bond_site_symmetry_1
_geom_bond_site_symmetry_2
O1 C1 1_555 1_555
N1 C2 1_555 1_555
N2 C6 1_555 1_555
C1 C2 1_555 1_555
C2 C3 1_555 1_555
C3 C4 1_555 1_555
C4 C5 1_555 1_555
C5 C1 1_555 1_555
C6 C3 1_555 1_555
C7 C4 1_555 1_555
C8 C7 1_555 1_555
C9 C8 1_555 1_555
C10 C9 1_555 1_555
C11 C10 1_555 1_555
C12 C7 1_555 1_555
C13 C1 1_555 1_555
C14 C13 1_555 1_555
C15 C14 1_555 1_555
C16 C15 1_555 1_555
C17 C16 1_555 1_555
C18 C13 1_555 1_555
C19 C16 1_555 1_555
C11 C12 1_555 1_555
C17 C18 1_555 1_555

#END
