
#######################################################################
#
#                 Cambridge Crystallographic Data Centre
#                                CCDC 
#
#######################################################################
#
# If this CIF has been generated from an entry in the Cambridge 
# Structural Database, then it will include bibliographic, chemical, 
# crystal, experimental, refinement or atomic coordinate data resulting 
# from the CCDC's data processing and validation procedures.
#
#######################################################################

data_XADJIY
_chemical_formula_moiety         'C24 H18 Cl2 N2 S2'
_chemical_name_systematic        
2,2'-bis((4-chlorophenyl)sulfanyl)biphenyl-4,4'-diamine
_symmetry_cell_setting           orthorhombic
_symmetry_space_group_name_H-M   'P 21 21 21'
_symmetry_Int_Tables_number      19
_space_group_name_Hall           'P 2ac 2ab'
loop_
_symmetry_equiv_pos_site_id
_symmetry_equiv_pos_as_xyz
1 x,y,z
2 1/2-x,-y,1/2+z
3 -x,1/2+y,1/2-z
4 1/2+x,1/2-y,-z
_cell_length_a                   9.3298(4)
_cell_length_b                   12.8039(6)
_cell_length_c                   18.0035(8)
_cell_angle_alpha                90
_cell_angle_beta                 90
_cell_angle_gamma                90
_cell_volume                     2150.66
_exptl_crystal_colour            'light yellow'
_exptl_crystal_description       Block
_cell_formula_units_Z            4
loop_
_atom_site_label
_atom_site_type_symbol
_atom_site_fract_x
_atom_site_fract_y
_atom_site_fract_z
C1 C 0.5082(5) 0.3885(4) 0.1454(3)
S1 S 0.69403(15) 0.41915(11) 0.14397(8)
C2 C 0.4465(6) 0.3585(4) 0.0788(3)
H1 H 0.5052 0.3506 0.0360
C3 C 0.2982(6) 0.3396(4) 0.0733(3)
N1 N 0.2348(6) 0.3071(4) 0.0062(2)
H2 H 0.2408 0.2363 0.0029
H3 H 0.2828 0.3366 -0.0325
C4 C 0.2166(6) 0.3474(4) 0.1369(3)
H4 H 0.1169 0.3327 0.1349
C5 C 0.2787(6) 0.3764(4) 0.2034(3)
H5 H 0.2194 0.3821 0.2461
C6 C 0.4251(5) 0.3978(4) 0.2106(3)
C7 C 0.4816(6) 0.4374(4) 0.2825(3)
C8 C 0.5481(6) 0.5348(4) 0.2856(3)
H6 H 0.5651 0.5714 0.2405
C9 C 0.5904(5) 0.5803(4) 0.3517(3)
H7 H 0.6383 0.6458 0.3514
C10 C 0.5623(6) 0.5296(4) 0.4193(3)
N2 N 0.5936(5) 0.5806(4) 0.4860(2)
H8 H 0.5139 0.6150 0.5019
H9 H 0.6199 0.5324 0.5205
C11 C 0.5012(6) 0.4310(4) 0.4173(3)
H10 H 0.4868 0.3939 0.4624
C12 C 0.4604(5) 0.3851(4) 0.3500(3)
S2 S 0.37172(16) 0.26106(11) 0.34833(8)
C13 C 0.7677(5) 0.3283(4) 0.2076(3)
C14 C 0.7183(6) 0.2267(4) 0.2135(3)
H11 H 0.6392 0.2051 0.1841
C15 C 0.7811(6) 0.1569(5) 0.2609(3)
H12 H 0.7442 0.0881 0.2657
C16 C 0.8995(6) 0.1879(4) 0.3018(3)
Cl1 Cl 0.98035(19) 0.10049(13) 0.36323(10)
C17 C 0.9513(6) 0.2883(5) 0.2965(3)
H13 H 1.0322 0.3089 0.3249
C18 C 0.8853(6) 0.3588(5) 0.2498(3)
H14 H 0.9203 0.4283 0.2464
C19 C 0.4403(6) 0.1935(4) 0.4265(3)
C20 C 0.5861(6) 0.1717(4) 0.4349(3)
H15 H 0.6534 0.2005 0.4010
C21 C 0.6330(6) 0.1089(5) 0.4918(3)
H16 H 0.7320 0.0931 0.4968
C22 C 0.5350(6) 0.0689(4) 0.5415(3)
Cl2 Cl 0.59386(19) -0.01314(12) 0.61303(9)
C23 C 0.3901(7) 0.0900(5) 0.5352(3)
H17 H 0.3239 0.0616 0.5698
C24 C 0.3431(6) 0.1527(4) 0.4779(3)
H18 H 0.2439 0.1682 0.4734
loop_
_geom_bond_atom_site_label_1
_geom_bond_atom_site_label_2
_geom_bond_site_symmetry_1
_geom_bond_site_symmetry_2
C1 S1 1_555 1_555
S1 C13 1_555 1_555
C2 C1 1_555 1_555
H1 C2 1_555 1_555
C3 C2 1_555 1_555
N1 C3 1_555 1_555
H2 N1 1_555 1_555
H3 N1 1_555 1_555
C4 C3 1_555 1_555
H4 C4 1_555 1_555
C5 C4 1_555 1_555
H5 C5 1_555 1_555
C6 C1 1_555 1_555
C7 C6 1_555 1_555
C8 C7 1_555 1_555
H6 C8 1_555 1_555
C9 C8 1_555 1_555
H7 C9 1_555 1_555
C10 C9 1_555 1_555
N2 C10 1_555 1_555
H8 N2 1_555 1_555
H9 N2 1_555 1_555
C11 C10 1_555 1_555
H10 C11 1_555 1_555
C12 C7 1_555 1_555
S2 C12 1_555 1_555
C13 C14 1_555 1_555
C14 H11 1_555 1_555
C15 C14 1_555 1_555
H12 C15 1_555 1_555
C16 C15 1_555 1_555
Cl1 C16 1_555 1_555
C17 C16 1_555 1_555
H13 C17 1_555 1_555
C18 C13 1_555 1_555
H14 C18 1_555 1_555
C19 S2 1_555 1_555
C20 C19 1_555 1_555
H15 C20 1_555 1_555
C21 C20 1_555 1_555
H16 C21 1_555 1_555
C22 C21 1_555 1_555
Cl2 C22 1_555 1_555
C23 C22 1_555 1_555
H17 C23 1_555 1_555
C24 C19 1_555 1_555
H18 C24 1_555 1_555
C5 C6 1_555 1_555
C11 C12 1_555 1_555
C17 C18 1_555 1_555
C23 C24 1_555 1_555

#END
