
#######################################################################
#
#                 Cambridge Crystallographic Data Centre
#                                CCDC 
#
#######################################################################
#
# If this CIF has been generated from an entry in the Cambridge 
# Structural Database, then it will include bibliographic, chemical, 
# crystal, experimental, refinement or atomic coordinate data resulting 
# from the CCDC's data processing and validation procedures.
#
#######################################################################

data_XADLOF
_chemical_formula_moiety         'C25 H21 N3 O2'
_chemical_name_systematic        
5-Isopropoxy-2-(3-phenylpyrimido[1,2-a]benzimidazol-4-yl)phenol
_symmetry_cell_setting           orthorhombic
_symmetry_space_group_name_H-M   'P b c a'
_symmetry_Int_Tables_number      61
_space_group_name_Hall           '-P 2ac 2ab'
loop_
_symmetry_equiv_pos_site_id
_symmetry_equiv_pos_as_xyz
1 x,y,z
2 1/2-x,-y,1/2+z
3 -x,1/2+y,1/2-z
4 1/2+x,1/2-y,-z
5 -x,-y,-z
6 1/2+x,y,1/2-z
7 x,1/2-y,1/2+z
8 1/2-x,1/2+y,z
_cell_length_a                   15.954(3)
_cell_length_b                   15.880(3)
_cell_length_c                   16.534(4)
_cell_angle_alpha                90
_cell_angle_beta                 90
_cell_angle_gamma                90
_cell_volume                     4188.88
_exptl_crystal_colour            yellow
_exptl_crystal_description       block
_chemical_melting_point          '289.3-289.7 deg.C'
_cell_formula_units_Z            8
loop_
_atom_site_label
_atom_site_type_symbol
_atom_site_fract_x
_atom_site_fract_y
_atom_site_fract_z
N1 N -0.05332(11) 0.78556(11) 0.39775(12)
N2 N 0.02568(9) 0.84984(9) 0.50409(9)
N3 N -0.10689(10) 0.80619(10) 0.52900(11)
O1 O 0.23741(7) 0.76673(8) 0.49169(9)
H1 H 0.2847 0.7466 0.4902
O2 O 0.39077(8) 1.00398(8) 0.57695(9)
C1 C -0.04797(12) 0.81182(12) 0.47444(13)
C2 C -0.07261(13) 0.84000(13) 0.59831(14)
C3 C -0.10950(16) 0.84955(17) 0.67415(17)
H2 H -0.1642 0.8319 0.6836
C4 C -0.0629(2) 0.88566(19) 0.73432(17)
H3 H -0.0865 0.8928 0.7853
C5 C 0.01836(18) 0.91163(18) 0.72090(15)
H4 H 0.0482 0.9357 0.7633
C6 C 0.05667(15) 0.90325(15) 0.64726(13)
H5 H 0.1116 0.9207 0.6389
C7 C 0.00958(12) 0.86741(12) 0.58560(12)
C8 C 0.09531(11) 0.86003(12) 0.45574(11)
C9 C 0.08869(13) 0.83420(13) 0.37717(12)
C10 C 0.15816(14) 0.84370(19) 0.31846(13)
C11 C 0.19723(16) 0.9203(2) 0.30724(16)
H6 H 0.1800 0.9663 0.3377
C12 C 0.2613(2) 0.9305(3) 0.2519(2)
H7 H 0.2868 0.9825 0.2439
C13 C 0.2853(3) 0.8623(5) 0.2103(3)
H8 H 0.3298 0.8686 0.1745
C14 C 0.2503(3) 0.7853(4) 0.2159(3)
H9 H 0.2685 0.7404 0.1843
C15 C 0.1836(2) 0.7765(2) 0.27277(16)
H10 H 0.1572 0.7246 0.2789
C16 C 0.01231(15) 0.79670(14) 0.35252(13)
H11 H 0.0088 0.7784 0.2992
C17 C 0.17098(10) 0.89897(12) 0.49109(11)
C18 C 0.17553(12) 0.98443(13) 0.50446(13)
H12 H 0.1282 1.0170 0.4947
C19 C 0.24672(13) 1.02346(13) 0.53146(13)
H13 H 0.2483 1.0815 0.5388
C20 C 0.31664(12) 0.97400(13) 0.54764(12)
C21 C 0.31356(11) 0.88825(12) 0.53586(11)
H14 H 0.3603 0.8556 0.5481
C22 C 0.24238(11) 0.85007(12) 0.50625(11)
C23 C 0.40826(14) 1.09342(13) 0.57236(16)
H15 H 0.3609 1.1255 0.5942
C24 C 0.48422(16) 1.10609(17) 0.62429(19)
H16 H 0.4726 1.0871 0.6782
H17 H 0.4985 1.1648 0.6254
H18 H 0.5303 1.0745 0.6025
C25 C 0.42319(16) 1.11753(16) 0.48598(17)
H19 H 0.4716 1.0883 0.4659
H20 H 0.4324 1.1772 0.4825
H21 H 0.3751 1.1026 0.4541
loop_
_geom_bond_atom_site_label_1
_geom_bond_atom_site_label_2
_geom_bond_site_symmetry_1
_geom_bond_site_symmetry_2
N1 C1 1_555 1_555
N2 C1 1_555 1_555
N3 C1 1_555 1_555
O1 H1 1_555 1_555
O2 C20 1_555 1_555
C2 N3 1_555 1_555
C3 C2 1_555 1_555
H2 C3 1_555 1_555
C4 C3 1_555 1_555
H3 C4 1_555 1_555
C5 C4 1_555 1_555
H4 C5 1_555 1_555
C6 C5 1_555 1_555
H5 C6 1_555 1_555
C7 N2 1_555 1_555
C8 N2 1_555 1_555
C9 C8 1_555 1_555
C10 C9 1_555 1_555
C11 C10 1_555 1_555
H6 C11 1_555 1_555
C12 C11 1_555 1_555
H7 C12 1_555 1_555
C13 C12 1_555 1_555
H8 C13 1_555 1_555
C14 C13 1_555 1_555
H9 C14 1_555 1_555
C15 C10 1_555 1_555
H10 C15 1_555 1_555
C16 N1 1_555 1_555
H11 C16 1_555 1_555
C17 C8 1_555 1_555
C18 C17 1_555 1_555
H12 C18 1_555 1_555
C19 C18 1_555 1_555
H13 C19 1_555 1_555
C20 C19 1_555 1_555
C21 C20 1_555 1_555
H14 C21 1_555 1_555
C22 O1 1_555 1_555
C23 O2 1_555 1_555
H15 C23 1_555 1_555
C24 C23 1_555 1_555
H16 C24 1_555 1_555
H17 C24 1_555 1_555
H18 C24 1_555 1_555
C25 C23 1_555 1_555
H19 C25 1_555 1_555
H20 C25 1_555 1_555
H21 C25 1_555 1_555
C2 C7 1_555 1_555
C6 C7 1_555 1_555
C9 C16 1_555 1_555
C14 C15 1_555 1_555
C17 C22 1_555 1_555
C21 C22 1_555 1_555

#END
