
#######################################################################
#
#                 Cambridge Crystallographic Data Centre
#                                CCDC 
#
#######################################################################
#
# If this CIF has been generated from an entry in the Cambridge 
# Structural Database, then it will include bibliographic, chemical, 
# crystal, experimental, refinement or atomic coordinate data resulting 
# from the CCDC's data processing and validation procedures.
#
#######################################################################

data_XAFGUI
_chemical_formula_moiety         'C23 H22 N2 O2 S1,0.13(H2 O1)'
_chemical_name_systematic        
'10-(((2-(Methylsulfanyl)phenyl)imino)methyl)-2,3,6,7-tetrahydro-1H,5H,11H-pyrano[2,3-f]pyrido[3,2,1-ij]quinolin-11-one hydrate'
_symmetry_cell_setting           monoclinic
_symmetry_space_group_name_H-M   'P 21/c'
_symmetry_Int_Tables_number      14
_space_group_name_Hall           '-P 2ybc'
loop_
_symmetry_equiv_pos_site_id
_symmetry_equiv_pos_as_xyz
1 x,y,z
2 -x,1/2+y,1/2-z
3 -x,-y,-z
4 x,1/2-y,1/2+z
_cell_length_a                   7.355(3)
_cell_length_b                   20.112(7)
_cell_length_c                   26.680(9)
_cell_angle_alpha                90
_cell_angle_beta                 90.309(7)
_cell_angle_gamma                90
_cell_volume                     3946.55
_exptl_crystal_colour            red
_exptl_crystal_description       plate
_cell_formula_units_Z            8
loop_
_atom_site_label
_atom_site_type_symbol
_atom_site_fract_x
_atom_site_fract_y
_atom_site_fract_z
N1 N 0.6328(9) 0.8590(3) -0.1472(2)
N2 N 0.3068(8) 0.6562(3) 0.1131(2)
O1 O 0.4210(7) 0.8558(2) 0.02082(18)
O2 O 0.3235(7) 0.8609(2) 0.09870(19)
S1 S 0.1658(4) 0.53362(11) 0.08366(11)
C1 C 0.3635(11) 0.8243(4) 0.0638(3)
C2 C 0.3605(9) 0.7522(3) 0.0642(3)
C3 C 0.4171(10) 0.7182(4) 0.0232(3)
H1 H 0.4183 0.6710 0.0241
C4 C 0.4747(10) 0.7511(4) -0.0210(3)
C5 C 0.5331(9) 0.7196(3) -0.0638(3)
H2 H 0.5381 0.6724 -0.0643
C6 C 0.5841(10) 0.7540(4) -0.1056(3)
C7 C 0.6417(10) 0.7176(4) -0.1535(3)
H3 H 0.7731 0.7071 -0.1516
H4 H 0.5743 0.6751 -0.1562
C8 C 0.6050(12) 0.7590(4) -0.1989(3)
H5 H 0.4721 0.7628 -0.2042
H6 H 0.6576 0.7370 -0.2287
C9 C 0.6865(11) 0.8279(4) -0.1931(3)
H7 H 0.8207 0.8245 -0.1940
H8 H 0.6473 0.8559 -0.2217
C10 C 0.6461(11) 0.9326(4) -0.1467(3)
H9 H 0.5388 0.9514 -0.1643
H10 H 0.7557 0.9462 -0.1655
C11 C 0.6563(11) 0.9614(4) -0.0945(3)
H11 H 0.7756 0.9505 -0.0793
H12 H 0.6456 1.0104 -0.0963
C12 C 0.5062(11) 0.9339(4) -0.0624(3)
H13 H 0.3867 0.9485 -0.0756
H14 H 0.5193 0.9507 -0.0277
C13 C 0.5162(9) 0.8586(4) -0.0625(3)
C14 C 0.5787(11) 0.8245(4) -0.1051(3)
C15 C 0.4730(9) 0.8216(4) -0.0210(3)
C16 C 0.2945(10) 0.7190(4) 0.1090(3)
H15 H 0.2422 0.7444 0.1353
C17 C 0.2440(11) 0.6233(4) 0.1563(4)
C18 C 0.1661(11) 0.5574(4) 0.1456(3)
C19 C 0.1214(12) 0.5196(5) 0.1881(5)
H16 H 0.0858 0.4745 0.1838
C20 C 0.1278(14) 0.5456(6) 0.2354(4)
H17 H 0.0829 0.5204 0.2627
C21 C 0.1962(13) 0.6060(5) 0.2435(4)
H18 H 0.2044 0.6220 0.2769
C22 C 0.2562(13) 0.6466(4) 0.2046(3)
H19 H 0.3045 0.6895 0.2114
C23 C 0.1263(15) 0.4470(4) 0.0882(4)
H20 H 0.2363 0.4249 0.1007
H21 H 0.0949 0.4293 0.0551
H22 H 0.0258 0.4388 0.1114
N3 N -0.2006(9) 0.6635(3) 0.6235(2)
N4 N 0.1470(8) 0.8254(3) 0.3508(2)
O3 O 0.0129(6) 0.6397(2) 0.45623(18)
O4 O 0.1041(8) 0.6217(2) 0.3775(2)
S2 S 0.3556(3) 0.94592(11) 0.36014(9)
C24 C 0.0684(11) 0.6630(4) 0.4097(3)
C25 C 0.0797(10) 0.7351(4) 0.4045(3)
C26 C 0.0328(9) 0.7760(4) 0.4440(3)
H23 H 0.0434 0.8229 0.4404
C27 C -0.0296(9) 0.7498(4) 0.4890(3)
C28 C -0.0807(10) 0.7888(4) 0.5298(3)
H24 H -0.0750 0.8357 0.5264
C29 C -0.1392(9) 0.7630(3) 0.5750(3)
C30 C -0.2050(10) 0.8069(4) 0.6152(3)
H25 H -0.3325 0.8199 0.6082
H26 H -0.1303 0.8479 0.6163
C31 C -0.1936(11) 0.7709(4) 0.6665(3)
H27 H -0.0647 0.7648 0.6763
H28 H -0.2539 0.7980 0.6925
C32 C -0.2849(12) 0.7047(4) 0.6624(3)
H29 H -0.2769 0.6815 0.6950
H30 H -0.4151 0.7113 0.6542
C33 C -0.2262(11) 0.5925(4) 0.6259(3)
H31 H -0.3471 0.5815 0.6116
H32 H -0.2265 0.5788 0.6616
C34 C -0.0856(11) 0.5531(4) 0.5990(3)
H33 H -0.1127 0.5050 0.6014
H34 H 0.0360 0.5612 0.6138
C35 C -0.0896(12) 0.5754(3) 0.5444(3)
H35 H 0.0177 0.5569 0.5271
H36 H -0.1997 0.5571 0.5280
C36 C -0.0894(9) 0.6497(3) 0.5386(3)
C37 C -0.1471(9) 0.6916(3) 0.5805(3)
C38 C -0.0367(9) 0.6801(3) 0.4954(3)
C39 C 0.1415(9) 0.7624(4) 0.3569(3)
H37 H 0.1775 0.7334 0.3307
C40 C 0.1909(10) 0.8507(4) 0.3030(3)
C41 C 0.2926(11) 0.9111(4) 0.3012(3)
C42 C 0.3397(11) 0.9385(4) 0.2559(3)
H38 H 0.4110 0.9778 0.2548
C43 C 0.2841(13) 0.9092(4) 0.2131(3)
H39 H 0.3218 0.9274 0.1820
C44 C 0.1727(12) 0.8528(4) 0.2128(3)
H40 H 0.1268 0.8351 0.1822
C45 C 0.1311(12) 0.8235(4) 0.2580(3)
H41 H 0.0602 0.7840 0.2584
C46 C 0.3738(13) 1.0327(4) 0.3441(4)
H42 H 0.4539 1.0377 0.3151
H43 H 0.4245 1.0573 0.3726
H44 H 0.2530 1.0502 0.3358
O5 O 0.360(4) 0.4599(13) 0.9758(8)
loop_
_geom_bond_atom_site_label_1
_geom_bond_atom_site_label_2
_geom_bond_site_symmetry_1
_geom_bond_site_symmetry_2
N1 C9 1_555 1_555
N2 C16 1_555 1_555
N3 C32 1_555 1_555
N4 C39 1_555 1_555
O1 C1 1_555 1_555
O2 C1 1_555 1_555
O3 C24 1_555 1_555
O4 C24 1_555 1_555
S1 C18 1_555 1_555
S2 C41 1_555 1_555
C1 C2 1_555 1_555
C2 C3 1_555 1_555
C3 H1 1_555 1_555
C4 C3 1_555 1_555
C5 C4 1_555 1_555
H2 C5 1_555 1_555
C6 C5 1_555 1_555
C7 C6 1_555 1_555
H3 C7 1_555 1_555
H4 C7 1_555 1_555
C8 C7 1_555 1_555
H5 C8 1_555 1_555
H6 C8 1_555 1_555
C9 C8 1_555 1_555
H7 C9 1_555 1_555
H8 C9 1_555 1_555
C10 N1 1_555 1_555
H9 C10 1_555 1_555
H10 C10 1_555 1_555
C11 C10 1_555 1_555
H11 C11 1_555 1_555
H12 C11 1_555 1_555
C12 C11 1_555 1_555
H13 C12 1_555 1_555
H14 C12 1_555 1_555
C13 C12 1_555 1_555
C14 N1 1_555 1_555
C15 O1 1_555 1_555
C16 C2 1_555 1_555
H15 C16 1_555 1_555
C17 N2 1_555 1_555
C18 C17 1_555 1_555
C19 C18 1_555 1_555
H16 C19 1_555 1_555
C20 C19 1_555 1_555
H17 C20 1_555 1_555
C21 C20 1_555 1_555
H18 C21 1_555 1_555
C22 C17 1_555 1_555
H19 C22 1_555 1_555
C23 S1 1_555 1_555
H20 C23 1_555 1_555
H21 C23 1_555 1_555
H22 C23 1_555 1_555
C24 C25 1_555 1_555
C25 C26 1_555 1_555
C26 H23 1_555 1_555
C27 C26 1_555 1_555
C28 C27 1_555 1_555
H24 C28 1_555 1_555
C29 C28 1_555 1_555
C30 C29 1_555 1_555
H25 C30 1_555 1_555
H26 C30 1_555 1_555
C31 C30 1_555 1_555
H27 C31 1_555 1_555
H28 C31 1_555 1_555
C32 C31 1_555 1_555
H29 C32 1_555 1_555
H30 C32 1_555 1_555
C33 N3 1_555 1_555
H31 C33 1_555 1_555
H32 C33 1_555 1_555
C34 C33 1_555 1_555
H33 C34 1_555 1_555
H34 C34 1_555 1_555
C35 C34 1_555 1_555
H35 C35 1_555 1_555
H36 C35 1_555 1_555
C36 C35 1_555 1_555
C37 N3 1_555 1_555
C38 O3 1_555 1_555
C39 C25 1_555 1_555
H37 C39 1_555 1_555
C40 N4 1_555 1_555
C41 C40 1_555 1_555
C42 C41 1_555 1_555
H38 C42 1_555 1_555
C43 C42 1_555 1_555
H39 C43 1_555 1_555
C44 C43 1_555 1_555
H40 C44 1_555 1_555
C45 C40 1_555 1_555
H41 C45 1_555 1_555
C46 S2 1_555 1_555
H42 C46 1_555 1_555
H43 C46 1_555 1_555
H44 C46 1_555 1_555
C4 C15 1_555 1_555
C6 C14 1_555 1_555
C13 C14 1_555 1_555
C13 C15 1_555 1_555
C21 C22 1_555 1_555
C27 C38 1_555 1_555
C29 C37 1_555 1_555
C36 C37 1_555 1_555
C36 C38 1_555 1_555
C44 C45 1_555 1_555

#END
