
#######################################################################
#
#                 Cambridge Crystallographic Data Centre
#                                CCDC 
#
#######################################################################
#
# If this CIF has been generated from an entry in the Cambridge 
# Structural Database, then it will include bibliographic, chemical, 
# crystal, experimental, refinement or atomic coordinate data resulting 
# from the CCDC's data processing and validation procedures.
#
#######################################################################

data_XAGDOB
_chemical_formula_moiety         'C26 H21 N3 O5'
_chemical_name_systematic        
"Dimethyl 5'-(t-butylimino)-2-(dicyanomethylene)-2H,5'H-spiro[acenaphthylene-1,2'-furan]-3',4'-dicarboxylate"
_symmetry_cell_setting           monoclinic
_symmetry_space_group_name_H-M   'P 21/c'
_symmetry_Int_Tables_number      14
_space_group_name_Hall           '-P 2ybc'
loop_
_symmetry_equiv_pos_site_id
_symmetry_equiv_pos_as_xyz
1 x,y,z
2 -x,1/2+y,1/2-z
3 -x,-y,-z
4 x,1/2-y,1/2+z
_cell_length_a                   14.7374(15)
_cell_length_b                   10.6246(9)
_cell_length_c                   19.2318(18)
_cell_angle_alpha                90
_cell_angle_beta                 125.932(6)
_cell_angle_gamma                90
_cell_volume                     2438.29
_exptl_crystal_colour            yellow
_exptl_crystal_description       block
_cell_formula_units_Z            4
loop_
_atom_site_label
_atom_site_type_symbol
_atom_site_fract_x
_atom_site_fract_y
_atom_site_fract_z
O1 O 0.14295(14) 0.50258(15) 0.41076(10)
O2 O 0.43398(18) 0.3585(2) 0.64511(13)
O3 O 0.2008(2) 0.6791(2) 0.64072(15)
O4 O 0.40301(17) 0.5175(2) 0.70514(12)
O5 O 0.2924(2) 0.7992(2) 0.60691(15)
N1 N 0.3336(3) 0.7001(2) 0.42040(19)
N2 N 0.4500(3) 0.3783(3) 0.3571(2)
N3 N 0.06342(19) 0.6951(2) 0.41222(13)
C1 C 0.2354(2) 0.1990(2) 0.46866(16)
C2 C 0.3073(2) 0.3788(2) 0.45023(15)
C3 C 0.3122(2) 0.2411(2) 0.45245(16)
C4 C 0.2253(2) 0.6021(2) 0.54088(16)
C5 C 0.3499(2) 0.4585(2) 0.42218(16)
C6 C 0.2297(2) 0.4208(2) 0.47588(15)
C7 C -0.0271(2) 0.6948(3) 0.31866(17)
C8 C 0.2832(2) 0.4970(2) 0.55775(15)
C9 C 0.1827(2) 0.2973(2) 0.48031(16)
C10 C 0.1349(2) 0.6087(2) 0.44898(16)
C11 C 0.2448(3) 0.7053(3) 0.60014(18)
C12 C 0.3817(2) 0.4488(3) 0.64042(17)
C13 C 0.3703(2) 0.1529(2) 0.44062(18)
H1 H 0.4221 0.1777 0.4305
C14 C 0.3393(2) 0.5929(3) 0.42152(18)
C15 C 0.4071(3) 0.4137(3) 0.38644(19)
C16 C 0.2746(3) -0.0149(3) 0.45851(18)
H2 H 0.2633 -0.1007 0.4600
C17 C 0.2135(2) 0.0722(2) 0.47130(18)
C18 C 0.3500(2) 0.0252(3) 0.44401(19)
H3 H 0.3893 -0.0344 0.4361
C19 C 0.1036(3) 0.2712(3) 0.4934(2)
H4 H 0.0672 0.3353 0.5011
C20 C 0.1305(3) 0.0474(3) 0.4847(2)
H5 H 0.1114 -0.0354 0.4865
C21 C 0.0785(3) 0.1437(3) 0.4950(2)
H6 H 0.0240 0.1245 0.5035
C22 C -0.0933(4) 0.8139(4) 0.3007(2)
H7 H -0.1245 0.8130 0.3327
H8 H -0.1527 0.8191 0.2405
H9 H -0.0448 0.8854 0.3176
C23 C -0.1028(3) 0.5829(4) 0.2951(2)
H10 H -0.0613 0.5068 0.3060
H11 H -0.1642 0.5872 0.2353
H12 H -0.1312 0.5833 0.3290
C24 C 0.0230(3) 0.6963(4) 0.2686(2)
H13 H 0.0751 0.7648 0.2881
H14 H -0.0357 0.7067 0.2085
H15 H 0.0613 0.6183 0.2774
C25 C 0.5018(3) 0.4849(5) 0.7894(2)
H16 H 0.4971 0.3985 0.8016
H17 H 0.5065 0.5380 0.8318
H18 H 0.5673 0.4965 0.7906
C26 C 0.2275(5) 0.7698(5) 0.7076(3)
H19 H 0.3074 0.7769 0.7481
H20 H 0.1962 0.7415 0.7367
H21 H 0.1965 0.8504 0.6819
loop_
_geom_bond_atom_site_label_1
_geom_bond_atom_site_label_2
_geom_bond_site_symmetry_1
_geom_bond_site_symmetry_2
O1 C6 1_555 1_555
O2 C12 1_555 1_555
O3 C11 1_555 1_555
O4 C12 1_555 1_555
O5 C11 1_555 1_555
N1 C14 1_555 1_555
N2 C15 1_555 1_555
N3 C7 1_555 1_555
C1 C3 1_555 1_555
C2 C3 1_555 1_555
C3 C13 1_555 1_555
C4 C8 1_555 1_555
C5 C2 1_555 1_555
C6 C2 1_555 1_555
C7 C22 1_555 1_555
C8 C6 1_555 1_555
C9 C1 1_555 1_555
C10 O1 1_555 1_555
C11 C4 1_555 1_555
C12 C8 1_555 1_555
C13 H1 1_555 1_555
C14 C5 1_555 1_555
C15 C5 1_555 1_555
C16 H2 1_555 1_555
C17 C1 1_555 1_555
C18 C13 1_555 1_555
H3 C18 1_555 1_555
C19 C9 1_555 1_555
H4 C19 1_555 1_555
C20 C17 1_555 1_555
H5 C20 1_555 1_555
C21 C19 1_555 1_555
H6 C21 1_555 1_555
C22 H7 1_555 1_555
H8 C22 1_555 1_555
H9 C22 1_555 1_555
C23 C7 1_555 1_555
H10 C23 1_555 1_555
H11 C23 1_555 1_555
H12 C23 1_555 1_555
C24 C7 1_555 1_555
H13 C24 1_555 1_555
H14 C24 1_555 1_555
H15 C24 1_555 1_555
C25 O4 1_555 1_555
H16 C25 1_555 1_555
H17 C25 1_555 1_555
H18 C25 1_555 1_555
C26 O3 1_555 1_555
H19 C26 1_555 1_555
H20 C26 1_555 1_555
H21 C26 1_555 1_555
N3 C10 1_555 1_555
C4 C10 1_555 1_555
C6 C9 1_555 1_555
C16 C17 1_555 1_555
C16 C18 1_555 1_555
C20 C21 1_555 1_555

#END
