
#######################################################################
#
#                 Cambridge Crystallographic Data Centre
#                                CCDC 
#
#######################################################################
#
# If this CIF has been generated from an entry in the Cambridge 
# Structural Database, then it will include bibliographic, chemical, 
# crystal, experimental, refinement or atomic coordinate data resulting 
# from the CCDC's data processing and validation procedures.
#
#######################################################################

data_XAGHAR
_chemical_name_common            
2-Phenyl-4-tosyl-1,2,3,4-tetrahydrocyclopenta[b]indole
_chemical_formula_moiety         'C24 H21 N1 O2 S1'
_chemical_name_systematic        
4-((4-methylphenyl)sulfonyl)-2-phenyl-1,2,3,4-tetrahydrocyclopenta[b]indole
_symmetry_cell_setting           monoclinic
_symmetry_space_group_name_H-M   'P 21/c'
_symmetry_Int_Tables_number      14
_space_group_name_Hall           '-P 2ybc'
loop_
_symmetry_equiv_pos_site_id
_symmetry_equiv_pos_as_xyz
1 x,y,z
2 -x,1/2+y,1/2-z
3 -x,-y,-z
4 x,1/2-y,1/2+z
_cell_length_a                   8.9249(10)
_cell_length_b                   9.9995(10)
_cell_length_c                   22.9440(19)
_cell_angle_alpha                90
_cell_angle_beta                 107.130(4)
_cell_angle_gamma                90
_cell_volume                     1956.79
_exptl_crystal_colour            colorless
_exptl_crystal_description       block
_cell_formula_units_Z            4
loop_
_atom_site_label
_atom_site_type_symbol
_atom_site_fract_x
_atom_site_fract_y
_atom_site_fract_z
S1 S 0.41167(6) 0.19953(6) 0.10933(2)
O1 O 0.3756(2) 0.33439(17) 0.09148(7)
O2 O 0.29141(15) 0.10133(19) 0.09750(7)
N1 N 0.53821(17) 0.14825(17) 0.07307(7)
C1 C 0.7852(3) 0.1632(3) 0.37485(10)
H1 H 0.7310 0.1069 0.3959
H2 H 0.7988 0.2506 0.3930
H3 H 0.8860 0.1253 0.3778
C2 C 0.6910(2) 0.1742(2) 0.30884(9)
C3 C 0.5606(3) 0.0958(2) 0.28531(10)
H4 H 0.5300 0.0364 0.3108
C4 C 0.4740(2) 0.1032(2) 0.22465(10)
H5 H 0.3866 0.0489 0.2095
C5 C 0.5183(2) 0.19168(19) 0.18684(8)
C6 C 0.6486(3) 0.2710(2) 0.20944(9)
H6 H 0.6787 0.3311 0.1840
C7 C 0.7337(3) 0.2608(2) 0.26984(10)
H7 H 0.8224 0.3138 0.2848
C8 C 0.6563(2) 0.2293(2) 0.06014(8)
C9 C 0.6585(3) 0.3647(3) 0.04871(10)
H8 H 0.5753 0.4199 0.0496
C10 C 0.7899(4) 0.4148(3) 0.03590(11)
H9 H 0.7952 0.5059 0.0285
C11 C 0.9133(4) 0.3337(4) 0.03375(11)
H10 H 1.0003 0.3711 0.0255
C12 C 0.9094(3) 0.1988(3) 0.04367(9)
H11 H 0.9920 0.1443 0.0414
C13 C 0.7790(2) 0.1440(2) 0.05721(8)
C14 C 0.7366(2) 0.0116(2) 0.07085(8)
C15 C 0.5975(2) 0.0170(2) 0.08118(8)
C16 C 0.5350(2) -0.1129(2) 0.09446(9)
H12 H 0.4468 -0.1420 0.0609
H13 H 0.5036 -0.1089 0.1315
C17 C 0.6804(3) -0.2055(2) 0.10240(9)
H14 H 0.6464 -0.2875 0.0788
C18 C 0.7952(3) -0.1288(3) 0.07462(10)
H15 H 0.9023 -0.1350 0.1009
H16 H 0.7902 -0.1632 0.0346
C19 C 0.7602(2) -0.24315(19) 0.16833(9)
C20 C 0.7724(3) -0.1554(2) 0.21576(9)
H17 H 0.7267 -0.0712 0.2076
C21 C 0.8510(3) -0.1899(3) 0.27492(10)
H18 H 0.8574 -0.1291 0.3063
C22 C 0.9193(3) -0.3124(3) 0.28792(11)
H19 H 0.9729 -0.3352 0.3279
C23 C 0.9083(3) -0.4017(3) 0.24158(13)
H20 H 0.9545 -0.4857 0.2501
C24 C 0.8289(3) -0.3674(2) 0.18222(11)
H21 H 0.8216 -0.4289 0.1511
loop_
_geom_bond_atom_site_label_1
_geom_bond_atom_site_label_2
_geom_bond_site_symmetry_1
_geom_bond_site_symmetry_2
S1 O1 1_555 1_555
O2 S1 1_555 1_555
N1 S1 1_555 1_555
C1 H1 1_555 1_555
H2 C1 1_555 1_555
H3 C1 1_555 1_555
C2 C1 1_555 1_555
C3 C2 1_555 1_555
H4 C3 1_555 1_555
C4 C3 1_555 1_555
H5 C4 1_555 1_555
C5 S1 1_555 1_555
C6 C5 1_555 1_555
H6 C6 1_555 1_555
C7 C2 1_555 1_555
H7 C7 1_555 1_555
C8 N1 1_555 1_555
C9 C8 1_555 1_555
H8 C9 1_555 1_555
C10 C9 1_555 1_555
H9 C10 1_555 1_555
C11 C10 1_555 1_555
H10 C11 1_555 1_555
C12 C11 1_555 1_555
H11 C12 1_555 1_555
C13 C8 1_555 1_555
C14 C13 1_555 1_555
C15 N1 1_555 1_555
C16 C15 1_555 1_555
H12 C16 1_555 1_555
H13 C16 1_555 1_555
C17 C16 1_555 1_555
H14 C17 1_555 1_555
C18 C14 1_555 1_555
H15 C18 1_555 1_555
H16 C18 1_555 1_555
C19 C17 1_555 1_555
C20 C19 1_555 1_555
H17 C20 1_555 1_555
C21 C20 1_555 1_555
H18 C21 1_555 1_555
C22 C21 1_555 1_555
H19 C22 1_555 1_555
C23 C22 1_555 1_555
H20 C23 1_555 1_555
C24 C19 1_555 1_555
H21 C24 1_555 1_555
C4 C5 1_555 1_555
C6 C7 1_555 1_555
C12 C13 1_555 1_555
C14 C15 1_555 1_555
C17 C18 1_555 1_555
C23 C24 1_555 1_555

#END
