
#######################################################################
#
#                 Cambridge Crystallographic Data Centre
#                                CCDC 
#
#######################################################################
#
# If this CIF has been generated from an entry in the Cambridge 
# Structural Database, then it will include bibliographic, chemical, 
# crystal, experimental, refinement or atomic coordinate data resulting 
# from the CCDC's data processing and validation procedures.
#
#######################################################################

data_XAGNOL
_chemical_formula_moiety         'C18 H19 F2 N1 O2 S1'
_chemical_name_systematic        
N-Benzyl-3-((3,5-difluorophenyl)sulfonyl)-N-methylcyclobutanamine
_symmetry_cell_setting           triclinic
_symmetry_space_group_name_H-M   'P -1'
_symmetry_Int_Tables_number      2
_space_group_name_Hall           '-P 1'
loop_
_symmetry_equiv_pos_site_id
_symmetry_equiv_pos_as_xyz
1 x,y,z
2 -x,-y,-z
_cell_length_a                   5.5183(10)
_cell_length_b                   12.654(3)
_cell_length_c                   12.840(2)
_cell_angle_alpha                81.396(8)
_cell_angle_beta                 81.489(7)
_cell_angle_gamma                77.545(7)
_cell_volume                     859.403
_exptl_crystal_colour            colorless
_exptl_crystal_description       block
_cell_formula_units_Z            2
loop_
_atom_site_label
_atom_site_type_symbol
_atom_site_fract_x
_atom_site_fract_y
_atom_site_fract_z
S1 S 1.07463(9) 0.07605(4) 0.82238(4)
F1 F 0.7204(2) -0.06532(11) 0.54190(10)
F2 F 0.5672(3) -0.22246(10) 0.89389(10)
O1 O 1.2015(3) 0.12735(12) 0.72865(12)
O2 O 1.2188(3) 0.01986(12) 0.90610(12)
N1 N 0.6702(3) 0.44320(13) 0.78528(14)
C1 C 0.8878(4) -0.00570(16) 0.67455(17)
H1 H 0.9619 0.0443 0.6237
C2 C 0.7481(4) -0.07249(17) 0.64534(17)
C3 C 0.6414(4) -0.14708(17) 0.71688(17)
H2 H 0.5495 -0.1934 0.6948
C4 C 0.6738(4) -0.15136(16) 0.82109(18)
C5 C 0.8103(4) -0.08749(16) 0.85699(17)
H3 H 0.8316 -0.0931 0.9298
C6 C 0.9147(3) -0.01482(16) 0.78092(16)
C7 C 0.8248(4) 0.17346(16) 0.87587(16)
H4 H 0.7252 0.1393 0.9383
C8 C 0.8920(4) 0.27916(16) 0.90053(17)
H5 H 0.8884 0.2834 0.9771
H6 H 1.0488 0.2961 0.8598
C9 C 0.6525(4) 0.34207(16) 0.85322(17)
H7 H 0.5069 0.3527 0.9097
C10 C 0.6543(4) 0.24318(16) 0.79600(18)
H8 H 0.4888 0.2230 0.8012
H9 H 0.7347 0.2486 0.7217
C11 C 0.6961(4) 0.52623(17) 0.84794(18)
H10 H 0.5447 0.5428 0.8980
H11 H 0.7200 0.5925 0.8007
H12 H 0.8409 0.4992 0.8873
C12 C 0.4513(4) 0.47910(17) 0.72820(18)
H13 H 0.3029 0.5014 0.7795
H14 H 0.4236 0.4169 0.6962
C13 C 0.4741(4) 0.57283(16) 0.64181(17)
C14 C 0.2716(4) 0.65576(18) 0.62348(19)
H15 H 0.1186 0.6557 0.6684
C15 C 0.2866(4) 0.73882(19) 0.54120(19)
H16 H 0.1434 0.7942 0.5295
C16 C 0.5078(4) 0.74206(18) 0.47583(17)
H17 H 0.5192 0.7995 0.4196
C17 C 0.7128(4) 0.65978(19) 0.49400(19)
H18 H 0.8666 0.6610 0.4498
C18 C 0.6970(4) 0.57634(19) 0.57507(19)
H19 H 0.8395 0.5203 0.5858
loop_
_geom_bond_atom_site_label_1
_geom_bond_atom_site_label_2
_geom_bond_site_symmetry_1
_geom_bond_site_symmetry_2
S1 O1 1_555 1_555
F1 C2 1_555 1_555
F2 C4 1_555 1_555
O2 S1 1_555 1_555
N1 C9 1_555 1_555
C1 H1 1_555 1_555
C2 C1 1_555 1_555
C3 C2 1_555 1_555
H2 C3 1_555 1_555
C4 C3 1_555 1_555
C5 C4 1_555 1_555
H3 C5 1_555 1_555
C6 S1 1_555 1_555
C7 S1 1_555 1_555
H4 C7 1_555 1_555
C8 C7 1_555 1_555
H5 C8 1_555 1_555
H6 C8 1_555 1_555
C9 C8 1_555 1_555
H7 C9 1_555 1_555
C10 C7 1_555 1_555
H8 C10 1_555 1_555
H9 C10 1_555 1_555
C11 N1 1_555 1_555
H10 C11 1_555 1_555
H11 C11 1_555 1_555
H12 C11 1_555 1_555
C12 N1 1_555 1_555
H13 C12 1_555 1_555
H14 C12 1_555 1_555
C13 C12 1_555 1_555
C14 C13 1_555 1_555
H15 C14 1_555 1_555
C15 C14 1_555 1_555
H16 C15 1_555 1_555
C16 C15 1_555 1_555
H17 C16 1_555 1_555
C17 C16 1_555 1_555
H18 C17 1_555 1_555
C18 C13 1_555 1_555
H19 C18 1_555 1_555
C1 C6 1_555 1_555
C5 C6 1_555 1_555
C9 C10 1_555 1_555
C17 C18 1_555 1_555

#END
