
#######################################################################
#
#                 Cambridge Crystallographic Data Centre
#                                CCDC 
#
#######################################################################
#
# If this CIF has been generated from an entry in the Cambridge 
# Structural Database, then it will include bibliographic, chemical, 
# crystal, experimental, refinement or atomic coordinate data resulting 
# from the CCDC's data processing and validation procedures.
#
#######################################################################

data_XAGWAF
_chemical_formula_moiety         'C20 H22 O5'
_chemical_name_systematic        
6a-Isopropyl-8b-methyl-3b,4,4a,6a,7a,8b,9,10-octahydro-3H-bisoxireno[6,7:8a,9]phenanthro[1,2-c]furan-1,6-dione
_symmetry_cell_setting           orthorhombic
_symmetry_space_group_name_H-M   'P 21 21 21'
_symmetry_Int_Tables_number      19
_space_group_name_Hall           'P 2ac 2ab'
loop_
_symmetry_equiv_pos_site_id
_symmetry_equiv_pos_as_xyz
1 x,y,z
2 1/2-x,-y,1/2+z
3 -x,1/2+y,1/2-z
4 1/2+x,1/2-y,-z
_cell_length_a                   6.3665(7)
_cell_length_b                   11.6966(12)
_cell_length_c                   22.758(2)
_cell_angle_alpha                90
_cell_angle_beta                 90
_cell_angle_gamma                90
_cell_volume                     1694.71
_exptl_crystal_colour            colorless
_exptl_crystal_description       prismatic
_cell_formula_units_Z            4
loop_
_atom_site_label
_atom_site_type_symbol
_atom_site_fract_x
_atom_site_fract_y
_atom_site_fract_z
O1 O -0.1316(4) 0.9313(2) -0.01959(10)
O2 O -0.0070(4) 1.10732(19) -0.00524(9)
O3 O 0.1635(3) 1.14474(14) 0.16731(9)
O4 O 0.2324(7) 1.1697(2) 0.29032(11)
O5 O 0.3264(4) 0.8966(2) 0.30879(9)
C1 C 0.4644(5) 0.8508(2) 0.08418(12)
H1 H 0.5686 0.8504 0.0531
H2 H 0.4844 0.7820 0.1073
C2 C 0.2469(6) 0.8471(2) 0.05653(14)
H3 H 0.2483 0.7963 0.0228
H4 H 0.1465 0.8175 0.0847
C3 C 0.1829(5) 0.9637(2) 0.03777(11)
C4 C 0.2833(5) 1.0591(2) 0.05139(11)
C5 C 0.4831(5) 1.0645(2) 0.08592(10)
H5 H 0.5981 1.0622 0.0573
C6 C 0.5120(6) 1.1743(2) 0.12141(12)
H6 H 0.6584 1.1811 0.1327
H7 H 0.4778 1.2392 0.0967
C7 C 0.3794(5) 1.1787(2) 0.17539(12)
H8 H 0.4043 1.2431 0.2021
C8 C 0.3048(4) 1.0722(2) 0.20242(11)
C9 C 0.3542(4) 0.9593(2) 0.17653(11)
C10 C 0.5034(5) 0.9550(2) 0.12364(11)
C11 C 0.2859(5) 0.8666(2) 0.20359(13)
H9 H 0.3036 0.7964 0.1850
C12 C 0.1823(6) 0.8683(3) 0.26200(14)
H10 H 0.0816 0.8069 0.2700
C13 C 0.1565(5) 0.9728(2) 0.29549(12)
C14 C 0.2362(6) 1.0795(3) 0.26603(13)
C15 C -0.0059(6) 0.9864(4) 0.34310(13)
H11 H -0.0453 0.9070 0.3512
C16 C 0.0848(11) 1.0216(8) 0.3977(2)
H12 H -0.0114 1.0055 0.4291
H13 H 0.1130 1.1022 0.3965
H14 H 0.2135 0.9807 0.4041
C17 C -0.2042(6) 1.0354(4) 0.32171(18)
H15 H -0.2994 1.0448 0.3541
H16 H -0.2655 0.9849 0.2932
H17 H -0.1774 1.1083 0.3039
C18 C 0.7290(5) 0.9476(3) 0.14915(14)
H18 H 0.7537 1.0117 0.1746
H19 H 0.8290 0.9486 0.1176
H20 H 0.7439 0.8780 0.1711
C19 C 0.1703(6) 1.1574(2) 0.02493(13)
H21 H 0.1236 1.2102 0.0551
H22 H 0.2602 1.1981 -0.0024
C20 C 0.0010(6) 0.9910(3) 0.00204(12)
C21? C -0.015(2) 0.9071(8) 0.3896(4)
H23? H 0.0519 1.0519 0.3645
H24? H 0.1232 0.8975 0.4060
H25? H -0.0647 0.8350 0.3751
H26? H -0.1083 0.9349 0.4194
loop_
_geom_bond_atom_site_label_1
_geom_bond_atom_site_label_2
_geom_bond_site_symmetry_1
_geom_bond_site_symmetry_2
O1 C20 1_555 1_555
O2 C19 1_555 1_555
O3 C7 1_555 1_555
O4 C14 1_555 1_555
O5 C12 1_555 1_555
C1 H1 1_555 1_555
H2 C1 1_555 1_555
C2 C1 1_555 1_555
H3 C2 1_555 1_555
H4 C2 1_555 1_555
C3 C2 1_555 1_555
C4 C3 1_555 1_555
C5 C4 1_555 1_555
H5 C5 1_555 1_555
C6 C5 1_555 1_555
H6 C6 1_555 1_555
H7 C6 1_555 1_555
C7 C6 1_555 1_555
H8 C7 1_555 1_555
C8 O3 1_555 1_555
C9 C8 1_555 1_555
C10 C1 1_555 1_555
C11 C9 1_555 1_555
H9 C11 1_555 1_555
C12 C11 1_555 1_555
H10 C12 1_555 1_555
C13 O5 1_555 1_555
C14 C8 1_555 1_555
C15 C13 1_555 1_555
H11 C15 1_555 1_555
C16 C15 1_555 1_555
H12 C16 1_555 1_555
H13 C16 1_555 1_555
H14 C16 1_555 1_555
C17 C15 1_555 1_555
H15 C17 1_555 1_555
H16 C17 1_555 1_555
H17 C17 1_555 1_555
C18 C10 1_555 1_555
H18 C18 1_555 1_555
H19 C18 1_555 1_555
H20 C18 1_555 1_555
C19 C4 1_555 1_555
H21 C19 1_555 1_555
H22 C19 1_555 1_555
C20 O2 1_555 1_555
C3 C20 1_555 1_555
C5 C10 1_555 1_555
C7 C8 1_555 1_555
C9 C10 1_555 1_555
C12 C13 1_555 1_555
C13 C14 1_555 1_555

#END
