
#######################################################################
#
#                 Cambridge Crystallographic Data Centre
#                                CCDC 
#
#######################################################################
#
# If this CIF has been generated from an entry in the Cambridge 
# Structural Database, then it will include bibliographic, chemical, 
# crystal, experimental, refinement or atomic coordinate data resulting 
# from the CCDC's data processing and validation procedures.
#
#######################################################################

data_XAHTIM
_chemical_name_common            'Ginkgolide K monohydrate'
_chemical_formula_moiety         'C20 H22 O9,H2 O1'
_chemical_name_systematic        
'8-t-Butyl-6,12-dihydroxy-16-methyl-2,4,14,19-tetraoxahexacyclo[8.7.2.0^1,11^.0^3,7^.0^7,11^.0^13,17^]nonadec-16-ene-5,15,18-trione monohydrate'
_symmetry_cell_setting           orthorhombic
_symmetry_space_group_name_H-M   'P 21 21 21'
_symmetry_Int_Tables_number      19
_space_group_name_Hall           'P 2ac 2ab'
loop_
_symmetry_equiv_pos_site_id
_symmetry_equiv_pos_as_xyz
1 x,y,z
2 1/2-x,-y,1/2+z
3 1/2+x,1/2-y,-z
4 -x,1/2+y,1/2-z
_cell_length_a                   7.960(3)
_cell_length_b                   15.171(4)
_cell_length_c                   16.364(4)
_cell_angle_alpha                90
_cell_angle_beta                 90
_cell_angle_gamma                90
_cell_volume                     1976.14
_exptl_crystal_colour            colorless
_exptl_crystal_description       Prism
_cell_formula_units_Z            4
loop_
_atom_site_label
_atom_site_type_symbol
_atom_site_fract_x
_atom_site_fract_y
_atom_site_fract_z
O1 O -0.1766(3) 0.04880(12) -0.94996(11)
O2 O -0.0455(2) 0.24100(9) -0.73994(10)
O3 O -0.3143(2) 0.09922(12) -0.65689(12)
O4 O 0.2202(2) 0.20527(11) -0.79075(10)
O5 O -0.1612(4) 0.14238(18) -1.05464(13)
O6 O -0.0437(3) -0.06618(11) -0.80254(13)
O7 O -0.4120(2) 0.22704(12) -0.70240(12)
O8 O 0.3996(3) 0.10820(15) -0.84632(12)
O9 O 0.2550(2) -0.01604(10) -0.72750(12)
C1 C -0.1747(4) 0.19788(17) -0.91613(16)
C2 C -0.1712(4) 0.1310(2) -0.98216(16)
C3 C -0.1904(3) 0.05668(15) -0.86270(14)
H1 H -0.2944 0.0298 -0.8426
C4 C -0.0393(3) 0.02593(14) -0.81378(15)
H2 H 0.0644 0.0426 -0.8422
C5 C -0.0579(3) 0.08157(12) -0.73355(14)
C6 C -0.1496(3) 0.16734(13) -0.75878(13)
C7 C -0.1882(3) 0.15381(14) -0.84732(14)
C8 C -0.3064(3) 0.17048(15) -0.70454(14)
C9 C -0.1737(3) 0.03773(14) -0.67012(15)
H3 H -0.2134 -0.0199 -0.6890
C10 C -0.0713(3) 0.02971(16) -0.59339(16)
H4 H -0.0087 -0.0251 -0.5931
H5 H -0.1432 0.0314 -0.5456
C11 C 0.0487(3) 0.10905(14) -0.59413(13)
H6 H -0.0224 0.1606 -0.5838
C12 C 0.1005(3) 0.11594(13) -0.68600(13)
C13 C 0.1147(3) 0.21100(14) -0.71813(14)
H7 H 0.1656 0.2497 -0.6770
C14 C 0.3058(3) 0.12786(17) -0.79185(15)
C15 C 0.2658(3) 0.07555(14) -0.71474(15)
H8 H 0.3527 0.0873 -0.6737
C16 C -0.1509(6) 0.2936(2) -0.9337(2)
H9 H -0.1463 0.3026 -0.9917
H10 H -0.2432 0.3264 -0.9113
H11 H -0.0479 0.3135 -0.9094
C17 C 0.1809(3) 0.10914(16) -0.52429(14)
C18 C 0.0849(5) 0.1116(2) -0.44277(17)
H12 H 0.0151 0.0602 -0.4384
H13 H 0.1636 0.1126 -0.3983
H14 H 0.0161 0.1635 -0.4407
C19 C 0.2950(5) 0.02763(19) -0.52239(17)
H15 H 0.2272 -0.0246 -0.5198
H16 H 0.3627 0.0262 -0.5710
H17 H 0.3666 0.0303 -0.4752
C20 C 0.2903(4) 0.1924(2) -0.52847(19)
H18 H 0.2196 0.2436 -0.5297
H19 H 0.3620 0.1948 -0.4813
H20 H 0.3580 0.1907 -0.5770
H21 H 0.348(3) -0.041(2) -0.724(2)
H22 H 0.047(4) -0.078(2) -0.775(2)
O10 O 0.5266(3) -0.11578(14) -0.71319(17)
H23 H 0.496(8) -0.162(2) -0.735(3)
H24 H 0.565(7) -0.127(3) -0.6664(19)
loop_
_geom_bond_atom_site_label_1
_geom_bond_atom_site_label_2
_geom_bond_site_symmetry_1
_geom_bond_site_symmetry_2
O1 C2 1_555 1_555
O2 C6 1_555 1_555
O3 C8 1_555 1_555
O4 C13 1_555 1_555
O5 C2 1_555 1_555
O6 C4 1_555 1_555
O7 C8 1_555 1_555
O8 C14 1_555 1_555
O9 C15 1_555 1_555
C1 C2 1_555 1_555
C3 O1 1_555 1_555
H1 C3 1_555 1_555
C4 C3 1_555 1_555
H2 C4 1_555 1_555
C5 C4 1_555 1_555
C6 C5 1_555 1_555
C7 C1 1_555 1_555
C8 C6 1_555 1_555
C9 O3 1_555 1_555
H3 C9 1_555 1_555
C10 C9 1_555 1_555
H4 C10 1_555 1_555
H5 C10 1_555 1_555
C11 C10 1_555 1_555
H6 C11 1_555 1_555
C12 C5 1_555 1_555
C13 O2 1_555 1_555
H7 C13 1_555 1_555
C14 O4 1_555 1_555
C15 C12 1_555 1_555
H8 C15 1_555 1_555
C16 C1 1_555 1_555
H9 C16 1_555 1_555
H10 C16 1_555 1_555
H11 C16 1_555 1_555
C17 C11 1_555 1_555
C18 C17 1_555 1_555
H12 C18 1_555 1_555
H13 C18 1_555 1_555
H14 C18 1_555 1_555
C19 C17 1_555 1_555
H15 C19 1_555 1_555
H16 C19 1_555 1_555
H17 C19 1_555 1_555
C20 C17 1_555 1_555
H18 C20 1_555 1_555
H19 C20 1_555 1_555
H20 C20 1_555 1_555
H21 O9 1_555 1_555
H22 O6 1_555 1_555
O10 H23 1_555 1_555
H24 O10 1_555 1_555
C3 C7 1_555 1_555
C5 C9 1_555 1_555
C6 C7 1_555 1_555
C11 C12 1_555 1_555
C12 C13 1_555 1_555
C14 C15 1_555 1_555

#END
