
#######################################################################
#
#                 Cambridge Crystallographic Data Centre
#                                CCDC 
#
#######################################################################
#
# If this CIF has been generated from an entry in the Cambridge 
# Structural Database, then it will include bibliographic, chemical, 
# crystal, experimental, refinement or atomic coordinate data resulting 
# from the CCDC's data processing and validation procedures.
#
#######################################################################

data_XAJFAS
_chemical_formula_moiety         'C24 H26 Cl1 N3 O8'
_chemical_name_systematic        
'Dimethyl 7-chloro-2-(cyclohexyl(ethoxy(oxo)acetyl)amino)-4H-pyrimido[2,1-b][1,3]benzoxazole-3,4-dicarboxylate'
_symmetry_cell_setting           triclinic
_symmetry_space_group_name_H-M   'P -1'
_symmetry_Int_Tables_number      2
_space_group_name_Hall           '-P 1'
loop_
_symmetry_equiv_pos_site_id
_symmetry_equiv_pos_as_xyz
1 x,y,z
2 -x,-y,-z
_cell_length_a                   8.4193(2)
_cell_length_b                   9.2108(2)
_cell_length_c                   17.3186(3)
_cell_angle_alpha                102.6690(10)
_cell_angle_beta                 99.1210(10)
_cell_angle_gamma                103.6290(10)
_cell_volume                     1241.75
_exptl_crystal_colour            colorless
_exptl_crystal_description       block
_cell_formula_units_Z            2
loop_
_atom_site_label
_atom_site_type_symbol
_atom_site_fract_x
_atom_site_fract_y
_atom_site_fract_z
Cl1 Cl -0.34618(7) 0.21535(7) 0.27123(3)
O1 O -0.28254(13) 0.07840(12) 0.58249(7)
N1 N -0.07149(15) 0.33304(14) 0.57834(8)
O2 O -0.09825(14) -0.06170(13) 0.58184(7)
O3 O -0.17628(14) 0.53003(13) 0.61525(7)
N2 N -0.03111(16) 0.45707(15) 0.71838(8)
C1 C -0.13140(18) 0.05840(17) 0.58379(9)
O4 O 0.29929(16) 0.13518(17) 0.62227(8)
N3 N 0.14163(17) 0.39325(15) 0.81670(8)
C2 C 0.07543(18) 0.36803(17) 0.73405(9)
C3 C -0.08721(18) 0.43830(17) 0.64239(10)
C4 C 0.00174(17) 0.20964(16) 0.59119(9)
H1 H 0.0692 0.1900 0.5509
O5 O -0.14040(15) 0.11300(15) 0.77117(9)
O6 O 0.05577(16) -0.00275(15) 0.80459(9)
C5 C 0.11582(17) 0.26601(17) 0.67534(9)
O7 O 0.37580(15) 0.27187(17) 0.75219(8)
C6 C -0.19033(18) 0.26796(18) 0.42710(10)
H2 H -0.1487 0.1840 0.4106
C7 C 0.26882(19) 0.21489(19) 0.68018(10)
C8 C -0.22068(18) 0.47495(18) 0.53129(11)
C9 C -0.15890(17) 0.34976(17) 0.50695(10)
O8 O 0.2074(2) 0.27707(17) 0.91621(9)
C10 C -0.0006(2) 0.11807(19) 0.80110(11)
C11 C -0.3475(2) 0.4474(2) 0.39610(13)
H3 H -0.4108 0.4787 0.3572
C12 C -0.2892(2) 0.3196(2) 0.37242(11)
C13 C 0.1330(2) 0.2691(2) 0.84909(11)
C14 C -0.3126(2) 0.5296(2) 0.47726(13)
H4 H -0.3493 0.6165 0.4940
C15 C 0.2170(2) 0.55491(19) 0.86937(10)
H5 H 0.1958 0.6240 0.8357
C16 C 0.4065(3) 0.5920(2) 0.89633(13)
H6 H 0.4341 0.5229 0.9279
H7 H 0.4553 0.5763 0.8491
C17 C -0.0655(3) -0.1551(2) 0.77130(16)
H8 H -0.0066 -0.2334 0.7603
H9 H -0.1351 -0.1578 0.7204
C18 C 0.1326(3) 0.5888(3) 0.93934(14)
H10 H 0.1440 0.5183 0.9727
H11 H 0.0140 0.5730 0.9186
C19 C 0.5365(2) 0.2386(3) 0.75798(14)
H12 H 0.5210 0.1305 0.7543
H13 H 0.6096 0.2994 0.8090
H14 H 0.5853 0.2639 0.7144
C20 C 0.4786(3) 0.7593(3) 0.94727(14)
H15 H 0.5987 0.7808 0.9662
H16 H 0.4593 0.8282 0.9140
C21 C 0.4009(5) 0.7896(3) 1.01796(16)
H17 H 0.4490 0.8969 1.0492
H18 H 0.4250 0.7244 1.0527
C22 C 0.2129(5) 0.7572(3) 0.99095(18)
H19 H 0.1887 0.8276 0.9594
H20 H 0.1647 0.7754 1.0383
C23 C -0.1737(4) -0.1908(3) 0.8290(2)
H21 H -0.1044 -0.1822 0.8804
H22 H -0.2466 -0.2944 0.8076
H23 H -0.2396 -0.1188 0.8360
C24 C -0.4131(2) -0.0574(2) 0.58120(13)
H24 H -0.4346 -0.1338 0.5303
H25 H -0.5136 -0.0287 0.5877
H26 H -0.3773 -0.0996 0.6247
loop_
_geom_bond_atom_site_label_1
_geom_bond_atom_site_label_2
_geom_bond_site_symmetry_1
_geom_bond_site_symmetry_2
Cl1 C12 1_555 1_555
O1 C1 1_555 1_555
N1 C3 1_555 1_555
O2 C1 1_555 1_555
O3 C3 1_555 1_555
N2 C2 1_555 1_555
C1 C4 1_555 1_555
O4 C7 1_555 1_555
N3 C2 1_555 1_555
C2 C5 1_555 1_555
C3 N2 1_555 1_555
C4 N1 1_555 1_555
H1 C4 1_555 1_555
O5 C10 1_555 1_555
O6 C10 1_555 1_555
C5 C4 1_555 1_555
O7 C7 1_555 1_555
C6 H2 1_555 1_555
C7 C5 1_555 1_555
C8 O3 1_555 1_555
C9 N1 1_555 1_555
O8 C13 1_555 1_555
C10 C13 1_555 1_555
C11 H3 1_555 1_555
C12 C6 1_555 1_555
C13 N3 1_555 1_555
C14 C8 1_555 1_555
H4 C14 1_555 1_555
C15 N3 1_555 1_555
H5 C15 1_555 1_555
C16 C15 1_555 1_555
H6 C16 1_555 1_555
H7 C16 1_555 1_555
C17 O6 1_555 1_555
H8 C17 1_555 1_555
H9 C17 1_555 1_555
C18 C15 1_555 1_555
H10 C18 1_555 1_555
H11 C18 1_555 1_555
C19 O7 1_555 1_555
H12 C19 1_555 1_555
H13 C19 1_555 1_555
H14 C19 1_555 1_555
C20 C16 1_555 1_555
H15 C20 1_555 1_555
H16 C20 1_555 1_555
C21 C20 1_555 1_555
H17 C21 1_555 1_555
H18 C21 1_555 1_555
C22 C18 1_555 1_555
H19 C22 1_555 1_555
H20 C22 1_555 1_555
C23 C17 1_555 1_555
H21 C23 1_555 1_555
H22 C23 1_555 1_555
H23 C23 1_555 1_555
C24 O1 1_555 1_555
H24 C24 1_555 1_555
H25 C24 1_555 1_555
H26 C24 1_555 1_555
C6 C9 1_555 1_555
C8 C9 1_555 1_555
C11 C12 1_555 1_555
C11 C14 1_555 1_555
C21 C22 1_555 1_555

#END
