
#######################################################################
#
#                 Cambridge Crystallographic Data Centre
#                                CCDC 
#
#######################################################################
#
# If this CIF has been generated from an entry in the Cambridge 
# Structural Database, then it will include bibliographic, chemical, 
# crystal, experimental, refinement or atomic coordinate data resulting 
# from the CCDC's data processing and validation procedures.
#
#######################################################################

data_XAJJID
_chemical_formula_moiety         'C16 H15 Cl1 N4 S1'
_chemical_name_systematic        
5-(6-(2-Chlorophenyl)pyrimidin-4-yl)-N-isopropyl-1,3-thiazol-2-amine
_symmetry_cell_setting           orthorhombic
_symmetry_space_group_name_H-M   'P b c a'
_symmetry_Int_Tables_number      61
_space_group_name_Hall           '-P 2ac 2ab'
loop_
_symmetry_equiv_pos_site_id
_symmetry_equiv_pos_as_xyz
1 x,y,z
2 1/2-x,-y,1/2+z
3 1/2+x,1/2-y,-z
4 -x,1/2+y,1/2-z
5 -x,-y,-z
6 1/2+x,y,1/2-z
7 1/2-x,1/2+y,z
8 x,1/2-y,1/2+z
_cell_length_a                   11.911(1)
_cell_length_b                   12.3956(8)
_cell_length_c                   21.700(3)
_cell_angle_alpha                90
_cell_angle_beta                 90
_cell_angle_gamma                90
_cell_volume                     3203.87
_exptl_crystal_colour            brown
_chemical_melting_point          '475.15-491.15 K'
_cell_formula_units_Z            8
loop_
_atom_site_label
_atom_site_type_symbol
_atom_site_fract_x
_atom_site_fract_y
_atom_site_fract_z
Cl1 Cl 0.42168 0.79337 0.82624
S1 S 0.27216 0.42948 0.61989
N1 N 0.42635 0.54736 0.56937
N2 N 0.41422 0.37463 0.52746
N3 N 0.08875 0.67214 0.79077
N4 N 0.13783 0.54110 0.71418
C1 C 0.37998 0.44983 0.56611
C2 C 0.37891 0.60720 0.61525
C3 C 0.29412 0.55887 0.64835
C4 C 0.37340 0.26133 0.53053
C5 C 0.27510 0.24404 0.49286
C6 C 0.46714 0.18507 0.51273
C7 C 0.22773 0.60022 0.69831
C8 C 0.25336 0.69617 0.72852
C9 C 0.18189 0.72932 0.77594
C10 C 0.07298 0.58174 0.75875
C11 C 0.19646 0.82968 0.81187
C12 C 0.29702 0.86416 0.83661
C13 C 0.30498 0.95644 0.87293
C14 C 0.20858 1.01645 0.88324
C15 C 0.10716 0.98436 0.85970
C16 C 0.10094 0.89115 0.82474
H1 H 0.40630 0.68960 0.62570
H2 H 0.47520 0.39630 0.49170
H3 H 0.35140 0.24220 0.57820
H4 H 0.24320 0.16180 0.49610
H5 H 0.20550 0.29800 0.50750
H6 H 0.29160 0.26170 0.44470
H7 H 0.44370 0.10190 0.51430
H8 H 0.49910 0.20290 0.46580
H9 H 0.54120 0.19590 0.54360
H10 H 0.32800 0.74310 0.71550
H11 H 0.00000 0.53410 0.77130
H12 H 0.38670 0.98270 0.89150
H13 H 0.21280 1.08940 0.91000
H14 H 0.03130 1.03300 0.86770
H15 H 0.01930 0.86540 0.80600
loop_
_geom_bond_atom_site_label_1
_geom_bond_atom_site_label_2
_geom_bond_site_symmetry_1
_geom_bond_site_symmetry_2
Cl1 C12 1_555 1_555
S1 C1 1_555 1_555
N1 C1 1_555 1_555
N2 C1 1_555 1_555
N3 C9 1_555 1_555
N4 C7 1_555 1_555
C2 N1 1_555 1_555
C3 S1 1_555 1_555
C4 N2 1_555 1_555
C5 C4 1_555 1_555
C6 C4 1_555 1_555
C7 C3 1_555 1_555
C8 C7 1_555 1_555
C9 C8 1_555 1_555
C10 N3 1_555 1_555
C11 C9 1_555 1_555
C12 C11 1_555 1_555
C13 C12 1_555 1_555
C14 C13 1_555 1_555
C15 C14 1_555 1_555
C16 C11 1_555 1_555
H1 C2 1_555 1_555
H2 N2 1_555 1_555
H3 C4 1_555 1_555
H4 C5 1_555 1_555
H5 C5 1_555 1_555
H6 C5 1_555 1_555
H7 C6 1_555 1_555
H8 C6 1_555 1_555
H9 C6 1_555 1_555
H10 C8 1_555 1_555
H11 C10 1_555 1_555
H12 C13 1_555 1_555
H13 C14 1_555 1_555
H14 C15 1_555 1_555
H15 C16 1_555 1_555
N4 C10 1_555 1_555
C2 C3 1_555 1_555
C15 C16 1_555 1_555

#END
