
#######################################################################
#
#                 Cambridge Crystallographic Data Centre
#                                CCDC 
#
#######################################################################
#
# If this CIF has been generated from an entry in the Cambridge 
# Structural Database, then it will include bibliographic, chemical, 
# crystal, experimental, refinement or atomic coordinate data resulting 
# from the CCDC's data processing and validation procedures.
#
#######################################################################

data_XAJJOJ
_chemical_formula_moiety         'C16 H15 Cl1 N4 S1'
_chemical_name_systematic        
5-(2-(2-Chlorophenyl)pyrimidin-4-yl)-N-isopropyl-1,3-thiazol-2-amine
_symmetry_cell_setting           monoclinic
_symmetry_space_group_name_H-M   'C 2/c'
_symmetry_Int_Tables_number      15
_space_group_name_Hall           '-C 2yn'
loop_
_symmetry_equiv_pos_site_id
_symmetry_equiv_pos_as_xyz
1 x,y,z
2 1/2+x,1/2+y,z
3 -x,y,1/2-z
4 1/2-x,1/2+y,1/2-z
5 -x,-y,-z
6 1/2-x,1/2-y,-z
7 x,-y,1/2+z
8 1/2+x,1/2-y,1/2+z
_cell_length_a                   12.049(1)
_cell_length_b                   11.386(2)
_cell_length_c                   23.705(3)
_cell_angle_alpha                90
_cell_angle_beta                 91.55(1)
_cell_angle_gamma                90
_cell_volume                     3250.9
_exptl_crystal_colour            yellow
_chemical_melting_point          '438.15 K'
_cell_formula_units_Z            8
loop_
_atom_site_label
_atom_site_type_symbol
_atom_site_fract_x
_atom_site_fract_y
_atom_site_fract_z
Cl1 Cl 0.56316 0.48046 0.67828
S1 S 0.24450 0.60229 0.59479
N1 N 0.14261 0.55159 0.50042
N2 N 0.03157 0.53128 0.57922
N3 N 0.47931 0.65448 0.58744
N4 N 0.65346 0.70247 0.54812
C1 C 0.12826 0.55903 0.55505
C2 C 0.25001 0.58098 0.48861
C3 C 0.31785 0.61081 0.53257
C4 C 0.01122 0.54620 0.63933
C5 C -0.01249 0.67237 0.65364
C6 C -0.08242 0.46477 0.65522
C7 C 0.43415 0.64266 0.53540
C8 C 0.58738 0.68220 0.59080
C9 C 0.60595 0.69133 0.49663
C10 C 0.49727 0.65968 0.48773
C11 C 0.63670 0.69696 0.64832
C12 C 0.62363 0.61694 0.69181
C13 C 0.66365 0.63923 0.74628
C14 C 0.72142 0.74110 0.75704
C15 C 0.74057 0.81829 0.71454
C16 C 0.69852 0.79744 0.66014
H1 H 0.27950 0.58050 0.44560
H2 H -0.03560 0.49970 0.55210
H3 H 0.08550 0.51680 0.66290
H4 H -0.02690 0.68170 0.69860
H5 H 0.05650 0.72860 0.64290
H6 H -0.08640 0.70250 0.63060
H7 H -0.10020 0.47380 0.69920
H8 H -0.15750 0.48620 0.63020
H9 H -0.06060 0.37430 0.64650
H10 H 0.65640 0.70720 0.46040
H11 H 0.46120 0.64670 0.44560
H12 H 0.64920 0.57560 0.77920
H13 H 0.74970 0.76090 0.79970
H14 H 0.78730 0.89800 0.72400
H15 H 0.71690 0.85800 0.62560
loop_
_geom_bond_atom_site_label_1
_geom_bond_atom_site_label_2
_geom_bond_site_symmetry_1
_geom_bond_site_symmetry_2
Cl1 C12 1_555 1_555
S1 C1 1_555 1_555
N1 C1 1_555 1_555
N2 C1 1_555 1_555
N3 C7 1_555 1_555
N4 C8 1_555 1_555
C2 N1 1_555 1_555
C3 S1 1_555 1_555
C4 N2 1_555 1_555
C5 C4 1_555 1_555
C6 C4 1_555 1_555
C7 C3 1_555 1_555
C8 N3 1_555 1_555
C9 N4 1_555 1_555
C10 C7 1_555 1_555
C11 C8 1_555 1_555
C12 C11 1_555 1_555
C13 C12 1_555 1_555
C14 C13 1_555 1_555
C15 C14 1_555 1_555
C16 C11 1_555 1_555
H1 C2 1_555 1_555
H2 N2 1_555 1_555
H3 C4 1_555 1_555
H4 C5 1_555 1_555
H5 C5 1_555 1_555
H6 C5 1_555 1_555
H7 C6 1_555 1_555
H8 C6 1_555 1_555
H9 C6 1_555 1_555
H10 C9 1_555 1_555
H11 C10 1_555 1_555
H12 C13 1_555 1_555
H13 C14 1_555 1_555
H14 C15 1_555 1_555
H15 C16 1_555 1_555
C2 C3 1_555 1_555
C9 C10 1_555 1_555
C15 C16 1_555 1_555

#END
