
#######################################################################
#
#                 Cambridge Crystallographic Data Centre
#                                CCDC 
#
#######################################################################
#
# If this CIF has been generated from an entry in the Cambridge 
# Structural Database, then it will include bibliographic, chemical, 
# crystal, experimental, refinement or atomic coordinate data resulting 
# from the CCDC's data processing and validation procedures.
#
#######################################################################

data_XAJPUV
_chemical_formula_moiety         'C18 H44 B2 K1 N1 O6'
_chemical_name_systematic        
(18-Crown-6)-(triethylborata(trihydroborata)ammonium-H,H')-potassium
_symmetry_cell_setting           orthorhombic
_symmetry_space_group_name_H-M   'P b c a'
_symmetry_Int_Tables_number      61
_space_group_name_Hall           '-P 2ac 2ab'
loop_
_symmetry_equiv_pos_site_id
_symmetry_equiv_pos_as_xyz
1 x,y,z
2 1/2+x,1/2-y,-z
3 -x,1/2+y,1/2-z
4 1/2-x,-y,1/2+z
5 -x,-y,-z
6 1/2-x,1/2+y,z
7 x,1/2-y,1/2+z
8 1/2+x,y,1/2-z
_cell_length_a                   11.5950(7)
_cell_length_b                   14.7764(9)
_cell_length_c                   29.2387(18)
_cell_angle_alpha                90
_cell_angle_beta                 90
_cell_angle_gamma                90
_cell_volume                     5009.54
_cell_formula_units_Z            8
loop_
_atom_site_label
_atom_site_type_symbol
_atom_site_fract_x
_atom_site_fract_y
_atom_site_fract_z
B1 B 0.51568(13) 0.69467(10) 0.62875(5)
N1 N 0.46432(10) 0.70116(8) 0.68056(4)
B2 B 0.37281(14) 0.63014(10) 0.69969(6)
C1 C 0.40927(12) 0.69936(9) 0.59282(5)
C2 C 0.33178(14) 0.78234(12) 0.59636(7)
C3 C 0.60190(13) 0.78184(11) 0.62364(5)
C4 C 0.66126(16) 0.79143(15) 0.57739(6)
C5 C 0.58424(13) 0.59898(10) 0.62354(5)
C6 C 0.68423(14) 0.58261(15) 0.65608(7)
C7 C 0.53614(13) 0.32174(11) 0.63903(6)
C8 C 0.46815(13) 0.28513(10) 0.67830(6)
C9 C 0.32527(14) 0.32634(11) 0.73229(5)
C10 C 0.24759(14) 0.40222(11) 0.74657(5)
C11 C 0.09041(13) 0.49215(11) 0.72453(5)
C12 C 0.00444(12) 0.50875(11) 0.68753(5)
C13 C -0.01183(13) 0.55762(11) 0.61101(6)
C14 C 0.05759(14) 0.59153(11) 0.57161(6)
C15 C 0.19206(16) 0.54298(12) 0.51625(5)
C16 C 0.26630(16) 0.46453(12) 0.50347(5)
C17 C 0.43229(14) 0.38294(12) 0.52455(6)
C18 C 0.51785(13) 0.36980(12) 0.56197(6)
O1 O 0.45999(8) 0.33846(7) 0.60184(3)
O2 O 0.39164(8) 0.35408(6) 0.69375(3)
O3 O 0.16274(8) 0.41758(6) 0.71219(3)
O4 O 0.06384(8) 0.53765(7) 0.64745(3)
O5 O 0.13188(9) 0.52075(6) 0.55701(3)
O6 O 0.35467(9) 0.45372(7) 0.53678(3)
K1 K 0.28547(2) 0.469047(18) 0.630783(9)
H1 H 0.5272(16) 0.6979(12) 0.7005(6)
H2 H 0.4348(14) 0.7576(12) 0.6842(6)
H3 H 0.2898(12) 0.6359(10) 0.6797(5)
H4 H 0.3529(13) 0.6465(10) 0.7368(5)
H5 H 0.4099(13) 0.5596(11) 0.6971(5)
H6 H 0.4395(14) 0.6983(11) 0.5614(6)
H7 H 0.3604(14) 0.6447(11) 0.5961(5)
H8 H 0.2939(18) 0.7827(15) 0.6274(7)
H9 H 0.2685(17) 0.7849(13) 0.5738(7)
H10 H 0.3759(15) 0.8374(13) 0.5921(6)
H11 H 0.5594(16) 0.8375(13) 0.6288(6)
H12 H 0.6619(15) 0.7821(12) 0.6476(6)
H13 H 0.7094(19) 0.7371(17) 0.5709(8)
H14 H 0.7126(16) 0.8478(14) 0.5760(7)
H15 H 0.6029(17) 0.7967(13) 0.5514(7)
H16 H 0.5260(15) 0.5499(12) 0.6293(5)
H17 H 0.6164(15) 0.5940(12) 0.5910(6)
H18 H 0.742(2) 0.6332(15) 0.6542(7)
H19 H 0.729(2) 0.5244(16) 0.6509(8)
H20 H 0.657(2) 0.5812(16) 0.6891(9)
H21 H 0.5774(14) 0.3775(12) 0.6478(6)
H22 H 0.5957(16) 0.2788(13) 0.6295(6)
H23 H 0.4241(14) 0.2320(11) 0.6697(6)
H24 H 0.5228(14) 0.2676(11) 0.7033(6)
H25 H 0.3762(15) 0.3127(12) 0.7574(6)
H26 H 0.2825(14) 0.2720(12) 0.7245(6)
H27 H 0.2085(15) 0.3853(12) 0.7753(6)
H28 H 0.2935(13) 0.4565(11) 0.7521(6)
H29 H 0.1395(14) 0.5459(11) 0.7299(5)
H30 H 0.0509(15) 0.4775(11) 0.7523(6)
H31 H -0.0411(13) 0.4517(11) 0.6812(5)
H32 H -0.0495(14) 0.5541(11) 0.6982(6)
H33 H -0.0674(16) 0.6061(13) 0.6201(6)
H34 H -0.0574(14) 0.5041(12) 0.6016(6)
H35 H 0.0049(15) 0.6089(11) 0.5464(6)
H36 H 0.1025(15) 0.6461(12) 0.5796(6)
H37 H 0.2389(15) 0.5977(12) 0.5210(6)
H38 H 0.1371(16) 0.5553(12) 0.4905(6)
H39 H 0.2200(15) 0.4091(13) 0.5012(6)
H40 H 0.2987(16) 0.4754(12) 0.4736(7)
H41 H 0.4704(16) 0.3989(13) 0.4959(6)
H42 H 0.3876(14) 0.3258(11) 0.5189(5)
H43 H 0.5739(15) 0.3236(12) 0.5521(6)
H44 H 0.5598(14) 0.4290(12) 0.5687(6)
loop_
_geom_bond_atom_site_label_1
_geom_bond_atom_site_label_2
_geom_bond_site_symmetry_1
_geom_bond_site_symmetry_2
B1 N1 1_555 1_555
N1 B2 1_555 1_555
B2 H3 1_555 1_555
C1 B1 1_555 1_555
C2 C1 1_555 1_555
C3 B1 1_555 1_555
C4 C3 1_555 1_555
C5 B1 1_555 1_555
C6 C5 1_555 1_555
C7 C8 1_555 1_555
C8 O2 1_555 1_555
C9 C10 1_555 1_555
C10 O3 1_555 1_555
C11 C12 1_555 1_555
C12 O4 1_555 1_555
C13 C14 1_555 1_555
C14 O5 1_555 1_555
C15 C16 1_555 1_555
C16 O6 1_555 1_555
C17 C18 1_555 1_555
C18 O1 1_555 1_555
O1 C7 1_555 1_555
O2 C9 1_555 1_555
O3 C11 1_555 1_555
O4 C13 1_555 1_555
O5 C15 1_555 1_555
O6 C17 1_555 1_555
K1 O1 1_555 1_555
H1 N1 1_555 1_555
H2 N1 1_555 1_555
H3 K1 1_555 1_555
H4 B2 1_555 1_555
H5 B2 1_555 1_555
H6 C1 1_555 1_555
H7 C1 1_555 1_555
H8 C2 1_555 1_555
H9 C2 1_555 1_555
H10 C2 1_555 1_555
H11 C3 1_555 1_555
H12 C3 1_555 1_555
H13 C4 1_555 1_555
H14 C4 1_555 1_555
H15 C4 1_555 1_555
H16 C5 1_555 1_555
H17 C5 1_555 1_555
H18 C6 1_555 1_555
H19 C6 1_555 1_555
H20 C6 1_555 1_555
H21 C7 1_555 1_555
H22 C7 1_555 1_555
H23 C8 1_555 1_555
H24 C8 1_555 1_555
H25 C9 1_555 1_555
H26 C9 1_555 1_555
H27 C10 1_555 1_555
H28 C10 1_555 1_555
H29 C11 1_555 1_555
H30 C11 1_555 1_555
H31 C12 1_555 1_555
H32 C12 1_555 1_555
H33 C13 1_555 1_555
H34 C13 1_555 1_555
H35 C14 1_555 1_555
H36 C14 1_555 1_555
H37 C15 1_555 1_555
H38 C15 1_555 1_555
H39 C16 1_555 1_555
H40 C16 1_555 1_555
H41 C17 1_555 1_555
H42 C17 1_555 1_555
H43 C18 1_555 1_555
H44 C18 1_555 1_555
O2 K1 1_555 1_555
O3 K1 1_555 1_555
O4 K1 1_555 1_555
O5 K1 1_555 1_555
O6 K1 1_555 1_555
K1 H5 1_555 1_555

#END
