
#######################################################################
#
#                 Cambridge Crystallographic Data Centre
#                                CCDC 
#
#######################################################################
#
# If this CIF has been generated from an entry in the Cambridge 
# Structural Database, then it will include bibliographic, chemical, 
# crystal, experimental, refinement or atomic coordinate data resulting 
# from the CCDC's data processing and validation procedures.
#
#######################################################################

data_XAJYOZ
_chemical_formula_moiety         'C27 H31 Cl3 N2 O2'
_chemical_name_systematic        
2,6-Dichloro-3-((Z)-2-chloro-2-(4-(diisopropylamino)phenyl)vinyl)-5-((E)-2-(1-piperidinyl)vinyl)-1,4-benzoquinone
_symmetry_cell_setting           monoclinic
_symmetry_space_group_name_H-M   'P 21/c'
_symmetry_Int_Tables_number      14
_space_group_name_Hall           '-P 2ybc'
loop_
_symmetry_equiv_pos_site_id
_symmetry_equiv_pos_as_xyz
1 x,y,z
2 -x,1/2+y,1/2-z
3 -x,-y,-z
4 x,1/2-y,1/2+z
_cell_length_a                   13.0971(14)
_cell_length_b                   11.2766(12)
_cell_length_c                   19.0838(15)
_cell_angle_alpha                90
_cell_angle_beta                 114.566(5)
_cell_angle_gamma                90
_cell_volume                     2563.38
_exptl_crystal_colour            'bluish black'
_exptl_crystal_description       plank
_chemical_melting_point          '152-153 deg.C'
_cell_formula_units_Z            4
loop_
_atom_site_label
_atom_site_type_symbol
_atom_site_fract_x
_atom_site_fract_y
_atom_site_fract_z
Cl1 Cl 0.68675(4) 0.89554(5) 0.54819(3)
Cl2 Cl 0.89385(4) 1.04437(5) 0.72000(3)
Cl3 Cl 1.16799(4) 1.09959(5) 0.57606(3)
O1 O 1.00523(14) 0.70082(13) 0.60226(9)
O2 O 1.04097(12) 1.16334(12) 0.66416(8)
N1 N 0.44141(14) 0.50588(15) 0.69146(10)
N2 N 1.16543(14) 0.68706(15) 0.45988(10)
C1 C 0.5786(2) 0.3540(2) 0.77497(14)
H1 H 0.5684 0.3139 0.7269
H2 H 0.5871 0.2946 0.8145
H3 H 0.6459 0.4038 0.7923
C2 C 0.47625(19) 0.4311(2) 0.76116(13)
H4 H 0.4130 0.3741 0.7503
C3 C 0.51687(16) 0.57185(17) 0.67415(12)
C4 C 0.61942(16) 0.61220(17) 0.73206(11)
H5 H 0.6388 0.5899 0.7841
C5 C 0.69191(16) 0.68285(17) 0.71519(11)
H6 H 0.7605 0.7070 0.7558
C6 C 0.66762(16) 0.72021(17) 0.64003(11)
C7 C 0.74757(16) 0.79346(17) 0.62383(11)
C8 C 0.85851(16) 0.78791(18) 0.66006(11)
H7 H 0.8893 0.7295 0.6991
C9 C 0.93823(16) 0.86488(18) 0.64481(11)
C10 C 1.00781(16) 0.80856(18) 0.60876(11)
C11 C 1.08163(15) 0.88442(18) 0.58414(10)
C12 C 1.13723(16) 0.83706(19) 0.54059(11)
H8 H 1.1942 0.8845 0.5362
C13 C 1.11641(17) 0.72884(18) 0.50402(12)
H9 H 1.0624 0.6793 0.5107
C14 C 1.10334(19) 0.5929(2) 0.40417(14)
H10 H 1.0370 0.6282 0.3620
H11 H 1.0762 0.5331 0.4305
C15 C 1.1756(2) 0.5325(2) 0.37047(14)
H12 H 1.1296 0.4754 0.3303
H13 H 1.2364 0.4878 0.4114
C16 C 1.2261(2) 0.6229(2) 0.33558(13)
H14 H 1.1660 0.6710 0.2966
H15 H 1.2687 0.5825 0.3101
C17 C 0.4864(2) 0.4986(3) 0.83320(14)
H16 H 0.5525 0.5502 0.8505
H17 H 0.4943 0.4420 0.8741
H18 H 0.4190 0.5468 0.8212
C18 C 0.32765(18) 0.4846(2) 0.63094(13)
H19 H 0.3118 0.5498 0.5923
C19 C 0.3216(2) 0.3687(2) 0.58844(15)
H20 H 0.3777 0.3695 0.5669
H21 H 0.2465 0.3599 0.5467
H22 H 0.3366 0.3022 0.6244
C20 C 0.2382(2) 0.4922(3) 0.66215(17)
H23 H 0.2481 0.4269 0.6983
H24 H 0.1636 0.4867 0.6194
H25 H 0.2451 0.5680 0.6889
C21 C 0.49442(17) 0.60758(19) 0.59841(12)
H26 H 0.4277 0.5807 0.5572
C22 C 0.56645(17) 0.68042(19) 0.58249(12)
H27 H 0.5468 0.7044 0.5308
C23 C 0.95699(16) 0.97852(18) 0.66656(11)
C24 C 1.03246(16) 1.05771(18) 0.64649(11)
C25 C 1.08940(16) 1.00250(18) 0.60453(10)
C26 C 1.24378(17) 0.76321(19) 0.44365(12)
H28 H 1.3009 0.7937 0.4931
H29 H 1.2019 0.8322 0.4131
C27 C 1.30387(18) 0.7020(2) 0.40006(12)
H30 H 1.3365 0.7630 0.3781
H31 H 1.3664 0.6536 0.4366
loop_
_geom_bond_atom_site_label_1
_geom_bond_atom_site_label_2
_geom_bond_site_symmetry_1
_geom_bond_site_symmetry_2
Cl1 C7 1_555 1_555
Cl2 C23 1_555 1_555
Cl3 C25 1_555 1_555
O1 C10 1_555 1_555
O2 C24 1_555 1_555
N1 C2 1_555 1_555
N2 C13 1_555 1_555
C1 H1 1_555 1_555
H2 C1 1_555 1_555
H3 C1 1_555 1_555
C2 C1 1_555 1_555
H4 C2 1_555 1_555
C3 N1 1_555 1_555
C4 C3 1_555 1_555
H5 C4 1_555 1_555
C5 C4 1_555 1_555
H6 C5 1_555 1_555
C6 C5 1_555 1_555
C7 C6 1_555 1_555
C8 C7 1_555 1_555
H7 C8 1_555 1_555
C9 C8 1_555 1_555
C10 C9 1_555 1_555
C11 C10 1_555 1_555
C12 C11 1_555 1_555
H8 C12 1_555 1_555
C13 C12 1_555 1_555
H9 C13 1_555 1_555
C14 N2 1_555 1_555
H10 C14 1_555 1_555
H11 C14 1_555 1_555
C15 C14 1_555 1_555
H12 C15 1_555 1_555
H13 C15 1_555 1_555
C16 C15 1_555 1_555
H14 C16 1_555 1_555
H15 C16 1_555 1_555
C17 C2 1_555 1_555
H16 C17 1_555 1_555
H17 C17 1_555 1_555
H18 C17 1_555 1_555
C18 N1 1_555 1_555
H19 C18 1_555 1_555
C19 C18 1_555 1_555
H20 C19 1_555 1_555
H21 C19 1_555 1_555
H22 C19 1_555 1_555
C20 C18 1_555 1_555
H23 C20 1_555 1_555
H24 C20 1_555 1_555
H25 C20 1_555 1_555
C21 C3 1_555 1_555
H26 C21 1_555 1_555
C22 C6 1_555 1_555
H27 C22 1_555 1_555
C23 C9 1_555 1_555
C24 C23 1_555 1_555
C25 C11 1_555 1_555
C26 N2 1_555 1_555
H28 C26 1_555 1_555
H29 C26 1_555 1_555
C27 C16 1_555 1_555
H30 C27 1_555 1_555
H31 C27 1_555 1_555
C21 C22 1_555 1_555
C24 C25 1_555 1_555
C26 C27 1_555 1_555

#END
