
#######################################################################
#
#                 Cambridge Crystallographic Data Centre
#                                CCDC 
#
#######################################################################
#
# If this CIF has been generated from an entry in the Cambridge 
# Structural Database, then it will include bibliographic, chemical, 
# crystal, experimental, refinement or atomic coordinate data resulting 
# from the CCDC's data processing and validation procedures.
#
#######################################################################

data_XAKKEC
_chemical_formula_moiety         'C46 H42 N4 O8 2+,8(H2 O1),2(Br1 1-)'
_chemical_name_systematic        
"4,4'-(2,4-bis(pyridin-4-yl)cyclobutane-1,3-diyl)bis(1-(3,5-bis(methoxycarbonyl)benzyl)pyridinium) dibromide octahydrate unknown solvate"
_symmetry_cell_setting           monoclinic
_symmetry_space_group_name_H-M   'C 2/c'
_symmetry_Int_Tables_number      15
_space_group_name_Hall           '-C 2yn'
loop_
_symmetry_equiv_pos_site_id
_symmetry_equiv_pos_as_xyz
1 x,y,z
2 -x,y,1/2-z
3 1/2+x,1/2+y,z
4 1/2-x,1/2+y,1/2-z
5 -x,-y,-z
6 x,-y,1/2+z
7 1/2-x,1/2-y,-z
8 1/2+x,1/2-y,1/2+z
_cell_length_a                   27.25(5)
_cell_length_b                   13.662(16)
_cell_length_c                   17.30(2)
_cell_angle_alpha                90
_cell_angle_beta                 110.040(18)
_cell_angle_gamma                90
_cell_volume                     6050.65
_exptl_crystal_colour            colorless
_exptl_crystal_description       block
_cell_formula_units_Z            4
loop_
_atom_site_label
_atom_site_type_symbol
_atom_site_fract_x
_atom_site_fract_y
_atom_site_fract_z
Br1 Br 0.30403(5) 0.34942(7) 0.18017(6)
O1 O 0.1702(2) 0.0533(4) 0.5189(3)
O2 O 0.1322(2) 0.1907(4) 0.5334(3)
O3 O 0.20007(17) 0.4917(3) 0.4372(2)
O4 O 0.2161(2) 0.4800(3) 0.3189(2)
N1 N 0.5789(3) -0.1386(12) 0.2882(4)
N2 N 0.30827(16) 0.0870(3) 0.3401(2)
C1 C 0.1495(4) 0.0040(8) 0.5791(6)
H1 H 0.1550 0.0466 0.6269
H2 H 0.1680 -0.0580 0.5970
H3 H 0.1121 -0.0088 0.5526
C2 C 0.1574(2) 0.1456(5) 0.5034(4)
C3 C 0.18356(18) 0.1886(4) 0.4453(3)
C4 C 0.20476(19) 0.1309(4) 0.3994(3)
H4 H 0.2032 0.0617 0.4030
C5 C 0.22894(18) 0.1739(4) 0.3468(3)
C6 C 0.22900(19) 0.2765(5) 0.3394(3)
H5 H 0.2438 0.3066 0.3030
C7 C 0.20704(18) 0.3337(4) 0.3863(3)
C8 C 0.18407(18) 0.2907(4) 0.4381(3)
H6 H 0.1687 0.3304 0.4686
C9 C 0.2078(2) 0.4429(4) 0.3747(3)
C10 C 0.2035(4) 0.5994(6) 0.4320(5)
H7 H 0.2381 0.6175 0.4309
H8 H 0.1982 0.6293 0.4800
H9 H 0.1766 0.6227 0.3817
C11 C 0.2514(2) 0.1105(4) 0.2951(3)
H10 H 0.2313 0.0488 0.2809
H11 H 0.2480 0.1451 0.2432
C12 C 0.3208(3) 0.0056(6) 0.3831(4)
H12 H 0.2939 -0.0361 0.3876
C13 C 0.3730(4) -0.0201(7) 0.4222(4)
H13 H 0.3807 -0.0789 0.4534
C14 C 0.4120(3) 0.0338(9) 0.4177(4)
C15 C 0.3982(3) 0.1198(8) 0.3736(6)
H14 H 0.4247 0.1627 0.3694
C16 C 0.3456(3) 0.1440(5) 0.3351(5)
H15 H 0.3368 0.2031 0.3046
C17 C 0.4632(3) -0.0133(13) 0.4577(5)
H16 H 0.4571 -0.0847 0.4453
C18 C 0.5081(4) 0.0069(14) 0.4472(5)
H17 H 0.5051 0.0757 0.4262
C19 C 0.5341(4) -0.0550(11) 0.3925(7)
C20 C 0.5359(3) -0.1483(13) 0.3922(5)
H18 H 0.5230 -0.1849 0.4279
C21 C 0.5578(4) -0.1991(11) 0.3364(6)
H19 H 0.5579 -0.2685 0.3327
C22 C 0.5750(4) -0.0482(13) 0.2964(5)
H20 H 0.5875 -0.0083 0.2621
C23 C 0.5550(3) 0.0007(12) 0.3484(6)
H21 H 0.5561 0.0701 0.3528
O1D O 0.8298(2) -0.0533(4) 0.4811(3)
O2D O 0.8678(2) -0.1907(4) 0.4666(3)
O3D O 0.79993(17) -0.4917(3) 0.5628(2)
O4D O 0.7839(2) -0.4800(3) 0.6811(2)
N1D N 0.4211(3) 0.1386(12) 0.7118(4)
N2D N 0.69173(16) -0.0870(3) 0.6599(2)
C1D C 0.8505(4) -0.0040(8) 0.4209(6)
H1D H 0.8450 -0.0466 0.3731
H2D H 0.8320 0.0580 0.4030
H3D H 0.8879 0.0088 0.4474
C2D C 0.8426(2) -0.1456(5) 0.4966(4)
C3D C 0.81644(18) -0.1886(4) 0.5547(3)
C4D C 0.79524(19) -0.1309(4) 0.6006(3)
H4D H 0.7968 -0.0617 0.5970
C5D C 0.77106(18) -0.1739(4) 0.6532(3)
C6D C 0.77100(19) -0.2765(5) 0.6606(3)
H5D H 0.7562 -0.3066 0.6970
C7D C 0.79296(18) -0.3337(4) 0.6137(3)
C8D C 0.81593(18) -0.2907(4) 0.5619(3)
H6D H 0.8313 -0.3304 0.5314
C9D C 0.7922(2) -0.4429(4) 0.6253(3)
C10D C 0.7965(4) -0.5994(6) 0.5680(5)
H7D H 0.7619 -0.6175 0.5691
H8D H 0.8018 -0.6293 0.5200
H9D H 0.8234 -0.6227 0.6183
C11D C 0.7486(2) -0.1105(4) 0.7049(3)
H10D H 0.7687 -0.0488 0.7191
H11D H 0.7520 -0.1451 0.7568
C12D C 0.6792(3) -0.0056(6) 0.6169(4)
H12D H 0.7061 0.0361 0.6124
C13D C 0.6270(4) 0.0201(7) 0.5778(4)
H13D H 0.6193 0.0789 0.5466
C14D C 0.5880(3) -0.0338(9) 0.5823(4)
C15D C 0.6018(3) -0.1198(8) 0.6264(6)
H14D H 0.5753 -0.1627 0.6306
C16D C 0.6544(3) -0.1440(5) 0.6649(5)
H15D H 0.6632 -0.2031 0.6954
C17D C 0.5368(3) 0.0133(13) 0.5423(5)
H16D H 0.5429 0.0847 0.5547
C18D C 0.4919(4) -0.0069(14) 0.5528(5)
H17D H 0.4949 -0.0757 0.5738
C19D C 0.4659(4) 0.0550(11) 0.6075(7)
C20D C 0.4641(3) 0.1483(13) 0.6078(5)
H18D H 0.4770 0.1849 0.5721
C21D C 0.4422(4) 0.1991(11) 0.6636(6)
H19D H 0.4421 0.2685 0.6673
C22D C 0.4250(4) 0.0482(13) 0.7036(5)
H20D H 0.4125 0.0083 0.7379
C23D C 0.4450(3) -0.0007(12) 0.6516(6)
H21D H 0.4439 -0.0701 0.6472
O5 O 0.1852(4) 0.2465(6) 0.1071(5)
O6 O 0.6075(3) -0.2679(8) 0.1773(4)
O7 O 0.3710(8) 0.3075(14) 0.0568(10)
O8 O 0.5871(7) -0.4606(17) 0.2374(14)
loop_
_geom_bond_atom_site_label_1
_geom_bond_atom_site_label_2
_geom_bond_site_symmetry_1
_geom_bond_site_symmetry_2
O1 C1 1_555 1_555
O2 C2 1_555 1_555
O3 C9 1_555 1_555
O4 C9 1_555 1_555
N1 C21 1_555 1_555
N2 C11 1_555 1_555
C1 H1 1_555 1_555
H2 C1 1_555 1_555
H3 C1 1_555 1_555
C2 O1 1_555 1_555
C3 C2 1_555 1_555
C4 C3 1_555 1_555
H4 C4 1_555 1_555
C5 C4 1_555 1_555
C6 C5 1_555 1_555
H5 C6 1_555 1_555
C7 C6 1_555 1_555
C8 C3 1_555 1_555
H6 C8 1_555 1_555
C9 C7 1_555 1_555
C10 O3 1_555 1_555
H7 C10 1_555 1_555
H8 C10 1_555 1_555
H9 C10 1_555 1_555
C11 C5 1_555 1_555
H10 C11 1_555 1_555
H11 C11 1_555 1_555
C12 N2 1_555 1_555
H12 C12 1_555 1_555
C13 C12 1_555 1_555
H13 C13 1_555 1_555
C14 C13 1_555 1_555
C15 C14 1_555 1_555
H14 C15 1_555 1_555
C16 N2 1_555 1_555
H15 C16 1_555 1_555
C17 C14 1_555 1_555
H16 C17 1_555 1_555
C18 C17 1_555 1_555
H17 C18 1_555 1_555
C19 C18 1_555 1_555
C20 C19 1_555 1_555
H18 C20 1_555 1_555
C21 C20 1_555 1_555
H19 C21 1_555 1_555
C22 N1 1_555 1_555
H20 C22 1_555 1_555
C23 C19 1_555 1_555
H21 C23 1_555 1_555
O1D C1D 1_555 1_555
O2D C2D 1_555 1_555
O3D C9D 1_555 1_555
O4D C9D 1_555 1_555
N1D C21D 1_555 1_555
N2D C11D 1_555 1_555
C1D H1D 1_555 1_555
H2D C1D 1_555 1_555
H3D C1D 1_555 1_555
C2D O1D 1_555 1_555
C3D C2D 1_555 1_555
C4D C3D 1_555 1_555
H4D C4D 1_555 1_555
C5D C4D 1_555 1_555
C6D C5D 1_555 1_555
H5D C6D 1_555 1_555
C7D C6D 1_555 1_555
C8D C3D 1_555 1_555
H6D C8D 1_555 1_555
C9D C7D 1_555 1_555
C10D O3D 1_555 1_555
H7D C10D 1_555 1_555
H8D C10D 1_555 1_555
H9D C10D 1_555 1_555
C11D C5D 1_555 1_555
H10D C11D 1_555 1_555
H11D C11D 1_555 1_555
C12D N2D 1_555 1_555
H12D C12D 1_555 1_555
C13D C12D 1_555 1_555
H13D C13D 1_555 1_555
C14D C13D 1_555 1_555
C15D C14D 1_555 1_555
H14D C15D 1_555 1_555
C16D N2D 1_555 1_555
H15D C16D 1_555 1_555
C17D C18 1_555 1_555
H16D C17D 1_555 1_555
C18D C17 1_555 1_555
H17D C18D 1_555 1_555
C19D C18D 1_555 1_555
C20D C19D 1_555 1_555
H18D C20D 1_555 1_555
C21D C20D 1_555 1_555
H19D C21D 1_555 1_555
C22D N1D 1_555 1_555
H20D C22D 1_555 1_555
C23D C19D 1_555 1_555
H21D C23D 1_555 1_555
C7 C8 1_555 1_555
C15 C16 1_555 1_555
C22 C23 1_555 1_555
C7D C8D 1_555 1_555
C14D C17D 1_555 1_555
C15D C16D 1_555 1_555
C17D C18D 1_555 1_555
C22D C23D 1_555 1_555

#END
