
#######################################################################
#
#                 Cambridge Crystallographic Data Centre
#                                CCDC 
#
#######################################################################
#
# If this CIF has been generated from an entry in the Cambridge 
# Structural Database, then it will include bibliographic, chemical, 
# crystal, experimental, refinement or atomic coordinate data resulting 
# from the CCDC's data processing and validation procedures.
#
#######################################################################

data_XAMRUY
_chemical_formula_moiety         'C11 H14 N2 O2'
_chemical_name_systematic        
2,3-Diaza-7-oxatricyclo(7.2.2.1^3,11^)tetradeca-1,11(14)-dien-8-one
_symmetry_cell_setting           monoclinic
_symmetry_space_group_name_H-M   'P 21/n'
_symmetry_Int_Tables_number      14
_space_group_name_Hall           '-P 2yn'
loop_
_symmetry_equiv_pos_site_id
_symmetry_equiv_pos_as_xyz
1 x,y,z
2 1/2-x,1/2+y,1/2-z
3 -x,-y,-z
4 1/2+x,1/2-y,1/2+z
_cell_length_a                   6.4560(14)
_cell_length_b                   10.109(2)
_cell_length_c                   15.028(7)
_cell_angle_alpha                90
_cell_angle_beta                 94.12(3)
_cell_angle_gamma                90
_cell_volume                     978.248
_exptl_crystal_colour            white
_chemical_melting_point          '130-131 deg.C'
_cell_formula_units_Z            4
loop_
_atom_site_label
_atom_site_type_symbol
_atom_site_fract_x
_atom_site_fract_y
_atom_site_fract_z
O1 O 0.4002(3) 0.2809(2) 0.0358(1)
O2 O 0.2704(3) 0.0760(2) 0.0422(1)
N1 N 0.8584(3) 0.2887(2) 0.0674(1)
N2 N 0.7907(3) 0.3922(2) 0.1169(1)
C1 C 0.4682(5) 0.2576(3) -0.0533(2)
C2 C 0.6468(5) 0.3494(3) -0.0695(2)
C3 C 0.8615(5) 0.3120(3) -0.0283(2)
C4 C 0.8003(4) 0.1708(3) 0.1004(2)
C5 C 0.6985(4) 0.1955(2) 0.1750(2)
C6 C 0.5303(4) 0.1203(3) 0.2161(2)
C7 C 0.3300(4) 0.1949(3) 0.1793(2)
C8 C 0.3243(4) 0.1773(3) 0.0792(2)
C9 C 0.3288(4) 0.3387(3) 0.2137(2)
C10 C 0.5477(4) 0.3972(3) 0.2388(2)
C11 C 0.6962(4) 0.3341(2) 0.1813(2)
H1 H 0.5235(41) 0.0266(29) 0.1971(16)
H2 H 0.5847(38) 0.3834(23) 0.3031(16)
H3 H 0.6088(45) 0.4393(30) -0.0517(17)
H4 H 0.5394(40) 0.4935(27) 0.2289(15)
H5 H 0.5102(47) 0.1596(30) -0.0556(18)
H6 H 0.8217(42) 0.0923(27) 0.0694(17)
H7 H 0.5324(44) 0.1263(26) 0.2811(19)
H8 H 0.3466(52) 0.2732(28) -0.0979(21)
H9 H 0.9588(51) 0.3835(30) -0.0398(19)
H10 H 0.2599(45) 0.3912(27) 0.1670(18)
H11 H 0.9071(44) 0.2295(27) -0.0543(18)
H12 H 0.2069(38) 0.1488(22) 0.1975(15)
H13 H 0.6598(45) 0.3536(29) -0.1371(20)
H14 H 0.2506(45) 0.3391(27) 0.2684(18)
loop_
_geom_bond_atom_site_label_1
_geom_bond_atom_site_label_2
_geom_bond_site_symmetry_1
_geom_bond_site_symmetry_2
O1 C1 1_555 1_555
O2 C8 1_555 1_555
N1 N2 1_555 1_555
N2 C11 1_555 1_555
C1 C2 1_555 1_555
C2 C3 1_555 1_555
C3 N1 1_555 1_555
C4 N1 1_555 1_555
C5 C4 1_555 1_555
C6 C5 1_555 1_555
C7 C6 1_555 1_555
C8 O1 1_555 1_555
C9 C7 1_555 1_555
C10 C9 1_555 1_555
C11 C5 1_555 1_555
H1 C6 1_555 1_555
H2 C10 1_555 1_555
H3 C2 1_555 1_555
H4 C10 1_555 1_555
H5 C1 1_555 1_555
H6 C4 1_555 1_555
H7 C6 1_555 1_555
H8 C1 1_555 1_555
H9 C3 1_555 1_555
H10 C9 1_555 1_555
H11 C3 1_555 1_555
H12 C7 1_555 1_555
H13 C2 1_555 1_555
H14 C9 1_555 1_555
C7 C8 1_555 1_555
C10 C11 1_555 1_555

#END
