
#######################################################################
#
#                 Cambridge Crystallographic Data Centre
#                                CCDC 
#
#######################################################################
#
# If this CIF has been generated from an entry in the Cambridge 
# Structural Database, then it will include bibliographic, chemical, 
# crystal, experimental, refinement or atomic coordinate data resulting 
# from the CCDC's data processing and validation procedures.
#
#######################################################################

data_XAPBIB
_chemical_formula_moiety         'C16 H26 N4 4+,4(Cl1 O4 1-),2(H2 O1)'
_chemical_name_systematic        
"1,1'-bis(3-ammoniopropyl)-4,4'-bipyridinium tetraperchlorate dihydrate"
_symmetry_cell_setting           monoclinic
_symmetry_space_group_name_H-M   'P 21/n'
_symmetry_Int_Tables_number      14
_space_group_name_Hall           '-P 2yn'
loop_
_symmetry_equiv_pos_site_id
_symmetry_equiv_pos_as_xyz
1 x,y,z
2 1/2-x,1/2+y,1/2-z
3 -x,-y,-z
4 1/2+x,1/2-y,1/2+z
_cell_length_a                   12.3277(5)
_cell_length_b                   8.9364(4)
_cell_length_c                   13.1357(6)
_cell_angle_alpha                90
_cell_angle_beta                 104.0710(10)
_cell_angle_gamma                90
_cell_volume                     1403.68
_exptl_crystal_colour            colorless
_exptl_crystal_description       block
_cell_formula_units_Z            2
loop_
_atom_site_label
_atom_site_type_symbol
_atom_site_fract_x
_atom_site_fract_y
_atom_site_fract_z
Cl1 Cl 0.19072(2) 0.46733(3) 0.15893(2)
O1 O 0.29890(8) 0.54033(12) 0.18131(8)
O2 O 0.12049(8) 0.52783(12) 0.06414(8)
O3 O 0.13842(10) 0.49005(17) 0.24389(9)
O4 O 0.20812(10) 0.31057(13) 0.14562(12)
Cl2 Cl 0.63462(3) 0.82263(4) 0.09546(3)
O5 O 0.61308(9) 0.90611(12) -0.00141(8)
O6 O 0.6925(8) 0.6854(8) 0.0837(8)
O7 O 0.5280(5) 0.7760(7) 0.1174(5)
O8 O 0.6954(8) 0.9040(11) 0.1826(6)
O9 O 0.92789(11) 0.70020(17) 0.11166(10)
H1 H 0.9503(19) 0.639(2) 0.0779(18)
H2 H 0.8618(17) 0.699(3) 0.094(2)
N1 N 0.54250(10) 0.72651(17) -0.18964(10)
H3 H 0.5656(16) 0.805(2) -0.1518(17)
H4 H 0.5106(18) 0.768(2) -0.2506(15)
H5 H 0.5993(16) 0.667(3) -0.1971(19)
N2 N 0.20664(9) 0.76366(12) -0.05258(8)
C1 C 0.46143(11) 0.64043(16) -0.14585(11)
C2 C 0.37163(10) 0.74527(14) -0.12633(10)
C3 C 0.29338(11) 0.66093(15) -0.07330(11)
C4 C 0.23069(10) 0.85102(15) 0.03301(10)
C5 C 0.15112(10) 0.94632(15) 0.05450(10)
C6 C 0.04425(9) 0.95146(14) -0.01209(9)
C7 C 0.02302(10) 0.86157(16) -0.10181(10)
C8 C 0.10508(11) 0.76844(16) -0.12016(10)
H6 H 0.5033(15) 0.597(2) -0.0820(15)
H7 H 0.4332(15) 0.561(2) -0.1961(15)
H8 H 0.3285(15) 0.785(2) -0.1892(15)
H9 H 0.4044(14) 0.826(2) -0.0837(13)
H10 H 0.2541(14) 0.581(2) -0.1190(14)
H11 H 0.3325(14) 0.623(2) -0.0071(14)
H12 H 0.3011(16) 0.842(2) 0.0768(15)
H13 H 0.1677(15) 1.004(2) 0.1124(15)
H14 H -0.0480(17) 0.861(2) -0.1508(15)
H15 H 0.0947(15) 0.705(2) -0.1772(15)
N1B N -0.54250(10) 1.27349(17) 0.18964(10)
H3B H -0.5656(16) 1.195(2) 0.1518(17)
H4B H -0.5106(18) 1.232(2) 0.2506(15)
H5B H -0.5993(16) 1.333(3) 0.1971(19)
N2B N -0.20664(9) 1.23634(12) 0.05258(8)
C1B C -0.46143(11) 1.35957(16) 0.14585(11)
C2B C -0.37163(10) 1.25473(14) 0.12633(10)
C3B C -0.29338(11) 1.33907(15) 0.07330(11)
C4B C -0.23069(10) 1.14898(15) -0.03301(10)
C5B C -0.15112(10) 1.05368(15) -0.05450(10)
C6B C -0.04425(9) 1.04854(14) 0.01209(9)
C7B C -0.02302(10) 1.13843(16) 0.10181(10)
C8B C -0.10508(11) 1.23156(16) 0.12016(10)
H6B H -0.5033(15) 1.403(2) 0.0820(15)
H7B H -0.4332(15) 1.439(2) 0.1961(15)
H8B H -0.3285(15) 1.215(2) 0.1892(15)
H9B H -0.4044(14) 1.174(2) 0.0837(13)
H10B H -0.2541(14) 1.419(2) 0.1190(14)
H11B H -0.3325(14) 1.377(2) 0.0071(14)
H12B H -0.3011(16) 1.158(2) -0.0768(15)
H13B H -0.1677(15) 0.996(2) -0.1124(15)
H14B H 0.0480(17) 1.139(2) 0.1508(15)
H15B H -0.0947(15) 1.295(2) 0.1772(15)
O10? O 0.5375(9) 0.817(3) 0.1305(11)
O11? O 0.6795(11) 0.6808(8) 0.0798(7)
O12? O 0.7224(14) 0.9083(12) 0.1679(10)
loop_
_geom_bond_atom_site_label_1
_geom_bond_atom_site_label_2
_geom_bond_site_symmetry_1
_geom_bond_site_symmetry_2
Cl1 O1 1_555 1_555
O2 Cl1 1_555 1_555
O3 Cl1 1_555 1_555
O4 Cl1 1_555 1_555
Cl2 O5 1_555 1_555
O6 Cl2 1_555 1_555
O7 Cl2 1_555 1_555
O8 Cl2 1_555 1_555
O9 H1 1_555 1_555
H2 O9 1_555 1_555
N1 H3 1_555 1_555
H4 N1 1_555 1_555
H5 N1 1_555 1_555
N2 C3 1_555 1_555
C1 N1 1_555 1_555
C2 C1 1_555 1_555
C3 C2 1_555 1_555
C4 N2 1_555 1_555
C5 C4 1_555 1_555
C6 C5 1_555 1_555
C7 C6 1_555 1_555
C8 N2 1_555 1_555
H6 C1 1_555 1_555
H7 C1 1_555 1_555
H8 C2 1_555 1_555
H9 C2 1_555 1_555
H10 C3 1_555 1_555
H11 C3 1_555 1_555
H12 C4 1_555 1_555
H13 C5 1_555 1_555
H14 C7 1_555 1_555
H15 C8 1_555 1_555
N1B H3B 1_555 1_555
H4B N1B 1_555 1_555
H5B N1B 1_555 1_555
N2B C3B 1_555 1_555
C1B N1B 1_555 1_555
C2B C1B 1_555 1_555
C3B C2B 1_555 1_555
C4B N2B 1_555 1_555
C5B C4B 1_555 1_555
C6B C6 1_555 1_555
C7B C6B 1_555 1_555
C8B N2B 1_555 1_555
H6B C1B 1_555 1_555
H7B C1B 1_555 1_555
H8B C2B 1_555 1_555
H9B C2B 1_555 1_555
H10B C3B 1_555 1_555
H11B C3B 1_555 1_555
H12B C4B 1_555 1_555
H13B C5B 1_555 1_555
H14B C7B 1_555 1_555
H15B C8B 1_555 1_555
C7 C8 1_555 1_555
C5B C6B 1_555 1_555
C7B C8B 1_555 1_555

#END
