
#######################################################################
#
#                 Cambridge Crystallographic Data Centre
#                                CCDC 
#
#######################################################################
#
# If this CIF has been generated from an entry in the Cambridge 
# Structural Database, then it will include bibliographic, chemical, 
# crystal, experimental, refinement or atomic coordinate data resulting 
# from the CCDC's data processing and validation procedures.
#
#######################################################################

data_XAPHOO
_chemical_formula_moiety         'C21 H27 N1 O1 S1'
_chemical_name_systematic        
2-methyl-N-(1-(4-methylphenyl)-2-phenylbut-3-en-1-yl)propane-2-sulfinamide
_symmetry_cell_setting           monoclinic
_symmetry_space_group_name_H-M   'P 21'
_symmetry_Int_Tables_number      4
_space_group_name_Hall           'P 2yb'
loop_
_symmetry_equiv_pos_site_id
_symmetry_equiv_pos_as_xyz
1 x,y,z
2 -x,1/2+y,-z
_cell_length_a                   5.732(8)
_cell_length_b                   18.45(2)
_cell_length_c                   18.87(3)
_cell_angle_alpha                90
_cell_angle_beta                 90.00(2)
_cell_angle_gamma                90
_cell_volume                     1995.6
_exptl_crystal_colour            colorless
_exptl_crystal_description       sheet
_cell_formula_units_Z            4
loop_
_atom_site_label
_atom_site_type_symbol
_atom_site_fract_x
_atom_site_fract_y
_atom_site_fract_z
S1 S 0.3177(4) 0.78689(11) 0.87336(10)
N1 N 0.0908(12) 0.7330(3) 0.8887(4)
H1 H 0.046(11) 0.735(3) 0.934(3)
O1 O 0.4969(9) 0.7770(3) 0.9291(3)
C1 C 0.1168(14) 0.6575(4) 0.8651(4)
H2 H 0.2735 0.6407 0.8777
C2 C -0.0661(15) 0.6110(4) 0.9062(4)
H3 H -0.2209 0.6314 0.8968
C3 C -0.066(2) 0.5343(5) 0.8808(5)
H4 H 0.0775 0.5111 0.8775
C4 C -0.243(2) 0.4986(7) 0.8635(6)
H5 H -0.3901 0.5198 0.8660
H6 H -0.2274 0.4510 0.8482
C5 C 0.1670(13) 0.8734(4) 0.8929(4)
C6 C 0.3606(18) 0.9302(5) 0.8913(6)
H7 H 0.2955 0.9771 0.9007
H8 H 0.4331 0.9303 0.8455
H9 H 0.4750 0.9188 0.9268
C7 C 0.0440(15) 0.8718(5) 0.9639(4)
H10 H -0.0008 0.9202 0.9770
H11 H 0.1473 0.8525 0.9992
H12 H -0.0926 0.8419 0.9606
C8 C -0.0008(17) 0.8854(6) 0.8330(5)
H13 H -0.1232 0.8500 0.8353
H14 H 0.0802 0.8808 0.7886
H15 H -0.0667 0.9331 0.8366
C9 C 0.0884(14) 0.6522(4) 0.7863(4)
C10 C 0.2509(18) 0.6176(5) 0.7426(5)
H16 H 0.3850 0.5980 0.7628
C11 C 0.218(2) 0.6117(6) 0.6707(5)
H17 H 0.3302 0.5886 0.6434
C12 C 0.025(2) 0.6388(6) 0.6388(5)
C13 C -0.1335(18) 0.6742(6) 0.6815(5)
H18 H -0.2656 0.6942 0.6605
C14 C -0.1055(16) 0.6814(5) 0.7539(5)
H19 H -0.2170 0.7058 0.7806
C15 C -0.009(2) 0.6320(6) 0.5598(5)
H20 H 0.0856 0.6673 0.5359
H21 H -0.1702 0.6401 0.5485
H22 H 0.0357 0.5842 0.5448
C16 C -0.0237(15) 0.6144(4) 0.9858(4)
C17 C -0.1826(14) 0.6480(4) 1.0320(4)
H23 H -0.3150 0.6702 1.0134
C18 C -0.1462(17) 0.6489(5) 1.1043(5)
H24 H -0.2554 0.6708 1.1338
C19 C 0.0491(19) 0.6177(5) 1.1332(5)
H25 H 0.0725 0.6180 1.1820
C20 C 0.2116(17) 0.5857(5) 1.0882(5)
H26 H 0.3461 0.5653 1.1073
C21 C 0.1773(15) 0.5837(5) 1.0162(5)
H27 H 0.2881 0.5618 0.9873
S2 S 0.8204(4) 0.66666(11) 0.36832(11)
N2 N 0.5941(13) 0.7199(4) 0.3530(4)
H28 H 0.546(15) 0.724(5) 0.306(3)
O2 O 0.9947(11) 0.6711(4) 0.3089(3)
C22 C 0.6220(15) 0.7966(5) 0.3703(4)
H29 H 0.7772 0.8119 0.3544
C23 C 0.4405(15) 0.8411(4) 0.3296(4)
H30 H 0.2872 0.8206 0.3408
C24 C 0.433(2) 0.9188(5) 0.3496(6)
H31 H 0.5774 0.9370 0.3638
C25 C 0.276(3) 0.9640(9) 0.3514(9)
H32 H 0.1254 0.9511 0.3383
H33 H 0.3079 1.0112 0.3659
C26 C 0.6697(14) 0.5802(4) 0.3569(4)
C27 C 0.5550(17) 0.5763(6) 0.2844(5)
H34 H 0.5119 0.5270 0.2744
H35 H 0.6626 0.5930 0.2490
H36 H 0.4182 0.6063 0.2839
C28 C 0.8627(19) 0.5226(5) 0.3653(6)
H37 H 0.7929 0.4755 0.3700
H38 H 0.9536 0.5331 0.4067
H39 H 0.9618 0.5232 0.3242
C29 C 0.4922(18) 0.5720(6) 0.4175(5)
H40 H 0.3681 0.6063 0.4112
H41 H 0.5682 0.5807 0.4620
H42 H 0.4295 0.5237 0.4171
C30 C 0.6071(15) 0.8088(4) 0.4505(4)
C31 C 0.4146(16) 0.7843(6) 0.4893(5)
H43 H 0.2973 0.7591 0.4658
C32 C 0.393(2) 0.7961(7) 0.5610(5)
H44 H 0.2612 0.7794 0.5849
C33 C 0.563(2) 0.8321(7) 0.5976(5)
C34 C 0.750(2) 0.8580(6) 0.5591(6)
H45 H 0.8644 0.8842 0.5829
C35 C 0.7759(17) 0.8472(5) 0.4871(5)
H46 H 0.9055 0.8655 0.4635
C36 C 0.540(3) 0.8460(7) 0.6772(5)
H47 H 0.5395 0.8006 0.7020
H48 H 0.3961 0.8711 0.6863
H49 H 0.6684 0.8750 0.6932
C37 C 0.4774(14) 0.8321(4) 0.2500(4)
C38 C 0.3201(15) 0.7961(5) 0.2080(4)
H50 H 0.1867 0.7763 0.2284
C39 C 0.3564(17) 0.7887(5) 0.1361(5)
H51 H 0.2469 0.7641 0.1088
C40 C 0.5524(18) 0.8171(5) 0.1039(5)
H52 H 0.5742 0.8114 0.0554
C41 C 0.7100(17) 0.8527(5) 0.1420(5)
H53 H 0.8419 0.8720 0.1204
C42 C 0.6756(16) 0.8610(5) 0.2151(5)
H54 H 0.7861 0.8862 0.2415
loop_
_geom_bond_atom_site_label_1
_geom_bond_atom_site_label_2
_geom_bond_site_symmetry_1
_geom_bond_site_symmetry_2
S1 N1 1_555 1_555
N1 H1 1_555 1_555
O1 S1 1_555 1_555
C1 N1 1_555 1_555
H2 C1 1_555 1_555
C2 C1 1_555 1_555
H3 C2 1_555 1_555
C3 C2 1_555 1_555
H4 C3 1_555 1_555
C4 C3 1_555 1_555
H5 C4 1_555 1_555
H6 C4 1_555 1_555
C5 S1 1_555 1_555
C6 C5 1_555 1_555
H7 C6 1_555 1_555
H8 C6 1_555 1_555
H9 C6 1_555 1_555
C7 C5 1_555 1_555
H10 C7 1_555 1_555
H11 C7 1_555 1_555
H12 C7 1_555 1_555
C8 C5 1_555 1_555
H13 C8 1_555 1_555
H14 C8 1_555 1_555
H15 C8 1_555 1_555
C9 C1 1_555 1_555
C10 C9 1_555 1_555
H16 C10 1_555 1_555
C11 C10 1_555 1_555
H17 C11 1_555 1_555
C12 C11 1_555 1_555
C13 C12 1_555 1_555
H18 C13 1_555 1_555
C14 C9 1_555 1_555
H19 C14 1_555 1_555
C15 C12 1_555 1_555
H20 C15 1_555 1_555
H21 C15 1_555 1_555
H22 C15 1_555 1_555
C16 C2 1_555 1_555
C17 C16 1_555 1_555
H23 C17 1_555 1_555
C18 C17 1_555 1_555
H24 C18 1_555 1_555
C19 C18 1_555 1_555
H25 C19 1_555 1_555
C20 C19 1_555 1_555
H26 C20 1_555 1_555
C21 C16 1_555 1_555
H27 C21 1_555 1_555
S2 N2 1_555 1_555
N2 H28 1_555 1_555
O2 S2 1_555 1_555
C22 N2 1_555 1_555
H29 C22 1_555 1_555
C23 C22 1_555 1_555
H30 C23 1_555 1_555
C24 C23 1_555 1_555
H31 C24 1_555 1_555
C25 C24 1_555 1_555
H32 C25 1_555 1_555
H33 C25 1_555 1_555
C26 S2 1_555 1_555
C27 C26 1_555 1_555
H34 C27 1_555 1_555
H35 C27 1_555 1_555
H36 C27 1_555 1_555
C28 C26 1_555 1_555
H37 C28 1_555 1_555
H38 C28 1_555 1_555
H39 C28 1_555 1_555
C29 C26 1_555 1_555
H40 C29 1_555 1_555
H41 C29 1_555 1_555
H42 C29 1_555 1_555
C30 C22 1_555 1_555
C31 C30 1_555 1_555
H43 C31 1_555 1_555
C32 C31 1_555 1_555
H44 C32 1_555 1_555
C33 C32 1_555 1_555
C34 C33 1_555 1_555
H45 C34 1_555 1_555
C35 C30 1_555 1_555
H46 C35 1_555 1_555
C36 C33 1_555 1_555
H47 C36 1_555 1_555
H48 C36 1_555 1_555
H49 C36 1_555 1_555
C37 C23 1_555 1_555
C38 C37 1_555 1_555
H50 C38 1_555 1_555
C39 C38 1_555 1_555
H51 C39 1_555 1_555
C40 C39 1_555 1_555
H52 C40 1_555 1_555
C41 C40 1_555 1_555
H53 C41 1_555 1_555
C42 C37 1_555 1_555
H54 C42 1_555 1_555
C13 C14 1_555 1_555
C20 C21 1_555 1_555
C34 C35 1_555 1_555
C41 C42 1_555 1_555

#END
