
#######################################################################
#
#                 Cambridge Crystallographic Data Centre
#                                CCDC 
#
#######################################################################
#
# If this CIF has been generated from an entry in the Cambridge 
# Structural Database, then it will include bibliographic, chemical, 
# crystal, experimental, refinement or atomic coordinate data resulting 
# from the CCDC's data processing and validation procedures.
#
#######################################################################

data_XAPSUF
_chemical_formula_moiety         'C23 H20 O6'
_chemical_name_systematic        
'(2R,3S)-2-ethynyl-2-(((4-methylbenzoyl)oxy)methyl)-5-oxotetrahydrofuran-3-yl 4-methylbenzoate'
_symmetry_cell_setting           monoclinic
_symmetry_space_group_name_H-M   'P 21'
_symmetry_Int_Tables_number      4
_space_group_name_Hall           'P 2yb'
loop_
_symmetry_equiv_pos_site_id
_symmetry_equiv_pos_as_xyz
1 x,y,z
2 -x,1/2+y,-z
_cell_length_a                   8.5090(16)
_cell_length_b                   5.1906(10)
_cell_length_c                   22.943(4)
_cell_angle_alpha                90
_cell_angle_beta                 94.282(10)
_cell_angle_gamma                90
_cell_volume                     1010.49
_exptl_crystal_colour            colorless
_exptl_crystal_description       'cut block'
_cell_formula_units_Z            2
_exptl_crystal_recrystallization_method 'hexane/ethyl acetate'
loop_
_atom_site_label
_atom_site_type_symbol
_atom_site_fract_x
_atom_site_fract_y
_atom_site_fract_z
C1 C 0.56295(18) 0.8481(4) 0.71998(7)
H1 H 0.5769 1.0263 0.7335
C2 C 0.39006(19) 0.7700(4) 0.71666(7)
H2 H 0.3295 0.8894 0.7386
H3 H 0.3463 0.7670 0.6764
C3 C 0.38782(19) 0.5047(4) 0.74305(7)
C4 C 0.64302(19) 0.6560(4) 0.76475(7)
C5 C 0.6763(2) 0.7825(4) 0.82423(7)
H4 H 0.7110 0.6541 0.8531
H5 H 0.7590 0.9103 0.8224
C6 C 0.5564(2) 1.0957(4) 0.88023(7)
C7 C 0.4071(2) 1.2141(4) 0.89617(7)
C8 C 0.2599(2) 1.1328(4) 0.87254(7)
H6 H 0.2524 0.9965 0.8462
C9 C 0.1248(2) 1.2551(4) 0.88838(7)
H7 H 0.0270 1.2000 0.8723
C10 C 0.1326(2) 1.4593(4) 0.92801(7)
C11 C 0.2800(2) 1.5363(4) 0.95183(7)
H8 H 0.2875 1.6706 0.9787
C12 C 0.4159(2) 1.4163(5) 0.93618(7)
H9 H 0.5136 1.4710 0.9525
C13 C -0.0147(2) 1.5936(5) 0.94463(8)
H10 H -0.0254 1.7555 0.9245
H11 H -0.0077 1.6233 0.9860
H12 H -0.1047 1.4877 0.9340
C14 C 0.7913(2) 0.5428(4) 0.74811(7)
C15 C 0.9162(2) 0.4570(5) 0.73939(8)
H13 H 1.0144 0.3896 0.7325
C16 C 0.60014(19) 1.0031(4) 0.62600(7)
C17 C 0.67304(18) 0.9487(4) 0.57014(7)
C18 C 0.6402(2) 1.1186(4) 0.52387(8)
H14 H 0.5761 1.2613 0.5284
C19 C 0.7042(2) 1.0728(5) 0.47083(7)
H15 H 0.6822 1.1863 0.4399
C20 C 0.79970(18) 0.8623(5) 0.46312(7)
C21 C 0.8312(2) 0.6944(5) 0.50950(8)
H16 H 0.8952 0.5518 0.5049
C22 C 0.7679(2) 0.7371(4) 0.56304(7)
H17 H 0.7896 0.6231 0.5939
C23 C 0.8666(2) 0.8116(5) 0.40503(8)
H18 H 0.9071 0.9692 0.3902
H19 H 0.7851 0.7459 0.3778
H20 H 0.9501 0.6874 0.4101
O1 O 0.52989(13) 0.4485(3) 0.77048(5)
O2 O 0.28083(13) 0.3540(3) 0.74238(5)
O3 O 0.53375(13) 0.9030(3) 0.84043(5)
O4 O 0.68562(15) 1.1608(3) 0.89965(5)
O5 O 0.63032(13) 0.8097(3) 0.66507(5)
O6 O 0.52263(15) 1.1891(3) 0.63578(5)
loop_
_geom_bond_atom_site_label_1
_geom_bond_atom_site_label_2
_geom_bond_site_symmetry_1
_geom_bond_site_symmetry_2
C1 H1 1_555 1_555
C2 C1 1_555 1_555
H2 C2 1_555 1_555
H3 C2 1_555 1_555
C3 C2 1_555 1_555
C4 C1 1_555 1_555
C5 C4 1_555 1_555
H4 C5 1_555 1_555
H5 C5 1_555 1_555
C6 C7 1_555 1_555
C7 C8 1_555 1_555
C8 H6 1_555 1_555
C9 C8 1_555 1_555
H7 C9 1_555 1_555
C10 C9 1_555 1_555
C11 C10 1_555 1_555
H8 C11 1_555 1_555
C12 C7 1_555 1_555
H9 C12 1_555 1_555
C13 C10 1_555 1_555
H10 C13 1_555 1_555
H11 C13 1_555 1_555
H12 C13 1_555 1_555
C14 C4 1_555 1_555
C15 C14 1_555 1_555
H13 C15 1_555 1_555
C16 C17 1_555 1_555
C17 C18 1_555 1_555
C18 H14 1_555 1_555
C19 C18 1_555 1_555
H15 C19 1_555 1_555
C20 C19 1_555 1_555
C21 C20 1_555 1_555
H16 C21 1_555 1_555
C22 C17 1_555 1_555
H17 C22 1_555 1_555
C23 C20 1_555 1_555
H18 C23 1_555 1_555
H19 C23 1_555 1_555
H20 C23 1_555 1_555
O1 C3 1_555 1_555
O2 C3 1_555 1_555
O3 C5 1_555 1_555
O4 C6 1_555 1_555
O5 C1 1_555 1_555
O6 C16 1_555 1_555
C4 O1 1_555 1_555
C6 O3 1_555 1_555
C11 C12 1_555 1_555
C16 O5 1_555 1_555
C21 C22 1_555 1_555

#END
