
#######################################################################
#
#                 Cambridge Crystallographic Data Centre
#                                CCDC 
#
#######################################################################
#
# If this CIF has been generated from an entry in the Cambridge 
# Structural Database, then it will include bibliographic, chemical, 
# crystal, experimental, refinement or atomic coordinate data resulting 
# from the CCDC's data processing and validation procedures.
#
#######################################################################

data_XAPSIR
_chemical_formula_moiety         'C19 H19 F1 N4 O3'
_chemical_name_systematic        
2-(4,6-Dimethoxypyrimidin-2-yloxy)-6-fluoro-N-(3-methyl-2-pyridyl)benzylamine
_symmetry_cell_setting           triclinic
_symmetry_space_group_name_H-M   'P -1'
_symmetry_Int_Tables_number      2
_space_group_name_Hall           '-P 1'
loop_
_symmetry_equiv_pos_site_id
_symmetry_equiv_pos_as_xyz
1 x,y,z
2 -x,-y,-z
_cell_length_a                   8.8490(10)
_cell_length_b                   10.5810(10)
_cell_length_c                   11.3773(8)
_cell_angle_alpha                113.4470(10)
_cell_angle_beta                 98.8520(10)
_cell_angle_gamma                106.364(2)
_cell_volume                     893.887
_exptl_crystal_colour            colorless
_exptl_crystal_description       block
_chemical_melting_point          359-360K
_cell_formula_units_Z            2
_exptl_crystal_recrystallization_method 'methanol/petroleum ether (3:1)'
loop_
_atom_site_label
_atom_site_type_symbol
_atom_site_fract_x
_atom_site_fract_y
_atom_site_fract_z
C1 C 0.0518(3) 0.4570(3) 0.6517(2)
H1 H 0.0862 0.5445 0.7366
H2 H -0.0615 0.3966 0.6324
H3 H 0.0629 0.4855 0.5823
O1 O 0.15275(18) 0.37420(16) 0.65755(13)
C2 C 0.1247(2) 0.2473(2) 0.54903(17)
C3 C 0.3747(2) 0.5012(2) 0.3153(2)
H4 H 0.4648 0.5713 0.3900
C4 C 0.2302(2) 0.1753(2) 0.55333(18)
H5 H 0.3160 0.2093 0.6304
C5 C 0.2567(2) 0.3925(2) 0.32238(19)
H6 H 0.2694 0.3896 0.4039
C6 C 0.3570(2) 0.5047(2) 0.1936(2)
H7 H 0.4376 0.5767 0.1856
N1 N -0.00199(17) 0.19744(16) 0.44190(13)
C7 C 0.2016(2) 0.0490(2) 0.43636(18)
O2 O 0.30662(17) -0.01969(17) 0.43701(14)
N2 N 0.12326(17) 0.28925(17) 0.21955(14)
C8 C 0.2223(2) 0.4033(2) 0.08507(19)
C9 C -0.01760(19) 0.07357(19) 0.33883(16)
N3 N 0.07727(17) -0.00513(16) 0.32577(14)
C10 C 0.2832(3) -0.1497(3) 0.3189(2)
H8 H 0.3682 -0.1860 0.3346
H9 H 0.2884 -0.1260 0.2461
H10 H 0.1771 -0.2248 0.2963
C11 C 0.1059(2) 0.29660(19) 0.10413(17)
C12 C -0.4448(2) 0.1928(2) 0.2747(2)
H11 H -0.5083 0.2185 0.3315
C13 C -0.3421(2) 0.1243(2) 0.2978(2)
H12 H -0.3373 0.1010 0.3686
C14 C 0.1972(4) 0.4033(3) -0.0486(2)
H13 H 0.0954 0.3239 -0.1108
H14 H 0.2873 0.3892 -0.0823
H15 H 0.1928 0.4967 -0.0380
C15 C -0.4550(2) 0.2239(2) 0.1679(2)
H16 H -0.5253 0.2698 0.1515
C16 C -0.24492(19) 0.09004(19) 0.21373(17)
O3 O -0.14749(15) 0.01096(14) 0.22764(12)
C17 C -0.3592(2) 0.1857(2) 0.08630(18)
C18 C -0.24989(19) 0.11984(18) 0.10563(16)
N4 N -0.03503(18) 0.19620(18) 0.00161(16)
F1 F -0.37115(16) 0.21398(15) -0.02089(12)
C19 C -0.1505(2) 0.0748(2) 0.01023(18)
H17 H -0.0895 0.0234 0.0383
H18 H -0.2266 0.0048 -0.0789
H19 H -0.037(2) 0.182(2) -0.081(2)
loop_
_geom_bond_atom_site_label_1
_geom_bond_atom_site_label_2
_geom_bond_site_symmetry_1
_geom_bond_site_symmetry_2
C1 H1 1_555 1_555
H2 C1 1_555 1_555
H3 C1 1_555 1_555
O1 C1 1_555 1_555
C2 O1 1_555 1_555
C3 H4 1_555 1_555
C4 C2 1_555 1_555
H5 C4 1_555 1_555
C5 C3 1_555 1_555
H6 C5 1_555 1_555
C6 C3 1_555 1_555
H7 C6 1_555 1_555
N1 C2 1_555 1_555
C7 C4 1_555 1_555
O2 C7 1_555 1_555
N2 C5 1_555 1_555
C8 C6 1_555 1_555
C9 N1 1_555 1_555
N3 C7 1_555 1_555
C10 O2 1_555 1_555
H8 C10 1_555 1_555
H9 C10 1_555 1_555
H10 C10 1_555 1_555
C11 N2 1_555 1_555
C12 H11 1_555 1_555
C13 C12 1_555 1_555
H12 C13 1_555 1_555
C14 C8 1_555 1_555
H13 C14 1_555 1_555
H14 C14 1_555 1_555
H15 C14 1_555 1_555
C15 C12 1_555 1_555
H16 C15 1_555 1_555
C16 C13 1_555 1_555
O3 C9 1_555 1_555
C17 C15 1_555 1_555
C18 C16 1_555 1_555
N4 C11 1_555 1_555
F1 C17 1_555 1_555
C19 C18 1_555 1_555
H17 C19 1_555 1_555
H18 C19 1_555 1_555
H19 N4 1_555 1_555
C8 C11 1_555 1_555
C9 N3 1_555 1_555
C16 O3 1_555 1_555
C17 C18 1_555 1_555
N4 C19 1_555 1_555

#END
