
#######################################################################
#
#                 Cambridge Crystallographic Data Centre
#                                CCDC 
#
#######################################################################
#
# If this CIF has been generated from an entry in the Cambridge 
# Structural Database, then it will include bibliographic, chemical, 
# crystal, experimental, refinement or atomic coordinate data resulting 
# from the CCDC's data processing and validation procedures.
#
#######################################################################

data_XAPTIU
_chemical_formula_moiety         'C3 H12 N2 2+,2(C4 H3 O4 1-)'
_chemical_name_systematic        'propane-1,3-diammonium bis(hydrogen maleate)'
_symmetry_cell_setting           monoclinic
_symmetry_space_group_name_H-M   'C c'
_symmetry_Int_Tables_number      9
_space_group_name_Hall           'C -2yc'
loop_
_symmetry_equiv_pos_site_id
_symmetry_equiv_pos_as_xyz
1 x,y,z
2 x,-y,1/2+z
3 1/2+x,1/2+y,z
4 1/2+x,1/2-y,1/2+z
_cell_length_a                   9.893(5)
_cell_length_b                   35.521(19)
_cell_length_c                   8.066(4)
_cell_angle_alpha                90
_cell_angle_beta                 98.891(8)
_cell_angle_gamma                90
_cell_volume                     2800.41
_exptl_crystal_colour            colorless
_exptl_crystal_description       plate
_cell_formula_units_Z            8
loop_
_atom_site_label
_atom_site_type_symbol
_atom_site_fract_x
_atom_site_fract_y
_atom_site_fract_z
C1 C 0.3686(8) -0.03446(19) 0.9633(10)
C2 C 0.2613(8) -0.0103(2) 0.9965(12)
H1 H 0.1840 -0.0222 1.0238
C3 C 0.2568(8) 0.0294(2) 0.9936(12)
H2 H 0.1794 0.0399 1.0277
C4 C 0.3448(12) 0.0542(2) 0.9500(15)
O1 O 0.3529(6) -0.06914(13) 0.9701(9)
O2 O 0.4832(7) -0.02160(17) 0.9252(11)
O3 O 0.4726(7) 0.04546(18) 0.9358(11)
H3 H 0.4743 0.0248 0.8907
O4 O 0.3355(11) 0.08786(19) 0.9687(13)
C5 C 0.8942(8) -0.04289(17) 0.1984(9)
C6 C 0.7858(7) -0.0228(2) 0.2419(9)
H4 H 0.7240 -0.0378 0.2876
C7 C 0.7474(9) 0.01600(19) 0.2322(10)
H5 H 0.6675 0.0222 0.2733
C8 C 0.8175(8) 0.0461(2) 0.1671(10)
O5 O 0.9121(5) -0.07530(12) 0.2190(7)
O6 O 0.9874(6) -0.0232(2) 0.1365(9)
H6 H 1.0519 -0.0189 0.2108
O7 O 0.9464(5) 0.04177(14) 0.1338(8)
O8 O 0.7751(5) 0.07801(12) 0.1622(7)
C9 C 0.9429(6) 0.20495(14) 0.7533(7)
C10 C 0.8466(6) 0.23066(16) 0.6458(8)
H7 H 0.7781 0.2183 0.5742
C11 C 0.8415(6) 0.26605(15) 0.6348(8)
H8 H 0.7706 0.2752 0.5559
C12 C 0.9313(5) 0.29639(16) 0.7281(8)
O9 O 0.9310(5) 0.17127(11) 0.7331(7)
O10 O 1.0309(4) 0.21843(11) 0.8662(5)
O11 O 1.0233(5) 0.28690(12) 0.8497(6)
H9 H 1.0333 0.2640 0.8495
O12 O 0.9133(4) 0.32775(10) 0.6830(6)
C13 C 0.7401(6) 0.20387(18) 0.0830(8)
C14 C 0.8385(6) 0.22730(15) 0.1939(8)
C15 C 0.8449(6) 0.26572(18) 0.2052(9)
C16 C 0.7546(6) 0.29430(15) 0.1204(8)
O13 O 0.7483(4) 0.16955(10) 0.1100(6)
O14 O 0.6494(4) 0.21873(12) -0.0293(5)
O15 O 0.6631(4) 0.28697(12) 0.0008(6)
O16 O 0.7784(4) 0.32788(12) 0.1735(7)
H10 H 0.651(7) 0.2542(17) -0.016(9)
H11 H 0.899(6) 0.2081(17) 0.268(8)
H12 H 0.902(6) 0.2767(15) 0.320(8)
C17 C 0.5837(10) 0.1214(2) 0.7590(10)
H13 H 0.5287 0.1001 0.7134
H14 H 0.6724 0.1120 0.8106
C18 C 0.6001(10) 0.1473(2) 0.6268(13)
H15 H 0.6607 0.1676 0.6705
H16 H 0.5122 0.1580 0.5802
C19 C 0.6653(9) 0.1242(2) 0.4793(10)
H17 H 0.7335 0.1403 0.4410
H18 H 0.7128 0.1023 0.5310
N1 N 0.5183(5) 0.14018(12) 0.8814(7)
H19 H 0.5245 0.1261 0.9735
H20 H 0.4306 0.1440 0.8404
H21 H 0.5590 0.1622 0.9068
N2 N 0.5693(6) 0.11119(15) 0.3275(9)
H22 H 0.5146 0.0934 0.3574
H23 H 0.6173 0.1019 0.2522
H24 H 0.5191 0.1305 0.2831
C20 C 0.0440(7) 0.1248(2) 0.4002(10)
H25 H 0.0058 0.1493 0.4186
H26 H -0.0301 0.1077 0.3588
C21 C 0.1440(6) 0.1276(2) 0.2771(8)
H27 H 0.2237 0.1416 0.3288
H28 H 0.1740 0.1024 0.2531
C22 C 0.0890(8) 0.1454(2) 0.1230(10)
H29 H 0.0551 0.1700 0.1484
H30 H 0.1626 0.1493 0.0582
N3 N 0.1228(6) 0.11044(16) 0.5550(10)
H31 H 0.1878 0.1269 0.5939
H32 H 0.1611 0.0886 0.5347
H33 H 0.0676 0.1071 0.6310
N4 N -0.0172(7) 0.12591(18) 0.0223(8)
H34 H 0.0176 0.1066 -0.0274
H35 H -0.0600 0.1414 -0.0554
H36 H -0.0764 0.1174 0.0861
loop_
_geom_bond_atom_site_label_1
_geom_bond_atom_site_label_2
_geom_bond_site_symmetry_1
_geom_bond_site_symmetry_2
C1 C2 1_555 1_555
C2 H1 1_555 1_555
C3 C2 1_555 1_555
H2 C3 1_555 1_555
C4 C3 1_555 1_555
O1 C1 1_555 1_555
O2 C1 1_555 1_555
O3 C4 1_555 1_555
H3 O3 1_555 1_555
O4 C4 1_555 1_555
C5 C6 1_555 1_555
C6 H4 1_555 1_555
C7 C6 1_555 1_555
H5 C7 1_555 1_555
C8 C7 1_555 1_555
O5 C5 1_555 1_555
O6 C5 1_555 1_555
H6 O6 1_555 1_555
O7 C8 1_555 1_555
O8 C8 1_555 1_555
C9 C10 1_555 1_555
C10 H7 1_555 1_555
C11 C10 1_555 1_555
H8 C11 1_555 1_555
C12 C11 1_555 1_555
O9 C9 1_555 1_555
O10 C9 1_555 1_555
O11 C12 1_555 1_555
H9 O11 1_555 1_555
O12 C12 1_555 1_555
C13 C14 1_555 1_555
C14 C15 1_555 1_555
C15 C16 1_555 1_555
C16 O15 1_555 1_555
O13 C13 1_555 1_555
O14 C13 1_555 1_555
O15 H10 1_555 1_555
O16 C16 1_555 1_555
H11 C14 1_555 1_555
H12 C15 1_555 1_555
C17 H13 1_555 1_555
H14 C17 1_555 1_555
C18 C17 1_555 1_555
H15 C18 1_555 1_555
H16 C18 1_555 1_555
C19 C18 1_555 1_555
H17 C19 1_555 1_555
H18 C19 1_555 1_555
N1 C17 1_555 1_555
H19 N1 1_555 1_555
H20 N1 1_555 1_555
H21 N1 1_555 1_555
N2 C19 1_555 1_555
H22 N2 1_555 1_555
H23 N2 1_555 1_555
H24 N2 1_555 1_555
C20 H25 1_555 1_555
H26 C20 1_555 1_555
C21 C20 1_555 1_555
H27 C21 1_555 1_555
H28 C21 1_555 1_555
C22 C21 1_555 1_555
H29 C22 1_555 1_555
H30 C22 1_555 1_555
N3 C20 1_555 1_555
H31 N3 1_555 1_555
H32 N3 1_555 1_555
H33 N3 1_555 1_555
N4 C22 1_555 1_555
H34 N4 1_555 1_555
H35 N4 1_555 1_555
H36 N4 1_555 1_555

#END
