
#######################################################################
#
#                 Cambridge Crystallographic Data Centre
#                                CCDC 
#
#######################################################################
#
# If this CIF has been generated from an entry in the Cambridge 
# Structural Database, then it will include bibliographic, chemical, 
# crystal, experimental, refinement or atomic coordinate data resulting 
# from the CCDC's data processing and validation procedures.
#
#######################################################################

data_XAPWIU
_chemical_formula_moiety         'C10 H8 N2,2(C8 H6 Cl2 O3)'
_chemical_name_systematic        
"4,4'-Bipyridine bis((2,4-dichlorophenoxy)acetic acid)"
_symmetry_cell_setting           monoclinic
_symmetry_space_group_name_H-M   'P 21/n'
_symmetry_Int_Tables_number      14
_space_group_name_Hall           '-P 2yn'
loop_
_symmetry_equiv_pos_site_id
_symmetry_equiv_pos_as_xyz
1 x,y,z
2 1/2-x,1/2+y,1/2-z
3 -x,-y,-z
4 1/2+x,1/2-y,1/2+z
_cell_length_a                   16.251(3)
_cell_length_b                   6.676(2)
_cell_length_c                   24.059(6)
_cell_angle_alpha                90
_cell_angle_beta                 100.14(2)
_cell_angle_gamma                90
_cell_volume                     2569.43
_exptl_crystal_colour            colorless
_exptl_crystal_description       prism
_chemical_melting_point          '92-94 deg.C'
_cell_formula_units_Z            4
_exptl_crystal_recrystallization_method water/ethanol
loop_
_atom_site_label
_atom_site_type_symbol
_atom_site_fract_x
_atom_site_fract_y
_atom_site_fract_z
N1 N 0.6365(5) 0.4061(14) 0.5751(4)
C1 C 0.7211(7) 0.4145(16) 0.5956(5)
C2 C 0.7790(7) 0.4102(16) 0.5608(4)
C3 C 0.7537(6) 0.3910(15) 0.5029(4)
C4 C 0.6663(6) 0.3803(17) 0.4817(5)
C5 C 0.6152(7) 0.3887(19) 0.5212(5)
N2 N 0.9338(5) 0.3914(14) 0.3921(4)
C6 C 0.9531(6) 0.3400(17) 0.4457(4)
C7 C 0.8978(6) 0.3350(16) 0.4830(5)
C8 C 0.8141(6) 0.3914(16) 0.4634(4)
C9 C 0.7941(6) 0.4431(16) 0.4078(4)
C10 C 0.8534(7) 0.4424(17) 0.3732(5)
H1 H 0.7394 0.4235 0.6343
H2 H 0.8355 0.4202 0.5760
H3 H 0.6451 0.3684 0.4433
H4 H 0.5581 0.3809 0.5074
H5 H 1.0082 0.3043 0.4594
H6 H 0.9153 0.2952 0.5202
H7 H 0.7395 0.4795 0.3929
H8 H 0.8374 0.4783 0.3355
C11 C 0.3962(6) 0.5317(18) 0.7912(4)
C12 C 0.4086(6) 0.5663(16) 0.8491(4)
Cl1 Cl 0.5102(2) 0.5916(5) 0.8842(1)
C13 C 0.3434(6) 0.5781(17) 0.8785(4)
C14 C 0.2632(6) 0.5545(17) 0.8495(4)
Cl2 Cl 0.1799(2) 0.5678(5) 0.8860(1)
C15 C 0.2478(7) 0.5180(2) 0.7938(5)
C16 C 0.3119(6) 0.5110(2) 0.7624(5)
O1 O 0.4647(4) 0.5188(13) 0.7665(3)
C17 C 0.4514(7) 0.4958(18) 0.7077(4)
C18 C 0.5305(7) 0.4717(17) 0.6871(5)
O2 O 0.6001(4) 0.4583(13) 0.7158(3)
O3 O 0.5166(5) 0.4580(13) 0.6313(3)
H9 H 0.3534 0.6017 0.9172
H10 H 0.1930 0.4963 0.7758
H11 H 0.3002 0.4935 0.7234
H12 H 0.4221 0.6123 0.6901
H13 H 0.4165 0.3793 0.6972
H14 H 0.5860(11) 0.4300(3) 0.6180(7)
C19 C 0.1375(6) 0.5632(16) 1.1611(4)
C20 C 0.1114(5) 0.5702(16) 1.1034(4)
Cl3 Cl 0.0042(2) 0.5566(5) 1.0777(1)
C21 C 0.1647(6) 0.5866(17) 1.0641(4)
C22 C 0.2508(6) 0.5921(17) 1.0866(4)
Cl4 Cl 0.3177(2) 0.6095(4) 1.0380(1)
C23 C 0.2797(6) 0.5836(15) 1.1439(4)
C24 C 0.2246(6) 0.5695(17) 1.1816(5)
O4 O 0.0783(4) 0.5464(11) 1.1941(3)
C25 C 0.1058(6) 0.5265(18) 1.2527(4)
C26 C 0.0327(7) 0.4828(17) 1.2814(5)
O5 O -0.0407(4) 0.4883(12) 1.2566(3)
O6 O 0.0560(4) 0.4378(12) 1.3341(3)
H15 H 0.1447 0.5935 1.0255
H16 H 0.3369 0.5875 1.1575
H17 H 0.2447 0.5642 1.2202
H18 H 0.1329 0.6493 1.2678
H19 H 0.1462 0.4186 1.2601
H20 H 0.0010(9) 0.4100(2) 1.3510(6)
loop_
_geom_bond_atom_site_label_1
_geom_bond_atom_site_label_2
_geom_bond_site_symmetry_1
_geom_bond_site_symmetry_2
N1 C1 1_555 1_555
C1 C2 1_555 1_555
C2 C3 1_555 1_555
C3 C4 1_555 1_555
C4 C5 1_555 1_555
C5 N1 1_555 1_555
N2 C6 1_555 1_555
C6 C7 1_555 1_555
C7 C8 1_555 1_555
C8 C3 1_555 1_555
C9 C8 1_555 1_555
C10 N2 1_555 1_555
H1 C1 1_555 1_555
H2 C2 1_555 1_555
H3 C4 1_555 1_555
H4 C5 1_555 1_555
H5 C6 1_555 1_555
H6 C7 1_555 1_555
H7 C9 1_555 1_555
H8 C10 1_555 1_555
C11 C12 1_555 1_555
C12 Cl1 1_555 1_555
C13 C12 1_555 1_555
C14 C13 1_555 1_555
Cl2 C14 1_555 1_555
C15 C14 1_555 1_555
C16 C11 1_555 1_555
O1 C11 1_555 1_555
C17 O1 1_555 1_555
C18 C17 1_555 1_555
O2 C18 1_555 1_555
O3 C18 1_555 1_555
H9 C13 1_555 1_555
H10 C15 1_555 1_555
H11 C16 1_555 1_555
H12 C17 1_555 1_555
H13 C17 1_555 1_555
H14 O3 1_555 1_555
C19 C20 1_555 1_555
C20 Cl3 1_555 1_555
C21 C20 1_555 1_555
C22 C21 1_555 1_555
Cl4 C22 1_555 1_555
C23 C22 1_555 1_555
C24 C19 1_555 1_555
O4 C19 1_555 1_555
C25 O4 1_555 1_555
C26 C25 1_555 1_555
O5 C26 1_555 1_555
O6 C26 1_555 1_555
H15 C21 1_555 1_555
H16 C23 1_555 1_555
H17 C24 1_555 1_555
H18 C25 1_555 1_555
H19 C25 1_555 1_555
H20 O6 1_555 1_555
C9 C10 1_555 1_555
C15 C16 1_555 1_555
C23 C24 1_555 1_555

#END
