
#######################################################################
#
#                 Cambridge Crystallographic Data Centre
#                                CCDC 
#
#######################################################################
#
# If this CIF has been generated from an entry in the Cambridge 
# Structural Database, then it will include bibliographic, chemical, 
# crystal, experimental, refinement or atomic coordinate data resulting 
# from the CCDC's data processing and validation procedures.
#
#######################################################################

data_XAPXAN
_chemical_formula_moiety         'C3 H7 N2 S1 1+,C8 H4 Cl3 O3 1-'
_chemical_name_systematic        
'2-Amino-2-thiazoline (2,4,5-trichlorophenoxy)acetic acid'
_symmetry_cell_setting           monoclinic
_symmetry_space_group_name_H-M   'P 21/c'
_symmetry_Int_Tables_number      14
_space_group_name_Hall           '-P 2ybc'
loop_
_symmetry_equiv_pos_site_id
_symmetry_equiv_pos_as_xyz
1 x,y,z
2 -x,1/2+y,1/2-z
3 -x,-y,-z
4 x,1/2-y,1/2+z
_cell_length_a                   14.163(1)
_cell_length_b                   11.319(1)
_cell_length_c                   9.033(1)
_cell_angle_alpha                90
_cell_angle_beta                 91.52(2)
_cell_angle_gamma                90
_cell_volume                     1447.58
_exptl_crystal_colour            colorless
_exptl_crystal_description       platelets
_chemical_melting_point          '172-174 deg.C'
_cell_formula_units_Z            4
loop_
_atom_site_label
_atom_site_type_symbol
_atom_site_fract_x
_atom_site_fract_y
_atom_site_fract_z
S1 S 0.6663(1) 0.4096(1) 0.0374(1)
C1 C 0.5870(3) 0.3771(3) -0.1078(4)
N1 N 0.5370(3) 0.4595(3) -0.1737(4)
N2 N 0.5837(2) 0.2639(3) -0.1406(4)
C2 C 0.6364(3) 0.1858(4) -0.0408(5)
C3 C 0.7156(3) 0.2615(4) 0.0242(5)
H1 H 0.5060(2) 0.4420(3) -0.2350(4)
H2 H 0.5500(4) 0.5440(5) -0.1480(6)
H3 H 0.5490(3) 0.2390(3) -0.2070(4)
H4 H 0.5910(3) 0.1460(4) 0.0340(5)
H5 H 0.6610(3) 0.1210(3) -0.0970(4)
H6 H 0.7730(3) 0.2660(4) -0.0510(5)
H7 H 0.7350(3) 0.2400(4) 0.1160(5)
C4 C 0.7991(2) 0.6062(3) -0.5101(4)
C5 C 0.8370(3) 0.5074(3) -0.4383(4)
Cl1 Cl 0.8103(1) 0.4823(1) -0.2551(1)
C6 C 0.8925(3) 0.4271(4) -0.5116(4)
C7 C 0.9111(3) 0.4442(3) -0.6588(4)
Cl2 Cl 0.9763(1) 0.3386(1) -0.7505(1)
C8 C 0.8781(3) 0.5450(4) -0.7299(4)
Cl3 Cl 0.9042(1) 0.5715(1) -0.9126(1)
C9 C 0.8225(3) 0.6256(4) -0.6553(4)
O1 O 0.7440(2) 0.6774(2) -0.4279(3)
C10 C 0.6888(3) 0.7668(3) -0.5027(5)
C11 C 0.6084(3) 0.7185(3) -0.6003(4)
O2 O 0.6004(2) 0.6111(2) -0.6204(3)
O3 O 0.5555(2) 0.7979(2) -0.6549(3)
H8 H 0.9200(3) 0.3720(3) -0.4640(4)
H9 H 0.8020(3) 0.6810(3) -0.7060(5)
H10 H 0.7300(3) 0.8160(3) -0.5620(4)
H11 H 0.6610(3) 0.8100(4) -0.4230(5)
loop_
_geom_bond_atom_site_label_1
_geom_bond_atom_site_label_2
_geom_bond_site_symmetry_1
_geom_bond_site_symmetry_2
S1 C1 1_555 1_555
C1 N1 1_555 1_555
N1 H1 1_555 1_555
N2 C1 1_555 1_555
C2 N2 1_555 1_555
C3 S1 1_555 1_555
H2 N1 1_555 1_555
H3 N2 1_555 1_555
H4 C2 1_555 1_555
H5 C2 1_555 1_555
H6 C3 1_555 1_555
H7 C3 1_555 1_555
C4 C5 1_555 1_555
C5 Cl1 1_555 1_555
C6 C5 1_555 1_555
C7 C6 1_555 1_555
Cl2 C7 1_555 1_555
C8 C7 1_555 1_555
Cl3 C8 1_555 1_555
C9 C4 1_555 1_555
O1 C4 1_555 1_555
C10 O1 1_555 1_555
C11 C10 1_555 1_555
O2 C11 1_555 1_555
O3 C11 1_555 1_555
H8 C6 1_555 1_555
H9 C9 1_555 1_555
H10 C10 1_555 1_555
H11 C10 1_555 1_555
C2 C3 1_555 1_555
C8 C9 1_555 1_555

#END
