
#######################################################################
#
#                 Cambridge Crystallographic Data Centre
#                                CCDC 
#
#######################################################################
#
# If this CIF has been generated from an entry in the Cambridge 
# Structural Database, then it will include bibliographic, chemical, 
# crystal, experimental, refinement or atomic coordinate data resulting 
# from the CCDC's data processing and validation procedures.
#
#######################################################################

data_XAQJAA
_chemical_formula_moiety         
'C32 H44 N4 O2 4+,C8 H4 O4 2-,2(Cl1 1-),10(H2 O1)'
_chemical_name_systematic        
'2,8,19,25-Tetraazonia-5,22-dioxo(9.9)(2,6)naphthalenophane terephthalate clathrate dichloride decahydrate'
_symmetry_cell_setting           triclinic
_symmetry_space_group_name_H-M   'P -1'
_symmetry_Int_Tables_number      2
_space_group_name_Hall           '-P 1'
loop_
_symmetry_equiv_pos_site_id
_symmetry_equiv_pos_as_xyz
1 x,y,z
2 -x,-y,-z
_cell_length_a                   7.717(3)
_cell_length_b                   10.625(6)
_cell_length_c                   16.238(9)
_cell_angle_alpha                99.00(7)
_cell_angle_beta                 99.70(6)
_cell_angle_gamma                109.46(4)
_cell_volume                     1204.6
_cell_formula_units_Z            1
_exptl_crystal_recrystallization_method acetone/water
loop_
_atom_site_label
_atom_site_type_symbol
_atom_site_fract_x
_atom_site_fract_y
_atom_site_fract_z
Cl1 Cl -0.1642(1) -0.0058(1) 0.1105(1)
C1 C 0.3451(3) 0.0723(2) 0.2406(1)
N1 N 0.4698(2) 0.1849(2) 0.2076(1)
C2 C 0.4372(3) 0.1478(2) 0.1118(1)
C3 C 0.5781(4) 0.2531(2) 0.0805(1)
O1 O 0.5589 0.3802(1) 0.1069(1)
C4 C 0.7010(3) 0.4930(2) 0.0924(1)
C5 C 0.6716(4) 0.6204(2) 0.1297(1)
N2 N 0.6979(2) 0.6414(2) 0.2249(1)
C6 C 0.6846(3) 0.7749(2) 0.2641(1)
C7 C 0.3712(3) 0.1093(2) 0.3362(1)
C8 C 0.2274(3) 0.1229(2) 0.3710(1)
C9 C 0.2477(2) 0.1528(2) 0.4614(1)
C10 C 0.0999(3) 0.1651(2) 0.4989(1)
C11 C 0.1219(3) 0.1897(2) 0.5856(1)
C12 C 0.7054(3) 0.7957(2) 0.3595(2)
C13 C 0.5604(3) 0.8049(2) 0.3942(1)
C14 C 0.4204(2) 0.1681(2) 0.5153(1)
C15 C 0.5684(3) 0.1556(2) 0.4784(1)
C16 C 0.5441(3) 0.1266(2) 0.3916(1)
H1 H 0.3745(31) -0.0046(24) 0.2237(14)
H2 H 0.2161(34) 0.0523(23) 0.2119(14)
H3 H 0.4407(28) 0.2641(23) 0.2229(13)
H4 H 0.5940(31) 0.2041(21) 0.2310(13)
H5 H 0.3080(35) 0.1397(24) 0.0901(14)
H6 H 0.4468(31) 0.0592(25) 0.0997(14)
H7 H 0.7077(36) 0.2615(25) 0.1044(15)
H8 H 0.5436(32) 0.2227(24) 0.0162(16)
H9 H 0.6901(31) 0.4842(24) 0.0296(16)
H10 H 0.8291(35) 0.4906(23) 0.1166(14)
H11 H 0.7578(33) 0.6985(24) 0.1193(14)
H12 H 0.5434(35) 0.6125(24) 0.1068(15)
H13 H 0.8126(32) 0.6409(21) 0.2486(13)
H14 H 0.6061(31) 0.5711(23) 0.2383(13)
H15 H 0.7837(32) 0.8440(24) 0.2506(14)
H16 H 0.5587(34) 0.7679(23) 0.2349(14)
H17 H 0.1091(31) 0.1113(21) 0.3341(13)
H18 H -0.0190(32) 0.1516(22) 0.4595(14)
H19 H 0.0172(32) 0.1938(22) 0.6096(14)
H20 H 0.4438(31) 0.7970(21) 0.3581(14)
H21 H 0.6912(32) 0.1706(22) 0.5176(14)
H22 H 0.6436(32) 0.1149(23) 0.3671(14)
C11A C 0.8781(3) 0.8103(2) 0.4144(1)
C10A C 0.9001(3) 0.8349(2) 0.5011(1)
C9A C 0.7523(2) 0.8472(2) 0.5386(1)
C8A C 0.7726(3) 0.8771(2) 0.6290(1)
C7A C 0.6288(3) 0.8907(2) 0.6638(1)
C1A C 0.6549(3) 0.9277(2) 0.7594(1)
N1A N 0.5302(2) 0.8151(2) 0.7924(1)
C2A C 0.5628(3) 0.8522(2) 0.8882(1)
C3A C 0.4219(4) 0.7469(2) 0.9195(1)
O1A O 0.4411 0.6198(1) 0.8931(1)
C4A C 0.2990(3) 0.5070(2) 0.9076(1)
C5A C 0.3284(4) 0.3796(2) 0.8703(1)
N2A N 0.3021(2) 0.3586(2) 0.7751(1)
C6A C 0.3154(3) 0.2251(2) 0.7359(1)
C12A C 0.2946(3) 0.2043(2) 0.6405(2)
C13A C 0.4396(3) 0.1951(2) 0.6058(1)
H20A H 0.5562(31) 0.2030(21) 0.6419(14)
H15A H 0.2163(32) 0.1560(24) 0.7494(14)
H16A H 0.4413(34) 0.2321(23) 0.7651(14)
H13A H 0.1874(32) 0.3591(21) 0.7514(13)
H14A H 0.3939(31) 0.4289(23) 0.7617(13)
H11A H 0.2422(33) 0.3015(24) 0.8807(14)
H12A H 0.4566(35) 0.3875(24) 0.8932(15)
H9A H 0.3099(31) 0.5158(24) 0.9704(16)
H10A H 0.1709(35) 0.5094(23) 0.8834(14)
H7A H 0.2923(36) 0.7385(25) 0.8956(15)
H8A H 0.4564(32) 0.7773(24) 0.9838(16)
H5A H 0.6920(35) 0.8603(24) 0.9099(14)
H6A H 0.5532(31) 0.9408(25) 0.9003(14)
H3A H 0.5593(28) 0.7359(23) 0.7771(13)
H4A H 0.4060(31) 0.7959(21) 0.7690(13)
H1A H 0.6255(31) 1.0046(24) 0.7763(14)
H2A H 0.7839(34) 0.9477(23) 0.7881(14)
C16A C 0.4559(3) 0.8734(2) 0.6084(1)
C15A C 0.4316(3) 0.8444(2) 0.5216(1)
C14A C 0.5796(2) 0.8319(2) 0.4847(1)
H21A H 0.3088(32) 0.8294(22) 0.4824(14)
H22A H 0.3564(32) 0.8851(23) 0.6329(14)
H17A H 0.8909(31) 0.8887(21) 0.6659(13)
H18A H 1.0190(32) 0.8484(22) 0.5405(14)
H19A H 0.9828(32) 0.8062(22) 0.3904(14)
C17 C 0.4123(3) 0.4749(2) 0.4132(1)
C18 C 0.3175(3) 0.4955(2) 0.4768(1)
C19 C 0.5956(3) 0.4799(2) 0.4376(1)
C20 C 0.3163(3) 0.4494(2) 0.3204(1)
O2 O 0.4058(2) 0.4302(1) 0.2639(1)
O3 O 0.1519(2) 0.4488(2) 0.3025(1)
H23 H 0.1969(31) 0.4955(22) 0.4606(13)
H24 H 0.6665(29) 0.4686(21) 0.3925(13)
C19A C 0.4044(3) 0.5201(2) 0.5624(1)
C17A C 0.5877(3) 0.5251(2) 0.5868(1)
C18A C 0.6825(3) 0.5045(2) 0.5232(1)
H23A H 0.8031(31) 0.5045(22) 0.5394(13)
C20A C 0.6837(3) 0.5506(2) 0.6796(1)
O2A O 0.5942(2) 0.5698(1) 0.7361(1)
O3A O 0.8481(2) 0.5512(2) 0.6975(1)
H24A H 0.3335(29) 0.5314(21) 0.6075(13)
O4 O -0.1595(2) 0.2097(2) 0.2645(1)
H25 H -0.0724(45) 0.2798(33) 0.2744(20)
H26 H -0.1384(40) 0.1591(31) 0.2198(19)
O5 O 0.0739(2) 0.6745(2) 0.2733(1)
H27 H 0.0870(42) 0.6006(31) 0.2822(18)
H28 H 0.1248(41) 0.6874(30) 0.2279(19)
O6 O 0.1582(3) 0.4443(2) 0.1059(1)
H29 H 0.2146(44) 0.4410(31) 0.1533(21)
H30 H 0.1201(43) 0.3692(34) 0.0702(20)
O7 O 0.2272(3) 0.7180(2) 0.1318(1)
H31 H 0.1679(43) 0.7440(32) 0.0910(19)
H32 H 0.1924(41) 0.6240(34) 0.1072(18)
O8 O -0.0248(3) 0.1832(2) -0.0139(1)
H33 H 0.0305(41) 0.1390(30) -0.0439(19)
H34 H -0.0756(40) 0.1343(31) 0.0227(19)
loop_
_geom_bond_atom_site_label_1
_geom_bond_atom_site_label_2
_geom_bond_site_symmetry_1
_geom_bond_site_symmetry_2
C1 N1 1_555 1_555
N1 C2 1_555 1_555
C2 C3 1_555 1_555
C3 O1 1_555 1_555
O1 C4 1_555 1_555
C4 C5 1_555 1_555
C5 N2 1_555 1_555
N2 C6 1_555 1_555
C6 C12 1_555 1_555
C7 C1 1_555 1_555
C8 C7 1_555 1_555
C9 C8 1_555 1_555
C10 C9 1_555 1_555
C11 C10 1_555 1_555
C12 C13 1_555 1_555
C13 H20 1_555 1_555
C14 C9 1_555 1_555
C15 C14 1_555 1_555
C16 C7 1_555 1_555
C17 C18 1_555 1_555
C18 H23 1_555 1_555
C19 C17 1_555 1_555
C20 C17 1_555 1_555
O2 C20 1_555 1_555
O3 C20 1_555 1_555
O4 H25 1_555 1_555
O5 H27 1_555 1_555
O6 H29 1_555 1_555
O7 H31 1_555 1_555
O8 H33 1_555 1_555
H1 C1 1_555 1_555
H2 C1 1_555 1_555
H3 N1 1_555 1_555
H4 N1 1_555 1_555
H5 C2 1_555 1_555
H6 C2 1_555 1_555
H7 C3 1_555 1_555
H8 C3 1_555 1_555
H9 C4 1_555 1_555
H10 C4 1_555 1_555
H11 C5 1_555 1_555
H12 C5 1_555 1_555
H13 N2 1_555 1_555
H14 N2 1_555 1_555
H15 C6 1_555 1_555
H16 C6 1_555 1_555
H17 C8 1_555 1_555
H18 C10 1_555 1_555
H19 C11 1_555 1_555
H21 C15 1_555 1_555
H22 C16 1_555 1_555
H24 C19 1_555 1_555
H26 O4 1_555 1_555
H28 O5 1_555 1_555
H30 O6 1_555 1_555
H32 O7 1_555 1_555
H34 O8 1_555 1_555
C11A C12 1_555 1_555
C10A C11A 1_555 1_555
C9A C10A 1_555 1_555
C8A C9A 1_555 1_555
C7A C8A 1_555 1_555
C1A C7A 1_555 1_555
N1A C1A 1_555 1_555
C2A N1A 1_555 1_555
C3A C2A 1_555 1_555
O1A C3A 1_555 1_555
C4A O1A 1_555 1_555
C5A C4A 1_555 1_555
N2A C5A 1_555 1_555
C6A N2A 1_555 1_555
C12A C11 1_555 1_555
C13A C14 1_555 1_555
H20A C13A 1_555 1_555
H15A C6A 1_555 1_555
H16A C6A 1_555 1_555
H13A N2A 1_555 1_555
H14A N2A 1_555 1_555
H11A C5A 1_555 1_555
H12A C5A 1_555 1_555
H9A C4A 1_555 1_555
H10A C4A 1_555 1_555
H7A C3A 1_555 1_555
H8A C3A 1_555 1_555
H5A C2A 1_555 1_555
H6A C2A 1_555 1_555
H3A N1A 1_555 1_555
H4A N1A 1_555 1_555
H1A C1A 1_555 1_555
H2A C1A 1_555 1_555
C16A C7A 1_555 1_555
C15A C16A 1_555 1_555
C14A C13 1_555 1_555
H21A C15A 1_555 1_555
H22A C16A 1_555 1_555
H17A C8A 1_555 1_555
H18A C10A 1_555 1_555
H19A C11A 1_555 1_555
C19A C18 1_555 1_555
C17A C19A 1_555 1_555
C18A C19 1_555 1_555
H23A C18A 1_555 1_555
C20A C17A 1_555 1_555
O2A C20A 1_555 1_555
O3A C20A 1_555 1_555
H24A C19A 1_555 1_555
C15 C16 1_555 1_555
C9A C14A 1_555 1_555
C6A C12A 1_555 1_555
C12A C13A 1_555 1_555
C15A C14A 1_555 1_555
C17A C18A 1_555 1_555

#END
