
#######################################################################
#
#                 Cambridge Crystallographic Data Centre
#                                CCDC 
#
#######################################################################
#
# If this CIF has been generated from an entry in the Cambridge 
# Structural Database, then it will include bibliographic, chemical, 
# crystal, experimental, refinement or atomic coordinate data resulting 
# from the CCDC's data processing and validation procedures.
#
#######################################################################

data_XAQVUG
_chemical_formula_moiety         '2(C1 H6 N3 1+),C12 H8 O6 S2 2-,C7 H7 Cl1'
_chemical_name_systematic        
"bis(Guanidinium) 4,4'-biphenyldisulfonate 4-chlorotoluene clathrate"
_symmetry_cell_setting           triclinic
_symmetry_space_group_name_H-M   'P -1'
_symmetry_Int_Tables_number      2
_space_group_name_Hall           '-P 1'
loop_
_symmetry_equiv_pos_site_id
_symmetry_equiv_pos_as_xyz
1 x,y,z
2 -x,-y,-z
_cell_length_a                   6.1218(4)
_cell_length_b                   7.3803(4)
_cell_length_c                   13.8750(8)
_cell_angle_alpha                95.007(1)
_cell_angle_beta                 92.148(1)
_cell_angle_gamma                94.953(1)
_cell_volume                     621.518
_exptl_crystal_colour            colorless
_exptl_crystal_description       block
_cell_formula_units_Z            1
loop_
_atom_site_label
_atom_site_type_symbol
_atom_site_fract_x
_atom_site_fract_y
_atom_site_fract_z
C7 C 0.4657(5) 0.7464(4) 0.3996(2)
N1 N 0.6818(4) 0.7710(4) 0.3885(2)
N2 N 0.3467(4) 0.8885(4) 0.4029(2)
N3 N 0.3718(4) 0.5787(4) 0.4038(2)
H5 H 0.7449(4) 0.8813(4) 0.3834(2)
H6 H 0.7611(4) 0.6769(4) 0.3863(2)
H7 H 0.2036(4) 0.8720(4) 0.4079(2)
H8 H 0.4108(4) 0.9991(4) 0.4000(2)
H9 H 0.2289(4) 0.5607(4) 0.4089(2)
H10 H 0.4524(4) 0.4855(4) 0.4016(2)
C8 C 0.6204(5) 0.4191(4) -0.0683(2)
C9 C 0.4194(6) 0.4759(4) -0.0947(3)
C10 C 0.7009(6) 0.4416(4) 0.0259(3)
C11 C 0.7549(11) 0.3277(3) -0.1438(4)
Cl1 Cl 0.7709(4) 0.3142(2) -0.1573(2)
H11 H 0.3656(6) 0.4577(4) -0.1603(3)
H12 H 0.8387(6) 0.4002(4) 0.0429(3)
H13 H 0.8918(11) 0.2961(3) -0.1132(4)
H14 H 0.7889(11) 0.4111(3) -0.1935(4)
H15 H 0.6716(11) 0.2163(3) -0.1738(4)
C10A C 0.2991(6) 0.5584(4) -0.0259(3)
C8A C 0.3796(5) 0.5809(4) 0.0683(2)
C9A C 0.5806(6) 0.5241(4) 0.0947(3)
H11A H 0.6344(6) 0.5423(4) 0.1603(3)
C11A C 0.2451(11) 0.6723(3) 0.1438(4)
Cl1A Cl 0.2291(4) 0.6858(2) 0.1573(2)
H13A H 0.1082(11) 0.7039(3) 0.1132(4)
H14A H 0.2111(11) 0.5889(3) 0.1935(4)
H15A H 0.3284(11) 0.7837(3) 0.1738(4)
H12A H 0.1613(6) 0.5998(4) -0.0429(3)
S1 S 0.8285(1) 0.2562(1) 0.3576(1)
O1 O 0.9374(3) 0.1440(3) 0.4223(2)
O2 O 0.9170(3) 0.4472(3) 0.3688(2)
O3 O 0.5889(3) 0.2359(3) 0.3633(2)
C1 C 0.8846(5) 0.1716(4) 0.2383(2)
C2 C 1.0916(5) 0.2103(4) 0.2025(2)
C3 C 1.1341(5) 0.1433(4) 0.1107(2)
C4 C 0.9760(4) 0.0348(4) 0.0501(2)
C5 C 0.7709(5) -0.0034(4) 0.0889(2)
C6 C 0.7252(5) 0.0633(4) 0.1806(2)
H1 H 1.2026(5) 0.2829(4) 0.2417(2)
H2 H 1.2756(5) 0.1711(4) 0.0871(2)
H3 H 0.6601(5) -0.0777(4) 0.0505(2)
H4 H 0.5842(5) 0.0354(4) 0.2047(2)
C4A C 1.0240(4) -0.0348(4) -0.0501(2)
C3A C 0.8659(5) -0.1433(4) -0.1107(2)
C2A C 0.9084(5) -0.2103(4) -0.2025(2)
C1A C 1.1154(5) -0.1716(4) -0.2383(2)
S1A S 1.1715(1) -0.2562(1) -0.3576(1)
O1A O 1.0626(3) -0.1440(3) -0.4223(2)
O2A O 1.0830(3) -0.4472(3) -0.3688(2)
O3A O 1.4111(3) -0.2359(3) -0.3633(2)
C6A C 1.2748(5) -0.0633(4) -0.1806(2)
C5A C 1.2291(5) 0.0034(4) -0.0889(2)
H3A H 1.3399(5) 0.0777(4) -0.0505(2)
H4A H 1.4158(5) -0.0354(4) -0.2047(2)
H1A H 0.7974(5) -0.2829(4) -0.2417(2)
H2A H 0.7244(5) -0.1711(4) -0.0871(2)
loop_
_geom_bond_atom_site_label_1
_geom_bond_atom_site_label_2
_geom_bond_site_symmetry_1
_geom_bond_site_symmetry_2
S1 O1 1_555 1_555
O2 S1 1_555 1_555
O3 S1 1_555 1_555
C1 S1 1_555 1_555
C2 C1 1_555 1_555
C3 C2 1_555 1_555
C4 C3 1_555 1_555
C5 C4 1_555 1_555
C6 C1 1_555 1_555
C7 N1 1_555 1_555
N1 H5 1_555 1_555
N2 C7 1_555 1_555
N3 C7 1_555 1_555
C8 C9 1_555 1_555
C9 H11 1_555 1_555
C10 C8 1_555 1_555
C11 C8 1_555 1_555
Cl1 C8 1_555 1_555
H1 C2 1_555 1_555
H2 C3 1_555 1_555
H3 C5 1_555 1_555
H4 C6 1_555 1_555
H6 N1 1_555 1_555
H7 N2 1_555 1_555
H8 N2 1_555 1_555
H9 N3 1_555 1_555
H10 N3 1_555 1_555
H12 C10 1_555 1_555
H13 C11 1_555 1_555
H14 C11 1_555 1_555
H15 C11 1_555 1_555
C4A C4 1_555 1_555
C3A C4A 1_555 1_555
C2A C3A 1_555 1_555
C1A C2A 1_555 1_555
S1A C1A 1_555 1_555
O1A S1A 1_555 1_555
O2A S1A 1_555 1_555
O3A S1A 1_555 1_555
C6A C1A 1_555 1_555
C5A C4A 1_555 1_555
H3A C5A 1_555 1_555
H4A C6A 1_555 1_555
H1A C2A 1_555 1_555
H2A C3A 1_555 1_555
C10A C9 1_555 1_555
C8A C10A 1_555 1_555
C9A C10 1_555 1_555
H11A C9A 1_555 1_555
C11A C8A 1_555 1_555
Cl1A C8A 1_555 1_555
H13A C11A 1_555 1_555
H14A C11A 1_555 1_555
H15A C11A 1_555 1_555
H12A C10A 1_555 1_555
C5 C6 1_555 1_555
C11 Cl1 1_555 1_555
Cl1 H13 1_555 1_555
Cl1 H15 1_555 1_555
Cl1 H14 1_555 1_555
C6A C5A 1_555 1_555
C8A C9A 1_555 1_555
C11A Cl1A 1_555 1_555
Cl1A H13A 1_555 1_555
Cl1A H15A 1_555 1_555
Cl1A H14A 1_555 1_555

#END
