
#######################################################################
#
#                 Cambridge Crystallographic Data Centre
#                                CCDC 
#
#######################################################################
#
# If this CIF has been generated from an entry in the Cambridge 
# Structural Database, then it will include bibliographic, chemical, 
# crystal, experimental, refinement or atomic coordinate data resulting 
# from the CCDC's data processing and validation procedures.
#
#######################################################################

data_XAQXIW
_chemical_formula_moiety         '2(C1 H6 N3 1+),C12 H8 O6 S2 2-,C6 H4 Cl2'
_chemical_name_systematic        
"bis(Guanidinium) 4,4'-biphenyldisulfonate 1,3-dichlorobenzene clathrate"
_symmetry_cell_setting           triclinic
_symmetry_space_group_name_H-M   'P -1'
_symmetry_Int_Tables_number      2
_space_group_name_Hall           '-P 1'
loop_
_symmetry_equiv_pos_site_id
_symmetry_equiv_pos_as_xyz
1 x,y,z
2 -x,-y,-z
_cell_length_a                   6.1882(2)
_cell_length_b                   7.1994(2)
_cell_length_c                   14.2951(2)
_cell_angle_alpha                98.097(2)
_cell_angle_beta                 91.662(1)
_cell_angle_gamma                93.235(1)
_cell_volume                     629.072
_exptl_crystal_colour            colorless
_exptl_crystal_description       plate
_cell_formula_units_Z            1
loop_
_atom_site_label
_atom_site_type_symbol
_atom_site_fract_x
_atom_site_fract_y
_atom_site_fract_z
C7 C -0.0399(4) 0.7364(4) 0.4047(2)
N1 N 0.1736(4) 0.7560(3) 0.4027(2)
N2 N -0.1347(4) 0.5680(3) 0.4061(2)
N3 N -0.1548(4) 0.8869(3) 0.4049(2)
H5 H 0.2513(4) 0.6573(3) 0.4024(2)
H6 H 0.2380(4) 0.8679(3) 0.4017(2)
H7 H -0.0559(4) 0.4699(3) 0.4058(2)
H8 H -0.2767(4) 0.5538(3) 0.4075(2)
H9 H -0.2970(4) 0.8755(3) 0.4060(2)
H10 H -0.0886(4) 0.9981(3) 0.4039(2)
C8 C -0.0158(14) -0.5180(10) -0.0521(5)
C9 C -0.1781(21) -0.4435(14) 0.0053(7)
C10 C 0.1370(12) -0.5848(9) -0.1010(5)
C11 C -0.0537(17) -0.5339(16) -0.1434(10)
C12 C -0.2105(13) -0.4635(12) -0.0836(7)
C13 C 0.1789(24) -0.5658(16) -0.0117(10)
Cl1 Cl -0.0557(9) -0.5528(7) -0.1725(2)
Cl2 Cl 0.3366(5) -0.6744(4) -0.1722(2)
H11 H -0.3121(21) -0.4136(14) -0.0212(7)
H12 H -0.0744(17) -0.5472(16) -0.2101(10)
H13 H -0.3449(13) -0.4346(12) -0.1102(7)
H14 H -0.2879(24) -0.3816(16) 0.0509(10)
C8A C 0.0158(14) -0.4820(10) 0.0521(5)
C9A C 0.1781(21) -0.5565(14) -0.0053(7)
C10A C -0.1370(12) -0.4152(9) 0.1010(5)
C12A C 0.2105(13) -0.5365(12) 0.0836(7)
C11A C 0.0537(17) -0.4661(16) 0.1434(10)
C13A C -0.1789(24) -0.4342(16) 0.0117(10)
H11A H 0.3121(21) -0.5864(14) 0.0212(7)
Cl1A Cl 0.0557(9) -0.4472(7) 0.1725(2)
Cl2A Cl -0.3366(5) -0.3256(4) 0.1722(2)
H14A H 0.2879(24) -0.6184(16) -0.0509(10)
H12A H 0.0744(17) -0.4528(16) 0.2101(10)
H13A H 0.3449(13) -0.5654(12) 0.1102(7)
S1 S 0.3353(1) 0.2356(1) 0.3591(1)
O1 O 0.4219(3) 0.4297(3) 0.3761(1)
O2 O 0.1003(3) 0.2193(3) 0.3653(1)
O3 O 0.4435(3) 0.1154(3) 0.4167(1)
C1 C 0.3910(4) 0.1523(4) 0.2400(2)
C2 C 0.2339(5) 0.0516(5) 0.1803(2)
C3 C 0.2777(5) -0.0085(5) 0.0873(2)
C4 C 0.4773(4) 0.0305(4) 0.0506(2)
C5 C 0.6355(5) 0.1280(5) 0.1128(2)
C6 C 0.5926(5) 0.1881(5) 0.2062(2)
H1 H 0.0950(5) 0.0236(5) 0.2032(2)
H2 H 0.1679(5) -0.0787(5) 0.0472(2)
H3 H 0.7757(5) 0.1538(5) 0.0907(2)
H4 H 0.7031(5) 0.2547(5) 0.2472(2)
C4A C 0.5227(4) -0.0305(4) -0.0506(2)
C3A C 0.7223(5) 0.0085(5) -0.0873(2)
C2A C 0.7661(5) -0.0516(5) -0.1803(2)
C1A C 0.6090(4) -0.1523(4) -0.2400(2)
S1A S 0.6647(1) -0.2356(1) -0.3591(1)
O1A O 0.5781(3) -0.4297(3) -0.3761(1)
O2A O 0.8997(3) -0.2193(3) -0.3653(1)
O3A O 0.5565(3) -0.1154(3) -0.4167(1)
C6A C 0.4074(5) -0.1881(5) -0.2062(2)
C5A C 0.3645(5) -0.1280(5) -0.1128(2)
H3A H 0.2243(5) -0.1538(5) -0.0907(2)
H4A H 0.2969(5) -0.2547(5) -0.2472(2)
H1A H 0.9050(5) -0.0236(5) -0.2032(2)
H2A H 0.8321(5) 0.0787(5) -0.0472(2)
loop_
_geom_bond_atom_site_label_1
_geom_bond_atom_site_label_2
_geom_bond_site_symmetry_1
_geom_bond_site_symmetry_2
S1 O1 1_555 1_555
O2 S1 1_555 1_555
O3 S1 1_555 1_555
C1 S1 1_555 1_555
C2 C1 1_555 1_555
C3 C2 1_555 1_555
C4 C3 1_555 1_555
C5 C4 1_555 1_555
C6 C1 1_555 1_555
C7 N1 1_555 1_555
N1 H5 1_555 1_555
N2 C7 1_555 1_555
N3 C7 1_555 1_555
C8 C9 1_555 1_555
C9 C12 1_555 1_555
C10 C8 1_555 1_555
C11 C8 1_555 1_555
C12 C8 1_555 1_555
C13 C8 1_555 1_555
Cl1 C8 1_555 1_555
Cl2 C10 1_555 1_555
H1 C2 1_555 1_555
H2 C3 1_555 1_555
H3 C5 1_555 1_555
H4 C6 1_555 1_555
H6 N1 1_555 1_555
H7 N2 1_555 1_555
H8 N2 1_555 1_555
H9 N3 1_555 1_555
H10 N3 1_555 1_555
H11 C9 1_555 1_555
H12 C11 1_555 1_555
H13 C12 1_555 1_555
H14 C9 1_555 1_555
C4A C4 1_555 1_555
C3A C4A 1_555 1_555
C2A C3A 1_555 1_555
C1A C2A 1_555 1_555
S1A C1A 1_555 1_555
O1A S1A 1_555 1_555
O2A S1A 1_555 1_555
O3A S1A 1_555 1_555
C6A C1A 1_555 1_555
C5A C4A 1_555 1_555
H3A C5A 1_555 1_555
H4A C6A 1_555 1_555
H1A C2A 1_555 1_555
H2A C3A 1_555 1_555
C8A C8 1_555 1_555
C9A C8 1_555 1_555
C10A C9 1_555 1_555
C12A C13 1_555 1_555
C11A C8A 1_555 1_555
C13A C8 1_555 1_555
H11A C13 1_555 1_555
Cl1A C8A 1_555 1_555
Cl2A C10A 1_555 1_555
H14A C10 1_555 1_555
H12A C11A 1_555 1_555
H13A C12A 1_555 1_555
C5 C6 1_555 1_555
C9 C8A 1_555 1_555
C9 C13A 1_555 1_555
C10 C9A 1_555 1_555
C10 C11 1_555 1_555
C10 C13 1_555 1_555
C10 Cl1 1_555 1_555
C11 Cl1 1_555 1_555
C11 C12 1_555 1_555
C12 C13A 1_555 1_555
C12 H11 1_555 1_555
C12 Cl1 1_555 1_555
C13 C8A 1_555 1_555
C13 C9A 1_555 1_555
C13 H14A 1_555 1_555
Cl1 H12 1_555 1_555
H11 C13A 1_555 1_555
H14 C10A 1_555 1_555
H14 C13A 1_555 1_555
C6A C5A 1_555 1_555
C8A C9A 1_555 1_555
C8A C10A 1_555 1_555
C8A C12A 1_555 1_555
C8A C13A 1_555 1_555
C9A C12A 1_555 1_555
C9A H11A 1_555 1_555
C9A H14A 1_555 1_555
C10A C13A 1_555 1_555
C10A C11A 1_555 1_555
C10A Cl1A 1_555 1_555
C12A H11A 1_555 1_555
C12A C11A 1_555 1_555
C12A Cl1A 1_555 1_555
C11A Cl1A 1_555 1_555
Cl1A H12A 1_555 1_555

#END
