
#######################################################################
#
#                 Cambridge Crystallographic Data Centre
#                                CCDC 
#
#######################################################################
#
# If this CIF has been generated from an entry in the Cambridge 
# Structural Database, then it will include bibliographic, chemical, 
# crystal, experimental, refinement or atomic coordinate data resulting 
# from the CCDC's data processing and validation procedures.
#
#######################################################################

data_XASDAY
_chemical_formula_moiety         'C12 H16 N4 S1'
_chemical_name_systematic        
2-(3-(4-(Dimethylamino)phenyl)prop-2-en-1-ylidene)hydrazinecarbothioamide
_symmetry_cell_setting           monoclinic
_symmetry_space_group_name_H-M   'P 2/c'
_symmetry_Int_Tables_number      13
_space_group_name_Hall           '-P 2yc'
loop_
_symmetry_equiv_pos_site_id
_symmetry_equiv_pos_as_xyz
1 x,y,z
2 -x,y,1/2-z
3 -x,-y,-z
4 x,-y,1/2+z
_cell_length_a                   9.6748(19)
_cell_length_b                   8.7282(18)
_cell_length_c                   14.987(3)
_cell_angle_alpha                90
_cell_angle_beta                 91.695(4)
_cell_angle_gamma                90
_cell_volume                     1265
_exptl_crystal_colour            yellow
_exptl_crystal_description       platelet
_cell_formula_units_Z            4
loop_
_atom_site_label
_atom_site_type_symbol
_atom_site_fract_x
_atom_site_fract_y
_atom_site_fract_z
S1 S 0.49351(5) 0.17377(5) 0.10793(3)
N1 N -0.29210(16) -0.51892(18) 0.65148(10)
N2 N 0.23133(15) -0.07573(18) 0.24086(10)
N3 N 0.32434(16) 0.03631(18) 0.21601(10)
H1 H 0.3484 0.1087 0.2543
N4 N 0.33621(17) -0.07281(19) 0.07835(10)
H2 H 0.2754 -0.1411 0.0951
H3 H 0.3691 -0.0768 0.0243
C1 C -0.3997(2) -0.6104(2) 0.60858(14)
H4 H -0.3597 -0.6736 0.5619
H5 H -0.4704 -0.5427 0.5819
H6 H -0.4419 -0.6767 0.6529
C2 C -0.2980(2) -0.4982(3) 0.74687(13)
H7 H -0.2039 -0.4877 0.7723
H8 H -0.3428 -0.5872 0.7734
H9 H -0.3511 -0.4056 0.7597
C3 C -0.20623(18) -0.4301(2) 0.60176(11)
C4 C -0.11458(19) -0.3240(2) 0.64204(12)
H10 H -0.1149 -0.3098 0.7049
C5 C -0.02436(19) -0.2404(2) 0.59205(12)
H11 H 0.0366 -0.1702 0.6215
C6 C -0.01955(17) -0.25540(19) 0.49939(11)
C7 C -0.11241(18) -0.3595(2) 0.45949(11)
H12 H -0.1119 -0.3727 0.3966
C8 C -0.20406(18) -0.4430(2) 0.50773(12)
H13 H -0.2669 -0.5103 0.4776
C9 C 0.07682(18) -0.1648(2) 0.44953(12)
H14 H 0.1279 -0.0904 0.4829
C10 C 0.10351(18) -0.1722(2) 0.36232(12)
H15 H 0.0578 -0.2467 0.3259
C11 C 0.19962(19) -0.0698(2) 0.32366(12)
H16 H 0.2422 0.0062 0.3606
C12 C 0.37824(18) 0.0361(2) 0.13446(11)
loop_
_geom_bond_atom_site_label_1
_geom_bond_atom_site_label_2
_geom_bond_site_symmetry_1
_geom_bond_site_symmetry_2
S1 C12 1_555 1_555
N1 C1 1_555 1_555
N2 N3 1_555 1_555
N3 H1 1_555 1_555
N4 H2 1_555 1_555
H3 N4 1_555 1_555
C1 H4 1_555 1_555
H5 C1 1_555 1_555
H6 C1 1_555 1_555
C2 N1 1_555 1_555
H7 C2 1_555 1_555
H8 C2 1_555 1_555
H9 C2 1_555 1_555
C3 N1 1_555 1_555
C4 C3 1_555 1_555
H10 C4 1_555 1_555
C5 C4 1_555 1_555
H11 C5 1_555 1_555
C6 C5 1_555 1_555
C7 C6 1_555 1_555
H12 C7 1_555 1_555
C8 C3 1_555 1_555
H13 C8 1_555 1_555
C9 C6 1_555 1_555
H14 C9 1_555 1_555
C10 C9 1_555 1_555
H15 C10 1_555 1_555
C11 N2 1_555 1_555
H16 C11 1_555 1_555
C12 N3 1_555 1_555
N4 C12 1_555 1_555
C7 C8 1_555 1_555
C10 C11 1_555 1_555

#END
