
#######################################################################
#
#                 Cambridge Crystallographic Data Centre
#                                CCDC 
#
#######################################################################
#
# If this CIF has been generated from an entry in the Cambridge 
# Structural Database, then it will include bibliographic, chemical, 
# crystal, experimental, refinement or atomic coordinate data resulting 
# from the CCDC's data processing and validation procedures.
#
#######################################################################

data_XASGAC
_chemical_formula_moiety         'C15 H15 Br1 O2'
_chemical_name_systematic        2-(biphenyl-4-yl)-3-bromopropane-1,2-diol
_symmetry_cell_setting           monoclinic
_symmetry_space_group_name_H-M   'P 21'
_symmetry_Int_Tables_number      4
_space_group_name_Hall           'P 2yb'
loop_
_symmetry_equiv_pos_site_id
_symmetry_equiv_pos_as_xyz
1 x,y,z
2 -x,1/2+y,-z
_cell_length_a                   7.813(4)
_cell_length_b                   5.321(3)
_cell_length_c                   15.394(8)
_cell_angle_alpha                90
_cell_angle_beta                 91.594(8)
_cell_angle_gamma                90
_cell_volume                     639.727
_exptl_crystal_colour            colorless
_exptl_crystal_description       plate
_cell_formula_units_Z            2
loop_
_atom_site_label
_atom_site_type_symbol
_atom_site_fract_x
_atom_site_fract_y
_atom_site_fract_z
Br1 Br -0.61917(8) -0.3721(3) -0.38733(4)
O1 O -0.2498(8) -0.0965(9) -0.3913(4)
O2 O -0.0484(8) -0.4808(11) -0.4744(3)
H1 H -0.0215 -0.3401 -0.4910
C1 C -0.2494(7) -0.3496(15) -0.3624(4)
C2 C -0.3906(9) -0.5009(15) -0.4085(5)
H2 H -0.3838 -0.6741 -0.3890
H3 H -0.3718 -0.4990 -0.4705
C3 C -0.0770(9) -0.4747(14) -0.3831(4)
H4 H 0.0153 -0.3827 -0.3541
H5 H -0.0758 -0.6451 -0.3606
C4 C -0.2598(7) -0.3473(13) -0.2637(3)
C5 C -0.3377(9) -0.5391(13) -0.2177(4)
H6 H -0.3926 -0.6691 -0.2477
C6 C -0.3344(9) -0.5386(13) -0.1272(4)
H7 H -0.3874 -0.6688 -0.0979
C7 C -0.2541(6) -0.3489(13) -0.0796(3)
C8 C -0.1742(10) -0.1607(12) -0.1258(5)
H8 H -0.1169 -0.0330 -0.0957
C9 C -0.1778(10) -0.1586(13) -0.2158(4)
H9 H -0.1242 -0.0285 -0.2449
C10 C -0.2503(6) -0.3529(15) 0.0178(3)
C11 C -0.3346(9) -0.5366(13) 0.0639(4)
H10 H -0.3949 -0.6615 0.0339
C12 C -0.3308(10) -0.5378(14) 0.1546(4)
H11 H -0.3865 -0.6647 0.1842
C13 C -0.2448(8) -0.3515(16) 0.2006(4)
H12 H -0.2441 -0.3502 0.2610
C14 C -0.1589(12) -0.1655(16) 0.1552(5)
H13 H -0.0984 -0.0413 0.1855
C15 C -0.1634(10) -0.1651(13) 0.0655(5)
H14 H -0.1077 -0.0378 0.0360
H15 H -0.256(10) -0.084(16) -0.437(6)
loop_
_geom_bond_atom_site_label_1
_geom_bond_atom_site_label_2
_geom_bond_site_symmetry_1
_geom_bond_site_symmetry_2
Br1 C2 1_555 1_555
O1 C1 1_555 1_555
O2 H1 1_555 1_555
C1 C2 1_555 1_555
C2 H2 1_555 1_555
H3 C2 1_555 1_555
C3 O2 1_555 1_555
H4 C3 1_555 1_555
H5 C3 1_555 1_555
C4 C1 1_555 1_555
C5 C4 1_555 1_555
H6 C5 1_555 1_555
C6 C5 1_555 1_555
H7 C6 1_555 1_555
C7 C6 1_555 1_555
C8 C7 1_555 1_555
H8 C8 1_555 1_555
C9 C4 1_555 1_555
H9 C9 1_555 1_555
C10 C7 1_555 1_555
C11 C10 1_555 1_555
H10 C11 1_555 1_555
C12 C11 1_555 1_555
H11 C12 1_555 1_555
C13 C12 1_555 1_555
H12 C13 1_555 1_555
C14 C13 1_555 1_555
H13 C14 1_555 1_555
C15 C10 1_555 1_555
H14 C15 1_555 1_555
H15 O1 1_555 1_555
C1 C3 1_555 1_555
C8 C9 1_555 1_555
C14 C15 1_555 1_555

#END
