
#######################################################################
#
#                 Cambridge Crystallographic Data Centre
#                                CCDC 
#
#######################################################################
#
# If this CIF has been generated from an entry in the Cambridge 
# Structural Database, then it will include bibliographic, chemical, 
# crystal, experimental, refinement or atomic coordinate data resulting 
# from the CCDC's data processing and validation procedures.
#
#######################################################################

data_XASKOU
_chemical_formula_moiety         'C35 H40 Br1 Ca1 N5 Si2,C6 H6'
_chemical_name_systematic        
'(2-((bis((quinolin-2-yl)methyl)amino)methyl)-3-bromo-1H-indol-1-yl)-(bis(trimethylsilyl)amido)-calcium benzene solvate'
_symmetry_cell_setting           triclinic
_symmetry_space_group_name_H-M   'P -1'
_symmetry_Int_Tables_number      2
_space_group_name_Hall           '-P 1'
loop_
_symmetry_equiv_pos_site_id
_symmetry_equiv_pos_as_xyz
1 x,y,z
2 -x,-y,-z
_cell_length_a                   12.4980(15)
_cell_length_b                   13.2069(16)
_cell_length_c                   13.9980(17)
_cell_angle_alpha                73.548(2)
_cell_angle_beta                 75.025(2)
_cell_angle_gamma                73.388(2)
_cell_volume                     2083.47
_exptl_crystal_colour            yellow
_exptl_crystal_description       prismatic
_cell_formula_units_Z            2
loop_
_atom_site_label
_atom_site_type_symbol
_atom_site_fract_x
_atom_site_fract_y
_atom_site_fract_z
Ca1 Ca 0.40425(6) 0.21907(6) 0.24469(6)
Br1 Br 0.39363(5) -0.20270(4) 0.14346(4)
Si1 Si 0.17584(10) 0.41938(10) 0.35338(9)
Si2 Si 0.25232(10) 0.43607(10) 0.12814(9)
N1 N 0.3156(3) 0.0925(2) 0.2191(2)
N2 N 0.5529(2) 0.0587(2) 0.1904(2)
N3 N 0.6049(3) 0.2581(3) 0.1842(2)
N4 N 0.5238(3) 0.1172(3) 0.3829(2)
N5 N 0.2618(2) 0.3751(2) 0.2505(2)
C1 C 0.2118(3) 0.0632(3) 0.2558(3)
C2 C 0.1115(4) 0.1188(4) 0.3087(4)
H1 H 0.1070 0.1858 0.3207
C3 C 0.0182(4) 0.0708(5) 0.3431(4)
H2 H -0.0489 0.1054 0.3796
C4 C 0.0250(5) -0.0291(5) 0.3230(5)
H3 H -0.0386 -0.0588 0.3462
C5 C 0.1212(4) -0.0847(4) 0.2706(4)
H4 H 0.1238 -0.1510 0.2583
C6 C 0.2164(4) -0.0378(3) 0.2359(3)
C7 C 0.3302(4) -0.0703(3) 0.1847(3)
C8 C 0.3850(3) 0.0090(3) 0.1760(3)
C9 C 0.5051(3) 0.0149(3) 0.1274(3)
H5 H 0.5504 -0.0568 0.1211
H6 H 0.5074 0.0616 0.0598
C10 C 0.6649(3) 0.0842(3) 0.1356(3)
H7 H 0.6662 0.1031 0.0632
H8 H 0.7247 0.0196 0.1496
C11 C 0.6901(3) 0.1754(3) 0.1643(3)
C12 C 0.8040(3) 0.1736(4) 0.1622(4)
H9 H 0.8623 0.1157 0.1455
C13 C 0.8275(4) 0.2570(5) 0.1847(4)
H10 H 0.9024 0.2557 0.1844
C14 C 0.7417(4) 0.3441(4) 0.2082(3)
C15 C 0.6295(4) 0.3435(3) 0.2070(3)
C16 C 0.5392(4) 0.4311(3) 0.2302(3)
H11 H 0.4654 0.4314 0.2278
C17 C 0.5592(5) 0.5152(4) 0.2560(4)
H12 H 0.4991 0.5725 0.2712
C18 C 0.6714(6) 0.5154(5) 0.2596(4)
H13 H 0.6846 0.5723 0.2784
C19 C 0.7582(5) 0.4344(5) 0.2361(4)
H14 H 0.8314 0.4365 0.2379
C20 C 0.5648(3) -0.0213(3) 0.2876(3)
H15 H 0.6242 -0.0845 0.2747
H16 H 0.4942 -0.0447 0.3171
C21 C 0.5939(3) 0.0255(3) 0.3629(3)
C22 C 0.6912(3) -0.0264(4) 0.4047(3)
H17 H 0.7362 -0.0919 0.3904
C23 C 0.7186(4) 0.0212(4) 0.4670(3)
H18 H 0.7827 -0.0123 0.4958
C24 C 0.6523(4) 0.1182(4) 0.4875(3)
C25 C 0.5527(4) 0.1657(3) 0.4457(3)
C26 C 0.4821(4) 0.2651(4) 0.4636(3)
H19 H 0.4163 0.2956 0.4368
C27 C 0.5134(6) 0.3173(5) 0.5230(4)
H20 H 0.4679 0.3831 0.5359
C28 C 0.6121(6) 0.2713(6) 0.5630(4)
H21 H 0.6318 0.3071 0.6019
C29 C 0.6798(5) 0.1754(5) 0.5461(4)
H22 H 0.7454 0.1465 0.5734
C30 C 0.1697(4) 0.3041(4) 0.4679(3)
H23 H 0.1078 0.2725 0.4721
H24 H 0.1581 0.3306 0.5278
H25 H 0.2399 0.2503 0.4623
C31 C 0.2283(5) 0.5231(4) 0.3882(4)
H26 H 0.3026 0.4911 0.4043
H27 H 0.1767 0.5462 0.4461
H28 H 0.2320 0.5846 0.3320
C32 C 0.0243(4) 0.4819(5) 0.3401(4)
H29 H 0.0206 0.5481 0.2886
H30 H -0.0200 0.4973 0.4036
H31 H -0.0054 0.4325 0.3212
C33 C 0.2667(5) 0.5812(4) 0.0888(4)
H32 H 0.2117 0.6222 0.1340
H33 H 0.2537 0.6119 0.0208
H34 H 0.3419 0.5834 0.0917
C34 C 0.1191(4) 0.4348(5) 0.0895(4)
H35 H 0.1072 0.3624 0.1102
H36 H 0.1271 0.4589 0.0171
H37 H 0.0552 0.4824 0.1214
C35 C 0.3738(3) 0.3593(4) 0.0435(3)
H38 H 0.4451 0.3617 0.0558
H39 H 0.3696 0.3923 -0.0264
H40 H 0.3683 0.2853 0.0583
C36 C 0.0755(5) 0.2065(4) 0.8258(5)
H41 H 0.0368 0.2196 0.7734
C37 C 0.1674(4) 0.2510(4) 0.8113(4)
H42 H 0.1915 0.2942 0.7486
C38 C 0.2227(4) 0.2316(4) 0.8890(5)
H43 H 0.2843 0.2621 0.8791
C39 C 0.1888(5) 0.1682(4) 0.9806(4)
H44 H 0.2269 0.1565 1.0331
C40 C 0.1001(5) 0.1217(5) 0.9967(4)
H45 H 0.0785 0.0766 1.0591
C41 C 0.0423(4) 0.1424(5) 0.9190(5)
H46 H -0.0199 0.1125 0.9299
loop_
_geom_bond_atom_site_label_1
_geom_bond_atom_site_label_2
_geom_bond_site_symmetry_1
_geom_bond_site_symmetry_2
Ca1 N1 1_555 1_555
Br1 C7 1_555 1_555
Si1 N5 1_555 1_555
Si2 N5 1_555 1_555
N1 C1 1_555 1_555
N2 Ca1 1_555 1_555
N3 Ca1 1_555 1_555
N4 Ca1 1_555 1_555
N5 Ca1 1_555 1_555
C1 C2 1_555 1_555
C2 H1 1_555 1_555
C3 C2 1_555 1_555
H2 C3 1_555 1_555
C4 C3 1_555 1_555
H3 C4 1_555 1_555
C5 C4 1_555 1_555
H4 C5 1_555 1_555
C6 C1 1_555 1_555
C7 C6 1_555 1_555
C8 N1 1_555 1_555
C9 N2 1_555 1_555
H5 C9 1_555 1_555
H6 C9 1_555 1_555
C10 N2 1_555 1_555
H7 C10 1_555 1_555
H8 C10 1_555 1_555
C11 N3 1_555 1_555
C12 C11 1_555 1_555
H9 C12 1_555 1_555
C13 C12 1_555 1_555
H10 C13 1_555 1_555
C14 C13 1_555 1_555
C15 N3 1_555 1_555
C16 C15 1_555 1_555
H11 C16 1_555 1_555
C17 C16 1_555 1_555
H12 C17 1_555 1_555
C18 C17 1_555 1_555
H13 C18 1_555 1_555
C19 C14 1_555 1_555
H14 C19 1_555 1_555
C20 N2 1_555 1_555
H15 C20 1_555 1_555
H16 C20 1_555 1_555
C21 N4 1_555 1_555
C22 C21 1_555 1_555
H17 C22 1_555 1_555
C23 C22 1_555 1_555
H18 C23 1_555 1_555
C24 C23 1_555 1_555
C25 N4 1_555 1_555
C26 C25 1_555 1_555
H19 C26 1_555 1_555
C27 C26 1_555 1_555
H20 C27 1_555 1_555
C28 C27 1_555 1_555
H21 C28 1_555 1_555
C29 C24 1_555 1_555
H22 C29 1_555 1_555
C30 Si1 1_555 1_555
H23 C30 1_555 1_555
H24 C30 1_555 1_555
H25 C30 1_555 1_555
C31 Si1 1_555 1_555
H26 C31 1_555 1_555
H27 C31 1_555 1_555
H28 C31 1_555 1_555
C32 Si1 1_555 1_555
H29 C32 1_555 1_555
H30 C32 1_555 1_555
H31 C32 1_555 1_555
C33 Si2 1_555 1_555
H32 C33 1_555 1_555
H33 C33 1_555 1_555
H34 C33 1_555 1_555
C34 Si2 1_555 1_555
H35 C34 1_555 1_555
H36 C34 1_555 1_555
H37 C34 1_555 1_555
C35 Si2 1_555 1_555
H38 C35 1_555 1_555
H39 C35 1_555 1_555
H40 C35 1_555 1_555
C36 H41 1_555 1_555
C37 C36 1_555 1_555
H42 C37 1_555 1_555
C38 C37 1_555 1_555
H43 C38 1_555 1_555
C39 C38 1_555 1_555
H44 C39 1_555 1_555
C40 C39 1_555 1_555
H45 C40 1_555 1_555
C41 C36 1_555 1_555
H46 C41 1_555 1_555
C5 C6 1_555 1_555
C7 C8 1_555 1_555
C8 C9 1_555 1_555
C10 C11 1_555 1_555
C14 C15 1_555 1_555
C18 C19 1_555 1_555
C20 C21 1_555 1_555
C24 C25 1_555 1_555
C28 C29 1_555 1_555
C40 C41 1_555 1_555

#END
