
#######################################################################
#
#                 Cambridge Crystallographic Data Centre
#                                CCDC 
#
#######################################################################
#
# If this CIF has been generated from an entry in the Cambridge 
# Structural Database, then it will include bibliographic, chemical, 
# crystal, experimental, refinement or atomic coordinate data resulting 
# from the CCDC's data processing and validation procedures.
#
#######################################################################

data_XASSOZ
_chemical_formula_moiety         'C36 H49 N3'
_chemical_name_systematic        
2,6-bis(2,4,6-Tri-isopropylphenyl)-1-azidobenzene
_symmetry_cell_setting           orthorhombic
_symmetry_space_group_name_H-M   'P b c m'
_symmetry_Int_Tables_number      57
_space_group_name_Hall           '-P 2c 2b'
loop_
_symmetry_equiv_pos_site_id
_symmetry_equiv_pos_as_xyz
1 x,y,z
2 -x,-y,1/2+z
3 -x,1/2+y,1/2-z
4 x,1/2-y,-z
5 -x,-y,-z
6 x,y,1/2-z
7 x,1/2-y,1/2+z
8 -x,1/2+y,z
_cell_length_a                   10.930(2)
_cell_length_b                   12.120(2)
_cell_length_c                   25.210(5)
_cell_angle_alpha                90
_cell_angle_beta                 90
_cell_angle_gamma                90
_cell_volume                     3339.61
_exptl_crystal_colour            'pale yellow'
_exptl_crystal_description       block
_chemical_melting_point          '174-175 deg.C'
_cell_formula_units_Z            4
loop_
_atom_site_label
_atom_site_type_symbol
_atom_site_fract_x
_atom_site_fract_y
_atom_site_fract_z
N1 N 0.7208(3) 0.0809(3) 0.7500
N2 N 0.6899(5) 0.0182(4) 0.72474(17)
N3 N 0.6662(6) -0.0553(6) 0.6982(3)
C1 C 0.7155(3) 0.1970(2) 0.7500
C2 C 0.71697(18) 0.25356(18) 0.70152(8)
C3 C 0.72246(19) 0.19300(17) 0.64966(8)
C4 C 0.71554(19) 0.36750(18) 0.70266(9)
H1 H 0.7156 0.4072 0.6702
C5 C 0.7140(3) 0.4250(3) 0.7500
H2 H 0.7119 0.5033 0.7500
C6 C 0.6161(2) 0.17769(18) 0.61946(9)
C7 C 0.8352(2) 0.15286(19) 0.63127(9)
C8 C 0.6249(2) 0.12069(18) 0.57171(9)
H3 H 0.5529 0.1103 0.5512
C9 C 0.8384(2) 0.0963(2) 0.58323(9)
H4 H 0.9145 0.0688 0.5707
C10 C 0.9539(2) 0.1733(2) 0.66183(10)
H5 H 0.9317 0.2065 0.6968
C11 C 0.7395(2) 0.0198(2) 0.49986(10)
H6 H 0.6534 0.0027 0.4891
C12 C 0.4925(2) 0.22205(19) 0.63722(9)
H7 H 0.5043 0.2602 0.6720
C13 C 0.7339(2) 0.07875(19) 0.55301(9)
C14 C 0.7930(3) 0.0950(2) 0.45773(10)
H8 H 0.7463 0.1640 0.4566
H9 H 0.7886 0.0585 0.4231
H10 H 0.8786 0.1111 0.4663
C15 C 1.0240(2) 0.0673(2) 0.67264(11)
H11 H 0.9714 0.0156 0.6919
H12 H 1.0966 0.0839 0.6940
H13 H 1.0493 0.0341 0.6389
C16 C 0.8082(3) -0.0885(2) 0.50221(10)
H14 H 0.7714 -0.1361 0.5293
H15 H 0.8940 -0.0745 0.5113
H16 H 0.8038 -0.1252 0.4676
C17 C 1.0344(2) 0.2556(2) 0.63252(12)
H17 H 1.1098 0.2678 0.6527
H18 H 0.9905 0.3257 0.6286
H19 H 1.0547 0.2265 0.5974
C18 C 0.4423(3) 0.3058(3) 0.59816(13)
H20 H 0.5010 0.3663 0.5940
H21 H 0.3646 0.3350 0.6115
H22 H 0.4289 0.2701 0.5638
C19 C 0.4017(3) 0.1286(3) 0.64552(14)
H23 H 0.4345 0.0766 0.6717
H24 H 0.3881 0.0902 0.6118
H25 H 0.3241 0.1588 0.6584
N2E N 0.6899(5) 0.0182(4) 0.77526(17)
C4E C 0.71554(19) 0.36750(18) 0.79734(9)
C2E C 0.71697(18) 0.25356(18) 0.79848(8)
C3E C 0.72246(19) 0.19300(17) 0.85034(8)
C6E C 0.6161(2) 0.17769(18) 0.88054(9)
C8E C 0.6249(2) 0.12069(18) 0.92829(9)
H3E H 0.5529 0.1103 0.9488
C13E C 0.7339(2) 0.07875(19) 0.94699(9)
C9E C 0.8384(2) 0.0963(2) 0.91677(9)
C7E C 0.8352(2) 0.15286(19) 0.86873(9)
C10E C 0.9539(2) 0.1733(2) 0.83817(10)
H5E H 0.9317 0.2065 0.8032
C15E C 1.0240(2) 0.0673(2) 0.82736(11)
H11E H 0.9714 0.0156 0.8081
H12E H 1.0966 0.0839 0.8060
H13E H 1.0493 0.0341 0.8611
C17E C 1.0344(2) 0.2556(2) 0.86748(12)
H17E H 1.1098 0.2678 0.8473
H18E H 0.9905 0.3257 0.8714
H19E H 1.0547 0.2265 0.9026
H4E H 0.9145 0.0688 0.9293
C11E C 0.7395(2) 0.0198(2) 1.00014(10)
H6E H 0.6534 0.0027 1.0109
C14E C 0.7930(3) 0.0950(2) 1.04227(10)
H8E H 0.7463 0.1640 1.0434
H9E H 0.7886 0.0585 1.0769
H10E H 0.8786 0.1111 1.0337
C16E C 0.8082(3) -0.0885(2) 0.99779(10)
H14E H 0.7714 -0.1361 0.9707
H15E H 0.8940 -0.0745 0.9887
H16E H 0.8038 -0.1252 1.0324
C12E C 0.4925(2) 0.22205(19) 0.86278(9)
H7E H 0.5043 0.2602 0.8280
C18E C 0.4423(3) 0.3058(3) 0.90184(13)
H20E H 0.5010 0.3663 0.9060
H21E H 0.3646 0.3350 0.8885
H22E H 0.4289 0.2701 0.9362
C19E C 0.4017(3) 0.1286(3) 0.85448(14)
H23E H 0.4345 0.0766 0.8283
H24E H 0.3881 0.0902 0.8882
H25E H 0.3241 0.1588 0.8416
H1E H 0.7156 0.4072 0.8298
N3E N 0.6662(6) -0.0553(6) 0.8018(3)
loop_
_geom_bond_atom_site_label_1
_geom_bond_atom_site_label_2
_geom_bond_site_symmetry_1
_geom_bond_site_symmetry_2
N1 N2 1_555 1_555
N2 N3 1_555 1_555
C1 N1 1_555 1_555
C2 C1 1_555 1_555
C3 C2 1_555 1_555
C4 C2 1_555 1_555
H1 C4 1_555 1_555
C5 C4 1_555 1_555
H2 C5 1_555 1_555
C6 C3 1_555 1_555
C7 C3 1_555 1_555
C8 C6 1_555 1_555
H3 C8 1_555 1_555
C9 C7 1_555 1_555
H4 C9 1_555 1_555
C10 C7 1_555 1_555
H5 C10 1_555 1_555
C11 H6 1_555 1_555
C12 C6 1_555 1_555
H7 C12 1_555 1_555
C13 C8 1_555 1_555
C14 C11 1_555 1_555
H8 C14 1_555 1_555
H9 C14 1_555 1_555
H10 C14 1_555 1_555
C15 C10 1_555 1_555
H11 C15 1_555 1_555
H12 C15 1_555 1_555
H13 C15 1_555 1_555
C16 C11 1_555 1_555
H14 C16 1_555 1_555
H15 C16 1_555 1_555
H16 C16 1_555 1_555
C17 C10 1_555 1_555
H17 C17 1_555 1_555
H18 C17 1_555 1_555
H19 C17 1_555 1_555
C18 C12 1_555 1_555
H20 C18 1_555 1_555
H21 C18 1_555 1_555
H22 C18 1_555 1_555
C19 C12 1_555 1_555
H23 C19 1_555 1_555
H24 C19 1_555 1_555
H25 C19 1_555 1_555
N2E N1 1_555 1_555
C4E C5 1_555 1_555
C2E C1 1_555 1_555
C3E C2E 1_555 1_555
C6E C3E 1_555 1_555
C8E C6E 1_555 1_555
H3E C8E 1_555 1_555
C13E C8E 1_555 1_555
C9E C13E 1_555 1_555
C7E C3E 1_555 1_555
C10E C7E 1_555 1_555
H5E C10E 1_555 1_555
C15E C10E 1_555 1_555
H11E C15E 1_555 1_555
H12E C15E 1_555 1_555
H13E C15E 1_555 1_555
C17E C10E 1_555 1_555
H17E C17E 1_555 1_555
H18E C17E 1_555 1_555
H19E C17E 1_555 1_555
H4E C9E 1_555 1_555
C11E C13E 1_555 1_555
H6E C11E 1_555 1_555
C14E C11E 1_555 1_555
H8E C14E 1_555 1_555
H9E C14E 1_555 1_555
H10E C14E 1_555 1_555
C16E C11E 1_555 1_555
H14E C16E 1_555 1_555
H15E C16E 1_555 1_555
H16E C16E 1_555 1_555
C12E C6E 1_555 1_555
H7E C12E 1_555 1_555
C18E C12E 1_555 1_555
H20E C18E 1_555 1_555
H21E C18E 1_555 1_555
H22E C18E 1_555 1_555
C19E C12E 1_555 1_555
H23E C19E 1_555 1_555
H24E C19E 1_555 1_555
H25E C19E 1_555 1_555
H1E C4E 1_555 1_555
N3E N2E 1_555 1_555
N2 N2E 1_555 1_555
C9 C13 1_555 1_555
C11 C13 1_555 1_555
C4E C2E 1_555 1_555
C9E C7E 1_555 1_555

#END
