
#######################################################################
#
#                 Cambridge Crystallographic Data Centre
#                                CCDC 
#
#######################################################################
#
# If this CIF has been generated from an entry in the Cambridge 
# Structural Database, then it will include bibliographic, chemical, 
# crystal, experimental, refinement or atomic coordinate data resulting 
# from the CCDC's data processing and validation procedures.
#
#######################################################################

data_XASTAM
_chemical_formula_moiety         'C36 H51 O2 P1,0.25(C6 H14)'
_chemical_name_systematic        
'2,6-bis(2,4,6-Tri-isopropylphenyl)phenylphosphinic acid n-hexane solvate'
_symmetry_cell_setting           monoclinic
_symmetry_space_group_name_H-M   'P 21/n'
_symmetry_Int_Tables_number      14
_space_group_name_Hall           '-P 2yn'
loop_
_symmetry_equiv_pos_site_id
_symmetry_equiv_pos_as_xyz
1 x,y,z
2 1/2-x,1/2+y,1/2-z
3 -x,-y,-z
4 1/2+x,1/2-y,1/2+z
_cell_length_a                   15.512(3)
_cell_length_b                   14.376(3)
_cell_length_c                   16.999(3)
_cell_angle_alpha                90
_cell_angle_beta                 111.42(3)
_cell_angle_gamma                90
_cell_volume                     3528.95
_exptl_crystal_colour            colorless
_exptl_crystal_description       cube
_chemical_melting_point          233-237deg.C
_cell_formula_units_Z            4
loop_
_atom_site_label
_atom_site_type_symbol
_atom_site_fract_x
_atom_site_fract_y
_atom_site_fract_z
P1 P 0.51903(10) 0.37065(10) 0.05898(9)
H1 H 0.476(3) 0.334(3) 0.107(2)
O1 O 0.4531(2) 0.3772(3) -0.0349(2)
H2 H 0.4511 0.4324 -0.0516
O2 O 0.5640(2) 0.4608(2) 0.0993(2)
C1 C 0.6030(3) 0.2801(3) 0.0664(3)
C2 C 0.6156(3) 0.2045(3) 0.1229(3)
C3 C 0.6831(4) 0.1376(4) 0.1268(3)
H3 H 0.6938 0.0873 0.1654
C4 C 0.7337(4) 0.1437(4) 0.0757(3)
H4 H 0.7766 0.0960 0.0770
C5 C 0.7230(3) 0.2189(3) 0.0221(3)
H5 H 0.7596 0.2231 -0.0120
C6 C 0.6588(3) 0.2885(3) 0.0180(3)
C7 C 0.6623(3) 0.3753(4) -0.0302(3)
C8 C 0.7232(3) 0.4457(3) 0.0137(3)
C9 C 0.7311(4) 0.5239(4) -0.0295(4)
H6 H 0.7719 0.5719 0.0007
C10 C 0.6822(4) 0.5359(4) -0.1151(4)
C11 C 0.6218(4) 0.4644(4) -0.1571(3)
H7 H 0.5870 0.4711 -0.2158
C12 C 0.6109(3) 0.3847(4) -0.1169(3)
C13 C 0.5656(3) 0.1935(4) 0.1831(3)
C14 C 0.5901(4) 0.2491(4) 0.2559(3)
C15 C 0.5481(4) 0.2324(4) 0.3138(3)
H8 H 0.5631 0.2711 0.3623
C16 C 0.4844(4) 0.1601(4) 0.3030(3)
C17 C 0.4621(4) 0.1084(4) 0.2315(3)
H9 H 0.4172 0.0606 0.2228
C18 C 0.5003(4) 0.1208(4) 0.1709(3)
C19 C 0.4724(4) 0.0588(4) 0.0931(3)
H10 H 0.5211 0.0654 0.0679
C20 C 0.4673(5) -0.0420(4) 0.1126(4)
H11 H 0.4538 -0.0786 0.0609
H12 H 0.4181 -0.0515 0.1351
H13 H 0.5267 -0.0619 0.1547
C21 C 0.3819(6) 0.0911(5) 0.0274(4)
H14 H 0.3670 0.0525 -0.0233
H15 H 0.3877 0.1562 0.0129
H16 H 0.3325 0.0856 0.0502
C22 C 0.4423(4) 0.1377(6) 0.3690(4)
H17 H 0.4312 0.0691 0.3639
C23 C 0.5054(5) 0.1517(7) 0.4575(4)
H18 H 0.4820 0.1173 0.4953
H19 H 0.5086 0.2181 0.4713
H20 H 0.5673 0.1290 0.4645
C24 C 0.3491(5) 0.1789(6) 0.3479(5)
H21 H 0.3207 0.1545 0.3865
H22 H 0.3105 0.1628 0.2896
H23 H 0.3545 0.2467 0.3536
C25 C 0.6656(4) 0.3218(4) 0.2751(3)
H24 H 0.6695 0.3412 0.2200
C26 C 0.7590(4) 0.2797(4) 0.3282(4)
H25 H 0.7714 0.2257 0.2986
H26 H 0.7577 0.2600 0.3829
H27 H 0.8078 0.3262 0.3370
C27 C 0.6458(5) 0.4091(4) 0.3165(4)
H28 H 0.5823 0.4299 0.2852
H29 H 0.6893 0.4582 0.3160
H30 H 0.6531 0.3951 0.3750
C28 C 0.7832(4) 0.4352(4) 0.1073(3)
H31 H 0.7560 0.3845 0.1313
C29 C 0.7873(4) 0.5230(4) 0.1586(4)
H32 H 0.8204 0.5099 0.2187
H33 H 0.7243 0.5439 0.1496
H34 H 0.8201 0.5719 0.1404
C30 C 0.8815(4) 0.4067(4) 0.1177(4)
H35 H 0.9195 0.4019 0.1780
H36 H 0.9082 0.4536 0.0914
H37 H 0.8801 0.3464 0.0904
C31 C 0.6966(4) 0.6183(4) -0.1643(4)
H38 H 0.6374 0.6290 -0.2132
C32 C 0.7210(5) 0.7085(4) -0.1135(5)
H39 H 0.7172 0.7607 -0.1516
H40 H 0.7841 0.7041 -0.0715
H41 H 0.6775 0.7184 -0.0846
C33 C 0.7711(6) 0.5954(5) -0.1998(6)
H42 H 0.7539 0.5388 -0.2341
H43 H 0.8303 0.5856 -0.1532
H44 H 0.7772 0.6471 -0.2350
C34 C 0.5482(3) 0.3068(4) -0.1668(3)
H45 H 0.5334 0.2657 -0.1260
C35 C 0.5989(4) 0.2490(4) -0.2109(4)
H46 H 0.6557 0.2235 -0.1687
H47 H 0.6149 0.2882 -0.2507
H48 H 0.5590 0.1978 -0.2416
C36 C 0.4570(4) 0.3420(4) -0.2318(3)
H49 H 0.4173 0.2890 -0.2581
H50 H 0.4697 0.3782 -0.2752
H51 H 0.4256 0.3816 -0.2036
C37 C 0.527(7) 0.471(6) -0.468(5)
C38 C 0.6134(16) 0.4280(16) -0.4155(14)
C39 C 0.6534(18) 0.5086(19) -0.4255(16)
C37B C 0.473(7) 0.529(6) -0.532(5)
C38B C 0.3866(16) 0.5720(16) -0.5845(14)
C39B C 0.3466(18) 0.4914(19) -0.5745(16)
C40? C 0.537(3) 0.556(2) -0.518(2)
loop_
_geom_bond_atom_site_label_1
_geom_bond_atom_site_label_2
_geom_bond_site_symmetry_1
_geom_bond_site_symmetry_2
P1 H1 1_555 1_555
O1 P1 1_555 1_555
H2 O1 1_555 1_555
O2 P1 1_555 1_555
C1 P1 1_555 1_555
C2 C1 1_555 1_555
C3 C2 1_555 1_555
H3 C3 1_555 1_555
C4 C3 1_555 1_555
H4 C4 1_555 1_555
C5 C4 1_555 1_555
H5 C5 1_555 1_555
C6 C1 1_555 1_555
C7 C6 1_555 1_555
C8 C7 1_555 1_555
C9 C8 1_555 1_555
H6 C9 1_555 1_555
C10 C9 1_555 1_555
C11 C10 1_555 1_555
H7 C11 1_555 1_555
C12 C7 1_555 1_555
C13 C2 1_555 1_555
C14 C13 1_555 1_555
C15 C14 1_555 1_555
H8 C15 1_555 1_555
C16 C15 1_555 1_555
C17 C16 1_555 1_555
H9 C17 1_555 1_555
C18 C13 1_555 1_555
C19 C18 1_555 1_555
H10 C19 1_555 1_555
C20 C19 1_555 1_555
H11 C20 1_555 1_555
H12 C20 1_555 1_555
H13 C20 1_555 1_555
C21 C19 1_555 1_555
H14 C21 1_555 1_555
H15 C21 1_555 1_555
H16 C21 1_555 1_555
C22 C16 1_555 1_555
H17 C22 1_555 1_555
C23 C22 1_555 1_555
H18 C23 1_555 1_555
H19 C23 1_555 1_555
H20 C23 1_555 1_555
C24 C22 1_555 1_555
H21 C24 1_555 1_555
H22 C24 1_555 1_555
H23 C24 1_555 1_555
C25 C14 1_555 1_555
H24 C25 1_555 1_555
C26 C25 1_555 1_555
H25 C26 1_555 1_555
H26 C26 1_555 1_555
H27 C26 1_555 1_555
C27 C25 1_555 1_555
H28 C27 1_555 1_555
H29 C27 1_555 1_555
H30 C27 1_555 1_555
C28 C8 1_555 1_555
H31 C28 1_555 1_555
C29 C28 1_555 1_555
H32 C29 1_555 1_555
H33 C29 1_555 1_555
H34 C29 1_555 1_555
C30 C28 1_555 1_555
H35 C30 1_555 1_555
H36 C30 1_555 1_555
H37 C30 1_555 1_555
C31 C10 1_555 1_555
H38 C31 1_555 1_555
C32 C31 1_555 1_555
H39 C32 1_555 1_555
H40 C32 1_555 1_555
H41 C32 1_555 1_555
C33 C31 1_555 1_555
H42 C33 1_555 1_555
H43 C33 1_555 1_555
H44 C33 1_555 1_555
C34 C12 1_555 1_555
H45 C34 1_555 1_555
C35 C34 1_555 1_555
H46 C35 1_555 1_555
H47 C35 1_555 1_555
H48 C35 1_555 1_555
C36 C34 1_555 1_555
H49 C36 1_555 1_555
H50 C36 1_555 1_555
H51 C36 1_555 1_555
C37 C38 1_555 1_555
C38 C39 1_555 1_555
C37B C37 1_555 1_555
C38B C37B 1_555 1_555
C39B C38B 1_555 1_555
C5 C6 1_555 1_555
C11 C12 1_555 1_555
C17 C18 1_555 1_555

#END
