
#######################################################################
#
#                 Cambridge Crystallographic Data Centre
#                                CCDC 
#
#######################################################################
#
# If this CIF has been generated from an entry in the Cambridge 
# Structural Database, then it will include bibliographic, chemical, 
# crystal, experimental, refinement or atomic coordinate data resulting 
# from the CCDC's data processing and validation procedures.
#
#######################################################################

data_XASVAP
_chemical_compound_source        'leaves of Isodon weisiensis C.Y.Wu'
_chemical_name_common            
1alpha,7alpha,14beta,18,20-Pentahydroxy-ent-kaur-16-en-15-one
_chemical_formula_moiety         'C20 H30 O6'
_chemical_name_systematic        'Weisiensin C'
_chemical_properties_biological  
'cytotoxic activity against human tumour Bel-7402 and HO-8910 cells'
_symmetry_cell_setting           monoclinic
_symmetry_space_group_name_H-M   'P 21'
_symmetry_Int_Tables_number      4
_space_group_name_Hall           'P 2yb'
loop_
_symmetry_equiv_pos_site_id
_symmetry_equiv_pos_as_xyz
1 x,y,z
2 -x,1/2+y,-z
_cell_length_a                   6.8316(14)
_cell_length_b                   19.016(3)
_cell_length_c                   7.6541(10)
_cell_angle_alpha                90
_cell_angle_beta                 110.126(12)
_cell_angle_gamma                90
_cell_volume                     933.626
_exptl_crystal_colour            yellow
_exptl_crystal_description       prism
_chemical_melting_point          236-238deg.C
_cell_formula_units_Z            2
loop_
_atom_site_label
_atom_site_type_symbol
_atom_site_fract_x
_atom_site_fract_y
_atom_site_fract_z
O1 O 0.66232(12) 0.49477(5) 1.14459(10)
H1 H 0.6050 0.5314 1.1568
O2 O 0.45349(15) 0.41889(5) 0.33150(11)
H2 H 0.4769 0.4506 0.2688
O3 O 0.45140(12) 0.69421(4) 0.37591(9)
H3 H 0.4498 0.7289 0.4390
O4 O 0.95419(11) 0.67417(5) 0.59365(11)
O5 O 0.48883(11) 0.77751(4) 0.65802(11)
H4 H 0.4630 0.7636 0.5510
O6 O 0.42954(11) 0.61134(5) 1.06579(9)
H5 H 0.5191 0.5864 1.1379
C1 C 0.45749(16) 0.41681(6) 0.89963(14)
H6 H 0.3345 0.4290 0.9290
H7 H 0.5232 0.3768 0.9761
C2 C 0.39138(17) 0.39584(6) 0.69432(15)
H8 H 0.2954 0.3565 0.6718
H9 H 0.5133 0.3803 0.6674
C3 C 0.28658(16) 0.45612(6) 0.56165(13)
C4 C 0.43383(14) 0.52056(5) 0.61242(12)
H10 H 0.5570 0.5057 0.5840
C5 C 0.35028(15) 0.58477(6) 0.48631(12)
H11 H 0.2825 0.5693 0.3589
H12 H 0.2478 0.6092 0.5257
C6 C 0.52725(15) 0.63438(5) 0.49618(12)
H13 H 0.6239 0.6088 0.4497
C7 C 0.65258(13) 0.65959(5) 0.69552(12)
C8 C 0.56970(14) 0.72038(5) 0.78506(13)
H14 H 0.4651 0.7033 0.8361
C9 C 0.76778(15) 0.74547(6) 0.94178(14)
H15 H 0.7479 0.7923 0.9867
C10 C 0.82962(17) 0.69123(7) 1.10122(14)
H16 H 0.9557 0.7066 1.1986
H17 H 0.7196 0.6877 1.1540
C11 C 0.86658(15) 0.61879(6) 1.02856(14)
H18 H 0.8630 0.5838 1.1195
H19 H 1.0063 0.6185 1.0230
C12 C 0.71223(13) 0.59486(5) 0.83418(12)
H20 H 0.7993 0.5656 0.7847
C13 C 0.52347(13) 0.54481(5) 0.82384(12)
C14 C 0.60849(15) 0.47891(6) 0.94744(13)
H21 H 0.7363 0.4640 0.9271
C15 C 0.2597(2) 0.43214(7) 0.35942(16)
H22 H 0.1761 0.3896 0.3312
H23 H 0.1844 0.4683 0.2729
C16 C 0.06359(18) 0.46940(8) 0.56075(18)
H24 H 0.0693 0.4846 0.6820
H25 H -0.0158 0.4267 0.5287
H26 H -0.0016 0.5051 0.4710
C17 C 0.86064(14) 0.69195(6) 0.69381(14)
C18 C 0.92463(16) 0.74729(6) 0.84253(16)
C19 C 1.08972(19) 0.78763(8) 0.8749(2)
H27 H 1.1748 0.7827 0.8034
H28 H 1.1214 0.8211 0.9692
C20 C 0.35183(14) 0.57808(6) 0.88627(12)
H29 H 0.2770 0.6127 0.7946
H30 H 0.2534 0.5417 0.8892
loop_
_geom_bond_atom_site_label_1
_geom_bond_atom_site_label_2
_geom_bond_site_symmetry_1
_geom_bond_site_symmetry_2
O1 H1 1_555 1_555
O2 H2 1_555 1_555
O3 H3 1_555 1_555
O4 C17 1_555 1_555
O5 H4 1_555 1_555
O6 H5 1_555 1_555
C1 H6 1_555 1_555
H7 C1 1_555 1_555
C2 C1 1_555 1_555
H8 C2 1_555 1_555
H9 C2 1_555 1_555
C3 C2 1_555 1_555
C4 C3 1_555 1_555
H10 C4 1_555 1_555
C5 C4 1_555 1_555
H11 C5 1_555 1_555
H12 C5 1_555 1_555
C6 O3 1_555 1_555
H13 C6 1_555 1_555
C7 C6 1_555 1_555
C8 O5 1_555 1_555
H14 C8 1_555 1_555
C9 C8 1_555 1_555
H15 C9 1_555 1_555
C10 C9 1_555 1_555
H16 C10 1_555 1_555
H17 C10 1_555 1_555
C11 C10 1_555 1_555
H18 C11 1_555 1_555
H19 C11 1_555 1_555
C12 C7 1_555 1_555
H20 C12 1_555 1_555
C13 C4 1_555 1_555
C14 O1 1_555 1_555
H21 C14 1_555 1_555
C15 O2 1_555 1_555
H22 C15 1_555 1_555
H23 C15 1_555 1_555
C16 C3 1_555 1_555
H24 C16 1_555 1_555
H25 C16 1_555 1_555
H26 C16 1_555 1_555
C17 C7 1_555 1_555
C18 C9 1_555 1_555
C19 C18 1_555 1_555
H27 C19 1_555 1_555
H28 C19 1_555 1_555
C20 O6 1_555 1_555
H29 C20 1_555 1_555
H30 C20 1_555 1_555
C1 C14 1_555 1_555
C3 C15 1_555 1_555
C5 C6 1_555 1_555
C7 C8 1_555 1_555
C11 C12 1_555 1_555
C12 C13 1_555 1_555
C13 C14 1_555 1_555
C13 C20 1_555 1_555
C17 C18 1_555 1_555

#END
