
#######################################################################
#
#                 Cambridge Crystallographic Data Centre
#                                CCDC 
#
#######################################################################
#
# If this CIF has been generated from an entry in the Cambridge 
# Structural Database, then it will include bibliographic, chemical, 
# crystal, experimental, refinement or atomic coordinate data resulting 
# from the CCDC's data processing and validation procedures.
#
#######################################################################

data_XATKAE
_chemical_formula_moiety         'C18 H20 O2,0.85(C1 H2 Cl2)'
_chemical_name_systematic        
'(R)-(+)-2,3-Dihydro-3-(4-hydroxyphenyl)-1,1,3-trimethyl-1H-inden-5-ol dichloromethane solvate'
_symmetry_cell_setting           orthorhombic
_symmetry_space_group_name_H-M   'P 21 21 21'
_symmetry_Int_Tables_number      19
_space_group_name_Hall           'P 2ac 2ab'
loop_
_symmetry_equiv_pos_site_id
_symmetry_equiv_pos_as_xyz
1 x,y,z
2 1/2+x,1/2-y,-z
3 -x,1/2+y,1/2-z
4 1/2-x,-y,1/2+z
_cell_length_a                   7.9986(13)
_cell_length_b                   19.825(3)
_cell_length_c                   24.191(6)
_cell_angle_alpha                90
_cell_angle_beta                 90
_cell_angle_gamma                90
_cell_volume                     3836.02
_exptl_crystal_colour            colorless
_exptl_crystal_description       'thick plate'
_chemical_melting_point          '152-158 deg.C'
_cell_formula_units_Z            8
_exptl_crystal_recrystallization_method methanol/dichloromethane
loop_
_atom_site_label
_atom_site_type_symbol
_atom_site_fract_x
_atom_site_fract_y
_atom_site_fract_z
O1 O 0.0977(5) 0.17707(15) 0.73764(13)
H1 H 0.0383(55) 0.1453(13) 0.7469(10)
O2 O 0.3742(5) 0.57781(15) 0.82272(13)
H2 H 0.4635(25) 0.5981(17) 0.8233(16)
C1 C 0.0959(6) 0.2256(2) 0.7787(2)
C2 C 0.2156(6) 0.2761(2) 0.7769(2)
H3 H 0.2951(6) 0.2766(2) 0.7488(2)
C3 C 0.2161(6) 0.3257(2) 0.8170(2)
H4 H 0.2951(6) 0.3600(2) 0.8149(2)
C4 C 0.1037(6) 0.3261(2) 0.8600(2)
C5 C -0.0152(6) 0.2753(2) 0.8600(2)
H5 H -0.0955(6) 0.2750(2) 0.8878(2)
C6 C -0.0194(7) 0.2250(2) 0.8204(2)
H6 H -0.0997(7) 0.1911(2) 0.8222(2)
C7 C 0.1060(6) 0.3777(2) 0.9069(2)
C8 C 0.1590(8) 0.3446(3) 0.9619(2)
H7 H 0.0937(8) 0.3631(3) 0.9921(2)
H8 H 0.1394(8) 0.2963(3) 0.9604(2)
C9 C 0.3431(8) 0.3585(2) 0.9712(2)
C10 C 0.3727(6) 0.4210(2) 0.9358(2)
C11 C 0.2402(5) 0.4306(2) 0.8992(2)
C12 C 0.2405(6) 0.4838(2) 0.8624(2)
H9 H 0.1504(6) 0.4910(2) 0.8388(2)
C13 C 0.3775(6) 0.5262(2) 0.8613(2)
C14 C 0.5109(6) 0.5174(2) 0.8975(2)
H10 H 0.6014(6) 0.5469(2) 0.8968(2)
C15 C 0.5070(6) 0.4645(2) 0.9343(2)
H11 H 0.5960(6) 0.4581(2) 0.9585(2)
C16 C 0.4539(10) 0.3003(3) 0.9498(3)
H12 H 0.4382(53) 0.2952(18) 0.9107(5)
H13 H 0.4233(47) 0.2592(6) 0.9682(17)
H14 H 0.5691(11) 0.3103(13) 0.9573(20)
C17 C -0.0663(7) 0.4110(3) 0.9117(3)
H15 H -0.0950(21) 0.4318(16) 0.8772(6)
H16 H -0.0635(15) 0.4447(14) 0.9402(11)
H17 H -0.1484(10) 0.3774(4) 0.9208(15)
C18 C 0.3818(12) 0.3722(3) 1.0334(2)
H18 H 0.3380(68) 0.3361(16) 1.0554(3)
H19 H 0.3308(62) 0.4140(16) 1.0444(7)
H20 H 0.5006(11) 0.3751(29) 1.0386(5)
O3 O 0.8688(5) 1.07726(14) 0.75622(12)
H21 H 0.7972(43) 1.0709(14) 0.7325(12)
O4 O 0.6413(5) 0.66326(14) 0.83513(13)
H22 H 0.7260(36) 0.6674(14) 0.8163(16)
C19 C 0.8612(6) 1.0266(2) 0.7948(2)
C20 C 0.9706(6) 1.0302(2) 0.8382(2)
H23 H 1.0464(6) 1.0657(2) 0.8405(2)
C21 C 0.9677(6) 0.9807(2) 0.8787(2)
H24 H 1.0433(6) 0.9834(2) 0.9078(2)
C22 C 0.8553(5) 0.9269(2) 0.8772(2)
C23 C 0.7480(6) 0.9252(2) 0.8319(2)
H25 H 0.6721(6) 0.8898(2) 0.8289(2)
C24 C 0.7506(6) 0.9741(2) 0.7914(2)
H26 H 0.6771(6) 0.9714(2) 0.7617(2)
C25 C 0.8553(6) 0.8747(2) 0.9241(2)
C26 C 0.7813(7) 0.9029(2) 0.9783(2)
H27 H 0.7943(7) 0.9516(2) 0.9792(2)
H28 H 0.8401(7) 0.8840(2) 1.0097(2)
C27 C 0.5936(7) 0.8844(2) 0.9815(2)
C28 C 0.5895(6) 0.8226(2) 0.9448(2)
C29 C 0.7329(6) 0.8171(2) 0.9127(2)
C30 C 0.7546(5) 0.7641(2) 0.8761(2)
H29 H 0.8523(5) 0.7603(2) 0.8555(2)
C31 C 0.6285(6) 0.7169(2) 0.8708(2)
C32 C 0.4850(6) 0.7222(2) 0.9023(2)
H30 H 0.4009(6) 0.6902(2) 0.8985(2)
C33 C 0.4645(6) 0.7746(2) 0.9396(2)
H31 H 0.3680(6) 0.7776(2) 0.9609(2)
C34 C 1.0320(6) 0.8471(3) 0.9326(2)
H32 H 1.1042(12) 0.8828(5) 0.9448(14)
H33 H 1.0730(18) 0.8292(16) 0.8983(4)
H34 H 1.0297(10) 0.8120(13) 0.9599(11)
C35 C 0.4868(8) 0.9407(2) 0.9569(3)
H35 H 0.5187(36) 0.9480(14) 0.9191(6)
H36 H 0.5035(41) 0.9814(6) 0.9776(11)
H37 H 0.3710(9) 0.9280(9) 0.9584(16)
C36 C 0.5391(8) 0.8695(3) 1.0405(2)
H38 H 0.4220(14) 0.8587(21) 1.0409(3)
H39 H 0.5589(51) 0.9083(8) 1.0632(4)
H40 H 0.6018(38) 0.8319(14) 1.0545(6)
C37 C 0.1900(25) 0.8843(20) 0.7639(24)
H41 H 0.1333(25) 0.8607(20) 0.7342(24)
H42 H 0.1063(25) 0.8972(20) 0.7909(24)
Cl1 Cl 0.3319(8) 0.8286(6) 0.7953(5)
Cl2 Cl 0.2795(9) 0.9559(4) 0.7376(3)
C38 C 0.4486(29) 0.0857(9) 0.8556(8)
H43 H 0.3812(29) 0.0519(9) 0.8371(8)
H44 H 0.5455(29) 0.0635(9) 0.8714(8)
Cl3 Cl 0.3342(12) 0.1230(4) 0.9070(4)
Cl4 Cl 0.5126(9) 0.1464(4) 0.8084(3)
C39? C 0.1895(39) 0.8801(34) 0.7559(38)
H45? H 0.1013(39) 0.8640(34) 0.7317(38)
H46? H 0.1397(39) 0.9107(34) 0.7824(38)
Cl5? Cl 0.2745(17) 0.8117(10) 0.7911(9)
Cl6? Cl 0.3346(11) 0.9233(6) 0.7171(4)
C40? C 0.4182(63) 0.1450(17) 0.8664(10)
H47? H 0.3653(63) 0.1885(17) 0.8610(10)
H48? H 0.5329(63) 0.1537(17) 0.8773(10)
Cl7? Cl 0.3208(19) 0.1069(9) 0.9212(5)
Cl8? Cl 0.4235(16) 0.1056(6) 0.8040(4)
C41? C 0.5203(38) 0.1048(14) 0.8661(13)
H49? H 0.5110(38) 0.0661(14) 0.8418(13)
H50? H 0.6200(38) 0.0978(14) 0.8882(13)
Cl9? Cl 0.3608(15) 0.1007(7) 0.9089(5)
Cl10? Cl 0.5578(12) 0.1706(5) 0.8264(4)
loop_
_geom_bond_atom_site_label_1
_geom_bond_atom_site_label_2
_geom_bond_site_symmetry_1
_geom_bond_site_symmetry_2
O1 H1 1_555 1_555
O2 H2 1_555 1_555
C1 O1 1_555 1_555
C2 C1 1_555 1_555
H3 C2 1_555 1_555
C3 C2 1_555 1_555
H4 C3 1_555 1_555
C4 C3 1_555 1_555
C5 C4 1_555 1_555
H5 C5 1_555 1_555
C6 C1 1_555 1_555
H6 C6 1_555 1_555
C7 C4 1_555 1_555
C8 C7 1_555 1_555
H7 C8 1_555 1_555
H8 C8 1_555 1_555
C9 C8 1_555 1_555
C10 C9 1_555 1_555
C11 C7 1_555 1_555
C12 C11 1_555 1_555
H9 C12 1_555 1_555
C13 O2 1_555 1_555
C14 C13 1_555 1_555
H10 C14 1_555 1_555
C15 C10 1_555 1_555
H11 C15 1_555 1_555
C16 C9 1_555 1_555
H12 C16 1_555 1_555
H13 C16 1_555 1_555
H14 C16 1_555 1_555
C17 C7 1_555 1_555
H15 C17 1_555 1_555
H16 C17 1_555 1_555
H17 C17 1_555 1_555
C18 C9 1_555 1_555
H18 C18 1_555 1_555
H19 C18 1_555 1_555
H20 C18 1_555 1_555
O3 H21 1_555 1_555
O4 H22 1_555 1_555
C19 O3 1_555 1_555
C20 C19 1_555 1_555
H23 C20 1_555 1_555
C21 C20 1_555 1_555
H24 C21 1_555 1_555
C22 C21 1_555 1_555
C23 C22 1_555 1_555
H25 C23 1_555 1_555
C24 C19 1_555 1_555
H26 C24 1_555 1_555
C25 C22 1_555 1_555
C26 C25 1_555 1_555
H27 C26 1_555 1_555
H28 C26 1_555 1_555
C27 C26 1_555 1_555
C28 C27 1_555 1_555
C29 C25 1_555 1_555
C30 C29 1_555 1_555
H29 C30 1_555 1_555
C31 O4 1_555 1_555
C32 C31 1_555 1_555
H30 C32 1_555 1_555
C33 C28 1_555 1_555
H31 C33 1_555 1_555
C34 C25 1_555 1_555
H32 C34 1_555 1_555
H33 C34 1_555 1_555
H34 C34 1_555 1_555
C35 C27 1_555 1_555
H35 C35 1_555 1_555
H36 C35 1_555 1_555
H37 C35 1_555 1_555
C36 C27 1_555 1_555
H38 C36 1_555 1_555
H39 C36 1_555 1_555
H40 C36 1_555 1_555
C37 H41 1_555 1_555
H42 C37 1_555 1_555
Cl1 C37 1_555 1_555
Cl2 C37 1_555 1_555
C38 H43 1_555 1_555
H44 C38 1_555 1_555
Cl3 C38 1_555 1_555
Cl4 C38 1_555 1_555
C5 C6 1_555 1_555
C10 C11 1_555 1_555
C12 C13 1_555 1_555
C14 C15 1_555 1_555
C23 C24 1_555 1_555
C28 C29 1_555 1_555
C30 C31 1_555 1_555
C32 C33 1_555 1_555

#END
