
#######################################################################
#
#                 Cambridge Crystallographic Data Centre
#                                CCDC 
#
#######################################################################
#
# If this CIF has been generated from an entry in the Cambridge 
# Structural Database, then it will include bibliographic, chemical, 
# crystal, experimental, refinement or atomic coordinate data resulting 
# from the CCDC's data processing and validation procedures.
#
#######################################################################

data_XATPIR
_chemical_formula_moiety         
'C40 H32 S2 Se1 2+,2(C1 F3 O3 S1 1-),2.78(H2 O1)'
_chemical_name_systematic        
'bis(4-(Dibenzothiophenium-5-yl)-2,3-dimethylphenyl)selenide bis(trifluoromethanesulfonate) hydrate'
_symmetry_cell_setting           monoclinic
_symmetry_space_group_name_H-M   'C 2/c'
_symmetry_Int_Tables_number      15
_space_group_name_Hall           '-C 2yn'
loop_
_symmetry_equiv_pos_site_id
_symmetry_equiv_pos_as_xyz
1 x,y,z
2 1/2+x,1/2+y,z
3 -x,y,1/2-z
4 1/2-x,1/2+y,1/2-z
5 -x,-y,-z
6 1/2-x,1/2-y,-z
7 x,-y,1/2+z
8 1/2+x,1/2-y,1/2+z
_cell_length_a                   21.993(5)
_cell_length_b                   13.639(4)
_cell_length_c                   16.042(5)
_cell_angle_alpha                90
_cell_angle_beta                 107.95(2)
_cell_angle_gamma                90
_cell_volume                     4577.78
_exptl_crystal_colour            colorless
_exptl_crystal_description       prismatic
_cell_formula_units_Z            4
_exptl_crystal_recrystallization_method chloroform
loop_
_atom_site_label
_atom_site_type_symbol
_atom_site_fract_x
_atom_site_fract_y
_atom_site_fract_z
Se1 Se 0.50000 -0.10149(6) 0.25000
S1 S 0.67666(7) 0.2016(1) 0.12057(10)
C1 C 0.5556(2) -0.0124(4) 0.2136(3)
C2 C 0.5641(2) -0.0305(4) 0.1323(3)
C3 C 0.6033(3) 0.0325(4) 0.1042(4)
C4 C 0.6327(3) 0.1101(4) 0.1573(4)
C5 C 0.6266(3) 0.1249(4) 0.2391(4)
C6 C 0.5884(3) 0.0630(4) 0.2696(3)
C7 C 0.5322(3) -0.1145(4) 0.0742(4)
C8 C 0.5842(3) 0.0785(5) 0.3603(4)
C9 C 0.6155(3) 0.2653(4) 0.0381(4)
C10 C 0.5691(4) 0.3237(5) 0.0544(5)
C11 C 0.5264(4) 0.3697(5) -0.0168(6)
C12 C 0.5337(4) 0.3591(5) -0.0980(5)
C13 C 0.5806(3) 0.3024(5) -0.1145(4)
C14 C 0.6220(3) 0.2521(4) -0.0440(4)
C15 C 0.6725(3) 0.1827(4) -0.0447(4)
C16 C 0.6906(3) 0.1482(5) -0.1147(4)
C17 C 0.7393(4) 0.0800(5) -0.1006(5)
C18 C 0.7708(3) 0.0451(5) -0.0157(5)
C19 C 0.7537(3) 0.0789(5) 0.0557(5)
C20 C 0.7047(3) 0.1459(4) 0.0394(4)
H1 H 0.6107 0.0217 0.0484
H2 H 0.6502 0.1775 0.2760
H3 H 0.5064 -0.1510 0.1021
H4 H 0.5056 -0.0892 0.0183
H5 H 0.5648 -0.1572 0.0643
H6 H 0.6263 0.0714 0.4026
H7 H 0.5679 0.1437 0.3649
H8 H 0.5555 0.0301 0.3725
H9 H 0.5661 0.3327 0.1194
H10 H 0.4886 0.4138 -0.0078
H11 H 0.5006 0.3972 -0.1526
H12 H 0.5857 0.2976 -0.1789
H13 H 0.6663 0.1753 -0.1802
H14 H 0.7537 0.0532 -0.1554
H15 H 0.8082 -0.0089 -0.0062
H16 H 0.7777 0.0541 0.1219
C1B C 0.4444(2) -0.0124(4) 0.2864(3)
C2B C 0.4359(2) -0.0305(4) 0.3677(3)
C3B C 0.3967(3) 0.0325(4) 0.3958(4)
C4B C 0.3673(3) 0.1101(4) 0.3427(4)
S1B S 0.32334(7) 0.2016(1) 0.37943(10)
C9B C 0.3845(3) 0.2653(4) 0.4619(4)
C10B C 0.4309(4) 0.3237(5) 0.4456(5)
C11B C 0.4736(4) 0.3697(5) 0.5168(6)
C12B C 0.4663(4) 0.3591(5) 0.5980(5)
C13B C 0.4194(3) 0.3024(5) 0.6145(4)
C14B C 0.3780(3) 0.2521(4) 0.5440(4)
C15B C 0.3275(3) 0.1827(4) 0.5447(4)
C16B C 0.3094(3) 0.1482(5) 0.6147(4)
C17B C 0.2607(4) 0.0800(5) 0.6006(5)
C18B C 0.2292(3) 0.0451(5) 0.5157(5)
C19B C 0.2463(3) 0.0789(5) 0.4443(5)
C20B C 0.2953(3) 0.1459(4) 0.4606(4)
H16B H 0.2223 0.0541 0.3781
H15B H 0.1918 -0.0089 0.5062
H14B H 0.2463 0.0532 0.6554
H13B H 0.3337 0.1753 0.6802
H12B H 0.4143 0.2976 0.6789
H11B H 0.4994 0.3972 0.6526
H10B H 0.5114 0.4138 0.5078
H9B H 0.4339 0.3327 0.3806
C5B C 0.3734(3) 0.1249(4) 0.2609(4)
C6B C 0.4116(3) 0.0630(4) 0.2304(3)
C8B C 0.4158(3) 0.0785(5) 0.1397(4)
H6B H 0.3737 0.0714 0.0974
H7B H 0.4321 0.1437 0.1351
H8B H 0.4445 0.0301 0.1275
H2B H 0.3498 0.1775 0.2240
H1B H 0.3893 0.0217 0.4516
C7B C 0.4678(3) -0.1145(4) 0.4258(4)
H3B H 0.4936 -0.1510 0.3979
H4B H 0.4944 -0.0892 0.4817
H5B H 0.4352 -0.1572 0.4357
S2 S 0.83504(9) 0.1484(2) 0.3303(1)
F1 F 0.8407(3) 0.2793(6) 0.4508(4)
F2 F 0.7556(3) 0.1939(5) 0.4154(4)
F3 F 0.7675(4) 0.3053(5) 0.3288(5)
O1 O 0.8674(3) 0.0815(5) 0.3991(4)
O2 O 0.8766(2) 0.2074(4) 0.2971(3)
O3 O 0.7796(2) 0.1080(4) 0.2646(3)
C21 C 0.7986(4) 0.2339(9) 0.3845(6)
O4 O 0.3941(8) 0.424(1) 0.192(1)
O5? O 0.422(1) 0.390(2) 0.153(2)
O6? O 0.4987(9) 0.423(1) 0.2809(10)
O7? O 0.460(1) 0.373(2) 0.216(2)
O8? O 0.487(1) 0.295(2) 0.217(2)
loop_
_geom_bond_atom_site_label_1
_geom_bond_atom_site_label_2
_geom_bond_site_symmetry_1
_geom_bond_site_symmetry_2
Se1 C1 1_555 1_555
S1 C4 1_555 1_555
C1 C2 1_555 1_555
C2 C3 1_555 1_555
C3 C4 1_555 1_555
C4 C5 1_555 1_555
C5 C6 1_555 1_555
C6 C1 1_555 1_555
C7 C2 1_555 1_555
C8 C6 1_555 1_555
C9 S1 1_555 1_555
C10 C9 1_555 1_555
C11 C10 1_555 1_555
C12 C11 1_555 1_555
C13 C12 1_555 1_555
C14 C9 1_555 1_555
C15 C14 1_555 1_555
C16 C15 1_555 1_555
C17 C16 1_555 1_555
C18 C17 1_555 1_555
C19 C18 1_555 1_555
C20 S1 1_555 1_555
H1 C3 1_555 1_555
H2 C5 1_555 1_555
H3 C7 1_555 1_555
H4 C7 1_555 1_555
H5 C7 1_555 1_555
H6 C8 1_555 1_555
H7 C8 1_555 1_555
H8 C8 1_555 1_555
H9 C10 1_555 1_555
H10 C11 1_555 1_555
H11 C12 1_555 1_555
H12 C13 1_555 1_555
H13 C16 1_555 1_555
H14 C17 1_555 1_555
H15 C18 1_555 1_555
H16 C19 1_555 1_555
S2 O1 1_555 1_555
F1 C21 1_555 1_555
F2 C21 1_555 1_555
F3 C21 1_555 1_555
O2 S2 1_555 1_555
O3 S2 1_555 1_555
C21 S2 1_555 1_555
C1B Se1 1_555 1_555
C2B C1B 1_555 1_555
C3B C2B 1_555 1_555
C4B C3B 1_555 1_555
S1B C4B 1_555 1_555
C9B S1B 1_555 1_555
C10B C9B 1_555 1_555
C11B C10B 1_555 1_555
C12B C11B 1_555 1_555
C13B C12B 1_555 1_555
C14B C9B 1_555 1_555
C15B C14B 1_555 1_555
C16B C15B 1_555 1_555
C17B C16B 1_555 1_555
C18B C17B 1_555 1_555
C19B C18B 1_555 1_555
C20B S1B 1_555 1_555
H16B C19B 1_555 1_555
H15B C18B 1_555 1_555
H14B C17B 1_555 1_555
H13B C16B 1_555 1_555
H12B C13B 1_555 1_555
H11B C12B 1_555 1_555
H10B C11B 1_555 1_555
H9B C10B 1_555 1_555
C5B C4B 1_555 1_555
C6B C1B 1_555 1_555
C8B C6B 1_555 1_555
H6B C8B 1_555 1_555
H7B C8B 1_555 1_555
H8B C8B 1_555 1_555
H2B C5B 1_555 1_555
H1B C3B 1_555 1_555
C7B C2B 1_555 1_555
H3B C7B 1_555 1_555
H4B C7B 1_555 1_555
H5B C7B 1_555 1_555
C13 C14 1_555 1_555
C15 C20 1_555 1_555
C19 C20 1_555 1_555
C13B C14B 1_555 1_555
C15B C20B 1_555 1_555
C19B C20B 1_555 1_555
C5B C6B 1_555 1_555

#END
