
#######################################################################
#
#                 Cambridge Crystallographic Data Centre
#                                CCDC 
#
#######################################################################
#
# If this CIF has been generated from an entry in the Cambridge 
# Structural Database, then it will include bibliographic, chemical, 
# crystal, experimental, refinement or atomic coordinate data resulting 
# from the CCDC's data processing and validation procedures.
#
#######################################################################

data_XATVOE01
_chemical_formula_moiety         'C20 H24 O3'
_chemical_name_systematic        'p-Ethoxyphenyl p-pentylbenzoate'
_symmetry_cell_setting           triclinic
_symmetry_space_group_name_H-M   'P -1'
_symmetry_Int_Tables_number      2
_space_group_name_Hall           '-P 1'
loop_
_symmetry_equiv_pos_site_id
_symmetry_equiv_pos_as_xyz
1 x,y,z
2 -x,-y,-z
_cell_length_a                   5.5313(8)
_cell_length_b                   12.0568(18)
_cell_length_c                   14.521(2)
_cell_angle_alpha                108.721(7)
_cell_angle_beta                 93.660(7)
_cell_angle_gamma                95.477(6)
_cell_volume                     908.384
_exptl_crystal_colour            colorless
_exptl_crystal_description       needle
_chemical_melting_point          '62.6deg. C'
_cell_formula_units_Z            2
_exptl_crystal_recrystallization_method 'ethyl acetate'
loop_
_atom_site_label
_atom_site_type_symbol
_atom_site_fract_x
_atom_site_fract_y
_atom_site_fract_z
O1 O 1.0873(6) 0.1776(3) 0.2005(2)
O2 O 0.7322(5) 0.0959(2) 0.1100(2)
O3 O 0.7536(5) 0.4124(2) -0.09473(19)
C1 C 0.9110(7) 0.1064(3) 0.1812(3)
C2 C 0.8574(7) 0.0181(3) 0.2310(3)
C3 C 1.0290(8) 0.0138(4) 0.3036(3)
H1 H 1.1732 0.0652 0.3192
C4 C 0.9885(9) -0.0657(4) 0.3529(3)
H2 H 1.1041 -0.0657 0.4023
C5 C 0.7789(8) -0.1452(4) 0.3300(3)
C6 C 0.6095(8) -0.1402(4) 0.2586(3)
H3 H 0.4665 -0.1925 0.2431
C7 C 0.6436(8) -0.0603(4) 0.2087(3)
H4 H 0.5249 -0.0590 0.1608
C8 C 0.7531(7) 0.1773(3) 0.0584(3)
C9 C 0.9253(7) 0.1744(3) -0.0055(3)
H5 H 1.0381 0.1204 -0.0135
C10 C 0.9323(7) 0.2513(3) -0.0581(3)
H6 H 1.0487 0.2489 -0.1020
C11 C 0.7634(7) 0.3333(3) -0.0453(3)
C12 C 0.5892(7) 0.3353(3) 0.0201(3)
H7 H 0.4764 0.3893 0.0288
C13 C 0.5831(7) 0.2572(3) 0.0721(3)
H8 H 0.4666 0.2582 0.1157
C14 C 0.7389(10) -0.2351(5) 0.3832(4)
H9 H 0.6968 -0.3129 0.3349
H10 H 0.8912 -0.2356 0.4200
C15 C 0.5453(10) -0.2127(4) 0.4510(3)
H11 H 0.3913 -0.2155 0.4139
H12 H 0.5837 -0.1338 0.4979
C16 C 0.5155(10) -0.3008(4) 0.5063(3)
H13 H 0.4753 -0.3795 0.4592
H14 H 0.6706 -0.2988 0.5423
C17 C 0.3278(14) -0.2794(6) 0.5746(5)
H15 H 0.3686 -0.2008 0.6218
H16 H 0.1731 -0.2809 0.5385
C18 C 0.2958(16) -0.3653(6) 0.6288(5)
H17 H 0.1731 -0.3436 0.6729
H18 H 0.4475 -0.3646 0.6652
H19 H 0.2463 -0.4431 0.5832
C19 C 0.9261(8) 0.4152(3) -0.1623(3)
H20 H 0.9176 0.3380 -0.2116
H21 H 1.0896 0.4356 -0.1286
C20 C 0.8730(11) 0.5042(4) -0.2094(3)
H22 H 0.9895 0.5061 -0.2553
H23 H 0.8837 0.5806 -0.1604
H24 H 0.7115 0.4834 -0.2430
loop_
_geom_bond_atom_site_label_1
_geom_bond_atom_site_label_2
_geom_bond_site_symmetry_1
_geom_bond_site_symmetry_2
O1 C1 1_555 1_555
O2 C1 1_555 1_555
O3 C11 1_555 1_555
C1 C2 1_555 1_555
C2 C3 1_555 1_555
C3 H1 1_555 1_555
C4 C3 1_555 1_555
H2 C4 1_555 1_555
C5 C4 1_555 1_555
C6 C5 1_555 1_555
H3 C6 1_555 1_555
C7 C2 1_555 1_555
H4 C7 1_555 1_555
C8 O2 1_555 1_555
C9 C8 1_555 1_555
H5 C9 1_555 1_555
C10 C9 1_555 1_555
H6 C10 1_555 1_555
C11 C10 1_555 1_555
C12 C11 1_555 1_555
H7 C12 1_555 1_555
C13 C8 1_555 1_555
H8 C13 1_555 1_555
C14 C5 1_555 1_555
H9 C14 1_555 1_555
H10 C14 1_555 1_555
C15 C14 1_555 1_555
H11 C15 1_555 1_555
H12 C15 1_555 1_555
C16 C15 1_555 1_555
H13 C16 1_555 1_555
H14 C16 1_555 1_555
C17 C16 1_555 1_555
H15 C17 1_555 1_555
H16 C17 1_555 1_555
C18 C17 1_555 1_555
H17 C18 1_555 1_555
H18 C18 1_555 1_555
H19 C18 1_555 1_555
C19 O3 1_555 1_555
H20 C19 1_555 1_555
H21 C19 1_555 1_555
C20 C19 1_555 1_555
H22 C20 1_555 1_555
H23 C20 1_555 1_555
H24 C20 1_555 1_555
C6 C7 1_555 1_555
C12 C13 1_555 1_555

#END
