
#######################################################################
#
#                 Cambridge Crystallographic Data Centre
#                                CCDC 
#
#######################################################################
#
# If this CIF has been generated from an entry in the Cambridge 
# Structural Database, then it will include bibliographic, chemical, 
# crystal, experimental, refinement or atomic coordinate data resulting 
# from the CCDC's data processing and validation procedures.
#
#######################################################################

data_XATWEW
_chemical_formula_moiety         'C12 H10 Cl1 N1 O3'
_chemical_name_systematic        
2-(5-Chloro-3-hydroxy-1-methyl-2-oxo-2,3-dihydro-1H-indol-3-yl)acrylaldehyde
_symmetry_cell_setting           orthorhombic
_symmetry_space_group_name_H-M   'P 21 21 21'
_symmetry_Int_Tables_number      19
_space_group_name_Hall           'P 2ac 2ab'
loop_
_symmetry_equiv_pos_site_id
_symmetry_equiv_pos_as_xyz
1 x,y,z
2 1/2-x,-y,1/2+z
3 -x,1/2+y,1/2-z
4 1/2+x,1/2-y,-z
_cell_length_a                   6.6773(3)
_cell_length_b                   7.5444(3)
_cell_length_c                   24.3301(10)
_cell_angle_alpha                90
_cell_angle_beta                 90
_cell_angle_gamma                90
_cell_volume                     1225.66
_exptl_crystal_colour            colorless
_exptl_crystal_description       block
_cell_formula_units_Z            4
loop_
_atom_site_label
_atom_site_type_symbol
_atom_site_fract_x
_atom_site_fract_y
_atom_site_fract_z
Cl1 Cl 0.64469(12) 0.29332(14) 0.94376(3)
O1 O 0.5772(3) 0.6642(2) 1.22921(7)
O2 O 0.4984(2) 0.31917(19) 1.17303(6)
H1 H 0.5119 0.2984 1.2059
O3 O 0.9775(4) 0.6758(4) 1.14170(12)
N1 N 0.5083(3) 0.7304(2) 1.13901(8)
C1 C 0.5310(3) 0.6448(3) 1.08819(10)
C2 C 0.4826(4) 0.7056(4) 1.03608(12)
H2 H 0.4278 0.8178 1.0310
C3 C 0.5178(4) 0.5957(5) 0.99221(11)
H3 H 0.4874 0.6338 0.9568
C4 C 0.5976(4) 0.4301(4) 1.00013(9)
C5 C 0.6468(3) 0.3675(3) 1.05208(9)
H4 H 0.7009 0.2551 1.0571
C6 C 0.6123(3) 0.4784(3) 1.09574(9)
C7 C 0.6392(3) 0.4473(3) 1.15671(8)
C8 C 0.5759(3) 0.6285(3) 1.18009(10)
C9 C 0.8514(4) 0.4010(3) 1.17276(9)
C10 C 0.9028(6) 0.2503(6) 1.19606(14)
H5 H 1.045(6) 0.239(5) 1.2042(14)
H6 H 0.814(6) 0.157(5) 1.1994(14)
C11 C 1.0080(5) 0.5331(5) 1.16108(13)
H7 H 1.1397 0.5032 1.1694
C12 C 0.4268(6) 0.9076(3) 1.14635(15)
H8 H 0.4269 0.9372 1.1847
H9 H 0.2922 0.9112 1.1326
H10 H 0.5077 0.9914 1.1266
loop_
_geom_bond_atom_site_label_1
_geom_bond_atom_site_label_2
_geom_bond_site_symmetry_1
_geom_bond_site_symmetry_2
Cl1 C4 1_555 1_555
O1 C8 1_555 1_555
O2 H1 1_555 1_555
O3 C11 1_555 1_555
N1 C1 1_555 1_555
C1 C2 1_555 1_555
C2 H2 1_555 1_555
C3 C2 1_555 1_555
H3 C3 1_555 1_555
C4 C3 1_555 1_555
C5 C4 1_555 1_555
H4 C5 1_555 1_555
C6 C1 1_555 1_555
C7 O2 1_555 1_555
C8 N1 1_555 1_555
C9 C7 1_555 1_555
C10 C9 1_555 1_555
H5 C10 1_555 1_555
H6 C10 1_555 1_555
C11 C9 1_555 1_555
H7 C11 1_555 1_555
C12 N1 1_555 1_555
H8 C12 1_555 1_555
H9 C12 1_555 1_555
H10 C12 1_555 1_555
C5 C6 1_555 1_555
C6 C7 1_555 1_555
C7 C8 1_555 1_555

#END
