
#######################################################################
#
#                 Cambridge Crystallographic Data Centre
#                                CCDC 
#
#######################################################################
#
# If this CIF has been generated from an entry in the Cambridge 
# Structural Database, then it will include bibliographic, chemical, 
# crystal, experimental, refinement or atomic coordinate data resulting 
# from the CCDC's data processing and validation procedures.
#
#######################################################################

data_XAVBUU
_chemical_formula_moiety         'C22 H18 O1'
_chemical_name_systematic        1,3-dimethyl-1,2'-binaphthalen-2(1H)-one
_symmetry_cell_setting           monoclinic
_symmetry_space_group_name_H-M   'P 21/n'
_symmetry_Int_Tables_number      14
_space_group_name_Hall           '-P 2yn'
loop_
_symmetry_equiv_pos_site_id
_symmetry_equiv_pos_as_xyz
1 x,y,z
2 1/2-x,1/2+y,1/2-z
3 -x,-y,-z
4 1/2+x,1/2-y,1/2+z
_cell_length_a                   11.131(2)
_cell_length_b                   9.0236(18)
_cell_length_c                   16.347(3)
_cell_angle_alpha                90
_cell_angle_beta                 99.398(4)
_cell_angle_gamma                90
_cell_volume                     1619.88
_exptl_crystal_colour            colorless
_exptl_crystal_description       prismatic
_cell_formula_units_Z            4
loop_
_atom_site_label
_atom_site_type_symbol
_atom_site_fract_x
_atom_site_fract_y
_atom_site_fract_z
O1 O 0.39627(15) 0.51573(13) 0.10600(8)
C1 C 0.42934(13) 0.06923(16) 0.13475(9)
C2 C 0.45715(15) -0.08140(16) 0.14040(10)
H1 H 0.4424 -0.1398 0.0929
C3 C 0.50593(14) -0.14534(16) 0.21461(10)
H2 H 0.5231 -0.2463 0.2174
C4 C 0.52919(14) -0.05932(18) 0.28453(10)
H3 H 0.5638 -0.1016 0.3348
C5 C 0.50132(13) 0.09052(16) 0.28053(9)
H4 H 0.5173 0.1477 0.3284
C6 C 0.45037(12) 0.15617(15) 0.20682(8)
C7 C 0.40778(13) 0.31699(15) 0.20347(9)
C8 C 0.39245(15) 0.38308(17) 0.11571(10)
C9 C 0.36269(16) 0.28237(19) 0.04418(10)
C10 C 0.38105(15) 0.13745(18) 0.05608(10)
H5 H 0.3613 0.0755 0.0104
C11 C 0.3180(2) 0.3503(2) -0.03937(11)
H6 H 0.3011 0.2733 -0.0802
H7 H 0.3793 0.4153 -0.0541
H8 H 0.2450 0.4057 -0.0371
C12 C 0.27674(14) 0.3149(2) 0.22381(12)
H9 H 0.2258 0.2547 0.1839
H10 H 0.2452 0.4141 0.2219
H11 H 0.2779 0.2746 0.2783
C13 C 0.49240(12) 0.41491(14) 0.26312(8)
C14 C 0.45675(13) 0.48897(14) 0.32757(9)
H12 H 0.3766 0.4798 0.3363
C15 C 0.53775(14) 0.57957(15) 0.38183(8)
C16 C 0.50054(18) 0.65883(18) 0.44773(9)
H13 H 0.4204 0.6518 0.4567
C17 C 0.5808(2) 0.7454(2) 0.49824(11)
H14 H 0.5546 0.7982 0.5409
C18 C 0.7015(2) 0.7558(2) 0.48680(11)
H15 H 0.7558 0.8136 0.5226
C19 C 0.74062(17) 0.68206(18) 0.42370(11)
H16 H 0.8214 0.6908 0.4162
C20 C 0.65950(14) 0.59175(15) 0.36895(9)
C21 C 0.69504(14) 0.51439(17) 0.30223(11)
H17 H 0.7750 0.5217 0.2928
C22 C 0.61473(13) 0.42926(17) 0.25127(9)
H18 H 0.6408 0.3793 0.2076
loop_
_geom_bond_atom_site_label_1
_geom_bond_atom_site_label_2
_geom_bond_site_symmetry_1
_geom_bond_site_symmetry_2
O1 C8 1_555 1_555
C1 C2 1_555 1_555
C2 H1 1_555 1_555
C3 C2 1_555 1_555
H2 C3 1_555 1_555
C4 C3 1_555 1_555
H3 C4 1_555 1_555
C5 C4 1_555 1_555
H4 C5 1_555 1_555
C6 C1 1_555 1_555
C7 C6 1_555 1_555
C8 C7 1_555 1_555
C9 C8 1_555 1_555
C10 C1 1_555 1_555
H5 C10 1_555 1_555
C11 C9 1_555 1_555
H6 C11 1_555 1_555
H7 C11 1_555 1_555
H8 C11 1_555 1_555
C12 C7 1_555 1_555
H9 C12 1_555 1_555
H10 C12 1_555 1_555
H11 C12 1_555 1_555
C13 C7 1_555 1_555
C14 C13 1_555 1_555
H12 C14 1_555 1_555
C15 C14 1_555 1_555
C16 C15 1_555 1_555
H13 C16 1_555 1_555
C17 C16 1_555 1_555
H14 C17 1_555 1_555
C18 C17 1_555 1_555
H15 C18 1_555 1_555
C19 C18 1_555 1_555
H16 C19 1_555 1_555
C20 C15 1_555 1_555
C21 C20 1_555 1_555
H17 C21 1_555 1_555
C22 C13 1_555 1_555
H18 C22 1_555 1_555
C5 C6 1_555 1_555
C9 C10 1_555 1_555
C19 C20 1_555 1_555
C21 C22 1_555 1_555

#END
