
#######################################################################
#
#                 Cambridge Crystallographic Data Centre
#                                CCDC 
#
#######################################################################
#
# If this CIF has been generated from an entry in the Cambridge 
# Structural Database, then it will include bibliographic, chemical, 
# crystal, experimental, refinement or atomic coordinate data resulting 
# from the CCDC's data processing and validation procedures.
#
#######################################################################

data_XAWJAJ
_chemical_formula_moiety         'C24 H19 N3 O1'
_chemical_name_systematic        
2-methoxy-4-(4-methylphenyl)-6,11-dihydro-5H-pyrido[2,3-a]carbazole-3-carbonitrile
_symmetry_cell_setting           monoclinic
_symmetry_space_group_name_H-M   'P 21/c'
_symmetry_Int_Tables_number      14
_space_group_name_Hall           '-P 2ybc'
loop_
_symmetry_equiv_pos_site_id
_symmetry_equiv_pos_as_xyz
1 x,y,z
2 -x,1/2+y,1/2-z
3 -x,-y,-z
4 x,1/2-y,1/2+z
_cell_length_a                   14.1159(6)
_cell_length_b                   15.3254(7)
_cell_length_c                   18.2305(9)
_cell_angle_alpha                90
_cell_angle_beta                 112.383(3)
_cell_angle_gamma                90
_cell_volume                     3646.7
_exptl_crystal_colour            orange
_exptl_crystal_description       plate
_cell_formula_units_Z            8
loop_
_atom_site_label
_atom_site_type_symbol
_atom_site_fract_x
_atom_site_fract_y
_atom_site_fract_z
O1 O 0.21181(18) 0.05328(16) 0.49247(15)
N1 N 0.5378(2) -0.11540(18) 0.58624(17)
H1 H 0.4790 -0.1371 0.5539
N2 N 0.3808(2) 0.01236(18) 0.55066(16)
N3 N 0.1788(2) 0.2658(2) 0.53448(19)
C1 C 0.6271(3) -0.1609(2) 0.6207(2)
C2 C 0.6472(3) -0.2495(2) 0.6156(2)
H2 H 0.5952 -0.2883 0.5840
C3 C 0.7457(3) -0.2784(3) 0.6581(2)
H3 H 0.7612 -0.3384 0.6559
C4 C 0.8234(3) -0.2218(3) 0.7044(3)
H4 H 0.8904 -0.2437 0.7325
C5 C 0.8030(3) -0.1339(3) 0.7094(2)
H5 H 0.8560 -0.0956 0.7404
C6 C 0.7043(3) -0.1023(2) 0.6685(2)
C7 C 0.6561(3) -0.0192(2) 0.6608(2)
C8 C 0.5555(3) -0.0299(2) 0.6107(2)
C9 C 0.4787(2) 0.0363(2) 0.59186(19)
C10 C 0.5109(3) 0.1217(2) 0.6187(2)
C11 C 0.6245(3) 0.1412(2) 0.6568(2)
H6 H 0.6346 0.1912 0.6935
H7 H 0.6487 0.1594 0.6148
C12 C 0.6906(3) 0.0653(2) 0.7027(2)
H8 H 0.7628 0.0760 0.7098
H9 H 0.6875 0.0620 0.7560
C13 C 0.4342(3) 0.1853(2) 0.60395(19)
C14 C 0.3314(3) 0.1594(2) 0.5637(2)
C15 C 0.3103(3) 0.0731(2) 0.5362(2)
C16 C 0.4597(3) 0.2774(2) 0.6283(2)
C17 C 0.5242(3) 0.3240(2) 0.6006(2)
H10 H 0.5536 0.2957 0.5679
C18 C 0.5461(3) 0.4110(2) 0.6201(2)
H11 H 0.5897 0.4416 0.6002
C19 C 0.5051(3) 0.4547(2) 0.6685(2)
C20 C 0.4430(3) 0.4075(2) 0.6976(2)
H12 H 0.4158 0.4354 0.7319
C21 C 0.4197(3) 0.3202(2) 0.6778(2)
H13 H 0.3764 0.2895 0.6981
C22 C 0.5269(3) 0.5502(2) 0.6882(3)
H14 H 0.5956 0.5644 0.6902
H15 H 0.5234 0.5624 0.7398
H16 H 0.4760 0.5857 0.6473
C23 C 0.2476(3) 0.2202(2) 0.5466(2)
C24 C 0.1946(3) -0.0332(2) 0.4575(2)
H17 H 0.1229 -0.0388 0.4212
H18 H 0.2101 -0.0772 0.4995
H19 H 0.2393 -0.0422 0.4281
O2 O 0.30773(18) 0.54486(16) 0.51203(15)
N4 N 0.0455(2) 0.39169(18) 0.58714(17)
H20 H 0.0785 0.3662 0.5607
N5 N 0.1834(2) 0.51239(18) 0.56032(17)
N6 N 0.3620(2) 0.7624(2) 0.52674(18)
C25 C -0.0224(2) 0.3515(2) 0.6145(2)
C26 C -0.0543(3) 0.2662(2) 0.6090(2)
H21 H -0.0287 0.2234 0.5836
C27 C -0.1248(3) 0.2446(2) 0.6416(2)
H22 H -0.1476 0.1859 0.6386
C28 C -0.1638(3) 0.3072(3) 0.6791(2)
H23 H -0.2129 0.2904 0.7004
C29 C -0.1314(3) 0.3926(2) 0.6852(2)
H24 H -0.1575 0.4348 0.7107
C30 C -0.0593(2) 0.4162(2) 0.6532(2)
C31 C -0.0095(3) 0.4964(2) 0.6492(2)
C32 C 0.0528(2) 0.4785(2) 0.6083(2)
C33 C 0.1177(2) 0.5419(2) 0.5926(2)
C34 C 0.1075(2) 0.6302(2) 0.61146(19)
C35 C 0.0243(3) 0.6544(2) 0.6407(2)
H25 H 0.0474 0.7058 0.6759
H26 H -0.0373 0.6720 0.5945
C36 C -0.0063(3) 0.5839(2) 0.6851(2)
H27 H 0.0431 0.5829 0.7408
H28 H -0.0747 0.5977 0.6853
C37 C 0.1730(2) 0.6905(2) 0.59712(19)
C38 C 0.2432(2) 0.6600(2) 0.5654(2)
C39 C 0.2432(3) 0.5702(2) 0.5465(2)
C40 C 0.1672(3) 0.7854(2) 0.6116(2)
C41 C 0.0732(3) 0.8296(2) 0.5787(2)
H29 H 0.0133 0.7983 0.5476
C42 C 0.0668(3) 0.9182(2) 0.5910(2)
H30 H 0.0022 0.9465 0.5688
C43 C 0.1530(3) 0.9665(2) 0.6350(2)
C44 C 0.2462(3) 0.9230(2) 0.6670(2)
H31 H 0.3062 0.9549 0.6972
C45 C 0.2538(3) 0.8338(2) 0.6557(2)
H32 H 0.3185 0.8058 0.6783
C46 C 0.1444(3) 1.0632(2) 0.6484(3)
H33 H 0.0996 1.0722 0.6776
H34 H 0.1155 1.0931 0.5971
H35 H 0.2126 1.0869 0.6791
C47 C 0.3087(3) 0.7173(2) 0.5440(2)
C48 C 0.2967(3) 0.4550(2) 0.4853(2)
H36 H 0.2274 0.4458 0.4458
H37 H 0.3085 0.4161 0.5306
H38 H 0.3469 0.4424 0.4615
loop_
_geom_bond_atom_site_label_1
_geom_bond_atom_site_label_2
_geom_bond_site_symmetry_1
_geom_bond_site_symmetry_2
O1 C15 1_555 1_555
N1 H1 1_555 1_555
N2 C9 1_555 1_555
N3 C23 1_555 1_555
C1 N1 1_555 1_555
C2 C1 1_555 1_555
H2 C2 1_555 1_555
C3 C2 1_555 1_555
H3 C3 1_555 1_555
C4 C3 1_555 1_555
H4 C4 1_555 1_555
C5 C4 1_555 1_555
H5 C5 1_555 1_555
C6 C1 1_555 1_555
C7 C6 1_555 1_555
C8 N1 1_555 1_555
C9 C8 1_555 1_555
C10 C9 1_555 1_555
C11 C10 1_555 1_555
H6 C11 1_555 1_555
H7 C11 1_555 1_555
C12 C7 1_555 1_555
H8 C12 1_555 1_555
H9 C12 1_555 1_555
C13 C10 1_555 1_555
C14 C13 1_555 1_555
C15 N2 1_555 1_555
C16 C13 1_555 1_555
C17 C16 1_555 1_555
H10 C17 1_555 1_555
C18 C17 1_555 1_555
H11 C18 1_555 1_555
C19 C18 1_555 1_555
C20 C19 1_555 1_555
H12 C20 1_555 1_555
C21 C16 1_555 1_555
H13 C21 1_555 1_555
C22 C19 1_555 1_555
H14 C22 1_555 1_555
H15 C22 1_555 1_555
H16 C22 1_555 1_555
C23 C14 1_555 1_555
C24 O1 1_555 1_555
H17 C24 1_555 1_555
H18 C24 1_555 1_555
H19 C24 1_555 1_555
O2 C39 1_555 1_555
N4 H20 1_555 1_555
N5 C33 1_555 1_555
N6 C47 1_555 1_555
C25 N4 1_555 1_555
C26 C25 1_555 1_555
H21 C26 1_555 1_555
C27 C26 1_555 1_555
H22 C27 1_555 1_555
C28 C27 1_555 1_555
H23 C28 1_555 1_555
C29 C28 1_555 1_555
H24 C29 1_555 1_555
C30 C25 1_555 1_555
C31 C30 1_555 1_555
C32 N4 1_555 1_555
C33 C32 1_555 1_555
C34 C33 1_555 1_555
C35 C34 1_555 1_555
H25 C35 1_555 1_555
H26 C35 1_555 1_555
C36 C31 1_555 1_555
H27 C36 1_555 1_555
H28 C36 1_555 1_555
C37 C34 1_555 1_555
C38 C37 1_555 1_555
C39 N5 1_555 1_555
C40 C37 1_555 1_555
C41 C40 1_555 1_555
H29 C41 1_555 1_555
C42 C41 1_555 1_555
H30 C42 1_555 1_555
C43 C42 1_555 1_555
C44 C43 1_555 1_555
H31 C44 1_555 1_555
C45 C40 1_555 1_555
H32 C45 1_555 1_555
C46 C43 1_555 1_555
H33 C46 1_555 1_555
H34 C46 1_555 1_555
H35 C46 1_555 1_555
C47 C38 1_555 1_555
C48 O2 1_555 1_555
H36 C48 1_555 1_555
H37 C48 1_555 1_555
H38 C48 1_555 1_555
C5 C6 1_555 1_555
C7 C8 1_555 1_555
C11 C12 1_555 1_555
C14 C15 1_555 1_555
C20 C21 1_555 1_555
C29 C30 1_555 1_555
C31 C32 1_555 1_555
C35 C36 1_555 1_555
C38 C39 1_555 1_555
C44 C45 1_555 1_555

#END
