
#######################################################################
#
#                 Cambridge Crystallographic Data Centre
#                                CCDC 
#
#######################################################################
#
# If this CIF has been generated from an entry in the Cambridge 
# Structural Database, then it will include bibliographic, chemical, 
# crystal, experimental, refinement or atomic coordinate data resulting 
# from the CCDC's data processing and validation procedures.
#
#######################################################################

data_XAWRIZ
_chemical_formula_moiety         'C38 H32 N4'
_chemical_name_systematic        
4-(2-{5-[{5-[2-(4-cyanophenyl)ethenyl]-3-methyl-2H-pyrrol-2-ylidene}(2,4,6-trimethylphenyl)methyl]-4-methyl-1H-pyrrol-2-yl}ethenyl)benzonitrile
_symmetry_cell_setting           monoclinic
_symmetry_space_group_name_H-M   'P 21/n'
_symmetry_Int_Tables_number      14
_space_group_name_Hall           '-P 2yn'
loop_
_symmetry_equiv_pos_site_id
_symmetry_equiv_pos_as_xyz
1 x,y,z
2 1/2-x,1/2+y,1/2-z
3 -x,-y,-z
4 1/2+x,1/2-y,1/2+z
_cell_length_a                   9.9301(8)
_cell_length_b                   23.0445(19)
_cell_length_c                   13.4889(11)
_cell_angle_alpha                90
_cell_angle_beta                 99.355(5)
_cell_angle_gamma                90
_cell_volume                     3045.67
_exptl_crystal_colour            'dark purple'
_exptl_crystal_description       rod
_cell_formula_units_Z            4
loop_
_atom_site_label
_atom_site_type_symbol
_atom_site_fract_x
_atom_site_fract_y
_atom_site_fract_z
C1 C 0.2359(2) 0.09609(10) 0.87360(18)
C2 C 0.1349(3) 0.07123(11) 0.92290(19)
H1 H 0.147614 0.058872 0.990974
C3 C 0.0158(3) 0.06792(10) 0.85635(18)
C4 C 0.0446(2) 0.09220(10) 0.76365(17)
C5 C -0.0395(2) 0.09997(9) 0.67082(17)
C6 C 0.0050(2) 0.12517(9) 0.58753(17)
C7 C -0.0633(2) 0.13325(10) 0.48654(17)
C8 C 0.0293(2) 0.15885(10) 0.43541(17)
H2 H 0.012877 0.170038 0.366721
C9 C 0.1535(2) 0.16578(9) 0.50224(17)
C10 C -0.1147(3) 0.04220(12) 0.87863(19)
H3 H -0.131942 0.005209 0.842992
H4 H -0.190249 0.068976 0.856359
H5 H -0.107225 0.035616 0.951092
C11 C -0.2031(2) 0.11321(11) 0.44025(19)
H6 H -0.221437 0.124909 0.369488
H7 H -0.271193 0.130777 0.476090
H8 H -0.208164 0.070851 0.444926
C12 C 0.3775(2) 0.10784(11) 0.90954(18)
H9 H 0.426224 0.128504 0.865732
C13 C 0.4466(3) 0.09249(12) 0.99829(19)
H10 H 0.398272 0.071818 1.042306
C14 C 0.5899(3) 0.10462(11) 1.03379(18)
C15 C 0.6608(3) 0.14767(12) 0.9913(2)
H11 H 0.614226 0.170514 0.937824
C16 C 0.7963(3) 0.15763(13) 1.0252(2)
H12 H 0.843167 0.186939 0.994883
C17 C 0.8654(3) 0.12487(13) 1.1040(2)
C18 C 0.7962(3) 0.08253(14) 1.1483(2)
H13 H 0.842437 0.060240 1.202639
C19 C 0.6602(3) 0.07288(13) 1.1134(2)
H14 H 0.613251 0.043851 1.144303
C20 C 1.0083(3) 0.13493(15) 1.1374(2)
C21 C 0.2841(2) 0.18557(10) 0.48236(18)
H15 H 0.352474 0.194688 0.537991
C22 C 0.3143(2) 0.19179(10) 0.39038(18)
H16 H 0.242891 0.183741 0.336192
C23 C 0.4446(2) 0.20958(10) 0.36338(18)
C24 C 0.4661(3) 0.20136(11) 0.26474(19)
H17 H 0.396438 0.184001 0.217445
C25 C 0.5861(3) 0.21787(11) 0.2346(2)
H18 H 0.598985 0.211894 0.167091
C26 C 0.6876(2) 0.24314(10) 0.3027(2)
C27 C 0.6690(3) 0.25248(11) 0.4016(2)
H19 H 0.738633 0.270410 0.448144
C28 C 0.5483(2) 0.23545(11) 0.43130(19)
H20 H 0.535755 0.241409 0.498883
C29 C 0.8136(3) 0.25919(11) 0.2704(2)
C30 C -0.1844(2) 0.08023(10) 0.66082(16)
C31 C -0.2186(2) 0.02288(10) 0.63673(17)
C32 C -0.3536(2) 0.00559(11) 0.63217(18)
H21 H -0.376902 -0.033752 0.616858
C33 C -0.4551(2) 0.04356(11) 0.64912(18)
C34 C -0.4182(2) 0.10079(11) 0.67151(18)
H22 H -0.486604 0.127733 0.682631
C35 C -0.2848(2) 0.11977(10) 0.67811(17)
C36 C -0.1131(3) -0.02058(11) 0.6174(2)
H23 H -0.137877 -0.059073 0.639506
H24 H -0.023807 -0.009378 0.654651
H25 H -0.108714 -0.021645 0.545331
C37 C -0.6003(3) 0.02384(14) 0.6429(2)
H26 H -0.657820 0.044163 0.587770
H27 H -0.632258 0.032547 0.706315
H28 H -0.605724 -0.018074 0.630590
C38 C -0.2493(3) 0.18179(11) 0.7041(2)
H29 H -0.331100 0.202444 0.716679
H30 H -0.213928 0.200244 0.648131
H31 H -0.179589 0.183196 0.764514
N1 N 0.18089(19) 0.10877(9) 0.77842(14)
N2 N 0.13694(19) 0.14646(8) 0.59209(14)
H32 H 0.199741 0.147026 0.646238
N3 N 1.1224(3) 0.14249(15) 1.1632(2)
N4 N 0.9136(2) 0.27083(11) 0.2439(2)
loop_
_geom_bond_atom_site_label_1
_geom_bond_atom_site_label_2
_geom_bond_site_symmetry_1
_geom_bond_site_symmetry_2
C1 C2 1_555 1_555
C2 H1 1_555 1_555
C3 C2 1_555 1_555
C4 C3 1_555 1_555
C5 C4 1_555 1_555
C6 C5 1_555 1_555
C7 C6 1_555 1_555
C8 C7 1_555 1_555
H2 C8 1_555 1_555
C9 C8 1_555 1_555
C10 C3 1_555 1_555
H3 C10 1_555 1_555
H4 C10 1_555 1_555
H5 C10 1_555 1_555
C11 C7 1_555 1_555
H6 C11 1_555 1_555
H7 C11 1_555 1_555
H8 C11 1_555 1_555
C12 C1 1_555 1_555
H9 C12 1_555 1_555
C13 C12 1_555 1_555
H10 C13 1_555 1_555
C14 C13 1_555 1_555
C15 C14 1_555 1_555
H11 C15 1_555 1_555
C16 C15 1_555 1_555
H12 C16 1_555 1_555
C17 C16 1_555 1_555
C18 C17 1_555 1_555
H13 C18 1_555 1_555
C19 C14 1_555 1_555
H14 C19 1_555 1_555
C20 C17 1_555 1_555
C21 C9 1_555 1_555
H15 C21 1_555 1_555
C22 C21 1_555 1_555
H16 C22 1_555 1_555
C23 C22 1_555 1_555
C24 C23 1_555 1_555
H17 C24 1_555 1_555
C25 C24 1_555 1_555
H18 C25 1_555 1_555
C26 C25 1_555 1_555
C27 C26 1_555 1_555
H19 C27 1_555 1_555
C28 C23 1_555 1_555
H20 C28 1_555 1_555
C29 C26 1_555 1_555
C30 C5 1_555 1_555
C31 C30 1_555 1_555
C32 C31 1_555 1_555
H21 C32 1_555 1_555
C33 C32 1_555 1_555
C34 C33 1_555 1_555
H22 C34 1_555 1_555
C35 C30 1_555 1_555
C36 C31 1_555 1_555
H23 C36 1_555 1_555
H24 C36 1_555 1_555
H25 C36 1_555 1_555
C37 C33 1_555 1_555
H26 C37 1_555 1_555
H27 C37 1_555 1_555
H28 C37 1_555 1_555
C38 C35 1_555 1_555
H29 C38 1_555 1_555
H30 C38 1_555 1_555
H31 C38 1_555 1_555
N1 C1 1_555 1_555
N2 C6 1_555 1_555
H32 N2 1_555 1_555
N3 C20 1_555 1_555
N4 C29 1_555 1_555
C4 N1 1_555 1_555
C9 N2 1_555 1_555
C18 C19 1_555 1_555
C27 C28 1_555 1_555
C34 C35 1_555 1_555

#END
