
#######################################################################
#
#                 Cambridge Crystallographic Data Centre
#                                CCDC 
#
#######################################################################
#
# If this CIF has been generated from an entry in the Cambridge 
# Structural Database, then it will include bibliographic, chemical, 
# crystal, experimental, refinement or atomic coordinate data resulting 
# from the CCDC's data processing and validation procedures.
#
#######################################################################

data_XAXFUA
_chemical_formula_moiety         'C30 H19 F6 N1'
_chemical_name_systematic        
4-(4-methylphenyl)-8-phenyl-2-(trifluoromethyl)-3-[4-(trifluoromethyl)phenyl]quinoline
_symmetry_cell_setting           triclinic
_symmetry_space_group_name_H-M   'P -1'
_symmetry_Int_Tables_number      2
_space_group_name_Hall           '-P 1'
loop_
_symmetry_equiv_pos_site_id
_symmetry_equiv_pos_as_xyz
1 x,y,z
2 -x,-y,-z
_cell_length_a                   10.1247(3)
_cell_length_b                   10.3217(3)
_cell_length_c                   11.6681(3)
_cell_angle_alpha                83.7851(7)
_cell_angle_beta                 86.1847(7)
_cell_angle_gamma                75.1643(6)
_cell_volume                     1170.83
_exptl_crystal_colour            colorless
_exptl_crystal_description       prism
_cell_formula_units_Z            2
loop_
_atom_site_label
_atom_site_type_symbol
_atom_site_fract_x
_atom_site_fract_y
_atom_site_fract_z
C1 C 0.71940(12) 0.14495(12) 1.11073(10)
C2 C 0.83719(12) 0.10081(12) 1.18040(11)
C3 C 0.95959(13) 0.12098(13) 1.13293(12)
H1 H 1.0388 0.0918 1.1775
C4 C 0.97109(13) 0.18327(13) 1.02074(12)
H2 H 1.0578 0.1927 0.9902
C5 C 0.85845(13) 0.23042(13) 0.95515(11)
H3 H 0.8666 0.2751 0.8804
C6 C 0.72962(12) 0.21249(12) 0.99874(10)
C7 C 0.60771(12) 0.26306(12) 0.93542(10)
C8 C 0.48536(12) 0.24082(12) 0.98288(10)
C9 C 0.49093(12) 0.16311(12) 1.09126(10)
C10 C 0.83088(13) 0.03578(13) 1.30004(11)
C11 C 0.72301(15) 0.08066(16) 1.37827(12)
H4 H 0.6494 0.1545 1.3547
C12 C 0.72126(17) 0.01931(18) 1.48994(13)
H5 H 0.6466 0.0512 1.5419
C13 C 0.82784(16) -0.08839(16) 1.52617(13)
H6 H 0.8260 -0.1311 1.6024
C14 C 0.93661(15) -0.13281(15) 1.45024(13)
H7 H 1.0108 -0.2054 1.4748
C15 C 0.93815(13) -0.07210(13) 1.33835(12)
H8 H 1.0133 -0.1043 1.2869
C16 C 0.61344(12) 0.34268(12) 0.82168(10)
C17 C 0.67839(13) 0.28201(14) 0.72503(11)
H9 H 0.7159 0.1874 0.7301
C18 C 0.68852(14) 0.35931(16) 0.62127(12)
H10 H 0.7316 0.3164 0.5557
C19 C 0.63684(14) 0.49822(16) 0.61150(12)
C20 C 0.56950(14) 0.55750(14) 0.70723(12)
H11 H 0.5314 0.6521 0.7017
C21 C 0.55668(13) 0.48132(13) 0.81094(11)
H12 H 0.5089 0.5239 0.8751
C22 C 0.65718(19) 0.5824(2) 0.50093(14)
H13 H 0.5813 0.6634 0.4935
H14 H 0.6600 0.5300 0.4352
H15 H 0.7435 0.6086 0.5022
C23 C 0.35604(12) 0.29854(12) 0.92028(10)
C24 C 0.33110(12) 0.24271(12) 0.82350(11)
H16 H 0.3920 0.1620 0.8014
C25 C 0.21750(13) 0.30412(13) 0.75850(11)
H17 H 0.2005 0.2654 0.6925
C26 C 0.12969(12) 0.42189(13) 0.79075(11)
C27 C 0.15103(13) 0.47648(13) 0.88921(12)
H18 H 0.0888 0.5561 0.9120
C28 C 0.26355(13) 0.41444(13) 0.95428(11)
H19 H 0.2777 0.4510 1.0224
C29 C 0.01064(14) 0.49562(14) 0.71930(12)
C30 C 0.36405(12) 0.12377(13) 1.14425(11)
F1 F -0.10790(9) 0.51274(11) 0.77985(9)
F2 F -0.00266(11) 0.43362(12) 0.62873(9)
F3 F 0.01995(13) 0.61888(11) 0.67947(12)
F4 F 0.26760(8) 0.22918(8) 1.17700(8)
F5 F 0.39079(8) 0.03492(9) 1.23684(7)
F6 F 0.30657(8) 0.06662(9) 1.06963(7)
N1 N 0.59942(10) 0.11783(10) 1.15320(9)
loop_
_geom_bond_atom_site_label_1
_geom_bond_atom_site_label_2
_geom_bond_site_symmetry_1
_geom_bond_site_symmetry_2
C1 C2 1_555 1_555
C2 C3 1_555 1_555
C3 H1 1_555 1_555
C4 C3 1_555 1_555
H2 C4 1_555 1_555
C5 C4 1_555 1_555
H3 C5 1_555 1_555
C6 C1 1_555 1_555
C7 C6 1_555 1_555
C8 C7 1_555 1_555
C9 C8 1_555 1_555
C10 C2 1_555 1_555
C11 C10 1_555 1_555
H4 C11 1_555 1_555
C12 C11 1_555 1_555
H5 C12 1_555 1_555
C13 C12 1_555 1_555
H6 C13 1_555 1_555
C14 C13 1_555 1_555
H7 C14 1_555 1_555
C15 C10 1_555 1_555
H8 C15 1_555 1_555
C16 C7 1_555 1_555
C17 C16 1_555 1_555
H9 C17 1_555 1_555
C18 C17 1_555 1_555
H10 C18 1_555 1_555
C19 C18 1_555 1_555
C20 C19 1_555 1_555
H11 C20 1_555 1_555
C21 C16 1_555 1_555
H12 C21 1_555 1_555
C22 C19 1_555 1_555
H13 C22 1_555 1_555
H14 C22 1_555 1_555
H15 C22 1_555 1_555
C23 C8 1_555 1_555
C24 C23 1_555 1_555
H16 C24 1_555 1_555
C25 C24 1_555 1_555
H17 C25 1_555 1_555
C26 C25 1_555 1_555
C27 C26 1_555 1_555
H18 C27 1_555 1_555
C28 C23 1_555 1_555
H19 C28 1_555 1_555
C29 C26 1_555 1_555
C30 C9 1_555 1_555
F1 C29 1_555 1_555
F2 C29 1_555 1_555
F3 C29 1_555 1_555
F4 C30 1_555 1_555
F5 C30 1_555 1_555
F6 C30 1_555 1_555
N1 C1 1_555 1_555
C5 C6 1_555 1_555
C9 N1 1_555 1_555
C14 C15 1_555 1_555
C20 C21 1_555 1_555
C27 C28 1_555 1_555

#END
