
#######################################################################
#
#                 Cambridge Crystallographic Data Centre
#                                CCDC 
#
#######################################################################
#
# If this CIF has been generated from an entry in the Cambridge 
# Structural Database, then it will include bibliographic, chemical, 
# crystal, experimental, refinement or atomic coordinate data resulting 
# from the CCDC's data processing and validation procedures.
#
#######################################################################

data_XAXHEM
_chemical_compound_source        
'isolated from the whole plant of Lycopodium annotinum'
_chemical_name_common            'annotinolide F'
_chemical_formula_moiety         'C16 H21 N1 O2'
_chemical_name_systematic        
16-methyl-14-oxa-6-azatetracyclo[8.7.0.0^1,6^.0^2,13^]heptadeca-9,11-dien-15-one
_symmetry_cell_setting           orthorhombic
_symmetry_space_group_name_H-M   'P 21 21 21'
_symmetry_Int_Tables_number      19
_space_group_name_Hall           'P 2ac 2ab'
loop_
_symmetry_equiv_pos_site_id
_symmetry_equiv_pos_as_xyz
1 x,y,z
2 1/2+x,1/2-y,-z
3 -x,1/2+y,1/2-z
4 1/2-x,-y,1/2+z
_cell_length_a                   8.7307(2)
_cell_length_b                   8.8274(2)
_cell_length_c                   17.3268(3)
_cell_angle_alpha                90
_cell_angle_beta                 90
_cell_angle_gamma                90
_cell_volume                     1335.37
_exptl_crystal_colour            colorless
_exptl_crystal_description       block
_cell_formula_units_Z            4
_exptl_crystal_recrystallization_method methanol
loop_
_atom_site_label
_atom_site_type_symbol
_atom_site_fract_x
_atom_site_fract_y
_atom_site_fract_z
O1 O -0.99936(19) 0.34135(16) -0.48556(9)
O2 O -1.07187(15) 0.25686(14) -0.59738(8)
N1 N -0.77240(17) -0.15202(18) -0.66033(10)
C1 C -0.6375(2) -0.0550(2) -0.67234(12)
H1 H -0.5554 -0.1148 -0.6973
H2 H -0.5989 -0.0196 -0.6217
C2 C -0.6759(2) 0.0806(3) -0.72224(12)
H3 H -0.6997 0.0458 -0.7752
H4 H -0.5856 0.1484 -0.7251
C3 C -0.8122(2) 0.1689(2) -0.69032(11)
H5 H -0.7843 0.2168 -0.6406
H6 H -0.8420 0.2498 -0.7269
C4 C -0.9454(2) 0.0595(2) -0.67853(10)
H7 H -0.9649 0.0124 -0.7301
C5 C -1.0941(2) 0.1382(2) -0.65596(11)
H8 H -1.1300 0.1918 -0.7035
C6 C -1.2193(2) 0.0296(2) -0.63511(11)
H9 H -1.3216 0.0656 -0.6314
C7 C -1.1906(2) -0.1166(2) -0.62163(11)
H10 H -1.2751 -0.1821 -0.6127
C8 C -1.01876(19) 0.2312(2) -0.52562(11)
C9 C -0.7289(2) -0.2896(2) -0.61886(13)
H11 H -0.6991 -0.2629 -0.5654
H12 H -0.6390 -0.3360 -0.6444
C10 C -0.8593(3) -0.4034(2) -0.61671(14)
H13 H -0.8533 -0.4684 -0.6631
H14 H -0.8467 -0.4692 -0.5709
C11 C -1.0141(2) -0.3305(2) -0.61372(12)
H15 H -1.1010 -0.3940 -0.6071
C12 C -1.0369(2) -0.1817(2) -0.61987(11)
C13 C -0.90265(19) -0.07142(19) -0.62437(10)
C14 C -0.8650(2) -0.0142(2) -0.54161(10)
H16 H -0.8343 -0.1030 -0.5103
H17 H -0.7745 0.0531 -0.5453
C15 C -0.9901(2) 0.0713(2) -0.49683(10)
H18 H -1.0878 0.0129 -0.5015
C16 C -0.9455(2) 0.0775(2) -0.41134(10)
H19 H -1.0255 0.1304 -0.3822
H20 H -0.8483 0.1319 -0.4057
H21 H -0.9342 -0.0257 -0.3914
loop_
_geom_bond_atom_site_label_1
_geom_bond_atom_site_label_2
_geom_bond_site_symmetry_1
_geom_bond_site_symmetry_2
O1 C8 1_555 1_555
O2 C5 1_555 1_555
N1 C1 1_555 1_555
C1 H1 1_555 1_555
H2 C1 1_555 1_555
C2 C1 1_555 1_555
H3 C2 1_555 1_555
H4 C2 1_555 1_555
C3 C2 1_555 1_555
H5 C3 1_555 1_555
H6 C3 1_555 1_555
C4 C3 1_555 1_555
H7 C4 1_555 1_555
C5 C4 1_555 1_555
H8 C5 1_555 1_555
C6 C5 1_555 1_555
H9 C6 1_555 1_555
C7 C6 1_555 1_555
H10 C7 1_555 1_555
C8 O2 1_555 1_555
C9 N1 1_555 1_555
H11 C9 1_555 1_555
H12 C9 1_555 1_555
C10 C9 1_555 1_555
H13 C10 1_555 1_555
H14 C10 1_555 1_555
C11 C10 1_555 1_555
H15 C11 1_555 1_555
C12 C7 1_555 1_555
C13 N1 1_555 1_555
C14 C13 1_555 1_555
H16 C14 1_555 1_555
H17 C14 1_555 1_555
C15 C8 1_555 1_555
H18 C15 1_555 1_555
C16 C15 1_555 1_555
H19 C16 1_555 1_555
H20 C16 1_555 1_555
H21 C16 1_555 1_555
C4 C13 1_555 1_555
C11 C12 1_555 1_555
C12 C13 1_555 1_555
C14 C15 1_555 1_555

#END
