
#######################################################################
#
#                 Cambridge Crystallographic Data Centre
#                                CCDC 
#
#######################################################################
#
# If this CIF has been generated from an entry in the Cambridge 
# Structural Database, then it will include bibliographic, chemical, 
# crystal, experimental, refinement or atomic coordinate data resulting 
# from the CCDC's data processing and validation procedures.
#
#######################################################################

data_XAXJUE
_chemical_formula_moiety         'C15 H14 N2 O2 S1'
_chemical_name_systematic        
3-methyl-1-((4-methylphenyl)sulfonyl)-1H-indazole
_symmetry_cell_setting           monoclinic
_symmetry_space_group_name_H-M   'P 21/n'
_symmetry_Int_Tables_number      14
_space_group_name_Hall           '-P 2yn'
loop_
_symmetry_equiv_pos_site_id
_symmetry_equiv_pos_as_xyz
1 x,y,z
2 1/2-x,1/2+y,1/2-z
3 -x,-y,-z
4 1/2+x,1/2-y,1/2+z
_cell_length_a                   9.125(3)
_cell_length_b                   13.382(4)
_cell_length_c                   11.427(4)
_cell_angle_alpha                90
_cell_angle_beta                 90.330(6)
_cell_angle_gamma                90
_cell_volume                     1395.34
_exptl_crystal_colour            colorless
_exptl_crystal_description       block
_cell_formula_units_Z            4
loop_
_atom_site_label
_atom_site_type_symbol
_atom_site_fract_x
_atom_site_fract_y
_atom_site_fract_z
C1 C -0.0150(3) 0.69097(16) 0.4781(2)
C2 C -0.1376(3) 0.63074(17) 0.49170(19)
C3 C 0.0452(3) 0.69764(19) 0.0899(2)
H1 H -0.0416 0.7331 0.0796
C4 C 0.1313(3) 0.71338(16) 0.1877(2)
C5 C 0.0891(3) 0.62886(19) 0.0077(2)
H2 H 0.0315 0.6186 -0.0586
C6 C 0.2574(3) 0.65993(19) 0.2042(2)
H3 H 0.3145 0.6699 0.2709
C7 C 0.2162(3) 0.57510(16) 0.0217(2)
C8 C 0.0973(3) 0.69227(19) 0.5597(2)
H4 H 0.1785 0.7336 0.5508
C9 C 0.2988(3) 0.59154(19) 0.1215(2)
H5 H 0.3846 0.5552 0.1329
C10 C 0.2663(3) 0.5020(2) -0.0696(2)
H6 H 0.3271 0.5358 -0.1253
H7 H 0.1825 0.4743 -0.1090
H8 H 0.3211 0.4494 -0.0328
C11 C -0.2299(3) 0.6513(2) 0.3928(2)
C12 C -0.1484(3) 0.56831(19) 0.5897(2)
H9 H -0.2299 0.5277 0.6005
C13 C -0.0363(4) 0.5688(2) 0.6686(2)
H10 H -0.0407 0.5271 0.7335
C14 C -0.3752(3) 0.6057(3) 0.3666(3)
H11 H -0.4151 0.6350 0.2967
H12 H -0.4404 0.6177 0.4308
H13 H -0.3638 0.5350 0.3556
C15 C 0.0838(3) 0.6300(2) 0.6541(2)
H14 H 0.1580 0.6290 0.7103
N1 N -0.0406(2) 0.74576(16) 0.37646(17)
N2 N -0.1720(2) 0.71672(18) 0.32380(18)
O1 O 0.2014(2) 0.82461(15) 0.36621(17)
O2 O 0.0036(3) 0.88018(13) 0.23244(19)
S1 S 0.08024(8) 0.80267(5) 0.29101(6)
loop_
_geom_bond_atom_site_label_1
_geom_bond_atom_site_label_2
_geom_bond_site_symmetry_1
_geom_bond_site_symmetry_2
C1 C2 1_555 1_555
C2 C11 1_555 1_555
C3 H1 1_555 1_555
C4 C3 1_555 1_555
C5 C3 1_555 1_555
H2 C5 1_555 1_555
C6 C4 1_555 1_555
H3 C6 1_555 1_555
C7 C5 1_555 1_555
C8 C1 1_555 1_555
H4 C8 1_555 1_555
C9 C6 1_555 1_555
H5 C9 1_555 1_555
C10 C7 1_555 1_555
H6 C10 1_555 1_555
H7 C10 1_555 1_555
H8 C10 1_555 1_555
C11 C14 1_555 1_555
C12 C2 1_555 1_555
H9 C12 1_555 1_555
C13 C12 1_555 1_555
H10 C13 1_555 1_555
C14 H11 1_555 1_555
H12 C14 1_555 1_555
H13 C14 1_555 1_555
C15 C8 1_555 1_555
H14 C15 1_555 1_555
N1 C1 1_555 1_555
N2 C11 1_555 1_555
O1 S1 1_555 1_555
O2 S1 1_555 1_555
S1 C4 1_555 1_555
C7 C9 1_555 1_555
C13 C15 1_555 1_555
N1 N2 1_555 1_555
N1 S1 1_555 1_555

#END
