
#######################################################################
#
#                 Cambridge Crystallographic Data Centre
#                                CCDC 
#
#######################################################################
#
# If this CIF has been generated from an entry in the Cambridge 
# Structural Database, then it will include bibliographic, chemical, 
# crystal, experimental, refinement or atomic coordinate data resulting 
# from the CCDC's data processing and validation procedures.
#
#######################################################################

data_XAXWAX
_chemical_formula_moiety         'C23 H21 N3 O2'
_chemical_name_systematic        
3a,11b-dimethyl-7-(pyrimidin-2-yl)-5,5a,7,11b,11c,11d-hexahydro[1]benzofuro[3,4-bc]carbazol-1(3aH)-one
_symmetry_cell_setting           monoclinic
_symmetry_space_group_name_H-M   'P 21/n'
_symmetry_Int_Tables_number      14
_space_group_name_Hall           '-P 2yn'
loop_
_symmetry_equiv_pos_site_id
_symmetry_equiv_pos_as_xyz
1 x,y,z
2 1/2-x,1/2+y,1/2-z
3 -x,-y,-z
4 1/2+x,1/2-y,1/2+z
_cell_length_a                   8.7159(6)
_cell_length_b                   19.8458(19)
_cell_length_c                   10.9183(8)
_cell_angle_alpha                90
_cell_angle_beta                 101.540(7)
_cell_angle_gamma                90
_cell_volume                     1850.4
_cell_formula_units_Z            4
loop_
_atom_site_label
_atom_site_type_symbol
_atom_site_fract_x
_atom_site_fract_y
_atom_site_fract_z
N1 N 0.91497(19) 0.14630(9) 0.55129(15)
N2 N 0.8659(2) 0.05604(10) 0.41408(16)
O1 O 0.42888(18) 0.03762(8) 0.81150(14)
O2 O 0.96828(18) 0.12606(10) 0.85824(15)
C1 C 0.9590(2) 0.10710(11) 0.45889(18)
C2 C 0.7738(2) 0.13801(10) 0.59841(17)
C3 C 0.7551(2) 0.19950(10) 0.67685(17)
C4 C 0.6748(2) 0.08675(11) 0.58959(17)
H1 H 0.6898 0.0494 0.5420
C5 C 0.5383(2) 0.08787(12) 0.65521(18)
H2 H 0.4433 0.0980 0.5931
C6 C 0.7101(2) 0.17389(11) 0.79770(17)
H3 H 0.6988 0.2133 0.8493
C7 C 1.0012(2) 0.20205(11) 0.61428(18)
C8 C 0.9133(2) 0.23236(11) 0.69157(18)
C9 C 0.5494(2) 0.13898(11) 0.76494(18)
H4 H 0.4702 0.1739 0.7387
C10 C 0.9702(3) 0.28703(11) 0.76404(19)
H5 H 0.9100 0.3073 0.8150
C11 C 0.8340(2) 0.12841(11) 0.87360(18)
C12 C 0.5002(2) 0.09820(12) 0.87186(19)
C13 C 0.7840(3) 0.08746(13) 0.9692(2)
H6 H 0.8601 0.0692 1.0324
C14 C 1.1498(2) 0.22610(12) 0.6101(2)
H7 H 1.2100 0.2060 0.5589
C15 C 1.0417(3) 0.03315(13) 0.2791(2)
H8 H 1.0706 0.0074 0.2163
C16 C 1.2056(3) 0.28080(13) 0.6842(2)
H9 H 1.3050 0.2972 0.6825
N3 N 1.0905(3) 0.12463(11) 0.4220(2)
C17 C 0.6315(3) 0.24788(12) 0.6043(2)
H10 H 0.6650 0.2635 0.5307
H11 H 0.6191 0.2857 0.6564
H12 H 0.5334 0.2247 0.5808
C18 C 0.5138(3) 0.02099(12) 0.7172(2)
H13 H 0.4546 -0.0100 0.6570
H14 H 0.6136 0.0005 0.7536
C19 C 1.1187(3) 0.31172(12) 0.7604(2)
H15 H 1.1587 0.3486 0.8089
C20 C 0.9099(3) 0.01987(14) 0.3239(2)
H16 H 0.8475 -0.0162 0.2901
C21 C 0.3776(3) 0.13292(14) 0.9298(2)
H17 H 0.2867 0.1420 0.8663
H18 H 0.4191 0.1745 0.9674
H19 H 0.3492 0.1043 0.9926
C22 C 0.6358(3) 0.07519(13) 0.9699(2)
H20 H 0.6135 0.0503 1.0364
C23 C 1.1281(3) 0.08644(15) 0.3321(3)
H21 H 1.2191 0.0969 0.3039
loop_
_geom_bond_atom_site_label_1
_geom_bond_atom_site_label_2
_geom_bond_site_symmetry_1
_geom_bond_site_symmetry_2
N1 C1 1_555 1_555
N2 C1 1_555 1_555
O1 C12 1_555 1_555
O2 C11 1_555 1_555
C1 N3 1_555 1_555
C2 N1 1_555 1_555
C3 C2 1_555 1_555
C4 C2 1_555 1_555
H1 C4 1_555 1_555
C5 C4 1_555 1_555
H2 C5 1_555 1_555
C6 C3 1_555 1_555
H3 C6 1_555 1_555
C7 N1 1_555 1_555
C8 C3 1_555 1_555
C9 C5 1_555 1_555
H4 C9 1_555 1_555
C10 C8 1_555 1_555
H5 C10 1_555 1_555
C11 C6 1_555 1_555
C12 C9 1_555 1_555
C13 C11 1_555 1_555
H6 C13 1_555 1_555
C14 C7 1_555 1_555
H7 C14 1_555 1_555
C15 H8 1_555 1_555
C16 C14 1_555 1_555
H9 C16 1_555 1_555
N3 C23 1_555 1_555
C17 C3 1_555 1_555
H10 C17 1_555 1_555
H11 C17 1_555 1_555
H12 C17 1_555 1_555
C18 O1 1_555 1_555
H13 C18 1_555 1_555
H14 C18 1_555 1_555
C19 C10 1_555 1_555
H15 C19 1_555 1_555
C20 N2 1_555 1_555
H16 C20 1_555 1_555
C21 C12 1_555 1_555
H17 C21 1_555 1_555
H18 C21 1_555 1_555
H19 C21 1_555 1_555
C22 C12 1_555 1_555
H20 C22 1_555 1_555
C23 C15 1_555 1_555
H21 C23 1_555 1_555
C5 C18 1_555 1_555
C6 C9 1_555 1_555
C7 C8 1_555 1_555
C13 C22 1_555 1_555
C15 C20 1_555 1_555
C16 C19 1_555 1_555

#END
