
#######################################################################
#
#                 Cambridge Crystallographic Data Centre
#                                CCDC 
#
#######################################################################
#
# If this CIF has been generated from an entry in the Cambridge 
# Structural Database, then it will include bibliographic, chemical, 
# crystal, experimental, refinement or atomic coordinate data resulting 
# from the CCDC's data processing and validation procedures.
#
#######################################################################

data_XAXYUT
_chemical_formula_moiety         'C38 H30 Cl1 N1 O4 S1'
_chemical_name_systematic        
N-(2-(1-(6-chloro-3-(4-methoxyphenyl)-1H-2-benzopyran-4-yl)-3-phenylprop-2-yn-1-yl)phenyl)-4-methylbenzene-1-sulfonamide
_symmetry_cell_setting           triclinic
_symmetry_space_group_name_H-M   'P -1'
_symmetry_Int_Tables_number      2
_space_group_name_Hall           '-P 1'
loop_
_symmetry_equiv_pos_site_id
_symmetry_equiv_pos_as_xyz
1 x,y,z
2 -x,-y,-z
_cell_length_a                   10.0712(10)
_cell_length_b                   13.1339(13)
_cell_length_c                   13.3013(14)
_cell_angle_alpha                104.565(2)
_cell_angle_beta                 104.140(2)
_cell_angle_gamma                101.177(2)
_cell_volume                     1589.03
_exptl_crystal_colour            colorless
_exptl_crystal_description       block
_cell_formula_units_Z            2
loop_
_atom_site_label
_atom_site_type_symbol
_atom_site_fract_x
_atom_site_fract_y
_atom_site_fract_z
Cl1 Cl 0.86832(8) 1.01958(6) 0.88672(5)
S1 S 0.76762(6) 0.60675(5) 0.27251(5)
O1 O 0.61729(15) 0.94318(12) 0.36196(13)
O2 O 0.04877(18) 0.62921(15) 0.02536(13)
O3 O 0.77571(19) 0.68860(14) 0.21890(13)
O4 O 0.88424(16) 0.56048(14) 0.29750(13)
N1 N 0.74182(19) 0.66714(14) 0.38608(13)
H1 H 0.673312 0.696274 0.370036
C1 C 0.7689(2) 0.9746(2) 0.4147(2)
H2 H 0.812206 1.041813 0.403390
H3 H 0.809488 0.918179 0.382691
C2 C 0.8000(2) 0.99094(17) 0.53361(19)
C3 C 0.9052(2) 1.07661(19) 0.6139(2)
H4 H 0.959956 1.129476 0.594508
C4 C 0.9297(3) 1.0845(2) 0.7229(2)
H5 H 1.002051 1.141166 0.776816
C5 C 0.8454(2) 1.00738(19) 0.74975(19)
C6 C 0.7394(2) 0.91995(18) 0.67120(18)
H6 H 0.685157 0.867818 0.691799
C7 C 0.7149(2) 0.91098(16) 0.56097(17)
C8 C 0.5984(2) 0.82731(16) 0.47178(16)
C9 C 0.5476(2) 0.85167(17) 0.37902(17)
C10 C 0.4168(2) 0.79194(17) 0.28609(17)
C11 C 0.2906(2) 0.74164(18) 0.29983(17)
H7 H 0.286890 0.744823 0.369691
C12 C 0.1709(2) 0.68708(19) 0.21117(18)
H8 H 0.087826 0.652694 0.221636
C13 C 0.1736(2) 0.68320(18) 0.10663(18)
C14 C 0.2976(3) 0.7334(2) 0.09156(18)
H9 H 0.300723 0.730710 0.021649
C15 C 0.4173(2) 0.78785(19) 0.18081(18)
H10 H 0.499945 0.822530 0.170091
C16 C 0.0476(3) 0.6143(3) -0.0844(2)
H11 H -0.045510 0.572996 -0.132900
H12 H 0.115827 0.575541 -0.099341
H13 H 0.071849 0.684314 -0.095161
C17 C 0.53037(19) 0.72049(15) 0.48797(15)
H14 H 0.466448 0.672988 0.416150
C18 C 0.4393(2) 0.74333(16) 0.55799(17)
C19 C 0.3691(2) 0.77119(17) 0.61461(18)
C20 C 0.2910(2) 0.80860(18) 0.68625(18)
C21 C 0.3593(3) 0.8938(2) 0.7823(2)
H15 H 0.456130 0.926867 0.801121
C22 C 0.2813(4) 0.9293(3) 0.8503(2)
H16 H 0.326597 0.985479 0.915912
C23 C 0.1380(4) 0.8821(3) 0.8213(3)
H17 H 0.086490 0.906855 0.867054
C24 C 0.0702(3) 0.7990(3) 0.7257(3)
H18 H -0.027336 0.768031 0.706045
C25 C 0.1454(3) 0.7613(2) 0.6588(2)
H19 H 0.099145 0.703592 0.594479
C26 C 0.63277(19) 0.65641(15) 0.52834(15)
C27 C 0.6275(2) 0.61966(17) 0.61702(16)
H20 H 0.566946 0.640278 0.656137
C28 C 0.7096(2) 0.55342(18) 0.64887(18)
H21 H 0.704358 0.530655 0.708927
C29 C 0.7984(2) 0.52149(19) 0.59179(18)
H22 H 0.852272 0.475698 0.612022
C30 C 0.8080(2) 0.55725(18) 0.50428(18)
H23 H 0.869260 0.536047 0.466057
C31 C 0.7268(2) 0.62489(16) 0.47261(15)
C32 C 0.6141(2) 0.49917(18) 0.19559(16)
C33 C 0.6127(3) 0.39302(19) 0.19004(19)
H24 H 0.693320 0.377064 0.226713
C34 C 0.4904(3) 0.3105(2) 0.1295(2)
H25 H 0.489718 0.238851 0.126221
C35 C 0.3689(3) 0.3308(2) 0.07354(18)
C36 C 0.3733(3) 0.4383(2) 0.08033(19)
H26 H 0.292816 0.454333 0.043590
C37 C 0.4940(3) 0.5217(2) 0.1401(2)
H27 H 0.494825 0.593436 0.143347
C38 C 0.2363(3) 0.2398(2) 0.0080(2)
H28 H 0.253439 0.193513 -0.053135
H29 H 0.160227 0.270099 -0.017818
H30 H 0.210516 0.197666 0.053154
loop_
_geom_bond_atom_site_label_1
_geom_bond_atom_site_label_2
_geom_bond_site_symmetry_1
_geom_bond_site_symmetry_2
Cl1 C5 1_555 1_555
S1 O3 1_555 1_555
O1 C1 1_555 1_555
O2 C13 1_555 1_555
O4 S1 1_555 1_555
N1 S1 1_555 1_555
H1 N1 1_555 1_555
C1 H2 1_555 1_555
H3 C1 1_555 1_555
C2 C1 1_555 1_555
C3 C2 1_555 1_555
H4 C3 1_555 1_555
C4 C3 1_555 1_555
H5 C4 1_555 1_555
C5 C4 1_555 1_555
C6 C5 1_555 1_555
H6 C6 1_555 1_555
C7 C2 1_555 1_555
C8 C7 1_555 1_555
C9 O1 1_555 1_555
C10 C9 1_555 1_555
C11 C10 1_555 1_555
H7 C11 1_555 1_555
C12 C11 1_555 1_555
H8 C12 1_555 1_555
C13 C12 1_555 1_555
C14 C13 1_555 1_555
H9 C14 1_555 1_555
C15 C10 1_555 1_555
H10 C15 1_555 1_555
C16 O2 1_555 1_555
H11 C16 1_555 1_555
H12 C16 1_555 1_555
H13 C16 1_555 1_555
C17 C8 1_555 1_555
H14 C17 1_555 1_555
C18 C17 1_555 1_555
C19 C18 1_555 1_555
C20 C19 1_555 1_555
C21 C20 1_555 1_555
H15 C21 1_555 1_555
C22 C21 1_555 1_555
H16 C22 1_555 1_555
C23 C22 1_555 1_555
H17 C23 1_555 1_555
C24 C23 1_555 1_555
H18 C24 1_555 1_555
C25 C20 1_555 1_555
H19 C25 1_555 1_555
C26 C17 1_555 1_555
C27 C26 1_555 1_555
H20 C27 1_555 1_555
C28 C27 1_555 1_555
H21 C28 1_555 1_555
C29 C28 1_555 1_555
H22 C29 1_555 1_555
C30 C29 1_555 1_555
H23 C30 1_555 1_555
C31 N1 1_555 1_555
C32 S1 1_555 1_555
C33 C32 1_555 1_555
H24 C33 1_555 1_555
C34 C33 1_555 1_555
H25 C34 1_555 1_555
C35 C34 1_555 1_555
C36 C35 1_555 1_555
H26 C36 1_555 1_555
C37 C32 1_555 1_555
H27 C37 1_555 1_555
C38 C35 1_555 1_555
H28 C38 1_555 1_555
H29 C38 1_555 1_555
H30 C38 1_555 1_555
C6 C7 1_555 1_555
C8 C9 1_555 1_555
C14 C15 1_555 1_555
C24 C25 1_555 1_555
C26 C31 1_555 1_555
C30 C31 1_555 1_555
C36 C37 1_555 1_555

#END
