
#######################################################################
#
#                 Cambridge Crystallographic Data Centre
#                                CCDC 
#
#######################################################################
#
# If this CIF has been generated from an entry in the Cambridge 
# Structural Database, then it will include bibliographic, chemical, 
# crystal, experimental, refinement or atomic coordinate data resulting 
# from the CCDC's data processing and validation procedures.
#
#######################################################################

data_XAYDIK
_chemical_formula_moiety         'C16 H14 O1'
_chemical_name_systematic        rac-1,2-Diphenylbut-3-yn-2-ol
_symmetry_cell_setting           tetragonal
_symmetry_space_group_name_H-M   'P -4'
_symmetry_Int_Tables_number      81
_space_group_name_Hall           'P -4'
loop_
_symmetry_equiv_pos_site_id
_symmetry_equiv_pos_as_xyz
1 x,y,z
2 -x,-y,z
3 y,-x,-z
4 -y,x,-z
_cell_length_a                   19.8403(4)
_cell_length_b                   19.8403(4)
_cell_length_c                   6.5068(2)
_cell_angle_alpha                90
_cell_angle_beta                 90
_cell_angle_gamma                90
_cell_volume                     2561.32
_exptl_crystal_colour            colorless
_exptl_crystal_description       block
_cell_formula_units_Z            8
_exptl_crystal_recrystallization_method 'ethyl acetate'
loop_
_atom_site_label
_atom_site_type_symbol
_atom_site_fract_x
_atom_site_fract_y
_atom_site_fract_z
C1 C 0.21822(7) 0.46964(7) 0.8364(3)
H1 H 0.2509(9) 0.5052(9) 0.900(3)
C2 C 0.16227(8) 0.44983(8) 0.9514(3)
H2 H 0.1552(11) 0.4713(11) 1.092(4)
C3 C 0.11804(8) 0.40265(9) 0.8754(4)
H3 H 0.0769(13) 0.3921(12) 0.957(4)
O1 O 0.41054(4) 0.45812(4) 0.46004(12)
H4 H 0.4465(10) 0.4396(10) 0.490(3)
C4 C 0.12970(8) 0.37424(9) 0.6856(4)
H5 H 0.0965(13) 0.3396(13) 0.637(4)
C5 C 0.18615(7) 0.39275(8) 0.5693(3)
H6 H 0.1923(10) 0.3747(10) 0.437(4)
C6 C 0.23112(6) 0.44083(6) 0.6444(2)
C7 C 0.29237(6) 0.46152(6) 0.5211(2)
H7 H 0.2855(8) 0.4480(8) 0.379(3)
H8 H 0.2982(7) 0.5097(7) 0.533(2)
C8 C 0.35937(5) 0.42824(6) 0.59185(17)
C9 C 0.35902(5) 0.35153(6) 0.56278(19)
C10 C 0.36906(7) 0.30716(6) 0.7265(2)
H9 H 0.3740(8) 0.3252(8) 0.859(3)
C11 C 0.37064(9) 0.23780(7) 0.6934(2)
H10 H 0.3786(9) 0.2074(9) 0.804(3)
C12 C 0.36180(8) 0.21190(7) 0.4967(3)
H11 H 0.3630(9) 0.1620(9) 0.475(3)
C13 C 0.35187(7) 0.25563(7) 0.3332(2)
H12 H 0.3452(9) 0.2384(8) 0.199(3)
C14 C 0.35057(7) 0.32492(7) 0.3653(2)
H13 H 0.3447(8) 0.3537(8) 0.254(3)
C15 C 0.37452(6) 0.44728(6) 0.80705(18)
C16 C 0.38816(7) 0.46420(7) 0.9763(2)
H14 H 0.3986(8) 0.4755(8) 1.111(3)
C17 C 0.30482(7) -0.00230(7) -0.2367(2)
H15 H 0.2763(8) -0.0288(8) -0.329(3)
C18 C 0.36896(8) 0.01618(8) -0.3045(3)
H16 H 0.3829(9) -0.0001(9) -0.441(3)
C19 C 0.41138(7) 0.05300(8) -0.1773(3)
H17 H 0.4542(10) 0.0646(10) -0.224(3)
O2 O 0.09534(4) 0.01939(4) 0.06350(13)
H18 H 0.0658(9) 0.0468(9) 0.036(3)
C20 C 0.38938(7) 0.07277(7) 0.0143(3)
H19 H 0.4199(10) 0.0993(10) 0.100(3)
C21 C 0.32488(7) 0.05526(7) 0.0810(2)
H20 H 0.3062(9) 0.0667(9) 0.215(3)
C22 C 0.28189(6) 0.01699(6) -0.0429(2)
C23 C 0.21299(6) -0.00289(6) 0.0347(2)
H21 H 0.2042(7) -0.0497(8) 0.007(2)
H22 H 0.2103(7) 0.0006(7) 0.185(2)
C24 C 0.15407(5) 0.04001(6) -0.05373(18)
C25 C 0.16810(5) 0.11519(6) -0.02152(19)
C26 C 0.18842(7) 0.15653(6) -0.1831(2)
H23 H 0.1922(9) 0.1366(9) -0.319(3)
C27 C 0.20312(8) 0.22435(7) -0.1465(3)
H24 H 0.2179(8) 0.2499(9) -0.257(3)
C28 C 0.19832(7) 0.25071(7) 0.0494(3)
H25 H 0.2059(8) 0.2970(9) 0.077(3)
C29 C 0.17860(7) 0.20979(7) 0.2112(2)
H26 H 0.1740(9) 0.2274(9) 0.356(3)
C30 C 0.16351(6) 0.14189(6) 0.1773(2)
H27 H 0.1491(7) 0.1125(8) 0.294(2)
C31 C 0.14079(6) 0.02311(6) -0.27243(19)
C32 C 0.12443(7) 0.00655(7) -0.4409(2)
H28 H 0.1118(9) -0.0026(9) -0.570(3)
loop_
_geom_bond_atom_site_label_1
_geom_bond_atom_site_label_2
_geom_bond_site_symmetry_1
_geom_bond_site_symmetry_2
C1 H1 1_555 1_555
C2 C1 1_555 1_555
H2 C2 1_555 1_555
C3 C2 1_555 1_555
H3 C3 1_555 1_555
O1 H4 1_555 1_555
C4 C3 1_555 1_555
H5 C4 1_555 1_555
C5 C4 1_555 1_555
H6 C5 1_555 1_555
C6 C1 1_555 1_555
C7 C6 1_555 1_555
H7 C7 1_555 1_555
H8 C7 1_555 1_555
C8 O1 1_555 1_555
C9 C8 1_555 1_555
C10 C9 1_555 1_555
H9 C10 1_555 1_555
C11 C10 1_555 1_555
H10 C11 1_555 1_555
C12 C11 1_555 1_555
H11 C12 1_555 1_555
C13 C12 1_555 1_555
H12 C13 1_555 1_555
C14 C9 1_555 1_555
H13 C14 1_555 1_555
C15 C8 1_555 1_555
C16 C15 1_555 1_555
H14 C16 1_555 1_555
C17 H15 1_555 1_555
C18 C17 1_555 1_555
H16 C18 1_555 1_555
C19 C18 1_555 1_555
H17 C19 1_555 1_555
O2 H18 1_555 1_555
C20 C19 1_555 1_555
H19 C20 1_555 1_555
C21 C20 1_555 1_555
H20 C21 1_555 1_555
C22 C17 1_555 1_555
C23 C22 1_555 1_555
H21 C23 1_555 1_555
H22 C23 1_555 1_555
C24 O2 1_555 1_555
C25 C24 1_555 1_555
C26 C25 1_555 1_555
H23 C26 1_555 1_555
C27 C26 1_555 1_555
H24 C27 1_555 1_555
C28 C27 1_555 1_555
H25 C28 1_555 1_555
C29 C28 1_555 1_555
H26 C29 1_555 1_555
C30 C25 1_555 1_555
H27 C30 1_555 1_555
C31 C24 1_555 1_555
C32 C31 1_555 1_555
H28 C32 1_555 1_555
C5 C6 1_555 1_555
C7 C8 1_555 1_555
C13 C14 1_555 1_555
C21 C22 1_555 1_555
C23 C24 1_555 1_555
C29 C30 1_555 1_555

#END
