
#######################################################################
#
#                 Cambridge Crystallographic Data Centre
#                                CCDC 
#
#######################################################################
#
# If this CIF has been generated from an entry in the Cambridge 
# Structural Database, then it will include bibliographic, chemical, 
# crystal, experimental, refinement or atomic coordinate data resulting 
# from the CCDC's data processing and validation procedures.
#
#######################################################################

data_XAYFEK
_chemical_formula_moiety         'C21 H20 B1 F2 N3'
_chemical_name_systematic        
7-(3,5-Dimethyl-1H-pyrrol-2-yl)-5,5-difluoro-1,3-dimethyl-5H-6\l^5^,5\l^5^-pyrrolo[1',2':3,4][1,3,2]diazaborinino[6,1-a]isoindole
_symmetry_cell_setting           monoclinic
_symmetry_space_group_name_H-M   'P 21/n'
_symmetry_Int_Tables_number      14
_space_group_name_Hall           '-P 2yn'
loop_
_symmetry_equiv_pos_site_id
_symmetry_equiv_pos_as_xyz
1 x,y,z
2 1/2-x,1/2+y,1/2-z
3 -x,-y,-z
4 1/2+x,1/2-y,1/2+z
_cell_length_a                   11.1771(18)
_cell_length_b                   7.6301(12)
_cell_length_c                   21.521(4)
_cell_angle_alpha                90
_cell_angle_beta                 97.980(2)
_cell_angle_gamma                90
_cell_volume                     1817.59
_exptl_crystal_colour            purple
_exptl_crystal_description       block
_cell_formula_units_Z            4
_exptl_crystal_recrystallization_method dichloromethane
loop_
_atom_site_label
_atom_site_type_symbol
_atom_site_fract_x
_atom_site_fract_y
_atom_site_fract_z
B1 B 0.4874(2) 0.5947(3) 0.13738(10)
C1 C 0.1048(2) 0.5646(4) 0.24148(11)
H1 H 0.1626 0.4708 0.2468
H2 H 0.0260 0.5179 0.2271
H3 H 0.1037 0.6232 0.2809
F1 F 0.48659(10) 0.69219(17) 0.19127(5)
N1 N 0.21811(14) 0.6478(2) 0.15444(8)
H4 H 0.2528 0.5475 0.1535
C2 C 0.13902(18) 0.6915(3) 0.19442(10)
F2 F 0.41942(10) 0.44062(15) 0.14220(5)
N2 N 0.42765(13) 0.7000(2) 0.07890(7)
C3 C 0.10504(19) 0.8611(4) 0.18122(11)
H5 H 0.0516 0.9253 0.2017
N3 N 0.61607(13) 0.5468(2) 0.12744(7)
C4 C 0.16335(18) 0.9231(3) 0.13186(10)
C5 C 0.1591(2) 1.1098(3) 0.11012(12)
H6 H 0.2265 1.1325 0.0880
H7 H 0.1631 1.1864 0.1457
H8 H 0.0852 1.1302 0.0826
C6 C 0.23504(17) 0.7868(3) 0.11553(10)
C7 C 0.31812(17) 0.7807(3) 0.07022(9)
C8 C 0.30070(18) 0.8580(3) 0.00860(9)
C9 C 0.2025(2) 0.9424(3) -0.02613(11)
H9 H 0.1311 0.9602 -0.0094
C10 C 0.2142(3) 0.9982(3) -0.08543(12)
H10 H 0.1498 1.0551 -0.1091
C11 C 0.3205(3) 0.9715(3) -0.11107(11)
H11 H 0.3265 1.0146 -0.1509
C12 C 0.4160(2) 0.8835(3) -0.07906(10)
H12 H 0.4860 0.8637 -0.0969
C13 C 0.40562(18) 0.8242(3) -0.01858(9)
C14 C 0.48531(17) 0.7263(3) 0.02572(9)
C15 C 0.60110(18) 0.6698(3) 0.02418(9)
H13 H 0.6363 0.6900 -0.0119
C16 C 0.66784(17) 0.5842(3) 0.07379(9)
C17 C 0.78706(18) 0.5224(3) 0.08251(11)
C18 C 0.8762(2) 0.5388(3) 0.03689(13)
H14 H 0.9410 0.6148 0.0540
H15 H 0.8368 0.5870 -0.0018
H16 H 0.9081 0.4252 0.0292
C19 C 0.80530(18) 0.4466(3) 0.14135(11)
H17 H 0.8766 0.3942 0.1598
C20 C 0.70022(18) 0.4613(3) 0.16835(9)
C21 C 0.6751(2) 0.3939(3) 0.22983(10)
H18 H 0.6513 0.4892 0.2545
H19 H 0.7466 0.3399 0.2514
H20 H 0.6112 0.3090 0.2233
loop_
_geom_bond_atom_site_label_1
_geom_bond_atom_site_label_2
_geom_bond_site_symmetry_1
_geom_bond_site_symmetry_2
B1 F1 1_555 1_555
C1 H1 1_555 1_555
H2 C1 1_555 1_555
H3 C1 1_555 1_555
N1 H4 1_555 1_555
C2 C1 1_555 1_555
F2 B1 1_555 1_555
N2 B1 1_555 1_555
C3 C2 1_555 1_555
H5 C3 1_555 1_555
N3 B1 1_555 1_555
C4 C3 1_555 1_555
C5 C4 1_555 1_555
H6 C5 1_555 1_555
H7 C5 1_555 1_555
H8 C5 1_555 1_555
C6 N1 1_555 1_555
C7 N2 1_555 1_555
C8 C7 1_555 1_555
C9 C8 1_555 1_555
H9 C9 1_555 1_555
C10 C9 1_555 1_555
H10 C10 1_555 1_555
C11 C10 1_555 1_555
H11 C11 1_555 1_555
C12 C11 1_555 1_555
H12 C12 1_555 1_555
C13 C8 1_555 1_555
C14 N2 1_555 1_555
C15 C14 1_555 1_555
H13 C15 1_555 1_555
C16 N3 1_555 1_555
C17 C16 1_555 1_555
C18 C17 1_555 1_555
H14 C18 1_555 1_555
H15 C18 1_555 1_555
H16 C18 1_555 1_555
C19 C17 1_555 1_555
H17 C19 1_555 1_555
C20 N3 1_555 1_555
C21 C20 1_555 1_555
H18 C21 1_555 1_555
H19 C21 1_555 1_555
H20 C21 1_555 1_555
N1 C2 1_555 1_555
C4 C6 1_555 1_555
C6 C7 1_555 1_555
C12 C13 1_555 1_555
C13 C14 1_555 1_555
C15 C16 1_555 1_555
C19 C20 1_555 1_555

#END
