
#######################################################################
#
#                 Cambridge Crystallographic Data Centre
#                                CCDC 
#
#######################################################################
#
# If this CIF has been generated from an entry in the Cambridge 
# Structural Database, then it will include bibliographic, chemical, 
# crystal, experimental, refinement or atomic coordinate data resulting 
# from the CCDC's data processing and validation procedures.
#
#######################################################################

data_XAYKIS
_chemical_formula_moiety         'C10 H12 N2 O2'
_chemical_name_systematic        N-(6-Methyl-2-pyridyl)acetoacetamide
_symmetry_cell_setting           orthorhombic
_symmetry_space_group_name_H-M   'P b c a'
_symmetry_Int_Tables_number      61
_space_group_name_Hall           '-P 2ac 2ab'
loop_
_symmetry_equiv_pos_site_id
_symmetry_equiv_pos_as_xyz
1 x,y,z
2 1/2-x,-y,1/2+z
3 -x,1/2+y,1/2-z
4 1/2+x,1/2-y,-z
5 -x,-y,-z
6 1/2+x,y,1/2-z
7 x,1/2-y,1/2+z
8 1/2-x,1/2+y,z
_cell_length_a                   9.4739(19)
_cell_length_b                   13.303(3)
_cell_length_c                   16.365(3)
_cell_angle_alpha                90
_cell_angle_beta                 90
_cell_angle_gamma                90
_cell_volume                     2062.5
_exptl_crystal_colour            colorless
_exptl_crystal_description       prismatic
_cell_formula_units_Z            8
loop_
_atom_site_label
_atom_site_type_symbol
_atom_site_fract_x
_atom_site_fract_y
_atom_site_fract_z
O1 O 0.0255(2) 0.77470(19) 0.48739(15)
O2 O 0.1557(4) 0.7820(3) 0.67008(19)
N1 N 0.3697(2) 0.9493(2) 0.41071(16)
N2 N 0.2559(3) 0.8211(2) 0.47667(17)
C1 C 0.3721(3) 1.0367(3) 0.3698(2)
C2 C 0.2505(4) 1.0903(3) 0.3511(2)
H1 H 0.2548 1.1504 0.3222
C3 C 0.1228(4) 1.0515(3) 0.3771(2)
H2 H 0.0397 1.0863 0.3665
C4 C 0.1179(3) 0.9618(3) 0.4184(2)
H3 H 0.0325 0.9347 0.4356
C5 C 0.2444(3) 0.9130(3) 0.43369(19)
C6 C 0.1509(3) 0.7608(3) 0.5036(2)
C7 C 0.1978(3) 0.6751(3) 0.5575(2)
H4 H 0.1307 0.6203 0.5530
H5 H 0.2888 0.6508 0.5389
C8 C 0.2093(4) 0.7071(3) 0.6456(2)
C9 C 0.2914(5) 0.6395(4) 0.7007(3)
H6 H 0.2926 0.6672 0.7549
H7 H 0.3864 0.6336 0.6808
H8 H 0.2481 0.5743 0.7019
C10 C 0.5156(4) 1.0756(3) 0.3450(3)
H9 H 0.5871 1.0294 0.3628
H10 H 0.5315 1.1401 0.3697
H11 H 0.5196 1.0821 0.2866
H12 H 0.348(4) 0.793(3) 0.484(2)
loop_
_geom_bond_atom_site_label_1
_geom_bond_atom_site_label_2
_geom_bond_site_symmetry_1
_geom_bond_site_symmetry_2
O1 C6 1_555 1_555
O2 C8 1_555 1_555
N1 C1 1_555 1_555
N2 C5 1_555 1_555
C1 C2 1_555 1_555
C2 H1 1_555 1_555
C3 C2 1_555 1_555
H2 C3 1_555 1_555
C4 C3 1_555 1_555
H3 C4 1_555 1_555
C5 N1 1_555 1_555
C6 N2 1_555 1_555
C7 C6 1_555 1_555
H4 C7 1_555 1_555
H5 C7 1_555 1_555
C8 C7 1_555 1_555
C9 C8 1_555 1_555
H6 C9 1_555 1_555
H7 C9 1_555 1_555
H8 C9 1_555 1_555
C10 C1 1_555 1_555
H9 C10 1_555 1_555
H10 C10 1_555 1_555
H11 C10 1_555 1_555
H12 N2 1_555 1_555
C4 C5 1_555 1_555

#END
