
#######################################################################
#
#                 Cambridge Crystallographic Data Centre
#                                CCDC 
#
#######################################################################
#
# If this CIF has been generated from an entry in the Cambridge 
# Structural Database, then it will include bibliographic, chemical, 
# crystal, experimental, refinement or atomic coordinate data resulting 
# from the CCDC's data processing and validation procedures.
#
#######################################################################

data_XAYRIA
_chemical_formula_moiety         'C34 H54 N2 O2,0.25(H2 O1)'
_chemical_name_systematic        
"4,4',6,6'-Tetra-t-butyl-2,2'-(1,3-diazinane-1,3-diylbis(methylene))diphenol hydrate"
_symmetry_cell_setting           orthorhombic
_symmetry_space_group_name_H-M   'P n m a'
_symmetry_Int_Tables_number      62
_space_group_name_Hall           '-P 2ac 2n'
loop_
_symmetry_equiv_pos_site_id
_symmetry_equiv_pos_as_xyz
1 x,y,z
2 1/2-x,-y,1/2+z
3 -x,1/2+y,-z
4 1/2+x,1/2-y,1/2-z
5 -x,-y,-z
6 1/2+x,y,1/2-z
7 x,1/2-y,z
8 1/2-x,1/2+y,1/2+z
_cell_length_a                   8.7292(8)
_cell_length_b                   37.428(3)
_cell_length_c                   10.1806(9)
_cell_angle_alpha                90
_cell_angle_beta                 90
_cell_angle_gamma                90
_cell_volume                     3326.17
_exptl_crystal_colour            colorless
_exptl_crystal_description       prism
_chemical_melting_point          '185 deg.C'
_cell_formula_units_Z            4
_exptl_crystal_recrystallization_method 'ethyl acetate'
loop_
_atom_site_label
_atom_site_type_symbol
_atom_site_fract_x
_atom_site_fract_y
_atom_site_fract_z
N1 N 0.24037(12) 0.78185(2) 0.40084(10)
O1 O 0.50878(10) 0.81077(2) 0.47464(9)
H1 H 0.4572 0.7956 0.4369
C1 C 0.44073(13) 0.84373(3) 0.46035(11)
C2 C 0.30352(13) 0.84657(3) 0.38874(11)
C3 C 0.23273(13) 0.87966(3) 0.37546(12)
H2 H 0.1408 0.8812 0.3297
C4 C 0.29645(13) 0.91060(3) 0.42917(11)
C5 C 0.43413(13) 0.90681(3) 0.49783(11)
H3 H 0.4783 0.9272 0.5335
C6 C 0.50974(13) 0.87414(3) 0.51622(11)
C7 C 0.21487(13) 0.94668(3) 0.41266(12)
C8 C 0.05775(16) 0.94463(4) 0.47962(16)
H4 H 0.0056 0.9671 0.4697
H5 H 0.0712 0.9395 0.5713
H6 H -0.0019 0.9260 0.4397
C9 C 0.19124(19) 0.95464(4) 0.26617(16)
H7 H 0.2890 0.9560 0.2232
H8 H 0.1386 0.9770 0.2565
H9 H 0.1314 0.9359 0.2272
C10 C 0.30511(17) 0.97759(4) 0.4729(2)
H10 H 0.4038 0.9792 0.4317
H11 H 0.3180 0.9735 0.5654
H12 H 0.2503 0.9995 0.4596
C11 C 0.66220(13) 0.87198(3) 0.59218(11)
C12 C 0.71429(15) 0.90887(4) 0.64144(14)
H13 H 0.6375 0.9187 0.6985
H14 H 0.7290 0.9245 0.5678
H15 H 0.8089 0.9065 0.6887
C13 C 0.64494(16) 0.84776(4) 0.71373(13)
H16 H 0.5661 0.8571 0.7698
H17 H 0.7401 0.8470 0.7609
H18 H 0.6178 0.8241 0.6862
C14 C 0.78871(14) 0.85726(4) 0.50186(12)
H19 H 0.7992 0.8725 0.4265
H20 H 0.7619 0.8336 0.4738
H21 H 0.8840 0.8565 0.5489
C15 C 0.23842(15) 0.81429(3) 0.31813(12)
H22 H 0.1338 0.8193 0.2919
H23 H 0.2976 0.8099 0.2391
C16 C 0.2173(2) 0.7500 0.32086(16)
H24 H 0.2891 0.7500 0.2481
H25 H 0.1143 0.7500 0.2851
C17 C 0.12559(16) 0.78340(3) 0.50660(13)
H26 H 0.0237 0.7850 0.4690
H27 H 0.1426 0.8045 0.5601
C18 C 0.1380(3) 0.7500 0.59142(19)
H28 H 0.2354 0.7500 0.6373
H29 H 0.0569 0.7500 0.6565
N1F N 0.24037(12) 0.71815(2) 0.40084(10)
O1F O 0.50878(10) 0.68923(2) 0.47464(9)
H1F H 0.4572 0.7044 0.4369
C1F C 0.44073(13) 0.65627(3) 0.46035(11)
C2F C 0.30352(13) 0.65343(3) 0.38874(11)
C3F C 0.23273(13) 0.62034(3) 0.37546(12)
H2F H 0.1408 0.6188 0.3297
C4F C 0.29645(13) 0.58940(3) 0.42917(11)
C5F C 0.43413(13) 0.59319(3) 0.49783(11)
H3F H 0.4783 0.5728 0.5335
C6F C 0.50974(13) 0.62586(3) 0.51622(11)
C7F C 0.21487(13) 0.55332(3) 0.41266(12)
C8F C 0.05775(16) 0.55537(4) 0.47962(16)
H4F H 0.0056 0.5329 0.4697
H5F H 0.0712 0.5605 0.5713
H6F H -0.0019 0.5740 0.4397
C9F C 0.19124(19) 0.54536(4) 0.26617(16)
H7F H 0.2890 0.5440 0.2232
H8F H 0.1386 0.5230 0.2565
H9F H 0.1314 0.5641 0.2272
C10F C 0.30511(17) 0.52241(4) 0.4729(2)
H10F H 0.4038 0.5208 0.4317
H11F H 0.3180 0.5265 0.5654
H12F H 0.2503 0.5005 0.4596
C11F C 0.66220(13) 0.62802(3) 0.59218(11)
C12F C 0.71429(15) 0.59113(4) 0.64144(14)
H13F H 0.6375 0.5813 0.6985
H14F H 0.7290 0.5755 0.5678
H15F H 0.8089 0.5935 0.6887
C13F C 0.64494(16) 0.65224(4) 0.71373(13)
H16F H 0.5661 0.6429 0.7698
H17F H 0.7401 0.6530 0.7609
H18F H 0.6178 0.6759 0.6862
C14F C 0.78871(14) 0.64274(4) 0.50186(12)
H19F H 0.7992 0.6275 0.4265
H20F H 0.7619 0.6664 0.4738
H21F H 0.8840 0.6435 0.5489
C15F C 0.23842(15) 0.68571(3) 0.31813(12)
H22F H 0.1338 0.6807 0.2919
H23F H 0.2976 0.6901 0.2391
C17F C 0.12559(16) 0.71660(3) 0.50660(13)
H26F H 0.0237 0.7150 0.4690
H27F H 0.1426 0.6955 0.5601
O2 O 0.7322(8) 0.7500 0.5233(7)
H30 H 0.6880 0.7299 0.5133
H30F H 0.6880 0.7701 0.5133
loop_
_geom_bond_atom_site_label_1
_geom_bond_atom_site_label_2
_geom_bond_site_symmetry_1
_geom_bond_site_symmetry_2
N1 C15 1_555 1_555
O1 H1 1_555 1_555
C1 O1 1_555 1_555
C2 C1 1_555 1_555
C3 C2 1_555 1_555
H2 C3 1_555 1_555
C4 C3 1_555 1_555
C5 C4 1_555 1_555
H3 C5 1_555 1_555
C6 C1 1_555 1_555
C7 C4 1_555 1_555
C8 C7 1_555 1_555
H4 C8 1_555 1_555
H5 C8 1_555 1_555
H6 C8 1_555 1_555
C9 C7 1_555 1_555
H7 C9 1_555 1_555
H8 C9 1_555 1_555
H9 C9 1_555 1_555
C10 C7 1_555 1_555
H10 C10 1_555 1_555
H11 C10 1_555 1_555
H12 C10 1_555 1_555
C11 C6 1_555 1_555
C12 C11 1_555 1_555
H13 C12 1_555 1_555
H14 C12 1_555 1_555
H15 C12 1_555 1_555
C13 C11 1_555 1_555
H16 C13 1_555 1_555
H17 C13 1_555 1_555
H18 C13 1_555 1_555
C14 C11 1_555 1_555
H19 C14 1_555 1_555
H20 C14 1_555 1_555
H21 C14 1_555 1_555
C15 C2 1_555 1_555
H22 C15 1_555 1_555
H23 C15 1_555 1_555
C16 N1 1_555 1_555
H24 C16 1_555 1_555
H25 C16 1_555 1_555
C17 N1 1_555 1_555
H26 C17 1_555 1_555
H27 C17 1_555 1_555
C18 C17 1_555 1_555
H28 C18 1_555 1_555
H29 C18 1_555 1_555
O2 H30 1_555 1_555
N1F C16 1_555 1_555
O1F H1F 1_555 1_555
C1F O1F 1_555 1_555
C2F C1F 1_555 1_555
C3F C2F 1_555 1_555
H2F C3F 1_555 1_555
C4F C3F 1_555 1_555
C5F C4F 1_555 1_555
H3F C5F 1_555 1_555
C6F C1F 1_555 1_555
C7F C4F 1_555 1_555
C8F C7F 1_555 1_555
H4F C8F 1_555 1_555
H5F C8F 1_555 1_555
H6F C8F 1_555 1_555
C9F C7F 1_555 1_555
H7F C9F 1_555 1_555
H8F C9F 1_555 1_555
H9F C9F 1_555 1_555
C10F C7F 1_555 1_555
H10F C10F 1_555 1_555
H11F C10F 1_555 1_555
H12F C10F 1_555 1_555
C11F C6F 1_555 1_555
C12F C11F 1_555 1_555
H13F C12F 1_555 1_555
H14F C12F 1_555 1_555
H15F C12F 1_555 1_555
C13F C11F 1_555 1_555
H16F C13F 1_555 1_555
H17F C13F 1_555 1_555
H18F C13F 1_555 1_555
C14F C11F 1_555 1_555
H19F C14F 1_555 1_555
H20F C14F 1_555 1_555
H21F C14F 1_555 1_555
C15F N1F 1_555 1_555
H22F C15F 1_555 1_555
H23F C15F 1_555 1_555
C17F C18 1_555 1_555
H26F C17F 1_555 1_555
H27F C17F 1_555 1_555
H30F O2 1_555 1_555
C5 C6 1_555 1_555
N1F C17F 1_555 1_555
C2F C15F 1_555 1_555
C5F C6F 1_555 1_555

#END
