
#######################################################################
#
#                 Cambridge Crystallographic Data Centre
#                                CCDC 
#
#######################################################################
#
# If this CIF has been generated from an entry in the Cambridge 
# Structural Database, then it will include bibliographic, chemical, 
# crystal, experimental, refinement or atomic coordinate data resulting 
# from the CCDC's data processing and validation procedures.
#
#######################################################################

data_XAYXAY01
_chemical_formula_moiety         'C7 H10 N1 1+,C3 H3 O4 1-'
_chemical_name_systematic        '4-methylanilinium carboxyacetate'
_symmetry_cell_setting           monoclinic
_symmetry_space_group_name_H-M   'P 21/c'
_symmetry_Int_Tables_number      14
_space_group_name_Hall           '-P 2ybc'
loop_
_symmetry_equiv_pos_site_id
_symmetry_equiv_pos_as_xyz
1 x,y,z
2 -x,1/2+y,1/2-z
3 -x,-y,-z
4 x,1/2-y,1/2+z
_cell_length_a                   12.996(3)
_cell_length_b                   9.2813(19)
_cell_length_c                   8.665(2)
_cell_angle_alpha                90
_cell_angle_beta                 105.503(7)
_cell_angle_gamma                90
_cell_volume                     1007.14
_exptl_crystal_colour            colorless
_exptl_crystal_description       block
_cell_formula_units_Z            4
loop_
_atom_site_label
_atom_site_type_symbol
_atom_site_fract_x
_atom_site_fract_y
_atom_site_fract_z
C1 C 0.02784(18) 0.2864(3) 0.8804(3)
C2 C 0.05733(19) 0.1495(3) 0.9312(3)
H1 H 0.009107 0.074666 0.896510
C3 C 0.15679(18) 0.1185(2) 1.0327(3)
H2 H 0.174453 0.024333 1.065946
C4 C 0.22828(15) 0.2265(2) 1.0833(2)
C5 C 0.20331(19) 0.3638(2) 1.0313(3)
H3 H 0.252962 0.437536 1.063048
C6 C 0.1029(2) 0.3927(3) 0.9305(3)
H4 H 0.085992 0.486688 0.895849
C7 C -0.0826(2) 0.3149(3) 0.7724(4)
H5 H -0.083796 0.293072 0.663661
H6 H -0.100685 0.414418 0.780352
H7 H -0.133570 0.255254 0.804694
N1 N 0.33326(13) 0.19495(17) 1.1900(2)
H8 H 0.331546 0.109900 1.236679
H9 H 0.350879 0.263146 1.264632
H10 H 0.381413 0.192567 1.133796
C8 C 0.40281(15) -0.05466(19) 0.8494(2)
C9 C 0.38105(16) -0.1849(2) 0.9427(2)
H11 H 0.424395 -0.176610 1.052432
H12 H 0.306807 -0.182213 0.944691
C10 C 0.40283(16) -0.32853(19) 0.8784(2)
O1 O 0.37677(11) 0.06550(14) 0.89126(17)
O2 O 0.44594(12) -0.07617(13) 0.73668(17)
O3 O 0.50449(11) -0.35675(14) 0.90227(17)
H13 H 0.5173(18) -0.4328(17) 0.852(2)
O4 O 0.33156(11) -0.41000(15) 0.81073(19)
loop_
_geom_bond_atom_site_label_1
_geom_bond_atom_site_label_2
_geom_bond_site_symmetry_1
_geom_bond_site_symmetry_2
C1 C2 1_555 1_555
C2 H1 1_555 1_555
C3 C2 1_555 1_555
H2 C3 1_555 1_555
C4 C3 1_555 1_555
C5 C4 1_555 1_555
H3 C5 1_555 1_555
C6 C1 1_555 1_555
H4 C6 1_555 1_555
C7 C1 1_555 1_555
H5 C7 1_555 1_555
H6 C7 1_555 1_555
H7 C7 1_555 1_555
N1 C4 1_555 1_555
H8 N1 1_555 1_555
H9 N1 1_555 1_555
H10 N1 1_555 1_555
C8 C9 1_555 1_555
C9 H11 1_555 1_555
H12 C9 1_555 1_555
C10 C9 1_555 1_555
O1 C8 1_555 1_555
O2 C8 1_555 1_555
O3 C10 1_555 1_555
H13 O3 1_555 1_555
O4 C10 1_555 1_555
C5 C6 1_555 1_555

#END
