
#######################################################################
#
#                 Cambridge Crystallographic Data Centre
#                                CCDC 
#
#######################################################################
#
# If this CIF has been generated from an entry in the Cambridge 
# Structural Database, then it will include bibliographic, chemical, 
# crystal, experimental, refinement or atomic coordinate data resulting 
# from the CCDC's data processing and validation procedures.
#
#######################################################################

data_XAZDEJ01
_chemical_formula_moiety         'C15 H11 N1 O1'
_chemical_name_systematic        3-benzylidene-1,3-dihydro-2H-indol-2-one
_symmetry_cell_setting           monoclinic
_symmetry_space_group_name_H-M   'P 21/n'
_symmetry_Int_Tables_number      14
_space_group_name_Hall           '-P 2yn'
loop_
_symmetry_equiv_pos_site_id
_symmetry_equiv_pos_as_xyz
1 x,y,z
2 1/2-x,1/2+y,1/2-z
3 -x,-y,-z
4 1/2+x,1/2-y,1/2+z
_cell_length_a                   4.00720(10)
_cell_length_b                   22.2268(5)
_cell_length_c                   12.2592(3)
_cell_angle_alpha                90
_cell_angle_beta                 95.112(2)
_cell_angle_gamma                90
_cell_volume                     1087.55
_exptl_crystal_colour            yellow
_exptl_crystal_description       plate
_cell_formula_units_Z            4
_exptl_crystal_recrystallization_method 'ethyl acetate/diethyl ether'
loop_
_atom_site_label
_atom_site_type_symbol
_atom_site_fract_x
_atom_site_fract_y
_atom_site_fract_z
C1 C 0.6319(4) 0.15824(6) 0.38223(12)
H1 H 0.7532 0.1291 0.4233
C2 C 0.5318(3) 0.14768(6) 0.27269(12)
H2 H 0.5862 0.1116 0.2402
C3 C 0.3504(3) 0.19115(6) 0.21185(11)
H3 H 0.2778 0.1838 0.1389
C4 C 0.2768(3) 0.24561(6) 0.25935(11)
H4 H 0.1583 0.2748 0.2176
C5 C 0.3787(3) 0.25718(6) 0.36923(11)
C6 C 0.5514(3) 0.21213(6) 0.43071(11)
H5 H 0.6130 0.2184 0.5048
C7 C 0.2921(3) 0.31373(6) 0.42191(11)
H6 H 0.2188 0.3100 0.4915
C8 C 0.3048(3) 0.37011(6) 0.38297(11)
C9 C 0.4341(3) 0.39833(6) 0.28729(10)
C10 C 0.3878(3) 0.46065(6) 0.29830(11)
N1 N 0.2350(3) 0.47269(5) 0.39386(10)
H7 H 0.162(5) 0.5089(8) 0.4138(14)
C11 C 0.1757(3) 0.42108(6) 0.44837(11)
O1 O 0.0375(3) 0.41747(4) 0.53373(8)
C12 C 0.5894(3) 0.37740(6) 0.19751(11)
H8 H 0.6238 0.3364 0.1884
C13 C 0.6929(3) 0.41837(7) 0.12148(12)
H9 H 0.7963 0.4045 0.0613
C14 C 0.6434(3) 0.47966(7) 0.13446(12)
H10 H 0.7149 0.5063 0.0829
C15 C 0.4884(3) 0.50190(6) 0.22344(11)
H11 H 0.4539 0.5429 0.2321
loop_
_geom_bond_atom_site_label_1
_geom_bond_atom_site_label_2
_geom_bond_site_symmetry_1
_geom_bond_site_symmetry_2
C1 H1 1_555 1_555
C2 C1 1_555 1_555
H2 C2 1_555 1_555
C3 C2 1_555 1_555
H3 C3 1_555 1_555
C4 C3 1_555 1_555
H4 C4 1_555 1_555
C5 C4 1_555 1_555
C6 C1 1_555 1_555
H5 C6 1_555 1_555
C7 C5 1_555 1_555
H6 C7 1_555 1_555
C8 C7 1_555 1_555
C9 C8 1_555 1_555
C10 C9 1_555 1_555
N1 C10 1_555 1_555
H7 N1 1_555 1_555
C11 C8 1_555 1_555
O1 C11 1_555 1_555
C12 C9 1_555 1_555
H8 C12 1_555 1_555
C13 C12 1_555 1_555
H9 C13 1_555 1_555
C14 C13 1_555 1_555
H10 C14 1_555 1_555
C15 C10 1_555 1_555
H11 C15 1_555 1_555
C5 C6 1_555 1_555
N1 C11 1_555 1_555
C14 C15 1_555 1_555

#END
