
#######################################################################
#
#                 Cambridge Crystallographic Data Centre
#                                CCDC 
#
#######################################################################
#
# If this CIF has been generated from an entry in the Cambridge 
# Structural Database, then it will include bibliographic, chemical, 
# crystal, experimental, refinement or atomic coordinate data resulting 
# from the CCDC's data processing and validation procedures.
#
#######################################################################

data_XAZGEM
_chemical_formula_moiety         'C13 H10 F1 N3 O3'
_chemical_name_systematic        1-(3-Fluorophenyl)-3-(4-nitrophenyl)urea
_symmetry_cell_setting           monoclinic
_symmetry_space_group_name_H-M   'P 21/n'
_symmetry_Int_Tables_number      14
_space_group_name_Hall           '-P 2yn'
loop_
_symmetry_equiv_pos_site_id
_symmetry_equiv_pos_as_xyz
1 x,y,z
2 1/2-x,1/2+y,1/2-z
3 -x,-y,-z
4 1/2+x,1/2-y,1/2+z
_cell_length_a                   8.351(4)
_cell_length_b                   12.461(6)
_cell_length_c                   11.912(6)
_cell_angle_alpha                90
_cell_angle_beta                 100.315(9)
_cell_angle_gamma                90
_cell_volume                     1219.55
_exptl_crystal_colour            yellow
_exptl_crystal_description       prism
_cell_formula_units_Z            4
loop_
_atom_site_label
_atom_site_type_symbol
_atom_site_fract_x
_atom_site_fract_y
_atom_site_fract_z
F1 F 0.29184(14) 0.96861(8) -0.02312(9)
O1 O -0.04969(14) 0.17411(10) 0.34582(10)
O2 O 0.01132(14) 0.04318(10) 0.24132(10)
O3 O 0.19105(13) 0.60131(9) 0.05581(9)
N1 N 0.01105(16) 0.13960(12) 0.26533(12)
N2 N 0.26220(16) 0.43681(11) -0.00884(11)
N3 N 0.32644(17) 0.58967(11) -0.09569(11)
C1 C 0.20093(18) 0.36633(13) 0.06336(13)
C2 C 0.19815(19) 0.25683(13) 0.03495(13)
H1 H 0.2380 0.2346 -0.0312
C3 C 0.13910(19) 0.18127(13) 0.10071(14)
H2 H 0.1371 0.1074 0.0808
C4 C 0.08209(18) 0.21605(13) 0.19783(13)
C5 C 0.08776(19) 0.32275(13) 0.22924(14)
H3 H 0.0505 0.3439 0.2967
C6 C 0.14717(19) 0.39910(13) 0.16335(13)
H4 H 0.1517 0.4725 0.1852
C7 C 0.25437(18) 0.54780(13) -0.01016(13)
C8 C 0.35025(18) 0.69898(13) -0.11978(13)
C9 C 0.42473(19) 0.72135(14) -0.21284(14)
H5 H 0.4554 0.6642 -0.2573
C10 C 0.4543(2) 0.82664(14) -0.24089(14)
H6 H 0.5056 0.8406 -0.3044
C11 C 0.4106(2) 0.91169(15) -0.17805(15)
H7 H 0.4305 0.9840 -0.1969
C12 C 0.3367(2) 0.88660(13) -0.08702(15)
C13 C 0.30351(19) 0.78355(14) -0.05540(14)
H8 H 0.2509 0.7705 0.0077
H9 H 0.314(2) 0.4069(14) -0.0618(13)
H10 H 0.372(2) 0.5429(15) -0.1377(15)
loop_
_geom_bond_atom_site_label_1
_geom_bond_atom_site_label_2
_geom_bond_site_symmetry_1
_geom_bond_site_symmetry_2
F1 C12 1_555 1_555
O1 N1 1_555 1_555
O2 N1 1_555 1_555
O3 C7 1_555 1_555
N1 C4 1_555 1_555
N2 C1 1_555 1_555
N3 C7 1_555 1_555
C1 C2 1_555 1_555
C2 H1 1_555 1_555
C3 C2 1_555 1_555
H2 C3 1_555 1_555
C4 C3 1_555 1_555
C5 C4 1_555 1_555
H3 C5 1_555 1_555
C6 C1 1_555 1_555
H4 C6 1_555 1_555
C7 N2 1_555 1_555
C8 N3 1_555 1_555
C9 C8 1_555 1_555
H5 C9 1_555 1_555
C10 C9 1_555 1_555
H6 C10 1_555 1_555
C11 C10 1_555 1_555
H7 C11 1_555 1_555
C12 C11 1_555 1_555
C13 C8 1_555 1_555
H8 C13 1_555 1_555
H9 N2 1_555 1_555
H10 N3 1_555 1_555
C5 C6 1_555 1_555
C12 C13 1_555 1_555

#END
