
#######################################################################
#
#                 Cambridge Crystallographic Data Centre
#                                CCDC 
#
#######################################################################
#
# If this CIF has been generated from an entry in the Cambridge 
# Structural Database, then it will include bibliographic, chemical, 
# crystal, experimental, refinement or atomic coordinate data resulting 
# from the CCDC's data processing and validation procedures.
#
#######################################################################

data_XAZHUC01
_chemical_formula_moiety         'C9 H12 N4 S2'
_chemical_name_systematic        
1,1'-methylenebis(3-methyl-1,3-dihydro-2H-imidazole-2-thione)
_symmetry_cell_setting           orthorhombic
_symmetry_space_group_name_H-M   'F d d 2'
_symmetry_Int_Tables_number      43
_space_group_name_Hall           'F 2 -2d'
loop_
_symmetry_equiv_pos_site_id
_symmetry_equiv_pos_as_xyz
1 x,y,z
2 -x,-y,z
3 1/4+x,1/4-y,1/4+z
4 1/4-x,1/4+y,1/4+z
5 x,1/2+y,1/2+z
6 -x,1/2-y,1/2+z
7 1/4+x,3/4-y,3/4+z
8 1/4-x,3/4+y,3/4+z
9 1/2+x,y,1/2+z
10 1/2-x,-y,1/2+z
11 3/4+x,1/4-y,3/4+z
12 3/4-x,1/4+y,3/4+z
13 1/2+x,1/2+y,z
14 1/2-x,1/2-y,z
15 3/4+x,3/4-y,1/4+z
16 3/4-x,3/4+y,1/4+z
_cell_length_a                   13.6048(8)
_cell_length_b                   36.611(3)
_cell_length_c                   4.4491(3)
_cell_angle_alpha                90
_cell_angle_beta                 90
_cell_angle_gamma                90
_cell_volume                     2216.03
_exptl_crystal_colour            colorless
_exptl_crystal_description       BLOCK
_cell_formula_units_Z            8
loop_
_atom_site_label
_atom_site_type_symbol
_atom_site_fract_x
_atom_site_fract_y
_atom_site_fract_z
S1 S 0.85399(4) 0.31305(2) 0.44135(12)
N1 N 0.69468(12) 0.27585(5) 0.6549(5)
N2 N 0.65654(15) 0.32057(5) 0.3619(5)
C1 C 0.73423(16) 0.30323(6) 0.4859(5)
C2 C 0.7500 0.2500 0.8350(7)
H1 H 0.7951 0.2633 0.9635
C3 C 0.56939(17) 0.30489(6) 0.4582(8)
H2 H 0.5063 0.3123 0.4061
C4 C 0.59283(16) 0.27725(6) 0.6395(7)
H3 H 0.5491 0.2618 0.7374
C5 C 0.6637(2) 0.35192(7) 0.1624(8)
H4 H 0.6708 0.3738 0.2796
H5 H 0.6052 0.3536 0.0425
H6 H 0.7197 0.3491 0.0334
H1M H 0.7049 0.2367 0.9635
S1M S 0.64601(4) 0.18695(2) 0.44135(12)
N1M N 0.80532(12) 0.22415(5) 0.6549(5)
N2M N 0.84346(15) 0.17943(5) 0.3619(5)
C1M C 0.76577(16) 0.19677(6) 0.4859(5)
C3M C 0.93061(17) 0.19511(6) 0.4582(8)
H2M H 0.9937 0.1877 0.4061
C4M C 0.90717(16) 0.22275(6) 0.6395(7)
H3M H 0.9509 0.2382 0.7374
C5M C 0.8363(2) 0.14808(7) 0.1624(8)
H4M H 0.8292 0.1262 0.2796
H5M H 0.8948 0.1464 0.0425
H6M H 0.7803 0.1509 0.0334
H7? H 0.7951 0.2633 0.9635
loop_
_geom_bond_atom_site_label_1
_geom_bond_atom_site_label_2
_geom_bond_site_symmetry_1
_geom_bond_site_symmetry_2
S1 C1 1_555 1_555
N1 C1 1_555 1_555
N2 C1 1_555 1_555
C2 N1 1_555 1_555
H1 C2 1_555 1_555
C3 N2 1_555 1_555
H2 C3 1_555 1_555
C4 N1 1_555 1_555
H3 C4 1_555 1_555
C5 N2 1_555 1_555
H4 C5 1_555 1_555
H5 C5 1_555 1_555
H6 C5 1_555 1_555
H1M C2 1_555 1_555
S1M C1M 1_555 1_555
N1M C2 1_555 1_555
N2M C1M 1_555 1_555
C1M N1M 1_555 1_555
C3M N2M 1_555 1_555
H2M C3M 1_555 1_555
C4M N1M 1_555 1_555
H3M C4M 1_555 1_555
C5M N2M 1_555 1_555
H4M C5M 1_555 1_555
H5M C5M 1_555 1_555
H6M C5M 1_555 1_555
C3 C4 1_555 1_555
C3M C4M 1_555 1_555

#END
