
#######################################################################
#
#                 Cambridge Crystallographic Data Centre
#                                CCDC 
#
#######################################################################
#
# If this CIF has been generated from an entry in the Cambridge 
# Structural Database, then it will include bibliographic, chemical, 
# crystal, experimental, refinement or atomic coordinate data resulting 
# from the CCDC's data processing and validation procedures.
#
#######################################################################

data_XAZNUI
_chemical_formula_moiety         'C15 H13 Cl1 N2 O1'
_chemical_name_systematic        5-(4-Chlorophenyl)-1-phenylpyrazolidin-3-one
_symmetry_cell_setting           monoclinic
_symmetry_space_group_name_H-M   'P 21/c'
_symmetry_Int_Tables_number      14
_space_group_name_Hall           '-P 2ybc'
loop_
_symmetry_equiv_pos_site_id
_symmetry_equiv_pos_as_xyz
1 x,y,z
2 -x,1/2+y,1/2-z
3 -x,-y,-z
4 x,1/2-y,1/2+z
_cell_length_a                   11.826(2)
_cell_length_b                   10.227(2)
_cell_length_c                   12.867(3)
_cell_angle_alpha                90
_cell_angle_beta                 115.74(3)
_cell_angle_gamma                90
_cell_volume                     1401.78
_exptl_crystal_colour            colorless
_exptl_crystal_description       block
_chemical_melting_point          '433-435 K'
_cell_formula_units_Z            4
_exptl_crystal_recrystallization_method 'ethyl acetate'
loop_
_atom_site_label
_atom_site_type_symbol
_atom_site_fract_x
_atom_site_fract_y
_atom_site_fract_z
Cl1 Cl 0.38800(13) 0.93994(17) 0.13705(13)
O1 O 0.9114(3) 1.1551(3) -0.0514(2)
N1 N 0.9859(3) 1.0623(3) 0.2309(3)
N2 N 0.9867(3) 1.0536(4) 0.1233(3)
H1 H 1.0235 0.9905 0.1059
C1 C 1.3372(6) 1.0928(7) 0.5131(6)
H2 H 1.4152 1.0973 0.5765
C2 C 1.2298(7) 1.1078(6) 0.5279(5)
H3 H 1.2347 1.1231 0.6010
C3 C 1.1137(5) 1.1000(5) 0.4327(4)
H4 H 1.0407 1.1077 0.4427
C4 C 1.1057(4) 1.0812(4) 0.3248(4)
C5 C 1.2160(4) 1.0657(5) 0.3115(4)
H5 H 1.2134 1.0514 0.2391
C6 C 1.3300(5) 1.0720(6) 0.4094(6)
H6 H 1.4039 1.0611 0.4014
C7 C 0.9272(4) 1.1489(4) 0.0487(4)
C8 C 0.8801(4) 1.2414(4) 0.1113(4)
H7 H 0.7943 1.2676 0.0627
H8 H 0.9325 1.3188 0.1359
C9 C 0.8879(4) 1.1630(4) 0.2146(4)
H9 H 0.9171 1.2198 0.2826
C10 C 0.7652(4) 1.1013(4) 0.1962(3)
C11 C 0.7328(5) 0.9724(4) 0.1603(4)
H10 H 0.7898 0.9185 0.1488
C12 C 0.6168(5) 0.9245(5) 0.1419(4)
H11 H 0.5956 0.8385 0.1179
C13 C 0.5337(4) 1.0018(5) 0.1583(4)
C14 C 0.5644(5) 1.1282(6) 0.1966(5)
H12 H 0.5082 1.1801 0.2109
C15 C 0.6792(5) 1.1765(5) 0.2133(5)
H13 H 0.6990 1.2629 0.2368
loop_
_geom_bond_atom_site_label_1
_geom_bond_atom_site_label_2
_geom_bond_site_symmetry_1
_geom_bond_site_symmetry_2
Cl1 C13 1_555 1_555
O1 C7 1_555 1_555
N1 N2 1_555 1_555
N2 H1 1_555 1_555
C1 H2 1_555 1_555
C2 C1 1_555 1_555
H3 C2 1_555 1_555
C3 C2 1_555 1_555
H4 C3 1_555 1_555
C4 N1 1_555 1_555
C5 C4 1_555 1_555
H5 C5 1_555 1_555
C6 C1 1_555 1_555
H6 C6 1_555 1_555
C7 N2 1_555 1_555
C8 C7 1_555 1_555
H7 C8 1_555 1_555
H8 C8 1_555 1_555
C9 N1 1_555 1_555
H9 C9 1_555 1_555
C10 C9 1_555 1_555
C11 C10 1_555 1_555
H10 C11 1_555 1_555
C12 C11 1_555 1_555
H11 C12 1_555 1_555
C13 C12 1_555 1_555
C14 C13 1_555 1_555
H12 C14 1_555 1_555
C15 C10 1_555 1_555
H13 C15 1_555 1_555
C3 C4 1_555 1_555
C5 C6 1_555 1_555
C8 C9 1_555 1_555
C14 C15 1_555 1_555

#END
