
#######################################################################
#
#                 Cambridge Crystallographic Data Centre
#                                CCDC 
#
#######################################################################
#
# If this CIF has been generated from an entry in the Cambridge 
# Structural Database, then it will include bibliographic, chemical, 
# crystal, experimental, refinement or atomic coordinate data resulting 
# from the CCDC's data processing and validation procedures.
#
#######################################################################

data_XAZQUL
_chemical_formula_moiety         'C16 H10 Cl2 N6 O1'
_chemical_name_systematic        
2-(1H-Benzotriazol-1-yl)-1-(2,5-dichlorophenyl)-2-(1H-1,2,4-triazol-1-yl)ethanone
_symmetry_cell_setting           monoclinic
_symmetry_space_group_name_H-M   'P 21/c'
_symmetry_Int_Tables_number      14
_space_group_name_Hall           '-P 2ybc'
loop_
_symmetry_equiv_pos_site_id
_symmetry_equiv_pos_as_xyz
1 x,y,z
2 -x,1/2+y,1/2-z
3 -x,-y,-z
4 x,1/2-y,1/2+z
_cell_length_a                   7.6217(6)
_cell_length_b                   8.6107(8)
_cell_length_c                   25.5989(19)
_cell_angle_alpha                90
_cell_angle_beta                 107.322(2)
_cell_angle_gamma                90
_cell_volume                     1603.81
_exptl_crystal_colour            colorless
_exptl_crystal_description       needle
_cell_formula_units_Z            4
_exptl_crystal_recrystallization_method 'cyclohexane/ethyl acetate'
loop_
_atom_site_label
_atom_site_type_symbol
_atom_site_fract_x
_atom_site_fract_y
_atom_site_fract_z
Cl1 Cl -0.60724(14) 0.88170(12) -0.22561(3)
Cl2 Cl -0.19589(14) 1.15467(12) 0.00260(4)
O1 O -0.7769(3) 0.7264(2) -0.14339(9)
N1 N -0.6242(3) 0.4554(3) -0.09358(9)
N2 N -0.6428(3) 0.3743(3) -0.04957(10)
N3 N -0.7398(4) 0.2522(3) -0.06666(11)
N4 N -0.3217(3) 0.5697(3) -0.14221(10)
N5 N -0.3388(3) 0.5759(3) -0.09092(9)
N6 N -0.0461(3) 0.5483(4) -0.07861(11)
C1 C -0.4077(4) 0.9394(3) -0.06369(13)
H1 H -0.4105 0.8891 -0.0318
C2 C -0.3077(4) 1.0745(4) -0.06049(14)
C3 C -0.2990(5) 1.1476(4) -0.10764(18)
H2 H -0.2300 1.2377 -0.1054
C4 C -0.3921(5) 1.0871(4) -0.15753(16)
H3 H -0.3853 1.1362 -0.1892
C5 C -0.4955(4) 0.9545(4) -0.16150(13)
C6 C -0.5045(4) 0.8780(3) -0.11447(12)
C7 C -0.6178(4) 0.7350(3) -0.11732(11)
C8 C -0.5182(3) 0.5968(3) -0.08312(11)
H4 H -0.4980 0.6234 -0.0445
C9 C -0.7135(4) 0.3792(3) -0.14070(11)
C10 C -0.7346(4) 0.4057(4) -0.19583(12)
H5 H -0.6810 0.4905 -0.2076
C11 C -0.8383(5) 0.3002(4) -0.23168(14)
H6 H -0.8563 0.3139 -0.2689
C12 C -0.9181(5) 0.1726(4) -0.21422(16)
H7 H -0.9901 0.1051 -0.2403
C13 C -0.8941(4) 0.1433(4) -0.16027(16)
H8 H -0.9455 0.0564 -0.1490
C14 C -0.7887(4) 0.2499(4) -0.12266(13)
C15 C -0.1436(4) 0.5539(4) -0.13189(13)
H9 H -0.0881 0.5470 -0.1596
C16 C -0.1739(4) 0.5633(4) -0.05426(13)
H10 H -0.1523 0.5650 -0.0165
loop_
_geom_bond_atom_site_label_1
_geom_bond_atom_site_label_2
_geom_bond_site_symmetry_1
_geom_bond_site_symmetry_2
Cl1 C5 1_555 1_555
Cl2 C2 1_555 1_555
O1 C7 1_555 1_555
N1 N2 1_555 1_555
N2 N3 1_555 1_555
N3 C14 1_555 1_555
N4 N5 1_555 1_555
N5 C8 1_555 1_555
N6 C15 1_555 1_555
C1 H1 1_555 1_555
C2 C1 1_555 1_555
C3 C2 1_555 1_555
H2 C3 1_555 1_555
C4 C3 1_555 1_555
H3 C4 1_555 1_555
C5 C4 1_555 1_555
C6 C1 1_555 1_555
C7 C6 1_555 1_555
C8 N1 1_555 1_555
H4 C8 1_555 1_555
C9 N1 1_555 1_555
C10 C9 1_555 1_555
H5 C10 1_555 1_555
C11 C10 1_555 1_555
H6 C11 1_555 1_555
C12 C11 1_555 1_555
H7 C12 1_555 1_555
C13 C12 1_555 1_555
H8 C13 1_555 1_555
C14 C9 1_555 1_555
C15 N4 1_555 1_555
H9 C15 1_555 1_555
C16 N5 1_555 1_555
H10 C16 1_555 1_555
N6 C16 1_555 1_555
C5 C6 1_555 1_555
C7 C8 1_555 1_555
C13 C14 1_555 1_555

#END
