
#######################################################################
#
#                 Cambridge Crystallographic Data Centre
#                                CCDC 
#
#######################################################################
#
# If this CIF has been generated from an entry in the Cambridge 
# Structural Database, then it will include bibliographic, chemical, 
# crystal, experimental, refinement or atomic coordinate data resulting 
# from the CCDC's data processing and validation procedures.
#
#######################################################################

data_XAZRIB
_chemical_formula_moiety         'C20 H18 N4'
_chemical_name_systematic        
N,N'-bis(1-(pyridin-2-yl)ethylidene)benzene-1,4-diamine
_symmetry_cell_setting           monoclinic
_symmetry_space_group_name_H-M   'P 21/c'
_symmetry_Int_Tables_number      14
_space_group_name_Hall           '-P 2ybc'
loop_
_symmetry_equiv_pos_site_id
_symmetry_equiv_pos_as_xyz
1 x,y,z
2 -x,1/2+y,1/2-z
3 -x,-y,-z
4 x,1/2-y,1/2+z
_cell_length_a                   5.4660(11)
_cell_length_b                   6.8510(14)
_cell_length_c                   22.704(5)
_cell_angle_alpha                90
_cell_angle_beta                 90.45(3)
_cell_angle_gamma                90
_cell_volume                     850.183
_exptl_crystal_colour            brown
_exptl_crystal_description       block
_cell_formula_units_Z            2
loop_
_atom_site_label
_atom_site_type_symbol
_atom_site_fract_x
_atom_site_fract_y
_atom_site_fract_z
N1 N 0.1873(3) -0.0704(3) 0.18884(6)
N2 N 0.2608(3) 0.1865(2) 0.05548(6)
C1 C 0.1296(3) -0.0097(2) 0.13471(7)
C2 C -0.0609(4) -0.0910(3) 0.10286(8)
H1 H -0.0943 -0.0491 0.0647
C3 C -0.2011(4) -0.2348(3) 0.12820(9)
H2 H -0.3327 -0.2888 0.1077
C4 C -0.1442(4) -0.2972(3) 0.18377(8)
H3 H -0.2354 -0.3943 0.2020
C5 C 0.0496(5) -0.2129(3) 0.21166(8)
H4 H 0.0895 -0.2573 0.2492
C6 C 0.2806(3) 0.1525(2) 0.11021(7)
C7 C 0.4428(5) 0.2623(4) 0.15204(8)
H5 H 0.5292 0.3620 0.1310
H6 H 0.5581 0.1740 0.1698
H7 H 0.3451 0.3213 0.1822
C8 C 0.3870(4) 0.3453(2) 0.02905(7)
C9 C 0.5992(4) 0.3148(3) -0.00200(8)
H8 H 0.6668 0.1904 -0.0038
C10 C 0.2881(4) 0.5319(3) 0.03045(8)
H9 H 0.1438 0.5539 0.0508
N1B N 0.8127(3) 1.0704(3) -0.18884(6)
N2B N 0.7392(3) 0.8135(2) -0.05548(6)
C1B C 0.8704(3) 1.0097(2) -0.13471(7)
C2B C 1.0609(4) 1.0910(3) -0.10286(8)
H1B H 1.0943 1.0491 -0.0647
C3B C 1.2011(4) 1.2348(3) -0.12820(9)
H2B H 1.3327 1.2888 -0.1077
C4B C 1.1442(4) 1.2972(3) -0.18377(8)
H3B H 1.2354 1.3943 -0.2020
C5B C 0.9504(5) 1.2129(3) -0.21166(8)
H4B H 0.9105 1.2573 -0.2492
C6B C 0.7194(3) 0.8475(2) -0.11021(7)
C7B C 0.5572(5) 0.7377(4) -0.15204(8)
H5B H 0.4708 0.6380 -0.1310
H6B H 0.4419 0.8260 -0.1698
H7B H 0.6549 0.6787 -0.1822
C8B C 0.6130(4) 0.6547(2) -0.02905(7)
C9B C 0.4008(4) 0.6852(3) 0.00200(8)
H8B H 0.3332 0.8096 0.0038
C10B C 0.7119(4) 0.4681(3) -0.03045(8)
H9B H 0.8562 0.4461 -0.0508
loop_
_geom_bond_atom_site_label_1
_geom_bond_atom_site_label_2
_geom_bond_site_symmetry_1
_geom_bond_site_symmetry_2
N1 C1 1_555 1_555
N2 C6 1_555 1_555
C1 C2 1_555 1_555
C2 H1 1_555 1_555
C3 C2 1_555 1_555
H2 C3 1_555 1_555
C4 C3 1_555 1_555
H3 C4 1_555 1_555
C5 N1 1_555 1_555
H4 C5 1_555 1_555
C6 C1 1_555 1_555
C7 C6 1_555 1_555
H5 C7 1_555 1_555
H6 C7 1_555 1_555
H7 C7 1_555 1_555
C8 N2 1_555 1_555
C9 C8 1_555 1_555
H8 C9 1_555 1_555
C10 C8 1_555 1_555
H9 C10 1_555 1_555
N1B C1B 1_555 1_555
N2B C6B 1_555 1_555
C1B C2B 1_555 1_555
C2B H1B 1_555 1_555
C3B C2B 1_555 1_555
H2B C3B 1_555 1_555
C4B C3B 1_555 1_555
H3B C4B 1_555 1_555
C5B N1B 1_555 1_555
H4B C5B 1_555 1_555
C6B C1B 1_555 1_555
C7B C6B 1_555 1_555
H5B C7B 1_555 1_555
H6B C7B 1_555 1_555
H7B C7B 1_555 1_555
C8B N2B 1_555 1_555
C9B C10 1_555 1_555
H8B C9B 1_555 1_555
C10B C9 1_555 1_555
H9B C10B 1_555 1_555
C4 C5 1_555 1_555
C4B C5B 1_555 1_555
C8B C9B 1_555 1_555
C8B C10B 1_555 1_555

#END
