
#######################################################################
#
#                 Cambridge Crystallographic Data Centre
#                                CCDC 
#
#######################################################################
#
# If this CIF has been generated from an entry in the Cambridge 
# Structural Database, then it will include bibliographic, chemical, 
# crystal, experimental, refinement or atomic coordinate data resulting 
# from the CCDC's data processing and validation procedures.
#
#######################################################################

data_XAZZIJ
_chemical_name_common            
3-Methyl-1-phenyl-4-[(Z)-phenyl(4-acetamidoanilino)methylidene]-1H-pyrazol-5(4H)-one
_chemical_formula_moiety         'C25 H22 N4 O2'
_chemical_name_systematic        
N-(4-(((3-Methyl-5-oxo-1-phenyl-1,5-dihydro-4H-pyrazol-4-ylidene)(phenyl)methyl)amino)phenyl)acetamide
_symmetry_cell_setting           monoclinic
_symmetry_space_group_name_H-M   'P 21/n'
_symmetry_Int_Tables_number      14
_space_group_name_Hall           '-P 2yn'
loop_
_symmetry_equiv_pos_site_id
_symmetry_equiv_pos_as_xyz
1 x,y,z
2 1/2-x,1/2+y,1/2-z
3 -x,-y,-z
4 1/2+x,1/2-y,1/2+z
_cell_length_a                   7.1800(4)
_cell_length_b                   11.0562(7)
_cell_length_c                   27.3932(16)
_cell_angle_alpha                90
_cell_angle_beta                 95.138(4)
_cell_angle_gamma                90
_cell_volume                     2165.83
_exptl_crystal_colour            yellow
_exptl_crystal_description       block
_chemical_melting_point          '567 K'
_cell_formula_units_Z            4
loop_
_atom_site_label
_atom_site_type_symbol
_atom_site_fract_x
_atom_site_fract_y
_atom_site_fract_z
C1 C 1.1453(4) 0.8096(3) 0.15116(9)
H1 H 1.2285 0.8712 0.1610
C2 C 0.9601(4) 0.8167(2) 0.16072(10)
H2 H 0.9189 0.8829 0.1777
C3 C 0.8358(3) 0.7268(2) 0.14534(8)
H3 H 0.7110 0.7325 0.1517
C4 C 0.8971(3) 0.62867(18) 0.12057(7)
C5 C 1.0823(3) 0.6204(2) 0.11169(8)
H4 H 1.1247 0.5535 0.0953
C6 C 1.2045(3) 0.7111(2) 0.12710(9)
H5 H 1.3295 0.7051 0.1210
C7 C 0.6243(3) 0.48691(17) 0.12369(7)
C8 C 0.5483(3) 0.39817(17) 0.08929(6)
C9 C 0.6660(3) 0.40227(18) 0.04957(7)
C10 C 0.6607(4) 0.3296(2) 0.00387(8)
H6 H 0.7596 0.3552 -0.0151
H7 H 0.5424 0.3410 -0.0148
H8 H 0.6766 0.2456 0.0121
C11 C 0.4038(3) 0.31978(17) 0.09954(6)
C12 C 0.3277(3) 0.22780(18) 0.06380(6)
C13 C 0.3630(3) 0.10682(19) 0.07272(8)
H9 H 0.4253 0.0827 0.1023
C14 C 0.3063(4) 0.0220(2) 0.03798(9)
H10 H 0.3336 -0.0593 0.0438
C15 C 0.2096(4) 0.0564(3) -0.00520(9)
H11 H 0.1720 -0.0014 -0.0287
C16 C 0.1685(4) 0.1755(3) -0.01361(8)
H12 H 0.0998 0.1984 -0.0425
C17 C 0.2282(3) 0.2620(2) 0.02036(7)
H13 H 0.2018 0.3432 0.0142
C18 C 0.1978(3) 0.25908(17) 0.16386(7)
C19 C 0.2328(3) 0.21907(19) 0.21160(7)
H14 H 0.3489 0.2333 0.2285
C20 C 0.0977(3) 0.15856(18) 0.23422(7)
H15 H 0.1231 0.1323 0.2664
C21 C -0.0763(3) 0.13596(17) 0.20977(6)
C22 C -0.1115(3) 0.17695(19) 0.16203(7)
H16 H -0.2276 0.1631 0.1451
C23 C 0.0252(3) 0.2384(2) 0.13947(7)
H17 H -0.0001 0.2660 0.1075
C24 C -0.3715(3) 0.02447(19) 0.21917(8)
C25 C -0.4773(3) -0.0323(2) 0.25790(9)
H18 H -0.5909 -0.0673 0.2430
H19 H -0.5068 0.0283 0.2811
H20 H -0.4021 -0.0942 0.2744
O1 O 0.57427(19) 0.51393(13) 0.16510(5)
O2 O -0.4273(2) 0.02170(19) 0.17623(6)
N1 N 0.7704(2) 0.53743(15) 0.10245(6)
N2 N 0.7976(2) 0.48311(15) 0.05741(6)
N3 N 0.3406(2) 0.32684(15) 0.14348(5)
H21 H 0.3941 0.3806 0.1626
N4 N -0.2087(2) 0.07663(15) 0.23616(5)
H22 H -0.1822 0.0732 0.2674
loop_
_geom_bond_atom_site_label_1
_geom_bond_atom_site_label_2
_geom_bond_site_symmetry_1
_geom_bond_site_symmetry_2
C1 H1 1_555 1_555
C2 C1 1_555 1_555
H2 C2 1_555 1_555
C3 C2 1_555 1_555
H3 C3 1_555 1_555
C4 C3 1_555 1_555
C5 C4 1_555 1_555
H4 C5 1_555 1_555
C6 C1 1_555 1_555
H5 C6 1_555 1_555
C7 C8 1_555 1_555
C8 C9 1_555 1_555
C9 C10 1_555 1_555
C10 H6 1_555 1_555
H7 C10 1_555 1_555
H8 C10 1_555 1_555
C11 C8 1_555 1_555
C12 C11 1_555 1_555
C13 C12 1_555 1_555
H9 C13 1_555 1_555
C14 C13 1_555 1_555
H10 C14 1_555 1_555
C15 C14 1_555 1_555
H11 C15 1_555 1_555
C16 C15 1_555 1_555
H12 C16 1_555 1_555
C17 C12 1_555 1_555
H13 C17 1_555 1_555
C18 C19 1_555 1_555
C19 H14 1_555 1_555
C20 C19 1_555 1_555
H15 C20 1_555 1_555
C21 C20 1_555 1_555
C22 C21 1_555 1_555
H16 C22 1_555 1_555
C23 C18 1_555 1_555
H17 C23 1_555 1_555
C24 C25 1_555 1_555
C25 H18 1_555 1_555
H19 C25 1_555 1_555
H20 C25 1_555 1_555
O1 C7 1_555 1_555
O2 C24 1_555 1_555
N1 C4 1_555 1_555
N2 C9 1_555 1_555
N3 C11 1_555 1_555
H21 N3 1_555 1_555
N4 C21 1_555 1_555
H22 N4 1_555 1_555
C5 C6 1_555 1_555
C7 N1 1_555 1_555
C16 C17 1_555 1_555
C18 N3 1_555 1_555
C22 C23 1_555 1_555
C24 N4 1_555 1_555
N1 N2 1_555 1_555

#END
