
#######################################################################
#
#                 Cambridge Crystallographic Data Centre
#                                CCDC 
#
#######################################################################
#
# If this CIF has been generated from an entry in the Cambridge 
# Structural Database, then it will include bibliographic, chemical, 
# crystal, experimental, refinement or atomic coordinate data resulting 
# from the CCDC's data processing and validation procedures.
#
#######################################################################

data_XEBBEM
_chemical_formula_moiety         'C26 H30 B10 P2'
_chemical_name_systematic        
1,2-bis(Diphenylphosphino)-1,2-dicarba-closo-dodecaborane
_symmetry_cell_setting           monoclinic
_symmetry_space_group_name_H-M   'P 21/n'
_symmetry_Int_Tables_number      14
_space_group_name_Hall           '-P 2yn'
loop_
_symmetry_equiv_pos_site_id
_symmetry_equiv_pos_as_xyz
1 x,y,z
2 1/2-x,1/2+y,1/2-z
3 -x,-y,-z
4 1/2+x,1/2-y,1/2+z
_cell_length_a                   16.315(6)
_cell_length_b                   10.387(4)
_cell_length_c                   17.768(6)
_cell_angle_alpha                90
_cell_angle_beta                 111.845(5)
_cell_angle_gamma                90
_cell_volume                     2794.82
_exptl_crystal_colour            white
_exptl_crystal_description       block
_chemical_melting_point          '490-493 K'
_cell_formula_units_Z            4
_exptl_crystal_recrystallization_method 'petroleum ether'
loop_
_atom_site_label
_atom_site_type_symbol
_atom_site_fract_x
_atom_site_fract_y
_atom_site_fract_z
P1 P -0.03941(5) 0.84048(8) 0.23665(5)
P2 P 0.03034(6) 1.08544(8) 0.35597(5)
B1 B -0.0029(3) 1.0920(4) 0.1748(2)
H1 H -0.0728 1.1156 0.1603
B2 B 0.0821(3) 1.2093(4) 0.2122(2)
H2 H 0.0678 1.3104 0.2211
B3 B 0.1774(3) 1.1308(4) 0.2801(2)
H3 H 0.2246 1.1807 0.3331
B4 B 0.1507(2) 0.9656(4) 0.2841(2)
H4 H 0.1794 0.9085 0.3399
B5 B 0.1270(2) 0.8981(4) 0.1854(2)
H5 H 0.1415 0.7970 0.1768
B6 B 0.0312(3) 0.9769(4) 0.1177(2)
H6 H -0.0166 0.9268 0.0651
B7 B 0.0557(3) 1.1435(4) 0.1144(2)
H7 H 0.0238 1.2017 0.0595
B8 B 0.1685(3) 1.1654(4) 0.1799(3)
H8 H 0.2106 1.2380 0.1671
B9 B 0.2116(3) 1.0149(4) 0.2244(3)
H9 H 0.2816 0.9893 0.2412
B10 B 0.1376(3) 1.0232(4) 0.1216(3)
H10 H 0.1594 1.0038 0.0711
C1 C 0.0734(2) 1.0839(3) 0.27146(18)
C2 C 0.04424(19) 0.9464(3) 0.21637(18)
C3 C 0.0221(2) 0.7467(3) 0.3271(2)
C4 C 0.1008(2) 0.6802(3) 0.3427(2)
H11 H 0.1283 0.6826 0.3052
C5 C 0.1384(3) 0.6105(4) 0.4138(2)
H12 H 0.1908 0.5659 0.4235
C6 C 0.0994(3) 0.6066(4) 0.4698(2)
H13 H 0.1251 0.5594 0.5173
C7 C 0.0223(3) 0.6722(4) 0.4557(3)
H14 H -0.0042 0.6697 0.4939
C8 C -0.0165(3) 0.7424(3) 0.3848(2)
H15 H -0.0688 0.7868 0.3759
C9 C -0.0660(2) 0.7258(3) 0.1529(2)
C10 C -0.0212(3) 0.6125(4) 0.1512(2)
H16 H 0.0281 0.5891 0.1961
C11 C -0.0492(3) 0.5341(4) 0.0832(3)
H17 H -0.0183 0.4591 0.0827
C12 C -0.1221(3) 0.5663(5) 0.0167(3)
H18 H -0.1404 0.5134 -0.0288
C13 C -0.1678(3) 0.6754(5) 0.0172(3)
H19 H -0.2173 0.6971 -0.0280
C14 C -0.1409(2) 0.7541(4) 0.0846(2)
H20 H -0.1734 0.8277 0.0846
C15 C -0.0540(2) 1.2110(3) 0.32898(19)
C16 C -0.0449(2) 1.3426(4) 0.3204(2)
H21 H 0.0097 1.3762 0.3252
C17 C -0.1165(3) 1.4240(4) 0.3047(2)
H22 H -0.1097 1.5119 0.2989
C18 C -0.1974(3) 1.3766(5) 0.2976(2)
H23 H -0.2449 1.4321 0.2879
C19 C -0.2077(3) 1.2475(5) 0.3048(3)
H24 H -0.2626 1.2147 0.2993
C20 C -0.1366(2) 1.1652(4) 0.3202(2)
H25 H -0.1445 1.0773 0.3246
C21 C 0.1235(2) 1.1449(3) 0.44296(19)
C22 C 0.1647(3) 1.2636(4) 0.4516(2)
H26 H 0.1452 1.3231 0.4096
C23 C 0.2347(3) 1.2944(4) 0.5224(3)
H27 H 0.2618 1.3745 0.5276
C24 C 0.2644(3) 1.2073(5) 0.5847(2)
H28 H 0.3111 1.2286 0.6323
C25 C 0.2253(3) 1.0893(5) 0.5767(2)
H29 H 0.2461 1.0296 0.6186
C26 C 0.1549(3) 1.0581(4) 0.5067(2)
H30 H 0.1281 0.9780 0.5023
loop_
_geom_bond_atom_site_label_1
_geom_bond_atom_site_label_2
_geom_bond_site_symmetry_1
_geom_bond_site_symmetry_2
P1 C2 1_555 1_555
P2 C1 1_555 1_555
B1 H1 1_555 1_555
B2 B1 1_555 1_555
H2 B2 1_555 1_555
B3 B2 1_555 1_555
H3 B3 1_555 1_555
B4 B3 1_555 1_555
H4 B4 1_555 1_555
B5 B4 1_555 1_555
H5 B5 1_555 1_555
B6 B1 1_555 1_555
H6 B6 1_555 1_555
B7 B1 1_555 1_555
H7 B7 1_555 1_555
B8 B2 1_555 1_555
H8 B8 1_555 1_555
B9 B3 1_555 1_555
H9 B9 1_555 1_555
B10 B5 1_555 1_555
H10 B10 1_555 1_555
C1 B1 1_555 1_555
C2 B1 1_555 1_555
C3 P1 1_555 1_555
C4 C3 1_555 1_555
H11 C4 1_555 1_555
C5 C4 1_555 1_555
H12 C5 1_555 1_555
C6 C5 1_555 1_555
H13 C6 1_555 1_555
C7 C6 1_555 1_555
H14 C7 1_555 1_555
C8 C3 1_555 1_555
H15 C8 1_555 1_555
C9 P1 1_555 1_555
C10 C9 1_555 1_555
H16 C10 1_555 1_555
C11 C10 1_555 1_555
H17 C11 1_555 1_555
C12 C11 1_555 1_555
H18 C12 1_555 1_555
C13 C12 1_555 1_555
H19 C13 1_555 1_555
C14 C9 1_555 1_555
H20 C14 1_555 1_555
C15 P2 1_555 1_555
C16 C15 1_555 1_555
H21 C16 1_555 1_555
C17 C16 1_555 1_555
H22 C17 1_555 1_555
C18 C17 1_555 1_555
H23 C18 1_555 1_555
C19 C18 1_555 1_555
H24 C19 1_555 1_555
C20 C15 1_555 1_555
H25 C20 1_555 1_555
C21 P2 1_555 1_555
C22 C21 1_555 1_555
H26 C22 1_555 1_555
C23 C22 1_555 1_555
H27 C23 1_555 1_555
C24 C23 1_555 1_555
H28 C24 1_555 1_555
C25 C24 1_555 1_555
H29 C25 1_555 1_555
C26 C21 1_555 1_555
H30 C26 1_555 1_555
B2 B7 1_555 1_555
B2 C1 1_555 1_555
B3 B8 1_555 1_555
B3 C1 1_555 1_555
B4 B9 1_555 1_555
B4 C1 1_555 1_555
B4 C2 1_555 1_555
B5 B6 1_555 1_555
B5 B9 1_555 1_555
B5 C2 1_555 1_555
B6 B7 1_555 1_555
B6 B10 1_555 1_555
B6 C2 1_555 1_555
B7 B8 1_555 1_555
B7 B10 1_555 1_555
B8 B9 1_555 1_555
B8 B10 1_555 1_555
B9 B10 1_555 1_555
C1 C2 1_555 1_555
C7 C8 1_555 1_555
C13 C14 1_555 1_555
C19 C20 1_555 1_555
C25 C26 1_555 1_555

#END
