
#######################################################################
#
#                 Cambridge Crystallographic Data Centre
#                                CCDC 
#
#######################################################################
#
# If this CIF has been generated from an entry in the Cambridge 
# Structural Database, then it will include bibliographic, chemical, 
# crystal, experimental, refinement or atomic coordinate data resulting 
# from the CCDC's data processing and validation procedures.
#
#######################################################################

data_XEBGUH
_chemical_formula_moiety         'C16 H10 S2'
_chemical_name_systematic        
4-Benzylidene-3,4-dihydro-1\l^4^-cyclopenta(2,1-b:3,4-b')dithiophene
_symmetry_cell_setting           monoclinic
_symmetry_space_group_name_H-M   'C 2/c'
_symmetry_Int_Tables_number      15
_space_group_name_Hall           '-C 2yn'
loop_
_symmetry_equiv_pos_site_id
_symmetry_equiv_pos_as_xyz
1 x,y,z
2 1/2+x,1/2+y,z
3 -x,y,1/2-z
4 1/2-x,1/2+y,1/2-z
5 -x,-y,-z
6 1/2-x,1/2-y,-z
7 x,-y,1/2+z
8 1/2+x,1/2-y,1/2+z
_cell_length_a                   19.618(2)
_cell_length_b                   10.4720(8)
_cell_length_c                   12.0157(12)
_cell_angle_alpha                90
_cell_angle_beta                 91.525(4)
_cell_angle_gamma                90
_cell_volume                     2467.63
_exptl_crystal_colour            orange-red
_exptl_crystal_description       plate
_chemical_melting_point          '408-410 K'
_cell_formula_units_Z            8
_exptl_crystal_recrystallization_method acetonitrile
loop_
_atom_site_label
_atom_site_type_symbol
_atom_site_fract_x
_atom_site_fract_y
_atom_site_fract_z
S1 S 0.41276(3) 0.34681(6) 0.20246(6)
S2 S 0.30609(3) 0.56535(6) -0.01529(6)
C1 C 0.33082(12) 0.3631(2) 0.1519(2)
C2 C 0.29170(12) 0.4422(2) 0.07472(19)
C3 C 0.22272(12) 0.5580(2) -0.0646(2)
H1 H 0.2046 0.6124 -0.1214
C4 C 0.18543(13) 0.4658(2) -0.01358(19)
H2 H 0.1389 0.4479 -0.0312
C5 C 0.22499(12) 0.3996(2) 0.06933(19)
C6 C 0.21796(12) 0.2908(2) 0.14779(18)
C7 C 0.28757(12) 0.2722(2) 0.19526(19)
C8 C 0.32155(13) 0.1898(2) 0.2725(2)
H3 H 0.2998 0.1230 0.3115
C9 C 0.38882(14) 0.2184(2) 0.2837(2)
H4 H 0.4197 0.1727 0.3313
C10 C 0.16312(12) 0.2201(2) 0.17339(19)
H5 H 0.1716 0.1487 0.2205
C11 C 0.09204(12) 0.2404(2) 0.13714(19)
C12 C 0.05003(13) 0.1370(2) 0.1116(2)
H6 H 0.0678 0.0528 0.1172
C13 C -0.01742(14) 0.1552(2) 0.0780(2)
H7 H -0.0450 0.0836 0.0588
C14 C -0.04489(13) 0.2764(2) 0.0723(2)
H8 H -0.0911 0.2887 0.0492
C15 C -0.00416(14) 0.3798(2) 0.1006(2)
H9 H -0.0228 0.4635 0.0982
C16 C 0.06354(13) 0.3624(2) 0.1324(2)
H10 H 0.0909 0.4344 0.1512
loop_
_geom_bond_atom_site_label_1
_geom_bond_atom_site_label_2
_geom_bond_site_symmetry_1
_geom_bond_site_symmetry_2
S1 C1 1_555 1_555
S2 C2 1_555 1_555
C1 C2 1_555 1_555
C2 C5 1_555 1_555
C3 S2 1_555 1_555
H1 C3 1_555 1_555
C4 C3 1_555 1_555
H2 C4 1_555 1_555
C5 C4 1_555 1_555
C6 C5 1_555 1_555
C7 C1 1_555 1_555
C8 C7 1_555 1_555
H3 C8 1_555 1_555
C9 S1 1_555 1_555
H4 C9 1_555 1_555
C10 C6 1_555 1_555
H5 C10 1_555 1_555
C11 C10 1_555 1_555
C12 C11 1_555 1_555
H6 C12 1_555 1_555
C13 C12 1_555 1_555
H7 C13 1_555 1_555
C14 C13 1_555 1_555
H8 C14 1_555 1_555
C15 C14 1_555 1_555
H9 C15 1_555 1_555
C16 C11 1_555 1_555
H10 C16 1_555 1_555
C6 C7 1_555 1_555
C8 C9 1_555 1_555
C15 C16 1_555 1_555

#END
