
#######################################################################
#
#                 Cambridge Crystallographic Data Centre
#                                CCDC 
#
#######################################################################
#
# If this CIF has been generated from an entry in the Cambridge 
# Structural Database, then it will include bibliographic, chemical, 
# crystal, experimental, refinement or atomic coordinate data resulting 
# from the CCDC's data processing and validation procedures.
#
#######################################################################

data_XEBLIB
_chemical_formula_moiety         'C18 H23 N3'
_chemical_name_systematic        N,N-bis(pyridin-2-ylmethyl)cyclohexanamine
_symmetry_cell_setting           monoclinic
_symmetry_space_group_name_H-M   'C c'
_symmetry_Int_Tables_number      9
_space_group_name_Hall           'C -2yc'
loop_
_symmetry_equiv_pos_site_id
_symmetry_equiv_pos_as_xyz
1 x,y,z
2 x,-y,1/2+z
3 1/2+x,1/2+y,z
4 1/2+x,1/2-y,1/2+z
_cell_length_a                   6.2272(2)
_cell_length_b                   18.1729(7)
_cell_length_c                   14.3213(5)
_cell_angle_alpha                90
_cell_angle_beta                 102.118(4)
_cell_angle_gamma                90
_cell_volume                     1584.58
_exptl_crystal_colour            colorless
_exptl_crystal_description       planar
_cell_formula_units_Z            4
loop_
_atom_site_label
_atom_site_type_symbol
_atom_site_fract_x
_atom_site_fract_y
_atom_site_fract_z
C1 C 0.8715(2) 0.26180(9) 0.20552(11)
H1 H 1.0103 0.2846 0.1967
H2 H 0.9082 0.2135 0.2369
C2 C 0.7709(2) 0.31007(8) 0.27025(10)
C3 C 0.5510(2) 0.30374(9) 0.27499(11)
H3 H 0.4570 0.2709 0.2338
C4 C 0.4709(3) 0.34586(10) 0.34038(12)
H4 H 0.3215 0.3420 0.3451
C5 C 0.6111(3) 0.39369(10) 0.39884(12)
H5 H 0.5610 0.4230 0.4449
C6 C 0.8260(3) 0.39748(9) 0.38825(12)
H6 H 0.9221 0.4308 0.4278
C7 C 0.7975(3) 0.18410(9) 0.06711(11)
H7 H 0.9583 0.1856 0.0719
H8 H 0.7258 0.1839 -0.0015
C8 C 0.7384(3) 0.11434(8) 0.11310(11)
C9 C 0.5374(3) 0.10687(10) 0.14035(12)
H9 H 0.4348 0.1463 0.1310
C10 C 0.4884(3) 0.04184(10) 0.18101(13)
H10 H 0.3523 0.0358 0.2002
C11 C 0.6412(3) -0.01444(10) 0.19330(13)
H11 H 0.6137 -0.0598 0.2216
C12 C 0.8340(3) -0.00279(10) 0.16339(14)
H12 H 0.9380 -0.0417 0.1713
C13 C 0.7079(2) 0.31684(8) 0.05181(11)
H13 H 0.6855 0.3590 0.0936
C14 C 0.9088(3) 0.33578(9) 0.01086(12)
H14 H 1.0392 0.3406 0.0636
H15 H 0.9370 0.2955 -0.0315
C15 C 0.8733(3) 0.40755(10) -0.04551(13)
H16 H 1.0034 0.4179 -0.0730
H17 H 0.8567 0.4485 -0.0020
C16 C 0.6690(3) 0.40310(10) -0.12573(12)
H18 H 0.6455 0.4510 -0.1593
H19 H 0.6910 0.3652 -0.1725
C17 C 0.4681(3) 0.38384(10) -0.08605(12)
H20 H 0.3395 0.3782 -0.1395
H21 H 0.4367 0.4245 -0.0449
C18 C 0.5024(3) 0.31257(10) -0.02789(12)
H22 H 0.3726 0.3034 0.0003
H23 H 0.5165 0.2709 -0.0707
N1 N 0.7294(2) 0.24994(7) 0.11224(9)
N2 N 0.9074(2) 0.35684(7) 0.32526(10)
N3 N 0.8852(2) 0.05990(8) 0.12380(11)
loop_
_geom_bond_atom_site_label_1
_geom_bond_atom_site_label_2
_geom_bond_site_symmetry_1
_geom_bond_site_symmetry_2
C1 H1 1_555 1_555
H2 C1 1_555 1_555
C2 C1 1_555 1_555
C3 C2 1_555 1_555
H3 C3 1_555 1_555
C4 C3 1_555 1_555
H4 C4 1_555 1_555
C5 C4 1_555 1_555
H5 C5 1_555 1_555
C6 C5 1_555 1_555
H6 C6 1_555 1_555
C7 H7 1_555 1_555
H8 C7 1_555 1_555
C8 C7 1_555 1_555
C9 C8 1_555 1_555
H9 C9 1_555 1_555
C10 C9 1_555 1_555
H10 C10 1_555 1_555
C11 C10 1_555 1_555
H11 C11 1_555 1_555
C12 C11 1_555 1_555
H12 C12 1_555 1_555
C13 H13 1_555 1_555
C14 C13 1_555 1_555
H14 C14 1_555 1_555
H15 C14 1_555 1_555
C15 C14 1_555 1_555
H16 C15 1_555 1_555
H17 C15 1_555 1_555
C16 C15 1_555 1_555
H18 C16 1_555 1_555
H19 C16 1_555 1_555
C17 C16 1_555 1_555
H20 C17 1_555 1_555
H21 C17 1_555 1_555
C18 C13 1_555 1_555
H22 C18 1_555 1_555
H23 C18 1_555 1_555
N1 C1 1_555 1_555
N2 C2 1_555 1_555
N3 C8 1_555 1_555
C6 N2 1_555 1_555
C7 N1 1_555 1_555
C12 N3 1_555 1_555
C13 N1 1_555 1_555
C17 C18 1_555 1_555

#END
