
#######################################################################
#
#                 Cambridge Crystallographic Data Centre
#                                CCDC 
#
#######################################################################
#
# If this CIF has been generated from an entry in the Cambridge 
# Structural Database, then it will include bibliographic, chemical, 
# crystal, experimental, refinement or atomic coordinate data resulting 
# from the CCDC's data processing and validation procedures.
#
#######################################################################

data_XEBLAS
_chemical_formula_moiety         'C14 H22 O4 S1'
_chemical_name_systematic        
(4aRS,7RS,9aSR)-7-t-butyl-9a-methyl-5,5-dioxo-1,2,4a,9a-tetrahydro-8-oxa-5\l^6^-thiabenzocycloheptan-9-one
_symmetry_cell_setting           monoclinic
_symmetry_space_group_name_H-M   'P 21/c'
_symmetry_Int_Tables_number      14
_space_group_name_Hall           '-P 2ybc'
loop_
_symmetry_equiv_pos_site_id
_symmetry_equiv_pos_as_xyz
1 x,y,z
2 -x,1/2+y,1/2-z
3 -x,-y,-z
4 x,1/2-y,1/2+z
_cell_length_a                   15.5204(7)
_cell_length_b                   9.8367(4)
_cell_length_c                   23.0445(10)
_cell_angle_alpha                90
_cell_angle_beta                 124.6260(10)
_cell_angle_gamma                90
_cell_volume                     2895.05
_exptl_crystal_colour            colorless
_exptl_crystal_description       block
_cell_formula_units_Z            8
_exptl_crystal_recrystallization_method 'ethyl acetate'
loop_
_atom_site_label
_atom_site_type_symbol
_atom_site_fract_x
_atom_site_fract_y
_atom_site_fract_z
C1 C 0.56271(9) 0.31776(12) 0.15960(6)
H1 H 0.6039 0.4000 0.1868
C2 C 0.48733(10) 0.36073(13) 0.08363(6)
H2 H 0.4244 0.4052 0.0706
C3 C 0.50479(10) 0.33945(15) 0.03439(7)
H3 H 0.4530 0.3666 -0.0126
C4 C 0.60266(11) 0.27443(16) 0.04986(7)
H4 H 0.6305 0.3288 0.0278
H5 H 0.5859 0.1826 0.0285
C5 C 0.68671(10) 0.26253(15) 0.12893(7)
H6 H 0.7187 0.3529 0.1477
H7 H 0.7424 0.2002 0.1366
C6 C 0.64168(9) 0.20860(12) 0.17001(6)
C7 C 0.73797(9) 0.19288(12) 0.24652(6)
C8 C 0.59384(10) 0.06641(13) 0.14206(7)
H8 H 0.6439 0.0092 0.1401
H9 H 0.5292 0.0749 0.0947
H10 H 0.5780 0.0248 0.1736
C9 C 0.57710(9) 0.20183(12) 0.27544(6)
H11 H 0.5444 0.1921 0.3016
H12 H 0.5982 0.1102 0.2701
C10 C 0.67399(9) 0.29122(12) 0.31767(6)
H13 H 0.6521 0.3884 0.3055
C11 C 0.73170(10) 0.27344(12) 0.39810(6)
C12 C 0.82760(11) 0.36743(13) 0.43577(7)
H14 H 0.8643 0.3573 0.4869
H15 H 0.8048 0.4619 0.4224
H16 H 0.8749 0.3430 0.4220
C13 C 0.76640(12) 0.12601(14) 0.41940(8)
H17 H 0.8026 0.1165 0.4705
H18 H 0.8139 0.1005 0.4060
H19 H 0.7049 0.0665 0.3953
C14 C 0.65795(12) 0.31652(16) 0.41897(8)
H20 H 0.6017 0.2494 0.4014
H21 H 0.6277 0.4056 0.3984
H22 H 0.6973 0.3221 0.4705
O1 O 0.75025(7) 0.26132(11) 0.30171(5)
O2 O 0.81138(7) 0.12546(10) 0.25888(5)
O3 O 0.44413(7) 0.39477(9) 0.20021(5)
O4 O 0.41027(7) 0.16524(9) 0.14798(5)
S1 S 0.48443(2) 0.27000(3) 0.191055(15)
C15 C 0.91567(9) 0.81879(11) 0.30775(6)
H23 H 0.8856 0.9038 0.2792
C16 C 0.96606(9) 0.85685(12) 0.38410(6)
H24 H 1.0342 0.8957 0.4095
C17 C 0.91974(10) 0.83864(13) 0.41727(6)
H25 H 0.9565 0.8636 0.4656
C18 C 0.81195(10) 0.78037(13) 0.38187(7)
H26 H 0.7711 0.8365 0.3938
H27 H 0.8169 0.6873 0.3999
C19 C 0.75484(9) 0.77511(13) 0.30203(6)
H28 H 0.7322 0.8680 0.2826
H29 H 0.6914 0.7181 0.2818
C20 C 0.82495(9) 0.71631(12) 0.27978(6)
C21 C 0.75265(10) 0.70549(13) 0.19906(6)
C22 C 0.85954(10) 0.57153(12) 0.30961(7)
H30 H 0.7985 0.5192 0.2992
H31 H 0.9111 0.5762 0.3608
H32 H 0.8910 0.5270 0.2878
C23 C 0.94934(9) 0.70437(12) 0.21156(6)
H33 H 0.9989 0.6923 0.1979
H34 H 0.9180 0.6147 0.2084
C24 C 0.86322(9) 0.80257(12) 0.16043(6)
H35 H 0.8883 0.8976 0.1766
C25 C 0.83126(10) 0.78739(13) 0.08382(6)
C26 C 0.92497(11) 0.82562(17) 0.08147(7)
H36 H 0.9803 0.7574 0.1072
H37 H 0.9516 0.9149 0.1034
H38 H 0.9029 0.8289 0.0323
C27 C 0.79615(10) 0.64169(13) 0.05758(7)
H39 H 0.7379 0.6175 0.0609
H40 H 0.8547 0.5792 0.0866
H41 H 0.7734 0.6350 0.0084
C28 C 0.74216(11) 0.88755(13) 0.03734(7)
H42 H 0.7227 0.8821 -0.0112
H43 H 0.7653 0.9801 0.0553
H44 H 0.6814 0.8645 0.0382
O5 O 0.76699(7) 0.78213(10) 0.15664(5)
O6 O 0.67514(8) 0.63644(12) 0.17150(5)
O7 O 1.07623(7) 0.65207(9) 0.34704(5)
O8 O 1.07662(6) 0.88352(9) 0.30531(5)
S2 S 1.01848(2) 0.76324(3) 0.299595(15)
loop_
_geom_bond_atom_site_label_1
_geom_bond_atom_site_label_2
_geom_bond_site_symmetry_1
_geom_bond_site_symmetry_2
C1 H1 1_555 1_555
C2 C1 1_555 1_555
H2 C2 1_555 1_555
C3 C2 1_555 1_555
H3 C3 1_555 1_555
C4 C3 1_555 1_555
H4 C4 1_555 1_555
H5 C4 1_555 1_555
C5 C4 1_555 1_555
H6 C5 1_555 1_555
H7 C5 1_555 1_555
C6 C1 1_555 1_555
C7 C6 1_555 1_555
C8 C6 1_555 1_555
H8 C8 1_555 1_555
H9 C8 1_555 1_555
H10 C8 1_555 1_555
C9 H11 1_555 1_555
H12 C9 1_555 1_555
C10 C9 1_555 1_555
H13 C10 1_555 1_555
C11 C10 1_555 1_555
C12 C11 1_555 1_555
H14 C12 1_555 1_555
H15 C12 1_555 1_555
H16 C12 1_555 1_555
C13 C11 1_555 1_555
H17 C13 1_555 1_555
H18 C13 1_555 1_555
H19 C13 1_555 1_555
C14 C11 1_555 1_555
H20 C14 1_555 1_555
H21 C14 1_555 1_555
H22 C14 1_555 1_555
O1 C7 1_555 1_555
O2 C7 1_555 1_555
O3 S1 1_555 1_555
O4 S1 1_555 1_555
S1 C1 1_555 1_555
C15 H23 1_555 1_555
C16 C15 1_555 1_555
H24 C16 1_555 1_555
C17 C16 1_555 1_555
H25 C17 1_555 1_555
C18 C17 1_555 1_555
H26 C18 1_555 1_555
H27 C18 1_555 1_555
C19 C18 1_555 1_555
H28 C19 1_555 1_555
H29 C19 1_555 1_555
C20 C15 1_555 1_555
C21 C20 1_555 1_555
C22 C20 1_555 1_555
H30 C22 1_555 1_555
H31 C22 1_555 1_555
H32 C22 1_555 1_555
C23 H33 1_555 1_555
H34 C23 1_555 1_555
C24 C23 1_555 1_555
H35 C24 1_555 1_555
C25 C24 1_555 1_555
C26 C25 1_555 1_555
H36 C26 1_555 1_555
H37 C26 1_555 1_555
H38 C26 1_555 1_555
C27 C25 1_555 1_555
H39 C27 1_555 1_555
H40 C27 1_555 1_555
H41 C27 1_555 1_555
C28 C25 1_555 1_555
H42 C28 1_555 1_555
H43 C28 1_555 1_555
H44 C28 1_555 1_555
O5 C21 1_555 1_555
O6 C21 1_555 1_555
O7 S2 1_555 1_555
O8 S2 1_555 1_555
S2 C15 1_555 1_555
C5 C6 1_555 1_555
C9 S1 1_555 1_555
C10 O1 1_555 1_555
C19 C20 1_555 1_555
C23 S2 1_555 1_555
C24 O5 1_555 1_555

#END
