
#######################################################################
#
#                 Cambridge Crystallographic Data Centre
#                                CCDC 
#
#######################################################################
#
# If this CIF has been generated from an entry in the Cambridge 
# Structural Database, then it will include bibliographic, chemical, 
# crystal, experimental, refinement or atomic coordinate data resulting 
# from the CCDC's data processing and validation procedures.
#
#######################################################################

data_XEBMOH
_chemical_name_common            '2alpha-Bromo-argentatin B'
_chemical_formula_moiety         'C30 H47 Br1 O3'
_chemical_name_systematic        
2\a-Bromo-(16\b,24R)-16,24-epoxy-25-hydroxycycloartan-3-one
_chemical_properties_biological  
'Some activity against HCT-15, K562, PC-3 and U251 human cancer cell lines'
_symmetry_cell_setting           orthorhombic
_symmetry_space_group_name_H-M   'P 21 21 21'
_symmetry_Int_Tables_number      19
_space_group_name_Hall           'P 2ac 2ab'
loop_
_symmetry_equiv_pos_site_id
_symmetry_equiv_pos_as_xyz
1 x,y,z
2 1/2-x,-y,1/2+z
3 -x,1/2+y,1/2-z
4 1/2+x,1/2-y,-z
_cell_length_a                   8.2854(18)
_cell_length_b                   12.129(3)
_cell_length_c                   27.310(6)
_cell_angle_alpha                90
_cell_angle_beta                 90
_cell_angle_gamma                90
_cell_volume                     2744.48
_exptl_crystal_colour            colorless
_exptl_crystal_description       Prism
_chemical_melting_point          156-159deg.C
_cell_formula_units_Z            4
loop_
_atom_site_label
_atom_site_type_symbol
_atom_site_fract_x
_atom_site_fract_y
_atom_site_fract_z
Br1 Br 0.13180(5) 0.08065(3) 0.214884(15)
O1 O 0.4759(3) 0.0960(2) 0.18351(10)
O2 O 0.1576(3) 0.96114(15) 0.08951(7)
O3 O 0.3289(4) 1.14528(19) 0.07125(11)
H1 H 0.350(6) 1.095(3) 0.0823(15)
C1 C 0.1738(4) 0.2983(2) 0.17764(12)
H2 H 0.1537 0.2684 0.1453
H3 H 0.0706 0.3162 0.1925
C2 C 0.2618(4) 0.2128(2) 0.20900(14)
H4 H 0.2722 0.2441 0.2419
C3 C 0.4280(5) 0.1898(3) 0.19108(13)
C4 C 0.5365(4) 0.2893(3) 0.18263(15)
C5 C 0.4403(4) 0.3748(2) 0.15180(12)
H5 H 0.4179 0.3383 0.1205
C6 C 0.5362(4) 0.4780(3) 0.13881(13)
H6 H 0.5630 0.5184 0.1684
H7 H 0.6360 0.4575 0.1226
C7 C 0.4350(3) 0.5501(2) 0.10498(12)
H8 H 0.5009 0.6100 0.0925
H9 H 0.3986 0.5066 0.0773
C8 C 0.2898(4) 0.5972(2) 0.13161(12)
H10 H 0.3346 0.6469 0.1564
C9 C 0.1935(4) 0.5106(2) 0.16036(12)
C10 C 0.2758(4) 0.4015(2) 0.17355(11)
C11 C 0.0108(4) 0.5061(2) 0.15132(12)
H11 H -0.0390 0.4746 0.1803
H12 H -0.0080 0.4550 0.1246
C12 C -0.0798(3) 0.6142(2) 0.13917(12)
H13 H -0.1465 0.6023 0.1105
H14 H -0.1507 0.6324 0.1662
C13 C 0.0329(4) 0.7120(2) 0.12953(11)
C14 C 0.1812(3) 0.6700(2) 0.09957(11)
C15 C 0.2593(4) 0.7793(2) 0.08296(13)
H15 H 0.3249 0.8104 0.1089
H16 H 0.3265 0.7678 0.0543
C16 C 0.1183(4) 0.8546(2) 0.07098(11)
H17 H 0.1036 0.8584 0.0354
C17 C -0.0357(4) 0.8042(2) 0.09528(11)
H18 H -0.0962 0.7670 0.0693
C18 C 0.0850(4) 0.7630(2) 0.17862(11)
H19 H -0.0068 0.7961 0.1943
H20 H 0.1658 0.8182 0.1729
H21 H 0.1285 0.7064 0.1994
C19 C 0.2528(4) 0.4877(2) 0.21180(13)
H22 H 0.3476 0.5273 0.2230
H23 H 0.1724 0.4741 0.2369
C20 C -0.1492(4) 0.8909(2) 0.11750(11)
H24 H -0.0877 0.9322 0.1421
C21 C -0.2975(4) 0.8417(3) 0.14309(13)
H25 H -0.3642 0.9002 0.1554
H26 H -0.2631 0.7959 0.1698
H27 H -0.3578 0.7983 0.1201
C22 C -0.2094(4) 0.9735(3) 0.07922(12)
H28 H -0.2659 1.0320 0.0964
H29 H -0.2880 0.9362 0.0588
C23 C -0.0842(4) 1.0271(2) 0.04549(12)
H30 H -0.0621 0.9775 0.0185
H31 H -0.1298 1.0942 0.0319
C24 C 0.0725(4) 1.0549(2) 0.07064(12)
H32 H 0.0441 1.1003 0.0991
C25 C 0.1912(4) 1.1235(3) 0.04017(13)
C26 C 0.1256(5) 1.2396(2) 0.02829(12)
H33 H 0.0671 1.2674 0.0560
H34 H 0.0549 1.2354 0.0005
H35 H 0.2140 1.2880 0.0210
C27 C 0.2509(4) 1.0633(3) -0.00541(13)
H36 H 0.3299 1.1079 -0.0219
H37 H 0.1617 1.0498 -0.0270
H38 H 0.2988 0.9944 0.0040
C28 C 0.1279(4) 0.6073(2) 0.05247(10)
H39 H 0.2177 0.6015 0.0304
H40 H 0.0418 0.6469 0.0368
H41 H 0.0912 0.5348 0.0611
C29 C 0.5897(4) 0.3322(3) 0.23248(13)
H42 H 0.4973 0.3585 0.2502
H43 H 0.6652 0.3915 0.2281
H44 H 0.6402 0.2738 0.2506
C30 C 0.6852(4) 0.2503(3) 0.15393(16)
H45 H 0.7303 0.1865 0.1696
H46 H 0.7643 0.3081 0.1532
H47 H 0.6541 0.2319 0.1211
loop_
_geom_bond_atom_site_label_1
_geom_bond_atom_site_label_2
_geom_bond_site_symmetry_1
_geom_bond_site_symmetry_2
Br1 C2 1_555 1_555
O1 C3 1_555 1_555
O2 C16 1_555 1_555
O3 H1 1_555 1_555
C1 H2 1_555 1_555
H3 C1 1_555 1_555
C2 C1 1_555 1_555
H4 C2 1_555 1_555
C3 C2 1_555 1_555
C4 C3 1_555 1_555
C5 C4 1_555 1_555
H5 C5 1_555 1_555
C6 C5 1_555 1_555
H6 C6 1_555 1_555
H7 C6 1_555 1_555
C7 C6 1_555 1_555
H8 C7 1_555 1_555
H9 C7 1_555 1_555
C8 C7 1_555 1_555
H10 C8 1_555 1_555
C9 C8 1_555 1_555
C10 C1 1_555 1_555
C11 C9 1_555 1_555
H11 C11 1_555 1_555
H12 C11 1_555 1_555
C12 C11 1_555 1_555
H13 C12 1_555 1_555
H14 C12 1_555 1_555
C13 C12 1_555 1_555
C14 C8 1_555 1_555
C15 C14 1_555 1_555
H15 C15 1_555 1_555
H16 C15 1_555 1_555
C16 C15 1_555 1_555
H17 C16 1_555 1_555
C17 C13 1_555 1_555
H18 C17 1_555 1_555
C18 C13 1_555 1_555
H19 C18 1_555 1_555
H20 C18 1_555 1_555
H21 C18 1_555 1_555
C19 C9 1_555 1_555
H22 C19 1_555 1_555
H23 C19 1_555 1_555
C20 C17 1_555 1_555
H24 C20 1_555 1_555
C21 C20 1_555 1_555
H25 C21 1_555 1_555
H26 C21 1_555 1_555
H27 C21 1_555 1_555
C22 C20 1_555 1_555
H28 C22 1_555 1_555
H29 C22 1_555 1_555
C23 C22 1_555 1_555
H30 C23 1_555 1_555
H31 C23 1_555 1_555
C24 O2 1_555 1_555
H32 C24 1_555 1_555
C25 O3 1_555 1_555
C26 C25 1_555 1_555
H33 C26 1_555 1_555
H34 C26 1_555 1_555
H35 C26 1_555 1_555
C27 C25 1_555 1_555
H36 C27 1_555 1_555
H37 C27 1_555 1_555
H38 C27 1_555 1_555
C28 C14 1_555 1_555
H39 C28 1_555 1_555
H40 C28 1_555 1_555
H41 C28 1_555 1_555
C29 C4 1_555 1_555
H42 C29 1_555 1_555
H43 C29 1_555 1_555
H44 C29 1_555 1_555
C30 C4 1_555 1_555
H45 C30 1_555 1_555
H46 C30 1_555 1_555
H47 C30 1_555 1_555
C5 C10 1_555 1_555
C9 C10 1_555 1_555
C10 C19 1_555 1_555
C13 C14 1_555 1_555
C16 C17 1_555 1_555
C23 C24 1_555 1_555
C24 C25 1_555 1_555

#END
