
#######################################################################
#
#                 Cambridge Crystallographic Data Centre
#                                CCDC 
#
#######################################################################
#
# If this CIF has been generated from an entry in the Cambridge 
# Structural Database, then it will include bibliographic, chemical, 
# crystal, experimental, refinement or atomic coordinate data resulting 
# from the CCDC's data processing and validation procedures.
#
#######################################################################

data_XEBMIB
_chemical_name_common            'Argentatin B'
_chemical_formula_moiety         'C30 H48 O3'
_chemical_name_systematic        
(16\b,24R)-16,24-Epoxy-25-hydroxycycloartan-3-one
_chemical_properties_biological  
'Some activity against HCT-15, K562, PC-3 and U251 human cancer cell lines'
_symmetry_cell_setting           orthorhombic
_symmetry_space_group_name_H-M   'P 21 21 21'
_symmetry_Int_Tables_number      19
_space_group_name_Hall           'P 2ac 2ab'
loop_
_symmetry_equiv_pos_site_id
_symmetry_equiv_pos_as_xyz
1 x,y,z
2 1/2-x,-y,1/2+z
3 -x,1/2+y,1/2-z
4 1/2+x,1/2-y,-z
_cell_length_a                   6.3338(6)
_cell_length_b                   14.049(1)
_cell_length_c                   30.046(3)
_cell_angle_alpha                90
_cell_angle_beta                 90
_cell_angle_gamma                90
_cell_volume                     2673.6
_exptl_crystal_colour            colorless
_exptl_crystal_description       Prism
_cell_formula_units_Z            4
loop_
_atom_site_label
_atom_site_type_symbol
_atom_site_fract_x
_atom_site_fract_y
_atom_site_fract_z
O1 O 1.1011(4) 0.92102(17) 0.51039(7)
O2 O 0.4462(3) 0.88987(12) 0.85436(6)
O3 O 0.1503(4) 0.78162(16) 0.89005(6)
H1 H 0.206(5) 0.801(2) 0.8640(8)
C1 C 1.0898(4) 1.01974(19) 0.61804(8)
H2 H 1.2173 0.9834 0.6237
H3 H 1.1048 1.0814 0.6322
C2 C 1.0612(5) 1.03312(19) 0.56780(9)
H4 H 0.9490 1.0788 0.5626
H5 H 1.1903 1.0590 0.5553
C3 C 1.0084(5) 0.9413(3) 0.54439(10)
C4 C 0.8370(5) 0.8784(2) 0.56417(9)
C5 C 0.8703(4) 0.87278(18) 0.61582(8)
H6 H 1.0054 0.8397 0.6196
C6 C 0.7100(5) 0.81070(18) 0.63970(8)
H7 H 0.7093 0.7475 0.6267
H8 H 0.5699 0.8377 0.6364
C7 C 0.7676(5) 0.80465(17) 0.68876(8)
H9 H 0.9138 0.7850 0.6916
H10 H 0.6802 0.7570 0.7031
C8 C 0.7369(4) 0.90014(16) 0.71205(8)
H11 H 0.5856 0.9141 0.7102
C9 C 0.8484(4) 0.98128(18) 0.68708(9)
C10 C 0.9018(4) 0.9681(2) 0.63755(9)
C11 C 0.9974(4) 1.04419(17) 0.71389(8)
H12 H 1.0092 1.1048 0.6986
H13 H 1.1360 1.0149 0.7134
C12 C 0.9396(4) 1.06467(17) 0.76311(8)
H14 H 1.0647 1.0561 0.7813
H15 H 0.8966 1.1307 0.7657
C13 C 0.7641(4) 1.00175(16) 0.78135(8)
C14 C 0.7908(4) 0.89999(17) 0.76171(9)
C15 C 0.6366(4) 0.84210(17) 0.79006(8)
H16 H 0.6746 0.7752 0.7899
H17 H 0.4936 0.8487 0.7790
C16 C 0.6556(4) 0.88358(18) 0.83709(8)
H18 H 0.7407 0.8412 0.8558
C17 C 0.7670(4) 0.98192(16) 0.83248(8)
H19 H 0.9148 0.9732 0.8412
C18 C 0.5509(4) 1.04565(16) 0.76787(8)
H20 H 0.5460 1.0530 0.7361
H21 H 0.5354 1.1067 0.7818
H22 H 0.4383 1.0046 0.7773
C19 C 0.7181(4) 1.03037(17) 0.65143(8)
H23 H 0.5767 1.0066 0.6460
H24 H 0.7340 1.0987 0.6482
C20 C 0.6721(4) 1.05769(17) 0.86357(9)
H25 H 0.5218 1.0646 0.8565
C21 C 0.7792(4) 1.15510(16) 0.85786(8)
H26 H 0.9288 1.1483 0.8618
H27 H 0.7249 1.1986 0.8797
H28 H 0.7506 1.1792 0.8286
C22 C 0.6932(5) 1.03049(19) 0.91313(8)
H29 H 0.8408 1.0357 0.9214
H30 H 0.6158 1.0769 0.9306
C23 C 0.6156(4) 0.9312(2) 0.92621(8)
H31 H 0.7270 0.8855 0.9203
H32 H 0.5878 0.9303 0.9580
C24 C 0.4195(5) 0.9002(2) 0.90203(9)
H33 H 0.3140 0.9503 0.9066
C25 C 0.3216(5) 0.8070(2) 0.91935(10)
C26 C 0.4810(5) 0.72578(18) 0.91964(9)
H34 H 0.5406 0.7187 0.8905
H35 H 0.4115 0.6678 0.9281
H36 H 0.5912 0.7397 0.9406
C27 C 0.2229(5) 0.8203(2) 0.96470(8)
H37 H 0.1439 0.7643 0.9725
H38 H 0.1301 0.8743 0.9641
H39 H 0.3318 0.8306 0.9864
C28 C 1.0147(4) 0.86023(16) 0.76970(8)
H40 H 1.0126 0.7922 0.7667
H41 H 1.0605 0.8768 0.7991
H42 H 1.1102 0.8869 0.7482
C29 C 0.8494(5) 0.78070(19) 0.54300(8)
H43 H 0.8481 0.7871 0.5112
H44 H 0.7304 0.7433 0.5523
H45 H 0.9775 0.7498 0.5521
C30 C 0.6249(4) 0.9244(2) 0.55184(8)
H46 H 0.6113 0.9268 0.5200
H47 H 0.6194 0.9879 0.5637
H48 H 0.5115 0.8874 0.5641
loop_
_geom_bond_atom_site_label_1
_geom_bond_atom_site_label_2
_geom_bond_site_symmetry_1
_geom_bond_site_symmetry_2
O1 C3 1_555 1_555
O2 C16 1_555 1_555
O3 H1 1_555 1_555
C1 H2 1_555 1_555
H3 C1 1_555 1_555
C2 C1 1_555 1_555
H4 C2 1_555 1_555
H5 C2 1_555 1_555
C3 C2 1_555 1_555
C4 C3 1_555 1_555
C5 C4 1_555 1_555
H6 C5 1_555 1_555
C6 C5 1_555 1_555
H7 C6 1_555 1_555
H8 C6 1_555 1_555
C7 C6 1_555 1_555
H9 C7 1_555 1_555
H10 C7 1_555 1_555
C8 C7 1_555 1_555
H11 C8 1_555 1_555
C9 C8 1_555 1_555
C10 C1 1_555 1_555
C11 C9 1_555 1_555
H12 C11 1_555 1_555
H13 C11 1_555 1_555
C12 C11 1_555 1_555
H14 C12 1_555 1_555
H15 C12 1_555 1_555
C13 C12 1_555 1_555
C14 C8 1_555 1_555
C15 C14 1_555 1_555
H16 C15 1_555 1_555
H17 C15 1_555 1_555
C16 C15 1_555 1_555
H18 C16 1_555 1_555
C17 C13 1_555 1_555
H19 C17 1_555 1_555
C18 C13 1_555 1_555
H20 C18 1_555 1_555
H21 C18 1_555 1_555
H22 C18 1_555 1_555
C19 C9 1_555 1_555
H23 C19 1_555 1_555
H24 C19 1_555 1_555
C20 C17 1_555 1_555
H25 C20 1_555 1_555
C21 C20 1_555 1_555
H26 C21 1_555 1_555
H27 C21 1_555 1_555
H28 C21 1_555 1_555
C22 C20 1_555 1_555
H29 C22 1_555 1_555
H30 C22 1_555 1_555
C23 C22 1_555 1_555
H31 C23 1_555 1_555
H32 C23 1_555 1_555
C24 O2 1_555 1_555
H33 C24 1_555 1_555
C25 O3 1_555 1_555
C26 C25 1_555 1_555
H34 C26 1_555 1_555
H35 C26 1_555 1_555
H36 C26 1_555 1_555
C27 C25 1_555 1_555
H37 C27 1_555 1_555
H38 C27 1_555 1_555
H39 C27 1_555 1_555
C28 C14 1_555 1_555
H40 C28 1_555 1_555
H41 C28 1_555 1_555
H42 C28 1_555 1_555
C29 C4 1_555 1_555
H43 C29 1_555 1_555
H44 C29 1_555 1_555
H45 C29 1_555 1_555
C30 C4 1_555 1_555
H46 C30 1_555 1_555
H47 C30 1_555 1_555
H48 C30 1_555 1_555
C5 C10 1_555 1_555
C9 C10 1_555 1_555
C10 C19 1_555 1_555
C13 C14 1_555 1_555
C16 C17 1_555 1_555
C23 C24 1_555 1_555
C24 C25 1_555 1_555

#END
