
#######################################################################
#
#                 Cambridge Crystallographic Data Centre
#                                CCDC 
#
#######################################################################
#
# If this CIF has been generated from an entry in the Cambridge 
# Structural Database, then it will include bibliographic, chemical, 
# crystal, experimental, refinement or atomic coordinate data resulting 
# from the CCDC's data processing and validation procedures.
#
#######################################################################

data_XEBQIE
_chemical_formula_moiety         'C13 H16 B1 N1 O1'
_chemical_name_systematic        Diethyl-(8-oxoquinoline)borate
_symmetry_cell_setting           orthorhombic
_symmetry_space_group_name_H-M   'P b c a'
_symmetry_Int_Tables_number      61
_space_group_name_Hall           '-P 2ac 2ab'
loop_
_symmetry_equiv_pos_site_id
_symmetry_equiv_pos_as_xyz
1 x,y,z
2 1/2-x,-y,1/2+z
3 1/2+x,1/2-y,-z
4 -x,1/2+y,1/2-z
5 -x,-y,-z
6 1/2+x,y,1/2-z
7 1/2-x,1/2+y,z
8 x,1/2-y,1/2+z
_cell_length_a                   13.248(3)
_cell_length_b                   7.782(2)
_cell_length_c                   23.206(5)
_cell_angle_alpha                90
_cell_angle_beta                 90
_cell_angle_gamma                90
_cell_volume                     2392.44
_exptl_crystal_colour            yellow
_exptl_crystal_description       plate
_chemical_melting_point          '43 deg.C'
_cell_formula_units_Z            8
_exptl_crystal_recrystallization_method tetrahydrofuran/hexane
loop_
_atom_site_label
_atom_site_type_symbol
_atom_site_fract_x
_atom_site_fract_y
_atom_site_fract_z
O1 O 0.4719(2) 0.1182(3) 0.5920(1)
N1 N 0.4590(2) 0.4073(4) 0.6251(1)
C1 C 0.4291(3) 0.2188(4) 0.5522(2)
B1 B 0.4963(4) 0.2185(5) 0.6477(2)
C2 C 0.3969(3) 0.1807(5) 0.4980(2)
C3 C 0.3545(3) 0.3148(6) 0.4644(2)
C4 C 0.3466(3) 0.4811(6) 0.4830(2)
C5 C 0.3803(3) 0.5252(5) 0.5386(2)
C6 C 0.3833(3) 0.6875(5) 0.5663(2)
C7 C 0.4209(3) 0.7041(6) 0.6195(2)
C8 C 0.4602(3) 0.5631(5) 0.6495(2)
C9 C 0.4215(3) 0.3910(4) 0.5714(2)
C10 C 0.6146(4) 0.2228(6) 0.6590(2)
C11 C 0.6611(5) 0.0444(7) 0.6679(3)
C12 C 0.4250(3) 0.1597(5) 0.6989(2)
C13 C 0.3129(4) 0.1563(6) 0.6868(3)
H1 H 0.4003(29) 0.0639(58) 0.4795(16)
H2 H 0.3342(25) 0.2886(42) 0.4250(14)
H3 H 0.3148(29) 0.5625(52) 0.4571(16)
H4 H 0.3555(28) 0.7747(53) 0.5460(16)
H5 H 0.4267(30) 0.8026(59) 0.6354(17)
H6 H 0.4891(25) 0.5736(43) 0.6913(15)
H7 H 0.6304(31) 0.2905(61) 0.6938(19)
H8 H 0.6554(46) 0.2859(76) 0.6272(24)
H9 H 0.7383(38) 0.0388(47) 0.6700(15)
H10 H 0.6327(35) -0.0042(63) 0.7060(22)
H11 H 0.6451(49) -0.0216(81) 0.6272(26)
H12 H 0.4394(29) 0.2289(53) 0.7328(17)
H13 H 0.4488(32) 0.0401(58) 0.7117(17)
H14 H 0.3006(33) 0.0889(57) 0.6511(18)
H15 H 0.2667(39) 0.1219(54) 0.7141(21)
H16 H 0.2859(34) 0.2768(65) 0.6766(17)
loop_
_geom_bond_atom_site_label_1
_geom_bond_atom_site_label_2
_geom_bond_site_symmetry_1
_geom_bond_site_symmetry_2
O1 C1 1_555 1_555
N1 B1 1_555 1_555
C1 C2 1_555 1_555
B1 O1 1_555 1_555
C2 C3 1_555 1_555
C3 C4 1_555 1_555
C4 C5 1_555 1_555
C5 C6 1_555 1_555
C6 C7 1_555 1_555
C7 C8 1_555 1_555
C8 N1 1_555 1_555
C9 N1 1_555 1_555
C10 B1 1_555 1_555
C11 C10 1_555 1_555
C12 B1 1_555 1_555
C13 C12 1_555 1_555
H1 C2 1_555 1_555
H2 C3 1_555 1_555
H3 C4 1_555 1_555
H4 C6 1_555 1_555
H5 C7 1_555 1_555
H6 C8 1_555 1_555
H7 C10 1_555 1_555
H8 C10 1_555 1_555
H9 C11 1_555 1_555
H10 C11 1_555 1_555
H11 C11 1_555 1_555
H12 C12 1_555 1_555
H13 C12 1_555 1_555
H14 C13 1_555 1_555
H15 C13 1_555 1_555
H16 C13 1_555 1_555
C1 C9 1_555 1_555
C5 C9 1_555 1_555

#END
