
#######################################################################
#
#                 Cambridge Crystallographic Data Centre
#                                CCDC 
#
#######################################################################
#
# If this CIF has been generated from an entry in the Cambridge 
# Structural Database, then it will include bibliographic, chemical, 
# crystal, experimental, refinement or atomic coordinate data resulting 
# from the CCDC's data processing and validation procedures.
#
#######################################################################

data_XEBQED
_chemical_compound_source        'synthesis as described'
_chemical_formula_moiety         'C28 H22 N4 S2 2+,2.664(H2 O1),2(Br1 1-)'
_chemical_name_systematic        
"4,4'-([1,3]thiazolo[5,4-d][1,3]thiazole-2,5-diyl)bis(1-benzylpyridin-1-ium) dibromide hydrate"
_symmetry_cell_setting           triclinic
_symmetry_space_group_name_H-M   'P -1'
_symmetry_Int_Tables_number      2
_space_group_name_Hall           '-P 1'
loop_
_symmetry_equiv_pos_site_id
_symmetry_equiv_pos_as_xyz
1 x,y,z
2 -x,-y,-z
_cell_length_a                   7.5646(3)
_cell_length_b                   12.0747(7)
_cell_length_c                   16.7895(8)
_cell_angle_alpha                106.725(5)
_cell_angle_beta                 98.214(4)
_cell_angle_gamma                98.250(4)
_cell_volume                     1425.78
_exptl_crystal_colour            yellow
_exptl_crystal_description       prism
_cell_formula_units_Z            2
loop_
_atom_site_label
_atom_site_type_symbol
_atom_site_fract_x
_atom_site_fract_y
_atom_site_fract_z
C1 C 1.0770(5) 0.5087(3) 0.0303(2)
C2 C 0.8352(5) 0.6067(3) 0.0743(2)
C3 C 0.7189(5) 0.6780(4) 0.1197(2)
C4 C 0.5588(5) 0.6922(4) 0.0753(2)
H1 H 0.5247 0.6544 0.0158
C5 C 0.4500(5) 0.7605(4) 0.1168(2)
H2 H 0.3416 0.7705 0.0858
C6 C 0.6500(7) 0.8021(5) 0.2449(3)
H3 H 0.6809 0.8408 0.3044
C7 C 0.7636(7) 0.7367(5) 0.2065(3)
H4 H 0.8738 0.731 0.2388
C8 C 0.3706(5) 0.8846(4) 0.2455(3)
H5 H 0.3108 0.8414 0.2796
H6 H 0.2744 0.8944 0.203
C9 C 0.4703(5) 1.0036(4) 0.3025(2)
C10 C 0.5425(6) 1.0882(4) 0.2685(3)
H7 H 0.5296 1.0703 0.2088
C11 C 0.6340(6) 1.1998(4) 0.3219(3)
H8 H 0.6829 1.2577 0.2986
C12 C 0.6526(6) 1.2253(4) 0.4082(3)
H9 H 0.7147 1.301 0.4446
C13 C 0.5814(7) 1.1412(4) 0.4425(3)
H10 H 0.595 1.1594 0.5023
C14 C 0.4911(6) 1.0313(4) 0.3903(2)
H11 H 0.4428 0.974 0.4142
N1 N 0.7853(4) 0.5457(3) -0.0067(2)
N2 N 0.4945(4) 0.8132(3) 0.2007(2)
S1 S 1.04982(14) 0.59962(9) 0.12525(6)
C1A C 0.9230(5) 0.4913(3) -0.0303(2)
C2A C 1.1648(5) 0.3933(3) -0.0743(2)
C3A C 1.2811(5) 0.3220(4) -0.1197(2)
C4A C 1.4412(5) 0.3078(4) -0.0753(2)
H1A H 1.4753 0.3456 -0.0158
C5A C 1.5500(5) 0.2395(4) -0.1168(2)
H2A H 1.6584 0.2295 -0.0858
C6A C 1.3500(7) 0.1979(5) -0.2449(3)
H3A H 1.3191 0.1592 -0.3044
C7A C 1.2364(7) 0.2633(5) -0.2065(3)
H4A H 1.1262 0.269 -0.2388
C8A C 1.6294(5) 0.1154(4) -0.2455(3)
H5A H 1.6892 0.1586 -0.2796
H6A H 1.7256 0.1056 -0.203
C9A C 1.5297(5) -0.0036(4) -0.3025(2)
C10A C 1.4575(6) -0.0882(4) -0.2685(3)
H7A H 1.4704 -0.0703 -0.2088
C11A C 1.3660(6) -0.1998(4) -0.3219(3)
H8A H 1.3171 -0.2577 -0.2986
C12A C 1.3474(6) -0.2253(4) -0.4082(3)
H9A H 1.2853 -0.301 -0.4446
C13A C 1.4186(7) -0.1412(4) -0.4425(3)
H10A H 1.405 -0.1594 -0.5023
C14A C 1.5089(6) -0.0313(4) -0.3903(2)
H11A H 1.5572 0.026 -0.4142
N1A N 1.2147(4) 0.4543(3) 0.0067(2)
N2A N 1.5055(4) 0.1868(3) -0.2007(2)
S1A S 0.95018(14) 0.40038(9) -0.12525(6)
N3 N -0.1601(4) 0.7374(3) -0.22888(19)
N4 N 0.0064(4) 1.0194(3) -0.39027(19)
S2 S -0.09710(15) 0.82514(9) -0.51812(6)
C15 C -0.0237(5) 0.9539(3) -0.5380(2)
C16 C -0.0571(5) 0.9063(3) -0.4100(2)
C17 C -0.0922(5) 0.8464(3) -0.3476(2)
C18 C -0.0481(6) 0.9084(4) -0.2611(2)
H12 H 0.0064 0.9898 -0.2423
C19 C -0.0832(6) 0.8522(4) -0.2033(2)
H13 H -0.0529 0.8949 -0.1444
C20 C -0.2032(7) 0.6750(4) -0.3118(3)
H14 H -0.256 0.5935 -0.329
C21 C -0.1713(7) 0.7283(4) -0.3717(3)
H15 H -0.204 0.6837 -0.4302
C22 C -0.2084(5) 0.6772(4) -0.1658(3)
H16 H -0.2054 0.5922 -0.1878
H17 H -0.1192 0.7121 -0.1117
C23 C -0.4138(5) 0.6467(6) -0.1717(4)
C24 C -0.5044(8) 0.7292(5) -0.1273(4)
H18 H -0.4375 0.8029 -0.0899
C25 C -0.6930(8) 0.7037(6) -0.1378(4)
H19 H -0.755 0.7601 -0.1075
C26 C -0.7909(6) 0.5958(7) -0.1926(5)
H20 H -0.9198 0.5784 -0.1998
C27 C -0.7003(7) 0.5133(5) -0.2369(4)
H21 H -0.7672 0.4395 -0.2744
C28 C -0.5117(7) 0.5387(5) -0.2265(4)
H22 H -0.4497 0.4823 -0.2568
N3A N 0.1601(4) 1.2626(3) -0.77112(19)
N4A N -0.0064(4) 0.9806(3) -0.60973(19)
S2A S 0.09710(15) 1.17486(9) -0.48188(6)
C15A C 0.0237(5) 1.0461(3) -0.4620(2)
C16A C 0.0571(5) 1.0937(3) -0.5900(2)
C17A C 0.0922(5) 1.1536(3) -0.6524(2)
C18A C 0.0481(6) 1.0916(4) -0.7389(2)
H12A H -0.0064 1.0102 -0.7577
C19A C 0.0832(6) 1.1478(4) -0.7967(2)
H13A H 0.0529 1.1051 -0.8556
C20A C 0.2032(7) 1.3250(4) -0.6882(3)
H14A H 0.256 1.4065 -0.671
C21A C 0.1713(7) 1.2717(4) -0.6283(3)
H15A H 0.204 1.3163 -0.5698
C22A C 0.2084(5) 1.3228(4) -0.8342(3)
H16A H 0.2054 1.4078 -0.8122
H17A H 0.1192 1.2879 -0.8883
C23A C 0.4138(5) 1.3533(6) -0.8283(4)
C24A C 0.5044(8) 1.2708(5) -0.8727(4)
H18A H 0.4375 1.1971 -0.9101
C25A C 0.6930(8) 1.2963(6) -0.8622(4)
H19A H 0.755 1.2399 -0.8925
C26A C 0.7909(6) 1.4042(7) -0.8074(5)
H20A H 0.9198 1.4216 -0.8002
C27A C 0.7003(7) 1.4867(5) -0.7631(4)
H21A H 0.7672 1.5605 -0.7256
C28A C 0.5117(7) 1.4613(5) -0.7735(4)
H22A H 0.4497 1.5177 -0.7432
O1 O 0.5651(5) 0.5532(3) 0.4440(2)
O2 O -0.6686(12) 1.0198(7) -0.0618(7)
O3 O 0.9132(6) 0.5135(4) 0.4262(3)
Br1 Br 0.04852(7) 0.86658(4) 0.04873(3)
Br2 Br 1.2161(4) 0.65019(15) 0.34300(9)
C29? C -0.3909(7) 0.6924(6) -0.1518(5)
C30? C -0.4142(7) 0.7953(5) -0.0940(4)
H23? H -0.3125 0.8574 -0.0662
C31? C -0.5862(9) 0.8074(6) -0.0770(4)
H24? H -0.602 0.8777 -0.0376
C32? C -0.7350(6) 0.7165(7) -0.1177(5)
H25? H -0.8525 0.7247 -0.1061
C33? C -0.7117(7) 0.6136(6) -0.1754(5)
H26? H -0.8134 0.5515 -0.2033
C34? C -0.5397(9) 0.6015(5) -0.1925(4)
H27? H -0.5239 0.5312 -0.2319
Br3? Br 1.2706(18) 0.6314(8) 0.3318(5)
loop_
_geom_bond_atom_site_label_1
_geom_bond_atom_site_label_2
_geom_bond_site_symmetry_1
_geom_bond_site_symmetry_2
C1 S1 1_555 1_555
C2 C3 1_555 1_555
C3 C4 1_555 1_555
C4 H1 1_555 1_555
C5 C4 1_555 1_555
H2 C5 1_555 1_555
C6 H3 1_555 1_555
C7 C3 1_555 1_555
H4 C7 1_555 1_555
C8 H5 1_555 1_555
H6 C8 1_555 1_555
C9 C8 1_555 1_555
C10 C9 1_555 1_555
H7 C10 1_555 1_555
C11 C10 1_555 1_555
H8 C11 1_555 1_555
C12 C11 1_555 1_555
H9 C12 1_555 1_555
C13 C12 1_555 1_555
H10 C13 1_555 1_555
C14 C9 1_555 1_555
H11 C14 1_555 1_555
N1 C2 1_555 1_555
N2 C5 1_555 1_555
S1 C2 1_555 1_555
N3 C19 1_555 1_555
N4 C16 1_555 1_555
S2 C15 1_555 1_555
C15 N4A 1_555 1_555
C16 S2 1_555 1_555
C17 C16 1_555 1_555
C18 C17 1_555 1_555
H12 C18 1_555 1_555
C19 C18 1_555 1_555
H13 C19 1_555 1_555
C20 N3 1_555 1_555
H14 C20 1_555 1_555
C21 C17 1_555 1_555
H15 C21 1_555 1_555
C22 N3 1_555 1_555
H16 C22 1_555 1_555
H17 C22 1_555 1_555
C23 C22 1_555 1_555
C24 C23 1_555 1_555
H18 C24 1_555 1_555
C25 C24 1_555 1_555
H19 C25 1_555 1_555
C26 C25 1_555 1_555
H20 C26 1_555 1_555
C27 C26 1_555 1_555
H21 C27 1_555 1_555
C28 C23 1_555 1_555
H22 C28 1_555 1_555
C1A C1 1_555 1_555
C2A C3A 1_555 1_555
C3A C4A 1_555 1_555
C4A H1A 1_555 1_555
C5A C4A 1_555 1_555
H2A C5A 1_555 1_555
C6A H3A 1_555 1_555
C7A C3A 1_555 1_555
H4A C7A 1_555 1_555
C8A H5A 1_555 1_555
H6A C8A 1_555 1_555
C9A C8A 1_555 1_555
C10A C9A 1_555 1_555
H7A C10A 1_555 1_555
C11A C10A 1_555 1_555
H8A C11A 1_555 1_555
C12A C11A 1_555 1_555
H9A C12A 1_555 1_555
C13A C12A 1_555 1_555
H10A C13A 1_555 1_555
C14A C9A 1_555 1_555
H11A C14A 1_555 1_555
N1A C1 1_555 1_555
N2A C5A 1_555 1_555
S1A C1A 1_555 1_555
N3A C19A 1_555 1_555
N4A C16A 1_555 1_555
S2A C15A 1_555 1_555
C15A N4 1_555 1_555
C16A S2A 1_555 1_555
C17A C16A 1_555 1_555
C18A C17A 1_555 1_555
H12A C18A 1_555 1_555
C19A C18A 1_555 1_555
H13A C19A 1_555 1_555
C20A N3A 1_555 1_555
H14A C20A 1_555 1_555
C21A C17A 1_555 1_555
H15A C21A 1_555 1_555
C22A N3A 1_555 1_555
H16A C22A 1_555 1_555
H17A C22A 1_555 1_555
C23A C22A 1_555 1_555
C24A C23A 1_555 1_555
H18A C24A 1_555 1_555
C25A C24A 1_555 1_555
H19A C25A 1_555 1_555
C26A C25A 1_555 1_555
H20A C26A 1_555 1_555
C27A C26A 1_555 1_555
H21A C27A 1_555 1_555
C28A C23A 1_555 1_555
H22A C28A 1_555 1_555
C6 C7 1_555 1_555
C6 N2 1_555 1_555
C8 N2 1_555 1_555
C13 C14 1_555 1_555
N1 C1A 1_555 1_555
C15 C15A 1_555 1_555
C20 C21 1_555 1_555
C27 C28 1_555 1_555
C2A N1A 1_555 1_555
C2A S1A 1_555 1_555
C6A C7A 1_555 1_555
C6A N2A 1_555 1_555
C8A N2A 1_555 1_555
C13A C14A 1_555 1_555
C20A C21A 1_555 1_555
C27A C28A 1_555 1_555

#END
