
#######################################################################
#
#                 Cambridge Crystallographic Data Centre
#                                CCDC 
#
#######################################################################
#
# If this CIF has been generated from an entry in the Cambridge 
# Structural Database, then it will include bibliographic, chemical, 
# crystal, experimental, refinement or atomic coordinate data resulting 
# from the CCDC's data processing and validation procedures.
#
#######################################################################

data_XEBTOQ
_chemical_name_common            'cinnamaldehyde N-(4-pyridyl)imine'
_chemical_formula_moiety         'C14 H12 N2'
_chemical_name_systematic        3-phenyl-N-(pyridin-4-yl)prop-2-en-1-imine
_symmetry_cell_setting           monoclinic
_symmetry_space_group_name_H-M   'P 21/n'
_symmetry_Int_Tables_number      14
_space_group_name_Hall           '-P 2yn'
loop_
_symmetry_equiv_pos_site_id
_symmetry_equiv_pos_as_xyz
1 x,y,z
2 1/2-x,1/2+y,1/2-z
3 -x,-y,-z
4 1/2+x,1/2-y,1/2+z
_cell_length_a                   6.7813(19)
_cell_length_b                   7.436(2)
_cell_length_c                   22.969(6)
_cell_angle_alpha                90
_cell_angle_beta                 94.241(5)
_cell_angle_gamma                90
_cell_volume                     1155.06
_exptl_crystal_colour            yellow
_exptl_crystal_description       plate
_cell_formula_units_Z            4
_exptl_crystal_recrystallization_method Acetonitrile
loop_
_atom_site_label
_atom_site_type_symbol
_atom_site_fract_x
_atom_site_fract_y
_atom_site_fract_z
N1 N 0.34502(15) 0.71253(16) 0.50068(5)
N2 N -0.15929(18) 0.87852(17) 0.39664(5)
C1 C 0.76687(17) 0.66726(16) 0.68039(5)
C2 C 0.17244(18) 0.77424(16) 0.46881(5)
C3 C 0.58530(18) 0.70925(17) 0.64467(5)
H1 H 0.488917 0.771651 0.663209
C4 C 0.36645(18) 0.73054(16) 0.55583(5)
H2 H 0.266470 0.784809 0.575187
C5 C 0.54184(18) 0.66888(18) 0.58899(5)
H3 H 0.629623 0.596649 0.570302
C6 C 0.92149(18) 0.56931(17) 0.65900(5)
H4 H 0.907838 0.524430 0.621123
C7 C 0.7928(2) 0.73106(19) 0.73759(6)
H5 H 0.691738 0.795906 0.753099
C8 C -0.01671(19) 0.73728(18) 0.48346(6)
H6 H -0.037211 0.677496 0.518066
C9 C 1.09412(19) 0.5379(2) 0.69303(6)
H7 H 1.195892 0.472700 0.678057
C10 C 0.1917(2) 0.86646(19) 0.41718(6)
H8 H 0.316234 0.894682 0.405336
C11 C 1.1157(2) 0.6035(2) 0.74945(6)
H9 H 1.232000 0.582512 0.772492
C12 C 0.0244(2) 0.91557(19) 0.38374(6)
H10 H 0.040502 0.979363 0.349591
C13 C -0.1751(2) 0.7897(2) 0.44638(6)
H11 H -0.301369 0.761198 0.456766
C14 C 0.9653(2) 0.6996(2) 0.77140(6)
H12 H 0.980109 0.743719 0.809355
loop_
_geom_bond_atom_site_label_1
_geom_bond_atom_site_label_2
_geom_bond_site_symmetry_1
_geom_bond_site_symmetry_2
N1 C2 1_555 1_555
N2 C12 1_555 1_555
C1 C3 1_555 1_555
C2 C8 1_555 1_555
C3 H1 1_555 1_555
C4 N1 1_555 1_555
H2 C4 1_555 1_555
C5 C3 1_555 1_555
H3 C5 1_555 1_555
C6 C1 1_555 1_555
H4 C6 1_555 1_555
C7 C1 1_555 1_555
H5 C7 1_555 1_555
C8 H6 1_555 1_555
C9 C6 1_555 1_555
H7 C9 1_555 1_555
C10 C2 1_555 1_555
H8 C10 1_555 1_555
C11 C9 1_555 1_555
H9 C11 1_555 1_555
C12 C10 1_555 1_555
H10 C12 1_555 1_555
C13 N2 1_555 1_555
H11 C13 1_555 1_555
C14 C7 1_555 1_555
H12 C14 1_555 1_555
C4 C5 1_555 1_555
C8 C13 1_555 1_555
C11 C14 1_555 1_555

#END
