
#######################################################################
#
#                 Cambridge Crystallographic Data Centre
#                                CCDC 
#
#######################################################################
#
# If this CIF has been generated from an entry in the Cambridge 
# Structural Database, then it will include bibliographic, chemical, 
# crystal, experimental, refinement or atomic coordinate data resulting 
# from the CCDC's data processing and validation procedures.
#
#######################################################################

data_XECROP
_chemical_formula_moiety         'C12 H11 N5,C6 H10 O4'
_chemical_name_systematic        
"1-[(pyridin-4-yl)methyl]-1H,1'H-2,2'-bi-imidazole adipic acid"
_symmetry_cell_setting           monoclinic
_symmetry_space_group_name_H-M   'P 21/n'
_symmetry_Int_Tables_number      14
_space_group_name_Hall           '-P 2yn'
loop_
_symmetry_equiv_pos_site_id
_symmetry_equiv_pos_as_xyz
1 x,y,z
2 1/2-x,1/2+y,1/2-z
3 -x,-y,-z
4 1/2+x,1/2-y,1/2+z
_cell_length_a                   17.295(2)
_cell_length_b                   4.8014(7)
_cell_length_c                   21.977(3)
_cell_angle_alpha                90
_cell_angle_beta                 90.912(11)
_cell_angle_gamma                90
_cell_volume                     1824.74
_exptl_crystal_colour            red
_exptl_crystal_description       block
_cell_formula_units_Z            4
loop_
_atom_site_label
_atom_site_type_symbol
_atom_site_fract_x
_atom_site_fract_y
_atom_site_fract_z
O1 O 0.53473(11) 0.7658(4) 0.07833(10)
O2 O 0.56409(10) 0.4266(4) 0.14343(10)
O3 O 0.88763(11) 0.3904(5) 0.10653(9)
O4 O 0.95406(11) 0.2929(5) 0.19160(10)
C1 C 0.58170(14) 0.6367(6) 0.11661(12)
C2 C 0.65838(14) 0.7794(6) 0.12288(13)
H1 H 0.6504 0.9599 0.1416
H2 H 0.6783 0.8116 0.0825
C3 C 0.71917(13) 0.6237(6) 0.15987(12)
H3 H 0.7302 0.4476 0.1402
H4 H 0.6991 0.5836 0.1999
C4 C 0.79352(14) 0.7897(6) 0.16663(13)
H5 H 0.8106 0.8433 0.1265
H6 H 0.7827 0.9591 0.1890
C5 C 0.85882(14) 0.6366(6) 0.19885(13)
H7 H 0.8960 0.7723 0.2139
H8 H 0.8381 0.5402 0.2338
C6 C 0.90021(13) 0.4296(6) 0.16013(13)
H9 H 0.487(2) 0.660(8) 0.0763(16)
H10 H 0.984(2) 0.163(8) 0.1655(18)
N1 N 0.27059(11) 0.4696(4) 0.04272(10)
N2 N 0.39320(11) 0.5863(5) 0.05694(9)
N3 N 0.28957(12) 0.0891(5) 0.15369(10)
N4 N 0.41518(13) 0.1723(5) 0.15175(10)
N5 N 0.03932(13) 0.9267(5) 0.13249(12)
C7 C 0.33651(13) 0.4260(5) 0.07646(11)
C8 C 0.34503(14) 0.2315(5) 0.12680(12)
C9 C 0.32722(17) -0.0695(6) 0.19690(13)
H11 H 0.3033 -0.1941 0.2230
C10 C 0.40431(16) -0.0182(6) 0.19602(13)
H12 H 0.4422 -0.0982 0.2210
C11 C 0.36274(15) 0.7391(6) 0.00910(12)
H13 H 0.3897 0.8695 -0.0135
C12 C 0.28778(15) 0.6700(6) 0.00024(12)
H14 H 0.2541 0.7438 -0.0290
C13 C 0.19366(13) 0.3431(6) 0.04867(13)
H15 H 0.1978 0.1753 0.0731
H16 H 0.1737 0.2915 0.0087
C14 C 0.13855(13) 0.5441(5) 0.07818(12)
C15 C 0.14759(15) 0.6211(6) 0.13824(13)
H17 H 0.1874 0.5448 0.1618
C16 C 0.09783(16) 0.8108(6) 0.16341(14)
H18 H 0.1054 0.8605 0.2040
C17 C 0.03014(16) 0.8495(7) 0.07488(15)
H19 H -0.0111 0.9250 0.0528
C18 C 0.07779(15) 0.6647(6) 0.04560(13)
H20 H 0.0694 0.6215 0.0048
H21 H 0.4613(17) 0.247(6) 0.1408(13)
loop_
_geom_bond_atom_site_label_1
_geom_bond_atom_site_label_2
_geom_bond_site_symmetry_1
_geom_bond_site_symmetry_2
O1 C1 1_555 1_555
O2 C1 1_555 1_555
O3 C6 1_555 1_555
O4 C6 1_555 1_555
C1 C2 1_555 1_555
C2 H1 1_555 1_555
H2 C2 1_555 1_555
C3 C2 1_555 1_555
H3 C3 1_555 1_555
H4 C3 1_555 1_555
C4 C3 1_555 1_555
H5 C4 1_555 1_555
H6 C4 1_555 1_555
C5 C4 1_555 1_555
H7 C5 1_555 1_555
H8 C5 1_555 1_555
C6 C5 1_555 1_555
H9 O1 1_555 1_555
H10 O4 1_555 1_555
N1 C7 1_555 1_555
N2 C7 1_555 1_555
N3 C8 1_555 1_555
N4 C8 1_555 1_555
N5 C16 1_555 1_555
C7 C8 1_555 1_555
C9 N3 1_555 1_555
H11 C9 1_555 1_555
C10 N4 1_555 1_555
H12 C10 1_555 1_555
C11 N2 1_555 1_555
H13 C11 1_555 1_555
C12 N1 1_555 1_555
H14 C12 1_555 1_555
C13 N1 1_555 1_555
H15 C13 1_555 1_555
H16 C13 1_555 1_555
C14 C13 1_555 1_555
C15 C14 1_555 1_555
H17 C15 1_555 1_555
C16 C15 1_555 1_555
H18 C16 1_555 1_555
C17 N5 1_555 1_555
H19 C17 1_555 1_555
C18 C14 1_555 1_555
H20 C18 1_555 1_555
H21 N4 1_555 1_555
C9 C10 1_555 1_555
C11 C12 1_555 1_555
C17 C18 1_555 1_555

#END
