
#######################################################################
#
#                 Cambridge Crystallographic Data Centre
#                                CCDC 
#
#######################################################################
#
# If this CIF has been generated from an entry in the Cambridge 
# Structural Database, then it will include bibliographic, chemical, 
# crystal, experimental, refinement or atomic coordinate data resulting 
# from the CCDC's data processing and validation procedures.
#
#######################################################################

data_XECXAF
_chemical_formula_moiety         'C32 H27 N1 O3 S2'
_chemical_name_systematic        
'Ethyl rel-(2S,2aR,4R)-1-oxo-2a,4-diphenyl-2-phenylthio-2,2a,3,4-tetrahydro-1H-azeto(2,1-d)(1,5)benzothiazepine-2-carboxylate'
_symmetry_cell_setting           triclinic
_symmetry_space_group_name_H-M   'P -1'
_symmetry_Int_Tables_number      2
_space_group_name_Hall           '-P 1'
loop_
_symmetry_equiv_pos_site_id
_symmetry_equiv_pos_as_xyz
1 x,y,z
2 -x,-y,-z
_cell_length_a                   7.7629(16)
_cell_length_b                   8.5948(17)
_cell_length_c                   21.728(4)
_cell_angle_alpha                81.54(3)
_cell_angle_beta                 85.90(3)
_cell_angle_gamma                73.88(3)
_cell_volume                     1376.83
_exptl_crystal_colour            colorless
_exptl_crystal_description       block
_chemical_melting_point          '449 K'
_cell_formula_units_Z            2
_exptl_crystal_recrystallization_method 'ethyl acetate/petroleum ether'
loop_
_atom_site_label
_atom_site_type_symbol
_atom_site_fract_x
_atom_site_fract_y
_atom_site_fract_z
S1 S 0.32725(8) 0.60955(7) 0.41172(2)
S2 S 0.53987(7) 0.66464(8) 0.12916(2)
O1 O 0.3672(2) 0.98488(19) 0.21526(7)
O2 O 0.19085(18) 0.57824(18) 0.14579(7)
O3 O 0.0535(2) 0.8104(2) 0.18506(8)
N1 N 0.4670(2) 0.73232(19) 0.27719(7)
C1 C 0.3942(3) 0.8385(3) 0.22724(10)
C2 C 0.3731(2) 0.7007(2) 0.19266(9)
C3 C 0.4404(2) 0.5829(2) 0.25535(8)
C4 C 0.2918(3) 0.5243(2) 0.29293(8)
H1 H 0.2639 0.4412 0.2727
H2 H 0.1847 0.6151 0.2932
C5 C 0.3420(3) 0.4541(2) 0.35991(9)
H3 H 0.4648 0.3827 0.3599
C6 C 0.5038(3) 0.7023(2) 0.39035(9)
C7 C 0.5485(3) 0.7588(2) 0.32974(9)
C8 C 0.6758(3) 0.8473(3) 0.31935(11)
H4 H 0.7067 0.8845 0.2788
C9 C 0.7563(3) 0.8803(3) 0.36867(11)
H5 H 0.8406 0.9400 0.3612
C10 C 0.7126(3) 0.8257(3) 0.42826(12)
H6 H 0.7656 0.8496 0.4615
C11 C 0.5899(3) 0.7352(3) 0.43917(10)
H7 H 0.5638 0.6952 0.4799
C12 C 0.6070(2) 0.4430(2) 0.24775(8)
C13 C 0.7722(3) 0.4349(3) 0.26993(10)
H8 H 0.7860 0.5201 0.2893
C14 C 0.9175(3) 0.3008(3) 0.26349(11)
H9 H 1.0272 0.2954 0.2795
C15 C 0.9005(3) 0.1760(3) 0.23372(11)
H10 H 0.9994 0.0878 0.2286
C16 C 0.7374(3) 0.1814(3) 0.21139(10)
H11 H 0.7254 0.0966 0.1914
C17 C 0.5910(3) 0.3134(2) 0.21870(9)
H12 H 0.4804 0.3158 0.2041
C18 C 0.2158(3) 0.3539(2) 0.38865(9)
C19 C 0.0434(3) 0.4274(3) 0.41022(10)
H13 H 0.0054 0.5403 0.4095
C20 C -0.0717(3) 0.3337(3) 0.43275(11)
H14 H -0.1866 0.3839 0.4471
C21 C -0.0183(4) 0.1686(3) 0.43414(11)
H15 H -0.0963 0.1060 0.4493
C22 C 0.1515(4) 0.0949(3) 0.41304(12)
H16 H 0.1879 -0.0180 0.4137
C23 C 0.2686(3) 0.1864(3) 0.39097(11)
H17 H 0.3840 0.1347 0.3776
C24 C 0.1863(3) 0.7061(3) 0.17394(9)
C25 C 0.0211(3) 0.5687(3) 0.12400(12)
H18 H -0.0309 0.6651 0.0951
H19 H -0.0631 0.5618 0.1588
C26 C 0.0598(4) 0.4190(4) 0.09236(15)
H20 H -0.0495 0.4093 0.0773
H21 H 0.1106 0.3244 0.1214
H22 H 0.1433 0.4271 0.0580
C27 C 0.4220(3) 0.7850(3) 0.06408(9)
C28 C 0.4560(4) 0.7158(3) 0.00947(11)
H23 H 0.5346 0.6122 0.0090
C29 C 0.3739(5) 0.7996(4) -0.04423(12)
H24 H 0.3979 0.7533 -0.0811
C30 C 0.2564(4) 0.9520(4) -0.04333(12)
H25 H 0.1983 1.0076 -0.0794
C31 C 0.2247(4) 1.0215(3) 0.01013(12)
H26 H 0.1457 1.1250 0.0104
C32 C 0.3095(3) 0.9393(3) 0.06443(11)
H27 H 0.2901 0.9885 0.1006
loop_
_geom_bond_atom_site_label_1
_geom_bond_atom_site_label_2
_geom_bond_site_symmetry_1
_geom_bond_site_symmetry_2
S1 C5 1_555 1_555
S2 C2 1_555 1_555
O1 C1 1_555 1_555
O2 C24 1_555 1_555
O3 C24 1_555 1_555
N1 C1 1_555 1_555
C1 C2 1_555 1_555
C2 C3 1_555 1_555
C3 N1 1_555 1_555
C4 C3 1_555 1_555
H1 C4 1_555 1_555
H2 C4 1_555 1_555
C5 C4 1_555 1_555
H3 C5 1_555 1_555
C6 S1 1_555 1_555
C7 N1 1_555 1_555
C8 C7 1_555 1_555
H4 C8 1_555 1_555
C9 C8 1_555 1_555
H5 C9 1_555 1_555
C10 C9 1_555 1_555
H6 C10 1_555 1_555
C11 C6 1_555 1_555
H7 C11 1_555 1_555
C12 C3 1_555 1_555
C13 C12 1_555 1_555
H8 C13 1_555 1_555
C14 C13 1_555 1_555
H9 C14 1_555 1_555
C15 C14 1_555 1_555
H10 C15 1_555 1_555
C16 C15 1_555 1_555
H11 C16 1_555 1_555
C17 C12 1_555 1_555
H12 C17 1_555 1_555
C18 C5 1_555 1_555
C19 C18 1_555 1_555
H13 C19 1_555 1_555
C20 C19 1_555 1_555
H14 C20 1_555 1_555
C21 C20 1_555 1_555
H15 C21 1_555 1_555
C22 C21 1_555 1_555
H16 C22 1_555 1_555
C23 C18 1_555 1_555
H17 C23 1_555 1_555
C24 C2 1_555 1_555
C25 O2 1_555 1_555
H18 C25 1_555 1_555
H19 C25 1_555 1_555
C26 C25 1_555 1_555
H20 C26 1_555 1_555
H21 C26 1_555 1_555
H22 C26 1_555 1_555
C27 S2 1_555 1_555
C28 C27 1_555 1_555
H23 C28 1_555 1_555
C29 C28 1_555 1_555
H24 C29 1_555 1_555
C30 C29 1_555 1_555
H25 C30 1_555 1_555
C31 C30 1_555 1_555
H26 C31 1_555 1_555
C32 C27 1_555 1_555
H27 C32 1_555 1_555
C6 C7 1_555 1_555
C10 C11 1_555 1_555
C16 C17 1_555 1_555
C22 C23 1_555 1_555
C31 C32 1_555 1_555

#END
