
#######################################################################
#
#                 Cambridge Crystallographic Data Centre
#                                CCDC 
#
#######################################################################
#
# If this CIF has been generated from an entry in the Cambridge 
# Structural Database, then it will include bibliographic, chemical, 
# crystal, experimental, refinement or atomic coordinate data resulting 
# from the CCDC's data processing and validation procedures.
#
#######################################################################

data_XEDLOJ
_chemical_formula_moiety         'C31 H30 Cl3 N3 O5'
_chemical_name_systematic        
"Diethyl 2,2'-(1,3,5-tris(4-chlorophenyl)-7-oxodihydro-1H-imidazo[1,5-c]imidazole-2,6(3H,5H)-diyl)diacetate"
_symmetry_cell_setting           monoclinic
_symmetry_space_group_name_H-M   'C 2/c'
_symmetry_Int_Tables_number      15
_space_group_name_Hall           '-C 2yn'
loop_
_symmetry_equiv_pos_site_id
_symmetry_equiv_pos_as_xyz
1 x,y,z
2 -x,y,1/2-z
3 1/2+x,1/2+y,z
4 1/2-x,1/2+y,1/2-z
5 -x,-y,-z
6 x,-y,1/2+z
7 1/2-x,1/2-y,-z
8 1/2+x,1/2-y,1/2+z
_cell_length_a                   65.41(2)
_cell_length_b                   11.699(4)
_cell_length_c                   25.152(8)
_cell_angle_alpha                90
_cell_angle_beta                 95.619(5)
_cell_angle_gamma                90
_cell_volume                     19154.6
_exptl_crystal_colour            colorless
_exptl_crystal_description       cubic
_cell_formula_units_Z            24
loop_
_atom_site_label
_atom_site_type_symbol
_atom_site_fract_x
_atom_site_fract_y
_atom_site_fract_z
Cl1 Cl 0.51167(3) 1.05608(18) 0.14116(9)
O1 O 0.59497(5) 0.6383(3) 0.32466(12)
Cl2 Cl 0.68963(3) 1.02385(19) 0.27904(12)
N1 N 0.58927(5) 0.6930(3) 0.18481(13)
N2 N 0.62163(6) 0.6271(3) 0.18042(14)
N3 N 0.57085(6) 0.6274(3) 0.25287(14)
C2 C 0.52785(9) 0.9413(5) 0.1581(3)
C3 C 0.53596(9) 0.9274(5) 0.2108(3)
H3 H 0.5328 0.9790 0.2370
C4 C 0.54879(8) 0.8354(5) 0.2238(2)
H4 H 0.5541 0.8245 0.2590
C5 C 0.55375(7) 0.7593(4) 0.18491(18)
C6 C 0.56854(7) 0.6620(4) 0.19650(16)
H5 H 0.5639 0.5962 0.1745
C7 C 0.60038(7) 0.5942(4) 0.16580(16)
H6 H 0.5970 0.5250 0.1852
C8 C 0.63690(8) 0.5442(4) 0.17026(19)
H7 H 0.6503 0.5772 0.1806
H8 H 0.6360 0.5307 0.1321
C9 C 0.63586(8) 0.4314(5) 0.1975(2)
O9 O 0.64895(6) 0.3570(4) 0.17971(17)
C10 C 0.53218(9) 0.8666(6) 0.1198(2)
H9 H 0.5265 0.8762 0.0847
C11 C 0.54506(8) 0.7762(5) 0.13324(19)
H10 H 0.5480 0.7249 0.1068
C12 C 0.58911(7) 0.6571(4) 0.27827(18)
C13 C 0.60071(7) 0.7194(4) 0.23763(16)
H11 H 0.6008 0.8019 0.2444
C14 C 0.62268(7) 0.6746(4) 0.23468(18)
H12 H 0.6253 0.6124 0.2605
C15 C 0.63925(8) 0.7635(5) 0.2449(2)
C16 C 0.64655(8) 0.7905(6) 0.2956(2)
H13 H 0.6413 0.7523 0.3238
C17 C 0.66156(10) 0.8732(7) 0.3068(3)
H14 H 0.6657 0.8928 0.3421
C18 C 0.67005(10) 0.9247(6) 0.2668(3)
C19 C 0.66374(12) 0.8972(6) 0.2154(3)
H15 H 0.6697 0.9325 0.1876
C20 C 0.64839(11) 0.8162(6) 0.2044(3)
H16 H 0.6442 0.7973 0.1691
O10 O 0.62520(7) 0.4093(4) 0.23222(18)
C21 C 0.59525(7) 0.5776(4) 0.10637(18)
C22 C 0.59809(9) 0.6645(5) 0.07104(18)
H17 H 0.6035 0.7337 0.0839
C23 C 0.59302(10) 0.6508(5) 0.01689(19)
H18 H 0.5950 0.7101 -0.0067
C24 C 0.58496(9) 0.5483(5) -0.0016(2)
C25 C 0.58242(9) 0.4612(5) 0.0321(2)
H19 H 0.5772 0.3916 0.0189
C26 C 0.58753(8) 0.4757(4) 0.08634(19)
H20 H 0.5857 0.4155 0.1095
C27 C 0.55574(8) 0.5627(5) 0.2784(2)
H21 H 0.5423 0.5973 0.2698
H22 H 0.5590 0.5668 0.3168
C28 C 0.55481(10) 0.4415(5) 0.2619(3)
O11 O 0.56248(8) 0.4011(4) 0.2249(2)
O12 O 0.54367(9) 0.3823(4) 0.2930(3)
Cl9 Cl 0.57838(4) 0.53092(18) -0.06942(6)
C86 C 0.5414(3) 0.2615(10) 0.2811(7)
H70 H 0.5376 0.2539 0.2430
H71 H 0.5547 0.2259 0.2888
C89 C 0.65026(14) 0.2429(7) 0.2040(4)
H77 H 0.6643 0.2156 0.2058
H78 H 0.6463 0.2468 0.2401
C90 C 0.63717(18) 0.1658(9) 0.1733(5)
H79 H 0.6232 0.1920 0.1723
H80 H 0.6383 0.0913 0.1893
H81 H 0.6412 0.1620 0.1376
C91 C 0.5309(3) 0.2151(13) 0.3005(7)
H82 H 0.5366 0.1997 0.3364
H83 H 0.5280 0.1443 0.2820
H84 H 0.5185 0.2583 0.3011
Cl3 Cl 0.48641(4) 0.4913(2) 0.33325(12)
Cl4 Cl 0.65871(3) 0.46994(19) 0.51904(9)
Cl5 Cl 0.58697(3) 0.94065(17) 0.72563(5)
O2 O 0.60220(9) 1.1329(4) 0.4295(2)
O3 O 0.54229(8) 1.1091(4) 0.4279(2)
O4 O 0.51749(7) 1.1370(4) 0.48043(17)
N4 N 0.58041(5) 0.8233(3) 0.46671(13)
N5 N 0.60098(6) 0.9024(3) 0.40617(14)
C29 C 0.50486(10) 0.5930(7) 0.3549(3)
C30 C 0.50479(9) 0.6922(7) 0.3307(2)
H23 H 0.4953 0.7067 0.3014
C31 C 0.51899(8) 0.7763(5) 0.3488(2)
H24 H 0.5190 0.8456 0.3306
C32 C 0.53266(8) 0.7599(5) 0.3919(2)
C33 C 0.54848(7) 0.8463(4) 0.41105(18)
H25 H 0.5466 0.9151 0.3889
C34 C 0.57074(7) 0.8056(4) 0.41119(17)
H26 H 0.5712 0.7247 0.4013
C35 C 0.60152(7) 0.8607(4) 0.46093(16)
H27 H 0.6051 0.9240 0.4856
C36 C 0.61648(7) 0.7636(4) 0.47343(17)
C37 C 0.62262(8) 0.6926(5) 0.4343(2)
H28 H 0.6180 0.7064 0.3987
C38 C 0.63556(9) 0.6008(5) 0.4474(2)
H29 H 0.6397 0.5524 0.4211
C39 C 0.64227(9) 0.5831(5) 0.5017(3)
C40 C 0.51865(12) 0.5701(6) 0.3967(3)
H30 H 0.5189 0.4986 0.4128
C41 C 0.53251(10) 0.6542(7) 0.4156(3)
H31 H 0.5419 0.6385 0.4450
N9 N 0.54736(6) 0.8784(3) 0.46821(14)
C42 C 0.56794(7) 0.9152(4) 0.48757(16)
H32 H 0.5711 0.9885 0.4713
C43 C 0.58346(8) 0.8762(4) 0.37663(18)
C44 C 0.61616(8) 0.9754(4) 0.3859(2)
H33 H 0.6163 0.9628 0.3478
H34 H 0.6296 0.9561 0.4031
C45 C 0.61180(11) 1.0983(6) 0.3957(3)
O13 O 0.61990(10) 1.1613(4) 0.3601(3)
C46 C 0.62358(8) 0.7429(5) 0.52607(19)
H35 H 0.6194 0.7903 0.5527
C47 C 0.63654(8) 0.6543(6) 0.5398(2)
H36 H 0.6414 0.6428 0.5754
O14 O 0.57878(6) 0.9034(3) 0.33008(13)
C48 C 0.57175(7) 0.9229(4) 0.54760(17)
C49 C 0.56630(8) 0.8340(4) 0.58034(19)
H37 H 0.5595 0.7703 0.5652
C50 C 0.57090(9) 0.8397(5) 0.6351(2)
H38 H 0.5672 0.7805 0.6569
C51 C 0.58088(9) 0.9333(5) 0.65656(19)
C52 C 0.58624(9) 1.0225(5) 0.6266(2)
H39 H 0.5929 1.0860 0.6422
C53 C 0.58134(8) 1.0159(5) 0.57115(19)
H40 H 0.5847 1.0767 0.5499
C54 C 0.53077(8) 0.9528(5) 0.4790(2)
H41 H 0.5302 0.9552 0.5174
H42 H 0.5181 0.9184 0.4636
C55 C 0.53136(10) 1.0732(5) 0.4593(2)
C56 C 0.51652(18) 1.2570(7) 0.4638(4)
H43 H 0.5304 1.2848 0.4613
H44 H 0.5091 1.2623 0.4285
C87 C 0.61980(16) 1.3068(13) 0.3675(6)
H72 H 0.6179 1.3324 0.4034
H73 H 0.6313 1.3453 0.3536
C88 C 0.6024(2) 1.3065(10) 0.3337(4)
H74 H 0.6051 1.2724 0.3004
H75 H 0.5977 1.3836 0.3276
H76 H 0.5920 1.2633 0.3492
C93 C 0.5085(4) 1.3156(12) 0.4932(7)
H88 H 0.5073 1.2752 0.5260
H89 H 0.4950 1.3361 0.4773
H90 H 0.5165 1.3836 0.5005
Cl6 Cl 0.67084(4) 0.4731(2) 0.30743(9)
Cl7 Cl 0.75207(3) 0.94536(16) 0.10233(5)
C1 C 0.80347(8) 0.9371(5) 0.3515(2)
H1 H 0.8046 0.9389 0.3134
H2 H 0.8161 0.9033 0.3681
O5 O 0.79078(6) 1.0749(3) 0.40851(16)
O6 O 0.75589(5) 0.8833(3) 0.49643(12)
O7 O 0.81285(8) 1.1333(4) 0.35262(18)
Cl8 Cl 0.84622(4) 0.4409(3) 0.47401(14)
O8 O 0.69690(8) 1.1070(4) 0.4261(2)
N6 N 0.75399(5) 0.8026(3) 0.35984(12)
N7 N 0.78690(6) 0.8600(3) 0.36033(14)
N8 N 0.73363(6) 0.8828(3) 0.42061(14)
C57 C 0.68917(9) 0.5769(5) 0.3244(3)
C58 C 0.69529(8) 0.6454(5) 0.2862(2)
H45 H 0.6901 0.6357 0.2508
C59 C 0.70946(8) 0.7307(5) 0.30031(19)
H46 H 0.7138 0.7781 0.2739
C60 C 0.71740(7) 0.7470(4) 0.35292(17)
C61 C 0.73276(7) 0.8400(4) 0.36546(16)
H47 H 0.7294 0.9040 0.3410
C62 C 0.76661(7) 0.8966(4) 0.34104(16)
H48 H 0.7633 0.9687 0.3581
C63 C 0.80292(8) 1.0576(6) 0.3701(2)
C64 C 0.78863(12) 1.1919(7) 0.4283(3)
H49 H 0.7833 1.2419 0.3995
H50 H 0.8018 1.2210 0.4433
C65 C 0.77397(14) 1.1868(8) 0.4705(3)
H51 H 0.7610 1.1580 0.4552
H52 H 0.7722 1.2620 0.4846
H53 H 0.7794 1.1370 0.4988
C66 C 0.69683(10) 0.5892(5) 0.3779(2)
H54 H 0.6925 0.5405 0.4038
C67 C 0.71083(8) 0.6745(5) 0.3917(2)
H55 H 0.7160 0.6837 0.4273
C68 C 0.75107(7) 0.8554(4) 0.45024(18)
C69 C 0.76347(7) 0.7833(4) 0.41499(16)
H56 H 0.7624 0.7024 0.4244
C70 C 0.78603(7) 0.8176(5) 0.41556(17)
H57 H 0.7889 0.8809 0.4407
C71 C 0.76327(7) 0.9078(4) 0.28091(17)
C72 C 0.75550(8) 1.0078(4) 0.25831(18)
H58 H 0.7525 1.0685 0.2801
C73 C 0.75205(8) 1.0190(5) 0.2027(2)
H59 H 0.7469 1.0868 0.1875
C74 C 0.75631(8) 0.9303(5) 0.17156(19)
C75 C 0.76434(9) 0.8309(5) 0.19244(19)
H60 H 0.7675 0.7715 0.1701
C76 C 0.76777(9) 0.8191(5) 0.24757(19)
H61 H 0.7731 0.7512 0.2622
C77 C 0.80101(8) 0.7222(6) 0.4296(2)
C78 C 0.80084(12) 0.6248(7) 0.3995(3)
H62 H 0.7914 0.6175 0.3697
C79 C 0.81479(16) 0.5358(8) 0.4131(4)
H63 H 0.8148 0.4699 0.3923
C80 C 0.82856(14) 0.5490(10) 0.4583(5)
C81 C 0.82824(11) 0.6404(9) 0.4881(4)
H64 H 0.8373 0.6458 0.5190
C82 C 0.81476(8) 0.7290(6) 0.4749(2)
H65 H 0.8149 0.7936 0.4965
C83 C 0.71727(8) 0.9477(4) 0.4405(2)
H66 H 0.7203 0.9587 0.4786
H67 H 0.7046 0.9046 0.4346
C84 C 0.71435(10) 1.0616(5) 0.4140(2)
C85 C 0.69100(15) 1.2202(7) 0.4025(4)
H68 H 0.7009 1.2776 0.4156
H69 H 0.6907 1.2168 0.3639
O15 O 0.72583(7) 1.1068(4) 0.38670(18)
C92 C 0.67184(18) 1.2485(12) 0.4167(5)
H85 H 0.6616 1.2056 0.3954
H86 H 0.6695 1.3287 0.4111
H87 H 0.6711 1.2308 0.4538
loop_
_geom_bond_atom_site_label_1
_geom_bond_atom_site_label_2
_geom_bond_site_symmetry_1
_geom_bond_site_symmetry_2
Cl1 C2 1_555 1_555
O1 C12 1_555 1_555
Cl2 C18 1_555 1_555
Cl3 C29 1_555 1_555
Cl4 C39 1_555 1_555
Cl5 C51 1_555 1_555
Cl6 C57 1_555 1_555
Cl7 C74 1_555 1_555
O2 C45 1_555 1_555
O3 C55 1_555 1_555
O4 C55 1_555 1_555
C1 H1 1_555 1_555
H2 C1 1_555 1_555
O5 C63 1_555 1_555
O6 C68 1_555 1_555
O7 C63 1_555 1_555
Cl8 C80 1_555 1_555
O8 C84 1_555 1_555
N1 C6 1_555 1_555
N2 C7 1_555 1_555
N3 C6 1_555 1_555
N4 C34 1_555 1_555
N5 C35 1_555 1_555
N6 C61 1_555 1_555
N7 C1 1_555 1_555
N8 C61 1_555 1_555
C2 C3 1_555 1_555
C3 H3 1_555 1_555
C4 C3 1_555 1_555
H4 C4 1_555 1_555
C5 C4 1_555 1_555
C6 C5 1_555 1_555
H5 C6 1_555 1_555
C7 N1 1_555 1_555
H6 C7 1_555 1_555
C8 N2 1_555 1_555
H7 C8 1_555 1_555
H8 C8 1_555 1_555
C9 C8 1_555 1_555
O9 C9 1_555 1_555
C10 C2 1_555 1_555
H9 C10 1_555 1_555
C11 C5 1_555 1_555
H10 C11 1_555 1_555
C12 N3 1_555 1_555
C13 N1 1_555 1_555
H11 C13 1_555 1_555
C14 N2 1_555 1_555
H12 C14 1_555 1_555
C15 C14 1_555 1_555
C16 C15 1_555 1_555
H13 C16 1_555 1_555
C17 C16 1_555 1_555
H14 C17 1_555 1_555
C18 C17 1_555 1_555
C19 C18 1_555 1_555
H15 C19 1_555 1_555
C20 C15 1_555 1_555
H16 C20 1_555 1_555
O10 C9 1_555 1_555
C21 C7 1_555 1_555
C22 C21 1_555 1_555
H17 C22 1_555 1_555
C23 C22 1_555 1_555
H18 C23 1_555 1_555
C24 C23 1_555 1_555
C25 C24 1_555 1_555
H19 C25 1_555 1_555
C26 C21 1_555 1_555
H20 C26 1_555 1_555
C27 N3 1_555 1_555
H21 C27 1_555 1_555
H22 C27 1_555 1_555
C28 C27 1_555 1_555
O11 C28 1_555 1_555
O12 C28 1_555 1_555
C29 C30 1_555 1_555
C30 H23 1_555 1_555
C31 C30 1_555 1_555
H24 C31 1_555 1_555
C32 C31 1_555 1_555
C33 C32 1_555 1_555
H25 C33 1_555 1_555
C34 C33 1_555 1_555
H26 C34 1_555 1_555
C35 N4 1_555 1_555
H27 C35 1_555 1_555
C36 C35 1_555 1_555
C37 C36 1_555 1_555
H28 C37 1_555 1_555
C38 C37 1_555 1_555
H29 C38 1_555 1_555
C39 C38 1_555 1_555
C40 C29 1_555 1_555
H30 C40 1_555 1_555
C41 C32 1_555 1_555
H31 C41 1_555 1_555
N9 C33 1_555 1_555
C42 N4 1_555 1_555
H32 C42 1_555 1_555
C43 N5 1_555 1_555
C44 N5 1_555 1_555
H33 C44 1_555 1_555
H34 C44 1_555 1_555
C45 C44 1_555 1_555
O13 C45 1_555 1_555
C46 C36 1_555 1_555
H35 C46 1_555 1_555
C47 C39 1_555 1_555
H36 C47 1_555 1_555
O14 C43 1_555 1_555
C48 C42 1_555 1_555
C49 C48 1_555 1_555
H37 C49 1_555 1_555
C50 C49 1_555 1_555
H38 C50 1_555 1_555
C51 C50 1_555 1_555
C52 C51 1_555 1_555
H39 C52 1_555 1_555
C53 C48 1_555 1_555
H40 C53 1_555 1_555
C54 N9 1_555 1_555
H41 C54 1_555 1_555
H42 C54 1_555 1_555
C55 C54 1_555 1_555
C56 O4 1_555 1_555
H43 C56 1_555 1_555
H44 C56 1_555 1_555
C57 C58 1_555 1_555
C58 H45 1_555 1_555
C59 C58 1_555 1_555
H46 C59 1_555 1_555
C60 C59 1_555 1_555
C61 C60 1_555 1_555
H47 C61 1_555 1_555
C62 N6 1_555 1_555
H48 C62 1_555 1_555
C63 C1 1_555 1_555
C64 O5 1_555 1_555
H49 C64 1_555 1_555
H50 C64 1_555 1_555
C65 C64 1_555 1_555
H51 C65 1_555 1_555
H52 C65 1_555 1_555
H53 C65 1_555 1_555
C66 C57 1_555 1_555
H54 C66 1_555 1_555
C67 C60 1_555 1_555
H55 C67 1_555 1_555
C68 N8 1_555 1_555
C69 N6 1_555 1_555
H56 C69 1_555 1_555
C70 N7 1_555 1_555
H57 C70 1_555 1_555
C71 C62 1_555 1_555
C72 C71 1_555 1_555
H58 C72 1_555 1_555
C73 C72 1_555 1_555
H59 C73 1_555 1_555
C74 C73 1_555 1_555
C75 C74 1_555 1_555
H60 C75 1_555 1_555
C76 C71 1_555 1_555
H61 C76 1_555 1_555
C77 C70 1_555 1_555
C78 C77 1_555 1_555
H62 C78 1_555 1_555
C79 C78 1_555 1_555
H63 C79 1_555 1_555
C80 C79 1_555 1_555
C81 C80 1_555 1_555
H64 C81 1_555 1_555
C82 C77 1_555 1_555
H65 C82 1_555 1_555
C83 N8 1_555 1_555
H66 C83 1_555 1_555
H67 C83 1_555 1_555
C84 C83 1_555 1_555
C85 O8 1_555 1_555
H68 C85 1_555 1_555
H69 C85 1_555 1_555
O15 C84 1_555 1_555
Cl9 C24 1_555 1_555
C86 O12 1_555 1_555
H70 C86 1_555 1_555
H71 C86 1_555 1_555
C87 O13 1_555 1_555
H72 C87 1_555 1_555
H73 C87 1_555 1_555
C88 C87 1_555 1_555
H74 C88 1_555 1_555
H75 C88 1_555 1_555
H76 C88 1_555 1_555
C89 O9 1_555 1_555
H77 C89 1_555 1_555
H78 C89 1_555 1_555
C90 C89 1_555 1_555
H79 C90 1_555 1_555
H80 C90 1_555 1_555
H81 C90 1_555 1_555
C91 C86 1_555 1_555
H82 C91 1_555 1_555
H83 C91 1_555 1_555
H84 C91 1_555 1_555
C92 C85 1_555 1_555
H85 C92 1_555 1_555
H86 C92 1_555 1_555
H87 C92 1_555 1_555
C93 C56 1_555 1_555
H88 C93 1_555 1_555
H89 C93 1_555 1_555
H90 C93 1_555 1_555
N7 C62 1_555 1_555
C10 C11 1_555 1_555
C12 C13 1_555 1_555
C13 C14 1_555 1_555
C19 C20 1_555 1_555
C25 C26 1_555 1_555
C34 C43 1_555 1_555
C40 C41 1_555 1_555
N9 C42 1_555 1_555
C46 C47 1_555 1_555
C52 C53 1_555 1_555
C66 C67 1_555 1_555
C68 C69 1_555 1_555
C69 C70 1_555 1_555
C75 C76 1_555 1_555
C81 C82 1_555 1_555

#END
