
#######################################################################
#
#                 Cambridge Crystallographic Data Centre
#                                CCDC 
#
#######################################################################
#
# If this CIF has been generated from an entry in the Cambridge 
# Structural Database, then it will include bibliographic, chemical, 
# crystal, experimental, refinement or atomic coordinate data resulting 
# from the CCDC's data processing and validation procedures.
#
#######################################################################

data_XEDWEL
_chemical_formula_moiety         'C11 H16 N4 O2 S1,0.5(H2 O1)'
_chemical_name_systematic        
'ethyl 5-(carbamothioylcarbonohydrazonoyl)-3,4-dimethyl-1H-pyrrole-2-carboxylate hemihydrate'
_symmetry_cell_setting           monoclinic
_symmetry_space_group_name_H-M   'P 2/n'
_symmetry_Int_Tables_number      13
_space_group_name_Hall           '-P 2yac'
loop_
_symmetry_equiv_pos_site_id
_symmetry_equiv_pos_as_xyz
1 x,y,z
2 1/2-x,y,1/2-z
3 -x,-y,-z
4 1/2+x,-y,1/2+z
_cell_length_a                   12.2188(17)
_cell_length_b                   8.1091(11)
_cell_length_c                   14.589(2)
_cell_angle_alpha                90
_cell_angle_beta                 104.155(2)
_cell_angle_gamma                90
_cell_volume                     1401.64
_exptl_crystal_colour            colorless
_exptl_crystal_description       block
_cell_formula_units_Z            4
loop_
_atom_site_label
_atom_site_type_symbol
_atom_site_fract_x
_atom_site_fract_y
_atom_site_fract_z
S1 S 0.63901(6) 0.88538(8) 0.10788(4)
N1 N 0.53970(15) 1.0901(2) 0.31589(12)
N2 N 0.60090(15) 1.0039(2) 0.26414(12)
H1 H 0.6651 0.9618 0.2918
C1 C 0.58540(19) 1.1032(3) 0.40421(14)
H2 H 0.6555 1.0554 0.4292
C2 C 0.52984(17) 1.1905(3) 0.46499(13)
N3 N 0.42541(16) 1.2536(2) 0.43340(13)
C3 C 0.56034(19) 0.9856(3) 0.17041(15)
C4 C 0.48187(19) 1.3233(3) 0.58524(14)
C5 C 0.56743(17) 1.2311(3) 0.56005(14)
N4 N 0.45984(16) 1.0476(3) 0.13310(14)
H3 H 0.4233 1.0971 0.1684
H4 H 0.4307 1.0386 0.0734
C6 C 0.39413(18) 1.3357(3) 0.50462(15)
O1 O 0.21506(16) 1.4049(3) 0.40987(17)
C7 C 0.6780(2) 1.1821(4) 0.62435(16)
H5 H 0.7214 1.1211 0.5892
H6 H 0.6646 1.1146 0.6746
H7 H 0.7188 1.2792 0.6505
O2 O 0.26658(15) 1.4977(2) 0.55795(15)
C8 C 0.2841(2) 1.4143(3) 0.4852(2)
C9 C 0.4871(3) 1.3935(3) 0.68106(17)
H8 H 0.4788 1.5111 0.6765
H9 H 0.5585 1.3667 0.7230
H10 H 0.4273 1.3477 0.7052
C10 C 0.1543(3) 1.5709(5) 0.5463(3)
H11 H 0.1491 1.6720 0.5100
H12 H 0.0971 1.4952 0.5124
C11 C 0.1362(4) 1.6043(5) 0.6353(4)
H13 H 0.1477 1.5056 0.6727
H14 H 0.0603 1.6427 0.6283
H15 H 0.1883 1.6876 0.6660
H16 H 0.3889(19) 1.243(3) 0.3808(17)
O3 O 0.2500 1.2607(4) 0.2500
H17 H 0.266(4) 1.322(5) 0.208(3)
H17A H 0.234(4) 1.322(5) 0.292(3)
loop_
_geom_bond_atom_site_label_1
_geom_bond_atom_site_label_2
_geom_bond_site_symmetry_1
_geom_bond_site_symmetry_2
S1 C3 1_555 1_555
N1 N2 1_555 1_555
N2 H1 1_555 1_555
C1 N1 1_555 1_555
H2 C1 1_555 1_555
C2 C1 1_555 1_555
N3 C2 1_555 1_555
C3 N2 1_555 1_555
C4 C5 1_555 1_555
C5 C2 1_555 1_555
N4 C3 1_555 1_555
H3 N4 1_555 1_555
H4 N4 1_555 1_555
C6 N3 1_555 1_555
O1 C8 1_555 1_555
C7 C5 1_555 1_555
H5 C7 1_555 1_555
H6 C7 1_555 1_555
H7 C7 1_555 1_555
O2 C8 1_555 1_555
C8 C6 1_555 1_555
C9 C4 1_555 1_555
H8 C9 1_555 1_555
H9 C9 1_555 1_555
H10 C9 1_555 1_555
C10 O2 1_555 1_555
H11 C10 1_555 1_555
H12 C10 1_555 1_555
C11 C10 1_555 1_555
H13 C11 1_555 1_555
H14 C11 1_555 1_555
H15 C11 1_555 1_555
H16 N3 1_555 1_555
O3 H17 1_555 1_555
H17A O3 1_555 1_555
C4 C6 1_555 1_555

#END
