
#######################################################################
#
#                 Cambridge Crystallographic Data Centre
#                                CCDC 
#
#######################################################################
#
# If this CIF has been generated from an entry in the Cambridge 
# Structural Database, then it will include bibliographic, chemical, 
# crystal, experimental, refinement or atomic coordinate data resulting 
# from the CCDC's data processing and validation procedures.
#
#######################################################################

data_XEFGOH
_chemical_formula_moiety         
'C84 H102 N10 O12 S6,C2 H3 N1,4(Cl1 O4 1-),3(H2 O1),4(Na1 1+)'
_chemical_name_systematic        
'tris(2-((4,7-di-p-tosyl-1,4,7-triazonan-1-yl)methyl)phenyl)amine tetra-sodium tetraperchlorate acetonitrile solvate trihydrate'
_symmetry_cell_setting           rhombohedral
_symmetry_space_group_name_H-M   'R -3'
_symmetry_Int_Tables_number      148
_space_group_name_Hall           '-R 3'
loop_
_symmetry_equiv_pos_site_id
_symmetry_equiv_pos_as_xyz
1 x,y,z
2 -y,x-y,z
3 -x+y,-x,z
4 2/3+x,1/3+y,1/3+z
5 2/3-y,1/3+x-y,1/3+z
6 2/3-x+y,1/3-x,1/3+z
7 1/3+x,2/3+y,2/3+z
8 1/3-y,2/3+x-y,2/3+z
9 1/3-x+y,2/3-x,2/3+z
10 -x,-y,-z
11 y,-x+y,-z
12 x-y,x,-z
13 1/3-x,2/3-y,2/3-z
14 1/3+y,2/3-x+y,2/3-z
15 1/3+x-y,2/3+x,2/3-z
16 2/3-x,1/3-y,1/3-z
17 2/3+y,1/3-x+y,1/3-z
18 2/3+x-y,1/3+x,1/3-z
_cell_length_a                   19.0324(6)
_cell_length_b                   19.0324(6)
_cell_length_c                   47.378(3)
_cell_angle_alpha                90
_cell_angle_beta                 90
_cell_angle_gamma                120
_cell_volume                     14862.6
_exptl_crystal_colour            colorless
_exptl_crystal_description       block
_cell_formula_units_Z            6
loop_
_atom_site_label
_atom_site_type_symbol
_atom_site_fract_x
_atom_site_fract_y
_atom_site_fract_z
Cl1 Cl 0.37189(5) 0.53070(5) 0.41132(2)
O1 O 0.44696(16) 0.54494(18) 0.42293(6)
O2 O 0.3427(2) 0.57103(18) 0.42995(8)
O3 O 0.31394(15) 0.44572(15) 0.41076(5)
O4 O 0.3841(2) 0.5637(2) 0.38384(7)
S1 S 0.35935(4) 0.41287(4) 0.50820(2)
S2 S 0.26816(4) 0.24814(4) 0.59799(2)
O5 O 0.37642(13) 0.47430(13) 0.48744(5)
O6 O 0.42688(12) 0.40714(13) 0.51905(4)
O7 O 0.30591(13) 0.22797(13) 0.57560(4)
O8 O 0.18361(13) 0.19570(12) 0.60339(5)
N1 N 0.3333 0.6667 0.60524(8)
N2 N 0.17293(14) 0.41178(14) 0.57679(5)
N3 N 0.31148(14) 0.42017(14) 0.53534(5)
N4 N 0.28017(15) 0.33770(14) 0.59090(5)
C1 C 0.26689(16) 0.58907(16) 0.59563(6)
H1 H 0.2841 0.5479 0.5968
H2 H 0.2554 0.5941 0.5756
C2 C 0.18987(16) 0.55979(16) 0.61250(6)
C3 C 0.11877(17) 0.48895(16) 0.60380(6)
C4 C 0.04905(17) 0.46223(17) 0.61984(6)
H3 H 0.0012 0.4140 0.6144
C5 C 0.04706(18) 0.50391(19) 0.64361(6)
H4 H -0.0019 0.4850 0.6539
C6 C 0.11686(18) 0.57321(18) 0.65213(6)
H5 H 0.1162 0.6021 0.6684
C7 C 0.18798(17) 0.60018(17) 0.63666(6)
H6 H 0.2361 0.6471 0.6427
C8 C 0.11634(17) 0.44369(17) 0.57725(6)
H7 H 0.0605 0.3977 0.5747
H8 H 0.1286 0.4805 0.5609
C9 C 0.16908(17) 0.37488(17) 0.54891(6)
H9 H 0.1177 0.3626 0.5395
H10 H 0.1680 0.3228 0.5518
C10 C 0.23959(18) 0.42812(18) 0.52936(6)
H11 H 0.2226 0.4125 0.5095
H12 H 0.2540 0.4855 0.5317
C11 C 0.35894(18) 0.45986(17) 0.56108(6)
H13 H 0.3346 0.4888 0.5707
H14 H 0.4150 0.5007 0.5556
C12 C 0.36197(17) 0.40004(17) 0.58157(6)
H15 H 0.3890 0.3732 0.5724
H16 H 0.3946 0.4298 0.5983
C13 C 0.23934(18) 0.36536(18) 0.61121(6)
H17 H 0.2769 0.4230 0.6159
H18 H 0.2282 0.3337 0.6289
C14 C 0.16041(18) 0.35682(17) 0.60035(6)
H19 H 0.1244 0.3002 0.5941
H20 H 0.1329 0.3682 0.6159
C15 C 0.28857(17) 0.31952(17) 0.49281(6)
C16 C 0.26739(18) 0.24807(17) 0.50716(6)
H21 H 0.2883 0.2495 0.5255
C17 C 0.21539(18) 0.17484(18) 0.49434(6)
H22 H 0.2014 0.1257 0.5039
C18 C 0.18305(18) 0.17173(19) 0.46763(7)
C19 C 0.20360(19) 0.2443(2) 0.45425(6)
H23 H 0.1807 0.2431 0.4363
C20 C 0.25655(18) 0.31828(19) 0.46632(6)
H24 H 0.2709 0.3674 0.4567
C21 C 0.1283(2) 0.0917(2) 0.45376(8)
H25 H 0.0953 0.0517 0.4682
H26 H 0.1611 0.0731 0.4438
H27 H 0.0927 0.0979 0.4403
C22 C 0.32214(19) 0.25878(18) 0.62938(6)
C23 C 0.4066(2) 0.29561(19) 0.62826(7)
H28 H 0.4340 0.3101 0.6106
C24 C 0.4500(2) 0.3107(2) 0.65312(7)
H29 H 0.5074 0.3361 0.6525
C25 C 0.4107(2) 0.2893(2) 0.67897(7)
C26 C 0.3268(2) 0.2518(2) 0.67968(6)
H30 H 0.2996 0.2362 0.6973
C27 C 0.2816(2) 0.23636(19) 0.65505(6)
H31 H 0.2242 0.2110 0.6558
C28 C 0.4592(3) 0.3054(2) 0.70577(8)
H32 H 0.4792 0.2670 0.7072
H33 H 0.4247 0.2986 0.7221
H34 H 0.5053 0.3610 0.7055
S1A S 0.58713(4) 0.94648(6) 0.50820(2)
S2A S 0.75186(4) 1.02002(6) 0.59799(2)
O5A O 0.52570(13) 0.90212(18) 0.48744(5)
O6A O 0.59286(13) 1.01974(18) 0.51905(4)
O7A O 0.77203(13) 1.07794(18) 0.57560(4)
O8A O 0.80430(12) 0.98791(18) 0.60339(5)
N2A N 0.58822(14) 0.76115(20) 0.57679(5)
N3A N 0.57983(14) 0.89131(20) 0.53534(5)
N4A N 0.66230(14) 0.94247(21) 0.59090(5)
C1A C 0.41093(16) 0.67782(23) 0.59563(6)
H1A H 0.4521 0.7362 0.5968
H2A H 0.4059 0.6613 0.5756
C2A C 0.44021(16) 0.63008(23) 0.61250(6)
C3A C 0.51105(16) 0.62982(23) 0.60380(6)
C4A C 0.53777(17) 0.58682(24) 0.61984(6)
H3A H 0.5860 0.5872 0.6144
C5A C 0.49609(19) 0.54315(26) 0.64361(6)
H4A H 0.5150 0.5131 0.6539
C6A C 0.42679(18) 0.54365(25) 0.65213(6)
H5A H 0.3979 0.5141 0.6684
C7A C 0.39982(17) 0.58780(24) 0.63666(6)
H6A H 0.3529 0.5890 0.6427
C8A C 0.55631(17) 0.67265(24) 0.57725(6)
H7A H 0.6023 0.6628 0.5747
H8A H 0.5195 0.6481 0.5609
C9A C 0.62512(17) 0.79420(24) 0.54891(6)
H9A H 0.6374 0.7551 0.5395
H10A H 0.6772 0.8452 0.5518
C10A C 0.57188(18) 0.81147(25) 0.52936(6)
H11A H 0.5875 0.8101 0.5095
H12A H 0.5145 0.7685 0.5317
C11A C 0.54014(17) 0.89908(25) 0.56108(6)
H13A H 0.5112 0.8458 0.5707
H14A H 0.4993 0.9143 0.5556
C12A C 0.59996(17) 0.96193(24) 0.58157(6)
H15A H 0.6268 1.0158 0.5724
H16A H 0.5702 0.9648 0.5983
C13A C 0.63464(18) 0.87398(25) 0.61121(6)
H17A H 0.5770 0.8539 0.6159
H18A H 0.6663 0.8945 0.6289
C14A C 0.64318(17) 0.80359(25) 0.60035(6)
H19A H 0.6998 0.8242 0.5941
H20A H 0.6318 0.7647 0.6159
C15A C 0.68048(17) 0.96905(24) 0.49281(6)
C16A C 0.75193(17) 1.01932(25) 0.50716(6)
H21A H 0.7505 1.0388 0.5255
C17A C 0.82516(18) 1.04055(25) 0.49434(6)
H22A H 0.8743 1.0757 0.5039
C18A C 0.82827(19) 1.01132(26) 0.46763(7)
C19A C 0.7557(2) 0.95930(28) 0.45425(6)
H23A H 0.7569 0.9376 0.4363
C20A C 0.68172(19) 0.93827(26) 0.46632(6)
H24A H 0.6326 0.9035 0.4567
C21A C 0.9083(2) 1.0366(3) 0.45376(8)
H25A H 0.9483 1.0436 0.4682
H26A H 0.9269 1.0880 0.4438
H27A H 0.9021 0.9948 0.4403
C22A C 0.74122(18) 1.06336(26) 0.62938(6)
C23A C 0.70439(19) 1.11099(28) 0.62826(7)
H28A H 0.6899 1.1239 0.6106
C24A C 0.6893(2) 1.1393(3) 0.65312(7)
H29A H 0.6639 1.1713 0.6525
C25A C 0.7107(2) 1.1214(3) 0.67897(7)
C26A C 0.7482(2) 1.0750(3) 0.67968(6)
H30A H 0.7638 1.0634 0.6973
C27A C 0.76364(19) 1.04524(28) 0.65505(6)
H31A H 0.7890 1.0132 0.6558
C28A C 0.6946(2) 1.1538(4) 0.70577(8)
H32A H 0.7330 1.2122 0.7072
H33A H 0.7014 1.1261 0.7221
H34A H 0.6390 1.1443 0.7055
S1B S 0.05352(6) 0.64065(4) 0.50820(2)
S2B S -0.02002(6) 0.73184(4) 0.59799(2)
O5B O 0.09788(18) 0.62358(13) 0.48744(5)
O6B O -0.01974(18) 0.57312(12) 0.51905(4)
O7B O -0.07794(18) 0.69409(13) 0.57560(4)
O8B O 0.01209(18) 0.81639(13) 0.60339(5)
N2B N 0.23885(20) 0.82707(14) 0.57679(5)
N3B N 0.10869(20) 0.68852(14) 0.53534(5)
N4B N 0.05753(21) 0.71983(15) 0.59090(5)
C1B C 0.32218(23) 0.73311(16) 0.59563(6)
H1B H 0.2638 0.7159 0.5968
H2B H 0.3387 0.7446 0.5756
C2B C 0.36992(23) 0.81013(16) 0.61250(6)
C3B C 0.37018(23) 0.88123(17) 0.60380(6)
C4B C 0.41318(24) 0.95095(17) 0.61984(6)
H3B H 0.4128 0.9988 0.6144
C5B C 0.45685(26) 0.95294(18) 0.64361(6)
H4B H 0.4869 1.0019 0.6539
C6B C 0.45635(25) 0.88314(18) 0.65213(6)
H5B H 0.4859 0.8838 0.6684
C7B C 0.41220(24) 0.81202(17) 0.63666(6)
H6B H 0.4110 0.7639 0.6427
C8B C 0.32735(24) 0.88366(17) 0.57725(6)
H7B H 0.3372 0.9395 0.5747
H8B H 0.3519 0.8714 0.5609
C9B C 0.20580(24) 0.83092(17) 0.54891(6)
H9B H 0.2449 0.8823 0.5395
H10B H 0.1548 0.8320 0.5518
C10B C 0.18853(25) 0.76041(18) 0.52936(6)
H11B H 0.1899 0.7774 0.5095
H12B H 0.2315 0.7460 0.5317
C11B C 0.10092(25) 0.64106(18) 0.56108(6)
H13B H 0.1542 0.6654 0.5707
H14B H 0.0857 0.5850 0.5556
C12B C 0.03807(24) 0.63803(17) 0.58157(6)
H15B H -0.0158 0.6110 0.5724
H16B H 0.0352 0.6054 0.5983
C13B C 0.12602(25) 0.76066(18) 0.61121(6)
H17B H 0.1461 0.7231 0.6159
H18B H 0.1055 0.7718 0.6289
C14B C 0.19641(25) 0.83959(18) 0.60035(6)
H19B H 0.1758 0.8756 0.5941
H20B H 0.2353 0.8671 0.6159
C15B C 0.03095(24) 0.71143(17) 0.49281(6)
C16B C -0.01932(25) 0.73261(18) 0.50716(6)
H21B H -0.0388 0.7117 0.5255
C17B C -0.04055(25) 0.78461(18) 0.49434(6)
H22B H -0.0757 0.7986 0.5039
C18B C -0.01132(26) 0.81695(18) 0.46763(7)
C19B C 0.04070(28) 0.79640(19) 0.45425(6)
H23B H 0.0624 0.8193 0.4363
C20B C 0.06173(26) 0.74345(18) 0.46632(6)
H24B H 0.0965 0.7291 0.4567
C21B C -0.0366(3) 0.8717(2) 0.45376(8)
H25B H -0.0436 0.9047 0.4682
H26B H -0.0880 0.8389 0.4438
H27B H 0.0052 0.9073 0.4403
C22B C -0.06336(26) 0.67786(19) 0.62938(6)
C23B C -0.11099(28) 0.5934(2) 0.62826(7)
H28B H -0.1239 0.5660 0.6106
C24B C -0.1393(3) 0.5500(2) 0.65312(7)
H29B H -0.1713 0.4926 0.6525
C25B C -0.1214(3) 0.5893(2) 0.67897(7)
C26B C -0.0750(3) 0.6732(2) 0.67968(6)
H30B H -0.0634 0.7004 0.6973
C27B C -0.04524(28) 0.7184(2) 0.65505(6)
H31B H -0.0132 0.7758 0.6558
C28B C -0.1538(4) 0.5408(3) 0.70577(8)
H32B H -0.2122 0.5208 0.7072
H33B H -0.1261 0.5753 0.7221
H34B H -0.1443 0.4947 0.7055
Na1 Na 0.45638(7) 0.60247(7) 0.47122(3)
Na2 Na 0.3333 0.6667 0.39123(6)
O9 O 0.54262(16) 0.73062(15) 0.45537(6)
H35 H 0.509(2) 0.744(3) 0.4488(10)
H36 H 0.585(2) 0.742(3) 0.4457(10)
N5 N 0.3333 0.6667 0.33938(13)
C29 C 0.3333 0.6667 0.31513(15)
C30 C 0.3333 0.6667 0.28423(14)
H37 H 0.3406 0.6222 0.2773
H37A H 0.3778 0.7184 0.2773
H37B H 0.2816 0.6594 0.2773
O10? O 0.3757(6) 0.6375(6) 0.5238(2)
H38? H 0.3406 0.6221 0.2773
H39? H 0.3407 0.6222 0.2773
Cl2? Cl 0.3333 0.6667 0.50411(3)
O11? O 0.3524(6) 0.6431(6) 0.47640(17)
O12? O 0.3866(3) 0.6385(3) 0.50758(12)
loop_
_geom_bond_atom_site_label_1
_geom_bond_atom_site_label_2
_geom_bond_site_symmetry_1
_geom_bond_site_symmetry_2
Cl1 O1 1_555 1_555
O2 Cl1 1_555 1_555
O3 Cl1 1_555 1_555
O4 Cl1 1_555 1_555
S1 O5 1_555 1_555
S2 O7 1_555 1_555
O6 S1 1_555 1_555
O8 S2 1_555 1_555
N1 C1 1_555 1_555
N2 C8 1_555 1_555
N3 S1 1_555 1_555
N4 S2 1_555 1_555
C1 H1 1_555 1_555
H2 C1 1_555 1_555
C2 C1 1_555 1_555
C3 C2 1_555 1_555
C4 C3 1_555 1_555
H3 C4 1_555 1_555
C5 C4 1_555 1_555
H4 C5 1_555 1_555
C6 C5 1_555 1_555
H5 C6 1_555 1_555
C7 C2 1_555 1_555
H6 C7 1_555 1_555
C8 C3 1_555 1_555
H7 C8 1_555 1_555
H8 C8 1_555 1_555
C9 N2 1_555 1_555
H9 C9 1_555 1_555
H10 C9 1_555 1_555
C10 N3 1_555 1_555
H11 C10 1_555 1_555
H12 C10 1_555 1_555
C11 N3 1_555 1_555
H13 C11 1_555 1_555
H14 C11 1_555 1_555
C12 N4 1_555 1_555
H15 C12 1_555 1_555
H16 C12 1_555 1_555
C13 N4 1_555 1_555
H17 C13 1_555 1_555
H18 C13 1_555 1_555
C14 N2 1_555 1_555
H19 C14 1_555 1_555
H20 C14 1_555 1_555
C15 S1 1_555 1_555
C16 C15 1_555 1_555
H21 C16 1_555 1_555
C17 C16 1_555 1_555
H22 C17 1_555 1_555
C18 C17 1_555 1_555
C19 C18 1_555 1_555
H23 C19 1_555 1_555
C20 C15 1_555 1_555
H24 C20 1_555 1_555
C21 C18 1_555 1_555
H25 C21 1_555 1_555
H26 C21 1_555 1_555
H27 C21 1_555 1_555
C22 S2 1_555 1_555
C23 C22 1_555 1_555
H28 C23 1_555 1_555
C24 C23 1_555 1_555
H29 C24 1_555 1_555
C25 C24 1_555 1_555
C26 C25 1_555 1_555
H30 C26 1_555 1_555
C27 C22 1_555 1_555
H31 C27 1_555 1_555
C28 C25 1_555 1_555
H32 C28 1_555 1_555
H33 C28 1_555 1_555
H34 C28 1_555 1_555
O9 H35 1_555 1_555
H36 O9 1_555 1_555
N5 C29 1_555 1_555
C29 C30 1_555 1_555
C30 H37 1_555 1_555
S1A O5A 1_555 1_555
S2A O7A 1_555 1_555
O6A S1A 1_555 1_555
O8A S2A 1_555 1_555
N2A C8A 1_555 1_555
N3A S1A 1_555 1_555
N4A S2A 1_555 1_555
C1A N1 1_555 1_555
H1A C1A 1_555 1_555
H2A C1A 1_555 1_555
C2A C1A 1_555 1_555
C3A C2A 1_555 1_555
C4A C3A 1_555 1_555
H3A C4A 1_555 1_555
C5A C4A 1_555 1_555
H4A C5A 1_555 1_555
C6A C5A 1_555 1_555
H5A C6A 1_555 1_555
C7A C2A 1_555 1_555
H6A C7A 1_555 1_555
C8A C3A 1_555 1_555
H7A C8A 1_555 1_555
H8A C8A 1_555 1_555
C9A N2A 1_555 1_555
H9A C9A 1_555 1_555
H10A C9A 1_555 1_555
C10A N3A 1_555 1_555
H11A C10A 1_555 1_555
H12A C10A 1_555 1_555
C11A N3A 1_555 1_555
H13A C11A 1_555 1_555
H14A C11A 1_555 1_555
C12A N4A 1_555 1_555
H15A C12A 1_555 1_555
H16A C12A 1_555 1_555
C13A N4A 1_555 1_555
H17A C13A 1_555 1_555
H18A C13A 1_555 1_555
C14A N2A 1_555 1_555
H19A C14A 1_555 1_555
H20A C14A 1_555 1_555
C15A S1A 1_555 1_555
C16A C15A 1_555 1_555
H21A C16A 1_555 1_555
C17A C16A 1_555 1_555
H22A C17A 1_555 1_555
C18A C17A 1_555 1_555
C19A C18A 1_555 1_555
H23A C19A 1_555 1_555
C20A C15A 1_555 1_555
H24A C20A 1_555 1_555
C21A C18A 1_555 1_555
H25A C21A 1_555 1_555
H26A C21A 1_555 1_555
H27A C21A 1_555 1_555
C22A S2A 1_555 1_555
C23A C22A 1_555 1_555
H28A C23A 1_555 1_555
C24A C23A 1_555 1_555
H29A C24A 1_555 1_555
C25A C24A 1_555 1_555
C26A C25A 1_555 1_555
H30A C26A 1_555 1_555
C27A C22A 1_555 1_555
H31A C27A 1_555 1_555
C28A C25A 1_555 1_555
H32A C28A 1_555 1_555
H33A C28A 1_555 1_555
H34A C28A 1_555 1_555
S1B O5B 1_555 1_555
S2B O7B 1_555 1_555
O6B S1B 1_555 1_555
O8B S2B 1_555 1_555
N2B C8B 1_555 1_555
N3B S1B 1_555 1_555
N4B S2B 1_555 1_555
C1B N1 1_555 1_555
H1B C1B 1_555 1_555
H2B C1B 1_555 1_555
C2B C1B 1_555 1_555
C3B C2B 1_555 1_555
C4B C3B 1_555 1_555
H3B C4B 1_555 1_555
C5B C4B 1_555 1_555
H4B C5B 1_555 1_555
C6B C5B 1_555 1_555
H5B C6B 1_555 1_555
C7B C2B 1_555 1_555
H6B C7B 1_555 1_555
C8B C3B 1_555 1_555
H7B C8B 1_555 1_555
H8B C8B 1_555 1_555
C9B N2B 1_555 1_555
H9B C9B 1_555 1_555
H10B C9B 1_555 1_555
C10B N3B 1_555 1_555
H11B C10B 1_555 1_555
H12B C10B 1_555 1_555
C11B N3B 1_555 1_555
H13B C11B 1_555 1_555
H14B C11B 1_555 1_555
C12B N4B 1_555 1_555
H15B C12B 1_555 1_555
H16B C12B 1_555 1_555
C13B N4B 1_555 1_555
H17B C13B 1_555 1_555
H18B C13B 1_555 1_555
C14B N2B 1_555 1_555
H19B C14B 1_555 1_555
H20B C14B 1_555 1_555
C15B S1B 1_555 1_555
C16B C15B 1_555 1_555
H21B C16B 1_555 1_555
C17B C16B 1_555 1_555
H22B C17B 1_555 1_555
C18B C17B 1_555 1_555
C19B C18B 1_555 1_555
H23B C19B 1_555 1_555
C20B C15B 1_555 1_555
H24B C20B 1_555 1_555
C21B C18B 1_555 1_555
H25B C21B 1_555 1_555
H26B C21B 1_555 1_555
H27B C21B 1_555 1_555
C22B S2B 1_555 1_555
C23B C22B 1_555 1_555
H28B C23B 1_555 1_555
C24B C23B 1_555 1_555
H29B C24B 1_555 1_555
C25B C24B 1_555 1_555
C26B C25B 1_555 1_555
H30B C26B 1_555 1_555
C27B C22B 1_555 1_555
H31B C27B 1_555 1_555
C28B C25B 1_555 1_555
H32B C28B 1_555 1_555
H33B C28B 1_555 1_555
H34B C28B 1_555 1_555
H37A C30 1_555 1_555
H37B C30 1_555 1_555
C6 C7 1_555 1_555
C9 C10 1_555 1_555
C11 C12 1_555 1_555
C13 C14 1_555 1_555
C19 C20 1_555 1_555
C26 C27 1_555 1_555
C6A C7A 1_555 1_555
C9A C10A 1_555 1_555
C11A C12A 1_555 1_555
C13A C14A 1_555 1_555
C19A C20A 1_555 1_555
C26A C27A 1_555 1_555
C6B C7B 1_555 1_555
C9B C10B 1_555 1_555
C11B C12B 1_555 1_555
C13B C14B 1_555 1_555
C19B C20B 1_555 1_555
C26B C27B 1_555 1_555

#END
