
#######################################################################
#
#                 Cambridge Crystallographic Data Centre
#                                CCDC 
#
#######################################################################
#
# If this CIF has been generated from an entry in the Cambridge 
# Structural Database, then it will include bibliographic, chemical, 
# crystal, experimental, refinement or atomic coordinate data resulting 
# from the CCDC's data processing and validation procedures.
#
#######################################################################

data_XEFZIU
_chemical_name_common            'Piperazine bis(azilsartan) ethanol solvate'
_chemical_formula_moiety         '2(C25 H19 N4 O5 1-),C4 H12 N2 2+,2(C2 H6 O1)'
_chemical_name_systematic        
"piperazine-1,4-diium bis(2-ethoxy-1-{[2'-(5-oxo-4,5-dihydro-1,2,4-oxadiazol-3-yl)[1,1'-biphenyl]-4-yl]methyl}-1H-benzimidazole-7-carboxylate) ethanol solvate"
_symmetry_cell_setting           triclinic
_symmetry_space_group_name_H-M   'P -1'
_symmetry_Int_Tables_number      2
_space_group_name_Hall           '-P 1'
loop_
_symmetry_equiv_pos_site_id
_symmetry_equiv_pos_as_xyz
1 x,y,z
2 -x,-y,-z
_cell_length_a                   5.7924(4)
_cell_length_b                   13.4728(13)
_cell_length_c                   17.3811(18)
_cell_angle_alpha                82.781(8)
_cell_angle_beta                 85.788(7)
_cell_angle_gamma                89.002(7)
_cell_volume                     1341.99
_exptl_crystal_colour            colorless
_exptl_crystal_description       block
_cell_formula_units_Z            1
loop_
_atom_site_label
_atom_site_type_symbol
_atom_site_fract_x
_atom_site_fract_y
_atom_site_fract_z
C1 C 1.4618(6) 0.1423(3) 0.4754(2)
C2 C 1.1859(5) 0.1430(2) 0.39432(17)
C3 C 1.0161(5) 0.1028(2) 0.34837(18)
C4 C 0.9716(5) 0.0002(2) 0.3627(2)
H1 H 1.0541 -0.0397 0.3990
C5 C 0.8093(6) -0.0427(3) 0.3244(2)
H2 H 0.7841 -0.1113 0.3338
C6 C 0.6840(6) 0.0162(3) 0.2720(2)
H3 H 0.5713 -0.0124 0.2466
C7 C 0.7239(5) 0.1175(3) 0.2569(2)
H4 H 0.6372 0.1564 0.2213
C8 C 0.8912(5) 0.1629(2) 0.29373(18)
C9 C 0.9312(4) 0.2725(2) 0.27142(16)
C10 C 0.7612(4) 0.3418(2) 0.28699(16)
H5 H 0.6200 0.3200 0.3117
C11 C 0.7974(4) 0.4425(2) 0.26650(16)
H6 H 0.6805 0.4877 0.2777
C12 C 1.0050(4) 0.4776(2) 0.22943(15)
C13 C 1.1713(4) 0.4082(2) 0.21113(16)
H7 H 1.3105 0.4300 0.1849
C14 C 1.1347(5) 0.3066(2) 0.23120(18)
H8 H 1.2480 0.2610 0.2175
C15 C 1.0575(4) 0.5871(2) 0.21248(16)
H9 H 1.0754 0.6131 0.2613
H10 H 1.2043 0.5951 0.1818
C16 C 1.2932(6) 0.6014(3) -0.0606(2)
H11 H 1.4250 0.6275 -0.0397
H12 H 1.3069 0.6155 -0.1163
H13 H 1.2861 0.5303 -0.0460
C17 C 1.0799(6) 0.6488(3) -0.02978(18)
H14 H 1.0883 0.7209 -0.0423
H15 H 0.9463 0.6256 -0.0527
C18 C 0.8878(5) 0.6641(2) 0.09203(17)
C19 C 0.6908(4) 0.7005(2) 0.19812(16)
C20 C 0.5924(4) 0.7446(2) 0.13076(17)
C21 C 0.3930(5) 0.8020(2) 0.13577(19)
H16 H 0.3269 0.8315 0.0912
C22 C 0.2952(5) 0.8140(2) 0.2084(2)
H17 H 0.1619 0.8530 0.2130
C23 C 0.3911(4) 0.7695(2) 0.27481(18)
H18 H 0.3184 0.7784 0.3230
C24 C 0.5916(4) 0.7119(2) 0.27228(17)
C25 C 0.6907(4) 0.6698(2) 0.34693(16)
H19 H 1.341(7) 0.0186(15) 0.448(3)
N1 N 1.3296(5) 0.0840(2) 0.43947(17)
N2 N 1.2179(4) 0.2364(2) 0.39942(16)
N3 N 0.8834(3) 0.64697(17) 0.17128(13)
N4 N 0.7215(4) 0.7212(2) 0.06431(14)
O1 O 1.6124(5) 0.12189(19) 0.51905(16)
O2 O 1.3986(4) 0.23716(16) 0.45195(13)
O3 O 1.0596(3) 0.62193(17) 0.05305(11)
O4 O 0.8934(3) 0.69294(17) 0.35624(12)
O5 O 0.5710(3) 0.61337(17) 0.39593(12)
C26 C -0.1057(4) 0.4186(2) 0.46996(17)
H20 H -0.2273 0.4523 0.4409
H21 H -0.1122 0.3477 0.4653
C27 C 0.1250(4) 0.4590(2) 0.43718(17)
H22 H 0.2470 0.4213 0.4633
H23 H 0.1451 0.4515 0.3823
N5 N 0.1424(3) 0.56585(18) 0.44731(13)
H24 H 0.2833 0.5885 0.4285
H25 H 0.0360 0.6013 0.4200
C26A C 0.1057(4) 0.5814(2) 0.53004(17)
H20A H 0.2273 0.5477 0.5591
H21A H 0.1122 0.6523 0.5347
C27A C -0.1250(4) 0.5410(2) 0.56282(17)
H22A H -0.2470 0.5787 0.5367
H23A H -0.1451 0.5485 0.6177
N5A N -0.1424(3) 0.43415(18) 0.55269(13)
H24A H -0.2833 0.4115 0.5715
H25A H -0.0360 0.3987 0.5800
C28 C 0.6669(17) 0.9173(5) 0.9166(5)
H26 H 0.5853 0.9464 0.9592
H27 H 0.6143 0.9538 0.8693
C29 C 0.8996(14) 0.9439(7) 0.9181(8)
H28 H 0.9132 1.0153 0.9087
H29 H 0.9914 0.9142 0.8786
H30 H 0.9535 0.9203 0.9682
H31 H 0.652(13) 0.792(6) 0.957(4)
O6 O 0.5825(8) 0.8259(4) 0.9199(2)
loop_
_geom_bond_atom_site_label_1
_geom_bond_atom_site_label_2
_geom_bond_site_symmetry_1
_geom_bond_site_symmetry_2
C1 N1 1_555 1_555
C2 C3 1_555 1_555
C3 C4 1_555 1_555
C4 H1 1_555 1_555
C5 C4 1_555 1_555
H2 C5 1_555 1_555
C6 C5 1_555 1_555
H3 C6 1_555 1_555
C7 C6 1_555 1_555
H4 C7 1_555 1_555
C8 C3 1_555 1_555
C9 C8 1_555 1_555
C10 C9 1_555 1_555
H5 C10 1_555 1_555
C11 C10 1_555 1_555
H6 C11 1_555 1_555
C12 C11 1_555 1_555
C13 C12 1_555 1_555
H7 C13 1_555 1_555
C14 C9 1_555 1_555
H8 C14 1_555 1_555
C15 C12 1_555 1_555
H9 C15 1_555 1_555
H10 C15 1_555 1_555
C16 H11 1_555 1_555
H12 C16 1_555 1_555
H13 C16 1_555 1_555
C17 C16 1_555 1_555
H14 C17 1_555 1_555
H15 C17 1_555 1_555
C18 N3 1_555 1_555
C19 C20 1_555 1_555
C20 C21 1_555 1_555
C21 H16 1_555 1_555
C22 C21 1_555 1_555
H17 C22 1_555 1_555
C23 C22 1_555 1_555
H18 C23 1_555 1_555
C24 C19 1_555 1_555
C25 C24 1_555 1_555
H19 N1 1_555 1_555
N1 C2 1_555 1_555
N2 C2 1_555 1_555
N3 C15 1_555 1_555
N4 C18 1_555 1_555
O1 C1 1_555 1_555
O2 C1 1_555 1_555
O3 C17 1_555 1_555
O4 C25 1_555 1_555
O5 C25 1_555 1_555
C26 H20 1_555 1_555
H21 C26 1_555 1_555
C27 C26 1_555 1_555
H22 C27 1_555 1_555
H23 C27 1_555 1_555
N5 C27 1_555 1_555
H24 N5 1_555 1_555
H25 N5 1_555 1_555
C28 H26 1_555 1_555
H27 C28 1_555 1_555
C29 C28 1_555 1_555
H28 C29 1_555 1_555
H29 C29 1_555 1_555
H30 C29 1_555 1_555
H31 O6 1_555 1_555
O6 C28 1_555 1_555
C26A N5 1_555 1_555
H20A C26A 1_555 1_555
H21A C26A 1_555 1_555
C27A C26A 1_555 1_555
H22A C27A 1_555 1_555
H23A C27A 1_555 1_555
N5A C26 1_555 1_555
H24A N5A 1_555 1_555
H25A N5A 1_555 1_555
C7 C8 1_555 1_555
C13 C14 1_555 1_555
C18 O3 1_555 1_555
C19 N3 1_555 1_555
C20 N4 1_555 1_555
C23 C24 1_555 1_555
N2 O2 1_555 1_555
C27A N5A 1_555 1_555

#END
