
#######################################################################
#
#                 Cambridge Crystallographic Data Centre
#                                CCDC 
#
#######################################################################
#
# If this CIF has been generated from an entry in the Cambridge 
# Structural Database, then it will include bibliographic, chemical, 
# crystal, experimental, refinement or atomic coordinate data resulting 
# from the CCDC's data processing and validation procedures.
#
#######################################################################

data_XEGMAX01
_chemical_formula_moiety         'C13 H16 N2 O6 S1'
_chemical_name_systematic        
'1-(2-Nitrophenylsulfonylamino)cyclohexane carboxylic acid'
_symmetry_cell_setting           monoclinic
_symmetry_space_group_name_H-M   'P 21/c'
_symmetry_Int_Tables_number      14
_space_group_name_Hall           '-P 2ybc'
loop_
_symmetry_equiv_pos_site_id
_symmetry_equiv_pos_as_xyz
1 x,y,z
2 x,1/2-y,1/2+z
3 -x,-y,-z
4 -x,1/2+y,1/2-z
_cell_length_a                   15.9780(12)
_cell_length_b                   14.9840(11)
_cell_length_c                   13.4360(10)
_cell_angle_alpha                90
_cell_angle_beta                 113.568(6)
_cell_angle_gamma                90
_cell_volume                     2948.45
_exptl_crystal_colour            colorless
_cell_formula_units_Z            8
_exptl_crystal_recrystallization_method ethanol
loop_
_atom_site_label
_atom_site_type_symbol
_atom_site_fract_x
_atom_site_fract_y
_atom_site_fract_z
S1 S 0.09596(3) 0.97588(3) 0.32063(4)
O1 O 0.07698(10) 0.95375(10) 0.21026(12)
O2 O 0.06725(10) 0.91675(10) 0.38543(13)
O3 O 0.24607(11) 0.81592(10) 0.40654(12)
H1 H 0.241(2) 0.760(2) 0.413(2)
O4 O 0.24094(10) 0.81240(9) 0.57073(11)
O5 O 0.14870(10) 1.12141(11) 0.19518(12)
O6 O 0.01772(13) 1.15342(15) 0.06488(13)
N1 N 0.20410(11) 0.99212(11) 0.38608(14)
H2 H 0.2302(18) 1.0027(18) 0.345(2)
N2 N 0.06654(12) 1.13870(12) 0.15986(14)
C1 C 0.24585(12) 0.85404(13) 0.49489(16)
C2 C 0.25654(13) 0.95561(13) 0.49575(15)
C3 C 0.04003(12) 1.07902(13) 0.31794(16)
C4 C 0.00172(14) 1.09270(15) 0.39323(18)
H3 H 0.0113 1.0496 0.4486
C5 C -0.05019(14) 1.16799(15) 0.38932(18)
H4 H -0.0745 1.1767 0.4426
C6 C -0.06639(13) 1.23023(14) 0.30794(17)
H5 H -0.1031 1.2811 0.3041
C7 C -0.02901(13) 1.21842(13) 0.23183(16)
H6 H -0.0401 1.2609 0.1755
C8 C 0.02452(13) 1.14433(13) 0.23865(15)
C9 C 0.35848(13) 0.97477(14) 0.52258(17)
H7 H 0.3966 0.9447 0.5915
H8 H 0.3747 0.9498 0.4645
C10 C 0.22940(14) 0.99947(13) 0.58202(17)
H9 H 0.1636 0.9894 0.5631
H10 H 0.2640 0.9714 0.6535
C11 C 0.37919(14) 1.07499(14) 0.53325(18)
H11 H 0.4456 1.0841 0.5559
H12 H 0.3475 1.1038 0.4616
C12 C 0.34900(16) 1.11890(16) 0.61550(18)
H13 H 0.3584 1.1842 0.6152
H14 H 0.3870 1.0963 0.6891
C13 C 0.24882(15) 1.09985(14) 0.58985(18)
H15 H 0.2104 1.1287 0.5202
H16 H 0.2325 1.1259 0.6474
S2 S 0.39312(3) 0.48665(3) 0.68607(4)
O7 O 0.39760(11) 0.49706(10) 0.79381(12)
O8 O 0.42115(10) 0.55820(10) 0.63517(13)
O9 O 0.23298(11) 0.63264(10) 0.58293(12)
H17 H 0.231(2) 0.691(2) 0.573(2)
O10 O 0.23567(10) 0.64204(9) 0.41800(11)
O11 O 0.34019(10) 0.31660(11) 0.77393(12)
O12 O 0.46285(12) 0.27744(12) 0.91166(13)
N3 N 0.29094(11) 0.46090(11) 0.60551(13)
H18 H 0.2599(18) 0.4333(18) 0.632(2)
N4 N 0.42296(12) 0.30432(11) 0.81867(14)
C14 C 0.23842(12) 0.59795(13) 0.49588(16)
C15 C 0.24470(13) 0.49593(12) 0.49482(15)
C16 C 0.46525(13) 0.39516(13) 0.68908(16)
C17 C 0.51743(13) 0.40143(15) 0.62783(18)
H19 H 0.5119 0.4528 0.5841
C18 C 0.57751(15) 0.33409(16) 0.6293(2)
H20 H 0.6109 0.3387 0.5849
C19 C 0.58903(14) 0.25994(15) 0.69563(19)
H21 H 0.6304 0.2140 0.6968
C20 C 0.53985(14) 0.25345(14) 0.75990(18)
H22 H 0.5486 0.2040 0.8072
C21 C 0.47783(13) 0.31967(13) 0.75465(16)
C22 C 0.14586(13) 0.45971(14) 0.45016(16)
H23 H 0.1178 0.4742 0.5019
H24 H 0.1096 0.4896 0.3804
C23 C 0.29091(14) 0.46655(13) 0.41918(16)
H25 H 0.2601 0.4960 0.3478
H26 H 0.3554 0.4864 0.4503
C24 C 0.14241(14) 0.35880(14) 0.43242(18)
H27 H 0.1723 0.3285 0.5035
H28 H 0.0779 0.3392 0.3997
C25 C 0.18975(15) 0.33127(15) 0.35862(18)
H29 H 0.1898 0.2654 0.3531
H30 H 0.1557 0.3557 0.2849
C26 C 0.28770(14) 0.36558(14) 0.40289(18)
H31 H 0.3159 0.3502 0.3516
H32 H 0.3234 0.3361 0.4731
loop_
_geom_bond_atom_site_label_1
_geom_bond_atom_site_label_2
_geom_bond_site_symmetry_1
_geom_bond_site_symmetry_2
S1 O1 1_555 1_555
O2 S1 1_555 1_555
O3 H1 1_555 1_555
O4 C1 1_555 1_555
O5 N2 1_555 1_555
O6 N2 1_555 1_555
N1 S1 1_555 1_555
H2 N1 1_555 1_555
N2 C8 1_555 1_555
C1 O3 1_555 1_555
C2 N1 1_555 1_555
C3 S1 1_555 1_555
C4 C3 1_555 1_555
H3 C4 1_555 1_555
C5 C4 1_555 1_555
H4 C5 1_555 1_555
C6 C5 1_555 1_555
H5 C6 1_555 1_555
C7 C6 1_555 1_555
H6 C7 1_555 1_555
C8 C3 1_555 1_555
C9 C2 1_555 1_555
H7 C9 1_555 1_555
H8 C9 1_555 1_555
C10 C2 1_555 1_555
H9 C10 1_555 1_555
H10 C10 1_555 1_555
C11 C9 1_555 1_555
H11 C11 1_555 1_555
H12 C11 1_555 1_555
C12 C11 1_555 1_555
H13 C12 1_555 1_555
H14 C12 1_555 1_555
C13 C10 1_555 1_555
H15 C13 1_555 1_555
H16 C13 1_555 1_555
S2 O7 1_555 1_555
O8 S2 1_555 1_555
O9 H17 1_555 1_555
O10 C14 1_555 1_555
O11 N4 1_555 1_555
O12 N4 1_555 1_555
N3 S2 1_555 1_555
H18 N3 1_555 1_555
N4 C21 1_555 1_555
C14 O9 1_555 1_555
C15 N3 1_555 1_555
C16 S2 1_555 1_555
C17 C16 1_555 1_555
H19 C17 1_555 1_555
C18 C17 1_555 1_555
H20 C18 1_555 1_555
C19 C18 1_555 1_555
H21 C19 1_555 1_555
C20 C19 1_555 1_555
H22 C20 1_555 1_555
C21 C16 1_555 1_555
C22 C15 1_555 1_555
H23 C22 1_555 1_555
H24 C22 1_555 1_555
C23 C15 1_555 1_555
H25 C23 1_555 1_555
H26 C23 1_555 1_555
C24 C22 1_555 1_555
H27 C24 1_555 1_555
H28 C24 1_555 1_555
C25 C24 1_555 1_555
H29 C25 1_555 1_555
H30 C25 1_555 1_555
C26 C23 1_555 1_555
H31 C26 1_555 1_555
H32 C26 1_555 1_555
C1 C2 1_555 1_555
C7 C8 1_555 1_555
C12 C13 1_555 1_555
C14 C15 1_555 1_555
C20 C21 1_555 1_555
C25 C26 1_555 1_555

#END
