
#######################################################################
#
#                 Cambridge Crystallographic Data Centre
#                                CCDC 
#
#######################################################################
#
# If this CIF has been generated from an entry in the Cambridge 
# Structural Database, then it will include bibliographic, chemical, 
# crystal, experimental, refinement or atomic coordinate data resulting 
# from the CCDC's data processing and validation procedures.
#
#######################################################################

data_XEGNEC
_chemical_name_common            
(2Z)-2,3-bis((4-Nitrobenzyl)sulfanyl)but-2-enedinitrile
_chemical_formula_moiety         'C18 H12 N4 O4 S2'
_chemical_name_systematic        2,3-Bis(4-nitrobenzylthio)maleonitrile
_symmetry_cell_setting           monoclinic
_symmetry_space_group_name_H-M   'C 2/c'
_symmetry_Int_Tables_number      15
_space_group_name_Hall           '-C 2yn'
loop_
_symmetry_equiv_pos_site_id
_symmetry_equiv_pos_as_xyz
1 x,y,z
2 1/2+x,1/2+y,z
3 x,-y,1/2+z
4 1/2+x,1/2-y,1/2+z
5 -x,-y,-z
6 1/2-x,1/2-y,-z
7 -x,y,1/2-z
8 1/2-x,1/2+y,1/2-z
_cell_length_a                   29.456(6)
_cell_length_b                   15.440(3)
_cell_length_c                   8.1900(16)
_cell_angle_alpha                90
_cell_angle_beta                 99.52(3)
_cell_angle_gamma                90
_cell_volume                     3673.52
_exptl_crystal_colour            yellow
_exptl_crystal_description       Block
_chemical_melting_point          '419-421 K'
_cell_formula_units_Z            8
_exptl_crystal_recrystallization_method acetone/n-butanol
loop_
_atom_site_label
_atom_site_type_symbol
_atom_site_fract_x
_atom_site_fract_y
_atom_site_fract_z
S1 S 0.13345(2) 0.32203(4) 0.11857(8)
S2 S 0.20796(2) 0.30507(4) -0.10797(8)
N1 N 0.33696(8) 0.65987(15) 0.0285(3)
C1 C 0.03974(8) 0.27761(15) 0.0872(3)
C2 C 0.27203(7) 0.43007(14) -0.1641(3)
O1 O 0.37613(8) 0.65487(15) 0.1055(3)
C3 C 0.15820(8) 0.36628(14) -0.1722(3)
C4 C 0.24889(8) 0.34788(15) -0.2312(3)
H1 H 0.2723 0.3044 -0.2378
H2 H 0.2329 0.3585 -0.3428
C5 C 0.08543(8) 0.42297(15) -0.1286(3)
O2 O -0.10169(7) 0.16278(16) -0.2452(3)
C6 C 0.31496(8) 0.57963(15) -0.0407(3)
C7 C 0.00946(9) 0.13808(17) -0.0063(3)
H3 H 0.0128 0.0783 -0.0128
C8 C -0.00122(8) 0.31492(17) 0.0138(3)
H4 H -0.0051 0.3745 0.0214
C9 C 0.12549(7) 0.37206(14) -0.0749(3)
N2 N 0.14756(9) 0.43232(16) -0.4637(3)
O3 O 0.31547(8) 0.72727(13) 0.0082(3)
C10 C 0.27351(9) 0.58553(16) -0.1444(3)
H5 H 0.2600 0.6391 -0.1720
C11 C -0.03070(8) 0.17816(17) -0.0790(3)
C12 C 0.33593(8) 0.50177(16) 0.0031(3)
H6 H 0.3642 0.4994 0.0729
C13 C 0.15138(8) 0.40423(15) -0.3338(3)
C14 C 0.25237(8) 0.51031(15) -0.2068(3)
H7 H 0.2245 0.5133 -0.2787
C15 C 0.04443(9) 0.18847(16) 0.0759(3)
H8 H 0.0717 0.1623 0.1248
N3 N -0.06777(8) 0.12568(18) -0.1724(3)
C16 C 0.07751(8) 0.33186(17) 0.1826(3)
H9 H 0.0807 0.3163 0.2987
H10 H 0.0681 0.3921 0.1727
C17 C -0.03643(8) 0.26564(17) -0.0704(3)
H11 H -0.0637 0.2915 -0.1206
N4 N 0.05417(8) 0.46546(16) -0.1708(4)
C18 C 0.31398(8) 0.42717(16) -0.0592(3)
H12 H 0.3276 0.3738 -0.0302
O4 O -0.06291(8) 0.04733(16) -0.1738(3)
loop_
_geom_bond_atom_site_label_1
_geom_bond_atom_site_label_2
_geom_bond_site_symmetry_1
_geom_bond_site_symmetry_2
S1 C9 1_555 1_555
S2 C3 1_555 1_555
N1 O1 1_555 1_555
C1 C8 1_555 1_555
C2 C4 1_555 1_555
C3 C9 1_555 1_555
C4 S2 1_555 1_555
H1 C4 1_555 1_555
H2 C4 1_555 1_555
C5 C9 1_555 1_555
O2 N3 1_555 1_555
C6 N1 1_555 1_555
C7 H3 1_555 1_555
C8 H4 1_555 1_555
N2 C13 1_555 1_555
O3 N1 1_555 1_555
C10 C6 1_555 1_555
H5 C10 1_555 1_555
C11 C7 1_555 1_555
C12 C6 1_555 1_555
H6 C12 1_555 1_555
C13 C3 1_555 1_555
C14 C2 1_555 1_555
H7 C14 1_555 1_555
C15 C1 1_555 1_555
H8 C15 1_555 1_555
N3 C11 1_555 1_555
C16 S1 1_555 1_555
H9 C16 1_555 1_555
H10 C16 1_555 1_555
C17 C8 1_555 1_555
H11 C17 1_555 1_555
N4 C5 1_555 1_555
C18 C2 1_555 1_555
H12 C18 1_555 1_555
O4 N3 1_555 1_555
C1 C16 1_555 1_555
C7 C15 1_555 1_555
C10 C14 1_555 1_555
C11 C17 1_555 1_555
C12 C18 1_555 1_555

#END
