
#######################################################################
#
#                 Cambridge Crystallographic Data Centre
#                                CCDC 
#
#######################################################################
#
# If this CIF has been generated from an entry in the Cambridge 
# Structural Database, then it will include bibliographic, chemical, 
# crystal, experimental, refinement or atomic coordinate data resulting 
# from the CCDC's data processing and validation procedures.
#
#######################################################################

data_XEGPUW
_chemical_formula_moiety         'C13 H13 Br1 O3'
_chemical_name_systematic        
(5R,6R)-6-(4-Bromophenyl)-4-methoxy-5-methyl-5,6-dihydro-2H-pyran-2-one
_symmetry_cell_setting           orthorhombic
_symmetry_space_group_name_H-M   'P 21 21 21'
_symmetry_Int_Tables_number      19
_space_group_name_Hall           'P 2ac 2ab'
loop_
_symmetry_equiv_pos_site_id
_symmetry_equiv_pos_as_xyz
1 x,y,z
2 1/2-x,-y,1/2+z
3 -x,1/2+y,1/2-z
4 1/2+x,1/2-y,-z
_cell_length_a                   8.3264(4)
_cell_length_b                   9.6521(5)
_cell_length_c                   15.9753(9)
_cell_angle_alpha                90
_cell_angle_beta                 90
_cell_angle_gamma                90
_cell_volume                     1283.89
_cell_formula_units_Z            4
loop_
_atom_site_label
_atom_site_type_symbol
_atom_site_fract_x
_atom_site_fract_y
_atom_site_fract_z
Br1 Br 0.65847(5) 0.95410(4) 0.86645(2)
O1 O 0.0172(3) 0.7874(2) 0.62292(14)
O2 O -0.3100(3) 1.1060(2) 0.61422(15)
C1 C 0.0594(5) 1.1044(4) 0.6098(3)
H1 H 0.0128 1.1913 0.5935
H2 H 0.0873 1.0524 0.5607
H3 H 0.1541 1.1211 0.6425
C2 C 0.1741(4) 0.9629(4) 0.81036(18)
H4 H 0.0815 0.9985 0.8348
C3 C 0.0019(4) 0.8839(3) 0.69191(18)
H5 H -0.0754 0.8456 0.7319
C4 C 0.3199(4) 0.9802(4) 0.84964(19)
H6 H 0.3260 1.0274 0.9003
C5 C -0.0617(4) 1.0225(3) 0.66173(19)
H7 H -0.0897 1.0780 0.7110
C6 C -0.2119(4) 0.9963(3) 0.61310(19)
C7 C 0.1639(4) 0.8931(3) 0.73484(16)
C8 C 0.4563(4) 0.9270(3) 0.81327(19)
O3 O -0.1051(3) 0.6792(2) 0.52098(14)
C9 C -0.2342(4) 0.8774(3) 0.57247(18)
H8 H -0.3316 0.8604 0.5459
C10 C 0.3026(4) 0.8389(3) 0.70008(19)
H9 H 0.2972 0.7911 0.6496
C11 C -0.1095(4) 0.7752(3) 0.56919(19)
C12 C 0.4473(4) 0.8549(4) 0.7392(2)
H10 H 0.5397 0.8172 0.7157
C13 C -0.4546(5) 1.0987(4) 0.5643(2)
H11 H -0.5136 1.1836 0.5698
H12 H -0.5197 1.0228 0.5833
H13 H -0.4265 1.0847 0.5066
loop_
_geom_bond_atom_site_label_1
_geom_bond_atom_site_label_2
_geom_bond_site_symmetry_1
_geom_bond_site_symmetry_2
Br1 C8 1_555 1_555
O1 C3 1_555 1_555
O2 C6 1_555 1_555
C1 H1 1_555 1_555
H2 C1 1_555 1_555
H3 C1 1_555 1_555
C2 H4 1_555 1_555
C3 H5 1_555 1_555
C4 C2 1_555 1_555
H6 C4 1_555 1_555
C5 C1 1_555 1_555
H7 C5 1_555 1_555
C6 C5 1_555 1_555
C7 C2 1_555 1_555
C8 C4 1_555 1_555
O3 C11 1_555 1_555
C9 C6 1_555 1_555
H8 C9 1_555 1_555
C10 C7 1_555 1_555
H9 C10 1_555 1_555
C11 O1 1_555 1_555
C12 C8 1_555 1_555
H10 C12 1_555 1_555
C13 O2 1_555 1_555
H11 C13 1_555 1_555
H12 C13 1_555 1_555
H13 C13 1_555 1_555
C3 C5 1_555 1_555
C3 C7 1_555 1_555
C9 C11 1_555 1_555
C10 C12 1_555 1_555

#END
