
#######################################################################
#
#                 Cambridge Crystallographic Data Centre
#                                CCDC 
#
#######################################################################
#
# If this CIF has been generated from an entry in the Cambridge 
# Structural Database, then it will include bibliographic, chemical, 
# crystal, experimental, refinement or atomic coordinate data resulting 
# from the CCDC's data processing and validation procedures.
#
#######################################################################

data_XEHQOR
_chemical_formula_moiety         'C20 H18 N2 O2 S1'
_chemical_name_systematic        
2-(Cyclopentylsulfanyl)-6-(1-naphthoyl)pyrimidin-4(3H)-one
_symmetry_cell_setting           monoclinic
_symmetry_space_group_name_H-M   'P 21/n'
_symmetry_Int_Tables_number      14
_space_group_name_Hall           '-P 2yn'
loop_
_symmetry_equiv_pos_site_id
_symmetry_equiv_pos_as_xyz
1 x,y,z
2 1/2-x,1/2+y,1/2-z
3 -x,-y,-z
4 1/2+x,1/2-y,1/2+z
_cell_length_a                   11.920(2)
_cell_length_b                   10.312(3)
_cell_length_c                   14.855(4)
_cell_angle_alpha                90
_cell_angle_beta                 108.43(2)
_cell_angle_gamma                90
_cell_volume                     1732.31
_exptl_crystal_colour            colorless
_exptl_crystal_description       prism
_chemical_melting_point          '459.4-460.4 K'
_cell_formula_units_Z            4
_exptl_crystal_recrystallization_method 'ethyl acetate'
loop_
_atom_site_label
_atom_site_type_symbol
_atom_site_fract_x
_atom_site_fract_y
_atom_site_fract_z
S1 S 0.00481(8) 0.18801(7) 0.22893(5)
O1 O 0.07417(19) -0.15271(18) 0.02306(12)
O2 O 0.2278(2) -0.34742(18) 0.35238(13)
N1 N 0.12059(19) -0.0314(2) 0.29269(14)
C1 C 0.0639(2) 0.0357(2) 0.21810(17)
N2 N 0.0467(2) -0.0053(2) 0.12775(15)
H1 H 0.008(2) 0.046(2) 0.0813(16)
C2 C 0.0898(3) -0.1213(3) 0.10683(19)
C3 C 0.1511(2) -0.1961(3) 0.18877(17)
H2 H 0.1815 -0.2772 0.1818
C4 C 0.1648(2) -0.1483(2) 0.27655(18)
C5 C 0.0628(3) 0.2088(2) 0.35652(17)
H3 H 0.1447 0.1777 0.3780
C6 C -0.0042(3) 0.1395(3) 0.41298(19)
H4 H 0.0119 0.0471 0.4164
H5 H -0.0887 0.1533 0.3860
C7 C 0.0447(3) 0.2034(3) 0.5103(2)
H6 H -0.0167 0.2111 0.5400
H7 H 0.1090 0.1522 0.5513
C8 C 0.0883(3) 0.3357(3) 0.4937(2)
H8 H 0.1725 0.3434 0.5262
H9 H 0.0476 0.4027 0.5171
C9 C 0.0623(3) 0.3492(3) 0.3861(2)
H10 H -0.0139 0.3896 0.3563
H11 H 0.1233 0.3989 0.3712
C10 C 0.2278(2) -0.2305(3) 0.36325(18)
C11 C 0.2848(2) -0.1652(2) 0.45563(18)
C12 C 0.3284(2) -0.0420(3) 0.4560(2)
H12 H 0.3218 -0.0024 0.3984
C13 C 0.3827(3) 0.0264(3) 0.5403(2)
H13 H 0.4110 0.1101 0.5384
C14 C 0.3933(3) -0.0318(3) 0.6246(2)
H14 H 0.4289 0.0134 0.6806
C15 C 0.3637(3) -0.2167(3) 0.7185(2)
H15 H 0.3987 -0.1708 0.7742
C16 C 0.3249(3) -0.3384(3) 0.7235(2)
H16 H 0.3334 -0.3756 0.7823
C17 C 0.2722(3) -0.4086(3) 0.6409(2)
H17 H 0.2457 -0.4925 0.6449
C18 C 0.2591(3) -0.3553(3) 0.5536(2)
H18 H 0.2242 -0.4040 0.4992
C19 C 0.3521(3) -0.1575(3) 0.6297(2)
C20 C 0.2975(2) -0.2280(2) 0.54473(18)
loop_
_geom_bond_atom_site_label_1
_geom_bond_atom_site_label_2
_geom_bond_site_symmetry_1
_geom_bond_site_symmetry_2
S1 C1 1_555 1_555
O1 C2 1_555 1_555
O2 C10 1_555 1_555
N1 C1 1_555 1_555
C1 N2 1_555 1_555
N2 H1 1_555 1_555
C2 N2 1_555 1_555
C3 C2 1_555 1_555
H2 C3 1_555 1_555
C4 N1 1_555 1_555
C5 S1 1_555 1_555
H3 C5 1_555 1_555
C6 C5 1_555 1_555
H4 C6 1_555 1_555
H5 C6 1_555 1_555
C7 C6 1_555 1_555
H6 C7 1_555 1_555
H7 C7 1_555 1_555
C8 C7 1_555 1_555
H8 C8 1_555 1_555
H9 C8 1_555 1_555
C9 C5 1_555 1_555
H10 C9 1_555 1_555
H11 C9 1_555 1_555
C10 C4 1_555 1_555
C11 C10 1_555 1_555
C12 C11 1_555 1_555
H12 C12 1_555 1_555
C13 C12 1_555 1_555
H13 C13 1_555 1_555
C14 C13 1_555 1_555
H14 C14 1_555 1_555
C15 H15 1_555 1_555
C16 C15 1_555 1_555
H16 C16 1_555 1_555
C17 C16 1_555 1_555
H17 C17 1_555 1_555
C18 C17 1_555 1_555
H18 C18 1_555 1_555
C19 C14 1_555 1_555
C20 C11 1_555 1_555
C3 C4 1_555 1_555
C8 C9 1_555 1_555
C15 C19 1_555 1_555
C18 C20 1_555 1_555
C19 C20 1_555 1_555

#END
