
#######################################################################
#
#                 Cambridge Crystallographic Data Centre
#                                CCDC 
#
#######################################################################
#
# If this CIF has been generated from an entry in the Cambridge 
# Structural Database, then it will include bibliographic, chemical, 
# crystal, experimental, refinement or atomic coordinate data resulting 
# from the CCDC's data processing and validation procedures.
#
#######################################################################

data_XEHSEK
_chemical_formula_moiety         'C32 H16 Cl2 N6 O4'
_chemical_name_systematic        
26,38-Dichloro-2,23,29,35-tetraoxa-25,27,37,39,40,42-hexaazaoctacyclo[34.3.1.1^24,28^.1^30,34^.0^3,12^.0^6,11^.0^13,22^.0^14,19^]dotetraconta-1(40),3,5,7,9,11,13,15,17,19,21,24(42),25,27,30(41),31,33,36,38-nonadecaene
_symmetry_cell_setting           monoclinic
_symmetry_space_group_name_H-M   'P 21'
_symmetry_Int_Tables_number      4
_space_group_name_Hall           'P 2yb'
loop_
_symmetry_equiv_pos_site_id
_symmetry_equiv_pos_as_xyz
1 x,y,z
2 -x,1/2+y,-z
_cell_length_a                   11.818(2)
_cell_length_b                   7.9438(15)
_cell_length_c                   14.889(3)
_cell_angle_alpha                90
_cell_angle_beta                 94.263(4)
_cell_angle_gamma                90
_cell_volume                     1393.91
_exptl_crystal_colour            colorless
_exptl_crystal_description       block
_cell_formula_units_Z            2
loop_
_atom_site_label
_atom_site_type_symbol
_atom_site_fract_x
_atom_site_fract_y
_atom_site_fract_z
Cl1 Cl 1.07494(5) 0.59239(11) 0.35636(4)
Cl2 Cl 0.16699(5) 0.27529(10) 0.13766(5)
O1 O 0.66666(9) 0.49881(16) 0.30851(7)
O2 O 0.87797(13) 0.5020(2) 0.06719(9)
O3 O 0.49735(13) 0.3207(2) -0.03010(8)
O4 O 0.54093(10) 0.12608(17) 0.26169(7)
C1 C 0.65855(15) 0.0970(2) 0.25972(11)
C2 C 0.69982(18) -0.0001(3) 0.19054(12)
H1 H 0.6505 -0.0424 0.1444
C3 C 0.8129(2) -0.0311(3) 0.19210(13)
H2 H 0.8410 -0.0921 0.1453
C4 C 0.88894(17) 0.0269(3) 0.26304(13)
C5 C 1.0063(2) -0.0046(4) 0.26622(17)
H3 H 1.0359 -0.0626 0.2190
C6 C 1.0767(2) 0.0472(4) 0.33595(19)
H4 H 1.1538 0.0235 0.3367
C7 C 1.03476(18) 0.1363(4) 0.40699(16)
H5 H 1.0838 0.1707 0.4552
C8 C 0.92183(16) 0.1732(3) 0.40598(13)
H6 H 0.8949 0.2347 0.4531
C9 C 0.84520(15) 0.1191(2) 0.33423(11)
C10 C 0.72625(14) 0.1564(2) 0.33141(10)
C11 C 0.68168(13) 0.2589(2) 0.40540(10)
C12 C 0.66534(13) 0.1861(2) 0.49162(10)
C13 C 0.68308(15) 0.0132(2) 0.50935(11)
H7 H 0.7077 -0.0565 0.4646
C14 C 0.66436(17) -0.0531(3) 0.59181(12)
H8 H 0.6751 -0.1675 0.6024
C15 C 0.62914(18) 0.0507(3) 0.66009(12)
H9 H 0.6169 0.0045 0.7159
C16 C 0.61258(16) 0.2177(3) 0.64609(11)
H10 H 0.5893 0.2848 0.6925
C17 C 0.63038(13) 0.2914(2) 0.56146(10)
C18 C 0.61288(15) 0.4649(2) 0.54554(11)
H11 H 0.5909 0.5336 0.5917
C19 C 0.62784(14) 0.5326(2) 0.46340(11)
H12 H 0.6160 0.6468 0.4529
C20 C 0.66133(13) 0.4272(2) 0.39510(10)
C21 C 0.76918(14) 0.5165(2) 0.27651(11)
C22 C 0.95248(16) 0.5614(3) 0.29018(13)
C23 C 0.86681(17) 0.5204(3) 0.15627(12)
C24 C 0.68277(18) 0.4214(3) 0.01788(12)
H13 H 0.6519 0.4938 0.0586
C25 C 0.79771(19) 0.4124(3) 0.01109(12)
C26 C 0.8432(2) 0.3133(4) -0.05375(15)
H14 H 0.9213 0.3088 -0.0580
C27 C 0.7717(3) 0.2221(4) -0.11148(17)
H15 H 0.8015 0.1595 -0.1570
C28 C 0.6560(3) 0.2214(3) -0.10328(14)
H16 H 0.6075 0.1564 -0.1412
C29 C 0.61515(19) 0.3195(3) -0.03759(11)
C30 C 0.30986(17) 0.2523(3) 0.12817(16)
C31 C 0.45787(17) 0.2799(3) 0.04959(12)
C32 C 0.47904(15) 0.1833(2) 0.18889(11)
N1 N 0.85841(12) 0.5458(2) 0.33297(10)
N2 N 0.96456(13) 0.5512(3) 0.20285(11)
N3 N 0.76627(13) 0.5051(2) 0.18772(9)
N4 N 0.34666(15) 0.2985(2) 0.05058(12)
N5 N 0.36908(14) 0.1921(2) 0.20076(11)
N6 N 0.52978(13) 0.2252(2) 0.11554(10)
loop_
_geom_bond_atom_site_label_1
_geom_bond_atom_site_label_2
_geom_bond_site_symmetry_1
_geom_bond_site_symmetry_2
Cl1 C22 1_555 1_555
Cl2 C30 1_555 1_555
O1 C20 1_555 1_555
O2 C23 1_555 1_555
O3 C29 1_555 1_555
O4 C1 1_555 1_555
C1 C2 1_555 1_555
C2 H1 1_555 1_555
C3 C2 1_555 1_555
H2 C3 1_555 1_555
C4 C3 1_555 1_555
C5 C4 1_555 1_555
H3 C5 1_555 1_555
C6 C5 1_555 1_555
H4 C6 1_555 1_555
C7 C6 1_555 1_555
H5 C7 1_555 1_555
C8 C7 1_555 1_555
H6 C8 1_555 1_555
C9 C4 1_555 1_555
C10 C1 1_555 1_555
C11 C10 1_555 1_555
C12 C11 1_555 1_555
C13 C12 1_555 1_555
H7 C13 1_555 1_555
C14 C13 1_555 1_555
H8 C14 1_555 1_555
C15 C14 1_555 1_555
H9 C15 1_555 1_555
C16 C15 1_555 1_555
H10 C16 1_555 1_555
C17 C12 1_555 1_555
C18 C17 1_555 1_555
H11 C18 1_555 1_555
C19 C18 1_555 1_555
H12 C19 1_555 1_555
C20 C11 1_555 1_555
C21 O1 1_555 1_555
C22 N1 1_555 1_555
C23 N2 1_555 1_555
C24 H13 1_555 1_555
C25 O2 1_555 1_555
C26 C25 1_555 1_555
H14 C26 1_555 1_555
C27 C26 1_555 1_555
H15 C27 1_555 1_555
C28 C27 1_555 1_555
H16 C28 1_555 1_555
C29 C24 1_555 1_555
C30 N4 1_555 1_555
C31 O3 1_555 1_555
C32 O4 1_555 1_555
N1 C21 1_555 1_555
N2 C22 1_555 1_555
N3 C21 1_555 1_555
N4 C31 1_555 1_555
N5 C30 1_555 1_555
N6 C31 1_555 1_555
C8 C9 1_555 1_555
C9 C10 1_555 1_555
C16 C17 1_555 1_555
C19 C20 1_555 1_555
C23 N3 1_555 1_555
C24 C25 1_555 1_555
C28 C29 1_555 1_555
C32 N5 1_555 1_555
C32 N6 1_555 1_555

#END
