
#######################################################################
#
#                 Cambridge Crystallographic Data Centre
#                                CCDC 
#
#######################################################################
#
# If this CIF has been generated from an entry in the Cambridge 
# Structural Database, then it will include bibliographic, chemical, 
# crystal, experimental, refinement or atomic coordinate data resulting 
# from the CCDC's data processing and validation procedures.
#
#######################################################################

data_XEHTEM
_chemical_formula_moiety         'C24 H17 Br2 N1 O2'
_chemical_name_systematic        
8,10-dibromo-11a-(2-phenylethenyl)-11,11a-dihydro[1]benzopyrano[4,3-b]indole-6a(6H)-carbaldehyde
_symmetry_cell_setting           monoclinic
_symmetry_space_group_name_H-M   'P 21/n'
_symmetry_Int_Tables_number      14
_space_group_name_Hall           '-P 2yn'
loop_
_symmetry_equiv_pos_site_id
_symmetry_equiv_pos_as_xyz
1 x,y,z
2 1/2-x,1/2+y,1/2-z
3 -x,-y,-z
4 1/2+x,1/2-y,1/2+z
_cell_length_a                   8.8958(12)
_cell_length_b                   18.729(2)
_cell_length_c                   13.2336(18)
_cell_angle_alpha                90
_cell_angle_beta                 108.186(2)
_cell_angle_gamma                90
_cell_volume                     2094.71
_exptl_crystal_description       irregular
_cell_formula_units_Z            4
loop_
_atom_site_label
_atom_site_type_symbol
_atom_site_fract_x
_atom_site_fract_y
_atom_site_fract_z
Br1 Br 0.88482(9) 0.19952(4) 0.39965(5)
Br2 Br 0.70300(15) -0.07094(4) 0.20730(8)
O1 O 0.6751(5) 0.1617(3) -0.1509(3)
C1 C 0.9305(7) 0.2879(3) -0.0002(4)
H1 H 0.9578 0.2880 -0.0626
N1 N 0.9328(5) 0.2274(2) 0.1684(3)
H2 H 0.9325 0.2655 0.2045
C2 C 0.8624(6) 0.1135(3) 0.1067(4)
C3 C 0.7245(7) 0.1744(3) -0.0581(4)
H3 H 0.6581 0.1987 -0.0278
C4 C 1.1567(6) 0.2128(3) 0.0964(4)
O2 O 1.1327(5) 0.0944(2) 0.0205(3)
C5 C 0.8905(6) 0.1597(3) 0.1928(4)
C6 C 0.8620(7) 0.1365(3) 0.2845(4)
C7 C 0.9787(6) 0.2231(3) 0.0695(4)
C8 C 0.8061(7) 0.0455(3) 0.1087(4)
H4 H 0.7860 0.0154 0.0500
C9 C 0.8870(6) 0.1541(3) 0.0141(4)
C10 C 0.7805(9) 0.0235(3) 0.2021(5)
C11 C 1.2557(7) 0.2676(4) 0.1465(5)
H5 H 1.2127 0.3099 0.1619
C12 C 0.8130(10) 0.4080(4) -0.0507(5)
C13 C 0.9806(7) 0.1141(3) -0.0467(4)
H6 H 0.9229 0.0716 -0.0785
H7 H 0.9917 0.1442 -0.1036
C14 C 0.8548(8) 0.3441(3) 0.0169(5)
H8 H 0.8243 0.3436 0.0779
C15 C 1.2222(7) 0.1508(3) 0.0707(5)
C16 C 1.3874(8) 0.1442(4) 0.0980(5)
H9 H 1.4328 0.1029 0.0812
C17 C 0.8056(8) 0.0682(3) 0.2883(5)
H10 H 0.7844 0.0524 0.3492
C18 C 1.4193(8) 0.2602(4) 0.1743(5)
H11 H 1.4852 0.2969 0.2097
C19 C 0.7263(13) 0.5301(4) -0.1746(7)
H12 H 0.7050 0.5729 -0.2122
C20 C 0.7996(13) 0.4780(5) -0.2060(7)
H13 H 0.8236 0.4825 -0.2692
C21 C 0.8424(13) 0.4155(4) -0.1453(7)
H14 H 0.8916 0.3786 -0.1700
C22 C 0.7247(12) 0.4591(4) -0.0269(7)
H15 H 0.6901 0.4533 0.0321
C23 C 0.6830(13) 0.5207(4) -0.0879(7)
H16 H 0.6240 0.5558 -0.0679
C24 C 1.4810(9) 0.2001(5) 0.1501(6)
H17 H 1.5905 0.1957 0.1689
loop_
_geom_bond_atom_site_label_1
_geom_bond_atom_site_label_2
_geom_bond_site_symmetry_1
_geom_bond_site_symmetry_2
Br1 C6 1_555 1_555
Br2 C10 1_555 1_555
O1 C3 1_555 1_555
C1 H1 1_555 1_555
N1 H2 1_555 1_555
C2 C5 1_555 1_555
C3 H3 1_555 1_555
C4 C7 1_555 1_555
O2 C13 1_555 1_555
C5 N1 1_555 1_555
C6 C5 1_555 1_555
C7 C1 1_555 1_555
C8 C2 1_555 1_555
H4 C8 1_555 1_555
C9 C2 1_555 1_555
C10 C8 1_555 1_555
C11 C4 1_555 1_555
H5 C11 1_555 1_555
C12 C14 1_555 1_555
C13 C9 1_555 1_555
H6 C13 1_555 1_555
H7 C13 1_555 1_555
C14 C1 1_555 1_555
H8 C14 1_555 1_555
C15 C4 1_555 1_555
C16 C15 1_555 1_555
H9 C16 1_555 1_555
C17 C6 1_555 1_555
H10 C17 1_555 1_555
C18 C11 1_555 1_555
H11 C18 1_555 1_555
C19 H12 1_555 1_555
C20 C19 1_555 1_555
H13 C20 1_555 1_555
C21 C12 1_555 1_555
H14 C21 1_555 1_555
C22 C12 1_555 1_555
H15 C22 1_555 1_555
C23 C19 1_555 1_555
H16 C23 1_555 1_555
C24 C16 1_555 1_555
H17 C24 1_555 1_555
N1 C7 1_555 1_555
C3 C9 1_555 1_555
O2 C15 1_555 1_555
C7 C9 1_555 1_555
C10 C17 1_555 1_555
C18 C24 1_555 1_555
C20 C21 1_555 1_555
C22 C23 1_555 1_555

#END
