
#######################################################################
#
#                 Cambridge Crystallographic Data Centre
#                                CCDC 
#
#######################################################################
#
# If this CIF has been generated from an entry in the Cambridge 
# Structural Database, then it will include bibliographic, chemical, 
# crystal, experimental, refinement or atomic coordinate data resulting 
# from the CCDC's data processing and validation procedures.
#
#######################################################################

data_XEJPIM
_chemical_formula_moiety         'C44 H28 Cl6 O4 S4,C6 H12'
_chemical_name_systematic        
'2,4,5,7,9,10-Hexachloro-1,3,6,8-tetrakis(4-methoxyphenylthio)pyrene cyclohexane clathrate'
_symmetry_cell_setting           orthorhombic
_symmetry_space_group_name_H-M   'P n m a'
_symmetry_Int_Tables_number      62
_space_group_name_Hall           '-P 2ac 2n'
loop_
_symmetry_equiv_pos_site_id
_symmetry_equiv_pos_as_xyz
1 x,y,z
2 1/2-x,-y,1/2+z
3 -x,1/2+y,-z
4 1/2+x,1/2-y,1/2-z
5 -x,-y,-z
6 1/2+x,y,1/2-z
7 x,1/2-y,z
8 1/2-x,1/2+y,1/2+z
_cell_length_a                   15.864(3)
_cell_length_b                   30.455(6)
_cell_length_c                   9.2298(17)
_cell_angle_alpha                90
_cell_angle_beta                 90
_cell_angle_gamma                90
_cell_volume                     4459.27
_exptl_crystal_colour            'salmon pink'
_exptl_crystal_description       'rhomboid slice'
_cell_formula_units_Z            4
_exptl_crystal_recrystallization_method toluene/cyclohexane
loop_
_atom_site_label
_atom_site_type_symbol
_atom_site_fract_x
_atom_site_fract_y
_atom_site_fract_z
Cl1 Cl 0.20048(9) 0.57997(5) 0.48327(16)
Cl2 Cl 0.42727(9) 0.70051(5) 0.64222(18)
Cl3 Cl -0.00666(9) 0.70001(5) 0.25855(17)
S1 S 0.37527(9) 0.62725(5) 0.45238(17)
S2 S 0.02921(9) 0.63321(5) 0.48783(18)
O1 O 0.3236(3) 0.52724(16) -0.0838(5)
O2 O 0.0592(3) 0.54674(16) 1.0533(5)
C1 C 0.0955(5) 0.5670(3) 1.1756(8)
H1 H 0.0935 0.5472 1.2564
H2 H 0.0646 0.5932 1.1987
H3 H 0.1531 0.5745 1.1550
C2 C 0.0562(4) 0.5695(2) 0.9271(7)
C3 C 0.0171(4) 0.5479(2) 0.8151(8)
H4 H -0.0058 0.5202 0.8299
C4 C 0.0120(4) 0.5674(2) 0.6810(8)
H5 H -0.0140 0.5526 0.6049
C5 C 0.0450(4) 0.60851(19) 0.6591(7)
C6 C 0.0825(4) 0.6306(2) 0.7724(7)
H6 H 0.1034 0.6588 0.7585
C7 C 0.0891(4) 0.6107(2) 0.9069(7)
H7 H 0.1156 0.6252 0.9830
C8 C 0.2923(4) 0.5473(3) -0.2131(7)
H8 H 0.2892 0.5257 -0.2888
H9 H 0.3296 0.5705 -0.2421
H10 H 0.2372 0.5591 -0.1953
C9 C 0.3311(4) 0.5533(2) 0.0338(8)
C10 C 0.3160(4) 0.5975(2) 0.0384(7)
H11 H 0.2984 0.6123 -0.0444
C11 C 0.3271(4) 0.6201(2) 0.1669(7)
H12 H 0.3169 0.6501 0.1699
C12 C 0.3529(4) 0.5987(2) 0.2904(7)
C13 C 0.3686(4) 0.5538(2) 0.2832(7)
H13 H 0.3859 0.5388 0.3656
C14 C 0.3587(4) 0.5320(2) 0.1571(8)
H14 H 0.3706 0.5021 0.1531
C15 C 0.2028(4) 0.6364(2) 0.4734(7)
C16 C 0.1277(4) 0.6589(2) 0.4581(7)
C17 C 0.1315(4) 0.7039(2) 0.4289(6)
C18 C 0.2066(4) 0.7265(2) 0.4602(6)
C19 C 0.2807(4) 0.7034(2) 0.4930(6)
C20 C 0.2812(4) 0.6570(2) 0.4772(7)
C21 C 0.0646(4) 0.7281(2) 0.3651(6)
C22 C 0.3506(4) 0.7282(2) 0.5480(6)
Cl1F Cl 0.20048(9) 0.92003(5) 0.48327(16)
Cl2F Cl 0.42727(9) 0.79949(5) 0.64222(18)
Cl3F Cl -0.00666(9) 0.79999(5) 0.25855(17)
S1F S 0.37527(9) 0.87275(5) 0.45238(17)
S2F S 0.02921(9) 0.86679(5) 0.48783(18)
O1F O 0.3236(3) 0.97276(16) -0.0838(5)
O2F O 0.0592(3) 0.95326(16) 1.0533(5)
C1F C 0.0955(5) 0.9330(3) 1.1756(8)
H1F H 0.0935 0.9528 1.2564
H2F H 0.0646 0.9068 1.1987
H3F H 0.1531 0.9255 1.1550
C2F C 0.0562(4) 0.9305(2) 0.9271(7)
C3F C 0.0171(4) 0.9521(2) 0.8151(8)
H4F H -0.0058 0.9798 0.8299
C4F C 0.0120(4) 0.9326(2) 0.6810(8)
H5F H -0.0140 0.9474 0.6049
C5F C 0.0450(4) 0.89149(19) 0.6591(7)
C6F C 0.0825(4) 0.8694(2) 0.7724(7)
H6F H 0.1034 0.8412 0.7585
C7F C 0.0891(4) 0.8893(2) 0.9069(7)
H7F H 0.1156 0.8748 0.9830
C8F C 0.2923(4) 0.9527(3) -0.2131(7)
H8F H 0.2892 0.9743 -0.2888
H9F H 0.3296 0.9295 -0.2421
H10F H 0.2372 0.9409 -0.1953
C9F C 0.3311(4) 0.9467(2) 0.0338(8)
C10F C 0.3160(4) 0.9025(2) 0.0384(7)
H11F H 0.2984 0.8877 -0.0444
C11F C 0.3271(4) 0.8799(2) 0.1669(7)
H12F H 0.3169 0.8499 0.1699
C12F C 0.3529(4) 0.9013(2) 0.2904(7)
C13F C 0.3686(4) 0.9462(2) 0.2832(7)
H13F H 0.3859 0.9612 0.3656
C14F C 0.3587(4) 0.9680(2) 0.1571(8)
H14F H 0.3706 0.9979 0.1531
C15F C 0.2028(4) 0.8636(2) 0.4734(7)
C16F C 0.1277(4) 0.8411(2) 0.4581(7)
C17F C 0.1315(4) 0.7961(2) 0.4289(6)
C18F C 0.2066(4) 0.7735(2) 0.4602(6)
C19F C 0.2807(4) 0.7966(2) 0.4930(6)
C20F C 0.2812(4) 0.8430(2) 0.4772(7)
C21F C 0.0646(4) 0.7719(2) 0.3651(6)
C22F C 0.3506(4) 0.7718(2) 0.5480(6)
C23 C 0.1715(7) 0.7500 -0.1618(11)
H15 H 0.1538 0.7500 -0.2625
H16 H 0.1229 0.7500 -0.0981
C24 C 0.2377(10) 0.7122(6) -0.1250(17)
H17 H 0.2953 0.7199 -0.1499
H18 H 0.2227 0.6839 -0.1657
C25 C 0.2165(9) 0.7164(7) 0.0576(16)
H19 H 0.1592 0.7261 0.0758
H20 H 0.2270 0.6891 0.1082
C26 C 0.2780(7) 0.7500 0.0955(12)
H21 H 0.3276 0.7500 0.0340
H22 H 0.2936 0.7500 0.1971
C24F C 0.2377(10) 0.7878(6) -0.1250(17)
H17F H 0.2953 0.7801 -0.1499
H18F H 0.2227 0.8161 -0.1657
C25F C 0.2165(9) 0.7836(7) 0.0576(16)
H19F H 0.1592 0.7739 0.0758
H20F H 0.2270 0.8109 0.1082
loop_
_geom_bond_atom_site_label_1
_geom_bond_atom_site_label_2
_geom_bond_site_symmetry_1
_geom_bond_site_symmetry_2
Cl1 C15 1_555 1_555
Cl2 C22 1_555 1_555
Cl3 C21 1_555 1_555
S1 C12 1_555 1_555
S2 C5 1_555 1_555
O1 C8 1_555 1_555
O2 C1 1_555 1_555
C1 H1 1_555 1_555
H2 C1 1_555 1_555
H3 C1 1_555 1_555
C2 O2 1_555 1_555
C3 C2 1_555 1_555
H4 C3 1_555 1_555
C4 C3 1_555 1_555
H5 C4 1_555 1_555
C5 C4 1_555 1_555
C6 C5 1_555 1_555
H6 C6 1_555 1_555
C7 C2 1_555 1_555
H7 C7 1_555 1_555
C8 H8 1_555 1_555
H9 C8 1_555 1_555
H10 C8 1_555 1_555
C9 O1 1_555 1_555
C10 C9 1_555 1_555
H11 C10 1_555 1_555
C11 C10 1_555 1_555
H12 C11 1_555 1_555
C12 C11 1_555 1_555
C13 C12 1_555 1_555
H13 C13 1_555 1_555
C14 C9 1_555 1_555
H14 C14 1_555 1_555
C15 C16 1_555 1_555
C16 S2 1_555 1_555
C17 C16 1_555 1_555
C18 C17 1_555 1_555
C19 C18 1_555 1_555
C20 S1 1_555 1_555
C21 C17 1_555 1_555
C22 C19 1_555 1_555
C23 H15 1_555 1_555
H16 C23 1_555 1_555
C24 C23 1_555 1_555
H17 C24 1_555 1_555
H18 C24 1_555 1_555
C25 C24 1_555 1_555
H19 C25 1_555 1_555
H20 C25 1_555 1_555
C26 C25 1_555 1_555
H21 C26 1_555 1_555
H22 C26 1_555 1_555
Cl1F C15F 1_555 1_555
Cl2F C22F 1_555 1_555
Cl3F C21F 1_555 1_555
S1F C12F 1_555 1_555
S2F C5F 1_555 1_555
O1F C8F 1_555 1_555
O2F C1F 1_555 1_555
C1F H1F 1_555 1_555
H2F C1F 1_555 1_555
H3F C1F 1_555 1_555
C2F O2F 1_555 1_555
C3F C2F 1_555 1_555
H4F C3F 1_555 1_555
C4F C3F 1_555 1_555
H5F C4F 1_555 1_555
C5F C4F 1_555 1_555
C6F C5F 1_555 1_555
H6F C6F 1_555 1_555
C7F C2F 1_555 1_555
H7F C7F 1_555 1_555
C8F H8F 1_555 1_555
H9F C8F 1_555 1_555
H10F C8F 1_555 1_555
C9F O1F 1_555 1_555
C10F C9F 1_555 1_555
H11F C10F 1_555 1_555
C11F C10F 1_555 1_555
H12F C11F 1_555 1_555
C12F C11F 1_555 1_555
C13F C12F 1_555 1_555
H13F C13F 1_555 1_555
C14F C9F 1_555 1_555
H14F C14F 1_555 1_555
C15F C16F 1_555 1_555
C16F S2F 1_555 1_555
C17F C16F 1_555 1_555
C18F C18 1_555 1_555
C19F C18F 1_555 1_555
C20F S1F 1_555 1_555
C21F C21 1_555 1_555
C22F C22 1_555 1_555
C24F C23 1_555 1_555
H17F C24F 1_555 1_555
H18F C24F 1_555 1_555
C25F C26 1_555 1_555
H19F C25F 1_555 1_555
H20F C25F 1_555 1_555
C6 C7 1_555 1_555
C13 C14 1_555 1_555
C15 C20 1_555 1_555
C19 C20 1_555 1_555
C6F C7F 1_555 1_555
C13F C14F 1_555 1_555
C15F C20F 1_555 1_555
C17F C18F 1_555 1_555
C17F C21F 1_555 1_555
C19F C20F 1_555 1_555
C19F C22F 1_555 1_555
C24F C25F 1_555 1_555

#END
