
#######################################################################
#
#                 Cambridge Crystallographic Data Centre
#                                CCDC 
#
#######################################################################
#
# If this CIF has been generated from an entry in the Cambridge 
# Structural Database, then it will include bibliographic, chemical, 
# crystal, experimental, refinement or atomic coordinate data resulting 
# from the CCDC's data processing and validation procedures.
#
#######################################################################

data_XEJROW
_chemical_formula_moiety         'C15 H24 N1 O1 1+,Cl1 1-'
_chemical_name_systematic        
'1-(4-methoxyphenyl)-2,3,6-trimethylpiperidin-1-ium chloride'
_symmetry_cell_setting           orthorhombic
_symmetry_space_group_name_H-M   'P n a 21'
_symmetry_Int_Tables_number      33
_space_group_name_Hall           'P 2c -2n'
loop_
_symmetry_equiv_pos_site_id
_symmetry_equiv_pos_as_xyz
1 x,y,z
2 -x,-y,1/2+z
3 1/2+x,1/2-y,z
4 1/2-x,1/2+y,1/2+z
_cell_length_a                   21.142(4)
_cell_length_b                   9.442(2)
_cell_length_c                   14.826(3)
_cell_angle_alpha                90
_cell_angle_beta                 90
_cell_angle_gamma                90
_cell_volume                     2959.61
_exptl_crystal_colour            colorless
_exptl_crystal_description       prism
_cell_formula_units_Z            8
loop_
_atom_site_label
_atom_site_type_symbol
_atom_site_fract_x
_atom_site_fract_y
_atom_site_fract_z
Cl1 Cl 0.46301(8) 0.00562(18) 0.57573(14)
Cl2 Cl 0.70492(8) 0.80340(18) 0.71164(13)
O1 O 0.7828(2) 0.1440(5) 0.5080(3)
N1 N 0.5376(3) -0.0093(5) 0.3962(4)
H1 H 0.5119 -0.0005 0.4525
C1 C 0.7241(4) 0.1092(7) 0.4744(5)
C2 C 0.6026(4) 0.0379(7) 0.4217(5)
C3 C 0.5039(4) 0.0825(7) 0.3266(5)
H2 H 0.5266 0.0744 0.2676
C4 C 0.5372(3) -0.1681(6) 0.3730(5)
H3 H 0.5561 -0.2202 0.4252
C5 C 0.6449(4) 0.0921(7) 0.3594(5)
H4 H 0.6321 0.1046 0.2985
C6 C 0.6819(4) 0.0571(7) 0.5376(5)
H5 H 0.6946 0.0453 0.5986
C7 C 0.4681(3) -0.2148(6) 0.3642(5)
H6 H 0.4471 -0.1935 0.4231
C8 C 0.8322(3) 0.1778(8) 0.4444(5)
H7 H 0.8397 0.0962 0.4050
H8 H 0.8711 0.2008 0.4771
H9 H 0.8192 0.2593 0.4079
C9 C 0.4368(3) 0.0271(7) 0.3153(5)
H10 H 0.4131 0.0441 0.3719
H11 H 0.4156 0.0814 0.2668
C10 C 0.5780(3) -0.1992(7) 0.2897(5)
H12 H 0.6218 -0.1713 0.3017
H13 H 0.5618 -0.1455 0.2380
H14 H 0.5764 -0.3007 0.2761
C11 C 0.5043(4) 0.2377(7) 0.3566(5)
H15 H 0.5480 0.2714 0.3607
H16 H 0.4839 0.2458 0.4157
H17 H 0.4811 0.2951 0.3125
C12 C 0.4639(4) -0.3766(7) 0.3501(5)
H18 H 0.4902 -0.4247 0.3951
H19 H 0.4791 -0.4004 0.2895
H20 H 0.4199 -0.4073 0.3566
C13 C 0.7060(4) 0.1286(7) 0.3851(5)
H21 H 0.7350 0.1662 0.3423
C14 C 0.6207(4) 0.0220(7) 0.5113(5)
H22 H 0.5913 -0.0127 0.5544
C15 C 0.4336(4) -0.1298(7) 0.2926(5)
H23 H 0.3888 -0.1604 0.2895
H24 H 0.4532 -0.1468 0.2330
O2 O 0.4105(2) 0.4754(5) 0.6178(3)
N2 N 0.6723(2) 0.5668(5) 0.5789(4)
H25 H 0.6830 0.6427 0.6234
C16 C 0.5005(4) 0.6373(8) 0.6199(5)
H26 H 0.4746 0.7168 0.6332
C17 C 0.5655(4) 0.6533(7) 0.6112(4)
H27 H 0.5843 0.7436 0.6200
C18 C 0.4736(4) 0.5032(8) 0.6090(5)
C19 C 0.7158(3) 0.4417(7) 0.6008(5)
H28 H 0.7084 0.3636 0.5565
C20 C 0.7846(3) 0.4925(7) 0.5938(5)
H29 H 0.7929 0.5614 0.6426
H30 H 0.8131 0.4106 0.6031
C21 C 0.6854(4) 0.6304(8) 0.4850(5)
H31 H 0.6577 0.7156 0.4783
C22 C 0.5119(4) 0.3892(8) 0.5878(5)
H32 H 0.4936 0.2982 0.5801
C23 C 0.6029(3) 0.5387(7) 0.5899(5)
C24 C 0.7547(3) 0.6828(8) 0.4850(5)
H33 H 0.7594 0.7540 0.5345
C25 C 0.5770(4) 0.4059(8) 0.5777(5)
H34 H 0.6031 0.3274 0.5626
C26 C 0.8003(3) 0.5614(8) 0.5035(5)
H35 H 0.8442 0.5977 0.5046
H36 H 0.7971 0.4902 0.4547
C27 C 0.7029(4) 0.3881(8) 0.6958(5)
H37 H 0.7087 0.4657 0.7389
H38 H 0.7323 0.3112 0.7101
H39 H 0.6593 0.3530 0.6995
C28 C 0.6681(3) 0.5282(7) 0.4091(5)
H40 H 0.6945 0.4430 0.4136
H41 H 0.6754 0.5741 0.3507
H42 H 0.6235 0.5017 0.4144
C29 C 0.7694(4) 0.7563(7) 0.3957(5)
H43 H 0.7704 0.6859 0.3472
H44 H 0.8107 0.8032 0.3998
H45 H 0.7367 0.8269 0.3829
C30 C 0.3691(3) 0.5899(8) 0.6413(6)
H46 H 0.3708 0.6627 0.5943
H47 H 0.3825 0.6309 0.6990
H48 H 0.3257 0.5543 0.6468
loop_
_geom_bond_atom_site_label_1
_geom_bond_atom_site_label_2
_geom_bond_site_symmetry_1
_geom_bond_site_symmetry_2
O1 C1 1_555 1_555
N1 H1 1_555 1_555
C1 C6 1_555 1_555
C2 N1 1_555 1_555
C3 N1 1_555 1_555
H2 C3 1_555 1_555
C4 N1 1_555 1_555
H3 C4 1_555 1_555
C5 C2 1_555 1_555
H4 C5 1_555 1_555
C6 H5 1_555 1_555
C7 C4 1_555 1_555
H6 C7 1_555 1_555
C8 O1 1_555 1_555
H7 C8 1_555 1_555
H8 C8 1_555 1_555
H9 C8 1_555 1_555
C9 C3 1_555 1_555
H10 C9 1_555 1_555
H11 C9 1_555 1_555
C10 C4 1_555 1_555
H12 C10 1_555 1_555
H13 C10 1_555 1_555
H14 C10 1_555 1_555
C11 C3 1_555 1_555
H15 C11 1_555 1_555
H16 C11 1_555 1_555
H17 C11 1_555 1_555
C12 C7 1_555 1_555
H18 C12 1_555 1_555
H19 C12 1_555 1_555
H20 C12 1_555 1_555
C13 C1 1_555 1_555
H21 C13 1_555 1_555
C14 C2 1_555 1_555
H22 C14 1_555 1_555
C15 C7 1_555 1_555
H23 C15 1_555 1_555
H24 C15 1_555 1_555
O2 C18 1_555 1_555
N2 H25 1_555 1_555
C16 H26 1_555 1_555
C17 C16 1_555 1_555
H27 C17 1_555 1_555
C18 C16 1_555 1_555
C19 N2 1_555 1_555
H28 C19 1_555 1_555
C20 C19 1_555 1_555
H29 C20 1_555 1_555
H30 C20 1_555 1_555
C21 N2 1_555 1_555
H31 C21 1_555 1_555
C22 C18 1_555 1_555
H32 C22 1_555 1_555
C23 N2 1_555 1_555
C24 C21 1_555 1_555
H33 C24 1_555 1_555
C25 C22 1_555 1_555
H34 C25 1_555 1_555
C26 C20 1_555 1_555
H35 C26 1_555 1_555
H36 C26 1_555 1_555
C27 C19 1_555 1_555
H37 C27 1_555 1_555
H38 C27 1_555 1_555
H39 C27 1_555 1_555
C28 C21 1_555 1_555
H40 C28 1_555 1_555
H41 C28 1_555 1_555
H42 C28 1_555 1_555
C29 C24 1_555 1_555
H43 C29 1_555 1_555
H44 C29 1_555 1_555
H45 C29 1_555 1_555
C30 O2 1_555 1_555
H46 C30 1_555 1_555
H47 C30 1_555 1_555
H48 C30 1_555 1_555
C5 C13 1_555 1_555
C6 C14 1_555 1_555
C9 C15 1_555 1_555
C17 C23 1_555 1_555
C23 C25 1_555 1_555
C24 C26 1_555 1_555

#END
