
#######################################################################
#
#                 Cambridge Crystallographic Data Centre
#                                CCDC 
#
#######################################################################
#
# If this CIF has been generated from an entry in the Cambridge 
# Structural Database, then it will include bibliographic, chemical, 
# crystal, experimental, refinement or atomic coordinate data resulting 
# from the CCDC's data processing and validation procedures.
#
#######################################################################

data_XEJXOA
_chemical_compound_source        
'brown alga (Sargassum sp.) endophytic fungus (no. ZZF36)'
_chemical_formula_moiety         'C16 H20 O5'
_chemical_name_systematic        6-Oxo-de-O-methyllasiodiplodin
_chemical_properties_biological  'no antimicrobial activity'
_symmetry_cell_setting           orthorhombic
_symmetry_space_group_name_H-M   'P 21 21 21'
_symmetry_Int_Tables_number      19
_space_group_name_Hall           'P 2ac 2ab'
loop_
_symmetry_equiv_pos_site_id
_symmetry_equiv_pos_as_xyz
1 x,y,z
2 1/2-x,-y,1/2+z
3 -x,1/2+y,1/2-z
4 1/2+x,1/2-y,-z
_cell_length_a                   6.0733(13)
_cell_length_b                   15.263(3)
_cell_length_c                   16.229(4)
_cell_angle_alpha                90
_cell_angle_beta                 90
_cell_angle_gamma                90
_cell_volume                     1504.38
_exptl_crystal_colour            colorless
_exptl_crystal_description       block
_chemical_melting_point          '143-145 deg.C'
_cell_formula_units_Z            4
loop_
_atom_site_label
_atom_site_type_symbol
_atom_site_fract_x
_atom_site_fract_y
_atom_site_fract_z
C1 C 0.2991(4) 0.79407(13) 0.92812(14)
H1 H 0.1784 0.7666 0.9000
H2 H 0.2437 0.8288 0.9729
H3 H 0.3964 0.7499 0.9493
C2 C 0.4228(3) 0.85203(13) 0.86886(12)
H4 H 0.4735 0.8162 0.8225
C3 C 0.6184(4) 0.89984(15) 0.90465(13)
H5 H 0.6545 0.9477 0.8678
H6 H 0.7425 0.8599 0.9043
C4 C 0.5983(4) 0.93749(15) 0.99161(12)
H7 H 0.5694 0.8896 1.0294
H8 H 0.7391 0.9628 1.0068
C5 C 0.4244(4) 1.00535(13) 1.00333(11)
C6 C 0.4553(4) 1.09290(13) 0.96427(12)
H9 H 0.5183 1.0843 0.9099
H10 H 0.5614 1.1256 0.9966
C7 C 0.2498(4) 1.14771(13) 0.95549(12)
H11 H 0.2900 1.2044 0.9331
H12 H 0.1873 1.1573 1.0098
C8 C 0.0752(3) 1.10709(13) 0.90064(11)
H13 H 0.0361 1.0502 0.9228
H14 H -0.0555 1.1436 0.9024
C9 C 0.1449(3) 1.09583(11) 0.81110(11)
H15 H 0.1707 1.1531 0.7871
H16 H 0.2823 1.0635 0.8092
C10 C -0.0252(3) 1.04811(11) 0.76042(10)
C11 C -0.1983(3) 1.09663(12) 0.73012(10)
H17 H -0.2048 1.1562 0.7418
C12 C -0.3624(3) 1.05932(12) 0.68296(10)
C13 C -0.3557(3) 0.97160(12) 0.66409(11)
H18 H -0.4680 0.9462 0.6333
C14 C -0.1818(3) 0.92190(12) 0.69108(11)
C15 C -0.0144(3) 0.95698(11) 0.74213(10)
C16 C 0.1511(3) 0.89495(12) 0.77205(11)
O1 O 0.2644(3) 0.99061(10) 1.04586(9)
O2 O -0.5244(3) 1.11246(10) 0.65404(9)
O3 O -0.1839(3) 0.83676(9) 0.66725(10)
O4 O 0.1744(3) 0.82229(9) 0.74153(10)
O5 O 0.2698(2) 0.91874(7) 0.83740(7)
H19 H -0.627(5) 1.0805(18) 0.6240(17)
H20 H -0.038(6) 0.815(2) 0.6855(19)
loop_
_geom_bond_atom_site_label_1
_geom_bond_atom_site_label_2
_geom_bond_site_symmetry_1
_geom_bond_site_symmetry_2
C1 H1 1_555 1_555
H2 C1 1_555 1_555
H3 C1 1_555 1_555
C2 C1 1_555 1_555
H4 C2 1_555 1_555
C3 C2 1_555 1_555
H5 C3 1_555 1_555
H6 C3 1_555 1_555
C4 C3 1_555 1_555
H7 C4 1_555 1_555
H8 C4 1_555 1_555
C5 C4 1_555 1_555
C6 C5 1_555 1_555
H9 C6 1_555 1_555
H10 C6 1_555 1_555
C7 C6 1_555 1_555
H11 C7 1_555 1_555
H12 C7 1_555 1_555
C8 C7 1_555 1_555
H13 C8 1_555 1_555
H14 C8 1_555 1_555
C9 C8 1_555 1_555
H15 C9 1_555 1_555
H16 C9 1_555 1_555
C10 C9 1_555 1_555
C11 C10 1_555 1_555
H17 C11 1_555 1_555
C12 C11 1_555 1_555
C13 C12 1_555 1_555
H18 C13 1_555 1_555
C14 C13 1_555 1_555
C15 C10 1_555 1_555
C16 C15 1_555 1_555
O1 C5 1_555 1_555
O2 C12 1_555 1_555
O3 C14 1_555 1_555
O4 C16 1_555 1_555
O5 C2 1_555 1_555
H19 O2 1_555 1_555
H20 O3 1_555 1_555
C14 C15 1_555 1_555
C16 O5 1_555 1_555

#END
