
#######################################################################
#
#                 Cambridge Crystallographic Data Centre
#                                CCDC 
#
#######################################################################
#
# If this CIF has been generated from an entry in the Cambridge 
# Structural Database, then it will include bibliographic, chemical, 
# crystal, experimental, refinement or atomic coordinate data resulting 
# from the CCDC's data processing and validation procedures.
#
#######################################################################

data_XEKXER
_chemical_compound_source        'stems of Artocarpus chama'
_chemical_formula_moiety         'C25 H30 O4'
_chemical_name_systematic        'Artochamin H'
_chemical_properties_biological  'no cytotoxicity against HepG2 cells'
_symmetry_cell_setting           monoclinic
_symmetry_space_group_name_H-M   'P 21/c'
_symmetry_Int_Tables_number      14
_space_group_name_Hall           '-P 2ybc'
loop_
_symmetry_equiv_pos_site_id
_symmetry_equiv_pos_as_xyz
1 x,y,z
2 -x,1/2+y,1/2-z
3 -x,-y,-z
4 x,1/2-y,1/2+z
_cell_length_a                   6.1498(8)
_cell_length_b                   18.461(3)
_cell_length_c                   19.586(3)
_cell_angle_alpha                90
_cell_angle_beta                 96.490(2)
_cell_angle_gamma                90
_cell_volume                     2209.38
_exptl_crystal_colour            colorless
_exptl_crystal_description       needle
_cell_formula_units_Z            4
loop_
_atom_site_label
_atom_site_type_symbol
_atom_site_fract_x
_atom_site_fract_y
_atom_site_fract_z
O1 O 1.0153(3) 0.98339(8) 0.12948(9)
H1 H 1.085(4) 0.9943(15) 0.0975(14)
O2 O 1.3230(3) 0.74576(9) 0.09650(9)
O3 O 0.7949(3) 0.55628(9) 0.47250(8)
H2 H 0.704(4) 0.5292(16) 0.4929(14)
O4 O 0.3729(3) 0.52672(9) 0.42896(8)
H3 H 0.251(5) 0.5160(17) 0.4066(15)
C1 C 0.7455(4) 0.84392(12) 0.33895(12)
C2 C 0.6321(4) 0.85688(12) 0.26443(11)
H4 H 0.474(4) 0.8590(13) 0.2631(11)
C3 C 0.7156(4) 0.91733(13) 0.22025(12)
H5 H 0.774(4) 0.9580(15) 0.2473(13)
H6 H 0.596(4) 0.9345(13) 0.1865(12)
C4 C 0.8910(3) 0.87991(11) 0.18471(10)
C5 C 1.0301(3) 0.90936(11) 0.14158(10)
C6 C 1.1769(4) 0.86638(12) 0.11125(11)
H7 H 1.268(4) 0.8877(13) 0.0801(12)
C7 C 1.1833(4) 0.79228(12) 0.12452(11)
C8 C 1.0451(4) 0.76009(11) 0.16819(10)
C9 C 0.8993(3) 0.80560(11) 0.19701(10)
C10 C 0.7259(3) 0.78370(12) 0.24172(11)
H8 H 0.627(3) 0.7504(11) 0.2185(10)
C11 C 0.8039(4) 0.76427(12) 0.31807(11)
H9 H 0.963(4) 0.7544(13) 0.3269(11)
C12 C 0.9530(5) 0.88803(16) 0.35866(16)
H10 H 1.025(5) 0.8700(16) 0.4026(16)
H11 H 0.914(5) 0.9374(19) 0.3665(16)
H12 H 1.058(5) 0.8862(18) 0.3224(16)
C13 C 0.5933(6) 0.85020(17) 0.39460(16)
H13 H 0.453(5) 0.8229(17) 0.3816(15)
H14 H 0.665(5) 0.8325(17) 0.4387(16)
H15 H 0.550(5) 0.899(2) 0.3999(16)
C14 C 1.4657(5) 0.77539(19) 0.05089(16)
H16 H 1.565(5) 0.8148(19) 0.0756(17)
H17 H 1.372(4) 0.7928(15) 0.0111(15)
H18 H 1.549(5) 0.7360(17) 0.0366(15)
C15 C 1.0477(4) 0.67878(12) 0.18016(12)
H19 H 0.999(4) 0.6676(12) 0.2242(12)
H20 H 1.199(4) 0.6620(14) 0.1813(13)
C16 C 0.9083(6) 0.63816(14) 0.12577(14)
H21 H 0.947(5) 0.6506(18) 0.0807(18)
C17 C 0.7590(6) 0.58851(15) 0.13360(16)
C18 C 0.6358(18) 0.5531(3) 0.0721(4)
H22 H 0.688(10) 0.571(3) 0.028(3)
H23 H 0.654(7) 0.505(3) 0.074(2)
H24 H 0.492(7) 0.567(2) 0.070(2)
C19 C 0.7013(8) 0.5615(2) 0.2010(2)
H25 H 0.724(6) 0.511(2) 0.2079(19)
H26 H 0.556(8) 0.566(3) 0.205(3)
H27 H 0.783(7) 0.586(3) 0.241(2)
C20 C 0.6819(3) 0.70307(11) 0.34777(10)
C21 C 0.7867(3) 0.65964(11) 0.39952(11)
H28 H 0.935(4) 0.6697(12) 0.4177(11)
C22 C 0.6794(3) 0.60194(11) 0.42568(10)
C23 C 0.4644(3) 0.58631(11) 0.40152(10)
C24 C 0.3553(4) 0.62999(13) 0.35145(11)
H29 H 0.210(4) 0.6156(13) 0.3346(12)
C25 C 0.4639(4) 0.68760(12) 0.32505(11)
H30 H 0.389(4) 0.7147(13) 0.2909(12)
loop_
_geom_bond_atom_site_label_1
_geom_bond_atom_site_label_2
_geom_bond_site_symmetry_1
_geom_bond_site_symmetry_2
O1 H1 1_555 1_555
O2 C7 1_555 1_555
O3 H2 1_555 1_555
O4 H3 1_555 1_555
C1 C2 1_555 1_555
C2 H4 1_555 1_555
C3 C2 1_555 1_555
H5 C3 1_555 1_555
H6 C3 1_555 1_555
C4 C3 1_555 1_555
C5 O1 1_555 1_555
C6 C5 1_555 1_555
H7 C6 1_555 1_555
C7 C6 1_555 1_555
C8 C7 1_555 1_555
C9 C4 1_555 1_555
C10 C2 1_555 1_555
H8 C10 1_555 1_555
C11 C1 1_555 1_555
H9 C11 1_555 1_555
C12 C1 1_555 1_555
H10 C12 1_555 1_555
H11 C12 1_555 1_555
H12 C12 1_555 1_555
C13 C1 1_555 1_555
H13 C13 1_555 1_555
H14 C13 1_555 1_555
H15 C13 1_555 1_555
C14 O2 1_555 1_555
H16 C14 1_555 1_555
H17 C14 1_555 1_555
H18 C14 1_555 1_555
C15 C8 1_555 1_555
H19 C15 1_555 1_555
H20 C15 1_555 1_555
C16 C15 1_555 1_555
H21 C16 1_555 1_555
C17 C16 1_555 1_555
C18 C17 1_555 1_555
H22 C18 1_555 1_555
H23 C18 1_555 1_555
H24 C18 1_555 1_555
C19 C17 1_555 1_555
H25 C19 1_555 1_555
H26 C19 1_555 1_555
H27 C19 1_555 1_555
C20 C11 1_555 1_555
C21 C20 1_555 1_555
H28 C21 1_555 1_555
C22 O3 1_555 1_555
C23 O4 1_555 1_555
C24 C23 1_555 1_555
H29 C24 1_555 1_555
C25 C20 1_555 1_555
H30 C25 1_555 1_555
C4 C5 1_555 1_555
C8 C9 1_555 1_555
C9 C10 1_555 1_555
C10 C11 1_555 1_555
C21 C22 1_555 1_555
C22 C23 1_555 1_555
C24 C25 1_555 1_555

#END
