
#######################################################################
#
#                 Cambridge Crystallographic Data Centre
#                                CCDC 
#
#######################################################################
#
# If this CIF has been generated from an entry in the Cambridge 
# Structural Database, then it will include bibliographic, chemical, 
# crystal, experimental, refinement or atomic coordinate data resulting 
# from the CCDC's data processing and validation procedures.
#
#######################################################################

data_XELBAR
_chemical_formula_moiety         'C12 H15 N1 O4 S1'
_chemical_name_systematic        
3(R)-(1(R)-2,2-Dimethyl-1,3-dioxalan-5-yl)-1,2-benzisothiazoline-1,1-dioxide
_symmetry_cell_setting           orthorhombic
_symmetry_space_group_name_H-M   'P 21 21 21'
_symmetry_Int_Tables_number      19
_space_group_name_Hall           'P 2ac 2ab'
loop_
_symmetry_equiv_pos_site_id
_symmetry_equiv_pos_as_xyz
1 x,y,z
2 1/2-x,-y,1/2+z
3 -x,1/2+y,1/2-z
4 1/2+x,1/2-y,-z
_cell_length_a                   7.812(2)
_cell_length_b                   8.829(2)
_cell_length_c                   18.3860(10)
_cell_angle_alpha                90
_cell_angle_beta                 90
_cell_angle_gamma                90
_cell_volume                     1268.12
_exptl_crystal_colour            colorless
_chemical_melting_point          167.2-168deg.C
_cell_formula_units_Z            4
loop_
_atom_site_label
_atom_site_type_symbol
_atom_site_fract_x
_atom_site_fract_y
_atom_site_fract_z
S1 S 0.04302(16) 0.03450(15) 0.82941(8)
N1 N 0.1266(5) -0.0258(7) 0.7535(2)
H1 H 0.090(8) -0.122(7) 0.741(3)
O1 O -0.0588(5) -0.0829(5) 0.8612(2)
O2 O -0.0406(5) 0.1774(5) 0.8186(2)
O3 O 0.4467(5) -0.0031(4) 0.59259(19)
O4 O 0.5200(5) 0.1597(4) 0.68299(18)
C1 C 0.2399(6) 0.0656(5) 0.8726(3)
C2 C 0.2642(7) 0.1039(6) 0.9452(3)
H2 H 0.1725 0.1132 0.9771
C3 C 0.4304(7) 0.1274(6) 0.9676(3)
H3 H 0.4529 0.1523 1.0158
C4 C 0.5644(7) 0.1140(6) 0.9184(3)
H4 H 0.6756 0.1320 0.9343
C5 C 0.5375(7) 0.0748(6) 0.8468(3)
H5 H 0.6290 0.0652 0.8148
C6 C 0.3706(6) 0.0499(5) 0.8234(3)
C7 C 0.3130(6) 0.0041(6) 0.7476(3)
H6 H 0.3722 -0.0889 0.7331
C8 C 0.3423(7) 0.1263(7) 0.6902(3)
H7 H 0.2778 0.2182 0.7023
C9 C 0.2948(8) 0.0705(9) 0.6152(3)
H8 H 0.1992 0.0006 0.6171
H9 H 0.2663 0.1540 0.5831
C10 C 0.5850(8) 0.0853(6) 0.6189(3)
C11 C 0.6380(12) 0.2017(8) 0.5635(3)
H10 H 0.5416 0.2643 0.5515
H11 H 0.6783 0.1516 0.5205
H12 H 0.7279 0.2635 0.5833
C12 C 0.7274(9) -0.0202(8) 0.6408(4)
H13 H 0.6850 -0.0925 0.6753
H14 H 0.8186 0.0371 0.6624
H15 H 0.7694 -0.0723 0.5986
loop_
_geom_bond_atom_site_label_1
_geom_bond_atom_site_label_2
_geom_bond_site_symmetry_1
_geom_bond_site_symmetry_2
S1 N1 1_555 1_555
N1 H1 1_555 1_555
O1 S1 1_555 1_555
O2 S1 1_555 1_555
O3 C9 1_555 1_555
O4 C8 1_555 1_555
C1 S1 1_555 1_555
C2 C1 1_555 1_555
H2 C2 1_555 1_555
C3 C2 1_555 1_555
H3 C3 1_555 1_555
C4 C3 1_555 1_555
H4 C4 1_555 1_555
C5 C4 1_555 1_555
H5 C5 1_555 1_555
C6 C1 1_555 1_555
C7 N1 1_555 1_555
H6 C7 1_555 1_555
C8 C7 1_555 1_555
H7 C8 1_555 1_555
C9 C8 1_555 1_555
H8 C9 1_555 1_555
H9 C9 1_555 1_555
C10 O3 1_555 1_555
C11 C10 1_555 1_555
H10 C11 1_555 1_555
H11 C11 1_555 1_555
H12 C11 1_555 1_555
C12 C10 1_555 1_555
H13 C12 1_555 1_555
H14 C12 1_555 1_555
H15 C12 1_555 1_555
O4 C10 1_555 1_555
C5 C6 1_555 1_555
C6 C7 1_555 1_555

#END
