
#######################################################################
#
#                 Cambridge Crystallographic Data Centre
#                                CCDC 
#
#######################################################################
#
# If this CIF has been generated from an entry in the Cambridge 
# Structural Database, then it will include bibliographic, chemical, 
# crystal, experimental, refinement or atomic coordinate data resulting 
# from the CCDC's data processing and validation procedures.
#
#######################################################################

data_XELCOI
_chemical_formula_moiety         'C18 H18 B1 Cl1 F2 N2 O1 S1'
_chemical_name_systematic        
(3-Chloro-5-((3,5-dimethyl-4-(methylsulfanyl)-2H-pyrrol-2-ylidene)(3-furyl)methyl)-2,4-dimethyl-1H-pyrrolato)(difluoro)boron
_symmetry_cell_setting           triclinic
_symmetry_space_group_name_H-M   'P -1'
_symmetry_Int_Tables_number      2
_space_group_name_Hall           '-P 1'
loop_
_symmetry_equiv_pos_site_id
_symmetry_equiv_pos_as_xyz
1 x,y,z
2 -x,-y,-z
_cell_length_a                   9.528(4)
_cell_length_b                   10.331(4)
_cell_length_c                   11.053(4)
_cell_angle_alpha                89.540(18)
_cell_angle_beta                 73.955(17)
_cell_angle_gamma                66.860(16)
_cell_volume                     955.235
_exptl_crystal_colour            red
_exptl_crystal_description       cubic
_cell_formula_units_Z            2
loop_
_atom_site_label
_atom_site_type_symbol
_atom_site_fract_x
_atom_site_fract_y
_atom_site_fract_z
B1 B 0.5970(6) 0.1570(5) 0.4267(5)
F1 F 0.4673(3) 0.1668(3) 0.3900(3)
F2 F 0.6571(3) 0.2509(3) 0.3680(3)
N1 N 0.7283(4) 0.0044(3) 0.3917(3)
N2 N 0.5513(4) 0.1892(3) 0.5725(3)
S1 S 0.3116(2) 0.43920(16) 0.89343(16)
Cl1 Cl 1.0401(2) -0.32161(17) 0.15116(15)
O1 O 0.9940(5) -0.2136(5) 0.8110(4)
C1 C 0.7947(6) -0.0687(5) 0.2743(4)
C2 C 0.9212(6) -0.1957(5) 0.2809(5)
C3 C 0.9337(6) -0.2043(5) 0.4024(5)
C4 C 0.8085(5) -0.0764(4) 0.4731(4)
C5 C 0.7574(5) -0.0267(4) 0.6042(4)
C6 C 0.6309(5) 0.1045(4) 0.6522(4)
C7 C 0.5619(6) 0.1765(5) 0.7764(4)
C8 C 0.4391(6) 0.3042(5) 0.7690(5)
C9 C 0.4353(5) 0.3081(5) 0.6412(5)
C10 C 0.9572(6) -0.1159(6) 0.7264(5)
H1 H 1.0094 -0.0569 0.6982
C11 C 0.8341(5) -0.1190(4) 0.6910(4)
C12 C 0.7946(6) -0.2223(5) 0.7553(5)
H2 H 0.7131 -0.2484 0.7505
C13 C 0.8938(7) -0.2777(5) 0.8250(5)
H3 H 0.8932 -0.3500 0.8757
C14 C 1.0554(7) -0.3240(5) 0.4436(5)
H4 H 1.1288 -0.3904 0.3712
H5 H 1.0028 -0.3707 0.5033
H6 H 1.1129 -0.2878 0.4828
C15 C 0.7432(7) -0.0130(6) 0.1613(5)
H7 H 0.6295 0.0185 0.1811
H8 H 0.7951 -0.0867 0.0915
H9 H 0.7721 0.0651 0.1386
C16 C 0.6028(7) 0.1318(5) 0.8961(5)
H10 H 0.5189 0.1926 0.9675
H11 H 0.7013 0.1384 0.8937
H12 H 0.6145 0.0357 0.9037
C17 C 0.3239(6) 0.4239(5) 0.5884(5)
H13 H 0.3841 0.4618 0.5251
H14 H 0.2501 0.4977 0.6552
H15 H 0.2659 0.3868 0.5508
C18 C 0.4151(12) 0.5561(7) 0.8665(8)
H16 H 0.5236 0.5048 0.8669
H17 H 0.3623 0.6342 0.9323
H18 H 0.4142 0.5912 0.7859
loop_
_geom_bond_atom_site_label_1
_geom_bond_atom_site_label_2
_geom_bond_site_symmetry_1
_geom_bond_site_symmetry_2
B1 F1 1_555 1_555
F2 B1 1_555 1_555
N1 B1 1_555 1_555
N2 B1 1_555 1_555
S1 C8 1_555 1_555
Cl1 C2 1_555 1_555
O1 C10 1_555 1_555
C1 N1 1_555 1_555
C2 C1 1_555 1_555
C3 C2 1_555 1_555
C4 N1 1_555 1_555
C5 C4 1_555 1_555
C6 N2 1_555 1_555
C7 C6 1_555 1_555
C8 C7 1_555 1_555
C9 N2 1_555 1_555
C10 H1 1_555 1_555
C11 C5 1_555 1_555
C12 C11 1_555 1_555
H2 C12 1_555 1_555
C13 O1 1_555 1_555
H3 C13 1_555 1_555
C14 C3 1_555 1_555
H4 C14 1_555 1_555
H5 C14 1_555 1_555
H6 C14 1_555 1_555
C15 C1 1_555 1_555
H7 C15 1_555 1_555
H8 C15 1_555 1_555
H9 C15 1_555 1_555
C16 C7 1_555 1_555
H10 C16 1_555 1_555
H11 C16 1_555 1_555
H12 C16 1_555 1_555
C17 C9 1_555 1_555
H13 C17 1_555 1_555
H14 C17 1_555 1_555
H15 C17 1_555 1_555
C18 S1 1_555 1_555
H16 C18 1_555 1_555
H17 C18 1_555 1_555
H18 C18 1_555 1_555
C3 C4 1_555 1_555
C5 C6 1_555 1_555
C8 C9 1_555 1_555
C10 C11 1_555 1_555
C12 C13 1_555 1_555

#END
