
#######################################################################
#
#                 Cambridge Crystallographic Data Centre
#                                CCDC 
#
#######################################################################
#
# If this CIF has been generated from an entry in the Cambridge 
# Structural Database, then it will include bibliographic, chemical, 
# crystal, experimental, refinement or atomic coordinate data resulting 
# from the CCDC's data processing and validation procedures.
#
#######################################################################

data_XELDEY
_chemical_formula_moiety         'C28 H35 N1 O5'
_chemical_name_systematic        
'((4aR, 5S)-1-acetyl-4a-benzyl-5-hydroxy-3,4,4a,5,6,7-hexahydro-2H-quinolin-5-yl) 4,7,7-trimethyl-3-oxo-2-oxabicyclo(2.2.1)heptane-1-carboxylate'
_symmetry_cell_setting           monoclinic
_symmetry_space_group_name_H-M   'P 21'
_symmetry_Int_Tables_number      4
_space_group_name_Hall           'P 2yb'
loop_
_symmetry_equiv_pos_site_id
_symmetry_equiv_pos_as_xyz
1 x,y,z
2 -x,1/2+y,-z
_cell_length_a                   10.5000(2)
_cell_length_b                   11.2178(2)
_cell_length_c                   10.5038(2)
_cell_angle_alpha                90
_cell_angle_beta                 103.4060(8)
_cell_angle_gamma                90
_cell_volume                     1203.5
_exptl_crystal_colour            colorless
_cell_formula_units_Z            2
loop_
_atom_site_label
_atom_site_type_symbol
_atom_site_fract_x
_atom_site_fract_y
_atom_site_fract_z
O1 O 0.54449(8) 0.71016(8) 0.24653(8)
O2 O 0.74164(9) 0.68894(8) 0.46254(8)
O3 O 0.69228(9) 0.77387(11) 0.13577(9)
C1 C 0.26226(12) 0.77324(12) 0.24367(12)
H1 H 0.2252(15) 0.6914(15) 0.2337(15)
H2 H 0.1874(15) 0.8294(14) 0.2263(14)
O4 O 0.87138(10) 0.64235(9) 0.65820(9)
C2 C 0.33494(12) 0.79341(11) 0.13129(12)
C3 C 0.74509(12) 0.78506(11) 0.36949(12)
N1 N 0.14540(11) 0.87643(9) -0.03363(11)
C4 C 0.89344(12) 0.80322(11) 0.38243(12)
O5 O -0.05342(10) 0.96383(9) -0.09758(11)
C5 C 0.84809(12) 0.70727(12) 0.56417(12)
C6 C 0.44210(11) 0.70130(12) 0.12605(12)
H3 H 0.4781(13) 0.7245(12) 0.0511(14)
C7 C 0.66048(11) 0.75425(11) 0.23685(12)
C8 C 0.39701(13) 0.91913(12) 0.13728(14)
H4 H 0.4610(15) 0.9152(14) 0.0814(15)
H5 H 0.4520(15) 0.9320(14) 0.2273(15)
C9 C 1.05677(14) 0.83282(14) 0.61186(15)
H6 H 1.1114(18) 0.7592(18) 0.6055(18)
H7 H 1.0990(19) 0.9027(19) 0.5785(19)
H8 H 1.0576(18) 0.8516(17) 0.704(2)
C10 C 0.39466(14) 0.69282(12) 0.45891(13)
H9 H 0.3936(15) 0.6160(14) 0.4178(15)
C11 C 0.45759(15) 0.70612(14) 0.58971(14)
H10 H 0.4997(18) 0.6374(18) 0.6367(17)
C12 C 0.70108(13) 0.89753(13) 0.43165(14)
H11 H 0.6854(15) 0.9652(14) 0.3667(15)
H12 H 0.6210(15) 0.8776(13) 0.4564(15)
C13 C 0.29827(14) 1.01952(12) 0.09336(15)
H13 H 0.3454(17) 1.0963(16) 0.0903(17)
H14 H 0.2414(16) 1.0338(14) 0.1561(17)
C14 C 0.39213(13) 0.57470(12) 0.10551(13)
H15 H 0.3446(16) 0.5521(15) 0.1723(16)
H16 H 0.4648(16) 0.5195(15) 0.1116(16)
C15 C 0.21823(13) 0.67731(12) -0.06669(13)
H17 H 0.1504(15) 0.6713(13) -0.1451(15)
C16 C 0.23097(12) 0.77659(11) 0.00374(12)
C17 C 0.82008(14) 0.91962(13) 0.54760(15)
H18 H 0.8615(15) 0.9950(15) 0.5415(15)
H19 H 0.7971(17) 0.9188(17) 0.6342(18)
C18 C 0.33926(13) 0.90022(12) 0.44693(14)
H20 H 0.2952(15) 0.9688(14) 0.4015(16)
C19 C 0.91734(12) 0.81776(11) 0.53340(12)
C20 C 0.96163(13) 0.69345(13) 0.34334(13)
H21 H 0.9371(16) 0.6860(15) 0.2439(17)
H22 H 1.0576(16) 0.7009(15) 0.3748(15)
H23 H 0.9344(17) 0.6203(17) 0.3810(17)
C21 C 0.33540(12) 0.78982(11) 0.38476(12)
C22 C 0.21232(14) 0.99086(12) -0.04048(15)
H24 H 0.2695(17) 0.9842(15) -0.1053(18)
H25 H 0.1444(16) 1.0508(15) -0.0672(15)
C23 C 0.29978(14) 0.56718(13) -0.03109(14)
H26 H 0.2447(17) 0.4952(16) -0.0361(16)
H27 H 0.3548(17) 0.5535(16) -0.0982(17)
C24 C 0.01138(13) 0.87454(12) -0.05775(13)
C25 C 0.40161(14) 0.91380(14) 0.57840(14)
H28 H 0.4029(16) 0.9906(16) 0.6182(16)
C26 C -0.05494(13) 0.76032(14) -0.03481(15)
H29 H -0.1357(18) 0.7798(17) -0.0066(17)
H30 H 0.0007(17) 0.7065(16) 0.0271(17)
H31 H -0.0849(18) 0.7204(17) -0.1205(19)
C27 C 0.93143(14) 0.91254(13) 0.31304(15)
H32 H 0.9104(16) 0.9037(16) 0.2154(17)
H33 H 1.0272(18) 0.9271(16) 0.3402(17)
H34 H 0.8908(17) 0.9856(17) 0.3335(18)
C28 C 0.46142(15) 0.81667(14) 0.64991(14)
H35 H 0.5078(19) 0.8265(17) 0.7450(18)
loop_
_geom_bond_atom_site_label_1
_geom_bond_atom_site_label_2
_geom_bond_site_symmetry_1
_geom_bond_site_symmetry_2
O1 C6 1_555 1_555
O2 C3 1_555 1_555
O3 C7 1_555 1_555
C1 H1 1_555 1_555
H2 C1 1_555 1_555
O4 C5 1_555 1_555
C2 C1 1_555 1_555
C3 C4 1_555 1_555
N1 C16 1_555 1_555
C4 C19 1_555 1_555
O5 C24 1_555 1_555
C5 O2 1_555 1_555
C6 C2 1_555 1_555
H3 C6 1_555 1_555
C7 O1 1_555 1_555
C8 C2 1_555 1_555
H4 C8 1_555 1_555
H5 C8 1_555 1_555
C9 H6 1_555 1_555
H7 C9 1_555 1_555
H8 C9 1_555 1_555
C10 H9 1_555 1_555
C11 C10 1_555 1_555
H10 C11 1_555 1_555
C12 C3 1_555 1_555
H11 C12 1_555 1_555
H12 C12 1_555 1_555
C13 C8 1_555 1_555
H13 C13 1_555 1_555
H14 C13 1_555 1_555
C14 C6 1_555 1_555
H15 C14 1_555 1_555
H16 C14 1_555 1_555
C15 H17 1_555 1_555
C16 C2 1_555 1_555
C17 C12 1_555 1_555
H18 C17 1_555 1_555
H19 C17 1_555 1_555
C18 H20 1_555 1_555
C19 C5 1_555 1_555
C20 C4 1_555 1_555
H21 C20 1_555 1_555
H22 C20 1_555 1_555
H23 C20 1_555 1_555
C21 C1 1_555 1_555
C22 N1 1_555 1_555
H24 C22 1_555 1_555
H25 C22 1_555 1_555
C23 C14 1_555 1_555
H26 C23 1_555 1_555
H27 C23 1_555 1_555
C24 N1 1_555 1_555
C25 C18 1_555 1_555
H28 C25 1_555 1_555
C26 C24 1_555 1_555
H29 C26 1_555 1_555
H30 C26 1_555 1_555
H31 C26 1_555 1_555
C27 C4 1_555 1_555
H32 C27 1_555 1_555
H33 C27 1_555 1_555
H34 C27 1_555 1_555
C28 C11 1_555 1_555
H35 C28 1_555 1_555
C3 C7 1_555 1_555
C9 C19 1_555 1_555
C10 C21 1_555 1_555
C13 C22 1_555 1_555
C15 C16 1_555 1_555
C15 C23 1_555 1_555
C17 C19 1_555 1_555
C18 C21 1_555 1_555
C25 C28 1_555 1_555

#END
