
#######################################################################
#
#                 Cambridge Crystallographic Data Centre
#                                CCDC 
#
#######################################################################
#
# If this CIF has been generated from an entry in the Cambridge 
# Structural Database, then it will include bibliographic, chemical, 
# crystal, experimental, refinement or atomic coordinate data resulting 
# from the CCDC's data processing and validation procedures.
#
#######################################################################

data_XELPIQ
_chemical_formula_moiety         'C31 H19 N1 O3 S1'
_chemical_name_systematic        
4-(9-phenyl-9H-carbazol-3-yl)-10-thioxanthene-9,10,10-trione
_symmetry_cell_setting           triclinic
_symmetry_space_group_name_H-M   'P -1'
_symmetry_Int_Tables_number      2
_space_group_name_Hall           '-P 1'
loop_
_symmetry_equiv_pos_site_id
_symmetry_equiv_pos_as_xyz
1 x,y,z
2 -x,-y,-z
_cell_length_a                   7.910(3)
_cell_length_b                   7.962(2)
_cell_length_c                   18.319(6)
_cell_angle_alpha                91.688(6)
_cell_angle_beta                 98.632(6)
_cell_angle_gamma                95.182(5)
_cell_volume                     1134.91
_exptl_crystal_colour            colorless
_exptl_crystal_description       plate
_cell_formula_units_Z            2
loop_
_atom_site_label
_atom_site_type_symbol
_atom_site_fract_x
_atom_site_fract_y
_atom_site_fract_z
S1 S 0.73099(9) 0.75937(8) 0.10024(4)
O1 O 0.5923(3) 0.6296(2) 0.09864(13)
O2 O 0.8895(3) 0.7411(3) 0.14780(11)
O3 O 0.7739(3) 1.2200(2) -0.02513(11)
N1 N 0.4939(3) 0.4159(3) 0.36925(12)
C1 C 0.7803(3) 0.7760(3) 0.00982(15)
C2 C 0.8166(4) 0.6269(3) -0.02332(16)
H1 H 0.8057 0.5258 0.0004
C3 C 0.8690(4) 0.6305(4) -0.09186(16)
H2 H 0.8919 0.5310 -0.1147
C4 C 0.8875(4) 0.7823(4) -0.12680(16)
H3 H 0.9258 0.7846 -0.1724
C5 C 0.8494(3) 0.9294(3) -0.09405(14)
H4 H 0.8609 1.0302 -0.1180
C6 C 0.7936(3) 0.9284(3) -0.02516(14)
C7 C 0.7514(3) 1.0899(3) 0.00681(15)
C8 C 0.6766(3) 1.0936(3) 0.07741(14)
C9 C 0.6192(3) 1.2464(3) 0.09817(15)
H5 H 0.6300 1.3387 0.0687
C10 C 0.5471(3) 1.2624(3) 0.16152(15)
H6 H 0.5102 1.3650 0.1748
C11 C 0.5298(3) 1.1250(3) 0.20541(14)
H7 H 0.4793 1.1367 0.2477
C12 C 0.5860(3) 0.9697(3) 0.18797(14)
C13 C 0.6594(3) 0.9557(3) 0.12279(14)
C14 C 0.5663(3) 0.8276(3) 0.23883(14)
C15 C 0.7102(3) 0.7809(3) 0.28536(15)
H8 H 0.8165 0.8406 0.2845
C16 C 0.6996(3) 0.6488(3) 0.33264(15)
H9 H 0.7960 0.6200 0.3636
C17 C 0.5388(3) 0.5609(3) 0.33203(14)
C18 C 0.3918(3) 0.6083(3) 0.28738(14)
C19 C 0.4059(3) 0.7422(3) 0.24053(14)
H10 H 0.3090 0.7740 0.2108
C20 C 0.2491(3) 0.4896(3) 0.29947(14)
C21 C 0.0721(3) 0.4782(3) 0.27471(15)
H11 H 0.0248 0.5566 0.2431
C22 C -0.0310(4) 0.3474(4) 0.29840(15)
H12 H -0.1486 0.3366 0.2816
C23 C 0.0393(4) 0.2317(4) 0.34715(16)
H13 H -0.0330 0.1456 0.3625
C24 C 0.2130(4) 0.2414(3) 0.37318(15)
H14 H 0.2587 0.1635 0.4055
C25 C 0.3179(3) 0.3726(3) 0.34916(14)
C26 C 0.6067(3) 0.3339(3) 0.42197(14)
C27 C 0.6093(4) 0.1590(3) 0.41615(16)
H15 H 0.5378 0.0956 0.3783
C28 C 0.7205(4) 0.0809(4) 0.46786(17)
H16 H 0.7219 -0.0357 0.4649
C29 C 0.8290(4) 0.1750(4) 0.52368(17)
H17 H 0.9038 0.1221 0.5577
C30 C 0.8252(4) 0.3480(4) 0.52838(16)
H18 H 0.8985 0.4115 0.5656
C31 C 0.7139(3) 0.4280(4) 0.47856(15)
H19 H 0.7107 0.5443 0.4829
loop_
_geom_bond_atom_site_label_1
_geom_bond_atom_site_label_2
_geom_bond_site_symmetry_1
_geom_bond_site_symmetry_2
S1 O1 1_555 1_555
O2 S1 1_555 1_555
O3 C7 1_555 1_555
N1 C17 1_555 1_555
C1 S1 1_555 1_555
C2 C1 1_555 1_555
H1 C2 1_555 1_555
C3 C2 1_555 1_555
H2 C3 1_555 1_555
C4 C3 1_555 1_555
H3 C4 1_555 1_555
C5 C4 1_555 1_555
H4 C5 1_555 1_555
C6 C1 1_555 1_555
C7 C6 1_555 1_555
C8 C7 1_555 1_555
C9 C8 1_555 1_555
H5 C9 1_555 1_555
C10 C9 1_555 1_555
H6 C10 1_555 1_555
C11 C10 1_555 1_555
H7 C11 1_555 1_555
C12 C11 1_555 1_555
C13 S1 1_555 1_555
C14 C12 1_555 1_555
C15 C14 1_555 1_555
H8 C15 1_555 1_555
C16 C15 1_555 1_555
H9 C16 1_555 1_555
C17 C16 1_555 1_555
C18 C17 1_555 1_555
C19 C14 1_555 1_555
H10 C19 1_555 1_555
C20 C18 1_555 1_555
C21 C20 1_555 1_555
H11 C21 1_555 1_555
C22 C21 1_555 1_555
H12 C22 1_555 1_555
C23 C22 1_555 1_555
H13 C23 1_555 1_555
C24 C23 1_555 1_555
H14 C24 1_555 1_555
C25 N1 1_555 1_555
C26 N1 1_555 1_555
C27 C26 1_555 1_555
H15 C27 1_555 1_555
C28 C27 1_555 1_555
H16 C28 1_555 1_555
C29 C28 1_555 1_555
H17 C29 1_555 1_555
C30 C29 1_555 1_555
H18 C30 1_555 1_555
C31 C26 1_555 1_555
H19 C31 1_555 1_555
C5 C6 1_555 1_555
C8 C13 1_555 1_555
C12 C13 1_555 1_555
C18 C19 1_555 1_555
C20 C25 1_555 1_555
C24 C25 1_555 1_555
C30 C31 1_555 1_555

#END
