
#######################################################################
#
#                 Cambridge Crystallographic Data Centre
#                                CCDC 
#
#######################################################################
#
# If this CIF has been generated from an entry in the Cambridge 
# Structural Database, then it will include bibliographic, chemical, 
# crystal, experimental, refinement or atomic coordinate data resulting 
# from the CCDC's data processing and validation procedures.
#
#######################################################################

data_XELQUB
_chemical_formula_moiety         'C12 H9 F3 N4 O3 S1'
_chemical_name_systematic        
1-(4-Methoxybenzoyl)-3-(5-trifluoromethyl-1,3,4-thiadiazol-2-yl)urea
_chemical_properties_biological  'good activity as plant growth regulator'
_symmetry_cell_setting           triclinic
_symmetry_space_group_name_H-M   'P -1'
_symmetry_Int_Tables_number      2
_space_group_name_Hall           '-P 1'
loop_
_symmetry_equiv_pos_site_id
_symmetry_equiv_pos_as_xyz
1 x,y,z
2 -x,-y,-z
_cell_length_a                   5.4191(15)
_cell_length_b                   7.766(2)
_cell_length_c                   17.161(5)
_cell_angle_alpha                98.668(5)
_cell_angle_beta                 95.103(5)
_cell_angle_gamma                101.070(5)
_cell_volume                     695.491
_exptl_crystal_colour            colorless
_exptl_crystal_description       plate
_chemical_melting_point          '247-248 deg.C'
_cell_formula_units_Z            2
loop_
_atom_site_label
_atom_site_type_symbol
_atom_site_fract_x
_atom_site_fract_y
_atom_site_fract_z
C1 C 0.5435(8) 0.6978(6) 1.3858(2)
H1 H 0.3888 0.7211 1.3620
H2 H 0.6056 0.7834 1.4333
H3 H 0.5122 0.5801 1.3988
C2 C 0.6720(6) 0.6037(4) 1.2596(2)
C3 C 0.4476(6) 0.4783(4) 1.2347(2)
H4 H 0.3228 0.4623 1.2683
C4 C 0.4125(6) 0.3778(4) 1.1592(2)
H5 H 0.2624 0.2940 1.1429
C5 C 0.5913(5) 0.3974(4) 1.10765(19)
C6 C 0.8169(6) 0.5240(4) 1.1336(2)
H6 H 0.9418 0.5400 1.1000
C7 C 0.8545(6) 0.6249(4) 1.2086(2)
H7 H 1.0049 0.7083 1.2251
C8 C 0.5667(6) 0.2940(4) 1.0269(2)
C9 C 0.2665(6) 0.0755(4) 0.92305(19)
C10 C 0.4028(6) -0.0010(4) 0.79537(19)
C11 C 0.2719(6) -0.1519(4) 0.6658(2)
C12 C 0.1412(8) -0.2512(5) 0.5878(2)
F1 F -0.0528(14) -0.3735(11) 0.5950(3)
F2 F 0.2879(8) -0.3291(11) 0.5451(3)
F3 F 0.0476(18) -0.1472(7) 0.5452(4)
N1 N 0.3384(5) 0.1771(3) 0.99800(16)
H8 H 0.2276 0.1664 1.0308
N2 N 0.4450(5) 0.0818(3) 0.87302(16)
H9 H 0.5950 0.1417 0.8911
N3 N 0.5851(5) 0.0150(4) 0.75053(17)
N4 N 0.5067(5) -0.0742(4) 0.67478(17)
O1 O 0.7275(5) 0.7107(3) 1.33133(14)
O2 O 0.7398(4) 0.3083(3) 0.98585(15)
O3 O 0.0525(4) -0.0155(3) 0.90468(14)
S1 S 0.11696(15) -0.12607(11) 0.74877(5)
F4? F -0.102(2) -0.245(4) 0.5755(10)
F5? F 0.104(5) -0.4276(13) 0.5890(12)
F6? F 0.244(4) -0.195(3) 0.5271(7)
loop_
_geom_bond_atom_site_label_1
_geom_bond_atom_site_label_2
_geom_bond_site_symmetry_1
_geom_bond_site_symmetry_2
C1 H1 1_555 1_555
H2 C1 1_555 1_555
H3 C1 1_555 1_555
C2 C3 1_555 1_555
C3 H4 1_555 1_555
C4 C3 1_555 1_555
H5 C4 1_555 1_555
C5 C4 1_555 1_555
C6 C5 1_555 1_555
H6 C6 1_555 1_555
C7 C2 1_555 1_555
H7 C7 1_555 1_555
C8 C5 1_555 1_555
C9 N1 1_555 1_555
C10 N2 1_555 1_555
C11 C12 1_555 1_555
C12 F1 1_555 1_555
F2 C12 1_555 1_555
F3 C12 1_555 1_555
N1 C8 1_555 1_555
H8 N1 1_555 1_555
N2 C9 1_555 1_555
H9 N2 1_555 1_555
N3 C10 1_555 1_555
N4 C11 1_555 1_555
O1 C1 1_555 1_555
O2 C8 1_555 1_555
O3 C9 1_555 1_555
S1 C10 1_555 1_555
C2 O1 1_555 1_555
C6 C7 1_555 1_555
C11 S1 1_555 1_555
N3 N4 1_555 1_555

#END
