
#######################################################################
#
#                 Cambridge Crystallographic Data Centre
#                                CCDC 
#
#######################################################################
#
# If this CIF has been generated from an entry in the Cambridge 
# Structural Database, then it will include bibliographic, chemical, 
# crystal, experimental, refinement or atomic coordinate data resulting 
# from the CCDC's data processing and validation procedures.
#
#######################################################################

data_XELTEO
_chemical_name_common            
'(S,R,R)-1,14-bis(diphenylphosphoryl)-6,9-dimethyl-6,7,8,9-tetrahydrodibenzo[b,d][1,6]dioxepin ethyl acetate solvate'
_chemical_formula_moiety         'C42 H38 O4 P2,C4 H8 O2'
_chemical_name_systematic        
"(S)-6,6'-(2(R),5(R)-hexandioxy)-2,2'-bis(diphenylphosphoryl)-1,1'-biphenyl ethyl acetate solvate"
_symmetry_cell_setting           orthorhombic
_symmetry_space_group_name_H-M   'P 21 21 21'
_symmetry_Int_Tables_number      19
_space_group_name_Hall           'P 2ac 2ab'
loop_
_symmetry_equiv_pos_site_id
_symmetry_equiv_pos_as_xyz
1 x,y,z
2 1/2-x,-y,1/2+z
3 -x,1/2+y,1/2-z
4 1/2+x,1/2-y,-z
_cell_length_a                   11.7451(16)
_cell_length_b                   17.359(3)
_cell_length_c                   19.760(3)
_cell_angle_alpha                90
_cell_angle_beta                 90
_cell_angle_gamma                90
_cell_volume                     4028.73
_exptl_crystal_colour            colorless
_exptl_crystal_description       block
_cell_formula_units_Z            4
loop_
_atom_site_label
_atom_site_type_symbol
_atom_site_fract_x
_atom_site_fract_y
_atom_site_fract_z
P1 P 0.30563(5) 0.20062(4) 0.19844(3)
P2 P 0.65210(5) 0.21695(4) 0.22858(3)
O1 O 0.39622(12) 0.18270(10) 0.14902(7)
O2 O 0.57431(11) 0.28316(9) 0.23910(8)
O3 O 0.53046(13) 0.12100(10) 0.41146(8)
O4 O 0.35475(12) 0.02003(9) 0.31568(8)
C1 C 0.34970(17) 0.21355(14) 0.28614(11)
C2 C 0.2931(2) 0.26777(15) 0.32547(12)
H1 H 0.2396 0.3003 0.3057
C3 C 0.3164(2) 0.27349(15) 0.39429(12)
H2 H 0.2800 0.3104 0.4206
C4 C 0.3939(2) 0.22385(16) 0.42292(13)
H3 H 0.4083 0.2266 0.4691
C5 C 0.45050(19) 0.17030(15) 0.38433(12)
C6 C 0.43131(18) 0.16595(14) 0.31472(11)
C7 C 0.49342(17) 0.10623(13) 0.27484(12)
C8 C 0.59000(18) 0.12138(14) 0.23627(12)
C9 C 0.6416(2) 0.06122(15) 0.20134(12)
H4 H 0.7063 0.0711 0.1757
C10 C 0.5994(2) -0.01241(15) 0.20379(12)
H5 H 0.6354 -0.0517 0.1800
C11 C 0.5033(2) -0.02825(14) 0.24165(13)
H6 H 0.4732 -0.0778 0.2428
C12 C 0.45290(19) 0.03038(15) 0.27762(12)
C13 C 0.3486(2) -0.04836(15) 0.35777(13)
H7 H 0.3730 -0.0927 0.3307
C14 C 0.4289(2) -0.04014(17) 0.41693(14)
H8 H 0.5057 -0.0349 0.3996
H9 H 0.4261 -0.0872 0.4434
C15 C 0.4045(2) 0.02744(18) 0.46355(14)
H10 H 0.3808 0.0072 0.5071
H11 H 0.3407 0.0560 0.4451
C16 C 0.5023(2) 0.08379(17) 0.47549(13)
H12 H 0.4768 0.1233 0.5075
C17 C 0.2246(2) -0.05809(16) 0.37461(14)
H13 H 0.1819 -0.0654 0.3336
H14 H 0.1975 -0.0129 0.3975
H15 H 0.2150 -0.1022 0.4034
C18 C 0.6104(2) 0.0494(2) 0.50122(14)
H16 H 0.6649 0.0896 0.5093
H17 H 0.6402 0.0142 0.4682
H18 H 0.5958 0.0224 0.5427
C19 C 0.23244(18) 0.28848(15) 0.17680(11)
C20 C 0.2967(2) 0.35468(16) 0.17160(13)
H19 H 0.3742 0.3530 0.1813
C21 C 0.2477(2) 0.42318(17) 0.15226(15)
H20 H 0.2921 0.4674 0.1492
C22 C 0.1346(2) 0.42660(18) 0.13756(14)
H21 H 0.1016 0.4731 0.1248
C23 C 0.0689(2) 0.36062(19) 0.14165(15)
H22 H -0.0081 0.3625 0.1310
C24 C 0.1179(2) 0.29213(18) 0.16156(13)
H23 H 0.0734 0.2480 0.1648
C25 C 0.1989(2) 0.12586(14) 0.20314(12)
C26 C 0.2045(2) 0.06563(17) 0.15868(14)
H24 H 0.2625 0.0642 0.1266
C27 C 0.1251(3) 0.00667(18) 0.16065(16)
H25 H 0.1307 -0.0341 0.1303
C28 C 0.0381(3) 0.00792(18) 0.20720(15)
H26 H -0.0167 -0.0307 0.2080
C29 C 0.0344(2) 0.06743(17) 0.25217(16)
H27 H -0.0233 0.0691 0.2843
C30 C 0.1138(2) 0.12425(16) 0.25065(14)
H28 H 0.1104 0.1633 0.2828
C31 C 0.71585(18) 0.21937(14) 0.14503(12)
C32 C 0.8274(2) 0.19776(17) 0.13229(13)
H29 H 0.8734 0.1817 0.1679
C33 C 0.8712(2) 0.1997(2) 0.06757(15)
H30 H 0.9443 0.1818 0.0588
C34 C 0.8043(3) 0.2286(2) 0.01605(15)
H31 H 0.8351 0.2345 -0.0270
C35 C 0.6925(3) 0.24876(18) 0.02755(13)
H32 H 0.6467 0.2654 -0.0079
C36 C 0.6499(2) 0.24403(15) 0.09169(13)
H33 H 0.5745 0.2578 0.0995
C37 C 0.77012(17) 0.21865(15) 0.28760(11)
C38 C 0.7814(2) 0.16570(16) 0.33986(12)
H34 H 0.7290 0.1258 0.3437
C39 C 0.8692(2) 0.17134(17) 0.38630(13)
H35 H 0.8765 0.1353 0.4208
C40 C 0.9462(2) 0.23156(18) 0.38062(13)
H36 H 1.0056 0.2359 0.4116
C41 C 0.9357(2) 0.28405(19) 0.33036(14)
H37 H 0.9887 0.3236 0.3265
C42 C 0.8468(2) 0.27937(16) 0.28458(13)
H38 H 0.8384 0.3172 0.2516
O5 O -0.0709(2) 0.05954(17) 0.52261(14)
O6 O 0.0975(2) 0.04248(15) 0.56835(12)
C43 C 0.0045(3) -0.06742(19) 0.53363(16)
H39 H -0.0666 -0.0845 0.5150
H40 H 0.0130 -0.0876 0.5786
H41 H 0.0659 -0.0854 0.5058
C44 C 0.0063(4) 0.0159(2) 0.53600(19)
C45 C 0.1092(3) 0.1274(2) 0.5935(2)
H42 H 0.0350 0.1500 0.6018
H43 H 0.1538 0.1299 0.6347
C46 C 0.1639(3) 0.1647(3) 0.5413(2)
H44 H 0.1671 0.2189 0.5508
H45 H 0.1230 0.1563 0.4999
H46 H 0.2399 0.1449 0.5369
loop_
_geom_bond_atom_site_label_1
_geom_bond_atom_site_label_2
_geom_bond_site_symmetry_1
_geom_bond_site_symmetry_2
P1 O1 1_555 1_555
P2 O2 1_555 1_555
O3 C5 1_555 1_555
O4 C12 1_555 1_555
C1 P1 1_555 1_555
C2 C1 1_555 1_555
H1 C2 1_555 1_555
C3 C2 1_555 1_555
H2 C3 1_555 1_555
C4 C3 1_555 1_555
H3 C4 1_555 1_555
C5 C4 1_555 1_555
C6 C1 1_555 1_555
C7 C6 1_555 1_555
C8 P2 1_555 1_555
C9 C8 1_555 1_555
H4 C9 1_555 1_555
C10 C9 1_555 1_555
H5 C10 1_555 1_555
C11 C10 1_555 1_555
H6 C11 1_555 1_555
C12 C7 1_555 1_555
C13 O4 1_555 1_555
H7 C13 1_555 1_555
C14 C13 1_555 1_555
H8 C14 1_555 1_555
H9 C14 1_555 1_555
C15 C14 1_555 1_555
H10 C15 1_555 1_555
H11 C15 1_555 1_555
C16 O3 1_555 1_555
H12 C16 1_555 1_555
C17 C13 1_555 1_555
H13 C17 1_555 1_555
H14 C17 1_555 1_555
H15 C17 1_555 1_555
C18 C16 1_555 1_555
H16 C18 1_555 1_555
H17 C18 1_555 1_555
H18 C18 1_555 1_555
C19 P1 1_555 1_555
C20 C19 1_555 1_555
H19 C20 1_555 1_555
C21 C20 1_555 1_555
H20 C21 1_555 1_555
C22 C21 1_555 1_555
H21 C22 1_555 1_555
C23 C22 1_555 1_555
H22 C23 1_555 1_555
C24 C19 1_555 1_555
H23 C24 1_555 1_555
C25 P1 1_555 1_555
C26 C25 1_555 1_555
H24 C26 1_555 1_555
C27 C26 1_555 1_555
H25 C27 1_555 1_555
C28 C27 1_555 1_555
H26 C28 1_555 1_555
C29 C28 1_555 1_555
H27 C29 1_555 1_555
C30 C25 1_555 1_555
H28 C30 1_555 1_555
C31 P2 1_555 1_555
C32 C31 1_555 1_555
H29 C32 1_555 1_555
C33 C32 1_555 1_555
H30 C33 1_555 1_555
C34 C33 1_555 1_555
H31 C34 1_555 1_555
C35 C34 1_555 1_555
H32 C35 1_555 1_555
C36 C31 1_555 1_555
H33 C36 1_555 1_555
C37 P2 1_555 1_555
C38 C37 1_555 1_555
H34 C38 1_555 1_555
C39 C38 1_555 1_555
H35 C39 1_555 1_555
C40 C39 1_555 1_555
H36 C40 1_555 1_555
C41 C40 1_555 1_555
H37 C41 1_555 1_555
C42 C37 1_555 1_555
H38 C42 1_555 1_555
O5 C44 1_555 1_555
O6 C44 1_555 1_555
C43 H39 1_555 1_555
H40 C43 1_555 1_555
H41 C43 1_555 1_555
C44 C43 1_555 1_555
C45 O6 1_555 1_555
H42 C45 1_555 1_555
H43 C45 1_555 1_555
C46 C45 1_555 1_555
H44 C46 1_555 1_555
H45 C46 1_555 1_555
H46 C46 1_555 1_555
C5 C6 1_555 1_555
C7 C8 1_555 1_555
C11 C12 1_555 1_555
C15 C16 1_555 1_555
C23 C24 1_555 1_555
C29 C30 1_555 1_555
C35 C36 1_555 1_555
C41 C42 1_555 1_555

#END
