
#######################################################################
#
#                 Cambridge Crystallographic Data Centre
#                                CCDC 
#
#######################################################################
#
# If this CIF has been generated from an entry in the Cambridge 
# Structural Database, then it will include bibliographic, chemical, 
# crystal, experimental, refinement or atomic coordinate data resulting 
# from the CCDC's data processing and validation procedures.
#
#######################################################################

data_XELYOC
_chemical_formula_moiety         'C2 H8 N1 1+,C18 H20 B1 O4 1-'
_chemical_name_systematic        
"Dimethylammonium bis(3-isopropylbenzene-1,2-diolato-O,O')borate"
_symmetry_cell_setting           orthorhombic
_symmetry_space_group_name_H-M   'P b c a'
_symmetry_Int_Tables_number      61
_space_group_name_Hall           '-P 2ac 2ab'
loop_
_symmetry_equiv_pos_site_id
_symmetry_equiv_pos_as_xyz
1 x,y,z
2 1/2-x,1/2+y,z
3 x,1/2-y,1/2+z
4 1/2+x,y,1/2-z
5 -x,-y,-z
6 1/2+x,1/2-y,-z
7 -x,1/2+y,1/2-z
8 1/2-x,-y,1/2+z
_cell_length_a                   12.9858(4)
_cell_length_b                   11.7576(3)
_cell_length_c                   25.6292(8)
_cell_angle_alpha                90
_cell_angle_beta                 90
_cell_angle_gamma                90
_cell_volume                     3913.11
_exptl_crystal_colour            colorless
_exptl_crystal_description       prism
_chemical_melting_point          'above 250deg.C'
_cell_formula_units_Z            8
_exptl_crystal_recrystallization_method 'diethyl ether'
loop_
_atom_site_label
_atom_site_type_symbol
_atom_site_fract_x
_atom_site_fract_y
_atom_site_fract_z
B1 B 0.51751(16) 0.21434(18) 0.73750(7)
O1 O 0.58367(9) 0.17820(10) 0.69305(4)
O2 O 0.41254(9) 0.22502(11) 0.71492(5)
C1 C 0.52165(12) 0.17455(14) 0.64952(6)
C2 C 0.55040(13) 0.14556(14) 0.59942(7)
C3 C 0.47079(14) 0.14687(16) 0.56224(7)
H1 H 0.4865 0.1292 0.5270
C4 C 0.37035(15) 0.17308(17) 0.57542(8)
H2 H 0.3188 0.1719 0.5491
C5 C 0.34275(14) 0.20130(16) 0.62644(7)
H3 H 0.2737 0.2193 0.6355
C6 C 0.42031(13) 0.20174(15) 0.66290(7)
C7 C 0.66081(13) 0.11518(15) 0.58556(7)
H4 H 0.6974 0.0969 0.6189
C8 C 0.66698(16) 0.01019(18) 0.55085(8)
H5 H 0.6300 -0.0528 0.5675
H6 H 0.7393 -0.0110 0.5458
H7 H 0.6356 0.0269 0.5169
C9 C 0.71633(17) 0.21568(18) 0.56061(10)
H8 H 0.6818 0.2363 0.5279
H9 H 0.7879 0.1947 0.5533
H10 H 0.7149 0.2807 0.5845
O3 O 0.52389(9) 0.13056(10) 0.78012(4)
O4 O 0.54769(10) 0.32443(10) 0.76125(4)
C10 C 0.54655(12) 0.18968(15) 0.82495(7)
C11 C 0.55513(13) 0.14677(15) 0.87468(7)
C12 C 0.57444(14) 0.22747(17) 0.91391(7)
H11 H 0.5795 0.2026 0.9491
C13 C 0.58627(15) 0.34185(17) 0.90293(7)
H12 H 0.5989 0.3935 0.9307
C14 C 0.58008(14) 0.38295(16) 0.85202(7)
H13 H 0.5892 0.4613 0.8443
C15 C 0.56024(13) 0.30470(15) 0.81354(7)
C16 C 0.54255(15) 0.02081(16) 0.88583(8)
H14 H 0.5529 -0.0227 0.8527
C17 C 0.4375(4) -0.0050(5) 0.9069(5)
H16 H 0.4328 -0.0861 0.9153
H17 H 0.3855 0.0142 0.8807
H18 H 0.4255 0.0400 0.9385
C18 C 0.6252(6) -0.0182(6) 0.9266(3)
H19 H 0.6161 0.0246 0.9591
H20 H 0.6943 -0.0039 0.9126
H21 H 0.6171 -0.0997 0.9335
N1 N 0.65483(12) -0.05110(14) 0.73271(7)
H28 H 0.6239 0.0123 0.7187
H29 H 0.6051 -0.0913 0.7504
C21 C 0.73261(19) -0.0148(2) 0.76953(9)
H30 H 0.7643 -0.0817 0.7858
H31 H 0.7007 0.0326 0.7965
H32 H 0.7855 0.0293 0.7512
C22 C 0.69418(16) -0.12206(19) 0.68983(8)
H33 H 0.7491 -0.0812 0.6715
H34 H 0.6381 -0.1389 0.6654
H35 H 0.7215 -0.1933 0.7040
H15? H 0.5895 -0.0195 0.8610
C19? C 0.4305(4) -0.0150(5) 0.8703(5)
H22? H 0.4208 -0.0961 0.8774
H23? H 0.4199 -0.0005 0.8330
H24? H 0.3808 0.0294 0.8906
C20? C 0.5688(12) -0.0182(8) 0.9382(4)
H25? H 0.6408 0.0007 0.9458
H26? H 0.5592 -0.1007 0.9404
H27? H 0.5240 0.0194 0.9637
loop_
_geom_bond_atom_site_label_1
_geom_bond_atom_site_label_2
_geom_bond_site_symmetry_1
_geom_bond_site_symmetry_2
B1 O1 1_555 1_555
O1 C1 1_555 1_555
O2 B1 1_555 1_555
C1 C2 1_555 1_555
C2 C3 1_555 1_555
C3 H1 1_555 1_555
C4 C3 1_555 1_555
H2 C4 1_555 1_555
C5 C4 1_555 1_555
H3 C5 1_555 1_555
C6 O2 1_555 1_555
C7 C2 1_555 1_555
H4 C7 1_555 1_555
C8 C7 1_555 1_555
H5 C8 1_555 1_555
H6 C8 1_555 1_555
H7 C8 1_555 1_555
C9 C7 1_555 1_555
H8 C9 1_555 1_555
H9 C9 1_555 1_555
H10 C9 1_555 1_555
O3 B1 1_555 1_555
O4 B1 1_555 1_555
C10 O3 1_555 1_555
C11 C10 1_555 1_555
C12 C11 1_555 1_555
H11 C12 1_555 1_555
C13 C12 1_555 1_555
H12 C13 1_555 1_555
C14 C13 1_555 1_555
H13 C14 1_555 1_555
C15 O4 1_555 1_555
C16 C11 1_555 1_555
H14 C16 1_555 1_555
C17 C16 1_555 1_555
H16 C17 1_555 1_555
H17 C17 1_555 1_555
H18 C17 1_555 1_555
C18 C16 1_555 1_555
H19 C18 1_555 1_555
H20 C18 1_555 1_555
H21 C18 1_555 1_555
N1 H28 1_555 1_555
H29 N1 1_555 1_555
C21 N1 1_555 1_555
H30 C21 1_555 1_555
H31 C21 1_555 1_555
H32 C21 1_555 1_555
C22 N1 1_555 1_555
H33 C22 1_555 1_555
H34 C22 1_555 1_555
H35 C22 1_555 1_555
C1 C6 1_555 1_555
C5 C6 1_555 1_555
C10 C15 1_555 1_555
C14 C15 1_555 1_555

#END
