
#######################################################################
#
#                 Cambridge Crystallographic Data Centre
#                                CCDC 
#
#######################################################################
#
# If this CIF has been generated from an entry in the Cambridge 
# Structural Database, then it will include bibliographic, chemical, 
# crystal, experimental, refinement or atomic coordinate data resulting 
# from the CCDC's data processing and validation procedures.
#
#######################################################################

data_XEMMEI
_chemical_formula_moiety         'C12 H6 N1 O9 S1 1-,H3 O1 1+,3(H2 O1)'
_chemical_name_systematic        
'Oxonium 7-nitro-5-sulfonatonaphthalene-1,4-dicarboxylic acid trihydrate'
_symmetry_cell_setting           monoclinic
_symmetry_space_group_name_H-M   'P 21/c'
_symmetry_Int_Tables_number      14
_space_group_name_Hall           '-P 2ybc'
loop_
_symmetry_equiv_pos_site_id
_symmetry_equiv_pos_as_xyz
1 x,y,z
2 -x,1/2+y,1/2-z
3 -x,-y,-z
4 x,1/2-y,1/2+z
_cell_length_a                   8.1001(12)
_cell_length_b                   24.369(3)
_cell_length_c                   8.6335(13)
_cell_angle_alpha                90
_cell_angle_beta                 105.380(2)
_cell_angle_gamma                90
_cell_volume                     1643.15
_exptl_crystal_colour            'pale yellow'
_chemical_melting_point          'decomposes from 65 deg.C'
_cell_formula_units_Z            4
loop_
_atom_site_label
_atom_site_type_symbol
_atom_site_fract_x
_atom_site_fract_y
_atom_site_fract_z
S1 S 0.63670(7) 0.407447(19) 0.29728(6)
O1 O 0.5425(2) 0.43989(6) 0.61731(19)
O2 O 0.2681(2) 0.45505(6) 0.4868(2)
H1 H 0.2908 0.4867 0.5175
O3 O 0.1575(2) 0.18430(7) 0.6314(2)
H2 H 0.1334 0.1516 0.6319
O4 O 0.3040(2) 0.15579(6) 0.4622(2)
O5 O 0.4693(2) 0.43230(6) 0.25703(19)
O6 O 0.7640(2) 0.43779(7) 0.4162(2)
O7 O 0.6985(2) 0.39497(6) 0.15725(19)
O8 O 0.9140(2) 0.22053(7) 0.2711(2)
O9 O 0.7826(3) 0.15713(7) 0.3625(3)
N1 N 0.8043(2) 0.20499(7) 0.3334(2)
C1 C 0.3684(3) 0.36409(8) 0.5052(2)
C2 C 0.2306(3) 0.34537(9) 0.5542(3)
H3 H 0.1574 0.3707 0.5821
C3 C 0.1972(3) 0.28955(9) 0.5636(3)
H4 H 0.1016 0.2783 0.5955
C4 C 0.3034(2) 0.25133(8) 0.5263(2)
C5 C 0.4480(2) 0.26861(7) 0.4712(2)
C6 C 0.4782(2) 0.32632(7) 0.4534(2)
C7 C 0.6111(2) 0.34067(7) 0.3786(2)
C8 C 0.7168(2) 0.30164(8) 0.3427(2)
H5 H 0.8039 0.3116 0.2965
C9 C 0.6923(2) 0.24656(8) 0.3764(2)
C10 C 0.5614(2) 0.22950(7) 0.4352(2)
H6 H 0.5462 0.1923 0.4516
C11 C 0.4062(3) 0.42388(8) 0.5382(2)
C12 C 0.2573(2) 0.19215(8) 0.5369(2)
O10 O 0.9484(2) 0.58567(7) 0.8414(2)
H7 H 0.8816 0.5676 0.7657
H8 H 1.0514 0.5885 0.8344
O11 O 0.6952(3) 0.47294(7) 0.9286(2)
H9 H 0.6157 0.4820 0.8463
H10 H 0.6703 0.4469 0.9848
O12 O 0.9464(3) 0.44759(13) 0.7378(3)
H11 H 0.9199 0.4279 0.6546
H12 H 1.0513 0.4438 0.7898
H13 H 0.8798 0.4441 0.7969
O13 O 0.2533(2) 0.05281(7) 0.3843(2)
H14 H 0.2625 0.0855 0.4175
H15 H 0.2708 0.0275 0.4556
loop_
_geom_bond_atom_site_label_1
_geom_bond_atom_site_label_2
_geom_bond_site_symmetry_1
_geom_bond_site_symmetry_2
S1 O5 1_555 1_555
O1 C11 1_555 1_555
O2 H1 1_555 1_555
O3 H2 1_555 1_555
O4 C12 1_555 1_555
O6 S1 1_555 1_555
O7 S1 1_555 1_555
O8 N1 1_555 1_555
O9 N1 1_555 1_555
N1 C9 1_555 1_555
C1 C2 1_555 1_555
C2 H3 1_555 1_555
C3 C2 1_555 1_555
H4 C3 1_555 1_555
C4 C3 1_555 1_555
C5 C4 1_555 1_555
C6 C1 1_555 1_555
C7 S1 1_555 1_555
C8 C7 1_555 1_555
H5 C8 1_555 1_555
C9 C8 1_555 1_555
C10 C5 1_555 1_555
H6 C10 1_555 1_555
C11 O2 1_555 1_555
C12 O3 1_555 1_555
O10 H7 1_555 1_555
H8 O10 1_555 1_555
O11 H9 1_555 1_555
H10 O11 1_555 1_555
O12 H11 1_555 1_555
H12 O12 1_555 1_555
H13 O12 1_555 1_555
O13 H14 1_555 1_555
H15 O13 1_555 1_555
C1 C11 1_555 1_555
C4 C12 1_555 1_555
C5 C6 1_555 1_555
C6 C7 1_555 1_555
C9 C10 1_555 1_555

#END
