
#######################################################################
#
#                 Cambridge Crystallographic Data Centre
#                                CCDC 
#
#######################################################################
#
# If this CIF has been generated from an entry in the Cambridge 
# Structural Database, then it will include bibliographic, chemical, 
# crystal, experimental, refinement or atomic coordinate data resulting 
# from the CCDC's data processing and validation procedures.
#
#######################################################################

data_XENCID
_chemical_formula_moiety         'C17 H15 Br1 N4 O3 S1'
_chemical_name_systematic        
(4-Bromophenyl)(5-dimethylamino-1,1-dioxo-2-phenyl-1,2-dihydro-1\l^6^,2,4,6-thiatriazin-3-yl)methanone
_symmetry_cell_setting           monoclinic
_symmetry_space_group_name_H-M   'C 2/c'
_symmetry_Int_Tables_number      15
_space_group_name_Hall           '-C 2yn'
loop_
_symmetry_equiv_pos_site_id
_symmetry_equiv_pos_as_xyz
1 x,y,z
2 1/2+x,1/2+y,z
3 -x,y,1/2-z
4 1/2-x,1/2+y,1/2-z
5 -x,-y,-z
6 1/2-x,1/2-y,-z
7 x,-y,1/2+z
8 1/2+x,1/2-y,1/2+z
_cell_length_a                   23.4478(3)
_cell_length_b                   10.0971(2)
_cell_length_c                   15.2847(2)
_cell_angle_alpha                90
_cell_angle_beta                 101.5180(10)
_cell_angle_gamma                90
_cell_volume                     3545.85
_exptl_crystal_colour            colorless
_exptl_crystal_description       block
_chemical_melting_point          '428 K'
_cell_formula_units_Z            8
_exptl_crystal_recrystallization_method 'dichloromethane/ethyl acetate'
loop_
_atom_site_label
_atom_site_type_symbol
_atom_site_fract_x
_atom_site_fract_y
_atom_site_fract_z
Br1 Br 0.028605(11) 0.86351(2) 0.124090(18)
S1 S 0.21099(2) 0.04553(5) 0.17637(4)
O1 O 0.18796(7) -0.08450(16) 0.18409(11)
O2 O 0.26191(7) 0.07917(17) 0.24062(10)
O3 O 0.02529(7) 0.18241(17) 0.13212(12)
N1 N 0.15759(8) 0.15331(17) 0.19136(12)
N2 N 0.21947(8) 0.07684(19) 0.07974(12)
N3 N 0.13013(8) 0.20240(18) 0.03683(12)
N4 N 0.19020(8) 0.15663(18) -0.06136(12)
C1 C 0.12216(9) 0.2044(2) 0.11842(14)
C2 C 0.18025(10) 0.1426(2) 0.02070(15)
C3 C 0.06374(9) 0.2613(2) 0.13006(14)
C4 C 0.05642(10) 0.4068(2) 0.13125(15)
C5 C 0.00018(10) 0.4591(2) 0.11523(18)
H1 H -0.0324 0.4013 0.106
C6 C -0.00818(11) 0.5939(2) 0.11274(19)
H2 H -0.0464 0.6297 0.0998
C7 C 0.03997(11) 0.6772(2) 0.12937(15)
C8 C 0.09632(10) 0.6279(2) 0.14851(15)
H3 H 0.1287 0.6861 0.1616
C9 C 0.10425(10) 0.4920(2) 0.14814(15)
H4 H 0.1425 0.4565 0.1595
C10 C 0.14928(9) 0.1735(2) 0.28200(14)
C11 C 0.18390(10) 0.2672(2) 0.33372(16)
H5 H 0.2103 0.3199 0.309
C12 C 0.17929(11) 0.2827(2) 0.42197(17)
H6 H 0.2024 0.3472 0.4581
C13 C 0.14131(11) 0.2047(3) 0.45790(16)
H7 H 0.1391 0.2141 0.519
C14 C 0.10635(10) 0.1125(2) 0.40482(17)
H8 H 0.0796 0.0606 0.4294
C15 C 0.11032(10) 0.0960(2) 0.31654(16)
H9 H 0.0867 0.0326 0.2801
C16 C 0.15046(11) 0.2303(2) -0.13086(15)
H10 H 0.1105 0.2002 -0.1332
H11 H 0.1611 0.2147 -0.1888
H12 H 0.1533 0.3251 -0.117
C17 C 0.24079(10) 0.0914(2) -0.08552(15)
H13 H 0.2747 0.1021 -0.0368
H14 H 0.249 0.1316 -0.1401
H15 H 0.2325 -0.0031 -0.0958
loop_
_geom_bond_atom_site_label_1
_geom_bond_atom_site_label_2
_geom_bond_site_symmetry_1
_geom_bond_site_symmetry_2
Br1 C7 1_555 1_555
S1 O1 1_555 1_555
O2 S1 1_555 1_555
O3 C3 1_555 1_555
N1 S1 1_555 1_555
N2 S1 1_555 1_555
N3 C1 1_555 1_555
N4 C2 1_555 1_555
C1 N1 1_555 1_555
C2 N2 1_555 1_555
C3 C1 1_555 1_555
C4 C3 1_555 1_555
C5 C4 1_555 1_555
H1 C5 1_555 1_555
C6 C5 1_555 1_555
H2 C6 1_555 1_555
C7 C6 1_555 1_555
C8 C7 1_555 1_555
H3 C8 1_555 1_555
C9 C4 1_555 1_555
H4 C9 1_555 1_555
C10 N1 1_555 1_555
C11 C10 1_555 1_555
H5 C11 1_555 1_555
C12 C11 1_555 1_555
H6 C12 1_555 1_555
C13 C12 1_555 1_555
H7 C13 1_555 1_555
C14 C13 1_555 1_555
H8 C14 1_555 1_555
C15 C10 1_555 1_555
H9 C15 1_555 1_555
C16 N4 1_555 1_555
H10 C16 1_555 1_555
H11 C16 1_555 1_555
H12 C16 1_555 1_555
C17 N4 1_555 1_555
H13 C17 1_555 1_555
H14 C17 1_555 1_555
H15 C17 1_555 1_555
N3 C2 1_555 1_555
C8 C9 1_555 1_555
C14 C15 1_555 1_555

#END
