
#######################################################################
#
#                 Cambridge Crystallographic Data Centre
#                                CCDC 
#
#######################################################################
#
# If this CIF has been generated from an entry in the Cambridge 
# Structural Database, then it will include bibliographic, chemical, 
# crystal, experimental, refinement or atomic coordinate data resulting 
# from the CCDC's data processing and validation procedures.
#
#######################################################################

data_XENGUT
_chemical_formula_moiety         'C16 H15 N3 O1'
_chemical_name_systematic        3-(Benzotriazol-1-yl)-1-p-tolylpropan-1-one
_symmetry_cell_setting           monoclinic
_symmetry_space_group_name_H-M   'P 21'
_symmetry_Int_Tables_number      4
_space_group_name_Hall           'P 2yb'
loop_
_symmetry_equiv_pos_site_id
_symmetry_equiv_pos_as_xyz
1 x,y,z
2 -x,1/2+y,-z
_cell_length_a                   11.565(4)
_cell_length_b                   5.7481(18)
_cell_length_c                   11.666(4)
_cell_angle_alpha                90
_cell_angle_beta                 117.309(5)
_cell_angle_gamma                90
_cell_volume                     689.083
_exptl_crystal_colour            colorless
_exptl_crystal_description       needle
_cell_formula_units_Z            2
_exptl_crystal_recrystallization_method acetone/ethanol
loop_
_atom_site_label
_atom_site_type_symbol
_atom_site_fract_x
_atom_site_fract_y
_atom_site_fract_z
O1 O 0.7827(3) 0.2083(8) -0.1156(3)
N1 N 0.3740(4) 0.4690(7) -0.3124(5)
N2 N 0.4561(4) 0.3445(7) -0.2126(4)
N3 N 0.4778(3) 0.1449(6) -0.2598(4)
C1 C 0.7787(4) 0.3857(9) 0.1790(4)
H1 H 0.7201 0.2784 0.1824
C2 C 0.8339(4) 0.5445(9) 0.2745(4)
H2 H 0.8119 0.5433 0.3418
C3 C 0.9220(4) 0.7091(8) 0.2756(4)
C4 C 0.9554(4) 0.7010(9) 0.1753(4)
H3 H 1.0164 0.8050 0.1741
C5 C 0.8987(4) 0.5401(9) 0.0781(4)
H4 H 0.9216 0.5382 0.0114
C6 C 0.8077(4) 0.3798(8) 0.0768(4)
C7 C 0.7486(4) 0.2147(9) -0.0307(4)
C8 C 0.6443(4) 0.0513(9) -0.0374(4)
H5 H 0.6849 -0.0796 0.0195
H6 H 0.5901 0.1312 -0.0066
C9 C 0.5603(4) -0.0379(9) -0.1703(4)
H7 H 0.6152 -0.1051 -0.2043
H8 H 0.5049 -0.1605 -0.1659
C10 C 0.3427(4) 0.3503(7) -0.4240(5)
C11 C 0.4102(4) 0.1389(8) -0.3905(4)
C12 C 0.3990(4) -0.0241(8) -0.4837(4)
H9 H 0.4440 -0.1644 -0.4615
C13 C 0.3196(4) 0.0316(9) -0.6074(5)
H10 H 0.3110 -0.0729 -0.6717
C14 C 0.2504(4) 0.2381(10) -0.6429(5)
H11 H 0.1956 0.2666 -0.7297
C15 C 0.2607(4) 0.4011(9) -0.5532(5)
H12 H 0.2148 0.5404 -0.5774
C16 C 0.9804(5) 0.8843(11) 0.3802(4)
H13 H 0.9470 0.8623 0.4411
H14 H 0.9586 1.0377 0.3440
H15 H 1.0732 0.8663 0.4230
loop_
_geom_bond_atom_site_label_1
_geom_bond_atom_site_label_2
_geom_bond_site_symmetry_1
_geom_bond_site_symmetry_2
O1 C7 1_555 1_555
N1 N2 1_555 1_555
N2 N3 1_555 1_555
N3 C9 1_555 1_555
C1 H1 1_555 1_555
C2 C1 1_555 1_555
H2 C2 1_555 1_555
C3 C2 1_555 1_555
C4 C3 1_555 1_555
H3 C4 1_555 1_555
C5 C4 1_555 1_555
H4 C5 1_555 1_555
C6 C1 1_555 1_555
C7 C6 1_555 1_555
C8 C7 1_555 1_555
H5 C8 1_555 1_555
H6 C8 1_555 1_555
C9 C8 1_555 1_555
H7 C9 1_555 1_555
H8 C9 1_555 1_555
C10 N1 1_555 1_555
C11 N3 1_555 1_555
C12 C11 1_555 1_555
H9 C12 1_555 1_555
C13 C12 1_555 1_555
H10 C13 1_555 1_555
C14 C13 1_555 1_555
H11 C14 1_555 1_555
C15 C10 1_555 1_555
H12 C15 1_555 1_555
C16 C3 1_555 1_555
H13 C16 1_555 1_555
H14 C16 1_555 1_555
H15 C16 1_555 1_555
C5 C6 1_555 1_555
C10 C11 1_555 1_555
C14 C15 1_555 1_555

#END
