
#######################################################################
#
#                 Cambridge Crystallographic Data Centre
#                                CCDC 
#
#######################################################################
#
# If this CIF has been generated from an entry in the Cambridge 
# Structural Database, then it will include bibliographic, chemical, 
# crystal, experimental, refinement or atomic coordinate data resulting 
# from the CCDC's data processing and validation procedures.
#
#######################################################################

data_XENHIJ
_chemical_formula_moiety         'C94 F54,0.74(C7 H8)'
_chemical_name_systematic        
'octadecakis(trifluoromethyl)-C76fullerene toluene solvate'
_symmetry_cell_setting           triclinic
_symmetry_space_group_name_H-M   'P -1'
_symmetry_Int_Tables_number      2
_space_group_name_Hall           '-P 1'
loop_
_symmetry_equiv_pos_site_id
_symmetry_equiv_pos_as_xyz
1 x,y,z
2 -x,-y,-z
_cell_length_a                   14.585(1)
_cell_length_b                   14.805(1)
_cell_length_c                   17.661(1)
_cell_angle_alpha                84.592(5)
_cell_angle_beta                 76.371(6)
_cell_angle_gamma                79.923(8)
_cell_volume                     3643.39
_exptl_crystal_colour            yellow
_exptl_crystal_description       plate
_cell_formula_units_Z            2
loop_
_atom_site_label
_atom_site_type_symbol
_atom_site_fract_x
_atom_site_fract_y
_atom_site_fract_z
F1 F 0.2168(2) 0.8893(3) -0.11974(18)
F2 F 0.0755(3) 0.9287(2) -0.05531(19)
F3 F 0.1156(3) 0.7984(2) -0.1037(2)
F4 F 0.2713(2) 1.08405(18) 0.05490(18)
F5 F 0.1183(2) 1.10344(18) 0.09190(19)
F6 F 0.1881(3) 1.03405(19) -0.01170(18)
F7 F -0.2121(2) 0.79130(19) 0.10830(16)
F8 F -0.2475(2) 0.90005(18) 0.18673(17)
F9 F -0.2951(2) 0.7703(2) 0.22516(18)
F10 F 0.4803(2) 0.67230(19) -0.09937(17)
F11 F 0.3590(2) 0.7421(2) -0.14173(16)
F12 F 0.4512(2) 0.82028(18) -0.10682(17)
F13 F 0.5200(2) 0.90558(19) 0.00378(19)
F14 F 0.5993(2) 0.8317(2) 0.08462(19)
F15 F 0.5833(2) 0.76564(19) -0.01269(18)
F16 F -0.0519(3) 1.1033(2) 0.2300(3)
F17 F 0.0747(2) 1.1417(2) 0.2428(2)
F18 F -0.0236(4) 1.1018(2) 0.34154(19)
F19 F -0.2001(3) 1.0149(2) 0.27423(19)
F20 F -0.1724(3) 0.9954(3) 0.3872(2)
F21 F -0.2644(2) 0.9178(2) 0.3559(3)
F22 F -0.2996(2) 0.66504(18) 0.40696(17)
F23 F -0.2842(2) 0.5618(2) 0.32581(16)
F24 F -0.2350(2) 0.52616(18) 0.43202(16)
F25 F -0.1970(2) 0.54211(17) 0.13664(16)
F26 F -0.1082(2) 0.41020(17) 0.12229(16)
F27 F -0.2143(2) 0.43672(18) 0.22849(16)
F28 F 0.0059(2) 0.30495(17) 0.33275(16)
F29 F -0.13515(19) 0.38237(18) 0.34282(16)
F30 F -0.0683(2) 0.30355(17) 0.24146(16)
F31 F 0.2001(2) 0.26387(17) 0.10102(18)
F32 F 0.0526(2) 0.30323(18) 0.09580(18)
F33 F 0.1629(2) 0.34798(19) 0.00377(16)
F34 F 0.5722(2) 0.5034(2) 0.1328(2)
F35 F 0.6020(2) 0.5853(2) 0.21471(19)
F36 F 0.6245(2) 0.6302(2) 0.0934(2)
F37 F 0.5173(4) 0.9472(5) 0.1869(4)
F38 F 0.4818(6) 0.9291(5) 0.3118(4)
F39 F 0.4018(4) 1.0367(3) 0.2537(5)
F40 F 0.2719(4) 1.0151(2) 0.4175(3)
F41 F 0.1284(3) 1.0613(3) 0.4216(3)
F42 F 0.2305(4) 1.1043(2) 0.3291(2)
F43 F -0.2099(2) 0.79566(18) 0.50084(16)
F44 F -0.1955(2) 0.64814(17) 0.51475(15)
F45 F -0.0972(2) 0.71776(19) 0.55098(15)
F46 F 0.2756(2) 0.29242(17) 0.33795(15)
F47 F 0.4003(2) 0.30282(18) 0.24619(16)
F48 F 0.2824(2) 0.24882(17) 0.22345(16)
F49 F 0.4742(3) 0.6344(3) 0.4052(3)
F50 F 0.5583(2) 0.7128(3) 0.31544(19)
F51 F 0.4634(3) 0.7799(2) 0.4125(3)
F52 F 0.2820(3) 0.8520(2) 0.50973(17)
F53 F 0.1742(2) 0.7687(2) 0.55974(16)
F54 F 0.3186(3) 0.7051(2) 0.51904(18)
C1 C 0.0988(3) 0.8453(3) 0.0792(3)
C2 C 0.0189(3) 0.7975(3) 0.1028(3)
C3 C 0.0263(3) 0.7021(3) 0.0768(3)
C4 C 0.1153(3) 0.6585(3) 0.0342(3)
C5 C 0.1928(4) 0.7093(3) 0.0082(2)
C6 C 0.1768(3) 0.8143(3) 0.0068(3)
C7 C 0.2750(3) 0.8286(3) 0.0149(3)
C8 C 0.2851(3) 0.8862(3) 0.0648(3)
C9 C 0.2021(3) 0.9533(3) 0.1077(3)
C10 C 0.1086(3) 0.9130(3) 0.1261(3)
C11 C 0.0444(4) 0.9325(3) 0.1973(3)
C12 C -0.0378(3) 0.8893(3) 0.2177(3)
C13 C -0.0487(3) 0.8248(3) 0.1688(3)
C14 C -0.1300(3) 0.7732(3) 0.2104(3)
C15 C -0.1029(3) 0.6737(3) 0.1930(3)
C16 C -0.0345(3) 0.6460(3) 0.1225(3)
C17 C -0.0083(3) 0.5486(3) 0.1310(3)
C18 C 0.0771(3) 0.5067(3) 0.0923(3)
C19 C 0.1411(3) 0.5624(3) 0.0445(3)
C20 C 0.2366(3) 0.5233(3) 0.0468(2)
C21 C 0.3091(3) 0.5782(3) 0.0341(3)
C22 C 0.2852(4) 0.6705(3) 0.0045(3)
C23 C 0.3504(3) 0.7416(3) -0.0058(3)
C24 C 0.4112(3) 0.7209(3) 0.0544(3)
C25 C 0.4442(3) 0.7945(3) 0.0919(3)
C26 C 0.3624(3) 0.8738(3) 0.1063(3)
C27 C 0.3320(3) 0.9145(3) 0.1743(3)
C28 C 0.2335(3) 0.9599(3) 0.1835(3)
C29 C 0.1733(3) 0.9756(3) 0.2521(3)
C30 C 0.0662(4) 0.9817(3) 0.2622(3)
C31 C 0.0449(3) 0.9201(3) 0.3375(3)
C32 C -0.0275(3) 0.8643(3) 0.3541(3)
C33 C -0.0976(3) 0.8758(3) 0.3010(3)
C34 C -0.1324(3) 0.7848(3) 0.2946(3)
C35 C -0.1306(3) 0.7147(3) 0.3477(3)
C36 C -0.1408(3) 0.6159(3) 0.3317(3)
C37 C -0.1168(3) 0.6027(3) 0.2452(3)
C38 C -0.0723(3) 0.5120(3) 0.2045(3)
C39 C -0.0089(3) 0.4425(3) 0.2538(3)
C40 C 0.0973(3) 0.4140(3) 0.2107(3)
C41 C 0.1334(3) 0.4191(3) 0.1229(3)
C42 C 0.2343(3) 0.4465(3) 0.1026(3)
C43 C 0.2939(3) 0.4357(3) 0.1527(3)
C44 C 0.3633(3) 0.4963(3) 0.1440(3)
C45 C 0.3767(3) 0.5609(3) 0.0826(3)
C46 C 0.4215(3) 0.6386(3) 0.0936(3)
C47 C 0.4641(3) 0.6406(3) 0.1647(3)
C48 C 0.4535(3) 0.7450(3) 0.1708(3)
C49 C 0.4218(3) 0.7845(3) 0.2382(3)
C50 C 0.3761(3) 0.8859(3) 0.2436(3)
C51 C 0.2958(3) 0.8805(3) 0.3167(3)
C52 C 0.2042(3) 0.9505(3) 0.3298(3)
C53 C 0.1217(3) 0.9021(3) 0.3720(3)
C54 C 0.1351(3) 0.8219(3) 0.4177(3)
C55 C 0.0667(3) 0.7631(3) 0.4304(3)
C56 C -0.0171(3) 0.7855(3) 0.4040(3)
C57 C -0.0804(3) 0.7117(3) 0.4145(3)
C58 C -0.0185(3) 0.6162(3) 0.4042(2)
C59 C -0.0549(3) 0.5634(3) 0.3607(3)
C60 C 0.0050(3) 0.4906(3) 0.3229(3)
C61 C 0.1002(3) 0.4711(3) 0.3275(2)
C62 C 0.1540(3) 0.4211(3) 0.2592(3)
C63 C 0.2605(3) 0.4093(3) 0.2387(3)
C64 C 0.2950(3) 0.4824(3) 0.2767(3)
C65 C 0.3672(3) 0.5177(3) 0.2219(3)
C66 C 0.4007(3) 0.5978(3) 0.2363(3)
C67 C 0.3618(3) 0.6402(3) 0.3050(3)
C68 C 0.3928(3) 0.7316(3) 0.3173(3)
C69 C 0.3068(3) 0.7988(3) 0.3563(3)
C70 C 0.2320(3) 0.7685(3) 0.4227(3)
C71 C 0.2160(3) 0.6710(3) 0.4119(3)
C72 C 0.1192(3) 0.6686(3) 0.4311(3)
C73 C 0.0780(3) 0.5966(3) 0.4096(2)
C74 C 0.1410(3) 0.5248(3) 0.3684(3)
C75 C 0.2440(3) 0.5312(3) 0.3407(3)
C76 C 0.2804(3) 0.6098(3) 0.3578(3)
C77 C 0.1464(4) 0.8586(3) -0.0690(3)
C78 C 0.1939(4) 1.0449(3) 0.0602(3)
C79 C -0.2227(3) 0.8090(3) 0.1817(3)
C80 C 0.4109(4) 0.7446(3) -0.0893(3)
C81 C 0.5386(4) 0.8251(3) 0.0416(3)
C82 C 0.0140(4) 1.0844(3) 0.2691(3)
C83 C -0.1842(4) 0.9525(3) 0.3296(3)
C84 C -0.2411(4) 0.5918(3) 0.3749(3)
C85 C -0.1497(4) 0.4736(3) 0.1741(3)
C86 C -0.0526(4) 0.3564(3) 0.2930(3)
C87 C 0.1379(4) 0.3319(3) 0.0801(3)
C88 C 0.5676(4) 0.5906(3) 0.1514(3)
C89 C 0.4468(4) 0.9501(3) 0.2504(3)
C90 C 0.2095(4) 1.0343(3) 0.3748(3)
C91 C -0.1462(4) 0.7184(3) 0.4964(3)
C92 C 0.3055(3) 0.3108(3) 0.2623(3)
C93 C 0.4733(4) 0.7134(3) 0.3631(3)
C94 C 0.2523(4) 0.7740(3) 0.5040(3)
C95 C 0.5441(8) 0.7153(12) 0.5732(7)
H1 H 0.5992 0.7268 0.5349
C96 C 0.4980(15) 0.8792(12) 0.5821(12)
H2 H 0.4984 0.9119 0.6278
H3 H 0.4462 0.9103 0.5579
H4 H 0.5593 0.8789 0.5444
C97 C 0.4033(10) 0.7699(13) 0.6665(7)
H5 H 0.3606 0.8186 0.6935
C98 C 0.4834(11) 0.7852(11) 0.6064(7)
C99 C 0.3920(11) 0.6806(14) 0.6828(8)
H6 H 0.3372 0.6663 0.7201
C100 C 0.4660(17) 0.6009(11) 0.6424(12)
H7 H 0.4608 0.5382 0.6564
C101 C 0.5282(15) 0.6235(19) 0.5939(10)
H8 H 0.5720 0.5764 0.5657
F55? F 0.627(2) 0.6466(18) 0.1582(17)
F56? F 0.593(3) 0.565(4) 0.080(2)
F57? F 0.580(3) 0.519(3) 0.197(2)
F58? F 0.5356(13) 0.9172(12) 0.2286(18)
F59? F 0.437(2) 0.9694(17) 0.3289(11)
F60? F 0.4293(15) 1.0340(10) 0.2127(16)
F61? F 0.501(2) 0.7897(18) 0.367(2)
F62? F 0.447(3) 0.671(3) 0.431(2)
F63? F 0.552(2) 0.657(2) 0.3185(16)
loop_
_geom_bond_atom_site_label_1
_geom_bond_atom_site_label_2
_geom_bond_site_symmetry_1
_geom_bond_site_symmetry_2
F1 C77 1_555 1_555
F2 C77 1_555 1_555
F3 C77 1_555 1_555
F4 C78 1_555 1_555
F5 C78 1_555 1_555
F6 C78 1_555 1_555
F7 C79 1_555 1_555
F8 C79 1_555 1_555
F9 C79 1_555 1_555
F10 C80 1_555 1_555
F11 C80 1_555 1_555
F12 C80 1_555 1_555
F13 C81 1_555 1_555
F14 C81 1_555 1_555
F15 C81 1_555 1_555
F16 C82 1_555 1_555
F17 C82 1_555 1_555
F18 C82 1_555 1_555
F19 C83 1_555 1_555
F20 C83 1_555 1_555
F21 C83 1_555 1_555
F22 C84 1_555 1_555
F23 C84 1_555 1_555
F24 C84 1_555 1_555
F25 C85 1_555 1_555
F26 C85 1_555 1_555
F27 C85 1_555 1_555
F28 C86 1_555 1_555
F29 C86 1_555 1_555
F30 C86 1_555 1_555
F31 C87 1_555 1_555
F32 C87 1_555 1_555
F33 C87 1_555 1_555
F34 C88 1_555 1_555
F35 C88 1_555 1_555
F36 C88 1_555 1_555
F37 C89 1_555 1_555
F38 C89 1_555 1_555
F39 C89 1_555 1_555
F40 C90 1_555 1_555
F41 C90 1_555 1_555
F42 C90 1_555 1_555
F43 C91 1_555 1_555
F44 C91 1_555 1_555
F45 C91 1_555 1_555
F46 C92 1_555 1_555
F47 C92 1_555 1_555
F48 C92 1_555 1_555
F49 C93 1_555 1_555
F50 C93 1_555 1_555
F51 C93 1_555 1_555
F52 C94 1_555 1_555
F53 C94 1_555 1_555
F54 C94 1_555 1_555
C1 C2 1_555 1_555
C2 C3 1_555 1_555
C3 C4 1_555 1_555
C4 C5 1_555 1_555
C5 C6 1_555 1_555
C6 C1 1_555 1_555
C7 C6 1_555 1_555
C8 C7 1_555 1_555
C9 C8 1_555 1_555
C10 C1 1_555 1_555
C11 C10 1_555 1_555
C12 C11 1_555 1_555
C13 C2 1_555 1_555
C14 C13 1_555 1_555
C15 C14 1_555 1_555
C16 C3 1_555 1_555
C17 C16 1_555 1_555
C18 C17 1_555 1_555
C19 C4 1_555 1_555
C20 C19 1_555 1_555
C21 C20 1_555 1_555
C22 C5 1_555 1_555
C23 C7 1_555 1_555
C24 C23 1_555 1_555
C25 C24 1_555 1_555
C26 C8 1_555 1_555
C27 C26 1_555 1_555
C28 C9 1_555 1_555
C29 C28 1_555 1_555
C30 C11 1_555 1_555
C31 C30 1_555 1_555
C32 C31 1_555 1_555
C33 C12 1_555 1_555
C34 C14 1_555 1_555
C35 C34 1_555 1_555
C36 C35 1_555 1_555
C37 C15 1_555 1_555
C38 C17 1_555 1_555
C39 C38 1_555 1_555
C40 C39 1_555 1_555
C41 C18 1_555 1_555
C42 C20 1_555 1_555
C43 C42 1_555 1_555
C44 C43 1_555 1_555
C45 C21 1_555 1_555
C46 C24 1_555 1_555
C47 C46 1_555 1_555
C48 C25 1_555 1_555
C49 C48 1_555 1_555
C50 C27 1_555 1_555
C51 C50 1_555 1_555
C52 C29 1_555 1_555
C53 C31 1_555 1_555
C54 C53 1_555 1_555
C55 C54 1_555 1_555
C56 C32 1_555 1_555
C57 C35 1_555 1_555
C58 C57 1_555 1_555
C59 C36 1_555 1_555
C60 C39 1_555 1_555
C61 C60 1_555 1_555
C62 C40 1_555 1_555
C63 C43 1_555 1_555
C64 C63 1_555 1_555
C65 C44 1_555 1_555
C66 C47 1_555 1_555
C67 C66 1_555 1_555
C68 C49 1_555 1_555
C69 C51 1_555 1_555
C70 C54 1_555 1_555
C71 C70 1_555 1_555
C72 C55 1_555 1_555
C73 C58 1_555 1_555
C74 C61 1_555 1_555
C75 C64 1_555 1_555
C76 C67 1_555 1_555
C77 C6 1_555 1_555
C78 C9 1_555 1_555
C79 C14 1_555 1_555
C80 C23 1_555 1_555
C81 C25 1_555 1_555
C82 C30 1_555 1_555
C83 C33 1_555 1_555
C84 C36 1_555 1_555
C85 C38 1_555 1_555
C86 C39 1_555 1_555
C87 C41 1_555 1_555
C88 C47 1_555 1_555
C89 C50 1_555 1_555
C90 C52 1_555 1_555
C91 C57 1_555 1_555
C92 C63 1_555 1_555
C93 C68 1_555 1_555
C94 C70 1_555 1_555
C95 H1 1_555 1_555
C96 H2 1_555 1_555
H3 C96 1_555 1_555
H4 C96 1_555 1_555
C97 H5 1_555 1_555
C98 C95 1_555 1_555
C99 C97 1_555 1_555
H6 C99 1_555 1_555
C100 C99 1_555 1_555
H7 C100 1_555 1_555
C101 C95 1_555 1_555
H8 C101 1_555 1_555
C9 C10 1_555 1_555
C12 C13 1_555 1_555
C15 C16 1_555 1_555
C18 C19 1_555 1_555
C21 C22 1_555 1_555
C22 C23 1_555 1_555
C25 C26 1_555 1_555
C27 C28 1_555 1_555
C29 C30 1_555 1_555
C32 C33 1_555 1_555
C33 C34 1_555 1_555
C36 C37 1_555 1_555
C37 C38 1_555 1_555
C40 C41 1_555 1_555
C41 C42 1_555 1_555
C44 C45 1_555 1_555
C45 C46 1_555 1_555
C47 C48 1_555 1_555
C49 C50 1_555 1_555
C51 C52 1_555 1_555
C52 C53 1_555 1_555
C55 C56 1_555 1_555
C56 C57 1_555 1_555
C58 C59 1_555 1_555
C59 C60 1_555 1_555
C61 C62 1_555 1_555
C62 C63 1_555 1_555
C64 C65 1_555 1_555
C65 C66 1_555 1_555
C67 C68 1_555 1_555
C68 C69 1_555 1_555
C69 C70 1_555 1_555
C71 C72 1_555 1_555
C71 C76 1_555 1_555
C72 C73 1_555 1_555
C73 C74 1_555 1_555
C74 C75 1_555 1_555
C75 C76 1_555 1_555
C96 C98 1_555 1_555
C97 C98 1_555 1_555
C100 C101 1_555 1_555

#END
