
#######################################################################
#
#                 Cambridge Crystallographic Data Centre
#                                CCDC 
#
#######################################################################
#
# If this CIF has been generated from an entry in the Cambridge 
# Structural Database, then it will include bibliographic, chemical, 
# crystal, experimental, refinement or atomic coordinate data resulting 
# from the CCDC's data processing and validation procedures.
#
#######################################################################

data_XENQEP
_chemical_formula_moiety         'C26 H21 N1 O1'
_chemical_name_systematic        
3-(4-methylphenyl)-2-[4-(4-methylphenyl)quinolin-3-yl]prop-2-enal
_symmetry_cell_setting           triclinic
_symmetry_space_group_name_H-M   'P -1'
_symmetry_Int_Tables_number      2
_space_group_name_Hall           '-P 1'
loop_
_symmetry_equiv_pos_site_id
_symmetry_equiv_pos_as_xyz
1 x,y,z
2 -x,-y,-z
_cell_length_a                   9.8683(7)
_cell_length_b                   10.5050(8)
_cell_length_c                   10.8101(8)
_cell_angle_alpha                110.935(2)
_cell_angle_beta                 95.718(2)
_cell_angle_gamma                105.727(2)
_cell_volume                     983.129
_exptl_crystal_description       Block
_cell_formula_units_Z            2
loop_
_atom_site_label
_atom_site_type_symbol
_atom_site_fract_x
_atom_site_fract_y
_atom_site_fract_z
O1 O 0.17271(19) 0.95392(16) 0.62272(15)
N1 N 0.40668(14) 0.66238(15) 0.65074(14)
C1 C 0.31490(17) 0.53383(17) 0.64225(15)
C2 C 0.35591(19) 0.40890(19) 0.58878(18)
H1 H 0.4429 0.4159 0.5611
C3 C 0.2685(2) 0.27928(19) 0.57792(19)
H2 H 0.2970 0.1983 0.5440
C4 C 0.1364(2) 0.26575(19) 0.61698(19)
H3 H 0.0772 0.1758 0.6075
C5 C 0.09378(18) 0.38352(17) 0.66887(17)
H4 H 0.0051 0.3730 0.6936
C6 C 0.18305(16) 0.52184(16) 0.68564(14)
C7 C 0.14740(15) 0.65043(16) 0.74476(14)
C8 C 0.24316(16) 0.77929(16) 0.75647(15)
C9 C 0.36925(17) 0.77720(17) 0.70477(16)
H5 H 0.4303 0.8644 0.7096
C10 C 0.00994(16) 0.64374(15) 0.79308(15)
C11 C -0.10490(17) 0.65873(17) 0.72088(16)
H6 H -0.0958 0.6739 0.6420
C12 C -0.23249(17) 0.65138(18) 0.76472(17)
H7 H -0.3083 0.6612 0.7146
C13 C -0.24952(17) 0.62958(17) 0.88205(17)
C14 C -0.13393(19) 0.61664(19) 0.95468(18)
H8 H -0.1425 0.6035 1.0346
C15 C -0.00647(18) 0.62276(19) 0.91128(17)
H9 H 0.0691 0.6128 0.9615
C16 C -0.3886(2) 0.6208(2) 0.9297(2)
H10 H -0.4233 0.6945 0.9202
H11 H -0.3722 0.6345 1.0234
H12 H -0.4590 0.5277 0.8761
C17 C 0.1819(2) 0.99364(19) 0.7431(2)
H13 H 0.1638 1.0791 0.7874
C18 C 0.21915(17) 0.91950(17) 0.82596(17)
C19 C 0.22597(18) 0.98142(17) 0.96009(17)
H14 H 0.2032 1.0662 0.9889
C20 C 0.26388(18) 0.93478(17) 1.06695(16)
C21 C 0.2044(2) 0.96902(19) 1.18139(18)
H15 H 0.1457 1.0263 1.1909
C22 C 0.2305(2) 0.9200(2) 1.28063(18)
H16 H 0.1867 0.9423 1.3542
C23 C 0.3206(2) 0.8382(2) 1.27315(18)
C24 C 0.3853(2) 0.8098(2) 1.16256(18)
H17 H 0.4489 0.7578 1.1567
C25 C 0.35862(19) 0.85570(19) 1.06154(17)
H18 H 0.4038 0.8342 0.9889
C26 C 0.3493(3) 0.7835(3) 1.3808(2)
H19 H 0.4409 0.8444 1.4410
H20 H 0.3506 0.6866 1.3388
H21 H 0.2746 0.7847 1.4313
loop_
_geom_bond_atom_site_label_1
_geom_bond_atom_site_label_2
_geom_bond_site_symmetry_1
_geom_bond_site_symmetry_2
O1 C17 1_555 1_555
N1 C1 1_555 1_555
C1 C2 1_555 1_555
C2 H1 1_555 1_555
C3 C2 1_555 1_555
H2 C3 1_555 1_555
C4 C3 1_555 1_555
H3 C4 1_555 1_555
C5 C4 1_555 1_555
H4 C5 1_555 1_555
C6 C1 1_555 1_555
C7 C6 1_555 1_555
C8 C7 1_555 1_555
C9 N1 1_555 1_555
H5 C9 1_555 1_555
C10 C7 1_555 1_555
C11 C10 1_555 1_555
H6 C11 1_555 1_555
C12 C11 1_555 1_555
H7 C12 1_555 1_555
C13 C12 1_555 1_555
C14 C13 1_555 1_555
H8 C14 1_555 1_555
C15 C10 1_555 1_555
H9 C15 1_555 1_555
C16 C13 1_555 1_555
H10 C16 1_555 1_555
H11 C16 1_555 1_555
H12 C16 1_555 1_555
C17 H13 1_555 1_555
C18 C8 1_555 1_555
C19 C18 1_555 1_555
H14 C19 1_555 1_555
C20 C19 1_555 1_555
C21 C20 1_555 1_555
H15 C21 1_555 1_555
C22 C21 1_555 1_555
H16 C22 1_555 1_555
C23 C22 1_555 1_555
C24 C23 1_555 1_555
H17 C24 1_555 1_555
C25 C20 1_555 1_555
H18 C25 1_555 1_555
C26 C23 1_555 1_555
H19 C26 1_555 1_555
H20 C26 1_555 1_555
H21 C26 1_555 1_555
C5 C6 1_555 1_555
C8 C9 1_555 1_555
C14 C15 1_555 1_555
C17 C18 1_555 1_555
C24 C25 1_555 1_555

#END
