
#######################################################################
#
#                 Cambridge Crystallographic Data Centre
#                                CCDC 
#
#######################################################################
#
# If this CIF has been generated from an entry in the Cambridge 
# Structural Database, then it will include bibliographic, chemical, 
# crystal, experimental, refinement or atomic coordinate data resulting 
# from the CCDC's data processing and validation procedures.
#
#######################################################################

data_XENTEP
_chemical_formula_moiety         'C24 H19 N1 O3'
_chemical_name_systematic        
(3R,3'S,4'S)-1-Acetyl-1,2-dihydro-2-oxo-3',4'-diphenyl-spiro(3H-indole-3,2'-oxetane)
_symmetry_cell_setting           monoclinic
_symmetry_space_group_name_H-M   'P 21/c'
_symmetry_Int_Tables_number      14
_space_group_name_Hall           '-P 2ybc'
loop_
_symmetry_equiv_pos_site_id
_symmetry_equiv_pos_as_xyz
1 x,y,z
2 x,1/2-y,1/2+z
3 -x,-y,-z
4 -x,1/2+y,1/2-z
_cell_length_a                   9.9020(4)
_cell_length_b                   8.9865(3)
_cell_length_c                   22.1097(6)
_cell_angle_alpha                90
_cell_angle_beta                 97.750(2)
_cell_angle_gamma                90
_cell_volume                     1949.45
_exptl_crystal_colour            colorless
_exptl_crystal_description       slab
_chemical_melting_point          '186-187 deg.C'
_cell_formula_units_Z            4
_exptl_crystal_recrystallization_method 'petroleum spirit/ethyl acetate'
loop_
_atom_site_label
_atom_site_type_symbol
_atom_site_fract_x
_atom_site_fract_y
_atom_site_fract_z
O1 O 0.02022(17) 0.94261(19) 0.22631(8)
O2 O -0.13829(18) 1.0982(2) 0.12297(9)
O3 O -0.1281(2) 0.8302(3) -0.02867(10)
N1 N -0.0623(2) 0.9000(2) 0.06831(9)
C1 C 0.1609(3) 0.9653(3) 0.34574(13)
H1 H 0.1053 0.8839 0.3343
C2 C 0.2417(4) 0.9676(4) 0.40239(15)
H2 H 0.2393 0.8874 0.4288
C3 C 0.3242(4) 1.0856(5) 0.41957(15)
H3 H 0.3779 1.0858 0.4575
C4 C 0.3278(3) 1.2054(4) 0.38053(15)
H4 H 0.3850 1.2858 0.3917
C5 C 0.2457(3) 1.2044(3) 0.32486(13)
H5 H 0.2457 1.2864 0.2992
C6 C 0.1640(2) 1.0845(3) 0.30660(11)
C7 C 0.0804(2) 1.0865(3) 0.24476(11)
H6 H 0.0087 1.1620 0.2437
C8 C 0.1490(2) 1.0960(3) 0.18559(11)
H7 H 0.1132 1.1821 0.1613
C9 C 0.3013(2) 1.0893(3) 0.18796(11)
C10 C 0.3842(3) 0.9971(3) 0.22768(12)
H8 H 0.3448 0.9367 0.2546
C11 C 0.5228(3) 0.9936(4) 0.22793(15)
H9 H 0.5760 0.9296 0.2543
C12 C 0.5829(3) 1.0837(4) 0.18960(18)
H10 H 0.6770 1.0821 0.1903
C13 C 0.5042(4) 1.1767(4) 0.15001(15)
H11 H 0.5449 1.2382 0.1239
C14 C 0.3637(3) 1.1785(3) 0.14913(12)
H12 H 0.3108 1.2409 0.1220
C15 C 0.0598(2) 0.9547(3) 0.16597(11)
C16 C 0.1115(3) 0.8176(3) 0.13973(12)
C17 C 0.2096(3) 0.7192(3) 0.16382(15)
H13 H 0.2548 0.7339 0.2030
C18 C 0.2419(4) 0.5972(4) 0.12988(18)
H14 H 0.3105 0.5320 0.1459
C19 C 0.1723(4) 0.5733(4) 0.07267(17)
H15 H 0.1942 0.4914 0.0502
C20 C 0.0710(3) 0.6682(3) 0.04805(13)
H16 H 0.0237 0.6511 0.0094
C21 C 0.0407(3) 0.7900(3) 0.08224(11)
C22 C -0.0610(3) 0.9964(3) 0.11859(12)
C23 C -0.1511(3) 0.9095(4) 0.01298(14)
C24 C -0.2676(3) 1.0160(4) 0.00792(14)
H17 H -0.2674 1.0675 0.0460
H18 H -0.3516 0.9624 -0.0016
H19 H -0.2588 1.0866 -0.0239
H20? H -0.3178 1.0102 -0.0323
H21? H -0.2336 1.1153 0.0153
H22? H -0.3265 0.9910 0.0375
loop_
_geom_bond_atom_site_label_1
_geom_bond_atom_site_label_2
_geom_bond_site_symmetry_1
_geom_bond_site_symmetry_2
O1 C7 1_555 1_555
O2 C22 1_555 1_555
O3 C23 1_555 1_555
N1 C21 1_555 1_555
C1 H1 1_555 1_555
C2 C1 1_555 1_555
H2 C2 1_555 1_555
C3 C2 1_555 1_555
H3 C3 1_555 1_555
C4 C3 1_555 1_555
H4 C4 1_555 1_555
C5 C4 1_555 1_555
H5 C5 1_555 1_555
C6 C1 1_555 1_555
C7 C6 1_555 1_555
H6 C7 1_555 1_555
C8 C7 1_555 1_555
H7 C8 1_555 1_555
C9 C8 1_555 1_555
C10 C9 1_555 1_555
H8 C10 1_555 1_555
C11 C10 1_555 1_555
H9 C11 1_555 1_555
C12 C11 1_555 1_555
H10 C12 1_555 1_555
C13 C12 1_555 1_555
H11 C13 1_555 1_555
C14 C9 1_555 1_555
H12 C14 1_555 1_555
C15 O1 1_555 1_555
C16 C15 1_555 1_555
C17 C16 1_555 1_555
H13 C17 1_555 1_555
C18 C17 1_555 1_555
H14 C18 1_555 1_555
C19 C18 1_555 1_555
H15 C19 1_555 1_555
C20 C19 1_555 1_555
H16 C20 1_555 1_555
C21 C16 1_555 1_555
C22 N1 1_555 1_555
C23 N1 1_555 1_555
C24 C23 1_555 1_555
H17 C24 1_555 1_555
H18 C24 1_555 1_555
H19 C24 1_555 1_555
C5 C6 1_555 1_555
C8 C15 1_555 1_555
C13 C14 1_555 1_555
C15 C22 1_555 1_555
C20 C21 1_555 1_555

#END
