
#######################################################################
#
#                 Cambridge Crystallographic Data Centre
#                                CCDC 
#
#######################################################################
#
# If this CIF has been generated from an entry in the Cambridge 
# Structural Database, then it will include bibliographic, chemical, 
# crystal, experimental, refinement or atomic coordinate data resulting 
# from the CCDC's data processing and validation procedures.
#
#######################################################################

data_XEPJAF
_chemical_formula_moiety         'C22 H18 F6 O4'
_chemical_name_systematic        
'trans-Ethyl (2,6-diphenyl-2,6-bis(trifluoromethyl)-1,3-dioxan-4-ylidene)acetate'
_symmetry_cell_setting           orthorhombic
_symmetry_space_group_name_H-M   'P b c n'
_symmetry_Int_Tables_number      60
_space_group_name_Hall           '-P 2n 2ab'
loop_
_symmetry_equiv_pos_site_id
_symmetry_equiv_pos_as_xyz
1 x,y,z
2 1/2-x,1/2-y,1/2+z
3 -x,y,1/2-z
4 1/2+x,1/2-y,-z
5 -x,-y,-z
6 1/2+x,1/2+y,1/2-z
7 x,-y,1/2+z
8 1/2-x,1/2+y,z
_cell_length_a                   25.490(3)
_cell_length_b                   9.9319(12)
_cell_length_c                   15.947(2)
_cell_angle_alpha                90
_cell_angle_beta                 90
_cell_angle_gamma                90
_cell_volume                     4037.21
_exptl_crystal_colour            colorless
_exptl_crystal_description       block
_cell_formula_units_Z            8
loop_
_atom_site_label
_atom_site_type_symbol
_atom_site_fract_x
_atom_site_fract_y
_atom_site_fract_z
F1 F 0.89958(11) 0.0346(3) 0.08821(15)
F2 F 0.86886(10) -0.0403(2) 0.20427(16)
F3 F 0.94674(10) 0.0426(3) 0.19983(18)
F4 F 0.72403(9) 0.2389(2) 0.12669(16)
F5 F 0.73121(11) 0.4531(3) 0.11596(16)
F6 F 0.74778(10) 0.3559(3) 0.23311(14)
O1 O 0.82588(10) 0.2020(3) 0.15709(15)
O2 O 0.83366(12) 0.4408(3) 0.16219(18)
O3 O 0.99858(17) 0.4934(5) 0.1459(4)
C1 C 0.87746(14) 0.1985(4) 0.1919(2)
C2 C 0.81001(16) 0.3273(4) 0.1236(2)
C3 C 0.8866(2) 0.4417(5) 0.1551(3)
C4 C 0.91243(16) 0.3038(6) 0.1491(2)
H1 H 0.9472 0.3061 0.1767
H2 H 0.9176 0.2794 0.0895
C5 C 0.89818(16) 0.0574(5) 0.1708(2)
C6 C 0.87531(15) 0.2115(4) 0.2874(2)
C7 C 0.83149(16) 0.1638(4) 0.3300(2)
H3 H 0.8024 0.1298 0.2995
C8 C 0.83020(19) 0.1658(4) 0.4171(3)
H4 H 0.8002 0.1328 0.4458
C9 C 0.8722(2) 0.2154(4) 0.4621(3)
H5 H 0.8713 0.2157 0.5217
C10 C 0.9155(2) 0.2648(5) 0.4200(3)
H6 H 0.9444 0.2996 0.4508
C11 C 0.91718(18) 0.2638(5) 0.3331(3)
H7 H 0.9469 0.2989 0.3046
C12 C 0.75255(17) 0.3439(4) 0.1505(2)
C13 C 0.81463(15) 0.3317(4) 0.0281(2)
C14 C 0.81722(17) 0.4540(4) -0.0131(2)
H8 H 0.8176 0.5355 0.0181
C15 C 0.81935(18) 0.4576(4) -0.1004(3)
H9 H 0.8216 0.5415 -0.1289
C16 C 0.81817(18) 0.3392(4) -0.1454(2)
H10 H 0.8200 0.3416 -0.2048
C17 C 0.81430(17) 0.2172(4) -0.1046(2)
H11 H 0.8128 0.1361 -0.1361
C18 C 0.81258(16) 0.2126(4) -0.0172(2)
H12 H 0.8100 0.1286 0.0110
C19 C 0.90976(19) 0.5643(5) 0.1560(3)
H13 H 0.8878 0.6408 0.1627
C20 C 0.9642(2) 0.5867(6) 0.1475(3)
O4 O 0.9829(4) 0.7019(10) 0.1288(7)
C21 C 1.0369(3) 0.7334(10) 0.1168(10)
H14 H 1.0517 0.6770 0.0714
H15 H 1.0568 0.7151 0.1689
C22 C 1.0411(4) 0.8763(10) 0.0946(8)
H16 H 1.0781 0.8996 0.0862
H17 H 1.0266 0.9313 0.1400
H18 H 1.0216 0.8933 0.0428
C23? C 1.0269(7) 0.768(2) 0.1581(12)
C24? C 1.0384(11) 0.819(4) 0.0732(13)
H19? H 1.0524 0.6970 0.1730
H20? H 1.0308 0.8426 0.1990
H21? H 1.0743 0.8542 0.0716
H22? H 1.0136 0.8904 0.0589
H23? H 1.0351 0.7448 0.0328
O5? O 0.9742(5) 0.7147(12) 0.1628(12)
loop_
_geom_bond_atom_site_label_1
_geom_bond_atom_site_label_2
_geom_bond_site_symmetry_1
_geom_bond_site_symmetry_2
F1 C5 1_555 1_555
F2 C5 1_555 1_555
F3 C5 1_555 1_555
F4 C12 1_555 1_555
F5 C12 1_555 1_555
F6 C12 1_555 1_555
O1 C1 1_555 1_555
O2 C2 1_555 1_555
O3 C20 1_555 1_555
C1 C4 1_555 1_555
C2 O1 1_555 1_555
C3 O2 1_555 1_555
C4 C3 1_555 1_555
H1 C4 1_555 1_555
H2 C4 1_555 1_555
C5 C1 1_555 1_555
C6 C1 1_555 1_555
C7 C6 1_555 1_555
H3 C7 1_555 1_555
C8 C7 1_555 1_555
H4 C8 1_555 1_555
C9 C8 1_555 1_555
H5 C9 1_555 1_555
C10 C9 1_555 1_555
H6 C10 1_555 1_555
C11 C6 1_555 1_555
H7 C11 1_555 1_555
C12 C2 1_555 1_555
C13 C2 1_555 1_555
C14 C13 1_555 1_555
H8 C14 1_555 1_555
C15 C14 1_555 1_555
H9 C15 1_555 1_555
C16 C15 1_555 1_555
H10 C16 1_555 1_555
C17 C16 1_555 1_555
H11 C17 1_555 1_555
C18 C13 1_555 1_555
H12 C18 1_555 1_555
C19 C3 1_555 1_555
H13 C19 1_555 1_555
C20 C19 1_555 1_555
O4 C20 1_555 1_555
C21 O4 1_555 1_555
H14 C21 1_555 1_555
H15 C21 1_555 1_555
C22 C21 1_555 1_555
H16 C22 1_555 1_555
H17 C22 1_555 1_555
H18 C22 1_555 1_555
C10 C11 1_555 1_555
C17 C18 1_555 1_555

#END
