
#######################################################################
#
#                 Cambridge Crystallographic Data Centre
#                                CCDC 
#
#######################################################################
#
# If this CIF has been generated from an entry in the Cambridge 
# Structural Database, then it will include bibliographic, chemical, 
# crystal, experimental, refinement or atomic coordinate data resulting 
# from the CCDC's data processing and validation procedures.
#
#######################################################################

data_XEPRIW
_chemical_formula_moiety         'C23 H24 N2 O5'
_chemical_name_systematic        
'diethyl 2-(4-methoxyphenyl)-1-(4-methylphenyl)-1H-imidazole-4,5-dicarboxylate'
_symmetry_cell_setting           triclinic
_symmetry_space_group_name_H-M   'P -1'
_symmetry_Int_Tables_number      2
_space_group_name_Hall           '-P 1'
loop_
_symmetry_equiv_pos_site_id
_symmetry_equiv_pos_as_xyz
1 x,y,z
2 -x,-y,-z
_cell_length_a                   10.0991(16)
_cell_length_b                   10.6816(13)
_cell_length_c                   11.0208(11)
_cell_angle_alpha                61.574(8)
_cell_angle_beta                 78.040(13)
_cell_angle_gamma                87.766(14)
_cell_volume                     1020.37
_exptl_crystal_colour            colorless
_exptl_crystal_description       prism
_cell_formula_units_Z            2
loop_
_atom_site_label
_atom_site_type_symbol
_atom_site_fract_x
_atom_site_fract_y
_atom_site_fract_z
O1 O 1.40689(11) 0.59010(13) 1.11518(12)
O2 O 0.75271(11) 0.96961(12) 0.59233(13)
O3 O 0.65630(13) 0.78268(16) 0.59393(17)
O4 O 0.86060(12) 0.70175(14) 0.42170(12)
O5 O 1.07846(11) 0.64707(14) 0.40663(12)
N1 N 1.07727(13) 0.66746(14) 0.65267(13)
N2 N 0.92916(13) 0.77218(14) 0.74788(13)
C1 C 1.04823(15) 0.70458(16) 0.75282(16)
C2 C 1.13484(15) 0.67573(16) 0.85398(16)
C3 C 1.27398(16) 0.66973(17) 0.80901(16)
H1 H 1.3085 0.6866 0.7151
C4 C 1.36167(16) 0.63995(17) 0.89802(17)
H2 H 1.4559 0.6370 0.8654
C5 C 1.31193(15) 0.61408(16) 1.03649(16)
C6 C 1.17336(15) 0.61566(16) 1.08488(16)
H3 H 1.1388 0.5960 1.1796
C7 C 1.08625(15) 0.64614(16) 0.99357(16)
H4 H 0.9917 0.6469 1.0268
C8 C 1.36046(17) 0.5690(2) 1.25602(17)
H5 H 1.3135 0.6522 1.2529
H6 H 1.4383 0.5569 1.3001
H7 H 1.2979 0.4835 1.3114
C9 C 0.86572(15) 0.83215(16) 0.83631(15)
C10 C 0.92839(16) 0.95039(17) 0.82724(16)
H8 H 1.0131 0.9913 0.7638
C11 C 0.86599(16) 1.00808(17) 0.91169(17)
H9 H 0.9092 1.0883 0.9067
C12 C 0.74074(16) 0.95042(17) 1.00403(16)
C13 C 0.67895(16) 0.83364(17) 1.00877(16)
H10 H 0.5927 0.7946 1.0695
C14 C 0.74095(15) 0.77277(16) 0.92628(16)
H11 H 0.6985 0.6920 0.9316
C15 C 0.6754(2) 1.0115(2) 1.0988(2)
H12 H 0.5872 1.0453 1.0776
H13 H 0.7340 1.0914 1.0825
H14 H 0.6627 0.9374 1.1978
C16 C 0.87884(16) 0.77271(17) 0.64006(16)
C17 C 0.75057(16) 0.83939(18) 0.60495(17)
C18 C 0.62514(17) 1.03791(19) 0.58137(19)
H15 H 0.5489 0.9688 0.6497
H16 H 0.6088 1.0748 0.4850
C19 C 0.63677(18) 1.15803(19) 0.6134(2)
H17 H 0.6466 1.1194 0.7113
H18 H 0.5550 1.2112 0.6007
H19 H 0.7164 1.2220 0.5493
C20 C 0.97319(15) 0.70809(16) 0.58285(16)
C21 C 0.97900(15) 0.68239(16) 0.46091(15)
C22 C 0.84697(17) 0.6636(2) 0.31447(17)
H20 H 0.9165 0.5975 0.3089
H21 H 0.8595 0.7501 0.2210
C23 C 0.70789(17) 0.5933(2) 0.35514(19)
H22 H 0.6995 0.5032 0.4434
H23 H 0.6929 0.5743 0.2802
H24 H 0.6401 0.6563 0.3685
loop_
_geom_bond_atom_site_label_1
_geom_bond_atom_site_label_2
_geom_bond_site_symmetry_1
_geom_bond_site_symmetry_2
O1 C5 1_555 1_555
O2 C17 1_555 1_555
O3 C17 1_555 1_555
O4 C21 1_555 1_555
O5 C21 1_555 1_555
N1 C1 1_555 1_555
N2 C1 1_555 1_555
C1 C2 1_555 1_555
C2 C3 1_555 1_555
C3 H1 1_555 1_555
C4 C3 1_555 1_555
H2 C4 1_555 1_555
C5 C4 1_555 1_555
C6 C5 1_555 1_555
H3 C6 1_555 1_555
C7 C2 1_555 1_555
H4 C7 1_555 1_555
C8 O1 1_555 1_555
H5 C8 1_555 1_555
H6 C8 1_555 1_555
H7 C8 1_555 1_555
C9 N2 1_555 1_555
C10 C9 1_555 1_555
H8 C10 1_555 1_555
C11 C10 1_555 1_555
H9 C11 1_555 1_555
C12 C11 1_555 1_555
C13 C12 1_555 1_555
H10 C13 1_555 1_555
C14 C9 1_555 1_555
H11 C14 1_555 1_555
C15 C12 1_555 1_555
H12 C15 1_555 1_555
H13 C15 1_555 1_555
H14 C15 1_555 1_555
C16 N2 1_555 1_555
C17 C16 1_555 1_555
C18 O2 1_555 1_555
H15 C18 1_555 1_555
H16 C18 1_555 1_555
C19 C18 1_555 1_555
H17 C19 1_555 1_555
H18 C19 1_555 1_555
H19 C19 1_555 1_555
C20 N1 1_555 1_555
C21 C20 1_555 1_555
C22 O4 1_555 1_555
H20 C22 1_555 1_555
H21 C22 1_555 1_555
C23 C22 1_555 1_555
H22 C23 1_555 1_555
H23 C23 1_555 1_555
H24 C23 1_555 1_555
C6 C7 1_555 1_555
C13 C14 1_555 1_555
C16 C20 1_555 1_555

#END
