
#######################################################################
#
#                 Cambridge Crystallographic Data Centre
#                                CCDC 
#
#######################################################################
#
# If this CIF has been generated from an entry in the Cambridge 
# Structural Database, then it will include bibliographic, chemical, 
# crystal, experimental, refinement or atomic coordinate data resulting 
# from the CCDC's data processing and validation procedures.
#
#######################################################################

data_XEPTOC
_chemical_formula_moiety         'C36 H21 Cl1 F8 N4'
_chemical_name_systematic        
5-(4-Chloro-1,1,2,2,3,3,4,4-octafluorobutyl-10,20-diphenyl)porphyrin
_symmetry_cell_setting           triclinic
_symmetry_space_group_name_H-M   'P -1'
_symmetry_Int_Tables_number      2
_space_group_name_Hall           '-P 1'
loop_
_symmetry_equiv_pos_site_id
_symmetry_equiv_pos_as_xyz
1 x,y,z
2 -x,-y,-z
_cell_length_a                   6.6339(10)
_cell_length_b                   10.4240(15)
_cell_length_c                   22.688(3)
_cell_angle_alpha                96.857(3)
_cell_angle_beta                 92.791(3)
_cell_angle_gamma                100.305(3)
_cell_volume                     1528.62
_exptl_crystal_colour            red
_cell_formula_units_Z            2
loop_
_atom_site_label
_atom_site_type_symbol
_atom_site_fract_x
_atom_site_fract_y
_atom_site_fract_z
Cl1 Cl 0.4317(6) 0.2728(3) -0.10248(12)
N1 N 0.2825(5) 0.2592(3) 0.38755(16)
N2 N 0.2809(5) 0.3316(3) 0.26605(14)
N3 N -0.1273(6) 0.1841(3) 0.23439(16)
N4 N -0.1309(5) 0.1122(3) 0.35558(16)
F1 F 0.2155(5) 0.4679(3) 0.10583(12)
F2 F -0.0897(5) 0.3615(3) 0.08423(14)
F3 F 0.0186(9) 0.1478(5) 0.0391(2)
F4 F 0.3136(15) 0.1916(7) 0.0847(3)
F5 F 0.1616(12) 0.3878(5) -0.0154(3)
F6 F 0.4517(8) 0.3753(5) 0.0220(2)
F7 F 0.3886(11) 0.1119(5) -0.0290(2)
F8 F 0.1207(10) 0.1386(6) -0.0724(2)
C1 C 0.2332(7) 0.2244(4) 0.44223(18)
C2 C 0.3988(7) 0.2877(5) 0.4835(2)
H1 H 0.4081 0.2818 0.5241
C3 C 0.5409(7) 0.3582(5) 0.4534(2)
H2 H 0.6659 0.4082 0.4697
C4 C 0.4678(6) 0.3432(4) 0.39309(19)
C5 C 0.5583(6) 0.4062(4) 0.34662(19)
C6 C 0.4762(6) 0.3931(4) 0.28819(19)
C7 C 0.5937(7) 0.4440(4) 0.2411(2)
H3 H 0.7302 0.4869 0.2446
C8 C 0.4686(7) 0.4176(4) 0.1917(2)
H4 H 0.5020 0.4388 0.1543
C9 C 0.2726(7) 0.3505(4) 0.20664(18)
C10 C 0.0931(7) 0.3063(4) 0.16750(18)
C11 C -0.0864(7) 0.2251(4) 0.18009(18)
C12 C -0.2570(7) 0.1586(5) 0.1399(2)
H5 H -0.2740 0.1675 0.0997
C13 C -0.3880(7) 0.0814(4) 0.1700(2)
H6 H -0.5100 0.0272 0.1540
C14 C -0.3101(6) 0.0960(4) 0.22957(19)
C15 C -0.4017(6) 0.0319(4) 0.2754(2)
C16 C -0.3217(6) 0.0449(4) 0.33462(19)
C17 C -0.4327(7) -0.0105(5) 0.3816(2)
H7 H -0.5648 -0.0603 0.3781
C18 C -0.3080(7) 0.0239(5) 0.4310(2)
H8 H -0.3376 0.0030 0.4687
C19 C -0.1205(7) 0.0989(4) 0.41535(18)
C20 C 0.0504(7) 0.1519(4) 0.45457(19)
H9 H 0.0389 0.1361 0.4939
C21 C 0.7561(6) 0.5032(4) 0.36395(18)
C22 C 0.9304(7) 0.4654(5) 0.3852(2)
H10 H 0.9294 0.3773 0.3886
C23 C 1.1085(7) 0.5580(5) 0.4018(2)
H11 H 1.2270 0.5316 0.4156
C24 C 1.1093(8) 0.6887(5) 0.3978(2)
H12 H 1.2272 0.7509 0.4101
C25 C 0.9388(8) 0.7271(4) 0.3759(2)
H13 H 0.9423 0.8152 0.3719
C26 C 0.7587(7) 0.6358(4) 0.35955(19)
H14 H 0.6410 0.6630 0.3458
C27 C -0.5962(6) -0.0661(4) 0.25721(19)
C28 C -0.7753(7) -0.0286(5) 0.2409(3)
H15 H -0.7791 0.0603 0.2418
C29 C -0.9506(8) -0.1202(6) 0.2231(3)
H16 H -1.0728 -0.0932 0.2133
C30 C -0.9441(9) -0.2525(5) 0.2200(3)
H17 H -1.0607 -0.3152 0.2068
C31 C -0.7687(8) -0.2901(5) 0.2362(3)
H18 H -0.7653 -0.3792 0.2349
C32 C -0.5950(8) -0.1993(5) 0.2545(2)
H19 H -0.4745 -0.2273 0.2652
C33 C 0.0975(7) 0.3475(5) 0.1055(2)
C34 C 0.1763(9) 0.2508(6) 0.0591(2)
C35 C 0.2483(13) 0.3061(8) 0.0017(3)
C36 C 0.2991(14) 0.2043(9) -0.0478(3)
H20 H 0.211(7) 0.251(5) 0.355(2)
H21 H -0.039(7) 0.206(6) 0.2628(18)
Cl2? Cl 0.529(3) 0.268(2) -0.0511(12)
Cl3? Cl 0.269(5) 0.281(3) -0.0998(15)
F9? F 0.116(4) 0.143(2) 0.0671(12)
F10? F 0.373(3) 0.258(3) 0.0773(8)
F11? F 0.032(5) 0.307(5) -0.0228(10)
loop_
_geom_bond_atom_site_label_1
_geom_bond_atom_site_label_2
_geom_bond_site_symmetry_1
_geom_bond_site_symmetry_2
Cl1 C36 1_555 1_555
N1 C1 1_555 1_555
N2 C6 1_555 1_555
N3 C11 1_555 1_555
N4 C16 1_555 1_555
F1 C33 1_555 1_555
F2 C33 1_555 1_555
F3 C34 1_555 1_555
F4 C34 1_555 1_555
F5 C35 1_555 1_555
F6 C35 1_555 1_555
F7 C36 1_555 1_555
F8 C36 1_555 1_555
C1 C2 1_555 1_555
C2 H1 1_555 1_555
C3 C2 1_555 1_555
H2 C3 1_555 1_555
C4 N1 1_555 1_555
C5 C4 1_555 1_555
C6 C5 1_555 1_555
C7 C6 1_555 1_555
H3 C7 1_555 1_555
C8 C7 1_555 1_555
H4 C8 1_555 1_555
C9 N2 1_555 1_555
C10 C9 1_555 1_555
C11 C10 1_555 1_555
C12 C11 1_555 1_555
H5 C12 1_555 1_555
C13 C12 1_555 1_555
H6 C13 1_555 1_555
C14 N3 1_555 1_555
C15 C14 1_555 1_555
C16 C15 1_555 1_555
C17 C16 1_555 1_555
H7 C17 1_555 1_555
C18 C17 1_555 1_555
H8 C18 1_555 1_555
C19 N4 1_555 1_555
C20 C1 1_555 1_555
H9 C20 1_555 1_555
C21 C5 1_555 1_555
C22 C21 1_555 1_555
H10 C22 1_555 1_555
C23 C22 1_555 1_555
H11 C23 1_555 1_555
C24 C23 1_555 1_555
H12 C24 1_555 1_555
C25 C24 1_555 1_555
H13 C25 1_555 1_555
C26 C21 1_555 1_555
H14 C26 1_555 1_555
C27 C15 1_555 1_555
C28 C27 1_555 1_555
H15 C28 1_555 1_555
C29 C28 1_555 1_555
H16 C29 1_555 1_555
C30 C29 1_555 1_555
H17 C30 1_555 1_555
C31 C30 1_555 1_555
H18 C31 1_555 1_555
C32 C27 1_555 1_555
H19 C32 1_555 1_555
C33 C10 1_555 1_555
C34 C33 1_555 1_555
C35 C34 1_555 1_555
C36 C35 1_555 1_555
H20 N1 1_555 1_555
H21 N3 1_555 1_555
C3 C4 1_555 1_555
C8 C9 1_555 1_555
C13 C14 1_555 1_555
C18 C19 1_555 1_555
C19 C20 1_555 1_555
C25 C26 1_555 1_555
C31 C32 1_555 1_555

#END
