
#######################################################################
#
#                 Cambridge Crystallographic Data Centre
#                                CCDC 
#
#######################################################################
#
# If this CIF has been generated from an entry in the Cambridge 
# Structural Database, then it will include bibliographic, chemical, 
# crystal, experimental, refinement or atomic coordinate data resulting 
# from the CCDC's data processing and validation procedures.
#
#######################################################################

data_XEPWEX
_chemical_formula_moiety         'C23 H21 Cl1'
_chemical_name_systematic        
1,1'-[1-(4-chlorophenyl)-3-methylbut-1-ene-1,2-diyl]dibenzene
_symmetry_cell_setting           triclinic
_symmetry_space_group_name_H-M   'P -1'
_symmetry_Int_Tables_number      2
_space_group_name_Hall           '-P 1'
loop_
_symmetry_equiv_pos_site_id
_symmetry_equiv_pos_as_xyz
1 x,y,z
2 -x,-y,-z
_cell_length_a                   9.5964(19)
_cell_length_b                   9.794(2)
_cell_length_c                   10.906(2)
_cell_angle_alpha                99.828(4)
_cell_angle_beta                 94.064(3)
_cell_angle_gamma                118.202(3)
_cell_volume                     876.425
_exptl_crystal_colour            colorless
_exptl_crystal_description       plate
_cell_formula_units_Z            2
loop_
_atom_site_label
_atom_site_type_symbol
_atom_site_fract_x
_atom_site_fract_y
_atom_site_fract_z
C1 C 0.4900(3) 0.7022(3) 0.7108(2)
C2 C 0.6288(3) 0.7356(3) 0.7808(2)
C3 C 0.6426(3) 0.7240(3) 0.9191(3)
H1 H 0.531679 0.671411 0.939257
C4 C 0.7358(3) 0.8928(3) 1.0045(3)
H2 H 0.846266 0.945589 0.988503
H3 H 0.737085 0.886506 1.093292
H4 H 0.683583 0.953973 0.986283
C5 C 0.7219(3) 0.6263(3) 0.9474(3)
H5 H 0.662355 0.519277 0.891877
H6 H 0.721235 0.618438 1.035791
H7 H 0.833014 0.678727 0.932742
C6 C 0.7820(3) 0.7984(3) 0.7296(2)
C7 C 0.8685(3) 0.9581(3) 0.7244(3)
H8 H 0.830000 1.028557 0.754796
C8 C 1.0096(3) 1.0153(3) 0.6755(3)
H9 H 1.066391 1.124254 0.672331
C9 C 1.0682(3) 0.9156(3) 0.6315(3)
H10 H 1.164743 0.955566 0.597615
C10 C 0.9860(3) 0.7568(3) 0.6368(3)
H11 H 1.025989 0.687551 0.606681
C11 C 0.8443(3) 0.6991(3) 0.6865(3)
H12 H 0.789198 0.590604 0.691107
C12 C 0.3337(3) 0.6391(3) 0.7608(2)
C13 C 0.3057(3) 0.7271(3) 0.8592(3)
H13 H 0.389463 0.830640 0.900997
C14 C 0.1576(3) 0.6673(3) 0.8980(3)
H14 H 0.140380 0.730824 0.964608
C15 C 0.0355(3) 0.5162(3) 0.8402(3)
H15 H -0.064589 0.473555 0.868799
C16 C 0.0602(3) 0.4273(3) 0.7404(3)
H16 H -0.024217 0.323867 0.699171
C17 C 0.2074(3) 0.4880(3) 0.6999(3)
H17 H 0.222412 0.426340 0.630223
C18 C 0.4740(3) 0.7274(3) 0.5808(3)
C19 C 0.3771(3) 0.7917(3) 0.5509(3)
H18 H 0.322158 0.814768 0.613207
C20 C 0.3583(3) 0.8230(3) 0.4341(3)
H19 H 0.292885 0.868451 0.416809
C21 C 0.4360(3) 0.7873(3) 0.3427(3)
C22 C 0.5307(3) 0.7206(3) 0.3672(3)
H20 H 0.582318 0.694804 0.303268
C23 C 0.5497(3) 0.6916(3) 0.4854(3)
H21 H 0.615572 0.646449 0.502018
Cl1 Cl 0.41495(8) 0.82863(9) 0.19510(7)
loop_
_geom_bond_atom_site_label_1
_geom_bond_atom_site_label_2
_geom_bond_site_symmetry_1
_geom_bond_site_symmetry_2
C1 C2 1_555 1_555
C2 C3 1_555 1_555
C3 H1 1_555 1_555
C4 C3 1_555 1_555
H2 C4 1_555 1_555
H3 C4 1_555 1_555
H4 C4 1_555 1_555
C5 C3 1_555 1_555
H5 C5 1_555 1_555
H6 C5 1_555 1_555
H7 C5 1_555 1_555
C6 C2 1_555 1_555
C7 C6 1_555 1_555
H8 C7 1_555 1_555
C8 C7 1_555 1_555
H9 C8 1_555 1_555
C9 C8 1_555 1_555
H10 C9 1_555 1_555
C10 C9 1_555 1_555
H11 C10 1_555 1_555
C11 C6 1_555 1_555
H12 C11 1_555 1_555
C12 C1 1_555 1_555
C13 C12 1_555 1_555
H13 C13 1_555 1_555
C14 C13 1_555 1_555
H14 C14 1_555 1_555
C15 C14 1_555 1_555
H15 C15 1_555 1_555
C16 C15 1_555 1_555
H16 C16 1_555 1_555
C17 C12 1_555 1_555
H17 C17 1_555 1_555
C18 C1 1_555 1_555
C19 C18 1_555 1_555
H18 C19 1_555 1_555
C20 C19 1_555 1_555
H19 C20 1_555 1_555
C21 C20 1_555 1_555
C22 C21 1_555 1_555
H20 C22 1_555 1_555
C23 C18 1_555 1_555
H21 C23 1_555 1_555
Cl1 C21 1_555 1_555
C10 C11 1_555 1_555
C16 C17 1_555 1_555
C22 C23 1_555 1_555

#END
