
#######################################################################
#
#                 Cambridge Crystallographic Data Centre
#                                CCDC 
#
#######################################################################
#
# If this CIF has been generated from an entry in the Cambridge 
# Structural Database, then it will include bibliographic, chemical, 
# crystal, experimental, refinement or atomic coordinate data resulting 
# from the CCDC's data processing and validation procedures.
#
#######################################################################

data_XEPYOI
_chemical_formula_moiety         'C15 H16 N2 O5 S3'
_chemical_name_systematic        
N-(6-(4-((Thiiran-2-ylmethyl)sulfonyl)phenoxy)pyridin-3-yl)methanesulfonamide
_symmetry_cell_setting           triclinic
_symmetry_space_group_name_H-M   'P -1'
_symmetry_Int_Tables_number      2
_space_group_name_Hall           '-P 1'
loop_
_symmetry_equiv_pos_site_id
_symmetry_equiv_pos_as_xyz
1 x,y,z
2 -x,-y,-z
_cell_length_a                   5.7099(4)
_cell_length_b                   10.7256(6)
_cell_length_c                   15.2849(12)
_cell_angle_alpha                107.324(5)
_cell_angle_beta                 95.601(5)
_cell_angle_gamma                99.714(4)
_cell_volume                     869.863
_exptl_crystal_colour            colorless
_exptl_crystal_description       plate
_cell_formula_units_Z            2
loop_
_atom_site_label
_atom_site_type_symbol
_atom_site_fract_x
_atom_site_fract_y
_atom_site_fract_z
S1 S 0.06113(10) 0.41049(5) 1.25767(4)
S2 S -0.3606(3) 0.07661(9) 1.13650(7)
S3 S 0.46384(10) 0.25154(6) 0.50911(4)
N1 N 0.2727(3) 0.29574(19) 0.82512(13)
N2 N 0.5428(3) 0.23785(19) 0.61141(13)
H1 H 0.6948 0.2399 0.6299
O1 O -0.1093(3) 0.21047(17) 0.85003(11)
O2 O 0.0334(3) 0.54814(17) 1.28982(11)
O3 O 0.2807(3) 0.38068(18) 1.29274(11)
O4 O 0.3071(3) 0.12975(17) 0.45160(12)
O5 O 0.6862(3) 0.29668(17) 0.48076(11)
C1 C 0.0639(4) 0.2114(2) 0.79309(15)
C2 C -0.0051(4) 0.1250(2) 0.70262(16)
H2 H -0.1565 0.0645 0.6841
C3 C 0.1535(4) 0.1302(2) 0.64073(16)
H3 H 0.1151 0.0717 0.5786
C4 C 0.3712(4) 0.2227(2) 0.67098(16)
C5 C 0.4227(4) 0.3010(2) 0.76350(16)
H4 H 0.5733 0.3622 0.7845
C6 C -0.0484(4) 0.2637(2) 0.94564(16)
C7 C -0.1944(4) 0.3443(2) 0.99099(16)
H5 H -0.3197 0.3662 0.9565
C8 C -0.1560(4) 0.3922(2) 1.08676(16)
H6 H -0.2527 0.4488 1.1188
C9 C 0.0253(4) 0.3569(2) 1.13556(15)
C10 C 0.1703(5) 0.2755(3) 1.09011(17)
H7 H 0.2926 0.2514 1.1245
C11 C 0.1348(5) 0.2301(3) 0.99435(17)
H8 H 0.2353 0.1763 0.9622
C12 C -0.1876(4) 0.3164(2) 1.28681(17)
H9 H -0.1794 0.3473 1.3551
H10 H -0.3376 0.3343 1.2594
C13 C -0.2002(5) 0.1694(3) 1.2547(2)
H11 H -0.0564 0.1380 1.2760
C14 C -0.4440(17) 0.0834(7) 1.2487(5)
H12 H -0.5753 0.1303 1.2675
H13 H -0.4464 0.0024 1.2673
C15 C 0.2972(4) 0.3783(3) 0.52819(18)
H14 H 0.2567 0.3963 0.4700
H15 H 0.3931 0.4597 0.5747
H16 H 0.1489 0.3496 0.5506
C16? C -0.221(7) 0.086(2) 1.150(2)
H17? H -0.1075 0.0260 1.1331
H18? H -0.2648 0.1288 1.1032
S4? S -0.451(2) 0.0431(10) 1.2176(9)
loop_
_geom_bond_atom_site_label_1
_geom_bond_atom_site_label_2
_geom_bond_site_symmetry_1
_geom_bond_site_symmetry_2
S1 O2 1_555 1_555
S2 C13 1_555 1_555
S3 N2 1_555 1_555
N1 C1 1_555 1_555
N2 H1 1_555 1_555
O1 C1 1_555 1_555
O3 S1 1_555 1_555
O4 S3 1_555 1_555
O5 S3 1_555 1_555
C1 C2 1_555 1_555
C2 H2 1_555 1_555
C3 C2 1_555 1_555
H3 C3 1_555 1_555
C4 N2 1_555 1_555
C5 N1 1_555 1_555
H4 C5 1_555 1_555
C6 O1 1_555 1_555
C7 C6 1_555 1_555
H5 C7 1_555 1_555
C8 C7 1_555 1_555
H6 C8 1_555 1_555
C9 S1 1_555 1_555
C10 C9 1_555 1_555
H7 C10 1_555 1_555
C11 C6 1_555 1_555
H8 C11 1_555 1_555
C12 S1 1_555 1_555
H9 C12 1_555 1_555
H10 C12 1_555 1_555
C13 C12 1_555 1_555
H11 C13 1_555 1_555
C14 S2 1_555 1_555
H12 C14 1_555 1_555
H13 C14 1_555 1_555
C15 S3 1_555 1_555
H14 C15 1_555 1_555
H15 C15 1_555 1_555
H16 C15 1_555 1_555
C3 C4 1_555 1_555
C4 C5 1_555 1_555
C8 C9 1_555 1_555
C10 C11 1_555 1_555
C13 C14 1_555 1_555

#END
