
#######################################################################
#
#                 Cambridge Crystallographic Data Centre
#                                CCDC 
#
#######################################################################
#
# If this CIF has been generated from an entry in the Cambridge 
# Structural Database, then it will include bibliographic, chemical, 
# crystal, experimental, refinement or atomic coordinate data resulting 
# from the CCDC's data processing and validation procedures.
#
#######################################################################

data_XEPZUQ
_chemical_name_common            gene602
_chemical_formula_moiety         'C23 H24 O2'
_chemical_name_systematic        1-(4-methoxyphenyl)-1,2-diphenylbutan-1-ol
_symmetry_cell_setting           monoclinic
_symmetry_space_group_name_H-M   'P 21/c'
_symmetry_Int_Tables_number      14
_space_group_name_Hall           '-P 2ybc'
loop_
_symmetry_equiv_pos_site_id
_symmetry_equiv_pos_as_xyz
1 x,y,z
2 -x,1/2+y,1/2-z
3 -x,-y,-z
4 x,1/2-y,1/2+z
_cell_length_a                   18.524(2)
_cell_length_b                   5.7934(7)
_cell_length_c                   16.9793(19)
_cell_angle_alpha                90
_cell_angle_beta                 105.284(3)
_cell_angle_gamma                90
_cell_volume                     1757.72
_exptl_crystal_colour            colorless
_exptl_crystal_description       blade
_cell_formula_units_Z            4
loop_
_atom_site_label
_atom_site_type_symbol
_atom_site_fract_x
_atom_site_fract_y
_atom_site_fract_z
C1 C 0.75314(10) 0.6152(3) 0.35655(10)
C2 C 0.81598(9) 0.4337(3) 0.35646(10)
H1 H 0.7924 0.2776 0.3533
C3 C 0.87866(10) 0.4418(3) 0.43678(10)
H2 H 0.9029 0.5953 0.4422
H3 H 0.8564 0.4217 0.4833
C4 C 0.93763(10) 0.2564(3) 0.44077(11)
H4 H 0.9135 0.1045 0.4323
H5 H 0.9740 0.2605 0.4944
H6 H 0.9634 0.2846 0.3982
C5 C 0.84901(9) 0.4545(3) 0.28342(10)
C6 C 0.83713(9) 0.2830(3) 0.22380(10)
H7 H 0.8061 0.1555 0.2279
C7 C 0.86913(10) 0.2922(3) 0.15874(10)
H8 H 0.8599 0.1723 0.1192
C8 C 0.91435(10) 0.4754(3) 0.15145(10)
H9 H 0.9358 0.4837 0.1065
C9 C 0.92821(10) 0.6473(3) 0.21015(11)
H10 H 0.9596 0.7737 0.2057
C10 C 0.89654(9) 0.6357(3) 0.27552(10)
H11 H 0.9074 0.7535 0.3159
C11 C 0.73226(9) 0.6029(3) 0.43786(10)
C12 C 0.69285(9) 0.4127(3) 0.45456(10)
H12 H 0.6786 0.2938 0.4150
C13 C 0.67420(10) 0.3943(3) 0.52791(11)
H13 H 0.6474 0.2632 0.5385
C14 C 0.69470(10) 0.5675(3) 0.58624(10)
H14 H 0.6818 0.5556 0.6367
C15 C 0.73382(9) 0.7569(3) 0.57038(10)
H15 H 0.7477 0.8759 0.6100
C16 C 0.75293(9) 0.7742(3) 0.49687(11)
H16 H 0.7804 0.9043 0.4868
C17 C 0.68144(9) 0.5848(3) 0.28725(10)
C18 C 0.62879(10) 0.7635(3) 0.27253(10)
H17 H 0.6398 0.9015 0.3036
C19 C 0.56114(10) 0.7448(3) 0.21393(10)
H18 H 0.5265 0.8692 0.2051
C20 C 0.54382(9) 0.5436(3) 0.16794(10)
C21 C 0.59454(10) 0.3627(3) 0.18260(10)
H19 H 0.5832 0.2237 0.1522
C22 C 0.66211(9) 0.3848(3) 0.24192(10)
H20 H 0.6961 0.2587 0.2517
C23 C 0.45662(10) 0.3318(3) 0.06488(11)
H21 H 0.4933 0.3024 0.0338
H22 H 0.4067 0.3481 0.0272
H23 H 0.4566 0.2024 0.1020
O1 O 0.78150(7) 0.84458(19) 0.35127(7)
H24 H 0.7966 0.8557 0.3089
O2 O 0.47595(7) 0.5398(2) 0.11114(7)
loop_
_geom_bond_atom_site_label_1
_geom_bond_atom_site_label_2
_geom_bond_site_symmetry_1
_geom_bond_site_symmetry_2
C1 C2 1_555 1_555
C2 H1 1_555 1_555
C3 C2 1_555 1_555
H2 C3 1_555 1_555
H3 C3 1_555 1_555
C4 C3 1_555 1_555
H4 C4 1_555 1_555
H5 C4 1_555 1_555
H6 C4 1_555 1_555
C5 C2 1_555 1_555
C6 C5 1_555 1_555
H7 C6 1_555 1_555
C7 C6 1_555 1_555
H8 C7 1_555 1_555
C8 C7 1_555 1_555
H9 C8 1_555 1_555
C9 C8 1_555 1_555
H10 C9 1_555 1_555
C10 C5 1_555 1_555
H11 C10 1_555 1_555
C11 C1 1_555 1_555
C12 C11 1_555 1_555
H12 C12 1_555 1_555
C13 C12 1_555 1_555
H13 C13 1_555 1_555
C14 C13 1_555 1_555
H14 C14 1_555 1_555
C15 C14 1_555 1_555
H15 C15 1_555 1_555
C16 C11 1_555 1_555
H16 C16 1_555 1_555
C17 C1 1_555 1_555
C18 C17 1_555 1_555
H17 C18 1_555 1_555
C19 C18 1_555 1_555
H18 C19 1_555 1_555
C20 C19 1_555 1_555
C21 C20 1_555 1_555
H19 C21 1_555 1_555
C22 C17 1_555 1_555
H20 C22 1_555 1_555
C23 H21 1_555 1_555
H22 C23 1_555 1_555
H23 C23 1_555 1_555
O1 C1 1_555 1_555
H24 O1 1_555 1_555
O2 C20 1_555 1_555
C9 C10 1_555 1_555
C15 C16 1_555 1_555
C21 C22 1_555 1_555
C23 O2 1_555 1_555

#END
