
#######################################################################
#
#                 Cambridge Crystallographic Data Centre
#                                CCDC 
#
#######################################################################
#
# If this CIF has been generated from an entry in the Cambridge 
# Structural Database, then it will include bibliographic, chemical, 
# crystal, experimental, refinement or atomic coordinate data resulting 
# from the CCDC's data processing and validation procedures.
#
#######################################################################

data_XEQBED
_chemical_name_common            gene596
_chemical_formula_moiety         'C21 H21 N1 O1'
_chemical_name_systematic        1,2-diphenyl-1-(pyridin-4-yl)butan-1-ol
_symmetry_cell_setting           triclinic
_symmetry_space_group_name_H-M   'P 1'
_symmetry_Int_Tables_number      1
_space_group_name_Hall           'P 1'
loop_
_symmetry_equiv_pos_site_id
_symmetry_equiv_pos_as_xyz
1 x,y,z
_cell_length_a                   6.1157(5)
_cell_length_b                   7.6877(7)
_cell_length_c                   35.725(3)
_cell_angle_alpha                88.193(9)
_cell_angle_beta                 85.251(6)
_cell_angle_gamma                82.371(5)
_cell_volume                     1658.69
_exptl_crystal_colour            colorless
_exptl_crystal_description       plate
_cell_formula_units_Z            4
loop_
_atom_site_label
_atom_site_type_symbol
_atom_site_fract_x
_atom_site_fract_y
_atom_site_fract_z
C1 C 0.435(3) 0.808(2) 0.1454(4)
C2 C 0.286(3) 0.835(2) 0.1102(4)
H1 H 0.1377 0.7988 0.1180
C3 C 0.256(3) 1.026(2) 0.0979(4)
H2 H 0.3933 1.0541 0.0837
H3 H 0.2282 1.1004 0.1203
C4 C 0.060(3) 1.067(3) 0.0728(5)
H4 H 0.1052 1.0221 0.0475
H5 H 0.0163 1.1938 0.0712
H6 H -0.0655 1.0097 0.0836
C5 C 0.399(3) 0.715(2) 0.0776(4)
C6 C 0.599(3) 0.735(2) 0.0613(5)
H7 H 0.6760 0.8256 0.0691
C7 C 0.694(3) 0.624(3) 0.0332(5)
H8 H 0.8385 0.6341 0.0220
C8 C 0.566(3) 0.492(3) 0.0210(6)
H9 H 0.6243 0.4160 0.0010
C9 C 0.370(4) 0.478(3) 0.0379(6)
H10 H 0.2866 0.3918 0.0300
C10 C 0.282(3) 0.585(2) 0.0666(5)
H11 H 0.1423 0.5707 0.0791
C11 C 0.499(3) 0.605(2) 0.1520(4)
C12 C 0.709(3) 0.522(2) 0.1424(4)
H12 H 0.8236 0.5874 0.1331
C13 C 0.749(3) 0.342(2) 0.1467(5)
H13 H 0.8956 0.2874 0.1406
C14 C 0.397(3) 0.327(2) 0.1696(4)
H14 H 0.2878 0.2589 0.1802
C15 C 0.337(3) 0.506(2) 0.1666(5)
H15 H 0.1913 0.5585 0.1741
C16 C 0.308(3) 0.882(2) 0.1821(5)
C17 C 0.096(3) 0.945(2) 0.1859(4)
H16 H 0.0095 0.9497 0.1649
C18 C -0.003(4) 1.007(3) 0.2206(5)
H17 H -0.1592 1.0371 0.2244
C19 C 0.134(3) 1.023(2) 0.2501(4)
H18 H 0.0709 1.0736 0.2731
C20 C 0.352(3) 0.968(3) 0.2459(5)
H19 H 0.4434 0.9791 0.2658
C21 C 0.444(3) 0.895(2) 0.2120(4)
H20 H 0.5976 0.8536 0.2088
N1 N 0.598(2) 0.2393(19) 0.1587(4)
O1 O 0.6361(19) 0.8777(15) 0.1381(3)
H21 H 0.6727 0.8756 0.1149
C22 C 0.595(4) 0.672(3) 0.3539(6)
C23 C 0.720(4) 0.650(3) 0.3890(6)
H22 H 0.8685 0.6841 0.3807
C24 C 0.770(4) 0.453(3) 0.4022(6)
H23 H 0.6368 0.4183 0.4166
H24 H 0.8015 0.3786 0.3799
C25 C 0.962(4) 0.421(3) 0.4262(7)
H25 H 1.1001 0.4260 0.4104
H26 H 0.9647 0.3042 0.4383
H27 H 0.9466 0.5102 0.4455
C26 C 0.637(4) 0.768(3) 0.4202(6)
C27 C 0.414(4) 0.758(4) 0.4385(7)
H28 H 0.3305 0.6706 0.4311
C28 C 0.323(4) 0.876(3) 0.4671(7)
H29 H 0.1803 0.8663 0.4788
C29 C 0.431(4) 0.996(4) 0.4773(7)
H30 H 0.3603 1.0759 0.4958
C30 C 0.650(5) 1.018(4) 0.4625(7)
H31 H 0.7265 1.1079 0.4705
C31 C 0.750(4) 0.891(3) 0.4341(6)
H32 H 0.8994 0.8938 0.4250
C32 C 0.532(3) 0.867(3) 0.3474(5)
C33 C 0.327(4) 0.949(3) 0.3563(5)
H33 H 0.2116 0.8812 0.3643
C34 C 0.280(4) 1.134(3) 0.3539(6)
H34 H 0.1359 1.1891 0.3618
C35 C 0.638(3) 1.153(3) 0.3304(5)
H35 H 0.7506 1.2210 0.3211
C36 C 0.687(4) 0.974(3) 0.3331(5)
H36 H 0.8321 0.9218 0.3250
C37 C 0.705(3) 0.595(3) 0.3181(5)
C38 C 0.949(3) 0.544(3) 0.3134(6)
H37 H 1.0419 0.5623 0.3326
C39 C 1.032(3) 0.470(3) 0.2805(5)
H38 H 1.1851 0.4265 0.2782
C40 C 0.916(3) 0.454(3) 0.2506(5)
H39 H 0.9837 0.4009 0.2282
C41 C 0.685(3) 0.519(2) 0.2544(5)
H40 H 0.5955 0.5185 0.2338
C42 C 0.598(4) 0.581(3) 0.2879(6)
H41 H 0.4429 0.6185 0.2902
N2 N 0.438(3) 1.235(2) 0.3403(5)
O2 O 0.390(2) 0.5965(18) 0.3610(4)
H42 H 0.3765 0.5619 0.3835
C43 C 0.666(3) 0.224(3) 0.6467(5)
C44 C 0.845(4) 0.198(3) 0.6102(6)
H43 H 0.9886 0.2283 0.6177
C45 C 0.884(4) 0.008(3) 0.5986(6)
H44 H 0.7569 -0.0194 0.5853
H45 H 0.8962 -0.0697 0.6211
C46 C 1.106(4) -0.025(4) 0.5715(7)
H46 H 1.0785 0.0245 0.5465
H47 H 1.1537 -0.1516 0.5697
H48 H 1.2218 0.0313 0.5818
C47 C 0.774(4) 0.322(3) 0.5790(6)
C48 C 0.591(4) 0.304(4) 0.5591(7)
H49 H 0.5113 0.2070 0.5647
C49 C 0.526(5) 0.422(4) 0.5320(8)
H50 H 0.3957 0.4135 0.5199
C50 C 0.653(5) 0.559(4) 0.5217(8)
H51 H 0.6110 0.6425 0.5026
C51 C 0.843(6) 0.568(5) 0.5402(9)
H52 H 0.9325 0.6567 0.5327
C52 C 0.904(5) 0.458(3) 0.5681(7)
H53 H 1.0331 0.4698 0.5805
C53 C 0.595(3) 0.418(2) 0.6524(5)
C54 C 0.394(3) 0.507(3) 0.6428(5)
H54 H 0.2837 0.4443 0.6344
C55 C 0.355(4) 0.688(3) 0.6457(6)
H55 H 0.2193 0.7449 0.6378
C56 C 0.675(3) 0.699(3) 0.6694(5)
H56 H 0.7718 0.7648 0.6807
C57 C 0.747(3) 0.519(3) 0.6667(5)
H57 H 0.8884 0.4676 0.6738
C58 C 0.743(3) 0.138(3) 0.6822(5)
C59 C 0.596(4) 0.121(3) 0.7121(6)
H58 H 0.4467 0.1709 0.7098
C60 C 0.645(3) 0.037(3) 0.7457(5)
H59 H 0.5316 0.0178 0.7646
C61 C 0.867(3) -0.018(2) 0.7509(5)
H60 H 0.9096 -0.0676 0.7742
C62 C 1.022(4) 0.002(3) 0.7216(6)
H61 H 1.1735 -0.0383 0.7248
C63 C 0.966(4) 0.078(3) 0.6874(6)
H62 H 1.0770 0.0891 0.6676
N3 N 0.494(3) 0.790(2) 0.6588(5)
O3 O 0.465(2) 0.1510(19) 0.6385(4)
H63 H 0.4385 0.1747 0.6161
C64 C 0.313(3) 0.306(2) 0.8550(4)
C65 C 0.136(3) 0.323(2) 0.8886(4)
H64 H -0.0034 0.2897 0.8798
C66 C 0.085(3) 0.517(2) 0.9018(5)
H65 H 0.2140 0.5489 0.9138
H66 H 0.0610 0.5963 0.8797
C67 C -0.112(4) 0.541(3) 0.9286(6)
H67 H -0.2416 0.5153 0.9162
H68 H -0.1374 0.6620 0.9372
H69 H -0.0899 0.4604 0.9502
C68 C 0.203(3) 0.198(2) 0.9214(4)
C69 C 0.391(3) 0.210(3) 0.9402(5)
H70 H 0.4780 0.3022 0.9338
C70 C 0.452(3) 0.087(2) 0.9688(5)
H71 H 0.5784 0.0984 0.9819
C71 C 0.336(4) -0.045(3) 0.9776(6)
H72 H 0.3840 -0.1292 0.9962
C72 C 0.148(4) -0.061(3) 0.9605(6)
H73 H 0.0621 -0.1521 0.9676
C73 C 0.085(4) 0.064(3) 0.9315(6)
H74 H -0.0430 0.0522 0.9190
C74 C 0.376(3) 0.112(2) 0.8486(5)
C75 C 0.574(3) 0.027(2) 0.8586(4)
H75 H 0.6793 0.0914 0.8677
C76 C 0.622(3) -0.155(2) 0.8554(5)
H76 H 0.7592 -0.2124 0.8629
C77 C 0.284(3) -0.167(2) 0.8305(5)
H77 H 0.1810 -0.2319 0.8208
C78 C 0.238(3) 0.011(2) 0.8330(5)
H78 H 0.1053 0.0682 0.8236
C79 C 0.223(3) 0.394(2) 0.8179(4)
C80 C 0.389(3) 0.413(2) 0.7881(5)
H79 H 0.5420 0.3798 0.7911
C81 C 0.313(3) 0.487(2) 0.7536(5)
H80 H 0.4171 0.4915 0.7325
C82 C 0.095(3) 0.550(3) 0.7495(5)
H81 H 0.0527 0.6086 0.7269
C83 C -0.061(3) 0.527(2) 0.7788(5)
H82 H -0.2135 0.5653 0.7761
C84 C 0.007(3) 0.447(3) 0.8123(5)
H83 H -0.1028 0.4296 0.8321
N4 N 0.481(2) -0.2515(19) 0.8421(4)
O4 O 0.5025(18) 0.3806(14) 0.8624(3)
H84 H 0.5016 0.3963 0.8856
loop_
_geom_bond_atom_site_label_1
_geom_bond_atom_site_label_2
_geom_bond_site_symmetry_1
_geom_bond_site_symmetry_2
C1 C2 1_555 1_555
C2 H1 1_555 1_555
C3 C2 1_555 1_555
H2 C3 1_555 1_555
H3 C3 1_555 1_555
C4 C3 1_555 1_555
H4 C4 1_555 1_555
H5 C4 1_555 1_555
H6 C4 1_555 1_555
C5 C2 1_555 1_555
C6 C5 1_555 1_555
H7 C6 1_555 1_555
C7 C6 1_555 1_555
H8 C7 1_555 1_555
C8 C7 1_555 1_555
H9 C8 1_555 1_555
C9 C8 1_555 1_555
H10 C9 1_555 1_555
C10 C5 1_555 1_555
H11 C10 1_555 1_555
C11 C1 1_555 1_555
C12 C11 1_555 1_555
H12 C12 1_555 1_555
C13 C12 1_555 1_555
H13 C13 1_555 1_555
C14 H14 1_555 1_555
C15 C11 1_555 1_555
H15 C15 1_555 1_555
C16 C1 1_555 1_555
C17 C16 1_555 1_555
H16 C17 1_555 1_555
C18 C17 1_555 1_555
H17 C18 1_555 1_555
C19 C18 1_555 1_555
H18 C19 1_555 1_555
C20 C19 1_555 1_555
H19 C20 1_555 1_555
C21 C16 1_555 1_555
H20 C21 1_555 1_555
N1 C13 1_555 1_555
O1 C1 1_555 1_555
H21 O1 1_555 1_555
C22 C23 1_555 1_555
C23 H22 1_555 1_555
C24 C23 1_555 1_555
H23 C24 1_555 1_555
H24 C24 1_555 1_555
C25 C24 1_555 1_555
H25 C25 1_555 1_555
H26 C25 1_555 1_555
H27 C25 1_555 1_555
C26 C23 1_555 1_555
C27 C26 1_555 1_555
H28 C27 1_555 1_555
C28 C27 1_555 1_555
H29 C28 1_555 1_555
C29 C28 1_555 1_555
H30 C29 1_555 1_555
C30 C29 1_555 1_555
H31 C30 1_555 1_555
C31 C26 1_555 1_555
H32 C31 1_555 1_555
C32 C22 1_555 1_555
C33 C32 1_555 1_555
H33 C33 1_555 1_555
C34 C33 1_555 1_555
H34 C34 1_555 1_555
C35 H35 1_555 1_555
C36 C32 1_555 1_555
H36 C36 1_555 1_555
C37 C22 1_555 1_555
C38 C37 1_555 1_555
H37 C38 1_555 1_555
C39 C38 1_555 1_555
H38 C39 1_555 1_555
C40 C39 1_555 1_555
H39 C40 1_555 1_555
C41 C40 1_555 1_555
H40 C41 1_555 1_555
C42 C37 1_555 1_555
H41 C42 1_555 1_555
N2 C34 1_555 1_555
O2 C22 1_555 1_555
H42 O2 1_555 1_555
C43 C44 1_555 1_555
C44 H43 1_555 1_555
C45 C44 1_555 1_555
H44 C45 1_555 1_555
H45 C45 1_555 1_555
C46 C45 1_555 1_555
H46 C46 1_555 1_555
H47 C46 1_555 1_555
H48 C46 1_555 1_555
C47 C44 1_555 1_555
C48 C47 1_555 1_555
H49 C48 1_555 1_555
C49 C48 1_555 1_555
H50 C49 1_555 1_555
C50 C49 1_555 1_555
H51 C50 1_555 1_555
C51 C50 1_555 1_555
H52 C51 1_555 1_555
C52 C47 1_555 1_555
H53 C52 1_555 1_555
C53 C43 1_555 1_555
C54 C53 1_555 1_555
H54 C54 1_555 1_555
C55 C54 1_555 1_555
H55 C55 1_555 1_555
C56 H56 1_555 1_555
C57 C53 1_555 1_555
H57 C57 1_555 1_555
C58 C43 1_555 1_555
C59 C58 1_555 1_555
H58 C59 1_555 1_555
C60 C59 1_555 1_555
H59 C60 1_555 1_555
C61 C60 1_555 1_555
H60 C61 1_555 1_555
C62 C61 1_555 1_555
H61 C62 1_555 1_555
C63 C58 1_555 1_555
H62 C63 1_555 1_555
N3 C55 1_555 1_555
O3 C43 1_555 1_555
H63 O3 1_555 1_555
C64 C65 1_555 1_555
C65 H64 1_555 1_555
C66 C65 1_555 1_555
H65 C66 1_555 1_555
H66 C66 1_555 1_555
C67 C66 1_555 1_555
H67 C67 1_555 1_555
H68 C67 1_555 1_555
H69 C67 1_555 1_555
C68 C65 1_555 1_555
C69 C68 1_555 1_555
H70 C69 1_555 1_555
C70 C69 1_555 1_555
H71 C70 1_555 1_555
C71 C70 1_555 1_555
H72 C71 1_555 1_555
C72 C71 1_555 1_555
H73 C72 1_555 1_555
C73 C68 1_555 1_555
H74 C73 1_555 1_555
C74 C64 1_555 1_555
C75 C74 1_555 1_555
H75 C75 1_555 1_555
C76 C75 1_555 1_555
H76 C76 1_555 1_555
C77 H77 1_555 1_555
C78 C74 1_555 1_555
H78 C78 1_555 1_555
C79 C64 1_555 1_555
C80 C79 1_555 1_555
H79 C80 1_555 1_555
C81 C80 1_555 1_555
H80 C81 1_555 1_555
C82 C81 1_555 1_555
H81 C82 1_555 1_555
C83 C82 1_555 1_555
H82 C83 1_555 1_555
C84 C79 1_555 1_555
H83 C84 1_555 1_555
N4 C76 1_555 1_555
O4 C64 1_555 1_555
H84 O4 1_555 1_555
C9 C10 1_555 1_555
C14 C15 1_555 1_555
C14 N1 1_555 1_555
C20 C21 1_555 1_555
C30 C31 1_555 1_555
C35 C36 1_555 1_555
C35 N2 1_555 1_555
C41 C42 1_555 1_555
C51 C52 1_555 1_555
C56 C57 1_555 1_555
C56 N3 1_555 1_555
C62 C63 1_555 1_555
C72 C73 1_555 1_555
C77 C78 1_555 1_555
C77 N4 1_555 1_555
C83 C84 1_555 1_555

#END
