
#######################################################################
#
#                 Cambridge Crystallographic Data Centre
#                                CCDC 
#
#######################################################################
#
# If this CIF has been generated from an entry in the Cambridge 
# Structural Database, then it will include bibliographic, chemical, 
# crystal, experimental, refinement or atomic coordinate data resulting 
# from the CCDC's data processing and validation procedures.
#
#######################################################################

data_XEQBAZ
_chemical_name_common            gene603
_chemical_formula_moiety         'C22 H21 F1 O1'
_chemical_name_systematic        1-(4-fluorophenyl)-1,2-diphenylbutan-1-ol
_symmetry_cell_setting           orthorhombic
_symmetry_space_group_name_H-M   'P 21 21 21'
_symmetry_Int_Tables_number      19
_space_group_name_Hall           'P 2ac 2ab'
loop_
_symmetry_equiv_pos_site_id
_symmetry_equiv_pos_as_xyz
1 x,y,z
2 1/2-x,-y,1/2+z
3 -x,1/2+y,1/2-z
4 1/2+x,1/2-y,-z
_cell_length_a                   5.8984(3)
_cell_length_b                   16.5715(8)
_cell_length_c                   17.3993(8)
_cell_angle_alpha                90
_cell_angle_beta                 90
_cell_angle_gamma                90
_cell_volume                     1700.7
_exptl_crystal_colour            colorless
_exptl_crystal_description       rod
_cell_formula_units_Z            4
loop_
_atom_site_label
_atom_site_type_symbol
_atom_site_fract_x
_atom_site_fract_y
_atom_site_fract_z
C1 C 0.4006(4) 0.39787(17) 0.72312(15)
C2 C 0.2558(5) 0.38900(17) 0.64819(14)
H1 H 0.0937 0.3959 0.6636
C3 C 0.2749(5) 0.30516(17) 0.61079(15)
H2 H 0.4319 0.2971 0.5922
H3 H 0.2434 0.2633 0.6500
C4 C 0.1115(5) 0.29467(19) 0.54397(15)
H4 H -0.0433 0.3059 0.5613
H5 H 0.1205 0.2392 0.5248
H6 H 0.1521 0.3322 0.5027
C5 C 0.3082(5) 0.45570(17) 0.59021(15)
C6 C 0.1516(5) 0.51629(18) 0.57634(15)
H7 H 0.0131 0.5170 0.6042
C7 C 0.1944(5) 0.57604(19) 0.52216(16)
H8 H 0.0849 0.6170 0.5132
C8 C 0.3944(5) 0.57615(19) 0.48154(16)
H9 H 0.4235 0.6170 0.4445
C9 C 0.5531(5) 0.51619(19) 0.49508(15)
H10 H 0.6921 0.5161 0.4675
C10 C 0.5097(5) 0.45649(18) 0.54856(14)
H11 H 0.6191 0.4154 0.5570
C11 C 0.3673(5) 0.48281(17) 0.75479(14)
C12 C 0.1639(5) 0.50290(17) 0.79052(15)
H12 H 0.0514 0.4625 0.7976
C13 C 0.1226(5) 0.58054(18) 0.81589(16)
H13 H -0.0159 0.5940 0.8406
C14 C 0.2869(5) 0.63751(17) 0.80434(15)
C15 C 0.4895(5) 0.62106(18) 0.76952(15)
H14 H 0.6000 0.6621 0.7626
C16 C 0.5294(5) 0.54270(18) 0.74454(15)
H15 H 0.6690 0.5299 0.7202
C17 C 0.3446(5) 0.33487(16) 0.78506(14)
C18 C 0.1362(5) 0.29582(17) 0.79056(15)
H16 H 0.0179 0.3098 0.7560
C19 C 0.0986(5) 0.23680(17) 0.84582(15)
H17 H -0.0437 0.2100 0.8481
C20 C 0.2677(5) 0.21693(17) 0.89747(15)
H18 H 0.2431 0.1758 0.9346
C21 C 0.4732(5) 0.25725(18) 0.89475(15)
H19 H 0.5889 0.2446 0.9308
C22 C 0.5102(5) 0.31610(16) 0.83946(15)
H20 H 0.6507 0.3441 0.8386
O1 O 0.6373(3) 0.39017(12) 0.70381(10)
H21 H 0.6656 0.3421 0.6920
F1 F 0.2460(3) 0.71513(9) 0.82911(9)
loop_
_geom_bond_atom_site_label_1
_geom_bond_atom_site_label_2
_geom_bond_site_symmetry_1
_geom_bond_site_symmetry_2
C1 C2 1_555 1_555
C2 H1 1_555 1_555
C3 C2 1_555 1_555
H2 C3 1_555 1_555
H3 C3 1_555 1_555
C4 C3 1_555 1_555
H4 C4 1_555 1_555
H5 C4 1_555 1_555
H6 C4 1_555 1_555
C5 C2 1_555 1_555
C6 C5 1_555 1_555
H7 C6 1_555 1_555
C7 C6 1_555 1_555
H8 C7 1_555 1_555
C8 C7 1_555 1_555
H9 C8 1_555 1_555
C9 C8 1_555 1_555
H10 C9 1_555 1_555
C10 C5 1_555 1_555
H11 C10 1_555 1_555
C11 C1 1_555 1_555
C12 C11 1_555 1_555
H12 C12 1_555 1_555
C13 C12 1_555 1_555
H13 C13 1_555 1_555
C14 C13 1_555 1_555
C15 C14 1_555 1_555
H14 C15 1_555 1_555
C16 C11 1_555 1_555
H15 C16 1_555 1_555
C17 C1 1_555 1_555
C18 C17 1_555 1_555
H16 C18 1_555 1_555
C19 C18 1_555 1_555
H17 C19 1_555 1_555
C20 C19 1_555 1_555
H18 C20 1_555 1_555
C21 C20 1_555 1_555
H19 C21 1_555 1_555
C22 C17 1_555 1_555
H20 C22 1_555 1_555
O1 C1 1_555 1_555
H21 O1 1_555 1_555
F1 C14 1_555 1_555
C9 C10 1_555 1_555
C15 C16 1_555 1_555
C21 C22 1_555 1_555

#END
