
#######################################################################
#
#                 Cambridge Crystallographic Data Centre
#                                CCDC 
#
#######################################################################
#
# If this CIF has been generated from an entry in the Cambridge 
# Structural Database, then it will include bibliographic, chemical, 
# crystal, experimental, refinement or atomic coordinate data resulting 
# from the CCDC's data processing and validation procedures.
#
#######################################################################

data_XEQCII
_chemical_name_common            
4,9-dihydro-o-benzeno-2-(4-diphenylaminophenyl)-2H-naphtho[2,3-d][1,2,3]triazole
_chemical_formula_moiety         'C34 H24 N4'
_chemical_name_systematic        
N,N-diphenyl-4-(16,17,18-triazapentacyclo[6.6.5.0^2,7^.0^9,14^.0^15,19^]nonadeca-2,4,6,9,11,13,15,18-octaen-17-yl)aniline
_symmetry_cell_setting           triclinic
_symmetry_space_group_name_H-M   'P -1'
_symmetry_Int_Tables_number      2
_space_group_name_Hall           '-P 1'
loop_
_symmetry_equiv_pos_site_id
_symmetry_equiv_pos_as_xyz
1 x,y,z
2 -x,-y,-z
_cell_length_a                   10.0263(3)
_cell_length_b                   11.7330(4)
_cell_length_c                   12.6803(5)
_cell_angle_alpha                62.652(4)
_cell_angle_beta                 89.104(3)
_cell_angle_gamma                72.806(3)
_cell_volume                     1253
_exptl_crystal_colour            brown
_exptl_crystal_description       block
_cell_formula_units_Z            2
_exptl_crystal_recrystallization_method 'pentane / chloroform'
_exptl_crystal_preparation       'preparation details are provided in the paper'
loop_
_atom_site_label
_atom_site_type_symbol
_atom_site_fract_x
_atom_site_fract_y
_atom_site_fract_z
N1 N 0.54293(9) 0.27418(9) 0.43709(8)
N2 N 0.56556(9) 0.39262(9) 0.36360(8)
N3 N 0.62215(9) 0.16392(9) 0.42762(8)
N4 N 0.15895(9) 0.23945(10) 0.76998(8)
C1 C 0.66308(10) 0.35555(10) 0.30393(9)
C2 C 0.69807(11) 0.21615(11) 0.34329(9)
C3 C 0.44792(10) 0.26473(11) 0.52218(9)
C4 C 0.03663(11) 0.21296(11) 0.74662(10)
C5 C 0.74736(11) 0.42570(10) 0.21052(9)
H1 H 0.7218 0.5233 0.1828
C6 C 0.42586(11) 0.14128(11) 0.59246(10)
H2 H 0.4742 0.0651 0.5849
C7 C 0.99975(11) 0.39660(11) 0.28878(10)
H3 H 0.9768 0.4893 0.2616
C8 C 0.90055(11) 0.34391(11) 0.27139(9)
C9 C 0.20370(11) 0.22082(10) 0.88386(9)
C10 C 1.06937(11) 0.11702(11) 0.37134(10)
H4 H 1.0924 0.0242 0.3991
C11 C 0.76376(11) 0.24920(11) 0.15122(10)
C12 C 1.16900(11) 0.17048(12) 0.38874(10)
H5 H 1.2591 0.1129 0.4282
C13 C -0.01904(11) 0.12476(11) 0.83788(10)
H6 H 0.0237 0.0825 0.9169
C14 C 0.10548(12) 0.26021(11) 0.95068(10)
H7 H 0.0100 0.2986 0.9202
C15 C 0.72860(11) 0.38894(11) 0.11144(10)
C16 C 0.33062(11) 0.13392(11) 0.67395(10)
H8 H 0.3145 0.0522 0.7209
C17 C 1.13488(12) 0.30889(12) 0.34771(10)
H9 H 1.2023 0.3435 0.3595
C18 C 0.81512(11) 0.16043(11) 0.28628(10)
H10 H 0.8397 0.0628 0.3145
C19 C 0.93560(11) 0.20377(11) 0.31221(9)
C20 C 0.28380(11) 0.36925(11) 0.61673(10)
H11 H 0.2369 0.4450 0.6255
C21 C -0.13783(12) 0.09936(11) 0.81186(10)
H12 H -0.1739 0.0403 0.8736
C22 C 0.37799(11) 0.37896(11) 0.53427(10)
H13 H 0.3943 0.4607 0.4876
C23 C 0.25880(11) 0.24746(11) 0.68648(9)
C24 C 0.74948(12) 0.20293(13) 0.07047(11)
H14 H 0.7726 0.1105 0.0963
C25 C 0.68111(11) 0.48153(12) -0.00818(10)
H15 H 0.6587 0.5740 -0.0344
C26 C -0.02907(12) 0.27440(12) 0.62853(10)
H16 H 0.0068 0.3333 0.5664
C27 C 0.14989(13) 0.24219(12) 1.06197(10)
H17 H 0.0838 0.2684 1.1056
C28 C -0.20318(12) 0.16125(12) 0.69471(11)
H18 H -0.2832 0.1448 0.6775
C29 C 0.34679(12) 0.16706(11) 0.92997(10)
H19 H 0.4136 0.1428 0.8858
C30 C 0.66719(12) 0.43426(14) -0.08918(11)
H20 H 0.6356 0.4958 -0.1699
C31 C 0.38981(13) 0.14963(12) 1.04166(11)
H21 H 0.4853 0.1136 1.0716
C32 C 0.69994(12) 0.29693(14) -0.05026(11)
H22 H 0.6890 0.2668 -0.1048
C33 C -0.14726(12) 0.24819(13) 0.60342(11)
H23 H -0.1897 0.2893 0.5244
C34 C 0.29209(13) 0.18531(12) 1.10889(11)
H24 H 0.3213 0.1714 1.1844
loop_
_geom_bond_atom_site_label_1
_geom_bond_atom_site_label_2
_geom_bond_site_symmetry_1
_geom_bond_site_symmetry_2
N1 N2 1_555 1_555
N2 C1 1_555 1_555
N3 N1 1_555 1_555
N4 C4 1_555 1_555
C1 C2 1_555 1_555
C2 N3 1_555 1_555
C3 N1 1_555 1_555
C4 C13 1_555 1_555
C5 C1 1_555 1_555
H1 C5 1_555 1_555
C6 C3 1_555 1_555
H2 C6 1_555 1_555
C7 H3 1_555 1_555
C8 C5 1_555 1_555
C9 N4 1_555 1_555
C10 H4 1_555 1_555
C11 C15 1_555 1_555
C12 C10 1_555 1_555
H5 C12 1_555 1_555
C13 H6 1_555 1_555
C14 C9 1_555 1_555
H7 C14 1_555 1_555
C15 C5 1_555 1_555
C16 C6 1_555 1_555
H8 C16 1_555 1_555
C17 C7 1_555 1_555
H9 C17 1_555 1_555
C18 C2 1_555 1_555
H10 C18 1_555 1_555
C19 C8 1_555 1_555
C20 H11 1_555 1_555
C21 C13 1_555 1_555
H12 C21 1_555 1_555
C22 C3 1_555 1_555
H13 C22 1_555 1_555
C23 N4 1_555 1_555
C24 C11 1_555 1_555
H14 C24 1_555 1_555
C25 C15 1_555 1_555
H15 C25 1_555 1_555
C26 C4 1_555 1_555
H16 C26 1_555 1_555
C27 C14 1_555 1_555
H17 C27 1_555 1_555
C28 C21 1_555 1_555
H18 C28 1_555 1_555
C29 C9 1_555 1_555
H19 C29 1_555 1_555
C30 C25 1_555 1_555
H20 C30 1_555 1_555
C31 C29 1_555 1_555
H21 C31 1_555 1_555
C32 C24 1_555 1_555
H22 C32 1_555 1_555
C33 C26 1_555 1_555
H23 C33 1_555 1_555
C34 C27 1_555 1_555
H24 C34 1_555 1_555
C7 C8 1_555 1_555
C10 C19 1_555 1_555
C11 C18 1_555 1_555
C12 C17 1_555 1_555
C16 C23 1_555 1_555
C18 C19 1_555 1_555
C20 C22 1_555 1_555
C20 C23 1_555 1_555
C28 C33 1_555 1_555
C30 C32 1_555 1_555
C31 C34 1_555 1_555

#END
