
#######################################################################
#
#                 Cambridge Crystallographic Data Centre
#                                CCDC 
#
#######################################################################
#
# If this CIF has been generated from an entry in the Cambridge 
# Structural Database, then it will include bibliographic, chemical, 
# crystal, experimental, refinement or atomic coordinate data resulting 
# from the CCDC's data processing and validation procedures.
#
#######################################################################

data_XEQCEE
_chemical_name_common            
'4,9-dihydro-o-benzeno-2-(4-nitrophenyl)-2H-naphtho[2,3-d][1,2,3]triazole unknown solvate'
_chemical_formula_moiety         'C22 H14 N4 O2'
_chemical_name_systematic        
'17-(4-nitrophenyl)-16,17,18-triazapentacyclo[6.6.5.0^2,7^.0^9,14^.0^15,19^]nonadeca-2,4,6,9,11,13,15,18-octaene unknown solvate'
_symmetry_cell_setting           tetragonal
_symmetry_space_group_name_H-M   'I 4/m'
_symmetry_Int_Tables_number      87
_space_group_name_Hall           '-I 4'
loop_
_symmetry_equiv_pos_site_id
_symmetry_equiv_pos_as_xyz
1 x,y,z
2 -x,-y,z
3 -y,x,z
4 y,-x,z
5 1/2+x,1/2+y,1/2+z
6 1/2-x,1/2-y,1/2+z
7 1/2-y,1/2+x,1/2+z
8 1/2+y,1/2-x,1/2+z
9 -x,-y,-z
10 x,y,-z
11 y,-x,-z
12 -y,x,-z
13 1/2-x,1/2-y,1/2-z
14 1/2+x,1/2+y,1/2-z
15 1/2+y,1/2-x,1/2-z
16 1/2-y,1/2+x,1/2-z
_cell_length_a                   17.90460(10)
_cell_length_b                   17.90460(10)
_cell_length_c                   11.24520(10)
_cell_angle_alpha                90
_cell_angle_beta                 90
_cell_angle_gamma                90
_cell_volume                     3604.93
_exptl_crystal_colour            yellow
_exptl_crystal_description       block
_cell_formula_units_Z            8
_exptl_crystal_recrystallization_method pentane/chloroform
_exptl_crystal_preparation       'preparation details are provided in the paper'
loop_
_atom_site_label
_atom_site_type_symbol
_atom_site_fract_x
_atom_site_fract_y
_atom_site_fract_z
N1 N 0.83191(7) 0.69789(7) 0.5000
O1 O 0.48646(5) 0.71113(6) 0.40358(9)
N2 N 0.87241(5) 0.69733(5) 0.60247(8)
N3 N 0.51899(8) 0.71065(9) 0.5000
C1 C 0.94165(6) 0.69591(6) 0.56261(9)
C2 C 1.05521(6) 0.62603(6) 0.56254(9)
C3 C 1.05685(6) 0.76299(6) 0.56250(10)
C4 C 1.01832(6) 0.69501(6) 0.61826(10)
C5 C 0.75338(8) 0.70276(8) 0.5000
C6 C 1.08395(6) 0.56590(6) 0.62485(10)
C7 C 0.60062(9) 0.70984(9) 0.5000
C8 C 1.08651(6) 0.82274(6) 0.62494(12)
C9 C 0.63807(7) 0.70860(7) 0.39209(10)
C10 C 0.71518(6) 0.70485(6) 0.39206(10)
C11 C 1.11191(6) 0.50477(6) 0.56160(10)
C12 C 1.11610(6) 0.88308(7) 0.56163(13)
H1 H 1.0181(7) 0.6953(7) 0.7081(13)
H2 H 1.1323(8) 0.4623(8) 0.6015(13)
H3 H 1.0845(8) 0.5662(8) 0.7134(13)
H4 H 1.0837(8) 0.8222(8) 0.7143(13)
H5 H 0.7427(8) 0.7028(8) 0.3192(14)
H6 H 0.6086(9) 0.7091(8) 0.3173(14)
H7 H 1.1353(9) 0.9261(10) 0.6044(14)
O1I O 0.48646(5) 0.71113(6) 0.59642(9)
N2I N 0.87241(5) 0.69733(5) 0.39753(8)
C1I C 0.94165(6) 0.69591(6) 0.43739(9)
C2I C 1.05521(6) 0.62603(6) 0.43746(9)
C3I C 1.05685(6) 0.76299(6) 0.43750(10)
C4I C 1.01832(6) 0.69501(6) 0.38174(10)
C6I C 1.08395(6) 0.56590(6) 0.37515(10)
C8I C 1.08651(6) 0.82274(6) 0.37506(12)
C9I C 0.63807(7) 0.70860(7) 0.60791(10)
C10I C 0.71518(6) 0.70485(6) 0.60794(10)
C11I C 1.11191(6) 0.50477(6) 0.43840(10)
C12I C 1.11610(6) 0.88308(7) 0.43837(13)
H1I H 1.0181(7) 0.6953(7) 0.2919(13)
H2I H 1.1323(8) 0.4623(8) 0.3985(13)
H3I H 1.0845(8) 0.5662(8) 0.2866(13)
H4I H 1.0837(8) 0.8222(8) 0.2857(13)
H5I H 0.7427(8) 0.7028(8) 0.6808(14)
H6I H 0.6086(9) 0.7091(8) 0.6827(14)
H7I H 1.1353(9) 0.9261(10) 0.3956(14)
loop_
_geom_bond_atom_site_label_1
_geom_bond_atom_site_label_2
_geom_bond_site_symmetry_1
_geom_bond_site_symmetry_2
N1 N2 1_555 1_555
O1 N3 1_555 1_555
N2 C1 1_555 1_555
N3 C7 1_555 1_555
C1 C4 1_555 1_555
C2 C4 1_555 1_555
C3 C4 1_555 1_555
C4 H1 1_555 1_555
C5 N1 1_555 1_555
C6 C2 1_555 1_555
C7 C9 1_555 1_555
C8 C3 1_555 1_555
C9 C10 1_555 1_555
C10 C5 1_555 1_555
C11 C6 1_555 1_555
C12 C8 1_555 1_555
H2 C11 1_555 1_555
H3 C6 1_555 1_555
H4 C8 1_555 1_555
H5 C10 1_555 1_555
H6 C9 1_555 1_555
H7 C12 1_555 1_555
O1I N3 1_555 1_555
N2I N1 1_555 1_555
C1I C1 1_555 1_555
C2I C2 1_555 1_555
C3I C3 1_555 1_555
C4I C1I 1_555 1_555
C6I C2I 1_555 1_555
C8I C3I 1_555 1_555
C9I C7 1_555 1_555
C10I C5 1_555 1_555
C11I C11 1_555 1_555
C12I C12 1_555 1_555
H1I C4I 1_555 1_555
H2I C11I 1_555 1_555
H3I C6I 1_555 1_555
H4I C8I 1_555 1_555
H5I C10I 1_555 1_555
H6I C9I 1_555 1_555
H7I C12I 1_555 1_555
N2I C1I 1_555 1_555
C2I C4I 1_555 1_555
C3I C4I 1_555 1_555
C6I C11I 1_555 1_555
C8I C12I 1_555 1_555
C9I C10I 1_555 1_555

#END
