
#######################################################################
#
#                 Cambridge Crystallographic Data Centre
#                                CCDC 
#
#######################################################################
#
# If this CIF has been generated from an entry in the Cambridge 
# Structural Database, then it will include bibliographic, chemical, 
# crystal, experimental, refinement or atomic coordinate data resulting 
# from the CCDC's data processing and validation procedures.
#
#######################################################################

data_XEQQIW
_chemical_formula_moiety         'C23 H14 N4'
_chemical_name_systematic        
4-(16,17,18-triazapentacyclo[6.6.5.0^2,7^.0^9,14^.0^15,19^]nonadeca-2,4,6,9,11,13,15,18-octaen-17-yl)benzonitrile
_symmetry_cell_setting           monoclinic
_symmetry_space_group_name_H-M   'P 21/c'
_symmetry_Int_Tables_number      14
_space_group_name_Hall           '-P 2ybc'
loop_
_symmetry_equiv_pos_site_id
_symmetry_equiv_pos_as_xyz
1 x,y,z
2 -x,1/2+y,1/2-z
3 -x,-y,-z
4 x,1/2-y,1/2+z
_cell_length_a                   16.8292(4)
_cell_length_b                   6.41330(10)
_cell_length_c                   15.5696(4)
_cell_angle_alpha                90
_cell_angle_beta                 96.104(2)
_cell_angle_gamma                90
_cell_volume                     1670.91
_exptl_crystal_colour            white
_exptl_crystal_description       block
_cell_formula_units_Z            4
_exptl_crystal_recrystallization_method 
'prepared by slow diffusion of pentane into a chloroform solution of this material'
_exptl_crystal_preparation       'preparation details are provided in the paper'
loop_
_atom_site_label
_atom_site_type_symbol
_atom_site_fract_x
_atom_site_fract_y
_atom_site_fract_z
N1 N 0.64683(5) 0.36878(14) 0.79776(6)
N2 N 0.65657(5) 0.15897(14) 0.79824(6)
N3 N 0.70507(5) 0.48010(15) 0.76446(6)
N4 N 0.35178(6) 0.88317(18) 0.97167(8)
C1 C 0.72445(6) 0.13701(16) 0.76325(7)
C2 C 0.58344(6) 0.46895(17) 0.83390(7)
C3 C 0.75375(6) 0.33318(17) 0.74221(7)
C4 C 0.88767(6) 0.20827(17) 0.77037(7)
C5 C 0.83210(6) 0.32799(17) 0.70315(7)
H1 H 0.8525 0.4684 0.6881
C6 C 0.85855(6) 0.01120(17) 0.79075(7)
C7 C 0.45168(7) 0.46038(18) 0.87962(7)
H2 H 0.4037 0.3876 0.8868
C8 C 0.81671(6) 0.17904(18) 0.62594(7)
C9 C 0.78669(6) -0.01639(18) 0.64707(7)
C10 C 0.46046(7) 0.66887(18) 0.90531(7)
C11 C 0.77667(6) -0.04337(17) 0.74313(7)
H3 H 0.7557 -0.1830 0.7584
C12 C 0.51313(6) 0.36039(17) 0.84365(7)
H4 H 0.5075 0.2191 0.8258
C13 C 0.53108(7) 0.77566(18) 0.89486(7)
H5 H 0.5369 0.9172 0.9124
C14 C 0.90295(7) -0.11555(19) 0.84969(7)
H6 H 0.8840 -0.2503 0.8626
C15 C 0.76748(6) -0.16507(19) 0.58383(8)
H7 H 0.7462 -0.2963 0.5981
C16 C 0.59259(7) 0.67643(18) 0.85909(7)
H8 H 0.6406 0.7491 0.8518
C17 C 0.96007(7) 0.27983(18) 0.81055(7)
H9 H 0.9797 0.4134 0.7969
C18 C 0.82854(7) 0.2243(2) 0.54136(7)
H10 H 0.8487 0.3565 0.5267
C19 C 0.39824(7) 0.78129(19) 0.94233(8)
C20 C 1.00371(7) 0.1529(2) 0.87122(7)
H11 H 1.0529 0.2014 0.8999
C21 C 0.78002(7) -0.1185(2) 0.49858(8)
H12 H 0.7675 -0.2195 0.4546
C22 C 0.97580(7) -0.0434(2) 0.88995(7)
H13 H 1.0065 -0.1296 0.9305
C23 C 0.81041(7) 0.0728(2) 0.47768(8)
H14 H 0.8190 0.1018 0.4196
loop_
_geom_bond_atom_site_label_1
_geom_bond_atom_site_label_2
_geom_bond_site_symmetry_1
_geom_bond_site_symmetry_2
N1 N2 1_555 1_555
N2 C1 1_555 1_555
N3 N1 1_555 1_555
N4 C19 1_555 1_555
C1 C3 1_555 1_555
C2 N1 1_555 1_555
C3 N3 1_555 1_555
C4 C5 1_555 1_555
C5 C3 1_555 1_555
H1 C5 1_555 1_555
C6 C4 1_555 1_555
C7 H2 1_555 1_555
C8 C5 1_555 1_555
C9 C8 1_555 1_555
C10 C7 1_555 1_555
C11 C1 1_555 1_555
H3 C11 1_555 1_555
C12 C2 1_555 1_555
H4 C12 1_555 1_555
C13 C10 1_555 1_555
H5 C13 1_555 1_555
C14 C6 1_555 1_555
H6 C14 1_555 1_555
C15 C9 1_555 1_555
H7 C15 1_555 1_555
C16 C2 1_555 1_555
H8 C16 1_555 1_555
C17 C4 1_555 1_555
H9 C17 1_555 1_555
C18 C8 1_555 1_555
H10 C18 1_555 1_555
C19 C10 1_555 1_555
C20 C17 1_555 1_555
H11 C20 1_555 1_555
C21 C15 1_555 1_555
H12 C21 1_555 1_555
C22 C14 1_555 1_555
H13 C22 1_555 1_555
C23 C18 1_555 1_555
H14 C23 1_555 1_555
C6 C11 1_555 1_555
C7 C12 1_555 1_555
C9 C11 1_555 1_555
C13 C16 1_555 1_555
C20 C22 1_555 1_555
C21 C23 1_555 1_555

#END
