
#######################################################################
#
#                 Cambridge Crystallographic Data Centre
#                                CCDC 
#
#######################################################################
#
# If this CIF has been generated from an entry in the Cambridge 
# Structural Database, then it will include bibliographic, chemical, 
# crystal, experimental, refinement or atomic coordinate data resulting 
# from the CCDC's data processing and validation procedures.
#
#######################################################################

data_XERCUV
_chemical_formula_moiety         'C27 H20 Br1 F3 O2'
_chemical_name_systematic        
'methyl 2-{[5-bromo-3-phenyl-1-(trifluoromethyl)-1H-inden-1-yl]methyl}-3-phenylprop-2-enoate'
_symmetry_cell_setting           monoclinic
_symmetry_space_group_name_H-M   'P 21'
_symmetry_Int_Tables_number      4
_space_group_name_Hall           'P 2yb'
loop_
_symmetry_equiv_pos_site_id
_symmetry_equiv_pos_as_xyz
1 x,y,z
2 -x,1/2+y,-z
_cell_length_a                   15.066(2)
_cell_length_b                   8.9311(15)
_cell_length_c                   18.428(3)
_cell_angle_alpha                90
_cell_angle_beta                 109.998(5)
_cell_angle_gamma                90
_cell_volume                     2330.09
_exptl_crystal_colour            colorless
_exptl_crystal_description       block
_cell_formula_units_Z            4
loop_
_atom_site_label
_atom_site_type_symbol
_atom_site_fract_x
_atom_site_fract_y
_atom_site_fract_z
Br1 Br 0.98616(4) 0.77912(9) 0.78207(3)
F1 F 0.5649(2) 0.7324(4) 0.5176(2)
F2 F 0.4960(2) 0.8673(4) 0.4187(2)
F3 F 0.5294(2) 0.9574(4) 0.53244(19)
O1 O 0.6819(3) 1.0576(5) 0.3146(2)
O2 O 0.8378(3) 1.0622(4) 0.3756(2)
C1 C 0.9171(4) 0.6100(6) 0.4774(3)
H1 H 0.9523 0.6587 0.5227
C2 C 0.9618(4) 0.5116(6) 0.4428(3)
H2 H 1.0260 0.4931 0.4664
C3 C 0.9149(4) 0.4432(7) 0.3765(3)
H3 H 0.9464 0.3802 0.3532
C4 C 0.8201(4) 0.4666(7) 0.3432(3)
H4 H 0.7864 0.4182 0.2974
C5 C 0.7745(4) 0.5622(6) 0.3774(3)
H5 H 0.7099 0.5775 0.3538
C6 C 0.8215(3) 0.6365(5) 0.4458(3)
C7 C 0.7706(3) 0.7429(5) 0.4784(2)
C8 C 0.6901(3) 0.8117(6) 0.4388(3)
H6 H 0.6577 0.7948 0.3866
C9 C 0.6567(3) 0.9191(5) 0.4866(3)
C10 C 0.7325(3) 0.9011(5) 0.5651(3)
C11 C 0.7983(3) 0.7932(6) 0.5599(2)
C12 C 0.8726(3) 0.7547(6) 0.6256(3)
H7 H 0.9161 0.6822 0.6237
C13 C 0.8812(4) 0.8259(6) 0.6939(3)
C14 C 0.8171(4) 0.9336(6) 0.6985(3)
H8 H 0.8247 0.9815 0.7451
C15 C 0.7423(3) 0.9685(6) 0.6334(3)
H9 H 0.6981 1.0388 0.6361
C16 C 0.6502(3) 1.0844(6) 0.4581(3)
H10 H 0.5977 1.0940 0.4099
H11 H 0.6381 1.1493 0.4958
C17 C 0.7388(4) 1.1335(6) 0.4460(3)
C18 C 0.8070(4) 1.2180(6) 0.4928(3)
H12 H 0.8594 1.2335 0.4780
C19 C 0.8097(4) 1.2904(7) 0.5658(3)
C20 C 0.7353(4) 1.3727(7) 0.5725(4)
H13 H 0.6805 1.3847 0.5300
C21 C 0.7425(5) 1.4374(7) 0.6423(5)
H14 H 0.6920 1.4917 0.6469
C22 C 0.8234(7) 1.4218(8) 0.7045(4)
H15 H 0.8277 1.4658 0.7514
C23 C 0.8979(5) 1.3421(8) 0.6985(4)
H16 H 0.9526 1.3304 0.7412
C24 C 0.8911(4) 1.2795(7) 0.6288(3)
H17 H 0.9428 1.2286 0.6240
C25 C 0.7486(5) 1.0814(6) 0.3721(3)
C26 C 0.8536(4) 1.0151(8) 0.3058(3)
H18 H 0.9202 1.0076 0.3155
H19 H 0.8265 1.0872 0.2656
H20 H 0.8246 0.9193 0.2899
C27 C 0.5617(4) 0.8697(8) 0.4880(4)
Br2 Br 1.52315(4) 0.46905(9) 1.28650(3)
F4 F 1.0700(2) 0.4998(5) 1.0656(2)
F5 F 1.0612(2) 0.7324(4) 1.0884(2)
F6 F 1.0000(2) 0.6496(4) 0.9729(2)
O3 O 1.2118(2) 0.7772(5) 0.85575(19)
O4 O 1.3654(2) 0.7701(5) 0.92542(17)
C28 C 1.3880(5) 0.3432(6) 0.9650(3)
H21 H 1.4323 0.3999 1.0025
C29 C 1.4189(5) 0.2440(7) 0.9203(4)
H22 H 1.4831 0.2340 0.9287
C30 C 1.3557(7) 0.1629(8) 0.8652(4)
H23 H 1.3763 0.0983 0.8346
C31 C 1.2603(7) 0.1744(8) 0.8535(4)
H24 H 1.2169 0.1168 0.8159
C32 C 1.2301(4) 0.2722(7) 0.8982(3)
H25 H 1.1658 0.2797 0.8901
C33 C 1.2929(4) 0.3594(6) 0.9549(3)
C34 C 1.2589(4) 0.4708(6) 0.9980(2)
C35 C 1.1792(4) 0.5494(6) 0.9677(3)
H26 H 1.1369 0.5363 0.9178
C36 C 1.1661(3) 0.6628(6) 1.0246(2)
C37 C 1.2515(4) 0.6296(6) 1.0955(3)
C38 C 1.3067(4) 0.5178(6) 1.0793(3)
C39 C 1.3880(3) 0.4699(7) 1.1350(3)
H27 H 1.4254 0.3958 1.1249
C40 C 1.4123(4) 0.5365(7) 1.2074(3)
C41 C 1.3589(4) 0.6472(7) 1.2235(3)
H28 H 1.3776 0.6903 1.2724
C42 C 1.2783(4) 0.6941(6) 1.1676(3)
H29 H 1.2416 0.7692 1.1781
C43 C 1.1689(3) 0.8269(5) 0.9954(3)
H30 H 1.1181 0.8403 0.9465
H31 H 1.1589 0.8965 1.0322
C44 C 1.2609(4) 0.8613(6) 0.9853(2)
C45 C 1.3288(3) 0.9479(6) 1.0316(2)
H32 H 1.3829 0.9577 1.0185
C46 C 1.3288(4) 1.0313(6) 1.1021(3)
C47 C 1.2540(4) 1.1185(6) 1.1039(3)
H33 H 1.2008 1.1270 1.0598
C48 C 1.2567(5) 1.1926(6) 1.1696(4)
H34 H 1.2060 1.2517 1.1698
C49 C 1.3339(6) 1.1796(8) 1.2346(4)
H35 H 1.3350 1.2284 1.2795
C50 C 1.4109(5) 1.0949(7) 1.2351(3)
H36 H 1.4637 1.0868 1.2796
C51 C 1.4076(4) 1.0223(6) 1.1676(3)
H37 H 1.4594 0.9667 1.1666
C52 C 1.2746(4) 0.7978(6) 0.9150(3)
C53 C 1.3830(4) 0.7054(7) 0.8592(3)
H38 H 1.4497 0.6910 0.8713
H39 H 1.3597 0.7719 0.8158
H40 H 1.3512 0.6108 0.8466
C54 C 1.0738(4) 0.6370(8) 1.0364(4)
loop_
_geom_bond_atom_site_label_1
_geom_bond_atom_site_label_2
_geom_bond_site_symmetry_1
_geom_bond_site_symmetry_2
Br1 C13 1_555 1_555
F1 C27 1_555 1_555
F2 C27 1_555 1_555
F3 C27 1_555 1_555
O1 C25 1_555 1_555
O2 C25 1_555 1_555
C1 H1 1_555 1_555
C2 C1 1_555 1_555
H2 C2 1_555 1_555
C3 C2 1_555 1_555
H3 C3 1_555 1_555
C4 C3 1_555 1_555
H4 C4 1_555 1_555
C5 C4 1_555 1_555
H5 C5 1_555 1_555
C6 C1 1_555 1_555
C7 C6 1_555 1_555
C8 C7 1_555 1_555
H6 C8 1_555 1_555
C9 C8 1_555 1_555
C10 C9 1_555 1_555
C11 C7 1_555 1_555
C12 C11 1_555 1_555
H7 C12 1_555 1_555
C13 C12 1_555 1_555
C14 C13 1_555 1_555
H8 C14 1_555 1_555
C15 C10 1_555 1_555
H9 C15 1_555 1_555
C16 C9 1_555 1_555
H10 C16 1_555 1_555
H11 C16 1_555 1_555
C17 C16 1_555 1_555
C18 C17 1_555 1_555
H12 C18 1_555 1_555
C19 C18 1_555 1_555
C20 C19 1_555 1_555
H13 C20 1_555 1_555
C21 C20 1_555 1_555
H14 C21 1_555 1_555
C22 C21 1_555 1_555
H15 C22 1_555 1_555
C23 C22 1_555 1_555
H16 C23 1_555 1_555
C24 C19 1_555 1_555
H17 C24 1_555 1_555
C25 C17 1_555 1_555
C26 O2 1_555 1_555
H18 C26 1_555 1_555
H19 C26 1_555 1_555
H20 C26 1_555 1_555
C27 C9 1_555 1_555
Br2 C40 1_555 1_555
F4 C54 1_555 1_555
F5 C54 1_555 1_555
F6 C54 1_555 1_555
O3 C52 1_555 1_555
O4 C52 1_555 1_555
C28 H21 1_555 1_555
C29 C28 1_555 1_555
H22 C29 1_555 1_555
C30 C29 1_555 1_555
H23 C30 1_555 1_555
C31 C30 1_555 1_555
H24 C31 1_555 1_555
C32 C31 1_555 1_555
H25 C32 1_555 1_555
C33 C28 1_555 1_555
C34 C33 1_555 1_555
C35 C34 1_555 1_555
H26 C35 1_555 1_555
C36 C35 1_555 1_555
C37 C36 1_555 1_555
C38 C34 1_555 1_555
C39 C38 1_555 1_555
H27 C39 1_555 1_555
C40 C39 1_555 1_555
C41 C40 1_555 1_555
H28 C41 1_555 1_555
C42 C37 1_555 1_555
H29 C42 1_555 1_555
C43 C36 1_555 1_555
H30 C43 1_555 1_555
H31 C43 1_555 1_555
C44 C43 1_555 1_555
C45 C44 1_555 1_555
H32 C45 1_555 1_555
C46 C45 1_555 1_555
C47 C46 1_555 1_555
H33 C47 1_555 1_555
C48 C47 1_555 1_555
H34 C48 1_555 1_555
C49 C48 1_555 1_555
H35 C49 1_555 1_555
C50 C49 1_555 1_555
H36 C50 1_555 1_555
C51 C46 1_555 1_555
H37 C51 1_555 1_555
C52 C44 1_555 1_555
C53 O4 1_555 1_555
H38 C53 1_555 1_555
H39 C53 1_555 1_555
H40 C53 1_555 1_555
C54 C36 1_555 1_555
C5 C6 1_555 1_555
C10 C11 1_555 1_555
C14 C15 1_555 1_555
C23 C24 1_555 1_555
C32 C33 1_555 1_555
C37 C38 1_555 1_555
C41 C42 1_555 1_555
C50 C51 1_555 1_555

#END
