
#######################################################################
#
#                 Cambridge Crystallographic Data Centre
#                                CCDC 
#
#######################################################################
#
# If this CIF has been generated from an entry in the Cambridge 
# Structural Database, then it will include bibliographic, chemical, 
# crystal, experimental, refinement or atomic coordinate data resulting 
# from the CCDC's data processing and validation procedures.
#
#######################################################################

data_XERFOP
_chemical_formula_moiety         'C24 H18 B1 N3'
_chemical_name_systematic        Diphenyl-(2-(2-pyridyl)-7-azaindolyl)-boron
_symmetry_cell_setting           orthorhombic
_symmetry_space_group_name_H-M   'P 21 21 21'
_symmetry_Int_Tables_number      19
_space_group_name_Hall           'P 2ac 2ab'
loop_
_symmetry_equiv_pos_site_id
_symmetry_equiv_pos_as_xyz
1 x,y,z
2 1/2-x,-y,1/2+z
3 1/2+x,1/2-y,-z
4 -x,1/2+y,1/2-z
_cell_length_a                   8.916(6)
_cell_length_b                   11.965(12)
_cell_length_c                   17.726(9)
_cell_angle_alpha                90
_cell_angle_beta                 90
_cell_angle_gamma                90
_cell_volume                     1891.01
_exptl_crystal_colour            colorless
_chemical_melting_point          '291-292 deg.C'
_cell_formula_units_Z            4
_exptl_crystal_recrystallization_method dichloromethane/hexane
loop_
_atom_site_label
_atom_site_type_symbol
_atom_site_fract_x
_atom_site_fract_y
_atom_site_fract_z
N1 N 0.0739(3) 0.6545(3) 0.3157(2)
N2 N -0.3365(4) 0.4267(3) 0.3601(2)
N3 N -0.0960(3) 0.5143(2) 0.3514(2)
C1 C -0.1872(5) 0.4283(3) 0.3703(2)
C2 C 0.1516(4) 0.5707(4) 0.3490(2)
C3 C -0.0984(6) 0.3412(3) 0.4026(2)
C4 C 0.0496(4) 0.4831(3) 0.3703(2)
C5 C -0.2016(4) 0.7200(3) 0.3462(2)
C6 C -0.1361(4) 0.5966(3) 0.2180(2)
C7 C -0.0290(5) 0.5413(3) 0.1753(2)
C8 C 0.3064(5) 0.5800(5) 0.3588(2)
C9 C -0.2363(5) 0.7130(3) 0.4226(2)
C10 C -0.2545(4) 0.8164(3) 0.3094(2)
C11 C 0.2943(5) 0.7613(5) 0.3028(2)
C12 C -0.3238(7) 0.2414(4) 0.4166(3)
C13 C 0.1421(5) 0.7486(4) 0.2928(2)
C14 C -0.3696(6) 0.8860(4) 0.4219(3)
B1 B -0.1042(5) 0.6246(3) 0.3057(2)
C15 C 0.0517(6) 0.3788(4) 0.4012(2)
C16 C -0.3209(5) 0.7934(4) 0.4595(3)
C17 C -0.0550(7) 0.5056(4) 0.1023(3)
C18 C -0.4018(6) 0.3324(4) 0.3838(2)
C19 C -0.2726(5) 0.6144(3) 0.1826(2)
C20 C 0.3743(5) 0.6767(5) 0.3347(3)
C21 C -0.2968(7) 0.5823(4) 0.1087(3)
C22 C -0.1745(7) 0.2459(4) 0.4265(3)
C23 C -0.3368(5) 0.8981(3) 0.3471(3)
C24 C -0.1886(8) 0.5275(4) 0.0690(3)
H1 H 0.0645 0.5276 0.1967
H2 H 0.3616 0.5227 0.3810
H3 H -0.2015 0.6519 0.4500
H4 H -0.2340 0.8259 0.2583
H5 H 0.3418 0.8268 0.2879
H6 H -0.3765 0.1780 0.4313
H7 H 0.0866 0.8053 0.2702
H8 H -0.4248 0.9404 0.4470
H9 H 0.1356 0.3400 0.4180
H10 H -0.3446 0.7841 0.5102
H11 H 0.0189 0.4668 0.0762
H12 H -0.5052 0.3262 0.3784
H13 H -0.3497 0.6488 0.2092
H14 H 0.4775 0.6846 0.3402
H15 H -0.3881 0.5984 0.0858
H16 H -0.1232 0.1867 0.4487
H17 H -0.3695 0.9612 0.3213
H18 H -0.2063 0.5053 0.0195
loop_
_geom_bond_atom_site_label_1
_geom_bond_atom_site_label_2
_geom_bond_site_symmetry_1
_geom_bond_site_symmetry_2
N1 C2 1_555 1_555
N2 C1 1_555 1_555
N3 C1 1_555 1_555
C1 C3 1_555 1_555
C2 C4 1_555 1_555
C3 C15 1_555 1_555
C4 N3 1_555 1_555
C5 C9 1_555 1_555
C6 C7 1_555 1_555
C7 C17 1_555 1_555
C8 C2 1_555 1_555
C9 C16 1_555 1_555
C10 C5 1_555 1_555
C11 C13 1_555 1_555
C12 C18 1_555 1_555
C13 N1 1_555 1_555
C14 C16 1_555 1_555
B1 N1 1_555 1_555
C15 C4 1_555 1_555
C16 H10 1_555 1_555
C17 C24 1_555 1_555
C18 N2 1_555 1_555
C19 C6 1_555 1_555
C20 C8 1_555 1_555
C21 C19 1_555 1_555
C22 C3 1_555 1_555
C23 C10 1_555 1_555
C24 C21 1_555 1_555
H1 C7 1_555 1_555
H2 C8 1_555 1_555
H3 C9 1_555 1_555
H4 C10 1_555 1_555
H5 C11 1_555 1_555
H6 C12 1_555 1_555
H7 C13 1_555 1_555
H8 C14 1_555 1_555
H9 C15 1_555 1_555
H11 C17 1_555 1_555
H12 C18 1_555 1_555
H13 C19 1_555 1_555
H14 C20 1_555 1_555
H15 C21 1_555 1_555
H16 C22 1_555 1_555
H17 C23 1_555 1_555
H18 C24 1_555 1_555
N3 B1 1_555 1_555
C5 B1 1_555 1_555
C6 B1 1_555 1_555
C11 C20 1_555 1_555
C12 C22 1_555 1_555
C14 C23 1_555 1_555

#END
