
#######################################################################
#
#                 Cambridge Crystallographic Data Centre
#                                CCDC 
#
#######################################################################
#
# If this CIF has been generated from an entry in the Cambridge 
# Structural Database, then it will include bibliographic, chemical, 
# crystal, experimental, refinement or atomic coordinate data resulting 
# from the CCDC's data processing and validation procedures.
#
#######################################################################

data_XERQUI
_chemical_name_common            7b
_chemical_formula_moiety         'C34 H42 Mg1 N4 O2'
_chemical_name_systematic        
bis(4-methyl-N-(1-(1H-pyrrol-2-yl)ethylidene)anilinato)-(bis(tetrahydrofuran))-magnesium
_symmetry_cell_setting           monoclinic
_symmetry_space_group_name_H-M   'P 21/c'
_symmetry_Int_Tables_number      14
_space_group_name_Hall           '-P 2ybc'
loop_
_symmetry_equiv_pos_site_id
_symmetry_equiv_pos_as_xyz
1 x,y,z
2 -x,1/2+y,1/2-z
3 -x,-y,-z
4 x,1/2-y,1/2+z
_cell_length_a                   11.596(5)
_cell_length_b                   10.053(5)
_cell_length_c                   16.721(5)
_cell_angle_alpha                90
_cell_angle_beta                 127.922(18)
_cell_angle_gamma                90
_cell_volume                     1537.66
_exptl_crystal_colour            colorless
_exptl_crystal_description       block
_cell_formula_units_Z            2
loop_
_atom_site_label
_atom_site_type_symbol
_atom_site_fract_x
_atom_site_fract_y
_atom_site_fract_z
Mg1 Mg 0.0000 0.5000 0.5000
N1 N 0.01800(11) 0.48435(10) 0.38138(7)
N2 N -0.21031(11) 0.58004(10) 0.36937(7)
O1 O 0.09234(10) 0.69627(9) 0.53384(6)
C1 C 0.11076(14) 0.44510(13) 0.36277(10)
H1 H 0.1995 0.3985 0.4099
C2 C 0.05937(16) 0.48182(16) 0.26498(10)
H2 H 0.1055 0.4651 0.2348
C3 C -0.07291(15) 0.54783(15) 0.22083(10)
H3 H -0.1345 0.5856 0.1549
C4 C -0.09653(13) 0.54704(12) 0.29389(8)
C5 C -0.21579(12) 0.59752(12) 0.28970(8)
C6 C -0.34045(15) 0.66561(16) 0.19401(10)
H4 H -0.3203 0.7611 0.1988
H5 H -0.4312 0.6516 0.1854
H6 H -0.3509 0.6283 0.1357
C7 C -0.32310(12) 0.62474(12) 0.37295(9)
C8 C -0.34443(16) 0.75915(14) 0.38036(12)
H7 H -0.2883 0.8243 0.3769
C9 C -0.44788(16) 0.79872(14) 0.39285(13)
H8 H -0.4612 0.8909 0.3975
C10 C -0.53168(13) 0.70683(14) 0.39868(10)
C11 C -0.50985(14) 0.57239(14) 0.39115(10)
H9 H -0.5664 0.5075 0.3944
C12 C -0.40668(14) 0.53154(13) 0.37900(10)
H10 H -0.3931 0.4393 0.3748
C13 C -0.64311(15) 0.74993(17) 0.41253(12)
H11 H -0.6065 0.7299 0.4819
H12 H -0.7350 0.7021 0.3644
H13 H -0.6602 0.8458 0.4003
C14 C 0.08768(16) 0.78521(14) 0.46451(10)
H14 H 0.1156 0.7391 0.4278
H15 H -0.0099 0.8211 0.4160
C15 C 0.1955(2) 0.89534(17) 0.52930(12)
H16 H 0.2930 0.8755 0.5480
H17 H 0.1610 0.9817 0.4933
C16 C 0.2008(3) 0.89724(18) 0.62018(14)
H18 H 0.3008 0.9184 0.6815
H19 H 0.1328 0.9652 0.6125
C17 C 0.1571(2) 0.76318(15) 0.62913(11)
H20 H 0.0870 0.7700 0.6426
H21 H 0.2417 0.7143 0.6842
N1B N -0.01800(11) 0.51565(10) 0.61862(7)
N2B N 0.21031(11) 0.41996(10) 0.63063(7)
O1B O -0.09234(10) 0.30373(9) 0.46616(6)
C1B C -0.11076(14) 0.55490(13) 0.63723(10)
H1B H -0.1995 0.6015 0.5901
C2B C -0.05937(16) 0.51818(16) 0.73502(10)
H2B H -0.1055 0.5349 0.7652
C3B C 0.07291(15) 0.45217(15) 0.77917(10)
H3B H 0.1345 0.4144 0.8451
C4B C 0.09653(13) 0.45296(12) 0.70611(8)
C5B C 0.21579(12) 0.40248(12) 0.71030(8)
C6B C 0.34045(15) 0.33439(16) 0.80599(10)
H4B H 0.3203 0.2389 0.8012
H5B H 0.4312 0.3484 0.8146
H6B H 0.3509 0.3717 0.8643
C7B C 0.32310(12) 0.37526(12) 0.62705(9)
C8B C 0.34443(16) 0.24085(14) 0.61964(12)
H7B H 0.2883 0.1757 0.6231
C9B C 0.44788(16) 0.20128(14) 0.60715(13)
H8B H 0.4612 0.1091 0.6025
C10B C 0.53168(13) 0.29317(14) 0.60132(10)
C11B C 0.50985(14) 0.42761(14) 0.60885(10)
H9B H 0.5664 0.4925 0.6056
C12B C 0.40668(14) 0.46846(13) 0.62100(10)
H10B H 0.3931 0.5607 0.6252
C13B C 0.64311(15) 0.25007(17) 0.58747(12)
H11B H 0.6065 0.2701 0.5181
H12B H 0.7350 0.2979 0.6356
H13B H 0.6602 0.1542 0.5997
C14B C -0.08768(16) 0.21479(14) 0.53549(10)
H14B H -0.1156 0.2609 0.5722
H15B H 0.0099 0.1789 0.5840
C15B C -0.1955(2) 0.10466(17) 0.47070(12)
H16B H -0.2930 0.1245 0.4520
H17B H -0.1610 0.0183 0.5067
C16B C -0.2008(3) 0.10276(18) 0.37982(14)
H18B H -0.3008 0.0816 0.3185
H19B H -0.1328 0.0348 0.3875
C17B C -0.1571(2) 0.23682(15) 0.37087(11)
H20B H -0.0870 0.2300 0.3574
H21B H -0.2417 0.2857 0.3158
loop_
_geom_bond_atom_site_label_1
_geom_bond_atom_site_label_2
_geom_bond_site_symmetry_1
_geom_bond_site_symmetry_2
Mg1 N1 1_555 1_555
N1 C1 1_555 1_555
N2 Mg1 1_555 1_555
O1 Mg1 1_555 1_555
C1 H1 1_555 1_555
C2 C1 1_555 1_555
H2 C2 1_555 1_555
C3 C2 1_555 1_555
H3 C3 1_555 1_555
C4 N1 1_555 1_555
C5 N2 1_555 1_555
C6 C5 1_555 1_555
H4 C6 1_555 1_555
H5 C6 1_555 1_555
H6 C6 1_555 1_555
C7 N2 1_555 1_555
C8 C7 1_555 1_555
H7 C8 1_555 1_555
C9 C8 1_555 1_555
H8 C9 1_555 1_555
C10 C9 1_555 1_555
C11 C10 1_555 1_555
H9 C11 1_555 1_555
C12 C7 1_555 1_555
H10 C12 1_555 1_555
C13 C10 1_555 1_555
H11 C13 1_555 1_555
H12 C13 1_555 1_555
H13 C13 1_555 1_555
C14 O1 1_555 1_555
H14 C14 1_555 1_555
H15 C14 1_555 1_555
C15 C14 1_555 1_555
H16 C15 1_555 1_555
H17 C15 1_555 1_555
C16 C15 1_555 1_555
H18 C16 1_555 1_555
H19 C16 1_555 1_555
C17 O1 1_555 1_555
H20 C17 1_555 1_555
H21 C17 1_555 1_555
N1B Mg1 1_555 1_555
N2B Mg1 1_555 1_555
O1B Mg1 1_555 1_555
C1B N1B 1_555 1_555
H1B C1B 1_555 1_555
C2B C1B 1_555 1_555
H2B C2B 1_555 1_555
C3B C2B 1_555 1_555
H3B C3B 1_555 1_555
C4B N1B 1_555 1_555
C5B N2B 1_555 1_555
C6B C5B 1_555 1_555
H4B C6B 1_555 1_555
H5B C6B 1_555 1_555
H6B C6B 1_555 1_555
C7B N2B 1_555 1_555
C8B C7B 1_555 1_555
H7B C8B 1_555 1_555
C9B C8B 1_555 1_555
H8B C9B 1_555 1_555
C10B C9B 1_555 1_555
C11B C10B 1_555 1_555
H9B C11B 1_555 1_555
C12B C7B 1_555 1_555
H10B C12B 1_555 1_555
C13B C10B 1_555 1_555
H11B C13B 1_555 1_555
H12B C13B 1_555 1_555
H13B C13B 1_555 1_555
C14B O1B 1_555 1_555
H14B C14B 1_555 1_555
H15B C14B 1_555 1_555
C15B C14B 1_555 1_555
H16B C15B 1_555 1_555
H17B C15B 1_555 1_555
C16B C15B 1_555 1_555
H18B C16B 1_555 1_555
H19B C16B 1_555 1_555
C17B O1B 1_555 1_555
H20B C17B 1_555 1_555
H21B C17B 1_555 1_555
C3 C4 1_555 1_555
C4 C5 1_555 1_555
C11 C12 1_555 1_555
C16 C17 1_555 1_555
C3B C4B 1_555 1_555
C4B C5B 1_555 1_555
C11B C12B 1_555 1_555
C16B C17B 1_555 1_555

#END
