
#######################################################################
#
#                 Cambridge Crystallographic Data Centre
#                                CCDC 
#
#######################################################################
#
# If this CIF has been generated from an entry in the Cambridge 
# Structural Database, then it will include bibliographic, chemical, 
# crystal, experimental, refinement or atomic coordinate data resulting 
# from the CCDC's data processing and validation procedures.
#
#######################################################################

data_XERRUI
_chemical_formula_moiety         'C14 H13 N3 S1'
_chemical_name_systematic        'Benzophenone thiosemicarbazone'
_symmetry_cell_setting           monoclinic
_symmetry_space_group_name_H-M   'C 2/c'
_symmetry_Int_Tables_number      15
_space_group_name_Hall           '-C 2yn'
loop_
_symmetry_equiv_pos_site_id
_symmetry_equiv_pos_as_xyz
1 x,y,z
2 1/2+x,1/2+y,z
3 -x,y,1/2-z
4 1/2-x,1/2+y,1/2-z
5 -x,-y,-z
6 1/2-x,1/2-y,-z
7 x,-y,1/2+z
8 1/2+x,1/2-y,1/2+z
_cell_length_a                   26.5443(16)
_cell_length_b                   6.0935(4)
_cell_length_c                   16.7931(10)
_cell_angle_alpha                90
_cell_angle_beta                 102.7580(10)
_cell_angle_gamma                90
_cell_volume                     2649.19
_exptl_crystal_colour            yellow
_exptl_crystal_description       rectangular
_chemical_melting_point          '160-162 deg.C'
_cell_formula_units_Z            8
_exptl_crystal_recrystallization_method methanol
loop_
_atom_site_label
_atom_site_type_symbol
_atom_site_fract_x
_atom_site_fract_y
_atom_site_fract_z
S1 S 0.335024(16) 0.21923(7) 0.01638(3)
N1 N 0.26868(6) 0.5111(3) -0.06676(10)
H1 H 0.2617 0.6260 -0.0991
H2 H 0.2437 0.4444 -0.0494
N2 N 0.35312(5) 0.5498(2) -0.07336(9)
H3 H 0.3860 0.5154 -0.0567
N3 N 0.33850(5) 0.7164(2) -0.12901(9)
C1 C 0.31664(6) 0.4387(3) -0.04427(10)
C2 C 0.37363(6) 0.8002(3) -0.16187(10)
C3 C 0.42875(6) 0.7265(3) -0.14411(10)
C4 C 0.44253(6) 0.5166(3) -0.16457(11)
H4 H 0.4166 0.4157 -0.1896
C5 C 0.49415(7) 0.4549(3) -0.14847(11)
H5 H 0.5034 0.3123 -0.1632
C6 C 0.53225(7) 0.6000(3) -0.11111(11)
H6 H 0.5675 0.5568 -0.1000
C7 C 0.51877(7) 0.8089(3) -0.08990(12)
H7 H 0.5448 0.9083 -0.0639
C8 C 0.46721(7) 0.8723(3) -0.10670(11)
H8 H 0.4581 1.0157 -0.0926
C9 C 0.35770(6) 0.9850(3) -0.21911(10)
C10 C 0.38176(7) 1.0191(3) -0.28428(11)
H9 H 0.4088 0.9242 -0.2916
C11 C 0.36614(8) 1.1923(3) -0.33848(11)
H10 H 0.3819 1.2123 -0.3835
C12 C 0.32775(7) 1.3352(3) -0.32693(12)
H11 H 0.3179 1.4554 -0.3631
C13 C 0.30376(7) 1.3019(3) -0.26226(12)
H12 H 0.2772 1.3989 -0.2546
C14 C 0.31835(6) 1.1273(3) -0.20872(11)
H13 H 0.3015 1.1048 -0.1650
loop_
_geom_bond_atom_site_label_1
_geom_bond_atom_site_label_2
_geom_bond_site_symmetry_1
_geom_bond_site_symmetry_2
S1 C1 1_555 1_555
N1 H1 1_555 1_555
H2 N1 1_555 1_555
N2 H3 1_555 1_555
N3 N2 1_555 1_555
C1 N1 1_555 1_555
C2 N3 1_555 1_555
C3 C2 1_555 1_555
C4 C3 1_555 1_555
H4 C4 1_555 1_555
C5 C4 1_555 1_555
H5 C5 1_555 1_555
C6 C5 1_555 1_555
H6 C6 1_555 1_555
C7 C6 1_555 1_555
H7 C7 1_555 1_555
C8 C3 1_555 1_555
H8 C8 1_555 1_555
C9 C2 1_555 1_555
C10 C9 1_555 1_555
H9 C10 1_555 1_555
C11 C10 1_555 1_555
H10 C11 1_555 1_555
C12 C11 1_555 1_555
H11 C12 1_555 1_555
C13 C12 1_555 1_555
H12 C13 1_555 1_555
C14 C9 1_555 1_555
H13 C14 1_555 1_555
N2 C1 1_555 1_555
C7 C8 1_555 1_555
C13 C14 1_555 1_555

#END
