
#######################################################################
#
#                 Cambridge Crystallographic Data Centre
#                                CCDC 
#
#######################################################################
#
# If this CIF has been generated from an entry in the Cambridge 
# Structural Database, then it will include bibliographic, chemical, 
# crystal, experimental, refinement or atomic coordinate data resulting 
# from the CCDC's data processing and validation procedures.
#
#######################################################################

data_XERTIA
_chemical_formula_moiety         'C21 H17 Cl1 O1'
_chemical_name_systematic        
1-[1-(2-chlorophenyl)-2,3-dihydro-1H-phenalen-2-yl]ethan-1-one
_symmetry_cell_setting           triclinic
_symmetry_space_group_name_H-M   'P -1'
_symmetry_Int_Tables_number      2
_space_group_name_Hall           '-P 1'
loop_
_symmetry_equiv_pos_site_id
_symmetry_equiv_pos_as_xyz
1 x,y,z
2 -x,-y,-z
_cell_length_a                   7.786(4)
_cell_length_b                   9.327(5)
_cell_length_c                   23.144(12)
_cell_angle_alpha                98.127(10)
_cell_angle_beta                 90.543(10)
_cell_angle_gamma                98.554(10)
_cell_volume                     1644.53
_exptl_crystal_colour            yellow
_exptl_crystal_description       block
_cell_formula_units_Z            4
loop_
_atom_site_label
_atom_site_type_symbol
_atom_site_fract_x
_atom_site_fract_y
_atom_site_fract_z
Cl1 Cl 0.5216(3) 0.5768(2) 0.44146(11)
O1 O 0.6267(8) 0.1169(6) 0.4264(3)
C1 C 1.0828(9) 0.2529(7) 0.3849(3)
C2 C 1.2312(11) 0.1963(8) 0.3881(4)
H1 H 1.2981 0.2187 0.4226
C3 C 1.2890(10) 0.1047(9) 0.3411(4)
H2 H 1.3929 0.0682 0.3445
C4 C 1.1913(11) 0.0699(9) 0.2905(4)
H3 H 1.2298 0.0097 0.2593
C5 C 1.0329(10) 0.1234(7) 0.2846(3)
C6 C 0.9241(12) 0.0849(8) 0.2339(3)
H4 H 0.9589 0.0234 0.2024
C7 C 0.7151(11) 0.2266(8) 0.2772(3)
H5 H 0.6092 0.2601 0.2740
C8 C 0.8153(9) 0.2670(7) 0.3276(3)
C9 C 0.9747(9) 0.2161(7) 0.3329(3)
C10 C 0.7499(10) 0.3671(7) 0.3781(3)
H6 H 0.6233 0.3416 0.3787
C11 C 0.8262(9) 0.3401(7) 0.4366(3)
H7 H 0.7997 0.4189 0.4663
C12 C 0.7412(11) 0.1952(8) 0.4557(3)
C13 C 0.8096(14) 0.1550(11) 0.5108(4)
H8 H 0.7146 0.1129 0.5322
H9 H 0.8704 0.2413 0.5342
H10 H 0.8877 0.0852 0.5015
C14 C 0.7921(9) 0.5290(7) 0.3717(3)
C15 C 0.9263(10) 0.5827(8) 0.3384(3)
H11 H 0.9900 0.5165 0.3178
C16 C 0.9706(12) 0.7295(9) 0.3340(4)
H12 H 1.0628 0.7615 0.3114
C17 C 0.8721(12) 0.8308(8) 0.3647(4)
H13 H 0.8979 0.9302 0.3620
C18 C 0.7400(13) 0.7808(8) 0.3981(4)
H14 H 0.6777 0.8467 0.4195
C19 C 0.6978(10) 0.6327(7) 0.4004(3)
C20 C 1.0245(10) 0.3542(8) 0.4351(3)
H15 H 1.0727 0.4545 0.4316
H16 H 1.0688 0.3315 0.4716
C21 C 0.7735(12) 0.1339(9) 0.2300(3)
H17 H 0.7054 0.1070 0.1959
Cl2 Cl 0.3909(4) 0.2766(3) 0.16110(15)
O2 O 0.7587(13) 0.3449(12) 0.0300(4)
C22 C 0.8715(10) 0.7470(8) 0.1065(3)
C23 C 0.9975(10) 0.6936(9) 0.1392(3)
C24 C 1.1661(12) 0.7671(11) 0.1458(4)
H18 H 1.2481 0.7303 0.1667
C25 C 1.2152(14) 0.8961(13) 0.1216(5)
H19 H 1.3292 0.9440 0.1260
C26 C 1.0931(16) 0.9514(10) 0.0912(4)
H20 H 1.1251 1.0379 0.0757
C27 C 0.9201(13) 0.8788(8) 0.0831(4)
C28 C 0.7891(16) 0.9322(11) 0.0506(4)
H21 H 0.8161 1.0215 0.0367
C29 C 0.6298(16) 0.8553(11) 0.0403(4)
H22 H 0.5496 0.8896 0.0177
C30 C 0.5816(12) 0.7229(10) 0.0630(4)
H23 H 0.4701 0.6712 0.0555
C31 C 0.6975(10) 0.6704(8) 0.0958(3)
C32 C 0.6416(11) 0.5303(8) 0.1217(3)
H24 H 0.5588 0.4652 0.0940
C33 C 0.8023(11) 0.4527(9) 0.1285(4)
H25 H 0.7650 0.3712 0.1503
C34 C 0.8607(14) 0.3858(9) 0.0696(4)
C35 C 1.0423(15) 0.3674(12) 0.0614(5)
H26 H 1.0552 0.3183 0.0227
H27 H 1.0774 0.3100 0.0894
H28 H 1.1137 0.4618 0.0666
C36 C 0.5514(10) 0.5584(9) 0.1797(4)
C37 C 0.5795(10) 0.6953(10) 0.2145(4)
H29 H 0.6527 0.7712 0.2013
C38 C 0.5031(13) 0.7227(13) 0.2679(4)
H30 H 0.5280 0.8141 0.2907
C39 C 0.3894(14) 0.6118(17) 0.2865(5)
H31 H 0.3349 0.6303 0.3218
C40 C 0.3552(12) 0.4782(14) 0.2552(5)
H32 H 0.2789 0.4044 0.2686
C41 C 0.4375(12) 0.4514(11) 0.2014(5)
C42 C 0.9432(11) 0.5558(9) 0.1658(4)
H33 H 0.9005 0.5813 0.2045
H34 H 1.0432 0.5066 0.1695
loop_
_geom_bond_atom_site_label_1
_geom_bond_atom_site_label_2
_geom_bond_site_symmetry_1
_geom_bond_site_symmetry_2
Cl1 C19 1_555 1_555
O1 C12 1_555 1_555
C1 C2 1_555 1_555
C2 H1 1_555 1_555
C3 C2 1_555 1_555
H2 C3 1_555 1_555
C4 C3 1_555 1_555
H3 C4 1_555 1_555
C5 C4 1_555 1_555
C6 C5 1_555 1_555
H4 C6 1_555 1_555
C7 H5 1_555 1_555
C8 C7 1_555 1_555
C9 C1 1_555 1_555
C10 C8 1_555 1_555
H6 C10 1_555 1_555
C11 C10 1_555 1_555
H7 C11 1_555 1_555
C12 C11 1_555 1_555
C13 C12 1_555 1_555
H8 C13 1_555 1_555
H9 C13 1_555 1_555
H10 C13 1_555 1_555
C14 C10 1_555 1_555
C15 C14 1_555 1_555
H11 C15 1_555 1_555
C16 C15 1_555 1_555
H12 C16 1_555 1_555
C17 C16 1_555 1_555
H13 C17 1_555 1_555
C18 C17 1_555 1_555
H14 C18 1_555 1_555
C19 C14 1_555 1_555
C20 C1 1_555 1_555
H15 C20 1_555 1_555
H16 C20 1_555 1_555
C21 C6 1_555 1_555
H17 C21 1_555 1_555
Cl2 C41 1_555 1_555
O2 C34 1_555 1_555
C22 C23 1_555 1_555
C23 C24 1_555 1_555
C24 H18 1_555 1_555
C25 C24 1_555 1_555
H19 C25 1_555 1_555
C26 C25 1_555 1_555
H20 C26 1_555 1_555
C27 C22 1_555 1_555
C28 C27 1_555 1_555
H21 C28 1_555 1_555
C29 C28 1_555 1_555
H22 C29 1_555 1_555
C30 C29 1_555 1_555
H23 C30 1_555 1_555
C31 C22 1_555 1_555
C32 C31 1_555 1_555
H24 C32 1_555 1_555
C33 C32 1_555 1_555
H25 C33 1_555 1_555
C34 C33 1_555 1_555
C35 C34 1_555 1_555
H26 C35 1_555 1_555
H27 C35 1_555 1_555
H28 C35 1_555 1_555
C36 C32 1_555 1_555
C37 C36 1_555 1_555
H29 C37 1_555 1_555
C38 C37 1_555 1_555
H30 C38 1_555 1_555
C39 C38 1_555 1_555
H31 C39 1_555 1_555
C40 C39 1_555 1_555
H32 C40 1_555 1_555
C41 C36 1_555 1_555
C42 C23 1_555 1_555
H33 C42 1_555 1_555
H34 C42 1_555 1_555
C5 C9 1_555 1_555
C7 C21 1_555 1_555
C8 C9 1_555 1_555
C11 C20 1_555 1_555
C18 C19 1_555 1_555
C26 C27 1_555 1_555
C30 C31 1_555 1_555
C33 C42 1_555 1_555
C40 C41 1_555 1_555

#END
