
#######################################################################
#
#                 Cambridge Crystallographic Data Centre
#                                CCDC 
#
#######################################################################
#
# If this CIF has been generated from an entry in the Cambridge 
# Structural Database, then it will include bibliographic, chemical, 
# crystal, experimental, refinement or atomic coordinate data resulting 
# from the CCDC's data processing and validation procedures.
#
#######################################################################

data_XESRAQ
_chemical_formula_moiety         'C11 H10 N2 O1'
_chemical_name_systematic        1-Cyano-N-phenylcyclopropanecarboxamide
_symmetry_cell_setting           orthorhombic
_symmetry_space_group_name_H-M   'P b c a'
_symmetry_Int_Tables_number      61
_space_group_name_Hall           '-P 2ac 2ab'
loop_
_symmetry_equiv_pos_site_id
_symmetry_equiv_pos_as_xyz
1 x,y,z
2 1/2-x,-y,1/2+z
3 1/2+x,1/2-y,-z
4 -x,1/2+y,1/2-z
5 -x,-y,-z
6 1/2+x,y,1/2-z
7 1/2-x,1/2+y,z
8 x,1/2-y,1/2+z
_cell_length_a                   10.0466(19)
_cell_length_b                   9.6067(17)
_cell_length_c                   20.790(3)
_cell_angle_alpha                90
_cell_angle_beta                 90
_cell_angle_gamma                90
_cell_volume                     2006.54
_exptl_crystal_colour            colorless
_exptl_crystal_description       block
_cell_formula_units_Z            8
loop_
_atom_site_label
_atom_site_type_symbol
_atom_site_fract_x
_atom_site_fract_y
_atom_site_fract_z
O1 O 0.23612(15) 0.88903(11) 0.63101(6)
N1 N 0.33085(18) 0.67594(15) 0.62114(7)
N2 N 0.1708(2) 0.5115(2) 0.49447(9)
C1 C 0.2349(2) 0.77010(16) 0.60944(8)
C2 C 0.1211(2) 0.71938(17) 0.56935(9)
C3 C -0.0167(3) 0.7324(3) 0.59923(14)
H1 H -0.0806 0.6592 0.5903
H2 H -0.0229 0.7724 0.6420
C4 C 0.0202(3) 0.8243(2) 0.54659(13)
H3 H 0.0363 0.9214 0.5567
H4 H -0.0213 0.8083 0.5051
C5 C 0.1470(2) 0.6026(2) 0.52756(10)
C6 C 0.4505(2) 0.70243(16) 0.65531(8)
C7 C 0.5253(2) 0.82053(19) 0.64314(10)
H5 H 0.4951 0.8863 0.6137
C8 C 0.6440(3) 0.8406(2) 0.67451(11)
H6 H 0.6940 0.9199 0.6661
C9 C 0.6896(3) 0.7446(3) 0.71822(11)
H7 H 0.7701 0.7588 0.7393
C10 C 0.6155(3) 0.6274(2) 0.73054(10)
H8 H 0.6458 0.5624 0.7603
C11 C 0.4965(2) 0.60549(18) 0.69917(9)
H9 H 0.4472 0.5256 0.7075
H10 H 0.309(2) 0.591(2) 0.6160(8)
loop_
_geom_bond_atom_site_label_1
_geom_bond_atom_site_label_2
_geom_bond_site_symmetry_1
_geom_bond_site_symmetry_2
O1 C1 1_555 1_555
N1 C1 1_555 1_555
N2 C5 1_555 1_555
C1 C2 1_555 1_555
C2 C3 1_555 1_555
C3 H1 1_555 1_555
H2 C3 1_555 1_555
C4 C2 1_555 1_555
H3 C4 1_555 1_555
H4 C4 1_555 1_555
C5 C2 1_555 1_555
C6 N1 1_555 1_555
C7 C6 1_555 1_555
H5 C7 1_555 1_555
C8 C7 1_555 1_555
H6 C8 1_555 1_555
C9 C8 1_555 1_555
H7 C9 1_555 1_555
C10 C9 1_555 1_555
H8 C10 1_555 1_555
C11 C6 1_555 1_555
H9 C11 1_555 1_555
H10 N1 1_555 1_555
C3 C4 1_555 1_555
C10 C11 1_555 1_555

#END
