
#######################################################################
#
#                 Cambridge Crystallographic Data Centre
#                                CCDC 
#
#######################################################################
#
# If this CIF has been generated from an entry in the Cambridge 
# Structural Database, then it will include bibliographic, chemical, 
# crystal, experimental, refinement or atomic coordinate data resulting 
# from the CCDC's data processing and validation procedures.
#
#######################################################################

data_XESYEA
_chemical_formula_moiety         'C42 H38 N4'
_chemical_name_systematic        
1,4-bis(4-(Di-p-tolylamino)benzyl)-2,3-diaza-1,3-butadiene
_symmetry_cell_setting           triclinic
_symmetry_space_group_name_H-M   'P -1'
_symmetry_Int_Tables_number      2
_space_group_name_Hall           '-P 1'
loop_
_symmetry_equiv_pos_site_id
_symmetry_equiv_pos_as_xyz
1 x,y,z
2 -x,-y,-z
_cell_length_a                   11.142(4)
_cell_length_b                   12.562(5)
_cell_length_c                   13.848(5)
_cell_angle_alpha                72.191(6)
_cell_angle_beta                 84.891(7)
_cell_angle_gamma                68.143(7)
_cell_volume                     1712.04
_exptl_crystal_colour            colorless
_exptl_crystal_description       block
_chemical_melting_point          '498 K'
_cell_formula_units_Z            2
_exptl_crystal_recrystallization_method THF
loop_
_atom_site_label
_atom_site_type_symbol
_atom_site_fract_x
_atom_site_fract_y
_atom_site_fract_z
N1 N 0.0943(2) 0.85304(18) 0.27873(15)
N2 N -0.0085(2) 0.53336(19) 0.03447(14)
C1 C 0.1452(2) 0.9463(2) 0.24908(19)
C2 C 0.2256(2) 0.9553(2) 0.31406(19)
H1 H 0.2475 0.8996 0.3780
C3 C 0.2739(3) 1.0473(3) 0.2841(2)
H2 H 0.3262 1.0528 0.3297
C4 C 0.2474(3) 1.1305(3) 0.1900(2)
C5 C 0.1674(3) 1.1198(2) 0.1264(2)
H3 H 0.1475 1.1746 0.0620
C6 C 0.1152(3) 1.0310(2) 0.1541(2)
H4 H 0.0600 1.0280 0.1093
C7 C 0.3024(3) 1.2292(3) 0.1589(2)
H5 H 0.2655 1.2833 0.1991
H6 H 0.2819 1.2723 0.0885
H7 H 0.3946 1.1946 0.1695
C8 C 0.0762(2) 0.8029(2) 0.38441(18)
C9 C 0.1367(3) 0.6823(3) 0.4324(2)
H8 H 0.1906 0.6328 0.3958
C10 C 0.1186(3) 0.6340(3) 0.5335(2)
H9 H 0.1589 0.5519 0.5636
C11 C 0.0424(2) 0.7040(3) 0.59100(19)
C12 C -0.0170(3) 0.8238(2) 0.5429(2)
H10 H -0.0690 0.8734 0.5802
C13 C -0.0023(2) 0.8739(2) 0.4407(2)
H11 H -0.0454 0.9555 0.4102
C14 C 0.0247(3) 0.6492(3) 0.70253(18)
H12 H -0.0246 0.5989 0.7095
H13 H -0.0203 0.7120 0.7329
H14 H 0.1078 0.6020 0.7358
C15 C 0.0870(2) 0.7910(2) 0.21166(17)
C16 C -0.0052(2) 0.7374(2) 0.22579(18)
H15 H -0.0630 0.7456 0.2782
C17 C -0.0121(2) 0.6727(2) 0.16383(17)
H16 H -0.0750 0.6386 0.1743
C18 C 0.0744(2) 0.6579(2) 0.08533(17)
C19 C 0.1641(2) 0.7129(2) 0.07096(18)
H17 H 0.2216 0.7053 0.0183
C20 C 0.1710(2) 0.7786(2) 0.13227(18)
H18 H 0.2322 0.8148 0.1204
C21 C 0.0724(3) 0.5850(2) 0.02217(17)
H19 H 0.1323 0.5761 -0.0288
N1A N -0.0943(2) 0.14696(18) -0.27873(15)
N2A N 0.0085(2) 0.46664(19) -0.03447(14)
C1A C -0.1452(2) 0.0537(2) -0.24908(19)
C2A C -0.2256(2) 0.0447(2) -0.31406(19)
H1A H -0.2475 0.1004 -0.3780
C3A C -0.2739(3) -0.0473(3) -0.2841(2)
H2A H -0.3262 -0.0528 -0.3297
C4A C -0.2474(3) -0.1305(3) -0.1900(2)
C5A C -0.1674(3) -0.1198(2) -0.1264(2)
H3A H -0.1475 -0.1746 -0.0620
C6A C -0.1152(3) -0.0310(2) -0.1541(2)
H4A H -0.0600 -0.0280 -0.1093
C7A C -0.3024(3) -0.2292(3) -0.1589(2)
H5A H -0.2655 -0.2833 -0.1991
H6A H -0.2819 -0.2723 -0.0885
H7A H -0.3946 -0.1946 -0.1695
C8A C -0.0762(2) 0.1971(2) -0.38441(18)
C9A C -0.1367(3) 0.3177(3) -0.4324(2)
H8A H -0.1906 0.3672 -0.3958
C10A C -0.1186(3) 0.3660(3) -0.5335(2)
H9A H -0.1589 0.4481 -0.5636
C11A C -0.0424(2) 0.2960(3) -0.59100(19)
C12A C 0.0170(3) 0.1762(2) -0.5429(2)
H10A H 0.0690 0.1266 -0.5802
C13A C 0.0023(2) 0.1261(2) -0.4407(2)
H11A H 0.0454 0.0445 -0.4102
C14A C -0.0247(3) 0.3508(3) -0.70253(18)
H12A H 0.0246 0.4011 -0.7095
H13A H 0.0203 0.2880 -0.7329
H14A H -0.1078 0.3980 -0.7358
C15A C -0.0870(2) 0.2090(2) -0.21166(17)
C16A C 0.0052(2) 0.2626(2) -0.22579(18)
H15A H 0.0630 0.2544 -0.2782
C17A C 0.0121(2) 0.3273(2) -0.16383(17)
H16A H 0.0750 0.3614 -0.1743
C18A C -0.0744(2) 0.3421(2) -0.08533(17)
C19A C -0.1641(2) 0.2871(2) -0.07096(18)
H17A H -0.2216 0.2947 -0.0183
C20A C -0.1710(2) 0.2214(2) -0.13227(18)
H18A H -0.2322 0.1852 -0.1204
C21A C -0.0724(3) 0.4150(2) -0.02217(17)
H19A H -0.1323 0.4239 0.0288
N3 N 0.6145(2) 0.81483(17) 0.30673(14)
N4 N 0.52487(18) 0.51356(17) 0.03813(12)
C22 C 0.6387(2) 0.9230(2) 0.28520(17)
C23 C 0.6051(2) 0.9891(2) 0.35349(19)
H20 H 0.5602 0.9658 0.4110
C24 C 0.6372(3) 1.0890(2) 0.3377(2)
H21 H 0.6139 1.1315 0.3852
C25 C 0.7031(3) 1.1276(2) 0.2531(2)
C26 C 0.7325(2) 1.0631(2) 0.18431(19)
H22 H 0.7749 1.0881 0.1258
C27 C 0.7015(2) 0.9625(2) 0.19887(18)
H23 H 0.7230 0.9214 0.1505
C28 C 0.7443(3) 1.2336(3) 0.2388(2)
H24 H 0.8324 1.2136 0.2178
H25 H 0.7372 1.2525 0.3017
H26 H 0.6895 1.3018 0.1879
C29 C 0.6196(2) 0.7434(2) 0.41003(17)
C30 C 0.5241(2) 0.6978(2) 0.44663(18)
H27 H 0.4561 0.7133 0.4037
C31 C 0.5282(3) 0.6291(2) 0.54650(19)
H28 H 0.4637 0.5979 0.5695
C32 C 0.6269(3) 0.6060(2) 0.61299(18)
C33 C 0.7219(3) 0.6511(2) 0.57467(18)
H29 H 0.7900 0.6357 0.6175
C34 C 0.7197(2) 0.7181(2) 0.47507(18)
H30 H 0.7862 0.7466 0.4516
C35 C 0.6297(3) 0.5339(3) 0.72280(18)
H31 H 0.5715 0.5842 0.7601
H32 H 0.7159 0.5037 0.7509
H33 H 0.6035 0.4679 0.7273
C36 C 0.5931(2) 0.7709(2) 0.22997(16)
C37 C 0.5202(2) 0.8458(2) 0.14249(16)
H34 H 0.4876 0.9285 0.1310
C38 C 0.4959(2) 0.7977(2) 0.07229(16)
H35 H 0.4479 0.8491 0.0135
C39 C 0.5414(2) 0.6746(2) 0.08733(16)
C40 C 0.6182(2) 0.6009(2) 0.17336(17)
H36 H 0.6530 0.5184 0.1840
C41 C 0.6436(2) 0.6480(2) 0.24279(17)
H37 H 0.6956 0.5968 0.2997
C42 C 0.5036(2) 0.6257(2) 0.01712(16)
H38 H 0.4631 0.6774 -0.0445
N3A N 0.3855(2) 0.18517(17) -0.30673(14)
N4A N 0.47513(18) 0.48644(17) -0.03813(12)
C22A C 0.3613(2) 0.0770(2) -0.28520(17)
C23A C 0.3949(2) 0.0109(2) -0.35349(19)
H20A H 0.4398 0.0342 -0.4110
C24A C 0.3628(3) -0.0890(2) -0.3377(2)
H21A H 0.3861 -0.1315 -0.3852
C25A C 0.2969(3) -0.1276(2) -0.2531(2)
C26A C 0.2675(2) -0.0631(2) -0.18431(19)
H22A H 0.2251 -0.0881 -0.1258
C27A C 0.2985(2) 0.0375(2) -0.19887(18)
H23A H 0.2770 0.0786 -0.1505
C28A C 0.2557(3) -0.2336(3) -0.2388(2)
H24A H 0.1676 -0.2136 -0.2178
H25A H 0.2628 -0.2525 -0.3017
H26A H 0.3105 -0.3018 -0.1879
C29A C 0.3804(2) 0.2566(2) -0.41003(17)
C30A C 0.4759(2) 0.3022(2) -0.44663(18)
H27A H 0.5439 0.2867 -0.4037
C31A C 0.4718(3) 0.3709(2) -0.54650(19)
H28A H 0.5363 0.4021 -0.5695
C32A C 0.3731(3) 0.3940(2) -0.61299(18)
C33A C 0.2781(3) 0.3489(2) -0.57467(18)
H29A H 0.2100 0.3643 -0.6175
C34A C 0.2803(2) 0.2819(2) -0.47507(18)
H30A H 0.2138 0.2534 -0.4516
C35A C 0.3703(3) 0.4661(3) -0.72280(18)
H31A H 0.4285 0.4158 -0.7601
H32A H 0.2841 0.4963 -0.7509
H33A H 0.3965 0.5321 -0.7273
C36A C 0.4069(2) 0.2291(2) -0.22997(16)
C37A C 0.4798(2) 0.1542(2) -0.14249(16)
H34A H 0.5124 0.0715 -0.1310
C38A C 0.5041(2) 0.2023(2) -0.07229(16)
H35A H 0.5521 0.1509 -0.0135
C39A C 0.4586(2) 0.3254(2) -0.08733(16)
C40A C 0.3818(2) 0.3991(2) -0.17336(17)
H36A H 0.3470 0.4816 -0.1840
C41A C 0.3564(2) 0.3520(2) -0.24279(17)
H37A H 0.3044 0.4032 -0.2997
C42A C 0.4964(2) 0.3743(2) -0.01712(16)
H38A H 0.5369 0.3226 0.0445
loop_
_geom_bond_atom_site_label_1
_geom_bond_atom_site_label_2
_geom_bond_site_symmetry_1
_geom_bond_site_symmetry_2
N1 C1 1_555 1_555
N2 C21 1_555 1_555
N3 C22 1_555 1_555
N4 C42 1_555 1_555
C1 C2 1_555 1_555
C2 H1 1_555 1_555
C3 C2 1_555 1_555
H2 C3 1_555 1_555
C4 C3 1_555 1_555
C5 C4 1_555 1_555
H3 C5 1_555 1_555
C6 C1 1_555 1_555
H4 C6 1_555 1_555
C7 C4 1_555 1_555
H5 C7 1_555 1_555
H6 C7 1_555 1_555
H7 C7 1_555 1_555
C8 N1 1_555 1_555
C9 C8 1_555 1_555
H8 C9 1_555 1_555
C10 C9 1_555 1_555
H9 C10 1_555 1_555
C11 C10 1_555 1_555
C12 C11 1_555 1_555
H10 C12 1_555 1_555
C13 C8 1_555 1_555
H11 C13 1_555 1_555
C14 C11 1_555 1_555
H12 C14 1_555 1_555
H13 C14 1_555 1_555
H14 C14 1_555 1_555
C15 N1 1_555 1_555
C16 C15 1_555 1_555
H15 C16 1_555 1_555
C17 C16 1_555 1_555
H16 C17 1_555 1_555
C18 C17 1_555 1_555
C19 C18 1_555 1_555
H17 C19 1_555 1_555
C20 C15 1_555 1_555
H18 C20 1_555 1_555
C21 C18 1_555 1_555
H19 C21 1_555 1_555
C22 C23 1_555 1_555
C23 H20 1_555 1_555
C24 C23 1_555 1_555
H21 C24 1_555 1_555
C25 C24 1_555 1_555
C26 C25 1_555 1_555
H22 C26 1_555 1_555
C27 C22 1_555 1_555
H23 C27 1_555 1_555
C28 C25 1_555 1_555
H24 C28 1_555 1_555
H25 C28 1_555 1_555
H26 C28 1_555 1_555
C29 N3 1_555 1_555
C30 C29 1_555 1_555
H27 C30 1_555 1_555
C31 C30 1_555 1_555
H28 C31 1_555 1_555
C32 C31 1_555 1_555
C33 C32 1_555 1_555
H29 C33 1_555 1_555
C34 C29 1_555 1_555
H30 C34 1_555 1_555
C35 C32 1_555 1_555
H31 C35 1_555 1_555
H32 C35 1_555 1_555
H33 C35 1_555 1_555
C36 N3 1_555 1_555
C37 C36 1_555 1_555
H34 C37 1_555 1_555
C38 C37 1_555 1_555
H35 C38 1_555 1_555
C39 C38 1_555 1_555
C40 C39 1_555 1_555
H36 C40 1_555 1_555
C41 C36 1_555 1_555
H37 C41 1_555 1_555
C42 C39 1_555 1_555
H38 C42 1_555 1_555
N1A C1A 1_555 1_555
N2A N2 1_555 1_555
N3A C22A 1_555 1_555
N4A N4 1_555 1_555
C1A C2A 1_555 1_555
C2A H1A 1_555 1_555
C3A C2A 1_555 1_555
H2A C3A 1_555 1_555
C4A C3A 1_555 1_555
C5A C4A 1_555 1_555
H3A C5A 1_555 1_555
C6A C1A 1_555 1_555
H4A C6A 1_555 1_555
C7A C4A 1_555 1_555
H5A C7A 1_555 1_555
H6A C7A 1_555 1_555
H7A C7A 1_555 1_555
C8A N1A 1_555 1_555
C9A C8A 1_555 1_555
H8A C9A 1_555 1_555
C10A C9A 1_555 1_555
H9A C10A 1_555 1_555
C11A C10A 1_555 1_555
C12A C11A 1_555 1_555
H10A C12A 1_555 1_555
C13A C8A 1_555 1_555
H11A C13A 1_555 1_555
C14A C11A 1_555 1_555
H12A C14A 1_555 1_555
H13A C14A 1_555 1_555
H14A C14A 1_555 1_555
C15A N1A 1_555 1_555
C16A C15A 1_555 1_555
H15A C16A 1_555 1_555
C17A C16A 1_555 1_555
H16A C17A 1_555 1_555
C18A C17A 1_555 1_555
C19A C18A 1_555 1_555
H17A C19A 1_555 1_555
C20A C15A 1_555 1_555
H18A C20A 1_555 1_555
C21A N2A 1_555 1_555
H19A C21A 1_555 1_555
C22A C23A 1_555 1_555
C23A H20A 1_555 1_555
C24A C23A 1_555 1_555
H21A C24A 1_555 1_555
C25A C24A 1_555 1_555
C26A C25A 1_555 1_555
H22A C26A 1_555 1_555
C27A C22A 1_555 1_555
H23A C27A 1_555 1_555
C28A C25A 1_555 1_555
H24A C28A 1_555 1_555
H25A C28A 1_555 1_555
H26A C28A 1_555 1_555
C29A N3A 1_555 1_555
C30A C29A 1_555 1_555
H27A C30A 1_555 1_555
C31A C30A 1_555 1_555
H28A C31A 1_555 1_555
C32A C31A 1_555 1_555
C33A C32A 1_555 1_555
H29A C33A 1_555 1_555
C34A C29A 1_555 1_555
H30A C34A 1_555 1_555
C35A C32A 1_555 1_555
H31A C35A 1_555 1_555
H32A C35A 1_555 1_555
H33A C35A 1_555 1_555
C36A N3A 1_555 1_555
C37A C36A 1_555 1_555
H34A C37A 1_555 1_555
C38A C37A 1_555 1_555
H35A C38A 1_555 1_555
C39A C38A 1_555 1_555
C40A C39A 1_555 1_555
H36A C40A 1_555 1_555
C41A C36A 1_555 1_555
H37A C41A 1_555 1_555
C42A N4A 1_555 1_555
H38A C42A 1_555 1_555
C5 C6 1_555 1_555
C12 C13 1_555 1_555
C19 C20 1_555 1_555
C26 C27 1_555 1_555
C33 C34 1_555 1_555
C40 C41 1_555 1_555
C5A C6A 1_555 1_555
C12A C13A 1_555 1_555
C18A C21A 1_555 1_555
C19A C20A 1_555 1_555
C26A C27A 1_555 1_555
C33A C34A 1_555 1_555
C39A C42A 1_555 1_555
C40A C41A 1_555 1_555

#END
