
#######################################################################
#
#                 Cambridge Crystallographic Data Centre
#                                CCDC 
#
#######################################################################
#
# If this CIF has been generated from an entry in the Cambridge 
# Structural Database, then it will include bibliographic, chemical, 
# crystal, experimental, refinement or atomic coordinate data resulting 
# from the CCDC's data processing and validation procedures.
#
#######################################################################

data_XETBUW
_chemical_formula_moiety         'C17 H13 N3 O3 S2'
_chemical_name_systematic        
2-(1,3-dithiolan-2-ylidene)-2-((4-nitrophenyl)diazenyl)-1-phenylethanone
_symmetry_cell_setting           monoclinic
_symmetry_space_group_name_H-M   'P 21/n'
_symmetry_Int_Tables_number      14
_space_group_name_Hall           '-P 2yn'
loop_
_symmetry_equiv_pos_site_id
_symmetry_equiv_pos_as_xyz
1 x,y,z
2 1/2-x,1/2+y,1/2-z
3 -x,-y,-z
4 1/2+x,1/2-y,1/2+z
_cell_length_a                   4.0165(7)
_cell_length_b                   23.916(3)
_cell_length_c                   17.104(2)
_cell_angle_alpha                90
_cell_angle_beta                 94.419(13)
_cell_angle_gamma                90
_cell_volume                     1638.1
_exptl_crystal_colour            'dark red'
_exptl_crystal_description       prismatic
_cell_formula_units_Z            4
loop_
_atom_site_label
_atom_site_type_symbol
_atom_site_fract_x
_atom_site_fract_y
_atom_site_fract_z
S1 S 0.5577(3) 0.34825(4) 0.50315(6)
S2 S 0.2761(3) 0.31720(4) 0.34614(6)
N1 N 0.2590(8) 0.19738(12) 0.41770(17)
N2 N 0.1086(8) 0.21237(12) 0.35271(18)
N3 N -0.4200(9) 0.04084(13) 0.15668(19)
O1 O 0.6576(9) 0.25722(12) 0.58931(17)
O2 O -0.5816(11) 0.05336(13) 0.0965(2)
O3 O -0.3757(10) -0.00752(12) 0.1761(2)
C1 C 0.6611(11) 0.12080(16) 0.5187(2)
H1 H 0.7389 0.1299 0.4705
C2 C 0.6714(12) 0.06605(18) 0.5441(3)
H2 H 0.7628 0.0386 0.5138
C3 C 0.5464(12) 0.05208(19) 0.6142(3)
H3 H 0.5453 0.0150 0.6304
C4 C 0.4228(13) 0.0934(2) 0.6603(3)
H4 H 0.3398 0.0840 0.7078
C5 C 0.4214(12) 0.14811(18) 0.6365(2)
H5 H 0.3435 0.1758 0.6687
C6 C 0.5357(10) 0.16242(15) 0.5646(2)
C7 C 0.5393(11) 0.22270(16) 0.5425(2)
C8 C 0.3977(10) 0.24022(15) 0.4636(2)
C9 C -0.0188(10) 0.16694(14) 0.3069(2)
C10 C -0.2138(11) 0.18117(15) 0.2393(2)
H6 H -0.2563 0.2186 0.2277
C11 C -0.3454(11) 0.14009(15) 0.1892(2)
H7 H -0.4757 0.1494 0.1437
C12 C -0.2794(10) 0.08531(14) 0.2081(2)
C13 C -0.0887(10) 0.06986(14) 0.2756(2)
H8 H -0.0516 0.0323 0.2875
C14 C 0.0438(10) 0.11082(15) 0.3243(2)
H9 H 0.1762 0.1012 0.3693
C15 C 0.4068(9) 0.29601(15) 0.4401(2)
C16 C 0.4282(12) 0.40600(16) 0.4389(3)
H10 H 0.2010 0.4169 0.4473
H11 H 0.5730 0.4380 0.4498
C17 C 0.4494(11) 0.38696(15) 0.3562(2)
H12 H 0.6804 0.3868 0.3433
H13 H 0.3254 0.4123 0.3205
loop_
_geom_bond_atom_site_label_1
_geom_bond_atom_site_label_2
_geom_bond_site_symmetry_1
_geom_bond_site_symmetry_2
S1 C15 1_555 1_555
S2 C15 1_555 1_555
N1 N2 1_555 1_555
N2 C9 1_555 1_555
N3 O2 1_555 1_555
O1 C7 1_555 1_555
O3 N3 1_555 1_555
C1 H1 1_555 1_555
C2 C1 1_555 1_555
H2 C2 1_555 1_555
C3 C2 1_555 1_555
H3 C3 1_555 1_555
C4 C3 1_555 1_555
H4 C4 1_555 1_555
C5 C4 1_555 1_555
H5 C5 1_555 1_555
C6 C1 1_555 1_555
C7 C6 1_555 1_555
C8 N1 1_555 1_555
C9 C10 1_555 1_555
C10 H6 1_555 1_555
C11 C10 1_555 1_555
H7 C11 1_555 1_555
C12 N3 1_555 1_555
C13 C12 1_555 1_555
H8 C13 1_555 1_555
C14 C9 1_555 1_555
H9 C14 1_555 1_555
C15 C8 1_555 1_555
C16 S1 1_555 1_555
H10 C16 1_555 1_555
H11 C16 1_555 1_555
C17 S2 1_555 1_555
H12 C17 1_555 1_555
H13 C17 1_555 1_555
C5 C6 1_555 1_555
C7 C8 1_555 1_555
C11 C12 1_555 1_555
C13 C14 1_555 1_555
C16 C17 1_555 1_555

#END
