
#######################################################################
#
#                 Cambridge Crystallographic Data Centre
#                                CCDC 
#
#######################################################################
#
# If this CIF has been generated from an entry in the Cambridge 
# Structural Database, then it will include bibliographic, chemical, 
# crystal, experimental, refinement or atomic coordinate data resulting 
# from the CCDC's data processing and validation procedures.
#
#######################################################################

data_XETRUM
_chemical_name_common            2,3-bis(3-iodophenoxy)-1,4-naphthoquinone
_chemical_formula_moiety         'C22 H12 I2 O4'
_chemical_name_systematic        2,3-Bis(3-iodophenoxy)naphthalene-1,4-dione
_symmetry_cell_setting           monoclinic
_symmetry_space_group_name_H-M   'P 21'
_symmetry_Int_Tables_number      4
_space_group_name_Hall           'P 2yb'
loop_
_symmetry_equiv_pos_site_id
_symmetry_equiv_pos_as_xyz
1 x,y,z
2 -x,1/2+y,-z
_cell_length_a                   5.03327(5)
_cell_length_b                   10.35140(8)
_cell_length_c                   18.57629(14)
_cell_angle_alpha                90
_cell_angle_beta                 90.3021(7)
_cell_angle_gamma                90
_cell_volume                     967.837
_exptl_crystal_colour            'light yellow'
_exptl_crystal_description       plank
_cell_formula_units_Z            2
_exptl_crystal_recrystallization_method toluene
loop_
_atom_site_label
_atom_site_type_symbol
_atom_site_fract_x
_atom_site_fract_y
_atom_site_fract_z
I1 I 0.22724(14) 0.03750(8) 0.84773(4)
I2 I 0.87068(16) 0.83976(9) 0.45188(4)
O1 O 0.0074(16) 0.5112(7) 0.7331(5)
O2 O 0.4532(17) 0.6298(8) 0.6894(4)
O3 O -0.1134(16) 0.5126(7) 0.8778(5)
O4 O 0.7370(17) 0.7763(8) 0.7866(5)
C1 C 0.023(2) 0.1656(11) 0.7803(6)
C2 C -0.181(2) 0.1192(12) 0.7371(6)
H1 H -0.2241 0.0318 0.7362
C3 C -0.320(3) 0.2083(12) 0.6952(7)
H2 H -0.4564 0.1792 0.6655
C4 C -0.261(2) 0.3381(13) 0.6964(6)
H3 H -0.3600 0.3965 0.6693
C5 C -0.048(2) 0.3804(11) 0.7393(6)
C6 C 0.092(2) 0.2954(11) 0.7815(6)
H4 H 0.2306 0.3242 0.8105
C7 C 0.629(2) 0.8473(15) 0.5441(6)
C8 C 0.466(3) 0.9527(12) 0.5566(7)
H5 H 0.4706 1.0241 0.5263
C9 C 0.301(2) 0.9501(12) 0.6136(7)
H6 H 0.1942 1.0216 0.6226
C10 C 0.284(2) 0.8430(12) 0.6599(6)
H7 H 0.1601 0.8398 0.6969
C11 C 0.460(2) 0.7418(12) 0.6476(6)
C12 C 0.631(2) 0.7403(13) 0.5902(6)
H8 H 0.7436 0.6706 0.5822
C13 C 0.376(2) 0.6408(11) 0.7587(6)
C14 C 0.540(2) 0.7208(11) 0.8091(6)
C15 C 0.457(2) 0.7289(11) 0.8853(6)
C16 C 0.587(2) 0.8090(12) 0.9333(7)
H9 H 0.7320 0.8568 0.9177
C17 C 0.507(2) 0.8198(12) 1.0035(7)
H10 H 0.5953 0.8756 1.0347
C18 C 0.292(3) 0.7468(13) 1.0280(6)
H11 H 0.2384 0.7531 1.0757
C19 C 0.160(2) 0.6653(13) 0.9810(7)
H12 H 0.0173 0.6164 0.9976
C20 C 0.236(2) 0.6554(10) 0.9100(6)
C21 C 0.080(2) 0.5734(9) 0.8594(6)
C22 C 0.169(2) 0.5704(9) 0.7826(6)
loop_
_geom_bond_atom_site_label_1
_geom_bond_atom_site_label_2
_geom_bond_site_symmetry_1
_geom_bond_site_symmetry_2
I1 C1 1_555 1_555
I2 C7 1_555 1_555
O1 C5 1_555 1_555
O2 C11 1_555 1_555
O3 C21 1_555 1_555
O4 C14 1_555 1_555
C1 C2 1_555 1_555
C2 H1 1_555 1_555
C3 C2 1_555 1_555
H2 C3 1_555 1_555
C4 C3 1_555 1_555
H3 C4 1_555 1_555
C5 C4 1_555 1_555
C6 C1 1_555 1_555
H4 C6 1_555 1_555
C7 C8 1_555 1_555
C8 H5 1_555 1_555
C9 C8 1_555 1_555
H6 C9 1_555 1_555
C10 C9 1_555 1_555
H7 C10 1_555 1_555
C11 C10 1_555 1_555
C12 C7 1_555 1_555
H8 C12 1_555 1_555
C13 O2 1_555 1_555
C14 C13 1_555 1_555
C15 C14 1_555 1_555
C16 C15 1_555 1_555
H9 C16 1_555 1_555
C17 C16 1_555 1_555
H10 C17 1_555 1_555
C18 C17 1_555 1_555
H11 C18 1_555 1_555
C19 C18 1_555 1_555
H12 C19 1_555 1_555
C20 C15 1_555 1_555
C21 C20 1_555 1_555
C22 O1 1_555 1_555
C5 C6 1_555 1_555
C11 C12 1_555 1_555
C13 C22 1_555 1_555
C19 C20 1_555 1_555
C21 C22 1_555 1_555

#END
