
#######################################################################
#
#                 Cambridge Crystallographic Data Centre
#                                CCDC 
#
#######################################################################
#
# If this CIF has been generated from an entry in the Cambridge 
# Structural Database, then it will include bibliographic, chemical, 
# crystal, experimental, refinement or atomic coordinate data resulting 
# from the CCDC's data processing and validation procedures.
#
#######################################################################

data_XETREW
_chemical_formula_moiety         'C15 H9 F9 O1'
_chemical_name_systematic        
1-methyl-1-(nonafluorobutyl)naphthalen-2(1H)-one
_symmetry_cell_setting           monoclinic
_symmetry_space_group_name_H-M   'P 21/c'
_symmetry_Int_Tables_number      14
_space_group_name_Hall           '-P 2ybc'
loop_
_symmetry_equiv_pos_site_id
_symmetry_equiv_pos_as_xyz
1 x,y,z
2 -x,1/2+y,1/2-z
3 -x,-y,-z
4 x,1/2-y,1/2+z
_cell_length_a                   13.0373(4)
_cell_length_b                   11.7372(7)
_cell_length_c                   9.3797(8)
_cell_angle_alpha                90
_cell_angle_beta                 100.313(4)
_cell_angle_gamma                90
_cell_volume                     1412.11
_cell_formula_units_Z            4
loop_
_atom_site_label
_atom_site_type_symbol
_atom_site_fract_x
_atom_site_fract_y
_atom_site_fract_z
F1 F 0.7074(2) 0.3564(2) 0.8091(3)
O1 O 0.9299(3) 0.3750(3) 0.8730(3)
C1 C 0.8186(3) 0.4135(3) 0.6451(4)
C2 C 0.9072(3) 0.4437(4) 0.7731(4)
F2 F 0.6330(2) 0.4002(2) 0.5897(3)
F3 F 0.7542(2) 0.5737(3) 0.8739(3)
C3 C 0.9630(3) 0.5509(4) 0.7693(4)
H1 H 1.008724 0.575049 0.851487
F4 F 0.6973(3) 0.6278(3) 0.6548(4)
C4 C 0.9495(3) 0.6152(4) 0.6497(5)
H2 H 0.985605 0.683715 0.651980
F5 F 0.5524(4) 0.4774(3) 0.8658(8)
C5 C 0.8812(3) 0.5827(4) 0.5165(4)
C6 C 0.8193(3) 0.4844(4) 0.5082(4)
F6 F 0.5087(4) 0.5645(7) 0.6558(5)
C7 C 0.7602(4) 0.5190(5) 0.2552(5)
H3 H 0.720764 0.496243 0.167220
F7 F 0.4533(3) 0.6752(3) 0.8762(4)
C8 C 0.7596(3) 0.4532(4) 0.3774(5)
H4 H 0.718737 0.387848 0.371377
F8 F 0.5839(5) 0.7631(4) 0.8100(8)
C9 C 0.8792(4) 0.6506(4) 0.3919(5)
H5 H 0.918579 0.717013 0.397585
C10 C 0.8257(4) 0.2850(4) 0.6141(5)
H6 H 0.762833 0.260468 0.552111
H7 H 0.834527 0.243443 0.703622
H8 H 0.884172 0.270965 0.567184
C11 C 0.7131(3) 0.4290(4) 0.6980(4)
C12 C 0.6858(3) 0.5486(4) 0.7525(5)
C13 C 0.5744(3) 0.5623(5) 0.7871(5)
C14 C 0.5507(5) 0.6709(5) 0.8584(8)
C15 C 0.8191(4) 0.6188(5) 0.2616(5)
H9 H 0.817825 0.663287 0.179173
F9 F 0.6037(4) 0.6685(5) 0.9991(5)
loop_
_geom_bond_atom_site_label_1
_geom_bond_atom_site_label_2
_geom_bond_site_symmetry_1
_geom_bond_site_symmetry_2
F1 C11 1_555 1_555
O1 C2 1_555 1_555
C1 C2 1_555 1_555
C2 C3 1_555 1_555
F2 C11 1_555 1_555
F3 C12 1_555 1_555
C3 H1 1_555 1_555
F4 C12 1_555 1_555
C4 C3 1_555 1_555
H2 C4 1_555 1_555
F5 C13 1_555 1_555
C5 C4 1_555 1_555
C6 C1 1_555 1_555
F6 C13 1_555 1_555
C7 H3 1_555 1_555
F7 C14 1_555 1_555
C8 C6 1_555 1_555
H4 C8 1_555 1_555
F8 C14 1_555 1_555
C9 C5 1_555 1_555
H5 C9 1_555 1_555
C10 C1 1_555 1_555
H6 C10 1_555 1_555
H7 C10 1_555 1_555
H8 C10 1_555 1_555
C11 C1 1_555 1_555
C12 C11 1_555 1_555
C13 C12 1_555 1_555
C14 C13 1_555 1_555
C15 C7 1_555 1_555
H9 C15 1_555 1_555
F9 C14 1_555 1_555
C5 C6 1_555 1_555
C7 C8 1_555 1_555
C9 C15 1_555 1_555

#END
