
#######################################################################
#
#                 Cambridge Crystallographic Data Centre
#                                CCDC 
#
#######################################################################
#
# If this CIF has been generated from an entry in the Cambridge 
# Structural Database, then it will include bibliographic, chemical, 
# crystal, experimental, refinement or atomic coordinate data resulting 
# from the CCDC's data processing and validation procedures.
#
#######################################################################

data_XETYOM
_chemical_formula_moiety         'C48 H50 N2 O2 S4'
_chemical_name_systematic        
5-(5-(1-Benzothiophen-2-yl)-2-thienyl)-3-(5-(5-(1-benzothiophen-2-yl)-2-thienyl)-1-(2-ethylhexyl)-2-oxo-1,2-dihydro-3H-pyrrol-3-ylidene)-1-(2-ethylhexyl)-1,3-dihydro-2H-pyrrol-2-one
_symmetry_cell_setting           triclinic
_symmetry_space_group_name_H-M   'P -1'
_symmetry_Int_Tables_number      2
_space_group_name_Hall           '-P 1'
loop_
_symmetry_equiv_pos_site_id
_symmetry_equiv_pos_as_xyz
1 x,y,z
2 -x,-y,-z
_cell_length_a                   9.6290(19)
_cell_length_b                   9.900(2)
_cell_length_c                   12.559(3)
_cell_angle_alpha                74.57(3)
_cell_angle_beta                 84.40(3)
_cell_angle_gamma                62.82(3)
_cell_volume                     1026.22
_exptl_crystal_colour            'dark green'
_exptl_crystal_description       Platelet
_cell_formula_units_Z            1
loop_
_atom_site_label
_atom_site_type_symbol
_atom_site_fract_x
_atom_site_fract_y
_atom_site_fract_z
S1 S 0.09974(13) 0.30094(13) 0.13177(10)
S2 S -0.1033(4) 0.1328(3) 0.0819(3)
C1 C -0.2734(18) 0.2210(19) 0.2434(13)
H1 H -0.3090 0.2636 0.3059
O1 O 0.4511(4) 0.6883(4) 0.1332(3)
N1 N 0.2580(4) 0.6055(4) 0.1639(3)
C2 C -0.2415(5) 0.0708(5) 0.1276(4)
C3 C -0.2686(6) -0.0277(6) 0.0794(5)
H2 H -0.2093 -0.0618 0.0184
C4 C -0.3816(6) -0.0751(6) 0.1208(5)
H3 H -0.3983 -0.1436 0.0891
C5 C -0.4697(6) -0.0245(6) 0.2070(5)
H4 H -0.5459 -0.0598 0.2350
C6 C -0.4500(6) 0.0775(7) 0.2544(4)
H5 H -0.5136 0.1139 0.3132
C7 C -0.3341(6) 0.1262(5) 0.2139(4)
C8 C -0.1609(5) 0.2467(5) 0.1759(3)
C9 C -0.0877(5) 0.3464(5) 0.1763(3)
C10 C -0.1505(5) 0.4830(5) 0.2098(4)
H6 H -0.2529 0.5275 0.2373
C11 C -0.0472(5) 0.5506(5) 0.1991(4)
H7 H -0.0732 0.6450 0.2194
C12 C 0.0938(5) 0.4679(5) 0.1569(3)
C13 C 0.2264(5) 0.4999(5) 0.1243(3)
C14 C 0.3348(5) 0.4406(5) 0.0500(3)
H8 H 0.3398 0.3656 0.0138
C15 C 0.4386(5) 0.5082(5) 0.0352(4)
C16 C 0.3906(5) 0.6116(5) 0.1133(4)
C17 C 0.1815(6) 0.6892(5) 0.2490(4)
H9 H 0.0690 0.7538 0.2290
H10 H 0.2260 0.7612 0.2504
C18 C 0.1992(10) 0.5766(11) 0.3702(7)
H11 H 0.1400 0.5161 0.3692
C19 C 0.3698(11) 0.4567(11) 0.4013(8)
H12 H 0.4095 0.3964 0.3443
H13 H 0.4310 0.5155 0.3971
C20 C 0.4041(16) 0.3404(19) 0.5131(13)
H14 H 0.3382 0.2867 0.5219
H15 H 0.3821 0.3960 0.5714
H16 H 0.5143 0.2631 0.5185
C21 C 0.1296(11) 0.6657(11) 0.4612(7)
H17 H 0.1416 0.5887 0.5329
H18 H 0.1902 0.7219 0.4668
C22 C -0.0430(13) 0.7839(15) 0.4411(9)
H19 H -0.0541 0.8762 0.3807
H20 H -0.1019 0.7353 0.4192
C23 C -0.1072(15) 0.8346(13) 0.5468(8)
H21 H -0.1166 0.7467 0.6016
H22 H -0.0324 0.8581 0.5777
C24 C -0.2613(15) 0.9740(15) 0.5296(12)
H23 H -0.2543 1.0596 0.4722
H24 H -0.2931 1.0067 0.5988
H25 H -0.3385 0.9481 0.5065
S1A S 0.90026(13) 0.69906(13) -0.13177(10)
S2A S 1.1033(4) 0.8672(3) -0.0819(3)
C1A C 1.2734(18) 0.7790(19) -0.2434(13)
H1A H 1.3090 0.7364 -0.3059
O1A O 0.5489(4) 0.3117(4) -0.1332(3)
N1A N 0.7420(4) 0.3945(4) -0.1639(3)
C2A C 1.2415(5) 0.9292(5) -0.1276(4)
C3A C 1.2686(6) 1.0277(6) -0.0794(5)
H2A H 1.2093 1.0618 -0.0184
C4A C 1.3816(6) 1.0751(6) -0.1208(5)
H3A H 1.3983 1.1436 -0.0891
C5A C 1.4697(6) 1.0245(6) -0.2070(5)
H4A H 1.5459 1.0598 -0.2350
C6A C 1.4500(6) 0.9225(7) -0.2544(4)
H5A H 1.5136 0.8861 -0.3132
C7A C 1.3341(6) 0.8738(5) -0.2139(4)
C8A C 1.1609(5) 0.7533(5) -0.1759(3)
C9A C 1.0877(5) 0.6536(5) -0.1763(3)
C10A C 1.1505(5) 0.5170(5) -0.2098(4)
H6A H 1.2529 0.4725 -0.2373
C11A C 1.0472(5) 0.4494(5) -0.1991(4)
H7A H 1.0732 0.3550 -0.2194
C12A C 0.9062(5) 0.5321(5) -0.1569(3)
C13A C 0.7736(5) 0.5001(5) -0.1243(3)
C14A C 0.6652(5) 0.5594(5) -0.0500(3)
H8A H 0.6602 0.6344 -0.0138
C15A C 0.5614(5) 0.4918(5) -0.0352(4)
C16A C 0.6094(5) 0.3884(5) -0.1133(4)
C17A C 0.8185(6) 0.3108(5) -0.2490(4)
H9A H 0.9310 0.2462 -0.2290
H10A H 0.7740 0.2388 -0.2504
C18A C 0.8008(10) 0.4234(11) -0.3702(7)
H11A H 0.8600 0.4839 -0.3692
C19A C 0.6302(11) 0.5433(11) -0.4013(8)
H12A H 0.5905 0.6036 -0.3443
H13A H 0.5690 0.4845 -0.3971
C20A C 0.5959(16) 0.6596(19) -0.5131(13)
H14A H 0.6618 0.7133 -0.5219
H15A H 0.6179 0.6040 -0.5714
H16A H 0.4857 0.7369 -0.5185
C21A C 0.8704(11) 0.3343(11) -0.4612(7)
H17A H 0.8584 0.4113 -0.5329
H18A H 0.8098 0.2781 -0.4668
C22A C 1.0430(13) 0.2161(15) -0.4411(9)
H19A H 1.0541 0.1238 -0.3807
H20A H 1.1019 0.2647 -0.4192
C23A C 1.1072(15) 0.1654(13) -0.5468(8)
H21A H 1.1166 0.2533 -0.6016
H22A H 1.0324 0.1419 -0.5777
C24A C 1.2613(15) 0.0260(15) -0.5296(12)
H23A H 1.2543 -0.0596 -0.4722
H24A H 1.2931 -0.0067 -0.5988
H25A H 1.3385 0.0519 -0.5065
S3? S -0.3099(6) 0.2554(6) 0.2665(4)
C25? C -0.145(2) 0.149(2) 0.1114(14)
H26? H -0.0685 0.1326 0.0557
C26? C 0.2656(16) 0.6182(13) 0.3559(9)
H27? H 0.3753 0.6041 0.3466
C27? C 0.2646(17) 0.4597(15) 0.3981(10)
H28? H 0.3155 0.3955 0.3443
H29? H 0.1554 0.4749 0.4056
C28? C 0.352(2) 0.373(3) 0.5110(16)
H30? H 0.4554 0.3700 0.5057
H31? H 0.3628 0.2661 0.5324
H32? H 0.2924 0.4290 0.5668
C29? C 0.1758(14) 0.7349(16) 0.4272(11)
H33? H 0.2377 0.6991 0.4963
H34? H 0.1709 0.8378 0.3873
C30? C 0.0096(17) 0.760(2) 0.4585(14)
H35? H 0.0116 0.6605 0.5032
H36? H -0.0550 0.7950 0.3908
C31? C -0.0622(18) 0.8853(19) 0.5253(14)
H37? H 0.0115 0.8582 0.5860
H38? H -0.0778 0.9882 0.4766
C32? C -0.215(2) 0.898(3) 0.5728(16)
H39? H -0.2860 0.9168 0.5136
H40? H -0.2620 0.9859 0.6082
H41? H -0.1985 0.8007 0.6278
loop_
_geom_bond_atom_site_label_1
_geom_bond_atom_site_label_2
_geom_bond_site_symmetry_1
_geom_bond_site_symmetry_2
S1 C9 1_555 1_555
S2 C2 1_555 1_555
C1 H1 1_555 1_555
O1 C16 1_555 1_555
N1 C13 1_555 1_555
C2 C3 1_555 1_555
C3 H2 1_555 1_555
C4 C3 1_555 1_555
H3 C4 1_555 1_555
C5 C4 1_555 1_555
H4 C5 1_555 1_555
C6 C5 1_555 1_555
H5 C6 1_555 1_555
C7 C1 1_555 1_555
C8 S2 1_555 1_555
C9 C8 1_555 1_555
C10 C9 1_555 1_555
H6 C10 1_555 1_555
C11 C10 1_555 1_555
H7 C11 1_555 1_555
C12 S1 1_555 1_555
C13 C12 1_555 1_555
C14 C13 1_555 1_555
H8 C14 1_555 1_555
C15 C14 1_555 1_555
C16 N1 1_555 1_555
C17 N1 1_555 1_555
H9 C17 1_555 1_555
H10 C17 1_555 1_555
C18 C17 1_555 1_555
H11 C18 1_555 1_555
C19 C18 1_555 1_555
H12 C19 1_555 1_555
H13 C19 1_555 1_555
C20 C19 1_555 1_555
H14 C20 1_555 1_555
H15 C20 1_555 1_555
H16 C20 1_555 1_555
C21 C18 1_555 1_555
H17 C21 1_555 1_555
H18 C21 1_555 1_555
C22 C21 1_555 1_555
H19 C22 1_555 1_555
H20 C22 1_555 1_555
C23 C22 1_555 1_555
H21 C23 1_555 1_555
H22 C23 1_555 1_555
C24 C23 1_555 1_555
H23 C24 1_555 1_555
H24 C24 1_555 1_555
H25 C24 1_555 1_555
S1A C9A 1_555 1_555
S2A C2A 1_555 1_555
C1A H1A 1_555 1_555
O1A C16A 1_555 1_555
N1A C13A 1_555 1_555
C2A C3A 1_555 1_555
C3A H2A 1_555 1_555
C4A C3A 1_555 1_555
H3A C4A 1_555 1_555
C5A C4A 1_555 1_555
H4A C5A 1_555 1_555
C6A C5A 1_555 1_555
H5A C6A 1_555 1_555
C7A C1A 1_555 1_555
C8A S2A 1_555 1_555
C9A C8A 1_555 1_555
C10A C9A 1_555 1_555
H6A C10A 1_555 1_555
C11A C10A 1_555 1_555
H7A C11A 1_555 1_555
C12A S1A 1_555 1_555
C13A C12A 1_555 1_555
C14A C13A 1_555 1_555
H8A C14A 1_555 1_555
C15A C15 1_555 1_555
C16A N1A 1_555 1_555
C17A N1A 1_555 1_555
H9A C17A 1_555 1_555
H10A C17A 1_555 1_555
C18A C17A 1_555 1_555
H11A C18A 1_555 1_555
C19A C18A 1_555 1_555
H12A C19A 1_555 1_555
H13A C19A 1_555 1_555
C20A C19A 1_555 1_555
H14A C20A 1_555 1_555
H15A C20A 1_555 1_555
H16A C20A 1_555 1_555
C21A C18A 1_555 1_555
H17A C21A 1_555 1_555
H18A C21A 1_555 1_555
C22A C21A 1_555 1_555
H19A C22A 1_555 1_555
H20A C22A 1_555 1_555
C23A C22A 1_555 1_555
H21A C23A 1_555 1_555
H22A C23A 1_555 1_555
C24A C23A 1_555 1_555
H23A C24A 1_555 1_555
H24A C24A 1_555 1_555
H25A C24A 1_555 1_555
C1 C8 1_555 1_555
C2 C7 1_555 1_555
C6 C7 1_555 1_555
C11 C12 1_555 1_555
C15 C16 1_555 1_555
C1A C8A 1_555 1_555
C2A C7A 1_555 1_555
C6A C7A 1_555 1_555
C11A C12A 1_555 1_555
C14A C15A 1_555 1_555
C15A C16A 1_555 1_555

#END
