
#######################################################################
#
#                 Cambridge Crystallographic Data Centre
#                                CCDC 
#
#######################################################################
#
# If this CIF has been generated from an entry in the Cambridge 
# Structural Database, then it will include bibliographic, chemical, 
# crystal, experimental, refinement or atomic coordinate data resulting 
# from the CCDC's data processing and validation procedures.
#
#######################################################################

data_XETZIH
_chemical_formula_moiety         
'0.54(C36 H23 Cl1 N2 O1),0.46(C36 H23 N5 O1),0.25(C6 H14),0.5(C1 H4 O1)'
_chemical_name_systematic        
'(9-Cyano-2,3,4,5-tetraphenyl-1H-benzo[b]azepine-1-carbonyl chloride 9-cyano-2,3,4,5-tetraphenyl-1H-benzo[b]azepine-1-carbonyl azide) n-hexane methanol solvate'
_symmetry_cell_setting           monoclinic
_symmetry_space_group_name_H-M   'I 2/a'
_symmetry_Int_Tables_number      15
_space_group_name_Hall           '-I 2ya'
loop_
_symmetry_equiv_pos_site_id
_symmetry_equiv_pos_as_xyz
1 x,y,z
2 1/2-x,y,-z
3 1/2+x,1/2+y,1/2+z
4 -x,1/2+y,1/2-z
5 -x,-y,-z
6 1/2+x,-y,z
7 1/2-x,1/2-y,1/2-z
8 x,1/2-y,1/2+z
_cell_length_a                   18.527(3)
_cell_length_b                   10.1040(14)
_cell_length_c                   32.704(4)
_cell_angle_alpha                90
_cell_angle_beta                 98.228(3)
_cell_angle_gamma                90
_cell_volume                     6059.07
_exptl_crystal_colour            colorless
_exptl_crystal_description       block
_cell_formula_units_Z            8
loop_
_atom_site_label
_atom_site_type_symbol
_atom_site_fract_x
_atom_site_fract_y
_atom_site_fract_z
C37 C 0.7859(4) 0.4361(10) 0.0090(3)
C38 C 0.8192(8) 0.4709(15) -0.0260(4)
C39 C 0.7774(5) 0.5099(8) -0.0642(3)
C37A C 0.7141(4) 0.4361(10) -0.0090(3)
C38A C 0.6808(8) 0.4709(15) 0.0260(4)
C39A C 0.7226(5) 0.5099(8) 0.0642(3)
Cl1 Cl 1.02625(11) 0.5233(2) 0.06373(8)
O1 O 0.89934(10) 0.53778(16) 0.08938(6)
N1 N 1.09365(12) 0.3145(2) 0.17357(7)
N2 N 1.00047(9) 0.60422(16) 0.13609(5)
C1 C 0.95486(10) 0.66005(19) 0.16423(6)
C2 C 0.93623(10) 0.78862(19) 0.15863(6)
C3 C 0.96410(10) 0.87404(18) 0.12750(6)
C4 C 1.03344(11) 0.87110(19) 0.11802(6)
C5 C 1.09089(11) 0.7779(2) 0.13623(6)
C6 C 1.07462(11) 0.6461(2) 0.14412(6)
C7 C 1.12934(12) 0.5571(2) 0.16013(6)
C8 C 1.20146(12) 0.5987(2) 0.16779(7)
H1 H 1.2389 0.5384 0.1783
C9 C 1.21837(12) 0.7293(2) 0.15996(7)
H2 H 1.2675 0.7587 0.1657
C10 C 1.16427(11) 0.8168(2) 0.14393(7)
H3 H 1.1770 0.9050 0.1380
C11 C 0.93611(10) 0.56737(19) 0.19627(6)
C12 C 0.92813(12) 0.4326(2) 0.18701(7)
H4 H 0.9342 0.4022 0.1602
C13 C 0.91152(12) 0.3429(2) 0.21619(7)
H5 H 0.9063 0.2517 0.2094
C14 C 0.90248(11) 0.3858(2) 0.25531(7)
H6 H 0.8903 0.3245 0.2753
C15 C 0.91129(11) 0.5191(2) 0.26528(7)
H7 H 0.9056 0.5486 0.2922
C16 C 0.92828(10) 0.60921(19) 0.23620(6)
H8 H 0.9347 0.7000 0.2434
C17 C 0.88081(10) 0.84921(18) 0.18204(6)
C18 C 0.81038(11) 0.7968(2) 0.17822(7)
H9 H 0.7975 0.7238 0.1604
C19 C 0.75928(11) 0.8508(2) 0.20034(7)
H10 H 0.7114 0.8149 0.1975
C20 C 0.77755(11) 0.9563(2) 0.22648(7)
H11 H 0.7425 0.9923 0.2419
C21 C 0.84698(11) 1.00984(19) 0.23023(7)
H12 H 0.8595 1.0826 0.2482
C22 C 0.89816(10) 0.95733(18) 0.20774(6)
H13 H 0.9454 0.9956 0.2099
C23 C 0.90745(11) 0.9649(2) 0.10564(6)
C24 C 0.84809(12) 0.9080(2) 0.08093(7)
H14 H 0.8458 0.8147 0.0776
C25 C 0.79212(13) 0.9867(3) 0.06113(8)
H15 H 0.7516 0.9471 0.0445
C26 C 0.79542(14) 1.1224(3) 0.06570(8)
H16 H 0.7575 1.1762 0.0519
C27 C 0.85315(15) 1.1796(3) 0.09002(8)
H17 H 0.8549 1.2731 0.0932
C28 C 0.90923(13) 1.1024(2) 0.11014(7)
H18 H 0.9490 1.1432 0.1271
C29 C 1.05788(11) 0.9601(2) 0.08607(6)
C30 C 1.07804(15) 1.0904(2) 0.09457(8)
H19 H 1.0751 1.1265 0.1211
C31 C 1.10250(16) 1.1685(3) 0.06437(9)
H20 H 1.1163 1.2577 0.0704
C32 C 1.10677(14) 1.1168(3) 0.02574(8)
H21 H 1.1225 1.1711 0.0050
C33 C 1.08833(13) 0.9868(3) 0.01721(7)
H22 H 1.0921 0.9505 -0.0092
C34 C 1.06431(12) 0.9093(2) 0.04746(7)
H23 H 1.0520 0.8194 0.0416
C35 C 0.96780(15) 0.5542(2) 0.09973(8)
C36 C 1.10969(13) 0.4216(2) 0.16752(7)
N3? N 1.0191(6) 0.5026(10) 0.0801(3)
N4? N 0.9699(4) 0.3699(7) 0.02074(18)
N5? N 0.9923(3) 0.4340(5) 0.04802(15)
C40? C 0.745(3) 0.528(2) 0.0154(13)
O2? O 0.755(13) 0.646(4) 0.0018(14)
O3? O 0.7636(6) 0.6685(11) 0.0172(4)
C41? C 0.7479(12) 0.559(2) -0.0329(7)
loop_
_geom_bond_atom_site_label_1
_geom_bond_atom_site_label_2
_geom_bond_site_symmetry_1
_geom_bond_site_symmetry_2
Cl1 C35 1_555 1_555
O1 C35 1_555 1_555
N1 C36 1_555 1_555
N2 C1 1_555 1_555
C1 C2 1_555 1_555
C2 C3 1_555 1_555
C3 C4 1_555 1_555
C4 C5 1_555 1_555
C5 C6 1_555 1_555
C6 N2 1_555 1_555
C7 C6 1_555 1_555
C8 C7 1_555 1_555
H1 C8 1_555 1_555
C9 C8 1_555 1_555
H2 C9 1_555 1_555
C10 C5 1_555 1_555
H3 C10 1_555 1_555
C11 C1 1_555 1_555
C12 C11 1_555 1_555
H4 C12 1_555 1_555
C13 C12 1_555 1_555
H5 C13 1_555 1_555
C14 C13 1_555 1_555
H6 C14 1_555 1_555
C15 C14 1_555 1_555
H7 C15 1_555 1_555
C16 C11 1_555 1_555
H8 C16 1_555 1_555
C17 C2 1_555 1_555
C18 C17 1_555 1_555
H9 C18 1_555 1_555
C19 C18 1_555 1_555
H10 C19 1_555 1_555
C20 C19 1_555 1_555
H11 C20 1_555 1_555
C21 C20 1_555 1_555
H12 C21 1_555 1_555
C22 C17 1_555 1_555
H13 C22 1_555 1_555
C23 C3 1_555 1_555
C24 C23 1_555 1_555
H14 C24 1_555 1_555
C25 C24 1_555 1_555
H15 C25 1_555 1_555
C26 C25 1_555 1_555
H16 C26 1_555 1_555
C27 C26 1_555 1_555
H17 C27 1_555 1_555
C28 C23 1_555 1_555
H18 C28 1_555 1_555
C29 C4 1_555 1_555
C30 C29 1_555 1_555
H19 C30 1_555 1_555
C31 C30 1_555 1_555
H20 C31 1_555 1_555
C32 C31 1_555 1_555
H21 C32 1_555 1_555
C33 C32 1_555 1_555
H22 C33 1_555 1_555
C34 C29 1_555 1_555
H23 C34 1_555 1_555
C35 N2 1_555 1_555
C36 C7 1_555 1_555
C37 C38 1_555 1_555
C38 C39 1_555 1_555
C37A C37 1_555 1_555
C38A C37A 1_555 1_555
C39A C38A 1_555 1_555
C9 C10 1_555 1_555
C15 C16 1_555 1_555
C21 C22 1_555 1_555
C27 C28 1_555 1_555
C33 C34 1_555 1_555

#END
