
#######################################################################
#
#                 Cambridge Crystallographic Data Centre
#                                CCDC 
#
#######################################################################
#
# If this CIF has been generated from an entry in the Cambridge 
# Structural Database, then it will include bibliographic, chemical, 
# crystal, experimental, refinement or atomic coordinate data resulting 
# from the CCDC's data processing and validation procedures.
#
#######################################################################

data_XEVWIH
_chemical_formula_moiety         'C20 H20 O6'
_chemical_name_systematic        
'methyl 1,11-dihydroxy-3,6,9-trimethyl-6H,12H-6,12-methanodibenzo[d,g][1,3]dioxocine-2-carboxylate'
_symmetry_cell_setting           triclinic
_symmetry_space_group_name_H-M   'P -1'
_symmetry_Int_Tables_number      2
_space_group_name_Hall           '-P 1'
loop_
_symmetry_equiv_pos_site_id
_symmetry_equiv_pos_as_xyz
1 x,y,z
2 -x,-y,-z
_cell_length_a                   7.6701(9)
_cell_length_b                   11.2158(14)
_cell_length_c                   19.323(3)
_cell_angle_alpha                92.767(3)
_cell_angle_beta                 91.849(3)
_cell_angle_gamma                90.152(3)
_cell_volume                     1659.47
_exptl_crystal_colour            colorless
_exptl_crystal_description       plate
_cell_formula_units_Z            4
loop_
_atom_site_label
_atom_site_type_symbol
_atom_site_fract_x
_atom_site_fract_y
_atom_site_fract_z
O1 O 0.1404(6) 0.7692(4) 0.8052(2)
C1 C 0.2212(9) 0.8516(6) 0.7026(4)
H1 H 0.194745 0.927658 0.723265
O2 O 0.2804(6) 0.6511(4) 0.8859(2)
C2 C 0.2827(9) 0.8449(6) 0.6366(4)
O3 O 0.4854(6) 0.3584(4) 0.7154(3)
H2 H 0.430529 0.399691 0.686886
C3 C 0.3217(8) 0.7295(6) 0.6064(4)
O4 O 0.3336(7) 0.5164(4) 0.6208(3)
H3 H 0.393190 0.519238 0.585213
C4 C 0.2967(8) 0.6302(6) 0.6451(4)
O5 O 0.4184(8) 0.6073(5) 0.5114(3)
C5 C 0.2337(8) 0.6382(6) 0.7118(3)
O6 O 0.3946(6) 0.8015(4) 0.4973(2)
C6 C 0.1962(8) 0.7502(6) 0.7404(4)
C7 C 0.2074(8) 0.5299(6) 0.7551(3)
H4 H 0.173082 0.458730 0.724455
C8 C 0.0632(8) 0.5604(6) 0.8054(4)
H5 H -0.046766 0.576673 0.779352
H6 H 0.043033 0.492518 0.835062
C9 C 0.1180(9) 0.6684(6) 0.8493(4)
C10 C 0.3928(8) 0.5630(6) 0.8630(4)
C11 C 0.3700(8) 0.5029(6) 0.7982(4)
C12 C 0.4959(9) 0.4188(6) 0.7787(4)
C13 C 0.6332(9) 0.3907(6) 0.8236(4)
H7 H 0.717587 0.333418 0.809525
C14 C 0.6465(8) 0.4474(6) 0.8898(4)
C15 C 0.5298(8) 0.5372(6) 0.9079(4)
H8 H 0.544183 0.580884 0.951059
C16 C 0.7886(9) 0.4100(7) 0.9411(4)
H9 H 0.750082 0.339067 0.964236
H10 H 0.811509 0.475237 0.975841
H11 H 0.895511 0.391594 0.916406
C17 C -0.0073(10) 0.7135(7) 0.9026(4)
H12 H -0.027665 0.651152 0.935282
H13 H -0.118018 0.734238 0.879538
H14 H 0.042015 0.784358 0.927707
C18 C 0.3843(8) 0.7073(6) 0.5356(4)
C19 C 0.4513(10) 0.7748(7) 0.4266(4)
H15 H 0.384555 0.706701 0.405994
H16 H 0.575832 0.755272 0.427847
H17 H 0.431632 0.844547 0.398796
C20 C 0.3121(11) 0.9599(6) 0.6015(4)
H18 H 0.434989 0.966031 0.589659
H19 H 0.282016 1.027458 0.632889
H20 H 0.238495 0.961099 0.559151
O7 O 0.6235(6) 0.8441(4) 0.8180(3)
C21 C 0.6995(8) 0.7216(6) 0.7239(4)
H21 H 0.665604 0.655752 0.749606
O8 O 0.7523(6) 0.9933(4) 0.8914(3)
C22 C 0.7649(8) 0.7007(6) 0.6577(4)
O9 O 1.0036(7) 1.1989(5) 0.7031(3)
H22 H 0.966399 1.141835 0.676952
C23 C 0.8116(9) 0.7996(7) 0.6197(4)
O10 O 0.8395(7) 1.0151(4) 0.6179(3)
H23 H 0.867693 0.996423 0.577206
C24 C 0.7917(8) 0.9148(6) 0.6501(4)
O11 O 0.9198(7) 0.8783(5) 0.5176(3)
C25 C 0.7284(8) 0.9347(6) 0.7170(4)
O12 O 0.8953(7) 0.6829(5) 0.5204(3)
C26 C 0.6829(8) 0.8375(6) 0.7531(4)
C27 C 0.7064(9) 1.0580(6) 0.7502(4)
H24 H 0.681744 1.116796 0.713842
C28 C 0.5533(9) 1.0525(6) 0.7986(4)
H25 H 0.534409 1.131974 0.821679
H26 H 0.445529 1.028843 0.771799
C29 C 0.5949(9) 0.9616(6) 0.8525(4)
C30 C 0.8736(9) 1.0665(6) 0.8630(4)
C31 C 0.8650(9) 1.0971(6) 0.7944(4)
C32 C 0.9989(9) 1.1678(6) 0.7708(4)
C33 C 1.1299(9) 1.2126(6) 0.8156(4)
H27 H 1.219038 1.261463 0.798866
C34 C 1.1314(9) 1.1861(6) 0.8858(4)
C35 C 1.0044(9) 1.1104(6) 0.9089(4)
H28 H 1.006899 1.088744 0.955884
C36 C 1.2654(9) 1.2442(7) 0.9352(4)
H29 H 1.279784 1.196645 0.976184
H30 H 1.226748 1.324735 0.949287
H31 H 1.377095 1.249206 0.912193
C37 C 0.4594(9) 0.9402(7) 0.9034(4)
H32 H 0.441205 1.013396 0.932023
H33 H 0.497382 0.876171 0.933142
H34 H 0.349982 0.916865 0.878810
C38 C 0.8796(9) 0.7914(7) 0.5496(4)
C39 C 0.9641(12) 0.6757(9) 0.4512(5)
H35 H 1.068753 0.725789 0.450206
H36 H 0.875851 0.703745 0.418012
H37 H 0.993955 0.592729 0.438678
C40 C 0.7857(10) 0.5709(6) 0.6335(4)
H38 H 0.746825 0.519339 0.669571
H39 H 0.908692 0.554985 0.624483
H40 H 0.715196 0.554698 0.590914
loop_
_geom_bond_atom_site_label_1
_geom_bond_atom_site_label_2
_geom_bond_site_symmetry_1
_geom_bond_site_symmetry_2
O1 C6 1_555 1_555
C1 H1 1_555 1_555
O2 C9 1_555 1_555
C2 C1 1_555 1_555
O3 H2 1_555 1_555
C3 C2 1_555 1_555
O4 H3 1_555 1_555
C4 C3 1_555 1_555
O5 C18 1_555 1_555
C5 C4 1_555 1_555
O6 C18 1_555 1_555
C6 C1 1_555 1_555
C7 C5 1_555 1_555
H4 C7 1_555 1_555
C8 C7 1_555 1_555
H5 C8 1_555 1_555
H6 C8 1_555 1_555
C9 O1 1_555 1_555
C10 O2 1_555 1_555
C11 C7 1_555 1_555
C12 O3 1_555 1_555
C13 C12 1_555 1_555
H7 C13 1_555 1_555
C14 C13 1_555 1_555
C15 C10 1_555 1_555
H8 C15 1_555 1_555
C16 C14 1_555 1_555
H9 C16 1_555 1_555
H10 C16 1_555 1_555
H11 C16 1_555 1_555
C17 C9 1_555 1_555
H12 C17 1_555 1_555
H13 C17 1_555 1_555
H14 C17 1_555 1_555
C18 C3 1_555 1_555
C19 O6 1_555 1_555
H15 C19 1_555 1_555
H16 C19 1_555 1_555
H17 C19 1_555 1_555
C20 C2 1_555 1_555
H18 C20 1_555 1_555
H19 C20 1_555 1_555
H20 C20 1_555 1_555
O7 C26 1_555 1_555
C21 H21 1_555 1_555
O8 C29 1_555 1_555
C22 C21 1_555 1_555
O9 H22 1_555 1_555
C23 C22 1_555 1_555
O10 H23 1_555 1_555
C24 C23 1_555 1_555
O11 C38 1_555 1_555
C25 C24 1_555 1_555
O12 C38 1_555 1_555
C26 C21 1_555 1_555
C27 C25 1_555 1_555
H24 C27 1_555 1_555
C28 C27 1_555 1_555
H25 C28 1_555 1_555
H26 C28 1_555 1_555
C29 O7 1_555 1_555
C30 O8 1_555 1_555
C31 C27 1_555 1_555
C32 O9 1_555 1_555
C33 C32 1_555 1_555
H27 C33 1_555 1_555
C34 C33 1_555 1_555
C35 C30 1_555 1_555
H28 C35 1_555 1_555
C36 C34 1_555 1_555
H29 C36 1_555 1_555
H30 C36 1_555 1_555
H31 C36 1_555 1_555
C37 C29 1_555 1_555
H32 C37 1_555 1_555
H33 C37 1_555 1_555
H34 C37 1_555 1_555
C38 C23 1_555 1_555
C39 O12 1_555 1_555
H35 C39 1_555 1_555
H36 C39 1_555 1_555
H37 C39 1_555 1_555
C40 C22 1_555 1_555
H38 C40 1_555 1_555
H39 C40 1_555 1_555
H40 C40 1_555 1_555
O4 C4 1_555 1_555
C5 C6 1_555 1_555
C8 C9 1_555 1_555
C10 C11 1_555 1_555
C11 C12 1_555 1_555
C14 C15 1_555 1_555
O10 C24 1_555 1_555
C25 C26 1_555 1_555
C28 C29 1_555 1_555
C30 C31 1_555 1_555
C31 C32 1_555 1_555
C34 C35 1_555 1_555

#END
