
#######################################################################
#
#                 Cambridge Crystallographic Data Centre
#                                CCDC 
#
#######################################################################
#
# If this CIF has been generated from an entry in the Cambridge 
# Structural Database, then it will include bibliographic, chemical, 
# crystal, experimental, refinement or atomic coordinate data resulting 
# from the CCDC's data processing and validation procedures.
#
#######################################################################

data_XEWNUL
_chemical_formula_moiety         'C21 H30 B1 N3 O4 S1'
_chemical_name_systematic        
10-[(1,3-dimethyl-1H-3\l^5^-imidazol-2-yl)-\l^5^-boranyl]-4-methyl-2-[(4-methylphenyl)sulfonyl]-8-oxa-2-azabicyclo[4.3.1]decan-7-one
_symmetry_cell_setting           monoclinic
_symmetry_space_group_name_H-M   'P 21/n'
_symmetry_Int_Tables_number      14
_space_group_name_Hall           '-P 2yn'
loop_
_symmetry_equiv_pos_site_id
_symmetry_equiv_pos_as_xyz
1 x,y,z
2 1/2-x,1/2+y,1/2-z
3 -x,-y,-z
4 1/2+x,1/2-y,1/2+z
_cell_length_a                   6.4029(2)
_cell_length_b                   19.0917(6)
_cell_length_c                   18.5197(4)
_cell_angle_alpha                90
_cell_angle_beta                 95.209(2)
_cell_angle_gamma                90
_cell_volume                     2254.54
_exptl_crystal_description       block
_cell_formula_units_Z            4
loop_
_atom_site_label
_atom_site_type_symbol
_atom_site_fract_x
_atom_site_fract_y
_atom_site_fract_z
S1 S 0.09110(11) 0.54878(4) 0.78903(4)
N1 N -0.0673(3) 0.58006(10) 0.72238(10)
O1 O 0.0513(3) 0.68401(11) 0.59997(9)
C1 C -0.0771(3) 0.65844(12) 0.72013(11)
H1 H -0.0491 0.6750 0.7702
N2 N -0.3118(3) 0.77945(10) 0.84573(10)
C2 C -0.2256(3) 0.79740(11) 0.78458(12)
C3 C -0.2875(3) 0.68891(12) 0.69103(10)
H2 H -0.3969 0.6660 0.7163
N3 N -0.0582(3) 0.83691(10) 0.80815(12)
O2 O 0.0947(5) 0.47445(12) 0.78142(13)
O3 O 0.2846(3) 0.58730(14) 0.79034(11)
C4 C -0.3198(5) 0.53638(18) 0.61924(17)
H3 H -0.4238 0.4988 0.6120
C5 C -0.0188(4) 0.56867(13) 0.87027(13)
C6 C -0.2565(4) 0.53735(14) 0.70056(15)
H4 H -0.3728 0.5554 0.7251
H5 H -0.2308 0.4896 0.7169
C7 C 0.0931(4) 0.68840(14) 0.67758(12)
H6 H 0.1136 0.7372 0.6909
H7 H 0.2231 0.6639 0.6917
O4 O -0.1595(4) 0.69035(19) 0.50221(10)
B1 B -0.3055(4) 0.77376(16) 0.70366(14)
C8 C -0.0416(5) 0.84280(16) 0.88221(16)
H8 H 0.0614 0.8672 0.9106
C9 C -0.2044(5) 0.60360(17) 0.99571(14)
C10 C -0.4950(5) 0.73494(17) 0.84891(16)
H9 H -0.5876 0.7411 0.8056
H10 H -0.5668 0.7475 0.8904
H11 H -0.4517 0.6869 0.8528
C11 C -0.4330(5) 0.60187(18) 0.59101(15)
H12 H -0.5708 0.6019 0.6089
H13 H -0.4539 0.5982 0.5386
C12 C 0.0631(5) 0.62060(18) 0.91556(16)
H14 H 0.1821 0.6448 0.9044
C13 C -0.1418(5) 0.68407(18) 0.56726(13)
C14 C -0.3314(4) 0.67342(15) 0.60944(12)
H15 H -0.4343 0.7085 0.5908
C15 C -0.1998(5) 0.80723(15) 0.90590(14)
H16 H -0.2292 0.8021 0.9539
C16 C -0.1948(7) 0.5339(2) 0.88757(18)
H17 H -0.2516 0.4980 0.8580
C17 C 0.0820(5) 0.87375(16) 0.7623(2)
H18 H 0.0084 0.8834 0.7159
H19 H 0.2018 0.8449 0.7560
H20 H 0.1274 0.9170 0.7852
C18 C -0.2867(7) 0.5527(2) 0.94915(19)
H21 H -0.4090 0.5300 0.9596
C19 C -0.0303(6) 0.63705(18) 0.97737(16)
H22 H 0.0278 0.6723 1.0075
C20 C -0.3088(7) 0.6234(2) 1.06295(18)
H23 H -0.4569 0.6286 1.0508
H24 H -0.2514 0.6668 1.0819
H25 H -0.2842 0.5873 1.0988
C21 C -0.1366(7) 0.5130(2) 0.5775(2)
H26 H -0.0280 0.5478 0.5822
H27 H -0.1844 0.5071 0.5272
H28 H -0.0824 0.4693 0.5968
H29 H -0.213(4) 0.8027(14) 0.6655(14)
H30 H -0.477(4) 0.7902(14) 0.6919(14)
loop_
_geom_bond_atom_site_label_1
_geom_bond_atom_site_label_2
_geom_bond_site_symmetry_1
_geom_bond_site_symmetry_2
S1 N1 1_555 1_555
N1 C1 1_555 1_555
O1 C7 1_555 1_555
C1 H1 1_555 1_555
N2 C2 1_555 1_555
C2 N3 1_555 1_555
C3 C1 1_555 1_555
H2 C3 1_555 1_555
N3 C8 1_555 1_555
O2 S1 1_555 1_555
O3 S1 1_555 1_555
C4 H3 1_555 1_555
C5 S1 1_555 1_555
C6 N1 1_555 1_555
H4 C6 1_555 1_555
H5 C6 1_555 1_555
C7 C1 1_555 1_555
H6 C7 1_555 1_555
H7 C7 1_555 1_555
O4 C13 1_555 1_555
B1 C2 1_555 1_555
C8 H8 1_555 1_555
C9 C18 1_555 1_555
C10 N2 1_555 1_555
H9 C10 1_555 1_555
H10 C10 1_555 1_555
H11 C10 1_555 1_555
C11 C4 1_555 1_555
H12 C11 1_555 1_555
H13 C11 1_555 1_555
C12 C5 1_555 1_555
H14 C12 1_555 1_555
C13 O1 1_555 1_555
C14 C3 1_555 1_555
H15 C14 1_555 1_555
C15 N2 1_555 1_555
H16 C15 1_555 1_555
C16 C5 1_555 1_555
H17 C16 1_555 1_555
C17 N3 1_555 1_555
H18 C17 1_555 1_555
H19 C17 1_555 1_555
H20 C17 1_555 1_555
C18 C16 1_555 1_555
H21 C18 1_555 1_555
C19 C9 1_555 1_555
H22 C19 1_555 1_555
C20 C9 1_555 1_555
H23 C20 1_555 1_555
H24 C20 1_555 1_555
H25 C20 1_555 1_555
C21 C4 1_555 1_555
H26 C21 1_555 1_555
H27 C21 1_555 1_555
H28 C21 1_555 1_555
H29 B1 1_555 1_555
H30 B1 1_555 1_555
C3 B1 1_555 1_555
C4 C6 1_555 1_555
C8 C15 1_555 1_555
C11 C14 1_555 1_555
C12 C19 1_555 1_555
C13 C14 1_555 1_555

#END
