
#######################################################################
#
#                 Cambridge Crystallographic Data Centre
#                                CCDC 
#
#######################################################################
#
# If this CIF has been generated from an entry in the Cambridge 
# Structural Database, then it will include bibliographic, chemical, 
# crystal, experimental, refinement or atomic coordinate data resulting 
# from the CCDC's data processing and validation procedures.
#
#######################################################################

data_XEWSUO
_chemical_formula_moiety         'C24 H20 N4 Na1 O2 1+,Cl1 1-'
_chemical_name_systematic        
"Diaqua-bis(1,10-phenanthroline-k^2^N,N')-sodium chloride"
_symmetry_cell_setting           monoclinic
_symmetry_space_group_name_H-M   'P 21/c'
_symmetry_Int_Tables_number      14
_space_group_name_Hall           '-P 2ybc'
loop_
_symmetry_equiv_pos_site_id
_symmetry_equiv_pos_as_xyz
1 x,y,z
2 -x,1/2+y,1/2-z
3 -x,-y,-z
4 x,1/2-y,1/2+z
_cell_length_a                   16.352(3)
_cell_length_b                   15.579(3)
_cell_length_c                   9.1318(18)
_cell_angle_alpha                90
_cell_angle_beta                 104.54(3)
_cell_angle_gamma                90
_cell_volume                     2251.8
_exptl_crystal_colour            yellow
_exptl_crystal_description       block
_cell_formula_units_Z            4
loop_
_atom_site_label
_atom_site_type_symbol
_atom_site_fract_x
_atom_site_fract_y
_atom_site_fract_z
Na1 Na 0.24427(6) 0.02643(6) -0.00190(9)
N1 N 0.38817(15) -0.03851(14) 0.0995(3)
N2 N 0.30171(16) -0.04275(13) -0.1968(2)
N3 N 0.09111(14) -0.00284(13) -0.1308(2)
N4 N 0.18567(14) -0.11495(13) 0.0731(2)
O1 O 0.28200(14) 0.12913(14) 0.1999(2)
H1 H 0.2923 0.1082 0.2886
H2 H 0.2803 0.1786 0.1601
O2 O 0.22539(15) 0.15013(12) -0.1556(2)
H3 H 0.2368 0.2002 -0.1194
H4 H 0.2370 0.1542 -0.2410
C1 C 0.4328(2) -0.0341(2) 0.2419(4)
H5 H 0.4113 -0.0027 0.3104
C2 C 0.5116(3) -0.0750(3) 0.2939(5)
H6 H 0.5414 -0.0711 0.3948
C3 C 0.5428(3) -0.1201(3) 0.1938(7)
H7 H 0.5949 -0.1472 0.2266
C4 C 0.4989(2) -0.1269(2) 0.0433(5)
C5 C 0.5292(3) -0.1735(2) -0.0705(7)
H8 H 0.5802 -0.2029 -0.0427
C6 C 0.4841(4) -0.1747(3) -0.2159(7)
H9 H 0.5049 -0.2051 -0.2864
C7 C 0.4073(3) -0.1317(2) -0.2640(5)
C8 C 0.3605(4) -0.1276(3) -0.4145(5)
H10 H 0.3796 -0.1569 -0.4882
C9 C 0.2887(4) -0.0822(3) -0.4549(4)
H11 H 0.2581 -0.0789 -0.5554
C10 C 0.2620(2) -0.0407(2) -0.3423(3)
H12 H 0.2124 -0.0088 -0.3704
C11 C 0.3746(2) -0.08592(16) -0.1553(4)
C12 C 0.42081(17) -0.08401(15) -0.0001(4)
C13 C 0.0443(2) 0.04937(19) -0.2338(3)
H13 H 0.0686 0.1003 -0.2552
C14 C -0.0387(2) 0.0326(2) -0.3113(4)
H14 H -0.0685 0.0714 -0.3823
C15 C -0.0752(2) -0.0406(2) -0.2820(4)
H15 H -0.1305 -0.0531 -0.3337
C16 C -0.03029(17) -0.09780(18) -0.1743(3)
C17 C -0.0653(2) -0.1760(2) -0.1351(4)
H16 H -0.1207 -0.1903 -0.1834
C18 C -0.0205(2) -0.2289(2) -0.0310(4)
H17 H -0.0455 -0.2788 -0.0067
C19 C 0.06558(19) -0.21052(17) 0.0443(3)
C20 C 0.1153(2) -0.26531(19) 0.1521(3)
H18 H 0.0923 -0.3156 0.1793
C21 C 0.1968(2) -0.2453(2) 0.2167(3)
H19 H 0.2301 -0.2810 0.2893
C22 C 0.2302(2) -0.16962(18) 0.1722(3)
H20 H 0.2868 -0.1572 0.2148
C23 C 0.10368(17) -0.13470(15) 0.0092(3)
C24 C 0.05414(17) -0.07609(15) -0.1008(3)
Cl1 Cl 0.25958(6) 0.32207(5) 0.02343(8)
loop_
_geom_bond_atom_site_label_1
_geom_bond_atom_site_label_2
_geom_bond_site_symmetry_1
_geom_bond_site_symmetry_2
Na1 N1 1_555 1_555
N1 C1 1_555 1_555
N2 Na1 1_555 1_555
N3 Na1 1_555 1_555
N4 Na1 1_555 1_555
O1 Na1 1_555 1_555
H1 O1 1_555 1_555
H2 O1 1_555 1_555
O2 Na1 1_555 1_555
H3 O2 1_555 1_555
H4 O2 1_555 1_555
C1 H5 1_555 1_555
C2 C1 1_555 1_555
H6 C2 1_555 1_555
C3 C2 1_555 1_555
H7 C3 1_555 1_555
C4 C3 1_555 1_555
C5 C4 1_555 1_555
H8 C5 1_555 1_555
C6 C5 1_555 1_555
H9 C6 1_555 1_555
C7 C6 1_555 1_555
C8 C7 1_555 1_555
H10 C8 1_555 1_555
C9 C8 1_555 1_555
H11 C9 1_555 1_555
C10 N2 1_555 1_555
H12 C10 1_555 1_555
C11 N2 1_555 1_555
C12 N1 1_555 1_555
C13 N3 1_555 1_555
H13 C13 1_555 1_555
C14 C13 1_555 1_555
H14 C14 1_555 1_555
C15 C14 1_555 1_555
H15 C15 1_555 1_555
C16 C15 1_555 1_555
C17 C16 1_555 1_555
H16 C17 1_555 1_555
C18 C17 1_555 1_555
H17 C18 1_555 1_555
C19 C18 1_555 1_555
C20 C19 1_555 1_555
H18 C20 1_555 1_555
C21 C20 1_555 1_555
H19 C21 1_555 1_555
C22 N4 1_555 1_555
H20 C22 1_555 1_555
C23 N4 1_555 1_555
C24 N3 1_555 1_555
C4 C12 1_555 1_555
C7 C11 1_555 1_555
C9 C10 1_555 1_555
C11 C12 1_555 1_555
C16 C24 1_555 1_555
C19 C23 1_555 1_555
C21 C22 1_555 1_555
C23 C24 1_555 1_555

#END
