
#######################################################################
#
#                 Cambridge Crystallographic Data Centre
#                                CCDC 
#
#######################################################################
#
# If this CIF has been generated from an entry in the Cambridge 
# Structural Database, then it will include bibliographic, chemical, 
# crystal, experimental, refinement or atomic coordinate data resulting 
# from the CCDC's data processing and validation procedures.
#
#######################################################################

data_XEWWII
_chemical_formula_moiety         'C20 H26 F2 N2 O3'
_chemical_name_systematic        
't-butyl {1-[7-(difluoromethoxy)-2,3-dihydro-1H-pyrrolo[1,2-a]indol-9-yl]propan-2-yl}carbamate'
_symmetry_cell_setting           monoclinic
_symmetry_space_group_name_H-M   'P 21'
_symmetry_Int_Tables_number      4
_space_group_name_Hall           'P 2yb'
loop_
_symmetry_equiv_pos_site_id
_symmetry_equiv_pos_as_xyz
1 x,y,z
2 -x,1/2+y,-z
_cell_length_a                   5.2805(11)
_cell_length_b                   16.218(3)
_cell_length_c                   11.449(2)
_cell_angle_alpha                90
_cell_angle_beta                 102.64(3)
_cell_angle_gamma                90
_cell_volume                     956.72
_exptl_crystal_colour            colorless
_exptl_crystal_description       plate
_cell_formula_units_Z            2
loop_
_atom_site_label
_atom_site_type_symbol
_atom_site_fract_x
_atom_site_fract_y
_atom_site_fract_z
F1 F 0.5034(12) 0.7811(4) 1.1936(5)
F2 F 0.8508(12) 0.7092(4) 1.2468(4)
O1 O 0.6971(11) 0.7412(4) 1.0538(5)
O2 O -0.0408(11) 0.7758(4) 0.6337(5)
O3 O 0.3262(10) 0.8475(4) 0.7233(5)
N1 N 0.3614(13) 0.7410(4) 0.6037(5)
H1 H 0.5253 0.7559 0.6160
N2 N 0.8421(13) 0.4847(4) 0.7602(6)
C1 C 0.6322(18) 0.7183(6) 1.1572(8)
H2 H 0.5254 0.6669 1.1462
C2 C 0.7447(16) 0.6746(5) 0.9813(7)
C3 C 0.9736(17) 0.6261(5) 1.0203(8)
H3 H 1.0910 0.6386 1.0936
C4 C 1.0225(16) 0.5621(5) 0.9522(7)
H4 H 1.1740 0.5293 0.9766
C5 C 0.8409(16) 0.5451(5) 0.8431(7)
C6 C 0.6163(16) 0.5948(5) 0.8030(7)
C7 C 0.5691(16) 0.6593(5) 0.8759(7)
H5 H 0.4177 0.6923 0.8529
C8 C 0.4818(15) 0.5609(5) 0.6895(6)
C9 C 0.6214(16) 0.4947(5) 0.6686(7)
C10 C 0.6156(17) 0.4254(6) 0.5822(7)
H6 H 0.5914 0.4463 0.4993
H7 H 0.4736 0.3863 0.5862
C11 C 0.8854(18) 0.3829(6) 0.6228(8)
H8 H 0.8663 0.3221 0.6198
H9 H 1.0023 0.3993 0.5701
C12 C 0.9950(17) 0.4115(6) 0.7513(8)
H10 H 0.9703 0.3691 0.8100
H11 H 1.1820 0.4249 0.7640
C13 C 0.2362(16) 0.5941(5) 0.6106(7)
H12 H 0.1170 0.6112 0.6618
H13 H 0.1506 0.5491 0.5580
C14 C 0.2778(16) 0.6680(5) 0.5315(6)
H14 H 0.1055 0.6811 0.4785
C15 C 0.4590(17) 0.6502(6) 0.4523(7)
H15 H 0.4691 0.6983 0.4016
H16 H 0.3958 0.6025 0.4016
H17 H 0.6316 0.6381 0.5012
C16 C 0.1979(17) 0.7868(5) 0.6525(6)
C17 C 0.1915(15) 0.9007(5) 0.7932(7)
C18 C -0.0027(18) 0.9560(6) 0.7091(8)
H18 H 0.0874 0.9864 0.6564
H19 H -0.0802 0.9950 0.7566
H20 H -0.1394 0.9218 0.6607
C19 C 0.0649(17) 0.8508(6) 0.8778(7)
H21 H -0.0868 0.8216 0.8316
H22 H 0.0103 0.8880 0.9352
H23 H 0.1899 0.8107 0.9212
C20 C 0.4137(19) 0.9520(7) 0.8666(10)
H24 H 0.5305 0.9161 0.9228
H25 H 0.3427 0.9945 0.9112
H26 H 0.5103 0.9783 0.8127
loop_
_geom_bond_atom_site_label_1
_geom_bond_atom_site_label_2
_geom_bond_site_symmetry_1
_geom_bond_site_symmetry_2
F1 C1 1_555 1_555
F2 C1 1_555 1_555
O1 C1 1_555 1_555
O2 C16 1_555 1_555
O3 C16 1_555 1_555
N1 H1 1_555 1_555
N2 C5 1_555 1_555
C1 H2 1_555 1_555
C2 O1 1_555 1_555
C3 C2 1_555 1_555
H3 C3 1_555 1_555
C4 C3 1_555 1_555
H4 C4 1_555 1_555
C5 C4 1_555 1_555
C6 C5 1_555 1_555
C7 C2 1_555 1_555
H5 C7 1_555 1_555
C8 C6 1_555 1_555
C9 N2 1_555 1_555
C10 C9 1_555 1_555
H6 C10 1_555 1_555
H7 C10 1_555 1_555
C11 C10 1_555 1_555
H8 C11 1_555 1_555
H9 C11 1_555 1_555
C12 N2 1_555 1_555
H10 C12 1_555 1_555
H11 C12 1_555 1_555
C13 C8 1_555 1_555
H12 C13 1_555 1_555
H13 C13 1_555 1_555
C14 N1 1_555 1_555
H14 C14 1_555 1_555
C15 C14 1_555 1_555
H15 C15 1_555 1_555
H16 C15 1_555 1_555
H17 C15 1_555 1_555
C16 N1 1_555 1_555
C17 O3 1_555 1_555
C18 C17 1_555 1_555
H18 C18 1_555 1_555
H19 C18 1_555 1_555
H20 C18 1_555 1_555
C19 C17 1_555 1_555
H21 C19 1_555 1_555
H22 C19 1_555 1_555
H23 C19 1_555 1_555
C20 C17 1_555 1_555
H24 C20 1_555 1_555
H25 C20 1_555 1_555
H26 C20 1_555 1_555
C6 C7 1_555 1_555
C8 C9 1_555 1_555
C11 C12 1_555 1_555
C13 C14 1_555 1_555

#END
