
#######################################################################
#
#                 Cambridge Crystallographic Data Centre
#                                CCDC 
#
#######################################################################
#
# If this CIF has been generated from an entry in the Cambridge 
# Structural Database, then it will include bibliographic, chemical, 
# crystal, experimental, refinement or atomic coordinate data resulting 
# from the CCDC's data processing and validation procedures.
#
#######################################################################

data_XEWZIJ
_chemical_formula_moiety         'C21 H24 O6'
_chemical_name_systematic        
'ethyl (4-((E)-2-(3,4,5-trimethoxyphenyl)vinyl)phenoxy)acetate'
_symmetry_cell_setting           monoclinic
_symmetry_space_group_name_H-M   'C 2/c'
_symmetry_Int_Tables_number      15
_space_group_name_Hall           '-C 2yn'
loop_
_symmetry_equiv_pos_site_id
_symmetry_equiv_pos_as_xyz
1 x,y,z
2 1/2+x,1/2+y,z
3 -x,y,1/2-z
4 1/2-x,1/2+y,1/2-z
5 -x,-y,-z
6 1/2-x,1/2-y,-z
7 x,-y,1/2+z
8 1/2+x,1/2-y,1/2+z
_cell_length_a                   39.999(8)
_cell_length_b                   7.5712(12)
_cell_length_c                   13.889(2)
_cell_angle_alpha                90
_cell_angle_beta                 108.225(5)
_cell_angle_gamma                90
_cell_volume                     3995.15
_exptl_crystal_colour            yellow
_exptl_crystal_description       block
_chemical_melting_point          '98-100 deg.C'
_cell_formula_units_Z            8
_exptl_crystal_recrystallization_method ethanol/water
loop_
_atom_site_label
_atom_site_type_symbol
_atom_site_fract_x
_atom_site_fract_y
_atom_site_fract_z
O1 O 0.45230(4) 0.8435(3) 0.67687(12)
O2 O 0.45360(4) 0.9131(2) 0.49156(12)
O3 O 0.39777(5) 0.8533(3) 0.32905(12)
O4 O 0.18819(4) 0.3396(2) 0.62678(11)
O5 O 0.12626(5) 0.2031(3) 0.63833(13)
O6 O 0.10337(4) 0.2276(2) 0.47071(11)
C1 C 0.39053(6) 0.7515(3) 0.61449(17)
H1 H 0.3894 0.7315 0.6795
C2 C 0.42150(6) 0.8123(3) 0.60098(17)
C3 C 0.42322(6) 0.8454(3) 0.50387(17)
C4 C 0.39379(6) 0.8166(3) 0.42099(17)
C5 C 0.36316(7) 0.7533(3) 0.43523(18)
H2 H 0.3436 0.7324 0.3791
C6 C 0.36117(6) 0.7206(3) 0.53084(18)
C7 C 0.32708(7) 0.6523(4) 0.5375(2)
H3 H 0.3097 0.6334 0.4758
C8 C 0.31827(7) 0.6157(4) 0.6173(2)
H4 H 0.3350 0.6358 0.6799
C9 C 0.28369(6) 0.5442(3) 0.61747(19)
C10 C 0.27732(7) 0.5039(4) 0.7051(2)
H5 H 0.2949 0.5229 0.7663
C11 C 0.24576(7) 0.4362(4) 0.70637(19)
H6 H 0.2424 0.4096 0.7680
C12 C 0.21906(6) 0.4070(3) 0.61801(18)
C13 C 0.22438(7) 0.4456(5) 0.5289(2)
H7 H 0.2066 0.4262 0.4680
C14 C 0.25661(8) 0.5147(5) 0.5287(2)
H8 H 0.2600 0.5417 0.4672
C15 C 0.45271(8) 0.8156(5) 0.77869(18)
H9 H 0.4359 0.8926 0.7937
H10 H 0.4758 0.8404 0.8241
H11 H 0.4467 0.6950 0.7869
C16 C 0.47393(7) 0.7883(4) 0.4580(2)
H12 H 0.4818 0.6971 0.5081
H13 H 0.4939 0.8461 0.4480
H14 H 0.4598 0.7370 0.3952
C17 C 0.36775(9) 0.8360(6) 0.24207(19)
H15 H 0.3595 0.7162 0.2365
H16 H 0.3739 0.8668 0.1827
H17 H 0.3495 0.9134 0.2481
C18 C 0.16079(6) 0.3092(4) 0.53586(16)
H18 H 0.1684 0.2240 0.4949
H19 H 0.1550 0.4184 0.4977
C19 C 0.12896(6) 0.2410(3) 0.55814(18)
C20 C 0.06991(6) 0.1597(4) 0.47273(19)
H20 H 0.0602 0.2349 0.5139
H21 H 0.0726 0.0414 0.5009
C21 C 0.04605(7) 0.1576(4) 0.3644(2)
H22 H 0.0417 0.2765 0.3397
H23 H 0.0241 0.1023 0.3614
H24 H 0.0571 0.0925 0.3233
loop_
_geom_bond_atom_site_label_1
_geom_bond_atom_site_label_2
_geom_bond_site_symmetry_1
_geom_bond_site_symmetry_2
O1 C2 1_555 1_555
O2 C3 1_555 1_555
O3 C4 1_555 1_555
O4 C12 1_555 1_555
O5 C19 1_555 1_555
O6 C19 1_555 1_555
C1 H1 1_555 1_555
C2 C1 1_555 1_555
C3 C2 1_555 1_555
C4 C3 1_555 1_555
C5 C4 1_555 1_555
H2 C5 1_555 1_555
C6 C1 1_555 1_555
C7 C6 1_555 1_555
H3 C7 1_555 1_555
C8 C7 1_555 1_555
H4 C8 1_555 1_555
C9 C8 1_555 1_555
C10 C9 1_555 1_555
H5 C10 1_555 1_555
C11 C10 1_555 1_555
H6 C11 1_555 1_555
C12 C11 1_555 1_555
C13 C12 1_555 1_555
H7 C13 1_555 1_555
C14 C9 1_555 1_555
H8 C14 1_555 1_555
C15 O1 1_555 1_555
H9 C15 1_555 1_555
H10 C15 1_555 1_555
H11 C15 1_555 1_555
C16 O2 1_555 1_555
H12 C16 1_555 1_555
H13 C16 1_555 1_555
H14 C16 1_555 1_555
C17 O3 1_555 1_555
H15 C17 1_555 1_555
H16 C17 1_555 1_555
H17 C17 1_555 1_555
C18 O4 1_555 1_555
H18 C18 1_555 1_555
H19 C18 1_555 1_555
C19 C18 1_555 1_555
C20 O6 1_555 1_555
H20 C20 1_555 1_555
H21 C20 1_555 1_555
C21 C20 1_555 1_555
H22 C21 1_555 1_555
H23 C21 1_555 1_555
H24 C21 1_555 1_555
C5 C6 1_555 1_555
C13 C14 1_555 1_555

#END
