
#######################################################################
#
#                 Cambridge Crystallographic Data Centre
#                                CCDC 
#
#######################################################################
#
# If this CIF has been generated from an entry in the Cambridge 
# Structural Database, then it will include bibliographic, chemical, 
# crystal, experimental, refinement or atomic coordinate data resulting 
# from the CCDC's data processing and validation procedures.
#
#######################################################################

data_XEXCAH
_chemical_formula_moiety         'C16 H22 O1'
_chemical_name_systematic        
(1,5-dimethyl-2-methylidenecyclohexyl)(phenyl)methanol
_symmetry_cell_setting           triclinic
_symmetry_space_group_name_H-M   'P -1'
_symmetry_Int_Tables_number      2
_space_group_name_Hall           '-P 1'
loop_
_symmetry_equiv_pos_site_id
_symmetry_equiv_pos_as_xyz
1 x,y,z
2 -x,-y,-z
_cell_length_a                   10.0743(4)
_cell_length_b                   12.9965(9)
_cell_length_c                   22.0128(11)
_cell_angle_alpha                88.439(5)
_cell_angle_beta                 83.901(4)
_cell_angle_gamma                79.218(6)
_cell_volume                     2815.16
_exptl_crystal_colour            colourless
_exptl_crystal_description       prism
_cell_formula_units_Z            8
loop_
_atom_site_label
_atom_site_type_symbol
_atom_site_fract_x
_atom_site_fract_y
_atom_site_fract_z
O1 O 0.3593(2) 0.32412(16) 0.27257(11)
H1 H 0.433571 0.302215 0.253815
C1 C 0.3583(3) 0.4257(2) 0.29637(17)
H2 H 0.263653 0.453168 0.311661
C2 C 0.3960(3) 0.5014(3) 0.24612(18)
C3 C 0.4664(3) 0.4661(3) 0.19104(19)
H3 H 0.493346 0.394445 0.184572
C4 C 0.4974(4) 0.5358(4) 0.1453(2)
H4 H 0.544203 0.510454 0.108393
C5 C 0.4597(4) 0.6416(4) 0.1540(2)
H5 H 0.481479 0.688200 0.123376
C6 C 0.3894(4) 0.6784(3) 0.2084(2)
H6 H 0.363156 0.750106 0.214580
C7 C 0.3573(3) 0.6091(3) 0.25408(19)
H7 H 0.309254 0.634909 0.290612
C8 C 0.4412(3) 0.4199(3) 0.35290(18)
C9 C 0.4018(4) 0.5204(3) 0.38947(18)
C10 C 0.2595(3) 0.5419(3) 0.41989(17)
H8 H 0.196483 0.555319 0.388946
H9 H 0.246751 0.604275 0.444680
C11 C 0.2278(3) 0.4498(3) 0.46037(16)
H10 H 0.280152 0.443892 0.495242
H11 H 0.132273 0.463272 0.475563
C12 C 0.2611(4) 0.3470(3) 0.42559(17)
H12 H 0.200384 0.351039 0.393308
C13 C 0.4062(3) 0.3315(2) 0.39617(16)
H13 H 0.425014 0.266611 0.373383
H14 H 0.466241 0.323225 0.428310
C14 C 0.5935(3) 0.3938(2) 0.33156(15)
H15 H 0.618559 0.449265 0.305773
H16 H 0.613106 0.329463 0.309110
H17 H 0.644288 0.386203 0.366455
C15 C 0.4869(4) 0.5819(3) 0.39838(18)
H18 H 0.459138 0.639559 0.423797
H19 H 0.575205 0.567840 0.379284
C16 C 0.2389(4) 0.2550(3) 0.46832(17)
H20 H 0.296369 0.251021 0.500737
H21 H 0.260863 0.190884 0.445651
H22 H 0.145607 0.265424 0.485280
O2 O 0.62055(19) 0.18279(15) 0.22812(11)
H23 H 0.693133 0.193510 0.237807
C17 C 0.6391(3) 0.0786(2) 0.20378(16)
H24 H 0.735477 0.057064 0.189328
C18 C 0.6039(3) 0.0023(3) 0.25347(18)
C19 C 0.6473(3) -0.1054(3) 0.24500(18)
H25 H 0.696331 -0.129986 0.208419
C20 C 0.6180(4) -0.1762(4) 0.2905(2)
H26 H 0.648371 -0.247546 0.284320
C21 C 0.5450(4) -0.1420(4) 0.3444(3)
H27 H 0.524697 -0.189611 0.374619
C22 C 0.5021(4) -0.0367(4) 0.3532(2)
H28 H 0.452791 -0.012871 0.389884
C23 C 0.5311(3) 0.0350(3) 0.30818(19)
H29 H 0.500890 0.106190 0.315089
C24 C 0.5575(3) 0.0845(3) 0.14765(18)
C25 C 0.5978(4) -0.0168(3) 0.11126(18)
C26 C 0.7418(3) -0.0375(3) 0.08098(17)
H30 H 0.756137 -0.100138 0.056340
H31 H 0.804493 -0.049710 0.112093
C27 C 0.7712(3) 0.0547(3) 0.04057(16)
H32 H 0.866764 0.042115 0.025434
H33 H 0.719252 0.059125 0.005619
C28 C 0.7362(4) 0.1584(3) 0.07405(17)
H34 H 0.796290 0.155953 0.106457
C29 C 0.5910(3) 0.1729(2) 0.10326(15)
H35 H 0.531281 0.179191 0.071037
H36 H 0.570560 0.238393 0.125402
C30 C 0.4052(3) 0.1094(3) 0.16889(15)
H37 H 0.354558 0.116542 0.133968
H38 H 0.384715 0.173728 0.191354
H39 H 0.380918 0.053653 0.194651
C31 C 0.5137(4) -0.0793(3) 0.10215(18)
H40 H 0.542618 -0.137059 0.076836
H41 H 0.425182 -0.065912 0.120991
C32 C 0.7567(4) 0.2504(3) 0.03093(17)
H42 H 0.699425 0.253165 -0.001493
H43 H 0.849948 0.240790 0.014011
H44 H 0.733450 0.314712 0.053344
O3 O 0.10282(19) 0.31093(15) 0.22703(11)
H45 H 0.183909 0.292116 0.230767
C33 C 0.0759(3) 0.4203(2) 0.21220(15)
H46 H 0.163274 0.441676 0.199996
C34 C 0.0092(3) 0.4838(2) 0.26796(16)
C35 C -0.0523(3) 0.4385(3) 0.31843(17)
H47 H -0.054641 0.367358 0.318256
C36 C -0.1103(3) 0.4976(3) 0.36909(19)
H48 H -0.152177 0.465996 0.402333
C37 C -0.1063(3) 0.6011(3) 0.37058(19)
H49 H -0.144975 0.640367 0.404840
C38 C -0.0453(4) 0.6478(3) 0.32152(19)
H50 H -0.043504 0.718988 0.322284
C39 C 0.0137(3) 0.5891(3) 0.27070(17)
H51 H 0.056940 0.621090 0.238014
C40 C -0.0078(3) 0.4362(3) 0.15603(17)
C41 C -0.0154(3) 0.5483(3) 0.13171(17)
C42 C 0.1155(3) 0.5742(3) 0.10239(16)
H52 H 0.176261 0.575203 0.133617
H53 H 0.097591 0.643836 0.084555
C43 C 0.1854(3) 0.4975(3) 0.05322(17)
H54 H 0.274309 0.513218 0.039806
H55 H 0.132835 0.505830 0.018366
C44 C 0.2015(3) 0.3844(3) 0.07570(16)
H56 H 0.263685 0.375016 0.107576
C45 C 0.0652(3) 0.3628(2) 0.10363(15)
H57 H 0.078300 0.291365 0.119058
H58 H 0.005542 0.367227 0.071461
C46 C -0.1484(3) 0.4086(2) 0.17383(15)
H59 H -0.194543 0.452398 0.206890
H60 H -0.138205 0.336487 0.186402
H61 H -0.200326 0.419680 0.139337
C47 C -0.1297(3) 0.6181(3) 0.13332(17)
H62 H -0.129446 0.684179 0.116093
H63 H -0.210357 0.600992 0.151675
C48 C 0.2617(4) 0.3081(3) 0.02437(15)
H64 H 0.273621 0.237783 0.040166
H65 H 0.348003 0.323111 0.007640
H66 H 0.201311 0.315391 -0.007060
O4 O -0.12079(19) 0.18420(15) 0.27362(11)
H67 H -0.057108 0.207087 0.255308
C49 C -0.0770(3) 0.0757(2) 0.28865(16)
H68 H -0.159989 0.048112 0.301136
C50 C -0.0092(3) 0.0144(3) 0.23227(16)
C51 C -0.0099(3) -0.0917(3) 0.22916(17)
H69 H -0.052325 -0.124568 0.261704
C52 C 0.0509(3) -0.1497(3) 0.17893(19)
H70 H 0.052109 -0.221374 0.178386
C53 C 0.1103(3) -0.1013(3) 0.12923(18)
H71 H 0.149950 -0.139969 0.094905
C54 C 0.1103(3) 0.0037(3) 0.13091(19)
H72 H 0.149750 0.036860 0.097658
C55 C 0.0514(3) 0.0604(3) 0.18232(18)
H73 H 0.052853 0.131676 0.183182
C56 C 0.0064(3) 0.0611(3) 0.34484(17)
C57 C 0.0163(3) -0.0509(3) 0.36922(17)
C58 C -0.1133(3) -0.0792(3) 0.39745(16)
H74 H -0.094337 -0.148997 0.415029
H75 H -0.173293 -0.080530 0.365923
C59 C -0.1852(3) -0.0025(3) 0.44714(16)
H76 H -0.273214 -0.019653 0.460876
H77 H -0.132156 -0.009478 0.481811
C60 C -0.2043(3) 0.1102(3) 0.42402(16)
H78 H -0.265923 0.117956 0.391922
C61 C -0.0684(3) 0.1345(2) 0.39657(15)
H79 H -0.009645 0.131609 0.428967
H80 H -0.083328 0.205700 0.380806
C62 C 0.1459(3) 0.0913(2) 0.32675(15)
H81 H 0.197582 0.082459 0.361367
H82 H 0.133622 0.163064 0.313434
H83 H 0.193695 0.047073 0.294163
C63 C 0.1315(3) -0.1190(3) 0.36710(16)
H84 H 0.132717 -0.185901 0.383370
H85 H 0.211523 -0.100096 0.349328
C64 C -0.2673(4) 0.1868(3) 0.47541(16)
H86 H -0.208160 0.180038 0.507292
H87 H -0.353765 0.171235 0.491561
H88 H -0.279573 0.257122 0.459585
loop_
_geom_bond_atom_site_label_1
_geom_bond_atom_site_label_2
_geom_bond_site_symmetry_1
_geom_bond_site_symmetry_2
O1 H1 1_555 1_555
C1 O1 1_555 1_555
H2 C1 1_555 1_555
C2 C1 1_555 1_555
C3 C2 1_555 1_555
H3 C3 1_555 1_555
C4 C3 1_555 1_555
H4 C4 1_555 1_555
C5 C4 1_555 1_555
H5 C5 1_555 1_555
C6 C5 1_555 1_555
H6 C6 1_555 1_555
C7 C2 1_555 1_555
H7 C7 1_555 1_555
C8 C1 1_555 1_555
C9 C8 1_555 1_555
C10 C9 1_555 1_555
H8 C10 1_555 1_555
H9 C10 1_555 1_555
C11 C10 1_555 1_555
H10 C11 1_555 1_555
H11 C11 1_555 1_555
C12 C11 1_555 1_555
H12 C12 1_555 1_555
C13 C8 1_555 1_555
H13 C13 1_555 1_555
H14 C13 1_555 1_555
C14 C8 1_555 1_555
H15 C14 1_555 1_555
H16 C14 1_555 1_555
H17 C14 1_555 1_555
C15 C9 1_555 1_555
H18 C15 1_555 1_555
H19 C15 1_555 1_555
C16 C12 1_555 1_555
H20 C16 1_555 1_555
H21 C16 1_555 1_555
H22 C16 1_555 1_555
O2 H23 1_555 1_555
C17 O2 1_555 1_555
H24 C17 1_555 1_555
C18 C17 1_555 1_555
C19 C18 1_555 1_555
H25 C19 1_555 1_555
C20 C19 1_555 1_555
H26 C20 1_555 1_555
C21 C20 1_555 1_555
H27 C21 1_555 1_555
C22 C21 1_555 1_555
H28 C22 1_555 1_555
C23 C18 1_555 1_555
H29 C23 1_555 1_555
C24 C17 1_555 1_555
C25 C24 1_555 1_555
C26 C25 1_555 1_555
H30 C26 1_555 1_555
H31 C26 1_555 1_555
C27 C26 1_555 1_555
H32 C27 1_555 1_555
H33 C27 1_555 1_555
C28 C27 1_555 1_555
H34 C28 1_555 1_555
C29 C24 1_555 1_555
H35 C29 1_555 1_555
H36 C29 1_555 1_555
C30 C24 1_555 1_555
H37 C30 1_555 1_555
H38 C30 1_555 1_555
H39 C30 1_555 1_555
C31 C25 1_555 1_555
H40 C31 1_555 1_555
H41 C31 1_555 1_555
C32 C28 1_555 1_555
H42 C32 1_555 1_555
H43 C32 1_555 1_555
H44 C32 1_555 1_555
O3 H45 1_555 1_555
C33 O3 1_555 1_555
H46 C33 1_555 1_555
C34 C33 1_555 1_555
C35 C34 1_555 1_555
H47 C35 1_555 1_555
C36 C35 1_555 1_555
H48 C36 1_555 1_555
C37 C36 1_555 1_555
H49 C37 1_555 1_555
C38 C37 1_555 1_555
H50 C38 1_555 1_555
C39 C34 1_555 1_555
H51 C39 1_555 1_555
C40 C33 1_555 1_555
C41 C40 1_555 1_555
C42 C41 1_555 1_555
H52 C42 1_555 1_555
H53 C42 1_555 1_555
C43 C42 1_555 1_555
H54 C43 1_555 1_555
H55 C43 1_555 1_555
C44 C43 1_555 1_555
H56 C44 1_555 1_555
C45 C40 1_555 1_555
H57 C45 1_555 1_555
H58 C45 1_555 1_555
C46 C40 1_555 1_555
H59 C46 1_555 1_555
H60 C46 1_555 1_555
H61 C46 1_555 1_555
C47 C41 1_555 1_555
H62 C47 1_555 1_555
H63 C47 1_555 1_555
C48 C44 1_555 1_555
H64 C48 1_555 1_555
H65 C48 1_555 1_555
H66 C48 1_555 1_555
O4 H67 1_555 1_555
C49 O4 1_555 1_555
H68 C49 1_555 1_555
C50 C49 1_555 1_555
C51 C50 1_555 1_555
H69 C51 1_555 1_555
C52 C51 1_555 1_555
H70 C52 1_555 1_555
C53 C52 1_555 1_555
H71 C53 1_555 1_555
C54 C53 1_555 1_555
H72 C54 1_555 1_555
C55 C50 1_555 1_555
H73 C55 1_555 1_555
C56 C49 1_555 1_555
C57 C56 1_555 1_555
C58 C57 1_555 1_555
H74 C58 1_555 1_555
H75 C58 1_555 1_555
C59 C58 1_555 1_555
H76 C59 1_555 1_555
H77 C59 1_555 1_555
C60 C59 1_555 1_555
H78 C60 1_555 1_555
C61 C56 1_555 1_555
H79 C61 1_555 1_555
H80 C61 1_555 1_555
C62 C56 1_555 1_555
H81 C62 1_555 1_555
H82 C62 1_555 1_555
H83 C62 1_555 1_555
C63 C57 1_555 1_555
H84 C63 1_555 1_555
H85 C63 1_555 1_555
C64 C60 1_555 1_555
H86 C64 1_555 1_555
H87 C64 1_555 1_555
H88 C64 1_555 1_555
C6 C7 1_555 1_555
C12 C13 1_555 1_555
C22 C23 1_555 1_555
C28 C29 1_555 1_555
C38 C39 1_555 1_555
C44 C45 1_555 1_555
C54 C55 1_555 1_555
C60 C61 1_555 1_555

#END
