
#######################################################################
#
#                 Cambridge Crystallographic Data Centre
#                                CCDC 
#
#######################################################################
#
# If this CIF has been generated from an entry in the Cambridge 
# Structural Database, then it will include bibliographic, chemical, 
# crystal, experimental, refinement or atomic coordinate data resulting 
# from the CCDC's data processing and validation procedures.
#
#######################################################################

data_XEXDOT
_chemical_formula_moiety         'C19 H13 N1 O2 S1'
_chemical_name_systematic        
2-Methyl-4-phenylthieno(3,2-c)benzazepine-1,6-dione
_symmetry_cell_setting           monoclinic
_symmetry_space_group_name_H-M   'C c'
_symmetry_Int_Tables_number      9
_space_group_name_Hall           'C -2yc'
loop_
_symmetry_equiv_pos_site_id
_symmetry_equiv_pos_as_xyz
1 x,y,z
2 x,-y,1/2+z
3 1/2+x,1/2+y,z
4 1/2+x,1/2-y,1/2+z
_cell_length_a                   7.77580(10)
_cell_length_b                   26.7118(4)
_cell_length_c                   7.32680(10)
_cell_angle_alpha                90
_cell_angle_beta                 104.7290(10)
_cell_angle_gamma                90
_cell_volume                     1471.81
_exptl_crystal_colour            white
_chemical_melting_point          172-173deg.C
_cell_formula_units_Z            4
_exptl_crystal_recrystallization_method 'ethyl acetate/n-hexane'
loop_
_atom_site_label
_atom_site_type_symbol
_atom_site_fract_x
_atom_site_fract_y
_atom_site_fract_z
S1 S 0.0382(2) 0.2412(1) 0.5378(2)
N1 N -0.1825(7) 0.1076(2) 0.4637(8)
C1 C -0.4672(12) 0.2916(2) 0.4437(13)
O1 O 0.3411(8) 0.1768(2) 0.5537(10)
O2 O -0.1584(11) 0.0235(2) 0.4796(13)
C2 C -0.5679(15) 0.3336(3) 0.4190(15)
C3 C -0.4758(15) 0.3827(3) 0.4311(13)
C4 C -0.2936(12) 0.3810(2) 0.4691(14)
C5 C -0.2049(14) 0.3375(3) 0.4886(13)
C6 C -0.2883(11) 0.2910(2) 0.4808(11)
C7 C -0.1878(11) 0.2441(2) 0.4970(11)
C8 C -0.2609(10) 0.1958(3) 0.4789(10)
C9 C -0.1311(9) 0.1576(2) 0.4986(9)
C10 C 0.0448(10) 0.1772(2) 0.5321(10)
C11 C 0.2110(10) 0.1526(2) 0.5667(11)
C12 C 0.2341(10) 0.0999(2) 0.6458(10)
C13 C 0.1052(11) 0.0654(3) 0.6357(12)
C14 C -0.0892(10) 0.0641(2) 0.5227(11)
C15 C 0.1489(13) 0.0191(3) 0.7308(13)
C16 C 0.3221(13) 0.0082(3) 0.8317(13)
C17 C 0.4561(12) 0.0426(3) 0.8348(11)
C18 C 0.4086(12) 0.0886(3) 0.7396(12)
C19 C -0.3674(13) 0.0970(3) 0.3456(13)
H1 H -0.2300 0.4108 0.4817
H2 H -0.5290(8) 0.2614(19) 0.4120(8)
H3 H -0.6760(8) 0.3372(19) 0.4380(8)
H4 H -0.5870(10) 0.4110(3) 0.3560(9)
H5 H -0.0980(10) 0.3330(2) 0.5240(8)
H6 H -0.3870(9) 0.1920(2) 0.4550(9)
H7 H 0.0850(6) -0.0038(6) 0.7267(11)
H8 H 0.3520(7) -0.0150(2) 0.8890(7)
H9 H 0.6160(14) 0.0350(3) 0.9280(15)
H10 H 0.4900(6) 0.1130(14) 0.7470(5)
H11? H -0.3600(6) 0.2620(7) 0.0034(12)
H12? H -0.4010(9) 0.1260(2) 0.2670(9)
H13? H -0.4320(8) 0.4470(9) 0.0063(17)
loop_
_geom_bond_atom_site_label_1
_geom_bond_atom_site_label_2
_geom_bond_site_symmetry_1
_geom_bond_site_symmetry_2
S1 C7 1_555 1_555
N1 C9 1_555 1_555
C1 C2 1_555 1_555
O1 C11 1_555 1_555
O2 C14 1_555 1_555
C2 C3 1_555 1_555
C3 C4 1_555 1_555
C4 C5 1_555 1_555
C5 C6 1_555 1_555
C6 C1 1_555 1_555
C7 C6 1_555 1_555
C8 C7 1_555 1_555
C9 C8 1_555 1_555
C10 S1 1_555 1_555
C11 C10 1_555 1_555
C12 C11 1_555 1_555
C13 C12 1_555 1_555
C14 N1 1_555 1_555
C15 C13 1_555 1_555
C16 C15 1_555 1_555
C17 C16 1_555 1_555
C18 C12 1_555 1_555
C19 N1 1_555 1_555
H1 C4 1_555 1_555
H2 C1 1_555 1_555
H3 C2 1_555 1_555
H4 C3 1_555 1_555
H5 C5 1_555 1_555
H6 C8 1_555 1_555
H7 C15 1_555 1_555
H8 C16 1_555 1_555
H9 C17 1_555 1_555
H10 C18 1_555 1_555
C9 C10 1_555 1_555
C13 C14 1_555 1_555
C17 C18 1_555 1_555

#END
