
#######################################################################
#
#                 Cambridge Crystallographic Data Centre
#                                CCDC 
#
#######################################################################
#
# If this CIF has been generated from an entry in the Cambridge 
# Structural Database, then it will include bibliographic, chemical, 
# crystal, experimental, refinement or atomic coordinate data resulting 
# from the CCDC's data processing and validation procedures.
#
#######################################################################

data_XEXGAL
_chemical_formula_moiety         'C90 H52 Cl4 N12 O8,C7 H5 N3 O6'
_chemical_name_systematic        
"10,10',26,26'-tetrachloro-18,18'-bis(diphenylmethylene)-2,2'-bi(7,13,23,29-tetraoxa-9,11,25,27,35,40-hexaazaheptacyclo[28.2.2.2^3,6^.2^14,17^.2^19,22^.1^8,12^.1^24,28^]dotetracontane)-1(32),1'(32'),2(2'),3,3',5,5',8(40),8'(40'),9,9',11,11',14,14',16,16',19,19',21,21',24(35),24'(35'),25,25',27,27',30,30',33,33',36,36',38,38',41,41'-heptatriacontaene 2-methyl-1,3,5-trinitrobenzene unknown solvate"
_symmetry_cell_setting           monoclinic
_symmetry_space_group_name_H-M   'P 21/n'
_symmetry_Int_Tables_number      14
_space_group_name_Hall           '-P 2yn'
loop_
_symmetry_equiv_pos_site_id
_symmetry_equiv_pos_as_xyz
1 x,y,z
2 1/2-x,1/2+y,1/2-z
3 -x,-y,-z
4 1/2+x,1/2-y,1/2+z
_cell_length_a                   18.4479(3)
_cell_length_b                   16.7177(3)
_cell_length_c                   32.6769(7)
_cell_angle_alpha                90
_cell_angle_beta                 93.2044(18)
_cell_angle_gamma                90
_cell_volume                     10062
_exptl_crystal_colour            colorless
_exptl_crystal_description       block
_cell_formula_units_Z            4
_chemical_properties_physical    ', Efflorescent'
_exptl_crystal_preparation       ', Luminescent'
loop_
_atom_site_label
_atom_site_type_symbol
_atom_site_fract_x
_atom_site_fract_y
_atom_site_fract_z
Cl1 Cl 0.65180(4) 0.13780(4) 0.21068(2)
Cl2 Cl 0.41694(3) 1.06544(4) 0.60188(2)
Cl3 Cl 0.83918(4) 1.11320(4) 0.28685(2)
Cl4 Cl -0.08392(4) 0.45904(5) 0.38462(4)
O1 O 0.17652(8) 0.47054(9) 0.37446(5)
O2 O 0.45635(9) 0.85099(9) 0.50622(5)
O3 O 0.74730(8) 0.35039(10) 0.29737(5)
O4 O 0.35360(10) 1.08604(9) 0.45691(5)
C1 C 0.43082(11) 0.65786(12) 0.36338(7)
O5 O 0.65099(9) 0.91339(10) 0.28184(5)
O6 O 0.84347(9) 0.88358(10) 0.37693(6)
N1 N 0.74539(10) 0.89096(11) 0.33020(6)
N2 N 0.43706(10) 0.95155(11) 0.54960(6)
N3 N 0.38284(11) 1.07314(11) 0.52411(6)
C2 C 0.36798(11) 0.60198(12) 0.36518(7)
N4 N 0.11644(10) 0.59162(11) 0.37056(6)
N5 N 0.40430(10) 0.96563(11) 0.47826(6)
C3 C 0.52386(11) 0.72356(13) 0.32103(6)
C4 C 0.51109(12) 0.77506(13) 0.45471(7)
H1 H 0.5565 0.7819 0.4695
C5 C 0.43044(12) 0.92560(13) 0.51088(7)
N6 N 0.84013(11) 0.98899(13) 0.33488(7)
C6 C 0.72859(11) 0.52330(13) 0.38968(7)
C7 C 0.64048(13) 0.50072(14) 0.46110(7)
N7 N 0.70211(10) 0.25576(12) 0.25501(6)
C8 C 0.44874(12) 0.81186(12) 0.46780(7)
C9 C 0.76045(12) 0.66345(13) 0.41474(7)
C10 C 0.82698(12) 0.66809(14) 0.39612(7)
H2 H 0.8535 0.6205 0.3916
C11 C 0.38706(12) 1.01774(13) 0.39428(7)
H3 H 0.4372 1.0237 0.4019
C12 C 0.24148(11) 0.51420(12) 0.37033(7)
C13 C 0.29318(12) 0.51058(13) 0.40254(7)
H4 H 0.2860 0.4781 0.4258
C14 C 0.38205(12) 0.80182(13) 0.44732(7)
H5 H 0.3403 0.8282 0.4564
C15 C 0.43892(12) 0.71532(12) 0.39838(7)
C16 C 0.69169(12) 0.56934(14) 0.45818(7)
C17 C 0.50563(11) 0.72800(12) 0.41952(7)
H6 H 0.5481 0.7041 0.4098
C18 C 0.63843(12) 0.77011(15) 0.29597(8)
H7 H 0.6859 0.7593 0.2875
C19 C 0.37717(12) 0.75210(13) 0.41302(7)
H8 H 0.3311 0.7430 0.3993
C20 C 0.25213(12) 0.55634(13) 0.33485(7)
H9 H 0.2166 0.5556 0.3127
C21 C 0.72607(12) 0.58429(13) 0.42290(7)
C22 C 0.29127(13) 0.96871(13) 0.34704(7)
C23 C 0.47534(11) 0.65620(13) 0.33124(7)
C24 C 0.72246(12) 0.54598(13) 0.34822(7)
H10 H 0.7154 0.6007 0.3413
C25 C 0.49874(12) 0.80251(13) 0.32070(7)
H11 H 0.4512 0.8136 0.3289
C26 C 0.38105(12) 1.03898(13) 0.48693(7)
C27 C 0.31585(12) 0.59983(13) 0.33227(7)
H12 H 0.3242 0.6285 0.3079
O7 O 0.04509(9) 0.70465(11) 0.36687(7)
C28 C 0.29453(14) 0.91116(13) 0.27594(7)
C29 C 0.54259(12) 0.86516(14) 0.30848(7)
H13 H 0.5251 0.9186 0.3082
C30 C 0.74118(13) 0.44248(14) 0.39882(8)
H14 H 0.7472 0.4260 0.4266
C31 C 0.61178(12) 0.84843(14) 0.29684(7)
C32 C 0.35618(12) 0.55593(13) 0.39987(7)
H15 H 0.3918 0.5555 0.4220
C33 C 0.72384(12) 0.73508(14) 0.42246(7)
H16 H 0.6796 0.7332 0.4360
C34 C 0.41166(12) 1.02563(14) 0.55304(7)
C35 C 0.75091(12) 0.80855(15) 0.41075(8)
H17 H 0.7262 0.8568 0.4165
C36 C 0.47978(11) 0.58359(14) 0.30497(8)
N8 N 0.74045(11) 1.00366(12) 0.28525(6)
C37 C 0.73740(11) 0.41037(14) 0.32726(7)
C38 C 0.59395(12) 0.70914(14) 0.30776(7)
H18 H 0.6111 0.6556 0.3069
C39 C 0.34687(14) 0.97186(14) 0.26173(7)
C40 C 0.20943(13) 0.85463(13) 0.32637(8)
N9 N 0.63258(11) 0.37224(14) 0.26815(8)
C41 C 0.72664(12) 0.48939(14) 0.31692(7)
H19 H 0.7221 0.5053 0.2890
C42 C 0.11487(12) 0.51274(14) 0.37469(8)
C43 C 0.64491(13) 0.23165(15) 0.23223(8)
C44 C 0.33488(14) 1.04990(13) 0.41830(7)
C45 C 0.80232(13) 1.02536(15) 0.30415(8)
C46 C 0.26246(14) 1.04815(14) 0.40636(8)
H20 H 0.2278 1.0743 0.4222
N10 N 0.05589(11) 0.46734(13) 0.37946(8)
C47 C 0.36482(13) 0.97659(13) 0.35892(7)
H21 H 0.4002 0.9534 0.3425
C48 C 0.71484(12) 0.93534(14) 0.30020(7)
C49 C 0.26587(13) 0.91271(13) 0.31344(7)
C50 C 0.48686(12) 0.50895(14) 0.32385(9)
H22 H 0.4834 0.5048 0.3527
C51 C 0.70286(14) 0.62044(14) 0.49564(7)
C52 C 0.24049(13) 1.00716(14) 0.37049(8)
H23 H 0.1905 1.0054 0.3619
N11 N -0.01210(11) 0.58911(14) 0.37548(9)
C53 C 0.85486(12) 0.74124(14) 0.38411(7)
H24 H 0.9003 0.7439 0.3718
C54 C 0.69129(12) 0.32654(14) 0.27285(8)
C55 C 0.74502(12) 0.38601(14) 0.36778(8)
H25 H 0.7528 0.3312 0.3743
C56 C 0.38498(16) 1.11013(15) 0.25435(9)
H26 H 0.3765 1.1656 0.2584
C57 C 0.14885(14) 0.83256(14) 0.30080(9)
H27 H 0.1436 0.8536 0.2738
C58 C 0.33615(15) 1.05422(14) 0.26847(8)
H28 H 0.2955 1.0717 0.2827
C59 C 0.81535(12) 0.80968(14) 0.39036(7)
N12 N 0.58275(12) 0.26833(15) 0.22480(8)
C60 C 0.21328(13) 0.82423(15) 0.36627(8)
H29 H 0.2524 0.8403 0.3845
C61 C 0.40741(16) 0.94836(15) 0.24084(8)
H30 H 0.4148 0.8932 0.2355
C62 C 0.80732(12) 0.92158(14) 0.34596(8)
C63 C 0.09655(14) 0.78062(14) 0.31433(10)
H31 H 0.0560 0.7661 0.2967
C64 C 0.30723(16) 0.76965(15) 0.25097(8)
H32 H 0.3374 0.7581 0.2747
C65 C 0.27740(16) 0.84584(15) 0.24548(8)
C66 C 0.48267(13) 0.58812(17) 0.26239(8)
H33 H 0.4759 0.6382 0.2490
C67 C 0.58099(14) 0.49325(16) 0.43337(9)
H34 H 0.5715 0.5333 0.4132
C68 C 0.10404(13) 0.75051(14) 0.35332(9)
C69 C -0.00403(14) 0.51088(17) 0.37939(11)
C70 C 0.05131(13) 0.62529(15) 0.37124(9)
C71 C 0.16184(14) 0.77117(16) 0.38033(9)
H35 H 0.1662 0.7500 0.4073
C72 C 0.64417(17) 0.64580(16) 0.51742(8)
H36 H 0.5964 0.6297 0.5086
O8 O 0.51892(11) 0.37948(15) 0.23554(9)
C73 C 0.53484(15) 0.42669(17) 0.43507(10)
H37 H 0.4941 0.4221 0.4161
C74 C 0.54837(16) 0.36798(16) 0.46404(9)
H38 H 0.5180 0.3221 0.4646
C75 C 0.65201(17) 0.44258(16) 0.49117(8)
H39 H 0.6913 0.4483 0.5110
C76 C 0.45721(16) 1.00429(17) 0.22773(9)
H40 H 0.4988 0.9872 0.2142
C77 C 0.50513(14) 0.44826(19) 0.25947(12)
C78 C 0.44546(16) 1.08587(16) 0.23463(9)
H41 H 0.4790 1.1244 0.2258
C79 C 0.49896(15) 0.44019(16) 0.30093(12)
H42 H 0.5028 0.3892 0.3137
C80 C 0.7837(2) 0.6882(2) 0.54552(9)
H43 H 0.8315 0.7009 0.5558
C81 C 0.29281(19) 0.71071(17) 0.22165(9)
H44 H 0.3140 0.6592 0.2253
C82 C 0.60692(18) 0.37637(17) 0.49257(9)
H45 H 0.6159 0.3367 0.5130
C83 C 0.49542(15) 0.5198(2) 0.23928(10)
H46 H 0.4973 0.5228 0.2103
C84 C 0.58083(14) 0.34006(19) 0.24351(10)
C85 C 0.77295(16) 0.64106(18) 0.51021(8)
H47 H 0.8136 0.6231 0.4961
C86 C 0.2334(2) 0.86204(17) 0.20985(9)
H48 H 0.2139 0.9141 0.2054
C87 C 0.2479(2) 0.72615(18) 0.18729(9)
H49 H 0.2372 0.6849 0.1679
C88 C 0.6545(2) 0.69408(18) 0.55156(9)
H50 H 0.6138 0.7122 0.5656
C89 C 0.7240(2) 0.7162(2) 0.56544(9)
H51 H 0.7309 0.7504 0.5885
C90 C 0.2184(3) 0.8020(2) 0.18101(10)
H52 H 0.1880 0.8128 0.1572
C91 C 1.0146(7) 0.8924(6) 0.4408(4)
H53 H 1.0490 0.9155 0.4222
H54 H 1.0389 0.8845 0.4679
H55 H 0.9973 0.8407 0.4299
N13 N 0.8940(8) 0.8533(8) 0.4935(4)
C92 C 0.9069(7) 0.9203(8) 0.4674(3)
C93 C 0.9028(6) 1.0680(9) 0.4213(3)
H56 H 0.9005 1.1168 0.4064
C94 C 0.9610(6) 1.0186(6) 0.4182(3)
C95 C 0.8445(9) 0.9785(8) 0.4691(4)
H57 H 0.8048 0.9680 0.4856
C96 C 0.9588(7) 0.9413(7) 0.4437(3)
O9 O 0.9394(14) 0.7830(10) 0.4910(6)
O10 O 0.8358(14) 0.8604(16) 0.5210(7)
O11 O 0.7352(5) 1.1049(5) 0.4768(2)
N14 N 0.7881(5) 1.1038(6) 0.4468(3)
C97 C 0.8467(6) 1.0476(8) 0.4459(3)
O12 O 1.0337(4) 0.9479(4) 0.3774(3)
O13 O 0.7833(7) 1.1625(7) 0.4152(4)
O14 O 1.0692(11) 1.0929(9) 0.3931(7)
N15 N 1.0255(6) 1.0241(5) 0.3956(3)
loop_
_geom_bond_atom_site_label_1
_geom_bond_atom_site_label_2
_geom_bond_site_symmetry_1
_geom_bond_site_symmetry_2
Cl1 C43 1_555 1_555
Cl2 C34 1_555 1_555
Cl3 C45 1_555 1_555
Cl4 C69 1_555 1_555
O1 C12 1_555 1_555
O2 C5 1_555 1_555
O3 C37 1_555 1_555
O4 C26 1_555 1_555
C1 C2 1_555 1_555
O5 C31 1_555 1_555
O6 C59 1_555 1_555
N1 C48 1_555 1_555
N2 C5 1_555 1_555
N3 C26 1_555 1_555
C2 C27 1_555 1_555
N4 C42 1_555 1_555
N5 C5 1_555 1_555
C3 C23 1_555 1_555
C4 H1 1_555 1_555
N6 C45 1_555 1_555
C6 C21 1_555 1_555
C7 C16 1_555 1_555
N7 C43 1_555 1_555
C8 O2 1_555 1_555
C9 C10 1_555 1_555
C10 H2 1_555 1_555
C11 H3 1_555 1_555
C12 C13 1_555 1_555
C13 H4 1_555 1_555
C14 C8 1_555 1_555
H5 C14 1_555 1_555
C15 C1 1_555 1_555
C16 C21 1_555 1_555
C17 C4 1_555 1_555
H6 C17 1_555 1_555
C18 H7 1_555 1_555
C19 C14 1_555 1_555
H8 C19 1_555 1_555
C20 C12 1_555 1_555
H9 C20 1_555 1_555
C21 C9 1_555 1_555
C22 C47 1_555 1_555
C23 C1 1_555 1_555
C24 C6 1_555 1_555
H10 C24 1_555 1_555
C25 C3 1_555 1_555
H11 C25 1_555 1_555
C26 N5 1_555 1_555
C27 C20 1_555 1_555
H12 C27 1_555 1_555
O7 C68 1_555 1_555
C28 C39 1_555 1_555
C29 C25 1_555 1_555
H13 C29 1_555 1_555
C30 C6 1_555 1_555
H14 C30 1_555 1_555
C31 C18 1_555 1_555
C32 C2 1_555 1_555
H15 C32 1_555 1_555
C33 C9 1_555 1_555
H16 C33 1_555 1_555
C34 N2 1_555 1_555
C35 C33 1_555 1_555
H17 C35 1_555 1_555
C36 C23 1_555 1_555
N8 C45 1_555 1_555
C37 C41 1_555 1_555
C38 C3 1_555 1_555
H18 C38 1_555 1_555
C39 C58 1_555 1_555
C40 C49 1_555 1_555
N9 C54 1_555 1_555
C41 C24 1_555 1_555
H19 C41 1_555 1_555
C42 O1 1_555 1_555
C43 N12 1_555 1_555
C44 O4 1_555 1_555
C46 C44 1_555 1_555
H20 C46 1_555 1_555
N10 C42 1_555 1_555
C47 C11 1_555 1_555
H21 C47 1_555 1_555
C48 O5 1_555 1_555
C49 C22 1_555 1_555
C50 C36 1_555 1_555
H22 C50 1_555 1_555
C51 C16 1_555 1_555
C52 C22 1_555 1_555
H23 C52 1_555 1_555
N11 C69 1_555 1_555
C53 C10 1_555 1_555
H24 C53 1_555 1_555
C54 O3 1_555 1_555
C55 C30 1_555 1_555
H25 C55 1_555 1_555
C56 H26 1_555 1_555
C57 C40 1_555 1_555
H27 C57 1_555 1_555
C58 C56 1_555 1_555
H28 C58 1_555 1_555
C59 C35 1_555 1_555
N12 C84 1_555 1_555
C60 C40 1_555 1_555
H29 C60 1_555 1_555
C61 C39 1_555 1_555
H30 C61 1_555 1_555
C62 O6 1_555 1_555
C63 C57 1_555 1_555
H31 C63 1_555 1_555
C64 H32 1_555 1_555
C65 C28 1_555 1_555
C66 C36 1_555 1_555
H33 C66 1_555 1_555
C67 C7 1_555 1_555
H34 C67 1_555 1_555
C68 C63 1_555 1_555
C69 N10 1_555 1_555
C70 N4 1_555 1_555
C71 C60 1_555 1_555
H35 C71 1_555 1_555
C72 C51 1_555 1_555
H36 C72 1_555 1_555
O8 C77 1_555 1_555
C73 C67 1_555 1_555
H37 C73 1_555 1_555
C74 C73 1_555 1_555
H38 C74 1_555 1_555
C75 C7 1_555 1_555
H39 C75 1_555 1_555
C76 C61 1_555 1_555
H40 C76 1_555 1_555
C77 C79 1_555 1_555
C78 C56 1_555 1_555
H41 C78 1_555 1_555
C79 C50 1_555 1_555
H42 C79 1_555 1_555
C80 H43 1_555 1_555
C81 C64 1_555 1_555
H44 C81 1_555 1_555
C82 C74 1_555 1_555
H45 C82 1_555 1_555
C83 C66 1_555 1_555
H46 C83 1_555 1_555
C84 N9 1_555 1_555
C85 C51 1_555 1_555
H47 C85 1_555 1_555
C86 C65 1_555 1_555
H48 C86 1_555 1_555
C87 C81 1_555 1_555
H49 C87 1_555 1_555
C88 C72 1_555 1_555
H50 C88 1_555 1_555
C89 C80 1_555 1_555
H51 C89 1_555 1_555
C90 C86 1_555 1_555
H52 C90 1_555 1_555
C91 H53 1_555 1_555
H54 C91 1_555 1_555
H55 C91 1_555 1_555
N13 C92 1_555 1_555
C92 C95 1_555 1_555
C93 H56 1_555 1_555
C94 C93 1_555 1_555
C95 H57 1_555 1_555
C96 C91 1_555 1_555
O9 N13 1_555 1_555
O10 N13 1_555 1_555
O11 N14 1_555 1_555
N14 C97 1_555 1_555
C97 C93 1_555 1_555
O12 N15 1_555 1_555
O13 N14 1_555 1_555
O14 N15 1_555 1_555
N15 C94 1_555 1_555
N1 C62 1_555 1_555
N3 C34 1_555 1_555
C4 C8 1_555 1_555
N6 C62 1_555 1_555
N7 C54 1_555 1_555
C11 C44 1_555 1_555
C13 C32 1_555 1_555
C15 C17 1_555 1_555
C15 C19 1_555 1_555
C18 C38 1_555 1_555
O7 C70 1_555 1_555
C28 C49 1_555 1_555
C29 C31 1_555 1_555
N8 C48 1_555 1_555
C37 C55 1_555 1_555
C46 C52 1_555 1_555
N11 C70 1_555 1_555
C53 C59 1_555 1_555
C64 C65 1_555 1_555
C68 C71 1_555 1_555
O8 C84 1_555 1_555
C75 C82 1_555 1_555
C76 C78 1_555 1_555
C77 C83 1_555 1_555
C80 C85 1_555 1_555
C87 C90 1_555 1_555
C88 C89 1_555 1_555
C92 C96 1_555 1_555
C94 C96 1_555 1_555
C95 C97 1_555 1_555

#END
