
#######################################################################
#
#                 Cambridge Crystallographic Data Centre
#                                CCDC 
#
#######################################################################
#
# If this CIF has been generated from an entry in the Cambridge 
# Structural Database, then it will include bibliographic, chemical, 
# crystal, experimental, refinement or atomic coordinate data resulting 
# from the CCDC's data processing and validation procedures.
#
#######################################################################

data_XEXWEF
_chemical_formula_moiety         'C37 H23 N1'
_chemical_name_systematic        
3,3-diphenyl-2-[4-(pyren-1-yl)phenyl]prop-2-enenitrile
_symmetry_cell_setting           triclinic
_symmetry_space_group_name_H-M   'P -1'
_symmetry_Int_Tables_number      2
_space_group_name_Hall           '-P 1'
loop_
_symmetry_equiv_pos_site_id
_symmetry_equiv_pos_as_xyz
1 x,y,z
2 -x,-y,-z
_cell_length_a                   9.2277(2)
_cell_length_b                   10.6445(3)
_cell_length_c                   14.639(2)
_cell_angle_alpha                105.169(2)
_cell_angle_beta                 94.806(2)
_cell_angle_gamma                113.255(2)
_cell_volume                     1246.35
_exptl_crystal_colour            yellow
_exptl_crystal_description       Block
_cell_formula_units_Z            2
loop_
_atom_site_label
_atom_site_type_symbol
_atom_site_fract_x
_atom_site_fract_y
_atom_site_fract_z
N1 N 1.02807(12) 0.88812(10) 0.68529(7)
C1 C 0.94092(13) 0.76789(11) 0.65188(7)
C2 C 0.83242(12) 0.61531(11) 0.61689(7)
C3 C 0.77520(11) 0.54507(11) 0.52005(7)
C4 C 0.80379(11) 0.62187(11) 0.44699(7)
C5 C 0.79817(13) 0.75520(12) 0.46234(8)
H1 H 0.7715 0.7965 0.5187
C6 C 0.83202(14) 0.82631(12) 0.39420(8)
H2 H 0.8284 0.9150 0.4054
C7 C 0.87130(13) 0.76576(12) 0.30952(8)
H3 H 0.8958 0.8144 0.2645
C8 C 0.87392(13) 0.63244(12) 0.29233(8)
H4 H 0.8992 0.5912 0.2353
C9 C 0.83892(12) 0.56010(11) 0.35990(7)
H5 H 0.8388 0.4698 0.3472
C10 C 0.68717(12) 0.38450(11) 0.48036(7)
C11 C 0.54277(13) 0.31868(12) 0.41204(7)
H6 H 0.4995 0.3752 0.3924
C12 C 0.46275(15) 0.16898(13) 0.37298(8)
H7 H 0.3654 0.1259 0.3282
C13 C 0.52712(17) 0.08421(13) 0.40034(9)
H8 H 0.4735 -0.0159 0.3740
C14 C 0.67154(18) 0.14849(13) 0.46697(10)
H9 H 0.7157 0.0914 0.4849
C15 C 0.75108(14) 0.29761(12) 0.50735(9)
H10 H 0.8476 0.3399 0.5527
C16 C 0.79833(12) 0.55102(10) 0.69650(7)
C17 C 0.64459(12) 0.44808(12) 0.69409(8)
H11 H 0.5606 0.4181 0.6418
C18 C 0.61664(12) 0.39052(12) 0.76912(8)
H12 H 0.5137 0.3226 0.7666
C19 C 0.74037(12) 0.43273(11) 0.84834(7)
C20 C 0.89266(12) 0.53771(11) 0.85158(7)
H13 H 0.9763 0.5683 0.9042
C21 C 0.92078(12) 0.59701(11) 0.77726(7)
H14 H 1.0225 0.6683 0.7813
C22 C 0.71039(11) 0.36891(11) 0.92838(7)
C23 C 0.65220(12) 0.42907(11) 1.00476(8)
H15 H 0.6337 0.5090 1.0052
C24 C 0.62136(12) 0.37253(11) 1.07996(7)
H16 H 0.5815 0.4142 1.1296
C25 C 0.64954(11) 0.25348(11) 1.08188(7)
C26 C 0.62014(12) 0.19169(12) 1.15898(7)
H17 H 0.5804 0.2318 1.2094
C27 C 0.64880(13) 0.07757(12) 1.15974(8)
H18 H 0.6296 0.0412 1.2110
C28 C 0.70848(12) 0.01052(11) 1.08316(8)
C29 C 0.73803(13) -0.10905(12) 1.08179(9)
H19 H 0.7200 -0.1470 1.1324
C30 C 0.79388(14) -0.17187(12) 1.00585(9)
H20 H 0.8124 -0.2516 1.0061
C31 C 0.82237(13) -0.11705(12) 0.92967(9)
H21 H 0.8589 -0.1607 0.8790
C32 C 0.79652(12) 0.00371(11) 0.92856(8)
C33 C 0.83002(12) 0.06669(11) 0.85275(8)
H22 H 0.8716 0.0273 0.8032
C34 C 0.80244(12) 0.18199(11) 0.85180(7)
H23 H 0.8242 0.2193 0.8011
C35 C 0.74010(11) 0.24854(10) 0.92750(7)
C36 C 0.70957(11) 0.19041(11) 1.00497(7)
C37 C 0.73828(11) 0.06826(11) 1.00549(7)
loop_
_geom_bond_atom_site_label_1
_geom_bond_atom_site_label_2
_geom_bond_site_symmetry_1
_geom_bond_site_symmetry_2
N1 C1 1_555 1_555
C1 C2 1_555 1_555
C2 C3 1_555 1_555
C3 C4 1_555 1_555
C4 C5 1_555 1_555
C5 H1 1_555 1_555
C6 C5 1_555 1_555
H2 C6 1_555 1_555
C7 C6 1_555 1_555
H3 C7 1_555 1_555
C8 C7 1_555 1_555
H4 C8 1_555 1_555
C9 C4 1_555 1_555
H5 C9 1_555 1_555
C10 C3 1_555 1_555
C11 C10 1_555 1_555
H6 C11 1_555 1_555
C12 C11 1_555 1_555
H7 C12 1_555 1_555
C13 C12 1_555 1_555
H8 C13 1_555 1_555
C14 C13 1_555 1_555
H9 C14 1_555 1_555
C15 C10 1_555 1_555
H10 C15 1_555 1_555
C16 C2 1_555 1_555
C17 C16 1_555 1_555
H11 C17 1_555 1_555
C18 C17 1_555 1_555
H12 C18 1_555 1_555
C19 C18 1_555 1_555
C20 C19 1_555 1_555
H13 C20 1_555 1_555
C21 C16 1_555 1_555
H14 C21 1_555 1_555
C22 C19 1_555 1_555
C23 C22 1_555 1_555
H15 C23 1_555 1_555
C24 C23 1_555 1_555
H16 C24 1_555 1_555
C25 C24 1_555 1_555
C26 C25 1_555 1_555
H17 C26 1_555 1_555
C27 C26 1_555 1_555
H18 C27 1_555 1_555
C28 C27 1_555 1_555
C29 C28 1_555 1_555
H19 C29 1_555 1_555
C30 C29 1_555 1_555
H20 C30 1_555 1_555
C31 C30 1_555 1_555
H21 C31 1_555 1_555
C32 C31 1_555 1_555
C33 C32 1_555 1_555
H22 C33 1_555 1_555
C34 C33 1_555 1_555
H23 C34 1_555 1_555
C35 C22 1_555 1_555
C36 C25 1_555 1_555
C37 C28 1_555 1_555
C8 C9 1_555 1_555
C14 C15 1_555 1_555
C20 C21 1_555 1_555
C32 C37 1_555 1_555
C34 C35 1_555 1_555
C35 C36 1_555 1_555
C36 C37 1_555 1_555

#END
