
#######################################################################
#
#                 Cambridge Crystallographic Data Centre
#                                CCDC 
#
#######################################################################
#
# If this CIF has been generated from an entry in the Cambridge 
# Structural Database, then it will include bibliographic, chemical, 
# crystal, experimental, refinement or atomic coordinate data resulting 
# from the CCDC's data processing and validation procedures.
#
#######################################################################

data_XEXYUU
_chemical_formula_moiety         'C17 H16 O4'
_chemical_name_systematic        
6-Methyl-3,11-dioxa-10-phenyltricyclo(7.3.0.0^8,12^)dodec-7-en-2,4-dione
_symmetry_cell_setting           monoclinic
_symmetry_space_group_name_H-M   'P 21/n'
_symmetry_Int_Tables_number      14
_space_group_name_Hall           '-P 2yn'
loop_
_symmetry_equiv_pos_site_id
_symmetry_equiv_pos_as_xyz
1 x,y,z
2 1/2-x,1/2+y,1/2-z
3 -x,-y,-z
4 1/2+x,1/2-y,1/2+z
_cell_length_a                   9.1021(1)
_cell_length_b                   9.2417(1)
_cell_length_c                   17.6166(3)
_cell_angle_alpha                90
_cell_angle_beta                 102.092(1)
_cell_angle_gamma                90
_cell_volume                     1449.01
_exptl_crystal_colour            colorless
_cell_formula_units_Z            4
loop_
_atom_site_label
_atom_site_type_symbol
_atom_site_fract_x
_atom_site_fract_y
_atom_site_fract_z
O1 O 0.7749(1) 0.5726(2) 0.1528(1)
O2 O 1.0801(2) 0.6392(2) 0.3512(1)
O3 O 0.8946(2) 0.4833(2) 0.3116(1)
O4 O 1.2219(2) 0.8339(2) 0.3799(1)
C1 C 0.6821(3) 0.3972(3) 0.0195(1)
C2 C 0.6132(3) 0.2861(4) -0.0252(2)
C3 C 0.6738(4) 0.1523(4) -0.0193(2)
C4 C 0.8084(5) 0.1286(3) 0.0302(2)
C5 C 0.8791(3) 0.2403(3) 0.0759(1)
C6 C 0.8155(2) 0.3747(2) 0.0719(1)
C7 C 0.8907(2) 0.4931(2) 0.1250(1)
C8 C 0.9749(2) 0.6103(2) 0.0902(1)
C9 C 0.9700(2) 0.7331(2) 0.1452(1)
C10 C 1.0606(2) 0.8432(2) 0.1696(1)
C11 C 1.0189(2) 0.9458(2) 0.2282(1)
C12 C 0.9741(2) 0.8581(2) 0.2944(1)
C13 C 1.1061(3) 0.7854(2) 0.3454(1)
C14 C 0.9384(3) 0.6032(3) 0.3089(1)
C15 C 0.8652(2) 0.7325(2) 0.2670(1)
C16 C 0.8311(2) 0.7121(2) 0.1775(1)
C17 C 1.1374(3) 1.0609(3) 0.2567(2)
H1 H 0.6349 0.4959 0.0163
H2 H 0.5182 0.3113 -0.0622
H3 H 0.6313 0.0791 -0.0500
H4 H 0.8505 0.0470 0.0360
H5 H 0.9709 0.2268 0.1104
H6 H 0.9639 0.4441 0.1732
H7 H 0.9186 0.6365 0.0406
H8 H 1.0757 0.5802 0.0887
H9 H 1.1550 0.8603 0.1535
H10 H 0.9263 0.9902 0.2057
H11 H 0.9315 0.9257 0.3259
H12 H 0.7672 0.7442 0.2813
H13 H 0.7512 0.7863 0.1558
H14 H 1.1531 1.1241 0.2132
H15 H 1.2437 1.0098 0.2786
H16 H 1.1071 1.1277 0.2876
loop_
_geom_bond_atom_site_label_1
_geom_bond_atom_site_label_2
_geom_bond_site_symmetry_1
_geom_bond_site_symmetry_2
O1 C7 1_555 1_555
O2 C13 1_555 1_555
O3 C14 1_555 1_555
O4 C13 1_555 1_555
C1 C2 1_555 1_555
C2 C3 1_555 1_555
C3 C4 1_555 1_555
C4 C5 1_555 1_555
C5 C6 1_555 1_555
C6 C1 1_555 1_555
C7 C6 1_555 1_555
C8 C7 1_555 1_555
C9 C8 1_555 1_555
C10 C9 1_555 1_555
C11 C10 1_555 1_555
C12 C11 1_555 1_555
C13 C12 1_555 1_555
C14 O2 1_555 1_555
C15 C12 1_555 1_555
C16 O1 1_555 1_555
C17 C11 1_555 1_555
H1 C1 1_555 1_555
H2 C2 1_555 1_555
H3 C3 1_555 1_555
H4 C4 1_555 1_555
H5 C5 1_555 1_555
H6 C7 1_555 1_555
H7 C8 1_555 1_555
H8 C8 1_555 1_555
H9 C10 1_555 1_555
H10 C11 1_555 1_555
H11 C12 1_555 1_555
H12 C15 1_555 1_555
H13 C16 1_555 1_555
H14 C17 1_555 1_555
H15 C17 1_555 1_555
H16 C17 1_555 1_555
C9 C16 1_555 1_555
C14 C15 1_555 1_555
C15 C16 1_555 1_555

#END
