
#######################################################################
#
#                 Cambridge Crystallographic Data Centre
#                                CCDC 
#
#######################################################################
#
# If this CIF has been generated from an entry in the Cambridge 
# Structural Database, then it will include bibliographic, chemical, 
# crystal, experimental, refinement or atomic coordinate data resulting 
# from the CCDC's data processing and validation procedures.
#
#######################################################################

data_XEYLUK
_chemical_formula_moiety         'C26 H22 O2'
_chemical_name_systematic        
1,1'-(1,1'-Binaphthalene-2,2'-diyl)bis(prop-2-en-1-ol)
_symmetry_cell_setting           orthorhombic
_symmetry_space_group_name_H-M   'P 21 21 2'
_symmetry_Int_Tables_number      18
_space_group_name_Hall           'P 2 2ab'
loop_
_symmetry_equiv_pos_site_id
_symmetry_equiv_pos_as_xyz
1 x,y,z
2 -x,-y,z
3 1/2-x,1/2+y,-z
4 1/2+x,1/2-y,-z
_cell_length_a                   14.2242(13)
_cell_length_b                   24.136(2)
_cell_length_c                   11.8407(11)
_cell_angle_alpha                90
_cell_angle_beta                 90
_cell_angle_gamma                90
_cell_volume                     4065.09
_exptl_crystal_colour            colorless
_exptl_crystal_description       block
_cell_formula_units_Z            8
loop_
_atom_site_label
_atom_site_type_symbol
_atom_site_fract_x
_atom_site_fract_y
_atom_site_fract_z
O1 O 0.6225(2) 0.43814(11) 0.7551(3)
H1 H 0.6765 0.4374 0.7309
C1 C 0.6955(3) 0.25798(13) 0.6524(3)
C2 C 0.7092(3) 0.27990(14) 0.9336(3)
C3 C 0.7309(3) 0.30107(14) 0.7245(3)
C4 C 0.8159(3) 0.28212(16) 0.5149(3)
H2 H 0.8450 0.2764 0.4456
C5 C 0.6814(2) 0.31103(14) 0.8364(3)
C6 C 0.6578(3) 0.28683(15) 1.0367(3)
C7 C 0.6095(3) 0.34859(15) 0.8422(3)
C8 C 0.7388(3) 0.24904(15) 0.5456(3)
C9 C 0.8061(3) 0.33254(15) 0.6900(3)
C10 C 0.6183(3) 0.22463(15) 0.6815(3)
H3 H 0.5902 0.2294 0.7517
C11 C 0.5838(3) 0.32561(17) 1.0407(4)
H4 H 0.5510 0.3310 1.1077
C12 C 0.5601(3) 0.35500(17) 0.9474(4)
H5 H 0.5105 0.3800 0.9515
O2 O 0.8130(2) 0.43125(12) 0.7110(3)
H6 H 0.8528 0.4423 0.6662
C13 C 0.8482(3) 0.32198(16) 0.5844(3)
H7 H 0.8996 0.3431 0.5621
C14 C 0.8056(4) 0.21095(17) 1.0264(4)
H8 H 0.8550 0.1857 1.0237
C15 C 0.7843(3) 0.24151(15) 0.9332(3)
H9 H 0.8199 0.2370 0.8679
C16 C 0.7012(3) 0.20751(17) 0.4746(3)
H10 H 0.7288 0.2015 0.4045
C17 C 0.6821(4) 0.25466(19) 1.1320(4)
H11 H 0.6489 0.2592 1.1990
C18 C 0.8433(3) 0.38042(18) 0.7597(4)
H12 H 0.8153 0.3777 0.8351
C19 C 0.6264(4) 0.17620(17) 0.5053(4)
H13 H 0.6039 0.1488 0.4572
C20 C 0.7533(4) 0.2172(2) 1.1270(4)
H14 H 0.7677 0.1957 1.1899
C21 C 0.9506(4) 0.3767(3) 0.7734(5)
H15 H 0.9743 0.3418 0.7904
C22 C 0.5808(3) 0.38377(18) 0.7444(4)
H16 H 0.6045 0.3666 0.6750
C23 C 0.5832(4) 0.18528(17) 0.6097(4)
H17 H 0.5307 0.1647 0.6303
C24 C 0.4769(5) 0.3957(4) 0.7294(6)
C25 C 1.0100(6) 0.4145(3) 0.7645(7)
H18 H 0.9908 0.4504 0.7476
H19 H 1.0735 0.4068 0.7749
C26 C 0.4207(8) 0.3654(5) 0.7039(10)
O3 O 0.90278(19) -0.00296(12) 1.0491(2)
H20 H 0.9588 -0.0106 1.0544
C27 C 0.9679(2) 0.02496(13) 0.7856(3)
C28 C 0.9881(2) 0.07094(14) 0.7132(3)
C29 C 0.8900(2) 0.02673(13) 0.8564(3)
C30 C 0.9277(3) 0.11768(14) 0.7140(3)
C31 C 0.8310(3) 0.07326(15) 0.8545(3)
H21 H 0.7792 0.0743 0.9024
C32 C 1.0666(3) 0.07313(17) 0.6427(4)
H22 H 1.1068 0.0428 0.6397
C33 C 0.8691(3) -0.01915(15) 0.9395(3)
H23 H 0.9041 -0.0521 0.9158
C34 C 0.8472(3) 0.11653(15) 0.7854(3)
H24 H 0.8052 0.1461 0.7843
C35 C 0.9499(3) 0.16341(16) 0.6441(4)
H25 H 0.9094 0.1937 0.6431
C36 C 1.0268(3) 0.1647(2) 0.5797(4)
H26 H 1.0408 0.1959 0.5365
C37 C 0.7669(3) -0.03396(19) 0.9436(4)
H27 H 0.7421 -0.0509 0.8797
C38 C 1.0860(3) 0.1184(2) 0.5781(4)
H28 H 1.1393 0.1186 0.5326
C39 C 0.7100(3) -0.0258(2) 1.0258(5)
H29 H 0.7313 -0.0090 1.0917
H30 H 0.6475 -0.0366 1.0196
O3A O 1.09722(19) 0.00296(12) 1.0491(2)
H20A H 1.0412 0.0106 1.0544
C27A C 1.0321(2) -0.02496(13) 0.7856(3)
C28A C 1.0119(2) -0.07094(14) 0.7132(3)
C29A C 1.1100(2) -0.02673(13) 0.8564(3)
C30A C 1.0723(3) -0.11768(14) 0.7140(3)
C31A C 1.1690(3) -0.07326(15) 0.8545(3)
H21A H 1.2208 -0.0743 0.9024
C32A C 0.9334(3) -0.07313(17) 0.6427(4)
H22A H 0.8932 -0.0428 0.6397
C33A C 1.1309(3) 0.01915(15) 0.9395(3)
H23A H 1.0959 0.0521 0.9158
C34A C 1.1528(3) -0.11653(15) 0.7854(3)
H24A H 1.1948 -0.1461 0.7843
C35A C 1.0501(3) -0.16341(16) 0.6441(4)
H25A H 1.0906 -0.1937 0.6431
C36A C 0.9732(3) -0.1647(2) 0.5797(4)
H26A H 0.9592 -0.1959 0.5365
C37A C 1.2331(3) 0.03396(19) 0.9436(4)
H27A H 1.2579 0.0509 0.8797
C38A C 0.9140(3) -0.1184(2) 0.5781(4)
H28A H 0.8607 -0.1186 0.5326
C39A C 1.2900(3) 0.0258(2) 1.0258(5)
H29A H 1.2687 0.0090 1.0917
H30A H 1.3525 0.0366 1.0196
C40 C 0.9805(2) 0.43116(15) 0.2086(3)
C41 C 0.9666(2) 0.47618(14) 0.2872(3)
O4 O 0.9021(2) 0.5013(2) 0.5578(2)
H31 H 0.9504 0.4829 0.5531
C42 C 0.8925(2) 0.47423(16) 0.3612(3)
C43 C 0.9168(3) 0.38572(15) 0.2080(4)
C44 C 0.8304(3) 0.42766(17) 0.3608(4)
H32 H 0.7813 0.4262 0.4126
C45 C 0.8420(3) 0.38556(17) 0.2862(4)
H33 H 0.7999 0.3561 0.2866
C46 C 0.8740(3) 0.51882(19) 0.4482(4)
H34 H 0.9132 0.5507 0.4281
C47 C 1.0571(3) 0.43002(18) 0.1338(3)
H35 H 1.0997 0.4593 0.1330
C48 C 1.0695(3) 0.38616(18) 0.0622(4)
H36 H 1.1209 0.3859 0.0136
C49 C 0.7743(4) 0.5381(2) 0.4476(4)
H37 H 0.7522 0.5529 0.3801
C50 C 0.9313(4) 0.34201(17) 0.1325(4)
H38 H 0.8893 0.3125 0.1307
C51 C 1.0075(4) 0.34243(19) 0.0607(5)
H39 H 1.0170 0.3131 0.0110
C52 C 0.7155(4) 0.5364(2) 0.5303(5)
H40 H 0.7339 0.5220 0.5997
H41 H 0.6546 0.5496 0.5205
C40A C 1.0195(2) 0.56884(15) 0.2086(3)
C41A C 1.0334(2) 0.52382(14) 0.2872(3)
O4A O 1.0979(2) 0.4987(2) 0.5578(2)
H31A H 1.0496 0.5171 0.5531
C42A C 1.1075(2) 0.52577(16) 0.3612(3)
C43A C 1.0832(3) 0.61428(15) 0.2080(4)
C44A C 1.1696(3) 0.57234(17) 0.3608(4)
H32A H 1.2187 0.5738 0.4126
C45A C 1.1580(3) 0.61444(17) 0.2862(4)
H33A H 1.2001 0.6439 0.2866
C46A C 1.1260(3) 0.48118(19) 0.4482(4)
H34A H 1.0868 0.4493 0.4281
C47A C 0.9429(3) 0.56998(18) 0.1338(3)
H35A H 0.9003 0.5407 0.1330
C48A C 0.9305(3) 0.61384(18) 0.0622(4)
H36A H 0.8791 0.6141 0.0136
C49A C 1.2257(4) 0.4619(2) 0.4476(4)
H37A H 1.2478 0.4471 0.3801
C50A C 1.0687(4) 0.65799(17) 0.1325(4)
H38A H 1.1107 0.6875 0.1307
C51A C 0.9925(4) 0.65757(19) 0.0607(5)
H39A H 0.9830 0.6869 0.0110
C52A C 1.2845(4) 0.4636(2) 0.5303(5)
H40A H 1.2661 0.4780 0.5997
H41A H 1.3454 0.4504 0.5205
loop_
_geom_bond_atom_site_label_1
_geom_bond_atom_site_label_2
_geom_bond_site_symmetry_1
_geom_bond_site_symmetry_2
O1 H1 1_555 1_555
C1 C3 1_555 1_555
C2 C5 1_555 1_555
C3 C5 1_555 1_555
C4 H2 1_555 1_555
C5 C7 1_555 1_555
C6 C2 1_555 1_555
C7 C12 1_555 1_555
C8 C1 1_555 1_555
C9 C3 1_555 1_555
C10 C1 1_555 1_555
H3 C10 1_555 1_555
C11 C6 1_555 1_555
H4 C11 1_555 1_555
C12 C11 1_555 1_555
H5 C12 1_555 1_555
O2 H6 1_555 1_555
C13 C4 1_555 1_555
H7 C13 1_555 1_555
C14 H8 1_555 1_555
C15 C2 1_555 1_555
H9 C15 1_555 1_555
C16 C8 1_555 1_555
H10 C16 1_555 1_555
C17 C6 1_555 1_555
H11 C17 1_555 1_555
C18 C9 1_555 1_555
H12 C18 1_555 1_555
C19 C16 1_555 1_555
H13 C19 1_555 1_555
C20 C14 1_555 1_555
H14 C20 1_555 1_555
C21 C18 1_555 1_555
H15 C21 1_555 1_555
C22 O1 1_555 1_555
H16 C22 1_555 1_555
C23 C10 1_555 1_555
H17 C23 1_555 1_555
C24 C22 1_555 1_555
C25 C21 1_555 1_555
H18 C25 1_555 1_555
H19 C25 1_555 1_555
C26 C24 1_555 1_555
O3 H20 1_555 1_555
C27 C28 1_555 1_555
C28 C30 1_555 1_555
C29 C27 1_555 1_555
C30 C34 1_555 1_555
C31 C29 1_555 1_555
H21 C31 1_555 1_555
C32 C28 1_555 1_555
H22 C32 1_555 1_555
C33 O3 1_555 1_555
H23 C33 1_555 1_555
C34 C31 1_555 1_555
H24 C34 1_555 1_555
C35 C30 1_555 1_555
H25 C35 1_555 1_555
C36 C35 1_555 1_555
H26 C36 1_555 1_555
C37 C33 1_555 1_555
H27 C37 1_555 1_555
C38 C32 1_555 1_555
H28 C38 1_555 1_555
C39 C37 1_555 1_555
H29 C39 1_555 1_555
H30 C39 1_555 1_555
C40 C41 1_555 1_555
C41 C42 1_555 1_555
O4 H31 1_555 1_555
C42 C44 1_555 1_555
C43 C40 1_555 1_555
C44 H32 1_555 1_555
C45 C43 1_555 1_555
H33 C45 1_555 1_555
C46 O4 1_555 1_555
H34 C46 1_555 1_555
C47 C40 1_555 1_555
H35 C47 1_555 1_555
C48 C47 1_555 1_555
H36 C48 1_555 1_555
C49 C46 1_555 1_555
H37 C49 1_555 1_555
C50 C43 1_555 1_555
H38 C50 1_555 1_555
C51 C48 1_555 1_555
H39 C51 1_555 1_555
C52 C49 1_555 1_555
H40 C52 1_555 1_555
H41 C52 1_555 1_555
O3A H20A 1_555 1_555
C27A C27 1_555 1_555
C28A C27A 1_555 1_555
C29A C27A 1_555 1_555
C30A C28A 1_555 1_555
C31A C29A 1_555 1_555
H21A C31A 1_555 1_555
C32A C28A 1_555 1_555
H22A C32A 1_555 1_555
C33A O3A 1_555 1_555
H23A C33A 1_555 1_555
C34A C30A 1_555 1_555
H24A C34A 1_555 1_555
C35A C30A 1_555 1_555
H25A C35A 1_555 1_555
C36A C35A 1_555 1_555
H26A C36A 1_555 1_555
C37A C33A 1_555 1_555
H27A C37A 1_555 1_555
C38A C32A 1_555 1_555
H28A C38A 1_555 1_555
C39A C37A 1_555 1_555
H29A C39A 1_555 1_555
H30A C39A 1_555 1_555
C40A C41A 1_555 1_555
C41A C41 1_555 1_555
O4A H31A 1_555 1_555
C42A C41A 1_555 1_555
C43A C40A 1_555 1_555
C44A C42A 1_555 1_555
H32A C44A 1_555 1_555
C45A C43A 1_555 1_555
H33A C45A 1_555 1_555
C46A O4A 1_555 1_555
H34A C46A 1_555 1_555
C47A C40A 1_555 1_555
H35A C47A 1_555 1_555
C48A C47A 1_555 1_555
H36A C48A 1_555 1_555
C49A C46A 1_555 1_555
H37A C49A 1_555 1_555
C50A C43A 1_555 1_555
H38A C50A 1_555 1_555
C51A C48A 1_555 1_555
H39A C51A 1_555 1_555
C52A C49A 1_555 1_555
H40A C52A 1_555 1_555
H41A C52A 1_555 1_555
C4 C8 1_555 1_555
C7 C22 1_555 1_555
C9 C13 1_555 1_555
O2 C18 1_555 1_555
C14 C15 1_555 1_555
C17 C20 1_555 1_555
C19 C23 1_555 1_555
C29 C33 1_555 1_555
C36 C38 1_555 1_555
C42 C46 1_555 1_555
C44 C45 1_555 1_555
C50 C51 1_555 1_555
C29A C33A 1_555 1_555
C31A C34A 1_555 1_555
C36A C38A 1_555 1_555
C42A C46A 1_555 1_555
C44A C45A 1_555 1_555
C50A C51A 1_555 1_555

#END
