
#######################################################################
#
#                 Cambridge Crystallographic Data Centre
#                                CCDC 
#
#######################################################################
#
# If this CIF has been generated from an entry in the Cambridge 
# Structural Database, then it will include bibliographic, chemical, 
# crystal, experimental, refinement or atomic coordinate data resulting 
# from the CCDC's data processing and validation procedures.
#
#######################################################################

data_XEYNUN
_chemical_formula_moiety         'C39 H29 N5 O3,x(C1 H1 Cl3)'
_chemical_name_systematic        
"methyl 4-[(5-{[4-(phenylcarbamoyl)phenyl](2H-pyrrol-2-ylidene)methyl}[1H,5'H-[2,2'-bipyrrole]]-5'-ylidene)(1H-pyrrol-2-yl)methyl]benzoate chloroform solvate"
_symmetry_cell_setting           tetragonal
_symmetry_space_group_name_H-M   'P -4 21 c'
_symmetry_Int_Tables_number      114
_space_group_name_Hall           'P -4 2n'
loop_
_symmetry_equiv_pos_site_id
_symmetry_equiv_pos_as_xyz
1 x,y,z
2 -x,-y,z
3 y,-x,-z
4 -y,x,-z
5 1/2-x,1/2+y,1/2-z
6 1/2+x,1/2-y,1/2-z
7 1/2-y,1/2-x,1/2+z
8 1/2+y,1/2+x,1/2+z
_cell_length_a                   29.3188(9)
_cell_length_b                   29.3188(9)
_cell_length_c                   8.8681(3)
_cell_angle_alpha                90
_cell_angle_beta                 90
_cell_angle_gamma                90
_cell_volume                     7622.95
_exptl_crystal_colour            'dark purple'
_exptl_crystal_description       rod
_cell_formula_units_Z            8
loop_
_atom_site_label
_atom_site_type_symbol
_atom_site_fract_x
_atom_site_fract_y
_atom_site_fract_z
C1 C 0.45336(16) 0.29700(19) 0.9157(6)
H1 H 0.447213 0.320176 0.843678
C2 C 0.42653(15) 0.2868(2) 1.0412(7)
H2 H 0.399341 0.301876 1.071231
C3 C 0.44694(15) 0.25070(18) 1.1130(5)
H3 H 0.435905 0.236373 1.201871
C4 C 0.48667(13) 0.23821(16) 1.0347(5)
C5 C 0.51929(12) 0.20434(14) 1.0610(4)
C6 C 0.55720(12) 0.19613(13) 0.9732(4)
C7 C 0.59109(13) 0.16166(14) 0.9926(4)
H4 H 0.592008 0.139373 1.070296
C8 C 0.62226(12) 0.16679(13) 0.8773(4)
H5 H 0.648974 0.149215 0.859877
C9 C 0.60569(12) 0.20438(13) 0.7891(4)
C10 C 0.51274(11) 0.17520(13) 1.1981(4)
C11 C 0.54170(13) 0.17900(14) 1.3208(4)
H6 H 0.565224 0.201270 1.319065
C12 C 0.53722(13) 0.15128(13) 1.4451(4)
H7 H 0.557766 0.154045 1.527412
C13 C 0.50253(12) 0.11938(12) 1.4491(4)
C14 C 0.47396(14) 0.11505(15) 1.3300(5)
H8 H 0.450554 0.092656 1.333130
C15 C 0.47814(13) 0.14271(15) 1.2031(5)
H9 H 0.457615 0.139451 1.120961
C16 C 0.49605(14) 0.08775(13) 1.5804(4)
C17 C 0.52273(16) 0.06588(16) 1.8232(6)
H10 H 0.493539 0.071609 1.873671
H11 H 0.547805 0.072564 1.892875
H12 H 0.524293 0.033838 1.792220
C18 C 0.62742(11) 0.22178(12) 0.6569(4)
C19 C 0.67152(12) 0.21477(13) 0.6019(4)
H13 H 0.694237 0.196020 0.646554
C20 C 0.67624(12) 0.23997(12) 0.4711(4)
H14 H 0.702900 0.241912 0.410542
C21 C 0.63449(11) 0.26226(12) 0.4435(4)
C22 C 0.62147(11) 0.28964(12) 0.3187(4)
C23 C 0.57780(12) 0.30720(13) 0.2990(4)
C24 C 0.56224(14) 0.33747(15) 0.1799(5)
H15 H 0.579473 0.348543 0.096925
C25 C 0.51794(15) 0.34661(17) 0.2122(5)
H16 H 0.497799 0.365490 0.156108
C26 C 0.50744(15) 0.32182(17) 0.3495(5)
H17 H 0.478380 0.322428 0.396836
C27 C 0.65799(11) 0.29970(11) 0.2073(4)
C28 C 0.69710(12) 0.32258(12) 0.2536(3)
H18 H 0.699033 0.334242 0.353304
C29 C 0.73332(12) 0.32846(12) 0.1547(4)
H19 H 0.759910 0.344187 0.186982
C30 C 0.73085(12) 0.31155(11) 0.0099(4)
C31 C 0.69127(11) 0.29098(11) -0.0395(3)
H20 H 0.688885 0.280935 -0.141007
C32 C 0.65541(12) 0.28498(12) 0.0573(4)
H21 H 0.628372 0.270627 0.022218
C33 C 0.77127(11) 0.31648(11) -0.0927(3)
C34 C 0.85593(12) 0.31515(12) -0.0875(3)
C35 C 0.89066(13) 0.28748(13) -0.0312(4)
H22 H 0.884747 0.267068 0.049640
C36 C 0.93351(13) 0.28994(15) -0.0936(5)
H23 H 0.957369 0.271654 -0.053604
C37 C 0.94232(15) 0.31843(15) -0.2128(5)
H24 H 0.971563 0.318509 -0.258916
C38 C 0.90902(16) 0.34647(14) -0.2644(5)
H25 H 0.915743 0.366898 -0.344524
C39 C 0.86582(13) 0.34620(12) -0.2042(4)
H26 H 0.843113 0.366535 -0.240525
N1 N 0.48931(11) 0.26864(12) 0.9137(4)
H27 H 0.511290 0.269136 0.846160
N2 N 0.56689(9) 0.22172(10) 0.8427(3)
N3 N 0.60536(10) 0.25071(10) 0.5599(3)
H28 H 0.577127 0.260408 0.570164
N4 N 0.54186(11) 0.29871(12) 0.4010(4)
N5 N 0.81174(9) 0.31161(10) -0.0225(3)
H29 H 0.810697 0.305550 0.074633
O1 O 0.46657(10) 0.05960(10) 1.5873(3)
O2 O 0.52652(9) 0.09528(9) 1.6899(3)
O3 O 0.76705(8) 0.32296(8) -0.2286(2)
loop_
_geom_bond_atom_site_label_1
_geom_bond_atom_site_label_2
_geom_bond_site_symmetry_1
_geom_bond_site_symmetry_2
C1 H1 1_555 1_555
C2 C1 1_555 1_555
H2 C2 1_555 1_555
C3 C2 1_555 1_555
H3 C3 1_555 1_555
C4 C3 1_555 1_555
C5 C4 1_555 1_555
C6 C5 1_555 1_555
C7 C6 1_555 1_555
H4 C7 1_555 1_555
C8 C7 1_555 1_555
H5 C8 1_555 1_555
C9 C8 1_555 1_555
C10 C5 1_555 1_555
C11 C10 1_555 1_555
H6 C11 1_555 1_555
C12 C11 1_555 1_555
H7 C12 1_555 1_555
C13 C12 1_555 1_555
C14 C13 1_555 1_555
H8 C14 1_555 1_555
C15 C10 1_555 1_555
H9 C15 1_555 1_555
C16 C13 1_555 1_555
C17 H10 1_555 1_555
H11 C17 1_555 1_555
H12 C17 1_555 1_555
C18 C9 1_555 1_555
C19 C18 1_555 1_555
H13 C19 1_555 1_555
C20 C19 1_555 1_555
H14 C20 1_555 1_555
C21 C20 1_555 1_555
C22 C21 1_555 1_555
C23 C22 1_555 1_555
C24 C23 1_555 1_555
H15 C24 1_555 1_555
C25 C24 1_555 1_555
H16 C25 1_555 1_555
C26 C25 1_555 1_555
H17 C26 1_555 1_555
C27 C22 1_555 1_555
C28 C27 1_555 1_555
H18 C28 1_555 1_555
C29 C28 1_555 1_555
H19 C29 1_555 1_555
C30 C29 1_555 1_555
C31 C30 1_555 1_555
H20 C31 1_555 1_555
C32 C27 1_555 1_555
H21 C32 1_555 1_555
C33 C30 1_555 1_555
C34 C35 1_555 1_555
C35 H22 1_555 1_555
C36 C35 1_555 1_555
H23 C36 1_555 1_555
C37 C36 1_555 1_555
H24 C37 1_555 1_555
C38 C37 1_555 1_555
H25 C38 1_555 1_555
C39 C34 1_555 1_555
H26 C39 1_555 1_555
N1 C1 1_555 1_555
H27 N1 1_555 1_555
N2 C6 1_555 1_555
N3 C18 1_555 1_555
H28 N3 1_555 1_555
N4 C23 1_555 1_555
N5 C33 1_555 1_555
H29 N5 1_555 1_555
O1 C16 1_555 1_555
O2 C16 1_555 1_555
O3 C33 1_555 1_555
C4 N1 1_555 1_555
C9 N2 1_555 1_555
C14 C15 1_555 1_555
C17 O2 1_555 1_555
C21 N3 1_555 1_555
C26 N4 1_555 1_555
C31 C32 1_555 1_555
C34 N5 1_555 1_555
C38 C39 1_555 1_555

#END
