
#######################################################################
#
#                 Cambridge Crystallographic Data Centre
#                                CCDC 
#
#######################################################################
#
# If this CIF has been generated from an entry in the Cambridge 
# Structural Database, then it will include bibliographic, chemical, 
# crystal, experimental, refinement or atomic coordinate data resulting 
# from the CCDC's data processing and validation procedures.
#
#######################################################################

data_XEYXUX
_chemical_formula_moiety         'C9 H13 N5 O3,0.03(H2 O1)'
_chemical_name_systematic        
'(3S*,4aS*)-3-(Azidomethyl)-1-oxohexahydropyrrolo[1,2-c]pyrimidine-4a(5H)-carboxylic acid hydrate'
_symmetry_cell_setting           rhombohedral
_symmetry_space_group_name_H-M   'R -3'
_symmetry_Int_Tables_number      148
_space_group_name_Hall           '-R 3'
loop_
_symmetry_equiv_pos_site_id
_symmetry_equiv_pos_as_xyz
1 x,y,z
2 -y,x-y,z
3 -x+y,-x,z
4 2/3+x,1/3+y,1/3+z
5 2/3-y,1/3+x-y,1/3+z
6 2/3-x+y,1/3-x,1/3+z
7 1/3+x,2/3+y,2/3+z
8 1/3-y,2/3+x-y,2/3+z
9 1/3-x+y,2/3-x,2/3+z
10 -x,-y,-z
11 y,-x+y,-z
12 x-y,x,-z
13 1/3-x,2/3-y,2/3-z
14 1/3+y,2/3-x+y,2/3-z
15 1/3+x-y,2/3+x,2/3-z
16 2/3-x,1/3-y,1/3-z
17 2/3+y,1/3-x+y,1/3-z
18 2/3+x-y,1/3+x,1/3-z
_cell_length_a                   31.0231(7)
_cell_length_b                   31.0231(7)
_cell_length_c                   5.92171(12)
_cell_angle_alpha                90
_cell_angle_beta                 90
_cell_angle_gamma                120
_cell_volume                     4935.69
_exptl_crystal_colour            colorless
_exptl_crystal_description       block
_cell_formula_units_Z            18
loop_
_atom_site_label
_atom_site_type_symbol
_atom_site_fract_x
_atom_site_fract_y
_atom_site_fract_z
O1 O 0.45338(4) 0.50899(4) 0.30515(18)
O2 O 0.58050(4) 0.69885(4) -0.09550(19)
H1 H 0.5865 0.7256 -0.0413
O3 O 0.53623(5) 0.66847(4) 0.2220(2)
N1 N 0.51676(5) 0.57370(5) 0.1247(2)
N2 N 0.43527(5) 0.55032(5) 0.0376(2)
H2 H 0.4040 0.5312 0.0635
N3 N 0.38851(6) 0.59824(6) -0.6206(2)
C1 C 0.55151(6) 0.66277(6) 0.0420(3)
N4 N 0.41802(6) 0.61063(6) -0.4627(3)
C2 C 0.46782(6) 0.54332(6) 0.1600(3)
C3 C 0.44967(6) 0.58841(6) -0.1364(3)
H3 H 0.4543 0.6191 -0.0673
C4 C 0.53741(6) 0.61131(6) -0.0543(3)
C5 C 0.58429(6) 0.60929(6) -0.1206(3)
H4 H 0.5764 0.5824 -0.2258
H5 H 0.6092 0.6404 -0.1877
N5 N 0.36361(6) 0.59049(7) -0.7738(3)
C6 C 0.40727(6) 0.56944(6) -0.3056(3)
H6 H 0.4048 0.5412 -0.3880
H7 H 0.3760 0.5589 -0.2282
C7 C 0.60222(6) 0.60012(6) 0.1059(3)
H8 H 0.6235 0.5859 0.0836
H9 H 0.6203 0.6308 0.1911
C8 C 0.55395(6) 0.56335(6) 0.2263(3)
H10 H 0.5457 0.5292 0.1985
H11 H 0.5565 0.5693 0.3878
C9 C 0.49871(6) 0.59821(6) -0.2416(3)
H12 H 0.5104 0.6255 -0.3484
H13 H 0.4938 0.5688 -0.3220
O4 O 0.3333 0.6667 -0.3333
loop_
_geom_bond_atom_site_label_1
_geom_bond_atom_site_label_2
_geom_bond_site_symmetry_1
_geom_bond_site_symmetry_2
O1 C2 1_555 1_555
O2 H1 1_555 1_555
O3 C1 1_555 1_555
N1 C2 1_555 1_555
N2 H2 1_555 1_555
N3 N4 1_555 1_555
C1 O2 1_555 1_555
N4 C6 1_555 1_555
C2 N2 1_555 1_555
C3 N2 1_555 1_555
H3 C3 1_555 1_555
C4 N1 1_555 1_555
C5 C4 1_555 1_555
H4 C5 1_555 1_555
H5 C5 1_555 1_555
N5 N3 1_555 1_555
C6 C3 1_555 1_555
H6 C6 1_555 1_555
H7 C6 1_555 1_555
C7 C5 1_555 1_555
H8 C7 1_555 1_555
H9 C7 1_555 1_555
C8 N1 1_555 1_555
H10 C8 1_555 1_555
H11 C8 1_555 1_555
C9 C3 1_555 1_555
H12 C9 1_555 1_555
H13 C9 1_555 1_555
C1 C4 1_555 1_555
C4 C9 1_555 1_555
C7 C8 1_555 1_555

#END
