
#######################################################################
#
#                 Cambridge Crystallographic Data Centre
#                                CCDC 
#
#######################################################################
#
# If this CIF has been generated from an entry in the Cambridge 
# Structural Database, then it will include bibliographic, chemical, 
# crystal, experimental, refinement or atomic coordinate data resulting 
# from the CCDC's data processing and validation procedures.
#
#######################################################################

data_XEZGUG
_chemical_formula_moiety         'C33 H29 N3 O3'
_chemical_name_systematic        
"t-Butyl 2-oxo-2',4',5'-triphenyl-2',4'-dihydrospiro[indole-3,3'-pyrazole]-1(2H)-carboxylate"
_symmetry_cell_setting           monoclinic
_symmetry_space_group_name_H-M   'P 21'
_symmetry_Int_Tables_number      4
_space_group_name_Hall           'P 2yb'
loop_
_symmetry_equiv_pos_site_id
_symmetry_equiv_pos_as_xyz
1 x,y,z
2 -x,1/2+y,-z
_cell_length_a                   12.0160(12)
_cell_length_b                   18.7857(19)
_cell_length_c                   12.3390(12)
_cell_angle_alpha                90
_cell_angle_beta                 97.777(7)
_cell_angle_gamma                90
_cell_volume                     2759.65
_exptl_crystal_colour            colorless
_exptl_crystal_description       block
_cell_formula_units_Z            4
loop_
_atom_site_label
_atom_site_type_symbol
_atom_site_fract_x
_atom_site_fract_y
_atom_site_fract_z
O1 O 0.39703(14) 1.11483(10) -0.32805(15)
O2 O 0.63281(16) 0.99965(12) -0.13075(18)
O3 O 0.57843(13) 1.11360(10) -0.16816(15)
N1 N 0.45039(16) 1.02789(12) -0.19499(16)
N2 N 0.18687(16) 1.03542(11) -0.37471(16)
N3 N 0.12088(16) 1.09650(11) -0.38191(17)
C1 C 0.25908(19) 1.03244(13) -0.26945(19)
C2 C 0.28766(19) 0.96152(13) -0.21635(19)
C3 C 0.3986(2) 0.96357(13) -0.1656(2)
C4 C 0.37553(19) 1.06611(13) -0.27245(19)
C5 C 0.19435(19) 1.08352(12) -0.19709(19)
H1 H 0.2483 1.1161 -0.1526
C6 C 0.12366(19) 1.12461(13) -0.28713(19)
C7 C 0.2205(2) 0.90336(14) -0.2021(2)
H2 H 0.1453 0.9011 -0.2376
C8 C 0.2657(3) 0.84794(16) -0.1345(2)
H3 H 0.2216 0.8070 -0.1252
C9 C 0.3745(3) 0.85251(16) -0.0809(2)
H4 H 0.4029 0.8153 -0.0328
C10 C 0.4433(2) 0.91038(15) -0.0960(2)
H5 H 0.5182 0.9131 -0.0598
C11 C 0.5645(2) 1.04425(15) -0.1622(2)
C12 C 0.6925(2) 1.14640(15) -0.1481(2)
C13 C 0.7453(3) 1.1315(2) -0.0327(2)
H6 H 0.6926 1.1443 0.0182
H7 H 0.8141 1.1597 -0.0161
H8 H 0.7637 1.0808 -0.0249
C14 C 0.7613(2) 1.11918(17) -0.2333(2)
H9 H 0.7737 1.0679 -0.2234
H10 H 0.8339 1.1438 -0.2253
H11 H 0.7210 1.1282 -0.3065
C15 C 0.6657(2) 1.22478(16) -0.1642(3)
H12 H 0.6298 1.2329 -0.2393
H13 H 0.7353 1.2525 -0.1508
H14 H 0.6147 1.2397 -0.1129
C16 C 0.2213(2) 1.01106(13) -0.4727(2)
C17 C 0.3022(2) 0.95788(15) -0.4720(2)
H15 H 0.3361 0.9386 -0.4043
C18 C 0.3338(2) 0.93279(15) -0.5687(2)
H16 H 0.3904 0.8973 -0.5669
C19 C 0.2840(3) 0.95875(16) -0.6670(2)
H17 H 0.3043 0.9407 -0.7335
C20 C 0.2038(3) 1.01172(17) -0.6684(2)
H18 H 0.1699 1.0304 -0.7365
C21 C 0.1723(2) 1.03774(17) -0.5734(2)
H19 H 0.1169 1.0740 -0.5761
C22 C 0.05794(19) 1.18824(13) -0.2682(2)
C23 C -0.0056(2) 1.22315(15) -0.3560(2)
H20 H -0.0064 1.2055 -0.4283
C24 C -0.0670(2) 1.28304(15) -0.3380(3)
H21 H -0.1102 1.3062 -0.3980
C25 C -0.0661(2) 1.30955(16) -0.2333(3)
H22 H -0.1081 1.3510 -0.2216
C26 C -0.0045(2) 1.27581(15) -0.1462(2)
H23 H -0.0042 1.2939 -0.0742
C27 C 0.0577(2) 1.21500(14) -0.1635(2)
H24 H 0.1001 1.1918 -0.1031
C28 C 0.12520(19) 1.04266(13) -0.12384(19)
C29 C 0.0174(2) 1.02014(13) -0.1636(2)
H25 H -0.0162 1.0345 -0.2343
C30 C -0.0412(2) 0.97678(14) -0.1004(2)
H26 H -0.1155 0.9622 -0.1273
C31 C 0.0080(2) 0.95480(15) 0.0012(2)
H27 H -0.0320 0.9243 0.0437
C32 C 0.1152(2) 0.97685(15) 0.0418(2)
H28 H 0.1491 0.9614 0.1119
C33 C 0.1732(2) 1.02171(14) -0.0205(2)
H29 H 0.2462 1.0380 0.0079
O4 O 0.81481(16) 0.84739(10) -0.07161(15)
O5 O 0.62491(18) 0.74169(11) 0.13235(15)
O6 O 0.69234(15) 0.85037(10) 0.09619(14)
N4 N 0.67577(16) 0.76760(11) -0.03492(16)
N5 N 0.81381(18) 0.76913(12) -0.27704(17)
N6 N 0.82714(18) 0.83035(12) -0.33612(17)
C34 C 0.7164(2) 0.77381(13) -0.21829(19)
C35 C 0.65327(19) 0.70669(13) -0.1993(2)
C36 C 0.6266(2) 0.70709(13) -0.0928(2)
C37 C 0.7459(2) 0.80325(13) -0.1009(2)
C38 C 0.6454(2) 0.83270(13) -0.2879(2)
H30 H 0.6137 0.8672 -0.2384
C39 C 0.7372(2) 0.86803(13) -0.3418(2)
C40 C 0.6171(2) 0.65181(14) -0.2697(2)
H31 H 0.6357 0.6510 -0.3421
C41 C 0.5526(2) 0.59741(15) -0.2323(2)
H32 H 0.5273 0.5590 -0.2794
C42 C 0.5256(2) 0.59940(15) -0.1268(2)
H33 H 0.4810 0.5623 -0.1031
C43 C 0.5616(2) 0.65379(14) -0.0549(2)
H34 H 0.5426 0.6546 0.0174
C44 C 0.6624(2) 0.78412(14) 0.07409(19)
C45 C 0.6849(2) 0.88137(14) 0.2063(2)
C46 C 0.7533(3) 0.83833(18) 0.2946(2)
H35 H 0.7187 0.7914 0.2997
H36 H 0.7558 0.8631 0.3648
H37 H 0.8298 0.8325 0.2768
C47 C 0.5629(2) 0.88749(18) 0.2228(3)
H38 H 0.5211 0.9125 0.1604
H39 H 0.5572 0.9142 0.2901
H40 H 0.5312 0.8398 0.2286
C48 C 0.7359(3) 0.95412(17) 0.1943(3)
H41 H 0.8150 0.9488 0.1842
H42 H 0.7307 0.9822 0.2603
H43 H 0.6951 0.9784 0.1307
C49 C 0.9067(2) 0.72408(13) -0.2537(2)
C50 C 0.9908(2) 0.72648(16) -0.3215(2)
H44 H 0.9870 0.7601 -0.3794
C51 C 1.0794(2) 0.67953(17) -0.3034(3)
H45 H 1.1359 0.6806 -0.3503
C52 C 1.0881(2) 0.63102(15) -0.2187(3)
H46 H 1.1499 0.5991 -0.2070
C53 C 1.0056(2) 0.62984(15) -0.1513(2)
H47 H 1.0109 0.5970 -0.0923
C54 C 0.9155(2) 0.67564(14) -0.1683(2)
H48 H 0.8591 0.6740 -0.1213
C55 C 0.7260(2) 0.93529(13) -0.4026(2)
C56 C 0.6233(2) 0.96999(15) -0.4235(2)
H49 H 0.5599 0.9512 -0.3950
C57 C 0.6122(3) 1.03155(15) -0.4853(2)
H50 H 0.5412 1.0543 -0.5003
C58 C 0.7051(3) 1.06024(15) -0.5256(2)
H51 H 0.6975 1.1022 -0.5689
C59 C 0.8082(3) 1.02749(16) -0.5023(2)
H52 H 0.8721 1.0478 -0.5282
C60 C 0.8196(2) 0.96581(16) -0.4420(2)
H53 H 0.8911 0.9437 -0.4268
C61 C 0.5523(2) 0.80289(13) -0.3705(2)
C62 C 0.4429(2) 0.80147(14) -0.3467(2)
H54 H 0.4258 0.8217 -0.2804
C63 C 0.3584(2) 0.77072(16) -0.4189(2)
H55 H 0.2837 0.7699 -0.4016
C64 C 0.3818(3) 0.74122(16) -0.5160(2)
H56 H 0.3234 0.7205 -0.5657
C65 C 0.4898(3) 0.74208(16) -0.5399(2)
H57 H 0.5065 0.7216 -0.6063
C66 C 0.5756(2) 0.77289(15) -0.4675(2)
H58 H 0.6503 0.7733 -0.4848
loop_
_geom_bond_atom_site_label_1
_geom_bond_atom_site_label_2
_geom_bond_site_symmetry_1
_geom_bond_site_symmetry_2
O1 C4 1_555 1_555
O2 C11 1_555 1_555
O3 C11 1_555 1_555
N1 C3 1_555 1_555
N2 N3 1_555 1_555
N3 C6 1_555 1_555
C1 N2 1_555 1_555
C2 C1 1_555 1_555
C3 C2 1_555 1_555
C4 N1 1_555 1_555
C5 C1 1_555 1_555
H1 C5 1_555 1_555
C6 C5 1_555 1_555
C7 C2 1_555 1_555
H2 C7 1_555 1_555
C8 C7 1_555 1_555
H3 C8 1_555 1_555
C9 C8 1_555 1_555
H4 C9 1_555 1_555
C10 C3 1_555 1_555
H5 C10 1_555 1_555
C11 N1 1_555 1_555
C12 O3 1_555 1_555
C13 C12 1_555 1_555
H6 C13 1_555 1_555
H7 C13 1_555 1_555
H8 C13 1_555 1_555
C14 C12 1_555 1_555
H9 C14 1_555 1_555
H10 C14 1_555 1_555
H11 C14 1_555 1_555
C15 C12 1_555 1_555
H12 C15 1_555 1_555
H13 C15 1_555 1_555
H14 C15 1_555 1_555
C16 N2 1_555 1_555
C17 C16 1_555 1_555
H15 C17 1_555 1_555
C18 C17 1_555 1_555
H16 C18 1_555 1_555
C19 C18 1_555 1_555
H17 C19 1_555 1_555
C20 C19 1_555 1_555
H18 C20 1_555 1_555
C21 C16 1_555 1_555
H19 C21 1_555 1_555
C22 C6 1_555 1_555
C23 C22 1_555 1_555
H20 C23 1_555 1_555
C24 C23 1_555 1_555
H21 C24 1_555 1_555
C25 C24 1_555 1_555
H22 C25 1_555 1_555
C26 C25 1_555 1_555
H23 C26 1_555 1_555
C27 C22 1_555 1_555
H24 C27 1_555 1_555
C28 C5 1_555 1_555
C29 C28 1_555 1_555
H25 C29 1_555 1_555
C30 C29 1_555 1_555
H26 C30 1_555 1_555
C31 C30 1_555 1_555
H27 C31 1_555 1_555
C32 C31 1_555 1_555
H28 C32 1_555 1_555
C33 C28 1_555 1_555
H29 C33 1_555 1_555
O4 C37 1_555 1_555
O5 C44 1_555 1_555
O6 C44 1_555 1_555
N4 C36 1_555 1_555
N5 N6 1_555 1_555
N6 C39 1_555 1_555
C34 N5 1_555 1_555
C35 C34 1_555 1_555
C36 C35 1_555 1_555
C37 N4 1_555 1_555
C38 C34 1_555 1_555
H30 C38 1_555 1_555
C39 C38 1_555 1_555
C40 C35 1_555 1_555
H31 C40 1_555 1_555
C41 C40 1_555 1_555
H32 C41 1_555 1_555
C42 C41 1_555 1_555
H33 C42 1_555 1_555
C43 C36 1_555 1_555
H34 C43 1_555 1_555
C44 N4 1_555 1_555
C45 O6 1_555 1_555
C46 C45 1_555 1_555
H35 C46 1_555 1_555
H36 C46 1_555 1_555
H37 C46 1_555 1_555
C47 C45 1_555 1_555
H38 C47 1_555 1_555
H39 C47 1_555 1_555
H40 C47 1_555 1_555
C48 C45 1_555 1_555
H41 C48 1_555 1_555
H42 C48 1_555 1_555
H43 C48 1_555 1_555
C49 N5 1_555 1_555
C50 C49 1_555 1_555
H44 C50 1_555 1_555
C51 C50 1_555 1_555
H45 C51 1_555 1_555
C52 C51 1_555 1_555
H46 C52 1_555 1_555
C53 C52 1_555 1_555
H47 C53 1_555 1_555
C54 C49 1_555 1_555
H48 C54 1_555 1_555
C55 C39 1_555 1_555
C56 C55 1_555 1_555
H49 C56 1_555 1_555
C57 C56 1_555 1_555
H50 C57 1_555 1_555
C58 C57 1_555 1_555
H51 C58 1_555 1_555
C59 C58 1_555 1_555
H52 C59 1_555 1_555
C60 C55 1_555 1_555
H53 C60 1_555 1_555
C61 C38 1_555 1_555
C62 C61 1_555 1_555
H54 C62 1_555 1_555
C63 C62 1_555 1_555
H55 C63 1_555 1_555
C64 C63 1_555 1_555
H56 C64 1_555 1_555
C65 C64 1_555 1_555
H57 C65 1_555 1_555
C66 C61 1_555 1_555
H58 C66 1_555 1_555
C1 C4 1_555 1_555
C9 C10 1_555 1_555
C20 C21 1_555 1_555
C26 C27 1_555 1_555
C32 C33 1_555 1_555
C34 C37 1_555 1_555
C42 C43 1_555 1_555
C53 C54 1_555 1_555
C59 C60 1_555 1_555
C65 C66 1_555 1_555

#END
