
#######################################################################
#
#                 Cambridge Crystallographic Data Centre
#                                CCDC 
#
#######################################################################
#
# If this CIF has been generated from an entry in the Cambridge 
# Structural Database, then it will include bibliographic, chemical, 
# crystal, experimental, refinement or atomic coordinate data resulting 
# from the CCDC's data processing and validation procedures.
#
#######################################################################

data_XEZNUO
_chemical_formula_moiety         'C13 H16 Br1 N1 O2'
_chemical_name_systematic        
3-bromo-4-methyl-5-(3-oxobut-1-en-1-yl)-1-propylpyridin-2(1H)-one
_symmetry_cell_setting           triclinic
_symmetry_space_group_name_H-M   'P -1'
_symmetry_Int_Tables_number      2
_space_group_name_Hall           '-P 1'
loop_
_symmetry_equiv_pos_site_id
_symmetry_equiv_pos_as_xyz
1 x,y,z
2 -x,-y,-z
_cell_length_a                   5.37560(10)
_cell_length_b                   14.4048(3)
_cell_length_c                   17.4028(4)
_cell_angle_alpha                103.198(2)
_cell_angle_beta                 97.005(2)
_cell_angle_gamma                97.624(2)
_cell_volume                     1284.1
_exptl_crystal_colour            colorless
_exptl_crystal_description       plate
_cell_formula_units_Z            4
loop_
_atom_site_label
_atom_site_type_symbol
_atom_site_fract_x
_atom_site_fract_y
_atom_site_fract_z
Br1 Br 1.32436(5) 0.60429(2) 0.66669(2)
O1 O 1.0205(4) 0.75391(15) 0.74003(12)
O2 O 0.5165(5) 0.33800(18) 0.99927(16)
N1 N 0.8512(4) 0.68062(17) 0.82933(14)
C1 C 1.1306(5) 0.6024(2) 0.75028(16)
C2 C 1.1091(5) 0.5257(2) 0.78444(17)
C3 C 1.0038(5) 0.6851(2) 0.77004(15)
C4 C 0.7028(5) 0.7597(2) 0.85099(17)
H1 H 0.562130 0.736824 0.875600
H2 H 0.631919 0.775505 0.802528
C5 C 0.8193(6) 0.6043(2) 0.86215(17)
H3 H 0.710916 0.604765 0.899942
C6 C 0.9401(5) 0.5262(2) 0.84211(16)
C7 C 1.2431(6) 0.4409(2) 0.76161(19)
H4 H 1.120668 0.384423 0.734824
H5 H 1.333967 0.429812 0.808839
H6 H 1.360551 0.454061 0.726563
C8 C 0.6760(6) 0.3454(2) 0.95547(16)
C9 C 0.8856(5) 0.4428(2) 0.87525(16)
H7 H 0.963412 0.390105 0.856147
C10 C 0.8548(6) 0.8498(2) 0.9070(2)
H8 H 0.989012 0.875899 0.881517
H9 H 0.933207 0.834283 0.954718
C11 C 0.8039(7) 0.2609(2) 0.9237(2)
H10 H 0.743526 0.207463 0.944632
H11 H 0.984466 0.278966 0.939801
H12 H 0.765302 0.242470 0.866413
C12 C 0.6847(8) 0.9253(3) 0.9301(2)
H13 H 0.612811 0.942509 0.883069
H14 H 0.783794 0.981726 0.967053
H15 H 0.550630 0.899004 0.954628
C13 C 0.7363(6) 0.4336(2) 0.93001(18)
H16 H 0.666867 0.487055 0.953155
Br2 Br 0.74452(5) 0.41080(2) 0.59837(2)
O3 O 0.6773(4) 0.27447(15) 0.70601(13)
O4 O -0.7303(4) 0.01792(16) 0.38946(13)
N2 N 0.3081(4) 0.17772(17) 0.63919(13)
C14 C -0.3433(5) 0.1129(2) 0.45432(16)
H17 H -0.357492 0.088934 0.499184
C15 C -0.5529(5) 0.0789(2) 0.38664(16)
C16 C 0.2743(5) 0.2873(2) 0.52657(15)
C17 C 0.5014(5) 0.2550(2) 0.64889(16)
C18 C 0.1077(5) 0.1543(2) 0.57803(16)
H18 H -0.015775 0.101261 0.574868
C19 C -0.1352(5) 0.1752(2) 0.45640(16)
H19 H -0.126467 0.201764 0.412686
C20 C 0.0813(5) 0.2056(2) 0.52129(16)
C21 C 0.4748(5) 0.30809(19) 0.58749(16)
C22 C 0.3153(5) 0.1181(2) 0.69750(17)
H20 H 0.490828 0.114039 0.715210
H21 H 0.227620 0.053148 0.671363
C23 C 0.2506(6) 0.3464(2) 0.46662(17)
H22 H 0.243539 0.305968 0.413997
H23 H 0.394902 0.397181 0.478063
H24 H 0.098001 0.374127 0.469276
C24 C -0.5490(6) 0.1179(2) 0.31396(19)
H25 H -0.600849 0.065757 0.266839
H26 H -0.380012 0.149211 0.313743
H27 H -0.663624 0.163724 0.314717
C25 C 0.1944(6) 0.1574(2) 0.76991(18)
H28 H 0.021683 0.165228 0.752641
H29 H 0.289101 0.220282 0.798884
C26 C 0.1924(8) 0.0887(3) 0.8247(2)
H30 H 0.101480 0.026143 0.795670
H31 H 0.110416 0.113364 0.869331
H32 H 0.363867 0.083363 0.843746
loop_
_geom_bond_atom_site_label_1
_geom_bond_atom_site_label_2
_geom_bond_site_symmetry_1
_geom_bond_site_symmetry_2
Br1 C1 1_555 1_555
O1 C3 1_555 1_555
O2 C8 1_555 1_555
N1 C3 1_555 1_555
C1 C2 1_555 1_555
C2 C6 1_555 1_555
C3 C1 1_555 1_555
C4 N1 1_555 1_555
H1 C4 1_555 1_555
H2 C4 1_555 1_555
C5 N1 1_555 1_555
H3 C5 1_555 1_555
C6 C5 1_555 1_555
C7 C2 1_555 1_555
H4 C7 1_555 1_555
H5 C7 1_555 1_555
H6 C7 1_555 1_555
C8 C11 1_555 1_555
C9 C6 1_555 1_555
H7 C9 1_555 1_555
C10 C4 1_555 1_555
H8 C10 1_555 1_555
H9 C10 1_555 1_555
C11 H10 1_555 1_555
H11 C11 1_555 1_555
H12 C11 1_555 1_555
C12 C10 1_555 1_555
H13 C12 1_555 1_555
H14 C12 1_555 1_555
H15 C12 1_555 1_555
C13 C8 1_555 1_555
H16 C13 1_555 1_555
Br2 C21 1_555 1_555
O3 C17 1_555 1_555
O4 C15 1_555 1_555
N2 C17 1_555 1_555
C14 H17 1_555 1_555
C15 C14 1_555 1_555
C16 C20 1_555 1_555
C17 C21 1_555 1_555
C18 N2 1_555 1_555
H18 C18 1_555 1_555
C19 C14 1_555 1_555
H19 C19 1_555 1_555
C20 C18 1_555 1_555
C21 C16 1_555 1_555
C22 N2 1_555 1_555
H20 C22 1_555 1_555
H21 C22 1_555 1_555
C23 C16 1_555 1_555
H22 C23 1_555 1_555
H23 C23 1_555 1_555
H24 C23 1_555 1_555
C24 C15 1_555 1_555
H25 C24 1_555 1_555
H26 C24 1_555 1_555
H27 C24 1_555 1_555
C25 C22 1_555 1_555
H28 C25 1_555 1_555
H29 C25 1_555 1_555
C26 C25 1_555 1_555
H30 C26 1_555 1_555
H31 C26 1_555 1_555
H32 C26 1_555 1_555
C9 C13 1_555 1_555
C19 C20 1_555 1_555

#END
