
#######################################################################
#
#                 Cambridge Crystallographic Data Centre
#                                CCDC 
#
#######################################################################
#
# If this CIF has been generated from an entry in the Cambridge 
# Structural Database, then it will include bibliographic, chemical, 
# crystal, experimental, refinement or atomic coordinate data resulting 
# from the CCDC's data processing and validation procedures.
#
#######################################################################

data_XEZTON01
_chemical_name_common            Drospirenone
_chemical_formula_moiety         'C24 H30 O3'
_chemical_name_systematic        
5a,7a-dimethyl-1,1a,5,5a,5b,6,7,7a,8a,9,9a,9b,9c,9d-tetradecahydro-3'H-spiro[cyclopropa[4,5]cyclopenta[1,2-a]cyclopropa[l]phenanthrene-8,2'-furan]-3,5'(4H,4'H)-dione
_chemical_properties_biological  
'anti-mineralocorticoid and anti-androgenic activity'
_symmetry_cell_setting           orthorhombic
_symmetry_space_group_name_H-M   'P 21 21 21'
_symmetry_Int_Tables_number      19
_space_group_name_Hall           'P 2ac 2ab'
loop_
_symmetry_equiv_pos_site_id
_symmetry_equiv_pos_as_xyz
1 x,y,z
2 1/2-x,-y,1/2+z
3 1/2+x,1/2-y,-z
4 -x,1/2+y,1/2-z
_cell_length_a                   12.2379(5)
_cell_length_b                   12.6069(8)
_cell_length_c                   12.8921(8)
_cell_angle_alpha                90
_cell_angle_beta                 90
_cell_angle_gamma                90
_cell_volume                     1989.02
_exptl_crystal_colour            colorless
_exptl_crystal_description       block
_chemical_melting_point          '200-201 deg.C'
_cell_formula_units_Z            4
_exptl_crystal_recrystallization_method 'ethyl acetate'
loop_
_atom_site_label
_atom_site_type_symbol
_atom_site_fract_x
_atom_site_fract_y
_atom_site_fract_z
O1 O 0.79634(18) 0.6978(2) 0.61614(19)
O2 O 0.0469(2) 0.3161(3) 0.3376(2)
O3 O 0.8218(2) 0.7388(3) 0.7821(2)
C1 C 0.3649(2) 0.4005(2) 0.4252(2)
C2 C 0.2720(3) 0.3912(3) 0.5050(2)
H1 H 0.3020 0.3644 0.5695
H2 H 0.2430 0.4615 0.5185
C3 C 0.1793(3) 0.3197(3) 0.4717(3)
H3 H 0.2041 0.2467 0.4731
H4 H 0.1198 0.3264 0.5211
C4 C 0.1375(3) 0.3445(3) 0.3661(3)
C5 C 0.2102(3) 0.4030(3) 0.2982(3)
H5 H 0.1826 0.4249 0.2345
C6 C 0.3144(3) 0.4281(2) 0.3201(2)
C7 C 0.3782(3) 0.4880(3) 0.2433(2)
H6 H 0.3341 0.5327 0.1973
C8 C 0.4832(3) 0.4459(4) 0.1941(3)
H7 H 0.5090 0.3766 0.2160
H8 H 0.4966 0.4626 0.1218
C9 C 0.4890(3) 0.5342(3) 0.2706(2)
H9 H 0.5043 0.6043 0.2412
C10 C 0.5340(2) 0.5153(3) 0.3790(2)
H10 H 0.5839 0.4545 0.3773
C11 C 0.4416(2) 0.4927(3) 0.4576(2)
H11 H 0.3959 0.5565 0.4582
C12 C 0.4862(3) 0.4814(3) 0.5681(2)
H12 H 0.5321 0.4188 0.5717
H13 H 0.4255 0.4712 0.6155
C13 C 0.5526(3) 0.5784(3) 0.6030(2)
H14 H 0.5057 0.6403 0.6054
H15 H 0.5813 0.5663 0.6721
C14 C 0.6466(3) 0.5981(3) 0.5279(2)
C15 C 0.5958(2) 0.6127(3) 0.4190(2)
H16 H 0.5385 0.6659 0.4295
C16 C 0.6816(3) 0.6702(3) 0.3547(3)
H17 H 0.6570 0.7098 0.2936
C17 C 0.7997(3) 0.6427(4) 0.3622(3)
H18 H 0.8472 0.6651 0.3061
H19 H 0.8187 0.5750 0.3931
C18 C 0.7542(3) 0.7270(4) 0.4324(3)
H20 H 0.7740 0.8006 0.4169
C19 C 0.7094(3) 0.7044(3) 0.5380(3)
C20 C 0.6407(3) 0.7981(3) 0.5773(3)
H21 H 0.6657 0.8643 0.5472
H22 H 0.5641 0.7883 0.5605
C21 C 0.6581(3) 0.7975(3) 0.6935(3)
H23 H 0.6608 0.8691 0.7208
H24 H 0.6004 0.7586 0.7284
C22 C 0.7665(3) 0.7426(3) 0.7063(3)
C23 C 0.4253(3) 0.2930(3) 0.4193(3)
H25 H 0.3771 0.2401 0.3914
H26 H 0.4481 0.2722 0.4875
H27 H 0.4881 0.2999 0.3752
C24 C 0.7267(3) 0.5031(3) 0.5403(3)
H28 H 0.7162 0.4540 0.4843
H29 H 0.7128 0.4679 0.6051
H30 H 0.8006 0.5286 0.5394
loop_
_geom_bond_atom_site_label_1
_geom_bond_atom_site_label_2
_geom_bond_site_symmetry_1
_geom_bond_site_symmetry_2
O1 C19 1_555 1_555
O2 C4 1_555 1_555
O3 C22 1_555 1_555
C1 C2 1_555 1_555
C2 H1 1_555 1_555
H2 C2 1_555 1_555
C3 C2 1_555 1_555
H3 C3 1_555 1_555
H4 C3 1_555 1_555
C4 C3 1_555 1_555
C5 C4 1_555 1_555
H5 C5 1_555 1_555
C6 C1 1_555 1_555
C7 C6 1_555 1_555
H6 C7 1_555 1_555
C8 C7 1_555 1_555
H7 C8 1_555 1_555
H8 C8 1_555 1_555
C9 C7 1_555 1_555
H9 C9 1_555 1_555
C10 C9 1_555 1_555
H10 C10 1_555 1_555
C11 C1 1_555 1_555
H11 C11 1_555 1_555
C12 C11 1_555 1_555
H12 C12 1_555 1_555
H13 C12 1_555 1_555
C13 C12 1_555 1_555
H14 C13 1_555 1_555
H15 C13 1_555 1_555
C14 C13 1_555 1_555
C15 C10 1_555 1_555
H16 C15 1_555 1_555
C16 C15 1_555 1_555
H17 C16 1_555 1_555
C17 C16 1_555 1_555
H18 C17 1_555 1_555
H19 C17 1_555 1_555
C18 C16 1_555 1_555
H20 C18 1_555 1_555
C19 C14 1_555 1_555
C20 C19 1_555 1_555
H21 C20 1_555 1_555
H22 C20 1_555 1_555
C21 C20 1_555 1_555
H23 C21 1_555 1_555
H24 C21 1_555 1_555
C22 O1 1_555 1_555
C23 C1 1_555 1_555
H25 C23 1_555 1_555
H26 C23 1_555 1_555
H27 C23 1_555 1_555
C24 C14 1_555 1_555
H28 C24 1_555 1_555
H29 C24 1_555 1_555
H30 C24 1_555 1_555
C5 C6 1_555 1_555
C8 C9 1_555 1_555
C10 C11 1_555 1_555
C14 C15 1_555 1_555
C17 C18 1_555 1_555
C18 C19 1_555 1_555
C21 C22 1_555 1_555

#END
