
#######################################################################
#
#                 Cambridge Crystallographic Data Centre
#                                CCDC 
#
#######################################################################
#
# If this CIF has been generated from an entry in the Cambridge 
# Structural Database, then it will include bibliographic, chemical, 
# crystal, experimental, refinement or atomic coordinate data resulting 
# from the CCDC's data processing and validation procedures.
#
#######################################################################

data_XIBQOR
_chemical_formula_moiety         'C28 H58 Mg2 O2 Si2'
_chemical_name_systematic        
(\m-(2,3-dimethylbuta-1,3-diene-1,4-diyl)bis(trimethylsilane))-di-t-butyl-bis(tetrahydrofuran)-di-magnesium
_symmetry_cell_setting           monoclinic
_symmetry_space_group_name_H-M   'P 21/c'
_symmetry_Int_Tables_number      14
_space_group_name_Hall           '-P 2ybc'
loop_
_symmetry_equiv_pos_site_id
_symmetry_equiv_pos_as_xyz
1 x,y,z
2 -x,1/2+y,1/2-z
3 -x,-y,-z
4 x,1/2-y,1/2+z
_cell_length_a                   12.01785(12)
_cell_length_b                   50.9650(5)
_cell_length_c                   16.55500(19)
_cell_angle_alpha                90
_cell_angle_beta                 90.00
_cell_angle_gamma                90
_cell_volume                     10139.8
_exptl_crystal_colour            'metallic yellowish yellow'
_exptl_crystal_description       block
_cell_formula_units_Z            12
loop_
_atom_site_label
_atom_site_type_symbol
_atom_site_fract_x
_atom_site_fract_y
_atom_site_fract_z
Si1 Si 0.41030(7) 0.700495(18) 0.24320(6)
Si2 Si -0.13855(7) 0.689935(17) 0.25168(6)
Mg1 Mg 0.13763(9) 0.684490(19) 0.15286(6)
Mg2 Mg 0.14417(9) 0.674276(19) 0.32573(6)
O1 O 0.1602(2) 0.64499(4) 0.12946(14)
O2 O 0.14609(19) 0.69622(4) 0.43222(13)
C1 C 0.2564(3) 0.69993(6) 0.25100(18)
C2 C 0.1903(3) 0.72163(6) 0.25563(19)
C3 C 0.0628(3) 0.71839(6) 0.26471(19)
C4 C 0.0142(2) 0.69506(6) 0.24737(18)
C5 C 0.4641(3) 0.66736(8) 0.2752(3)
H1 H 0.4411 0.6638 0.3309
H2 H 0.5455 0.6672 0.2719
H3 H 0.4337 0.6538 0.2394
C6 C 0.4543(3) 0.70625(11) 0.1359(2)
H4 H 0.4171 0.6936 0.1006
H5 H 0.5351 0.7041 0.1315
H6 H 0.4337 0.7241 0.1197
C7 C 0.4843(3) 0.72466(8) 0.3097(2)
H7 H 0.4763 0.7423 0.2871
H8 H 0.5634 0.7201 0.3127
H9 H 0.4518 0.7242 0.3640
C8 C -0.1727(3) 0.65654(9) 0.2127(3)
H10 H -0.1506 0.6553 0.1558
H11 H -0.2529 0.6535 0.2174
H12 H -0.1325 0.6433 0.2442
C9 C -0.2172(3) 0.71425(10) 0.1875(3)
H13 H -0.2087 0.7319 0.2103
H14 H -0.2962 0.7095 0.1865
H15 H -0.1876 0.7140 0.1324
C10 C -0.1943(3) 0.69121(8) 0.3581(2)
H16 H -0.1611 0.6770 0.3900
H17 H -0.2753 0.6891 0.3571
H18 H -0.1754 0.7082 0.3825
C11 C 0.2329(3) 0.74978(6) 0.2535(2)
H19 H 0.3067 0.7502 0.2284
H20 H 0.2378 0.7566 0.3087
H21 H 0.1815 0.7606 0.2220
C12 C 0.0022(3) 0.74307(7) 0.2929(2)
H22 H -0.0048 0.7554 0.2476
H23 H 0.0445 0.7514 0.3366
H24 H -0.0721 0.7383 0.3126
C13 C 0.1186(3) 0.70311(6) 0.0361(2)
C14 C 0.2218(4) 0.70574(11) -0.0164(3)
H25 H 0.2791 0.7155 0.0130
H26 H 0.2027 0.7152 -0.0661
H27 H 0.2500 0.6882 -0.0300
C15 C 0.0313(5) 0.68861(9) -0.0128(3)
H28 H 0.0575 0.6708 -0.0244
H29 H 0.0181 0.6980 -0.0636
H30 H -0.0382 0.6877 0.0181
C16 C 0.0738(4) 0.73064(8) 0.0512(3)
H31 H 0.0050 0.7295 0.0829
H32 H 0.0583 0.7392 -0.0006
H33 H 0.1292 0.7409 0.0811
C17 C 0.1457(3) 0.63458(6) 0.3735(2)
C18 C 0.0292(3) 0.62392(7) 0.3925(2)
H34 H -0.0067 0.6352 0.4327
H35 H 0.0354 0.6061 0.4139
H36 H -0.0156 0.6237 0.3430
C19 C 0.2021(4) 0.61534(7) 0.3175(2)
H37 H 0.1598 0.6140 0.2671
H38 H 0.2056 0.5981 0.3435
H39 H 0.2777 0.6214 0.3057
C20 C 0.2117(3) 0.63468(7) 0.4525(2)
H40 H 0.2859 0.6420 0.4428
H41 H 0.2187 0.6167 0.4727
H42 H 0.1728 0.6454 0.4925
C21 C 0.0699(3) 0.62789(7) 0.1030(2)
H43 H 0.0089 0.6382 0.0785
H44 H 0.0397 0.6177 0.1490
C22 C 0.1228(3) 0.60971(7) 0.0407(2)
H45 H 0.0849 0.5925 0.0393
H46 H 0.1209 0.6176 -0.0140
C23 C 0.2410(3) 0.60718(7) 0.0714(2)
H47 H 0.2460 0.5942 0.1158
H48 H 0.2925 0.6020 0.0275
C24 C 0.2661(3) 0.63465(7) 0.1012(2)
H49 H 0.3210 0.6342 0.1457
H50 H 0.2961 0.6456 0.0569
C25 C 0.2387(3) 0.71038(8) 0.4652(2)
H51 H 0.2287 0.7295 0.4577
H52 H 0.3090 0.7050 0.4389
C26 C 0.2401(4) 0.70349(9) 0.5536(2)
H53 H 0.2692 0.7183 0.5861
H54 H 0.2870 0.6878 0.5634
C27 C 0.1188(3) 0.69787(7) 0.5748(2)
H55 H 0.1122 0.6813 0.6054
H56 H 0.0870 0.7123 0.6076
C28 C 0.0602(3) 0.69584(7) 0.4939(2)
H57 H 0.0169 0.6793 0.4908
H58 H 0.0086 0.7108 0.4865
Si3 Si 0.02312(7) 0.527892(17) 0.25541(6)
Si4 Si -0.52681(7) 0.526530(19) 0.24591(6)
Mg3 Mg -0.24916(9) 0.507592(19) 0.16964(6)
Mg4 Mg -0.25379(9) 0.515998(19) 0.34428(6)
O3 O -0.2378(2) 0.53064(4) 0.06476(13)
O4 O -0.2395(2) 0.47641(4) 0.37041(14)
C29 C -0.1304(2) 0.52979(6) 0.24677(19)
C30 C -0.1884(2) 0.55290(6) 0.24098(19)
C31 C -0.3163(3) 0.55167(6) 0.23263(19)
C32 C -0.3736(2) 0.52945(6) 0.25125(19)
C33 C 0.0684(3) 0.49366(8) 0.2285(3)
H59 H 0.0355 0.4812 0.2666
H60 H 0.1497 0.4925 0.2313
H61 H 0.0437 0.4895 0.1736
C34 C 0.0685(3) 0.53499(8) 0.3610(2)
H62 H 0.0530 0.5534 0.3739
H63 H 0.1486 0.5317 0.3661
H64 H 0.0279 0.5236 0.3986
C35 C 0.1046(3) 0.54967(9) 0.1850(2)
H65 H 0.0866 0.5452 0.1290
H66 H 0.1844 0.5471 0.1943
H67 H 0.0852 0.5681 0.1952
C36 C -0.5690(3) 0.49460(9) 0.2926(3)
H68 H -0.5321 0.4801 0.2643
H69 H -0.6499 0.4925 0.2884
H70 H -0.5472 0.4944 0.3497
C37 C -0.6027(3) 0.55353(10) 0.3018(3)
H71 H -0.5688 0.5560 0.3551
H72 H -0.6811 0.5487 0.3082
H73 H -0.5974 0.5699 0.2710
C38 C -0.5769(3) 0.52581(8) 0.1387(2)
H74 H -0.5581 0.5424 0.1122
H75 H -0.6577 0.5233 0.1379
H76 H -0.5409 0.5113 0.1099
C39 C -0.1376(3) 0.57992(6) 0.2420(2)
H77 H -0.0618 0.5789 0.2636
H78 H -0.1826 0.5915 0.2761
H79 H -0.1353 0.5869 0.1868
C40 C -0.3683(3) 0.57736(7) 0.2028(2)
H80 H -0.3229 0.5846 0.1590
H81 H -0.3717 0.5900 0.2475
H82 H -0.4437 0.5739 0.1829
C41 C -0.2602(3) 0.46798(6) 0.1209(2)
C42 C -0.2189(3) 0.44768(7) 0.1796(2)
H83 H -0.1424 0.4519 0.1955
H84 H -0.2208 0.4303 0.1541
H85 H -0.2666 0.4476 0.2276
C43 C -0.1877(3) 0.46651(7) 0.0449(2)
H86 H -0.2177 0.4783 0.0036
H87 H -0.1875 0.4485 0.0243
H88 H -0.1114 0.4718 0.0583
C44 C -0.3791(3) 0.46026(7) 0.0967(2)
H89 H -0.4271 0.4605 0.1445
H90 H -0.3786 0.4426 0.0735
H91 H -0.4074 0.4727 0.0566
C45 C -0.1992(3) 0.52100(7) 0.5291(2)
H92 H -0.2283 0.5032 0.5359
H93 H -0.2085 0.5308 0.5797
H94 H -0.1201 0.5202 0.5152
C46 C -0.2628(3) 0.53481(6) 0.46169(19)
C47 C -0.2178(3) 0.56261(7) 0.4541(2)
H95 H -0.1386 0.5620 0.4402
H96 H -0.2273 0.5718 0.5056
H97 H -0.2585 0.5719 0.4116
C48 C -0.3851(3) 0.53662(7) 0.4882(2)
H98 H -0.4283 0.5457 0.4465
H99 H -0.3900 0.5464 0.5390
H100 H -0.4151 0.5189 0.4960
C49 C -0.1340(3) 0.53976(8) 0.0298(2)
H101 H -0.0826 0.5249 0.0208
H102 H -0.0975 0.5526 0.0660
C50 C -0.1646(3) 0.55247(7) -0.0493(2)
H103 H -0.1037 0.5508 -0.0893
H104 H -0.1829 0.5713 -0.0420
C51 C -0.2668(4) 0.53674(8) -0.0750(2)
H105 H -0.3140 0.5469 -0.1128
H106 H -0.2453 0.5199 -0.1006
C52 C -0.3259(3) 0.53221(7) 0.0052(2)
H107 H -0.3769 0.5469 0.0175
H108 H -0.3693 0.5157 0.0037
C53 C -0.1351(3) 0.46370(7) 0.3934(2)
H109 H -0.0978 0.4737 0.4370
H110 H -0.0842 0.4626 0.3465
C54 C -0.1662(4) 0.43657(8) 0.4225(3)
H111 H -0.1703 0.4240 0.3770
H112 H -0.1124 0.4300 0.4630
C55 C -0.2791(4) 0.44115(9) 0.4595(3)
H113 H -0.2721 0.4478 0.5155
H114 H -0.3233 0.4248 0.4603
C56 C -0.3325(3) 0.46144(7) 0.4052(3)
H115 H -0.3766 0.4529 0.3621
H116 H -0.3822 0.4731 0.4367
Si5 Si -0.63451(7) 0.645721(17) 0.76480(5)
Si6 Si -0.08760(7) 0.631487(18) 0.73222(6)
Mg5 Mg -0.34761(9) 0.650824(19) 0.84148(6)
Mg6 Mg -0.36015(9) 0.658666(19) 0.66819(6)
O5 O -0.33821(19) 0.69092(4) 0.85943(14)
O6 O -0.38093(19) 0.63552(5) 0.56406(13)
C57 C -0.4825(2) 0.63978(6) 0.75120(19)
C58 C -0.4369(3) 0.61568(6) 0.74351(19)
C59 C -0.3103(3) 0.61248(6) 0.73092(19)
C60 C -0.2411(2) 0.63330(6) 0.74448(19)
C61 C -0.6628(3) 0.68185(6) 0.7594(2)
H117 H -0.6301 0.6890 0.7098
H118 H -0.6298 0.6906 0.8064
H119 H -0.7434 0.6849 0.7590
C62 C -0.7229(3) 0.63025(8) 0.6843(2)
H120 H -0.7185 0.6111 0.6888
H121 H -0.6960 0.6357 0.6310
H122 H -0.8003 0.6359 0.6911
C63 C -0.6868(3) 0.63439(8) 0.8660(2)
H123 H -0.6395 0.6417 0.9087
H124 H -0.6846 0.6152 0.8684
H125 H -0.7635 0.6404 0.8737
C64 C -0.0251(3) 0.66251(8) 0.7713(2)
H126 H -0.0422 0.6643 0.8289
H127 H -0.0560 0.6775 0.7416
H128 H 0.0558 0.6620 0.7638
C65 C -0.0461(3) 0.62854(8) 0.6230(2)
H129 H -0.0737 0.6438 0.5930
H130 H -0.0781 0.6125 0.6001
H131 H 0.0352 0.6278 0.6189
C66 C -0.0207(3) 0.60405(8) 0.7906(2)
H132 H -0.0463 0.5872 0.7693
H133 H -0.0412 0.6055 0.8477
H134 H 0.0604 0.6052 0.7853
C67 C -0.5008(3) 0.58967(7) 0.7456(2)
H135 H -0.5033 0.5821 0.6911
H136 H -0.5768 0.5928 0.7648
H137 H -0.4632 0.5774 0.7822
C68 C -0.2726(3) 0.58546(7) 0.7019(2)
H138 H -0.1951 0.5864 0.6839
H139 H -0.3199 0.5798 0.6570
H140 H -0.2788 0.5728 0.7464
C69 C -0.3450(3) 0.63282(6) 0.9602(2)
C70 C -0.4070(3) 0.64713(8) 1.0280(2)
H141 H -0.4855 0.6492 1.0131
H142 H -0.3737 0.6645 1.0364
H143 H -0.4016 0.6369 1.0780
C71 C -0.2239(3) 0.62984(7) 0.9864(2)
H144 H -0.1910 0.6472 0.9946
H145 H -0.1823 0.6205 0.9444
H146 H -0.2205 0.6199 1.0370
C72 C -0.3944(3) 0.60530(7) 0.9526(2)
H147 H -0.3531 0.5954 0.9118
H148 H -0.4727 0.6066 0.9364
H149 H -0.3893 0.5963 1.0048
C73 C -0.3432(3) 0.69812(7) 0.6169(2)
C74 C -0.3879(3) 0.71952(7) 0.6723(2)
H150 H -0.3438 0.7200 0.7221
H151 H -0.4658 0.7158 0.6855
H152 H -0.3827 0.7365 0.6450
C75 C -0.2231(3) 0.70505(7) 0.5948(2)
H153 H -0.1925 0.6914 0.5594
H154 H -0.1782 0.7062 0.6441
H155 H -0.2216 0.7220 0.5666
C76 C -0.4115(3) 0.69894(7) 0.5393(2)
H156 H -0.4896 0.6952 0.5517
H157 H -0.3832 0.6858 0.5014
H158 H -0.4056 0.7164 0.5149
C77 C -0.2332(3) 0.70454(7) 0.8710(3)
H159 H -0.1952 0.7074 0.8187
H160 H -0.1834 0.6944 0.9069
C78 C -0.2643(4) 0.73073(7) 0.9098(2)
H161 H -0.2047 0.7371 0.9461
H162 H -0.2798 0.7443 0.8684
C79 C -0.3687(4) 0.72369(8) 0.9568(2)
H163 H -0.3501 0.7149 1.0084
H164 H -0.4143 0.7394 0.9680
C80 C -0.4283(3) 0.70513(7) 0.8999(2)
H165 H -0.4769 0.6929 0.9301
H166 H -0.4739 0.7149 0.8603
C81 C -0.2960(3) 0.63349(7) 0.5013(2)
H167 H -0.2449 0.6187 0.5127
H168 H -0.2521 0.6499 0.4981
C82 C -0.3577(3) 0.62886(7) 0.4239(2)
H169 H -0.3129 0.6183 0.3857
H170 H -0.3788 0.6456 0.3979
C83 C -0.4604(3) 0.61376(7) 0.4524(2)
H171 H -0.5225 0.6155 0.4135
H172 H -0.4434 0.5949 0.4603
C84 C -0.4876(3) 0.62707(8) 0.5322(2)
H173 H -0.5374 0.6423 0.5235
H174 H -0.5242 0.6146 0.5696
loop_
_geom_bond_atom_site_label_1
_geom_bond_atom_site_label_2
_geom_bond_site_symmetry_1
_geom_bond_site_symmetry_2
Si1 C1 1_555 1_555
Si2 C4 1_555 1_555
Mg1 O1 1_555 1_555
Mg2 O2 1_555 1_555
O1 C21 1_555 1_555
O2 C25 1_555 1_555
C1 Mg1 1_555 1_555
C2 C1 1_555 1_555
C3 C2 1_555 1_555
C4 Mg1 1_555 1_555
C5 Si1 1_555 1_555
H1 C5 1_555 1_555
H2 C5 1_555 1_555
H3 C5 1_555 1_555
C6 Si1 1_555 1_555
H4 C6 1_555 1_555
H5 C6 1_555 1_555
H6 C6 1_555 1_555
C7 Si1 1_555 1_555
H7 C7 1_555 1_555
H8 C7 1_555 1_555
H9 C7 1_555 1_555
C8 Si2 1_555 1_555
H10 C8 1_555 1_555
H11 C8 1_555 1_555
H12 C8 1_555 1_555
C9 Si2 1_555 1_555
H13 C9 1_555 1_555
H14 C9 1_555 1_555
H15 C9 1_555 1_555
C10 Si2 1_555 1_555
H16 C10 1_555 1_555
H17 C10 1_555 1_555
H18 C10 1_555 1_555
C11 C2 1_555 1_555
H19 C11 1_555 1_555
H20 C11 1_555 1_555
H21 C11 1_555 1_555
C12 C3 1_555 1_555
H22 C12 1_555 1_555
H23 C12 1_555 1_555
H24 C12 1_555 1_555
C13 Mg1 1_555 1_555
C14 C13 1_555 1_555
H25 C14 1_555 1_555
H26 C14 1_555 1_555
H27 C14 1_555 1_555
C15 C13 1_555 1_555
H28 C15 1_555 1_555
H29 C15 1_555 1_555
H30 C15 1_555 1_555
C16 C13 1_555 1_555
H31 C16 1_555 1_555
H32 C16 1_555 1_555
H33 C16 1_555 1_555
C17 Mg2 1_555 1_555
C18 C17 1_555 1_555
H34 C18 1_555 1_555
H35 C18 1_555 1_555
H36 C18 1_555 1_555
C19 C17 1_555 1_555
H37 C19 1_555 1_555
H38 C19 1_555 1_555
H39 C19 1_555 1_555
C20 C17 1_555 1_555
H40 C20 1_555 1_555
H41 C20 1_555 1_555
H42 C20 1_555 1_555
C21 H43 1_555 1_555
H44 C21 1_555 1_555
C22 C21 1_555 1_555
H45 C22 1_555 1_555
H46 C22 1_555 1_555
C23 C22 1_555 1_555
H47 C23 1_555 1_555
H48 C23 1_555 1_555
C24 O1 1_555 1_555
H49 C24 1_555 1_555
H50 C24 1_555 1_555
C25 H51 1_555 1_555
H52 C25 1_555 1_555
C26 C25 1_555 1_555
H53 C26 1_555 1_555
H54 C26 1_555 1_555
C27 C26 1_555 1_555
H55 C27 1_555 1_555
H56 C27 1_555 1_555
C28 O2 1_555 1_555
H57 C28 1_555 1_555
H58 C28 1_555 1_555
Si3 C29 1_555 1_555
Si4 C32 1_555 1_555
Mg3 O3 1_555 1_555
Mg4 O4 1_555 1_555
O3 C49 1_555 1_555
O4 C53 1_555 1_555
C29 Mg3 1_555 1_555
C30 C29 1_555 1_555
C31 C30 1_555 1_555
C32 Mg3 1_555 1_555
C33 Si3 1_555 1_555
H59 C33 1_555 1_555
H60 C33 1_555 1_555
H61 C33 1_555 1_555
C34 Si3 1_555 1_555
H62 C34 1_555 1_555
H63 C34 1_555 1_555
H64 C34 1_555 1_555
C35 Si3 1_555 1_555
H65 C35 1_555 1_555
H66 C35 1_555 1_555
H67 C35 1_555 1_555
C36 Si4 1_555 1_555
H68 C36 1_555 1_555
H69 C36 1_555 1_555
H70 C36 1_555 1_555
C37 Si4 1_555 1_555
H71 C37 1_555 1_555
H72 C37 1_555 1_555
H73 C37 1_555 1_555
C38 Si4 1_555 1_555
H74 C38 1_555 1_555
H75 C38 1_555 1_555
H76 C38 1_555 1_555
C39 C30 1_555 1_555
H77 C39 1_555 1_555
H78 C39 1_555 1_555
H79 C39 1_555 1_555
C40 C31 1_555 1_555
H80 C40 1_555 1_555
H81 C40 1_555 1_555
H82 C40 1_555 1_555
C41 Mg3 1_555 1_555
C42 C41 1_555 1_555
H83 C42 1_555 1_555
H84 C42 1_555 1_555
H85 C42 1_555 1_555
C43 C41 1_555 1_555
H86 C43 1_555 1_555
H87 C43 1_555 1_555
H88 C43 1_555 1_555
C44 C41 1_555 1_555
H89 C44 1_555 1_555
H90 C44 1_555 1_555
H91 C44 1_555 1_555
C45 H92 1_555 1_555
H93 C45 1_555 1_555
H94 C45 1_555 1_555
C46 Mg4 1_555 1_555
C47 C46 1_555 1_555
H95 C47 1_555 1_555
H96 C47 1_555 1_555
H97 C47 1_555 1_555
C48 C46 1_555 1_555
H98 C48 1_555 1_555
H99 C48 1_555 1_555
H100 C48 1_555 1_555
C49 H101 1_555 1_555
H102 C49 1_555 1_555
C50 C49 1_555 1_555
H103 C50 1_555 1_555
H104 C50 1_555 1_555
C51 C50 1_555 1_555
H105 C51 1_555 1_555
H106 C51 1_555 1_555
C52 O3 1_555 1_555
H107 C52 1_555 1_555
H108 C52 1_555 1_555
C53 H109 1_555 1_555
H110 C53 1_555 1_555
C54 C53 1_555 1_555
H111 C54 1_555 1_555
H112 C54 1_555 1_555
C55 C54 1_555 1_555
H113 C55 1_555 1_555
H114 C55 1_555 1_555
C56 O4 1_555 1_555
H115 C56 1_555 1_555
H116 C56 1_555 1_555
Si5 C57 1_555 1_555
Si6 C60 1_555 1_555
Mg5 O5 1_555 1_555
Mg6 O6 1_555 1_555
O5 C77 1_555 1_555
O6 C81 1_555 1_555
C57 Mg5 1_555 1_555
C58 C57 1_555 1_555
C59 C58 1_555 1_555
C60 Mg5 1_555 1_555
C61 Si5 1_555 1_555
H117 C61 1_555 1_555
H118 C61 1_555 1_555
H119 C61 1_555 1_555
C62 Si5 1_555 1_555
H120 C62 1_555 1_555
H121 C62 1_555 1_555
H122 C62 1_555 1_555
C63 Si5 1_555 1_555
H123 C63 1_555 1_555
H124 C63 1_555 1_555
H125 C63 1_555 1_555
C64 Si6 1_555 1_555
H126 C64 1_555 1_555
H127 C64 1_555 1_555
H128 C64 1_555 1_555
C65 Si6 1_555 1_555
H129 C65 1_555 1_555
H130 C65 1_555 1_555
H131 C65 1_555 1_555
C66 Si6 1_555 1_555
H132 C66 1_555 1_555
H133 C66 1_555 1_555
H134 C66 1_555 1_555
C67 C58 1_555 1_555
H135 C67 1_555 1_555
H136 C67 1_555 1_555
H137 C67 1_555 1_555
C68 C59 1_555 1_555
H138 C68 1_555 1_555
H139 C68 1_555 1_555
H140 C68 1_555 1_555
C69 Mg5 1_555 1_555
C70 C69 1_555 1_555
H141 C70 1_555 1_555
H142 C70 1_555 1_555
H143 C70 1_555 1_555
C71 C69 1_555 1_555
H144 C71 1_555 1_555
H145 C71 1_555 1_555
H146 C71 1_555 1_555
C72 C69 1_555 1_555
H147 C72 1_555 1_555
H148 C72 1_555 1_555
H149 C72 1_555 1_555
C73 Mg6 1_555 1_555
C74 C73 1_555 1_555
H150 C74 1_555 1_555
H151 C74 1_555 1_555
H152 C74 1_555 1_555
C75 C73 1_555 1_555
H153 C75 1_555 1_555
H154 C75 1_555 1_555
H155 C75 1_555 1_555
C76 C73 1_555 1_555
H156 C76 1_555 1_555
H157 C76 1_555 1_555
H158 C76 1_555 1_555
C77 H159 1_555 1_555
H160 C77 1_555 1_555
C78 C77 1_555 1_555
H161 C78 1_555 1_555
H162 C78 1_555 1_555
C79 C78 1_555 1_555
H163 C79 1_555 1_555
H164 C79 1_555 1_555
C80 O5 1_555 1_555
H165 C80 1_555 1_555
H166 C80 1_555 1_555
C81 H167 1_555 1_555
H168 C81 1_555 1_555
C82 C81 1_555 1_555
H169 C82 1_555 1_555
H170 C82 1_555 1_555
C83 C82 1_555 1_555
H171 C83 1_555 1_555
H172 C83 1_555 1_555
C84 O6 1_555 1_555
H173 C84 1_555 1_555
H174 C84 1_555 1_555
Mg2 C1 1_555 1_555
Mg2 C4 1_555 1_555
C3 C4 1_555 1_555
C23 C24 1_555 1_555
C27 C28 1_555 1_555
Mg4 C29 1_555 1_555
Mg4 C32 1_555 1_555
C31 C32 1_555 1_555
C45 C46 1_555 1_555
C51 C52 1_555 1_555
C55 C56 1_555 1_555
Mg6 C57 1_555 1_555
Mg6 C60 1_555 1_555
C59 C60 1_555 1_555
C79 C80 1_555 1_555
C83 C84 1_555 1_555

#END
