
#######################################################################
#
#                 Cambridge Crystallographic Data Centre
#                                CCDC 
#
#######################################################################
#
# If this CIF has been generated from an entry in the Cambridge 
# Structural Database, then it will include bibliographic, chemical, 
# crystal, experimental, refinement or atomic coordinate data resulting 
# from the CCDC's data processing and validation procedures.
#
#######################################################################

data_XIBREI
_chemical_formula_moiety         'C32 H65 Cl3 Mg3 O4 Si2'
_chemical_name_systematic        
tris(\m-chloro)-(\m-(2,3-dimethylbuta-1,3-diene-1,4-diyl)bis(trimethylsilane))-t-butyl-tetrakis(tetrahydrofuran)-tri-magnesium
_symmetry_cell_setting           triclinic
_symmetry_space_group_name_H-M   'P -1'
_symmetry_Int_Tables_number      2
_space_group_name_Hall           '-P 1'
loop_
_symmetry_equiv_pos_site_id
_symmetry_equiv_pos_as_xyz
1 x,y,z
2 -x,-y,-z
_cell_length_a                   11.0335(4)
_cell_length_b                   12.5837(4)
_cell_length_c                   15.1529(6)
_cell_angle_alpha                86.848(3)
_cell_angle_beta                 83.754(3)
_cell_angle_gamma                80.993(3)
_cell_volume                     2064.04
_exptl_crystal_colour            'light yellow'
_exptl_crystal_description       block
_cell_formula_units_Z            2
loop_
_atom_site_label
_atom_site_type_symbol
_atom_site_fract_x
_atom_site_fract_y
_atom_site_fract_z
Cl1 Cl 0.61392(5) 0.60648(4) 0.33732(4)
Cl2 Cl 0.94066(5) 0.59242(4) 0.33257(3)
Cl3 Cl 0.83372(5) 0.49371(4) 0.16020(3)
Si1 Si 0.81715(6) 0.90460(5) 0.36580(4)
Si2 Si 0.60639(5) 0.69773(5) 0.03671(4)
Mg1 Mg 0.60178(7) 0.78588(6) 0.25787(5)
Mg2 Mg 0.83887(6) 0.68050(6) 0.20488(4)
Mg3 Mg 0.80230(6) 0.45486(6) 0.32119(5)
O1 O 0.99830(14) 0.69524(13) 0.12585(10)
O2 O 0.79393(15) 0.42646(12) 0.45683(10)
O3 O 0.67464(13) 0.34512(12) 0.31692(9)
O4 O 0.95008(14) 0.32648(12) 0.30771(10)
C1 C 0.78200(19) 0.84800(17) 0.26240(14)
C2 C 0.78922(19) 0.89759(17) 0.18054(14)
C3 C 0.74236(19) 0.84736(17) 0.10245(13)
C4 C 0.68597(19) 0.75886(17) 0.11829(13)
C5 C 0.4385(2) 0.90631(18) 0.27555(15)
C6 C 0.3903(2) 0.9311(2) 0.37188(16)
H1 H 0.3663 0.8661 0.4029
H2 H 0.3186 0.9880 0.3729
H3 H 0.4553 0.9552 0.4015
C7 C 0.3333(2) 0.8761(2) 0.22930(17)
H4 H 0.3617 0.8630 0.1667
H5 H 0.2638 0.9351 0.2332
H6 H 0.3070 0.8108 0.2583
C8 C 0.4742(2) 1.01008(19) 0.22856(17)
H7 H 0.5395 1.0337 0.2581
H8 H 0.4019 1.0665 0.2313
H9 H 0.5039 0.9962 0.1663
C9 C 0.7691(3) 0.8178(2) 0.46399(15)
H10 H 0.6816 0.8116 0.4643
H11 H 0.7820 0.8504 0.5188
H12 H 0.8185 0.7461 0.4601
C10 C 0.9857(2) 0.9135(2) 0.36888(18)
H13 H 1.0344 0.8418 0.3613
H14 H 0.9981 0.9405 0.4261
H15 H 1.0123 0.9626 0.3208
C11 C 0.7280(2) 1.04286(18) 0.38837(15)
H16 H 0.7408 1.0911 0.3363
H17 H 0.7569 1.0713 0.4399
H18 H 0.6399 1.0379 0.4006
C12 C 0.8379(2) 1.00373(19) 0.15820(15)
H19 H 0.8638 1.0300 0.2118
H20 H 0.7727 1.0569 0.1356
H21 H 0.9085 0.9925 0.1128
C13 C 0.7626(2) 0.9052(2) 0.01221(15)
H22 H 0.8502 0.9112 -0.0012
H23 H 0.7139 0.9774 0.0135
H24 H 0.7366 0.8643 -0.0337
C14 C 0.4995(2) 0.8005(2) -0.02509(15)
H25 H 0.4586 0.8562 0.0155
H26 H 0.4373 0.7650 -0.0483
H27 H 0.5473 0.8337 -0.0745
C15 C 0.5063(2) 0.6054(2) 0.09923(16)
H28 H 0.5575 0.5498 0.1324
H29 H 0.4643 0.5713 0.0572
H30 H 0.4448 0.6469 0.1407
C16 C 0.7138(2) 0.61710(19) -0.04871(15)
H31 H 0.7632 0.6648 -0.0850
H32 H 0.6656 0.5835 -0.0869
H33 H 0.7686 0.5610 -0.0187
C17 C 1.0991(2) 0.7436(2) 0.15093(16)
H34 H 1.1611 0.6887 0.1768
H35 H 1.0691 0.7997 0.1948
C18 C 1.1531(3) 0.7922(3) 0.06538(19)
H36 H 1.1075 0.8645 0.0523
H37 H 1.2412 0.7980 0.0678
C19 C 1.1384(3) 0.7147(3) -0.00196(18)
H38 H 1.2128 0.6595 -0.0100
H39 H 1.1250 0.7525 -0.0599
C20 C 1.0264(2) 0.6630(2) 0.03424(15)
H40 H 0.9558 0.6889 -0.0005
H41 H 1.0453 0.5836 0.0316
C21 C 0.7764(3) 0.5103(2) 0.52093(16)
H42 H 0.7157 0.5720 0.5028
H43 H 0.8552 0.5361 0.5269
C22 C 0.7287(2) 0.4575(2) 0.60742(15)
H44 H 0.6379 0.4754 0.6180
H45 H 0.7658 0.4816 0.6581
C23 C 0.7676(2) 0.3369(2) 0.59581(16)
H46 H 0.8190 0.3047 0.6430
H47 H 0.6946 0.2998 0.5977
C24 C 0.8414(2) 0.32878(19) 0.50509(15)
H48 H 0.9306 0.3252 0.5104
H49 H 0.8283 0.2642 0.4750
C25 C 1.0798(2) 0.3398(2) 0.3043(2)
H50 H 1.0995 0.3585 0.3632
H51 H 1.0986 0.3976 0.2604
C26 C 1.1530(2) 0.2332(2) 0.27737(19)
H52 H 1.1662 0.1836 0.3296
H53 H 1.2339 0.2425 0.2452
C27 C 1.0704(2) 0.1930(2) 0.21697(17)
H54 H 1.0802 0.2264 0.1564
H55 H 1.0879 0.1137 0.2133
C28 C 0.9431(2) 0.22888(19) 0.26280(17)
H56 H 0.8818 0.2434 0.2188
H57 H 0.9185 0.1725 0.3062
C29 C 0.5821(2) 0.33042(19) 0.39220(14)
H58 H 0.5510 0.3997 0.4207
H59 H 0.6181 0.2783 0.4371
C30 C 0.4782(2) 0.28786(19) 0.35345(15)
H60 H 0.3969 0.3162 0.3845
H61 H 0.4896 0.2082 0.3571
C31 C 0.4898(2) 0.3303(2) 0.25705(15)
H62 H 0.4520 0.2869 0.2182
H63 H 0.4516 0.4067 0.2515
C32 C 0.6280(2) 0.31754(19) 0.23573(14)
H64 H 0.6618 0.2426 0.2201
H65 H 0.6506 0.3666 0.1854
loop_
_geom_bond_atom_site_label_1
_geom_bond_atom_site_label_2
_geom_bond_site_symmetry_1
_geom_bond_site_symmetry_2
Cl1 Mg1 1_555 1_555
Cl2 Mg2 1_555 1_555
Cl3 Mg2 1_555 1_555
Si1 C1 1_555 1_555
Si2 C4 1_555 1_555
Mg1 C1 1_555 1_555
Mg2 O1 1_555 1_555
Mg3 Cl1 1_555 1_555
O1 C17 1_555 1_555
O2 Mg3 1_555 1_555
O3 Mg3 1_555 1_555
O4 Mg3 1_555 1_555
C1 Mg2 1_555 1_555
C2 C1 1_555 1_555
C3 C2 1_555 1_555
C4 Mg1 1_555 1_555
C5 Mg1 1_555 1_555
C6 C5 1_555 1_555
H1 C6 1_555 1_555
H2 C6 1_555 1_555
H3 C6 1_555 1_555
C7 C5 1_555 1_555
H4 C7 1_555 1_555
H5 C7 1_555 1_555
H6 C7 1_555 1_555
C8 C5 1_555 1_555
H7 C8 1_555 1_555
H8 C8 1_555 1_555
H9 C8 1_555 1_555
C9 Si1 1_555 1_555
H10 C9 1_555 1_555
H11 C9 1_555 1_555
H12 C9 1_555 1_555
C10 Si1 1_555 1_555
H13 C10 1_555 1_555
H14 C10 1_555 1_555
H15 C10 1_555 1_555
C11 Si1 1_555 1_555
H16 C11 1_555 1_555
H17 C11 1_555 1_555
H18 C11 1_555 1_555
C12 C2 1_555 1_555
H19 C12 1_555 1_555
H20 C12 1_555 1_555
H21 C12 1_555 1_555
C13 C3 1_555 1_555
H22 C13 1_555 1_555
H23 C13 1_555 1_555
H24 C13 1_555 1_555
C14 Si2 1_555 1_555
H25 C14 1_555 1_555
H26 C14 1_555 1_555
H27 C14 1_555 1_555
C15 Si2 1_555 1_555
H28 C15 1_555 1_555
H29 C15 1_555 1_555
H30 C15 1_555 1_555
C16 Si2 1_555 1_555
H31 C16 1_555 1_555
H32 C16 1_555 1_555
H33 C16 1_555 1_555
C17 H34 1_555 1_555
H35 C17 1_555 1_555
C18 C17 1_555 1_555
H36 C18 1_555 1_555
H37 C18 1_555 1_555
C19 C18 1_555 1_555
H38 C19 1_555 1_555
H39 C19 1_555 1_555
C20 O1 1_555 1_555
H40 C20 1_555 1_555
H41 C20 1_555 1_555
C21 O2 1_555 1_555
H42 C21 1_555 1_555
H43 C21 1_555 1_555
C22 C21 1_555 1_555
H44 C22 1_555 1_555
H45 C22 1_555 1_555
C23 C22 1_555 1_555
H46 C23 1_555 1_555
H47 C23 1_555 1_555
C24 O2 1_555 1_555
H48 C24 1_555 1_555
H49 C24 1_555 1_555
C25 O4 1_555 1_555
H50 C25 1_555 1_555
H51 C25 1_555 1_555
C26 C25 1_555 1_555
H52 C26 1_555 1_555
H53 C26 1_555 1_555
C27 C26 1_555 1_555
H54 C27 1_555 1_555
H55 C27 1_555 1_555
C28 O4 1_555 1_555
H56 C28 1_555 1_555
H57 C28 1_555 1_555
C29 O3 1_555 1_555
H58 C29 1_555 1_555
H59 C29 1_555 1_555
C30 C29 1_555 1_555
H60 C30 1_555 1_555
H61 C30 1_555 1_555
C31 C30 1_555 1_555
H62 C31 1_555 1_555
H63 C31 1_555 1_555
C32 O3 1_555 1_555
H64 C32 1_555 1_555
H65 C32 1_555 1_555
Cl2 Mg3 1_555 1_555
Cl3 Mg3 1_555 1_555
Mg2 C4 1_555 1_555
C3 C4 1_555 1_555
C19 C20 1_555 1_555
C23 C24 1_555 1_555
C27 C28 1_555 1_555
C31 C32 1_555 1_555

#END
