
#######################################################################
#
#                 Cambridge Crystallographic Data Centre
#                                CCDC 
#
#######################################################################
#
# If this CIF has been generated from an entry in the Cambridge 
# Structural Database, then it will include bibliographic, chemical, 
# crystal, experimental, refinement or atomic coordinate data resulting 
# from the CCDC's data processing and validation procedures.
#
#######################################################################

data_XIBTUY
_chemical_name_common            
'Teaching Subset: Fundamental Chemistry, Symmetry'
_chemical_formula_moiety         'C5 H9 N3,3(H2 O1)'
_chemical_name_systematic        '3,4,5-Trimethyl-1,2,4-triazole trihydrate'
_symmetry_cell_setting           monoclinic
_symmetry_space_group_name_H-M   'P 21/n'
_symmetry_Int_Tables_number      14
_space_group_name_Hall           '-P 2yn'
loop_
_symmetry_equiv_pos_site_id
_symmetry_equiv_pos_as_xyz
1 x,y,z
2 1/2-x,1/2+y,1/2-z
3 -x,-y,-z
4 1/2+x,1/2-y,1/2+z
_cell_length_a                   10.0587(4)
_cell_length_b                   6.5923(2)
_cell_length_c                   13.4209(5)
_cell_angle_alpha                90
_cell_angle_beta                 91.1830(10)
_cell_angle_gamma                90
_cell_volume                     889.75
_exptl_crystal_colour            colorless
_exptl_crystal_description       block
_cell_formula_units_Z            4
loop_
_atom_site_label
_atom_site_type_symbol
_atom_site_fract_x
_atom_site_fract_y
_atom_site_fract_z
N1 N 0.63048(7) 0.15687(10) 0.23095(5)
N2 N 0.73510(7) 0.15563(10) 0.16438(5)
C1 C 0.84600(8) 0.15397(11) 0.21729(6)
N3 N 0.81871(6) 0.15437(10) 0.31612(5)
C2 C 0.68335(8) 0.15592(11) 0.32118(6)
C3 C 0.98224(9) 0.15140(13) 0.17707(7)
H1 H 0.9771 0.1462 0.1041
H2 H 1.03 0.0318 0.2023
H3 H 1.0297 0.2745 0.1982
C4 C 0.91311(9) 0.15041(14) 0.39952(7)
H4 H 0.8925 0.0363 0.4434
H5 H 0.9072 0.2777 0.4369
H6 H 1.0034 0.1346 0.3745
C5 C 0.61061(9) 0.15678(13) 0.41608(6)
H7 H 0.5147 0.1509 0.4018
H8 H 0.6316 0.2813 0.4531
H9 H 0.6374 0.0388 0.4561
O1 O 0.76661(7) 0.44373(11) 0.85164(5)
H10 H 0.7994(13) 0.406(2) 0.7918(11)
H11 H 0.7267(13) 0.546(2) 0.8390(10)
O2 O 0.63598(6) 0.81171(9) 0.83098(5)
H12 H 0.5460(13) 0.8271(17) 0.8170(9)
H13 H 0.6582(11) 0.9033(18) 0.8786(9)
O3 O 0.72608(8) 0.09621(11) 0.95808(5)
H14 H 0.7407(13) 0.221(2) 0.9294(9)
H15 H 0.7076(17) 0.118(2) 1.0237(14)
loop_
_geom_bond_atom_site_label_1
_geom_bond_atom_site_label_2
_geom_bond_site_symmetry_1
_geom_bond_site_symmetry_2
N1 N2 1_555 1_555
N2 C1 1_555 1_555
C1 N3 1_555 1_555
N3 C2 1_555 1_555
C2 N1 1_555 1_555
C3 C1 1_555 1_555
H1 C3 1_555 1_555
H2 C3 1_555 1_555
H3 C3 1_555 1_555
C4 N3 1_555 1_555
H4 C4 1_555 1_555
H5 C4 1_555 1_555
H6 C4 1_555 1_555
C5 C2 1_555 1_555
H7 C5 1_555 1_555
H8 C5 1_555 1_555
H9 C5 1_555 1_555
O1 H10 1_555 1_555
H11 O1 1_555 1_555
O2 H12 1_555 1_555
H13 O2 1_555 1_555
O3 H14 1_555 1_555
H15 O3 1_555 1_555

#END
