
#######################################################################
#
#                 Cambridge Crystallographic Data Centre
#                                CCDC 
#
#######################################################################
#
# If this CIF has been generated from an entry in the Cambridge 
# Structural Database, then it will include bibliographic, chemical, 
# crystal, experimental, refinement or atomic coordinate data resulting 
# from the CCDC's data processing and validation procedures.
#
#######################################################################

data_XICTAF
_chemical_formula_moiety         'C36 H30 N1 P2 1+,C11 H16 F3 N2 S4 Te1 1-'
_chemical_name_systematic        
"bis(Triphenylphosphanylidene)ammonium bis(N,N-tetramethylenedithiocarbamato-S,S')-trifluoromethyl-tellurium(ii)"
_symmetry_cell_setting           monoclinic
_symmetry_space_group_name_H-M   'P 21/c'
_symmetry_Int_Tables_number      14
_space_group_name_Hall           '-P 2ybc'
loop_
_symmetry_equiv_pos_site_id
_symmetry_equiv_pos_as_xyz
1 x,y,z
2 -x,1/2+y,1/2-z
3 -x,-y,-z
4 x,1/2-y,1/2+z
_cell_length_a                   15.8596(14)
_cell_length_b                   14.8867(9)
_cell_length_c                   19.4238(17)
_cell_angle_alpha                90
_cell_angle_beta                 91.203(7)
_cell_angle_gamma                90
_cell_volume                     4584.89
_exptl_crystal_colour            yellow
_exptl_crystal_description       plate
_chemical_melting_point          120deg.C.(dec.)
_cell_formula_units_Z            4
_exptl_crystal_recrystallization_method 'dichloromethane/diethyl ether'
loop_
_atom_site_label
_atom_site_type_symbol
_atom_site_fract_x
_atom_site_fract_y
_atom_site_fract_z
Te1 Te 0.29924(2) -0.14223(2) 0.156827(17)
C1 C 0.1644(3) -0.1009(4) 0.1427(3)
F1 F 0.1091(2) -0.1580(3) 0.1688(3)
F2 F 0.1468(3) -0.0222(3) 0.1731(2)
F3 F 0.1403(2) -0.0867(3) 0.07612(18)
C2 C 0.3433(3) -0.1564(3) 0.3246(3)
S1 S 0.24312(8) -0.15283(8) 0.28742(7)
S2 S 0.43026(8) -0.17749(10) 0.27821(7)
N1 N 0.3494(3) -0.1416(3) 0.3929(2)
C3 C 0.2772(4) -0.1218(4) 0.4367(3)
H1 H 0.2346 -0.1683 0.4323
H2 H 0.2521 -0.0644 0.4245
C4 C 0.3145(4) -0.1194(5) 0.5092(3)
H3 H 0.3110 -0.1779 0.5309
H4 H 0.2856 -0.0757 0.5373
C5 C 0.4061(4) -0.0923(4) 0.4992(3)
H5 H 0.4416 -0.1126 0.5374
H6 H 0.4115 -0.0277 0.4947
C6 C 0.4290(3) -0.1398(4) 0.4325(3)
H7 H 0.4719 -0.1067 0.4083
H8 H 0.4493 -0.2002 0.4417
C7 C 0.4125(3) -0.1299(3) 0.0176(3)
S3 S 0.30518(8) -0.11459(10) 0.02032(7)
S4 S 0.46921(9) -0.16775(11) 0.08673(7)
N2 N 0.4510(3) -0.1095(3) -0.0414(2)
C8 C 0.4070(4) -0.0848(4) -0.1060(3)
H9 H 0.3726 -0.0317 -0.0998
H10 H 0.3714 -0.1336 -0.1224
C9 C 0.4780(4) -0.0665(5) -0.1558(3)
H11 H 0.4632 -0.0883 -0.2015
H12 H 0.4896 -0.0026 -0.1585
C10 C 0.5530(4) -0.1161(5) -0.1268(3)
H13 H 0.6051 -0.0874 -0.1401
H14 H 0.5532 -0.1779 -0.1427
C11 C 0.5430(3) -0.1121(4) -0.0496(3)
H15 H 0.5673 -0.1647 -0.0275
H16 H 0.5695 -0.0586 -0.0305
P1 P 0.22293(7) 0.33881(7) 0.26936(6)
C12 C 0.1837(3) 0.3595(3) 0.3547(2)
C13 C 0.0980(3) 0.3586(3) 0.3665(3)
H17 H 0.0598 0.3480 0.3304
C14 C 0.0692(3) 0.3738(4) 0.4327(3)
H18 H 0.0116 0.3729 0.4409
C15 C 0.1255(3) 0.3899(4) 0.4861(3)
H19 H 0.1060 0.4003 0.5302
C16 C 0.2113(3) 0.3907(4) 0.4739(3)
H20 H 0.2494 0.4019 0.5100
C17 C 0.2405(3) 0.3751(3) 0.4087(3)
H21 H 0.2981 0.3751 0.4008
C18 C 0.2782(3) 0.4384(3) 0.2446(2)
C19 C 0.3472(3) 0.4364(3) 0.2010(2)
H22 H 0.3716 0.3817 0.1898
C20 C 0.3795(3) 0.5155(3) 0.1745(3)
H23 H 0.4258 0.5137 0.1458
C21 C 0.3430(3) 0.5972(3) 0.1907(3)
H24 H 0.3641 0.6500 0.1721
C22 C 0.2752(3) 0.6007(3) 0.2343(3)
H25 H 0.2513 0.6557 0.2455
C23 C 0.2428(3) 0.5212(3) 0.2616(3)
H26 H 0.1975 0.5235 0.2912
C24 C 0.2941(3) 0.2448(3) 0.2765(2)
C25 C 0.3773(3) 0.2537(3) 0.3005(2)
H27 H 0.3999 0.3104 0.3093
C26 C 0.4263(3) 0.1772(3) 0.3112(3)
H28 H 0.4817 0.1829 0.3271
C27 C 0.3933(3) 0.0928(3) 0.2984(3)
H29 H 0.4264 0.0420 0.3060
C28 C 0.3108(3) 0.0838(3) 0.2741(3)
H30 H 0.2886 0.0270 0.2654
C29 C 0.2617(3) 0.1592(3) 0.2627(3)
H31 H 0.2067 0.1530 0.2459
N3 N 0.1470(2) 0.3113(3) 0.2193(2)
P2 P 0.10496(7) 0.33798(8) 0.14760(6)
C30 C 0.0558(3) 0.4470(3) 0.1468(2)
C31 C 0.1005(4) 0.5231(3) 0.1272(3)
H32 H 0.1551 0.5179 0.1113
C32 C 0.0620(5) 0.6074(4) 0.1317(3)
H33 H 0.0914 0.6587 0.1191
C33 C -0.0187(5) 0.6149(4) 0.1544(3)
H34 H -0.0443 0.6710 0.1560
C34 C -0.0630(4) 0.5393(4) 0.1751(3)
H35 H -0.1174 0.5452 0.1913
C35 C -0.0262(3) 0.4558(4) 0.1714(3)
H36 H -0.0557 0.4052 0.1853
C36 C 0.1773(3) 0.3382(3) 0.0775(3)
C37 C 0.2592(3) 0.3052(3) 0.0882(3)
H37 H 0.2747 0.2800 0.1304
C38 C 0.3177(4) 0.3102(4) 0.0353(3)
H38 H 0.3727 0.2904 0.0431
C39 C 0.2943(4) 0.3441(4) -0.0281(3)
H39 H 0.3332 0.3472 -0.0631
C40 C 0.2125(4) 0.3736(4) -0.0394(3)
H40 H 0.1962 0.3950 -0.0827
C41 C 0.1549(4) 0.3716(4) 0.0129(3)
H41 H 0.1004 0.3929 0.0047
C42 C 0.0240(3) 0.2573(3) 0.1276(2)
C43 C 0.0221(3) 0.1761(4) 0.1637(3)
H42 H 0.0612 0.1656 0.1991
C44 C -0.0374(4) 0.1114(4) 0.1469(3)
H43 H -0.0386 0.0577 0.1713
C45 C -0.0953(3) 0.1267(4) 0.0939(3)
H44 H -0.1352 0.0830 0.0824
C46 C -0.0939(3) 0.2068(4) 0.0581(3)
H45 H -0.1332 0.2169 0.0227
C47 C -0.0349(3) 0.2718(4) 0.0742(3)
H46 H -0.0343 0.3253 0.0495
loop_
_geom_bond_atom_site_label_1
_geom_bond_atom_site_label_2
_geom_bond_site_symmetry_1
_geom_bond_site_symmetry_2
Te1 C1 1_555 1_555
C1 F1 1_555 1_555
F2 C1 1_555 1_555
F3 C1 1_555 1_555
C2 S1 1_555 1_555
S1 Te1 1_555 1_555
S2 Te1 1_555 1_555
N1 C2 1_555 1_555
C3 N1 1_555 1_555
H1 C3 1_555 1_555
H2 C3 1_555 1_555
C4 C3 1_555 1_555
H3 C4 1_555 1_555
H4 C4 1_555 1_555
C5 C4 1_555 1_555
H5 C5 1_555 1_555
H6 C5 1_555 1_555
C6 N1 1_555 1_555
H7 C6 1_555 1_555
H8 C6 1_555 1_555
C7 S3 1_555 1_555
S3 Te1 1_555 1_555
S4 Te1 1_555 1_555
N2 C7 1_555 1_555
C8 N2 1_555 1_555
H9 C8 1_555 1_555
H10 C8 1_555 1_555
C9 C8 1_555 1_555
H11 C9 1_555 1_555
H12 C9 1_555 1_555
C10 C9 1_555 1_555
H13 C10 1_555 1_555
H14 C10 1_555 1_555
C11 N2 1_555 1_555
H15 C11 1_555 1_555
H16 C11 1_555 1_555
P1 C12 1_555 1_555
C12 C13 1_555 1_555
C13 H17 1_555 1_555
C14 C13 1_555 1_555
H18 C14 1_555 1_555
C15 C14 1_555 1_555
H19 C15 1_555 1_555
C16 C15 1_555 1_555
H20 C16 1_555 1_555
C17 C12 1_555 1_555
H21 C17 1_555 1_555
C18 P1 1_555 1_555
C19 C18 1_555 1_555
H22 C19 1_555 1_555
C20 C19 1_555 1_555
H23 C20 1_555 1_555
C21 C20 1_555 1_555
H24 C21 1_555 1_555
C22 C21 1_555 1_555
H25 C22 1_555 1_555
C23 C18 1_555 1_555
H26 C23 1_555 1_555
C24 P1 1_555 1_555
C25 C24 1_555 1_555
H27 C25 1_555 1_555
C26 C25 1_555 1_555
H28 C26 1_555 1_555
C27 C26 1_555 1_555
H29 C27 1_555 1_555
C28 C27 1_555 1_555
H30 C28 1_555 1_555
C29 C24 1_555 1_555
H31 C29 1_555 1_555
N3 P1 1_555 1_555
P2 N3 1_555 1_555
C30 P2 1_555 1_555
C31 C30 1_555 1_555
H32 C31 1_555 1_555
C32 C31 1_555 1_555
H33 C32 1_555 1_555
C33 C32 1_555 1_555
H34 C33 1_555 1_555
C34 C33 1_555 1_555
H35 C34 1_555 1_555
C35 C30 1_555 1_555
H36 C35 1_555 1_555
C36 P2 1_555 1_555
C37 C36 1_555 1_555
H37 C37 1_555 1_555
C38 C37 1_555 1_555
H38 C38 1_555 1_555
C39 C38 1_555 1_555
H39 C39 1_555 1_555
C40 C39 1_555 1_555
H40 C40 1_555 1_555
C41 C36 1_555 1_555
H41 C41 1_555 1_555
C42 P2 1_555 1_555
C43 C42 1_555 1_555
H42 C43 1_555 1_555
C44 C43 1_555 1_555
H43 C44 1_555 1_555
C45 C44 1_555 1_555
H44 C45 1_555 1_555
C46 C45 1_555 1_555
H45 C46 1_555 1_555
C47 C42 1_555 1_555
H46 C47 1_555 1_555
C2 S2 1_555 1_555
C5 C6 1_555 1_555
C7 S4 1_555 1_555
C10 C11 1_555 1_555
C16 C17 1_555 1_555
C22 C23 1_555 1_555
C28 C29 1_555 1_555
C34 C35 1_555 1_555
C40 C41 1_555 1_555
C46 C47 1_555 1_555

#END
