
#######################################################################
#
#                 Cambridge Crystallographic Data Centre
#                                CCDC 
#
#######################################################################
#
# If this CIF has been generated from an entry in the Cambridge 
# Structural Database, then it will include bibliographic, chemical, 
# crystal, experimental, refinement or atomic coordinate data resulting 
# from the CCDC's data processing and validation procedures.
#
#######################################################################

data_XIDCIY
_chemical_formula_moiety         'C20 H25 N1 O5 S1'
_chemical_name_systematic        
N-(4-Acetyl-9-methoxy-3,9-dimethyl-2-oxabicyclo[3.3.1]nona-3,7-dien-7-yl)-4-methylbenzenesulfonamide
_symmetry_cell_setting           monoclinic
_symmetry_space_group_name_H-M   'P 21/n'
_symmetry_Int_Tables_number      14
_space_group_name_Hall           '-P 2yn'
loop_
_symmetry_equiv_pos_site_id
_symmetry_equiv_pos_as_xyz
1 x,y,z
2 1/2-x,1/2+y,1/2-z
3 -x,-y,-z
4 1/2+x,1/2-y,1/2+z
_cell_length_a                   11.849(6)
_cell_length_b                   7.997(4)
_cell_length_c                   20.870(10)
_cell_angle_alpha                90
_cell_angle_beta                 100.374(6)
_cell_angle_gamma                90
_cell_volume                     1945.24
_exptl_crystal_colour            colorless
_exptl_crystal_description       sheet
_cell_formula_units_Z            4
loop_
_atom_site_label
_atom_site_type_symbol
_atom_site_fract_x
_atom_site_fract_y
_atom_site_fract_z
S1 S 0.18108(5) 1.06293(7) 0.13117(3)
N1 N 0.29495(16) 1.0261(2) 0.10014(9)
H1 H 0.3105 1.0932 0.0707
O1 O 0.21370(16) 1.1010(2) 0.19849(8)
O2 O 0.11768(15) 1.1827(2) 0.08849(9)
O3 O 0.57576(13) 0.7132(2) 0.22500(7)
O4 O 0.54711(15) 0.4372(2) 0.15414(8)
O5 O 0.66497(16) 0.8230(2) 0.01930(8)
C1 C 0.10475(19) 0.8726(3) 0.12478(11)
C2 C 0.0942(2) 0.7824(4) 0.18008(12)
H2 H 0.1308 0.8177 0.2210
C3 C 0.0282(2) 0.6389(4) 0.17308(14)
H3 H 0.0214 0.5776 0.2101
C4 C -0.0278(2) 0.5835(3) 0.11323(14)
C5 C -0.0136(2) 0.6751(3) 0.05858(13)
H4 H -0.0493 0.6391 0.0175
C6 C 0.0520(2) 0.8175(3) 0.06404(12)
H5 H 0.0610 0.8767 0.0269
C7 C -0.1047(3) 0.4322(4) 0.10667(19)
H6 H -0.1044 0.3846 0.1489
H7 H -0.0772 0.3510 0.0793
H8 H -0.1814 0.4646 0.0876
C8 C 0.36972(17) 0.8905(3) 0.11874(10)
C9 C 0.38906(18) 0.8227(3) 0.17777(10)
H9 H 0.3575 0.8728 0.2107
C10 C 0.42008(18) 0.8222(3) 0.06355(10)
H10 H 0.4543 0.9127 0.0427
H11 H 0.3596 0.7733 0.0315
C11 C 0.51144(17) 0.6893(3) 0.08671(10)
H12 H 0.5278 0.6277 0.0488
C12 C 0.45976(19) 0.6691(3) 0.19277(10)
H13 H 0.4248 0.5999 0.2227
C13 C 0.7552(2) 0.8275(4) 0.23074(13)
H14 H 0.8077 0.8711 0.2049
H15 H 0.7894 0.7336 0.2556
H16 H 0.7377 0.9128 0.2598
C14 C 0.62121(17) 0.7719(3) 0.12143(10)
C15 C 0.64728(18) 0.7732(3) 0.18716(11)
C16 C 0.69040(19) 0.8496(3) 0.07827(11)
C17 C 0.7872(2) 0.9690(4) 0.10079(15)
H17 H 0.8201 1.0040 0.0642
H18 H 0.8447 0.9146 0.1321
H19 H 0.7585 1.0649 0.1204
C18 C 0.3484(2) 0.4913(3) 0.10542(13)
H20 H 0.3264 0.4170 0.1371
H21 H 0.3526 0.4302 0.0663
H22 H 0.2926 0.5790 0.0958
C19 C 0.46578(19) 0.5672(3) 0.13245(11)
C20 C 0.5655(3) 0.3207(4) 0.10793(15)
H23 H 0.6210 0.2400 0.1278
H24 H 0.5937 0.3764 0.0732
H25 H 0.4947 0.2651 0.0908
loop_
_geom_bond_atom_site_label_1
_geom_bond_atom_site_label_2
_geom_bond_site_symmetry_1
_geom_bond_site_symmetry_2
S1 N1 1_555 1_555
N1 H1 1_555 1_555
O1 S1 1_555 1_555
O2 S1 1_555 1_555
O3 C12 1_555 1_555
O4 C19 1_555 1_555
O5 C16 1_555 1_555
C1 S1 1_555 1_555
C2 C1 1_555 1_555
H2 C2 1_555 1_555
C3 C2 1_555 1_555
H3 C3 1_555 1_555
C4 C3 1_555 1_555
C5 C4 1_555 1_555
H4 C5 1_555 1_555
C6 C1 1_555 1_555
H5 C6 1_555 1_555
C7 C4 1_555 1_555
H6 C7 1_555 1_555
H7 C7 1_555 1_555
H8 C7 1_555 1_555
C8 N1 1_555 1_555
C9 C8 1_555 1_555
H9 C9 1_555 1_555
C10 C8 1_555 1_555
H10 C10 1_555 1_555
H11 C10 1_555 1_555
C11 C10 1_555 1_555
H12 C11 1_555 1_555
C12 C9 1_555 1_555
H13 C12 1_555 1_555
C13 H14 1_555 1_555
H15 C13 1_555 1_555
H16 C13 1_555 1_555
C14 C11 1_555 1_555
C15 O3 1_555 1_555
C16 C14 1_555 1_555
C17 C16 1_555 1_555
H17 C17 1_555 1_555
H18 C17 1_555 1_555
H19 C17 1_555 1_555
C18 H20 1_555 1_555
H21 C18 1_555 1_555
H22 C18 1_555 1_555
C19 C11 1_555 1_555
C20 O4 1_555 1_555
H23 C20 1_555 1_555
H24 C20 1_555 1_555
H25 C20 1_555 1_555
C5 C6 1_555 1_555
C12 C19 1_555 1_555
C13 C15 1_555 1_555
C14 C15 1_555 1_555
C18 C19 1_555 1_555

#END
