
#######################################################################
#
#                 Cambridge Crystallographic Data Centre
#                                CCDC 
#
#######################################################################
#
# If this CIF has been generated from an entry in the Cambridge 
# Structural Database, then it will include bibliographic, chemical, 
# crystal, experimental, refinement or atomic coordinate data resulting 
# from the CCDC's data processing and validation procedures.
#
#######################################################################

data_XIDPAE
_chemical_formula_moiety         'C27 H27 B3 F6 N4 O3'
_chemical_name_systematic        
tris(2-(2,2-difluoro-2H-1,3,2-benzoxazaborinin-3-ium-2-id-3-yl)ethyl)amine
_symmetry_cell_setting           monoclinic
_symmetry_space_group_name_H-M   'P 21/c'
_symmetry_Int_Tables_number      14
_space_group_name_Hall           '-P 2ybc'
loop_
_symmetry_equiv_pos_site_id
_symmetry_equiv_pos_as_xyz
1 x,y,z
2 -x,1/2+y,1/2-z
3 -x,-y,-z
4 x,1/2-y,1/2+z
_cell_length_a                   11.6042(2)
_cell_length_b                   17.3471(3)
_cell_length_c                   13.6414(2)
_cell_angle_alpha                90
_cell_angle_beta                 90.3913(15)
_cell_angle_gamma                90
_cell_volume                     2745.94
_exptl_crystal_colour            colorless
_exptl_crystal_description       block
_cell_formula_units_Z            4
loop_
_atom_site_label
_atom_site_type_symbol
_atom_site_fract_x
_atom_site_fract_y
_atom_site_fract_z
F1 F 0.53278(13) 0.63659(8) 0.78293(10)
F2 F 0.91259(18) 0.43792(10) 0.94576(11)
F3 F 0.49059(18) 0.66275(10) 0.94100(12)
O1 O 0.77155(18) 0.53444(11) 0.42421(12)
F4 F 0.8250(2) 0.66056(10) 0.43387(14)
N1 N 0.74977(15) 0.60508(9) 0.58127(12)
F5 F 0.93179(16) 0.57194(13) 0.51480(15)
N2 N 0.62978(17) 0.56311(10) 0.90729(12)
N3 N 0.96330(15) 0.45130(10) 0.77380(14)
N4 N 0.84776(16) 0.61449(10) 0.79458(13)
F6 F 1.06860(18) 0.37537(14) 0.88758(17)
O2 O 0.8831(2) 0.33397(12) 0.84962(13)
C1 C 0.88152(17) 0.35074(12) 0.67802(15)
C2 C 0.54825(19) 0.44425(12) 0.85659(15)
C3 C 0.65213(19) 0.48679(12) 0.55159(14)
C4 C 0.67770(18) 0.55354(11) 0.60947(14)
H1 H 0.6410 0.5598 0.6693
C5 C 0.93182(18) 0.42526(12) 0.68994(16)
H2 H 0.9421 0.4560 0.6348
C6 C 0.6394(2) 0.48993(12) 0.89609(15)
H3 H 0.7080 0.4660 0.9143
C7 C 0.7691(2) 0.67449(12) 0.64136(17)
H4 H 0.7001 0.6852 0.6788
H5 H 0.7827 0.7181 0.5985
C8 C 0.6992(2) 0.48120(12) 0.45801(15)
C9 C 0.85872(19) 0.30720(13) 0.76047(16)
C10 C 0.43966(19) 0.47795(13) 0.84377(16)
C11 C 0.5755(2) 0.43082(14) 0.58451(18)
H6 H 0.5429 0.4354 0.6463
C12 C 0.7841(2) 0.65784(13) 0.86993(18)
H7 H 0.7257 0.6890 0.8376
H8 H 0.8372 0.6927 0.9026
C13 C 0.8711(2) 0.66588(13) 0.71177(18)
H9 H 0.9366 0.6461 0.6758
H10 H 0.8919 0.7164 0.7369
C14 C 0.5643(2) 0.36709(13) 0.83173(19)
H11 H 0.6355 0.3440 0.8429
C15 C 0.7262(3) 0.60825(15) 0.94699(17)
H12 H 0.7827 0.5734 0.9752
H13 H 0.6981 0.6412 0.9991
C16 C 0.9568(2) 0.58766(13) 0.8387(2)
H14 H 0.9405 0.5665 0.9030
H15 H 1.0070 0.6318 0.8480
C17 C 0.5934(3) 0.36494(15) 0.4328(2)
H16 H 0.5738 0.3236 0.3926
C18 C 0.6662(3) 0.41991(14) 0.39847(18)
H17 H 0.6939 0.4165 0.3348
C19 C 0.8046(3) 0.23604(15) 0.7510(2)
H18 H 0.7879 0.2071 0.8064
C20 C 0.5477(2) 0.36887(15) 0.5260(2)
H19 H 0.4991 0.3303 0.5488
C21 C 0.4765(3) 0.32497(14) 0.7911(2)
H20 H 0.4884 0.2740 0.7728
C22 C 1.0205(2) 0.52758(14) 0.7799(2)
H21 H 1.0309 0.5470 0.7139
H22 H 1.0964 0.5206 0.8087
C23 C 0.8531(3) 0.32142(17) 0.5858(2)
H23 H 0.8694 0.3499 0.5298
C24 C 0.7759(2) 0.20881(16) 0.6602(3)
H24 H 0.7390 0.1614 0.6542
C25 C 0.3701(3) 0.35900(16) 0.7777(2)
H25 H 0.3105 0.3305 0.7497
C26 C 0.3505(2) 0.43415(15) 0.8047(2)
H26 H 0.2776 0.4556 0.7967
C27 C 0.8010(3) 0.25064(18) 0.5773(2)
H27 H 0.7828 0.2310 0.5157
B1 B 0.5137(3) 0.60582(14) 0.87545(18)
B2 B 0.8210(3) 0.59397(16) 0.4846(2)
B3 B 0.9582(3) 0.39784(16) 0.8682(2)
O3 O 0.42048(15) 0.55094(9) 0.87122(14)
loop_
_geom_bond_atom_site_label_1
_geom_bond_atom_site_label_2
_geom_bond_site_symmetry_1
_geom_bond_site_symmetry_2
F1 B1 1_555 1_555
F2 B3 1_555 1_555
F3 B1 1_555 1_555
O1 C8 1_555 1_555
F4 B2 1_555 1_555
N1 C4 1_555 1_555
F5 B2 1_555 1_555
N2 C6 1_555 1_555
N3 C5 1_555 1_555
N4 C12 1_555 1_555
F6 B3 1_555 1_555
O2 C9 1_555 1_555
C1 C5 1_555 1_555
C2 C6 1_555 1_555
C3 C4 1_555 1_555
C4 H1 1_555 1_555
C5 H2 1_555 1_555
C6 H3 1_555 1_555
C7 N1 1_555 1_555
H4 C7 1_555 1_555
H5 C7 1_555 1_555
C8 C3 1_555 1_555
C9 C1 1_555 1_555
C10 C2 1_555 1_555
C11 C3 1_555 1_555
H6 C11 1_555 1_555
C12 H7 1_555 1_555
H8 C12 1_555 1_555
C13 N4 1_555 1_555
H9 C13 1_555 1_555
H10 C13 1_555 1_555
C14 C2 1_555 1_555
H11 C14 1_555 1_555
C15 N2 1_555 1_555
H12 C15 1_555 1_555
H13 C15 1_555 1_555
C16 N4 1_555 1_555
H14 C16 1_555 1_555
H15 C16 1_555 1_555
C17 H16 1_555 1_555
C18 C8 1_555 1_555
H17 C18 1_555 1_555
C19 C9 1_555 1_555
H18 C19 1_555 1_555
C20 C11 1_555 1_555
H19 C20 1_555 1_555
C21 C14 1_555 1_555
H20 C21 1_555 1_555
C22 N3 1_555 1_555
H21 C22 1_555 1_555
H22 C22 1_555 1_555
C23 C1 1_555 1_555
H23 C23 1_555 1_555
C24 C19 1_555 1_555
H24 C24 1_555 1_555
C25 C21 1_555 1_555
H25 C25 1_555 1_555
C26 C10 1_555 1_555
H26 C26 1_555 1_555
C27 C23 1_555 1_555
H27 C27 1_555 1_555
B1 N2 1_555 1_555
B2 O1 1_555 1_555
B3 N3 1_555 1_555
O3 C10 1_555 1_555
N1 B2 1_555 1_555
O2 B3 1_555 1_555
C7 C13 1_555 1_555
C12 C15 1_555 1_555
C16 C22 1_555 1_555
C17 C18 1_555 1_555
C17 C20 1_555 1_555
C24 C27 1_555 1_555
C25 C26 1_555 1_555
B1 O3 1_555 1_555

#END
