
#######################################################################
#
#                 Cambridge Crystallographic Data Centre
#                                CCDC 
#
#######################################################################
#
# If this CIF has been generated from an entry in the Cambridge 
# Structural Database, then it will include bibliographic, chemical, 
# crystal, experimental, refinement or atomic coordinate data resulting 
# from the CCDC's data processing and validation procedures.
#
#######################################################################

data_XIDPIM
_chemical_formula_moiety         'C39 H54 B3 F6 N7 O3'
_chemical_name_systematic        
tris(2-(7-diethylamino-2,2-difluoro-2H-1,3,2-benzoxazaborinin-3-ium-2-id-3-yl)ethyl)amine
_symmetry_cell_setting           rhombohedral
_symmetry_space_group_name_H-M   'R -3'
_symmetry_Int_Tables_number      148
_space_group_name_Hall           '-R 3'
loop_
_symmetry_equiv_pos_site_id
_symmetry_equiv_pos_as_xyz
1 x,y,z
2 -y,x-y,z
3 -x+y,-x,z
4 2/3+x,1/3+y,1/3+z
5 2/3-y,1/3+x-y,1/3+z
6 2/3-x+y,1/3-x,1/3+z
7 1/3+x,2/3+y,2/3+z
8 1/3-y,2/3+x-y,2/3+z
9 1/3-x+y,2/3-x,2/3+z
10 -x,-y,-z
11 y,-x+y,-z
12 x-y,x,-z
13 1/3-x,2/3-y,2/3-z
14 1/3+y,2/3-x+y,2/3-z
15 1/3+x-y,2/3+x,2/3-z
16 2/3-x,1/3-y,1/3-z
17 2/3+y,1/3-x+y,1/3-z
18 2/3+x-y,1/3+x,1/3-z
_cell_length_a                   14.1471(13)
_cell_length_b                   14.1471(13)
_cell_length_c                   35.577(3)
_cell_angle_alpha                90
_cell_angle_beta                 90
_cell_angle_gamma                120
_cell_volume                     6166.44
_cell_formula_units_Z            6
loop_
_atom_site_label
_atom_site_type_symbol
_atom_site_fract_x
_atom_site_fract_y
_atom_site_fract_z
N1 N 0.3333 0.6667 0.33885(10)
F1 F 0.6214(2) 0.7915(2) 0.37796(8)
O1 O 0.6479(2) 0.6934(3) 0.42411(8)
N2 N 0.4810(2) 0.6047(2) 0.38541(7)
F2 F 0.6607(2) 0.6615(3) 0.36222(9)
C1 C 0.4714(2) 0.6056(2) 0.45198(8)
C2 C 0.4237(3) 0.5725(3) 0.41614(9)
H1 H 0.3487 0.5259 0.4144
C3 C 0.4190(3) 0.6453(3) 0.32544(8)
H2 H 0.4883 0.7131 0.3257
H3 H 0.4033 0.6200 0.2996
N3 N 0.6209(4) 0.6984(4) 0.55762(10)
C4 C 0.5854(3) 0.6679(3) 0.45506(9)
C5 C 0.4107(3) 0.5734(3) 0.48564(9)
H4 H 0.3353 0.5294 0.4842
C6 C 0.6353(3) 0.6969(4) 0.48973(11)
H5 H 0.7111 0.7350 0.4912
C7 C 0.4293(3) 0.5618(3) 0.34871(9)
H6 H 0.3572 0.4992 0.3527
H7 H 0.4722 0.5372 0.3349
C8 C 0.4581(3) 0.6044(3) 0.52011(10)
H8 H 0.4150 0.5828 0.5416
C9 C 0.5727(4) 0.6693(3) 0.52324(10)
B1 B 0.6071(4) 0.6884(4) 0.38758(12)
C10 C 0.5571(7) 0.6610(5) 0.59413(16)
C11 C 0.7510(6) 0.7506(5) 0.56058(15)
H9 H 0.7721 0.7387 0.5853
H10 H 0.7775 0.7197 0.5418
C12 C 0.5254(10) 0.7343(7) 0.6031(3)
H11 H 0.4768 0.7335 0.5841
H12 H 0.5884 0.8059 0.6047
H13 H 0.4885 0.7152 0.6270
C13 C 0.7900(12) 0.8587(8) 0.5542(2)
H14 H 0.7905 0.8712 0.5276
H15 H 0.8630 0.9001 0.5638
H16 H 0.7441 0.8811 0.5665
F1A F 0.2085(2) 0.8299(3) 0.37796(8)
O1A O 0.3066(3) 0.9545(4) 0.42411(8)
N2A N 0.3953(2) 0.8763(3) 0.38541(7)
F2A F 0.3385(3) 0.9992(4) 0.36222(9)
C1A C 0.3944(2) 0.8658(3) 0.45198(8)
C2A C 0.4275(3) 0.8512(4) 0.41614(9)
H1A H 0.4741 0.8228 0.4144
C3A C 0.3547(3) 0.7737(4) 0.32544(8)
H2A H 0.2869 0.7752 0.3257
H3A H 0.3800 0.7833 0.2996
N3A N 0.3016(4) 0.9225(6) 0.55762(10)
C4A C 0.3321(3) 0.9175(4) 0.45506(9)
C5A C 0.4266(3) 0.8373(4) 0.48564(9)
H4A H 0.4706 0.8059 0.4842
C6A C 0.3031(4) 0.9384(5) 0.48973(11)
H5A H 0.2650 0.9761 0.4912
C7A C 0.4382(3) 0.8675(4) 0.34871(9)
H6A H 0.5008 0.8580 0.3527
H7A H 0.4628 0.9350 0.3349
C8A C 0.3956(3) 0.8537(4) 0.52011(10)
H8A H 0.4172 0.8322 0.5416
C9A C 0.3307(3) 0.9034(5) 0.52324(10)
B1A B 0.3116(4) 0.9187(6) 0.38758(12)
C10A C 0.3390(5) 0.8961(9) 0.59413(16)
C11A C 0.2494(5) 1.0004(8) 0.56058(15)
H9A H 0.2613 1.0334 0.5853
H10A H 0.2803 1.0578 0.5418
C12A C 0.2657(7) 0.7911(12) 0.6031(3)
H11A H 0.2665 0.7433 0.5841
H12A H 0.1941 0.7825 0.6047
H13A H 0.2848 0.7733 0.6270
C13A C 0.1413(8) 0.9313(14) 0.5542(2)
H14A H 0.1288 0.9193 0.5276
H15A H 0.0999 0.9629 0.5638
H16A H 0.1189 0.8630 0.5665
F1B F 0.1701(3) 0.3786(2) 0.37796(8)
O1B O 0.0455(4) 0.3521(2) 0.42411(8)
N2B N 0.1237(3) 0.5190(2) 0.38541(7)
F2B F 0.0008(4) 0.3393(2) 0.36222(9)
C1B C 0.1342(3) 0.5286(2) 0.45198(8)
C2B C 0.1488(4) 0.5763(3) 0.41614(9)
H1B H 0.1772 0.6513 0.4144
C3B C 0.2263(4) 0.5810(3) 0.32544(8)
H2B H 0.2248 0.5117 0.3257
H3B H 0.2167 0.5967 0.2996
N3B N 0.0775(6) 0.3791(4) 0.55762(10)
C4B C 0.0825(4) 0.4146(3) 0.45506(9)
C5B C 0.1627(4) 0.5893(3) 0.48564(9)
H4B H 0.1941 0.6647 0.4842
C6B C 0.0616(5) 0.3647(3) 0.48973(11)
H5B H 0.0239 0.2889 0.4912
C7B C 0.1325(4) 0.5707(3) 0.34871(9)
H6B H 0.1420 0.6428 0.3527
H7B H 0.0650 0.5278 0.3349
C8B C 0.1463(4) 0.5419(3) 0.52011(10)
H8B H 0.1678 0.5850 0.5416
C9B C 0.0966(5) 0.4273(4) 0.52324(10)
B1B B 0.0813(6) 0.3929(4) 0.38758(12)
C10B C 0.1039(9) 0.4429(7) 0.59413(16)
C11B C -0.0004(8) 0.2490(6) 0.56058(15)
H9B H -0.0334 0.2279 0.5853
H10B H -0.0578 0.2225 0.5418
C12B C 0.2089(12) 0.4746(10) 0.6031(3)
H11B H 0.2567 0.5232 0.5841
H12B H 0.2175 0.4116 0.6047
H13B H 0.2267 0.5115 0.6270
C13B C 0.0687(14) 0.2100(12) 0.5542(2)
H14B H 0.0807 0.2095 0.5276
H15B H 0.0371 0.1370 0.5638
H16B H 0.1370 0.2559 0.5665
H17? H 0.5423 0.5991 0.6078
loop_
_geom_bond_atom_site_label_1
_geom_bond_atom_site_label_2
_geom_bond_site_symmetry_1
_geom_bond_site_symmetry_2
N1 C3 1_555 1_555
F1 B1 1_555 1_555
O1 C4 1_555 1_555
N2 C2 1_555 1_555
F2 B1 1_555 1_555
C1 C2 1_555 1_555
C2 H1 1_555 1_555
C3 H2 1_555 1_555
H3 C3 1_555 1_555
N3 C9 1_555 1_555
C4 C1 1_555 1_555
C5 C1 1_555 1_555
H4 C5 1_555 1_555
C6 C4 1_555 1_555
H5 C6 1_555 1_555
C7 N2 1_555 1_555
H6 C7 1_555 1_555
H7 C7 1_555 1_555
C8 C5 1_555 1_555
H8 C8 1_555 1_555
C9 C6 1_555 1_555
B1 O1 1_555 1_555
C10 N3 1_555 1_555
C11 N3 1_555 1_555
H9 C11 1_555 1_555
H10 C11 1_555 1_555
C12 C10 1_555 1_555
H11 C12 1_555 1_555
H12 C12 1_555 1_555
H13 C12 1_555 1_555
C13 C11 1_555 1_555
H14 C13 1_555 1_555
H15 C13 1_555 1_555
H16 C13 1_555 1_555
F1A B1A 1_555 1_555
O1A C4A 1_555 1_555
N2A C2A 1_555 1_555
F2A B1A 1_555 1_555
C1A C2A 1_555 1_555
C2A H1A 1_555 1_555
C3A N1 1_555 1_555
H2A C3A 1_555 1_555
H3A C3A 1_555 1_555
N3A C9A 1_555 1_555
C4A C1A 1_555 1_555
C5A C1A 1_555 1_555
H4A C5A 1_555 1_555
C6A C4A 1_555 1_555
H5A C6A 1_555 1_555
C7A N2A 1_555 1_555
H6A C7A 1_555 1_555
H7A C7A 1_555 1_555
C8A C5A 1_555 1_555
H8A C8A 1_555 1_555
C9A C6A 1_555 1_555
B1A O1A 1_555 1_555
C10A N3A 1_555 1_555
C11A N3A 1_555 1_555
H9A C11A 1_555 1_555
H10A C11A 1_555 1_555
C12A C10A 1_555 1_555
H11A C12A 1_555 1_555
H12A C12A 1_555 1_555
H13A C12A 1_555 1_555
C13A C11A 1_555 1_555
H14A C13A 1_555 1_555
H15A C13A 1_555 1_555
H16A C13A 1_555 1_555
F1B B1B 1_555 1_555
O1B C4B 1_555 1_555
N2B C2B 1_555 1_555
F2B B1B 1_555 1_555
C1B C2B 1_555 1_555
C2B H1B 1_555 1_555
C3B N1 1_555 1_555
H2B C3B 1_555 1_555
H3B C3B 1_555 1_555
N3B C9B 1_555 1_555
C4B C1B 1_555 1_555
C5B C1B 1_555 1_555
H4B C5B 1_555 1_555
C6B C4B 1_555 1_555
H5B C6B 1_555 1_555
C7B N2B 1_555 1_555
H6B C7B 1_555 1_555
H7B C7B 1_555 1_555
C8B C5B 1_555 1_555
H8B C8B 1_555 1_555
C9B C6B 1_555 1_555
B1B O1B 1_555 1_555
C10B N3B 1_555 1_555
C11B N3B 1_555 1_555
H9B C11B 1_555 1_555
H10B C11B 1_555 1_555
C12B C10B 1_555 1_555
H11B C12B 1_555 1_555
H12B C12B 1_555 1_555
H13B C12B 1_555 1_555
C13B C11B 1_555 1_555
H14B C13B 1_555 1_555
H15B C13B 1_555 1_555
H16B C13B 1_555 1_555
N2 B1 1_555 1_555
C3 C7 1_555 1_555
C8 C9 1_555 1_555
N2A B1A 1_555 1_555
C3A C7A 1_555 1_555
C8A C9A 1_555 1_555
N2B B1B 1_555 1_555
C3B C7B 1_555 1_555
C8B C9B 1_555 1_555

#END
