
#######################################################################
#
#                 Cambridge Crystallographic Data Centre
#                                CCDC 
#
#######################################################################
#
# If this CIF has been generated from an entry in the Cambridge 
# Structural Database, then it will include bibliographic, chemical, 
# crystal, experimental, refinement or atomic coordinate data resulting 
# from the CCDC's data processing and validation procedures.
#
#######################################################################

data_XIDQIL
_chemical_formula_moiety         'C2 H8 N1 1+,C3 N5 O6 1-'
_chemical_name_systematic        'Dimethylammonium 2,4,5-trinitroimidazolate'
_symmetry_cell_setting           monoclinic
_symmetry_space_group_name_H-M   'P 21'
_symmetry_Int_Tables_number      4
_space_group_name_Hall           'P 2yb'
loop_
_symmetry_equiv_pos_site_id
_symmetry_equiv_pos_as_xyz
1 x,y,z
2 -x,1/2+y,-z
_cell_length_a                   8.484(2)
_cell_length_b                   6.1442(15)
_cell_length_c                   9.439(2)
_cell_angle_alpha                90
_cell_angle_beta                 100.551(3)
_cell_angle_gamma                90
_cell_volume                     483.711
_exptl_crystal_colour            'pale yellow'
_exptl_crystal_description       needle
_cell_formula_units_Z            2
loop_
_atom_site_label
_atom_site_type_symbol
_atom_site_fract_x
_atom_site_fract_y
_atom_site_fract_z
C1 C 0.4220(2) 0.3411(3) 0.6108(2)
H1 H 0.3640 0.4732 0.6288
H2 H 0.3806 0.2881 0.5132
H3 H 0.5365 0.3742 0.6203
C2 C 0.4487(2) 0.2437(4) 0.86854(19)
H4 H 0.5632 0.2798 0.8867
H5 H 0.4291 0.1266 0.9336
H6 H 0.3867 0.3726 0.8854
N1 N 0.39926(18) 0.1713(3) 0.71709(16)
H7 H 0.2929 0.1320 0.7020
H8 H 0.4578 0.0501 0.7022
C3 C 0.8506(2) 0.8876(3) 0.77132(18)
C4 C 1.0185(2) 0.8941(4) 0.79433(18)
C5 C 0.9232(2) 1.1657(3) 0.68084(18)
N2 N 0.78998(17) 1.0643(3) 0.69779(15)
N3 N 1.06455(17) 1.0752(3) 0.73525(16)
N4 N 0.91879(18) 1.3704(3) 0.60389(16)
N5 N 1.14167(17) 0.7494(3) 0.86650(16)
N6 N 0.74242(18) 0.7286(3) 0.81177(16)
O1 O 0.78785(16) 1.4362(3) 0.54051(15)
O2 O 1.04553(16) 1.4663(2) 0.60637(14)
O3 O 1.27456(15) 0.7653(2) 0.83333(14)
O4 O 1.11028(17) 0.6233(3) 0.95692(15)
O5 O 0.79661(16) 0.5545(2) 0.86094(16)
O6 O 0.59894(15) 0.7748(2) 0.79201(15)
loop_
_geom_bond_atom_site_label_1
_geom_bond_atom_site_label_2
_geom_bond_site_symmetry_1
_geom_bond_site_symmetry_2
C1 H1 1_555 1_555
H2 C1 1_555 1_555
H3 C1 1_555 1_555
C2 H4 1_555 1_555
H5 C2 1_555 1_555
H6 C2 1_555 1_555
C3 C4 1_555 1_555
C4 N3 1_555 1_555
C5 N2 1_555 1_555
N1 C1 1_555 1_555
H7 N1 1_555 1_555
H8 N1 1_555 1_555
N2 C3 1_555 1_555
N3 C5 1_555 1_555
N4 C5 1_555 1_555
N5 C4 1_555 1_555
N6 C3 1_555 1_555
O1 N4 1_555 1_555
O2 N4 1_555 1_555
O3 N5 1_555 1_555
O4 N5 1_555 1_555
O5 N6 1_555 1_555
O6 N6 1_555 1_555
C2 N1 1_555 1_555

#END
