
#######################################################################
#
#                 Cambridge Crystallographic Data Centre
#                                CCDC 
#
#######################################################################
#
# If this CIF has been generated from an entry in the Cambridge 
# Structural Database, then it will include bibliographic, chemical, 
# crystal, experimental, refinement or atomic coordinate data resulting 
# from the CCDC's data processing and validation procedures.
#
#######################################################################

data_XIDYOB
_chemical_formula_moiety         'C20 H30 O5'
_chemical_name_systematic        (+-)-7,20-epoxykaur-16-ene-1,6,7,15-tetrol
_symmetry_cell_setting           orthorhombic
_symmetry_space_group_name_H-M   'P c a 21'
_symmetry_Int_Tables_number      29
_space_group_name_Hall           'P 2c -2ac'
loop_
_symmetry_equiv_pos_site_id
_symmetry_equiv_pos_as_xyz
1 x,y,z
2 -x,-y,1/2+z
3 1/2+x,-y,z
4 1/2-x,y,1/2+z
_cell_length_a                   20.3181(9)
_cell_length_b                   8.0423(4)
_cell_length_c                   10.5768(5)
_cell_angle_alpha                90
_cell_angle_beta                 90
_cell_angle_gamma                90
_cell_volume                     1728.29
_exptl_crystal_colour            colorless
_exptl_crystal_description       Plate
_cell_formula_units_Z            4
loop_
_atom_site_label
_atom_site_type_symbol
_atom_site_fract_x
_atom_site_fract_y
_atom_site_fract_z
O1 O 0.44796(7) 0.38179(16) 0.40821(13)
H1 H 0.4489(11) 0.278(3) 0.400(3)
C1 C 0.42355(10) 0.4383(2) 0.52726(18)
H2 H 0.4404 0.3654 0.5941
C2 C 0.34906(10) 0.4292(2) 0.5266(2)
H3 H 0.3324 0.4579 0.6098
H4 H 0.3353 0.3165 0.5075
C3 C 0.32045(10) 0.5479(2) 0.4286(2)
H5 H 0.2731 0.5339 0.4258
H6 H 0.3378 0.5195 0.3460
C4 C 0.33630(9) 0.7300(2) 0.45711(19)
C5 C 0.29728(11) 0.7869(3) 0.5734(2)
H7 H 0.2510 0.7771 0.5566
H8 H 0.3078 0.9007 0.5919
H9 H 0.3086 0.7184 0.6445
C6 C 0.31353(11) 0.8370(3) 0.3446(2)
H10 H 0.2672 0.8210 0.3313
H11 H 0.3372 0.8046 0.2700
H12 H 0.3220 0.9521 0.3624
C7 C 0.41265(8) 0.7477(2) 0.46902(16)
H13 H 0.4297 0.7361 0.3828
C8 C 0.43482(8) 0.9216(2) 0.51359(17)
H14 H 0.3988 0.9673 0.5645
O2 O 0.44614(7) 1.03568(15) 0.41260(13)
H15 H 0.4533(11) 0.988(3) 0.341(2)
C9 C 0.49430(8) 0.9047(2) 0.60126(16)
O3 O 0.51414(7) 1.06070(16) 0.64781(13)
H16 H 0.5364(11) 1.087(3) 0.592(2)
O4 O 0.47050(7) 0.82302(15) 0.71194(11)
C10 C 0.44538(9) 0.6577(2) 0.68866(16)
H17 H 0.3998 0.6513 0.7157
H18 H 0.4705 0.5775 0.7373
C11 C 0.45004(8) 0.61548(19) 0.54889(15)
C12 C 0.52389(8) 0.62705(19) 0.51107(16)
H19 H 0.5262 0.6153 0.4190
C13 C 0.56757(10) 0.4903(2) 0.5685(2)
H20 H 0.5625 0.4904 0.6597
H21 H 0.5534 0.3828 0.5372
C14 C 0.64006(10) 0.5167(2) 0.5353(2)
H22 H 0.6482 0.4762 0.4503
H23 H 0.6672 0.4527 0.5930
C15 C 0.65986(9) 0.7020(2) 0.54328(19)
H24 H 0.7054 0.7145 0.5723
C16 C 0.61196(9) 0.7928(2) 0.63097(17)
H25 H 0.6283 0.9019 0.6545
H26 H 0.6028 0.7289 0.7067
C17 C 0.55111(8) 0.80489(19) 0.54475(15)
C18 C 0.58275(8) 0.8805(2) 0.42449(18)
H27 H 0.5563 0.8561 0.3493
O5 O 0.59305(7) 1.05674(16) 0.43860(14)
H28 H 0.5696(11) 1.101(3) 0.376(2)
C19 C 0.64895(9) 0.7912(2) 0.41916(19)
C20 C 0.68880(12) 0.7979(3) 0.3233(2)
H29 H 0.7292 0.7437 0.3268
H30 H 0.6769 0.8568 0.2511
loop_
_geom_bond_atom_site_label_1
_geom_bond_atom_site_label_2
_geom_bond_site_symmetry_1
_geom_bond_site_symmetry_2
O1 H1 1_555 1_555
C1 O1 1_555 1_555
H2 C1 1_555 1_555
C2 C1 1_555 1_555
H3 C2 1_555 1_555
H4 C2 1_555 1_555
C3 C2 1_555 1_555
H5 C3 1_555 1_555
H6 C3 1_555 1_555
C4 C3 1_555 1_555
C5 C4 1_555 1_555
H7 C5 1_555 1_555
H8 C5 1_555 1_555
H9 C5 1_555 1_555
C6 C4 1_555 1_555
H10 C6 1_555 1_555
H11 C6 1_555 1_555
H12 C6 1_555 1_555
C7 C4 1_555 1_555
H13 C7 1_555 1_555
C8 C7 1_555 1_555
H14 C8 1_555 1_555
O2 C8 1_555 1_555
H15 O2 1_555 1_555
C9 C8 1_555 1_555
O3 C9 1_555 1_555
H16 O3 1_555 1_555
O4 C9 1_555 1_555
C10 O4 1_555 1_555
H17 C10 1_555 1_555
H18 C10 1_555 1_555
C11 C1 1_555 1_555
C12 C11 1_555 1_555
H19 C12 1_555 1_555
C13 C12 1_555 1_555
H20 C13 1_555 1_555
H21 C13 1_555 1_555
C14 C13 1_555 1_555
H22 C14 1_555 1_555
H23 C14 1_555 1_555
C15 C14 1_555 1_555
H24 C15 1_555 1_555
C16 C15 1_555 1_555
H25 C16 1_555 1_555
H26 C16 1_555 1_555
C17 C9 1_555 1_555
C18 C17 1_555 1_555
H27 C18 1_555 1_555
O5 C18 1_555 1_555
H28 O5 1_555 1_555
C19 C15 1_555 1_555
C20 C19 1_555 1_555
H29 C20 1_555 1_555
H30 C20 1_555 1_555
C7 C11 1_555 1_555
C10 C11 1_555 1_555
C12 C17 1_555 1_555
C16 C17 1_555 1_555
C18 C19 1_555 1_555

#END
