
#######################################################################
#
#                 Cambridge Crystallographic Data Centre
#                                CCDC 
#
#######################################################################
#
# If this CIF has been generated from an entry in the Cambridge 
# Structural Database, then it will include bibliographic, chemical, 
# crystal, experimental, refinement or atomic coordinate data resulting 
# from the CCDC's data processing and validation procedures.
#
#######################################################################

data_XIFBIY
_chemical_formula_moiety         'C46 H48 B1 N3 O1,2(C1 H4 O1)'
_chemical_name_systematic        
'Methoxy(5,10,15-tris(4-t-butylphenyl)subporphyrinato)boron(iii) methanol solvate'
_symmetry_cell_setting           monoclinic
_symmetry_space_group_name_H-M   'C 2/c'
_symmetry_Int_Tables_number      15
_space_group_name_Hall           '-C 2yn'
loop_
_symmetry_equiv_pos_site_id
_symmetry_equiv_pos_as_xyz
1 x,y,z
2 1/2+x,1/2+y,z
3 -x,y,1/2-z
4 1/2-x,1/2+y,1/2-z
5 -x,-y,-z
6 1/2-x,1/2-y,-z
7 x,-y,1/2+z
8 1/2+x,1/2-y,1/2+z
_cell_length_a                   28.712(2)
_cell_length_b                   16.7407(13)
_cell_length_c                   22.2837(17)
_cell_angle_alpha                90
_cell_angle_beta                 130.003(1)
_cell_angle_gamma                90
_cell_volume                     8204.63
_exptl_crystal_colour            orange
_exptl_crystal_description       prism
_cell_formula_units_Z            8
_exptl_crystal_recrystallization_method methanol/dichloromethane
_exptl_crystal_preparation       fluorescent
loop_
_atom_site_label
_atom_site_type_symbol
_atom_site_fract_x
_atom_site_fract_y
_atom_site_fract_z
O1 O 0.06546(8) 0.21405(10) 0.43889(9)
N1 N 0.08301(8) 0.17093(10) 0.55503(10)
N2 N 0.10792(9) 0.30557(11) 0.55182(11)
N3 N 0.16978(9) 0.19958(11) 0.56719(11)
C1 C 0.03209(10) 0.27750(13) 0.56421(12)
C2 C 0.06919(10) 0.33268(13) 0.56311(12)
C3 C 0.33676(10) 0.49988(13) 0.62597(12)
C4 C 0.19173(11) 0.12365(13) 0.59245(13)
C5 C 0.27710(10) 0.45068(13) 0.66040(13)
H1 H 0.2659 0.4550 0.6922
C6 C -0.04945(10) 0.31152(14) 0.64428(14)
H2 H -0.0507 0.2883 0.6821
C7 C 0.15573(10) 0.06712(13) 0.59396(13)
C8 C 0.31942(10) 0.50344(13) 0.67166(12)
H3 H 0.3370 0.5429 0.7115
C9 C 0.23641(10) -0.03643(13) 0.68082(13)
H4 H 0.2653 0.0050 0.7108
C10 C 0.25506(10) -0.11537(14) 0.69970(13)
H5 H 0.2965 -0.1269 0.7422
C11 C 0.21423(11) -0.17837(13) 0.65758(13)
C12 C -0.00995(10) 0.30900(13) 0.57581(12)
C13 C -0.08497(10) 0.37856(14) 0.60308(13)
C14 C -0.01238(10) 0.27773(13) 0.63168(13)
H6 H 0.0118 0.2326 0.6616
C15 C 0.17621(10) -0.01669(13) 0.61872(13)
C16 C 0.25092(11) 0.39162(13) 0.60328(13)
C17 C 0.06599(10) 0.06309(14) 0.59716(13)
H7 H 0.0667 0.0098 0.6123
C18 C 0.04297(10) 0.19501(13) 0.56508(12)
C19 C 0.13462(11) -0.07944(13) 0.57830(13)
H8 H 0.0929 -0.0678 0.5371
C20 C 0.10217(10) 0.09380(13) 0.57889(12)
C21 C 0.20429(11) 0.33513(13) 0.58649(13)
C22 C -0.04725(10) 0.37466(14) 0.53224(13)
H9 H -0.0476 0.3964 0.4926
C23 C 0.13603(10) 0.43171(13) 0.59454(13)
H10 H 0.1565 0.4816 0.6096
C24 C 0.21418(11) 0.25201(14) 0.58738(13)
C25 C 0.15333(11) -0.15803(13) 0.59748(13)
H11 H 0.1241 -0.1994 0.5691
C26 C 0.26975(11) 0.38622(15) 0.55913(14)
H12 H 0.2536 0.3453 0.5209
C27 C 0.08583(10) 0.41452(13) 0.58772(13)
H13 H 0.0658 0.4504 0.5975
C28 C 0.25399(11) 0.12634(14) 0.62333(14)
H14 H 0.2808 0.0821 0.6424
C29 C -0.08360(10) 0.40847(14) 0.54597(14)
H15 H -0.1082 0.4532 0.5157
C30 C 0.23465(11) -0.26566(13) 0.67311(14)
C31 C 0.38005(10) 0.55972(14) 0.63276(13)
C32 C 0.03006(10) 0.12409(13) 0.58907(13)
H16 H 0.0018 0.1202 0.5977
C33 C 0.31134(11) 0.43914(14) 0.57015(13)
H17 H 0.3230 0.4342 0.5390
C34 C 0.26761(11) 0.20483(14) 0.62024(14)
H18 H 0.3054 0.2240 0.6368
C35 C 0.41281(11) 0.61057(15) 0.70700(14)
H19 H 0.3832 0.6442 0.7034
H20 H 0.4430 0.6445 0.7123
H21 H 0.4332 0.5755 0.7528
C36 C 0.15197(11) 0.36045(13) 0.57478(13)
C37 C 0.19382(13) -0.31600(15) 0.68051(16)
H22 H 0.2068 -0.3720 0.6897
H23 H 0.1515 -0.3119 0.6320
H24 H 0.1971 -0.2963 0.7245
C38 C -0.12329(12) 0.41780(16) 0.62055(15)
C39 C 0.30063(12) -0.27599(15) 0.74794(14)
H25 H 0.3276 -0.2483 0.7421
H26 H 0.3108 -0.3330 0.7573
H27 H 0.3057 -0.2533 0.7924
C40 C 0.42782(12) 0.51553(18) 0.63489(16)
H28 H 0.4489 0.4765 0.6777
H29 H 0.4573 0.5540 0.6433
H30 H 0.4078 0.4878 0.5850
C41 C 0.22846(13) -0.29578(14) 0.60333(15)
H31 H 0.2539 -0.2632 0.5979
H32 H 0.1859 -0.2917 0.5554
H33 H 0.2416 -0.3517 0.6121
C42 C 0.34302(13) 0.61524(16) 0.56123(15)
H34 H 0.3222 0.5835 0.5133
H35 H 0.3703 0.6536 0.5645
H36 H 0.3128 0.6441 0.5603
C43 C 0.08445(13) 0.24741(17) 0.39921(15)
H37 H 0.0927 0.3045 0.4114
H38 H 0.0523 0.2404 0.3426
H39 H 0.1215 0.2204 0.4162
B1 B 0.10494(12) 0.22305(15) 0.52334(15)
C44 C -0.1682(2) 0.4770(3) 0.5565(3)
H40 H -0.1953 0.4968 0.5657
H41 H -0.1923 0.4503 0.5054
H42 H -0.1460 0.5218 0.5572
C45 C -0.0849(2) 0.4474(4) 0.6980(3)
H43 H -0.1096 0.4708 0.7096
H44 H -0.0579 0.4884 0.7036
H45 H -0.0604 0.4036 0.7346
C46 C -0.1664(2) 0.3456(3) 0.6098(3)
H46 H -0.1410 0.3047 0.6498
H47 H -0.1889 0.3219 0.5577
H48 H -0.1952 0.3670 0.6155
O2 O 0.07933(13) 0.40112(14) 0.16399(19)
H58 H 0.0854 0.3517 0.1717
C50 C 0.02124(16) 0.4208(2) 0.1431(2)
H59 H 0.0165 0.3908 0.1766
H60 H -0.0117 0.4067 0.0882
H61 H 0.0197 0.4782 0.1504
O3 O 0.05844(12) 0.76376(15) 0.65051(19)
H62 H 0.0205 0.7689 0.6215
C51 C 0.08669(17) 0.8322(2) 0.6968(2)
H63 H 0.0915 0.8268 0.7443
H64 H 0.0616 0.8791 0.6672
H65 H 0.1267 0.8385 0.7112
C47? C -0.1057(3) 0.5156(3) 0.6369(3)
H49? H -0.1284 0.5417 0.6504
H50? H -0.1164 0.5402 0.5896
H51? H -0.0620 0.5218 0.6803
C48? C -0.1043(3) 0.3955(4) 0.7028(3)
H52? H -0.0612 0.4081 0.7446
H53? H -0.1110 0.3383 0.7040
H54? H -0.1289 0.4264 0.7108
C49? C -0.1880(2) 0.4132(4) 0.5594(3)
H55? H -0.2010 0.3573 0.5512
H56? H -0.1992 0.4350 0.5109
H57? H -0.2080 0.4442 0.5745
loop_
_geom_bond_atom_site_label_1
_geom_bond_atom_site_label_2
_geom_bond_site_symmetry_1
_geom_bond_site_symmetry_2
O1 C43 1_555 1_555
N1 C18 1_555 1_555
N2 C2 1_555 1_555
N3 C4 1_555 1_555
C1 C2 1_555 1_555
C2 C27 1_555 1_555
C3 C8 1_555 1_555
C4 C7 1_555 1_555
C5 H1 1_555 1_555
C6 H2 1_555 1_555
C7 C15 1_555 1_555
C8 C5 1_555 1_555
H3 C8 1_555 1_555
C9 H4 1_555 1_555
C10 C9 1_555 1_555
H5 C10 1_555 1_555
C11 C10 1_555 1_555
C12 C1 1_555 1_555
C13 C6 1_555 1_555
C14 C6 1_555 1_555
H6 C14 1_555 1_555
C15 C9 1_555 1_555
C16 C5 1_555 1_555
C17 H7 1_555 1_555
C18 C1 1_555 1_555
C19 C15 1_555 1_555
H8 C19 1_555 1_555
C20 N1 1_555 1_555
C21 C16 1_555 1_555
C22 C12 1_555 1_555
H9 C22 1_555 1_555
C23 H10 1_555 1_555
C24 N3 1_555 1_555
C25 C11 1_555 1_555
H11 C25 1_555 1_555
C26 C16 1_555 1_555
H12 C26 1_555 1_555
C27 C23 1_555 1_555
H13 C27 1_555 1_555
C28 C4 1_555 1_555
H14 C28 1_555 1_555
C29 C13 1_555 1_555
H15 C29 1_555 1_555
C30 C11 1_555 1_555
C31 C3 1_555 1_555
C32 C17 1_555 1_555
H16 C32 1_555 1_555
C33 C3 1_555 1_555
H17 C33 1_555 1_555
C34 C24 1_555 1_555
H18 C34 1_555 1_555
C35 C31 1_555 1_555
H19 C35 1_555 1_555
H20 C35 1_555 1_555
H21 C35 1_555 1_555
C36 N2 1_555 1_555
C37 C30 1_555 1_555
H22 C37 1_555 1_555
H23 C37 1_555 1_555
H24 C37 1_555 1_555
C38 C13 1_555 1_555
C39 C30 1_555 1_555
H25 C39 1_555 1_555
H26 C39 1_555 1_555
H27 C39 1_555 1_555
C40 C31 1_555 1_555
H28 C40 1_555 1_555
H29 C40 1_555 1_555
H30 C40 1_555 1_555
C41 C30 1_555 1_555
H31 C41 1_555 1_555
H32 C41 1_555 1_555
H33 C41 1_555 1_555
C42 C31 1_555 1_555
H34 C42 1_555 1_555
H35 C42 1_555 1_555
H36 C42 1_555 1_555
C43 H37 1_555 1_555
H38 C43 1_555 1_555
H39 C43 1_555 1_555
B1 O1 1_555 1_555
C44 C38 1_555 1_555
H40 C44 1_555 1_555
H41 C44 1_555 1_555
H42 C44 1_555 1_555
C45 C38 1_555 1_555
H43 C45 1_555 1_555
H44 C45 1_555 1_555
H45 C45 1_555 1_555
C46 C38 1_555 1_555
H46 C46 1_555 1_555
H47 C46 1_555 1_555
H48 C46 1_555 1_555
O2 H58 1_555 1_555
C50 O2 1_555 1_555
H59 C50 1_555 1_555
H60 C50 1_555 1_555
H61 C50 1_555 1_555
O3 H62 1_555 1_555
C51 O3 1_555 1_555
H63 C51 1_555 1_555
H64 C51 1_555 1_555
H65 C51 1_555 1_555
N1 B1 1_555 1_555
N2 B1 1_555 1_555
N3 B1 1_555 1_555
C7 C20 1_555 1_555
C12 C14 1_555 1_555
C17 C20 1_555 1_555
C18 C32 1_555 1_555
C19 C25 1_555 1_555
C21 C24 1_555 1_555
C21 C36 1_555 1_555
C22 C29 1_555 1_555
C23 C36 1_555 1_555
C26 C33 1_555 1_555
C28 C34 1_555 1_555

#END
