
#######################################################################
#
#                 Cambridge Crystallographic Data Centre
#                                CCDC 
#
#######################################################################
#
# If this CIF has been generated from an entry in the Cambridge 
# Structural Database, then it will include bibliographic, chemical, 
# crystal, experimental, refinement or atomic coordinate data resulting 
# from the CCDC's data processing and validation procedures.
#
#######################################################################

data_XIFDEY
_chemical_formula_moiety         'C29 H20 O4'
_chemical_name_systematic        
4-(4-methoxyphenyl)-3-((4-methoxyphenyl)ethynyl)-2H-naphtho[1,2-b]pyran-2-one
_symmetry_cell_setting           triclinic
_symmetry_space_group_name_H-M   'P -1'
_symmetry_Int_Tables_number      2
_space_group_name_Hall           '-P 1'
loop_
_symmetry_equiv_pos_site_id
_symmetry_equiv_pos_as_xyz
1 x,y,z
2 -x,-y,-z
_cell_length_a                   9.909(5)
_cell_length_b                   10.012(5)
_cell_length_c                   12.966(6)
_cell_angle_alpha                73.827(5)
_cell_angle_beta                 88.072(6)
_cell_angle_gamma                64.690(5)
_cell_volume                     1111.42
_exptl_crystal_colour            colorless
_exptl_crystal_description       block
_cell_formula_units_Z            2
loop_
_atom_site_label
_atom_site_type_symbol
_atom_site_fract_x
_atom_site_fract_y
_atom_site_fract_z
O1 O -0.30291(16) 0.48476(17) 0.16409(11)
O2 O -0.12731(14) 0.31706(14) 0.29546(9)
O3 O -0.37684(18) 0.60988(18) -0.53149(11)
O4 O 0.44311(15) -0.05185(16) -0.15257(10)
C1 C 0.0146(2) 0.2003(2) 0.33222(15)
C2 C 0.0511(2) 0.1523(2) 0.44554(14)
C3 C -0.0513(2) 0.2134(2) 0.51751(15)
H1 H -0.1480 0.2889 0.4911
C4 C -0.0084(3) 0.1618(3) 0.62597(16)
H2 H -0.0759 0.2033 0.6728
C5 C 0.1355(3) 0.0477(3) 0.66698(17)
H3 H 0.1627 0.0132 0.7409
C6 C 0.2371(3) -0.0143(3) 0.59946(17)
H4 H 0.3328 -0.0903 0.6280
C7 C 0.1983(2) 0.0361(2) 0.48663(16)
C8 C 0.3009(2) -0.0242(3) 0.41413(17)
H5 H 0.3979 -0.0985 0.4409
C9 C 0.2605(2) 0.0244(2) 0.30631(16)
H6 H 0.3299 -0.0177 0.2607
C10 C 0.1137(2) 0.1386(2) 0.26207(14)
C11 C 0.0627(2) 0.1943(2) 0.14775(14)
C12 C -0.0780(2) 0.3100(2) 0.11272(14)
C13 C -0.1788(2) 0.3791(2) 0.18663(15)
C14 C -0.1357(2) 0.3693(2) 0.00102(16)
C15 C -0.1798(2) 0.4129(2) -0.09270(16)
C16 C -0.2289(2) 0.4643(2) -0.20591(15)
C17 C -0.3612(2) 0.4678(2) -0.24180(15)
H7 H -0.4192 0.4361 -0.1920
C18 C -0.4071(2) 0.5176(2) -0.35030(16)
H8 H -0.4959 0.5193 -0.3733
C19 C -0.3219(2) 0.5652(2) -0.42555(15)
C20 C -0.1911(2) 0.5639(2) -0.39149(16)
H9 H -0.1342 0.5973 -0.4414
C21 C -0.1452(2) 0.5126(2) -0.28250(16)
H10 H -0.0560 0.5104 -0.2598
C22 C -0.2979(3) 0.6635(3) -0.61374(17)
H11 H -0.2920 0.7524 -0.6039
H12 H -0.3499 0.6908 -0.6831
H13 H -0.1985 0.5833 -0.6098
C23 C 0.1632(2) 0.1250(2) 0.06993(14)
C24 C 0.2062(2) -0.0266(2) 0.07225(16)
H14 H 0.1725 -0.0875 0.1240
C25 C 0.2987(2) -0.0898(2) -0.00104(17)
H15 H 0.3258 -0.1918 0.0013
C26 C 0.3504(2) -0.0007(2) -0.07749(14)
C27 C 0.3078(2) 0.1508(2) -0.08056(14)
H16 H 0.3426 0.2112 -0.1317
C28 C 0.2142(2) 0.2135(2) -0.00859(14)
H17 H 0.1847 0.3165 -0.0127
C29 C 0.4986(3) -0.2100(3) -0.14761(18)
H18 H 0.5498 -0.2733 -0.0774
H19 H 0.5671 -0.2317 -0.2015
H20 H 0.4165 -0.2319 -0.1606
loop_
_geom_bond_atom_site_label_1
_geom_bond_atom_site_label_2
_geom_bond_site_symmetry_1
_geom_bond_site_symmetry_2
O1 C13 1_555 1_555
O2 C1 1_555 1_555
O3 C19 1_555 1_555
O4 C26 1_555 1_555
C1 C2 1_555 1_555
C2 C3 1_555 1_555
C3 H1 1_555 1_555
C4 C3 1_555 1_555
H2 C4 1_555 1_555
C5 C4 1_555 1_555
H3 C5 1_555 1_555
C6 C5 1_555 1_555
H4 C6 1_555 1_555
C7 C2 1_555 1_555
C8 C7 1_555 1_555
H5 C8 1_555 1_555
C9 C8 1_555 1_555
H6 C9 1_555 1_555
C10 C1 1_555 1_555
C11 C10 1_555 1_555
C12 C11 1_555 1_555
C13 O2 1_555 1_555
C14 C12 1_555 1_555
C15 C14 1_555 1_555
C16 C15 1_555 1_555
C17 C16 1_555 1_555
H7 C17 1_555 1_555
C18 C17 1_555 1_555
H8 C18 1_555 1_555
C19 C18 1_555 1_555
C20 C19 1_555 1_555
H9 C20 1_555 1_555
C21 C16 1_555 1_555
H10 C21 1_555 1_555
C22 O3 1_555 1_555
H11 C22 1_555 1_555
H12 C22 1_555 1_555
H13 C22 1_555 1_555
C23 C11 1_555 1_555
C24 C23 1_555 1_555
H14 C24 1_555 1_555
C25 C24 1_555 1_555
H15 C25 1_555 1_555
C26 C25 1_555 1_555
C27 C26 1_555 1_555
H16 C27 1_555 1_555
C28 C23 1_555 1_555
H17 C28 1_555 1_555
C29 O4 1_555 1_555
H18 C29 1_555 1_555
H19 C29 1_555 1_555
H20 C29 1_555 1_555
C6 C7 1_555 1_555
C9 C10 1_555 1_555
C12 C13 1_555 1_555
C20 C21 1_555 1_555
C27 C28 1_555 1_555

#END
