
#######################################################################
#
#                 Cambridge Crystallographic Data Centre
#                                CCDC 
#
#######################################################################
#
# If this CIF has been generated from an entry in the Cambridge 
# Structural Database, then it will include bibliographic, chemical, 
# crystal, experimental, refinement or atomic coordinate data resulting 
# from the CCDC's data processing and validation procedures.
#
#######################################################################

data_XIFKUV
_chemical_formula_moiety         'C28 H34 N4'
_chemical_name_systematic        
N-(2-((2,2-dimethyl-1-(phenylamino)propylidene)amino)phenyl)-2,2-dimethyl-N'-phenylpropanimidamide
_symmetry_cell_setting           monoclinic
_symmetry_space_group_name_H-M   'P 21/n'
_symmetry_Int_Tables_number      14
_space_group_name_Hall           '-P 2yn'
loop_
_symmetry_equiv_pos_site_id
_symmetry_equiv_pos_as_xyz
1 x,y,z
2 1/2-x,1/2+y,1/2-z
3 -x,-y,-z
4 1/2+x,1/2-y,1/2+z
_cell_length_a                   10.0943(7)
_cell_length_b                   20.1523(12)
_cell_length_c                   11.9989(7)
_cell_angle_alpha                90
_cell_angle_beta                 91.420(2)
_cell_angle_gamma                90
_cell_volume                     2440.11
_exptl_crystal_colour            colorless
_exptl_crystal_description       block
_cell_formula_units_Z            4
loop_
_atom_site_label
_atom_site_type_symbol
_atom_site_fract_x
_atom_site_fract_y
_atom_site_fract_z
N1 N 0.43471(14) 0.56241(6) 0.84755(11)
H1 H 0.517496 0.553787 0.858200
N2 N 0.22967(14) 0.51802(7) 0.82234(13)
N3 N 0.62883(13) 0.65014(6) 0.80842(11)
N4 N 0.63666(14) 0.69948(7) 0.62954(12)
H2 H 0.686881 0.726198 0.593985
C1 C 0.39955(16) 0.62988(8) 0.85405(13)
C2 C 0.27496(17) 0.65368(8) 0.88185(14)
H3 H 0.208062 0.624146 0.900013
C3 C 0.25089(18) 0.72139(9) 0.88238(15)
H4 H 0.166842 0.736935 0.898775
C4 C 0.35025(18) 0.76612(9) 0.85884(14)
H5 H 0.333475 0.811496 0.859735
C5 C 0.47501(17) 0.74262(8) 0.83391(14)
H6 H 0.542625 0.772610 0.819905
C6 C 0.50071(16) 0.67507(8) 0.82950(12)
C7 C 0.35446(16) 0.50833(8) 0.82644(13)
C8 C 0.42911(17) 0.44228(8) 0.80901(15)
C9 C 0.4258(2) 0.42572(10) 0.68395(16)
H7 H 0.335666 0.419400 0.658795
H8 H 0.475297 0.385818 0.671643
H9 H 0.464383 0.461590 0.643301
C10 C 0.57467(18) 0.44586(9) 0.84885(18)
H10 H 0.621497 0.476619 0.803121
H11 H 0.614316 0.402722 0.843343
H12 H 0.579194 0.460480 0.924996
C11 C 0.36327(19) 0.38643(9) 0.87415(18)
H13 H 0.357645 0.399003 0.951059
H14 H 0.415076 0.346672 0.868518
H15 H 0.275818 0.378591 0.843718
C12 C 0.12600(16) 0.47451(8) 0.79435(15)
C13 C 0.04710(17) 0.44809(8) 0.87760(15)
H16 H 0.072025 0.453449 0.952196
C14 C -0.06813(17) 0.41392(8) 0.84939(16)
H17 H -0.119922 0.396503 0.905362
C15 C -0.10693(18) 0.40545(8) 0.73897(16)
H18 H -0.184301 0.382491 0.720442
C16 C -0.02960(18) 0.43144(9) 0.65696(16)
H19 H -0.054887 0.425795 0.582504
C17 C 0.08520(17) 0.46583(8) 0.68379(15)
H20 H 0.135819 0.483403 0.627188
C18 C 0.69110(16) 0.66664(7) 0.72072(13)
C19 C 0.83797(17) 0.65015(8) 0.71202(14)
C20 C 0.8584(2) 0.60576(10) 0.61033(16)
H21 H 0.806918 0.565982 0.617438
H22 H 0.950454 0.594437 0.605813
H23 H 0.830505 0.629013 0.543973
C21 C 0.91679(18) 0.71516(10) 0.70024(18)
H24 H 0.890325 0.736934 0.632102
H25 H 1.009800 0.705334 0.699066
H26 H 0.899333 0.743707 0.762225
C22 C 0.88869(18) 0.61328(9) 0.81595(15)
H27 H 0.876668 0.640562 0.880506
H28 H 0.981137 0.603457 0.808747
H29 H 0.840094 0.572672 0.823865
C23 C 0.50309(17) 0.69219(8) 0.59027(13)
C24 C 0.4445(2) 0.63059(9) 0.58755(15)
H30 H 0.492563 0.593397 0.610265
C25 C 0.3139(2) 0.62391(10) 0.55098(16)
H31 H 0.273858 0.582350 0.550792
C26 C 0.24300(19) 0.67875(10) 0.51482(15)
H32 H 0.154921 0.674328 0.491424
C27 C 0.30313(18) 0.73980(9) 0.51358(15)
H33 H 0.256637 0.776529 0.486668
C28 C 0.43275(18) 0.74694(9) 0.55223(15)
H34 H 0.472535 0.788570 0.552612
loop_
_geom_bond_atom_site_label_1
_geom_bond_atom_site_label_2
_geom_bond_site_symmetry_1
_geom_bond_site_symmetry_2
N1 H1 1_555 1_555
N2 C7 1_555 1_555
N3 C6 1_555 1_555
N4 H2 1_555 1_555
C1 N1 1_555 1_555
C2 C1 1_555 1_555
H3 C2 1_555 1_555
C3 C2 1_555 1_555
H4 C3 1_555 1_555
C4 C3 1_555 1_555
H5 C4 1_555 1_555
C5 C4 1_555 1_555
H6 C5 1_555 1_555
C6 C1 1_555 1_555
C7 N1 1_555 1_555
C8 C7 1_555 1_555
C9 C8 1_555 1_555
H7 C9 1_555 1_555
H8 C9 1_555 1_555
H9 C9 1_555 1_555
C10 C8 1_555 1_555
H10 C10 1_555 1_555
H11 C10 1_555 1_555
H12 C10 1_555 1_555
C11 C8 1_555 1_555
H13 C11 1_555 1_555
H14 C11 1_555 1_555
H15 C11 1_555 1_555
C12 N2 1_555 1_555
C13 C12 1_555 1_555
H16 C13 1_555 1_555
C14 C13 1_555 1_555
H17 C14 1_555 1_555
C15 C14 1_555 1_555
H18 C15 1_555 1_555
C16 C15 1_555 1_555
H19 C16 1_555 1_555
C17 C12 1_555 1_555
H20 C17 1_555 1_555
C18 N3 1_555 1_555
C19 C18 1_555 1_555
C20 C19 1_555 1_555
H21 C20 1_555 1_555
H22 C20 1_555 1_555
H23 C20 1_555 1_555
C21 C19 1_555 1_555
H24 C21 1_555 1_555
H25 C21 1_555 1_555
H26 C21 1_555 1_555
C22 C19 1_555 1_555
H27 C22 1_555 1_555
H28 C22 1_555 1_555
H29 C22 1_555 1_555
C23 N4 1_555 1_555
C24 C23 1_555 1_555
H30 C24 1_555 1_555
C25 C24 1_555 1_555
H31 C25 1_555 1_555
C26 C25 1_555 1_555
H32 C26 1_555 1_555
C27 C26 1_555 1_555
H33 C27 1_555 1_555
C28 C23 1_555 1_555
H34 C28 1_555 1_555
N4 C18 1_555 1_555
C5 C6 1_555 1_555
C16 C17 1_555 1_555
C27 C28 1_555 1_555

#END
