
#######################################################################
#
#                 Cambridge Crystallographic Data Centre
#                                CCDC 
#
#######################################################################
#
# If this CIF has been generated from an entry in the Cambridge 
# Structural Database, then it will include bibliographic, chemical, 
# crystal, experimental, refinement or atomic coordinate data resulting 
# from the CCDC's data processing and validation procedures.
#
#######################################################################

data_XIFVIT
_chemical_formula_moiety         'C42 H32 N4 S8'
_chemical_name_systematic        
'5,15-bis(4,5-bis(methylsulfanyl)-1,3-dithiol-2-ylidene)-10,20-diphenyl-5,15-dihydroporphyrin unknown solvate'
_symmetry_cell_setting           triclinic
_symmetry_space_group_name_H-M   'P -1'
_symmetry_Int_Tables_number      2
_space_group_name_Hall           '-P 1'
loop_
_symmetry_equiv_pos_site_id
_symmetry_equiv_pos_as_xyz
1 x,y,z
2 -x,-y,-z
_cell_length_a                   11.7903(9)
_cell_length_b                   12.3315(10)
_cell_length_c                   15.2801(12)
_cell_angle_alpha                112.244(2)
_cell_angle_beta                 93.709(3)
_cell_angle_gamma                90.497(2)
_cell_volume                     2050.64
_exptl_crystal_colour            violet
_exptl_crystal_description       prisms
_cell_formula_units_Z            2
loop_
_atom_site_label
_atom_site_type_symbol
_atom_site_fract_x
_atom_site_fract_y
_atom_site_fract_z
C1 C 0.5043(2) 0.8335(2) 0.28463(17)
C2 C 0.4034(2) 0.8827(2) 0.32902(17)
H1 H 0.3467 0.9208 0.3053
C3 C 0.4040(2) 0.8646(2) 0.41183(18)
H2 H 0.3476 0.8874 0.4564
C4 C 0.50555(19) 0.8047(2) 0.41890(17)
C5 C 0.5449(2) 0.7668(2) 0.49593(17)
C6 C 0.66327(19) 0.7919(2) 0.53450(17)
C7 C 0.7079(2) 0.8370(2) 0.63098(17)
H3 H 0.6653 0.8528 0.6849
C8 C 0.8233(2) 0.8533(2) 0.63194(16)
H4 H 0.8750 0.8851 0.6865
C9 C 0.8507(2) 0.8135(2) 0.53584(16)
C10 C 0.9581(2) 0.8026(2) 0.49893(17)
C11 C 0.97588(19) 0.7471(2) 0.40228(17)
C12 C 1.0811(2) 0.7218(2) 0.35977(17)
H5 H 1.1546 0.7482 0.3904
C13 C 1.0563(2) 0.6519(2) 0.26569(17)
H6 H 1.1095 0.6197 0.2193
C14 C 0.9356(2) 0.6371(2) 0.25111(17)
C15 C 0.8707(2) 0.5776(2) 0.15918(17)
C16 C 0.7759(2) 0.6390(2) 0.13311(17)
C17 C 0.7547(2) 0.6548(2) 0.04669(17)
H7 H 0.7957 0.6223 -0.0084
C18 C 0.6629(2) 0.7268(2) 0.05750(18)
H8 H 0.6301 0.7543 0.0117
C19 C 0.6269(2) 0.7519(2) 0.15007(16)
C20 C 0.53476(19) 0.8191(2) 0.19362(17)
C21 C 0.4721(2) 0.7085(2) 0.52992(17)
C22 C 0.3031(2) 0.5754(2) 0.54200(18)
C23 C 0.3831(2) 0.5740(2) 0.60822(18)
C24 C 0.1467(3) 0.4521(3) 0.3939(2)
H9 H 0.1434 0.5193 0.3745
H10 H 0.0749 0.4061 0.3731
H11 H 0.2095 0.4030 0.3648
C25 C 0.3378(3) 0.6039(3) 0.7893(2)
H12 H 0.3910 0.6715 0.8069
H13 H 0.3418 0.5725 0.8395
H14 H 0.2603 0.6284 0.7811
C26 C 1.0592(2) 0.8521(2) 0.56819(17)
C27 C 1.0895(2) 0.8089(2) 0.63750(18)
H15 H 1.0471 0.7446 0.6404
C28 C 1.1819(2) 0.8588(2) 0.70322(19)
H16 H 1.2019 0.8288 0.7508
C29 C 1.2440(2) 0.9517(2) 0.69877(19)
H17 H 1.3061 0.9864 0.7440
C30 C 1.2163(2) 0.9948(2) 0.62880(19)
H18 H 1.2594 1.0587 0.6260
C31 C 1.1249(2) 0.9440(2) 0.56240(19)
H19 H 1.1072 0.9718 0.5132
C32 C 0.9030(2) 0.4724(2) 0.09811(17)
C33 C 0.9844(2) 0.2607(2) 0.02865(17)
C34 C 0.9060(2) 0.2643(2) -0.03863(18)
C35 C 1.0854(2) 0.1495(2) 0.13842(18)
H20 H 1.1311 0.2204 0.1765
H21 H 1.1247 0.0804 0.1399
H22 H 1.0111 0.1527 0.1644
C36 C 0.9982(2) 0.1172(2) -0.20433(19)
H23 H 1.0481 0.1878 -0.1818
H24 H 0.9830 0.0902 -0.2732
H25 H 1.0354 0.0556 -0.1885
C37 C 0.46684(19) 0.8776(2) 0.13934(17)
C38 C 0.4627(2) 0.9997(2) 0.17365(18)
H26 H 0.5015 1.0453 0.2330
C39 C 0.4028(2) 1.0557(2) 0.1226(2)
H27 H 0.4007 1.1388 0.1472
C40 C 0.3458(2) 0.9905(3) 0.03550(19)
H28 H 0.3056 1.0288 0.0001
C41 C 0.3482(2) 0.8688(3) 0.00066(19)
H29 H 0.3079 0.8238 -0.0581
C42 C 0.4092(2) 0.8123(2) 0.05118(18)
H30 H 0.4118 0.7293 0.0259
N1 N 0.56556(17) 0.78737(17) 0.34261(14)
N2 N 0.74979(16) 0.77897(17) 0.47879(14)
H31 H 0.7436 0.7529 0.4165
N3 N 0.88763(16) 0.69490(17) 0.33238(14)
N4 N 0.69895(17) 0.69669(18) 0.19393(15)
H32 H 0.6951 0.6989 0.2519
S1 S 0.33257(5) 0.66483(6) 0.47919(5)
S2 S 0.50864(5) 0.65980(6) 0.62212(4)
S3 S 0.16910(6) 0.50381(6) 0.52124(5)
S4 S 0.37526(6) 0.49203(6) 0.67969(5)
S5 S 1.01195(5) 0.39284(5) 0.12844(4)
S6 S 0.84064(5) 0.39882(5) -0.01742(4)
S7 S 1.06580(6) 0.14003(6) 0.01776(5)
S8 S 0.86452(5) 0.15092(5) -0.14739(4)
loop_
_geom_bond_atom_site_label_1
_geom_bond_atom_site_label_2
_geom_bond_site_symmetry_1
_geom_bond_site_symmetry_2
C1 C2 1_555 1_555
C2 H1 1_555 1_555
C3 C2 1_555 1_555
H2 C3 1_555 1_555
C4 C3 1_555 1_555
C5 C4 1_555 1_555
C6 C5 1_555 1_555
C7 C6 1_555 1_555
H3 C7 1_555 1_555
C8 C7 1_555 1_555
H4 C8 1_555 1_555
C9 C8 1_555 1_555
C10 C9 1_555 1_555
C11 C10 1_555 1_555
C12 C11 1_555 1_555
H5 C12 1_555 1_555
C13 C12 1_555 1_555
H6 C13 1_555 1_555
C14 C13 1_555 1_555
C15 C14 1_555 1_555
C16 C15 1_555 1_555
C17 C16 1_555 1_555
H7 C17 1_555 1_555
C18 C17 1_555 1_555
H8 C18 1_555 1_555
C19 C18 1_555 1_555
C20 C1 1_555 1_555
C21 C5 1_555 1_555
C22 C23 1_555 1_555
C23 S2 1_555 1_555
C24 H9 1_555 1_555
H10 C24 1_555 1_555
H11 C24 1_555 1_555
C25 H12 1_555 1_555
H13 C25 1_555 1_555
H14 C25 1_555 1_555
C26 C10 1_555 1_555
C27 C26 1_555 1_555
H15 C27 1_555 1_555
C28 C27 1_555 1_555
H16 C28 1_555 1_555
C29 C28 1_555 1_555
H17 C29 1_555 1_555
C30 C29 1_555 1_555
H18 C30 1_555 1_555
C31 C26 1_555 1_555
H19 C31 1_555 1_555
C32 C15 1_555 1_555
C33 C34 1_555 1_555
C34 S6 1_555 1_555
C35 H20 1_555 1_555
H21 C35 1_555 1_555
H22 C35 1_555 1_555
C36 H23 1_555 1_555
H24 C36 1_555 1_555
H25 C36 1_555 1_555
C37 C20 1_555 1_555
C38 C37 1_555 1_555
H26 C38 1_555 1_555
C39 C38 1_555 1_555
H27 C39 1_555 1_555
C40 C39 1_555 1_555
H28 C40 1_555 1_555
C41 C40 1_555 1_555
H29 C41 1_555 1_555
C42 C37 1_555 1_555
H30 C42 1_555 1_555
N1 C1 1_555 1_555
N2 C6 1_555 1_555
H31 N2 1_555 1_555
N3 C11 1_555 1_555
N4 C16 1_555 1_555
H32 N4 1_555 1_555
S1 C21 1_555 1_555
S2 C21 1_555 1_555
S3 C22 1_555 1_555
S4 C23 1_555 1_555
S5 C32 1_555 1_555
S6 C32 1_555 1_555
S7 C33 1_555 1_555
S8 C34 1_555 1_555
C4 N1 1_555 1_555
C9 N2 1_555 1_555
C14 N3 1_555 1_555
C19 C20 1_555 1_555
C19 N4 1_555 1_555
C22 S1 1_555 1_555
C24 S3 1_555 1_555
C25 S4 1_555 1_555
C30 C31 1_555 1_555
C33 S5 1_555 1_555
C35 S7 1_555 1_555
C36 S8 1_555 1_555
C41 C42 1_555 1_555

#END
