
#######################################################################
#
#                 Cambridge Crystallographic Data Centre
#                                CCDC 
#
#######################################################################
#
# If this CIF has been generated from an entry in the Cambridge 
# Structural Database, then it will include bibliographic, chemical, 
# crystal, experimental, refinement or atomic coordinate data resulting 
# from the CCDC's data processing and validation procedures.
#
#######################################################################

data_XIGPAF
_chemical_formula_moiety         'C20 H24 Cs1 O6 1+,I3 1-'
_chemical_name_systematic        '(Dibenzo-18-crown-6)-cesium tri-iodide'
_symmetry_cell_setting           triclinic
_symmetry_space_group_name_H-M   'P -1'
_symmetry_Int_Tables_number      2
_space_group_name_Hall           '-P 1'
loop_
_symmetry_equiv_pos_site_id
_symmetry_equiv_pos_as_xyz
1 x,y,z
2 -x,-y,-z
_cell_length_a                   7.0516(9)
_cell_length_b                   11.3793(14)
_cell_length_c                   16.789(2)
_cell_angle_alpha                73.719(10)
_cell_angle_beta                 79.782(10)
_cell_angle_gamma                83.669(10)
_cell_volume                     1270.04
_exptl_crystal_colour            red
_exptl_crystal_description       plate
_cell_formula_units_Z            2
loop_
_atom_site_label
_atom_site_type_symbol
_atom_site_fract_x
_atom_site_fract_y
_atom_site_fract_z
I1 I 0.26765(3) 0.039648(19) 0.245463(15)
I2 I 0.13025(4) 0.06118(2) 0.085489(16)
I3 I 0.38928(4) 0.03477(2) 0.402936(17)
Cs1 Cs -0.08494(3) 0.533739(19) 0.251267(14)
O1 O -0.3686(3) 0.4269(2) 0.16369(14)
C1 C -0.3607(5) 0.2952(3) 0.1867(2)
H1 H -0.3403 0.2660 0.1367
H2 H -0.4816 0.2664 0.2204
C2 C -0.1981(5) 0.2471(3) 0.2358(2)
H3 H -0.1843 0.1583 0.2486
H4 H -0.0780 0.2795 0.2035
O2 O -0.2418(3) 0.2848(2) 0.31167(14)
C3 C -0.1141(5) 0.2278(3) 0.3698(2)
H5 H 0.0152 0.2546 0.3474
H6 H -0.1097 0.1394 0.3800
C4 C -0.1857(5) 0.2629(3) 0.4504(2)
H7 H -0.3180 0.2409 0.4708
H8 H -0.1070 0.2192 0.4928
O3 O -0.1752(3) 0.3927(2) 0.43525(14)
C5 C -0.2356(5) 0.4398(3) 0.5033(2)
C6 C -0.2911(5) 0.3680(4) 0.5844(2)
H9 H -0.2889 0.2832 0.5951
C7 C -0.3503(5) 0.4239(4) 0.6499(2)
H10 H -0.3872 0.3762 0.7042
C8 C -0.3540(5) 0.5484(4) 0.6339(2)
H11 H -0.3936 0.5851 0.6777
C9 C -0.2994(5) 0.6208(4) 0.5532(2)
H12 H -0.3018 0.7056 0.5433
C10 C -0.2414(5) 0.5680(3) 0.4876(2)
O4 O -0.1875(3) 0.6326(2) 0.40536(15)
C11 C -0.2223(6) 0.7637(3) 0.3870(3)
H13 H -0.1431 0.7966 0.4162
H14 H -0.3567 0.7844 0.4059
C12 C -0.1742(6) 0.8184(3) 0.2942(3)
H15 H -0.1861 0.9072 0.2813
H16 H -0.0424 0.7932 0.2743
O5 O -0.3055(4) 0.7764(2) 0.25379(16)
C13 C -0.2865(5) 0.8346(3) 0.1657(2)
H17 H -0.1611 0.8116 0.1379
H18 H -0.2978 0.9231 0.1561
C14 C -0.4429(5) 0.7948(3) 0.1314(2)
H19 H -0.5677 0.8104 0.1630
H20 H -0.4428 0.8404 0.0731
O6 O -0.4085(3) 0.6654(2) 0.13779(14)
C15 C -0.5447(5) 0.6134(3) 0.11104(19)
C16 C -0.6954(5) 0.6787(3) 0.0719(2)
H21 H -0.7104 0.7634 0.0628
C17 C -0.8029(5) 0.4921(3) 0.0602(2)
H22 H -0.8895 0.4514 0.0433
C18 C -0.8252(5) 0.6180(3) 0.0459(2)
H23 H -0.9259 0.6621 0.0192
C19 C -0.6526(5) 0.4258(3) 0.0996(2)
H24 H -0.6390 0.3411 0.1089
C20 C -0.5226(5) 0.4851(3) 0.1251(2)
loop_
_geom_bond_atom_site_label_1
_geom_bond_atom_site_label_2
_geom_bond_site_symmetry_1
_geom_bond_site_symmetry_2
I1 I2 1_555 1_555
I3 I1 1_555 1_555
Cs1 O1 1_555 1_555
O1 C1 1_555 1_555
C1 H1 1_555 1_555
H2 C1 1_555 1_555
C2 C1 1_555 1_555
H3 C2 1_555 1_555
H4 C2 1_555 1_555
O2 Cs1 1_555 1_555
C3 O2 1_555 1_555
H5 C3 1_555 1_555
H6 C3 1_555 1_555
C4 C3 1_555 1_555
H7 C4 1_555 1_555
H8 C4 1_555 1_555
O3 Cs1 1_555 1_555
C5 O3 1_555 1_555
C6 C5 1_555 1_555
H9 C6 1_555 1_555
C7 C6 1_555 1_555
H10 C7 1_555 1_555
C8 C7 1_555 1_555
H11 C8 1_555 1_555
C9 C8 1_555 1_555
H12 C9 1_555 1_555
C10 C5 1_555 1_555
O4 Cs1 1_555 1_555
C11 O4 1_555 1_555
H13 C11 1_555 1_555
H14 C11 1_555 1_555
C12 C11 1_555 1_555
H15 C12 1_555 1_555
H16 C12 1_555 1_555
O5 Cs1 1_555 1_555
C13 O5 1_555 1_555
H17 C13 1_555 1_555
H18 C13 1_555 1_555
C14 C13 1_555 1_555
H19 C14 1_555 1_555
H20 C14 1_555 1_555
O6 Cs1 1_555 1_555
C15 O6 1_555 1_555
C16 C15 1_555 1_555
H21 C16 1_555 1_555
C17 H22 1_555 1_555
C18 C16 1_555 1_555
H23 C18 1_555 1_555
C19 C17 1_555 1_555
H24 C19 1_555 1_555
C20 O1 1_555 1_555
C2 O2 1_555 1_555
C4 O3 1_555 1_555
C9 C10 1_555 1_555
C10 O4 1_555 1_555
C12 O5 1_555 1_555
C14 O6 1_555 1_555
C15 C20 1_555 1_555
C17 C18 1_555 1_555
C19 C20 1_555 1_555

#END
