
#######################################################################
#
#                 Cambridge Crystallographic Data Centre
#                                CCDC 
#
#######################################################################
#
# If this CIF has been generated from an entry in the Cambridge 
# Structural Database, then it will include bibliographic, chemical, 
# crystal, experimental, refinement or atomic coordinate data resulting 
# from the CCDC's data processing and validation procedures.
#
#######################################################################

data_XIGQEM
_chemical_compound_source        'Rhododendron nyingchiense'
_chemical_name_common            '(+)-Nyingchinoid F'
_chemical_formula_moiety         'C18 H26 O3'
_chemical_name_systematic        
5-(2-methoxypropan-2-yl)-2,7-dimethyl-3,4,5,6-tetrahydro-2H-2,6-methano-1-benzoxocin-9-ol
_symmetry_cell_setting           orthorhombic
_symmetry_space_group_name_H-M   'P 21 21 21'
_symmetry_Int_Tables_number      19
_space_group_name_Hall           'P 2ac 2ab'
loop_
_symmetry_equiv_pos_site_id
_symmetry_equiv_pos_as_xyz
1 x,y,z
2 1/2-x,-y,1/2+z
3 -x,1/2+y,1/2-z
4 1/2+x,1/2-y,-z
_cell_length_a                   10.1815(2)
_cell_length_b                   10.1849(2)
_cell_length_c                   15.7912(3)
_cell_angle_alpha                90
_cell_angle_beta                 90
_cell_angle_gamma                90
_cell_volume                     1637.51
_exptl_crystal_colour            colorless
_exptl_crystal_description       block
_cell_formula_units_Z            4
loop_
_atom_site_label
_atom_site_type_symbol
_atom_site_fract_x
_atom_site_fract_y
_atom_site_fract_z
O1 O 0.72899(14) 0.50964(18) 0.79102(9)
O2 O 0.38241(19) 0.4488(2) 0.98065(11)
H1 H 0.304807 0.467574 0.987472
O3 O 0.39163(15) 0.53113(15) 0.50766(10)
C1 C 0.7877(2) 0.5601(3) 0.71332(13)
C2 C 0.6963(2) 0.6604(2) 0.67281(13)
H2 H 0.735282 0.693771 0.621068
H3 H 0.682984 0.733615 0.711140
C3 C 0.56495(18) 0.59543(17) 0.65306(11)
H4 H 0.506511 0.660734 0.627420
C4 C 0.37664(19) 0.56993(19) 0.76064(13)
C5 C 0.3339(2) 0.5338(2) 0.84097(15)
H5 H 0.245536 0.542177 0.854772
C6 C 0.4210(2) 0.4854(2) 0.90079(13)
C7 C 0.5526(2) 0.4759(2) 0.88166(12)
H6 H 0.612114 0.445259 0.921720
C8 C 0.8101(2) 0.4437(3) 0.65524(15)
H7 H 0.862086 0.378335 0.684829
H8 H 0.859778 0.472222 0.606151
C9 C 0.6818(2) 0.3811(3) 0.62574(14)
H9 H 0.700325 0.313863 0.583907
H10 H 0.638203 0.339770 0.673421
C10 C 0.59201(19) 0.48500(19) 0.58733(11)
H11 H 0.645023 0.527058 0.543202
C11 C 0.4742(2) 0.42550(19) 0.53999(12)
C12 C 0.3842(3) 0.3436(2) 0.59419(15)
H12 H 0.355635 0.394315 0.642010
H13 H 0.430324 0.267113 0.613626
H14 H 0.309244 0.317164 0.561482
C13 C 0.5202(3) 0.3415(3) 0.46512(15)
H15 H 0.447685 0.325832 0.427612
H16 H 0.553218 0.259137 0.485709
H17 H 0.588586 0.386790 0.435143
C14 C 0.9157(3) 0.6236(5) 0.74082(18)
H18 H 0.897395 0.693407 0.779954
H19 H 0.960140 0.658435 0.692146
H20 H 0.970346 0.559187 0.767742
C15 C 0.2781(2) 0.6318(3) 0.70083(16)
H21 H 0.295235 0.724241 0.696364
H22 H 0.190897 0.618414 0.722269
H23 H 0.285745 0.591985 0.645947
C16 C 0.4524(3) 0.6235(3) 0.45283(19)
H24 H 0.386819 0.664599 0.418166
H25 H 0.514893 0.579169 0.417364
H26 H 0.496687 0.689009 0.485912
C17 C 0.50848(19) 0.55429(16) 0.73810(11)
C18 C 0.59522(19) 0.51314(18) 0.80124(12)
loop_
_geom_bond_atom_site_label_1
_geom_bond_atom_site_label_2
_geom_bond_site_symmetry_1
_geom_bond_site_symmetry_2
O1 C1 1_555 1_555
O2 H1 1_555 1_555
O3 C11 1_555 1_555
C1 C2 1_555 1_555
C2 H2 1_555 1_555
H3 C2 1_555 1_555
C3 C2 1_555 1_555
H4 C3 1_555 1_555
C4 C5 1_555 1_555
C5 H5 1_555 1_555
C6 O2 1_555 1_555
C7 C6 1_555 1_555
H6 C7 1_555 1_555
C8 C1 1_555 1_555
H7 C8 1_555 1_555
H8 C8 1_555 1_555
C9 C8 1_555 1_555
H9 C9 1_555 1_555
H10 C9 1_555 1_555
C10 C3 1_555 1_555
H11 C10 1_555 1_555
C11 C10 1_555 1_555
C12 C11 1_555 1_555
H12 C12 1_555 1_555
H13 C12 1_555 1_555
H14 C12 1_555 1_555
C13 C11 1_555 1_555
H15 C13 1_555 1_555
H16 C13 1_555 1_555
H17 C13 1_555 1_555
C14 C1 1_555 1_555
H18 C14 1_555 1_555
H19 C14 1_555 1_555
H20 C14 1_555 1_555
C15 C4 1_555 1_555
H21 C15 1_555 1_555
H22 C15 1_555 1_555
H23 C15 1_555 1_555
C16 O3 1_555 1_555
H24 C16 1_555 1_555
H25 C16 1_555 1_555
H26 C16 1_555 1_555
C17 C3 1_555 1_555
C18 O1 1_555 1_555
C4 C17 1_555 1_555
C5 C6 1_555 1_555
C7 C18 1_555 1_555
C9 C10 1_555 1_555
C17 C18 1_555 1_555

#END
