
#######################################################################
#
#                 Cambridge Crystallographic Data Centre
#                                CCDC 
#
#######################################################################
#
# If this CIF has been generated from an entry in the Cambridge 
# Structural Database, then it will include bibliographic, chemical, 
# crystal, experimental, refinement or atomic coordinate data resulting 
# from the CCDC's data processing and validation procedures.
#
#######################################################################

data_XIHFUR
_chemical_formula_moiety         'C15 H25 N1 O2,2(H2 O1)'
_chemical_name_systematic        
'Ethyl decahydroazepino[3,2,1-hi]indole-10a(8H)-carboxylate dihydrate'
_symmetry_cell_setting           triclinic
_symmetry_space_group_name_H-M   'P -1'
_symmetry_Int_Tables_number      2
_space_group_name_Hall           '-P 1'
loop_
_symmetry_equiv_pos_site_id
_symmetry_equiv_pos_as_xyz
1 x,y,z
2 -x,-y,-z
_cell_length_a                   8.720(2)
_cell_length_b                   13.383(3)
_cell_length_c                   15.606(3)
_cell_angle_alpha                115.17(3)
_cell_angle_beta                 96.03(3)
_cell_angle_gamma                98.19(3)
_cell_volume                     1603.35
_exptl_crystal_colour            colorless
_exptl_crystal_description       block
_cell_formula_units_Z            4
loop_
_atom_site_label
_atom_site_type_symbol
_atom_site_fract_x
_atom_site_fract_y
_atom_site_fract_z
N1 N -0.8281(7) -0.1374(4) 0.0222(4)
O1 O -0.7077(6) -0.4581(4) -0.1502(4)
O2 O -0.9163(8) -0.3922(6) -0.1191(5)
C1 C -0.9960(10) -0.1567(7) -0.0059(6)
H1 H -1.0366 -0.2361 -0.0449
H2 H -1.0188 -0.1193 -0.0448
C2 C -1.0811(10) -0.1147(9) 0.0771(8)
H3 H -1.1835 -0.1067 0.0551
H4 H -1.0234 -0.0410 0.1231
C3 C -1.1021(12) -0.1863(9) 0.1303(9)
H5 H -1.1627 -0.2595 0.0852
H6 H -1.1623 -0.1534 0.1794
C4 C -0.9499(11) -0.2002(8) 0.1764(7)
H7 H -0.9741 -0.2333 0.2185
H8 H -0.8827 -0.1272 0.2150
C5 C -0.8626(8) -0.2746(6) 0.1029(5)
H9 H -0.9380 -0.3351 0.0511
C6 C -0.7624(7) -0.2114(5) 0.0624(4)
H10 H -0.6807 -0.1601 0.1157
C7 C -0.7503(12) -0.3236(8) 0.1502(6)
H11 H -0.8120 -0.3723 0.1703
H12 H -0.6821 -0.2640 0.2066
C8 C -0.6533(11) -0.3914(8) 0.0817(7)
H13 H -0.7205 -0.4582 0.0309
H14 H -0.5800 -0.4148 0.1161
C9 C -0.5628(8) -0.3261(7) 0.0368(6)
H15 H -0.5065 -0.3739 -0.0080
H16 H -0.4874 -0.2632 0.0865
C10 C -0.6737(7) -0.2834(5) -0.0130(4)
C11 C -0.6068(9) -0.1991(6) -0.0478(5)
H17 H -0.5732 -0.2367 -0.1080
H18 H -0.5187 -0.1443 -0.0015
C12 C -0.7408(11) -0.1433(6) -0.0579(5)
H19 H -0.7018 -0.0695 -0.0520
H20 H -0.8087 -0.1878 -0.1195
C13 C -0.7842(8) -0.3834(5) -0.0999(5)
C14 C -0.8005(11) -0.5541(8) -0.2368(7)
H21 H -0.8458 -0.5297 -0.2815
H22 H -0.8847 -0.5921 -0.2195
C15 C -0.7023(14) -0.6311(8) -0.2794(10)
H23 H -0.7622 -0.6954 -0.3359
H24 H -0.6189 -0.5928 -0.2969
H25 H -0.6581 -0.6556 -0.2345
N2 N -0.7891(7) -0.1531(4) 0.5140(4)
O3 O -0.6735(7) -0.4829(6) 0.3664(6)
O4 O -0.8821(9) -0.4112(6) 0.3779(5)
C16 C -0.9581(12) -0.1681(7) 0.4740(6)
H26 H -0.9643 -0.1342 0.4309
H27 H -1.0027 -0.2473 0.4375
C17 C -1.0535(10) -0.1177(9) 0.5513(9)
H28 H -0.9945 -0.0440 0.5964
H29 H -1.1490 -0.1081 0.5219
C18 C -1.0963(10) -0.1845(9) 0.6039(10)
H30 H -1.1598 -0.1453 0.6487
H31 H -1.1604 -0.2566 0.5593
C19 C -0.9620(10) -0.2026(7) 0.6604(6)
H32 H -0.8922 -0.1311 0.7004
H33 H -1.0022 -0.2316 0.7020
C20 C -0.8655(8) -0.2822(6) 0.5977(5)
H34 H -0.9357 -0.3441 0.5439
C21 C -0.7480(6) -0.2252(5) 0.5621(4)
H35 H -0.6715 -0.1742 0.6186
C22 C -0.7722(13) -0.3279(8) 0.6558(7)
H36 H -0.7081 -0.2656 0.7123
H37 H -0.8439 -0.3707 0.6765
C23 C -0.6689(12) -0.4032(8) 0.5990(8)
H38 H -0.6081 -0.4260 0.6398
H39 H -0.7345 -0.4701 0.5473
C24 C -0.5591(8) -0.3434(6) 0.5585(6)
H40 H -0.4856 -0.2807 0.6096
H41 H -0.5006 -0.3959 0.5201
C25 C -0.6530(7) -0.3039(5) 0.4965(5)
C26 C -0.5662(10) -0.2219(7) 0.4632(6)
H42 H -0.4828 -0.1678 0.5140
H43 H -0.5223 -0.2620 0.4075
C27 C -0.6836(14) -0.1651(7) 0.4415(6)
H44 H -0.7424 -0.2108 0.3773
H45 H -0.6364 -0.0929 0.4468
C28 C -0.7528(9) -0.4037(6) 0.4079(5)
C29 C -0.7533(11) -0.5864(9) 0.2841(8)
H46 H -0.7483 -0.6502 0.2967
H47 H -0.8622 -0.5841 0.2697
C30 C -0.6769(15) -0.5972(9) 0.2020(7)
H48 H -0.7294 -0.6652 0.1461
H49 H -0.5684 -0.5999 0.2168
H50 H -0.6830 -0.5333 0.1897
O5 O -0.3885(8) 0.0039(8) 0.1720(5)
H51 H -0.3991 -0.0383 0.2243
H52 H -0.4837 0.0169 0.1657
O6 O -0.3511(3) -0.08533(14) 0.33541(15)
H53 H -0.4333 -0.0877 0.3259
H54 H -0.3075 -0.0692 0.3276
O7 O -0.6921(3) 0.10425(15) 0.17388(14)
H55 H -0.6895 0.0699 0.1959
H56 H -0.7010 0.0965 0.1431
O8 O -0.6498(15) 0.0065(12) 0.3339(7)
H57 H -0.6291 0.0337 0.3801
H58 H -0.5991 -0.0162 0.3847
loop_
_geom_bond_atom_site_label_1
_geom_bond_atom_site_label_2
_geom_bond_site_symmetry_1
_geom_bond_site_symmetry_2
N1 C1 1_555 1_555
O1 C13 1_555 1_555
O2 C13 1_555 1_555
C1 H1 1_555 1_555
H2 C1 1_555 1_555
C2 C1 1_555 1_555
H3 C2 1_555 1_555
H4 C2 1_555 1_555
C3 C2 1_555 1_555
H5 C3 1_555 1_555
H6 C3 1_555 1_555
C4 C3 1_555 1_555
H7 C4 1_555 1_555
H8 C4 1_555 1_555
C5 C4 1_555 1_555
H9 C5 1_555 1_555
C6 N1 1_555 1_555
H10 C6 1_555 1_555
C7 C5 1_555 1_555
H11 C7 1_555 1_555
H12 C7 1_555 1_555
C8 C7 1_555 1_555
H13 C8 1_555 1_555
H14 C8 1_555 1_555
C9 C8 1_555 1_555
H15 C9 1_555 1_555
H16 C9 1_555 1_555
C10 C6 1_555 1_555
C11 C10 1_555 1_555
H17 C11 1_555 1_555
H18 C11 1_555 1_555
C12 N1 1_555 1_555
H19 C12 1_555 1_555
H20 C12 1_555 1_555
C13 C10 1_555 1_555
C14 O1 1_555 1_555
H21 C14 1_555 1_555
H22 C14 1_555 1_555
C15 C14 1_555 1_555
H23 C15 1_555 1_555
H24 C15 1_555 1_555
H25 C15 1_555 1_555
N2 C16 1_555 1_555
O3 C28 1_555 1_555
O4 C28 1_555 1_555
C16 H26 1_555 1_555
H27 C16 1_555 1_555
C17 C16 1_555 1_555
H28 C17 1_555 1_555
H29 C17 1_555 1_555
C18 C17 1_555 1_555
H30 C18 1_555 1_555
H31 C18 1_555 1_555
C19 C18 1_555 1_555
H32 C19 1_555 1_555
H33 C19 1_555 1_555
C20 C19 1_555 1_555
H34 C20 1_555 1_555
C21 N2 1_555 1_555
H35 C21 1_555 1_555
C22 C20 1_555 1_555
H36 C22 1_555 1_555
H37 C22 1_555 1_555
C23 C22 1_555 1_555
H38 C23 1_555 1_555
H39 C23 1_555 1_555
C24 C23 1_555 1_555
H40 C24 1_555 1_555
H41 C24 1_555 1_555
C25 C21 1_555 1_555
C26 C25 1_555 1_555
H42 C26 1_555 1_555
H43 C26 1_555 1_555
C27 N2 1_555 1_555
H44 C27 1_555 1_555
H45 C27 1_555 1_555
C28 C25 1_555 1_555
C29 O3 1_555 1_555
H46 C29 1_555 1_555
H47 C29 1_555 1_555
C30 C29 1_555 1_555
H48 C30 1_555 1_555
H49 C30 1_555 1_555
H50 C30 1_555 1_555
O5 H51 1_555 1_555
H52 O5 1_555 1_555
O6 H53 1_555 1_555
H54 O6 1_555 1_555
O7 H55 1_555 1_555
H56 O7 1_555 1_555
O8 H57 1_555 1_555
H58 O8 1_555 1_555
C5 C6 1_555 1_555
C9 C10 1_555 1_555
C11 C12 1_555 1_555
C20 C21 1_555 1_555
C24 C25 1_555 1_555
C26 C27 1_555 1_555

#END
