
#######################################################################
#
#                 Cambridge Crystallographic Data Centre
#                                CCDC 
#
#######################################################################
#
# If this CIF has been generated from an entry in the Cambridge 
# Structural Database, then it will include bibliographic, chemical, 
# crystal, experimental, refinement or atomic coordinate data resulting 
# from the CCDC's data processing and validation procedures.
#
#######################################################################

data_XIHKIK
_chemical_formula_moiety         'C46 H40 S12 Si4'
_chemical_name_systematic        
meso-Thieno[2,3-b]tristhieno[3'''',2'''':4''',5''']thieno[3''',2''':4'',5'']thieno[2'',3'':5',6';3''',2''':3',4';3'''',2'''':7',8']naphtho[2',1':4,5]thieno[3,2-d]thiene-3,6,13,16-tetrayltetrakis(trimethylsilane)
_symmetry_cell_setting           triclinic
_symmetry_space_group_name_H-M   'P -1'
_symmetry_Int_Tables_number      2
_space_group_name_Hall           '-P 1'
loop_
_symmetry_equiv_pos_site_id
_symmetry_equiv_pos_as_xyz
1 x,y,z
2 -x,-y,-z
_cell_length_a                   10.348(9)
_cell_length_b                   14.739(7)
_cell_length_c                   18.510(7)
_cell_angle_alpha                98.69(3)
_cell_angle_beta                 100.69(3)
_cell_angle_gamma                99.92(3)
_cell_volume                     2683.35
_exptl_crystal_colour            yellow
_exptl_crystal_description       block
_cell_formula_units_Z            2
loop_
_atom_site_label
_atom_site_type_symbol
_atom_site_fract_x
_atom_site_fract_y
_atom_site_fract_z
S1 S -0.0003(2) 0.59401(13) 0.32833(10)
S2 S 0.33236(19) 0.54997(14) -0.01711(10)
S3 S -0.13338(19) 0.54429(14) 0.15758(10)
S4 S 0.2937(2) 0.63198(16) 0.42643(10)
S5 S 0.5831(2) 0.70207(15) 0.07418(11)
S6 S 0.6379(2) 0.87704(15) 0.20728(12)
Si1 Si 0.5246(2) 0.99311(16) 0.32916(13)
Si2 Si 0.6032(3) 0.6554(2) 0.42388(14)
C1 C 0.1100(7) 0.5916(5) 0.1356(4)
C2 C 0.3468(7) 0.6588(5) 0.1125(4)
C3 C 0.2139(7) 0.6017(4) 0.0922(4)
C4 C 0.4231(7) 0.7440(5) 0.1654(4)
C5 C 0.1226(7) 0.6121(4) 0.2164(4)
C6 C -0.0194(7) 0.5487(5) 0.0974(4)
C7 C -0.0545(6) 0.5023(4) 0.0198(4)
C8 C 0.1862(7) 0.5470(5) 0.0197(3)
C9 C 0.5055(8) 0.8883(5) 0.2526(4)
C10 C 0.4004(8) 0.8139(5) 0.2245(4)
H1 H 0.3208 0.8079 0.2415
C11 C 0.4217(7) 0.6404(5) 0.3768(4)
C12 C 0.3717(7) 0.6370(5) 0.3016(4)
H2 H 0.4258 0.6404 0.2667
C13 C 0.1746(7) 0.6235(5) 0.3465(4)
C14 C 0.2310(7) 0.6278(4) 0.2827(3)
C15 C -0.0028(8) 0.5912(5) 0.2331(3)
C16 C 0.5510(8) 0.7724(5) 0.1514(4)
C17 C 0.4217(7) 0.6341(5) 0.0600(4)
C18 C 0.6297(11) 0.7300(10) 0.5192(5)
H3 H 0.6094 0.6909 0.5543
H4 H 0.5716 0.7743 0.5171
H5 H 0.7216 0.7632 0.5348
C19 C 0.6483(12) 0.5395(9) 0.4316(7)
H6 H 0.6783 0.5161 0.3877
H7 H 0.5709 0.4961 0.4361
H8 H 0.7189 0.5467 0.4751
C20 C 0.6105(12) 0.9695(8) 0.4183(5)
H9 H 0.6477 1.0277 0.4529
H10 H 0.6814 0.9376 0.4100
H11 H 0.5474 0.9309 0.4387
C21 C 0.6366(10) 1.0951(7) 0.3082(6)
H12 H 0.5952 1.1102 0.2619
H13 H 0.7214 1.0792 0.3041
H14 H 0.6506 1.1482 0.3479
C22 C 0.7014(10) 0.7115(8) 0.3639(6)
H15 H 0.6996 0.6665 0.3203
H16 H 0.7926 0.7349 0.3910
H17 H 0.6634 0.7626 0.3490
C23 C 0.3561(10) 1.0175(8) 0.3327(6)
H18 H 0.3011 1.0036 0.2830
H19 H 0.3646 1.0825 0.3538
H20 H 0.3150 0.9791 0.3632
S1A S 0.0003(2) 0.40599(13) -0.32833(10)
S2A S -0.33236(19) 0.45003(14) 0.01711(10)
S3A S 0.13338(19) 0.45571(14) -0.15758(10)
S4A S -0.2937(2) 0.36802(16) -0.42643(10)
S5A S -0.5831(2) 0.29793(15) -0.07418(11)
S6A S -0.6379(2) 0.12296(15) -0.20728(12)
Si1A Si -0.5246(2) 0.00689(16) -0.32916(13)
Si2A Si -0.6032(3) 0.3446(2) -0.42388(14)
C1A C -0.1100(7) 0.4084(5) -0.1356(4)
C2A C -0.3468(7) 0.3412(5) -0.1125(4)
C3A C -0.2139(7) 0.3983(4) -0.0922(4)
C4A C -0.4231(7) 0.2560(5) -0.1654(4)
C5A C -0.1226(7) 0.3879(4) -0.2164(4)
C6A C 0.0194(7) 0.4513(5) -0.0974(4)
C7A C 0.0545(6) 0.4977(4) -0.0198(4)
C8A C -0.1862(7) 0.4530(5) -0.0197(3)
C9A C -0.5055(8) 0.1117(5) -0.2526(4)
C10A C -0.4004(8) 0.1861(5) -0.2245(4)
H1A H -0.3208 0.1921 -0.2415
C11A C -0.4217(7) 0.3596(5) -0.3768(4)
C12A C -0.3717(7) 0.3630(5) -0.3016(4)
H2A H -0.4258 0.3596 -0.2667
C13A C -0.1746(7) 0.3765(5) -0.3465(4)
C14A C -0.2310(7) 0.3722(4) -0.2827(3)
C15A C 0.0028(8) 0.4088(5) -0.2331(3)
C16A C -0.5510(8) 0.2276(5) -0.1514(4)
C17A C -0.4217(7) 0.3659(5) -0.0600(4)
C18A C -0.6297(11) 0.2700(10) -0.5192(5)
H3A H -0.6094 0.3091 -0.5543
H4A H -0.5716 0.2257 -0.5171
H5A H -0.7216 0.2368 -0.5348
C19A C -0.6483(12) 0.4605(9) -0.4316(7)
H6A H -0.6783 0.4839 -0.3877
H7A H -0.5709 0.5039 -0.4361
H8A H -0.7189 0.4533 -0.4751
C20A C -0.6105(12) 0.0305(8) -0.4183(5)
H9A H -0.6477 -0.0277 -0.4529
H10A H -0.6814 0.0624 -0.4100
H11A H -0.5474 0.0691 -0.4387
C21A C -0.6366(10) -0.0951(7) -0.3082(6)
H12A H -0.5952 -0.1102 -0.2619
H13A H -0.7214 -0.0792 -0.3041
H14A H -0.6506 -0.1482 -0.3479
C22A C -0.7014(10) 0.2885(8) -0.3639(6)
H15A H -0.6996 0.3335 -0.3203
H16A H -0.7926 0.2651 -0.3910
H17A H -0.6634 0.2374 -0.3490
C23A C -0.3561(10) -0.0175(8) -0.3327(6)
H18A H -0.3011 -0.0036 -0.2830
H19A H -0.3646 -0.0825 -0.3538
H20A H -0.3150 0.0209 -0.3632
S7 S 1.0719(2) 0.77668(13) 0.49924(10)
S8 S 1.0487(2) 0.84128(13) 0.35325(10)
S9 S 1.0136(2) 0.62560(14) 0.59946(12)
S10 S 0.9938(2) 0.83075(14) 0.17956(10)
S11 S 0.8848(3) 0.95535(16) 0.06672(11)
S12 S 0.8468(3) 0.60548(15) 0.72598(14)
Si3 Si 0.6668(4) 0.7031(2) 0.8216(2)
Si4 Si 0.7860(4) 1.1468(2) 0.05119(16)
C24 C 0.9247(7) 0.7583(5) 0.6773(4)
C25 C 0.9519(7) 1.0039(5) 0.2118(4)
C26 C 0.9888(7) 0.8041(5) 0.6256(4)
C27 C 1.0109(7) 1.0155(5) 0.3623(4)
C28 C 1.0296(7) 0.8864(5) 0.5286(4)
C29 C 1.0185(7) 0.8862(5) 0.2725(3)
C30 C 0.9977(7) 0.9786(5) 0.2838(4)
C31 C 1.0184(6) 0.9582(4) 0.4837(4)
C32 C 1.0304(7) 0.9457(4) 0.4069(3)
C33 C 0.9995(6) 0.8937(5) 0.6006(4)
C34 C 1.0317(7) 0.7390(5) 0.5779(4)
C35 C 0.9352(8) 0.6633(5) 0.6699(4)
C36 C 0.9488(7) 0.9325(5) 0.1524(4)
C37 C 0.8430(8) 0.7813(5) 0.7286(4)
H21 H 0.8270 0.8414 0.7406
C38 C 0.8960(7) 1.0787(5) 0.1839(4)
H22 H 0.8870 1.1319 0.2151
C39 C 0.7888(9) 0.7065(5) 0.7593(4)
C40 C 0.8575(8) 1.0637(5) 0.1072(4)
C41 C 0.6729(11) 0.8225(7) 0.8679(5)
H23 H 0.6211 0.8209 0.9059
H24 H 0.6362 0.8568 0.8317
H25 H 0.7644 0.8526 0.8904
C42 C 0.7542(17) 1.1032(11) -0.0450(8)
H26 H 0.6743 1.0548 -0.0592
H27 H 0.8289 1.0779 -0.0568
H28 H 0.7421 1.1531 -0.0719
C43 C 0.6670(16) 0.6098(10) 0.8685(8)
H29 H 0.7512 0.6194 0.9037
H30 H 0.6550 0.5526 0.8331
H31 H 0.5950 0.6057 0.8947
C44 C 0.7233(15) 1.2286(10) 0.1093(7)
H32 H 0.6555 1.2519 0.0789
H33 H 0.7954 1.2798 0.1352
H34 H 0.6850 1.1981 0.1450
C45 C 0.4781(17) 0.6577(12) 0.7552(9)
H35 H 0.4501 0.5914 0.7520
H36 H 0.4790 0.6707 0.7060
H37 H 0.4166 0.6897 0.7764
C46 C 0.9411(17) 1.2350(12) 0.0331(10)
H38 H 0.9082 1.2786 0.0045
H39 H 0.9929 1.2001 0.0059
H40 H 0.9967 1.2686 0.0802
S7A S 0.9281(2) 1.22332(13) 0.50076(10)
S8A S 0.9513(2) 1.15872(13) 0.64675(10)
S9A S 0.9864(2) 1.37440(14) 0.40054(12)
S10A S 1.0062(2) 1.16925(14) 0.82044(10)
S11A S 1.1152(3) 1.04465(16) 0.93328(11)
S12A S 1.1532(3) 1.39452(15) 0.27402(14)
Si3A Si 1.3332(4) 1.2969(2) 0.1784(2)
Si4A Si 1.2140(4) 0.8532(2) 0.94881(16)
C24A C 1.0753(7) 1.2417(5) 0.3227(4)
C25A C 1.0481(7) 0.9961(5) 0.7882(4)
C26A C 1.0112(7) 1.1959(5) 0.3744(4)
C27A C 0.9891(7) 0.9845(5) 0.6377(4)
C28A C 0.9704(7) 1.1136(5) 0.4714(4)
C29A C 0.9815(7) 1.1138(5) 0.7275(3)
C30A C 1.0023(7) 1.0214(5) 0.7162(4)
C31A C 0.9816(6) 1.0418(4) 0.5163(4)
C32A C 0.9696(7) 1.0543(4) 0.5931(3)
C33A C 1.0005(6) 1.1063(5) 0.3994(4)
C34A C 0.9683(7) 1.2610(5) 0.4221(4)
C35A C 1.0648(8) 1.3367(5) 0.3301(4)
C36A C 1.0512(7) 1.0675(5) 0.8476(4)
C37A C 1.1570(8) 1.2187(5) 0.2714(4)
H21A H 1.1730 1.1586 0.2594
C38A C 1.1040(7) 0.9213(5) 0.8161(4)
H22A H 1.1130 0.8681 0.7849
C39A C 1.2112(9) 1.2935(5) 0.2407(4)
C40A C 1.1425(8) 0.9363(5) 0.8928(4)
C41A C 1.3271(11) 1.1775(7) 0.1321(5)
H23A H 1.3789 1.1791 0.0941
H24A H 1.3638 1.1432 0.1683
H25A H 1.2356 1.1474 0.1096
C42A C 1.2458(17) 0.8968(11) 1.0450(8)
H26A H 1.3257 0.9452 1.0592
H27A H 1.1711 0.9221 1.0568
H28A H 1.2579 0.8469 1.0719
C43A C 1.3330(16) 1.3902(10) 0.1315(8)
H29A H 1.2488 1.3806 0.0963
H30A H 1.3450 1.4474 0.1669
H31A H 1.4050 1.3943 0.1053
C44A C 1.2767(15) 0.7714(10) 0.8907(7)
H32A H 1.3445 0.7481 0.9211
H33A H 1.2046 0.7202 0.8648
H34A H 1.3150 0.8019 0.8550
C45A C 1.5219(17) 1.3423(12) 0.2448(9)
H35A H 1.5499 1.4086 0.2480
H36A H 1.5210 1.3293 0.2940
H37A H 1.5834 1.3103 0.2236
C46A C 1.0589(17) 0.7650(12) 0.9669(10)
H38A H 1.0918 0.7214 0.9955
H39A H 1.0071 0.7999 0.9941
H40A H 1.0033 0.7314 0.9198
loop_
_geom_bond_atom_site_label_1
_geom_bond_atom_site_label_2
_geom_bond_site_symmetry_1
_geom_bond_site_symmetry_2
S1 C13 1_555 1_555
S2 C8 1_555 1_555
S3 C6 1_555 1_555
S4 C11 1_555 1_555
S5 C16 1_555 1_555
S6 C9 1_555 1_555
Si1 C9 1_555 1_555
Si2 C11 1_555 1_555
C1 C3 1_555 1_555
C2 C3 1_555 1_555
C3 C8 1_555 1_555
C4 C2 1_555 1_555
C5 C1 1_555 1_555
C6 C1 1_555 1_555
C7 C6 1_555 1_555
C8 C7A 1_555 1_555
C9 C10 1_555 1_555
C10 C4 1_555 1_555
H1 C10 1_555 1_555
C11 C12 1_555 1_555
C12 H2 1_555 1_555
C13 S4 1_555 1_555
C14 C5 1_555 1_555
C15 S1 1_555 1_555
C16 S6 1_555 1_555
C17 S2 1_555 1_555
C18 Si2 1_555 1_555
H3 C18 1_555 1_555
H4 C18 1_555 1_555
H5 C18 1_555 1_555
C19 Si2 1_555 1_555
H6 C19 1_555 1_555
H7 C19 1_555 1_555
H8 C19 1_555 1_555
C20 Si1 1_555 1_555
H9 C20 1_555 1_555
H10 C20 1_555 1_555
H11 C20 1_555 1_555
C21 Si1 1_555 1_555
H12 C21 1_555 1_555
H13 C21 1_555 1_555
H14 C21 1_555 1_555
C22 Si2 1_555 1_555
H15 C22 1_555 1_555
H16 C22 1_555 1_555
H17 C22 1_555 1_555
C23 Si1 1_555 1_555
H18 C23 1_555 1_555
H19 C23 1_555 1_555
H20 C23 1_555 1_555
S7 C28 1_555 1_555
S8 C29 1_555 1_555
S9 C34 1_555 1_555
S10 C29 1_555 1_555
S11 C36 1_555 1_555
S12 C35 1_555 1_555
Si3 C39 1_555 1_555
Si4 C40 1_555 1_555
C24 C26 1_555 1_555
C25 C30 1_555 1_555
C26 C33 1_555 1_555
C27 C30 1_555 1_555
C28 C31 1_555 1_555
C29 C30 1_555 1_555
C31 C32 1_555 1_555
C32 S8 1_555 1_555
C33 C28 1_555 1_555
C34 S7 1_555 1_555
C35 S9 1_555 1_555
C36 S10 1_555 1_555
C37 C24 1_555 1_555
H21 C37 1_555 1_555
C38 C25 1_555 1_555
H22 C38 1_555 1_555
C39 S12 1_555 1_555
C40 S11 1_555 1_555
C41 Si3 1_555 1_555
H23 C41 1_555 1_555
H24 C41 1_555 1_555
H25 C41 1_555 1_555
C42 Si4 1_555 1_555
H26 C42 1_555 1_555
H27 C42 1_555 1_555
H28 C42 1_555 1_555
C43 Si3 1_555 1_555
H29 C43 1_555 1_555
H30 C43 1_555 1_555
H31 C43 1_555 1_555
C44 Si4 1_555 1_555
H32 C44 1_555 1_555
H33 C44 1_555 1_555
H34 C44 1_555 1_555
C45 Si3 1_555 1_555
H35 C45 1_555 1_555
H36 C45 1_555 1_555
H37 C45 1_555 1_555
C46 Si4 1_555 1_555
H38 C46 1_555 1_555
H39 C46 1_555 1_555
H40 C46 1_555 1_555
S1A C13A 1_555 1_555
S2A C8A 1_555 1_555
S3A C6A 1_555 1_555
S4A C11A 1_555 1_555
S5A C16A 1_555 1_555
S6A C9A 1_555 1_555
Si1A C9A 1_555 1_555
Si2A C11A 1_555 1_555
C1A C3A 1_555 1_555
C2A C3A 1_555 1_555
C3A C8A 1_555 1_555
C4A C2A 1_555 1_555
C5A C1A 1_555 1_555
C6A C1A 1_555 1_555
C7A C7 1_555 1_555
C8A C7 1_555 1_555
C9A C10A 1_555 1_555
C10A C4A 1_555 1_555
H1A C10A 1_555 1_555
C11A C12A 1_555 1_555
C12A H2A 1_555 1_555
C13A S4A 1_555 1_555
C14A C5A 1_555 1_555
C15A S1A 1_555 1_555
C16A S6A 1_555 1_555
C17A S2A 1_555 1_555
C18A Si2A 1_555 1_555
H3A C18A 1_555 1_555
H4A C18A 1_555 1_555
H5A C18A 1_555 1_555
C19A Si2A 1_555 1_555
H6A C19A 1_555 1_555
H7A C19A 1_555 1_555
H8A C19A 1_555 1_555
C20A Si1A 1_555 1_555
H9A C20A 1_555 1_555
H10A C20A 1_555 1_555
H11A C20A 1_555 1_555
C21A Si1A 1_555 1_555
H12A C21A 1_555 1_555
H13A C21A 1_555 1_555
H14A C21A 1_555 1_555
C22A Si2A 1_555 1_555
H15A C22A 1_555 1_555
H16A C22A 1_555 1_555
H17A C22A 1_555 1_555
C23A Si1A 1_555 1_555
H18A C23A 1_555 1_555
H19A C23A 1_555 1_555
H20A C23A 1_555 1_555
S7A C28A 1_555 1_555
S8A C29A 1_555 1_555
S9A C34A 1_555 1_555
S10A C29A 1_555 1_555
S11A C36A 1_555 1_555
S12A C35A 1_555 1_555
Si3A C39A 1_555 1_555
Si4A C40A 1_555 1_555
C24A C26A 1_555 1_555
C25A C30A 1_555 1_555
C26A C33A 1_555 1_555
C27A C33 1_555 1_555
C28A C31A 1_555 1_555
C29A C30A 1_555 1_555
C30A C27A 1_555 1_555
C31A C31 1_555 1_555
C32A S8A 1_555 1_555
C33A C27 1_555 1_555
C34A S7A 1_555 1_555
C35A S9A 1_555 1_555
C36A S10A 1_555 1_555
C37A C24A 1_555 1_555
H21A C37A 1_555 1_555
C38A C25A 1_555 1_555
H22A C38A 1_555 1_555
C39A S12A 1_555 1_555
C40A S11A 1_555 1_555
C41A Si3A 1_555 1_555
H23A C41A 1_555 1_555
H24A C41A 1_555 1_555
H25A C41A 1_555 1_555
C42A Si4A 1_555 1_555
H26A C42A 1_555 1_555
H27A C42A 1_555 1_555
H28A C42A 1_555 1_555
C43A Si3A 1_555 1_555
H29A C43A 1_555 1_555
H30A C43A 1_555 1_555
H31A C43A 1_555 1_555
C44A Si4A 1_555 1_555
H32A C44A 1_555 1_555
H33A C44A 1_555 1_555
H34A C44A 1_555 1_555
C45A Si3A 1_555 1_555
H35A C45A 1_555 1_555
H36A C45A 1_555 1_555
H37A C45A 1_555 1_555
C46A Si4A 1_555 1_555
H38A C46A 1_555 1_555
H39A C46A 1_555 1_555
H40A C46A 1_555 1_555
S3 C15 1_555 1_555
S5 C17 1_555 1_555
C2 C17 1_555 1_555
C4 C16 1_555 1_555
C5 C15 1_555 1_555
C12 C14 1_555 1_555
C13 C14 1_555 1_555
C24 C35 1_555 1_555
C25 C36 1_555 1_555
C26 C34 1_555 1_555
C27 C32 1_555 1_555
C37 C39 1_555 1_555
C38 C40 1_555 1_555
S3A C15A 1_555 1_555
S5A C17A 1_555 1_555
C2A C17A 1_555 1_555
C4A C16A 1_555 1_555
C5A C15A 1_555 1_555
C6A C7A 1_555 1_555
C12A C14A 1_555 1_555
C13A C14A 1_555 1_555
C24A C35A 1_555 1_555
C25A C36A 1_555 1_555
C26A C34A 1_555 1_555
C27A C32A 1_555 1_555
C28A C33A 1_555 1_555
C31A C32A 1_555 1_555
C37A C39A 1_555 1_555
C38A C40A 1_555 1_555

#END
