
#######################################################################
#
#                 Cambridge Crystallographic Data Centre
#                                CCDC 
#
#######################################################################
#
# If this CIF has been generated from an entry in the Cambridge 
# Structural Database, then it will include bibliographic, chemical, 
# crystal, experimental, refinement or atomic coordinate data resulting 
# from the CCDC's data processing and validation procedures.
#
#######################################################################

data_XIHWOC
_chemical_formula_moiety         'C15 H10 F3 N1'
_chemical_name_systematic        2-Methyl-6-(trifluoromethyl)phenanthridine
_symmetry_cell_setting           monoclinic
_symmetry_space_group_name_H-M   'P 21/c'
_symmetry_Int_Tables_number      14
_space_group_name_Hall           '-P 2ybc'
loop_
_symmetry_equiv_pos_site_id
_symmetry_equiv_pos_as_xyz
1 x,y,z
2 -x,1/2+y,1/2-z
3 -x,-y,-z
4 x,1/2-y,1/2+z
_cell_length_a                   8.5439(2)
_cell_length_b                   14.9208(4)
_cell_length_c                   9.6480(2)
_cell_angle_alpha                90
_cell_angle_beta                 107.7040(10)
_cell_angle_gamma                90
_cell_volume                     1171.69
_exptl_crystal_colour            colorless
_exptl_crystal_description       prism
_cell_formula_units_Z            4
loop_
_atom_site_label
_atom_site_type_symbol
_atom_site_fract_x
_atom_site_fract_y
_atom_site_fract_z
N1 N 0.90122(17) 0.11056(9) 0.12488(14)
F1 F 0.73406(16) -0.01702(7) 0.18944(14)
F2 F 0.69793(18) 0.06432(8) 0.35892(13)
F3 F 0.52854(14) 0.07180(8) 0.14390(14)
C1 C 0.78929(19) 0.13819(10) 0.18036(16)
C2 C 0.75587(19) 0.23039(10) 0.20589(16)
C3 C 0.6342(2) 0.25746(12) 0.26886(18)
H1 H 0.5680 0.2141 0.2944
C4 C 0.6120(2) 0.34617(12) 0.29296(19)
H2 H 0.5305 0.3635 0.3348
C5 C 0.7096(2) 0.41113(12) 0.25579(19)
H3 H 0.6939 0.4720 0.2732
C6 C 0.8279(2) 0.38698(11) 0.19425(18)
H4 H 0.8929 0.4315 0.1700
C7 C 0.85395(18) 0.29613(10) 0.16662(15)
C8 C 0.97721(18) 0.26704(10) 0.10168(15)
C9 C 1.0790(2) 0.32600(11) 0.05393(17)
H5 H 1.0676 0.3881 0.0646
C10 C 1.1947(2) 0.29546(12) -0.00798(17)
C11 C 1.2108(2) 0.20249(12) -0.02356(18)
H6 H 1.2896 0.1809 -0.0653
C12 C 1.1143(2) 0.14295(11) 0.02065(18)
H7 H 1.1267 0.0811 0.0089
C13 C 0.99584(19) 0.17429(10) 0.08394(16)
C14 C 0.6885(2) 0.06411(11) 0.21771(19)
C15 C 1.3008(2) 0.35942(14) -0.0607(2)
H8 H 1.2784 0.4204 -0.0372
H9 H 1.2767 0.3535 -0.1652
H10 H 1.4156 0.3456 -0.0135
loop_
_geom_bond_atom_site_label_1
_geom_bond_atom_site_label_2
_geom_bond_site_symmetry_1
_geom_bond_site_symmetry_2
N1 C1 1_555 1_555
F1 C14 1_555 1_555
F2 C14 1_555 1_555
F3 C14 1_555 1_555
C1 C2 1_555 1_555
C2 C3 1_555 1_555
C3 H1 1_555 1_555
C4 C3 1_555 1_555
H2 C4 1_555 1_555
C5 C4 1_555 1_555
H3 C5 1_555 1_555
C6 C5 1_555 1_555
H4 C6 1_555 1_555
C7 C2 1_555 1_555
C8 C7 1_555 1_555
C9 C8 1_555 1_555
H5 C9 1_555 1_555
C10 C9 1_555 1_555
C11 C10 1_555 1_555
H6 C11 1_555 1_555
C12 C11 1_555 1_555
H7 C12 1_555 1_555
C13 N1 1_555 1_555
C14 C1 1_555 1_555
C15 C10 1_555 1_555
H8 C15 1_555 1_555
H9 C15 1_555 1_555
H10 C15 1_555 1_555
C6 C7 1_555 1_555
C8 C13 1_555 1_555
C12 C13 1_555 1_555

#END
