
#######################################################################
#
#                 Cambridge Crystallographic Data Centre
#                                CCDC 
#
#######################################################################
#
# If this CIF has been generated from an entry in the Cambridge 
# Structural Database, then it will include bibliographic, chemical, 
# crystal, experimental, refinement or atomic coordinate data resulting 
# from the CCDC's data processing and validation procedures.
#
#######################################################################

data_XIJKIM
_chemical_formula_moiety         'C19 H19 Br1 O6'
_chemical_name_systematic        
'Dimethyl (8-(4-bromophenyl)-6-oxo-1-oxaspiro[4.4]non-3-en-2-yl)malonate'
_symmetry_cell_setting           triclinic
_symmetry_space_group_name_H-M   'P -1'
_symmetry_Int_Tables_number      2
_space_group_name_Hall           '-P 1'
loop_
_symmetry_equiv_pos_site_id
_symmetry_equiv_pos_as_xyz
1 x,y,z
2 -x,-y,-z
_cell_length_a                   8.6534(7)
_cell_length_b                   10.8317(13)
_cell_length_c                   10.9750(10)
_cell_angle_alpha                105.545(10)
_cell_angle_beta                 107.452(8)
_cell_angle_gamma                98.612(8)
_cell_volume                     915.334
_cell_formula_units_Z            2
loop_
_atom_site_label
_atom_site_type_symbol
_atom_site_fract_x
_atom_site_fract_y
_atom_site_fract_z
Br1 Br -0.30446(15) 0.77906(14) 1.38753(14)
O1 O 0.2409(10) 0.8587(8) 0.7956(8)
O2 O 0.3470(7) 0.6333(7) 0.8375(7)
O3 O 0.8039(10) 0.5713(11) 0.8085(9)
O4 O 0.7286(8) 0.5987(9) 0.6110(8)
O5 O 0.6155(9) 0.8495(8) 0.7439(9)
O6 O 0.3819(8) 0.7202(8) 0.5735(7)
C1 C 0.0547(11) 0.9195(10) 1.2446(11)
H1 H 0.1105 1.0020 1.2495
C2 C -0.0604(10) 0.9111(11) 1.3055(10)
H2 H -0.0856 0.9876 1.3487
C3 C -0.1399(11) 0.7903(10) 1.3037(11)
C4 C -0.1064(12) 0.6762(11) 1.2375(11)
H3 H -0.1600 0.5944 1.2361
C5 C 0.0070(12) 0.6845(11) 1.1734(12)
H4 H 0.0300 0.6080 1.1275
C6 C 0.0888(10) 0.8096(10) 1.1774(10)
C7 C 0.2167(10) 0.8210(9) 1.1035(8)
H5 H 0.3229 0.8798 1.1707
C8 C 0.1582(11) 0.8827(10) 0.9941(10)
H6 H 0.1889 0.9785 1.0319
H7 H 0.0379 0.8522 0.9476
C9 C 0.2503(11) 0.8345(10) 0.8984(10)
C10 C 0.3451(10) 0.7391(9) 0.9504(10)
C11 C 0.2508(11) 0.6983(9) 1.0375(10)
H8 H 0.1479 0.6307 0.9819
H9 H 0.3195 0.6657 1.1033
C12 C 0.5271(12) 0.8095(12) 1.0267(12)
H10 H 0.5685 0.8856 1.1025
C13 C 0.6209(11) 0.7432(11) 0.9666(10)
H11 H 0.7371 0.7678 0.9961
C14 C 0.5154(10) 0.6291(10) 0.8502(10)
H12 H 0.5347 0.5493 0.8718
C15 C 0.5382(10) 0.6180(10) 0.7157(8)
H13 H 0.4505 0.5431 0.6451
C16 C 0.7068(12) 0.5917(11) 0.7195(11)
C17 C 0.8858(13) 0.5741(15) 0.5944(13)
H14 H 0.8781 0.5632 0.5029
H15 H 0.9039 0.4953 0.6144
H16 H 0.9776 0.6480 0.6553
C18 C 0.5161(11) 0.7422(10) 0.6826(9)
C19 C 0.3517(15) 0.8363(14) 0.5382(13)
H17 H 0.4006 0.8453 0.4722
H18 H 0.4011 0.9134 0.6177
H19 H 0.2334 0.8270 0.5012
loop_
_geom_bond_atom_site_label_1
_geom_bond_atom_site_label_2
_geom_bond_site_symmetry_1
_geom_bond_site_symmetry_2
Br1 C3 1_555 1_555
O1 C9 1_555 1_555
O2 C10 1_555 1_555
O3 C16 1_555 1_555
O4 C16 1_555 1_555
O5 C18 1_555 1_555
O6 C18 1_555 1_555
C1 H1 1_555 1_555
C2 C1 1_555 1_555
H2 C2 1_555 1_555
C3 C2 1_555 1_555
C4 C3 1_555 1_555
H3 C4 1_555 1_555
C5 C4 1_555 1_555
H4 C5 1_555 1_555
C6 C1 1_555 1_555
C7 C6 1_555 1_555
H5 C7 1_555 1_555
C8 C7 1_555 1_555
H6 C8 1_555 1_555
H7 C8 1_555 1_555
C9 C8 1_555 1_555
C10 C9 1_555 1_555
C11 C7 1_555 1_555
H8 C11 1_555 1_555
H9 C11 1_555 1_555
C12 C10 1_555 1_555
H10 C12 1_555 1_555
C13 C12 1_555 1_555
H11 C13 1_555 1_555
C14 O2 1_555 1_555
H12 C14 1_555 1_555
C15 C14 1_555 1_555
H13 C15 1_555 1_555
C16 C15 1_555 1_555
C17 O4 1_555 1_555
H14 C17 1_555 1_555
H15 C17 1_555 1_555
H16 C17 1_555 1_555
C18 C15 1_555 1_555
C19 O6 1_555 1_555
H17 C19 1_555 1_555
H18 C19 1_555 1_555
H19 C19 1_555 1_555
C5 C6 1_555 1_555
C10 C11 1_555 1_555
C13 C14 1_555 1_555

#END
