
#######################################################################
#
#                 Cambridge Crystallographic Data Centre
#                                CCDC 
#
#######################################################################
#
# If this CIF has been generated from an entry in the Cambridge 
# Structural Database, then it will include bibliographic, chemical, 
# crystal, experimental, refinement or atomic coordinate data resulting 
# from the CCDC's data processing and validation procedures.
#
#######################################################################

data_XIJKAF
_chemical_formula_moiety         'C18 H20 O2 S1'
_chemical_name_systematic        
1-methyl-4-[(3-methyl-1-phenylbut-2-en-1-yl)sulfonyl]benzene
_symmetry_cell_setting           monoclinic
_symmetry_space_group_name_H-M   'C 2'
_symmetry_Int_Tables_number      5
_space_group_name_Hall           'C 2y'
loop_
_symmetry_equiv_pos_site_id
_symmetry_equiv_pos_as_xyz
1 x,y,z
2 -x,y,-z
3 1/2+x,1/2+y,z
4 1/2-x,1/2+y,-z
_cell_length_a                   16.716(3)
_cell_length_b                   5.6825(13)
_cell_length_c                   16.933(3)
_cell_angle_alpha                90
_cell_angle_beta                 95.059(13)
_cell_angle_gamma                90
_cell_volume                     1602.18
_exptl_crystal_colour            colorless
_exptl_crystal_description       block
_cell_formula_units_Z            4
loop_
_atom_site_label
_atom_site_type_symbol
_atom_site_fract_x
_atom_site_fract_y
_atom_site_fract_z
S1 S 0.22063(9) 0.5914(3) 0.26867(8)
O1 O 0.1428(3) 0.5013(12) 0.2757(3)
C1 C 0.1576(4) 0.2550(14) 0.0983(4)
H1 H 0.158149 0.119810 0.131302
C2 C 0.1055(4) 0.2657(16) 0.0307(4)
H2 H 0.070773 0.136867 0.017093
O2 O 0.2294(3) 0.8397(10) 0.2525(3)
C3 C 0.1033(5) 0.4627(18) -0.0174(4)
H3 H 0.060(5) 0.477(17) -0.070(5)
C4 C 0.1545(4) 0.6482(15) 0.0022(4)
H4 H 0.152942 0.784138 -0.030605
C5 C 0.2081(4) 0.6377(15) 0.0694(4)
H5 H 0.243906 0.764771 0.082061
C6 C 0.2094(4) 0.4409(13) 0.1183(4)
C7 C 0.2666(4) 0.4244(12) 0.1931(3)
H6 H 0.269262 0.255905 0.210184
C8 C 0.4177(4) 0.3959(15) 0.2099(4)
C9 C 0.3504(4) 0.5068(15) 0.1852(4)
H7 H 0.355943 0.654263 0.159831
C10 C 0.4212(5) 0.1650(15) 0.2533(5)
H8 H 0.370925 0.078764 0.240506
H9 H 0.428463 0.194098 0.310576
H10 H 0.466291 0.071738 0.237303
C11 C 0.4982(5) 0.496(2) 0.1961(5)
H11 H 0.526460 0.387198 0.163279
H12 H 0.529744 0.518599 0.247095
H13 H 0.491020 0.647702 0.168856
C12 C 0.2806(4) 0.5273(13) 0.3572(4)
C13 C 0.3366(5) 0.6888(16) 0.3878(4)
H14 H 0.344722 0.831496 0.360381
C14 C 0.3813(5) 0.6403(16) 0.4595(4)
H15 H 0.417(5) 0.766(19) 0.489(5)
C15 C 0.3702(5) 0.4284(17) 0.4997(4)
C16 C 0.3139(5) 0.2705(16) 0.4673(4)
H16 H 0.305343 0.127370 0.494294
C17 C 0.2691(5) 0.3175(15) 0.3955(4)
H17 H 0.231214 0.206150 0.373223
C18 C 0.4181(6) 0.377(2) 0.5772(5)
H18 H 0.472411 0.327434 0.567088
H19 H 0.391906 0.251493 0.604979
H20 H 0.421278 0.519541 0.610047
loop_
_geom_bond_atom_site_label_1
_geom_bond_atom_site_label_2
_geom_bond_site_symmetry_1
_geom_bond_site_symmetry_2
S1 O1 1_555 1_555
C1 H1 1_555 1_555
C2 C1 1_555 1_555
H2 C2 1_555 1_555
O2 S1 1_555 1_555
C3 C2 1_555 1_555
H3 C3 1_555 1_555
C4 C3 1_555 1_555
H4 C4 1_555 1_555
C5 C4 1_555 1_555
H5 C5 1_555 1_555
C6 C1 1_555 1_555
C7 S1 1_555 1_555
H6 C7 1_555 1_555
C8 C9 1_555 1_555
C9 C7 1_555 1_555
H7 C9 1_555 1_555
C10 C8 1_555 1_555
H8 C10 1_555 1_555
H9 C10 1_555 1_555
H10 C10 1_555 1_555
C11 C8 1_555 1_555
H11 C11 1_555 1_555
H12 C11 1_555 1_555
H13 C11 1_555 1_555
C12 S1 1_555 1_555
C13 C12 1_555 1_555
H14 C13 1_555 1_555
C14 C13 1_555 1_555
H15 C14 1_555 1_555
C15 C14 1_555 1_555
C16 C15 1_555 1_555
H16 C16 1_555 1_555
C17 C12 1_555 1_555
H17 C17 1_555 1_555
C18 C15 1_555 1_555
H18 C18 1_555 1_555
H19 C18 1_555 1_555
H20 C18 1_555 1_555
C5 C6 1_555 1_555
C6 C7 1_555 1_555
C16 C17 1_555 1_555

#END
