
#######################################################################
#
#                 Cambridge Crystallographic Data Centre
#                                CCDC 
#
#######################################################################
#
# If this CIF has been generated from an entry in the Cambridge 
# Structural Database, then it will include bibliographic, chemical, 
# crystal, experimental, refinement or atomic coordinate data resulting 
# from the CCDC's data processing and validation procedures.
#
#######################################################################

data_XIJMAH
_chemical_formula_moiety         'C23 H16 N4'
_chemical_name_systematic        
2^5^-methyl-2^2^H-[1^1^,2^1^:2^1^,3^1^-terphenyl]-2^2^,2^2^,2^3^,2^3^(2^4^H)-tetracarbonitrile
_symmetry_cell_setting           orthorhombic
_symmetry_space_group_name_H-M   'P 21 21 21'
_symmetry_Int_Tables_number      19
_space_group_name_Hall           'P 2ac 2ab'
loop_
_symmetry_equiv_pos_site_id
_symmetry_equiv_pos_as_xyz
1 x,y,z
2 1/2-x,-y,1/2+z
3 -x,1/2+y,1/2-z
4 1/2+x,1/2-y,-z
_cell_length_a                   8.182(17)
_cell_length_b                   11.61(2)
_cell_length_c                   19.81(4)
_cell_angle_alpha                90
_cell_angle_beta                 90
_cell_angle_gamma                90
_cell_volume                     1881.81
_exptl_crystal_colour            'light colorless'
_exptl_crystal_description       block
_cell_formula_units_Z            4
loop_
_atom_site_label
_atom_site_type_symbol
_atom_site_fract_x
_atom_site_fract_y
_atom_site_fract_z
N1 N 0.7341(7) 0.3643(5) 0.2769(2)
N2 N 0.5315(7) 0.5665(5) 0.1191(3)
N3 N 0.9216(7) 0.8010(5) 0.1401(3)
N4 N 0.6428(8) 0.6968(5) 0.3011(3)
C1 C 0.7414(8) 0.2880(5) 0.1126(3)
H1 H 0.6578 0.3295 0.1332
C2 C 0.7084(9) 0.1791(6) 0.0881(3)
H2 H 0.6041 0.1483 0.0927
C3 C 0.8272(11) 0.1166(6) 0.0573(3)
H3 H 0.8055 0.0431 0.0409
C4 C 0.9774(11) 0.1632(6) 0.0509(4)
H4 H 1.0596 0.1209 0.0300
C5 C 1.0119(9) 0.2727(5) 0.0748(3)
H5 H 1.1160 0.3031 0.0687
C6 C 0.8946(7) 0.3374(5) 0.1076(2)
C7 C 0.9423(6) 0.4612(4) 0.1295(2)
C8 C 0.9642(7) 0.5337(4) 0.0641(3)
C9 C 0.8502(8) 0.5248(5) 0.0136(3)
H6 H 0.7584 0.4788 0.0198
C10 C 0.8707(10) 0.5844(6) -0.0473(3)
H7 H 0.7915 0.5790 -0.0809
C11 C 1.0053(11) 0.6500(6) -0.0575(4)
H8 H 1.0206 0.6877 -0.0984
C12 C 1.1193(10) 0.6601(6) -0.0068(3)
H9 H 1.2102 0.7069 -0.0131
C13 C 1.1003(8) 0.6015(5) 0.0536(3)
H10 H 1.1794 0.6078 0.0871
C14 C 1.1002(6) 0.4584(5) 0.1699(3)
H11 H 1.1831 0.4123 0.1526
C15 C 1.1346(6) 0.5132(4) 0.2264(3)
C16 C 1.0199(7) 0.5919(5) 0.2619(3)
H12 H 1.0772 0.6621 0.2739
H13 H 0.9832 0.5556 0.3033
C17 C 1.2980(6) 0.5010(5) 0.2614(3)
H14 H 1.2811 0.4774 0.3073
H15 H 1.3541 0.5736 0.2606
H16 H 1.3625 0.4442 0.2383
C18 C 0.8687(7) 0.6229(5) 0.2178(3)
C19 C 0.9010(7) 0.7200(6) 0.1686(3)
C20 C 0.7379(9) 0.6619(6) 0.2652(3)
C21 C 0.8075(6) 0.5147(5) 0.1783(3)
C22 C 0.6540(8) 0.5436(5) 0.1427(3)
C23 C 0.7684(7) 0.4276(5) 0.2358(3)
loop_
_geom_bond_atom_site_label_1
_geom_bond_atom_site_label_2
_geom_bond_site_symmetry_1
_geom_bond_site_symmetry_2
N1 C23 1_555 1_555
N2 C22 1_555 1_555
N3 C19 1_555 1_555
N4 C20 1_555 1_555
C1 H1 1_555 1_555
C2 C1 1_555 1_555
H2 C2 1_555 1_555
C3 C2 1_555 1_555
H3 C3 1_555 1_555
C4 C3 1_555 1_555
H4 C4 1_555 1_555
C5 C4 1_555 1_555
H5 C5 1_555 1_555
C6 C1 1_555 1_555
C7 C6 1_555 1_555
C8 C7 1_555 1_555
C9 C8 1_555 1_555
H6 C9 1_555 1_555
C10 C9 1_555 1_555
H7 C10 1_555 1_555
C11 C10 1_555 1_555
H8 C11 1_555 1_555
C12 C11 1_555 1_555
H9 C12 1_555 1_555
C13 C8 1_555 1_555
H10 C13 1_555 1_555
C14 C7 1_555 1_555
H11 C14 1_555 1_555
C15 C14 1_555 1_555
C16 C15 1_555 1_555
H12 C16 1_555 1_555
H13 C16 1_555 1_555
C17 C15 1_555 1_555
H14 C17 1_555 1_555
H15 C17 1_555 1_555
H16 C17 1_555 1_555
C18 C16 1_555 1_555
C19 C18 1_555 1_555
C20 C18 1_555 1_555
C21 C7 1_555 1_555
C22 C21 1_555 1_555
C23 C21 1_555 1_555
C5 C6 1_555 1_555
C12 C13 1_555 1_555
C18 C21 1_555 1_555

#END
