
#######################################################################
#
#                 Cambridge Crystallographic Data Centre
#                                CCDC 
#
#######################################################################
#
# If this CIF has been generated from an entry in the Cambridge 
# Structural Database, then it will include bibliographic, chemical, 
# crystal, experimental, refinement or atomic coordinate data resulting 
# from the CCDC's data processing and validation procedures.
#
#######################################################################

data_XIKNUC
_chemical_formula_moiety         'C39 H32 O10,C1 H2 Cl2'
_chemical_name_systematic        
'14,24,26,30-Tetramethoxyhexacyclo[21.2.2.2^3,6^.2^8,11^.2^13,16^.2^18,21^]pentatriaconta-1(25),3(35),5,8(33),10,13,15,18(29),20,23,26,30-dodecaene-4,9,19,28,32,34-hexone dichloromethane solvate'
_symmetry_cell_setting           monoclinic
_symmetry_space_group_name_H-M   'P 21/n'
_symmetry_Int_Tables_number      14
_space_group_name_Hall           '-P 2yn'
loop_
_symmetry_equiv_pos_site_id
_symmetry_equiv_pos_as_xyz
1 x,y,z
2 1/2-x,1/2+y,1/2-z
3 -x,-y,-z
4 1/2+x,1/2-y,1/2+z
_cell_length_a                   11.5284(2)
_cell_length_b                   15.3983(3)
_cell_length_c                   20.2646(4)
_cell_angle_alpha                90
_cell_angle_beta                 91.7392(17)
_cell_angle_gamma                90
_cell_volume                     3595.67
_exptl_crystal_colour            red
_exptl_crystal_description       platelet
_cell_formula_units_Z            4
loop_
_atom_site_label
_atom_site_type_symbol
_atom_site_fract_x
_atom_site_fract_y
_atom_site_fract_z
Cl1 Cl 0.14297(10) 0.66197(9) 0.21224(6)
Cl2 Cl -0.05375(13) 0.76929(9) 0.23988(9)
C1 C 0.0103(4) 0.6690(3) 0.2526(2)
H1 H -0.0428 0.6229 0.2359
H2 H 0.0239 0.6596 0.3006
O1 O 0.33748(14) 0.76274(11) 0.36455(10)
O2 O -0.09041(14) 0.83317(11) 0.46786(9)
O3 O 0.08058(14) 0.51314(11) 0.42754(9)
O4 O -0.35073(13) 0.59745(12) 0.35562(9)
O5 O -0.08604(15) 0.38506(12) 0.20538(9)
O6 O -0.33167(15) 0.67042(12) 0.11297(9)
O7 O 0.08637(16) 0.60336(12) 0.02924(11)
O8 O -0.08997(16) 0.91796(12) 0.06089(10)
O9 O 0.34049(15) 0.82768(12) 0.13136(9)
O10 O 0.07534(15) 1.01985(12) 0.28248(8)
C2 C 0.25919(19) 0.93233(15) 0.35073(11)
H3 H 0.2366 0.9904 0.3669
H4 H 0.3426 0.9236 0.3618
C3 C 0.18839(18) 0.86317(14) 0.38447(10)
C4 C 0.08059(19) 0.88213(15) 0.40991(10)
H5 H 0.0499 0.9391 0.4053
C5 C 0.01687(18) 0.81890(15) 0.44204(10)
C6 C 0.06156(18) 0.73564(14) 0.45046(10)
C7 C 0.16858(19) 0.71606(15) 0.42376(11)
H6 H 0.1991 0.6590 0.4283
C8 C 0.23111(18) 0.77854(15) 0.39075(11)
C9 C -0.1379(2) 0.91713(19) 0.46105(18)
H7 H -0.1435 0.9327 0.4142
H8 H -0.0879 0.9589 0.4847
H9 H -0.2155 0.9181 0.4795
C10 C 0.3712(2) 0.67375(18) 0.36072(17)
H10 H 0.4404 0.6687 0.3341
H11 H 0.3078 0.6399 0.3402
H12 H 0.3884 0.6515 0.4053
C11 C -0.00447(19) 0.66621(15) 0.48690(10)
H13 H 0.0510 0.6289 0.5121
H14 H -0.0565 0.6940 0.5187
C12 C -0.07504(18) 0.61142(14) 0.43916(10)
C13 C -0.18335(19) 0.63109(15) 0.41891(11)
H15 H -0.2183 0.6818 0.4362
C14 C -0.25084(18) 0.57805(14) 0.37129(10)
C15 C -0.19420(18) 0.49993(14) 0.34277(10)
C16 C -0.08612(19) 0.47963(14) 0.36327(11)
H16 H -0.0511 0.4290 0.3459
C17 C -0.01915(18) 0.53242(14) 0.41155(10)
C18 C -0.25998(19) 0.45128(15) 0.28904(11)
H17 H -0.3443 0.4541 0.2968
H18 H -0.2363 0.3895 0.2895
C19 C -0.23471(18) 0.49135(14) 0.22250(11)
C20 C -0.29657(18) 0.56362(15) 0.19951(11)
H19 H -0.3566 0.5871 0.2252
C21 C -0.27166(18) 0.60163(15) 0.13963(11)
C22 C -0.18196(18) 0.56936(15) 0.10125(11)
C23 C -0.12014(19) 0.49741(15) 0.12457(11)
H20 H -0.0592 0.4745 0.0993
C24 C -0.14625(18) 0.45862(15) 0.18414(11)
C25 C -0.4303(3) 0.7010(2) 0.14630(17)
H21 H -0.4674 0.7478 0.1205
H22 H -0.4060 0.7231 0.1899
H23 H -0.4855 0.6533 0.1514
C26 C -0.1213(3) 0.30941(19) 0.17031(17)
H24 H -0.0990 0.3145 0.1242
H25 H -0.2057 0.3030 0.1721
H26 H -0.0835 0.2584 0.1904
C27 C -0.1588(2) 0.60888(17) 0.03446(11)
H27 H -0.1206 0.5651 0.0066
H28 H -0.2336 0.6248 0.0124
C28 C -0.0829(2) 0.68834(16) 0.04019(10)
C29 C -0.1238(2) 0.76856(17) 0.04845(11)
H29 H -0.2053 0.7764 0.0506
C30 C -0.0485(2) 0.84537(16) 0.05431(11)
C31 C 0.0800(2) 0.83252(15) 0.05203(10)
C32 C 0.1210(2) 0.75241(16) 0.04367(11)
H30 H 0.2026 0.7445 0.0420
C33 C 0.0451(2) 0.67549(16) 0.03684(11)
C34 C 0.1551(2) 0.91175(16) 0.06329(11)
H31 H 0.2289 0.9050 0.0401
H32 H 0.1148 0.9640 0.0456
C35 C 0.17918(18) 0.92194(14) 0.13641(11)
C36 C 0.11166(18) 0.96784(14) 0.17652(11)
H33 H 0.0454 0.9967 0.1581
C37 C 0.13671(18) 0.97499(14) 0.24793(11)
C38 C 0.23970(18) 0.92826(14) 0.27696(11)
C39 C 0.30745(19) 0.88358(15) 0.23673(12)
H34 H 0.3753 0.8566 0.2549
C40 C 0.28139(18) 0.87442(14) 0.16571(11)
loop_
_geom_bond_atom_site_label_1
_geom_bond_atom_site_label_2
_geom_bond_site_symmetry_1
_geom_bond_site_symmetry_2
Cl1 C1 1_555 1_555
Cl2 C1 1_555 1_555
C1 H1 1_555 1_555
H2 C1 1_555 1_555
O1 C8 1_555 1_555
O2 C5 1_555 1_555
O3 C17 1_555 1_555
O4 C14 1_555 1_555
O5 C24 1_555 1_555
O6 C21 1_555 1_555
O7 C33 1_555 1_555
O8 C30 1_555 1_555
O9 C40 1_555 1_555
O10 C37 1_555 1_555
C2 H3 1_555 1_555
H4 C2 1_555 1_555
C3 C2 1_555 1_555
C4 C3 1_555 1_555
H5 C4 1_555 1_555
C5 C4 1_555 1_555
C6 C5 1_555 1_555
C7 C6 1_555 1_555
H6 C7 1_555 1_555
C8 C3 1_555 1_555
C9 O2 1_555 1_555
H7 C9 1_555 1_555
H8 C9 1_555 1_555
H9 C9 1_555 1_555
C10 O1 1_555 1_555
H10 C10 1_555 1_555
H11 C10 1_555 1_555
H12 C10 1_555 1_555
C11 C6 1_555 1_555
H13 C11 1_555 1_555
H14 C11 1_555 1_555
C12 C11 1_555 1_555
C13 C12 1_555 1_555
H15 C13 1_555 1_555
C14 C13 1_555 1_555
C15 C14 1_555 1_555
C16 C15 1_555 1_555
H16 C16 1_555 1_555
C17 C12 1_555 1_555
C18 C15 1_555 1_555
H17 C18 1_555 1_555
H18 C18 1_555 1_555
C19 C18 1_555 1_555
C20 C19 1_555 1_555
H19 C20 1_555 1_555
C21 C20 1_555 1_555
C22 C21 1_555 1_555
C23 C22 1_555 1_555
H20 C23 1_555 1_555
C24 C19 1_555 1_555
C25 O6 1_555 1_555
H21 C25 1_555 1_555
H22 C25 1_555 1_555
H23 C25 1_555 1_555
C26 O5 1_555 1_555
H24 C26 1_555 1_555
H25 C26 1_555 1_555
H26 C26 1_555 1_555
C27 C22 1_555 1_555
H27 C27 1_555 1_555
H28 C27 1_555 1_555
C28 C27 1_555 1_555
C29 C28 1_555 1_555
H29 C29 1_555 1_555
C30 C29 1_555 1_555
C31 C30 1_555 1_555
C32 C31 1_555 1_555
H30 C32 1_555 1_555
C33 C28 1_555 1_555
C34 C31 1_555 1_555
H31 C34 1_555 1_555
H32 C34 1_555 1_555
C35 C34 1_555 1_555
C36 C35 1_555 1_555
H33 C36 1_555 1_555
C37 C36 1_555 1_555
C38 C2 1_555 1_555
C39 C38 1_555 1_555
H34 C39 1_555 1_555
C40 C35 1_555 1_555
C7 C8 1_555 1_555
C16 C17 1_555 1_555
C23 C24 1_555 1_555
C32 C33 1_555 1_555
C37 C38 1_555 1_555
C39 C40 1_555 1_555

#END
