
#######################################################################
#
#                 Cambridge Crystallographic Data Centre
#                                CCDC 
#
#######################################################################
#
# If this CIF has been generated from an entry in the Cambridge 
# Structural Database, then it will include bibliographic, chemical, 
# crystal, experimental, refinement or atomic coordinate data resulting 
# from the CCDC's data processing and validation procedures.
#
#######################################################################

data_XIKXOH
_chemical_formula_moiety         'C29 H18 O2'
_chemical_name_systematic        
7,12-diphenyl-5H-benzo[d]naphtho[2,3-b]pyran-5-one
_symmetry_cell_setting           monoclinic
_symmetry_space_group_name_H-M   'P 21/n'
_symmetry_Int_Tables_number      14
_space_group_name_Hall           '-P 2yn'
loop_
_symmetry_equiv_pos_site_id
_symmetry_equiv_pos_as_xyz
1 x,y,z
2 1/2-x,1/2+y,1/2-z
3 -x,-y,-z
4 1/2+x,1/2-y,1/2+z
_cell_length_a                   8.6998(5)
_cell_length_b                   20.5044(11)
_cell_length_c                   11.2889(7)
_cell_angle_alpha                90
_cell_angle_beta                 101.984(6)
_cell_angle_gamma                90
_cell_volume                     1969.87
_exptl_crystal_colour            colorless
_exptl_crystal_description       block
_cell_formula_units_Z            4
loop_
_atom_site_label
_atom_site_type_symbol
_atom_site_fract_x
_atom_site_fract_y
_atom_site_fract_z
O1 O 0.93228(18) 0.15013(7) 0.58668(13)
O2 O 0.85325(15) 0.07668(6) 0.44798(11)
C1 C 0.7853(2) 0.08677(9) 0.75547(18)
H1 H 0.834003 0.126520 0.778251
C2 C 0.7036(2) 0.05635(9) 0.83087(18)
H2 H 0.696656 0.074924 0.904741
C3 C 0.6318(2) -0.00223(9) 0.79529(17)
H3 H 0.574023 -0.022788 0.845151
C4 C 0.6436(2) -0.03096(9) 0.68816(17)
H4 H 0.593892 -0.070712 0.667194
C5 C 0.7283(2) -0.00219(8) 0.60927(16)
C6 C 0.7964(2) 0.05890(8) 0.64472(17)
C7 C 0.8683(2) 0.09819(9) 0.56297(18)
C8 C 0.7906(2) 0.01590(8) 0.40902(16)
C9 C 0.7411(2) -0.02825(8) 0.48979(16)
C10 C 0.6999(2) -0.09135(8) 0.44608(16)
C11 C 0.6942(2) -0.10638(8) 0.32229(17)
C12 C 0.7312(2) -0.05807(8) 0.24167(16)
C13 C 0.7827(2) 0.00454(8) 0.28817(16)
C14 C 0.7132(2) -0.07363(9) 0.11786(18)
H5 H 0.735175 -0.042138 0.064452
C15 C 0.6643(2) -0.13389(10) 0.07491(19)
H6 H 0.652408 -0.142962 -0.007206
C16 C 0.6319(3) -0.18202(9) 0.1536(2)
H7 H 0.599458 -0.223172 0.123842
C17 C 0.6475(2) -0.16897(9) 0.27346(18)
H8 H 0.627169 -0.201805 0.324930
C18 C 0.6621(2) -0.14327(8) 0.52744(16)
C19 C 0.5081(2) -0.16499(9) 0.51655(19)
H9 H 0.430883 -0.150614 0.452059
C20 C 0.4684(3) -0.20747(9) 0.5999(2)
H10 H 0.364637 -0.220683 0.592743
C21 C 0.5830(3) -0.23034(10) 0.6940(2)
H11 H 0.556432 -0.258179 0.751612
C22 C 0.7370(3) -0.21173(10) 0.7021(2)
H12 H 0.814789 -0.228324 0.763974
C23 C 0.7769(3) -0.16874(9) 0.61951(18)
H13 H 0.881357 -0.156784 0.625631
C24 C 0.8173(2) 0.05824(8) 0.20878(16)
C25 C 0.9451(2) 0.05674(10) 0.15340(18)
H14 H 1.010647 0.020460 0.162721
C26 C 0.9755(3) 0.10878(11) 0.08450(19)
H15 H 1.062676 0.107767 0.048843
C27 C 0.8776(3) 0.16230(11) 0.0681(2)
H16 H 0.898068 0.197072 0.020771
C28 C 0.7503(3) 0.16416(10) 0.1214(2)
H17 H 0.683781 0.200146 0.110295
C29 C 0.7209(2) 0.11266(8) 0.19154(18)
H18 H 0.634545 0.114410 0.228127
loop_
_geom_bond_atom_site_label_1
_geom_bond_atom_site_label_2
_geom_bond_site_symmetry_1
_geom_bond_site_symmetry_2
O1 C7 1_555 1_555
O2 C7 1_555 1_555
C1 H1 1_555 1_555
C2 C1 1_555 1_555
H2 C2 1_555 1_555
C3 C2 1_555 1_555
H3 C3 1_555 1_555
C4 C3 1_555 1_555
H4 C4 1_555 1_555
C5 C4 1_555 1_555
C6 C1 1_555 1_555
C7 C6 1_555 1_555
C8 O2 1_555 1_555
C9 C5 1_555 1_555
C10 C9 1_555 1_555
C11 C10 1_555 1_555
C12 C11 1_555 1_555
C13 C8 1_555 1_555
C14 C12 1_555 1_555
H5 C14 1_555 1_555
C15 C14 1_555 1_555
H6 C15 1_555 1_555
C16 C15 1_555 1_555
H7 C16 1_555 1_555
C17 C11 1_555 1_555
H8 C17 1_555 1_555
C18 C10 1_555 1_555
C19 C18 1_555 1_555
H9 C19 1_555 1_555
C20 C19 1_555 1_555
H10 C20 1_555 1_555
C21 C20 1_555 1_555
H11 C21 1_555 1_555
C22 C21 1_555 1_555
H12 C22 1_555 1_555
C23 C18 1_555 1_555
H13 C23 1_555 1_555
C24 C13 1_555 1_555
C25 C24 1_555 1_555
H14 C25 1_555 1_555
C26 C25 1_555 1_555
H15 C26 1_555 1_555
C27 C26 1_555 1_555
H16 C27 1_555 1_555
C28 C27 1_555 1_555
H17 C28 1_555 1_555
C29 C24 1_555 1_555
H18 C29 1_555 1_555
C5 C6 1_555 1_555
C8 C9 1_555 1_555
C12 C13 1_555 1_555
C16 C17 1_555 1_555
C22 C23 1_555 1_555
C28 C29 1_555 1_555

#END
