
#######################################################################
#
#                 Cambridge Crystallographic Data Centre
#                                CCDC 
#
#######################################################################
#
# If this CIF has been generated from an entry in the Cambridge 
# Structural Database, then it will include bibliographic, chemical, 
# crystal, experimental, refinement or atomic coordinate data resulting 
# from the CCDC's data processing and validation procedures.
#
#######################################################################

data_XIKYOI
_chemical_formula_moiety         'C27 H23 Br1 Cl1 N3 O2 S1'
_chemical_name_systematic        
'4-bromo-N-[(2-{[(4-methylphenyl)sulfonyl]amino}phenyl)methyl]-N-phenylbenzene-1-carbohydrazonoyl chloride'
_symmetry_cell_setting           triclinic
_symmetry_space_group_name_H-M   'P -1'
_symmetry_Int_Tables_number      2
_space_group_name_Hall           '-P 1'
loop_
_symmetry_equiv_pos_site_id
_symmetry_equiv_pos_as_xyz
1 x,y,z
2 -x,-y,-z
_cell_length_a                   11.215(3)
_cell_length_b                   11.296(3)
_cell_length_c                   11.388(3)
_cell_angle_alpha                98.258(4)
_cell_angle_beta                 113.382(3)
_cell_angle_gamma                98.111(4)
_cell_volume                     1278.94
_exptl_crystal_colour            colorless
_exptl_crystal_description       Block
_cell_formula_units_Z            2
loop_
_atom_site_label
_atom_site_type_symbol
_atom_site_fract_x
_atom_site_fract_y
_atom_site_fract_z
Br1 Br 0.21848(9) 0.94837(6) 1.19060(6)
S1 S 0.21381(9) -0.01422(8) 0.62750(10)
Cl1 Cl 0.35290(14) 0.44259(14) 0.85081(13)
O1 O 0.0829(3) -0.0887(2) 0.5823(3)
N1 N 0.1958(3) 0.5472(2) 0.6671(3)
O2 O 0.3203(3) -0.0726(2) 0.6346(3)
N2 N 0.1916(3) 0.4667(2) 0.5647(3)
N3 N 0.1974(3) 0.0775(2) 0.5259(3)
H1 H 0.1310 0.1108 0.5181
C1 C 0.3076(3) 0.1683(3) 0.5378(3)
C2 C 0.3048(3) 0.2923(3) 0.5565(3)
C3 C 0.1484(3) 0.5069(3) 0.4458(3)
C4 C 0.1325(4) 0.6267(3) 0.4434(4)
H2 H 0.1491 0.6806 0.5207
C5 C 0.2552(3) 0.5476(3) 0.7870(4)
C6 C 0.2499(4) 0.6436(4) 0.8869(4)
C7 C 0.1839(3) 0.3352(3) 0.5608(4)
H3 H 0.1052 0.2891 0.4841
H4 H 0.1742 0.3172 0.6377
C8 C 0.4152(3) 0.3750(3) 0.5668(4)
H5 H 0.4158 0.4583 0.5798
C9 C 0.4167(4) 0.1298(3) 0.5267(4)
H6 H 0.4170 0.0467 0.5127
C10 C 0.5232(4) 0.2138(4) 0.5362(4)
H7 H 0.5949 0.1876 0.5277
C11 C 0.2577(4) 0.0750(3) 0.7846(4)
C12 C 0.5234(4) 0.3367(4) 0.5584(4)
H8 H 0.5966 0.3940 0.5676
C13 C 0.1272(4) 0.4302(4) 0.3286(4)
H9 H 0.1406 0.3507 0.3281
C14 C 0.1921(4) 0.7410(4) 0.8471(4)
H10 H 0.1589 0.7449 0.7592
C15 C 0.0926(4) 0.6660(4) 0.3279(5)
H11 H 0.0821 0.7462 0.3282
C16 C 0.0864(4) 0.4713(5) 0.2129(4)
H12 H 0.0714 0.4187 0.1353
C17 C 0.2999(5) 0.6411(5) 1.0186(4)
H13 H 0.3405 0.5779 1.0470
C18 C 0.0678(5) 0.5890(5) 0.2114(4)
H14 H 0.0390 0.6161 0.1334
C19 C 0.1835(5) 0.8318(4) 0.9366(4)
H15 H 0.1448 0.8964 0.9093
C20 C 0.2328(5) 0.8258(4) 1.0673(4)
C21 C 0.1619(5) 0.1187(4) 0.8143(5)
H16 H 0.0748 0.1038 0.7505
C22 C 0.3872(4) 0.0971(5) 0.8801(5)
H17 H 0.4525 0.0677 0.8613
C23 C 0.2906(5) 0.7303(5) 1.1080(4)
H18 H 0.3232 0.7264 1.1959
C24 C 0.3229(7) 0.2088(5) 1.0348(6)
C25 C 0.1953(7) 0.1842(5) 0.9379(6)
H19 H 0.1297 0.2127 0.9570
C26 C 0.4176(6) 0.1640(5) 1.0042(5)
H20 H 0.5044 0.1790 1.0686
C27 C 0.3614(10) 0.2826(7) 1.1732(7)
H21 H 0.3658 0.3678 1.1718
H22 H 0.4466 0.2720 1.2315
H23 H 0.2958 0.2542 1.2030
loop_
_geom_bond_atom_site_label_1
_geom_bond_atom_site_label_2
_geom_bond_site_symmetry_1
_geom_bond_site_symmetry_2
Br1 C20 1_555 1_555
S1 O1 1_555 1_555
Cl1 C5 1_555 1_555
N1 N2 1_555 1_555
O2 S1 1_555 1_555
N2 C3 1_555 1_555
N3 S1 1_555 1_555
H1 N3 1_555 1_555
C1 N3 1_555 1_555
C2 C1 1_555 1_555
C3 C4 1_555 1_555
C4 H2 1_555 1_555
C5 N1 1_555 1_555
C6 C5 1_555 1_555
C7 N2 1_555 1_555
H3 C7 1_555 1_555
H4 C7 1_555 1_555
C8 C2 1_555 1_555
H5 C8 1_555 1_555
C9 C1 1_555 1_555
H6 C9 1_555 1_555
C10 C9 1_555 1_555
H7 C10 1_555 1_555
C11 S1 1_555 1_555
C12 C8 1_555 1_555
H8 C12 1_555 1_555
C13 C3 1_555 1_555
H9 C13 1_555 1_555
C14 C6 1_555 1_555
H10 C14 1_555 1_555
C15 C4 1_555 1_555
H11 C15 1_555 1_555
C16 C13 1_555 1_555
H12 C16 1_555 1_555
C17 C6 1_555 1_555
H13 C17 1_555 1_555
C18 C15 1_555 1_555
H14 C18 1_555 1_555
C19 C14 1_555 1_555
H15 C19 1_555 1_555
C20 C19 1_555 1_555
C21 C11 1_555 1_555
H16 C21 1_555 1_555
C22 C11 1_555 1_555
H17 C22 1_555 1_555
C23 C17 1_555 1_555
H18 C23 1_555 1_555
C24 C25 1_555 1_555
C25 C21 1_555 1_555
H19 C25 1_555 1_555
C26 C22 1_555 1_555
H20 C26 1_555 1_555
C27 C24 1_555 1_555
H21 C27 1_555 1_555
H22 C27 1_555 1_555
H23 C27 1_555 1_555
C2 C7 1_555 1_555
C10 C12 1_555 1_555
C16 C18 1_555 1_555
C20 C23 1_555 1_555
C24 C26 1_555 1_555

#END
