
#######################################################################
#
#                 Cambridge Crystallographic Data Centre
#                                CCDC 
#
#######################################################################
#
# If this CIF has been generated from an entry in the Cambridge 
# Structural Database, then it will include bibliographic, chemical, 
# crystal, experimental, refinement or atomic coordinate data resulting 
# from the CCDC's data processing and validation procedures.
#
#######################################################################

data_XIKYIC
_chemical_formula_moiety         'C23 H24 N2 O3 S1'
_chemical_name_systematic        
3,9-dimethyl-1-[(4-methylphenyl)sulfonyl]-2-phenyl-1,2,3,5-tetrahydro-4,1,3-benzoxadiazepine
_symmetry_cell_setting           orthorhombic
_symmetry_space_group_name_H-M   'P b c a'
_symmetry_Int_Tables_number      61
_space_group_name_Hall           '-P 2ac 2ab'
loop_
_symmetry_equiv_pos_site_id
_symmetry_equiv_pos_as_xyz
1 x,y,z
2 1/2-x,-y,1/2+z
3 -x,1/2+y,1/2-z
4 1/2+x,1/2-y,-z
5 -x,-y,-z
6 1/2+x,y,1/2-z
7 x,1/2-y,1/2+z
8 1/2-x,1/2+y,z
_cell_length_a                   15.0009(12)
_cell_length_b                   15.2658(12)
_cell_length_c                   18.2849(15)
_cell_angle_alpha                90
_cell_angle_beta                 90
_cell_angle_gamma                90
_cell_volume                     4187.26
_exptl_crystal_colour            colorless
_exptl_crystal_description       Block
_cell_formula_units_Z            8
loop_
_atom_site_label
_atom_site_type_symbol
_atom_site_fract_x
_atom_site_fract_y
_atom_site_fract_z
S1 S 0.42400(3) 0.74575(3) 0.68121(3)
O1 O 0.61921(8) 0.65388(8) 0.73869(8)
O2 O 0.37696(9) 0.66831(9) 0.65970(8)
O3 O 0.37737(8) 0.82724(9) 0.68539(8)
N1 N 0.46393(9) 0.72611(9) 0.76342(8)
N2 N 0.57472(10) 0.62521(10) 0.80505(9)
C1 C 0.51208(12) 0.79659(11) 0.79918(10)
C2 C 0.41968(12) 0.61352(11) 0.85114(10)
C3 C 0.47956(12) 0.63455(11) 0.78698(10)
H1 H 0.4651 0.5951 0.7464
C4 C 0.51229(12) 0.76274(12) 0.61933(10)
C5 C 0.60510(12) 0.80277(12) 0.79152(11)
C6 C 0.46383(13) 0.85794(12) 0.83970(11)
C7 C 0.33192(13) 0.59020(13) 0.83675(12)
H2 H 0.3133 0.5829 0.7886
C8 C 0.55785(13) 0.84223(13) 0.62034(11)
H3 H 0.5427 0.8855 0.6539
C9 C 0.64793(15) 0.87553(14) 0.82063(12)
H4 H 0.7094 0.8808 0.8160
C10 C 0.66225(12) 0.73476(13) 0.75472(12)
H5 H 0.6848 0.7592 0.7094
H6 H 0.7132 0.7229 0.7859
C11 C 0.62570(14) 0.85572(15) 0.57089(12)
H7 H 0.6568 0.9084 0.5720
C12 C 0.53381(14) 0.69936(14) 0.56871(11)
H8 H 0.5033 0.6464 0.5680
C13 C 0.51016(16) 0.93047(13) 0.86674(12)
H9 H 0.4792 0.9733 0.8925
C14 C 0.64886(14) 0.79309(16) 0.51958(11)
C15 C 0.60046(15) 0.53371(14) 0.81437(14)
H10 H 0.5829 0.5008 0.7720
H11 H 0.5715 0.5102 0.8569
H12 H 0.6639 0.5299 0.8204
C16 C 0.44585(15) 0.62260(15) 0.92321(12)
H13 H 0.5043 0.6383 0.9341
C17 C 0.27196(15) 0.57775(15) 0.89302(14)
H14 H 0.2131 0.5634 0.8826
C18 C 0.60053(17) 0.93993(14) 0.85622(14)
H15 H 0.6295 0.9898 0.8731
C19 C 0.60149(15) 0.71548(16) 0.51892(12)
H16 H 0.6154 0.6730 0.4842
C20 C 0.36560(14) 0.84856(15) 0.85454(14)
H17 H 0.3324 0.8770 0.8164
H18 H 0.3516 0.8751 0.9007
H19 H 0.3502 0.7876 0.8559
C21 C 0.29896(16) 0.58645(15) 0.96446(13)
H20 H 0.2587 0.5775 1.0024
C22 C 0.38546(17) 0.60839(16) 0.97945(13)
H21 H 0.4040 0.6138 1.0278
C23 C 0.72207(17) 0.8098(2) 0.46454(14)
H22 H 0.7397 0.8702 0.4669
H23 H 0.7006 0.7967 0.4163
H24 H 0.7723 0.7732 0.4755
loop_
_geom_bond_atom_site_label_1
_geom_bond_atom_site_label_2
_geom_bond_site_symmetry_1
_geom_bond_site_symmetry_2
S1 O2 1_555 1_555
O1 N2 1_555 1_555
O3 S1 1_555 1_555
N1 S1 1_555 1_555
N2 C3 1_555 1_555
C1 N1 1_555 1_555
C2 C3 1_555 1_555
C3 N1 1_555 1_555
H1 C3 1_555 1_555
C4 S1 1_555 1_555
C5 C1 1_555 1_555
C6 C1 1_555 1_555
C7 C2 1_555 1_555
H2 C7 1_555 1_555
C8 C4 1_555 1_555
H3 C8 1_555 1_555
C9 C5 1_555 1_555
H4 C9 1_555 1_555
C10 O1 1_555 1_555
H5 C10 1_555 1_555
H6 C10 1_555 1_555
C11 C8 1_555 1_555
H7 C11 1_555 1_555
C12 C4 1_555 1_555
H8 C12 1_555 1_555
C13 C6 1_555 1_555
H9 C13 1_555 1_555
C14 C11 1_555 1_555
C15 N2 1_555 1_555
H10 C15 1_555 1_555
H11 C15 1_555 1_555
H12 C15 1_555 1_555
C16 C2 1_555 1_555
H13 C16 1_555 1_555
C17 C7 1_555 1_555
H14 C17 1_555 1_555
C18 C9 1_555 1_555
H15 C18 1_555 1_555
C19 C12 1_555 1_555
H16 C19 1_555 1_555
C20 C6 1_555 1_555
H17 C20 1_555 1_555
H18 C20 1_555 1_555
H19 C20 1_555 1_555
C21 C17 1_555 1_555
H20 C21 1_555 1_555
C22 C16 1_555 1_555
H21 C22 1_555 1_555
C23 C14 1_555 1_555
H22 C23 1_555 1_555
H23 C23 1_555 1_555
H24 C23 1_555 1_555
C5 C10 1_555 1_555
C13 C18 1_555 1_555
C14 C19 1_555 1_555
C21 C22 1_555 1_555

#END
