
#######################################################################
#
#                 Cambridge Crystallographic Data Centre
#                                CCDC 
#
#######################################################################
#
# If this CIF has been generated from an entry in the Cambridge 
# Structural Database, then it will include bibliographic, chemical, 
# crystal, experimental, refinement or atomic coordinate data resulting 
# from the CCDC's data processing and validation procedures.
#
#######################################################################

data_XILGAC
_chemical_formula_moiety         'C26 H28 B10'
_chemical_name_systematic        
1,2,3,11-Tetraphenyl-1,2-dicarba-closo-dodecaborane(8)
_symmetry_cell_setting           monoclinic
_symmetry_space_group_name_H-M   'P 21/c'
_symmetry_Int_Tables_number      14
_space_group_name_Hall           '-P 2ybc'
loop_
_symmetry_equiv_pos_site_id
_symmetry_equiv_pos_as_xyz
1 x,y,z
2 -x,1/2+y,1/2-z
3 -x,-y,-z
4 x,1/2-y,1/2+z
_cell_length_a                   18.545(3)
_cell_length_b                   10.3481(15)
_cell_length_c                   13.6761(19)
_cell_angle_alpha                90
_cell_angle_beta                 108.811(3)
_cell_angle_gamma                90
_cell_volume                     2484.34
_exptl_crystal_colour            colorless
_exptl_crystal_description       plate
_cell_formula_units_Z            4
loop_
_atom_site_label
_atom_site_type_symbol
_atom_site_fract_x
_atom_site_fract_y
_atom_site_fract_z
B1 B 0.34514(14) 0.9881(2) 0.5447(2)
B2 B 0.37285(15) 1.0545(3) 0.4420(2)
H1 H 0.4162 1.1311 0.4585
B3 B 0.29583(16) 1.0554(3) 0.3260(2)
H2 H 0.2895 1.1318 0.2679
B4 B 0.21423(15) 0.9886(2) 0.34880(19)
B5 B 0.23868(15) 0.8260(3) 0.3906(2)
H3 H 0.1942 0.7513 0.3744
B6 B 0.26947(17) 0.8927(3) 0.2918(2)
H4 H 0.2458 0.8611 0.2109
B7 B 0.36747(17) 0.9350(3) 0.3474(2)
H5 H 0.4074 0.9319 0.3030
B8 B 0.39586(16) 0.8927(3) 0.4808(2)
H6 H 0.4544 0.8612 0.5224
B9 B 0.31686(15) 0.8251(3) 0.5076(2)
H7 H 0.3232 0.7501 0.5667
B10 B 0.33165(17) 0.7924(3) 0.3873(2)
H8 H 0.3481 0.6959 0.3682
C1 C 0.28134(12) 1.0803(2) 0.44371(17)
C2 C 0.24808(12) 0.9429(2) 0.48290(16)
C3 C 0.25919(13) 1.2147(2) 0.46861(17)
C4 C 0.29870(16) 1.3193(2) 0.4472(2)
H9 H 0.3364 1.3058 0.4171
C5 C 0.28197(18) 1.4439(3) 0.4707(2)
H10 H 0.3094 1.5131 0.4573
C6 C 0.22597(18) 1.4662(3) 0.5131(2)
H11 H 0.2153 1.5500 0.5289
C7 C 0.18569(17) 1.3641(3) 0.5322(2)
H12 H 0.1470 1.3789 0.5604
C8 C 0.20178(15) 1.2389(2) 0.51020(19)
H13 H 0.1737 1.1705 0.5235
C9 C 0.19284(13) 0.93916(19) 0.54357(17)
C10 C 0.11872(14) 0.8967(2) 0.4955(2)
H14 H 0.1030 0.8749 0.4258
C11 C 0.06811(16) 0.8868(3) 0.5508(2)
H15 H 0.0188 0.8572 0.5181
C12 C 0.08977(16) 0.9199(3) 0.6529(2)
H16 H 0.0553 0.9141 0.6892
C13 C 0.16236(16) 0.9616(3) 0.7012(2)
H17 H 0.1772 0.9847 0.7706
C14 C 0.21431(14) 0.9699(3) 0.64730(18)
H18 H 0.2640 0.9964 0.6815
C15 C 0.38568(12) 1.0344(2) 0.65889(18)
C16 C 0.39874(15) 1.1632(3) 0.6890(2)
H19 H 0.3761 1.2279 0.6419
C17 C 0.44437(15) 1.1971(3) 0.7867(2)
H20 H 0.4524 1.2839 0.8047
C18 C 0.47821(16) 1.1029(3) 0.8578(2)
H21 H 0.5091 1.1259 0.9237
C19 C 0.46615(17) 0.9744(3) 0.8311(2)
H22 H 0.4891 0.9104 0.8787
C20 C 0.41990(15) 0.9413(3) 0.7332(2)
H23 H 0.4113 0.8544 0.7163
C21 C 0.13164(13) 1.0345(2) 0.28188(17)
C22 C 0.11038(14) 1.1629(2) 0.26193(19)
H24 H 0.1430 1.2275 0.2982
C23 C 0.04167(15) 1.1971(3) 0.1893(2)
H25 H 0.0285 1.2839 0.1780
C24 C -0.00741(15) 1.1031(3) 0.1336(2)
H26 H -0.0535 1.1258 0.0846
C25 C 0.01286(16) 0.9758(3) 0.1516(2)
H27 H -0.0197 0.9117 0.1145
C26 C 0.08100(15) 0.9416(2) 0.2242(2)
H28 H 0.0936 0.8546 0.2351
loop_
_geom_bond_atom_site_label_1
_geom_bond_atom_site_label_2
_geom_bond_site_symmetry_1
_geom_bond_site_symmetry_2
B1 B2 1_555 1_555
B2 H1 1_555 1_555
B3 B2 1_555 1_555
H2 B3 1_555 1_555
B4 B3 1_555 1_555
B5 B4 1_555 1_555
H3 B5 1_555 1_555
B6 B3 1_555 1_555
H4 B6 1_555 1_555
B7 B2 1_555 1_555
H5 B7 1_555 1_555
B8 B1 1_555 1_555
H6 B8 1_555 1_555
B9 B1 1_555 1_555
H7 B9 1_555 1_555
B10 B5 1_555 1_555
H8 B10 1_555 1_555
C1 B1 1_555 1_555
C2 B1 1_555 1_555
C3 C1 1_555 1_555
C4 C3 1_555 1_555
H9 C4 1_555 1_555
C5 C4 1_555 1_555
H10 C5 1_555 1_555
C6 C5 1_555 1_555
H11 C6 1_555 1_555
C7 C6 1_555 1_555
H12 C7 1_555 1_555
C8 C3 1_555 1_555
H13 C8 1_555 1_555
C9 C2 1_555 1_555
C10 C9 1_555 1_555
H14 C10 1_555 1_555
C11 C10 1_555 1_555
H15 C11 1_555 1_555
C12 C11 1_555 1_555
H16 C12 1_555 1_555
C13 C12 1_555 1_555
H17 C13 1_555 1_555
C14 C9 1_555 1_555
H18 C14 1_555 1_555
C15 B1 1_555 1_555
C16 C15 1_555 1_555
H19 C16 1_555 1_555
C17 C16 1_555 1_555
H20 C17 1_555 1_555
C18 C17 1_555 1_555
H21 C18 1_555 1_555
C19 C18 1_555 1_555
H22 C19 1_555 1_555
C20 C15 1_555 1_555
H23 C20 1_555 1_555
C21 B4 1_555 1_555
C22 C21 1_555 1_555
H24 C22 1_555 1_555
C23 C22 1_555 1_555
H25 C23 1_555 1_555
C24 C23 1_555 1_555
H26 C24 1_555 1_555
C25 C24 1_555 1_555
H27 C25 1_555 1_555
C26 C21 1_555 1_555
H28 C26 1_555 1_555
B2 B8 1_555 1_555
B2 C1 1_555 1_555
B3 B7 1_555 1_555
B3 C1 1_555 1_555
B4 B6 1_555 1_555
B4 C1 1_555 1_555
B4 C2 1_555 1_555
B5 B6 1_555 1_555
B5 B9 1_555 1_555
B5 C2 1_555 1_555
B6 B7 1_555 1_555
B6 B10 1_555 1_555
B7 B8 1_555 1_555
B7 B10 1_555 1_555
B8 B9 1_555 1_555
B8 B10 1_555 1_555
B9 B10 1_555 1_555
B9 C2 1_555 1_555
C1 C2 1_555 1_555
C7 C8 1_555 1_555
C13 C14 1_555 1_555
C19 C20 1_555 1_555
C25 C26 1_555 1_555

#END
