
#######################################################################
#
#                 Cambridge Crystallographic Data Centre
#                                CCDC 
#
#######################################################################
#
# If this CIF has been generated from an entry in the Cambridge 
# Structural Database, then it will include bibliographic, chemical, 
# crystal, experimental, refinement or atomic coordinate data resulting 
# from the CCDC's data processing and validation procedures.
#
#######################################################################

data_XILMOX
_chemical_formula_moiety         'C30 H29 N3 O2 S1'
_chemical_name_systematic        
8,9-dimethyl-5-(4-methylphenyl)-1-[(4-methylphenyl)sulfonyl]-3-phenyl-2,3-dihydro-1H-1,3,4-benzotriazepine
_symmetry_cell_setting           monoclinic
_symmetry_space_group_name_H-M   'P 21/c'
_symmetry_Int_Tables_number      14
_space_group_name_Hall           '-P 2ybc'
loop_
_symmetry_equiv_pos_site_id
_symmetry_equiv_pos_as_xyz
1 x,y,z
2 -x,1/2+y,1/2-z
3 -x,-y,-z
4 x,1/2-y,1/2+z
_cell_length_a                   10.9906(3)
_cell_length_b                   21.3939(5)
_cell_length_c                   11.9751(3)
_cell_angle_alpha                90
_cell_angle_beta                 116.927(4)
_cell_angle_gamma                90
_cell_volume                     2510.46
_exptl_crystal_colour            colorless
_exptl_crystal_description       Block
_cell_formula_units_Z            4
loop_
_atom_site_label
_atom_site_type_symbol
_atom_site_fract_x
_atom_site_fract_y
_atom_site_fract_z
S1 S 1.01779(4) 0.48110(2) 0.70034(4)
O1 O 1.08606(12) 0.53378(6) 0.77642(12)
O2 O 1.06857(13) 0.45257(6) 0.62234(12)
N1 N 0.72070(13) 0.41240(6) 0.52142(12)
N2 N 0.66945(13) 0.40873(6) 0.60493(11)
N3 N 0.86222(13) 0.50415(6) 0.60654(12)
C1 C 0.80384(16) 0.61116(7) 0.63571(14)
C2 C 0.78957(15) 0.54679(7) 0.64682(13)
C3 C 0.69299(15) 0.52134(7) 0.68004(14)
C4 C 0.70178(15) 0.35831(7) 0.44789(14)
C5 C 0.59469(15) 0.43272(7) 0.75329(14)
C6 C 0.66137(15) 0.45334(7) 0.67452(14)
C7 C 1.00897(15) 0.42257(7) 0.79924(14)
C8 C 0.46885(16) 0.40279(7) 0.69971(14)
H1 H 0.4284 0.3927 0.6150
C9 C 0.77921(17) 0.46841(7) 0.49485(14)
H2 H 0.8348 0.4562 0.4545
H3 H 0.7059 0.4947 0.4369
C10 C 1.03171(17) 0.43831(8) 0.91920(15)
H4 H 1.0506 0.4795 0.9466
C11 C 0.72223(16) 0.65193(7) 0.66501(15)
C12 C 0.63403(17) 0.62697(8) 0.70733(16)
H5 H 0.5845 0.6539 0.7322
C13 C 0.61783(16) 0.56355(8) 0.71349(15)
H6 H 0.5560 0.5485 0.7403
C14 C 0.98134(17) 0.36118(8) 0.75777(15)
H7 H 0.9678 0.3505 0.6777
C15 C 0.71416(17) 0.36018(8) 0.33683(15)
H8 H 0.7377 0.3973 0.3112
C16 C 0.46057(17) 0.40148(8) 0.89816(15)
C17 C 0.40309(16) 0.38789(8) 0.77126(15)
H9 H 0.3184 0.3683 0.7333
C18 C 0.66667(18) 0.30160(8) 0.48350(16)
H10 H 0.6591 0.2992 0.5576
C19 C 0.65363(17) 0.44526(8) 0.88103(15)
H11 H 0.7387 0.4645 0.9193
C20 C 0.58820(18) 0.42969(8) 0.95216(15)
H12 H 0.6303 0.4382 1.0376
C21 C 0.89991(19) 0.63682(8) 0.58924(18)
H13 H 0.9797 0.6532 0.6585
H14 H 0.8554 0.6696 0.5299
H15 H 0.9260 0.6041 0.5496
C22 C 0.64313(19) 0.24902(8) 0.40963(17)
H16 H 0.6190 0.2117 0.4343
C23 C 0.97434(18) 0.31625(8) 0.83724(16)
H17 H 0.9538 0.2753 0.8091
C24 C 0.69141(19) 0.30666(9) 0.26482(16)
H18 H 0.7010 0.3083 0.1916
C25 C 0.99731(18) 0.33080(9) 0.95836(16)
C26 C 1.02614(18) 0.39254(9) 0.99787(16)
H19 H 1.0419 0.4031 1.0786
C27 C 0.6549(2) 0.25097(9) 0.29963(17)
H20 H 0.6385 0.2155 0.2500
C28 C 0.7219(2) 0.72139(8) 0.64349(19)
H21 H 0.8142 0.7363 0.6786
H22 H 0.6743 0.7422 0.6830
H23 H 0.6771 0.7298 0.5552
C29 C 0.3873(2) 0.38651(10) 0.97499(18)
H24 H 0.2995 0.3688 0.9219
H25 H 0.3755 0.4241 1.0128
H26 H 0.4400 0.3570 1.0392
C30 C 0.9950(2) 0.28043(11) 1.04510(19)
H27 H 0.9356 0.2473 0.9969
H28 H 0.9624 0.2976 1.1007
H29 H 1.0855 0.2643 1.0931
loop_
_geom_bond_atom_site_label_1
_geom_bond_atom_site_label_2
_geom_bond_site_symmetry_1
_geom_bond_site_symmetry_2
S1 O1 1_555 1_555
O2 S1 1_555 1_555
N1 N2 1_555 1_555
N2 C6 1_555 1_555
N3 S1 1_555 1_555
C1 C2 1_555 1_555
C2 N3 1_555 1_555
C3 C2 1_555 1_555
C4 N1 1_555 1_555
C5 C6 1_555 1_555
C6 C3 1_555 1_555
C7 S1 1_555 1_555
C8 C5 1_555 1_555
H1 C8 1_555 1_555
C9 N1 1_555 1_555
H2 C9 1_555 1_555
H3 C9 1_555 1_555
C10 C7 1_555 1_555
H4 C10 1_555 1_555
C11 C1 1_555 1_555
C12 C11 1_555 1_555
H5 C12 1_555 1_555
C13 C3 1_555 1_555
H6 C13 1_555 1_555
C14 C7 1_555 1_555
H7 C14 1_555 1_555
C15 C4 1_555 1_555
H8 C15 1_555 1_555
C16 C17 1_555 1_555
C17 C8 1_555 1_555
H9 C17 1_555 1_555
C18 C4 1_555 1_555
H10 C18 1_555 1_555
C19 C5 1_555 1_555
H11 C19 1_555 1_555
C20 C16 1_555 1_555
H12 C20 1_555 1_555
C21 C1 1_555 1_555
H13 C21 1_555 1_555
H14 C21 1_555 1_555
H15 C21 1_555 1_555
C22 C18 1_555 1_555
H16 C22 1_555 1_555
C23 C14 1_555 1_555
H17 C23 1_555 1_555
C24 C15 1_555 1_555
H18 C24 1_555 1_555
C25 C23 1_555 1_555
C26 C10 1_555 1_555
H19 C26 1_555 1_555
C27 C22 1_555 1_555
H20 C27 1_555 1_555
C28 C11 1_555 1_555
H21 C28 1_555 1_555
H22 C28 1_555 1_555
H23 C28 1_555 1_555
C29 C16 1_555 1_555
H24 C29 1_555 1_555
H25 C29 1_555 1_555
H26 C29 1_555 1_555
C30 C25 1_555 1_555
H27 C30 1_555 1_555
H28 C30 1_555 1_555
H29 C30 1_555 1_555
N3 C9 1_555 1_555
C12 C13 1_555 1_555
C19 C20 1_555 1_555
C24 C27 1_555 1_555
C25 C26 1_555 1_555

#END
