
#######################################################################
#
#                 Cambridge Crystallographic Data Centre
#                                CCDC 
#
#######################################################################
#
# If this CIF has been generated from an entry in the Cambridge 
# Structural Database, then it will include bibliographic, chemical, 
# crystal, experimental, refinement or atomic coordinate data resulting 
# from the CCDC's data processing and validation procedures.
#
#######################################################################

data_XILROB
_chemical_formula_moiety         'C32 H26 N2 O2'
_chemical_name_systematic        
(4-Methoxyphenyl)(5-methyl-1,2-diphenyl-2,5-dihydro-1H-pyrido[4,3-b]indol-4-yl)methanone
_symmetry_cell_setting           triclinic
_symmetry_space_group_name_H-M   'P -1'
_symmetry_Int_Tables_number      2
_space_group_name_Hall           '-P 1'
loop_
_symmetry_equiv_pos_site_id
_symmetry_equiv_pos_as_xyz
1 x,y,z
2 -x,-y,-z
_cell_length_a                   9.4076(11)
_cell_length_b                   12.4038(14)
_cell_length_c                   12.7392(15)
_cell_angle_alpha                106.651(2)
_cell_angle_beta                 110.100(2)
_cell_angle_gamma                107.071(2)
_cell_volume                     1203.82
_exptl_crystal_colour            green
_exptl_crystal_description       prismatic
_cell_formula_units_Z            2
loop_
_atom_site_label
_atom_site_type_symbol
_atom_site_fract_x
_atom_site_fract_y
_atom_site_fract_z
N1 N 0.75950(18) 0.48348(13) 0.32966(13)
N2 N 0.87297(19) 0.57439(14) 0.69888(13)
O1 O 0.72372(16) 0.28919(12) 0.58536(12)
O2 O 0.04978(18) -0.14565(13) 0.14657(13)
C1 C 1.0071(2) 0.69156(16) 0.75824(16)
C2 C 1.1047(3) 0.77074(19) 0.88360(17)
H1 H 1.0817 0.7497 0.9424
C3 C 1.2365(3) 0.8814(2) 0.91833(19)
H2 H 1.3038 0.9359 1.0019
C4 C 1.2711(3) 0.91323(19) 0.83043(19)
H3 H 1.3611 0.9886 0.8565
C5 C 1.1747(2) 0.83543(17) 0.70629(18)
H4 H 1.1987 0.8575 0.6483
C6 C 1.0400(2) 0.72242(16) 0.66826(16)
C7 C 0.9200(2) 0.61948(15) 0.55169(15)
C8 C 0.8236(2) 0.53070(16) 0.57315(15)
C9 C 0.6981(2) 0.40870(16) 0.47249(16)
C10 C 0.6780(2) 0.39547(16) 0.35753(16)
H5 H 0.6003 0.3180 0.2917
C11 C 0.8923(2) 0.61036(15) 0.42599(15)
H6 H 0.9973 0.6226 0.4213
C12 C 0.8406(2) 0.70920(15) 0.40132(15)
C13 C 0.6926(2) 0.70901(17) 0.39998(17)
H7 H 0.6282 0.6499 0.4165
C14 C 0.6396(3) 0.79520(19) 0.37454(18)
H8 H 0.5394 0.7936 0.3729
C15 C 0.7356(3) 0.88355(19) 0.35167(19)
H9 H 0.6993 0.9410 0.3331
C16 C 0.8851(3) 0.88739(18) 0.35609(19)
H10 H 0.9512 0.9488 0.3428
C17 C 0.9375(2) 0.79993(16) 0.38036(17)
H11 H 1.0382 0.8023 0.3826
C18 C 0.7217(2) 0.45701(16) 0.20374(16)
C19 C 0.5634(3) 0.3731(2) 0.10837(19)
H12 H 0.4797 0.3335 0.1257
C20 C 0.5289(3) 0.3476(3) -0.0127(2)
H13 H 0.4223 0.2897 -0.0765
C21 C 0.6484(3) 0.4058(3) -0.0404(2)
H14 H 0.6241 0.3879 -0.1223
C22 C 0.8047(3) 0.4910(2) 0.05395(19)
H15 H 0.8865 0.5320 0.0358
C23 C 0.8428(2) 0.51689(18) 0.17557(17)
H16 H 0.9499 0.5747 0.2388
C24 C 0.6408(2) 0.29539(16) 0.49002(16)
C25 C 0.4829(2) 0.18284(16) 0.39141(16)
C26 C 0.4724(2) 0.06546(17) 0.38215(18)
H17 H 0.5656 0.0599 0.4332
C27 C 0.3282(2) -0.04127(18) 0.29968(19)
H18 H 0.3243 -0.1187 0.2939
C28 C 0.1873(2) -0.03395(17) 0.22455(17)
C29 C 0.1923(2) 0.08119(18) 0.23439(17)
H19 H 0.0971 0.0866 0.1861
C30 C 0.3403(2) 0.18842(17) 0.31674(17)
H20 H 0.3441 0.2657 0.3221
C31 C -0.0986(3) -0.1451(2) 0.0687(2)
H21 H -0.1339 -0.0962 0.1184
H22 H -0.1854 -0.2293 0.0200
H23 H -0.0774 -0.1096 0.0148
C32 C 0.7816(3) 0.5265(2) 0.75965(19)
H24 H 0.8202 0.4708 0.7863
H25 H 0.6636 0.4822 0.7026
H26 H 0.8007 0.5948 0.8302
loop_
_geom_bond_atom_site_label_1
_geom_bond_atom_site_label_2
_geom_bond_site_symmetry_1
_geom_bond_site_symmetry_2
N1 C10 1_555 1_555
N2 C1 1_555 1_555
O1 C24 1_555 1_555
O2 C28 1_555 1_555
C1 C2 1_555 1_555
C2 H1 1_555 1_555
C3 C2 1_555 1_555
H2 C3 1_555 1_555
C4 C3 1_555 1_555
H3 C4 1_555 1_555
C5 C4 1_555 1_555
H4 C5 1_555 1_555
C6 C1 1_555 1_555
C7 C6 1_555 1_555
C8 N2 1_555 1_555
C9 C8 1_555 1_555
C10 C9 1_555 1_555
H5 C10 1_555 1_555
C11 N1 1_555 1_555
H6 C11 1_555 1_555
C12 C11 1_555 1_555
C13 C12 1_555 1_555
H7 C13 1_555 1_555
C14 C13 1_555 1_555
H8 C14 1_555 1_555
C15 C14 1_555 1_555
H9 C15 1_555 1_555
C16 C15 1_555 1_555
H10 C16 1_555 1_555
C17 C12 1_555 1_555
H11 C17 1_555 1_555
C18 N1 1_555 1_555
C19 C18 1_555 1_555
H12 C19 1_555 1_555
C20 C19 1_555 1_555
H13 C20 1_555 1_555
C21 C20 1_555 1_555
H14 C21 1_555 1_555
C22 C21 1_555 1_555
H15 C22 1_555 1_555
C23 C18 1_555 1_555
H16 C23 1_555 1_555
C24 C9 1_555 1_555
C25 C24 1_555 1_555
C26 C25 1_555 1_555
H17 C26 1_555 1_555
C27 C26 1_555 1_555
H18 C27 1_555 1_555
C28 C27 1_555 1_555
C29 C28 1_555 1_555
H19 C29 1_555 1_555
C30 C25 1_555 1_555
H20 C30 1_555 1_555
C31 O2 1_555 1_555
H21 C31 1_555 1_555
H22 C31 1_555 1_555
H23 C31 1_555 1_555
C32 N2 1_555 1_555
H24 C32 1_555 1_555
H25 C32 1_555 1_555
H26 C32 1_555 1_555
C5 C6 1_555 1_555
C7 C8 1_555 1_555
C7 C11 1_555 1_555
C16 C17 1_555 1_555
C22 C23 1_555 1_555
C29 C30 1_555 1_555

#END
