
#######################################################################
#
#                 Cambridge Crystallographic Data Centre
#                                CCDC 
#
#######################################################################
#
# If this CIF has been generated from an entry in the Cambridge 
# Structural Database, then it will include bibliographic, chemical, 
# crystal, experimental, refinement or atomic coordinate data resulting 
# from the CCDC's data processing and validation procedures.
#
#######################################################################

data_XIMBIF
_chemical_formula_moiety         'C21 H15 F1 N4 O3'
_chemical_name_systematic        
'2-(1H-Benzotriazol-1-yl)-1-(4-fluorobenzoyl)ethyl isonicotinate'
_symmetry_cell_setting           orthorhombic
_symmetry_space_group_name_H-M   'P b c a'
_symmetry_Int_Tables_number      61
_space_group_name_Hall           '-P 2ac 2ab'
loop_
_symmetry_equiv_pos_site_id
_symmetry_equiv_pos_as_xyz
1 x,y,z
2 1/2-x,-y,1/2+z
3 -x,1/2+y,1/2-z
4 1/2+x,1/2-y,-z
5 -x,-y,-z
6 1/2+x,y,1/2-z
7 x,1/2-y,1/2+z
8 1/2-x,1/2+y,z
_cell_length_a                   18.475(2)
_cell_length_b                   10.3014(13)
_cell_length_c                   19.723(3)
_cell_angle_alpha                90
_cell_angle_beta                 90
_cell_angle_gamma                90
_cell_volume                     3753.65
_exptl_crystal_colour            colorless
_exptl_crystal_description       needle
_cell_formula_units_Z            8
_exptl_crystal_recrystallization_method 'ethyl acetate'
loop_
_atom_site_label
_atom_site_type_symbol
_atom_site_fract_x
_atom_site_fract_y
_atom_site_fract_z
O1 O 0.16082(10) 0.45024(19) 0.08610(9)
N1 N 0.30549(13) 0.3692(2) 0.11244(11)
C1 C 0.17406(14) 0.3606(3) 0.27131(13)
C2 C 0.17486(15) 0.3570(3) 0.13831(12)
H1 H 0.1344 0.2959 0.1415
O2 O 0.20182(14) 0.5415(2) 0.20452(10)
F1 F 0.14705(13) 0.1940(2) 0.45729(9)
N2 N 0.31636(15) 0.4500(3) 0.05856(12)
C3 C 0.18444(16) 0.4281(3) 0.20601(13)
C4 C 0.17641(17) 0.4344(3) 0.32980(14)
H2 H 0.1847 0.5232 0.3265
N3 N 0.37415(16) 0.5183(3) 0.06951(14)
C5 C 0.16128(17) 0.2295(3) 0.27654(14)
H3 H 0.1582 0.1790 0.2376
C6 C 0.24246(16) 0.2864(3) 0.11506(13)
H4 H 0.2520 0.2148 0.1457
H5 H 0.2339 0.2503 0.0703
C7 C 0.09670(18) 0.5097(3) 0.08663(15)
C8 C 0.16677(17) 0.3796(4) 0.39278(15)
H6 H 0.1680 0.4298 0.4319
O3 O 0.05007(13) 0.4850(3) 0.12680(13)
N4 N 0.0783(2) 0.7918(3) -0.07079(17)
C9 C 0.35878(15) 0.3866(3) 0.15918(14)
C10 C 0.40250(17) 0.4819(3) 0.13141(15)
C11 C 0.09210(16) 0.6081(3) 0.03198(14)
C12 C 0.15539(17) 0.2500(4) 0.39558(14)
C13 C 0.14422(17) 0.6214(3) -0.01731(14)
H7 H 0.1853 0.5694 -0.0170
C14 C 0.43413(19) 0.3756(4) 0.25411(17)
H8 H 0.4464 0.3406 0.2960
C15 C 0.1529(2) 0.1726(3) 0.33972(16)
H9 H 0.1458 0.0836 0.3438
C16 C 0.37350(18) 0.3308(3) 0.22210(15)
H10 H 0.3440 0.2673 0.2410
C17 C 0.1344(2) 0.7133(3) -0.06715(17)
H11 H 0.1698 0.7205 -0.1005
C18 C 0.46429(18) 0.5250(4) 0.16520(17)
H12 H 0.4945 0.5877 0.1465
C19 C 0.47831(18) 0.4714(4) 0.22652(18)
H13 H 0.5185 0.4994 0.2508
C20 C 0.0339(2) 0.6903(4) 0.02977(19)
H14 H -0.0021 0.6859 0.0627
C21 C 0.0296(2) 0.7797(4) -0.0222(2)
H15 H -0.0102 0.8350 -0.0230
loop_
_geom_bond_atom_site_label_1
_geom_bond_atom_site_label_2
_geom_bond_site_symmetry_1
_geom_bond_site_symmetry_2
O1 C2 1_555 1_555
N1 N2 1_555 1_555
C1 C3 1_555 1_555
C2 H1 1_555 1_555
O2 C3 1_555 1_555
F1 C12 1_555 1_555
N2 N3 1_555 1_555
C3 C2 1_555 1_555
C4 C1 1_555 1_555
H2 C4 1_555 1_555
N3 C10 1_555 1_555
C5 C1 1_555 1_555
H3 C5 1_555 1_555
C6 N1 1_555 1_555
H4 C6 1_555 1_555
H5 C6 1_555 1_555
C7 O1 1_555 1_555
C8 C4 1_555 1_555
H6 C8 1_555 1_555
O3 C7 1_555 1_555
N4 C17 1_555 1_555
C9 N1 1_555 1_555
C10 C9 1_555 1_555
C11 C7 1_555 1_555
C12 C8 1_555 1_555
C13 C11 1_555 1_555
H7 C13 1_555 1_555
C14 H8 1_555 1_555
C15 C5 1_555 1_555
H9 C15 1_555 1_555
C16 C9 1_555 1_555
H10 C16 1_555 1_555
C17 C13 1_555 1_555
H11 C17 1_555 1_555
C18 C10 1_555 1_555
H12 C18 1_555 1_555
C19 C14 1_555 1_555
H13 C19 1_555 1_555
C20 C11 1_555 1_555
H14 C20 1_555 1_555
C21 N4 1_555 1_555
H15 C21 1_555 1_555
C2 C6 1_555 1_555
C12 C15 1_555 1_555
C14 C16 1_555 1_555
C18 C19 1_555 1_555
C20 C21 1_555 1_555

#END
