
#######################################################################
#
#                 Cambridge Crystallographic Data Centre
#                                CCDC 
#
#######################################################################
#
# If this CIF has been generated from an entry in the Cambridge 
# Structural Database, then it will include bibliographic, chemical, 
# crystal, experimental, refinement or atomic coordinate data resulting 
# from the CCDC's data processing and validation procedures.
#
#######################################################################

data_XIMBOL
_chemical_formula_moiety         'C14 H21 N1 O4'
_chemical_name_systematic        
'2-t-Butyl 4-ethyl 3,5-dimethyl-1H-pyrrole-2,4-dicarboxylate'
_symmetry_cell_setting           monoclinic
_symmetry_space_group_name_H-M   'C 2/m'
_symmetry_Int_Tables_number      12
_space_group_name_Hall           '-C 2y'
loop_
_symmetry_equiv_pos_site_id
_symmetry_equiv_pos_as_xyz
1 x,y,z
2 1/2+x,1/2+y,z
3 -x,y,-z
4 1/2-x,1/2+y,-z
5 -x,-y,-z
6 1/2-x,1/2-y,-z
7 x,-y,z
8 1/2+x,1/2-y,z
_cell_length_a                   18.570(4)
_cell_length_b                   7.1420(14)
_cell_length_c                   12.431(3)
_cell_angle_alpha                90
_cell_angle_beta                 116.46(3)
_cell_angle_gamma                90
_cell_volume                     1475.98
_exptl_crystal_colour            white
_exptl_crystal_description       block
_cell_formula_units_Z            4
_exptl_crystal_recrystallization_method methanol
loop_
_atom_site_label
_atom_site_type_symbol
_atom_site_fract_x
_atom_site_fract_y
_atom_site_fract_z
N1 N 0.1275(2) 0.0000 0.0227(3)
H1 H 0.0763 0.0000 -0.0214
O1 O 0.32742(17) 0.0000 -0.0354(3)
O2 O 0.39992(18) 0.0000 0.1619(3)
O3 O 0.04155(18) 0.0000 0.1558(3)
O4 O 0.15571(17) 0.0000 0.3287(2)
C1 C 0.3784(3) 0.0000 -0.1789(4)
H2 H 0.4260 0.0000 -0.1911
H3 H 0.3471 -0.1098 -0.2152
C2 C 0.4002(2) 0.0000 -0.0504(4)
H4 H 0.4323 -0.1087 -0.0142
C3 C 0.3360(3) 0.0000 0.0753(4)
C4 C 0.2571(2) 0.0000 0.0810(4)
C5 C 0.2468(2) 0.0000 0.1835(4)
C6 C 0.1645(2) 0.0000 0.1481(4)
C7 C 0.1821(2) 0.0000 -0.0197(4)
C8 C 0.1544(3) 0.0000 -0.1516(4)
H5 H 0.0969 0.0000 -0.1966
H6 H 0.1760 0.1098 -0.1712
C9 C 0.3123(3) 0.0000 0.3113(4)
H7 H 0.3645 0.0000 0.3130
H8 H 0.3066 0.1098 0.3514
C10 C 0.1142(3) 0.0000 0.2074(4)
C11 C 0.0679(2) 0.1808(6) 0.3897(3)
H9 H 0.1018 0.2865 0.3976
H10 H 0.0483 0.1882 0.4492
H11 H 0.0232 0.1809 0.3110
C12 C 0.1879(3) 0.0000 0.5340(4)
H12 H 0.2211 -0.1066 0.5408
H13 H 0.1698 0.0000 0.5952
C13 C 0.1162(3) 0.0000 0.4075(4)
H3F H 0.3471 0.1098 -0.2152
H4F H 0.4323 0.1087 -0.0142
H6F H 0.1760 -0.1098 -0.1712
H8F H 0.3066 -0.1098 0.3514
C11F C 0.0679(2) -0.1808(6) 0.3897(3)
H9F H 0.1018 -0.2865 0.3976
H10F H 0.0483 -0.1882 0.4492
H11F H 0.0232 -0.1809 0.3110
H12F H 0.2211 0.1066 0.5408
loop_
_geom_bond_atom_site_label_1
_geom_bond_atom_site_label_2
_geom_bond_site_symmetry_1
_geom_bond_site_symmetry_2
N1 H1 1_555 1_555
O1 C2 1_555 1_555
O2 C3 1_555 1_555
O3 C10 1_555 1_555
O4 C10 1_555 1_555
C1 H2 1_555 1_555
H3 C1 1_555 1_555
C2 C1 1_555 1_555
H4 C2 1_555 1_555
C3 O1 1_555 1_555
C4 C3 1_555 1_555
C5 C4 1_555 1_555
C6 N1 1_555 1_555
C7 N1 1_555 1_555
C8 C7 1_555 1_555
H5 C8 1_555 1_555
H6 C8 1_555 1_555
C9 C5 1_555 1_555
H7 C9 1_555 1_555
H8 C9 1_555 1_555
C10 C6 1_555 1_555
C11 H9 1_555 1_555
H10 C11 1_555 1_555
H11 C11 1_555 1_555
C12 H12 1_555 1_555
H13 C12 1_555 1_555
C13 O4 1_555 1_555
H3F C1 1_555 1_555
H4F C2 1_555 1_555
H6F C8 1_555 1_555
H8F C9 1_555 1_555
C11F C13 1_555 1_555
H9F C11F 1_555 1_555
H10F C11F 1_555 1_555
H11F C11F 1_555 1_555
H12F C12 1_555 1_555
C4 C7 1_555 1_555
C5 C6 1_555 1_555
C11 C13 1_555 1_555
C12 C13 1_555 1_555

#END
