
#######################################################################
#
#                 Cambridge Crystallographic Data Centre
#                                CCDC 
#
#######################################################################
#
# If this CIF has been generated from an entry in the Cambridge 
# Structural Database, then it will include bibliographic, chemical, 
# crystal, experimental, refinement or atomic coordinate data resulting 
# from the CCDC's data processing and validation procedures.
#
#######################################################################

data_XINCUS01
_chemical_formula_moiety         'C14 H8 N2'
_chemical_name_systematic        (1-naphthylmethylene)malononitrile
_symmetry_cell_setting           monoclinic
_symmetry_space_group_name_H-M   'P 21/n'
_symmetry_Int_Tables_number      14
_space_group_name_Hall           '-P 2yn'
loop_
_symmetry_equiv_pos_site_id
_symmetry_equiv_pos_as_xyz
1 x,y,z
2 1/2-x,1/2+y,1/2-z
3 -x,-y,-z
4 1/2+x,1/2-y,1/2+z
_cell_length_a                   3.8269(4)
_cell_length_b                   15.7916(15)
_cell_length_c                   17.2303(16)
_cell_angle_alpha                90
_cell_angle_beta                 91.290
_cell_angle_gamma                90
_cell_volume                     1041.01
_exptl_crystal_colour            yellow
_exptl_crystal_description       rectangular
_chemical_melting_point          '439.5 K'
_cell_formula_units_Z            4
loop_
_atom_site_label
_atom_site_type_symbol
_atom_site_fract_x
_atom_site_fract_y
_atom_site_fract_z
C1 C 0.4938(3) 0.08696(9) 0.23109(9)
C2 C 0.3709(4) 0.13975(9) 0.29248(8)
N1 N 0.6779(4) 0.28231(10) 0.45655(9)
C3 C 0.5678(4) -0.00005(10) 0.24022(10)
H1 H 0.5375 -0.0257 0.2882
C4 C 0.2984(4) 0.10329(10) 0.36780(9)
C5 C 0.4886(4) 0.21186(10) 0.14740(10)
H2 H 0.5290 0.2366 0.0994
C6 C 0.3681(4) 0.26050(10) 0.20609(10)
H3 H 0.3251 0.3178 0.1980
C7 C 0.7369(4) -0.00998(11) 0.10683(11)
H4 H 0.8142 -0.0428 0.0658
C8 C 0.2532(5) 0.10119(10) 0.50847(10)
C9 C 0.3086(4) 0.22435(9) 0.27873(9)
H5 H 0.2253 0.2581 0.3185
C10 C 0.5301(4) 0.22057(10) 0.44665(9)
C11 C 0.3549(4) 0.14064(9) 0.43726(9)
N2 N 0.1708(5) 0.07159(10) 0.56556(9)
C12 C 0.5536(4) 0.12459(10) 0.15771(9)
C13 C 0.6762(4) 0.07381(11) 0.09640(10)
H6 H 0.7155 0.0983 0.0483
C14 C 0.6833(4) -0.04709(11) 0.17938(11)
H7 H 0.7270 -0.1046 0.1863
H8 H 0.207(4) 0.0453(10) 0.3689(9)
loop_
_geom_bond_atom_site_label_1
_geom_bond_atom_site_label_2
_geom_bond_site_symmetry_1
_geom_bond_site_symmetry_2
C1 C2 1_555 1_555
C2 C4 1_555 1_555
N1 C10 1_555 1_555
C3 C1 1_555 1_555
H1 C3 1_555 1_555
C4 C11 1_555 1_555
C5 H2 1_555 1_555
C6 C5 1_555 1_555
H3 C6 1_555 1_555
C7 H4 1_555 1_555
C8 C11 1_555 1_555
C9 C2 1_555 1_555
H5 C9 1_555 1_555
C10 C11 1_555 1_555
N2 C8 1_555 1_555
C12 C1 1_555 1_555
C13 C7 1_555 1_555
H6 C13 1_555 1_555
C14 C3 1_555 1_555
H7 C14 1_555 1_555
H8 C4 1_555 1_555
C5 C12 1_555 1_555
C6 C9 1_555 1_555
C7 C14 1_555 1_555
C12 C13 1_555 1_555

#END
