
#######################################################################
#
#                 Cambridge Crystallographic Data Centre
#                                CCDC 
#
#######################################################################
#
# If this CIF has been generated from an entry in the Cambridge 
# Structural Database, then it will include bibliographic, chemical, 
# crystal, experimental, refinement or atomic coordinate data resulting 
# from the CCDC's data processing and validation procedures.
#
#######################################################################

data_XINQET
_chemical_formula_moiety         'C30 H21 Cl1 N2 O2'
_chemical_name_systematic        
3-benzyl-5-(2-chlorophenyl)-2-phenyl-3,5-dihydrospiro[imidazole-4,2'-indene]-1',3'-dione
_symmetry_cell_setting           triclinic
_symmetry_space_group_name_H-M   'P -1'
_symmetry_Int_Tables_number      2
_space_group_name_Hall           '-P 1'
loop_
_symmetry_equiv_pos_site_id
_symmetry_equiv_pos_as_xyz
1 x,y,z
2 -x,-y,-z
_cell_length_a                   8.5511(3)
_cell_length_b                   10.4286(3)
_cell_length_c                   14.3935(4)
_cell_angle_alpha                88.875(2)
_cell_angle_beta                 87.601(2)
_cell_angle_gamma                68.209(3)
_cell_volume                     1190.78
_exptl_crystal_description       block
_cell_formula_units_Z            2
loop_
_atom_site_label
_atom_site_type_symbol
_atom_site_fract_x
_atom_site_fract_y
_atom_site_fract_z
Cl1 Cl 0.26325(9) 0.85766(7) 1.01644(4)
O1 O 0.28656(15) 0.56102(13) 0.87166(9)
N1 N 0.22173(16) 0.71679(14) 0.68979(9)
O2 O 0.45044(18) 0.87616(15) 0.69122(10)
N2 N 0.00779(16) 0.90522(14) 0.74729(10)
C1 C 0.54278(19) 0.60638(16) 0.85451(10)
C2 C 0.06274(19) 0.81812(15) 0.68076(11)
C3 C 0.36561(19) 0.62606(15) 0.83820(10)
C4 C 0.29441(18) 0.74966(15) 0.77192(10)
C5 C -0.0435(2) 0.81963(17) 0.60179(11)
C6 C 0.13577(19) 0.86822(16) 0.81769(11)
H1 H 0.0945 0.8284 0.8711
C7 C 0.5866(2) 0.70536(17) 0.80609(11)
C8 C 0.1709(2) 0.99046(18) 0.85165(12)
C9 C 0.4630(2) 0.51118(18) 0.63811(12)
C10 C 0.4469(2) 0.79156(17) 0.74906(11)
C11 C 0.3338(2) 0.64854(19) 0.61002(12)
H2 H 0.3907 0.7077 0.5856
H3 H 0.2670 0.6346 0.5612
C12 C 0.6577(2) 0.5060(2) 0.90722(12)
H4 H 0.6278 0.4403 0.9400
C13 C -0.1379(2) 0.94473(19) 0.56204(14)
H5 H -0.1293 1.0256 0.5830
C14 C -0.0606(3) 0.7011(2) 0.57028(13)
H6 H 0.0001 0.6161 0.5970
C15 C 0.4161(3) 0.4080(2) 0.67563(16)
H7 H 0.3023 0.4213 0.6807
C16 C 0.7484(2) 0.7066(2) 0.80979(14)
H8 H 0.7780 0.7735 0.7784
C17 C 0.1444(3) 1.1046(2) 0.79441(16)
H9 H 0.1022 1.1058 0.7358
C18 C 0.2320(2) 0.9939(2) 0.93869(15)
C19 C 0.6335(2) 0.4870(2) 0.62968(15)
H10 H 0.6691 0.5542 0.6033
C20 C -0.1674(3) 0.7084(2) 0.49944(14)
H11 H -0.1773 0.6282 0.4784
C21 C -0.2585(3) 0.8324(3) 0.45984(15)
H12 H -0.3294 0.8365 0.4117
C22 C 0.8633(2) 0.6050(3) 0.86171(16)
H13 H 0.9728 0.6027 0.8646
C23 C 0.8187(2) 0.5066(3) 0.90947(15)
H14 H 0.8989 0.4394 0.9439
C24 C -0.2449(3) 0.9508(3) 0.49154(17)
H15 H -0.3080 1.0356 0.4654
C25 C 0.7519(3) 0.3629(3) 0.66039(18)
H16 H 0.8662 0.3476 0.6543
C26 C 0.5343(3) 0.2850(2) 0.70597(19)
H17 H 0.4994 0.2167 0.7310
C27 C 0.7014(3) 0.2632(2) 0.69948(18)
H18 H 0.7806 0.1813 0.7214
C28 C 0.2698(3) 1.1058(3) 0.9670(2)
H19 H 0.3129 1.1053 1.0253
C29 C 0.1793(3) 1.2163(2) 0.8228(2)
H20 H 0.1597 1.2922 0.7835
C30 C 0.2432(4) 1.2159(3) 0.9090(3)
H21 H 0.2682 1.2908 0.9276
loop_
_geom_bond_atom_site_label_1
_geom_bond_atom_site_label_2
_geom_bond_site_symmetry_1
_geom_bond_site_symmetry_2
Cl1 C18 1_555 1_555
O1 C3 1_555 1_555
N1 C2 1_555 1_555
O2 C10 1_555 1_555
N2 C2 1_555 1_555
C1 C3 1_555 1_555
C2 C5 1_555 1_555
C3 C4 1_555 1_555
C4 N1 1_555 1_555
C5 C13 1_555 1_555
C6 N2 1_555 1_555
H1 C6 1_555 1_555
C7 C1 1_555 1_555
C8 C6 1_555 1_555
C9 C11 1_555 1_555
C10 C4 1_555 1_555
C11 N1 1_555 1_555
H2 C11 1_555 1_555
H3 C11 1_555 1_555
C12 C1 1_555 1_555
H4 C12 1_555 1_555
C13 H5 1_555 1_555
C14 C5 1_555 1_555
H6 C14 1_555 1_555
C15 C9 1_555 1_555
H7 C15 1_555 1_555
C16 C7 1_555 1_555
H8 C16 1_555 1_555
C17 C8 1_555 1_555
H9 C17 1_555 1_555
C18 C8 1_555 1_555
C19 C9 1_555 1_555
H10 C19 1_555 1_555
C20 C14 1_555 1_555
H11 C20 1_555 1_555
C21 C20 1_555 1_555
H12 C21 1_555 1_555
C22 C16 1_555 1_555
H13 C22 1_555 1_555
C23 C12 1_555 1_555
H14 C23 1_555 1_555
C24 C13 1_555 1_555
H15 C24 1_555 1_555
C25 C19 1_555 1_555
H16 C25 1_555 1_555
C26 C15 1_555 1_555
H17 C26 1_555 1_555
C27 C25 1_555 1_555
H18 C27 1_555 1_555
C28 C18 1_555 1_555
H19 C28 1_555 1_555
C29 C17 1_555 1_555
H20 C29 1_555 1_555
C30 C28 1_555 1_555
H21 C30 1_555 1_555
C4 C6 1_555 1_555
C7 C10 1_555 1_555
C21 C24 1_555 1_555
C22 C23 1_555 1_555
C26 C27 1_555 1_555
C29 C30 1_555 1_555

#END
