
#######################################################################
#
#                 Cambridge Crystallographic Data Centre
#                                CCDC 
#
#######################################################################
#
# If this CIF has been generated from an entry in the Cambridge 
# Structural Database, then it will include bibliographic, chemical, 
# crystal, experimental, refinement or atomic coordinate data resulting 
# from the CCDC's data processing and validation procedures.
#
#######################################################################

data_XIPQUK
_chemical_formula_moiety         'C19 H14 Br1 N1 O3'
_chemical_name_systematic        
3-(4-Bromophenyl)-1'-methyl-4-methylene-3H-spiro[furan-2,3'-indole]-2',5(1'H,4H)-dione
_symmetry_cell_setting           orthorhombic
_symmetry_space_group_name_H-M   'P 21 21 21'
_symmetry_Int_Tables_number      19
_space_group_name_Hall           'P 2ac 2ab'
loop_
_symmetry_equiv_pos_site_id
_symmetry_equiv_pos_as_xyz
1 x,y,z
2 1/2+x,1/2-y,-z
3 -x,1/2+y,1/2-z
4 1/2-x,-y,1/2+z
_cell_length_a                   6.6858(12)
_cell_length_b                   13.781(2)
_cell_length_c                   17.545(3)
_cell_angle_alpha                90
_cell_angle_beta                 90
_cell_angle_gamma                90
_cell_volume                     1616.54
_exptl_crystal_colour            colorless
_exptl_crystal_description       piece
_cell_formula_units_Z            4
loop_
_atom_site_label
_atom_site_type_symbol
_atom_site_fract_x
_atom_site_fract_y
_atom_site_fract_z
Br1 Br -0.05505(4) 0.23712(2) 0.290659(18)
O1 O 0.4434(3) -0.10283(13) -0.04407(11)
O2 O 0.6700(3) -0.21205(15) -0.00480(13)
O3 O 0.5902(3) 0.07188(15) 0.03470(13)
C1 C 0.0421(5) 0.1347(2) 0.22844(15)
C2 C 0.2440(4) 0.1106(2) 0.23010(18)
H1 H 0.3325 0.1415 0.2648
C3 C 0.3132(4) 0.0405(2) 0.18001(17)
H2 H 0.4512 0.0240 0.1803
C4 C 0.1851(4) -0.0065(2) 0.12923(16)
C5 C 0.2584(4) -0.0780(2) 0.07035(16)
H3 H 0.1472 -0.1251 0.0613
C6 C 0.3114(4) -0.0325(2) -0.00825(16)
C7 C 0.1433(4) -0.0032(2) -0.05992(16)
C8 C 0.1674(4) 0.0945(2) -0.07872(16)
C9 C 0.0328(5) 0.1430(2) -0.12460(18)
H4 H 0.0501 0.2096 -0.1369
C10 C -0.1320(5) 0.0895(3) -0.15253(18)
H5 H -0.2265 0.1203 -0.1849
C11 C 0.5350(4) -0.15746(18) 0.01080(17)
C12 C 0.4440(4) -0.13689(18) 0.08599(16)
C13 C 0.5236(4) -0.1691(2) 0.15030(18)
H6 H 0.6427 -0.2067 0.1490
H7 H 0.4616 -0.1547 0.1977
C14 C -0.1579(5) -0.0074(2) -0.13353(18)
H8 H -0.2705 -0.0418 -0.1525
C15 C -0.0198(4) -0.0550(2) -0.08655(16)
H9 H -0.0377 -0.1212 -0.0733
N1 N 0.3412(4) 0.13181(17) -0.04349(15)
C16 C 0.4248(4) 0.2273(2) -0.05896(18)
H10 H 0.5516 0.2346 -0.0315
H11 H 0.3308 0.2774 -0.0420
H12 H 0.4485 0.2343 -0.1138
C17 C 0.4340(4) 0.06281(18) -0.00109(16)
C18 C -0.0186(4) 0.0165(2) 0.13125(17)
H13 H -0.1087 -0.0168 0.0986
C19 C -0.0908(4) 0.0873(2) 0.18038(17)
H14 H -0.2292 0.1030 0.1811
loop_
_geom_bond_atom_site_label_1
_geom_bond_atom_site_label_2
_geom_bond_site_symmetry_1
_geom_bond_site_symmetry_2
Br1 C1 1_555 1_555
O1 C6 1_555 1_555
O2 C11 1_555 1_555
O3 C17 1_555 1_555
C1 C2 1_555 1_555
C2 H1 1_555 1_555
C3 C2 1_555 1_555
H2 C3 1_555 1_555
C4 C3 1_555 1_555
C5 C4 1_555 1_555
H3 C5 1_555 1_555
C6 C5 1_555 1_555
C7 C6 1_555 1_555
C8 C7 1_555 1_555
C9 C8 1_555 1_555
H4 C9 1_555 1_555
C10 C9 1_555 1_555
H5 C10 1_555 1_555
C11 O1 1_555 1_555
C12 C5 1_555 1_555
C13 C12 1_555 1_555
H6 C13 1_555 1_555
H7 C13 1_555 1_555
C14 C10 1_555 1_555
H8 C14 1_555 1_555
C15 C7 1_555 1_555
H9 C15 1_555 1_555
N1 C8 1_555 1_555
C16 N1 1_555 1_555
H10 C16 1_555 1_555
H11 C16 1_555 1_555
H12 C16 1_555 1_555
C17 C6 1_555 1_555
C18 C4 1_555 1_555
H13 C18 1_555 1_555
C19 C1 1_555 1_555
H14 C19 1_555 1_555
C11 C12 1_555 1_555
C14 C15 1_555 1_555
N1 C17 1_555 1_555
C18 C19 1_555 1_555

#END
