
#######################################################################
#
#                 Cambridge Crystallographic Data Centre
#                                CCDC 
#
#######################################################################
#
# If this CIF has been generated from an entry in the Cambridge 
# Structural Database, then it will include bibliographic, chemical, 
# crystal, experimental, refinement or atomic coordinate data resulting 
# from the CCDC's data processing and validation procedures.
#
#######################################################################

data_XIPZUU
_chemical_formula_moiety         'C22 H15 Br1 Cl2 F3 N5 O1 S2'
_chemical_name_systematic        
'[1-(4-bromophenyl)-5-(trifluoromethyl)-1H-pyrazol-4-yl]{4-[4-(3,4-dichloro-1,2-thiazol-5-yl)-1,3-thiazol-2-yl]piperidin-1-yl}methanone'
_symmetry_cell_setting           monoclinic
_symmetry_space_group_name_H-M   'P 21/n'
_symmetry_Int_Tables_number      14
_space_group_name_Hall           '-P 2yn'
loop_
_symmetry_equiv_pos_site_id
_symmetry_equiv_pos_as_xyz
1 x,y,z
2 1/2-x,1/2+y,1/2-z
3 -x,-y,-z
4 1/2+x,1/2-y,1/2+z
_cell_length_a                   19.530(2)
_cell_length_b                   6.0340(5)
_cell_length_c                   21.523(2)
_cell_angle_alpha                90
_cell_angle_beta                 105.189(2)
_cell_angle_gamma                90
_cell_volume                     2447.75
_exptl_crystal_colour            colorless
_exptl_crystal_description       Prism
_cell_formula_units_Z            4
loop_
_atom_site_label
_atom_site_type_symbol
_atom_site_fract_x
_atom_site_fract_y
_atom_site_fract_z
Br1 Br 0.311490(14) -0.47303(4) 1.102002(10)
Cl1 Cl 0.37444(3) -0.03666(12) 0.22624(3)
Cl2 Cl 0.31246(3) 0.40779(12) 0.28263(3)
S1 S 0.43969(3) -0.00714(9) 0.42199(3)
S2 S 0.33195(3) 0.66544(10) 0.50921(3)
F1 F 0.49940(8) 0.3004(4) 0.86986(9)
F2 F 0.47358(8) 0.0201(3) 0.91878(10)
F3 F 0.47667(9) 0.3316(4) 0.96054(8)
O1 O 0.37379(8) 0.7737(2) 0.80019(7)
N1 N 0.43196(10) -0.1076(3) 0.34897(9)
N2 N 0.41407(9) 0.3377(3) 0.50748(8)
N3 N 0.42582(9) 0.5193(3) 0.75006(8)
N4 N 0.26459(9) 0.2006(3) 0.84468(8)
N5 N 0.32850(8) 0.1488(3) 0.88507(7)
C1 C 0.39168(11) 0.0248(4) 0.30717(11)
C2 C 0.36442(11) 0.2140(4) 0.33083(10)
C3 C 0.38710(10) 0.2207(4) 0.39715(10)
C4 C 0.37431(11) 0.3724(4) 0.44504(10)
C5 C 0.32693(12) 0.5421(4) 0.43667(11)
H1 H 0.2959 0.5854 0.3967
C6 C 0.39762(11) 0.4797(3) 0.54648(10)
C7 C 0.43005(11) 0.4792(3) 0.61761(10)
H2 H 0.4810 0.4363 0.6252
C8 C 0.42758(11) 0.7041(3) 0.64928(10)
H3 H 0.3777 0.7531 0.6417
H4 H 0.4532 0.8152 0.6300
C9 C 0.46173(11) 0.6875(3) 0.72148(10)
H5 H 0.5125 0.6483 0.7291
H6 H 0.4587 0.8326 0.7420
C10 C 0.42767(12) 0.2976(3) 0.72274(10)
H7 H 0.4014 0.1921 0.7432
H8 H 0.4774 0.2461 0.7313
C11 C 0.39397(12) 0.3050(3) 0.65036(10)
H9 H 0.3429 0.3407 0.6422
H10 H 0.3981 0.1574 0.6315
C12 C 0.38480(10) 0.5799(3) 0.78844(9)
C13 C 0.35159(10) 0.3995(3) 0.81873(9)
C14 C 0.27892(10) 0.3522(3) 0.80507(9)
H11 H 0.2439 0.4206 0.7714
C15 C 0.38195(10) 0.2645(3) 0.87019(9)
C16 C 0.45804(11) 0.2312(4) 0.90405(10)
C17 C 0.32964(10) -0.0025(3) 0.93661(9)
C18 C 0.35678(11) 0.0629(4) 0.99976(9)
H12 H 0.3783 0.2043 1.0094
C19 C 0.35229(11) -0.0803(4) 1.04918(9)
H13 H 0.3713 -0.0389 1.0929
C20 C 0.31989(11) -0.2834(3) 1.03380(9)
C21 C 0.29322(11) -0.3505(3) 0.97037(10)
H14 H 0.2715 -0.4916 0.9607
C22 C 0.29884(11) -0.2083(3) 0.92148(9)
H15 H 0.2816 -0.2520 0.8778
loop_
_geom_bond_atom_site_label_1
_geom_bond_atom_site_label_2
_geom_bond_site_symmetry_1
_geom_bond_site_symmetry_2
Br1 C20 1_555 1_555
Cl1 C1 1_555 1_555
Cl2 C2 1_555 1_555
S1 N1 1_555 1_555
S2 C5 1_555 1_555
F1 C16 1_555 1_555
F2 C16 1_555 1_555
F3 C16 1_555 1_555
O1 C12 1_555 1_555
N1 C1 1_555 1_555
N2 C4 1_555 1_555
N3 C9 1_555 1_555
N4 N5 1_555 1_555
N5 C15 1_555 1_555
C1 C2 1_555 1_555
C2 C3 1_555 1_555
C3 S1 1_555 1_555
C4 C3 1_555 1_555
C5 C4 1_555 1_555
H1 C5 1_555 1_555
C6 S2 1_555 1_555
C7 C6 1_555 1_555
H2 C7 1_555 1_555
C8 C7 1_555 1_555
H3 C8 1_555 1_555
H4 C8 1_555 1_555
C9 C8 1_555 1_555
H5 C9 1_555 1_555
H6 C9 1_555 1_555
C10 N3 1_555 1_555
H7 C10 1_555 1_555
H8 C10 1_555 1_555
C11 C7 1_555 1_555
H9 C11 1_555 1_555
H10 C11 1_555 1_555
C12 N3 1_555 1_555
C13 C12 1_555 1_555
C14 N4 1_555 1_555
H11 C14 1_555 1_555
C15 C13 1_555 1_555
C16 C15 1_555 1_555
C17 N5 1_555 1_555
C18 C17 1_555 1_555
H12 C18 1_555 1_555
C19 C18 1_555 1_555
H13 C19 1_555 1_555
C20 C19 1_555 1_555
C21 C20 1_555 1_555
H14 C21 1_555 1_555
C22 C17 1_555 1_555
H15 C22 1_555 1_555
N2 C6 1_555 1_555
C10 C11 1_555 1_555
C13 C14 1_555 1_555
C21 C22 1_555 1_555

#END
