
#######################################################################
#
#                 Cambridge Crystallographic Data Centre
#                                CCDC 
#
#######################################################################
#
# If this CIF has been generated from an entry in the Cambridge 
# Structural Database, then it will include bibliographic, chemical, 
# crystal, experimental, refinement or atomic coordinate data resulting 
# from the CCDC's data processing and validation procedures.
#
#######################################################################

data_XIQCAE
_chemical_formula_moiety         'C28 H40 O6'
_chemical_name_systematic        
4,7,19-trihydroxy-6,8,12,14,16,18-hexamethyl-6,7,8,9,10,11,12,15,16,17,18,19-dodecahydro-1,19:5,9-diepoxybenzo[18]annulen-3(5H)-one
_symmetry_cell_setting           orthorhombic
_symmetry_space_group_name_H-M   'P 21 21 2'
_symmetry_Int_Tables_number      18
_space_group_name_Hall           'P 2 2ab'
loop_
_symmetry_equiv_pos_site_id
_symmetry_equiv_pos_as_xyz
1 x,y,z
2 -x,-y,z
3 1/2-x,1/2+y,-z
4 1/2+x,1/2-y,-z
_cell_length_a                   10.5277(3)
_cell_length_b                   18.7745(5)
_cell_length_c                   16.6567(7)
_cell_angle_alpha                90
_cell_angle_beta                 90
_cell_angle_gamma                90
_cell_volume                     3292.24
_exptl_crystal_colour            'whitish white'
_exptl_crystal_description       plate
_cell_formula_units_Z            4
loop_
_atom_site_label
_atom_site_type_symbol
_atom_site_fract_x
_atom_site_fract_y
_atom_site_fract_z
O1 O 0.2215(2) 0.61004(12) 0.33446(16)
H1 H 0.2282 0.6135 0.3834
O2 O 0.44512(19) 0.85621(13) 0.31335(16)
O3 O 0.70578(17) 0.86885(13) 0.50289(14)
H2 H 0.7792 0.8754 0.4881
O4 O 0.19209(19) 0.96492(12) 0.4484(2)
H3 H 0.1253 0.9874 0.4491
O5 O -0.04405(19) 0.91522(13) 0.4607(2)
O6 O 0.0777(2) 0.70338(12) 0.33087(19)
C1 C 0.6741(3) 0.77258(19) 0.3641(2)
H4 H 0.7264 0.7562 0.3206
H5 H 0.5910 0.7520 0.3594
H6 H 0.7115 0.7586 0.4142
C2 C 0.4353(3) 0.89842(19) 0.5354(2)
H7 H 0.4368 0.9492 0.5292
H8 H 0.4882 0.8851 0.5799
H9 H 0.3498 0.8830 0.5452
C3 C 0.0351(3) 0.87396(17) 0.4294(3)
C4 C 0.6638(3) 0.85358(19) 0.3608(2)
H10 H 0.7482 0.8726 0.3483
C5 C 0.1696(3) 0.89824(17) 0.4237(2)
C6 C 0.4001(3) 0.88355(17) 0.3872(2)
H11 H 0.3983 0.9356 0.3831
C7 C 0.0955(3) 0.76655(17) 0.3659(2)
C8 C 0.0021(3) 0.80617(18) 0.3994(3)
H12 H -0.0808 0.7893 0.4026
C9 C 0.2281(3) 0.78699(17) 0.3654(2)
C10 C 0.5718(3) 0.8781(2) 0.2938(2)
H13 H 0.5736 0.9302 0.2914
C11 C 0.2931(3) 0.73315(17) 0.3329(2)
H14 H 0.3812 0.7306 0.3301
C12 C 0.2035(4) 0.67721(18) 0.3015(3)
C13 C 0.2649(3) 0.85763(17) 0.3950(2)
C14 C 0.4847(2) 0.86356(17) 0.4595(2)
H15 H 0.4837 0.8117 0.4664
C15 C 0.6201(2) 0.88737(18) 0.4392(2)
H16 H 0.6206 0.9393 0.4327
C16 C 0.6007(4) 0.8498(3) 0.2117(3)
H17 H 0.5870 0.7987 0.2122
H18 H 0.6901 0.8578 0.2009
C17 C 0.2012(6) 0.6712(2) 0.2110(3)
H19 H 0.1440 0.6320 0.1967
C18 C 0.1499(6) 0.7394(2) 0.1720(3)
H20 H 0.0698 0.7516 0.1959
H21 H 0.1387 0.7318 0.1155
H22 H 0.2092 0.7776 0.1803
C19 C 0.3334(7) 0.6530(3) 0.1794(3)
H23 H 0.3883 0.6933 0.1904
H24 H 0.3652 0.6132 0.2106
C20 C 0.5239(5) 0.8816(3) 0.1428(3)
H25 H 0.5465 0.9315 0.1374
H26 H 0.4345 0.8794 0.1567
C21 C 0.3479(9) 0.6343(3) 0.0918(3)
H27 H 0.3000 0.6693 0.0603
C22 C 0.4900(9) 0.7699(4) 0.0627(3)
H28 H 0.4020 0.7661 0.0619
C23 C 0.5426(8) 0.8452(4) 0.0614(3)
H29 H 0.6337 0.8431 0.0497
C24 C 0.2873(11) 0.5575(3) 0.0755(4)
H30 H 0.3266 0.5231 0.1102
H31 H 0.3013 0.5443 0.0206
H32 H 0.1977 0.5591 0.0861
C25 C 0.4858(11) 0.6393(4) 0.0673(4)
H33 H 0.5336 0.6089 0.1034
H34 H 0.4929 0.6186 0.0142
C26 C 0.4761(10) 0.8897(5) -0.0052(4)
H35 H 0.3958 0.9067 0.0143
H36 H 0.4626 0.8604 -0.0516
H37 H 0.5287 0.9295 -0.0194
C27 C 0.5520(10) 0.7098(5) 0.0650(4)
C28 C 0.6933(12) 0.7025(7) 0.0651(7)
H38 H 0.7213 0.6860 0.0135
H39 H 0.7183 0.6689 0.1056
H40 H 0.7312 0.7479 0.0763
loop_
_geom_bond_atom_site_label_1
_geom_bond_atom_site_label_2
_geom_bond_site_symmetry_1
_geom_bond_site_symmetry_2
O1 H1 1_555 1_555
O2 C6 1_555 1_555
O3 H2 1_555 1_555
O4 H3 1_555 1_555
O5 C3 1_555 1_555
O6 C7 1_555 1_555
C1 H4 1_555 1_555
H5 C1 1_555 1_555
H6 C1 1_555 1_555
C2 H7 1_555 1_555
H8 C2 1_555 1_555
H9 C2 1_555 1_555
C3 C5 1_555 1_555
C4 C1 1_555 1_555
H10 C4 1_555 1_555
C5 O4 1_555 1_555
C6 H11 1_555 1_555
C7 C8 1_555 1_555
C8 C3 1_555 1_555
H12 C8 1_555 1_555
C9 C7 1_555 1_555
C10 O2 1_555 1_555
H13 C10 1_555 1_555
C11 C9 1_555 1_555
H14 C11 1_555 1_555
C12 O1 1_555 1_555
C13 C5 1_555 1_555
C14 C2 1_555 1_555
H15 C14 1_555 1_555
C15 O3 1_555 1_555
H16 C15 1_555 1_555
C16 C10 1_555 1_555
H17 C16 1_555 1_555
H18 C16 1_555 1_555
C17 C12 1_555 1_555
H19 C17 1_555 1_555
C18 C17 1_555 1_555
H20 C18 1_555 1_555
H21 C18 1_555 1_555
H22 C18 1_555 1_555
C19 C17 1_555 1_555
H23 C19 1_555 1_555
H24 C19 1_555 1_555
C20 C16 1_555 1_555
H25 C20 1_555 1_555
H26 C20 1_555 1_555
C21 C19 1_555 1_555
H27 C21 1_555 1_555
C22 H28 1_555 1_555
C23 C20 1_555 1_555
H29 C23 1_555 1_555
C24 C21 1_555 1_555
H30 C24 1_555 1_555
H31 C24 1_555 1_555
H32 C24 1_555 1_555
C25 C21 1_555 1_555
H33 C25 1_555 1_555
H34 C25 1_555 1_555
C26 C23 1_555 1_555
H35 C26 1_555 1_555
H36 C26 1_555 1_555
H37 C26 1_555 1_555
C27 C22 1_555 1_555
C28 C27 1_555 1_555
H38 C28 1_555 1_555
H39 C28 1_555 1_555
H40 C28 1_555 1_555
O6 C12 1_555 1_555
C4 C10 1_555 1_555
C4 C15 1_555 1_555
C6 C13 1_555 1_555
C6 C14 1_555 1_555
C9 C13 1_555 1_555
C11 C12 1_555 1_555
C14 C15 1_555 1_555
C22 C23 1_555 1_555
C25 C27 1_555 1_555

#END
