
#######################################################################
#
#                 Cambridge Crystallographic Data Centre
#                                CCDC 
#
#######################################################################
#
# If this CIF has been generated from an entry in the Cambridge 
# Structural Database, then it will include bibliographic, chemical, 
# crystal, experimental, refinement or atomic coordinate data resulting 
# from the CCDC's data processing and validation procedures.
#
#######################################################################

data_XIQMES
_chemical_formula_moiety         'C16 H14 F1 N1 O1'
_chemical_name_systematic        3-benzyl-1-(4-fluorophenyl)azetidin-2-one
_symmetry_cell_setting           monoclinic
_symmetry_space_group_name_H-M   'P 21'
_symmetry_Int_Tables_number      4
_space_group_name_Hall           'P 2yb'
loop_
_symmetry_equiv_pos_site_id
_symmetry_equiv_pos_as_xyz
1 x,y,z
2 -x,1/2+y,-z
_cell_length_a                   13.4244(10)
_cell_length_b                   6.0702(5)
_cell_length_c                   16.1385(13)
_cell_angle_alpha                90
_cell_angle_beta                 98.442(5)
_cell_angle_gamma                90
_cell_volume                     1300.86
_exptl_crystal_colour            colorless
_exptl_crystal_description       block
_cell_formula_units_Z            4
loop_
_atom_site_label
_atom_site_type_symbol
_atom_site_fract_x
_atom_site_fract_y
_atom_site_fract_z
F1 F -0.6437(2) 0.1460(6) 0.03278(18)
C1 C -0.5557(3) 0.1555(9) 0.0866(3)
O1 O -0.2600(2) -0.1247(6) 0.3345(2)
N1 N -0.2863(3) 0.1866(6) 0.2475(2)
C2 C -0.5275(3) -0.0212(9) 0.1363(3)
H1 H -0.5686 -0.1491 0.1338
C3 C -0.2368(3) 0.0494(7) 0.3064(3)
C4 C -0.4975(4) 0.3461(8) 0.0875(3)
H2 H -0.5193 0.4674 0.0522
C5 C -0.4081(3) 0.3535(8) 0.1406(3)
H3 H -0.3666 0.4805 0.1415
C6 C -0.3776(3) 0.1771(7) 0.1931(3)
C7 C -0.4377(3) -0.0109(7) 0.1905(3)
H4 H -0.4169 -0.1322 0.2261
C8 C -0.1429(3) 0.1968(7) 0.3177(3)
H5 H -0.0876 0.1249 0.2923
C9 C -0.2041(3) 0.3501(8) 0.2534(3)
H6 H -0.2209 0.4941 0.2766
H7 H -0.1749 0.3689 0.2009
C10 C -0.1024(3) 0.2852(8) 0.4041(3)
H8 H -0.1524 0.3864 0.4230
H9 H -0.0915 0.1615 0.4444
C11 C -0.0050(3) 0.4056(7) 0.4028(3)
C12 C 0.0869(3) 0.3039(8) 0.4308(3)
H10 H 0.0881 0.1605 0.4545
C13 C 0.1763(4) 0.4110(10) 0.4242(3)
H11 H 0.2384 0.3405 0.4442
C14 C 0.1772(4) 0.6155(10) 0.3896(3)
H12 H 0.2391 0.6850 0.3834
C15 C 0.0869(4) 0.7200(9) 0.3636(3)
H13 H 0.0866 0.8645 0.3410
C16 C -0.0034(4) 0.6157(8) 0.3702(3)
H14 H -0.0651 0.6898 0.3520
N2 N 0.6840(3) 0.8109(6) 0.7497(2)
F2 F 0.3347(2) 0.8508(7) 0.5244(2)
O2 O 0.7027(3) 1.1260(6) 0.8352(2)
C17 C 0.4213(3) 0.8412(10) 0.5799(3)
C18 C 0.4805(4) 0.6585(10) 0.5813(3)
H15 H 0.4614 0.5395 0.5441
C19 C 0.5691(4) 0.6483(9) 0.6379(3)
H16 H 0.6109 0.5216 0.6398
C20 C 0.5962(3) 0.8225(8) 0.6911(3)
C21 C 0.5348(3) 1.0092(8) 0.6877(3)
H17 H 0.5537 1.1302 0.7239
C22 C 0.4470(3) 1.0179(9) 0.6318(3)
H18 H 0.4048 1.1441 0.6292
C23 C 0.7254(3) 0.9440(8) 0.8133(3)
C24 C 0.8108(4) 0.7826(8) 0.8429(3)
H19 H 0.8027 0.7126 0.8976
C25 C 0.7626(3) 0.6397(8) 0.7664(3)
H20 H 0.8054 0.6247 0.7217
H21 H 0.7372 0.4948 0.7820
C26 C 0.9147(4) 0.8777(9) 0.8438(3)
H22 H 0.9197 1.0151 0.8772
H23 H 0.9229 0.9178 0.7857
C27 C 1.0010(3) 0.7262(10) 0.8790(3)
C28 C 1.0105(4) 0.5156(11) 0.8477(3)
H24 H 0.9584 0.4570 0.8076
C29 C 1.0953(5) 0.3900(12) 0.8743(4)
H25 H 1.1016 0.2472 0.8516
C30 C 1.1697(5) 0.4710(17) 0.9330(5)
H26 H 1.2290 0.3873 0.9497
C31 C 1.1583(5) 0.6755(18) 0.9680(5)
H27 H 1.2084 0.7292 1.0109
C32 C 1.0749(4) 0.8015(12) 0.9411(3)
H28 H 1.0679 0.9420 0.9655
loop_
_geom_bond_atom_site_label_1
_geom_bond_atom_site_label_2
_geom_bond_site_symmetry_1
_geom_bond_site_symmetry_2
F1 C1 1_555 1_555
C1 C2 1_555 1_555
O1 C3 1_555 1_555
N1 C3 1_555 1_555
C2 H1 1_555 1_555
C3 C8 1_555 1_555
C4 C1 1_555 1_555
H2 C4 1_555 1_555
C5 C4 1_555 1_555
H3 C5 1_555 1_555
C6 N1 1_555 1_555
C7 C2 1_555 1_555
H4 C7 1_555 1_555
C8 H5 1_555 1_555
C9 N1 1_555 1_555
H6 C9 1_555 1_555
H7 C9 1_555 1_555
C10 C8 1_555 1_555
H8 C10 1_555 1_555
H9 C10 1_555 1_555
C11 C10 1_555 1_555
C12 C11 1_555 1_555
H10 C12 1_555 1_555
C13 C12 1_555 1_555
H11 C13 1_555 1_555
C14 C13 1_555 1_555
H12 C14 1_555 1_555
C15 C14 1_555 1_555
H13 C15 1_555 1_555
C16 C11 1_555 1_555
H14 C16 1_555 1_555
N2 C20 1_555 1_555
F2 C17 1_555 1_555
O2 C23 1_555 1_555
C17 C18 1_555 1_555
C18 H15 1_555 1_555
C19 C18 1_555 1_555
H16 C19 1_555 1_555
C20 C19 1_555 1_555
C21 C20 1_555 1_555
H17 C21 1_555 1_555
C22 C17 1_555 1_555
H18 C22 1_555 1_555
C23 N2 1_555 1_555
C24 C23 1_555 1_555
H19 C24 1_555 1_555
C25 N2 1_555 1_555
H20 C25 1_555 1_555
H21 C25 1_555 1_555
C26 C24 1_555 1_555
H22 C26 1_555 1_555
H23 C26 1_555 1_555
C27 C26 1_555 1_555
C28 C27 1_555 1_555
H24 C28 1_555 1_555
C29 C28 1_555 1_555
H25 C29 1_555 1_555
C30 C29 1_555 1_555
H26 C30 1_555 1_555
C31 C30 1_555 1_555
H27 C31 1_555 1_555
C32 C27 1_555 1_555
H28 C32 1_555 1_555
C5 C6 1_555 1_555
C6 C7 1_555 1_555
C8 C9 1_555 1_555
C15 C16 1_555 1_555
C21 C22 1_555 1_555
C24 C25 1_555 1_555
C31 C32 1_555 1_555

#END
