
#######################################################################
#
#                 Cambridge Crystallographic Data Centre
#                                CCDC 
#
#######################################################################
#
# If this CIF has been generated from an entry in the Cambridge 
# Structural Database, then it will include bibliographic, chemical, 
# crystal, experimental, refinement or atomic coordinate data resulting 
# from the CCDC's data processing and validation procedures.
#
#######################################################################

data_XIQMAO
_chemical_formula_moiety         'C17 H17 N1 O1'
_chemical_name_systematic        1,3-dibenzylazetidin-2-one
_symmetry_cell_setting           orthorhombic
_symmetry_space_group_name_H-M   'P 21 21 21'
_symmetry_Int_Tables_number      19
_space_group_name_Hall           'P 2ac 2ab'
loop_
_symmetry_equiv_pos_site_id
_symmetry_equiv_pos_as_xyz
1 x,y,z
2 1/2-x,-y,1/2+z
3 -x,1/2+y,1/2-z
4 1/2+x,1/2-y,-z
_cell_length_a                   10.1007(13)
_cell_length_b                   10.1065(13)
_cell_length_c                   13.8769(17)
_cell_angle_alpha                90
_cell_angle_beta                 90
_cell_angle_gamma                90
_cell_volume                     1416.59
_exptl_crystal_colour            colorless
_exptl_crystal_description       block
_cell_formula_units_Z            4
loop_
_atom_site_label
_atom_site_type_symbol
_atom_site_fract_x
_atom_site_fract_y
_atom_site_fract_z
O1 O 0.49206(18) 0.72595(16) 0.50648(14)
C1 C 0.80305(17) 0.48028(17) 0.59521(15)
N1 N 0.62327(16) 0.54078(15) 0.48251(12)
C2 C 0.7601(2) 0.3415(2) 0.73204(16)
H1 H 0.7003 0.3041 0.7751
C3 C 0.7150(2) 0.4231(2) 0.65916(15)
H2 H 0.6248 0.4396 0.6531
C4 C 0.9819(2) 0.3734(3) 0.67861(18)
H3 H 1.0720 0.3571 0.6851
C5 C 0.8942(3) 0.3154(2) 0.74105(18)
H4 H 0.9246 0.2588 0.7891
C6 C 0.7561(2) 0.5695(2) 0.51456(17)
H5 H 0.7598 0.6607 0.5363
H6 H 0.8161 0.5608 0.4603
C7 C 0.9376(2) 0.4556(2) 0.60637(17)
H7 H 0.9981 0.4949 0.5647
C8 C 0.4362(2) 0.5044(2) 0.42907(15)
H8 H 0.4150 0.5292 0.3626
C9 C 0.5135(2) 0.6146(2) 0.47940(14)
C10 C 0.5663(2) 0.4265(2) 0.43339(17)
H9 H 0.5621 0.3472 0.4726
H10 H 0.6051 0.4083 0.3708
C11 C 0.3141(2) 0.4496(3) 0.48039(15)
H11 H 0.2444 0.5156 0.4779
H12 H 0.2832 0.3722 0.4457
C12 C 0.33708(18) 0.4121(2) 0.58370(14)
C13 C 0.3610(2) 0.2830(2) 0.6100(2)
H13 H 0.3631 0.2169 0.5634
C14 C 0.3820(3) 0.2514(3) 0.7067(3)
H14 H 0.3976 0.1641 0.7246
C15 C 0.3798(3) 0.3495(4) 0.77552(19)
H15 H 0.3947 0.3290 0.8399
C16 C 0.3558(3) 0.4751(3) 0.74899(17)
H16 H 0.3536 0.5413 0.7955
C17 C 0.3349(2) 0.5065(2) 0.65553(16)
H17 H 0.3186 0.5943 0.6392
loop_
_geom_bond_atom_site_label_1
_geom_bond_atom_site_label_2
_geom_bond_site_symmetry_1
_geom_bond_site_symmetry_2
O1 C9 1_555 1_555
C1 C3 1_555 1_555
N1 C6 1_555 1_555
C2 H1 1_555 1_555
C3 C2 1_555 1_555
H2 C3 1_555 1_555
C4 H3 1_555 1_555
C5 C2 1_555 1_555
H4 C5 1_555 1_555
C6 C1 1_555 1_555
H5 C6 1_555 1_555
H6 C6 1_555 1_555
C7 C1 1_555 1_555
H7 C7 1_555 1_555
C8 H8 1_555 1_555
C9 N1 1_555 1_555
C10 N1 1_555 1_555
H9 C10 1_555 1_555
H10 C10 1_555 1_555
C11 C8 1_555 1_555
H11 C11 1_555 1_555
H12 C11 1_555 1_555
C12 C11 1_555 1_555
C13 C12 1_555 1_555
H13 C13 1_555 1_555
C14 C13 1_555 1_555
H14 C14 1_555 1_555
C15 C14 1_555 1_555
H15 C15 1_555 1_555
C16 C15 1_555 1_555
H16 C16 1_555 1_555
C17 C12 1_555 1_555
H17 C17 1_555 1_555
C4 C5 1_555 1_555
C4 C7 1_555 1_555
C8 C9 1_555 1_555
C8 C10 1_555 1_555
C16 C17 1_555 1_555

#END
