
#######################################################################
#
#                 Cambridge Crystallographic Data Centre
#                                CCDC 
#
#######################################################################
#
# If this CIF has been generated from an entry in the Cambridge 
# Structural Database, then it will include bibliographic, chemical, 
# crystal, experimental, refinement or atomic coordinate data resulting 
# from the CCDC's data processing and validation procedures.
#
#######################################################################

data_XIQNUJ
_chemical_formula_moiety         'C18 H16 N2 O4'
_chemical_name_systematic        
3-phenyl-7,8-dihydro-4H,6H-5,9,1,2-benzodioxadiazacyclododecine-4,10(1H)-dione
_symmetry_cell_setting           monoclinic
_symmetry_space_group_name_H-M   'P 21/c'
_symmetry_Int_Tables_number      14
_space_group_name_Hall           '-P 2ybc'
loop_
_symmetry_equiv_pos_site_id
_symmetry_equiv_pos_as_xyz
1 x,y,z
2 -x,1/2+y,1/2-z
3 -x,-y,-z
4 x,1/2-y,1/2+z
_cell_length_a                   8.2576(4)
_cell_length_b                   22.2625(10)
_cell_length_c                   17.3321(10)
_cell_angle_alpha                90
_cell_angle_beta                 90.025(4)
_cell_angle_gamma                90
_cell_volume                     3186.24
_exptl_crystal_colour            yellow
_exptl_crystal_description       needle
_cell_formula_units_Z            8
_chemical_properties_physical    
Heat-sensitive,Light-sensitive,Photo-sensitive
_exptl_crystal_recrystallization_method 'used as received'
loop_
_atom_site_label
_atom_site_type_symbol
_atom_site_fract_x
_atom_site_fract_y
_atom_site_fract_z
O1 O 0.5768(5) 0.26010(15) 0.5039(2)
O2 O 0.4387(5) 0.24015(16) 0.6117(2)
O3 O 0.7289(6) 0.14657(14) 0.5322(2)
O4 O 0.7278(6) 0.05875(14) 0.5948(2)
N1 N 0.7741(6) 0.24967(18) 0.7045(3)
N2 N 0.7571(6) 0.20677(16) 0.6519(2)
C1 C 0.7384(8) 0.3079(2) 0.6794(3)
C2 C 0.8037(8) 0.3570(2) 0.7181(3)
H1 H 0.8686 0.3511 0.7628
C3 C 0.7733(9) 0.4144(2) 0.6913(4)
H2 H 0.8158 0.4480 0.7183
C4 C 0.6819(9) 0.4234(2) 0.6255(3)
H3 H 0.6649 0.4629 0.6062
C5 C 0.6155(8) 0.3744(2) 0.5881(3)
H4 H 0.5505 0.3808 0.5436
C6 C 0.6414(7) 0.3163(2) 0.6140(3)
C7 C 0.5429(8) 0.2669(2) 0.5774(3)
C8 C 0.4792(8) 0.2163(2) 0.4587(3)
H5 H 0.4102 0.2378 0.4210
H6 H 0.4080 0.1931 0.4936
C9 C 0.5931(8) 0.1744(2) 0.4169(3)
H7 H 0.6868 0.1980 0.3981
H8 H 0.5365 0.1581 0.3711
C10 C 0.6565(9) 0.1219(2) 0.4647(3)
H9 H 0.5665 0.0947 0.4790
H10 H 0.7375 0.0987 0.4349
C11 C 0.7394(7) 0.1124(2) 0.5957(3)
C12 C 0.7619(7) 0.1502(2) 0.6661(3)
C13 C 0.7685(8) 0.1211(2) 0.7437(3)
C14 C 0.6714(8) 0.1449(2) 0.8020(3)
H11 H 0.6083 0.1798 0.7923
C15 C 0.6666(9) 0.1177(3) 0.8742(4)
H12 H 0.6019 0.1348 0.9139
C16 C 0.7538(10) 0.0668(3) 0.8887(3)
H13 H 0.7474 0.0480 0.9377
C17 C 0.8523(9) 0.0426(2) 0.8310(4)
H14 H 0.9151 0.0078 0.8412
C18 C 0.8584(8) 0.0695(2) 0.7588(4)
H15 H 0.9242 0.0526 0.7194
H16 H 0.844(11) 0.247(4) 0.748(5)
O5 O 0.0798(5) 0.26429(16) 0.9597(2)
O6 O -0.0674(5) 0.24485(17) 0.8527(2)
O7 O 0.2232(6) 0.14894(15) 0.9353(2)
O8 O 0.2141(7) 0.05914(15) 0.8773(2)
N3 N 0.2647(7) 0.24651(18) 0.7583(2)
N4 N 0.2491(6) 0.20502(17) 0.8132(2)
C19 C 0.2412(7) 0.3054(2) 0.7812(3)
C20 C 0.3108(8) 0.3526(2) 0.7426(3)
H17 H 0.3725 0.3449 0.6974
C21 C 0.2935(9) 0.4110(2) 0.7677(4)
H18 H 0.3411 0.4429 0.7393
C22 C 0.2058(10) 0.4233(2) 0.8349(4)
H19 H 0.1961 0.4632 0.8536
C23 C 0.1343(8) 0.3764(2) 0.8730(3)
H20 H 0.0741 0.3847 0.9185
C24 C 0.1463(8) 0.3177(2) 0.8480(3)
C25 C 0.0469(7) 0.2708(2) 0.8852(3)
C26 C -0.0187(7) 0.2228(2) 1.0045(3)
H21 H -0.0906 0.1998 0.9696
H22 H -0.0875 0.2456 1.0411
C27 C 0.0921(8) 0.1792(3) 1.0496(3)
H23 H 0.1892 0.2014 1.0672
H24 H 0.0336 0.1651 1.0960
C28 C 0.1454(9) 0.1256(3) 1.0039(3)
H25 H 0.2223 0.1009 1.0342
H26 H 0.0511 0.1004 0.9899
C29 C 0.2302(8) 0.1126(2) 0.8738(3)
C30 C 0.2563(7) 0.1480(2) 0.8009(3)
C31 C 0.2690(8) 0.1163(2) 0.7259(3)
C32 C 0.1803(9) 0.1373(3) 0.6633(3)
H27 H 0.1188 0.1731 0.6684
C33 C 0.1803(10) 0.1065(3) 0.5929(4)
H28 H 0.1201 0.1213 0.5502
C34 C 0.2696(10) 0.0539(3) 0.5863(4)
H29 H 0.2693 0.0321 0.5391
C35 C 0.3587(10) 0.0333(3) 0.6480(4)
H30 H 0.4221 -0.0020 0.6425
C36 C 0.3572(9) 0.0636(2) 0.7188(4)
H31 H 0.4161 0.0483 0.7615
H32 H 0.314(6) 0.2433(18) 0.711(3)
loop_
_geom_bond_atom_site_label_1
_geom_bond_atom_site_label_2
_geom_bond_site_symmetry_1
_geom_bond_site_symmetry_2
O1 C7 1_555 1_555
O2 C7 1_555 1_555
O3 C10 1_555 1_555
O4 C11 1_555 1_555
N1 N2 1_555 1_555
N2 C12 1_555 1_555
C1 N1 1_555 1_555
C2 C1 1_555 1_555
H1 C2 1_555 1_555
C3 C2 1_555 1_555
H2 C3 1_555 1_555
C4 C3 1_555 1_555
H3 C4 1_555 1_555
C5 C4 1_555 1_555
H4 C5 1_555 1_555
C6 C1 1_555 1_555
C7 C6 1_555 1_555
C8 O1 1_555 1_555
H5 C8 1_555 1_555
H6 C8 1_555 1_555
C9 C8 1_555 1_555
H7 C9 1_555 1_555
H8 C9 1_555 1_555
C10 C9 1_555 1_555
H9 C10 1_555 1_555
H10 C10 1_555 1_555
C11 O3 1_555 1_555
C12 C11 1_555 1_555
C13 C12 1_555 1_555
C14 C13 1_555 1_555
H11 C14 1_555 1_555
C15 C14 1_555 1_555
H12 C15 1_555 1_555
C16 C15 1_555 1_555
H13 C16 1_555 1_555
C17 C16 1_555 1_555
H14 C17 1_555 1_555
C18 C13 1_555 1_555
H15 C18 1_555 1_555
H16 N1 1_555 1_555
O5 C25 1_555 1_555
O6 C25 1_555 1_555
O7 C28 1_555 1_555
O8 C29 1_555 1_555
N3 N4 1_555 1_555
N4 C30 1_555 1_555
C19 N3 1_555 1_555
C20 C19 1_555 1_555
H17 C20 1_555 1_555
C21 C20 1_555 1_555
H18 C21 1_555 1_555
C22 C21 1_555 1_555
H19 C22 1_555 1_555
C23 C22 1_555 1_555
H20 C23 1_555 1_555
C24 C19 1_555 1_555
C25 C24 1_555 1_555
C26 O5 1_555 1_555
H21 C26 1_555 1_555
H22 C26 1_555 1_555
C27 C26 1_555 1_555
H23 C27 1_555 1_555
H24 C27 1_555 1_555
C28 C27 1_555 1_555
H25 C28 1_555 1_555
H26 C28 1_555 1_555
C29 O7 1_555 1_555
C30 C29 1_555 1_555
C31 C30 1_555 1_555
C32 C31 1_555 1_555
H27 C32 1_555 1_555
C33 C32 1_555 1_555
H28 C33 1_555 1_555
C34 C33 1_555 1_555
H29 C34 1_555 1_555
C35 C34 1_555 1_555
H30 C35 1_555 1_555
C36 C31 1_555 1_555
H31 C36 1_555 1_555
H32 N3 1_555 1_555
C5 C6 1_555 1_555
C17 C18 1_555 1_555
C23 C24 1_555 1_555
C35 C36 1_555 1_555

#END
