
#######################################################################
#
#                 Cambridge Crystallographic Data Centre
#                                CCDC 
#
#######################################################################
#
# If this CIF has been generated from an entry in the Cambridge 
# Structural Database, then it will include bibliographic, chemical, 
# crystal, experimental, refinement or atomic coordinate data resulting 
# from the CCDC's data processing and validation procedures.
#
#######################################################################

data_XIQPEV
_chemical_formula_moiety         'C22 H24 N2 O4'
_chemical_name_systematic        
3-phenyl-7,8,9,10,11,12-hexahydro-4H,6H-5,13,1,2-benzodioxadiazacyclohexadecine-4,14(1H)-dione
_symmetry_cell_setting           orthorhombic
_symmetry_space_group_name_H-M   'P b c a'
_symmetry_Int_Tables_number      61
_space_group_name_Hall           '-P 2ac 2ab'
loop_
_symmetry_equiv_pos_site_id
_symmetry_equiv_pos_as_xyz
1 x,y,z
2 1/2-x,-y,1/2+z
3 -x,1/2+y,1/2-z
4 1/2+x,1/2-y,-z
5 -x,-y,-z
6 1/2+x,y,1/2-z
7 x,1/2-y,1/2+z
8 1/2-x,1/2+y,z
_cell_length_a                   11.1866(3)
_cell_length_b                   21.5051(5)
_cell_length_c                   33.2328(8)
_cell_angle_alpha                90
_cell_angle_beta                 90
_cell_angle_gamma                90
_cell_volume                     7994.78
_exptl_crystal_colour            colorless
_exptl_crystal_description       needle
_cell_formula_units_Z            16
_chemical_properties_physical    
Heat-sensitive,Light-sensitive,Photo-sensitive
_exptl_crystal_recrystallization_method 'used as received'
loop_
_atom_site_label
_atom_site_type_symbol
_atom_site_fract_x
_atom_site_fract_y
_atom_site_fract_z
O1 O 0.1727(2) 0.64800(10) 0.53468(7)
O2 O 0.13054(19) 0.61029(11) 0.59570(7)
O3 O 0.3497(2) 0.45779(10) 0.52846(7)
O4 O 0.2722(2) 0.38658(11) 0.56991(7)
N1 N 0.3901(2) 0.57779(12) 0.61837(8)
N2 N 0.3533(2) 0.53826(11) 0.58916(8)
C1 C 0.0651(3) 0.61903(18) 0.51951(12)
H1 H -0.0065 0.6393 0.5312
H2 H 0.0637 0.5744 0.5267
C2 C 0.0665(4) 0.6269(2) 0.47375(13)
H3 H -0.0032 0.6047 0.4623
H4 H 0.0571 0.6716 0.4673
C3 C 0.1789(4) 0.60316(18) 0.45368(12)
H5 H 0.2475 0.6280 0.4635
H6 H 0.1720 0.6103 0.4243
C4 C 0.2063(3) 0.53448(17) 0.46069(12)
H7 H 0.1880 0.5239 0.4890
H8 H 0.1536 0.5091 0.4433
C5 C 0.3351(4) 0.51807(19) 0.45196(12)
H9 H 0.3869 0.5424 0.4702
H10 H 0.3539 0.5310 0.4241
C6 C 0.3661(4) 0.44907(18) 0.45662(11)
H11 H 0.3351 0.4263 0.4329
H12 H 0.4542 0.4446 0.4567
C7 C 0.3169(4) 0.41919(17) 0.49430(10)
H13 H 0.2288 0.4157 0.4924
H14 H 0.3505 0.3769 0.4976
C8 C 0.1960(3) 0.63869(14) 0.57347(10)
C9 C 0.3066(3) 0.67089(14) 0.58635(9)
C10 C 0.3952(3) 0.64149(14) 0.60952(9)
C11 C 0.4889(3) 0.67631(15) 0.62472(10)
H15 H 0.5495 0.6565 0.6401
C12 C 0.4955(3) 0.73956(15) 0.61780(10)
H16 H 0.5597 0.7630 0.6287
C13 C 0.4087(3) 0.76870(15) 0.59495(10)
H17 H 0.4130 0.8122 0.5903
C14 C 0.3166(3) 0.73485(15) 0.57908(10)
H18 H 0.2584 0.7550 0.5629
C15 C 0.3186(3) 0.43617(15) 0.56453(10)
C16 C 0.3529(3) 0.47926(14) 0.59783(9)
C17 C 0.3776(3) 0.45063(13) 0.63770(9)
C18 C 0.3064(3) 0.46551(16) 0.67047(10)
H19 H 0.2431 0.4946 0.6673
C19 C 0.3263(4) 0.43861(18) 0.70767(12)
H20 H 0.2757 0.4484 0.7297
C20 C 0.4196(4) 0.39766(17) 0.71263(11)
H21 H 0.4344 0.3799 0.7383
C21 C 0.4921(3) 0.38223(16) 0.68033(11)
H22 H 0.5560 0.3537 0.6839
C22 C 0.4713(3) 0.40843(15) 0.64285(11)
H23 H 0.5208 0.3977 0.6207
H24 H 0.450(3) 0.5618(17) 0.6351(10)
O5 O 0.6702(2) 0.52736(11) 0.71269(7)
O6 O 0.63171(19) 0.55002(11) 0.64840(7)
O7 O 0.8078(3) 0.71207(13) 0.71416(8)
O8 O 0.7701(3) 0.78404(11) 0.66731(8)
N3 N 0.8892(2) 0.58747(12) 0.62879(8)
N4 N 0.8458(2) 0.62898(12) 0.65576(8)
C23 C 0.5561(3) 0.5556(2) 0.72341(12)
H25 H 0.4893 0.5314 0.7117
H26 H 0.5518 0.5986 0.7129
C24 C 0.5476(4) 0.5558(2) 0.76834(12)
H27 H 0.5589 0.5128 0.7782
H28 H 0.4662 0.5692 0.7761
C25 C 0.6374(4) 0.5976(2) 0.78902(12)
H29 H 0.6358 0.5890 0.8183
H30 H 0.7184 0.5873 0.7790
C26 C 0.6148(6) 0.6654(2) 0.78243(16)
H31 H 0.6252 0.6737 0.7533
H32 H 0.5297 0.6733 0.7888
C27 C 0.6866(8) 0.7126(3) 0.80454(18)
H33 H 0.6401 0.7517 0.8062
H34 H 0.7005 0.6976 0.8323
C28 C 0.8007(5) 0.7256(4) 0.78587(14)
H35 H 0.8444 0.6859 0.7822
H36 H 0.8484 0.7521 0.8042
C29 C 0.7903(6) 0.7581(2) 0.74505(14)
H37 H 0.7104 0.7774 0.7422
H38 H 0.8515 0.7911 0.7427
C30 C 0.6969(3) 0.52843(14) 0.67379(10)
C31 C 0.8116(3) 0.49724(15) 0.66452(9)
C32 C 0.8997(3) 0.52507(14) 0.64061(9)
C33 C 0.9983(3) 0.49098(15) 0.62864(10)
H39 H 1.0575 0.5099 0.6122
C34 C 1.0113(3) 0.42994(16) 0.64026(11)
H40 H 1.0786 0.4067 0.6313
C35 C 0.9270(3) 0.40218(15) 0.66487(11)
H41 H 0.9374 0.3603 0.6733
C36 C 0.8278(3) 0.43545(15) 0.67708(10)
H42 H 0.7702 0.4164 0.6941
C37 C 0.8003(3) 0.73266(16) 0.67611(11)
C38 C 0.8401(3) 0.68664(14) 0.64516(10)
C39 C 0.8685(3) 0.71335(13) 0.60476(10)
C40 C 0.7907(3) 0.70453(16) 0.57293(11)
H43 H 0.7223 0.6789 0.5764
C41 C 0.8113(4) 0.73251(17) 0.53600(12)
H44 H 0.7565 0.7265 0.5145
C42 C 0.9115(4) 0.76910(16) 0.53048(11)
H45 H 0.9260 0.7882 0.5052
C43 C 0.9902(3) 0.77782(15) 0.56179(11)
H46 H 1.0594 0.8028 0.5580
C44 C 0.9689(3) 0.75015(15) 0.59901(11)
H47 H 1.0234 0.7565 0.6206
H48 H 0.944(3) 0.6023(17) 0.6105(11)
loop_
_geom_bond_atom_site_label_1
_geom_bond_atom_site_label_2
_geom_bond_site_symmetry_1
_geom_bond_site_symmetry_2
O1 C1 1_555 1_555
O2 C8 1_555 1_555
O3 C7 1_555 1_555
O4 C15 1_555 1_555
N1 N2 1_555 1_555
N2 C16 1_555 1_555
C1 H1 1_555 1_555
H2 C1 1_555 1_555
C2 C1 1_555 1_555
H3 C2 1_555 1_555
H4 C2 1_555 1_555
C3 C2 1_555 1_555
H5 C3 1_555 1_555
H6 C3 1_555 1_555
C4 C3 1_555 1_555
H7 C4 1_555 1_555
H8 C4 1_555 1_555
C5 C4 1_555 1_555
H9 C5 1_555 1_555
H10 C5 1_555 1_555
C6 C5 1_555 1_555
H11 C6 1_555 1_555
H12 C6 1_555 1_555
C7 C6 1_555 1_555
H13 C7 1_555 1_555
H14 C7 1_555 1_555
C8 O1 1_555 1_555
C9 C8 1_555 1_555
C10 N1 1_555 1_555
C11 C10 1_555 1_555
H15 C11 1_555 1_555
C12 C11 1_555 1_555
H16 C12 1_555 1_555
C13 C12 1_555 1_555
H17 C13 1_555 1_555
C14 C9 1_555 1_555
H18 C14 1_555 1_555
C15 O3 1_555 1_555
C16 C15 1_555 1_555
C17 C16 1_555 1_555
C18 C17 1_555 1_555
H19 C18 1_555 1_555
C19 C18 1_555 1_555
H20 C19 1_555 1_555
C20 C19 1_555 1_555
H21 C20 1_555 1_555
C21 C20 1_555 1_555
H22 C21 1_555 1_555
C22 C17 1_555 1_555
H23 C22 1_555 1_555
H24 N1 1_555 1_555
O5 C23 1_555 1_555
O6 C30 1_555 1_555
O7 C29 1_555 1_555
O8 C37 1_555 1_555
N3 N4 1_555 1_555
N4 C38 1_555 1_555
C23 H25 1_555 1_555
H26 C23 1_555 1_555
C24 C23 1_555 1_555
H27 C24 1_555 1_555
H28 C24 1_555 1_555
C25 C24 1_555 1_555
H29 C25 1_555 1_555
H30 C25 1_555 1_555
C26 C25 1_555 1_555
H31 C26 1_555 1_555
H32 C26 1_555 1_555
C27 C26 1_555 1_555
H33 C27 1_555 1_555
H34 C27 1_555 1_555
C28 C27 1_555 1_555
H35 C28 1_555 1_555
H36 C28 1_555 1_555
C29 C28 1_555 1_555
H37 C29 1_555 1_555
H38 C29 1_555 1_555
C30 O5 1_555 1_555
C31 C30 1_555 1_555
C32 N3 1_555 1_555
C33 C32 1_555 1_555
H39 C33 1_555 1_555
C34 C33 1_555 1_555
H40 C34 1_555 1_555
C35 C34 1_555 1_555
H41 C35 1_555 1_555
C36 C31 1_555 1_555
H42 C36 1_555 1_555
C37 O7 1_555 1_555
C38 C37 1_555 1_555
C39 C38 1_555 1_555
C40 C39 1_555 1_555
H43 C40 1_555 1_555
C41 C40 1_555 1_555
H44 C41 1_555 1_555
C42 C41 1_555 1_555
H45 C42 1_555 1_555
C43 C42 1_555 1_555
H46 C43 1_555 1_555
C44 C39 1_555 1_555
H47 C44 1_555 1_555
H48 N3 1_555 1_555
C9 C10 1_555 1_555
C13 C14 1_555 1_555
C21 C22 1_555 1_555
C31 C32 1_555 1_555
C35 C36 1_555 1_555
C43 C44 1_555 1_555

#END
