
#######################################################################
#
#                 Cambridge Crystallographic Data Centre
#                                CCDC 
#
#######################################################################
#
# If this CIF has been generated from an entry in the Cambridge 
# Structural Database, then it will include bibliographic, chemical, 
# crystal, experimental, refinement or atomic coordinate data resulting 
# from the CCDC's data processing and validation procedures.
#
#######################################################################

data_XIRCOT
_chemical_formula_moiety         'C31 H26 N4'
_chemical_name_systematic        
2,14-diphenyl-6,6a,11,12-tetrahydro-5H,10H,14H-[1,8]naphthyridino[1,2-c]pyrido[3,2,1-ij]quinazoline-3-carbonitrile
_symmetry_cell_setting           triclinic
_symmetry_space_group_name_H-M   'P -1'
_symmetry_Int_Tables_number      2
_space_group_name_Hall           '-P 1'
loop_
_symmetry_equiv_pos_site_id
_symmetry_equiv_pos_as_xyz
1 x,y,z
2 -x,-y,-z
_cell_length_a                   8.5833(8)
_cell_length_b                   11.9168(12)
_cell_length_c                   14.4424(14)
_cell_angle_alpha                84.208(3)
_cell_angle_beta                 88.427(3)
_cell_angle_gamma                73.704(3)
_cell_volume                     1410.66
_exptl_crystal_colour            yellow
_exptl_crystal_description       block
_cell_formula_units_Z            2
loop_
_atom_site_label
_atom_site_type_symbol
_atom_site_fract_x
_atom_site_fract_y
_atom_site_fract_z
N1 N 0.20906(17) 0.78350(12) 0.45239(10)
N2 N 0.22376(16) 0.67682(12) 0.59949(10)
N3 N 0.29217(16) 0.78203(13) 0.70980(10)
N4 N 0.4760(3) 0.69282(19) 1.02876(15)
C1 C -0.1390(2) 0.82888(16) 0.47032(14)
H1 H -0.0914 0.8306 0.4118
C2 C -0.3053(2) 0.84983(19) 0.47755(18)
H2 H -0.3687 0.8661 0.4240
C3 C -0.3777(3) 0.84671(19) 0.5637(2)
H3 H -0.4896 0.8604 0.5687
C4 C -0.2834(3) 0.82331(17) 0.64207(17)
H4 H -0.3318 0.8212 0.7004
C5 C -0.1171(2) 0.80282(16) 0.63553(14)
H5 H -0.0547 0.7872 0.6894
C6 C -0.0423(2) 0.80538(14) 0.54889(12)
C7 C 0.14120(19) 0.78630(14) 0.54463(11)
H6 H 0.1654 0.8509 0.5729
C8 C 0.2132(2) 0.89369(16) 0.40162(13)
H7 H 0.2605 0.9373 0.4405
H8 H 0.1034 0.9404 0.3860
C9 C 0.3115(3) 0.87279(18) 0.31380(14)
H9 H 0.4235 0.8318 0.3295
H10 H 0.3090 0.9475 0.2794
C10 C 0.2434(2) 0.80057(17) 0.25415(13)
H11 H 0.1375 0.8465 0.2308
H12 H 0.3142 0.7805 0.2012
C11 C 0.2285(2) 0.68943(16) 0.30925(13)
C12 C 0.2298(2) 0.59137(18) 0.26617(15)
H13 H 0.2385 0.5938 0.2017
C13 C 0.2183(3) 0.48881(19) 0.31709(16)
H14 H 0.2176 0.4236 0.2869
C14 C 0.2081(2) 0.48424(17) 0.41249(15)
H15 H 0.2005 0.4154 0.4464
C15 C 0.2089(2) 0.58079(15) 0.45945(13)
C16 C 0.21430(19) 0.68508(15) 0.40644(12)
C17 C 0.2047(2) 0.56975(15) 0.56503(13)
H16 H 0.0984 0.5610 0.5851
C18 C 0.3352(2) 0.46397(16) 0.60884(14)
H17 H 0.3208 0.3924 0.5885
H18 H 0.4416 0.4699 0.5888
C19 C 0.3241(3) 0.45923(17) 0.71417(14)
H19 H 0.2221 0.4451 0.7346
H20 H 0.4117 0.3950 0.7417
C20 C 0.3350(2) 0.57292(16) 0.74602(13)
C21 C 0.3908(2) 0.58253(18) 0.83135(14)
H21 H 0.4254 0.5156 0.8729
C22 C 0.3974(2) 0.69082(18) 0.85786(13)
C23 C 0.4420(3) 0.6953(2) 0.95236(16)
C24 C 0.3482(2) 0.79007(17) 0.79384(13)
C25 C 0.3501(2) 0.90958(17) 0.81249(12)
C26 C 0.2322(2) 1.00674(19) 0.77309(14)
H22 H 0.1532 0.9953 0.7352
C27 C 0.2291(3) 1.11937(19) 0.78862(16)
H23 H 0.1476 1.1828 0.7623
C28 C 0.3470(3) 1.1380(2) 0.84321(15)
H24 H 0.3451 1.2140 0.8542
C29 C 0.4674(3) 1.0437(2) 0.88133(14)
H25 H 0.5479 1.0561 0.9175
C30 C 0.4695(2) 0.93075(19) 0.86627(13)
H26 H 0.5518 0.8678 0.8924
C31 C 0.28402(19) 0.67820(15) 0.68578(12)
loop_
_geom_bond_atom_site_label_1
_geom_bond_atom_site_label_2
_geom_bond_site_symmetry_1
_geom_bond_site_symmetry_2
N1 C7 1_555 1_555
N2 C7 1_555 1_555
N3 C24 1_555 1_555
N4 C23 1_555 1_555
C1 H1 1_555 1_555
C2 C1 1_555 1_555
H2 C2 1_555 1_555
C3 C2 1_555 1_555
H3 C3 1_555 1_555
C4 C3 1_555 1_555
H4 C4 1_555 1_555
C5 C4 1_555 1_555
H5 C5 1_555 1_555
C6 C1 1_555 1_555
C7 C6 1_555 1_555
H6 C7 1_555 1_555
C8 N1 1_555 1_555
H7 C8 1_555 1_555
H8 C8 1_555 1_555
C9 C8 1_555 1_555
H9 C9 1_555 1_555
H10 C9 1_555 1_555
C10 C9 1_555 1_555
H11 C10 1_555 1_555
H12 C10 1_555 1_555
C11 C10 1_555 1_555
C12 C11 1_555 1_555
H13 C12 1_555 1_555
C13 C12 1_555 1_555
H14 C13 1_555 1_555
C14 C13 1_555 1_555
H15 C14 1_555 1_555
C15 C14 1_555 1_555
C16 N1 1_555 1_555
C17 N2 1_555 1_555
H16 C17 1_555 1_555
C18 C17 1_555 1_555
H17 C18 1_555 1_555
H18 C18 1_555 1_555
C19 C18 1_555 1_555
H19 C19 1_555 1_555
H20 C19 1_555 1_555
C20 C19 1_555 1_555
C21 C20 1_555 1_555
H21 C21 1_555 1_555
C22 C21 1_555 1_555
C23 C22 1_555 1_555
C24 C22 1_555 1_555
C25 C24 1_555 1_555
C26 C25 1_555 1_555
H22 C26 1_555 1_555
C27 C26 1_555 1_555
H23 C27 1_555 1_555
C28 C27 1_555 1_555
H24 C28 1_555 1_555
C29 C28 1_555 1_555
H25 C29 1_555 1_555
C30 C25 1_555 1_555
H26 C30 1_555 1_555
C31 N2 1_555 1_555
N3 C31 1_555 1_555
C5 C6 1_555 1_555
C11 C16 1_555 1_555
C15 C16 1_555 1_555
C15 C17 1_555 1_555
C20 C31 1_555 1_555
C29 C30 1_555 1_555

#END
