
#######################################################################
#
#                 Cambridge Crystallographic Data Centre
#                                CCDC 
#
#######################################################################
#
# If this CIF has been generated from an entry in the Cambridge 
# Structural Database, then it will include bibliographic, chemical, 
# crystal, experimental, refinement or atomic coordinate data resulting 
# from the CCDC's data processing and validation procedures.
#
#######################################################################

data_XIRKAN
_chemical_formula_moiety         'C26 H25 N1 O4 S1'
_chemical_name_systematic        
"5-([1,1'-biphenyl]-4-yl)-6-(t-butylsulfinyl)-5,8-dihydro-2H-[1,3]dioxolo[4,5-g]isoquinolin-7(6H)-one unknown solvate"
_symmetry_cell_setting           monoclinic
_symmetry_space_group_name_H-M   'P 21'
_symmetry_Int_Tables_number      4
_space_group_name_Hall           'P 2yb'
loop_
_symmetry_equiv_pos_site_id
_symmetry_equiv_pos_as_xyz
1 x,y,z
2 -x,1/2+y,-z
_cell_length_a                   10.9996(5)
_cell_length_b                   44.458(2)
_cell_length_c                   11.2795(5)
_cell_angle_alpha                90
_cell_angle_beta                 108.675(2)
_cell_angle_gamma                90
_cell_volume                     5225.49
_exptl_crystal_colour            colorless
_exptl_crystal_description       block
_cell_formula_units_Z            8
loop_
_atom_site_label
_atom_site_type_symbol
_atom_site_fract_x
_atom_site_fract_y
_atom_site_fract_z
S1 S 0.27684(8) 0.44548(2) 0.08754(8)
N1 N 0.4191(3) 0.42937(7) 0.0774(3)
O1 O 0.6432(3) 0.42926(8) -0.3756(3)
O2 O 0.6519(3) 0.47832(7) -0.3062(3)
O3 O 0.3167(3) 0.38439(7) 0.0364(3)
O4 O 0.2788(3) 0.47658(7) 0.0446(3)
C1 C 0.6893(5) 0.45871(12) -0.3868(4)
H1 H 0.782092 0.458433 -0.364479
H2 H 0.654046 0.465623 -0.472569
C2 C 0.6090(4) 0.43048(10) -0.2680(4)
C3 C 0.6147(4) 0.45969(9) -0.2258(3)
C4 C 0.5832(3) 0.46737(8) -0.1230(3)
H3 H 0.585054 0.487257 -0.096914
C5 C 0.5476(3) 0.44364(8) -0.0574(3)
C6 C 0.5414(3) 0.41428(8) -0.0997(3)
C7 C 0.5713(4) 0.40723(9) -0.2074(4)
H4 H 0.565948 0.387596 -0.237082
C8 C 0.5030(4) 0.38998(8) -0.0254(4)
H5 H 0.468651 0.373018 -0.079935
H6 H 0.578639 0.383129 0.040426
C9 C 0.4049(3) 0.40037(9) 0.0320(4)
C10 C 0.5212(3) 0.44954(7) 0.0648(3)
H7 H 0.488619 0.470155 0.060935
C11 C 0.6447(3) 0.44812(7) 0.1748(3)
C12 C 0.6784(3) 0.42448(8) 0.2581(4)
H8 H 0.622624 0.408293 0.249061
C13 C 0.7944(3) 0.42441(8) 0.3554(3)
H9 H 0.814206 0.408251 0.410689
C14 C 0.8814(3) 0.44802(8) 0.3718(3)
C15 C 0.8462(3) 0.47157(8) 0.2873(3)
H10 H 0.901784 0.487795 0.296192
C16 C 0.7311(3) 0.47176(8) 0.1899(3)
H11 H 0.711522 0.487826 0.134212
C17 C 1.0059(3) 0.44841(9) 0.4756(3)
C18 C 1.0524(4) 0.47505(9) 0.5381(4)
H12 H 1.002999 0.492450 0.519261
C19 C 1.1731(4) 0.47569(11) 0.6290(4)
H13 H 1.204275 0.493516 0.670804
C20 C 1.2458(4) 0.45005(13) 0.6567(4)
H14 H 1.326026 0.450553 0.717814
C21 C 1.2019(4) 0.42392(12) 0.5959(4)
H15 H 1.252871 0.406757 0.614237
C22 C 1.0816(4) 0.42274(9) 0.5067(4)
H16 H 1.051105 0.404606 0.467172
C23 C 0.3080(4) 0.44788(9) 0.2571(4)
C24 C 0.3353(6) 0.41664(12) 0.3138(5)
H17 H 0.415078 0.409464 0.307007
H18 H 0.267303 0.403257 0.269829
H19 H 0.340676 0.417458 0.400392
C25 C 0.1809(5) 0.46033(14) 0.2656(5)
H20 H 0.186860 0.462561 0.351959
H21 H 0.112594 0.446663 0.225412
H22 H 0.163884 0.479544 0.224845
C26 C 0.4152(4) 0.46938(12) 0.3181(5)
H23 H 0.421151 0.472132 0.404235
H24 H 0.398340 0.488387 0.275589
H25 H 0.494605 0.461363 0.313548
S2 S 0.52804(10) 0.56729(2) 1.03973(8)
N2 N 0.5456(3) 0.58677(7) 0.9104(3)
O5 O 1.0005(3) 0.59778(11) 0.6790(4)
O6 O 0.9294(3) 0.54868(9) 0.6525(4)
O7 O 0.5766(4) 0.62954(8) 1.0252(3)
O8 O 0.5711(4) 0.53651(7) 1.0282(3)
C27 C 1.0136(5) 0.56956(18) 0.6236(6)
H26 H 0.991743 0.571744 0.533642
H27 H 1.101469 0.562509 0.656600
C28 C 0.8928(4) 0.59473(12) 0.7162(4)
C29 C 0.8493(4) 0.56545(10) 0.6996(4)
C30 C 0.7460(4) 0.55603(9) 0.7294(3)
H28 H 0.719011 0.536093 0.719046
C31 C 0.6809(3) 0.57787(8) 0.7769(3)
C32 C 0.7247(4) 0.60716(9) 0.7956(4)
C33 C 0.8336(4) 0.61633(11) 0.7656(4)
H29 H 0.863987 0.635978 0.778569
C34 C 0.6527(5) 0.62948(9) 0.8490(4)
H30 H 0.711933 0.644958 0.893620
H31 H 0.587324 0.639111 0.780569
C35 C 0.5905(4) 0.61585(10) 0.9355(4)
C36 C 0.5595(3) 0.56901(8) 0.8047(3)
H32 H 0.569065 0.547906 0.831097
C37 C 0.4444(3) 0.57080(8) 0.6878(3)
C38 C 0.3709(4) 0.59664(8) 0.6490(3)
H33 H 0.387632 0.613499 0.700530
C39 C 0.2734(3) 0.59776(8) 0.5352(3)
H34 H 0.226223 0.615383 0.511729
C40 C 0.2446(3) 0.57311(8) 0.4556(3)
C41 C 0.3167(3) 0.54703(8) 0.4947(4)
H35 H 0.298687 0.530087 0.443659
C42 C 0.4149(3) 0.54590(8) 0.6086(3)
H36 H 0.461662 0.528238 0.632414
C43 C 0.1407(3) 0.57406(8) 0.3322(3)
C44 C 0.0615(4) 0.54960(9) 0.2872(3)
H37 H 0.071837 0.532280 0.335629
C45 C -0.0322(4) 0.55045(11) 0.1721(4)
H38 H -0.084978 0.533854 0.143707
C46 C -0.0479(4) 0.57589(11) 0.0987(4)
H39 H -0.109811 0.576282 0.019951
C47 C 0.0275(5) 0.60049(11) 0.1419(4)
H40 H 0.015638 0.617798 0.093139
C48 C 0.1216(4) 0.59980(10) 0.2578(4)
H41 H 0.172542 0.616668 0.286379
C49 C 0.3530(4) 0.56507(10) 1.0017(4)
C50 C 0.2965(6) 0.59623(14) 0.9711(6)
H42 H 0.299281 0.602183 0.890220
H43 H 0.345232 0.610193 1.033090
H44 H 0.209050 0.596087 0.970630
C51 C 0.3391(6) 0.55330(13) 1.1266(5)
H45 H 0.379352 0.567181 1.192706
H46 H 0.379698 0.533989 1.145897
H47 H 0.249803 0.551477 1.118168
C52 C 0.2966(5) 0.54273(13) 0.8976(5)
H48 H 0.205939 0.541008 0.882756
H49 H 0.336428 0.523468 0.921231
H50 H 0.311617 0.549530 0.822713
S3 S 0.74286(11) 0.32188(2) -0.15450(13)
N3 N 0.8703(3) 0.34765(7) -0.1197(3)
O9 O 0.9955(3) 0.48595(6) -0.1605(3)
O10 O 0.9056(3) 0.48285(6) -0.0032(3)
O11 O 0.9029(5) 0.33094(10) -0.2945(4)
O12 O 0.6584(3) 0.33288(7) -0.0852(4)
C53 C 0.9738(5) 0.50208(10) -0.0620(4)
H51 H 0.923673 0.519994 -0.094099
H52 H 1.054832 0.508191 -0.001936
C54 C 0.9811(4) 0.45623(9) -0.1353(3)
C55 C 0.9241(3) 0.45421(8) -0.0423(3)
C56 C 0.8898(3) 0.42740(8) -0.0046(4)
H53 H 0.850164 0.426345 0.056781
C57 C 0.9166(3) 0.40133(8) -0.0623(3)
C58 C 0.9780(4) 0.40366(9) -0.1519(4)
C59 C 1.0106(4) 0.43173(10) -0.1899(4)
H54 H 1.051001 0.433285 -0.250531
C60 C 1.0151(5) 0.37505(10) -0.2059(5)
H55 H 1.017831 0.379276 -0.289386
H56 H 1.100698 0.369119 -0.154790
C61 C 0.9263(5) 0.34962(11) -0.2128(5)
C62 C 0.8774(3) 0.37110(8) -0.0235(4)
H57 H 0.790169 0.373555 -0.019684
C63 C 0.9598(4) 0.36158(8) 0.1049(4)
C64 C 1.0872(4) 0.35342(10) 0.1311(4)
H58 H 1.124406 0.353629 0.067757
C65 C 1.1598(4) 0.34489(10) 0.2518(5)
H59 H 1.244955 0.339242 0.267393
C66 C 1.1085(4) 0.34459(9) 0.3497(4)
C67 C 0.9801(5) 0.35268(10) 0.3213(5)
H60 H 0.942655 0.352656 0.384443
C68 C 0.9081(4) 0.36064(9) 0.2028(4)
H61 H 0.822137 0.365565 0.186799
C69 C 1.1916(5) 0.33727(10) 0.4796(4)
C70 C 1.1379(6) 0.32693(13) 0.5662(5)
H62 H 1.049378 0.324547 0.543448
C71 C 1.2156(7) 0.31980(17) 0.6902(6)
H63 H 1.179990 0.312399 0.748807
C72 C 1.3456(8) 0.32432(18) 0.7198(8)
H64 H 1.398203 0.320179 0.800802
C73 C 1.3965(6) 0.33391(14) 0.6408(6)
H65 H 1.485203 0.335996 0.664649
C74 C 1.3221(6) 0.34145(12) 0.5184(6)
H66 H 1.361198 0.349310 0.463302
C75 C 0.8185(6) 0.28701(10) -0.0757(7)
C76 C 0.9404(9) 0.28038(17) -0.1018(13)
H67 H 0.985820 0.298804 -0.102019
H68 H 0.921179 0.270817 -0.182054
H69 H 0.992610 0.267241 -0.038246
C77 C 0.7120(9) 0.26411(15) -0.1336(10)
H70 H 0.725113 0.255254 -0.206147
H71 H 0.630263 0.274053 -0.157354
H72 H 0.713956 0.248677 -0.073475
C78 C 0.8405(10) 0.28856(16) 0.0638(8)
H73 H 0.863092 0.268971 0.099924
H74 H 0.763551 0.295304 0.078186
H75 H 0.908987 0.302399 0.101642
S4 S 0.74134(15) 0.70073(3) 0.59324(12)
N4 N 0.7043(4) 0.67634(8) 0.4638(3)
O13 O 0.7609(3) 0.53928(6) 0.3397(3)
O14 O 0.6018(3) 0.54124(6) 0.4324(3)
O15 O 0.8814(5) 0.69441(10) 0.4310(5)
O16 O 0.6646(5) 0.68925(8) 0.6699(3)
C79 C 0.6768(6) 0.52200(11) 0.3849(6)
H76 H 0.621412 0.509892 0.317620
H77 H 0.726121 0.508567 0.450450
C80 C 0.7311(4) 0.56887(9) 0.3562(3)
C81 C 0.6373(4) 0.56990(8) 0.4131(3)
C82 C 0.5952(4) 0.59664(9) 0.4460(3)
H78 H 0.533211 0.597304 0.485968
C83 C 0.6497(4) 0.62291(8) 0.4169(3)
C84 C 0.7415(4) 0.62151(9) 0.3560(4)
C85 C 0.7834(4) 0.59409(9) 0.3252(4)
H79 H 0.845030 0.593032 0.284923
C86 C 0.7920(5) 0.65050(10) 0.3184(5)
H80 H 0.877456 0.647078 0.313822
H81 H 0.737113 0.656458 0.235867
C87 C 0.7968(5) 0.67536(10) 0.4091(5)
C88 C 0.6059(4) 0.65294(9) 0.4527(4)
H82 H 0.599070 0.650330 0.536569
C89 C 0.4752(4) 0.66203(9) 0.3695(4)
C90 C 0.3792(5) 0.66939(12) 0.4176(4)
H83 H 0.397200 0.668964 0.503930
C91 C 0.2591(5) 0.67728(13) 0.3451(5)
H84 H 0.196887 0.681324 0.382516
C92 C 0.2278(5) 0.67941(9) 0.2159(5)
C93 C 0.3214(6) 0.67193(15) 0.1668(5)
H85 H 0.303330 0.672667 0.080461
C94 C 0.4426(5) 0.66326(14) 0.2408(5)
H86 H 0.503577 0.658145 0.203009
C95 C 0.0963(3) 0.68885(8) 0.1344(3)
C96 C 0.0684(4) 0.68867(12) 0.0052(4)
H87 H 0.131096 0.683097 -0.029644
C97 C -0.0532(5) 0.69683(14) -0.0720(3)
H88 H -0.071834 0.696715 -0.158412
C98 C -0.1469(3) 0.70516(11) -0.0199(5)
H89 H -0.228233 0.710621 -0.071515
C99 C -0.1190(4) 0.70534(11) 0.1093(5)
H90 H -0.181705 0.710910 0.144151
C100 C 0.0026(4) 0.69718(10) 0.1865(3)
H91 H 0.021225 0.697293 0.272921
C101 C 0.6672(7) 0.73716(14) 0.5272(7)
C102 C 0.7415(10) 0.7586(2) 0.6293(9)
H92 H 0.687736 0.775280 0.633589
H93 H 0.815691 0.765792 0.610742
H94 H 0.768133 0.748248 0.708163
C103 C 0.5277(9) 0.7368(2) 0.5125(10)
H95 H 0.490022 0.755717 0.478750
H96 H 0.516566 0.733633 0.592580
H97 H 0.486508 0.720870 0.456645
C104 C 0.6855(9) 0.74384(19) 0.4044(8)
H98 H 0.644873 0.728460 0.345195
H99 H 0.775519 0.744362 0.414639
H100 H 0.647764 0.762982 0.374303
loop_
_geom_bond_atom_site_label_1
_geom_bond_atom_site_label_2
_geom_bond_site_symmetry_1
_geom_bond_site_symmetry_2
S1 N1 1_555 1_555
N1 C9 1_555 1_555
O1 C1 1_555 1_555
O2 C1 1_555 1_555
O3 C9 1_555 1_555
O4 S1 1_555 1_555
C1 H1 1_555 1_555
H2 C1 1_555 1_555
C2 O1 1_555 1_555
C3 O2 1_555 1_555
C4 C3 1_555 1_555
H3 C4 1_555 1_555
C5 C4 1_555 1_555
C6 C5 1_555 1_555
C7 C2 1_555 1_555
H4 C7 1_555 1_555
C8 C6 1_555 1_555
H5 C8 1_555 1_555
H6 C8 1_555 1_555
C9 C8 1_555 1_555
C10 N1 1_555 1_555
H7 C10 1_555 1_555
C11 C10 1_555 1_555
C12 C11 1_555 1_555
H8 C12 1_555 1_555
C13 C12 1_555 1_555
H9 C13 1_555 1_555
C14 C13 1_555 1_555
C15 C14 1_555 1_555
H10 C15 1_555 1_555
C16 C11 1_555 1_555
H11 C16 1_555 1_555
C17 C14 1_555 1_555
C18 C17 1_555 1_555
H12 C18 1_555 1_555
C19 C18 1_555 1_555
H13 C19 1_555 1_555
C20 C19 1_555 1_555
H14 C20 1_555 1_555
C21 C20 1_555 1_555
H15 C21 1_555 1_555
C22 C17 1_555 1_555
H16 C22 1_555 1_555
C23 S1 1_555 1_555
C24 C23 1_555 1_555
H17 C24 1_555 1_555
H18 C24 1_555 1_555
H19 C24 1_555 1_555
C25 C23 1_555 1_555
H20 C25 1_555 1_555
H21 C25 1_555 1_555
H22 C25 1_555 1_555
C26 C23 1_555 1_555
H23 C26 1_555 1_555
H24 C26 1_555 1_555
H25 C26 1_555 1_555
S2 N2 1_555 1_555
N2 C35 1_555 1_555
O5 C27 1_555 1_555
O6 C27 1_555 1_555
O7 C35 1_555 1_555
O8 S2 1_555 1_555
C27 H26 1_555 1_555
H27 C27 1_555 1_555
C28 O5 1_555 1_555
C29 O6 1_555 1_555
C30 C29 1_555 1_555
H28 C30 1_555 1_555
C31 C30 1_555 1_555
C32 C31 1_555 1_555
C33 C28 1_555 1_555
H29 C33 1_555 1_555
C34 C32 1_555 1_555
H30 C34 1_555 1_555
H31 C34 1_555 1_555
C35 C34 1_555 1_555
C36 N2 1_555 1_555
H32 C36 1_555 1_555
C37 C36 1_555 1_555
C38 C37 1_555 1_555
H33 C38 1_555 1_555
C39 C38 1_555 1_555
H34 C39 1_555 1_555
C40 C39 1_555 1_555
C41 C40 1_555 1_555
H35 C41 1_555 1_555
C42 C37 1_555 1_555
H36 C42 1_555 1_555
C43 C40 1_555 1_555
C44 C43 1_555 1_555
H37 C44 1_555 1_555
C45 C44 1_555 1_555
H38 C45 1_555 1_555
C46 C45 1_555 1_555
H39 C46 1_555 1_555
C47 C46 1_555 1_555
H40 C47 1_555 1_555
C48 C43 1_555 1_555
H41 C48 1_555 1_555
C49 S2 1_555 1_555
C50 C49 1_555 1_555
H42 C50 1_555 1_555
H43 C50 1_555 1_555
H44 C50 1_555 1_555
C51 C49 1_555 1_555
H45 C51 1_555 1_555
H46 C51 1_555 1_555
H47 C51 1_555 1_555
C52 C49 1_555 1_555
H48 C52 1_555 1_555
H49 C52 1_555 1_555
H50 C52 1_555 1_555
S3 N3 1_555 1_555
N3 C61 1_555 1_555
O9 C53 1_555 1_555
O10 C53 1_555 1_555
O11 C61 1_555 1_555
O12 S3 1_555 1_555
C53 H51 1_555 1_555
H52 C53 1_555 1_555
C54 O9 1_555 1_555
C55 O10 1_555 1_555
C56 C55 1_555 1_555
H53 C56 1_555 1_555
C57 C56 1_555 1_555
C58 C57 1_555 1_555
C59 C54 1_555 1_555
H54 C59 1_555 1_555
C60 C58 1_555 1_555
H55 C60 1_555 1_555
H56 C60 1_555 1_555
C61 C60 1_555 1_555
C62 N3 1_555 1_555
H57 C62 1_555 1_555
C63 C62 1_555 1_555
C64 C63 1_555 1_555
H58 C64 1_555 1_555
C65 C64 1_555 1_555
H59 C65 1_555 1_555
C66 C65 1_555 1_555
C67 C66 1_555 1_555
H60 C67 1_555 1_555
C68 C63 1_555 1_555
H61 C68 1_555 1_555
C69 C66 1_555 1_555
C70 C69 1_555 1_555
H62 C70 1_555 1_555
C71 C70 1_555 1_555
H63 C71 1_555 1_555
C72 C71 1_555 1_555
H64 C72 1_555 1_555
C73 C72 1_555 1_555
H65 C73 1_555 1_555
C74 C69 1_555 1_555
H66 C74 1_555 1_555
C75 S3 1_555 1_555
C76 C75 1_555 1_555
H67 C76 1_555 1_555
H68 C76 1_555 1_555
H69 C76 1_555 1_555
C77 C75 1_555 1_555
H70 C77 1_555 1_555
H71 C77 1_555 1_555
H72 C77 1_555 1_555
C78 C75 1_555 1_555
H73 C78 1_555 1_555
H74 C78 1_555 1_555
H75 C78 1_555 1_555
S4 N4 1_555 1_555
N4 C87 1_555 1_555
O13 C79 1_555 1_555
O14 C79 1_555 1_555
O15 C87 1_555 1_555
O16 S4 1_555 1_555
C79 H76 1_555 1_555
H77 C79 1_555 1_555
C80 O13 1_555 1_555
C81 O14 1_555 1_555
C82 C81 1_555 1_555
H78 C82 1_555 1_555
C83 C82 1_555 1_555
C84 C83 1_555 1_555
C85 C80 1_555 1_555
H79 C85 1_555 1_555
C86 C84 1_555 1_555
H80 C86 1_555 1_555
H81 C86 1_555 1_555
C87 C86 1_555 1_555
C88 N4 1_555 1_555
H82 C88 1_555 1_555
C89 C88 1_555 1_555
C90 C89 1_555 1_555
H83 C90 1_555 1_555
C91 C90 1_555 1_555
H84 C91 1_555 1_555
C92 C91 1_555 1_555
C93 C92 1_555 1_555
H85 C93 1_555 1_555
C94 C89 1_555 1_555
H86 C94 1_555 1_555
C95 C92 1_555 1_555
C96 C95 1_555 1_555
H87 C96 1_555 1_555
C97 C96 1_555 1_555
H88 C97 1_555 1_555
C98 C97 1_555 1_555
H89 C98 1_555 1_555
C99 C98 1_555 1_555
H90 C99 1_555 1_555
C100 C95 1_555 1_555
H91 C100 1_555 1_555
C101 S4 1_555 1_555
C102 C101 1_555 1_555
H92 C102 1_555 1_555
H93 C102 1_555 1_555
H94 C102 1_555 1_555
C103 C101 1_555 1_555
H95 C103 1_555 1_555
H96 C103 1_555 1_555
H97 C103 1_555 1_555
C104 C101 1_555 1_555
H98 C104 1_555 1_555
H99 C104 1_555 1_555
H100 C104 1_555 1_555
C2 C3 1_555 1_555
C5 C10 1_555 1_555
C6 C7 1_555 1_555
C15 C16 1_555 1_555
C21 C22 1_555 1_555
C28 C29 1_555 1_555
C31 C36 1_555 1_555
C32 C33 1_555 1_555
C41 C42 1_555 1_555
C47 C48 1_555 1_555
C54 C55 1_555 1_555
C57 C62 1_555 1_555
C58 C59 1_555 1_555
C67 C68 1_555 1_555
C73 C74 1_555 1_555
C80 C81 1_555 1_555
C83 C88 1_555 1_555
C84 C85 1_555 1_555
C93 C94 1_555 1_555
C99 C100 1_555 1_555

#END
