
#######################################################################
#
#                 Cambridge Crystallographic Data Centre
#                                CCDC 
#
#######################################################################
#
# If this CIF has been generated from an entry in the Cambridge 
# Structural Database, then it will include bibliographic, chemical, 
# crystal, experimental, refinement or atomic coordinate data resulting 
# from the CCDC's data processing and validation procedures.
#
#######################################################################

data_XIRNAP
_chemical_formula_moiety         'C35 H31 N1 O5'
_chemical_name_systematic        
3-Benzoyl-4,4-diphenyl-1-(3,4,5-trimethoxyphenyl)-3a,4,6,6a-tetrahydrocyclopenta[b]pyrrol-5(1H)-one
_symmetry_cell_setting           monoclinic
_symmetry_space_group_name_H-M   'P 21/n'
_symmetry_Int_Tables_number      14
_space_group_name_Hall           '-P 2yn'
loop_
_symmetry_equiv_pos_site_id
_symmetry_equiv_pos_as_xyz
1 x,y,z
2 1/2-x,1/2+y,1/2-z
3 -x,-y,-z
4 1/2+x,1/2-y,1/2+z
_cell_length_a                   12.8473(13)
_cell_length_b                   14.8635(14)
_cell_length_c                   16.0931(16)
_cell_angle_alpha                90
_cell_angle_beta                 113.307(2)
_cell_angle_gamma                90
_cell_volume                     2822.3
_exptl_crystal_colour            yellow
_exptl_crystal_description       prismatic
_cell_formula_units_Z            4
_chemical_properties_physical    Heat-sensitive
loop_
_atom_site_label
_atom_site_type_symbol
_atom_site_fract_x
_atom_site_fract_y
_atom_site_fract_z
N1 N 0.27749(11) 0.40975(9) 1.00556(10)
O1 O 0.09554(12) 0.36315(9) 1.15370(10)
O2 O 0.04520(12) 0.21351(9) 0.79627(10)
O3 O 0.64630(10) 0.53072(8) 1.19885(10)
O4 O 0.59141(11) 0.68774(9) 1.11103(11)
O5 O 0.38441(11) 0.71815(9) 0.98817(10)
C1 C 0.09430(13) 0.26345(9) 1.03219(11)
C2 C 0.14718(15) 0.32642(10) 1.11505(12)
C3 C 0.27263(15) 0.33204(12) 1.14062(12)
H1 H 0.3117 0.2840 1.1820
H2 H 0.3021 0.3894 1.1690
C4 C 0.28669(14) 0.32252(11) 1.05198(12)
H3 H 0.3577 0.2918 1.0605
C5 C 0.18157(14) 0.26914(10) 0.98584(12)
H4 H 0.2040 0.2087 0.9750
C6 C 0.14386(14) 0.32469(11) 0.90054(12)
C7 C 0.20275(13) 0.40201(11) 0.91837(11)
H5 H 0.1932 0.4461 0.8750
C8 C 0.07116(14) 0.29348(12) 0.81145(12)
C9 C 0.02901(14) 0.35963(12) 0.73553(12)
C10 C 0.02179(17) 0.33301(15) 0.65088(13)
H6 H 0.0456 0.2756 0.6434
C11 C -0.0198(2) 0.38982(19) 0.57810(16)
H7 H -0.0239 0.3710 0.5218
C12 C -0.0555(2) 0.47467(19) 0.58851(17)
H8 H -0.0835 0.5134 0.5392
C13 C -0.04999(19) 0.50258(15) 0.67172(16)
H9 H -0.0744 0.5600 0.6785
C14 C -0.00825(15) 0.44539(13) 0.74505(14)
H10 H -0.0050 0.4642 0.8011
C15 C 0.35648(13) 0.48062(10) 1.03782(11)
C16 C 0.32658(14) 0.56457(11) 0.99798(11)
H11 H 0.2544 0.5742 0.9537
C17 C 0.40483(15) 0.63389(11) 1.02457(12)
C18 C 0.51186(14) 0.62038(11) 1.09111(12)
C19 C 0.53913(13) 0.53701(11) 1.13315(12)
C20 C 0.46186(14) 0.46657(11) 1.10734(12)
H12 H 0.4803 0.4110 1.1361
C21 C 0.09110(13) 0.17208(10) 1.07623(12)
C22 C 0.16202(17) 0.10076(11) 1.08273(16)
H13 H 0.2191 0.1067 1.0612
C23 C 0.1494(2) 0.01977(12) 1.12111(19)
H14 H 0.1985 -0.0275 1.1250
C24 C 0.06738(17) 0.00844(12) 1.15280(14)
H15 H 0.0573 -0.0469 1.1755
C25 C -0.00110(17) 0.08038(13) 1.15087(14)
H16 H -0.0560 0.0745 1.1746
C26 C 0.01179(16) 0.16107(12) 1.11372(13)
H17 H -0.0341 0.2094 1.1139
C27 C -0.02409(13) 0.29125(10) 0.96756(11)
C28 C -0.10171(15) 0.22749(12) 0.91650(12)
H18 H -0.0823 0.1669 0.9245
C29 C -0.20683(17) 0.25199(15) 0.85424(13)
H19 H -0.2580 0.2080 0.8213
C30 C -0.23638(18) 0.34129(16) 0.84064(15)
H20 H -0.3074 0.3581 0.7985
C31 C -0.16059(18) 0.40501(14) 0.88956(16)
H21 H -0.1798 0.4656 0.8801
C32 C -0.05567(15) 0.38058(11) 0.95298(14)
H22 H -0.0055 0.4249 0.9864
C33 C 0.68200(17) 0.44734(14) 1.24325(16)
H23 H 0.6336 0.4309 1.2734
H24 H 0.7587 0.4525 1.2868
H25 H 0.6780 0.4020 1.1996
C34 C 0.5994(4) 0.7430(2) 1.1824(2)
H26 H 0.5255 0.7650 1.1734
H27 H 0.6484 0.7928 1.1855
H28 H 0.6299 0.7094 1.2379
C35 C 0.27182(19) 0.74340(14) 0.93855(17)
H29 H 0.2415 0.7088 0.8837
H30 H 0.2688 0.8062 0.9239
H31 H 0.2279 0.7325 0.9739
loop_
_geom_bond_atom_site_label_1
_geom_bond_atom_site_label_2
_geom_bond_site_symmetry_1
_geom_bond_site_symmetry_2
N1 C4 1_555 1_555
O1 C2 1_555 1_555
O2 C8 1_555 1_555
O3 C19 1_555 1_555
O4 C18 1_555 1_555
O5 C17 1_555 1_555
C1 C2 1_555 1_555
C2 C3 1_555 1_555
C3 H1 1_555 1_555
H2 C3 1_555 1_555
C4 C3 1_555 1_555
H3 C4 1_555 1_555
C5 C1 1_555 1_555
H4 C5 1_555 1_555
C6 C5 1_555 1_555
C7 N1 1_555 1_555
H5 C7 1_555 1_555
C8 C6 1_555 1_555
C9 C8 1_555 1_555
C10 C9 1_555 1_555
H6 C10 1_555 1_555
C11 C10 1_555 1_555
H7 C11 1_555 1_555
C12 C11 1_555 1_555
H8 C12 1_555 1_555
C13 C12 1_555 1_555
H9 C13 1_555 1_555
C14 C9 1_555 1_555
H10 C14 1_555 1_555
C15 N1 1_555 1_555
C16 C15 1_555 1_555
H11 C16 1_555 1_555
C17 C16 1_555 1_555
C18 C17 1_555 1_555
C19 C18 1_555 1_555
C20 C15 1_555 1_555
H12 C20 1_555 1_555
C21 C1 1_555 1_555
C22 C21 1_555 1_555
H13 C22 1_555 1_555
C23 C22 1_555 1_555
H14 C23 1_555 1_555
C24 C23 1_555 1_555
H15 C24 1_555 1_555
C25 C24 1_555 1_555
H16 C25 1_555 1_555
C26 C21 1_555 1_555
H17 C26 1_555 1_555
C27 C1 1_555 1_555
C28 C27 1_555 1_555
H18 C28 1_555 1_555
C29 C28 1_555 1_555
H19 C29 1_555 1_555
C30 C29 1_555 1_555
H20 C30 1_555 1_555
C31 C30 1_555 1_555
H21 C31 1_555 1_555
C32 C27 1_555 1_555
H22 C32 1_555 1_555
C33 O3 1_555 1_555
H23 C33 1_555 1_555
H24 C33 1_555 1_555
H25 C33 1_555 1_555
C34 O4 1_555 1_555
H26 C34 1_555 1_555
H27 C34 1_555 1_555
H28 C34 1_555 1_555
C35 O5 1_555 1_555
H29 C35 1_555 1_555
H30 C35 1_555 1_555
H31 C35 1_555 1_555
C4 C5 1_555 1_555
C6 C7 1_555 1_555
C13 C14 1_555 1_555
C19 C20 1_555 1_555
C25 C26 1_555 1_555
C31 C32 1_555 1_555

#END
