
#######################################################################
#
#                 Cambridge Crystallographic Data Centre
#                                CCDC 
#
#######################################################################
#
# If this CIF has been generated from an entry in the Cambridge 
# Structural Database, then it will include bibliographic, chemical, 
# crystal, experimental, refinement or atomic coordinate data resulting 
# from the CCDC's data processing and validation procedures.
#
#######################################################################

data_XIRVIG
_chemical_formula_moiety         'C8 H8 N2 O4'
_chemical_name_systematic        2,3-dimethyl-1,4-dinitrobenzene
_symmetry_cell_setting           triclinic
_symmetry_space_group_name_H-M   'P -1'
_symmetry_Int_Tables_number      2
_space_group_name_Hall           '-P 1'
loop_
_symmetry_equiv_pos_site_id
_symmetry_equiv_pos_as_xyz
1 x,y,z
2 -x,-y,-z
_cell_length_a                   9.1093(5)
_cell_length_b                   13.2430(8)
_cell_length_c                   15.4334(10)
_cell_angle_alpha                106.544(2)
_cell_angle_beta                 98.150(2)
_cell_angle_gamma                96.151(2)
_cell_volume                     1745.22
_exptl_crystal_description       block
_cell_formula_units_Z            8
loop_
_atom_site_label
_atom_site_type_symbol
_atom_site_fract_x
_atom_site_fract_y
_atom_site_fract_z
C1 C 0.2726(3) 0.38606(18) 0.40512(17)
C2 C 0.3792(3) 0.33848(18) 0.44621(17)
C3 C 0.4213(3) 0.37687(19) 0.54265(17)
C4 C 0.3519(3) 0.45921(19) 0.58844(18)
C5 C 0.2470(3) 0.5067(2) 0.54595(18)
H1 H 0.2041 0.5636 0.5809
C6 C 0.2068(3) 0.46924(19) 0.45206(18)
H2 H 0.1357 0.4996 0.4202
C7 C 0.4512(3) 0.2501(2) 0.39086(19)
H3 H 0.4182 0.2392 0.3252
H4 H 0.4215 0.1840 0.4050
H5 H 0.5607 0.2696 0.4065
C8 C 0.5412(3) 0.3312(2) 0.5908(2)
H6 H 0.5797 0.3800 0.6528
H7 H 0.6233 0.3219 0.5560
H8 H 0.4982 0.2619 0.5949
N1 N 0.2235(2) 0.34924(17) 0.30451(15)
N2 N 0.3846(3) 0.5015(2) 0.68959(16)
O1 O 0.1643(2) 0.25661(14) 0.26728(13)
O2 O 0.2420(2) 0.41563(15) 0.26431(13)
O3 O 0.4046(2) 0.59850(16) 0.72426(14)
O4 O 0.3860(3) 0.43800(18) 0.73352(14)
C9 C 0.0856(3) 0.58481(19) -0.09746(17)
C10 C 0.1807(3) 0.54845(19) -0.03846(17)
C11 C 0.2066(3) 0.60570(19) 0.05642(17)
C12 C 0.1324(3) 0.69329(19) 0.08205(17)
C13 C 0.0374(3) 0.72635(19) 0.02172(18)
H9 H -0.0118 0.7858 0.0436
C14 C 0.0145(3) 0.67240(19) -0.07052(18)
H10 H -0.0480 0.6946 -0.1141
C15 C 0.2591(3) 0.4542(2) -0.0726(2)
H11 H 0.2113 0.3928 -0.0579
H12 H 0.3649 0.4716 -0.0429
H13 H 0.2519 0.4368 -0.1394
C16 C 0.3062(3) 0.5684(2) 0.12355(19)
H14 H 0.2968 0.4905 0.1017
H15 H 0.2759 0.5904 0.1838
H16 H 0.4107 0.5999 0.1290
N3 N 0.0567(3) 0.52774(19) -0.19735(15)
N4 N 0.1550(3) 0.75968(17) 0.17929(16)
O5 O 0.0858(2) 0.57918(16) -0.24863(13)
O6 O 0.0028(3) 0.43345(16) -0.22335(14)
O7 O 0.2804(3) 0.77616(16) 0.22711(14)
O8 O 0.0470(3) 0.79794(15) 0.20603(14)
C17 C 0.7727(3) 0.95188(18) 0.49828(17)
C18 C 0.8336(3) 0.86820(18) 0.44575(17)
C19 C 0.9421(3) 0.82443(18) 0.49233(17)
C20 C 0.9785(3) 0.86907(18) 0.58772(18)
C21 C 0.9177(3) 0.95348(19) 0.63803(18)
H17 H 0.9479 0.9812 0.7029
C22 C 0.8130(3) 0.99616(19) 0.59243(18)
H18 H 0.7695 1.0544 0.6246
C23 C 0.7904(3) 0.8283(2) 0.34223(18)
H19 H 0.7205 0.7611 0.3238
H20 H 0.8806 0.8165 0.3152
H21 H 0.7420 0.8814 0.3205
C24 C 1.0153(3) 0.7368(2) 0.4373(2)
H22 H 0.9462 0.6692 0.4181
H23 H 1.1075 0.7302 0.4752
H24 H 1.0398 0.7541 0.3828
N5 N 0.6579(2) 0.99891(19) 0.45219(16)
N6 N 1.0908(3) 0.82835(19) 0.64295(17)
O9 O 0.6817(2) 1.09516(16) 0.46559(16)
O10 O 0.5439(2) 0.94060(16) 0.40555(15)
O11 O 1.0935(2) 0.73256(16) 0.62167(16)
O12 O 1.1739(2) 0.89391(17) 0.70888(15)
C25 C 0.2709(3) 0.95801(18) 0.03558(18)
C26 C 0.3906(3) 0.94318(18) 0.09544(17)
C27 C 0.4831(3) 0.87017(19) 0.05626(17)
C28 C 0.4481(3) 0.82063(19) -0.03786(18)
C29 C 0.3307(3) 0.83882(19) -0.09655(18)
H25 H 0.3137 0.8037 -0.1608
C30 C 0.2404(3) 0.90915(19) -0.05859(18)
H26 H 0.1586 0.9241 -0.0960
C31 C 0.4273(3) 1.0031(2) 0.19690(18)
H27 H 0.3616 1.0573 0.2112
H28 H 0.5323 1.0378 0.2132
H29 H 0.4117 0.9532 0.2322
C32 C 0.6155(3) 0.8499(2) 0.1162(2)
H30 H 0.5796 0.8081 0.1543
H31 H 0.6734 0.9181 0.1558
H32 H 0.6796 0.8103 0.0773
N7 N 0.1638(2) 1.02742(17) 0.07249(16)
N8 N 0.5414(3) 0.74398(19) -0.08129(17)
O13 O 0.1284(2) 1.09149(14) 0.03276(14)
O14 O 0.1111(2) 1.01379(16) 0.13786(14)
O15 O 0.6042(2) 0.76432(16) -0.14018(16)
O16 O 0.5479(3) 0.66504(18) -0.05650(16)
loop_
_geom_bond_atom_site_label_1
_geom_bond_atom_site_label_2
_geom_bond_site_symmetry_1
_geom_bond_site_symmetry_2
C1 C2 1_555 1_555
C2 C3 1_555 1_555
C3 C4 1_555 1_555
C4 C5 1_555 1_555
C5 H1 1_555 1_555
C6 C1 1_555 1_555
H2 C6 1_555 1_555
C7 C2 1_555 1_555
H3 C7 1_555 1_555
H4 C7 1_555 1_555
H5 C7 1_555 1_555
C8 C3 1_555 1_555
H6 C8 1_555 1_555
H7 C8 1_555 1_555
H8 C8 1_555 1_555
N1 C1 1_555 1_555
N2 C4 1_555 1_555
O1 N1 1_555 1_555
O2 N1 1_555 1_555
O3 N2 1_555 1_555
O4 N2 1_555 1_555
C9 C10 1_555 1_555
C10 C11 1_555 1_555
C11 C12 1_555 1_555
C12 C13 1_555 1_555
C13 H9 1_555 1_555
C14 C9 1_555 1_555
H10 C14 1_555 1_555
C15 C10 1_555 1_555
H11 C15 1_555 1_555
H12 C15 1_555 1_555
H13 C15 1_555 1_555
C16 C11 1_555 1_555
H14 C16 1_555 1_555
H15 C16 1_555 1_555
H16 C16 1_555 1_555
N3 C9 1_555 1_555
N4 C12 1_555 1_555
O5 N3 1_555 1_555
O6 N3 1_555 1_555
O7 N4 1_555 1_555
O8 N4 1_555 1_555
C17 C18 1_555 1_555
C18 C19 1_555 1_555
C19 C20 1_555 1_555
C20 C21 1_555 1_555
C21 H17 1_555 1_555
C22 C17 1_555 1_555
H18 C22 1_555 1_555
C23 C18 1_555 1_555
H19 C23 1_555 1_555
H20 C23 1_555 1_555
H21 C23 1_555 1_555
C24 C19 1_555 1_555
H22 C24 1_555 1_555
H23 C24 1_555 1_555
H24 C24 1_555 1_555
N5 C17 1_555 1_555
N6 C20 1_555 1_555
O9 N5 1_555 1_555
O10 N5 1_555 1_555
O11 N6 1_555 1_555
O12 N6 1_555 1_555
C25 C26 1_555 1_555
C26 C27 1_555 1_555
C27 C28 1_555 1_555
C28 C29 1_555 1_555
C29 H25 1_555 1_555
C30 C25 1_555 1_555
H26 C30 1_555 1_555
C31 C26 1_555 1_555
H27 C31 1_555 1_555
H28 C31 1_555 1_555
H29 C31 1_555 1_555
C32 C27 1_555 1_555
H30 C32 1_555 1_555
H31 C32 1_555 1_555
H32 C32 1_555 1_555
N7 C25 1_555 1_555
N8 C28 1_555 1_555
O13 N7 1_555 1_555
O14 N7 1_555 1_555
O15 N8 1_555 1_555
O16 N8 1_555 1_555
C5 C6 1_555 1_555
C13 C14 1_555 1_555
C21 C22 1_555 1_555
C29 C30 1_555 1_555

#END
