
#######################################################################
#
#                 Cambridge Crystallographic Data Centre
#                                CCDC 
#
#######################################################################
#
# If this CIF has been generated from an entry in the Cambridge 
# Structural Database, then it will include bibliographic, chemical, 
# crystal, experimental, refinement or atomic coordinate data resulting 
# from the CCDC's data processing and validation procedures.
#
#######################################################################

data_XISFOW
_chemical_formula_moiety         'C32 H36 O8'
_chemical_name_systematic        
'8,17-Dimethoxy-20,22-diphenyl-3,9,12,18-tetraoxatricyclo[14.2.2.2^7,10^]docosa-1(19),10(21)-diene-2,11-dione unknown solvate'
_symmetry_cell_setting           triclinic
_symmetry_space_group_name_H-M   'P -1'
_symmetry_Int_Tables_number      2
_space_group_name_Hall           '-P 1'
loop_
_symmetry_equiv_pos_site_id
_symmetry_equiv_pos_as_xyz
1 x,y,z
2 -x,-y,-z
_cell_length_a                   12.1853(12)
_cell_length_b                   12.5214(13)
_cell_length_c                   12.8915(14)
_cell_angle_alpha                63.887(11)
_cell_angle_beta                 78.617(14)
_cell_angle_gamma                76.892(13)
_cell_volume                     1709.42
_exptl_crystal_colour            colorless
_exptl_crystal_description       Prism
_cell_formula_units_Z            1
loop_
_atom_site_label
_atom_site_type_symbol
_atom_site_fract_x
_atom_site_fract_y
_atom_site_fract_z
O1 O 0.20838(8) 0.92104(9) -0.12189(8)
O2 O 0.34188(8) 1.01001(8) -0.09225(8)
O3 O 0.58640(8) 0.79036(8) 0.17530(8)
O4 O 0.72100(10) 0.70976(9) 0.07047(9)
C1 C 0.24576(14) 0.95489(15) -0.24318(12)
H1 H 0.2651 1.0363 -0.2779
H2 H 0.1850 0.9535 -0.2821
H3 H 0.3127 0.8980 -0.2525
C2 C 0.29620(12) 0.90088(12) -0.05690(12)
H4 H 0.3580 0.8387 -0.0699
C3 C 0.27717(12) 1.09145(12) -0.05080(11)
C4 C 0.18832(12) 1.06865(13) 0.03041(12)
H5 H 0.1488 1.1303 0.0542
C5 C 0.14903(12) 0.94803(13) 0.08546(12)
H6 H 0.0897 0.9533 0.0390
C6 C 0.09396(11) 0.91484(12) 0.21038(12)
C7 C 0.12377(12) 0.95486(13) 0.28461(12)
H7 H 0.1807 1.0047 0.2575
C8 C 0.07151(12) 0.92292(13) 0.39733(12)
H8 H 0.0922 0.9517 0.4466
C9 C -0.01079(12) 0.84928(14) 0.43877(13)
H9 H -0.0467 0.8278 0.5161
C10 C -0.04051(13) 0.80715(14) 0.36704(14)
H10 H -0.0960 0.7554 0.3958
C11 C 0.01027(12) 0.84004(13) 0.25330(13)
H11 H -0.0117 0.8119 0.2042
C12 C 0.24980(12) 0.85248(12) 0.07116(11)
H12 H 0.2197 0.7770 0.0913
C13 C 0.34433(11) 0.82129(12) 0.14778(11)
H13 H 0.3828 0.8922 0.1201
H14 H 0.3096 0.8046 0.2285
C14 C 0.43356(12) 0.71244(12) 0.14864(12)
H15 H 0.3959 0.6405 0.1797
H16 H 0.4663 0.7274 0.0677
C15 C 0.52848(12) 0.68644(12) 0.22054(12)
H17 H 0.4971 0.6677 0.3025
H18 H 0.5830 0.6155 0.2181
C16 C 0.67922(12) 0.79162(12) 0.09917(11)
O1A O 0.79162(8) 1.07896(9) 0.12189(8)
O2A O 0.65812(8) 0.98999(8) 0.09225(8)
O3A O 0.41360(8) 1.20964(8) -0.17530(8)
O4A O 0.27900(10) 1.29024(9) -0.07047(9)
C1A C 0.75424(14) 1.04511(15) 0.24318(12)
H1A H 0.7349 0.9637 0.2779
H2A H 0.8150 1.0465 0.2821
H3A H 0.6873 1.1020 0.2525
C2A C 0.70380(12) 1.09912(12) 0.05690(12)
H4A H 0.6420 1.1613 0.0699
C3A C 0.72283(12) 0.90855(12) 0.05080(11)
C4A C 0.81168(12) 0.93135(13) -0.03041(12)
H5A H 0.8512 0.8697 -0.0542
C5A C 0.85097(12) 1.05197(13) -0.08546(12)
H6A H 0.9103 1.0467 -0.0390
C6A C 0.90604(11) 1.08516(12) -0.21038(12)
C7A C 0.87623(12) 1.04514(13) -0.28461(12)
H7A H 0.8193 0.9953 -0.2575
C8A C 0.92849(12) 1.07708(13) -0.39733(12)
H8A H 0.9078 1.0483 -0.4466
C9A C 1.01079(12) 1.15072(14) -0.43877(13)
H9A H 1.0467 1.1722 -0.5161
C10A C 1.04051(13) 1.19285(14) -0.36704(14)
H10A H 1.0960 1.2446 -0.3958
C11A C 0.98973(12) 1.15996(13) -0.25330(13)
H11A H 1.0117 1.1881 -0.2042
C12A C 0.75020(12) 1.14752(12) -0.07116(11)
H12A H 0.7803 1.2230 -0.0913
C13A C 0.65567(11) 1.17871(12) -0.14778(11)
H13A H 0.6172 1.1078 -0.1201
H14A H 0.6904 1.1954 -0.2285
C14A C 0.56644(12) 1.28756(12) -0.14864(12)
H15A H 0.6041 1.3595 -0.1797
H16A H 0.5337 1.2726 -0.0677
C15A C 0.47152(12) 1.31356(12) -0.22054(12)
H17A H 0.5029 1.3323 -0.3025
H18A H 0.4170 1.3845 -0.2181
C16A C 0.32078(12) 1.20838(12) -0.09917(11)
loop_
_geom_bond_atom_site_label_1
_geom_bond_atom_site_label_2
_geom_bond_site_symmetry_1
_geom_bond_site_symmetry_2
O1 C1 1_555 1_555
O2 C2 1_555 1_555
O3 C15 1_555 1_555
O4 C16 1_555 1_555
C1 H1 1_555 1_555
H2 C1 1_555 1_555
H3 C1 1_555 1_555
C2 O1 1_555 1_555
H4 C2 1_555 1_555
C3 O2 1_555 1_555
C4 C3 1_555 1_555
H5 C4 1_555 1_555
C5 C4 1_555 1_555
H6 C5 1_555 1_555
C6 C5 1_555 1_555
C7 C6 1_555 1_555
H7 C7 1_555 1_555
C8 C7 1_555 1_555
H8 C8 1_555 1_555
C9 C8 1_555 1_555
H9 C9 1_555 1_555
C10 C9 1_555 1_555
H10 C10 1_555 1_555
C11 C6 1_555 1_555
H11 C11 1_555 1_555
C12 C2 1_555 1_555
H12 C12 1_555 1_555
C13 C12 1_555 1_555
H13 C13 1_555 1_555
H14 C13 1_555 1_555
C14 C13 1_555 1_555
H15 C14 1_555 1_555
H16 C14 1_555 1_555
C15 C14 1_555 1_555
H17 C15 1_555 1_555
H18 C15 1_555 1_555
C16 O3 1_555 1_555
O1A C1A 1_555 1_555
O2A C2A 1_555 1_555
O3A C15A 1_555 1_555
O4A C16A 1_555 1_555
C1A H1A 1_555 1_555
H2A C1A 1_555 1_555
H3A C1A 1_555 1_555
C2A O1A 1_555 1_555
H4A C2A 1_555 1_555
C3A C16 1_555 1_555
C4A C3A 1_555 1_555
H5A C4A 1_555 1_555
C5A C4A 1_555 1_555
H6A C5A 1_555 1_555
C6A C5A 1_555 1_555
C7A C6A 1_555 1_555
H7A C7A 1_555 1_555
C8A C7A 1_555 1_555
H8A C8A 1_555 1_555
C9A C8A 1_555 1_555
H9A C9A 1_555 1_555
C10A C9A 1_555 1_555
H10A C10A 1_555 1_555
C11A C6A 1_555 1_555
H11A C11A 1_555 1_555
C12A C2A 1_555 1_555
H12A C12A 1_555 1_555
C13A C12A 1_555 1_555
H13A C13A 1_555 1_555
H14A C13A 1_555 1_555
C14A C13A 1_555 1_555
H15A C14A 1_555 1_555
H16A C14A 1_555 1_555
C15A C14A 1_555 1_555
H17A C15A 1_555 1_555
H18A C15A 1_555 1_555
C16A C3 1_555 1_555
C5 C12 1_555 1_555
C10 C11 1_555 1_555
O2A C3A 1_555 1_555
O3A C16A 1_555 1_555
C5A C12A 1_555 1_555
C10A C11A 1_555 1_555

#END
