
#######################################################################
#
#                 Cambridge Crystallographic Data Centre
#                                CCDC 
#
#######################################################################
#
# If this CIF has been generated from an entry in the Cambridge 
# Structural Database, then it will include bibliographic, chemical, 
# crystal, experimental, refinement or atomic coordinate data resulting 
# from the CCDC's data processing and validation procedures.
#
#######################################################################

data_XISGEL
_chemical_formula_moiety         '2(C21 H25 F3 O4),0.5(H2 O1)'
_chemical_name_systematic        
"bis((1'R,3'S,4'S,8'R,2S)-9'-Oxatricyclo[6.4.0.0^3',8'^]dodecan-4'-yl 3,3,3-trifluoro-2-methoxy-2-phenylpropanoate) hemihydrate"
_symmetry_cell_setting           monoclinic
_symmetry_space_group_name_H-M   'C 2'
_symmetry_Int_Tables_number      5
_space_group_name_Hall           'C 2y'
loop_
_symmetry_equiv_pos_site_id
_symmetry_equiv_pos_as_xyz
1 x,y,z
2 -x,y,-z
3 1/2+x,1/2+y,z
4 1/2-x,1/2+y,-z
_cell_length_a                   27.193(9)
_cell_length_b                   8.776(3)
_cell_length_c                   8.695(2)
_cell_angle_alpha                90
_cell_angle_beta                 104.02(3)
_cell_angle_gamma                90
_cell_volume                     2013.21
_cell_formula_units_Z            2
loop_
_atom_site_label
_atom_site_type_symbol
_atom_site_fract_x
_atom_site_fract_y
_atom_site_fract_z
O1 O 0.6976(1) 0.4025 0.5686(3)
O2 O 0.6409(1) 0.7442(4) 0.4032(4)
O3 O 0.6284(1) 0.6076(4) 0.6080(3)
O4 O 0.5706(1) 1.0749(4) 0.7950(3)
F1 F 0.7372(1) 0.6188(5) 0.3719(4)
F2 F 0.7264(1) 0.3878(4) 0.2948(4)
F3 F 0.6749(1) 0.5578(4) 0.1791(3)
C1 C 0.6686(1) 0.4805(5) 0.4357(4)
C2 C 0.6456(2) 0.6291(5) 0.4790(5)
C3 C 0.5952(1) 0.7264(5) 0.6497(5)
C4 C 0.5626(2) 0.6371(6) 0.7391(6)
C5 C 0.5317(2) 0.7482(6) 0.8127(6)
C6 C 0.5670(1) 0.8482(6) 0.9319(5)
C7 C 0.6007(1) 0.9472(5) 0.8549(4)
C8 C 0.6254(1) 0.8541(5) 0.7413(4)
C9 C 0.6702(2) 0.8268(6) 0.8870(5)
C10 C 0.6538(1) 0.9727(5) 0.9626(5)
C11 C 0.6789(2) 1.1175(6) 0.9294(5)
C12 C 0.6413(2) 1.2465(6) 0.8955(6)
C13 C 0.5980(2) 1.2032(5) 0.7590(6)
C14 C 0.7015(2) 0.5118(6) 0.3187(6)
C15 C 0.6260(1) 0.3729(5) 0.3575(4)
C16 C 0.6329(1) 0.2184(5) 0.3696(4)
C17 C 0.5940(2) 0.1189(6) 0.3035(5)
C18 C 0.5479(2) 0.1770(7) 0.2232(7)
C19 C 0.5407(2) 0.3297(8) 0.2102(7)
C20 C 0.5797(2) 0.4299(6) 0.2746(6)
C21 C 0.7372(2) 0.4803(7) 0.6763(6)
H1 H 0.5733 0.7675 0.5520
H2 H 0.5401 0.5691 0.6668
H3 H 0.5842 0.5761 0.8216
H4 H 0.5108 0.8109 0.7304
H5 H 0.5096 0.6921 0.8647
H6 H 0.5882 0.7845 1.0124
H7 H 0.5471 0.9135 0.9836
H8 H 0.6362 0.9237 0.6676
H9 H 0.7033 0.8345 0.8640
H10 H 0.6673 0.7339 0.9447
H11 H 0.6548 0.9597 1.0753
H12 H 0.6934 1.1025 0.8391
H13 H 0.7061 1.1433 1.0203
H14 H 0.6286 1.2674 0.9885
H15 H 0.6576 1.3379 0.8694
H16 H 0.5751 1.2891 0.7319
H17 H 0.6111 1.1798 0.6674
H18 H 0.6642 0.1797 0.4231
H19 H 0.5990 0.0142 0.3132
H20 H 0.5217 0.1112 0.1776
H21 H 0.5092 0.3678 0.1574
H22 H 0.5748 0.5345 0.2620
H23 H 0.7533 0.4122 0.7599
H24 H 0.7235 0.5659 0.7206
H25 H 0.7617 0.5153 0.6213
O5 O 0.5000(2) 0.9736(7) 0.5000(6)
H26 H 0.5204 1.0028 0.5851
H26A H 0.4796 1.0028 0.4149
loop_
_geom_bond_atom_site_label_1
_geom_bond_atom_site_label_2
_geom_bond_site_symmetry_1
_geom_bond_site_symmetry_2
O1 C1 1_555 1_555
O2 C2 1_555 1_555
O3 C2 1_555 1_555
O4 C7 1_555 1_555
F1 C14 1_555 1_555
F2 C14 1_555 1_555
F3 C14 1_555 1_555
C1 C2 1_555 1_555
C3 O3 1_555 1_555
C4 C3 1_555 1_555
C5 C4 1_555 1_555
C6 C5 1_555 1_555
C7 C6 1_555 1_555
C8 C3 1_555 1_555
C9 C8 1_555 1_555
C10 C7 1_555 1_555
C11 C10 1_555 1_555
C12 C11 1_555 1_555
C13 O4 1_555 1_555
C14 C1 1_555 1_555
C15 C1 1_555 1_555
C16 C15 1_555 1_555
C17 C16 1_555 1_555
C18 C17 1_555 1_555
C19 C18 1_555 1_555
C20 C15 1_555 1_555
C21 O1 1_555 1_555
O5 H26 1_555 1_555
H1 C3 1_555 1_555
H2 C4 1_555 1_555
H3 C4 1_555 1_555
H4 C5 1_555 1_555
H5 C5 1_555 1_555
H6 C6 1_555 1_555
H7 C6 1_555 1_555
H8 C8 1_555 1_555
H9 C9 1_555 1_555
H10 C9 1_555 1_555
H11 C10 1_555 1_555
H12 C11 1_555 1_555
H13 C11 1_555 1_555
H14 C12 1_555 1_555
H15 C12 1_555 1_555
H16 C13 1_555 1_555
H17 C13 1_555 1_555
H18 C16 1_555 1_555
H19 C17 1_555 1_555
H20 C18 1_555 1_555
H21 C19 1_555 1_555
H22 C20 1_555 1_555
H23 C21 1_555 1_555
H24 C21 1_555 1_555
H25 C21 1_555 1_555
H26A O5 1_555 1_555
C7 C8 1_555 1_555
C9 C10 1_555 1_555
C12 C13 1_555 1_555
C19 C20 1_555 1_555

#END
