
#######################################################################
#
#                 Cambridge Crystallographic Data Centre
#                                CCDC 
#
#######################################################################
#
# If this CIF has been generated from an entry in the Cambridge 
# Structural Database, then it will include bibliographic, chemical, 
# crystal, experimental, refinement or atomic coordinate data resulting 
# from the CCDC's data processing and validation procedures.
#
#######################################################################

data_XISHEN
_chemical_formula_moiety         'C21 H22 N2 O3'
_chemical_name_systematic        
'3-t-Butyl-4-oxo-3,4-dihydrophthalazin-1-yl 3,5-dimethylbenzoate'
_symmetry_cell_setting           monoclinic
_symmetry_space_group_name_H-M   'P 21/n'
_symmetry_Int_Tables_number      14
_space_group_name_Hall           '-P 2yn'
loop_
_symmetry_equiv_pos_site_id
_symmetry_equiv_pos_as_xyz
1 x,y,z
2 1/2-x,1/2+y,1/2-z
3 -x,-y,-z
4 1/2+x,1/2-y,1/2+z
_cell_length_a                   8.7974(2)
_cell_length_b                   18.7622(4)
_cell_length_c                   11.7405(3)
_cell_angle_alpha                90
_cell_angle_beta                 92.634(2)
_cell_angle_gamma                90
_cell_volume                     1935.82
_exptl_crystal_colour            colorless
_exptl_crystal_description       block
_chemical_melting_point          '421-422 K'
_cell_formula_units_Z            4
loop_
_atom_site_label
_atom_site_type_symbol
_atom_site_fract_x
_atom_site_fract_y
_atom_site_fract_z
C1 C -0.1890(3) -0.01591(13) 0.3028(2)
H1 H -0.2610 -0.0137 0.2389
H2 H -0.2406 -0.0080 0.3720
H3 H -0.1417 -0.0620 0.3055
C2 C -0.06900(19) 0.04061(9) 0.29032(15)
C3 C -0.0157(2) 0.08071(10) 0.38294(14)
H4 H -0.0547 0.0720 0.4539
C4 C 0.0936(2) 0.13334(9) 0.37380(13)
C5 C 0.1455(3) 0.17747(12) 0.47572(16)
H5 H 0.0757 0.1714 0.5354
H6 H 0.1487 0.2268 0.4543
H7 H 0.2452 0.1623 0.5022
C6 C 0.15174(18) 0.14558(8) 0.26761(13)
H8 H 0.2263 0.1801 0.2594
C7 C 0.09907(16) 0.10652(8) 0.17396(12)
C8 C -0.01108(17) 0.05444(9) 0.18535(14)
H9 H -0.0461 0.0287 0.1218
C9 C 0.15521(17) 0.11830(8) 0.05858(13)
C10 C 0.33337(17) 0.17600(8) -0.04896(12)
C11 C 0.26329(16) 0.22905(8) -0.12040(12)
C12 C 0.14226(19) 0.27236(10) -0.09065(14)
H10 H 0.1017 0.2681 -0.0192
C13 C 0.0840(2) 0.32105(11) -0.16753(17)
H11 H 0.0035 0.3500 -0.1478
C14 C 0.1433(2) 0.32802(10) -0.27457(17)
H12 H 0.1015 0.3610 -0.3262
C15 C 0.26313(19) 0.28648(9) -0.30426(14)
H13 H 0.3034 0.2916 -0.3757
C16 C 0.32475(16) 0.23645(8) -0.22752(12)
C17 C 0.45363(18) 0.19228(9) -0.25804(13)
C18 C 0.65359(19) 0.10239(10) -0.19097(16)
C19 C 0.6200(3) 0.04906(15) -0.2852(2)
H14 H 0.7114 0.0237 -0.3011
H15 H 0.5830 0.0736 -0.3526
H16 H 0.5443 0.0160 -0.2618
C20 C 0.7848(2) 0.15067(13) -0.2199(3)
H17 H 0.8019 0.1851 -0.1602
H18 H 0.7603 0.1749 -0.2904
H19 H 0.8750 0.1226 -0.2275
C21 C 0.6985(3) 0.06425(15) -0.0799(2)
H20 H 0.7924 0.0391 -0.0883
H21 H 0.6202 0.0310 -0.0619
H22 H 0.7112 0.0986 -0.0196
N1 N 0.44872(15) 0.13807(7) -0.07117(11)
N2 N 0.51350(15) 0.14770(7) -0.17419(11)
O1 O 0.10477(15) 0.09179(7) -0.02755(9)
O2 O 0.27700(12) 0.16353(6) 0.05844(8)
O3 O 0.50744(16) 0.19522(9) -0.35226(10)
loop_
_geom_bond_atom_site_label_1
_geom_bond_atom_site_label_2
_geom_bond_site_symmetry_1
_geom_bond_site_symmetry_2
C1 H1 1_555 1_555
H2 C1 1_555 1_555
H3 C1 1_555 1_555
C2 C1 1_555 1_555
C3 C2 1_555 1_555
H4 C3 1_555 1_555
C4 C3 1_555 1_555
C5 C4 1_555 1_555
H5 C5 1_555 1_555
H6 C5 1_555 1_555
H7 C5 1_555 1_555
C6 C4 1_555 1_555
H8 C6 1_555 1_555
C7 C6 1_555 1_555
C8 C2 1_555 1_555
H9 C8 1_555 1_555
C9 C7 1_555 1_555
C10 C11 1_555 1_555
C11 C12 1_555 1_555
C12 H10 1_555 1_555
C13 C12 1_555 1_555
H11 C13 1_555 1_555
C14 C13 1_555 1_555
H12 C14 1_555 1_555
C15 C14 1_555 1_555
H13 C15 1_555 1_555
C16 C11 1_555 1_555
C17 C16 1_555 1_555
C18 C19 1_555 1_555
C19 H14 1_555 1_555
H15 C19 1_555 1_555
H16 C19 1_555 1_555
C20 C18 1_555 1_555
H17 C20 1_555 1_555
H18 C20 1_555 1_555
H19 C20 1_555 1_555
C21 C18 1_555 1_555
H20 C21 1_555 1_555
H21 C21 1_555 1_555
H22 C21 1_555 1_555
N1 C10 1_555 1_555
N2 C17 1_555 1_555
O1 C9 1_555 1_555
O2 C9 1_555 1_555
O3 C17 1_555 1_555
C7 C8 1_555 1_555
C10 O2 1_555 1_555
C15 C16 1_555 1_555
C18 N2 1_555 1_555
N1 N2 1_555 1_555

#END
