
#######################################################################
#
#                 Cambridge Crystallographic Data Centre
#                                CCDC 
#
#######################################################################
#
# If this CIF has been generated from an entry in the Cambridge 
# Structural Database, then it will include bibliographic, chemical, 
# crystal, experimental, refinement or atomic coordinate data resulting 
# from the CCDC's data processing and validation procedures.
#
#######################################################################

data_XISKIT
_chemical_formula_moiety         'C12 H17 N1'
_chemical_name_systematic        p-Cyclohexylaniline
_symmetry_cell_setting           monoclinic
_symmetry_space_group_name_H-M   'P 21/c'
_symmetry_Int_Tables_number      14
_space_group_name_Hall           '-P 2ybc'
loop_
_symmetry_equiv_pos_site_id
_symmetry_equiv_pos_as_xyz
1 x,y,z
2 -x,1/2+y,1/2-z
3 -x,-y,-z
4 x,1/2-y,1/2+z
_cell_length_a                   14.552(1)
_cell_length_b                   5.591(1)
_cell_length_c                   13.302(1)
_cell_angle_alpha                90
_cell_angle_beta                 107.88(1)
_cell_angle_gamma                90
_cell_volume                     1029.98
_cell_formula_units_Z            4
_exptl_crystal_recrystallization_method n-hexane
loop_
_atom_site_label
_atom_site_type_symbol
_atom_site_fract_x
_atom_site_fract_y
_atom_site_fract_z
N1 N 0.5020(2) 0.5307(6) 0.6886(2)
C1 C 0.4257(2) 0.5509(5) 0.5929(2)
C2 C 0.3546(2) 0.3820(5) 0.5613(2)
C3 C 0.2801(2) 0.4080(5) 0.4679(2)
C4 C 0.2746(2) 0.6024(5) 0.4023(2)
C5 C 0.3464(2) 0.7722(5) 0.4351(2)
C6 C 0.4207(2) 0.7505(5) 0.5291(2)
C7 C 0.1950(2) 0.6185(5) 0.2980(2)
C8 C 0.2326(2) 0.5637(6) 0.2050(2)
C9 C 0.1530(2) 0.5710(6) 0.0999(2)
C10 C 0.0985(2) 0.8046(6) 0.0833(2)
C11 C 0.0602(2) 0.8585(6) 0.1746(2)
C12 C 0.1406(2) 0.8529(6) 0.2797(2)
loop_
_geom_bond_atom_site_label_1
_geom_bond_atom_site_label_2
_geom_bond_site_symmetry_1
_geom_bond_site_symmetry_2
N1 C1 1_555 1_555
C1 C2 1_555 1_555
C2 C3 1_555 1_555
C3 C4 1_555 1_555
C4 C5 1_555 1_555
C5 C6 1_555 1_555
C6 C1 1_555 1_555
C7 C4 1_555 1_555
C8 C7 1_555 1_555
C9 C8 1_555 1_555
C10 C9 1_555 1_555
C11 C10 1_555 1_555
C12 C7 1_555 1_555
C11 C12 1_555 1_555

#END
