
#######################################################################
#
#                 Cambridge Crystallographic Data Centre
#                                CCDC 
#
#######################################################################
#
# If this CIF has been generated from an entry in the Cambridge 
# Structural Database, then it will include bibliographic, chemical, 
# crystal, experimental, refinement or atomic coordinate data resulting 
# from the CCDC's data processing and validation procedures.
#
#######################################################################

data_XISWAZ
_chemical_formula_moiety         'C21 H35 Br1 O3 Si1'
_chemical_name_systematic        
11-Bromo-2-(((t-butyl(dimethyl)silyl)oxy)methyl)-1,5-dimethyl-9-oxatetracyclo[8.2.1.0^2,8^.0^5,7^]tridecan-13-one
_symmetry_cell_setting           triclinic
_symmetry_space_group_name_H-M   'P -1'
_symmetry_Int_Tables_number      2
_space_group_name_Hall           '-P 1'
loop_
_symmetry_equiv_pos_site_id
_symmetry_equiv_pos_as_xyz
1 x,y,z
2 -x,-y,-z
_cell_length_a                   6.6004(7)
_cell_length_b                   10.5409(11)
_cell_length_c                   17.3417(17)
_cell_angle_alpha                99.996(8)
_cell_angle_beta                 98.505(8)
_cell_angle_gamma                94.219(8)
_cell_volume                     1169.04
_cell_formula_units_Z            2
loop_
_atom_site_label
_atom_site_type_symbol
_atom_site_fract_x
_atom_site_fract_y
_atom_site_fract_z
Br1 Br 0.30780(7) 0.86324(4) 1.11173(2)
Si1 Si 0.42374(15) 0.76929(9) 0.63960(6)
O1 O 0.2314(4) 0.5322(2) 0.94206(13)
O2 O -0.1428(4) 0.7172(3) 0.92900(19)
O3 O 0.2974(3) 0.7269(2) 0.70810(13)
C1 C 0.1769(5) 0.6457(3) 0.9883(2)
H1 H 0.1103 0.6261 1.0323
C2 C 0.3594(5) 0.7492(3) 1.01653(19)
H2 H 0.4877 0.7095 1.0275
C3 C 0.3653(5) 0.8235(3) 0.9481(2)
H3 H 0.4941 0.8156 0.9280
H4 H 0.3537 0.9146 0.9665
C4 C 0.1815(5) 0.7643(3) 0.8820(2)
C5 C 0.2384(4) 0.6413(3) 0.82654(18)
C6 C 0.0480(5) 0.5636(4) 0.7744(2)
H5 H -0.0397 0.5298 0.8079
H6 H -0.0289 0.6208 0.7458
C7 C 0.1003(7) 0.4516(4) 0.7150(2)
H7 H -0.0257 0.3977 0.6901
H8 H 0.1587 0.4861 0.6738
C8 C 0.2507(7) 0.3682(4) 0.7517(2)
C9 C 0.3713(6) 0.4217(3) 0.8337(2)
H9 H 0.5112 0.3959 0.8427
C10 C 0.3449(5) 0.5529(3) 0.87891(19)
H10 H 0.4818 0.5958 0.9033
C11 C 0.0884(6) 0.8656(4) 0.8388(3)
H11 H 0.1888 0.9021 0.8119
H12 H 0.0475 0.9328 0.8765
H13 H -0.0297 0.8257 0.8009
C12 C 0.3613(10) 0.2897(4) 0.6923(3)
H14 H 0.4536 0.2392 0.7192
H15 H 0.4381 0.3470 0.6673
H16 H 0.2623 0.2330 0.6528
C13 C 0.2018(8) 0.3119(4) 0.8208(3)
H17 H 0.2418 0.2262 0.8247
H18 H 0.0743 0.3308 0.8398
C14 C 0.3945(5) 0.6812(3) 0.77517(19)
H19 H 0.4956 0.7486 0.8071
H20 H 0.4664 0.6073 0.7574
C15 C 0.0382(5) 0.7093(3) 0.9323(2)
C16 C 0.5762(7) 0.6368(5) 0.6038(3)
H21 H 0.6835 0.6280 0.6458
H22 H 0.6361 0.6566 0.5596
H23 H 0.4879 0.5571 0.5875
C17 C 0.5903(7) 0.9221(4) 0.6822(3)
H24 H 0.5069 0.9883 0.7004
H25 H 0.6616 0.9483 0.6423
H26 H 0.6886 0.9087 0.7259
C18 C 0.2222(6) 0.7923(3) 0.5577(2)
C19 C 0.0895(7) 0.6650(5) 0.5247(3)
H27 H 0.1714 0.6028 0.5005
H28 H -0.0223 0.6784 0.4858
H29 H 0.0357 0.6334 0.5671
C20 C 0.3206(8) 0.8314(6) 0.4890(3)
H30 H 0.4083 0.9109 0.5079
H31 H 0.2143 0.8433 0.4474
H32 H 0.4005 0.7645 0.4688
C21 C 0.0865(9) 0.8959(5) 0.5909(4)
H33 H 0.0310 0.8702 0.6346
H34 H -0.0241 0.9040 0.5500
H35 H 0.1688 0.9777 0.6087
loop_
_geom_bond_atom_site_label_1
_geom_bond_atom_site_label_2
_geom_bond_site_symmetry_1
_geom_bond_site_symmetry_2
Br1 C2 1_555 1_555
Si1 O3 1_555 1_555
O1 C1 1_555 1_555
O2 C15 1_555 1_555
O3 C14 1_555 1_555
C1 H1 1_555 1_555
C2 C1 1_555 1_555
H2 C2 1_555 1_555
C3 C2 1_555 1_555
H3 C3 1_555 1_555
H4 C3 1_555 1_555
C4 C3 1_555 1_555
C5 C4 1_555 1_555
C6 C5 1_555 1_555
H5 C6 1_555 1_555
H6 C6 1_555 1_555
C7 C6 1_555 1_555
H7 C7 1_555 1_555
H8 C7 1_555 1_555
C8 C7 1_555 1_555
C9 C8 1_555 1_555
H9 C9 1_555 1_555
C10 O1 1_555 1_555
H10 C10 1_555 1_555
C11 C4 1_555 1_555
H11 C11 1_555 1_555
H12 C11 1_555 1_555
H13 C11 1_555 1_555
C12 C8 1_555 1_555
H14 C12 1_555 1_555
H15 C12 1_555 1_555
H16 C12 1_555 1_555
C13 C8 1_555 1_555
H17 C13 1_555 1_555
H18 C13 1_555 1_555
C14 C5 1_555 1_555
H19 C14 1_555 1_555
H20 C14 1_555 1_555
C15 C1 1_555 1_555
C16 Si1 1_555 1_555
H21 C16 1_555 1_555
H22 C16 1_555 1_555
H23 C16 1_555 1_555
C17 Si1 1_555 1_555
H24 C17 1_555 1_555
H25 C17 1_555 1_555
H26 C17 1_555 1_555
C18 Si1 1_555 1_555
C19 C18 1_555 1_555
H27 C19 1_555 1_555
H28 C19 1_555 1_555
H29 C19 1_555 1_555
C20 C18 1_555 1_555
H30 C20 1_555 1_555
H31 C20 1_555 1_555
H32 C20 1_555 1_555
C21 C18 1_555 1_555
H33 C21 1_555 1_555
H34 C21 1_555 1_555
H35 C21 1_555 1_555
C4 C15 1_555 1_555
C5 C10 1_555 1_555
C9 C10 1_555 1_555
C9 C13 1_555 1_555

#END
