
#######################################################################
#
#                 Cambridge Crystallographic Data Centre
#                                CCDC 
#
#######################################################################
#
# If this CIF has been generated from an entry in the Cambridge 
# Structural Database, then it will include bibliographic, chemical, 
# crystal, experimental, refinement or atomic coordinate data resulting 
# from the CCDC's data processing and validation procedures.
#
#######################################################################

data_XISZIK
_chemical_formula_moiety         'C31 H23 F1 N2'
_chemical_name_systematic        
3-(6-Fluoro-1H-indol-3-yl)-1,2-diphenyl-1,2,3,4-tetrahydrocyclopenta[b]indole
_symmetry_cell_setting           monoclinic
_symmetry_space_group_name_H-M   'P 21/c'
_symmetry_Int_Tables_number      14
_space_group_name_Hall           '-P 2ybc'
loop_
_symmetry_equiv_pos_site_id
_symmetry_equiv_pos_as_xyz
1 x,y,z
2 -x,1/2+y,1/2-z
3 -x,-y,-z
4 x,1/2-y,1/2+z
_cell_length_a                   11.818(6)
_cell_length_b                   10.447(5)
_cell_length_c                   19.261(10)
_cell_angle_alpha                90
_cell_angle_beta                 96.456(12)
_cell_angle_gamma                90
_cell_volume                     2362.93
_exptl_crystal_colour            colorless
_exptl_crystal_description       Prism
_cell_formula_units_Z            4
loop_
_atom_site_label
_atom_site_type_symbol
_atom_site_fract_x
_atom_site_fract_y
_atom_site_fract_z
F1 F 1.2538(2) 0.59426(16) 0.05513(14)
N1 N 0.86257(17) 1.05676(16) 0.15977(10)
H1 H 0.9267 1.0952 0.1587
N2 N 1.2207(2) 0.8314(3) 0.26763(16)
H2 H 1.2898 0.8396 0.2866
C1 C 0.7599(2) 1.08813(19) 0.12009(12)
C2 C 0.7366(3) 1.1846(2) 0.07073(14)
H3 H 0.7939 1.2384 0.0586
C3 C 0.6259(3) 1.1977(3) 0.04039(16)
H4 H 0.6079 1.2615 0.0074
C4 C 0.5410(3) 1.1168(3) 0.05850(15)
H5 H 0.4667 1.1290 0.0380
C5 C 0.5636(2) 1.0182(2) 0.10633(13)
H6 H 0.5057 0.9638 0.1171
C6 C 0.67570(19) 1.00230(19) 0.13815(11)
C7 C 0.73257(19) 0.91643(18) 0.18877(11)
C8 C 0.84266(19) 0.95379(17) 0.20060(11)
C9 C 0.91135(19) 0.88640(19) 0.26050(12)
H7 H 0.9137 0.9408 0.3021
C10 C 0.83129(17) 0.76897(18) 0.27012(11)
H8 H 0.8568 0.6982 0.2423
C11 C 0.70725(18) 0.80835(18) 0.23642(12)
H9 H 0.6651 0.8426 0.2733
C12 C 0.64225(18) 0.69601(19) 0.20278(12)
C13 C 0.5809(2) 0.6172(3) 0.24231(16)
H10 H 0.5762 0.6371 0.2890
C14 C 0.5267(2) 0.5099(3) 0.2141(2)
H11 H 0.4872 0.4575 0.2420
C15 C 0.5302(2) 0.4789(3) 0.1451(2)
H12 H 0.4927 0.4066 0.1260
C16 C 0.5899(3) 0.5565(3) 0.10468(18)
H13 H 0.5930 0.5368 0.0579
C17 C 0.6458(2) 0.6647(2) 0.13351(14)
H14 H 0.6860 0.7165 0.1056
C18 C 0.83263(18) 0.72158(18) 0.34427(11)
C19 C 0.8118(3) 0.8031(2) 0.39784(13)
H15 H 0.8008 0.8898 0.3884
C20 C 0.8069(3) 0.7590(3) 0.46507(15)
H16 H 0.7926 0.8161 0.5001
C21 C 0.8228(3) 0.6324(3) 0.48059(15)
H17 H 0.8199 0.6028 0.5259
C22 C 0.8429(3) 0.5501(2) 0.42847(15)
H18 H 0.8533 0.4635 0.4383
C23 C 0.8481(2) 0.5940(2) 0.36089(13)
H19 H 0.8623 0.5363 0.3262
C24 C 1.03088(19) 0.8493(2) 0.25019(12)
C25 C 1.06849(19) 0.7778(2) 0.19342(13)
C26 C 1.0145(2) 0.7247(2) 0.13192(15)
H20 H 0.9358 0.7307 0.1220
C27 C 1.0777(3) 0.6632(2) 0.08574(18)
H21 H 1.0426 0.6271 0.0447
C28 C 1.1945(4) 0.6566(3) 0.1021(2)
C29 C 1.2525(3) 0.7062(3) 0.1600(3)
H22 H 1.3313 0.6995 0.1688
C30 C 1.1878(2) 0.7684(3) 0.20621(18)
C31 C 1.1267(3) 0.8791(3) 0.29389(16)
H23 H 1.1277 0.9249 0.3353
loop_
_geom_bond_atom_site_label_1
_geom_bond_atom_site_label_2
_geom_bond_site_symmetry_1
_geom_bond_site_symmetry_2
F1 C28 1_555 1_555
N1 H1 1_555 1_555
N2 H2 1_555 1_555
C1 N1 1_555 1_555
C2 C1 1_555 1_555
H3 C2 1_555 1_555
C3 C2 1_555 1_555
H4 C3 1_555 1_555
C4 C3 1_555 1_555
H5 C4 1_555 1_555
C5 C4 1_555 1_555
H6 C5 1_555 1_555
C6 C1 1_555 1_555
C7 C6 1_555 1_555
C8 N1 1_555 1_555
C9 C8 1_555 1_555
H7 C9 1_555 1_555
C10 C9 1_555 1_555
H8 C10 1_555 1_555
C11 C7 1_555 1_555
H9 C11 1_555 1_555
C12 C11 1_555 1_555
C13 C12 1_555 1_555
H10 C13 1_555 1_555
C14 C13 1_555 1_555
H11 C14 1_555 1_555
C15 C14 1_555 1_555
H12 C15 1_555 1_555
C16 C15 1_555 1_555
H13 C16 1_555 1_555
C17 C12 1_555 1_555
H14 C17 1_555 1_555
C18 C10 1_555 1_555
C19 C18 1_555 1_555
H15 C19 1_555 1_555
C20 C19 1_555 1_555
H16 C20 1_555 1_555
C21 C20 1_555 1_555
H17 C21 1_555 1_555
C22 C21 1_555 1_555
H18 C22 1_555 1_555
C23 C18 1_555 1_555
H19 C23 1_555 1_555
C24 C9 1_555 1_555
C25 C24 1_555 1_555
C26 C25 1_555 1_555
H20 C26 1_555 1_555
C27 C26 1_555 1_555
H21 C27 1_555 1_555
C28 C27 1_555 1_555
C29 C28 1_555 1_555
H22 C29 1_555 1_555
C30 N2 1_555 1_555
C31 N2 1_555 1_555
H23 C31 1_555 1_555
C5 C6 1_555 1_555
C7 C8 1_555 1_555
C10 C11 1_555 1_555
C16 C17 1_555 1_555
C22 C23 1_555 1_555
C24 C31 1_555 1_555
C25 C30 1_555 1_555
C29 C30 1_555 1_555

#END
