
#######################################################################
#
#                 Cambridge Crystallographic Data Centre
#                                CCDC 
#
#######################################################################
#
# If this CIF has been generated from an entry in the Cambridge 
# Structural Database, then it will include bibliographic, chemical, 
# crystal, experimental, refinement or atomic coordinate data resulting 
# from the CCDC's data processing and validation procedures.
#
#######################################################################

data_XIVGOA
_chemical_formula_moiety         'C24 H18 N4 O2 S5'
_chemical_name_systematic        
4,4'-(1,1-Dioxido-1-benzothiene-2,3-diyl)bis(5,5'-dimethyl-2,2'-bi-1,3-thiazole)
_symmetry_cell_setting           monoclinic
_symmetry_space_group_name_H-M   'C 2/c'
_symmetry_Int_Tables_number      15
_space_group_name_Hall           '-C 2yn'
loop_
_symmetry_equiv_pos_site_id
_symmetry_equiv_pos_as_xyz
1 x,y,z
2 -x,y,1/2-z
3 1/2+x,1/2+y,z
4 1/2-x,1/2+y,1/2-z
5 -x,-y,-z
6 x,-y,1/2+z
7 1/2-x,1/2-y,-z
8 1/2+x,1/2-y,1/2+z
_cell_length_a                   30.783(5)
_cell_length_b                   12.614(2)
_cell_length_c                   22.865(7)
_cell_angle_alpha                90
_cell_angle_beta                 129.682(2)
_cell_angle_gamma                90
_cell_volume                     6832.82
_cell_formula_units_Z            8
loop_
_atom_site_label
_atom_site_type_symbol
_atom_site_fract_x
_atom_site_fract_y
_atom_site_fract_z
C1 C 0.2494(2) 0.8481(3) -0.0879(2)
H1 H 0.2299 0.8331 -0.1390
C2 C 0.30031(19) 0.7944(3) -0.0335(2)
H2 H 0.3128 0.7453 -0.0502
C3 C 0.33304(14) 0.8112(2) 0.04460(17)
H3 H 0.3665 0.7748 0.0806
C4 C 0.31173(11) 0.8857(2) 0.06358(14)
C5 C 0.25925(12) 0.9390(2) 0.00664(15)
C6 C 0.22698(16) 0.9215(3) -0.06961(17)
H4 H 0.1930 0.9562 -0.1057
C7 C 0.33932(10) 0.92208(18) 0.14082(13)
C8 C 0.30833(10) 0.9969(2) 0.14090(13)
C9 C 0.39694(10) 0.8817(2) 0.20916(14)
C10 C 0.44453(11) 0.9443(2) 0.26503(15)
C11 C 0.44966(14) 1.0622(2) 0.27167(19)
H5 H 0.4225 1.0935 0.2224
H6 H 0.4870 1.0827 0.2919
H7 H 0.4428 1.0863 0.3050
C12 C 0.46054(11) 0.7535(2) 0.28175(15)
C13 C 0.48401(12) 0.6470(2) 0.30930(16)
C14 C 0.54737(15) 0.5217(3) 0.3829(2)
H8 H 0.5825 0.4935 0.4224
C15 C 0.50087(15) 0.4584(3) 0.3321(2)
C16 C 0.4963(2) 0.3389(3) 0.3282(3)
H9 H 0.5103 0.3115 0.3039
H10 H 0.4575 0.3188 0.2996
H11 H 0.5182 0.3106 0.3787
C17 C 0.31665(11) 1.0434(2) 0.20406(15)
C18 C 0.32307(13) 0.9846(2) 0.25769(16)
C19 C 0.32373(17) 0.8679(2) 0.2658(2)
H12 H 0.2987 0.8359 0.2164
H13 H 0.3116 0.8504 0.2943
H14 H 0.3613 0.8418 0.2921
C20 C 0.32293(12) 1.1758(2) 0.26886(17)
C21 C 0.32613(14) 1.2841(2) 0.29311(18)
C22 C 0.3334(2) 1.4113(3) 0.3608(3)
H15 H 0.3359 1.4396 0.4004
C23 C 0.33303(19) 1.4733(3) 0.3143(2)
C24 C 0.3361(3) 1.5912(3) 0.3127(3)
H16 H 0.3287 1.6218 0.3440
H17 H 0.3086 1.6160 0.2615
H18 H 0.3732 1.6118 0.3318
N1 N 0.40672(9) 0.77401(17) 0.21909(11)
N2 N 0.53833(11) 0.6282(2) 0.37134(16)
N3 N 0.31630(10) 1.15158(17) 0.21036(12)
N4 N 0.33002(16) 1.3049(2) 0.34963(19)
O1 O 0.19249(9) 1.0017(2) 0.03297(12)
O2 O 0.24669(10) 1.13630(17) 0.02712(12)
S1 S 0.24373(3) 1.03033(6) 0.04621(4)
S2 S 0.50345(3) 0.86370(6) 0.33265(4)
S3 S 0.32957(4) 1.06891(6) 0.31920(5)
S4 S 0.32700(5) 1.39330(7) 0.25157(5)
S5 S 0.44126(3) 0.53648(6) 0.26244(5)
loop_
_geom_bond_atom_site_label_1
_geom_bond_atom_site_label_2
_geom_bond_site_symmetry_1
_geom_bond_site_symmetry_2
C1 H1 1_555 1_555
C2 C1 1_555 1_555
H2 C2 1_555 1_555
C3 C2 1_555 1_555
H3 C3 1_555 1_555
C4 C3 1_555 1_555
C5 C4 1_555 1_555
C6 C1 1_555 1_555
H4 C6 1_555 1_555
C7 C4 1_555 1_555
C8 C7 1_555 1_555
C9 C7 1_555 1_555
C10 C9 1_555 1_555
C11 C10 1_555 1_555
H5 C11 1_555 1_555
H6 C11 1_555 1_555
H7 C11 1_555 1_555
C12 C13 1_555 1_555
C13 N2 1_555 1_555
C14 H8 1_555 1_555
C15 C14 1_555 1_555
C16 C15 1_555 1_555
H9 C16 1_555 1_555
H10 C16 1_555 1_555
H11 C16 1_555 1_555
C17 C8 1_555 1_555
C18 C17 1_555 1_555
C19 C18 1_555 1_555
H12 C19 1_555 1_555
H13 C19 1_555 1_555
H14 C19 1_555 1_555
C20 C21 1_555 1_555
C21 N4 1_555 1_555
C22 H15 1_555 1_555
C23 C22 1_555 1_555
C24 C23 1_555 1_555
H16 C24 1_555 1_555
H17 C24 1_555 1_555
H18 C24 1_555 1_555
N1 C9 1_555 1_555
N2 C14 1_555 1_555
N3 C17 1_555 1_555
N4 C22 1_555 1_555
O1 S1 1_555 1_555
O2 S1 1_555 1_555
S1 C5 1_555 1_555
S2 C10 1_555 1_555
S3 C18 1_555 1_555
S4 C21 1_555 1_555
S5 C13 1_555 1_555
C5 C6 1_555 1_555
C8 S1 1_555 1_555
C12 N1 1_555 1_555
C12 S2 1_555 1_555
C15 S5 1_555 1_555
C20 N3 1_555 1_555
C20 S3 1_555 1_555
C23 S4 1_555 1_555

#END
