
#######################################################################
#
#                 Cambridge Crystallographic Data Centre
#                                CCDC 
#
#######################################################################
#
# If this CIF has been generated from an entry in the Cambridge 
# Structural Database, then it will include bibliographic, chemical, 
# crystal, experimental, refinement or atomic coordinate data resulting 
# from the CCDC's data processing and validation procedures.
#
#######################################################################

data_XIVNIB
_chemical_formula_moiety         'C12 H9 N3 S1'
_chemical_name_systematic        3-(pyridin-3-yl)-4H-1,2,4-benzothiadiazine
_symmetry_cell_setting           orthorhombic
_symmetry_space_group_name_H-M   'P 21 21 21'
_symmetry_Int_Tables_number      19
_space_group_name_Hall           'P 2ac 2ab'
loop_
_symmetry_equiv_pos_site_id
_symmetry_equiv_pos_as_xyz
1 x,y,z
2 1/2-x,-y,1/2+z
3 -x,1/2+y,1/2-z
4 1/2+x,1/2-y,-z
_cell_length_a                   4.8958(2)
_cell_length_b                   13.2251(6)
_cell_length_c                   15.7846(8)
_cell_angle_alpha                90
_cell_angle_beta                 90
_cell_angle_gamma                90
_cell_volume                     1022.01
_exptl_crystal_colour            red
_exptl_crystal_description       rod
_cell_formula_units_Z            4
loop_
_atom_site_label
_atom_site_type_symbol
_atom_site_fract_x
_atom_site_fract_y
_atom_site_fract_z
S1 S 0.83003(17) 0.59498(6) 0.66557(4)
N1 N 1.0272(5) 0.4385(2) 0.54044(14)
H1 H 1.094(7) 0.405(3) 0.507(2)
N2 N 1.0733(4) 0.50618(17) 0.67870(13)
N3 N 1.6114(5) 0.21820(18) 0.60276(14)
C1 C 0.8198(6) 0.50223(19) 0.51023(15)
C2 C 0.7075(5) 0.57721(19) 0.56153(15)
C3 C 0.4983(6) 0.6382(2) 0.53052(18)
H2 H 0.411(6) 0.686(2) 0.5717(19)
C4 C 0.4047(6) 0.6260(2) 0.44795(18)
H3 H 0.254(7) 0.670(3) 0.425(2)
C5 C 0.5195(6) 0.5521(2) 0.39697(18)
H4 H 0.457(6) 0.542(2) 0.3348(19)
C6 C 0.7252(6) 0.4907(2) 0.42779(16)
H5 H 0.812(6) 0.442(2) 0.3903(18)
C7 C 1.1385(5) 0.44292(19) 0.61979(14)
C8 C 1.3511(5) 0.36671(19) 0.64103(14)
C9 C 1.4245(6) 0.2904(2) 0.58539(16)
H6 H 1.347(7) 0.285(2) 0.5320(17)
C10 C 1.7276(6) 0.2208(2) 0.67888(17)
H7 H 1.863(8) 0.167(3) 0.693(2)
C11 C 1.6722(6) 0.2938(2) 0.73811(16)
H8 H 1.763(6) 0.296(2) 0.7892(19)
C12 C 1.4823(5) 0.3685(2) 0.71934(16)
H9 H 1.436(6) 0.420(3) 0.759(2)
loop_
_geom_bond_atom_site_label_1
_geom_bond_atom_site_label_2
_geom_bond_site_symmetry_1
_geom_bond_site_symmetry_2
S1 N2 1_555 1_555
N1 H1 1_555 1_555
N2 C7 1_555 1_555
N3 C9 1_555 1_555
C1 N1 1_555 1_555
C2 S1 1_555 1_555
C3 C2 1_555 1_555
H2 C3 1_555 1_555
C4 C3 1_555 1_555
H3 C4 1_555 1_555
C5 C4 1_555 1_555
H4 C5 1_555 1_555
C6 C1 1_555 1_555
H5 C6 1_555 1_555
C7 N1 1_555 1_555
C8 C7 1_555 1_555
C9 C8 1_555 1_555
H6 C9 1_555 1_555
C10 N3 1_555 1_555
H7 C10 1_555 1_555
C11 C10 1_555 1_555
H8 C11 1_555 1_555
C12 C8 1_555 1_555
H9 C12 1_555 1_555
C1 C2 1_555 1_555
C5 C6 1_555 1_555
C11 C12 1_555 1_555

#END
