
#######################################################################
#
#                 Cambridge Crystallographic Data Centre
#                                CCDC 
#
#######################################################################
#
# If this CIF has been generated from an entry in the Cambridge 
# Structural Database, then it will include bibliographic, chemical, 
# crystal, experimental, refinement or atomic coordinate data resulting 
# from the CCDC's data processing and validation procedures.
#
#######################################################################

data_XIVPOJ
_chemical_formula_moiety         'C14 H9 F3 N2 S1'
_chemical_name_systematic        
3-phenyl-6-(trifluoromethyl)-4H-1,2,4-benzothiadiazine
_symmetry_cell_setting           monoclinic
_symmetry_space_group_name_H-M   'C c'
_symmetry_Int_Tables_number      9
_space_group_name_Hall           'C -2yc'
loop_
_symmetry_equiv_pos_site_id
_symmetry_equiv_pos_as_xyz
1 x,y,z
2 x,-y,1/2+z
3 1/2+x,1/2+y,z
4 1/2+x,1/2-y,1/2+z
_cell_length_a                   14.857(2)
_cell_length_b                   13.0971(19)
_cell_length_c                   26.970(4)
_cell_angle_alpha                90
_cell_angle_beta                 90.959(4)
_cell_angle_gamma                90
_cell_volume                     5247.19
_exptl_crystal_colour            yellow
_exptl_crystal_description       needle
_cell_formula_units_Z            16
loop_
_atom_site_label
_atom_site_type_symbol
_atom_site_fract_x
_atom_site_fract_y
_atom_site_fract_z
C1 C 0.5388(9) 0.9951(9) 0.5861(4)
F1 F 0.5590(11) 0.9550(10) 0.5415(3)
F2 F 0.5090(8) 1.0884(8) 0.5785(6)
F3 F 0.6176(7) 1.0008(8) 0.6101(4)
S1 S 0.2847(3) 0.7409(3) 0.70571(15)
N1 N 0.2976(7) 0.9613(7) 0.7094(4)
H1 H 0.3142 1.0172 0.7252
N2 N 0.1961(7) 0.8234(7) 0.7152(4)
C2 C 0.3564(9) 0.8114(8) 0.6680(5)
C3 C 0.3574(8) 0.9180(8) 0.6748(4)
C4 C 0.4117(9) 0.9771(8) 0.6455(4)
H2 H 0.4083 1.0494 0.6478
C5 C 0.4725(9) 0.9320(8) 0.6120(4)
C6 C 0.4735(10) 0.8259(9) 0.6074(5)
H3 H 0.5151 0.7939 0.5860
C7 C 0.4139(9) 0.7674(9) 0.6339(5)
H4 H 0.4121 0.6957 0.6288
C8 C 0.2150(7) 0.9199(7) 0.7192(5)
C9 C 0.1423(8) 0.9903(8) 0.7338(5)
C10 C 0.1345(9) 1.0879(8) 0.7130(5)
H5 H 0.1784 1.1115 0.6905
C11 C 0.0637(10) 1.1493(10) 0.7250(6)
H6 H 0.0600 1.2162 0.7115
C12 C -0.0017(10) 1.1161(10) 0.7561(5)
H7 H -0.0518 1.1586 0.7626
C13 C 0.0047(10) 1.0194(10) 0.7784(6)
H8 H -0.0399 0.9972 0.8008
C14 C 0.0748(8) 0.9585(10) 0.7676(5)
H9 H 0.0794 0.8931 0.7827
C15 C 0.0230(9) 1.0214(9) 0.5727(4)
F4 F 0.0712(11) 1.0876(9) 0.5995(4)
F5 F 0.0818(7) 0.9667(7) 0.5470(4)
F6 F -0.0244(8) 1.0779(8) 0.5412(4)
S2 S -0.1970(3) 0.7838(3) 0.71754(14)
N3 N -0.0034(8) 0.7709(7) 0.7076(4)
H10 H 0.0520 0.7837 0.7179
N4 N -0.1334(7) 0.6774(7) 0.7283(4)
C16 C -0.1373(8) 0.8496(10) 0.6724(5)
C17 C -0.0440(7) 0.8380(9) 0.6720(4)
C18 C 0.0076(8) 0.8919(9) 0.6392(4)
H11 H 0.0712 0.8845 0.6397
C19 C -0.0348(8) 0.9585(9) 0.6046(4)
C20 C -0.1270(8) 0.9704(11) 0.6060(5)
H12 H -0.1551 1.0193 0.5848
C21 C -0.1797(8) 0.9132(9) 0.6374(5)
H13 H -0.2435 0.9169 0.6352
C22 C -0.0470(7) 0.6874(8) 0.7263(5)
C23 C 0.0104(8) 0.6011(9) 0.7440(4)
C24 C 0.0933(8) 0.5815(10) 0.7243(5)
H14 H 0.1150 0.6259 0.6994
C25 C 0.1462(11) 0.5002(10) 0.7392(6)
H15 H 0.2041 0.4897 0.7256
C26 C 0.1125(10) 0.4350(10) 0.7742(5)
H16 H 0.1476 0.3782 0.7848
C27 C 0.0275(10) 0.4505(11) 0.7944(6)
H17 H 0.0054 0.4036 0.8181
C28 C -0.0248(9) 0.5334(9) 0.7803(5)
H18 H -0.0822 0.5447 0.7942
C29 C 0.2231(9) 0.7477(9) 0.5415(4)
F7 F 0.2029(10) 0.7890(10) 0.5855(4)
F8 F 0.2511(11) 0.6541(7) 0.5512(5)
F9 F 0.1449(7) 0.7394(9) 0.5175(4)
S3 S 0.4772(3) 0.9956(3) 0.41960(17)
N5 N 0.4629(7) 0.7728(8) 0.4200(4)
H19 H 0.4473 0.7137 0.4070
N6 N 0.5633(7) 0.9121(7) 0.4091(4)
C30 C 0.4056(9) 0.9259(8) 0.4578(5)
C31 C 0.4045(9) 0.8193(7) 0.4542(4)
C32 C 0.3477(9) 0.7594(8) 0.4813(4)
H20 H 0.3483 0.6871 0.4783
C33 C 0.2882(9) 0.8095(8) 0.5139(4)
C34 C 0.2897(10) 0.9152(8) 0.5190(5)
H21 H 0.2486 0.9482 0.5403
C35 C 0.3514(9) 0.9719(9) 0.4929(5)
H22 H 0.3569 1.0431 0.4990
C36 C 0.5431(7) 0.8158(7) 0.4062(5)
C37 C 0.6143(9) 0.7453(8) 0.3897(5)
C38 C 0.6267(9) 0.6484(9) 0.4102(5)
H23 H 0.5852 0.6247 0.4340
C39 C 0.6967(10) 0.5864(10) 0.3972(5)
H24 H 0.7042 0.5218 0.4128
C40 C 0.7558(10) 0.6175(10) 0.3618(5)
H25 H 0.8030 0.5737 0.3516
C41 C 0.7454(10) 0.7157(10) 0.3407(5)
H26 H 0.7884 0.7391 0.3176
C42 C 0.6750(8) 0.7777(9) 0.3527(5)
H27 H 0.6668 0.8416 0.3365
C43 C 0.2346(9) 0.2163(9) 0.5506(4)
F10 F 0.2802(9) 0.1581(9) 0.5833(4)
F11 F 0.1843(10) 0.1512(9) 0.5248(4)
F12 F 0.1804(9) 0.2714(7) 0.5777(4)
S4 S 0.4614(2) 0.4520(3) 0.40978(14)
N7 N 0.2632(8) 0.4655(7) 0.4170(4)
H28 H 0.2077 0.4545 0.4063
N8 N 0.3960(7) 0.5582(7) 0.3981(4)
C44 C 0.3974(8) 0.3876(10) 0.4535(5)
C45 C 0.3044(7) 0.3958(8) 0.4514(4)
C46 C 0.2505(8) 0.3448(9) 0.4846(4)
H29 H 0.1873 0.3556 0.4850
C47 C 0.2935(8) 0.2753(9) 0.5181(4)
C48 C 0.3861(8) 0.2662(11) 0.5205(5)
H30 H 0.4138 0.2227 0.5444
C49 C 0.4385(8) 0.3214(10) 0.4876(5)
H31 H 0.5022 0.3141 0.4883
C50 C 0.3094(7) 0.5492(8) 0.4004(5)
C51 C 0.2532(8) 0.6384(9) 0.3859(5)
C52 C 0.1691(8) 0.6571(10) 0.4036(5)
H32 H 0.1439 0.6107 0.4266
C53 C 0.1201(11) 0.7409(10) 0.3890(6)
H33 H 0.0608 0.7498 0.4009
C54 C 0.1558(10) 0.8127(10) 0.3573(6)
H34 H 0.1232 0.8727 0.3488
C55 C 0.2414(10) 0.7945(10) 0.3380(6)
H35 H 0.2672 0.8423 0.3158
C56 C 0.2880(9) 0.7078(9) 0.3511(5)
H36 H 0.3445 0.6943 0.3365
loop_
_geom_bond_atom_site_label_1
_geom_bond_atom_site_label_2
_geom_bond_site_symmetry_1
_geom_bond_site_symmetry_2
C1 F1 1_555 1_555
F2 C1 1_555 1_555
F3 C1 1_555 1_555
S1 N2 1_555 1_555
N1 H1 1_555 1_555
N2 C8 1_555 1_555
C2 S1 1_555 1_555
C3 N1 1_555 1_555
C4 C3 1_555 1_555
H2 C4 1_555 1_555
C5 C1 1_555 1_555
C6 C5 1_555 1_555
H3 C6 1_555 1_555
C7 C2 1_555 1_555
H4 C7 1_555 1_555
C8 N1 1_555 1_555
C9 C8 1_555 1_555
C10 C9 1_555 1_555
H5 C10 1_555 1_555
C11 C10 1_555 1_555
H6 C11 1_555 1_555
C12 C11 1_555 1_555
H7 C12 1_555 1_555
C13 C12 1_555 1_555
H8 C13 1_555 1_555
C14 C9 1_555 1_555
H9 C14 1_555 1_555
C15 F4 1_555 1_555
F5 C15 1_555 1_555
F6 C15 1_555 1_555
S2 N4 1_555 1_555
N3 H10 1_555 1_555
N4 C22 1_555 1_555
C16 S2 1_555 1_555
C17 N3 1_555 1_555
C18 C17 1_555 1_555
H11 C18 1_555 1_555
C19 C15 1_555 1_555
C20 C19 1_555 1_555
H12 C20 1_555 1_555
C21 C16 1_555 1_555
H13 C21 1_555 1_555
C22 N3 1_555 1_555
C23 C22 1_555 1_555
C24 C23 1_555 1_555
H14 C24 1_555 1_555
C25 C24 1_555 1_555
H15 C25 1_555 1_555
C26 C25 1_555 1_555
H16 C26 1_555 1_555
C27 C26 1_555 1_555
H17 C27 1_555 1_555
C28 C23 1_555 1_555
H18 C28 1_555 1_555
C29 F7 1_555 1_555
F8 C29 1_555 1_555
F9 C29 1_555 1_555
S3 N6 1_555 1_555
N5 H19 1_555 1_555
N6 C36 1_555 1_555
C30 S3 1_555 1_555
C31 N5 1_555 1_555
C32 C31 1_555 1_555
H20 C32 1_555 1_555
C33 C29 1_555 1_555
C34 C33 1_555 1_555
H21 C34 1_555 1_555
C35 C30 1_555 1_555
H22 C35 1_555 1_555
C36 N5 1_555 1_555
C37 C36 1_555 1_555
C38 C37 1_555 1_555
H23 C38 1_555 1_555
C39 C38 1_555 1_555
H24 C39 1_555 1_555
C40 C39 1_555 1_555
H25 C40 1_555 1_555
C41 C40 1_555 1_555
H26 C41 1_555 1_555
C42 C37 1_555 1_555
H27 C42 1_555 1_555
C43 F10 1_555 1_555
F11 C43 1_555 1_555
F12 C43 1_555 1_555
S4 N8 1_555 1_555
N7 H28 1_555 1_555
N8 C50 1_555 1_555
C44 S4 1_555 1_555
C45 N7 1_555 1_555
C46 C45 1_555 1_555
H29 C46 1_555 1_555
C47 C43 1_555 1_555
C48 C47 1_555 1_555
H30 C48 1_555 1_555
C49 C44 1_555 1_555
H31 C49 1_555 1_555
C50 N7 1_555 1_555
C51 C50 1_555 1_555
C52 C51 1_555 1_555
H32 C52 1_555 1_555
C53 C52 1_555 1_555
H33 C53 1_555 1_555
C54 C53 1_555 1_555
H34 C54 1_555 1_555
C55 C54 1_555 1_555
H35 C55 1_555 1_555
C56 C51 1_555 1_555
H36 C56 1_555 1_555
C2 C3 1_555 1_555
C4 C5 1_555 1_555
C6 C7 1_555 1_555
C13 C14 1_555 1_555
C16 C17 1_555 1_555
C18 C19 1_555 1_555
C20 C21 1_555 1_555
C27 C28 1_555 1_555
C30 C31 1_555 1_555
C32 C33 1_555 1_555
C34 C35 1_555 1_555
C41 C42 1_555 1_555
C44 C45 1_555 1_555
C46 C47 1_555 1_555
C48 C49 1_555 1_555
C55 C56 1_555 1_555

#END
