
#######################################################################
#
#                 Cambridge Crystallographic Data Centre
#                                CCDC 
#
#######################################################################
#
# If this CIF has been generated from an entry in the Cambridge 
# Structural Database, then it will include bibliographic, chemical, 
# crystal, experimental, refinement or atomic coordinate data resulting 
# from the CCDC's data processing and validation procedures.
#
#######################################################################

data_XIWMAR
_chemical_formula_moiety         'C17 H15 N1 O3 S1'
_chemical_name_systematic        
'Ethyl 4-methyl-5-oxo-2-phenyl-4,5-dihydrothieno(3,2-b)pyridine-7-carboxylate'
_symmetry_cell_setting           triclinic
_symmetry_space_group_name_H-M   'P -1'
_symmetry_Int_Tables_number      2
_space_group_name_Hall           '-P 1'
loop_
_symmetry_equiv_pos_site_id
_symmetry_equiv_pos_as_xyz
1 x,y,z
2 -x,-y,-z
_cell_length_a                   10.618(2)
_cell_length_b                   11.272(2)
_cell_length_c                   20.056(4)
_cell_angle_alpha                103.46(2)
_cell_angle_beta                 92.44(2)
_cell_angle_gamma                100.19(2)
_cell_volume                     2288.86
_exptl_crystal_colour            yellow
_cell_formula_units_Z            6
loop_
_atom_site_label
_atom_site_type_symbol
_atom_site_fract_x
_atom_site_fract_y
_atom_site_fract_z
S1 S 0.3404(1) 0.4052(1) 0.1514(1)
C1 C 0.4037(2) 0.5624(2) 0.1790(1)
C2 C 0.4490(2) 0.6334(2) 0.2463(1)
C3 C 0.4983(2) 0.7556(2) 0.2555(1)
C4 C 0.5033(2) 0.8184(2) 0.2005(1)
C5 C 0.4075(2) 0.6191(2) 0.1246(1)
C6 C 0.3612(2) 0.5351(2) 0.0606(1)
C7 C 0.3222(2) 0.4164(2) 0.0671(1)
C8 C 0.4493(3) 0.8057(3) 0.0788(2)
C9 C 0.4387(2) 0.5696(2) 0.3043(1)
C10 C 0.4761(3) 0.5926(3) 0.4239(1)
C11 C 0.5483(3) 0.6861(3) 0.4839(2)
C12 C 0.2698(2) 0.3043(2) 0.0123(1)
C13 C 0.2552(3) 0.3112(3) -0.0558(2)
C14 C 0.2076(4) 0.2058(3) -0.1067(2)
C15 C 0.1731(3) 0.0929(3) -0.0920(2)
C16 C 0.1869(4) 0.0843(3) -0.0260(2)
C17 C 0.2353(4) 0.1887(3) 0.0258(2)
O1 O 0.5464(2) 0.9301(2) 0.2087(1)
O2 O 0.3930(2) 0.4620(2) 0.2966(1)
O3 O 0.4853(2) 0.6467(2) 0.3646(1)
N1 N 0.4542(2) 0.7445(2) 0.1359(1)
loop_
_geom_bond_atom_site_label_1
_geom_bond_atom_site_label_2
_geom_bond_site_symmetry_1
_geom_bond_site_symmetry_2
S1 C1 1_555 1_555
C1 C2 1_555 1_555
C2 C3 1_555 1_555
C3 C4 1_555 1_555
C4 O1 1_555 1_555
C5 C1 1_555 1_555
C6 C5 1_555 1_555
C7 S1 1_555 1_555
C8 N1 1_555 1_555
C9 C2 1_555 1_555
C10 C11 1_555 1_555
C12 C7 1_555 1_555
C13 C12 1_555 1_555
C14 C13 1_555 1_555
C15 C14 1_555 1_555
C16 C15 1_555 1_555
C17 C12 1_555 1_555
O2 C9 1_555 1_555
O3 C9 1_555 1_555
N1 C4 1_555 1_555
C5 N1 1_555 1_555
C6 C7 1_555 1_555
C10 O3 1_555 1_555
C16 C17 1_555 1_555

#END
