
#######################################################################
#
#                 Cambridge Crystallographic Data Centre
#                                CCDC 
#
#######################################################################
#
# If this CIF has been generated from an entry in the Cambridge 
# Structural Database, then it will include bibliographic, chemical, 
# crystal, experimental, refinement or atomic coordinate data resulting 
# from the CCDC's data processing and validation procedures.
#
#######################################################################

data_XIXFIW
_chemical_formula_moiety         'C34 H41 N1 O4'
_chemical_name_systematic        
3-[1-(benzylamino)-2-(6a,10b-dimethyl-8-methylidene-3-phenyldecahydro-1H,3H-naphtho[2,1-d][1,3]dioxin-7-yl)ethyl]furan-2(5H)-one
_symmetry_cell_setting           orthorhombic
_symmetry_space_group_name_H-M   'P 21 21 21'
_symmetry_Int_Tables_number      19
_space_group_name_Hall           'P 2ac 2ab'
loop_
_symmetry_equiv_pos_site_id
_symmetry_equiv_pos_as_xyz
1 x,y,z
2 1/2-x,-y,1/2+z
3 1/2+x,1/2-y,-z
4 -x,1/2+y,1/2-z
_cell_length_a                   9.185(2)
_cell_length_b                   10.784(2)
_cell_length_c                   29.354(7)
_cell_angle_alpha                90
_cell_angle_beta                 90
_cell_angle_gamma                90
_cell_volume                     2907.54
_exptl_crystal_colour            colorless
_exptl_crystal_description       plate
_cell_formula_units_Z            4
loop_
_atom_site_label
_atom_site_type_symbol
_atom_site_fract_x
_atom_site_fract_y
_atom_site_fract_z
O1 O 0.0486(4) 0.9167(4) 0.22934(15)
O2 O 0.1176(4) 0.7252(4) 0.19974(15)
O3 O 0.5011(8) 1.2262(7) 0.4538(3)
O4 O 0.6550(8) 1.2650(7) 0.3972(3)
N1 N 0.8732(8) 1.0493(7) 0.3916(3)
H1 H 0.864(7) 1.095(5) 0.3686(14)
C1 C 0.1998(6) 0.7785(6) 0.2758(2)
C2 C 0.1544(6) 0.9125(6) 0.2660(2)
H2 H 0.1041 0.9421 0.2933
C3 C 0.2798(7) 1.0021(5) 0.2576(2)
H3 H 0.2421 1.0857 0.2543
H4 H 0.3294 0.9800 0.2296
C4 C 0.3874(6) 0.9975(6) 0.2974(2)
H5 H 0.4642 1.0576 0.2921
H6 H 0.3372 1.0209 0.3252
C5 C 0.4553(6) 0.8691(5) 0.3037(2)
C6 C 0.5485(6) 0.8683(6) 0.34875(19)
H7 H 0.4812 0.8875 0.3737
C7 C 0.6026(7) 0.7376(6) 0.3571(2)
C8 C 0.4858(7) 0.6431(6) 0.3609(2)
H8 H 0.4295 0.6586 0.3883
H9 H 0.5294 0.5615 0.3636
C9 C 0.3846(6) 0.6456(6) 0.3194(2)
H10 H 0.3034 0.5897 0.3245
H11 H 0.4372 0.6170 0.2928
C10 C 0.3267(6) 0.7773(6) 0.3108(2)
H12 H 0.2821 0.8024 0.3397
C11 C 0.2352(7) 0.7141(6) 0.2309(2)
H13 H 0.3219 0.7508 0.2177
H14 H 0.2549 0.6270 0.2365
C12 C 0.0918(7) 0.8506(7) 0.1903(2)
H15 H 0.1800 0.8881 0.1776
C13 C -0.0323(8) 0.8621(6) 0.1561(2)
C14 C -0.0139(8) 0.9279(8) 0.1173(3)
H16 H 0.0755 0.9636 0.1103
C15 C -0.1353(12) 0.9413(8) 0.0873(3)
H17 H -0.1257 0.9883 0.0609
C16 C -0.2612(11) 0.8874(8) 0.0967(3)
H18 H -0.3379 0.8932 0.0761
C17 C -0.2789(8) 0.8247(9) 0.1355(3)
H19 H -0.3691 0.7899 0.1422
C18 C -0.1633(8) 0.8108(7) 0.1662(3)
H20 H -0.1761 0.7669 0.1932
C19 C 0.7388(7) 0.7057(8) 0.3596(2)
H21 H 0.7640 0.6230 0.3638
H22 H 0.8112 0.7657 0.3571
C20 C 0.5564(6) 0.8408(6) 0.2635(2)
H23 H 0.5084 0.8623 0.2355
H24 H 0.5797 0.7540 0.2633
H25 H 0.6442 0.8883 0.2664
C21 C 0.0663(6) 0.7129(6) 0.2974(2)
H26 H 0.0528 0.7423 0.3280
H27 H 0.0826 0.6249 0.2979
H28 H -0.0191 0.7307 0.2797
C22 C 0.6681(7) 0.9664(6) 0.3504(2)
H29 H 0.6287 1.0440 0.3391
H30 H 0.7459 0.9416 0.3301
C23 C 0.7332(8) 0.9889(7) 0.3986(2)
H31 H 0.7510 0.9080 0.4127
C24 C 0.6258(9) 1.0585(8) 0.4278(3)
C25 C 0.6037(12) 1.1945(11) 0.4222(4)
C26 C 0.4454(11) 1.1206(11) 0.4765(4)
H32 H 0.3435 1.1081 0.4692
H33 H 0.4556 1.1289 0.5092
C27 C 0.5365(10) 1.0158(8) 0.4589(3)
H34 H 0.5306 0.9337 0.4684
C28 C 0.9537(9) 1.0807(8) 0.4319(3)
H35 H 0.8863 1.1133 0.4544
H36 H 1.0217 1.1464 0.4244
C29 C 1.0371(8) 0.9755(9) 0.4531(3)
C30 C 1.0715(10) 0.9770(10) 0.4994(3)
H37 H 1.0392 1.0416 0.5178
C31 C 1.1538(11) 0.8819(12) 0.5179(3)
H38 H 1.1715 0.8786 0.5490
C32 C 1.2069(11) 0.7957(11) 0.4902(4)
H39 H 1.2707 0.7369 0.5020
C33 C 1.1718(11) 0.7905(12) 0.4462(4)
H40 H 1.2030 0.7246 0.4282
C34 C 1.0881(9) 0.8849(9) 0.4276(3)
H41 H 1.0677 0.8842 0.3966
loop_
_geom_bond_atom_site_label_1
_geom_bond_atom_site_label_2
_geom_bond_site_symmetry_1
_geom_bond_site_symmetry_2
O1 C2 1_555 1_555
O2 C11 1_555 1_555
O3 C25 1_555 1_555
O4 C25 1_555 1_555
N1 H1 1_555 1_555
C1 C2 1_555 1_555
C2 H2 1_555 1_555
C3 C2 1_555 1_555
H3 C3 1_555 1_555
H4 C3 1_555 1_555
C4 C3 1_555 1_555
H5 C4 1_555 1_555
H6 C4 1_555 1_555
C5 C4 1_555 1_555
C6 C5 1_555 1_555
H7 C6 1_555 1_555
C7 C6 1_555 1_555
C8 C7 1_555 1_555
H8 C8 1_555 1_555
H9 C8 1_555 1_555
C9 C8 1_555 1_555
H10 C9 1_555 1_555
H11 C9 1_555 1_555
C10 C1 1_555 1_555
H12 C10 1_555 1_555
C11 C1 1_555 1_555
H13 C11 1_555 1_555
H14 C11 1_555 1_555
C12 O1 1_555 1_555
H15 C12 1_555 1_555
C13 C12 1_555 1_555
C14 C13 1_555 1_555
H16 C14 1_555 1_555
C15 C14 1_555 1_555
H17 C15 1_555 1_555
C16 C15 1_555 1_555
H18 C16 1_555 1_555
C17 C16 1_555 1_555
H19 C17 1_555 1_555
C18 C13 1_555 1_555
H20 C18 1_555 1_555
C19 C7 1_555 1_555
H21 C19 1_555 1_555
H22 C19 1_555 1_555
C20 C5 1_555 1_555
H23 C20 1_555 1_555
H24 C20 1_555 1_555
H25 C20 1_555 1_555
C21 C1 1_555 1_555
H26 C21 1_555 1_555
H27 C21 1_555 1_555
H28 C21 1_555 1_555
C22 C6 1_555 1_555
H29 C22 1_555 1_555
H30 C22 1_555 1_555
C23 N1 1_555 1_555
H31 C23 1_555 1_555
C24 C23 1_555 1_555
C25 C24 1_555 1_555
C26 O3 1_555 1_555
H32 C26 1_555 1_555
H33 C26 1_555 1_555
C27 C24 1_555 1_555
H34 C27 1_555 1_555
C28 N1 1_555 1_555
H35 C28 1_555 1_555
H36 C28 1_555 1_555
C29 C28 1_555 1_555
C30 C29 1_555 1_555
H37 C30 1_555 1_555
C31 C30 1_555 1_555
H38 C31 1_555 1_555
C32 C31 1_555 1_555
H39 C32 1_555 1_555
C33 C32 1_555 1_555
H40 C33 1_555 1_555
C34 C29 1_555 1_555
H41 C34 1_555 1_555
O2 C12 1_555 1_555
C5 C10 1_555 1_555
C9 C10 1_555 1_555
C17 C18 1_555 1_555
C22 C23 1_555 1_555
C26 C27 1_555 1_555
C33 C34 1_555 1_555

#END
