
#######################################################################
#
#                 Cambridge Crystallographic Data Centre
#                                CCDC 
#
#######################################################################
#
# If this CIF has been generated from an entry in the Cambridge 
# Structural Database, then it will include bibliographic, chemical, 
# crystal, experimental, refinement or atomic coordinate data resulting 
# from the CCDC's data processing and validation procedures.
#
#######################################################################

data_XIXZOW
_chemical_formula_moiety         'C22 H23 N3 O4'
_chemical_name_systematic        
8-[({[4-(diethylamino)-2-hydroxyphenyl]methylidene}hydrazinylidene)methyl]-7-hydroxy-4-methyl-2H-1-benzopyran-2-one
_symmetry_cell_setting           monoclinic
_symmetry_space_group_name_H-M   'P 21/c'
_symmetry_Int_Tables_number      14
_space_group_name_Hall           '-P 2ybc'
loop_
_symmetry_equiv_pos_site_id
_symmetry_equiv_pos_as_xyz
1 x,y,z
2 -x,1/2+y,1/2-z
3 -x,-y,-z
4 x,1/2-y,1/2+z
_cell_length_a                   10.2228(5)
_cell_length_b                   10.0210(5)
_cell_length_c                   18.7682(10)
_cell_angle_alpha                90
_cell_angle_beta                 95.874(2)
_cell_angle_gamma                90
_cell_volume                     1912.57
_exptl_crystal_colour            colorless
_exptl_crystal_description       block
_cell_formula_units_Z            4
loop_
_atom_site_label
_atom_site_type_symbol
_atom_site_fract_x
_atom_site_fract_y
_atom_site_fract_z
O1 O 0.86381(18) 0.9277(2) 0.55703(10)
O2 O 0.67129(15) 0.89191(16) 0.49563(8)
O3 O 0.27033(17) 0.77818(19) 0.35944(10)
O4 O 0.43338(15) 0.43124(16) 0.65080(8)
H1 H 0.4365 0.4870 0.6190
N1 N 0.35341(19) 0.65305(19) 0.47699(9)
N2 N 0.35231(19) 0.56039(18) 0.53226(10)
N3 N 0.1590(2) 0.0949(3) 0.73282(12)
C1 C 0.7413(3) 1.2116(3) 0.35185(15)
H2 H 0.6719 1.2757 0.3534
H3 H 0.7415 1.1781 0.3039
H4 H 0.8242 1.2534 0.3664
C2 C 0.7200(3) 1.0983(2) 0.40158(14)
C3 C 0.8080(3) 1.0684(3) 0.45702(14)
H5 H 0.8849 1.1184 0.4638
C4 C 0.7889(3) 0.9625(3) 0.50657(15)
C5 C 0.5814(2) 0.9180(2) 0.43833(12)
C6 C 0.6012(2) 1.0195(2) 0.39009(13)
C7 C 0.5060(3) 1.0351(3) 0.33172(14)
H6 H 0.5166 1.1021 0.2985
C8 C 0.3976(3) 0.9542(3) 0.32200(14)
H7 H 0.3367 0.9661 0.2822
C9 C 0.3782(2) 0.8546(2) 0.37139(13)
C10 C 0.4709(2) 0.8344(2) 0.43130(12)
C11 C 0.4546(2) 0.7307(2) 0.48300(12)
H8 H 0.5184 0.7196 0.5215
C12 C 0.2454(2) 0.4910(2) 0.52993(12)
H9 H 0.1801 0.5056 0.4925
C13 C 0.2236(2) 0.3929(2) 0.58247(11)
C14 C 0.3172(2) 0.3644(2) 0.64077(12)
C15 C 0.2953(2) 0.2677(2) 0.69019(12)
H10 H 0.3593 0.2514 0.7281
C16 C 0.1784(2) 0.1930(3) 0.68463(12)
C17 C 0.0825(2) 0.2220(3) 0.62666(12)
H11 H 0.0031 0.1760 0.6218
C18 C 0.1069(2) 0.3177(2) 0.57806(12)
H12 H 0.0432 0.3340 0.5401
C19 C 0.2565(3) 0.0667(3) 0.79340(13)
H13 H 0.3432 0.0677 0.7766
H14 H 0.2413 -0.0226 0.8107
C20 C 0.2562(3) 0.1626(3) 0.85526(14)
H15 H 0.2783 0.2504 0.8399
H16 H 0.3197 0.1343 0.8935
H17 H 0.1704 0.1641 0.8718
C21 C 0.0507(4) -0.0029(5) 0.7241(2)
H18 H 0.0799 -0.0890 0.7431
H19 H 0.0192 -0.0133 0.6738
C22 C -0.0570(5) 0.0532(5) 0.7656(3)
H20 H -0.0246 0.0617 0.8152
H21 H -0.1313 -0.0060 0.7610
H22 H -0.0833 0.1393 0.7467
H23 H 0.271(3) 0.725(3) 0.3934(14)
C23? C 0.0081(8) 0.0781(8) 0.7492(4)
H24? H -0.0004 0.0852 0.8000
H25? H -0.0480 0.1442 0.7236
C24? C -0.0239(8) -0.0591(8) 0.7221(5)
H26? H -0.0155 -0.0629 0.6717
H27? H -0.1125 -0.0810 0.7305
H28? H 0.0356 -0.1218 0.7468
loop_
_geom_bond_atom_site_label_1
_geom_bond_atom_site_label_2
_geom_bond_site_symmetry_1
_geom_bond_site_symmetry_2
O1 C4 1_555 1_555
O2 C4 1_555 1_555
O3 C9 1_555 1_555
O4 H1 1_555 1_555
N1 N2 1_555 1_555
N2 C12 1_555 1_555
N3 C16 1_555 1_555
C1 H2 1_555 1_555
H3 C1 1_555 1_555
H4 C1 1_555 1_555
C2 C1 1_555 1_555
C3 C2 1_555 1_555
H5 C3 1_555 1_555
C4 C3 1_555 1_555
C5 O2 1_555 1_555
C6 C2 1_555 1_555
C7 C6 1_555 1_555
H6 C7 1_555 1_555
C8 C7 1_555 1_555
H7 C8 1_555 1_555
C9 C8 1_555 1_555
C10 C5 1_555 1_555
C11 N1 1_555 1_555
H8 C11 1_555 1_555
C12 H9 1_555 1_555
C13 C12 1_555 1_555
C14 O4 1_555 1_555
C15 C14 1_555 1_555
H10 C15 1_555 1_555
C16 C15 1_555 1_555
C17 C16 1_555 1_555
H11 C17 1_555 1_555
C18 C13 1_555 1_555
H12 C18 1_555 1_555
C19 N3 1_555 1_555
H13 C19 1_555 1_555
H14 C19 1_555 1_555
C20 C19 1_555 1_555
H15 C20 1_555 1_555
H16 C20 1_555 1_555
H17 C20 1_555 1_555
C21 N3 1_555 1_555
H18 C21 1_555 1_555
H19 C21 1_555 1_555
C22 C21 1_555 1_555
H20 C22 1_555 1_555
H21 C22 1_555 1_555
H22 C22 1_555 1_555
H23 O3 1_555 1_555
C5 C6 1_555 1_555
C9 C10 1_555 1_555
C10 C11 1_555 1_555
C13 C14 1_555 1_555
C17 C18 1_555 1_555

#END
