
#######################################################################
#
#                 Cambridge Crystallographic Data Centre
#                                CCDC 
#
#######################################################################
#
# If this CIF has been generated from an entry in the Cambridge 
# Structural Database, then it will include bibliographic, chemical, 
# crystal, experimental, refinement or atomic coordinate data resulting 
# from the CCDC's data processing and validation procedures.
#
#######################################################################

data_XIYDER
_chemical_formula_moiety         'C20 H40 K1 O8 1+,C25 H30 B1 N1 1-'
_chemical_name_systematic        
'(18-crown-6)-bis(tetrahydrofuran)-potassium (2,6-dimethylpyridin-4-yl)-bis(2,4,6-trimethylphenyl)boron radical anion unknown solvate'
_symmetry_cell_setting           triclinic
_symmetry_space_group_name_H-M   'P -1'
_symmetry_Int_Tables_number      2
_space_group_name_Hall           '-P 1'
loop_
_symmetry_equiv_pos_site_id
_symmetry_equiv_pos_as_xyz
1 x,y,z
2 -x,-y,-z
_cell_length_a                   13.1313(9)
_cell_length_b                   13.4831(10)
_cell_length_c                   17.2485(12)
_cell_angle_alpha                86.532(2)
_cell_angle_beta                 71.383(2)
_cell_angle_gamma                61.134(2)
_cell_volume                     2518.3
_exptl_crystal_colour            blue
_exptl_crystal_description       block
_cell_formula_units_Z            2
loop_
_atom_site_label
_atom_site_type_symbol
_atom_site_fract_x
_atom_site_fract_y
_atom_site_fract_z
B1 B 0.5331(4) 0.6471(3) 0.2086(2)
C1 C 0.9784(3) 0.3579(4) 0.1846(3)
H1 H 1.018839 0.357316 0.223676
H2 H 0.995005 0.401890 0.139674
H3 H 1.010401 0.279576 0.162097
C2 C 0.8414(3) 0.4118(3) 0.2281(2)
C3 C 0.7583(3) 0.4993(3) 0.1989(2)
H4 H 0.788215 0.526852 0.149634
C4 C 0.6288(3) 0.5505(3) 0.2395(2)
C5 C 0.5980(3) 0.5007(3) 0.3123(2)
H5 H 0.513524 0.530219 0.344398
C6 C 0.6853(3) 0.4116(3) 0.3380(2)
C7 C 0.6514(4) 0.3567(3) 0.4129(2)
H6 H 0.649802 0.289311 0.396402
H7 H 0.569807 0.411027 0.450447
H8 H 0.712477 0.333802 0.440876
C8 C 0.5738(3) 0.6861(3) 0.1195(2)
C9 C 0.5523(3) 0.7993(3) 0.1106(2)
C10 C 0.5856(3) 0.8342(3) 0.0334(2)
H9 H 0.569722 0.910642 0.029765
C11 C 0.6411(3) 0.7607(3) -0.0383(2)
C12 C 0.6626(3) 0.6503(3) -0.0299(2)
H10 H 0.700704 0.598325 -0.078216
C13 C 0.6312(3) 0.6120(3) 0.0456(2)
C14 C 0.4961(4) 0.8838(3) 0.1851(2)
H11 H 0.502478 0.951955 0.168592
H12 H 0.539992 0.849637 0.224474
H13 H 0.409101 0.904969 0.210988
C15 C 0.6731(4) 0.8010(4) -0.1216(2)
H14 H 0.757602 0.746271 -0.154942
H15 H 0.666490 0.875720 -0.114604
H16 H 0.615963 0.807212 -0.149209
C16 C 0.6572(4) 0.4897(3) 0.0461(2)
H17 H 0.636961 0.470390 0.001168
H18 H 0.606741 0.480743 0.098799
H19 H 0.744620 0.438910 0.038471
C17 C 0.3908(3) 0.7093(3) 0.2632(2)
C18 C 0.3018(3) 0.7075(3) 0.2338(2)
C19 C 0.1778(3) 0.7629(3) 0.2805(2)
H20 H 0.120985 0.758264 0.259983
C20 C 0.1337(3) 0.8250(3) 0.3564(2)
C21 C 0.2183(3) 0.8262(3) 0.3857(2)
H21 H 0.190237 0.867143 0.437869
C22 C 0.3448(3) 0.7692(3) 0.3416(2)
C23 C 0.3393(4) 0.6413(4) 0.1527(2)
H22 H 0.266037 0.647926 0.144171
H23 H 0.396890 0.560848 0.153428
H24 H 0.379374 0.672053 0.107770
C24 C -0.0045(4) 0.8907(4) 0.4023(3)
H25 H -0.020262 0.933725 0.452523
H26 H -0.036210 0.837074 0.416939
H27 H -0.046085 0.943529 0.366998
C25 C 0.4280(4) 0.7770(3) 0.3812(2)
H28 H 0.394601 0.856601 0.401640
H29 H 0.510535 0.749005 0.340541
H30 H 0.433070 0.730558 0.427243
N1 N 0.8087(3) 0.3655(2) 0.29761(18)
C26 C 0.9957(5) 0.7329(5) 0.5839(4)
H31 H 1.059522 0.735570 0.535465
H32 H 1.036874 0.669919 0.614643
C27 C 0.9239(9) 0.8406(6) 0.6364(5)
H33 H 0.939994 0.831048 0.689353
H34 H 0.944540 0.898376 0.609112
C28 C 0.7968(5) 0.8075(5) 0.5855(4)
H35 H 0.735195 0.782032 0.609248
H36 H 0.777340 0.852935 0.539869
C29 C 0.8005(6) 0.8735(5) 0.6491(4)
H37 H 0.753877 0.956115 0.644984
H38 H 0.762431 0.858273 0.704654
C30 C 0.7136(4) 0.5774(4) 0.4662(3)
H39 H 0.622871 0.618413 0.480445
H40 H 0.744961 0.496915 0.447367
C31 C 0.6956(4) 0.5343(4) 0.6035(3)
H41 H 0.726291 0.453341 0.586216
H42 H 0.604600 0.575093 0.619733
C32 C 0.7331(3) 0.5426(4) 0.6739(3)
H43 H 0.710209 0.622589 0.687372
H44 H 0.690197 0.518139 0.722767
C33 C 0.9068(4) 0.4735(4) 0.7168(3)
H45 H 0.864507 0.449864 0.766514
H46 H 0.888248 0.552064 0.730327
C34 C 1.0426(4) 0.3949(4) 0.6915(3)
H47 H 1.071991 0.391365 0.738399
H48 H 1.062079 0.317209 0.674624
C35 C 1.2320(4) 0.3705(4) 0.6002(3)
H49 H 1.258937 0.291545 0.580222
H50 H 1.260089 0.367834 0.647495
K1 K 1.000000 0.500000 0.500000
O1 O 0.9140(3) 0.7166(3) 0.5592(3)
O2 O 1.1020(2) 0.4362(2) 0.62499(16)
O3 O 0.8638(2) 0.4711(2) 0.65249(16)
O4 O 0.7453(2) 0.5831(2) 0.53716(16)
C30A C 1.2864(4) 0.4226(4) 0.5338(3)
H39A H 1.377129 0.381587 0.519555
H40A H 1.255039 0.503085 0.552633
C31A C 1.3044(4) 0.4657(4) 0.3965(3)
H41A H 1.273709 0.546659 0.413784
H42A H 1.395400 0.424907 0.380267
C32A C 1.2669(3) 0.4574(4) 0.3261(3)
H43A H 1.289791 0.377411 0.312628
H44A H 1.309803 0.481861 0.277233
C33A C 1.0932(4) 0.5265(4) 0.2832(3)
H45A H 1.135493 0.550136 0.233486
H46A H 1.111752 0.447936 0.269673
C34A C 0.9574(4) 0.6051(4) 0.3085(3)
H47A H 0.928009 0.608635 0.261601
H48A H 0.937921 0.682791 0.325376
C35A C 0.7680(4) 0.6295(4) 0.3998(3)
H49A H 0.741063 0.708455 0.419778
H50A H 0.739911 0.632166 0.352505
O2A O 0.8980(2) 0.5638(2) 0.37501(16)
O3A O 1.1362(2) 0.5289(2) 0.34751(16)
O4A O 1.2547(2) 0.4169(2) 0.46284(16)
C26A C 1.0043(5) 0.2671(5) 0.4161(4)
H31A H 0.940478 0.264430 0.464535
H32A H 0.963126 0.330081 0.385357
C27A C 1.0761(9) 0.1594(6) 0.3636(5)
H33A H 1.060006 0.168952 0.310647
H34A H 1.055460 0.101624 0.390888
C28A C 1.2032(5) 0.1925(5) 0.4145(4)
H35A H 1.264805 0.217968 0.390752
H36A H 1.222660 0.147065 0.460131
C29A C 1.1995(6) 0.1265(5) 0.3509(4)
H37A H 1.246123 0.043885 0.355016
H38A H 1.237569 0.141727 0.295346
O1A O 1.0860(3) 0.2834(3) 0.4408(3)
C36 C 0.1566(5) 0.1728(5) -0.0638(5)
H51 H 0.237107 0.117617 -0.103444
H52 H 0.159864 0.160054 -0.007270
C37 C 0.1275(5) 0.2924(4) -0.0796(4)
H53 H 0.145901 0.326851 -0.040467
H54 H 0.175483 0.294627 -0.136491
C38 C -0.0019(5) 0.3510(4) -0.0677(4)
H55 H -0.023726 0.414006 -0.102610
H56 H -0.051511 0.381588 -0.009329
C39 C -0.0194(6) 0.2569(5) -0.0941(5)
H57 H -0.104939 0.272342 -0.065788
H58 H -0.002980 0.251397 -0.154300
C40 C -0.1411(6) 0.1234(4) 0.2111(3)
H59 H -0.147353 0.162698 0.260446
H60 H -0.155449 0.058455 0.228189
C41 C 0.0717(6) -0.0001(4) 0.1817(3)
H61 H 0.058400 -0.066468 0.194202
H62 H 0.066981 0.033076 0.233218
C42 C 0.1943(5) -0.0377(5) 0.1198(4)
H63 H 0.204912 0.029303 0.103493
H64 H 0.259081 -0.087923 0.143442
C43 C 0.3228(4) -0.1392(4) -0.0120(4)
H65 H 0.389116 -0.185468 0.011460
H66 H 0.334300 -0.074932 -0.035276
C44 C 0.3286(4) -0.2107(4) -0.0778(4)
H67 H 0.411628 -0.245813 -0.120085
H68 H 0.312711 -0.272520 -0.053869
C45 C 0.2346(5) -0.2027(4) -0.1757(3)
H69 H 0.213502 -0.261508 -0.151251
H70 H 0.316195 -0.241355 -0.219314
K2 K 0.000000 0.000000 0.000000
O5 O 0.0607(3) 0.1598(3) -0.0735(3)
O6 O -0.0216(3) 0.0826(2) 0.15168(18)
O7 O 0.2054(3) -0.0970(2) 0.0506(2)
O8 O 0.2390(3) -0.1411(2) -0.11416(19)
C40A C 0.1411(6) -0.1234(4) -0.2111(3)
H59A H 0.147353 -0.162698 -0.260446
H60A H 0.155449 -0.058455 -0.228189
C41A C -0.0717(6) 0.0001(4) -0.1817(3)
H61A H -0.058400 0.066468 -0.194202
H62A H -0.066981 -0.033076 -0.233218
C42A C -0.1943(5) 0.0377(5) -0.1198(4)
H63A H -0.204912 -0.029303 -0.103493
H64A H -0.259081 0.087923 -0.143442
C43A C -0.3228(4) 0.1392(4) 0.0120(4)
H65A H -0.389116 0.185468 -0.011460
H66A H -0.334300 0.074932 0.035276
C44A C -0.3286(4) 0.2107(4) 0.0778(4)
H67A H -0.411628 0.245813 0.120085
H68A H -0.312711 0.272520 0.053869
C45A C -0.2346(5) 0.2027(4) 0.1757(3)
H69A H -0.213502 0.261508 0.151251
H70A H -0.316195 0.241355 0.219314
O6A O 0.0216(3) -0.0826(2) -0.15168(18)
O7A O -0.2054(3) 0.0970(2) -0.0506(2)
O8A O -0.2390(3) 0.1411(2) 0.11416(19)
C36A C -0.1566(5) -0.1728(5) 0.0638(5)
H51A H -0.237107 -0.117617 0.103444
H52A H -0.159864 -0.160054 0.007270
C37A C -0.1275(5) -0.2924(4) 0.0796(4)
H53A H -0.145901 -0.326851 0.040467
H54A H -0.175483 -0.294627 0.136491
C38A C 0.0019(5) -0.3510(4) 0.0677(4)
H55A H 0.023726 -0.414006 0.102610
H56A H 0.051511 -0.381588 0.009329
C39A C 0.0194(6) -0.2569(5) 0.0941(5)
H57A H 0.104939 -0.272342 0.065788
H58A H 0.002980 -0.251397 0.154300
O5A O -0.0607(3) -0.1598(3) 0.0735(3)
loop_
_geom_bond_atom_site_label_1
_geom_bond_atom_site_label_2
_geom_bond_site_symmetry_1
_geom_bond_site_symmetry_2
B1 C4 1_555 1_555
C1 H1 1_555 1_555
H2 C1 1_555 1_555
H3 C1 1_555 1_555
C2 C1 1_555 1_555
C3 C2 1_555 1_555
H4 C3 1_555 1_555
C4 C3 1_555 1_555
C5 C4 1_555 1_555
H5 C5 1_555 1_555
C6 C5 1_555 1_555
C7 C6 1_555 1_555
H6 C7 1_555 1_555
H7 C7 1_555 1_555
H8 C7 1_555 1_555
C8 B1 1_555 1_555
C9 C8 1_555 1_555
C10 C9 1_555 1_555
H9 C10 1_555 1_555
C11 C10 1_555 1_555
C12 C11 1_555 1_555
H10 C12 1_555 1_555
C13 C8 1_555 1_555
C14 C9 1_555 1_555
H11 C14 1_555 1_555
H12 C14 1_555 1_555
H13 C14 1_555 1_555
C15 C11 1_555 1_555
H14 C15 1_555 1_555
H15 C15 1_555 1_555
H16 C15 1_555 1_555
C16 C13 1_555 1_555
H17 C16 1_555 1_555
H18 C16 1_555 1_555
H19 C16 1_555 1_555
C17 B1 1_555 1_555
C18 C17 1_555 1_555
C19 C18 1_555 1_555
H20 C19 1_555 1_555
C20 C19 1_555 1_555
C21 C20 1_555 1_555
H21 C21 1_555 1_555
C22 C17 1_555 1_555
C23 C18 1_555 1_555
H22 C23 1_555 1_555
H23 C23 1_555 1_555
H24 C23 1_555 1_555
C24 C20 1_555 1_555
H25 C24 1_555 1_555
H26 C24 1_555 1_555
H27 C24 1_555 1_555
C25 C22 1_555 1_555
H28 C25 1_555 1_555
H29 C25 1_555 1_555
H30 C25 1_555 1_555
N1 C2 1_555 1_555
C26 H31 1_555 1_555
H32 C26 1_555 1_555
C27 C26 1_555 1_555
H33 C27 1_555 1_555
H34 C27 1_555 1_555
C28 H35 1_555 1_555
H36 C28 1_555 1_555
C29 C27 1_555 1_555
H37 C29 1_555 1_555
H38 C29 1_555 1_555
C30 H39 1_555 1_555
H40 C30 1_555 1_555
C31 H41 1_555 1_555
H42 C31 1_555 1_555
C32 C31 1_555 1_555
H43 C32 1_555 1_555
H44 C32 1_555 1_555
C33 H45 1_555 1_555
H46 C33 1_555 1_555
C34 C33 1_555 1_555
H47 C34 1_555 1_555
H48 C34 1_555 1_555
C35 H49 1_555 1_555
H50 C35 1_555 1_555
K1 O1 1_555 1_555
O1 C26 1_555 1_555
O2 C34 1_555 1_555
O3 C32 1_555 1_555
O4 C30 1_555 1_555
C36 H51 1_555 1_555
H52 C36 1_555 1_555
C37 C36 1_555 1_555
H53 C37 1_555 1_555
H54 C37 1_555 1_555
C38 C37 1_555 1_555
H55 C38 1_555 1_555
H56 C38 1_555 1_555
C39 C38 1_555 1_555
H57 C39 1_555 1_555
H58 C39 1_555 1_555
C40 H59 1_555 1_555
H60 C40 1_555 1_555
C41 H61 1_555 1_555
H62 C41 1_555 1_555
C42 C41 1_555 1_555
H63 C42 1_555 1_555
H64 C42 1_555 1_555
C43 H65 1_555 1_555
H66 C43 1_555 1_555
C44 C43 1_555 1_555
H67 C44 1_555 1_555
H68 C44 1_555 1_555
C45 H69 1_555 1_555
H70 C45 1_555 1_555
K2 O5 1_555 1_555
O5 C36 1_555 1_555
O6 C40 1_555 1_555
O7 C42 1_555 1_555
O8 C44 1_555 1_555
C30A C35 1_555 1_555
H39A C30A 1_555 1_555
H40A C30A 1_555 1_555
C31A H41A 1_555 1_555
H42A C31A 1_555 1_555
C32A C31A 1_555 1_555
H43A C32A 1_555 1_555
H44A C32A 1_555 1_555
C33A H45A 1_555 1_555
H46A C33A 1_555 1_555
C34A C33A 1_555 1_555
H47A C34A 1_555 1_555
H48A C34A 1_555 1_555
C35A C30 1_555 1_555
H49A C35A 1_555 1_555
H50A C35A 1_555 1_555
O2A K1 1_555 1_555
O3A K1 1_555 1_555
O4A K1 1_555 1_555
C26A H31A 1_555 1_555
H32A C26A 1_555 1_555
C27A C26A 1_555 1_555
H33A C27A 1_555 1_555
H34A C27A 1_555 1_555
C28A H35A 1_555 1_555
H36A C28A 1_555 1_555
C29A C27A 1_555 1_555
H37A C29A 1_555 1_555
H38A C29A 1_555 1_555
O1A K1 1_555 1_555
C40A C45 1_555 1_555
H59A C40A 1_555 1_555
H60A C40A 1_555 1_555
C41A H61A 1_555 1_555
H62A C41A 1_555 1_555
C42A C41A 1_555 1_555
H63A C42A 1_555 1_555
H64A C42A 1_555 1_555
C43A H65A 1_555 1_555
H66A C43A 1_555 1_555
C44A C43A 1_555 1_555
H67A C44A 1_555 1_555
H68A C44A 1_555 1_555
C45A C40 1_555 1_555
H69A C45A 1_555 1_555
H70A C45A 1_555 1_555
O6A K2 1_555 1_555
O7A K2 1_555 1_555
O8A K2 1_555 1_555
C36A H51A 1_555 1_555
H52A C36A 1_555 1_555
C37A C36A 1_555 1_555
H53A C37A 1_555 1_555
H54A C37A 1_555 1_555
C38A C37A 1_555 1_555
H55A C38A 1_555 1_555
H56A C38A 1_555 1_555
C39A C38A 1_555 1_555
H57A C39A 1_555 1_555
H58A C39A 1_555 1_555
O5A K2 1_555 1_555
C6 N1 1_555 1_555
C12 C13 1_555 1_555
C21 C22 1_555 1_555
C28 C29 1_555 1_555
C28 O1 1_555 1_555
C31 O4 1_555 1_555
C33 O3 1_555 1_555
C35 O2 1_555 1_555
K1 O2 1_555 1_555
K1 O3 1_555 1_555
K1 O4 1_555 1_555
C39 O5 1_555 1_555
C41 O6 1_555 1_555
C43 O7 1_555 1_555
C45 O8 1_555 1_555
K2 O6 1_555 1_555
K2 O7 1_555 1_555
K2 O8 1_555 1_555
C30A O4A 1_555 1_555
C31A O4A 1_555 1_555
C32A O3A 1_555 1_555
C33A O3A 1_555 1_555
C34A O2A 1_555 1_555
C35A O2A 1_555 1_555
C26A O1A 1_555 1_555
C28A C29A 1_555 1_555
C28A O1A 1_555 1_555
C40A O6A 1_555 1_555
C41A O6A 1_555 1_555
C42A O7A 1_555 1_555
C43A O7A 1_555 1_555
C44A O8A 1_555 1_555
C45A O8A 1_555 1_555
C36A O5A 1_555 1_555
C39A O5A 1_555 1_555

#END
