
#######################################################################
#
#                 Cambridge Crystallographic Data Centre
#                                CCDC 
#
#######################################################################
#
# If this CIF has been generated from an entry in the Cambridge 
# Structural Database, then it will include bibliographic, chemical, 
# crystal, experimental, refinement or atomic coordinate data resulting 
# from the CCDC's data processing and validation procedures.
#
#######################################################################

data_XIYPED
_chemical_formula_moiety         'C66 H92 B2 N2 Na2 O4'
_chemical_name_systematic        
bis{\m-4-[bis(2,4,6-trimethylphenyl)boranyl]-2,6-dimethylpyridine}-tetrakis(tetrahydrofuran)-di-sodium
_symmetry_cell_setting           triclinic
_symmetry_space_group_name_H-M   'P -1'
_symmetry_Int_Tables_number      2
_space_group_name_Hall           '-P 1'
loop_
_symmetry_equiv_pos_site_id
_symmetry_equiv_pos_as_xyz
1 x,y,z
2 -x,-y,-z
_cell_length_a                   10.7551(13)
_cell_length_b                   11.2244(13)
_cell_length_c                   14.1954(16)
_cell_angle_alpha                81.628(3)
_cell_angle_beta                 73.668(3)
_cell_angle_gamma                66.164(3)
_cell_volume                     1503.25
_exptl_crystal_colour            'dark blue'
_exptl_crystal_description       block
_cell_formula_units_Z            1
loop_
_atom_site_label
_atom_site_type_symbol
_atom_site_fract_x
_atom_site_fract_y
_atom_site_fract_z
B1 B 0.4415(5) 0.1524(4) 0.7309(3)
C1 C 0.6662(4) 0.3113(4) 0.3942(3)
H1 H 0.660678 0.276828 0.336646
H2 H 0.751749 0.253406 0.414372
H3 H 0.668387 0.398455 0.377722
C2 C 0.5400(4) 0.3194(3) 0.4773(3)
C3 C 0.5538(4) 0.2392(3) 0.5599(3)
H4 H 0.630419 0.151043 0.547484
C4 C 0.4353(4) 0.2412(3) 0.6390(3)
C5 C 0.3076(4) 0.3358(3) 0.6201(3)
H5 H 0.222647 0.346336 0.668379
C6 C 0.3017(4) 0.4116(3) 0.5365(3)
C7 C 0.1626(4) 0.5061(4) 0.5183(3)
H6 H 0.086186 0.497101 0.572004
H7 H 0.152942 0.487101 0.456060
H8 H 0.158650 0.595370 0.514835
C8 C 0.5824(4) 0.0327(3) 0.7419(3)
C9 C 0.6380(4) 0.0186(4) 0.8238(3)
C10 C 0.7618(5) -0.0838(4) 0.8320(3)
H9 H 0.797003 -0.089629 0.887615
C11 C 0.8362(4) -0.1781(4) 0.7620(3)
C12 C 0.7817(4) -0.1665(3) 0.6829(3)
H10 H 0.830919 -0.229665 0.633740
C13 C 0.6566(4) -0.0654(3) 0.6720(3)
C14 C 0.5669(5) 0.1169(4) 0.9039(3)
H11 H 0.616781 0.088032 0.956297
H12 H 0.469571 0.124532 0.930767
H13 H 0.568145 0.201885 0.876507
C15 C 0.9721(5) -0.2895(4) 0.7725(3)
H14 H 0.995976 -0.357302 0.726676
H15 H 0.960155 -0.326189 0.839922
H16 H 1.047568 -0.256855 0.757720
C16 C 0.6041(4) -0.0691(3) 0.5849(2)
H17 H 0.659534 -0.041319 0.525208
H18 H 0.505286 -0.010227 0.594830
H19 H 0.613199 -0.158098 0.578095
C17 C 0.2987(4) 0.1762(3) 0.8129(2)
C18 C 0.2398(5) 0.0807(4) 0.8377(3)
C19 C 0.1104(5) 0.1044(4) 0.9027(3)
H20 H 0.074652 0.037315 0.916610
C20 C 0.0306(4) 0.2219(4) 0.9486(3)
C21 C 0.0878(4) 0.3163(4) 0.9266(3)
H21 H 0.036555 0.397753 0.957203
C22 C 0.2177(4) 0.2961(3) 0.8614(3)
C23 C 0.3142(5) -0.0503(4) 0.7901(4)
H22 H 0.258821 -0.104131 0.816472
H23 H 0.406820 -0.093988 0.804125
H24 H 0.325166 -0.037485 0.718899
C24 C -0.1111(5) 0.2447(4) 1.0188(3)
H25 H -0.098751 0.212091 1.084838
H26 H -0.157634 0.198418 0.996920
H27 H -0.168865 0.338189 1.020242
C25 C 0.2697(4) 0.4054(4) 0.8443(3)
H28 H 0.244095 0.458307 0.786269
H29 H 0.371954 0.369046 0.833785
H30 H 0.226942 0.460056 0.901816
C26 C 0.0661(6) 0.7307(6) 0.3095(5)
H31 H 0.072021 0.757495 0.239265
H32 H 0.082039 0.636925 0.317978
C27 C -0.0680(7) 0.8090(7) 0.3709(6)
H33 H -0.089609 0.763420 0.434724
H34 H -0.144633 0.830393 0.337927
C28 C -0.0470(6) 0.9322(6) 0.3847(6)
H35 H -0.063745 0.995676 0.328846
H36 H -0.109418 0.974501 0.446562
C29 C 0.1005(6) 0.8791(5) 0.3880(5)
H37 H 0.146835 0.938314 0.351637
H38 H 0.108008 0.869150 0.456888
O1 O 0.1647(3) 0.7570(3) 0.3444(2)
C30 C 0.4682(9) 0.3705(6) 0.2057(5)
H39 H 0.442255 0.324856 0.268650
H40 H 0.570817 0.347406 0.189002
C31 C 0.4295(10) 0.3292(6) 0.1271(6)
H41 H 0.506600 0.309026 0.066680
H42 H 0.404430 0.252095 0.148820
C32 C 0.3027(9) 0.4492(7) 0.1112(6)
H43 H 0.214388 0.445395 0.154633
H44 H 0.296568 0.459169 0.041957
C33 C 0.3340(12) 0.5575(7) 0.1380(6)
H45 H 0.397165 0.584268 0.081690
H46 H 0.246714 0.634304 0.159700
O2 O 0.3995(3) 0.5021(3) 0.2151(2)
N1 N 0.4159(3) 0.4091(3) 0.4633(2)
Na1 Na 0.38645(16) 0.59740(13) 0.35120(10)
B1A B 0.5585(5) 0.8476(4) 0.2691(3)
C1A C 0.3338(4) 0.6887(4) 0.6058(3)
H1A H 0.339322 0.723172 0.663354
H2A H 0.248251 0.746594 0.585628
H3A H 0.331613 0.601545 0.622278
C2A C 0.4600(4) 0.6806(3) 0.5227(3)
C3A C 0.4462(4) 0.7608(3) 0.4401(3)
H4A H 0.369581 0.848957 0.452516
C4A C 0.5647(4) 0.7588(3) 0.3610(3)
C5A C 0.6924(4) 0.6642(3) 0.3799(3)
H5A H 0.777353 0.653664 0.331621
C6A C 0.6983(4) 0.5884(3) 0.4635(3)
C7A C 0.8374(4) 0.4939(4) 0.4817(3)
H6A H 0.913814 0.502899 0.427996
H7A H 0.847058 0.512899 0.543940
H8A H 0.841350 0.404630 0.485165
C8A C 0.4176(4) 0.9673(3) 0.2581(3)
C9A C 0.3620(4) 0.9814(4) 0.1762(3)
C10A C 0.2382(5) 1.0838(4) 0.1680(3)
H9A H 0.202997 1.089629 0.112385
C11A C 0.1638(4) 1.1781(4) 0.2380(3)
C12A C 0.2183(4) 1.1665(3) 0.3171(3)
H10A H 0.169081 1.229665 0.366260
C13A C 0.3434(4) 1.0654(3) 0.3280(3)
C14A C 0.4331(5) 0.8831(4) 0.0961(3)
H11A H 0.383219 0.911968 0.043703
H12A H 0.530429 0.875468 0.069233
H13A H 0.431855 0.798115 0.123493
C15A C 0.0279(5) 1.2895(4) 0.2275(3)
H14A H 0.004024 1.357302 0.273324
H15A H 0.039845 1.326189 0.160078
H16A H -0.047568 1.256855 0.242280
C16A C 0.3959(4) 1.0691(3) 0.4151(2)
H17A H 0.340466 1.041319 0.474792
H18A H 0.494714 1.010227 0.405170
H19A H 0.386801 1.158098 0.421905
C17A C 0.7013(4) 0.8238(3) 0.1871(2)
C18A C 0.7602(5) 0.9193(4) 0.1623(3)
C19A C 0.8896(5) 0.8956(4) 0.0973(3)
H20A H 0.925348 0.962685 0.083390
C20A C 0.9694(4) 0.7781(4) 0.0514(3)
C21A C 0.9122(4) 0.6837(4) 0.0734(3)
H21A H 0.963445 0.602247 0.042797
C22A C 0.7823(4) 0.7039(3) 0.1386(3)
C23A C 0.6858(5) 1.0503(4) 0.2099(4)
H22A H 0.741179 1.104131 0.183528
H23A H 0.593180 1.093988 0.195875
H24A H 0.674834 1.037485 0.281101
C24A C 1.1111(5) 0.7553(4) -0.0188(3)
H25A H 1.098751 0.787909 -0.084838
H26A H 1.157634 0.801582 0.003080
H27A H 1.168865 0.661811 -0.020242
C25A C 0.7303(4) 0.5946(4) 0.1557(3)
H28A H 0.755905 0.541693 0.213731
H29A H 0.628046 0.630954 0.166215
H30A H 0.773058 0.539944 0.098184
C26A C 0.9339(6) 0.2693(6) 0.6905(5)
H31A H 0.927979 0.242505 0.760735
H32A H 0.917961 0.363075 0.682022
C27A C 1.0680(7) 0.1910(7) 0.6291(6)
H33A H 1.089609 0.236580 0.565276
H34A H 1.144633 0.169607 0.662073
C28A C 1.0470(6) 0.0678(6) 0.6153(6)
H35A H 1.063745 0.004324 0.671154
H36A H 1.109418 0.025499 0.553438
C29A C 0.8995(6) 0.1209(5) 0.6120(5)
H37A H 0.853165 0.061686 0.648363
H38A H 0.891992 0.130850 0.543112
O1A O 0.8353(3) 0.2430(3) 0.6556(2)
C30A C 0.5318(9) 0.6295(6) 0.7943(5)
H39A H 0.557745 0.675144 0.731350
H40A H 0.429183 0.652594 0.810998
C31A C 0.5705(10) 0.6708(6) 0.8729(6)
H41A H 0.493400 0.690974 0.933320
H42A H 0.595570 0.747905 0.851180
C32A C 0.6973(9) 0.5508(7) 0.8888(6)
H43A H 0.785612 0.554605 0.845367
H44A H 0.703432 0.540831 0.958043
C33A C 0.6660(12) 0.4425(7) 0.8620(6)
H45A H 0.602835 0.415732 0.918310
H46A H 0.753286 0.365696 0.840300
O2A O 0.6005(3) 0.4979(3) 0.7849(2)
N1A N 0.5841(3) 0.5909(3) 0.5367(2)
Na1A Na 0.61355(16) 0.40260(13) 0.64880(10)
C34? C 0.0109(16) 0.792(2) 0.4064(15)
H47? H -0.014060 0.714029 0.416150
H48? H -0.000264 0.821523 0.471570
C35? C -0.0788(18) 0.895(2) 0.3524(19)
H49? H -0.157335 0.957898 0.397995
H50? H -0.117917 0.857770 0.313906
C36? C 0.0121(18) 0.9587(16) 0.2858(17)
H51? H -0.002689 0.972440 0.218708
H52? H -0.006720 1.043693 0.310897
C37? C 0.1493(17) 0.8696(15) 0.2867(16)
H53? H 0.199907 0.844063 0.218255
H54? H 0.197066 0.916194 0.307994
C38? C 0.361(2) 0.3865(13) 0.2302(9)
H55? H 0.270474 0.403992 0.279333
H56? H 0.433871 0.310325 0.254050
C39? C 0.351(2) 0.3600(19) 0.1324(11)
H57? H 0.380587 0.265281 0.125256
H58? H 0.252995 0.404554 0.125499
C40? C 0.444(2) 0.4115(16) 0.0591(10)
H59? H 0.407033 0.447594 0.000263
H60? H 0.539177 0.343220 0.039039
C41? C 0.446(2) 0.5175(15) 0.1129(9)
H61? H 0.542440 0.515451 0.096584
H62? H 0.384707 0.603468 0.090504
loop_
_geom_bond_atom_site_label_1
_geom_bond_atom_site_label_2
_geom_bond_site_symmetry_1
_geom_bond_site_symmetry_2
B1 C4 1_555 1_555
C1 H1 1_555 1_555
H2 C1 1_555 1_555
H3 C1 1_555 1_555
C2 C1 1_555 1_555
C3 C2 1_555 1_555
H4 C3 1_555 1_555
C4 C3 1_555 1_555
C5 C4 1_555 1_555
H5 C5 1_555 1_555
C6 C5 1_555 1_555
C7 C6 1_555 1_555
H6 C7 1_555 1_555
H7 C7 1_555 1_555
H8 C7 1_555 1_555
C8 B1 1_555 1_555
C9 C8 1_555 1_555
C10 C9 1_555 1_555
H9 C10 1_555 1_555
C11 C10 1_555 1_555
C12 C11 1_555 1_555
H10 C12 1_555 1_555
C13 C8 1_555 1_555
C14 C9 1_555 1_555
H11 C14 1_555 1_555
H12 C14 1_555 1_555
H13 C14 1_555 1_555
C15 C11 1_555 1_555
H14 C15 1_555 1_555
H15 C15 1_555 1_555
H16 C15 1_555 1_555
C16 C13 1_555 1_555
H17 C16 1_555 1_555
H18 C16 1_555 1_555
H19 C16 1_555 1_555
C17 B1 1_555 1_555
C18 C17 1_555 1_555
C19 C18 1_555 1_555
H20 C19 1_555 1_555
C20 C19 1_555 1_555
C21 C20 1_555 1_555
H21 C21 1_555 1_555
C22 C17 1_555 1_555
C23 C18 1_555 1_555
H22 C23 1_555 1_555
H23 C23 1_555 1_555
H24 C23 1_555 1_555
C24 C20 1_555 1_555
H25 C24 1_555 1_555
H26 C24 1_555 1_555
H27 C24 1_555 1_555
C25 C22 1_555 1_555
H28 C25 1_555 1_555
H29 C25 1_555 1_555
H30 C25 1_555 1_555
C26 H31 1_555 1_555
H32 C26 1_555 1_555
C27 C26 1_555 1_555
H33 C27 1_555 1_555
H34 C27 1_555 1_555
C28 C27 1_555 1_555
H35 C28 1_555 1_555
H36 C28 1_555 1_555
C29 C28 1_555 1_555
H37 C29 1_555 1_555
H38 C29 1_555 1_555
O1 C26 1_555 1_555
C30 H39 1_555 1_555
H40 C30 1_555 1_555
C31 C30 1_555 1_555
H41 C31 1_555 1_555
H42 C31 1_555 1_555
C32 C31 1_555 1_555
H43 C32 1_555 1_555
H44 C32 1_555 1_555
C33 C32 1_555 1_555
H45 C33 1_555 1_555
H46 C33 1_555 1_555
O2 C30 1_555 1_555
N1 C2 1_555 1_555
Na1 O1 1_555 1_555
B1A C4A 1_555 1_555
C1A H1A 1_555 1_555
H2A C1A 1_555 1_555
H3A C1A 1_555 1_555
C2A C1A 1_555 1_555
C3A Na1 1_555 1_555
H4A C3A 1_555 1_555
C4A C3A 1_555 1_555
C5A C4A 1_555 1_555
H5A C5A 1_555 1_555
C6A C5A 1_555 1_555
C7A C6A 1_555 1_555
H6A C7A 1_555 1_555
H7A C7A 1_555 1_555
H8A C7A 1_555 1_555
C8A B1A 1_555 1_555
C9A C8A 1_555 1_555
C10A C9A 1_555 1_555
H9A C10A 1_555 1_555
C11A C10A 1_555 1_555
C12A C11A 1_555 1_555
H10A C12A 1_555 1_555
C13A C8A 1_555 1_555
C14A C9A 1_555 1_555
H11A C14A 1_555 1_555
H12A C14A 1_555 1_555
H13A C14A 1_555 1_555
C15A C11A 1_555 1_555
H14A C15A 1_555 1_555
H15A C15A 1_555 1_555
H16A C15A 1_555 1_555
C16A C13A 1_555 1_555
H17A C16A 1_555 1_555
H18A C16A 1_555 1_555
H19A C16A 1_555 1_555
C17A B1A 1_555 1_555
C18A C17A 1_555 1_555
C19A C18A 1_555 1_555
H20A C19A 1_555 1_555
C20A C19A 1_555 1_555
C21A C20A 1_555 1_555
H21A C21A 1_555 1_555
C22A C17A 1_555 1_555
C23A C18A 1_555 1_555
H22A C23A 1_555 1_555
H23A C23A 1_555 1_555
H24A C23A 1_555 1_555
C24A C20A 1_555 1_555
H25A C24A 1_555 1_555
H26A C24A 1_555 1_555
H27A C24A 1_555 1_555
C25A C22A 1_555 1_555
H28A C25A 1_555 1_555
H29A C25A 1_555 1_555
H30A C25A 1_555 1_555
C26A H31A 1_555 1_555
H32A C26A 1_555 1_555
C27A C26A 1_555 1_555
H33A C27A 1_555 1_555
H34A C27A 1_555 1_555
C28A C27A 1_555 1_555
H35A C28A 1_555 1_555
H36A C28A 1_555 1_555
C29A C28A 1_555 1_555
H37A C29A 1_555 1_555
H38A C29A 1_555 1_555
O1A C26A 1_555 1_555
C30A H39A 1_555 1_555
H40A C30A 1_555 1_555
C31A C30A 1_555 1_555
H41A C31A 1_555 1_555
H42A C31A 1_555 1_555
C32A C31A 1_555 1_555
H43A C32A 1_555 1_555
H44A C32A 1_555 1_555
C33A C32A 1_555 1_555
H45A C33A 1_555 1_555
H46A C33A 1_555 1_555
O2A C30A 1_555 1_555
N1A C2A 1_555 1_555
Na1A C3 1_555 1_555
C6 N1 1_555 1_555
C12 C13 1_555 1_555
C21 C22 1_555 1_555
C29 O1 1_555 1_555
C33 O2 1_555 1_555
O2 Na1 1_555 1_555
N1 Na1 1_555 1_555
C2A C3A 1_555 1_555
C6A N1A 1_555 1_555
C12A C13A 1_555 1_555
C21A C22A 1_555 1_555
C29A O1A 1_555 1_555
O1A Na1A 1_555 1_555
C33A O2A 1_555 1_555
O2A Na1A 1_555 1_555
N1A Na1A 1_555 1_555

#END
