
#######################################################################
#
#                 Cambridge Crystallographic Data Centre
#                                CCDC 
#
#######################################################################
#
# If this CIF has been generated from an entry in the Cambridge 
# Structural Database, then it will include bibliographic, chemical, 
# crystal, experimental, refinement or atomic coordinate data resulting 
# from the CCDC's data processing and validation procedures.
#
#######################################################################

data_XIYVEH
_chemical_formula_moiety         'C38 H26 O4'
_chemical_name_systematic        "(R)-1,1'-Binaphthalene-2,2'-diyl dicinnamate"
_symmetry_cell_setting           orthorhombic
_symmetry_space_group_name_H-M   'P 21 21 21'
_symmetry_Int_Tables_number      19
_space_group_name_Hall           'P 2ac 2ab'
loop_
_symmetry_equiv_pos_site_id
_symmetry_equiv_pos_as_xyz
1 x,y,z
2 1/2+x,1/2-y,-z
3 -x,1/2+y,1/2-z
4 1/2-x,-y,1/2+z
_cell_length_a                   10.3391(17)
_cell_length_b                   15.352(2)
_cell_length_c                   17.660(3)
_cell_angle_alpha                90
_cell_angle_beta                 90
_cell_angle_gamma                90
_cell_volume                     2803.1
_exptl_crystal_colour            colorless
_exptl_crystal_description       block
_cell_formula_units_Z            4
_exptl_crystal_recrystallization_method tetrahydrofuran/methanol
loop_
_atom_site_label
_atom_site_type_symbol
_atom_site_fract_x
_atom_site_fract_y
_atom_site_fract_z
C1 C 0.6025(3) 0.8638(3) -0.04126(18)
H1 H 0.5442 0.8445 -0.0777
C2 C 0.6764(3) 0.8040(2) -0.00129(17)
H2 H 0.6671 0.7448 -0.0114
C3 C 0.7621(3) 0.8302(2) 0.05227(17)
H3 H 0.8100 0.7889 0.0787
C4 C 0.7794(3) 0.91986(18) 0.06838(15)
C5 C 0.8758(3) 0.95009(17) 0.12052(14)
C6 C 0.8883(3) 1.03778(19) 0.13057(15)
C7 C 0.8090(3) 1.09864(19) 0.09384(16)
H4 H 0.8187 1.1578 0.1037
C8 C 0.7186(3) 1.0711(2) 0.04412(17)
H5 H 0.6661 1.1116 0.0198
C9 C 0.7027(3) 0.9807(2) 0.02847(15)
C10 C 0.6151(3) 0.9511(2) -0.02713(17)
H6 H 0.5658 0.9910 -0.0543
C11 C 1.3620(3) 0.8723(3) 0.1022(2)
H7 H 1.4498 0.8707 0.0910
C12 C 1.2803(3) 0.9291(2) 0.0633(2)
H8 H 1.3144 0.9643 0.0254
C13 C 1.1519(3) 0.9341(2) 0.07945(18)
H9 H 1.0997 0.9725 0.0525
C14 C 1.0972(3) 0.88157(17) 0.13694(15)
C15 C 0.9642(3) 0.88757(17) 0.15923(15)
C16 C 0.9218(3) 0.83490(18) 0.21667(16)
C17 C 1.0014(3) 0.77282(19) 0.25182(18)
H10 H 0.9679 0.7362 0.2889
C18 C 1.1267(3) 0.7668(2) 0.23135(17)
H11 H 1.1791 0.7255 0.2547
C19 C 1.1804(3) 0.82197(18) 0.17505(17)
C20 C 1.3128(3) 0.8194(2) 0.15641(19)
H12 H 1.3672 0.7809 0.1817
C21 C 0.9902(3) 1.05583(19) 0.24984(17)
C22 C 1.1166(3) 1.0709(2) 0.28411(18)
H13 H 1.1209 1.0753 0.3366
C23 C 1.2250(3) 1.0785(2) 0.24563(18)
H14 H 1.2183 1.0785 0.1931
C24 C 1.3556(3) 1.0870(2) 0.27757(19)
C25 C 1.4610(3) 1.0705(3) 0.2321(2)
H15 H 1.4485 1.0593 0.1809
C26 C 1.5852(4) 1.0704(3) 0.2613(3)
H16 H 1.6550 1.0573 0.2301
C27 C 1.6053(4) 1.0894(3) 0.3354(3)
H17 H 1.6888 1.0894 0.3549
C28 C 1.5032(4) 1.1086(3) 0.3813(2)
H18 H 1.5174 1.1222 0.4319
C29 C 1.3775(3) 1.1078(3) 0.3526(2)
H19 H 1.3083 1.1214 0.3841
C30 C 0.7596(3) 0.8456(2) 0.31233(16)
C31 C 0.6190(3) 0.8482(2) 0.3223(2)
H20 H 0.5650 0.8516 0.2803
C32 C 0.5688(3) 0.8457(2) 0.3910(2)
H21 H 0.6282 0.8421 0.4305
C33 C 0.4326(3) 0.8477(2) 0.41384(18)
C34 C 0.4012(3) 0.8251(2) 0.4876(2)
H22 H 0.4665 0.8079 0.5205
C35 C 0.2755(4) 0.8276(3) 0.5130(2)
H23 H 0.2562 0.8129 0.5628
C36 C 0.1783(4) 0.8520(2) 0.4639(3)
H24 H 0.0929 0.8528 0.4804
C37 C 0.2072(4) 0.8749(3) 0.3909(2)
H25 H 0.1413 0.8917 0.3581
C38 C 0.3337(4) 0.8733(2) 0.3654(2)
H26 H 0.3526 0.8893 0.3159
O1 O 0.99096(19) 1.07037(12) 0.17371(12)
O2 O 0.8952(2) 1.03255(17) 0.28368(13)
O3 O 0.79103(19) 0.84135(14) 0.23723(11)
O4 O 0.8384(2) 0.8467(2) 0.36224(13)
loop_
_geom_bond_atom_site_label_1
_geom_bond_atom_site_label_2
_geom_bond_site_symmetry_1
_geom_bond_site_symmetry_2
C1 H1 1_555 1_555
C2 C1 1_555 1_555
H2 C2 1_555 1_555
C3 C2 1_555 1_555
H3 C3 1_555 1_555
C4 C3 1_555 1_555
C5 C4 1_555 1_555
C6 C5 1_555 1_555
C7 C6 1_555 1_555
H4 C7 1_555 1_555
C8 C7 1_555 1_555
H5 C8 1_555 1_555
C9 C4 1_555 1_555
C10 C1 1_555 1_555
H6 C10 1_555 1_555
C11 H7 1_555 1_555
C12 C11 1_555 1_555
H8 C12 1_555 1_555
C13 C12 1_555 1_555
H9 C13 1_555 1_555
C14 C13 1_555 1_555
C15 C5 1_555 1_555
C16 C15 1_555 1_555
C17 C16 1_555 1_555
H10 C17 1_555 1_555
C18 C17 1_555 1_555
H11 C18 1_555 1_555
C19 C14 1_555 1_555
C20 C11 1_555 1_555
H12 C20 1_555 1_555
C21 C22 1_555 1_555
C22 H13 1_555 1_555
C23 C22 1_555 1_555
H14 C23 1_555 1_555
C24 C23 1_555 1_555
C25 C24 1_555 1_555
H15 C25 1_555 1_555
C26 C25 1_555 1_555
H16 C26 1_555 1_555
C27 C26 1_555 1_555
H17 C27 1_555 1_555
C28 C27 1_555 1_555
H18 C28 1_555 1_555
C29 C24 1_555 1_555
H19 C29 1_555 1_555
C30 C31 1_555 1_555
C31 H20 1_555 1_555
C32 C31 1_555 1_555
H21 C32 1_555 1_555
C33 C32 1_555 1_555
C34 C33 1_555 1_555
H22 C34 1_555 1_555
C35 C34 1_555 1_555
H23 C35 1_555 1_555
C36 C35 1_555 1_555
H24 C36 1_555 1_555
C37 C36 1_555 1_555
H25 C37 1_555 1_555
C38 C33 1_555 1_555
H26 C38 1_555 1_555
O1 C6 1_555 1_555
O2 C21 1_555 1_555
O3 C16 1_555 1_555
O4 C30 1_555 1_555
C8 C9 1_555 1_555
C9 C10 1_555 1_555
C14 C15 1_555 1_555
C18 C19 1_555 1_555
C19 C20 1_555 1_555
C21 O1 1_555 1_555
C28 C29 1_555 1_555
C30 O3 1_555 1_555
C37 C38 1_555 1_555

#END
