
#######################################################################
#
#                 Cambridge Crystallographic Data Centre
#                                CCDC 
#
#######################################################################
#
# If this CIF has been generated from an entry in the Cambridge 
# Structural Database, then it will include bibliographic, chemical, 
# crystal, experimental, refinement or atomic coordinate data resulting 
# from the CCDC's data processing and validation procedures.
#
#######################################################################

data_XIYXAE
_chemical_formula_moiety         'C30 H32 N1 O2 P1'
_chemical_name_systematic        
(aS)-(+)-2-(Diphenylphosphino)-8-methoxy-(N,N-di-isopropyl)-naphthamide
_symmetry_cell_setting           monoclinic
_symmetry_space_group_name_H-M   'P 21'
_symmetry_Int_Tables_number      4
_space_group_name_Hall           'P 2yb'
loop_
_symmetry_equiv_pos_site_id
_symmetry_equiv_pos_as_xyz
1 x,y,z
2 -x,1/2+y,-z
_cell_length_a                   7.5807(10)
_cell_length_b                   15.193(2)
_cell_length_c                   11.4579(14)
_cell_angle_alpha                90
_cell_angle_beta                 95.296(3)
_cell_angle_gamma                90
_cell_volume                     1314.01
_exptl_crystal_colour            colorless
_exptl_crystal_description       block
_cell_formula_units_Z            2
loop_
_atom_site_label
_atom_site_type_symbol
_atom_site_fract_x
_atom_site_fract_y
_atom_site_fract_z
P1 P 0.78586(8) 0.32278(5) 0.78531(5)
O1 O 0.6793(2) 0.46331(11) 0.57764(15)
O2 O 0.6574(3) 0.40298(12) 0.32964(15)
N1 N 0.9459(2) 0.41441(12) 0.52995(16)
C1 C 0.7019(3) 0.31050(16) 0.54529(18)
C2 C 0.6248(3) 0.27240(16) 0.4380(2)
C3 C 0.6048(3) 0.3170(2) 0.3282(2)
C4 C 0.5322(4) 0.27595(19) 0.2292(2)
H1 H 0.5204 0.3063 0.1585
C5 C 0.4759(4) 0.1892(2) 0.2334(3)
H2 H 0.4282 0.1618 0.1650
C6 C 0.4891(4) 0.14385(19) 0.3352(2)
H3 H 0.4511 0.0857 0.3365
C7 C 0.5608(3) 0.18466(16) 0.4400(2)
C8 C 0.5678(3) 0.13971(17) 0.5479(2)
H4 H 0.5290 0.0817 0.5492
C9 C 0.6292(3) 0.17868(16) 0.6492(2)
H5 H 0.6258 0.1485 0.7195
C10 C 0.6996(3) 0.26591(16) 0.6498(2)
C11 C 0.7754(3) 0.40320(16) 0.55037(19)
C12 C 0.6022(5) 0.4567(2) 0.2336(3)
H6 H 0.6492 0.5149 0.2468
H7 H 0.4752 0.4592 0.2245
H8 H 0.6446 0.4326 0.1639
C13 C 1.0599(3) 0.34100(17) 0.4991(2)
H9 H 0.9872 0.2876 0.4967
C14 C 1.1219(5) 0.3525(3) 0.3782(3)
H10 H 1.0211 0.3605 0.3220
H11 H 1.1863 0.3011 0.3581
H12 H 1.1975 0.4031 0.3777
C15 C 1.2133(3) 0.3265(3) 0.5923(3)
H13 H 1.1682 0.3186 0.6672
H14 H 1.2903 0.3768 0.5953
H15 H 1.2783 0.2751 0.5733
C16 C 1.0274(3) 0.50274(17) 0.5409(2)
H16 H 1.1510 0.4956 0.5240
C17 C 1.0326(4) 0.5396(2) 0.6640(3)
H17 H 1.0872 0.4976 0.7186
H18 H 0.9141 0.5513 0.6828
H19 H 1.0999 0.5932 0.6687
C18 C 0.9430(4) 0.5661(2) 0.4494(3)
H20 H 0.9432 0.5402 0.3730
H21 H 1.0093 0.6200 0.4520
H22 H 0.8233 0.5781 0.4654
C19 C 0.5807(3) 0.35176(17) 0.8496(2)
C20 C 0.5443(4) 0.4400(2) 0.8628(2)
H23 H 0.6222 0.4819 0.8380
C21 C 0.3937(5) 0.4673(3) 0.9122(3)
H24 H 0.3705 0.5270 0.9198
C22 C 0.2790(4) 0.4062(3) 0.9498(3)
H25 H 0.1785 0.4245 0.9838
C23 C 0.3115(3) 0.3184(3) 0.9377(2)
H26 H 0.2329 0.2770 0.9627
C24 C 0.4616(3) 0.2914(2) 0.8880(2)
H27 H 0.4832 0.2315 0.8802
C25 C 0.8685(3) 0.23269(18) 0.8816(2)
C26 C 0.9640(4) 0.1635(2) 0.8421(3)
H28 H 0.9770 0.1584 0.7624
C27 C 1.0406(4) 0.1016(2) 0.9191(3)
H29 H 1.1008 0.0541 0.8905
C28 C 1.0290(4) 0.1094(2) 1.0373(3)
H30 H 1.0817 0.0678 1.0890
C29 C 0.9397(4) 0.1786(2) 1.0779(3)
H31 H 0.9323 0.1851 1.1581
C30 C 0.8601(4) 0.2392(2) 1.0014(2)
H32 H 0.7987 0.2860 1.0309
loop_
_geom_bond_atom_site_label_1
_geom_bond_atom_site_label_2
_geom_bond_site_symmetry_1
_geom_bond_site_symmetry_2
P1 C10 1_555 1_555
O1 C11 1_555 1_555
O2 C3 1_555 1_555
N1 C11 1_555 1_555
C1 C2 1_555 1_555
C2 C3 1_555 1_555
C3 C4 1_555 1_555
C4 H1 1_555 1_555
C5 C4 1_555 1_555
H2 C5 1_555 1_555
C6 C5 1_555 1_555
H3 C6 1_555 1_555
C7 C2 1_555 1_555
C8 C7 1_555 1_555
H4 C8 1_555 1_555
C9 C8 1_555 1_555
H5 C9 1_555 1_555
C10 C1 1_555 1_555
C11 C1 1_555 1_555
C12 O2 1_555 1_555
H6 C12 1_555 1_555
H7 C12 1_555 1_555
H8 C12 1_555 1_555
C13 N1 1_555 1_555
H9 C13 1_555 1_555
C14 C13 1_555 1_555
H10 C14 1_555 1_555
H11 C14 1_555 1_555
H12 C14 1_555 1_555
C15 C13 1_555 1_555
H13 C15 1_555 1_555
H14 C15 1_555 1_555
H15 C15 1_555 1_555
C16 N1 1_555 1_555
H16 C16 1_555 1_555
C17 C16 1_555 1_555
H17 C17 1_555 1_555
H18 C17 1_555 1_555
H19 C17 1_555 1_555
C18 C16 1_555 1_555
H20 C18 1_555 1_555
H21 C18 1_555 1_555
H22 C18 1_555 1_555
C19 P1 1_555 1_555
C20 C19 1_555 1_555
H23 C20 1_555 1_555
C21 C20 1_555 1_555
H24 C21 1_555 1_555
C22 C21 1_555 1_555
H25 C22 1_555 1_555
C23 C22 1_555 1_555
H26 C23 1_555 1_555
C24 C19 1_555 1_555
H27 C24 1_555 1_555
C25 P1 1_555 1_555
C26 C25 1_555 1_555
H28 C26 1_555 1_555
C27 C26 1_555 1_555
H29 C27 1_555 1_555
C28 C27 1_555 1_555
H30 C28 1_555 1_555
C29 C28 1_555 1_555
H31 C29 1_555 1_555
C30 C25 1_555 1_555
H32 C30 1_555 1_555
C6 C7 1_555 1_555
C9 C10 1_555 1_555
C23 C24 1_555 1_555
C29 C30 1_555 1_555

#END
