
#######################################################################
#
#                 Cambridge Crystallographic Data Centre
#                                CCDC 
#
#######################################################################
#
# If this CIF has been generated from an entry in the Cambridge 
# Structural Database, then it will include bibliographic, chemical, 
# crystal, experimental, refinement or atomic coordinate data resulting 
# from the CCDC's data processing and validation procedures.
#
#######################################################################

data_XIYZUD
_chemical_formula_moiety         'C6 H2 N12 O12,C2 H5 N5'
_chemical_name_systematic        
"1-methyl-1H-tetrazol-5-amine 5,5'-bis(trinitromethyl)-2H,2'H-3,3'-bi-1,2,4-triazole"
_symmetry_cell_setting           monoclinic
_symmetry_space_group_name_H-M   'P 21/c'
_symmetry_Int_Tables_number      14
_space_group_name_Hall           '-P 2ybc'
loop_
_symmetry_equiv_pos_site_id
_symmetry_equiv_pos_as_xyz
1 x,y,z
2 -x,1/2+y,1/2-z
3 -x,-y,-z
4 x,1/2-y,1/2+z
_cell_length_a                   9.5546(15)
_cell_length_b                   20.695(3)
_cell_length_c                   11.2367(18)
_cell_angle_alpha                90
_cell_angle_beta                 113.633(4)
_cell_angle_gamma                90
_cell_volume                     2035.52
_exptl_crystal_colour            colorless
_exptl_crystal_description       prismatic
_cell_formula_units_Z            4
loop_
_atom_site_label
_atom_site_type_symbol
_atom_site_fract_x
_atom_site_fract_y
_atom_site_fract_z
N1 N 0.4217(3) 0.53880(14) 0.6069(3)
C1 C 0.4438(4) 0.49713(16) 0.5274(3)
N2 N 0.3489(4) 0.44664(14) 0.5069(3)
H1 H 0.344870 0.414132 0.457973
N3 N 0.2616(4) 0.45420(15) 0.5735(3)
C2 C 0.3103(4) 0.51005(17) 0.6318(3)
C3 C 0.2459(5) 0.53977(18) 0.7183(4)
N4 N 0.3664(6) 0.5810(3) 0.8216(5)
O1 O 0.4841(6) 0.5565(3) 0.8817(6)
O2 O 0.3435(8) 0.6366(3) 0.8247(7)
N5 N 0.1123(5) 0.5860(2) 0.6488(5)
O3 O 0.0967(6) 0.6048(3) 0.5480(6)
O4 O 0.0321(7) 0.5998(3) 0.7026(6)
N6 N 0.1783(8) 0.4886(3) 0.7766(7)
O5 O 0.2485(8) 0.4758(5) 0.8840(10)
O6 O 0.0657(15) 0.4664(4) 0.7155(11)
N1B N 0.5783(3) 0.46120(14) 0.3931(3)
C1B C 0.5562(4) 0.50287(16) 0.4726(3)
N2B N 0.6511(4) 0.55336(14) 0.4931(3)
H1B H 0.655130 0.585868 0.542027
N3B N 0.7384(4) 0.54580(15) 0.4265(3)
C2B C 0.6897(4) 0.48995(17) 0.3682(3)
C3B C 0.7541(5) 0.46023(18) 0.2817(4)
N4B N 0.6336(6) 0.4190(3) 0.1784(5)
O1B O 0.5159(6) 0.4435(3) 0.1183(6)
O2B O 0.6565(8) 0.3634(3) 0.1753(7)
N5B N 0.8877(5) 0.4140(2) 0.3512(5)
O3B O 0.9033(6) 0.3952(3) 0.4520(6)
O4B O 0.9679(7) 0.4002(3) 0.2974(6)
N6B N 0.8217(8) 0.5114(3) 0.2234(7)
O5B O 0.7515(8) 0.5242(5) 0.1160(10)
O6B O 0.9343(15) 0.5336(4) 0.2845(11)
N10 N 0.0657(4) 0.58395(14) 0.0398(3)
C4 C 0.0606(4) 0.52024(17) 0.0435(4)
N11 N 0.1851(4) 0.49695(15) 0.1415(3)
H2 H 0.203334 0.456696 0.160345
N12 N 0.2762(4) 0.54552(15) 0.2050(3)
C5 C 0.1996(4) 0.59651(18) 0.1390(4)
C6 C 0.2609(5) 0.66256(19) 0.1769(4)
N13 N 0.1475(6) 0.7131(2) 0.1069(7)
O13 O 0.1154(6) 0.7158(3) -0.0076(6)
O14 O 0.0936(9) 0.7452(3) 0.1699(9)
N14 N 0.4034(6) 0.6774(3) 0.1456(5)
O15 O 0.4784(6) 0.6318(3) 0.1403(6)
O16 O 0.4286(7) 0.7325(3) 0.1383(8)
N15 N 0.3223(7) 0.6713(2) 0.3251(5)
O17 O 0.4426(10) 0.6910(5) 0.3798(7)
O18 O 0.2278(9) 0.6569(3) 0.3678(6)
N10B N -0.0657(4) 0.41605(14) -0.0398(3)
C4B C -0.0606(4) 0.47976(17) -0.0435(4)
N11B N -0.1851(4) 0.50305(15) -0.1415(3)
H2B H -0.203334 0.543304 -0.160345
N12B N -0.2762(4) 0.45448(15) -0.2050(3)
C5B C -0.1996(4) 0.40349(18) -0.1390(4)
C6B C -0.2609(5) 0.33744(19) -0.1769(4)
N13B N -0.1475(6) 0.2869(2) -0.1069(7)
O13B O -0.1154(6) 0.2842(3) 0.0076(6)
O14B O -0.0936(9) 0.2548(3) -0.1699(9)
N14B N -0.4034(6) 0.3226(3) -0.1456(5)
O15B O -0.4784(6) 0.3682(3) -0.1403(6)
O16B O -0.4286(7) 0.2675(3) -0.1383(8)
N15B N -0.3223(7) 0.3287(2) -0.3251(5)
O17B O -0.4426(10) 0.3090(5) -0.3798(7)
O18B O -0.2278(9) 0.3431(3) -0.3678(6)
N19 N 0.2408(5) 0.31946(18) 0.0060(4)
H3 H 0.252401 0.355472 -0.027154
H4 H 0.224617 0.284471 -0.038847
C7 C 0.2481(4) 0.31786(17) 0.1268(4)
N20 N 0.2723(4) 0.36823(14) 0.2057(3)
N21 N 0.2709(4) 0.34467(15) 0.3169(3)
N22 N 0.2450(4) 0.28359(15) 0.3091(3)
N23 N 0.2293(3) 0.26589(13) 0.1882(3)
C8 C 0.1926(6) 0.19972(19) 0.1426(5)
H5 H 0.187023 0.173464 0.210949
H6 H 0.095977 0.198842 0.069238
H7 H 0.270596 0.183193 0.117352
N7? N 0.0990(18) 0.5056(12) 0.712(2)
O7? O 0.024(4) 0.5534(14) 0.714(4)
O8? O 0.044(4) 0.4513(12) 0.694(4)
N8? N 0.363(2) 0.5389(12) 0.8602(12)
O9? O 0.497(3) 0.530(3) 0.883(4)
O10? O 0.311(4) 0.550(3) 0.939(3)
N9? N 0.210(3) 0.6118(6) 0.680(3)
O11? O 0.144(6) 0.622(2) 0.564(2)
O12? O 0.247(4) 0.6534(18) 0.763(3)
N16? N 0.263(3) 0.7077(10) 0.0679(17)
O19? O 0.159(3) 0.7016(19) -0.037(3)
O20? O 0.363(4) 0.7479(17) 0.098(3)
N17? N 0.142(2) 0.6947(11) 0.223(2)
O21? O 0.069(4) 0.6675(12) 0.277(3)
O22? O 0.127(6) 0.7524(14) 0.197(5)
N18? N 0.417(2) 0.6653(14) 0.294(2)
O23? O 0.464(5) 0.689(2) 0.402(3)
O24? O 0.497(4) 0.6397(14) 0.247(3)
loop_
_geom_bond_atom_site_label_1
_geom_bond_atom_site_label_2
_geom_bond_site_symmetry_1
_geom_bond_site_symmetry_2
N1 C1 1_555 1_555
C1 N2 1_555 1_555
N2 H1 1_555 1_555
N3 N2 1_555 1_555
C2 N1 1_555 1_555
C3 C2 1_555 1_555
N4 C3 1_555 1_555
O1 N4 1_555 1_555
O2 N4 1_555 1_555
N5 C3 1_555 1_555
O3 N5 1_555 1_555
O4 N5 1_555 1_555
N6 C3 1_555 1_555
O5 N6 1_555 1_555
O6 N6 1_555 1_555
N10 C4 1_555 1_555
C4 N11 1_555 1_555
N11 H2 1_555 1_555
N12 N11 1_555 1_555
C5 N10 1_555 1_555
C6 C5 1_555 1_555
N13 C6 1_555 1_555
O13 N13 1_555 1_555
O14 N13 1_555 1_555
N14 C6 1_555 1_555
O15 N14 1_555 1_555
O16 N14 1_555 1_555
N15 C6 1_555 1_555
O17 N15 1_555 1_555
O18 N15 1_555 1_555
N19 H3 1_555 1_555
H4 N19 1_555 1_555
C7 N19 1_555 1_555
N20 C7 1_555 1_555
N21 N20 1_555 1_555
N22 N21 1_555 1_555
N23 C7 1_555 1_555
C8 N23 1_555 1_555
H5 C8 1_555 1_555
H6 C8 1_555 1_555
H7 C8 1_555 1_555
N1B C1B 1_555 1_555
C1B C1 1_555 1_555
N2B C1B 1_555 1_555
H1B N2B 1_555 1_555
N3B N2B 1_555 1_555
C2B N1B 1_555 1_555
C3B C2B 1_555 1_555
N4B C3B 1_555 1_555
O1B N4B 1_555 1_555
O2B N4B 1_555 1_555
N5B C3B 1_555 1_555
O3B N5B 1_555 1_555
O4B N5B 1_555 1_555
N6B C3B 1_555 1_555
O5B N6B 1_555 1_555
O6B N6B 1_555 1_555
N10B C4B 1_555 1_555
C4B C4 1_555 1_555
N11B C4B 1_555 1_555
H2B N11B 1_555 1_555
N12B N11B 1_555 1_555
C5B N10B 1_555 1_555
C6B C5B 1_555 1_555
N13B C6B 1_555 1_555
O13B N13B 1_555 1_555
O14B N13B 1_555 1_555
N14B C6B 1_555 1_555
O15B N14B 1_555 1_555
O16B N14B 1_555 1_555
N15B C6B 1_555 1_555
O17B N15B 1_555 1_555
O18B N15B 1_555 1_555
N3 C2 1_555 1_555
N12 C5 1_555 1_555
N22 N23 1_555 1_555
N3B C2B 1_555 1_555
N12B C5B 1_555 1_555

#END
