
#######################################################################
#
#                 Cambridge Crystallographic Data Centre
#                                CCDC 
#
#######################################################################
#
# If this CIF has been generated from an entry in the Cambridge 
# Structural Database, then it will include bibliographic, chemical, 
# crystal, experimental, refinement or atomic coordinate data resulting 
# from the CCDC's data processing and validation procedures.
#
#######################################################################

data_XIZBEQ
_chemical_formula_moiety         'C24 H19 F1 N4 O3'
_chemical_name_systematic        
N'-[(4-fluorophenyl)(5-hydroxy-3-methyl-1-phenyl-1H-pyrazol-4-yl)methylidene]-2-hydroxybenzohydrazide
_symmetry_cell_setting           triclinic
_symmetry_space_group_name_H-M   'P -1'
_symmetry_Int_Tables_number      2
_space_group_name_Hall           '-P 1'
loop_
_symmetry_equiv_pos_site_id
_symmetry_equiv_pos_as_xyz
1 x,y,z
2 -x,-y,-z
_cell_length_a                   10.634(2)
_cell_length_b                   10.978(2)
_cell_length_c                   11.159(2)
_cell_angle_alpha                61.590(2)
_cell_angle_beta                 71.105(2)
_cell_angle_gamma                73.667(2)
_cell_volume                     1071.34
_exptl_crystal_colour            yellow
_exptl_crystal_description       block
_cell_formula_units_Z            2
loop_
_atom_site_label
_atom_site_type_symbol
_atom_site_fract_x
_atom_site_fract_y
_atom_site_fract_z
F1 F -0.63343(8) 0.62330(9) 0.86647(8)
O1 O -0.06316(10) 0.58603(9) 0.22122(9)
H1 H -0.0938 0.5296 0.3030
O2 O 0.20906(9) 0.57071(9) 0.54399(9)
O3 O 0.18350(9) 0.79527(10) 0.12267(9)
H2 H 0.1834 0.8733 0.0529
N1 N -0.12086(11) 0.82251(11) 0.07939(10)
N2 N -0.17441(11) 0.94805(11) 0.09061(11)
N3 N -0.04279(11) 0.65293(11) 0.49591(11)
N4 N 0.07192(11) 0.67940(11) 0.39084(11)
H3 H 0.0657 0.7231 0.3029
C1 C 0.02150(15) 0.72102(16) -0.08226(15)
H4 H 0.0718 0.6573 -0.0140
C2 C 0.05375(17) 0.71880(17) -0.21225(16)
H5 H 0.1250 0.6513 -0.2318
C3 C -0.01654(19) 0.81360(18) -0.31331(16)
H6 H 0.0075 0.8125 -0.4026
C4 C -0.12214(19) 0.91018(18) -0.28404(16)
H7 H -0.1702 0.9756 -0.3538
C5 C -0.15851(16) 0.91232(15) -0.15357(14)
H8 H -0.2322 0.9774 -0.1331
C6 C -0.08539(14) 0.81774(14) -0.05347(13)
C7 C -0.11106(12) 0.71641(13) 0.20744(13)
C8 C -0.15898(12) 0.77294(13) 0.30421(12)
C9 C -0.19744(13) 0.91708(13) 0.22565(13)
C10 C -0.25418(16) 1.02780(14) 0.27837(15)
H9 H -0.2537 1.1204 0.1990
H10 H -0.1994 1.0195 0.3384
H11 H -0.3467 1.0163 0.3323
C11 C -0.15474(13) 0.70057(13) 0.45451(13)
C12 C -0.28116(13) 0.68349(13) 0.56349(13)
C13 C -0.40453(13) 0.71956(14) 0.52708(14)
H12 H -0.4070 0.7580 0.4314
C14 C -0.52404(14) 0.70017(15) 0.62854(15)
H13 H -0.6080 0.7245 0.6036
C15 C -0.51694(14) 0.64460(14) 0.76611(14)
C16 C -0.39759(15) 0.60927(15) 0.80693(14)
H14 H -0.3967 0.5724 0.9029
C17 C -0.27886(14) 0.62856(14) 0.70515(14)
H15 H -0.1956 0.6045 0.7313
C18 C 0.19364(13) 0.63868(13) 0.42216(13)
C19 C 0.31122(13) 0.67937(13) 0.30114(13)
C20 C 0.43723(14) 0.63766(14) 0.33368(15)
H16 H 0.4428 0.5873 0.4290
C21 C 0.55435(14) 0.66756(16) 0.23115(16)
H17 H 0.6391 0.6373 0.2557
C22 C 0.54627(15) 0.74222(16) 0.09214(16)
H18 H 0.6259 0.7635 0.0209
C23 C 0.42270(15) 0.78585(15) 0.05675(15)
H19 H 0.4183 0.8377 -0.0388
C24 C 0.30462(13) 0.75485(13) 0.15922(14)
loop_
_geom_bond_atom_site_label_1
_geom_bond_atom_site_label_2
_geom_bond_site_symmetry_1
_geom_bond_site_symmetry_2
F1 C15 1_555 1_555
O1 H1 1_555 1_555
O2 C18 1_555 1_555
O3 H2 1_555 1_555
N1 N2 1_555 1_555
N2 C9 1_555 1_555
N3 N4 1_555 1_555
N4 H3 1_555 1_555
C1 H4 1_555 1_555
C2 C1 1_555 1_555
H5 C2 1_555 1_555
C3 C2 1_555 1_555
H6 C3 1_555 1_555
C4 C3 1_555 1_555
H7 C4 1_555 1_555
C5 C4 1_555 1_555
H8 C5 1_555 1_555
C6 N1 1_555 1_555
C7 O1 1_555 1_555
C8 C7 1_555 1_555
C9 C8 1_555 1_555
C10 C9 1_555 1_555
H9 C10 1_555 1_555
H10 C10 1_555 1_555
H11 C10 1_555 1_555
C11 N3 1_555 1_555
C12 C11 1_555 1_555
C13 C12 1_555 1_555
H12 C13 1_555 1_555
C14 C13 1_555 1_555
H13 C14 1_555 1_555
C15 C14 1_555 1_555
C16 C15 1_555 1_555
H14 C16 1_555 1_555
C17 C12 1_555 1_555
H15 C17 1_555 1_555
C18 N4 1_555 1_555
C19 C18 1_555 1_555
C20 C19 1_555 1_555
H16 C20 1_555 1_555
C21 C20 1_555 1_555
H17 C21 1_555 1_555
C22 C21 1_555 1_555
H18 C22 1_555 1_555
C23 C22 1_555 1_555
H19 C23 1_555 1_555
C24 O3 1_555 1_555
N1 C7 1_555 1_555
C1 C6 1_555 1_555
C5 C6 1_555 1_555
C8 C11 1_555 1_555
C16 C17 1_555 1_555
C19 C24 1_555 1_555
C23 C24 1_555 1_555

#END
