
#######################################################################
#
#                 Cambridge Crystallographic Data Centre
#                                CCDC 
#
#######################################################################
#
# If this CIF has been generated from an entry in the Cambridge 
# Structural Database, then it will include bibliographic, chemical, 
# crystal, experimental, refinement or atomic coordinate data resulting 
# from the CCDC's data processing and validation procedures.
#
#######################################################################

data_XIZCER
_chemical_formula_moiety         'C6 H2 N12 O12,2(C2 H3 N3)'
_chemical_name_systematic        
"5,5'-bis(trinitromethyl)-2H,2'H-3,3'-bi-1,2,4-triazole bis(1H-1,2,3-triazole)"
_symmetry_cell_setting           monoclinic
_symmetry_space_group_name_H-M   'P 21/c'
_symmetry_Int_Tables_number      14
_space_group_name_Hall           '-P 2ybc'
loop_
_symmetry_equiv_pos_site_id
_symmetry_equiv_pos_as_xyz
1 x,y,z
2 -x,1/2+y,1/2-z
3 -x,-y,-z
4 x,1/2-y,1/2+z
_cell_length_a                   21.067(7)
_cell_length_b                   5.977(2)
_cell_length_c                   20.629(6)
_cell_angle_alpha                90
_cell_angle_beta                 116.921(7)
_cell_angle_gamma                90
_cell_volume                     2316.06
_exptl_crystal_colour            colorless
_exptl_crystal_description       prismatic
_cell_formula_units_Z            4
loop_
_atom_site_label
_atom_site_type_symbol
_atom_site_fract_x
_atom_site_fract_y
_atom_site_fract_z
N1 N 0.4262(3) 0.8099(10) -0.0115(3)
C1 C 0.4786(3) 0.9613(12) 0.0171(3)
N2 N 0.4869(3) 1.0331(11) 0.0821(3)
H1 H 0.517842 1.129238 0.109288
N3 N 0.4388(3) 0.9298(11) 0.0975(3)
C2 C 0.4046(3) 0.8009(12) 0.0408(4)
C3 C 0.3434(4) 0.6563(13) 0.0304(4)
N4 N 0.3305(4) 0.4809(13) -0.0271(4)
O1 O 0.3805(4) 0.3567(11) -0.0135(4)
O2 O 0.2746(4) 0.4828(15) -0.0810(4)
N5 N 0.3503(4) 0.5350(15) 0.1000(4)
O3 O 0.3634(4) 0.6591(14) 0.1507(4)
O4 O 0.3416(5) 0.3393(13) 0.0976(4)
N6 N 0.2728(4) 0.7897(16) 0.0035(5)
O5 O 0.2713(4) 0.9603(13) -0.0277(5)
O6 O 0.2266(4) 0.7055(16) 0.0138(5)
N1B N 0.5738(3) 1.1901(10) 0.0115(3)
C1B C 0.5214(3) 1.0387(12) -0.0171(3)
N2B N 0.5131(3) 0.9669(11) -0.0821(3)
H1B H 0.482158 0.870762 -0.109288
N3B N 0.5612(3) 1.0702(11) -0.0975(3)
C2B C 0.5954(3) 1.1991(12) -0.0408(4)
C3B C 0.6566(4) 1.3437(13) -0.0304(4)
N4B N 0.6695(4) 1.5191(13) 0.0271(4)
O1B O 0.6195(4) 1.6433(11) 0.0135(4)
O2B O 0.7254(4) 1.5172(15) 0.0810(4)
N5B N 0.6497(4) 1.4650(15) -0.1000(4)
O3B O 0.6366(4) 1.3409(14) -0.1507(4)
O4B O 0.6584(5) 1.6607(13) -0.0976(4)
N6B N 0.7272(4) 1.2103(16) -0.0035(5)
O5B O 0.7287(4) 1.0397(13) 0.0277(5)
O6B O 0.7734(4) 1.2945(16) -0.0138(5)
N7 N 0.0747(3) 0.6763(11) 0.0613(3)
C4 C 0.0236(3) 0.5242(12) 0.0379(3)
N8 N 0.0183(3) 0.4267(11) 0.0931(3)
H2 H -0.012237 0.325424 0.089070
N9 N 0.0686(3) 0.5113(11) 0.1570(3)
C5 C 0.0997(4) 0.6588(13) 0.1339(4)
C6 C 0.1626(4) 0.7882(13) 0.1851(4)
N10 N 0.1818(5) 0.9726(14) 0.1436(4)
O7 O 0.1341(4) 1.1004(11) 0.1110(4)
O8 O 0.2421(5) 0.9687(15) 0.1501(5)
N11 N 0.2298(4) 0.6396(14) 0.2207(5)
O9 O 0.2349(4) 0.5004(12) 0.1814(5)
O10 O 0.2698(4) 0.6783(17) 0.2831(5)
N12 N 0.1542(5) 0.910(2) 0.2466(5)
O11 O 0.1738(5) 1.1014(15) 0.2572(4)
O12 O 0.1364(5) 0.784(2) 0.2816(5)
N7B N -0.0747(3) 0.3237(11) -0.0613(3)
C4B C -0.0236(3) 0.4758(12) -0.0379(3)
N8B N -0.0183(3) 0.5733(11) -0.0931(3)
H2B H 0.012237 0.674576 -0.089070
N9B N -0.0686(3) 0.4887(11) -0.1570(3)
C5B C -0.0997(4) 0.3412(13) -0.1339(4)
C6B C -0.1626(4) 0.2118(13) -0.1851(4)
N10B N -0.1818(5) 0.0274(14) -0.1436(4)
O7B O -0.1341(4) -0.1004(11) -0.1110(4)
O8B O -0.2421(5) 0.0313(15) -0.1501(5)
N11B N -0.2298(4) 0.3604(14) -0.2207(5)
O9B O -0.2349(4) 0.4996(12) -0.1814(5)
O10B O -0.2698(4) 0.3217(17) -0.2831(5)
N12B N -0.1542(5) 0.090(2) -0.2466(5)
O11B O -0.1738(5) -0.1014(15) -0.2572(4)
O12B O -0.1364(5) 0.216(2) -0.2816(5)
N13 N 0.4462(4) 0.8909(13) 0.3344(4)
N14 N 0.4749(4) 0.9394(15) 0.2933(4)
N15 N 0.4435(5) 1.1243(16) 0.2583(4)
H3 H 0.454628 1.191314 0.227902
C7 C 0.3950(4) 1.1924(11) 0.2744(3)
H4 H 0.365010 1.314982 0.255442
C8 C 0.3971(4) 1.0477(12) 0.3246(3)
H5 H 0.369098 1.054403 0.348797
N16 N 0.0478(4) 0.5599(12) 0.3857(4)
N17 N 0.0219(5) 0.5177(16) 0.3174(4)
N18 N 0.0550(5) 0.3339(17) 0.3128(4)
H6 H 0.046352 0.269366 0.272321
C9 C 0.1009(4) 0.2635(12) 0.3744(3)
H7 H 0.130774 0.140043 0.384502
C10 C 0.0962(4) 0.4083(12) 0.4213(3)
H8 H 0.123057 0.402595 0.471561
loop_
_geom_bond_atom_site_label_1
_geom_bond_atom_site_label_2
_geom_bond_site_symmetry_1
_geom_bond_site_symmetry_2
N1 C1 1_555 1_555
C1 N2 1_555 1_555
N2 H1 1_555 1_555
N3 N2 1_555 1_555
C2 N1 1_555 1_555
C3 C2 1_555 1_555
N4 C3 1_555 1_555
O1 N4 1_555 1_555
O2 N4 1_555 1_555
N5 C3 1_555 1_555
O3 N5 1_555 1_555
O4 N5 1_555 1_555
N6 C3 1_555 1_555
O5 N6 1_555 1_555
O6 N6 1_555 1_555
N7 C4 1_555 1_555
C4 N8 1_555 1_555
N8 H2 1_555 1_555
N9 N8 1_555 1_555
C5 N7 1_555 1_555
C6 C5 1_555 1_555
N10 C6 1_555 1_555
O7 N10 1_555 1_555
O8 N10 1_555 1_555
N11 C6 1_555 1_555
O9 N11 1_555 1_555
O10 N11 1_555 1_555
N12 C6 1_555 1_555
O11 N12 1_555 1_555
O12 N12 1_555 1_555
N13 N14 1_555 1_555
N14 N15 1_555 1_555
N15 H3 1_555 1_555
C7 N15 1_555 1_555
H4 C7 1_555 1_555
C8 N13 1_555 1_555
H5 C8 1_555 1_555
N16 N17 1_555 1_555
N17 N18 1_555 1_555
N18 H6 1_555 1_555
C9 N18 1_555 1_555
H7 C9 1_555 1_555
C10 N16 1_555 1_555
H8 C10 1_555 1_555
N1B C1B 1_555 1_555
C1B C1 1_555 1_555
N2B C1B 1_555 1_555
H1B N2B 1_555 1_555
N3B N2B 1_555 1_555
C2B N1B 1_555 1_555
C3B C2B 1_555 1_555
N4B C3B 1_555 1_555
O1B N4B 1_555 1_555
O2B N4B 1_555 1_555
N5B C3B 1_555 1_555
O3B N5B 1_555 1_555
O4B N5B 1_555 1_555
N6B C3B 1_555 1_555
O5B N6B 1_555 1_555
O6B N6B 1_555 1_555
N7B C4B 1_555 1_555
C4B C4 1_555 1_555
N8B C4B 1_555 1_555
H2B N8B 1_555 1_555
N9B N8B 1_555 1_555
C5B N7B 1_555 1_555
C6B C5B 1_555 1_555
N10B C6B 1_555 1_555
O7B N10B 1_555 1_555
O8B N10B 1_555 1_555
N11B C6B 1_555 1_555
O9B N11B 1_555 1_555
O10B N11B 1_555 1_555
N12B C6B 1_555 1_555
O11B N12B 1_555 1_555
O12B N12B 1_555 1_555
N3 C2 1_555 1_555
N9 C5 1_555 1_555
C7 C8 1_555 1_555
C9 C10 1_555 1_555
N3B C2B 1_555 1_555
N9B C5B 1_555 1_555

#END
