
#######################################################################
#
#                 Cambridge Crystallographic Data Centre
#                                CCDC 
#
#######################################################################
#
# If this CIF has been generated from an entry in the Cambridge 
# Structural Database, then it will include bibliographic, chemical, 
# crystal, experimental, refinement or atomic coordinate data resulting 
# from the CCDC's data processing and validation procedures.
#
#######################################################################

data_XIZDEP01
_chemical_formula_moiety         'C38 H32 N2'
_chemical_name_systematic        
N,N'-bis(3-methylphenyl)-N,N'-diphenyl-1,1'-biphenyl-4,4'-diamine
_symmetry_cell_setting           monoclinic
_symmetry_space_group_name_H-M   'P 21'
_symmetry_Int_Tables_number      4
_space_group_name_Hall           'P 2yb'
loop_
_symmetry_equiv_pos_site_id
_symmetry_equiv_pos_as_xyz
1 x,y,z
2 -x,1/2+y,-z
_cell_length_a                   14.447(2)
_cell_length_b                   11.0153(16)
_cell_length_c                   17.803(3)
_cell_angle_alpha                90
_cell_angle_beta                 90.602(3)
_cell_angle_gamma                90
_cell_volume                     2832.98
_exptl_crystal_colour            colorless
_exptl_crystal_description       parallelepiped
_chemical_melting_point          '449 K'
_cell_formula_units_Z            4
_exptl_crystal_recrystallization_method morpholine
loop_
_atom_site_label
_atom_site_type_symbol
_atom_site_fract_x
_atom_site_fract_y
_atom_site_fract_z
N1 N 0.42973(18) 0.8901(3) -0.20375(16)
N2 N 0.6406(2) 0.8633(3) 0.33192(15)
C1 C 0.3332(2) 0.8752(4) -0.2171(2)
C2 C 0.2713(3) 0.9461(4) -0.1798(2)
H1 H 0.2926 1.0055 -0.1450
C3 C 0.1743(3) 0.9304(5) -0.1933(2)
C4 C 0.1465(3) 0.8437(4) -0.2436(2)
H2 H 0.0820 0.8316 -0.2516
C5 C 0.2058(3) 0.7752(4) -0.2822(2)
H3 H 0.1838 0.7171 -0.3175
C6 C 0.2999(3) 0.7904(4) -0.2696(2)
H4 H 0.3426 0.7426 -0.2971
C7 C 0.1114(4) 1.0133(6) -0.1548(3)
H5 H 0.0781 1.0628 -0.1921
H6 H 0.1470 1.0664 -0.1212
H7 H 0.0668 0.9663 -0.1256
C8 C 0.4927(2) 0.8880(4) -0.2644(2)
C9 C 0.4722(3) 0.9534(4) -0.3288(2)
H8 H 0.4152 0.9959 -0.3333
C10 C 0.5365(3) 0.9564(4) -0.3878(2)
H9 H 0.5221 1.0007 -0.4322
C11 C 0.6186(3) 0.8970(6) -0.3821(3)
H10 H 0.6623 0.9021 -0.4215
C12 C 0.6386(3) 0.8282(6) -0.3178(3)
H11 H 0.6950 0.7842 -0.3141
C13 C 0.5749(3) 0.8245(5) -0.2587(2)
H12 H 0.5884 0.7782 -0.2149
C14 C 0.4631(2) 0.8832(4) -0.12804(19)
C15 C 0.5388(2) 0.9530(4) -0.1054(2)
H13 H 0.5690 1.0037 -0.1407
C16 C 0.5706(2) 0.9487(3) -0.03098(19)
H14 H 0.6221 0.9971 -0.0163
C17 C 0.5282(2) 0.8753(3) 0.02174(18)
C18 C 0.4534(2) 0.8053(3) -0.00282(19)
H15 H 0.4239 0.7528 0.0319
C19 C 0.4207(2) 0.8097(3) -0.0757(2)
H16 H 0.3687 0.7620 -0.0901
C20 C 0.5596(2) 0.8718(3) 0.10151(18)
C21 C 0.5909(2) 0.9754(3) 0.1386(2)
H17 H 0.5936 1.0499 0.1118
C22 C 0.6181(2) 0.9731(3) 0.2130(2)
H18 H 0.6392 1.0455 0.2365
C23 C 0.6150(2) 0.8654(3) 0.25428(19)
C24 C 0.5838(2) 0.7603(3) 0.21783(19)
H19 H 0.5809 0.6858 0.2447
C25 C 0.5572(2) 0.7640(3) 0.14323(19)
H20 H 0.5366 0.6915 0.1195
C26 C 0.6738(2) 0.7550(3) 0.3666(2)
C27 C 0.6447(3) 0.7255(4) 0.4379(2)
H21 H 0.6026 0.7778 0.4626
C28 C 0.7357(3) 0.5480(4) 0.4382(3)
H22 H 0.7567 0.4762 0.4625
C29 C 0.7666(3) 0.5749(4) 0.3683(3)
H23 H 0.8086 0.5214 0.3444
C30 C 0.7369(2) 0.6812(3) 0.3307(2)
H24 H 0.7597 0.7014 0.2824
C31 C 0.6427(3) 0.9731(3) 0.3737(2)
C32 C 0.5657(3) 1.0464(4) 0.3794(2)
H25 H 0.5095 1.0237 0.3550
C33 C 0.5700(4) 1.1519(4) 0.4200(2)
H26 H 0.5168 1.2021 0.4237
C34 C 0.6506(4) 1.1850(4) 0.4550(2)
H27 H 0.6531 1.2593 0.4821
C35 C 0.7290(3) 1.1124(4) 0.4520(2)
C37 C 0.6748(3) 0.6229(4) 0.4739(2)
H32 H 0.6538 0.6040 0.5229
C38 C 0.8177(5) 1.1514(6) 0.4846(4)
H33 H 0.8243 1.1186 0.5356
H34 H 0.8198 1.2403 0.4866
H35 H 0.8684 1.1215 0.4535
C39 C 0.7235(3) 1.0057(4) 0.4104(2)
H36 H 0.7762 0.9545 0.4071
N3 N 0.1397(2) 0.3956(3) 0.17160(15)
N4 N -0.06884(18) 0.3667(3) 0.70335(15)
C40 C 0.1399(2) 0.2857(3) 0.12883(19)
C41 C 0.2204(3) 0.2539(3) 0.0922(2)
H37 H 0.2731 0.3053 0.0957
C42 C 0.2252(3) 0.1465(4) 0.0499(2)
C43 C 0.1468(3) 0.0746(4) 0.0464(2)
H38 H 0.1483 0.0011 0.0186
C44 C 0.0664(3) 0.1074(4) 0.0825(2)
H39 H 0.0134 0.0566 0.0789
C45 C 0.0625(3) 0.2135(3) 0.1237(2)
H40 H 0.0070 0.2363 0.1482
C46 C 0.3133(4) 0.1104(5) 0.0137(3)
H41 H 0.3197 0.1538 -0.0340
H42 H 0.3128 0.0227 0.0042
H43 H 0.3655 0.1307 0.0469
C47 C 0.1719(2) 0.5035(3) 0.1359(2)
C48 C 0.2364(2) 0.5780(3) 0.1702(2)
H44 H 0.2604 0.5589 0.2186
C49 C 0.2660(3) 0.6826(4) 0.1322(2)
H45 H 0.3096 0.7353 0.1557
C50 C 0.2328(3) 0.7097(4) 0.0620(2)
H46 H 0.2535 0.7809 0.0373
C51 C 0.1698(3) 0.6350(4) 0.0269(2)
H47 H 0.1474 0.6530 -0.0221
C52 C 0.1399(3) 0.5328(4) 0.0646(2)
H48 H 0.0959 0.4811 0.0408
C53 C 0.1157(2) 0.3934(3) 0.24843(19)
C54 C 0.0863(2) 0.4986(3) 0.28523(19)
H49 H 0.0844 0.5735 0.2588
C55 C 0.0602(2) 0.4949(3) 0.35928(19)
H50 H 0.0403 0.5676 0.3828
C56 C 0.0621(2) 0.3876(3) 0.40101(19)
C57 C 0.0925(2) 0.2834(3) 0.36395(19)
H51 H 0.0952 0.2086 0.3905
C58 C 0.1187(2) 0.2868(3) 0.28959(19)
H52 H 0.1393 0.2143 0.2662
C59 C 0.0303(2) 0.3836(3) 0.48003(18)
C60 C -0.0437(2) 0.4534(3) 0.50360(19)
H53 H -0.0730 0.5062 0.4685
C61 C -0.0763(2) 0.4493(3) 0.5761(2)
H54 H -0.1272 0.4989 0.5899
C62 C -0.0355(2) 0.3731(3) 0.62892(19)
C63 C 0.0398(2) 0.3021(4) 0.60653(19)
H55 H 0.0691 0.2497 0.6419
C64 C 0.0721(2) 0.3072(3) 0.53369(19)
H56 H 0.1234 0.2584 0.5198
C65 C -0.1651(2) 0.3798(4) 0.7152(2)
C66 C -0.2264(3) 0.3093(5) 0.6767(2)
H57 H -0.2060 0.2500 0.6418
C67 C -0.3252(3) 0.3279(4) 0.6907(2)
C68 C -0.3508(3) 0.4156(4) 0.7413(2)
H58 H -0.4150 0.4280 0.7495
C69 C -0.2919(3) 0.4834(5) 0.7791(3)
H59 H -0.3127 0.5426 0.8138
C70 C -0.1980(3) 0.4657(4) 0.7667(2)
H60 H -0.1545 0.5135 0.7941
C71 C -0.3884(4) 0.2479(6) 0.6531(3)
H61 H -0.4278 0.2947 0.6186
H62 H -0.4270 0.2069 0.6902
H63 H -0.3536 0.1872 0.6247
C72 C -0.0056(2) 0.3680(4) 0.7648(2)
C73 C -0.0255(3) 0.3042(4) 0.8297(2)
H64 H -0.0824 0.2616 0.8336
C74 C 0.0387(3) 0.3022(4) 0.8900(2)
H65 H 0.0251 0.2579 0.9343
C75 C 0.1207(3) 0.3642(5) 0.8849(3)
H66 H 0.1642 0.3611 0.9253
C76 C 0.1407(3) 0.4310(5) 0.8213(3)
H67 H 0.1970 0.4753 0.8184
C77 C 0.0772(3) 0.4331(4) 0.7610(2)
H68 H 0.0906 0.4790 0.7174
H28? H 0.7845 1.1348 0.4776
C36? C 0.6615(8) 0.5729(12) 0.5464(6)
H29? H 0.6598 0.6384 0.5836
H30? H 0.7127 0.5176 0.5585
H31? H 0.6029 0.5280 0.5471
loop_
_geom_bond_atom_site_label_1
_geom_bond_atom_site_label_2
_geom_bond_site_symmetry_1
_geom_bond_site_symmetry_2
N1 C1 1_555 1_555
N2 C23 1_555 1_555
C1 C2 1_555 1_555
C2 H1 1_555 1_555
C3 C2 1_555 1_555
C4 C3 1_555 1_555
H2 C4 1_555 1_555
C5 C4 1_555 1_555
H3 C5 1_555 1_555
C6 C1 1_555 1_555
H4 C6 1_555 1_555
C7 C3 1_555 1_555
H5 C7 1_555 1_555
H6 C7 1_555 1_555
H7 C7 1_555 1_555
C8 N1 1_555 1_555
C9 C8 1_555 1_555
H8 C9 1_555 1_555
C10 C9 1_555 1_555
H9 C10 1_555 1_555
C11 C10 1_555 1_555
H10 C11 1_555 1_555
C12 C11 1_555 1_555
H11 C12 1_555 1_555
C13 C8 1_555 1_555
H12 C13 1_555 1_555
C14 N1 1_555 1_555
C15 C14 1_555 1_555
H13 C15 1_555 1_555
C16 C15 1_555 1_555
H14 C16 1_555 1_555
C17 C16 1_555 1_555
C18 C17 1_555 1_555
H15 C18 1_555 1_555
C19 C14 1_555 1_555
H16 C19 1_555 1_555
C20 C17 1_555 1_555
C21 C20 1_555 1_555
H17 C21 1_555 1_555
C22 C21 1_555 1_555
H18 C22 1_555 1_555
C23 C22 1_555 1_555
C24 C23 1_555 1_555
H19 C24 1_555 1_555
C25 C20 1_555 1_555
H20 C25 1_555 1_555
C26 N2 1_555 1_555
C27 C26 1_555 1_555
H21 C27 1_555 1_555
C28 H22 1_555 1_555
C29 C28 1_555 1_555
H23 C29 1_555 1_555
C30 C26 1_555 1_555
H24 C30 1_555 1_555
C31 N2 1_555 1_555
C32 C31 1_555 1_555
H25 C32 1_555 1_555
C33 C32 1_555 1_555
H26 C33 1_555 1_555
C34 C33 1_555 1_555
H27 C34 1_555 1_555
C35 C34 1_555 1_555
C37 C27 1_555 1_555
H32 C37 1_555 1_555
C38 C35 1_555 1_555
H33 C38 1_555 1_555
H34 C38 1_555 1_555
H35 C38 1_555 1_555
C39 C31 1_555 1_555
H36 C39 1_555 1_555
N3 C40 1_555 1_555
N4 C62 1_555 1_555
C40 C41 1_555 1_555
C41 H37 1_555 1_555
C42 C41 1_555 1_555
C43 C42 1_555 1_555
H38 C43 1_555 1_555
C44 C43 1_555 1_555
H39 C44 1_555 1_555
C45 C40 1_555 1_555
H40 C45 1_555 1_555
C46 C42 1_555 1_555
H41 C46 1_555 1_555
H42 C46 1_555 1_555
H43 C46 1_555 1_555
C47 N3 1_555 1_555
C48 C47 1_555 1_555
H44 C48 1_555 1_555
C49 C48 1_555 1_555
H45 C49 1_555 1_555
C50 C49 1_555 1_555
H46 C50 1_555 1_555
C51 C50 1_555 1_555
H47 C51 1_555 1_555
C52 C47 1_555 1_555
H48 C52 1_555 1_555
C53 N3 1_555 1_555
C54 C53 1_555 1_555
H49 C54 1_555 1_555
C55 C54 1_555 1_555
H50 C55 1_555 1_555
C56 C55 1_555 1_555
C57 C56 1_555 1_555
H51 C57 1_555 1_555
C58 C53 1_555 1_555
H52 C58 1_555 1_555
C59 C56 1_555 1_555
C60 C59 1_555 1_555
H53 C60 1_555 1_555
C61 C60 1_555 1_555
H54 C61 1_555 1_555
C62 C61 1_555 1_555
C63 C62 1_555 1_555
H55 C63 1_555 1_555
C64 C59 1_555 1_555
H56 C64 1_555 1_555
C65 N4 1_555 1_555
C66 C65 1_555 1_555
H57 C66 1_555 1_555
C67 C66 1_555 1_555
C68 C67 1_555 1_555
H58 C68 1_555 1_555
C69 C68 1_555 1_555
H59 C69 1_555 1_555
C70 C65 1_555 1_555
H60 C70 1_555 1_555
C71 C67 1_555 1_555
H61 C71 1_555 1_555
H62 C71 1_555 1_555
H63 C71 1_555 1_555
C72 N4 1_555 1_555
C73 C72 1_555 1_555
H64 C73 1_555 1_555
C74 C73 1_555 1_555
H65 C74 1_555 1_555
C75 C74 1_555 1_555
H66 C75 1_555 1_555
C76 C75 1_555 1_555
H67 C76 1_555 1_555
C77 C72 1_555 1_555
H68 C77 1_555 1_555
C5 C6 1_555 1_555
C12 C13 1_555 1_555
C18 C19 1_555 1_555
C24 C25 1_555 1_555
C28 C37 1_555 1_555
C29 C30 1_555 1_555
C35 C39 1_555 1_555
C44 C45 1_555 1_555
C51 C52 1_555 1_555
C57 C58 1_555 1_555
C63 C64 1_555 1_555
C69 C70 1_555 1_555
C76 C77 1_555 1_555

#END
