
#######################################################################
#
#                 Cambridge Crystallographic Data Centre
#                                CCDC 
#
#######################################################################
#
# If this CIF has been generated from an entry in the Cambridge 
# Structural Database, then it will include bibliographic, chemical, 
# crystal, experimental, refinement or atomic coordinate data resulting 
# from the CCDC's data processing and validation procedures.
#
#######################################################################

data_XOBDUP
_chemical_formula_moiety         'C34 H22 B1 Cl4 F2 N3 O2'
_chemical_name_systematic        
"1,9-bis(2,6-dichlorophenyl)-5,5-difluoro-3,7-bis(4-methoxyphenyl)-5H-4\l^5^,5\l^5^-dipyrrolo[1,2-c:2',1'-f][1,3,5,2]triazaborinine unknown solvate"
_symmetry_cell_setting           monoclinic
_symmetry_space_group_name_H-M   'P 21/c'
_symmetry_Int_Tables_number      14
_space_group_name_Hall           '-P 2ybc'
loop_
_symmetry_equiv_pos_site_id
_symmetry_equiv_pos_as_xyz
1 x,y,z
2 -x,1/2+y,1/2-z
3 -x,-y,-z
4 x,1/2-y,1/2+z
_cell_length_a                   24.635(6)
_cell_length_b                   8.334(2)
_cell_length_c                   19.478(5)
_cell_angle_alpha                90
_cell_angle_beta                 106.856(4)
_cell_angle_gamma                90
_cell_volume                     3827.18
_cell_formula_units_Z            4
loop_
_atom_site_label
_atom_site_type_symbol
_atom_site_fract_x
_atom_site_fract_y
_atom_site_fract_z
B1 B 0.2163(2) 0.1159(8) 0.4105(3)
C1 C 0.42595(17) 0.1173(5) 0.55545(19)
C2 C 0.46156(19) -0.0116(5) 0.5826(2)
C3 C 0.5191(2) -0.0040(7) 0.5986(2)
H1 H 0.5411 -0.0943 0.6155
C4 C 0.5442(2) 0.1375(8) 0.5897(2)
H2 H 0.5835 0.1433 0.6004
C5 C 0.5122(2) 0.2695(7) 0.5652(2)
H3 H 0.5296 0.3657 0.5598
C6 C 0.45376(19) 0.2616(5) 0.5484(2)
C7 C 0.32460(18) 0.1272(5) 0.4713(2)
C8 C 0.36502(17) 0.1076(5) 0.5397(2)
C9 C 0.33334(18) 0.0797(5) 0.5862(2)
H4 H 0.3483 0.0594 0.6350
C10 C 0.27370(19) 0.0865(5) 0.5486(2)
C11 C 0.22893(18) 0.0654(6) 0.5818(2)
C12 C 0.1775(2) 0.1451(7) 0.5599(2)
H5 H 0.1691 0.2103 0.5195
C13 C 0.1388(2) 0.1279(8) 0.5979(3)
H6 H 0.1037 0.1784 0.5818
C14 C 0.1514(2) 0.0360(7) 0.6604(3)
C15 C 0.2020(2) -0.0450(7) 0.6817(3)
H7 H 0.2103 -0.1129 0.7213
C16 C 0.2396(2) -0.0233(6) 0.6437(2)
H8 H 0.2750 -0.0718 0.6606
C17 C 0.1238(3) -0.0316(9) 0.7626(4)
H9 H 0.1282 -0.1456 0.7591
H10 H 0.0942 -0.0098 0.7843
H11 H 0.1588 0.0139 0.7915
C18 C 0.29433(18) 0.1366(5) 0.3495(2)
C19 C 0.30137(18) 0.1431(5) 0.2791(2)
C20 C 0.2485(2) 0.1156(6) 0.2346(2)
H12 H 0.2398 0.1121 0.1849
C21 C 0.20908(19) 0.0933(5) 0.2720(2)
C22 C 0.35453(18) 0.1712(5) 0.2631(2)
C23 C 0.3804(2) 0.0572(6) 0.2319(2)
C24 C 0.4302(2) 0.0893(7) 0.2136(2)
H13 H 0.4458 0.0118 0.1907
C25 C 0.4558(2) 0.2365(9) 0.2299(3)
H14 H 0.4894 0.2572 0.2190
C26 C 0.4325(2) 0.3531(7) 0.2619(3)
H15 H 0.4498 0.4527 0.2729
C27 C 0.3831(2) 0.3193(6) 0.2773(2)
C28 C 0.15017(19) 0.0487(6) 0.2428(2)
C29 C 0.13499(19) -0.0423(6) 0.1800(3)
H16 H 0.1626 -0.0694 0.1581
C30 C 0.0803(2) -0.0929(7) 0.1497(3)
H17 H 0.0712 -0.1531 0.1077
C31 C 0.0386(2) -0.0541(7) 0.1817(3)
C32 C 0.0524(2) 0.0436(8) 0.2410(3)
H18 H 0.0240 0.0808 0.2596
C33 C 0.1075(2) 0.0868(6) 0.2729(3)
H19 H 0.1165 0.1432 0.3159
C34 C -0.0321(3) -0.1994(10) 0.0928(4)
H20 H -0.0269 -0.1402 0.0529
H21 H -0.0712 -0.2305 0.0827
H22 H -0.0086 -0.2935 0.1007
Cl1 Cl 0.43108(6) -0.19425(15) 0.59410(7)
Cl2 Cl 0.41401(6) 0.43097(15) 0.51920(7)
Cl3 Cl 0.35294(6) -0.13193(18) 0.21714(8)
Cl4 Cl 0.35297(6) 0.47441(16) 0.31488(7)
F1 F 0.18537(11) 0.2570(4) 0.41059(13)
F2 F 0.18245(11) -0.0171(3) 0.41301(12)
N1 N 0.26898(14) 0.1125(4) 0.47728(17)
N2 N 0.33569(14) 0.1436(4) 0.40949(19)
N3 N 0.23776(15) 0.1130(4) 0.34426(17)
O1 O 0.10952(16) 0.0368(6) 0.6932(2)
O2 O -0.01658(16) -0.1007(5) 0.1559(2)
loop_
_geom_bond_atom_site_label_1
_geom_bond_atom_site_label_2
_geom_bond_site_symmetry_1
_geom_bond_site_symmetry_2
B1 F1 1_555 1_555
C1 C2 1_555 1_555
C2 C3 1_555 1_555
C3 H1 1_555 1_555
C4 C3 1_555 1_555
H2 C4 1_555 1_555
C5 C4 1_555 1_555
H3 C5 1_555 1_555
C6 C1 1_555 1_555
C7 C8 1_555 1_555
C8 C1 1_555 1_555
C9 C8 1_555 1_555
H4 C9 1_555 1_555
C10 C9 1_555 1_555
C11 C10 1_555 1_555
C12 C11 1_555 1_555
H5 C12 1_555 1_555
C13 C12 1_555 1_555
H6 C13 1_555 1_555
C14 C13 1_555 1_555
C15 C14 1_555 1_555
H7 C15 1_555 1_555
C16 C11 1_555 1_555
H8 C16 1_555 1_555
C17 H9 1_555 1_555
H10 C17 1_555 1_555
H11 C17 1_555 1_555
C18 C19 1_555 1_555
C19 C20 1_555 1_555
C20 H12 1_555 1_555
C21 C20 1_555 1_555
C22 C19 1_555 1_555
C23 C22 1_555 1_555
C24 C23 1_555 1_555
H13 C24 1_555 1_555
C25 C24 1_555 1_555
H14 C25 1_555 1_555
C26 C25 1_555 1_555
H15 C26 1_555 1_555
C27 C22 1_555 1_555
C28 C21 1_555 1_555
C29 C28 1_555 1_555
H16 C29 1_555 1_555
C30 C29 1_555 1_555
H17 C30 1_555 1_555
C31 C30 1_555 1_555
C32 C31 1_555 1_555
H18 C32 1_555 1_555
C33 C28 1_555 1_555
H19 C33 1_555 1_555
C34 H20 1_555 1_555
H21 C34 1_555 1_555
H22 C34 1_555 1_555
Cl1 C2 1_555 1_555
Cl2 C6 1_555 1_555
Cl3 C23 1_555 1_555
Cl4 C27 1_555 1_555
F2 B1 1_555 1_555
N1 B1 1_555 1_555
N2 C7 1_555 1_555
N3 B1 1_555 1_555
O1 C14 1_555 1_555
O2 C31 1_555 1_555
C5 C6 1_555 1_555
C7 N1 1_555 1_555
C10 N1 1_555 1_555
C15 C16 1_555 1_555
C17 O1 1_555 1_555
C18 N2 1_555 1_555
C18 N3 1_555 1_555
C21 N3 1_555 1_555
C26 C27 1_555 1_555
C32 C33 1_555 1_555
C34 O2 1_555 1_555

#END
