
#######################################################################
#
#                 Cambridge Crystallographic Data Centre
#                                CCDC 
#
#######################################################################
#
# If this CIF has been generated from an entry in the Cambridge 
# Structural Database, then it will include bibliographic, chemical, 
# crystal, experimental, refinement or atomic coordinate data resulting 
# from the CCDC's data processing and validation procedures.
#
#######################################################################

data_XOBFAY
_chemical_formula_moiety         'C16 H14 N2 O3'
_chemical_name_systematic        
'4-[4-(4-methoxyphenyl)-1H-pyrazol-5-yl]benzene-1,3-diol unknown solvate'
_symmetry_cell_setting           monoclinic
_symmetry_space_group_name_H-M   'P 21/c'
_symmetry_Int_Tables_number      14
_space_group_name_Hall           '-P 2ybc'
loop_
_symmetry_equiv_pos_site_id
_symmetry_equiv_pos_as_xyz
1 x,y,z
2 -x,1/2+y,1/2-z
3 -x,-y,-z
4 x,1/2-y,1/2+z
_cell_length_a                   9.5436(5)
_cell_length_b                   9.5648(5)
_cell_length_c                   32.9328(14)
_cell_angle_alpha                90
_cell_angle_beta                 91.034(4)
_cell_angle_gamma                90
_cell_volume                     3005.7
_exptl_crystal_colour            colorless
_exptl_crystal_description       prism
_cell_formula_units_Z            8
loop_
_atom_site_label
_atom_site_type_symbol
_atom_site_fract_x
_atom_site_fract_y
_atom_site_fract_z
O1 O 0.1260(2) 0.2186(3) 0.08814(7)
O2 O -0.3558(3) 0.0991(4) 0.08020(9)
H1 H -0.326533 0.053037 0.061149
O3 O -0.2733(3) 0.3152(3) 0.34326(8)
C1 C -0.4802(3) 0.3158(4) 0.18209(10)
C2 C -0.6215(3) 0.3387(4) 0.17261(11)
H2 H -0.686597 0.368327 0.191444
N1 N -0.6531(3) 0.3138(4) 0.13387(9)
N2 N -0.5302(3) 0.2747(4) 0.11829(9)
H3 H -0.521006 0.252114 0.093198
C3 C -0.4225(3) 0.2737(4) 0.14534(10)
C4 C -0.2786(3) 0.2483(4) 0.13284(10)
C5 C -0.2473(3) 0.1648(4) 0.09916(10)
C6 C -0.1116(3) 0.1538(4) 0.08567(10)
H4 H -0.092950 0.098487 0.063180
C7 C -0.0035(3) 0.2238(4) 0.10509(10)
C8 C -0.0306(3) 0.3005(4) 0.13999(10)
H5 H 0.042220 0.343089 0.154461
C9 C -0.1663(3) 0.3125(4) 0.15283(10)
H6 H -0.183652 0.365748 0.175832
C10 C -0.4165(3) 0.3235(3) 0.22323(10)
C11 C -0.3275(3) 0.2187(4) 0.23858(10)
H7 H -0.298411 0.147104 0.221575
C12 C -0.2833(3) 0.2206(4) 0.27810(11)
H8 H -0.226143 0.148749 0.287763
C13 C -0.3213(4) 0.3270(4) 0.30434(11)
C14 C -0.4061(4) 0.4336(4) 0.28936(11)
H9 H -0.431891 0.507040 0.306154
C15 C -0.4518(4) 0.4301(4) 0.24954(11)
H10 H -0.508639 0.502166 0.239906
C16 C -0.2995(8) 0.4264(7) 0.37022(16)
H11 H -0.260139 0.404649 0.396500
H12 H -0.257355 0.510375 0.360149
H13 H -0.398751 0.439802 0.372350
H14 H 0.195(7) 0.257(8) 0.105(2)
O4 O -0.3188(2) 0.1068(3) 0.48130(7)
H15 H -0.374120 0.085007 0.463027
O5 O 0.1623(2) 0.2058(3) 0.50598(7)
H16 H 0.131782 0.215476 0.528920
O6 O 0.0958(3) 0.4167(3) 0.24341(8)
C17 C 0.2969(3) 0.1756(4) 0.38914(9)
C18 C 0.4377(3) 0.1365(5) 0.39465(10)
H17 H 0.505989 0.149817 0.375241
N3 N 0.4624(3) 0.0785(4) 0.43068(9)
N4 N 0.3372(3) 0.0825(4) 0.44913(8)
H18 H 0.324390 0.052519 0.473402
C19 C 0.2336(3) 0.1386(4) 0.42548(9)
C20 C 0.0887(3) 0.1414(4) 0.43944(9)
C21 C 0.0550(3) 0.1698(4) 0.47983(9)
C22 C -0.0814(3) 0.1594(4) 0.49278(9)
H19 H -0.102042 0.177868 0.519754
C23 C -0.1876(3) 0.1217(4) 0.46578(10)
C24 C -0.1583(3) 0.0978(4) 0.42559(10)
H20 H -0.229776 0.074958 0.407206
C25 C -0.0225(3) 0.1079(4) 0.41296(10)
H21 H -0.003711 0.091910 0.385739
C26 C 0.2382(3) 0.2403(4) 0.35224(10)
C27 C 0.1352(4) 0.3410(4) 0.35247(11)
H22 H 0.098392 0.368200 0.377202
C28 C 0.0845(4) 0.4032(4) 0.31726(12)
H23 H 0.014756 0.470944 0.318419
C29 C 0.1387(4) 0.3635(4) 0.28012(10)
C30 C 0.2407(4) 0.2625(4) 0.27929(10)
H24 H 0.276897 0.234891 0.254512
C31 C 0.2900(3) 0.2017(4) 0.31435(10)
H25 H 0.359263 0.133554 0.312989
C32 C -0.0169(4) 0.5138(5) 0.24296(14)
H26 H -0.036423 0.542816 0.215540
H27 H -0.098595 0.470294 0.253916
H28 H 0.008275 0.593744 0.259126
loop_
_geom_bond_atom_site_label_1
_geom_bond_atom_site_label_2
_geom_bond_site_symmetry_1
_geom_bond_site_symmetry_2
O1 C7 1_555 1_555
O2 H1 1_555 1_555
O3 C13 1_555 1_555
C1 C2 1_555 1_555
C2 H2 1_555 1_555
N1 C2 1_555 1_555
N2 N1 1_555 1_555
H3 N2 1_555 1_555
C3 C1 1_555 1_555
C4 C3 1_555 1_555
C5 O2 1_555 1_555
C6 C5 1_555 1_555
H4 C6 1_555 1_555
C7 C6 1_555 1_555
C8 C7 1_555 1_555
H5 C8 1_555 1_555
C9 C4 1_555 1_555
H6 C9 1_555 1_555
C10 C1 1_555 1_555
C11 C10 1_555 1_555
H7 C11 1_555 1_555
C12 C11 1_555 1_555
H8 C12 1_555 1_555
C13 C12 1_555 1_555
C14 C13 1_555 1_555
H9 C14 1_555 1_555
C15 C10 1_555 1_555
H10 C15 1_555 1_555
C16 O3 1_555 1_555
H11 C16 1_555 1_555
H12 C16 1_555 1_555
H13 C16 1_555 1_555
H14 O1 1_555 1_555
O4 H15 1_555 1_555
O5 H16 1_555 1_555
O6 C29 1_555 1_555
C17 C18 1_555 1_555
C18 H17 1_555 1_555
N3 C18 1_555 1_555
N4 N3 1_555 1_555
H18 N4 1_555 1_555
C19 C17 1_555 1_555
C20 C19 1_555 1_555
C21 O5 1_555 1_555
C22 C21 1_555 1_555
H19 C22 1_555 1_555
C23 O4 1_555 1_555
C24 C23 1_555 1_555
H20 C24 1_555 1_555
C25 C20 1_555 1_555
H21 C25 1_555 1_555
C26 C17 1_555 1_555
C27 C26 1_555 1_555
H22 C27 1_555 1_555
C28 C27 1_555 1_555
H23 C28 1_555 1_555
C29 C28 1_555 1_555
C30 C29 1_555 1_555
H24 C30 1_555 1_555
C31 C26 1_555 1_555
H25 C31 1_555 1_555
C32 O6 1_555 1_555
H26 C32 1_555 1_555
H27 C32 1_555 1_555
H28 C32 1_555 1_555
N2 C3 1_555 1_555
C4 C5 1_555 1_555
C8 C9 1_555 1_555
C14 C15 1_555 1_555
N4 C19 1_555 1_555
C20 C21 1_555 1_555
C22 C23 1_555 1_555
C24 C25 1_555 1_555
C30 C31 1_555 1_555

#END
