
#######################################################################
#
#                 Cambridge Crystallographic Data Centre
#                                CCDC 
#
#######################################################################
#
# If this CIF has been generated from an entry in the Cambridge 
# Structural Database, then it will include bibliographic, chemical, 
# crystal, experimental, refinement or atomic coordinate data resulting 
# from the CCDC's data processing and validation procedures.
#
#######################################################################

data_XOBVER
_chemical_formula_moiety         'C23 H15 B1 F18 N1 O2 1-,C4 H12 N1 1+'
_chemical_name_systematic        
'N,N-diethylammonium (diethylcarbamato)(hydrido)bis(2,4,6-tris(trifluoromethyl)phenyl)borate'
_symmetry_cell_setting           triclinic
_symmetry_space_group_name_H-M   'P -1'
_symmetry_Int_Tables_number      2
_space_group_name_Hall           '-P 1'
loop_
_symmetry_equiv_pos_site_id
_symmetry_equiv_pos_as_xyz
1 x,y,z
2 -x,-y,-z
_cell_length_a                   10.1821(10)
_cell_length_b                   12.1322(12)
_cell_length_c                   14.1105(15)
_cell_angle_alpha                68.540(2)
_cell_angle_beta                 88.850(2)
_cell_angle_gamma                85.378(2)
_cell_volume                     1616.89
_exptl_crystal_colour            colorless
_exptl_crystal_description       block
_cell_formula_units_Z            2
loop_
_atom_site_label
_atom_site_type_symbol
_atom_site_fract_x
_atom_site_fract_y
_atom_site_fract_z
B1 B 0.7719(3) 0.2452(2) 0.1995(2)
C1 C 0.8853(2) 0.1316(2) 0.22350(18)
C2 C 0.8838(2) 0.0642(2) 0.15977(19)
C3 C 0.9514(2) -0.0471(2) 0.1833(2)
H1 H 0.9436 -0.0905 0.1400
C4 C 1.0295(2) -0.0939(2) 0.26920(19)
C5 C 1.0485(2) -0.0252(2) 0.32594(19)
H2 H 1.1092 -0.0534 0.3815
C6 C 0.9798(2) 0.0851(2) 0.30262(18)
C7 C 0.8244(3) 0.1151(2) 0.0536(2)
C8 C 1.1022(3) -0.2133(3) 0.2972(2)
C9 C 1.0208(2) 0.1538(2) 0.36674(19)
C10 C 0.7686(2) 0.3325(2) 0.26592(18)
C11 C 0.8237(2) 0.4436(2) 0.22554(18)
C12 C 0.8138(2) 0.5270(2) 0.2727(2)
H3 H 0.8542 0.5997 0.2434
C13 C 0.7447(3) 0.5028(2) 0.3624(2)
C14 C 0.6908(3) 0.3952(3) 0.4060(2)
H4 H 0.6442 0.3781 0.4681
C15 C 0.7038(2) 0.3117(2) 0.35999(19)
C16 C 0.8937(2) 0.4829(2) 0.12520(19)
C17 C 0.7314(4) 0.5914(3) 0.4140(3)
C18 C 0.6418(3) 0.1976(3) 0.4195(2)
C19 C 0.5341(2) 0.2373(2) 0.16696(18)
C20 C 0.4424(3) 0.0479(2) 0.2663(2)
H5 H 0.3530 0.0249 0.2903
H6 H 0.4936 0.0475 0.3253
C21 C 0.5080(4) -0.0435(3) 0.2268(3)
H7 H 0.4621 -0.0392 0.1650
H8 H 0.5039 -0.1232 0.2789
H9 H 0.6003 -0.0273 0.2112
C22 C 0.3016(2) 0.2174(3) 0.1441(2)
H10 H 0.3058 0.3026 0.1020
H11 H 0.2385 0.2119 0.1997
C23 C 0.2501(3) 0.1554(3) 0.0790(3)
H12 H 0.3132 0.1580 0.0251
H13 H 0.1654 0.1955 0.0484
H14 H 0.2381 0.0725 0.1213
F1 F 0.69743(16) 0.15363(16) 0.04534(13)
F2 F 0.8884(2) 0.20766(18) -0.00593(13)
F3 F 0.8358(2) 0.03747(17) 0.00614(14)
F4 F 1.0565(2) -0.27870(16) 0.24882(17)
F5 F 1.2284(2) -0.2065(2) 0.2743(3)
F6 F 1.0980(3) -0.27683(19) 0.39483(17)
F7 F 1.04341(15) 0.26608(13) 0.30972(12)
F8 F 0.93392(17) 0.15960(15) 0.43724(12)
F9 F 1.13418(17) 0.10631(15) 0.41696(14)
F10 F 0.97975(14) 0.40038(13) 0.11309(11)
F11 F 0.80929(14) 0.51789(14) 0.04530(11)
F12 F 0.96280(16) 0.57678(14) 0.11162(13)
F13 F 0.7472(12) 0.7004(6) 0.3541(5)
F14 F 0.6245(15) 0.5911(16) 0.4635(15)
F15 F 0.8289(14) 0.5680(7) 0.4858(9)
F16 F 0.69676(16) 0.10013(14) 0.40910(12)
F17 F 0.6465(2) 0.17623(17) 0.52035(13)
F18 F 0.51261(16) 0.20587(16) 0.39583(15)
N1 N 0.4317(2) 0.16910(19) 0.18884(17)
O1 O 0.64145(16) 0.18584(14) 0.21764(13)
O2 O 0.52458(16) 0.34159(15) 0.10287(13)
H15 H 0.781(2) 0.304(2) 0.1176(18)
C24 C 0.5173(3) 0.5864(2) 0.1438(2)
H16 H 0.5948 0.5861 0.1003
H17 H 0.5379 0.5261 0.2124
C25 C 0.4961(3) 0.7056(3) 0.1522(3)
H18 H 0.4737 0.7658 0.0850
H19 H 0.5768 0.7243 0.1779
H20 H 0.4239 0.7049 0.1993
C26 C 0.2754(3) 0.5481(3) 0.1565(2)
H21 H 0.2064 0.5244 0.1209
H22 H 0.2478 0.6287 0.1555
C27 C 0.2866(3) 0.4630(3) 0.2649(2)
H23 H 0.3227 0.3849 0.2666
H24 H 0.1992 0.4559 0.2959
H25 H 0.3452 0.4924 0.3029
N2 N 0.4026(2) 0.55156(18) 0.10081(16)
H26 H 0.4238 0.4775 0.0984
H27 H 0.3893 0.6038 0.0348
F19? F 0.754(5) 0.555(2) 0.5035(11)
F20? F 0.776(2) 0.6920(15) 0.3590(15)
F21? F 0.5917(17) 0.6263(15) 0.410(2)
loop_
_geom_bond_atom_site_label_1
_geom_bond_atom_site_label_2
_geom_bond_site_symmetry_1
_geom_bond_site_symmetry_2
B1 C1 1_555 1_555
C1 C2 1_555 1_555
C2 C3 1_555 1_555
C3 H1 1_555 1_555
C4 C3 1_555 1_555
C5 C4 1_555 1_555
H2 C5 1_555 1_555
C6 C1 1_555 1_555
C7 C2 1_555 1_555
C8 C4 1_555 1_555
C9 C6 1_555 1_555
C10 B1 1_555 1_555
C11 C10 1_555 1_555
C12 C11 1_555 1_555
H3 C12 1_555 1_555
C13 C12 1_555 1_555
C14 C13 1_555 1_555
H4 C14 1_555 1_555
C15 C10 1_555 1_555
C16 C11 1_555 1_555
C17 C13 1_555 1_555
C18 C15 1_555 1_555
C19 N1 1_555 1_555
C20 H5 1_555 1_555
H6 C20 1_555 1_555
C21 C20 1_555 1_555
H7 C21 1_555 1_555
H8 C21 1_555 1_555
H9 C21 1_555 1_555
C22 H10 1_555 1_555
H11 C22 1_555 1_555
C23 C22 1_555 1_555
H12 C23 1_555 1_555
H13 C23 1_555 1_555
H14 C23 1_555 1_555
F1 C7 1_555 1_555
F2 C7 1_555 1_555
F3 C7 1_555 1_555
F4 C8 1_555 1_555
F5 C8 1_555 1_555
F6 C8 1_555 1_555
F7 C9 1_555 1_555
F8 C9 1_555 1_555
F9 C9 1_555 1_555
F10 C16 1_555 1_555
F11 C16 1_555 1_555
F12 C16 1_555 1_555
F13 C17 1_555 1_555
F14 C17 1_555 1_555
F15 C17 1_555 1_555
F16 C18 1_555 1_555
F17 C18 1_555 1_555
F18 C18 1_555 1_555
N1 C20 1_555 1_555
O1 B1 1_555 1_555
O2 C19 1_555 1_555
H15 B1 1_555 1_555
C24 H16 1_555 1_555
H17 C24 1_555 1_555
C25 C24 1_555 1_555
H18 C25 1_555 1_555
H19 C25 1_555 1_555
H20 C25 1_555 1_555
C26 H21 1_555 1_555
H22 C26 1_555 1_555
C27 C26 1_555 1_555
H23 C27 1_555 1_555
H24 C27 1_555 1_555
H25 C27 1_555 1_555
N2 C24 1_555 1_555
H26 N2 1_555 1_555
H27 N2 1_555 1_555
C5 C6 1_555 1_555
C14 C15 1_555 1_555
C19 O1 1_555 1_555
C22 N1 1_555 1_555
C26 N2 1_555 1_555

#END
