
#######################################################################
#
#                 Cambridge Crystallographic Data Centre
#                                CCDC 
#
#######################################################################
#
# If this CIF has been generated from an entry in the Cambridge 
# Structural Database, then it will include bibliographic, chemical, 
# crystal, experimental, refinement or atomic coordinate data resulting 
# from the CCDC's data processing and validation procedures.
#
#######################################################################

data_XOBZAQ
_chemical_formula_moiety         'C25 H34 N2 O4'
_chemical_name_systematic        
't-butyl ((4-methylphenyl)(8,9,9-trimethyl-2-oxo-3,5,6,7,8,8a-hexahydro-2H-5,8-methano-1,4-benzoxazin-3-yl)methyl)carbamate'
_symmetry_cell_setting           orthorhombic
_symmetry_space_group_name_H-M   'P 21 21 21'
_symmetry_Int_Tables_number      19
_space_group_name_Hall           'P 2ac 2ab'
loop_
_symmetry_equiv_pos_site_id
_symmetry_equiv_pos_as_xyz
1 x,y,z
2 1/2-x,-y,1/2+z
3 -x,1/2+y,1/2-z
4 1/2+x,1/2-y,-z
_cell_length_a                   10.0109(7)
_cell_length_b                   12.1078(9)
_cell_length_c                   20.4358(15)
_cell_angle_alpha                90
_cell_angle_beta                 90
_cell_angle_gamma                90
_cell_volume                     2477.02
_exptl_crystal_colour            colorless
_exptl_crystal_description       block
_cell_formula_units_Z            4
loop_
_atom_site_label
_atom_site_type_symbol
_atom_site_fract_x
_atom_site_fract_y
_atom_site_fract_z
O1 O 0.42551(14) 0.33154(10) 0.07678(5)
C1 C 0.09665(17) 0.34279(15) 0.14279(7)
N1 N 0.35390(16) 0.43928(12) 0.19524(7)
O2 O -0.10474(15) 0.57507(12) 0.13368(7)
C2 C 0.09895(17) 0.28994(15) 0.20325(8)
H1 H 0.1168 0.3307 0.2408
C3 C 0.40475(17) 0.34378(13) 0.19500(8)
O3 O -0.06670(14) 0.61409(12) 0.02659(6)
O4 O 0.33765(16) 0.46662(12) 0.01986(6)
C4 C 0.13871(18) 0.46173(14) 0.13714(8)
H2 H 0.1086 0.4997 0.1768
C5 C 0.35127(19) 0.42316(16) 0.07233(9)
C6 C 0.43879(19) 0.17945(15) 0.26324(9)
H3 H 0.4844 0.1491 0.3011
H4 H 0.3437 0.1827 0.2722
C7 C 0.41141(18) 0.26798(13) 0.13669(7)
H5 H 0.3299 0.2233 0.1345
N2 N 0.08244(18) 0.51989(13) 0.08162(7)
H6 H 0.1265 0.5223 0.0455
C8 C 0.29248(19) 0.47340(14) 0.13376(8)
H7 H 0.3096 0.5529 0.1303
C9 C 0.07528(19) 0.17874(17) 0.20832(9)
H8 H 0.0791 0.1452 0.2492
C10 C 0.4671(2) 0.11087(15) 0.20199(9)
H9 H 0.3852 0.0807 0.1840
H10 H 0.5278 0.0506 0.2117
C11 C -0.0370(2) 0.57013(15) 0.08532(9)
C12 C 0.0641(2) 0.27966(17) 0.08879(9)
H11 H 0.0593 0.3130 0.0479
C13 C 0.4938(2) 0.29390(14) 0.24577(9)
H12 H 0.5133 0.3417 0.2833
C14 C 0.53128(19) 0.19331(15) 0.15412(8)
C15 C 0.0387(2) 0.1682(2) 0.09445(11)
H13 H 0.0162 0.1278 0.0573
C16 C 0.0460(2) 0.11562(18) 0.15412(11)
C17 C 0.61502(18) 0.26628(16) 0.20210(10)
C18 C -0.1968(2) 0.66655(18) 0.01458(11)
C19 C 0.7246(2) 0.2040(2) 0.23849(12)
H14 H 0.7909 0.1793 0.2079
H15 H 0.6865 0.1414 0.2605
H16 H 0.7653 0.2521 0.2701
C20 C 0.6792(3) 0.3676(2) 0.17058(14)
H17 H 0.7168 0.4139 0.2040
H18 H 0.6127 0.4083 0.1468
H19 H 0.7485 0.3445 0.1411
C21 C -0.1855(3) 0.6984(3) -0.05689(13)
H20 H -0.1157 0.7521 -0.0621
H21 H -0.2687 0.7292 -0.0715
H22 H -0.1648 0.6340 -0.0824
C22 C 0.6020(3) 0.1415(2) 0.09664(11)
H23 H 0.5391 0.0998 0.0712
H24 H 0.6712 0.0932 0.1122
H25 H 0.6408 0.1983 0.0700
C23 C -0.2115(4) 0.7675(2) 0.05618(16)
H26 H -0.2157 0.7464 0.1014
H27 H -0.2920 0.8057 0.0444
H28 H -0.1361 0.8152 0.0494
C24 C 0.0183(3) -0.0068(2) 0.15993(16)
H29 H 0.0562 -0.0342 0.1999
H30 H 0.0576 -0.0448 0.1234
H31 H -0.0764 -0.0191 0.1601
C25 C -0.3063(3) 0.5845(3) 0.02564(17)
H32 H -0.2887 0.5190 0.0006
H33 H -0.3900 0.6158 0.0121
H34 H -0.3106 0.5661 0.0713
loop_
_geom_bond_atom_site_label_1
_geom_bond_atom_site_label_2
_geom_bond_site_symmetry_1
_geom_bond_site_symmetry_2
O1 C5 1_555 1_555
C1 C2 1_555 1_555
N1 C3 1_555 1_555
O2 C11 1_555 1_555
C2 H1 1_555 1_555
C3 C7 1_555 1_555
O3 C11 1_555 1_555
O4 C5 1_555 1_555
C4 C1 1_555 1_555
H2 C4 1_555 1_555
C5 C8 1_555 1_555
C6 H3 1_555 1_555
H4 C6 1_555 1_555
C7 O1 1_555 1_555
H5 C7 1_555 1_555
N2 C4 1_555 1_555
H6 N2 1_555 1_555
C8 N1 1_555 1_555
H7 C8 1_555 1_555
C9 C2 1_555 1_555
H8 C9 1_555 1_555
C10 C6 1_555 1_555
H9 C10 1_555 1_555
H10 C10 1_555 1_555
C11 N2 1_555 1_555
C12 C1 1_555 1_555
H11 C12 1_555 1_555
C13 C3 1_555 1_555
H12 C13 1_555 1_555
C14 C7 1_555 1_555
C15 C12 1_555 1_555
H13 C15 1_555 1_555
C16 C9 1_555 1_555
C17 C13 1_555 1_555
C18 O3 1_555 1_555
C19 C17 1_555 1_555
H14 C19 1_555 1_555
H15 C19 1_555 1_555
H16 C19 1_555 1_555
C20 C17 1_555 1_555
H17 C20 1_555 1_555
H18 C20 1_555 1_555
H19 C20 1_555 1_555
C21 C18 1_555 1_555
H20 C21 1_555 1_555
H21 C21 1_555 1_555
H22 C21 1_555 1_555
C22 C14 1_555 1_555
H23 C22 1_555 1_555
H24 C22 1_555 1_555
H25 C22 1_555 1_555
C23 C18 1_555 1_555
H26 C23 1_555 1_555
H27 C23 1_555 1_555
H28 C23 1_555 1_555
C24 C16 1_555 1_555
H29 C24 1_555 1_555
H30 C24 1_555 1_555
H31 C24 1_555 1_555
C25 C18 1_555 1_555
H32 C25 1_555 1_555
H33 C25 1_555 1_555
H34 C25 1_555 1_555
C4 C8 1_555 1_555
C6 C13 1_555 1_555
C10 C14 1_555 1_555
C14 C17 1_555 1_555
C15 C16 1_555 1_555

#END
