
#######################################################################
#
#                 Cambridge Crystallographic Data Centre
#                                CCDC 
#
#######################################################################
#
# If this CIF has been generated from an entry in the Cambridge 
# Structural Database, then it will include bibliographic, chemical, 
# crystal, experimental, refinement or atomic coordinate data resulting 
# from the CCDC's data processing and validation procedures.
#
#######################################################################

data_XOCHII
_chemical_formula_moiety         'C28 H29 N3 O2 Se1'
_chemical_name_systematic        
2-(6'-Methoxycinchonan-9-yl)-7-methyl-1,2-benzoselenazol-3(2H)-one
_symmetry_cell_setting           orthorhombic
_symmetry_space_group_name_H-M   'P 21 21 21'
_symmetry_Int_Tables_number      19
_space_group_name_Hall           'P 2ac 2ab'
loop_
_symmetry_equiv_pos_site_id
_symmetry_equiv_pos_as_xyz
1 x,y,z
2 1/2+x,1/2-y,-z
3 -x,1/2+y,1/2-z
4 1/2-x,-y,1/2+z
_cell_length_a                   9.2900(5)
_cell_length_b                   16.2681(10)
_cell_length_c                   16.8894(10)
_cell_angle_alpha                90
_cell_angle_beta                 90
_cell_angle_gamma                90
_cell_volume                     2552.51
_exptl_crystal_colour            'pale yellow'
_exptl_crystal_description       irregular
_cell_formula_units_Z            4
loop_
_atom_site_label
_atom_site_type_symbol
_atom_site_fract_x
_atom_site_fract_y
_atom_site_fract_z
Se1 Se 0.08690(3) 1.103210(18) 0.406845(18)
O1 O -0.1251(3) 0.74034(17) 0.51963(17)
O2 O 0.1645(3) 0.94965(14) 0.58101(13)
N1 N 0.0294(3) 0.8399(2) 0.22152(19)
N2 N 0.4574(3) 1.04141(18) 0.46472(18)
N3 N 0.1570(3) 1.01152(14) 0.45953(14)
C1 C 0.2539(3) 0.95434(17) 0.41882(19)
H1 H 0.2765 0.9104 0.4565
C2 C 0.1763(3) 0.91464(18) 0.34966(18)
C3 C 0.1994(4) 0.9363(2) 0.2729(2)
H2 H 0.2669 0.9767 0.2613
C4 C 0.1233(4) 0.8988(3) 0.2111(2)
H3 H 0.1406 0.9168 0.1597
C5 C 0.0023(4) 0.8176(2) 0.2967(2)
C6 C 0.0704(3) 0.85320(18) 0.36362(19)
C7 C 0.0283(3) 0.82648(19) 0.4401(2)
H4 H 0.0713 0.8492 0.4848
C8 C -0.0751(4) 0.7675(2) 0.4484(2)
C9 C -0.1358(4) 0.7295(2) 0.3826(3)
H5 H -0.2016 0.6870 0.3896
C10 C -0.1005(4) 0.7536(2) 0.3090(3)
H6 H -0.1433 0.7283 0.2656
C11 C 0.3966(3) 0.99541(18) 0.39670(17)
H7 H 0.3764 1.0353 0.3546
C12 C 0.5065(3) 0.9339(2) 0.3642(2)
H8 H 0.4797 0.8784 0.3792
H9 H 0.5095 0.9369 0.3069
C13 C 0.6542(4) 0.9554(2) 0.3987(3)
H10 H 0.7286 0.9218 0.3734
C14 C 0.6495(5) 0.9368(3) 0.4870(3)
H11 H 0.7386 0.9538 0.5120
H12 H 0.6368 0.8783 0.4957
C15 C 0.5218(4) 0.9848(3) 0.5220(2)
H13 H 0.4491 0.9462 0.5398
H14 H 0.5544 1.0157 0.5677
C16 C 0.5713(4) 1.0945(3) 0.4324(2)
H15 H 0.6173 1.1238 0.4756
H16 H 0.5281 1.1350 0.3975
C17 C 0.6870(4) 1.0460(3) 0.3860(3)
H17 H 0.7815 1.0581 0.4089
C18 C 0.6861(9) 1.0749(6) 0.2992(5)
H18 H 0.6018 1.1007 0.2830
C19 C 0.7847(10) 1.0688(7) 0.2449(5)
H19 H 0.8721 1.0437 0.2565
H20 H 0.7678 1.0896 0.1944
C20 C -0.0852(5) 0.7840(2) 0.5884(2)
H21 H 0.0165 0.7783 0.5970
H22 H -0.1363 0.7623 0.6332
H23 H -0.1086 0.8411 0.5820
C21 C 0.1225(3) 1.0056(2) 0.53742(18)
C22 C 0.0245(3) 1.07205(19) 0.56038(17)
C23 C -0.0057(3) 1.12913(18) 0.50244(18)
C24 C -0.0994(4) 1.19564(18) 0.51528(19)
C25 C -0.1601(4) 1.1991(2) 0.5898(2)
H24 H -0.2222 1.2423 0.6014
C26 C -0.1332(5) 1.1419(3) 0.6475(2)
H25 H -0.1780 1.1465 0.6966
C27 C -0.0407(4) 1.0781(2) 0.6333(2)
H26 H -0.0221 1.0394 0.6724
C28 C -0.1312(4) 1.2557(2) 0.4511(2)
H27 H -0.1599 1.3071 0.4741
H28 H -0.2075 1.2349 0.4185
H29 H -0.0465 1.2638 0.4195
C29? C 0.741(3) 1.0517(19) 0.2999(11)
H30? H 0.8056 1.0191 0.2723
C30? C 0.666(3) 1.1173(19) 0.2767(17)
H31? H 0.6042 1.1435 0.3120
H32? H 0.6753 1.1369 0.2252
loop_
_geom_bond_atom_site_label_1
_geom_bond_atom_site_label_2
_geom_bond_site_symmetry_1
_geom_bond_site_symmetry_2
Se1 N3 1_555 1_555
O1 C8 1_555 1_555
O2 C21 1_555 1_555
N1 C4 1_555 1_555
N2 C11 1_555 1_555
N3 C1 1_555 1_555
C1 H1 1_555 1_555
C2 C1 1_555 1_555
C3 C2 1_555 1_555
H2 C3 1_555 1_555
C4 C3 1_555 1_555
H3 C4 1_555 1_555
C5 N1 1_555 1_555
C6 C2 1_555 1_555
C7 C6 1_555 1_555
H4 C7 1_555 1_555
C8 C7 1_555 1_555
C9 C8 1_555 1_555
H5 C9 1_555 1_555
C10 C5 1_555 1_555
H6 C10 1_555 1_555
C11 C1 1_555 1_555
H7 C11 1_555 1_555
C12 C11 1_555 1_555
H8 C12 1_555 1_555
H9 C12 1_555 1_555
C13 C12 1_555 1_555
H10 C13 1_555 1_555
C14 C13 1_555 1_555
H11 C14 1_555 1_555
H12 C14 1_555 1_555
C15 N2 1_555 1_555
H13 C15 1_555 1_555
H14 C15 1_555 1_555
C16 N2 1_555 1_555
H15 C16 1_555 1_555
H16 C16 1_555 1_555
C17 C13 1_555 1_555
H17 C17 1_555 1_555
C18 C17 1_555 1_555
H18 C18 1_555 1_555
C19 C18 1_555 1_555
H19 C19 1_555 1_555
H20 C19 1_555 1_555
C20 O1 1_555 1_555
H21 C20 1_555 1_555
H22 C20 1_555 1_555
H23 C20 1_555 1_555
C21 N3 1_555 1_555
C22 C21 1_555 1_555
C23 Se1 1_555 1_555
C24 C23 1_555 1_555
C25 C24 1_555 1_555
H24 C25 1_555 1_555
C26 C25 1_555 1_555
H25 C26 1_555 1_555
C27 C22 1_555 1_555
H26 C27 1_555 1_555
C28 C24 1_555 1_555
H27 C28 1_555 1_555
H28 C28 1_555 1_555
H29 C28 1_555 1_555
C5 C6 1_555 1_555
C9 C10 1_555 1_555
C14 C15 1_555 1_555
C16 C17 1_555 1_555
C22 C23 1_555 1_555
C26 C27 1_555 1_555

#END
