
#######################################################################
#
#                 Cambridge Crystallographic Data Centre
#                                CCDC 
#
#######################################################################
#
# If this CIF has been generated from an entry in the Cambridge 
# Structural Database, then it will include bibliographic, chemical, 
# crystal, experimental, refinement or atomic coordinate data resulting 
# from the CCDC's data processing and validation procedures.
#
#######################################################################

data_XOCHAA
_chemical_formula_moiety         'C27 H27 N3 O2 Se1,C2 H6 O1,H2 O1'
_chemical_name_systematic        
"2-(6'-Methoxycinchonan-9-yl)-1,2-benzoselenazol-3(2H)-one ethanol solvate monohydrate"
_symmetry_cell_setting           monoclinic
_symmetry_space_group_name_H-M   'P 21'
_symmetry_Int_Tables_number      4
_space_group_name_Hall           'P 2yb'
loop_
_symmetry_equiv_pos_site_id
_symmetry_equiv_pos_as_xyz
1 x,y,z
2 -x,1/2+y,-z
_cell_length_a                   9.5877(15)
_cell_length_b                   15.441(2)
_cell_length_c                   10.1760(17)
_cell_angle_alpha                90
_cell_angle_beta                 112.072(9)
_cell_angle_gamma                90
_cell_volume                     1396.09
_exptl_crystal_colour            'pale yellow'
_exptl_crystal_description       irregular
_cell_formula_units_Z            2
loop_
_atom_site_label
_atom_site_type_symbol
_atom_site_fract_x
_atom_site_fract_y
_atom_site_fract_z
Se1 Se 1.03158(5) -0.03756(4) 0.85090(5)
O1 O 0.5537(4) 0.0212(2) 1.1966(4)
O2 O 0.6297(4) 0.0565(2) 0.7881(4)
N1 N 1.1666(5) 0.0613(3) 1.4006(4)
N2 N 0.9246(5) 0.1780(2) 0.7325(4)
N3 N 0.8822(4) 0.0300(2) 0.8753(4)
C1 C 0.9248(5) 0.1133(3) 0.9536(5)
H1 H 0.8314 0.1431 0.9445
C2 C 1.0104(6) 0.0953(3) 1.1107(6)
C3 C 1.1620(6) 0.0997(3) 1.1715(6)
H2 H 1.2174 0.1145 1.1170
C4 C 1.2376(6) 0.0816(3) 1.3185(6)
H3 H 1.3421 0.0845 1.3573
C5 C 1.0134(6) 0.0559(3) 1.3428(5)
C6 C 0.9298(6) 0.0687(3) 1.1972(5)
C7 C 0.7736(5) 0.0575(3) 1.1461(5)
H4 H 0.7170 0.0650 1.0501
C8 C 0.7038(6) 0.0357(3) 1.2361(6)
C9 C 0.7876(7) 0.0250(3) 1.3810(6)
H5 H 0.7390 0.0114 1.4420
C10 C 0.9400(7) 0.0344(3) 1.4334(5)
H6 H 0.9952 0.0265 1.5296
C11 C 1.0079(5) 0.1712(3) 0.8868(5)
H7 H 1.1053 0.1442 0.9024
C12 C 1.0388(8) 0.2623(3) 0.9552(6)
H8 H 0.9698 0.2743 1.0024
H9 H 1.1409 0.2656 1.0248
C13 C 1.0165(10) 0.3277(4) 0.8367(7)
H10 H 1.0511 0.3849 0.8775
C14 C 0.8487(10) 0.3304(4) 0.7500(8)
H11 H 0.8281 0.3679 0.6684
H12 H 0.7952 0.3526 0.8070
C15 C 0.7968(7) 0.2364(4) 0.7010(6)
H13 H 0.7322 0.2160 0.7484
H14 H 0.7388 0.2361 0.5997
C16 C 1.0287(6) 0.2149(3) 0.6720(5)
H15 H 0.9744 0.2250 0.5715
H16 H 1.1076 0.1731 0.6819
C17 C 1.1011(8) 0.3006(4) 0.7433(6)
H17 H 1.0834 0.3444 0.6690
C18 C 1.2656(11) 0.2936(7) 0.8227(10)
H18 H 1.3048 0.3412 0.8808
C19 C 1.3628(12) 0.2393(8) 0.8300(10)
H19 H 1.3364 0.1889 0.7763
H20 H 1.4625 0.2489 0.8891
C20 C 0.4661(6) 0.0192(4) 1.0507(6)
H21 H 0.4608 0.0764 1.0119
H22 H 0.3665 -0.0006 1.0363
H23 H 0.5112 -0.0195 1.0042
C21 C 0.7397(6) 0.0138(3) 0.7895(5)
C22 C 0.7333(6) -0.0630(3) 0.7014(5)
C23 C 0.8719(6) -0.0982(3) 0.7204(5)
C24 C 0.8809(7) -0.1724(3) 0.6420(6)
H24 H 0.9731 -0.1975 0.6545
C25 C 0.7501(9) -0.2055(4) 0.5479(7)
H25 H 0.7539 -0.2546 0.4963
C26 C 0.6127(8) -0.1689(4) 0.5263(7)
H26 H 0.5259 -0.1925 0.4592
C27 C 0.6028(7) -0.0977(4) 0.6033(6)
H27 H 0.5097 -0.0733 0.5896
O3 O 1.2195(6) -0.1293(4) 0.7693(7)
C30 C 1.3180(13) -0.1946(8) 0.8346(13)
H31 H 1.2656 -0.2355 0.8720
H32 H 1.3989 -0.1698 0.9150
C31 C 1.3839(19) -0.2417(11) 0.7532(19)
H33 H 1.3060 -0.2668 0.6725
H34 H 1.4463 -0.2869 0.8104
H35 H 1.4439 -0.2035 0.7218
H36 H 1.287(6) -0.104(4) 0.769(6)
O5 O 0.6738(6) 0.5171(3) 1.3076(5)
H42 H 0.578(3) 0.527(3) 1.285(6)
H43 H 0.715(6) 0.525(4) 1.396(2)
C28? C 1.259(3) 0.330(4) 0.816(7)
H28? H 1.2659 0.3755 0.8783
C29? C 1.383(3) 0.309(5) 0.815(6)
H29? H 1.3899 0.2643 0.7574
H30? H 1.4689 0.3384 0.8728
O4? O 1.2195(6) -0.1293(4) 0.7693(7)
C32? C 1.276(3) -0.2033(19) 0.715(3)
H37? H 1.2635 -0.1931 0.6169
H38? H 1.2200 -0.2551 0.7183
C33? C 1.438(4) -0.214(4) 0.805(6)
H39? H 1.4874 -0.2448 0.7526
H40? H 1.4474 -0.2465 0.8884
H41? H 1.4837 -0.1583 0.8317
loop_
_geom_bond_atom_site_label_1
_geom_bond_atom_site_label_2
_geom_bond_site_symmetry_1
_geom_bond_site_symmetry_2
Se1 N3 1_555 1_555
O1 C8 1_555 1_555
O2 C21 1_555 1_555
N1 C4 1_555 1_555
N2 C11 1_555 1_555
N3 C1 1_555 1_555
C1 H1 1_555 1_555
C2 C1 1_555 1_555
C3 C2 1_555 1_555
H2 C3 1_555 1_555
C4 C3 1_555 1_555
H3 C4 1_555 1_555
C5 N1 1_555 1_555
C6 C2 1_555 1_555
C7 C6 1_555 1_555
H4 C7 1_555 1_555
C8 C7 1_555 1_555
C9 C8 1_555 1_555
H5 C9 1_555 1_555
C10 C5 1_555 1_555
H6 C10 1_555 1_555
C11 C1 1_555 1_555
H7 C11 1_555 1_555
C12 C11 1_555 1_555
H8 C12 1_555 1_555
H9 C12 1_555 1_555
C13 C12 1_555 1_555
H10 C13 1_555 1_555
C14 C13 1_555 1_555
H11 C14 1_555 1_555
H12 C14 1_555 1_555
C15 N2 1_555 1_555
H13 C15 1_555 1_555
H14 C15 1_555 1_555
C16 N2 1_555 1_555
H15 C16 1_555 1_555
H16 C16 1_555 1_555
C17 C13 1_555 1_555
H17 C17 1_555 1_555
C18 C17 1_555 1_555
H18 C18 1_555 1_555
C19 C18 1_555 1_555
H19 C19 1_555 1_555
H20 C19 1_555 1_555
C20 O1 1_555 1_555
H21 C20 1_555 1_555
H22 C20 1_555 1_555
H23 C20 1_555 1_555
C21 N3 1_555 1_555
C22 C21 1_555 1_555
C23 Se1 1_555 1_555
C24 C23 1_555 1_555
H24 C24 1_555 1_555
C25 C24 1_555 1_555
H25 C25 1_555 1_555
C26 C25 1_555 1_555
H26 C26 1_555 1_555
C27 C22 1_555 1_555
H27 C27 1_555 1_555
O3 C30 1_555 1_555
C30 H31 1_555 1_555
H32 C30 1_555 1_555
C31 C30 1_555 1_555
H33 C31 1_555 1_555
H34 C31 1_555 1_555
H35 C31 1_555 1_555
H36 O3 1_555 1_555
O5 H42 1_555 1_555
H43 O5 1_555 1_555
C5 C6 1_555 1_555
C9 C10 1_555 1_555
C14 C15 1_555 1_555
C16 C17 1_555 1_555
C22 C23 1_555 1_555
C26 C27 1_555 1_555

#END
