
#######################################################################
#
#                 Cambridge Crystallographic Data Centre
#                                CCDC 
#
#######################################################################
#
# If this CIF has been generated from an entry in the Cambridge 
# Structural Database, then it will include bibliographic, chemical, 
# crystal, experimental, refinement or atomic coordinate data resulting 
# from the CCDC's data processing and validation procedures.
#
#######################################################################

data_XOCNEL
_chemical_formula_moiety         'C26 H22 Br1 N1 O5 S1'
_chemical_name_systematic        
3-(4-bromophenyl)-4-(4-methoxybenzoyl)-1-[(4-methylphenyl)sulfonyl]-5,6-dihydropyridin-2(1H)-one
_symmetry_cell_setting           triclinic
_symmetry_space_group_name_H-M   'P -1'
_symmetry_Int_Tables_number      2
_space_group_name_Hall           '-P 1'
loop_
_symmetry_equiv_pos_site_id
_symmetry_equiv_pos_as_xyz
1 x,y,z
2 -x,-y,-z
_cell_length_a                   8.186(2)
_cell_length_b                   12.465(4)
_cell_length_c                   12.746(4)
_cell_angle_alpha                99.238(5)
_cell_angle_beta                 107.657(6)
_cell_angle_gamma                104.892(6)
_cell_volume                     1156.82
_exptl_crystal_colour            colorless
_exptl_crystal_description       block
_cell_formula_units_Z            2
_exptl_crystal_recrystallization_method 
'Re-crystallisation from solvent: hexane and ethyl acetate'
loop_
_atom_site_label
_atom_site_type_symbol
_atom_site_fract_x
_atom_site_fract_y
_atom_site_fract_z
Br1 Br 1.05741(8) 0.30944(6) 0.50311(5)
S1 S -0.15741(18) -0.04739(12) 0.11534(10)
O1 O -0.2772(5) -0.0563(3) 0.0051(3)
O2 O -0.0345(6) -0.1109(3) 0.1277(3)
N1 N -0.0383(5) 0.0915(4) 0.1677(3)
O3 O 0.2656(5) 0.5193(3) 0.2882(3)
O4 O 0.1736(5) 0.0699(3) 0.3167(3)
C1 C 0.4499(7) 0.2620(4) 0.3235(4)
C2 C 0.2556(7) 0.2426(4) 0.2636(4)
C3 C 0.1870(7) 0.3218(5) 0.2240(4)
C4 C 0.1303(7) 0.1295(5) 0.2534(4)
C5 C -0.2856(7) -0.0784(4) 0.2008(4)
C6 C 0.3000(7) 0.4411(5) 0.2388(4)
C7 C -0.1009(7) 0.1714(5) 0.1028(4)
H1 H -0.2342 0.1509 0.0797
H2 H -0.0713 0.1632 0.0328
C8 C 0.4446(7) 0.4636(4) 0.1900(4)
C9 C 0.5256(7) 0.1827(4) 0.2862(4)
H3 H 0.4521 0.1176 0.2241
C10 C 0.7271(7) 0.5064(5) 0.1120(4)
C11 C -0.3108(8) -0.1122(5) 0.3736(4)
H4 H -0.2569 -0.1206 0.4478
C12 C 0.7064(7) 0.1983(5) 0.3390(4)
H5 H 0.7587 0.1446 0.3130
C13 C -0.0126(7) 0.2946(5) 0.1733(4)
H6 H -0.0410 0.3467 0.1246
H7 H -0.0615 0.3069 0.2348
C14 C -0.4654(7) -0.0881(4) 0.1602(4)
H8 H -0.5187 -0.0798 0.0859
C15 C 0.5998(7) 0.3983(4) 0.0750(4)
H9 H 0.6093 0.3393 0.0223
C16 C 0.7101(7) 0.5945(5) 0.1846(4)
H10 H 0.7955 0.6696 0.2080
C17 C -0.4924(8) -0.1227(5) 0.3343(5)
C18 C 0.7393(7) 0.3719(5) 0.4678(4)
H11 H 0.8136 0.4374 0.5295
C19 C -0.5691(8) -0.1098(5) 0.2259(5)
H12 H -0.6936 -0.1161 0.1972
C20 C 0.5579(7) 0.3546(5) 0.4145(4)
H13 H 0.5060 0.4081 0.4413
C21 C 0.5673(7) 0.5715(4) 0.2224(4)
H14 H 0.5538 0.6317 0.2717
C22 C 0.4603(7) 0.3763(5) 0.1142(4)
H15 H 0.3737 0.3015 0.0898
C23 C -0.2061(7) -0.0900(5) 0.3089(4)
H16 H -0.0811 -0.0826 0.3377
O5 O 0.8656(5) 0.5197(3) 0.0715(3)
C24 C 0.8104(7) 0.2914(5) 0.4292(4)
C25 C 1.0080(8) 0.6262(5) 0.1146(6)
H17 H 0.9604 0.6871 0.0927
H18 H 1.1020 0.6218 0.0830
H19 H 1.0600 0.6433 0.1979
C26 C -0.6068(9) -0.1474(6) 0.4056(5)
H20 H -0.6811 -0.2287 0.3794
H21 H -0.6859 -0.0997 0.3983
H22 H -0.5281 -0.1299 0.4856
loop_
_geom_bond_atom_site_label_1
_geom_bond_atom_site_label_2
_geom_bond_site_symmetry_1
_geom_bond_site_symmetry_2
Br1 C24 1_555 1_555
S1 O1 1_555 1_555
O2 S1 1_555 1_555
N1 S1 1_555 1_555
O3 C6 1_555 1_555
O4 C4 1_555 1_555
C1 C2 1_555 1_555
C2 C3 1_555 1_555
C3 C6 1_555 1_555
C4 N1 1_555 1_555
C5 S1 1_555 1_555
C6 C8 1_555 1_555
C7 N1 1_555 1_555
H1 C7 1_555 1_555
H2 C7 1_555 1_555
C8 C21 1_555 1_555
C9 C1 1_555 1_555
H3 C9 1_555 1_555
C10 C15 1_555 1_555
C11 H4 1_555 1_555
C12 C9 1_555 1_555
H5 C12 1_555 1_555
C13 C3 1_555 1_555
H6 C13 1_555 1_555
H7 C13 1_555 1_555
C14 C5 1_555 1_555
H8 C14 1_555 1_555
C15 H9 1_555 1_555
C16 C10 1_555 1_555
H10 C16 1_555 1_555
C17 C11 1_555 1_555
C18 H11 1_555 1_555
C19 C14 1_555 1_555
H12 C19 1_555 1_555
C20 C1 1_555 1_555
H13 C20 1_555 1_555
C21 C16 1_555 1_555
H14 C21 1_555 1_555
C22 C8 1_555 1_555
H15 C22 1_555 1_555
C23 C5 1_555 1_555
H16 C23 1_555 1_555
O5 C10 1_555 1_555
C24 C12 1_555 1_555
C25 O5 1_555 1_555
H17 C25 1_555 1_555
H18 C25 1_555 1_555
H19 C25 1_555 1_555
C26 C17 1_555 1_555
H20 C26 1_555 1_555
H21 C26 1_555 1_555
H22 C26 1_555 1_555
C2 C4 1_555 1_555
C7 C13 1_555 1_555
C11 C23 1_555 1_555
C15 C22 1_555 1_555
C17 C19 1_555 1_555
C18 C20 1_555 1_555
C18 C24 1_555 1_555

#END
