
#######################################################################
#
#                 Cambridge Crystallographic Data Centre
#                                CCDC 
#
#######################################################################
#
# If this CIF has been generated from an entry in the Cambridge 
# Structural Database, then it will include bibliographic, chemical, 
# crystal, experimental, refinement or atomic coordinate data resulting 
# from the CCDC's data processing and validation procedures.
#
#######################################################################

data_XOCWOE
_chemical_formula_moiety         'C22 H22 O2 S1'
_chemical_name_systematic        
1,3-dimethyl-5-[1-phenyl-2-(phenylsulfonyl)ethyl]benzene
_symmetry_cell_setting           monoclinic
_symmetry_space_group_name_H-M   'P 21'
_symmetry_Int_Tables_number      4
_space_group_name_Hall           'P 2yb'
loop_
_symmetry_equiv_pos_site_id
_symmetry_equiv_pos_as_xyz
1 x,y,z
2 -x,1/2+y,-z
_cell_length_a                   5.6684(2)
_cell_length_b                   15.2524(3)
_cell_length_c                   10.6654(3)
_cell_angle_alpha                90
_cell_angle_beta                 92.016(3)
_cell_angle_gamma                90
_cell_volume                     921.525
_exptl_crystal_colour            colorless
_exptl_crystal_description       block
_cell_formula_units_Z            2
loop_
_atom_site_label
_atom_site_type_symbol
_atom_site_fract_x
_atom_site_fract_y
_atom_site_fract_z
C1 C 0.1409(5) 0.70615(18) 0.4467(3)
C2 C 0.3440(6) 0.7545(2) 0.4723(3)
H1 H 0.4322 0.7763 0.4073
C3 C 0.4135(6) 0.7698(2) 0.5956(3)
H2 H 0.5490 0.8023 0.6144
C4 C 0.2801(7) 0.7366(2) 0.6920(4)
H3 H 0.3260 0.7474 0.7751
C5 C 0.0797(6) 0.6875(3) 0.6647(3)
H4 H -0.0065 0.6646 0.7296
C6 C 0.0063(6) 0.67215(19) 0.5411(3)
H5 H -0.1296 0.6399 0.5222
C7 C 0.2379(5) 0.61571(19) 0.2190(3)
H6 H 0.2281 0.6238 0.1287
H7 H 0.3981 0.6296 0.2472
C8 C 0.1913(5) 0.51906(19) 0.2474(3)
H8 H 0.0227 0.5088 0.2300
C9 C 0.2416(5) 0.49467(18) 0.3843(3)
C10 C 0.4544(6) 0.5170(2) 0.4460(3)
H9 H 0.5699 0.5464 0.4027
C11 C 0.4953(6) 0.4955(2) 0.5716(3)
H10 H 0.6369 0.5114 0.6120
C12 C 0.3256(6) 0.4504(2) 0.6370(3)
H11 H 0.3525 0.4363 0.7211
C13 C 0.1156(6) 0.4268(2) 0.5753(3)
H12 H 0.0017 0.3962 0.6181
C14 C 0.0746(6) 0.44845(19) 0.4508(3)
H13 H -0.0668 0.4319 0.4106
C15 C 0.3255(5) 0.46000(19) 0.1584(3)
C16 C 0.2432(6) 0.37457(19) 0.1382(3)
H14 H 0.1150 0.3545 0.1821
C17 C 0.3501(6) 0.31924(19) 0.0535(3)
C18 C 0.5395(6) 0.3506(2) -0.0131(3)
H15 H 0.6101 0.3140 -0.0706
C19 C 0.6256(6) 0.4353(2) 0.0045(3)
C20 C 0.5183(5) 0.48896(19) 0.0922(3)
H16 H 0.5769 0.5452 0.1066
C21 C 0.2605(6) 0.2266(2) 0.0336(3)
H17 H 0.3251 0.1893 0.0987
H18 H 0.3082 0.2055 -0.0465
H19 H 0.0913 0.2261 0.0359
C22 C 0.8233(6) 0.4696(2) -0.0726(3)
H20 H 0.7584 0.5007 -0.1441
H21 H 0.9172 0.4215 -0.1004
H22 H 0.9203 0.5086 -0.0224
O1 O 0.0790(4) 0.77409(14) 0.2249(2)
O2 O -0.1916(4) 0.65528(14) 0.2870(2)
S1 S 0.04282(11) 0.69202(4) 0.28865(6)
loop_
_geom_bond_atom_site_label_1
_geom_bond_atom_site_label_2
_geom_bond_site_symmetry_1
_geom_bond_site_symmetry_2
C1 C2 1_555 1_555
C2 H1 1_555 1_555
C3 C2 1_555 1_555
H2 C3 1_555 1_555
C4 C3 1_555 1_555
H3 C4 1_555 1_555
C5 C4 1_555 1_555
H4 C5 1_555 1_555
C6 C1 1_555 1_555
H5 C6 1_555 1_555
C7 H6 1_555 1_555
H7 C7 1_555 1_555
C8 C7 1_555 1_555
H8 C8 1_555 1_555
C9 C8 1_555 1_555
C10 C9 1_555 1_555
H9 C10 1_555 1_555
C11 C10 1_555 1_555
H10 C11 1_555 1_555
C12 C11 1_555 1_555
H11 C12 1_555 1_555
C13 C12 1_555 1_555
H12 C13 1_555 1_555
C14 C9 1_555 1_555
H13 C14 1_555 1_555
C15 C8 1_555 1_555
C16 C15 1_555 1_555
H14 C16 1_555 1_555
C17 C16 1_555 1_555
C18 C17 1_555 1_555
H15 C18 1_555 1_555
C19 C18 1_555 1_555
C20 C15 1_555 1_555
H16 C20 1_555 1_555
C21 C17 1_555 1_555
H17 C21 1_555 1_555
H18 C21 1_555 1_555
H19 C21 1_555 1_555
C22 C19 1_555 1_555
H20 C22 1_555 1_555
H21 C22 1_555 1_555
H22 C22 1_555 1_555
O1 S1 1_555 1_555
O2 S1 1_555 1_555
S1 C1 1_555 1_555
C5 C6 1_555 1_555
C7 S1 1_555 1_555
C13 C14 1_555 1_555
C19 C20 1_555 1_555

#END
