
#######################################################################
#
#                 Cambridge Crystallographic Data Centre
#                                CCDC 
#
#######################################################################
#
# If this CIF has been generated from an entry in the Cambridge 
# Structural Database, then it will include bibliographic, chemical, 
# crystal, experimental, refinement or atomic coordinate data resulting 
# from the CCDC's data processing and validation procedures.
#
#######################################################################

data_XOCWAP
_chemical_formula_moiety         'C24 H31 N1 O4'
_chemical_name_systematic        
'Methyl 6-hydroxy-5,9-dimethyl-12-oxo-14-azapentacyclo[11.7.1.0^1,10^.0^4,9^.0^15,20^]henicosa-15,17,19-triene-5-carboxylate'
_symmetry_cell_setting           orthorhombic
_symmetry_space_group_name_H-M   'P 21 21 21'
_symmetry_Int_Tables_number      19
_space_group_name_Hall           'P 2ac 2ab'
loop_
_symmetry_equiv_pos_site_id
_symmetry_equiv_pos_as_xyz
1 x,y,z
2 1/2+x,1/2-y,-z
3 -x,1/2+y,1/2-z
4 1/2-x,-y,1/2+z
_cell_length_a                   6.3276(16)
_cell_length_b                   8.324(2)
_cell_length_c                   37.556(9)
_cell_angle_alpha                90
_cell_angle_beta                 90
_cell_angle_gamma                90
_cell_volume                     1978.11
_exptl_crystal_colour            colorless
_exptl_crystal_description       plate
_cell_formula_units_Z            4
loop_
_atom_site_label
_atom_site_type_symbol
_atom_site_fract_x
_atom_site_fract_y
_atom_site_fract_z
N1 N -0.0874(5) 0.7487(3) 0.78258(8)
H1 H -0.1613 0.6945 0.7668
O1 O 0.6150(3) 1.2382(2) 0.93277(6)
O2 O 0.3376(4) 1.3585(3) 0.95787(6)
O3 O 0.5038(4) 0.9754(3) 1.00201(6)
H2 H 0.6097 1.0329 1.0064
O4 O -0.1335(4) 0.4987(3) 0.84907(7)
C1 C 0.3914(5) 0.7377(4) 0.91884(9)
H3 H 0.3454 0.6245 0.9166
H4 H 0.5282 0.7485 0.9063
C2 C 0.4243(5) 0.7765(4) 0.95815(9)
H5 H 0.2920 0.7539 0.9713
H6 H 0.5360 0.7057 0.9679
C3 C 0.4869(5) 0.9510(4) 0.96416(9)
H7 H 0.6284 0.9701 0.9531
C4 C 0.3258(5) 1.0688(4) 0.94754(8)
C5 C 0.2913(5) 1.0224(4) 0.90770(8)
H8 H 0.4337 1.0340 0.8964
C6 C 0.1498(5) 1.1402(4) 0.88749(9)
H9 H 0.0001 1.1210 0.8938
H10 H 0.1862 1.2517 0.8943
C7 C 0.1795(5) 1.1187(4) 0.84749(9)
H11 H 0.3270 1.1466 0.8412
H12 H 0.0854 1.1948 0.8349
C8 C 0.1327(5) 0.9479(4) 0.83427(9)
C9 C 0.2460(5) 0.8225(4) 0.85903(9)
H13 H 0.4000 0.8352 0.8538
C10 C 0.2263(5) 0.8470(4) 0.90036(9)
C11 C 0.1901(5) 0.6485(4) 0.84636(10)
H14 H 0.2674 0.6261 0.8240
H15 H 0.2401 0.5711 0.8645
C12 C -0.0438(5) 0.6210(4) 0.84004(9)
C13 C -0.1583(5) 0.7529(4) 0.81895(10)
H16 H -0.3143 0.7337 0.8198
C14 C -0.1086(5) 0.9189(4) 0.83428(9)
H17 H -0.1633 0.9263 0.8589
H18 H -0.1792 1.0026 0.8198
C15 C 0.0934(5) 0.8276(4) 0.77183(9)
C16 C 0.2097(5) 0.9251(4) 0.79583(9)
C17 C 0.3938(5) 0.9953(4) 0.78290(9)
H19 H 0.4753 1.0599 0.7986
C18 C 0.4637(6) 0.9754(4) 0.74830(9)
H20 H 0.5918 1.0241 0.7407
C19 C 0.3457(6) 0.8839(4) 0.72485(10)
H21 H 0.3903 0.8713 0.7009
C20 C 0.1630(6) 0.8113(4) 0.73658(10)
H22 H 0.0822 0.7486 0.7204
C21 C 0.0061(5) 0.7988(4) 0.91510(9)
H23 H -0.0950 0.8856 0.9106
H24 H 0.0164 0.7797 0.9408
H25 H -0.0422 0.7005 0.9032
C22 C 0.1226(5) 1.0786(4) 0.96995(9)
H26 H 0.0100 1.1283 0.9558
H27 H 0.1490 1.1435 0.9913
H28 H 0.0793 0.9702 0.9771
C23 C 0.4225(5) 1.2377(4) 0.94741(9)
C24 C 0.7160(5) 1.3936(4) 0.92803(10)
H29 H 0.7042 1.4559 0.9501
H30 H 0.6464 1.4518 0.9086
H31 H 0.8656 1.3780 0.9222
loop_
_geom_bond_atom_site_label_1
_geom_bond_atom_site_label_2
_geom_bond_site_symmetry_1
_geom_bond_site_symmetry_2
N1 H1 1_555 1_555
O1 C23 1_555 1_555
O2 C23 1_555 1_555
O3 H2 1_555 1_555
O4 C12 1_555 1_555
C1 H3 1_555 1_555
H4 C1 1_555 1_555
C2 C1 1_555 1_555
H5 C2 1_555 1_555
H6 C2 1_555 1_555
C3 O3 1_555 1_555
H7 C3 1_555 1_555
C4 C3 1_555 1_555
C5 C4 1_555 1_555
H8 C5 1_555 1_555
C6 C5 1_555 1_555
H9 C6 1_555 1_555
H10 C6 1_555 1_555
C7 C6 1_555 1_555
H11 C7 1_555 1_555
H12 C7 1_555 1_555
C8 C7 1_555 1_555
C9 C8 1_555 1_555
H13 C9 1_555 1_555
C10 C1 1_555 1_555
C11 C9 1_555 1_555
H14 C11 1_555 1_555
H15 C11 1_555 1_555
C12 C11 1_555 1_555
C13 N1 1_555 1_555
H16 C13 1_555 1_555
C14 C8 1_555 1_555
H17 C14 1_555 1_555
H18 C14 1_555 1_555
C15 N1 1_555 1_555
C16 C8 1_555 1_555
C17 C16 1_555 1_555
H19 C17 1_555 1_555
C18 C17 1_555 1_555
H20 C18 1_555 1_555
C19 C18 1_555 1_555
H21 C19 1_555 1_555
C20 C15 1_555 1_555
H22 C20 1_555 1_555
C21 C10 1_555 1_555
H23 C21 1_555 1_555
H24 C21 1_555 1_555
H25 C21 1_555 1_555
C22 C4 1_555 1_555
H26 C22 1_555 1_555
H27 C22 1_555 1_555
H28 C22 1_555 1_555
C23 C4 1_555 1_555
C24 O1 1_555 1_555
H29 C24 1_555 1_555
H30 C24 1_555 1_555
H31 C24 1_555 1_555
C2 C3 1_555 1_555
C5 C10 1_555 1_555
C9 C10 1_555 1_555
C12 C13 1_555 1_555
C13 C14 1_555 1_555
C15 C16 1_555 1_555
C19 C20 1_555 1_555

#END
