
#######################################################################
#
#                 Cambridge Crystallographic Data Centre
#                                CCDC 
#
#######################################################################
#
# If this CIF has been generated from an entry in the Cambridge 
# Structural Database, then it will include bibliographic, chemical, 
# crystal, experimental, refinement or atomic coordinate data resulting 
# from the CCDC's data processing and validation procedures.
#
#######################################################################

data_XODCOK
_chemical_formula_moiety         'C29 H23 N5 O2 S1'
_chemical_name_systematic        
11-(Azido(phenyl)methyl)-5-((4-methylphenyl)sulfonyl)-6,11-dihydro-5H-indolo[2,3-b]quinoline
_symmetry_cell_setting           triclinic
_symmetry_space_group_name_H-M   'P -1'
_symmetry_Int_Tables_number      2
_space_group_name_Hall           '-P 1'
loop_
_symmetry_equiv_pos_site_id
_symmetry_equiv_pos_as_xyz
1 x,y,z
2 -x,-y,-z
_cell_length_a                   9.4716(10)
_cell_length_b                   10.8769(13)
_cell_length_c                   11.9856(13)
_cell_angle_alpha                83.113(3)
_cell_angle_beta                 83.385(3)
_cell_angle_gamma                87.083(3)
_cell_volume                     1216.84
_exptl_crystal_colour            colorless
_exptl_crystal_description       block
_cell_formula_units_Z            2
loop_
_atom_site_label
_atom_site_type_symbol
_atom_site_fract_x
_atom_site_fract_y
_atom_site_fract_z
S1 S -0.05714(4) 0.64489(4) 0.68249(3)
O1 O -0.02094(13) 0.53242(12) 0.63236(10)
O2 O -0.20224(12) 0.68729(13) 0.69806(11)
N1 N 0.19392(14) 0.63561(13) 0.47226(11)
N2 N 0.03236(14) 0.75552(13) 0.59701(12)
N3 N 0.50750(15) 0.69576(14) 0.81485(12)
N4 N 0.47506(16) 0.76212(15) 0.73082(12)
N5 N 0.54713(19) 0.63039(17) 0.88660(15)
C1 C 0.29172(17) 0.88059(15) 0.63223(13)
C2 C -0.11265(18) 0.94141(17) 0.63949(14)
C3 C 0.02061(17) 0.88112(15) 0.62943(13)
C4 C 0.12679(18) 1.06533(16) 0.66815(14)
C5 C 0.18812(18) 0.55058(17) 0.93326(15)
C6 C 0.12614(18) 0.55042(16) 0.83393(15)
C7 C 0.33779(17) 0.63298(15) 0.43558(14)
C8 C 0.01374(17) 0.63441(16) 0.81266(14)
C9 C 0.14343(17) 0.94209(15) 0.64398(13)
C10 C 0.40275(17) 0.72155(15) 0.48782(13)
C11 C -0.03957(19) 0.71519(17) 0.89031(15)
C12 C 0.41423(18) 0.55452(16) 0.36471(14)
C13 C 0.33954(17) 0.83755(16) 0.75071(14)
C14 C 0.55098(17) 0.73332(16) 0.46562(14)
C15 C 0.13968(19) 0.63321(17) 1.01132(15)
C16 C 0.62728(18) 0.65661(17) 0.39442(16)
C17 C -0.0062(2) 1.12478(17) 0.68003(15)
C18 C 0.0238(2) 0.71321(18) 0.98924(15)
C19 C 0.36350(18) 0.94366(16) 0.81643(15)
C20 C 0.55951(19) 0.56836(17) 0.34485(16)
C21 C 0.2122(2) 0.6364(2) 1.11650(17)
C22 C -0.12641(19) 1.06252(18) 0.66658(15)
C23 C 0.4649(2) 1.03094(19) 0.77396(18)
C24 C 0.2825(2) 0.95675(19) 0.91883(16)
C25 C 0.4813(3) 1.1317(2) 0.8309(2)
C26 C 0.3023(3) 1.0570(2) 0.9771(2)
C27 C 0.3999(3) 1.1446(2) 0.9326(2)
C28 C 0.29234(16) 0.77656(15) 0.56088(13)
C29 C 0.16999(17) 0.72103(15) 0.54906(13)
H1 H 0.13092 0.59192 0.45102
H2 H 0.35794 0.94215 0.59323
H3 H -0.19275 0.90055 0.62804
H4 H 0.20677 1.10816 0.6764
H5 H 0.26316 0.49479 0.9482
H6 H 0.15906 0.49519 0.78241
H7 H -0.11621 0.76945 0.87615
H8 H 0.36957 0.49564 0.33231
H9 H 0.26727 0.7846 0.79449
H10 H 0.59665 0.79147 0.49814
H11 H 0.72524 0.66358 0.3791
H12 H -0.01488 1.20624 0.69698
H13 H -0.0117 0.76632 1.04196
H14 H 0.61376 0.51801 0.29749
H15 H 0.24785 0.71733 1.11692
H16 H 0.28966 0.57596 1.11746
H17 H 0.14514 0.6178 1.18208
H18 H -0.21588 1.10171 0.67567
H19 H 0.52201 1.02124 0.70684
H20 H 0.21517 0.89879 0.94847
H21 H 0.54701 1.19084 0.80078
H22 H 0.24931 1.06482 1.04641
H23 H 0.41098 1.21238 0.97087
loop_
_geom_bond_atom_site_label_1
_geom_bond_atom_site_label_2
_geom_bond_site_symmetry_1
_geom_bond_site_symmetry_2
S1 O1 1_555 1_555
O2 S1 1_555 1_555
N1 C7 1_555 1_555
N2 S1 1_555 1_555
N3 N4 1_555 1_555
N4 C13 1_555 1_555
N5 N3 1_555 1_555
C1 C9 1_555 1_555
C2 C3 1_555 1_555
C3 N2 1_555 1_555
C4 C9 1_555 1_555
C5 C6 1_555 1_555
C6 C8 1_555 1_555
C7 C10 1_555 1_555
C8 S1 1_555 1_555
C9 C3 1_555 1_555
C10 C14 1_555 1_555
C11 C8 1_555 1_555
C12 C7 1_555 1_555
C13 C1 1_555 1_555
C14 C16 1_555 1_555
C15 C5 1_555 1_555
C16 C20 1_555 1_555
C17 C4 1_555 1_555
C18 C11 1_555 1_555
C19 C13 1_555 1_555
C20 C12 1_555 1_555
C21 C15 1_555 1_555
C22 C2 1_555 1_555
C23 C19 1_555 1_555
C24 C19 1_555 1_555
C25 C23 1_555 1_555
C26 C24 1_555 1_555
C27 C25 1_555 1_555
C28 C1 1_555 1_555
C29 N1 1_555 1_555
H1 N1 1_555 1_555
H2 C1 1_555 1_555
H3 C2 1_555 1_555
H4 C4 1_555 1_555
H5 C5 1_555 1_555
H6 C6 1_555 1_555
H7 C11 1_555 1_555
H8 C12 1_555 1_555
H9 C13 1_555 1_555
H10 C14 1_555 1_555
H11 C16 1_555 1_555
H12 C17 1_555 1_555
H13 C18 1_555 1_555
H14 C20 1_555 1_555
H15 C21 1_555 1_555
H16 C21 1_555 1_555
H17 C21 1_555 1_555
H18 C22 1_555 1_555
H19 C23 1_555 1_555
H20 C24 1_555 1_555
H21 C25 1_555 1_555
H22 C26 1_555 1_555
H23 C27 1_555 1_555
N2 C29 1_555 1_555
C10 C28 1_555 1_555
C15 C18 1_555 1_555
C17 C22 1_555 1_555
C26 C27 1_555 1_555
C28 C29 1_555 1_555

#END
