
#######################################################################
#
#                 Cambridge Crystallographic Data Centre
#                                CCDC 
#
#######################################################################
#
# If this CIF has been generated from an entry in the Cambridge 
# Structural Database, then it will include bibliographic, chemical, 
# crystal, experimental, refinement or atomic coordinate data resulting 
# from the CCDC's data processing and validation procedures.
#
#######################################################################

data_XODDUQ
_chemical_name_common            'guanidine 1,1-diamino-2,2-dinitroethylene'
_chemical_formula_moiety         'C1 H6 N3 1+,C2 H3 N4 O4 1-'
_chemical_name_systematic        
'Guanidinium 2,2-dinitro-1-amino-1-iminoethanide'
_symmetry_cell_setting           orthorhombic
_symmetry_space_group_name_H-M   'P b c a'
_symmetry_Int_Tables_number      61
_space_group_name_Hall           '-P 2ac 2ab'
loop_
_symmetry_equiv_pos_site_id
_symmetry_equiv_pos_as_xyz
1 x,y,z
2 1/2-x,-y,1/2+z
3 -x,1/2+y,1/2-z
4 1/2+x,1/2-y,-z
5 -x,-y,-z
6 1/2+x,y,1/2-z
7 x,1/2-y,1/2+z
8 1/2-x,1/2+y,z
_cell_length_a                   10.428(3)
_cell_length_b                   7.3099(18)
_cell_length_c                   22.253(5)
_cell_angle_alpha                90
_cell_angle_beta                 90
_cell_angle_gamma                90
_cell_volume                     1696.29
_exptl_crystal_colour            yellow
_exptl_crystal_description       block
_cell_formula_units_Z            8
loop_
_atom_site_label
_atom_site_type_symbol
_atom_site_fract_x
_atom_site_fract_y
_atom_site_fract_z
O1 O 0.07004(13) 0.2223(2) 0.43528(6)
O2 O 0.27804(13) 0.2044(2) 0.43643(6)
O3 O 0.38238(12) 0.0676(2) 0.34132(6)
N1 N 0.17388(14) 0.1790(2) 0.41020(7)
N2 N 0.27123(14) 0.0482(2) 0.32291(7)
O4 O 0.25035(13) -0.0293(2) 0.27367(6)
C1 C 0.16488(16) 0.1068(3) 0.35404(8)
N3 N -0.04053(16) -0.0483(3) 0.34041(9)
C2 C 0.03632(17) 0.0802(3) 0.32590(8)
N4 N 0.0036(2) 0.2059(3) 0.28472(8)
H1 H -0.062(2) 0.182(3) 0.2641(10)
H2 H 0.063(2) 0.279(3) 0.2687(10)
H3 H -0.0025(19) -0.107(3) 0.3666(10)
N5 N 0.78627(17) 0.1129(3) 0.44464(9)
N6 N 0.56795(17) 0.1119(3) 0.44247(9)
C3 C 0.67866(17) 0.0775(3) 0.41553(8)
N7 N 0.6830(2) 0.0089(3) 0.36092(8)
H4 H 0.4950(17) 0.095(2) 0.4234(8)
H5 H 0.571(2) 0.158(3) 0.4790(12)
H6 H 0.762(2) -0.025(3) 0.3466(10)
H7 H 0.860(2) 0.102(3) 0.4258(10)
H8 H 0.782(2) 0.157(3) 0.4813(11)
H9 H 0.621(2) -0.009(3) 0.3452(10)
loop_
_geom_bond_atom_site_label_1
_geom_bond_atom_site_label_2
_geom_bond_site_symmetry_1
_geom_bond_site_symmetry_2
O1 N1 1_555 1_555
O2 N1 1_555 1_555
O3 N2 1_555 1_555
N1 C1 1_555 1_555
N2 O4 1_555 1_555
C1 N2 1_555 1_555
N3 C2 1_555 1_555
C2 C1 1_555 1_555
N4 C2 1_555 1_555
H1 N4 1_555 1_555
H2 N4 1_555 1_555
H3 N3 1_555 1_555
N5 C3 1_555 1_555
N6 C3 1_555 1_555
C3 N7 1_555 1_555
N7 H6 1_555 1_555
H4 N6 1_555 1_555
H5 N6 1_555 1_555
H7 N5 1_555 1_555
H8 N5 1_555 1_555
H9 N7 1_555 1_555

#END
