
#######################################################################
#
#                 Cambridge Crystallographic Data Centre
#                                CCDC 
#
#######################################################################
#
# If this CIF has been generated from an entry in the Cambridge 
# Structural Database, then it will include bibliographic, chemical, 
# crystal, experimental, refinement or atomic coordinate data resulting 
# from the CCDC's data processing and validation procedures.
#
#######################################################################

data_XODSUE
_chemical_formula_moiety         'C95 H102 N8 O5,2(C1 H2 Cl2)'
_chemical_name_systematic        
'4,5-bis((2,3,13,17-tetraethyl-3,7,12,18-tetramethyl-15-(2,6-dimethoxyphenyl)-5-porphyrinyl))-9,9-dimethylxanthene dichloromethane solvate'
_symmetry_cell_setting           monoclinic
_symmetry_space_group_name_H-M   'P 21/c'
_symmetry_Int_Tables_number      14
_space_group_name_Hall           '-P 2ybc'
loop_
_symmetry_equiv_pos_site_id
_symmetry_equiv_pos_as_xyz
1 x,y,z
2 x,1/2-y,1/2+z
3 -x,-y,-z
4 -x,1/2+y,1/2-z
_cell_length_a                   28.8353(12)
_cell_length_b                   17.1139(7)
_cell_length_c                   17.5978(7)
_cell_angle_alpha                90
_cell_angle_beta                 98.826(1)
_cell_angle_gamma                90
_cell_volume                     8581.41
_exptl_crystal_colour            red-purple
_exptl_crystal_description       block
_cell_formula_units_Z            4
loop_
_atom_site_label
_atom_site_type_symbol
_atom_site_fract_x
_atom_site_fract_y
_atom_site_fract_z
O1 O 0.74936(6) 0.73517(10) 0.48668(11)
O2 O 0.58525(7) 0.22366(12) 0.68182(12)
O3 O 0.59554(9) 0.12000(13) 0.44037(13)
O4 O 0.90315(9) 0.12710(12) 0.55278(12)
O5 O 0.91215(8) 0.22640(12) 0.30939(12)
N1 N 0.70933(8) 0.50754(13) 0.54580(14)
H1 H 0.6880(10) 0.4922(16) 0.5240(15)
N2 N 0.61917(7) 0.54596(11) 0.48063(12)
N3 N 0.58448(8) 0.37567(12) 0.48384(12)
H2 H 0.6093(11) 0.3915(17) 0.4924(17)
N4 N 0.67453(7) 0.33569(12) 0.54665(12)
N5 N 0.87871(7) 0.55123(11) 0.50732(12)
N6 N 0.79277(8) 0.51544(12) 0.42256(14)
H3 H 0.8145(10) 0.4994(16) 0.4535(16)
N7 N 0.82501(7) 0.34376(12) 0.43146(13)
N8 N 0.91248(8) 0.38054(12) 0.50789(13)
H4 H 0.8873(10) 0.3967(16) 0.4953(15)
C1 C 0.74827(9) 0.46719(16) 0.57787(16)
C2 C 0.78007(9) 0.52414(16) 0.61642(17)
C3 C 0.75814(9) 0.59564(16) 0.61081(16)
C4 C 0.71354(9) 0.58578(14) 0.56220(15)
C5 C 0.67960(9) 0.64076(14) 0.53205(15)
C6 C 0.63712(8) 0.61985(14) 0.48408(14)
C7 C 0.60599(9) 0.67329(14) 0.43392(15)
C8 C 0.56815(9) 0.62971(14) 0.40402(14)
C9 C 0.57664(9) 0.55101(14) 0.43472(14)
C10 C 0.54345(9) 0.49118(15) 0.42196(14)
H5 H 0.5145 0.5054 0.3918
C11 C 0.54642(8) 0.41400(15) 0.44668(14)
C12 C 0.50794(9) 0.35961(15) 0.43883(15)
C13 C 0.52412(9) 0.29068(15) 0.47347(15)
C14 C 0.57355(9) 0.30065(14) 0.50184(14)
C15 C 0.60696(9) 0.24711(14) 0.53762(15)
C16 C 0.65555(9) 0.26295(14) 0.55429(14)
C17 C 0.69292(9) 0.20636(14) 0.58005(15)
C18 C 0.73408(9) 0.24574(15) 0.58638(15)
C19 C 0.72170(9) 0.32718(15) 0.56778(15)
C20 C 0.75457(9) 0.38736(16) 0.58103(16)
H6 H 0.7862 0.3707 0.5943
C21 C 0.91879(8) 0.55473(14) 0.55912(14)
C22 C 0.92614(9) 0.63311(14) 0.59146(15)
C23 C 0.89054(9) 0.67812(14) 0.55572(15)
C24 C 0.86155(8) 0.62609(14) 0.50104(14)
C25 C 0.82245(9) 0.64771(14) 0.44616(14)
C26 C 0.79071(9) 0.59392(15) 0.40740(16)
C27 C 0.75117(11) 0.60632(17) 0.34768(19)
C28 C 0.73008(11) 0.53524(17) 0.33095(19)
C29 C 0.75651(10) 0.47742(16) 0.37952(18)
C30 C 0.74801(10) 0.39755(16) 0.37882(18)
H7 H 0.7170 0.3824 0.3574
C31 C 0.77808(9) 0.33642(15) 0.40476(16)
C32 C 0.76461(9) 0.25421(15) 0.39553(15)
C33 C 0.80488(9) 0.21262(15) 0.41097(15)
C34 C 0.84260(9) 0.26950(14) 0.43287(14)
C35 C 0.89103(9) 0.25224(14) 0.45301(14)
C36 C 0.92389(9) 0.30575(14) 0.48987(15)
C37 C 0.97304(9) 0.29532(15) 0.52108(15)
C38 C 0.98841(9) 0.36345(15) 0.55751(15)
C39 C 0.95001(8) 0.41812(14) 0.54830(14)
C40 C 0.95176(8) 0.49461(14) 0.57499(14)
H8 H 0.9794 0.5081 0.6090
C41 C 0.68480(9) 0.72507(14) 0.55237(15)
C42 C 0.65332(10) 0.75940(16) 0.59398(16)
H9 H 0.6319 0.7275 0.6159
C43 C 0.65256(10) 0.84014(17) 0.60425(17)
H10 H 0.6310 0.8630 0.6335
C44 C 0.68313(10) 0.88626(16) 0.57175(16)
H11 H 0.6815 0.9414 0.5772
C45 C 0.71655(9) 0.85452(14) 0.53087(15)
C46 C 0.74872(9) 0.90699(14) 0.49247(15)
C47 C 0.78193(9) 0.85848(14) 0.45234(15)
C48 C 0.81578(10) 0.89452(16) 0.41544(17)
H12 H 0.8166 0.9499 0.4128
C49 C 0.84805(11) 0.85154(17) 0.38277(19)
H13 H 0.8693 0.8771 0.3548
C50 C 0.84932(10) 0.77082(17) 0.39088(17)
H14 H 0.8725 0.7414 0.3705
C51 C 0.81705(9) 0.73294(14) 0.42855(15)
C52 C 0.78230(8) 0.77747(14) 0.45528(15)
C53 C 0.71733(9) 0.77350(14) 0.52362(15)
C54 C 0.77839(11) 0.95743(16) 0.55431(18)
H15 H 0.7976 0.9234 0.5914
H16 H 0.7576 0.9890 0.5810
H17 H 0.7989 0.9919 0.5298
C55 C 0.71816(11) 0.95874(17) 0.43370(19)
H18 H 0.6996 0.9257 0.3949
H19 H 0.7383 0.9934 0.4087
H20 H 0.6971 0.9902 0.4600
C56 C 0.82681(10) 0.50453(18) 0.66248(18)
H21 H 0.8472 0.5514 0.6668
H22 H 0.8422 0.4633 0.6358
C57 C 0.82119(13) 0.4767(2) 0.74144(19)
H23 H 0.8521 0.4643 0.7705
H24 H 0.8014 0.4298 0.7372
H25 H 0.8064 0.5178 0.7682
C58 C 0.77653(11) 0.66736(17) 0.65397(19)
H26 H 0.8078 0.6566 0.6825
H27 H 0.7553 0.6822 0.6900
H28 H 0.7785 0.7102 0.6176
C59 C 0.61508(10) 0.75604(15) 0.41083(17)
H29 H 0.5876 0.7758 0.3765
H30 H 0.6425 0.7571 0.3841
H31 H 0.6211 0.7890 0.4569
C60 C 0.52605(10) 0.65513(16) 0.34860(17)
H32 H 0.5247 0.7129 0.3480
H33 H 0.4974 0.6358 0.3671
C61 C 0.52605(13) 0.6261(2) 0.26692(18)
H34 H 0.4978 0.6448 0.2339
H35 H 0.5265 0.5689 0.2666
H36 H 0.5539 0.6460 0.2476
C62 C 0.45934(9) 0.37685(16) 0.39901(16)
H37 H 0.4531 0.4334 0.4033
H38 H 0.4365 0.3483 0.4254
C63 C 0.45179(11) 0.3541(2) 0.31462(19)
H39 H 0.4196 0.3668 0.2915
H40 H 0.4571 0.2978 0.3100
H41 H 0.4738 0.3829 0.2879
C64 C 0.49413(10) 0.21967(17) 0.4773(2)
H42 H 0.4619 0.2313 0.4536
H43 H 0.4945 0.2048 0.5312
H44 H 0.5064 0.1765 0.4497
C65 C 0.68854(11) 0.12081(16) 0.5954(2)
H45 H 0.7198 0.0986 0.6120
H46 H 0.6739 0.0945 0.5483
H47 H 0.6691 0.1133 0.6359
C66 C 0.78284(10) 0.21427(16) 0.60906(16)
H48 H 0.8051 0.2480 0.5865
H49 H 0.7844 0.1614 0.5869
C67 C 0.79842(11) 0.2096(2) 0.6958(2)
H50 H 0.8303 0.1883 0.7063
H51 H 0.7770 0.1754 0.7186
H52 H 0.7980 0.2620 0.7181
C68 C 0.96532(10) 0.65664(16) 0.65363(17)
H53 H 0.9674 0.7144 0.6552
H54 H 0.9953 0.6363 0.6406
C69 C 0.95921(15) 0.6272(2) 0.73240(19)
H55 H 0.9857 0.6448 0.7703
H56 H 0.9581 0.5700 0.7319
H57 H 0.9299 0.6477 0.7461
C70 C 0.88296(10) 0.76225(15) 0.57588(17)
H58 H 0.9088 0.7796 0.6150
H59 H 0.8532 0.7672 0.5960
H60 H 0.8819 0.7947 0.5298
C71 C 0.73625(14) 0.68035(19) 0.3055(2)
H61 H 0.7077 0.6707 0.2687
H62 H 0.7613 0.6983 0.2779
H63 H 0.7300 0.7205 0.3423
C72 C 0.68931(12) 0.5162(2) 0.2678(2)
H64 H 0.6921 0.5471 0.2213
H65 H 0.6902 0.4601 0.2543
C73 C 0.64497(17) 0.5340(4) 0.2939(3)
H66 H 0.6189 0.5213 0.2531
H67 H 0.6439 0.5897 0.3064
H68 H 0.6422 0.5030 0.3398
C74 C 0.71512(10) 0.22418(16) 0.37413(17)
H69 H 0.6931 0.2634 0.3895
H70 H 0.7116 0.1757 0.4035
C75 C 0.70170(12) 0.2071(2) 0.2889(2)
H71 H 0.6694 0.1876 0.2789
H72 H 0.7230 0.1676 0.2733
H73 H 0.7041 0.2552 0.2594
C76 C 0.80786(11) 0.12545(16) 0.41213(19)
H74 H 0.7768 0.1033 0.3939
H75 H 0.8187 0.1076 0.4648
H76 H 0.8300 0.1082 0.3785
C77 C 1.00339(10) 0.22474(16) 0.5174(2)
H77 H 1.0352 0.2359 0.5436
H78 H 1.0045 0.2115 0.4635
H79 H 0.9903 0.1807 0.5427
C78 C 1.03634(9) 0.38047(16) 0.60038(16)
H80 H 1.0423 0.4373 0.5982
H81 H 1.0599 0.3536 0.5743
C79 C 1.04287(11) 0.3550(2) 0.68389(19)
H82 H 1.0748 0.3679 0.7086
H83 H 1.0380 0.2985 0.6866
H84 H 1.0201 0.3822 0.7105
C80 C 0.58873(9) 0.16987(15) 0.56092(16)
C81 C 0.58238(10) 0.10676(16) 0.51070(17)
C82 C 0.56411(11) 0.03628(17) 0.5326(2)
H85 H 0.5597 -0.0064 0.4977
C83 C 0.55258(12) 0.02936(19) 0.6050(2)
H86 H 0.5401 -0.0187 0.6199
C84 C 0.55866(11) 0.09022(18) 0.65675(19)
H87 H 0.5504 0.0845 0.7067
C85 C 0.57723(10) 0.16056(16) 0.63465(17)
C86 C 0.59294(15) 0.0564(2) 0.3883(2)
H88 H 0.6034 0.0735 0.3405
H89 H 0.5604 0.0379 0.3769
H90 H 0.6131 0.0139 0.4113
C87 C 0.57826(14) 0.2156(2) 0.7599(2)
H91 H 0.5854 0.2653 0.7869
H92 H 0.5991 0.1748 0.7849
H93 H 0.5455 0.2012 0.7617
C88 C 0.90918(9) 0.17444(15) 0.43139(16)
C89 C 0.91617(10) 0.11248(16) 0.48262(17)
C90 C 0.93509(12) 0.04218(17) 0.4625(2)
H94 H 0.9399 0.0003 0.4983
C91 C 0.94686(12) 0.03391(18) 0.3900(2)
H95 H 0.9599 -0.0141 0.3762
C92 C 0.94016(11) 0.09385(18) 0.33727(19)
H96 H 0.9487 0.0874 0.2876
C93 C 0.92071(10) 0.16403(16) 0.35744(17)
C94 C 0.90538(17) 0.0641(2) 0.6057(2)
H97 H 0.8948 0.0820 0.6532
H98 H 0.9378 0.0453 0.6175
H99 H 0.8850 0.0216 0.5831
C95 C 0.92197(15) 0.2185(2) 0.2329(2)
H100 H 0.9143 0.2674 0.2048
H101 H 0.9031 0.1759 0.2069
H102 H 0.9554 0.2068 0.2342
C96 C 0.36031(11) 0.5303(2) 0.33725(18)
H103 H 0.3679 0.4957 0.3825
H104 H 0.3401 0.5730 0.3513
Cl1 Cl 0.41222(3) 0.57027(6) 0.31450(5)
Cl2 Cl 0.32944(4) 0.47696(8) 0.26164(6)
C97 C 0.86938(11) 1.0285(2) 0.82326(18)
H105 H 0.8489 1.0710 0.8368
H106 H 0.8754 0.9925 0.8678
Cl3 Cl 0.92254(3) 1.06834(6) 0.80616(5)
Cl4 Cl 0.84008(4) 0.97752(8) 0.74401(6)
loop_
_geom_bond_atom_site_label_1
_geom_bond_atom_site_label_2
_geom_bond_site_symmetry_1
_geom_bond_site_symmetry_2
O1 C52 1_555 1_555
O2 C85 1_555 1_555
O3 C81 1_555 1_555
O4 C89 1_555 1_555
O5 C93 1_555 1_555
N1 H1 1_555 1_555
N2 C6 1_555 1_555
N3 H2 1_555 1_555
N4 C16 1_555 1_555
N5 C21 1_555 1_555
N6 H3 1_555 1_555
N7 C31 1_555 1_555
N8 H4 1_555 1_555
C1 N1 1_555 1_555
C2 C1 1_555 1_555
C3 C2 1_555 1_555
C4 N1 1_555 1_555
C5 C4 1_555 1_555
C6 C5 1_555 1_555
C7 C6 1_555 1_555
C8 C7 1_555 1_555
C9 N2 1_555 1_555
C10 C9 1_555 1_555
H5 C10 1_555 1_555
C11 N3 1_555 1_555
C12 C11 1_555 1_555
C13 C12 1_555 1_555
C14 N3 1_555 1_555
C15 C14 1_555 1_555
C16 C15 1_555 1_555
C17 C16 1_555 1_555
C18 C17 1_555 1_555
C19 N4 1_555 1_555
C20 C1 1_555 1_555
H6 C20 1_555 1_555
C21 C22 1_555 1_555
C22 C23 1_555 1_555
C23 C24 1_555 1_555
C24 N5 1_555 1_555
C25 C24 1_555 1_555
C26 N6 1_555 1_555
C27 C26 1_555 1_555
C28 C27 1_555 1_555
C29 N6 1_555 1_555
C30 C29 1_555 1_555
H7 C30 1_555 1_555
C31 C30 1_555 1_555
C32 C31 1_555 1_555
C33 C32 1_555 1_555
C34 N7 1_555 1_555
C35 C34 1_555 1_555
C36 N8 1_555 1_555
C37 C36 1_555 1_555
C38 C37 1_555 1_555
C39 N8 1_555 1_555
C40 C21 1_555 1_555
H8 C40 1_555 1_555
C41 C5 1_555 1_555
C42 C41 1_555 1_555
H9 C42 1_555 1_555
C43 C42 1_555 1_555
H10 C43 1_555 1_555
C44 C43 1_555 1_555
H11 C44 1_555 1_555
C45 C44 1_555 1_555
C46 C45 1_555 1_555
C47 C46 1_555 1_555
C48 C47 1_555 1_555
H12 C48 1_555 1_555
C49 C48 1_555 1_555
H13 C49 1_555 1_555
C50 C49 1_555 1_555
H14 C50 1_555 1_555
C51 C25 1_555 1_555
C52 C47 1_555 1_555
C53 O1 1_555 1_555
C54 C46 1_555 1_555
H15 C54 1_555 1_555
H16 C54 1_555 1_555
H17 C54 1_555 1_555
C55 C46 1_555 1_555
H18 C55 1_555 1_555
H19 C55 1_555 1_555
H20 C55 1_555 1_555
C56 C2 1_555 1_555
H21 C56 1_555 1_555
H22 C56 1_555 1_555
C57 C56 1_555 1_555
H23 C57 1_555 1_555
H24 C57 1_555 1_555
H25 C57 1_555 1_555
C58 C3 1_555 1_555
H26 C58 1_555 1_555
H27 C58 1_555 1_555
H28 C58 1_555 1_555
C59 C7 1_555 1_555
H29 C59 1_555 1_555
H30 C59 1_555 1_555
H31 C59 1_555 1_555
C60 C8 1_555 1_555
H32 C60 1_555 1_555
H33 C60 1_555 1_555
C61 C60 1_555 1_555
H34 C61 1_555 1_555
H35 C61 1_555 1_555
H36 C61 1_555 1_555
C62 C12 1_555 1_555
H37 C62 1_555 1_555
H38 C62 1_555 1_555
C63 C62 1_555 1_555
H39 C63 1_555 1_555
H40 C63 1_555 1_555
H41 C63 1_555 1_555
C64 C13 1_555 1_555
H42 C64 1_555 1_555
H43 C64 1_555 1_555
H44 C64 1_555 1_555
C65 C17 1_555 1_555
H45 C65 1_555 1_555
H46 C65 1_555 1_555
H47 C65 1_555 1_555
C66 C18 1_555 1_555
H48 C66 1_555 1_555
H49 C66 1_555 1_555
C67 C66 1_555 1_555
H50 C67 1_555 1_555
H51 C67 1_555 1_555
H52 C67 1_555 1_555
C68 C22 1_555 1_555
H53 C68 1_555 1_555
H54 C68 1_555 1_555
C69 C68 1_555 1_555
H55 C69 1_555 1_555
H56 C69 1_555 1_555
H57 C69 1_555 1_555
C70 C23 1_555 1_555
H58 C70 1_555 1_555
H59 C70 1_555 1_555
H60 C70 1_555 1_555
C71 C27 1_555 1_555
H61 C71 1_555 1_555
H62 C71 1_555 1_555
H63 C71 1_555 1_555
C72 C28 1_555 1_555
H64 C72 1_555 1_555
H65 C72 1_555 1_555
C73 C72 1_555 1_555
H66 C73 1_555 1_555
H67 C73 1_555 1_555
H68 C73 1_555 1_555
C74 C32 1_555 1_555
H69 C74 1_555 1_555
H70 C74 1_555 1_555
C75 C74 1_555 1_555
H71 C75 1_555 1_555
H72 C75 1_555 1_555
H73 C75 1_555 1_555
C76 C33 1_555 1_555
H74 C76 1_555 1_555
H75 C76 1_555 1_555
H76 C76 1_555 1_555
C77 C37 1_555 1_555
H77 C77 1_555 1_555
H78 C77 1_555 1_555
H79 C77 1_555 1_555
C78 C38 1_555 1_555
H80 C78 1_555 1_555
H81 C78 1_555 1_555
C79 C78 1_555 1_555
H82 C79 1_555 1_555
H83 C79 1_555 1_555
H84 C79 1_555 1_555
C80 C15 1_555 1_555
C81 C80 1_555 1_555
C82 C81 1_555 1_555
H85 C82 1_555 1_555
C83 C82 1_555 1_555
H86 C83 1_555 1_555
C84 C83 1_555 1_555
H87 C84 1_555 1_555
C85 C80 1_555 1_555
C86 O3 1_555 1_555
H88 C86 1_555 1_555
H89 C86 1_555 1_555
H90 C86 1_555 1_555
C87 O2 1_555 1_555
H91 C87 1_555 1_555
H92 C87 1_555 1_555
H93 C87 1_555 1_555
C88 C35 1_555 1_555
C89 C88 1_555 1_555
C90 C89 1_555 1_555
H94 C90 1_555 1_555
C91 C90 1_555 1_555
H95 C91 1_555 1_555
C92 C91 1_555 1_555
H96 C92 1_555 1_555
C93 C88 1_555 1_555
C94 O4 1_555 1_555
H97 C94 1_555 1_555
H98 C94 1_555 1_555
H99 C94 1_555 1_555
C95 O5 1_555 1_555
H100 C95 1_555 1_555
H101 C95 1_555 1_555
H102 C95 1_555 1_555
C96 H103 1_555 1_555
H104 C96 1_555 1_555
Cl1 C96 1_555 1_555
Cl2 C96 1_555 1_555
C97 H105 1_555 1_555
H106 C97 1_555 1_555
Cl3 C97 1_555 1_555
Cl4 C97 1_555 1_555
C3 C4 1_555 1_555
C8 C9 1_555 1_555
C10 C11 1_555 1_555
C13 C14 1_555 1_555
C18 C19 1_555 1_555
C19 C20 1_555 1_555
C25 C26 1_555 1_555
C28 C29 1_555 1_555
C33 C34 1_555 1_555
C35 C36 1_555 1_555
C38 C39 1_555 1_555
C39 C40 1_555 1_555
C41 C53 1_555 1_555
C45 C53 1_555 1_555
C50 C51 1_555 1_555
C51 C52 1_555 1_555
C84 C85 1_555 1_555
C92 C93 1_555 1_555

#END
