
#######################################################################
#
#                 Cambridge Crystallographic Data Centre
#                                CCDC 
#
#######################################################################
#
# If this CIF has been generated from an entry in the Cambridge 
# Structural Database, then it will include bibliographic, chemical, 
# crystal, experimental, refinement or atomic coordinate data resulting 
# from the CCDC's data processing and validation procedures.
#
#######################################################################

data_XOFBAX
_chemical_formula_moiety         'C22 H19 Cl2 N1 O3'
_chemical_name_systematic        
'ethyl 2,6-bis(4-chlorophenyl)-1-(methylidyne-\l^5^-azanyl)-4-oxocyclohexanecarboxylate'
_symmetry_cell_setting           monoclinic
_symmetry_space_group_name_H-M   'C 2/c'
_symmetry_Int_Tables_number      15
_space_group_name_Hall           '-C 2yn'
loop_
_symmetry_equiv_pos_site_id
_symmetry_equiv_pos_as_xyz
1 x,y,z
2 -x,y,1/2-z
3 1/2+x,1/2+y,z
4 1/2-x,1/2+y,1/2-z
5 -x,-y,-z
6 x,-y,1/2+z
7 1/2-x,1/2-y,-z
8 1/2+x,1/2-y,1/2+z
_cell_length_a                   21.6980(17)
_cell_length_b                   11.0770(19)
_cell_length_c                   17.515(3)
_cell_angle_alpha                90
_cell_angle_beta                 104.535(2)
_cell_angle_gamma                90
_cell_volume                     4074.97
_exptl_crystal_colour            colorless
_exptl_crystal_description       block
_cell_formula_units_Z            8
loop_
_atom_site_label
_atom_site_type_symbol
_atom_site_fract_x
_atom_site_fract_y
_atom_site_fract_z
Cl1 Cl -0.01505(3) 0.07074(6) 0.62309(5)
Cl2 Cl 0.59500(4) 0.06816(9) 0.99930(6)
O1 O 0.30900(7) 0.21848(13) 0.84990(9)
C1 C 0.18929(9) 0.19357(17) 0.66846(12)
C2 C 0.30971(9) 0.15687(17) 0.72324(12)
N1 N 0.30407(9) 0.04712(16) 0.67773(12)
C3 C 0.25594(9) 0.24575(18) 0.68262(12)
H1 H 0.2578 0.3129 0.7196
C4 C 0.42949(9) 0.17517(19) 0.79764(14)
O2 O 0.28944(9) 0.02289(15) 0.82275(11)
C5 C 0.37764(9) 0.21213(18) 0.72628(13)
H2 H 0.3901 0.1767 0.6811
C6 C 0.30148(9) 0.12206(19) 0.80460(13)
C7 C 0.33050(11) 0.3749(2) 0.63092(15)
C8 C 0.15361(10) 0.2176(2) 0.72194(14)
H3 H 0.1719 0.2608 0.7676
O3 O 0.34259(9) 0.45029(17) 0.58723(12)
C9 C 0.09922(11) 0.0868(2) 0.58857(14)
H4 H 0.0811 0.0413 0.5440
C10 C 0.27117(10) 0.2997(2) 0.60953(13)
H5 H 0.2767 0.2352 0.5744
H6 H 0.2358 0.3494 0.5818
C11 C 0.06450(10) 0.1152(2) 0.64196(15)
C12 C 0.37399(10) 0.34828(19) 0.71039(14)
H7 H 0.3584 0.3888 0.7509
H8 H 0.4162 0.3791 0.7125
C13 C 0.16142(10) 0.12688(19) 0.60210(13)
H9 H 0.1849 0.1086 0.5659
C14 C 0.30188(13) 0.2027(3) 0.93036(14)
H10 H 0.2595 0.2272 0.9327
H11 H 0.3074 0.1183 0.9452
C15 C 0.09146(11) 0.1789(2) 0.70886(16)
H12 H 0.0680 0.1961 0.7453
C16 C 0.46190(11) 0.2575(2) 0.85150(16)
H13 H 0.4496 0.3381 0.8459
C17 C 0.44867(12) 0.0562(2) 0.80921(17)
H14 H 0.4275 -0.0025 0.7744
C18 C 0.53022(11) 0.1084(3) 0.92278(17)
C19 C 0.49881(14) 0.0224(3) 0.87177(19)
H15 H 0.5109 -0.0582 0.8789
C20 C 0.30053(14) -0.0380(2) 0.63980(18)
C21 C 0.51188(12) 0.2252(3) 0.91352(18)
H16 H 0.5329 0.2834 0.9489
C22 C 0.34862(18) 0.2745(3) 0.98441(18)
H17 H 0.3437 0.2640 1.0370
H18 H 0.3428 0.3581 0.9698
H19 H 0.3905 0.2493 0.9825
loop_
_geom_bond_atom_site_label_1
_geom_bond_atom_site_label_2
_geom_bond_site_symmetry_1
_geom_bond_site_symmetry_2
Cl1 C11 1_555 1_555
Cl2 C18 1_555 1_555
O1 C6 1_555 1_555
C1 C3 1_555 1_555
C2 N1 1_555 1_555
N1 C20 1_555 1_555
C3 C2 1_555 1_555
H1 C3 1_555 1_555
C4 C5 1_555 1_555
O2 C6 1_555 1_555
C5 C2 1_555 1_555
H2 C5 1_555 1_555
C6 C2 1_555 1_555
C7 O3 1_555 1_555
C8 C1 1_555 1_555
H3 C8 1_555 1_555
C9 H4 1_555 1_555
C10 C3 1_555 1_555
H5 C10 1_555 1_555
H6 C10 1_555 1_555
C11 C9 1_555 1_555
C12 C5 1_555 1_555
H7 C12 1_555 1_555
H8 C12 1_555 1_555
C13 C1 1_555 1_555
H9 C13 1_555 1_555
C14 O1 1_555 1_555
H10 C14 1_555 1_555
H11 C14 1_555 1_555
C15 C8 1_555 1_555
H12 C15 1_555 1_555
C16 C4 1_555 1_555
H13 C16 1_555 1_555
C17 C4 1_555 1_555
H14 C17 1_555 1_555
C18 C19 1_555 1_555
C19 C17 1_555 1_555
H15 C19 1_555 1_555
C21 C16 1_555 1_555
H16 C21 1_555 1_555
C22 C14 1_555 1_555
H17 C22 1_555 1_555
H18 C22 1_555 1_555
H19 C22 1_555 1_555
C7 C10 1_555 1_555
C7 C12 1_555 1_555
C9 C13 1_555 1_555
C11 C15 1_555 1_555
C18 C21 1_555 1_555

#END
