
#######################################################################
#
#                 Cambridge Crystallographic Data Centre
#                                CCDC 
#
#######################################################################
#
# If this CIF has been generated from an entry in the Cambridge 
# Structural Database, then it will include bibliographic, chemical, 
# crystal, experimental, refinement or atomic coordinate data resulting 
# from the CCDC's data processing and validation procedures.
#
#######################################################################

data_XOFVIX
_chemical_formula_moiety         'C23 H21 Br1 N2 O5'
_chemical_name_systematic        
'(3aS,4R,7R,8aS,8bR)- (3aR,4S,7R,8aR,8bS)-2-[(1,3-benzodioxol-5-yl)methyl ]-4-(4-bromophenyl)-2,3,3a,4,5,6,7,8,8a,8b-decahydro-7-hydroxy-1H-pyrrolo[3,4-a]pyrrolizin-1,3-dione'
_symmetry_cell_setting           monoclinic
_symmetry_space_group_name_H-M   'P 21'
_symmetry_Int_Tables_number      4
_space_group_name_Hall           'P 2yb'
loop_
_symmetry_equiv_pos_site_id
_symmetry_equiv_pos_as_xyz
1 x,y,z
2 -x,1/2+y,-z
_cell_length_a                   10.744(10)
_cell_length_b                   17.476(12)
_cell_length_c                   10.856(8)
_cell_angle_alpha                90
_cell_angle_beta                 92.30(7)
_cell_angle_gamma                90
_cell_volume                     2036.7
_exptl_crystal_colour            colorless
_exptl_crystal_description       prism
_chemical_melting_point          '160 deg.C'
_cell_formula_units_Z            4
loop_
_atom_site_label
_atom_site_type_symbol
_atom_site_fract_x
_atom_site_fract_y
_atom_site_fract_z
O1 O 0.6795(6) 0.3859(4) 0.6615(6)
Br1 Br 1.3560(2) 0.73182(9) 0.8596(2)
O2 O 0.5660(9) 0.5968(8) 1.0721(12)
O3 O 0.9737(9) 0.6216(8) 1.1817(11)
O4 O 0.9075(9) 0.8694(8) 0.8608(11)
O5 O 0.7172(10) 0.9250(8) 0.8173(12)
N1 N 0.8115(10) 0.5242(6) 0.8621(9)
N2 N 0.7659(10) 0.6258(6) 1.1336(13)
C1 C 0.6743(11) 0.5793(8) 1.0813(15)
C2 C 0.7306(10) 0.5025(7) 1.0559(11)
H1 H 0.6997(10) 0.4624(7) 1.1068(11)
C3 C 0.7101(10) 0.4828(8) 0.9176(11)
H2 H 0.6307(10) 0.5018(8) 0.8877(11)
C4 C 0.9222(9) 0.5106(8) 0.9426(10)
H3 H 0.9497(9) 0.4594(8) 0.9263(10)
C5 C 0.8690(10) 0.5152(7) 1.0747(10)
H4 H 0.9056(10) 0.4766(7) 1.1275(10)
C6 C 0.8828(11) 0.5923(8) 1.1335(15)
C7 C 0.7271(12) 0.3986(7) 0.8827(12)
H5 H 0.6497(12) 0.3711(7) 0.8811(12)
H6 H 0.7856(12) 0.3737(7) 0.9385(12)
C8 C 0.7719(12) 0.4050(8) 0.7484(11)
H7 H 0.8415(12) 0.3712(8) 0.7400(11)
C9 C 0.8212(13) 0.4867(8) 0.7412(10)
H8 H 0.9055(13) 0.4893(8) 0.7151(10)
H9 H 0.7685(13) 0.5135(8) 0.6821(10)
C10 C 1.0271(10) 0.5657(8) 0.9182(14)
C11 C 1.0056(11) 0.6390(8) 0.8823(16)
H10 H 0.9210(11) 0.6564(8) 0.8724(16)
C12 C 1.1042(11) 0.6893(8) 0.8613(17)
H11 H 1.0895(11) 0.7409(8) 0.8340(17)
C13 C 1.2238(11) 0.6643(8) 0.8827(17)
C14 C 1.2472(11) 0.5896(8) 0.9153(16)
H12 H 1.3321(11) 0.5731(8) 0.9273(16)
C15 C 1.1498(11) 0.5402(8) 0.9325(16)
H13 H 1.1652(11) 0.4881(8) 0.9562(16)
C16 C 0.7439(12) 0.7011(7) 1.1832(13)
H14 H 0.8106(12) 0.7142(7) 1.2409(13)
H15 H 0.6679(12) 0.6999(7) 1.2266(13)
C17 C 0.7321(13) 0.7626(8) 1.0856(14)
C18 C 0.8368(11) 0.7863(9) 1.0242(14)
H16 H 0.9187(11) 0.7696(9) 1.0507(14)
C19 C 0.8197(11) 0.8376(9) 0.9339(14)
C20 C 0.7073(11) 0.8727(10) 0.9103(15)
C21 C 0.6030(11) 0.8519(9) 0.9679(15)
H17 H 0.5239(11) 0.8756(9) 0.9489(15)
C22 C 0.6187(11) 0.7955(9) 1.0564(14)
H18 H 0.5470(11) 0.7773(9) 1.0976(14)
C23 C 0.8403(13) 0.9207(10) 0.7787(14)
H19 H 0.8413(13) 0.9023(10) 0.6955(14)
H20 H 0.8777(13) 0.9706(10) 0.7825(14)
H21 H 0.6269(66) 0.4235(36) 0.6604(92)
O6 O 0.5993(6) 0.2437(4) 0.7298(7)
Br2 Br 0.1379(2) -0.1174 0.6358(2)
O7 O 0.9295(9) 0.0099(8) 0.4251(12)
O8 O 0.5168(9) -0.0046(8) 0.3223(11)
O9 O 0.5895(8) -0.2627(8) 0.6409(11)
O10 O 0.7837(9) -0.3144(8) 0.6827(12)
N3 N 0.6896(10) 0.0806(6) 0.6402(10)
N4 N 0.7265(10) -0.0154(6) 0.3690(13)
C24 C 0.8241(11) 0.0309(8) 0.4115(15)
C25 C 0.7716(10) 0.1067(7) 0.4488(11)
H22 H 0.8046(10) 0.1465(7) 0.3986(11)
C26 C 0.7942(10) 0.1216(8) 0.5858(11)
H23 H 0.8711(10) 0.0983(8) 0.6140(11)
C27 C 0.5781(9) 0.1005(8) 0.5612(11)
H24 H 0.5522(9) 0.1519(8) 0.5782(11)
C28 C 0.6296(10) 0.0979(7) 0.4304(10)
H25 H 0.5954(10) 0.1383(7) 0.3796(10)
C29 C 0.6139(11) 0.0222(8) 0.3646(15)
C30 C 0.7913(12) 0.2039(7) 0.6299(12)
H26 H 0.7492(12) 0.2343(7) 0.5674(12)
H27 H 0.8739(12) 0.2237(7) 0.6448(12)
C31 C 0.7128(13) 0.2032(8) 0.7436(12)
H28 H 0.7618(13) 0.2230(8) 0.8123(12)
C32 C 0.6852(14) 0.1174(9) 0.7637(10)
H29 H 0.7428(14) 0.0934(9) 0.8215(10)
H30 H 0.6028(14) 0.1133(9) 0.7940(10)
C33 C 0.4688(10) 0.0481(8) 0.5864(14)
C34 C 0.4909(11) -0.0266(8) 0.6233(16)
H31 H 0.5744(11) -0.0434(8) 0.6428(16)
C35 C 0.3912(11) -0.0765(8) 0.6356(17)
H32 H 0.4041(11) -0.1294(8) 0.6565(17)
C36 C 0.2746(11) -0.0501(8) 0.6210(17)
C37 C 0.2496(11) 0.0247(8) 0.5867(16)
H33 H 0.1653(11) 0.0426(8) 0.5766(16)
C38 C 0.3490(11) 0.0725(8) 0.5693(16)
H34 H 0.3354(11) 0.1250(8) 0.5462(16)
C39 C 0.7475(12) -0.0916(7) 0.3172(13)
H35 H 0.8210(12) -0.0912(7) 0.2697(13)
H36 H 0.6776(12) -0.1042(7) 0.2631(13)
C40 C 0.7604(13) -0.1525(8) 0.4150(15)
C41 C 0.6560(11) -0.1754(9) 0.4797(14)
H37 H 0.5766(11) -0.1509(9) 0.4675(14)
C42 C 0.6760(11) -0.2305(9) 0.5647(14)
C43 C 0.7907(11) -0.2590(10) 0.5941(15)
C44 C 0.8928(11) -0.2407(9) 0.5308(14)
H38 H 0.9728(11) -0.2634(9) 0.5491(14)
C45 C 0.8743(11) -0.1849(9) 0.4423(15)
H39 H 0.9429(11) -0.1702(9) 0.3934(15)
C46 C 0.6600(13) -0.3112(10) 0.7242(15)
H40 H 0.6240(13) -0.3615(10) 0.7259(15)
H41 H 0.6606(13) -0.2899(10) 0.8058(15)
H42 H 0.6269(77) 0.2924(25) 0.7186(83)
loop_
_geom_bond_atom_site_label_1
_geom_bond_atom_site_label_2
_geom_bond_site_symmetry_1
_geom_bond_site_symmetry_2
O1 C8 1_555 1_555
Br1 C13 1_555 1_555
O2 C1 1_555 1_555
O3 C6 1_555 1_555
O4 C19 1_555 1_555
O5 C20 1_555 1_555
N1 C3 1_555 1_555
N2 C1 1_555 1_555
C1 C2 1_555 1_555
C2 H1 1_555 1_555
C3 C2 1_555 1_555
H2 C3 1_555 1_555
C4 N1 1_555 1_555
H3 C4 1_555 1_555
C5 C2 1_555 1_555
H4 C5 1_555 1_555
C6 N2 1_555 1_555
C7 C3 1_555 1_555
H5 C7 1_555 1_555
H6 C7 1_555 1_555
C8 C7 1_555 1_555
H7 C8 1_555 1_555
C9 N1 1_555 1_555
H8 C9 1_555 1_555
H9 C9 1_555 1_555
C10 C4 1_555 1_555
C11 C10 1_555 1_555
H10 C11 1_555 1_555
C12 C11 1_555 1_555
H11 C12 1_555 1_555
C13 C12 1_555 1_555
C14 C13 1_555 1_555
H12 C14 1_555 1_555
C15 C10 1_555 1_555
H13 C15 1_555 1_555
C16 N2 1_555 1_555
H14 C16 1_555 1_555
H15 C16 1_555 1_555
C17 C16 1_555 1_555
C18 C17 1_555 1_555
H16 C18 1_555 1_555
C19 C18 1_555 1_555
C20 C19 1_555 1_555
C21 C20 1_555 1_555
H17 C21 1_555 1_555
C22 C17 1_555 1_555
H18 C22 1_555 1_555
C23 O4 1_555 1_555
H19 C23 1_555 1_555
H20 C23 1_555 1_555
H21 O1 1_555 1_555
O6 C31 1_555 1_555
Br2 C36 1_555 1_555
O7 C24 1_555 1_555
O8 C29 1_555 1_555
O9 C42 1_555 1_555
O10 C43 1_555 1_555
N3 C26 1_555 1_555
N4 C24 1_555 1_555
C24 C25 1_555 1_555
C25 H22 1_555 1_555
C26 C25 1_555 1_555
H23 C26 1_555 1_555
C27 N3 1_555 1_555
H24 C27 1_555 1_555
C28 C25 1_555 1_555
H25 C28 1_555 1_555
C29 N4 1_555 1_555
C30 C26 1_555 1_555
H26 C30 1_555 1_555
H27 C30 1_555 1_555
C31 C30 1_555 1_555
H28 C31 1_555 1_555
C32 N3 1_555 1_555
H29 C32 1_555 1_555
H30 C32 1_555 1_555
C33 C27 1_555 1_555
C34 C33 1_555 1_555
H31 C34 1_555 1_555
C35 C34 1_555 1_555
H32 C35 1_555 1_555
C36 C35 1_555 1_555
C37 C36 1_555 1_555
H33 C37 1_555 1_555
C38 C33 1_555 1_555
H34 C38 1_555 1_555
C39 N4 1_555 1_555
H35 C39 1_555 1_555
H36 C39 1_555 1_555
C40 C39 1_555 1_555
C41 C40 1_555 1_555
H37 C41 1_555 1_555
C42 C41 1_555 1_555
C43 C42 1_555 1_555
C44 C43 1_555 1_555
H38 C44 1_555 1_555
C45 C40 1_555 1_555
H39 C45 1_555 1_555
C46 O9 1_555 1_555
H40 C46 1_555 1_555
H41 C46 1_555 1_555
H42 O6 1_555 1_555
O5 C23 1_555 1_555
C4 C5 1_555 1_555
C5 C6 1_555 1_555
C8 C9 1_555 1_555
C14 C15 1_555 1_555
C21 C22 1_555 1_555
O10 C46 1_555 1_555
C27 C28 1_555 1_555
C28 C29 1_555 1_555
C31 C32 1_555 1_555
C37 C38 1_555 1_555
C44 C45 1_555 1_555

#END
