
#######################################################################
#
#                 Cambridge Crystallographic Data Centre
#                                CCDC 
#
#######################################################################
#
# If this CIF has been generated from an entry in the Cambridge 
# Structural Database, then it will include bibliographic, chemical, 
# crystal, experimental, refinement or atomic coordinate data resulting 
# from the CCDC's data processing and validation procedures.
#
#######################################################################

data_XOGWUM
_chemical_compound_source        'roots of Aconitum carmichaeli Debx'
_chemical_name_common            Delgradine
_chemical_formula_moiety         'C41 H43 N1 O12'
_chemical_name_systematic        
(1\a,2\b,3\a,7\a,11\a,13\b)-1,3,11-Triacetoxy-2,13-bis(benzyloxy)-7-hydroxy-21-methyl-N,19-secohetisan-19-al
_symmetry_cell_setting           monoclinic
_symmetry_space_group_name_H-M   'C 2'
_symmetry_Int_Tables_number      5
_space_group_name_Hall           'C 2y'
loop_
_symmetry_equiv_pos_site_id
_symmetry_equiv_pos_as_xyz
1 x,y,z
2 -x,y,-z
3 1/2+x,1/2+y,z
4 1/2-x,1/2+y,-z
_cell_length_a                   19.892(4)
_cell_length_b                   11.307(5)
_cell_length_c                   16.825(5)
_cell_angle_alpha                90
_cell_angle_beta                 91.07(2)
_cell_angle_gamma                90
_cell_volume                     3783.6
_exptl_crystal_colour            colorless
_exptl_crystal_description       block
_cell_formula_units_Z            4
loop_
_atom_site_label
_atom_site_type_symbol
_atom_site_fract_x
_atom_site_fract_y
_atom_site_fract_z
N1 N 0.10745(17) 0.5052(3) 0.8921(2)
O1 O 0.21024(15) 0.8335(3) 0.78232(16)
O2 O 0.26263(18) 0.8288(3) 0.6655(2)
O3 O 0.12403(14) 0.5813(3) 0.69392(16)
O4 O 0.1133(2) 0.6310(4) 0.5646(2)
O5 O 0.01724(15) 0.7482(3) 0.69724(18)
O6 O 0.0463(4) 0.9136(5) 0.6367(3)
O7 O 0.14601(16) 0.5003(3) 1.06651(19)
H1 H 0.1100 0.5065 1.0891
O8 O 0.33185(14) 0.7260(3) 0.82500(17)
O9 O 0.43602(17) 0.7575(4) 0.8731(2)
O10 O 0.30189(15) 0.4752(3) 0.80593(17)
O11 O 0.2702(2) 0.2863(3) 0.7952(2)
O12 O -0.03068(16) 0.5601(4) 0.8561(2)
C1 C 0.1948(2) 0.7076(4) 0.7724(2)
H2 H 0.2332 0.6668 0.7492
C2 C 0.1350(2) 0.7038(4) 0.7150(3)
H3 H 0.1462 0.7480 0.6670
C3 C 0.0741(2) 0.7595(4) 0.7516(2)
H4 H 0.0834 0.8440 0.7586
C4 C 0.0528(2) 0.7102(4) 0.8317(3)
C5 C 0.1138(2) 0.7027(4) 0.8903(2)
H5 H 0.1200 0.7777 0.9187
C6 C 0.1016(2) 0.6019(5) 0.9487(3)
H6 H 0.0562 0.6059 0.9702
C7 C 0.1547(2) 0.5984(4) 1.0151(2)
H7 H 0.1519 0.6714 1.0462
C8 C 0.2248(2) 0.5890(4) 0.9808(2)
C9 C 0.2367(2) 0.6898(4) 0.9200(2)
H8 H 0.2253 0.7655 0.9447
C10 C 0.1821(2) 0.6595(4) 0.8551(2)
C11 C 0.3135(2) 0.6881(4) 0.9037(3)
H9 H 0.3342 0.7447 0.9409
C12 C 0.3439(2) 0.5665(4) 0.9241(3)
H10 H 0.3893 0.5599 0.9028
C13 C 0.2999(2) 0.4682(4) 0.8923(3)
H11 H 0.3182 0.3919 0.9099
C14 C 0.2277(2) 0.4820(4) 0.9232(2)
H12 H 0.2133 0.4095 0.9499
C15 C 0.2779(2) 0.5792(5) 1.0474(2)
H13 H 0.2780 0.6510 1.0790
H14 H 0.2670 0.5135 1.0819
C16 C 0.3465(2) 0.5605(4) 1.0133(3)
C17 C 0.4016(3) 0.5488(7) 1.0559(4)
H15 H 0.4429 0.5437 1.0311
H16 H 0.3995 0.5457 1.1110
C18 C -0.0002(2) 0.7940(5) 0.8672(3)
H17 H -0.0377 0.8012 0.8307
H18 H 0.0195 0.8704 0.8761
H19 H -0.0153 0.7623 0.9167
C19 C 0.0189(2) 0.5891(5) 0.8198(3)
H20 H 0.0370 0.5363 0.7836
C20 C 0.1745(2) 0.5210(4) 0.8599(3)
H21 H 0.1800 0.4818 0.8085
C21 C 0.0857(3) 0.3858(5) 0.9132(3)
H22 H 0.0379 0.3856 0.9208
H23 H 0.1082 0.3616 0.9615
H24 H 0.0966 0.3321 0.8712
C22 C 0.2639(4) 1.0078(5) 0.7406(4)
H25 H 0.2896 1.0390 0.6977
H26 H 0.2899 1.0123 0.7891
H27 H 0.2234 1.0531 0.7459
C23 C 0.2465(3) 0.8829(5) 0.7239(3)
C24 C 0.0951(3) 0.3908(6) 0.5239(4)
H28 H 0.0961 0.4448 0.4823
C25 C 0.0857(4) 0.2712(8) 0.5086(5)
H29 H 0.0815 0.2450 0.4564
C26 C 0.0826(3) 0.1918(7) 0.5692(5)
H30 H 0.0760 0.1120 0.5580
C27 C 0.0890(3) 0.2280(6) 0.6458(4)
H31 H 0.0867 0.1735 0.6870
C28 C 0.0991(3) 0.3476(5) 0.6623(4)
H32 H 0.1032 0.3727 0.7148
C29 C 0.1030(2) 0.4288(5) 0.6018(3)
C30 C 0.1133(2) 0.5557(5) 0.6152(3)
C31 C -0.0498(3) 0.8056(9) 0.5893(4)
H33 H -0.0428 0.7302 0.5647
H34 H -0.0546 0.8653 0.5490
H35 H -0.0898 0.8028 0.6203
C32 C 0.0092(3) 0.8346(8) 0.6421(4)
C33 C 0.4142(3) 0.7951(8) 0.7368(4)
H36 H 0.4389 0.7336 0.7111
H37 H 0.4410 0.8656 0.7394
H38 H 0.3735 0.8108 0.7071
C34 C 0.3974(3) 0.7571(5) 0.8182(3)
C35 C 0.2721(3) 0.3096(6) 0.6249(3)
H39 H 0.2602 0.2358 0.6447
C36 C 0.2733(3) 0.3267(7) 0.5437(4)
H40 H 0.2634 0.2647 0.5091
C37 C 0.2888(3) 0.4340(8) 0.5155(4)
H41 H 0.2901 0.4461 0.4608
C38 C 0.3029(3) 0.5266(6) 0.5663(3)
H42 H 0.3121 0.6013 0.5462
C39 C 0.3033(3) 0.5082(5) 0.6456(3)
H43 H 0.3140 0.5705 0.6796
C40 C 0.2881(2) 0.3992(5) 0.6772(3)
C41 C 0.2861(3) 0.3773(5) 0.7645(3)
loop_
_geom_bond_atom_site_label_1
_geom_bond_atom_site_label_2
_geom_bond_site_symmetry_1
_geom_bond_site_symmetry_2
N1 C6 1_555 1_555
O1 C1 1_555 1_555
O2 C23 1_555 1_555
O3 C2 1_555 1_555
O4 C30 1_555 1_555
O5 C3 1_555 1_555
O6 C32 1_555 1_555
O7 H1 1_555 1_555
O8 C11 1_555 1_555
O9 C34 1_555 1_555
O10 C13 1_555 1_555
O11 C41 1_555 1_555
O12 C19 1_555 1_555
C1 H2 1_555 1_555
C2 C1 1_555 1_555
H3 C2 1_555 1_555
C3 C2 1_555 1_555
H4 C3 1_555 1_555
C4 C3 1_555 1_555
C5 C4 1_555 1_555
H5 C5 1_555 1_555
C6 C5 1_555 1_555
H6 C6 1_555 1_555
C7 O7 1_555 1_555
H7 C7 1_555 1_555
C8 C7 1_555 1_555
C9 C8 1_555 1_555
H8 C9 1_555 1_555
C10 C1 1_555 1_555
C11 C9 1_555 1_555
H9 C11 1_555 1_555
C12 C11 1_555 1_555
H10 C12 1_555 1_555
C13 C12 1_555 1_555
H11 C13 1_555 1_555
C14 C8 1_555 1_555
H12 C14 1_555 1_555
C15 C8 1_555 1_555
H13 C15 1_555 1_555
H14 C15 1_555 1_555
C16 C12 1_555 1_555
C17 C16 1_555 1_555
H15 C17 1_555 1_555
H16 C17 1_555 1_555
C18 C4 1_555 1_555
H17 C18 1_555 1_555
H18 C18 1_555 1_555
H19 C18 1_555 1_555
C19 C4 1_555 1_555
H20 C19 1_555 1_555
C20 N1 1_555 1_555
H21 C20 1_555 1_555
C21 N1 1_555 1_555
H22 C21 1_555 1_555
H23 C21 1_555 1_555
H24 C21 1_555 1_555
C22 H25 1_555 1_555
H26 C22 1_555 1_555
H27 C22 1_555 1_555
C23 O1 1_555 1_555
C24 H28 1_555 1_555
C25 C24 1_555 1_555
H29 C25 1_555 1_555
C26 C25 1_555 1_555
H30 C26 1_555 1_555
C27 C26 1_555 1_555
H31 C27 1_555 1_555
C28 C27 1_555 1_555
H32 C28 1_555 1_555
C29 C24 1_555 1_555
C30 O3 1_555 1_555
C31 H33 1_555 1_555
H34 C31 1_555 1_555
H35 C31 1_555 1_555
C32 O5 1_555 1_555
C33 H36 1_555 1_555
H37 C33 1_555 1_555
H38 C33 1_555 1_555
C34 O8 1_555 1_555
C35 H39 1_555 1_555
C36 C35 1_555 1_555
H40 C36 1_555 1_555
C37 C36 1_555 1_555
H41 C37 1_555 1_555
C38 C37 1_555 1_555
H42 C38 1_555 1_555
C39 C38 1_555 1_555
H43 C39 1_555 1_555
C40 C35 1_555 1_555
C41 O10 1_555 1_555
C5 C10 1_555 1_555
C6 C7 1_555 1_555
C9 C10 1_555 1_555
C10 C20 1_555 1_555
C13 C14 1_555 1_555
C14 C20 1_555 1_555
C15 C16 1_555 1_555
C22 C23 1_555 1_555
C28 C29 1_555 1_555
C29 C30 1_555 1_555
C31 C32 1_555 1_555
C33 C34 1_555 1_555
C39 C40 1_555 1_555
C40 C41 1_555 1_555

#END
