
#######################################################################
#
#                 Cambridge Crystallographic Data Centre
#                                CCDC 
#
#######################################################################
#
# If this CIF has been generated from an entry in the Cambridge 
# Structural Database, then it will include bibliographic, chemical, 
# crystal, experimental, refinement or atomic coordinate data resulting 
# from the CCDC's data processing and validation procedures.
#
#######################################################################

data_XOGZAW
_chemical_formula_moiety         'C13 H11 F3 N2 O2'
_chemical_name_systematic        
'benzyl 4-methyl-3-(trifluoromethyl)-1H-pyrazole-5-carboxylate'
_symmetry_cell_setting           monoclinic
_symmetry_space_group_name_H-M   'C 2/c'
_symmetry_Int_Tables_number      15
_space_group_name_Hall           '-C 2yn'
loop_
_symmetry_equiv_pos_site_id
_symmetry_equiv_pos_as_xyz
1 x,y,z
2 -x,y,1/2-z
3 1/2+x,1/2+y,z
4 1/2-x,1/2+y,1/2-z
5 -x,-y,-z
6 x,-y,1/2+z
7 1/2-x,1/2-y,-z
8 1/2+x,1/2-y,1/2+z
_cell_length_a                   29.895(18)
_cell_length_b                   12.375(7)
_cell_length_c                   15.464(9)
_cell_angle_alpha                90
_cell_angle_beta                 107.104(6)
_cell_angle_gamma                90
_cell_volume                     5467.89
_exptl_crystal_colour            colorless
_exptl_crystal_description       block
_cell_formula_units_Z            16
loop_
_atom_site_label
_atom_site_type_symbol
_atom_site_fract_x
_atom_site_fract_y
_atom_site_fract_z
C1 C 1.08638(14) 0.5641(3) 0.1777(3)
C2 C 1.03846(11) 0.5192(2) 0.15056(19)
C3 C 0.99618(11) 0.5735(2) 0.11461(19)
C4 C 0.96286(10) 0.4934(2) 0.10564(18)
C5 C 0.91175(12) 0.4994(2) 0.0745(2)
C6 C 0.84108(11) 0.4028(3) 0.0509(3)
H1 H 0.8300 0.4305 -0.0104
H2 H 0.8283 0.4476 0.0894
C7 C 0.82547(10) 0.2884(3) 0.0535(2)
C8 C 0.83483(12) 0.2133(3) -0.0036(3)
H3 H 0.8520 0.2329 -0.0424
C9 C 0.81909(13) 0.1097(3) -0.0040(3)
H4 H 0.8255 0.0594 -0.0435
C10 C 0.79426(13) 0.0792(4) 0.0526(3)
H5 H 0.7837 0.0084 0.0518
C11 C 0.78478(13) 0.1528(5) 0.1109(3)
H6 H 0.7678 0.1324 0.1498
C12 C 0.80059(12) 0.2570(4) 0.1113(2)
H7 H 0.7944 0.3070 0.1512
C13 C 0.98792(17) 0.6913(3) 0.0910(3)
H8 H 0.9665 0.6981 0.0313
H9 H 1.0171 0.7253 0.0929
H10 H 0.9749 0.7257 0.1338
F1 F 1.09187(10) 0.6382(3) 0.2411(2)
F2 F 1.11879(9) 0.4925(2) 0.2127(3)
F3 F 1.09729(11) 0.6120(3) 0.1121(2)
N1 N 1.03246(8) 0.41388(18) 0.16378(17)
N2 N 0.98626(8) 0.40024(17) 0.13521(16)
H11 H 0.9768 0.3354 0.1476
O1 O 0.89056(10) 0.5802(2) 0.0446(2)
O2 O 0.89197(7) 0.40589(17) 0.08258(16)
C14 C 0.03572(12) 0.0563(3) 0.4146(3)
C15 C 0.05671(9) 0.0966(2) 0.3456(2)
C16 C 0.08392(9) 0.0402(2) 0.30060(19)
C17 C 0.09422(8) 0.1171(2) 0.24504(18)
C18 C 0.12246(9) 0.1091(2) 0.18196(19)
C19 C 0.15144(11) 0.2069(3) 0.0768(2)
H12 H 0.1386 0.2600 0.0299
H13 H 0.1510 0.1371 0.0479
C20 C 0.20086(11) 0.2365(3) 0.1265(2)
C21 C 0.21226(18) 0.3383(4) 0.1604(3)
H14 H 0.1891 0.3909 0.1515
C22 C 0.2587(3) 0.3642(5) 0.2088(4)
H15 H 0.2662 0.4338 0.2311
C23 C 0.2924(2) 0.2872(8) 0.2228(5)
H16 H 0.3232 0.3041 0.2547
C24 C 0.28171(18) 0.1886(7) 0.1912(5)
H17 H 0.3051 0.1364 0.2012
C25 C 0.23649(13) 0.1618(4) 0.1437(4)
H18 H 0.2298 0.0914 0.1226
C26 C 0.09784(13) -0.0769(2) 0.3096(3)
H19 H 0.0897 -0.1096 0.2507
H20 H 0.0817 -0.1133 0.3464
H21 H 0.1310 -0.0825 0.3373
F4 F 0.00818(13) 0.1261(2) 0.4366(2)
F5 F 0.00579(10) -0.0239(2) 0.3839(2)
F6 F 0.06509(10) 0.0171(4) 0.4844(2)
N3 N 0.05070(8) 0.19991(18) 0.32006(17)
N4 N 0.07381(7) 0.21034(16) 0.25870(16)
H22 H 0.0743 0.2710 0.2281
O3 O 0.14363(8) 0.02928(17) 0.17249(15)
O4 O 0.12262(7) 0.20219(17) 0.13840(15)
loop_
_geom_bond_atom_site_label_1
_geom_bond_atom_site_label_2
_geom_bond_site_symmetry_1
_geom_bond_site_symmetry_2
C1 C2 1_555 1_555
C2 C3 1_555 1_555
C3 C4 1_555 1_555
C4 C5 1_555 1_555
C5 O1 1_555 1_555
C6 H1 1_555 1_555
H2 C6 1_555 1_555
C7 C6 1_555 1_555
C8 C7 1_555 1_555
H3 C8 1_555 1_555
C9 C8 1_555 1_555
H4 C9 1_555 1_555
C10 C9 1_555 1_555
H5 C10 1_555 1_555
C11 C10 1_555 1_555
H6 C11 1_555 1_555
C12 C7 1_555 1_555
H7 C12 1_555 1_555
C13 C3 1_555 1_555
H8 C13 1_555 1_555
H9 C13 1_555 1_555
H10 C13 1_555 1_555
F1 C1 1_555 1_555
F2 C1 1_555 1_555
F3 C1 1_555 1_555
N1 C2 1_555 1_555
N2 C4 1_555 1_555
H11 N2 1_555 1_555
O2 C5 1_555 1_555
C14 C15 1_555 1_555
C15 C16 1_555 1_555
C16 C17 1_555 1_555
C17 C18 1_555 1_555
C18 O3 1_555 1_555
C19 H12 1_555 1_555
H13 C19 1_555 1_555
C20 C19 1_555 1_555
C21 C20 1_555 1_555
H14 C21 1_555 1_555
C22 C21 1_555 1_555
H15 C22 1_555 1_555
C23 C22 1_555 1_555
H16 C23 1_555 1_555
C24 C23 1_555 1_555
H17 C24 1_555 1_555
C25 C20 1_555 1_555
H18 C25 1_555 1_555
C26 C16 1_555 1_555
H19 C26 1_555 1_555
H20 C26 1_555 1_555
H21 C26 1_555 1_555
F4 C14 1_555 1_555
F5 C14 1_555 1_555
F6 C14 1_555 1_555
N3 C15 1_555 1_555
N4 C17 1_555 1_555
H22 N4 1_555 1_555
O4 C18 1_555 1_555
C6 O2 1_555 1_555
C11 C12 1_555 1_555
N1 N2 1_555 1_555
C19 O4 1_555 1_555
C24 C25 1_555 1_555
N3 N4 1_555 1_555

#END
