
#######################################################################
#
#                 Cambridge Crystallographic Data Centre
#                                CCDC 
#
#######################################################################
#
# If this CIF has been generated from an entry in the Cambridge 
# Structural Database, then it will include bibliographic, chemical, 
# crystal, experimental, refinement or atomic coordinate data resulting 
# from the CCDC's data processing and validation procedures.
#
#######################################################################

data_XOHRIV
_chemical_formula_moiety         'C27 H35 F1 N2 O4'
_chemical_name_systematic        
'Ethyl 4-((4-(dodecanoyloxy)-2-fluorophenyl)diazenyl)benzoate'
_symmetry_cell_setting           triclinic
_symmetry_space_group_name_H-M   'P -1'
_symmetry_Int_Tables_number      2
_space_group_name_Hall           '-P 1'
loop_
_symmetry_equiv_pos_site_id
_symmetry_equiv_pos_as_xyz
1 x,y,z
2 -x,-y,-z
_cell_length_a                   5.3563(9)
_cell_length_b                   6.3360(11)
_cell_length_c                   37.519(6)
_cell_angle_alpha                87.162(3)
_cell_angle_beta                 87.465(3)
_cell_angle_gamma                77.650(2)
_cell_volume                     1241.57
_cell_formula_units_Z            2
loop_
_atom_site_label
_atom_site_type_symbol
_atom_site_fract_x
_atom_site_fract_y
_atom_site_fract_z
F1 F 0.8485(6) -0.6461(5) 0.28200(8)
O1 O 0.3555(7) 0.0453(5) 0.25135(9)
O2 O 0.0468(8) -0.0474(6) 0.22097(11)
O3 O 0.6109(7) -1.7065(6) 0.43153(10)
O4 O 0.2040(7) -1.5742(5) 0.45018(10)
N1 N 0.4895(8) -0.7443(6) 0.32919(11)
N2 N 0.3163(8) -0.7649(7) 0.35163(12)
C1 C 0.3822(10) -0.1530(8) 0.27152(14)
C2 C 0.1896(10) -0.1864(8) 0.29527(14)
H1 H 0.0380(10) -0.0783(8) 0.29827(14)
C3 C 0.2222(10) -0.3814(8) 0.31465(14)
H2 H 0.0905(10) -0.4074(8) 0.33100(14)
C4 C 0.4437(9) -0.5396(8) 0.31065(13)
C5 C 0.6311(10) -0.4947(8) 0.28645(14)
C6 C 0.6057(10) -0.3019(8) 0.26661(14)
H3 H 0.7371(10) -0.2742(8) 0.25035(14)
C7 C 0.3579(10) -0.9711(8) 0.37018(13)
C8 C 0.1555(10) -1.0044(8) 0.39238(13)
H4 H 0.0051(10) -0.8938(8) 0.39418(13)
C9 C 0.1700(10) -1.1966(8) 0.41195(14)
H5 H 0.0294(10) -1.2195(8) 0.42685(14)
C10 C 0.3933(9) -1.3575(8) 0.40967(13)
C11 C 0.5954(10) -1.3226(8) 0.38771(13)
H6 H 0.7468(10) -1.4323(8) 0.38626(13)
C12 C 0.5818(10) -1.1313(8) 0.36777(14)
H7 H 0.7220(10) -1.1091(8) 0.35272(14)
C13 C 0.4185(10) -1.5661(8) 0.43106(13)
C14 C 0.2075(11) -1.7657(8) 0.47316(15)
H8 H 0.3086(11) -1.8938(8) 0.46120(15)
H9 H 0.0307(11) -1.7874(8) 0.47731(15)
C15 C 0.3218(10) -1.7452(9) 0.50841(15)
H10 H 0.3218(10) -1.8764(9) 0.52339(15)
H11 H 0.2202(10) -1.6198(9) 0.52044(15)
H12 H 0.4978(10) -1.7262(9) 0.50435(15)
C16 C 0.1703(10) 0.0816(8) 0.22657(14)
C17 C 0.1494(10) 0.2971(8) 0.20757(14)
H13 H 0.2917(10) 0.2893(8) 0.18959(14)
H14 H 0.1655(10) 0.4057(8) 0.22494(14)
C18 C -0.1035(9) 0.3692(8) 0.18909(14)
H15 H -0.1198(9) 0.2589(8) 0.17204(14)
H16 H -0.2450(9) 0.3772(8) 0.20720(14)
C19 C -0.1311(10) 0.5865(8) 0.16918(14)
H17 H 0.0013(10) 0.5752(8) 0.14969(14)
H18 H -0.1009(10) 0.6946(8) 0.18574(14)
C20 C -0.3937(10) 0.6652(8) 0.15336(15)
H19 H -0.4226(10) 0.5578(8) 0.13656(15)
H20 H -0.5260(10) 0.6739(8) 0.17282(15)
C21 C -0.4250(10) 0.8842(8) 0.13384(15)
H21 H -0.2917(10) 0.8757(8) 0.11451(15)
H22 H -0.3972(10) 0.9916(8) 0.15070(15)
C22 C -0.6875(10) 0.9631(8) 0.11768(15)
H23 H -0.7148(10) 0.8559(8) 0.10074(15)
H24 H -0.8208(10) 0.9708(8) 0.13700(15)
C23 C -0.7198(10) 1.1836(8) 0.09821(15)
H25 H -0.7016(10) 1.2922(8) 0.11545(15)
H26 H -0.5811(10) 1.1781(8) 0.07971(15)
C24 C -0.9751(10) 1.2563(8) 0.08061(15)
H27 H -1.1136(10) 1.2580(8) 0.09903(15)
H28 H -0.9913(10) 1.1491(8) 0.06299(15)
C25 C -1.0121(10) 1.4781(8) 0.06185(14)
H29 H -0.9946(10) 1.5855(8) 0.07936(14)
H30 H -0.8752(10) 1.4763(8) 0.04317(14)
C26 C -1.2687(11) 1.5484(9) 0.0448(2)
H31 H -1.4054(11) 1.5486(9) 0.0635(2)
H32 H -1.2853(11) 1.4417(9) 0.0272(2)
C27 C -1.3080(13) 1.7719(9) 0.0263(2)
H33 H -1.4771(13) 1.8078(9) 0.0158(2)
H34 H -1.1759(13) 1.7722(9) 0.0074(2)
H35 H -1.2962(13) 1.8792(9) 0.0437(2)
loop_
_geom_bond_atom_site_label_1
_geom_bond_atom_site_label_2
_geom_bond_site_symmetry_1
_geom_bond_site_symmetry_2
F1 C5 1_555 1_555
O1 C1 1_555 1_555
O2 C16 1_555 1_555
O3 C13 1_555 1_555
O4 C13 1_555 1_555
N1 N2 1_555 1_555
N2 C7 1_555 1_555
C1 C2 1_555 1_555
C2 H1 1_555 1_555
C3 C2 1_555 1_555
H2 C3 1_555 1_555
C4 N1 1_555 1_555
C5 C4 1_555 1_555
C6 C1 1_555 1_555
H3 C6 1_555 1_555
C7 C8 1_555 1_555
C8 H4 1_555 1_555
C9 C8 1_555 1_555
H5 C9 1_555 1_555
C10 C9 1_555 1_555
C11 C10 1_555 1_555
H6 C11 1_555 1_555
C12 C7 1_555 1_555
H7 C12 1_555 1_555
C13 C10 1_555 1_555
C14 O4 1_555 1_555
H8 C14 1_555 1_555
H9 C14 1_555 1_555
C15 C14 1_555 1_555
H10 C15 1_555 1_555
H11 C15 1_555 1_555
H12 C15 1_555 1_555
C16 O1 1_555 1_555
C17 C16 1_555 1_555
H13 C17 1_555 1_555
H14 C17 1_555 1_555
C18 C17 1_555 1_555
H15 C18 1_555 1_555
H16 C18 1_555 1_555
C19 C18 1_555 1_555
H17 C19 1_555 1_555
H18 C19 1_555 1_555
C20 C19 1_555 1_555
H19 C20 1_555 1_555
H20 C20 1_555 1_555
C21 C20 1_555 1_555
H21 C21 1_555 1_555
H22 C21 1_555 1_555
C22 C21 1_555 1_555
H23 C22 1_555 1_555
H24 C22 1_555 1_555
C23 C22 1_555 1_555
H25 C23 1_555 1_555
H26 C23 1_555 1_555
C24 C23 1_555 1_555
H27 C24 1_555 1_555
H28 C24 1_555 1_555
C25 C24 1_555 1_555
H29 C25 1_555 1_555
H30 C25 1_555 1_555
C26 C25 1_555 1_555
H31 C26 1_555 1_555
H32 C26 1_555 1_555
C27 C26 1_555 1_555
H33 C27 1_555 1_555
H34 C27 1_555 1_555
H35 C27 1_555 1_555
C3 C4 1_555 1_555
C5 C6 1_555 1_555
C11 C12 1_555 1_555

#END
