
#######################################################################
#
#                 Cambridge Crystallographic Data Centre
#                                CCDC 
#
#######################################################################
#
# If this CIF has been generated from an entry in the Cambridge 
# Structural Database, then it will include bibliographic, chemical, 
# crystal, experimental, refinement or atomic coordinate data resulting 
# from the CCDC's data processing and validation procedures.
#
#######################################################################

data_XOJFOR
_chemical_formula_moiety         'C15 H22 O9'
_chemical_name_systematic        
'5,6-O-(1-Methylethylidene)-\a-D-talofuranose triacetate'
_symmetry_cell_setting           monoclinic
_symmetry_space_group_name_H-M   'C 2'
_symmetry_Int_Tables_number      5
_space_group_name_Hall           'C 2y'
loop_
_symmetry_equiv_pos_site_id
_symmetry_equiv_pos_as_xyz
1 x,y,z
2 1/2+x,1/2+y,z
3 -x,y,-z
4 1/2-x,1/2+y,-z
_cell_length_a                   16.5808(3)
_cell_length_b                   5.73230(10)
_cell_length_c                   19.0387(5)
_cell_angle_alpha                90
_cell_angle_beta                 109.5197(9)
_cell_angle_gamma                90
_cell_volume                     1705.55
_exptl_crystal_colour            colorless
_exptl_crystal_description       prism
_chemical_melting_point          96-98deg.C
_cell_formula_units_Z            4
loop_
_atom_site_label
_atom_site_type_symbol
_atom_site_fract_x
_atom_site_fract_y
_atom_site_fract_z
O1 O 0.29737(14) 0.6776(4) 0.30419(12)
O2 O 0.28217(14) 0.3027(4) 0.34680(11)
O3 O 0.29586(17) 0.4760(5) 0.45641(13)
O4 O 0.12836(13) 0.6174(4) 0.20018(12)
O5 O 0.04178(17) 0.3765(5) 0.11585(17)
O6 O 0.22859(15) 0.4732(4) 0.11613(12)
O7 O 0.2162(3) 0.0840(5) 0.10551(16)
O8 O 0.44772(14) 0.4990(4) 0.27498(12)
O9 O 0.52933(15) 0.8219(5) 0.31576(14)
C1 C 0.2379(2) 0.5067(6) 0.30912(18)
C2 C 0.1898(2) 0.4330(6) 0.23046(17)
C3 C 0.26002(19) 0.4497(6) 0.19611(16)
C4 C 0.3053(2) 0.6735(6) 0.23055(16)
C5 C 0.39826(19) 0.6916(7) 0.23575(17)
C6 C 0.4447(2) 0.9057(6) 0.2777(2)
C7 C 0.3076(2) 0.3098(7) 0.42321(17)
C8 C 0.3501(2) 0.0874(7) 0.45639(19)
C9 C 0.0581(2) 0.5669(7) 0.14211(19)
C10 C 0.0064(2) 0.7834(8) 0.1161(2)
C11 C 0.2059(2) 0.2718(7) 0.07717(19)
C12 C 0.1659(3) 0.3153(9) -0.00443(18)
C13 C 0.5194(2) 0.5875(6) 0.33609(18)
C14 C 0.4992(2) 0.5765(8) 0.40803(18)
C15 C 0.5980(2) 0.4508(7) 0.3398(2)
H1 H 0.2004(2) 0.5718(6) 0.33604(18)
H2 H 0.1600(2) 0.2786(6) 0.22309(17)
H3 H 0.29647(19) 0.3064(6) 0.20630(16)
H4 H 0.2778(2) 0.8083(6) 0.19803(16)
H5 H 0.39504(19) 0.6983(7) 0.18240(17)
H6 H 0.4170(2) 0.9642(6) 0.3136(2)
H7 H 0.4461(2) 1.0333(6) 0.2424(2)
H8 H 0.3680(2) 0.0964(7) 0.51195(19)
H9 H 0.4016(2) 0.0607(7) 0.44121(19)
H10 H 0.3089(2) -0.0445(7) 0.43813(19)
H11 H -0.0459(2) 0.7471(8) 0.0727(2)
H12 H -0.0108(2) 0.8476(8) 0.1579(2)
H13 H 0.0419(2) 0.9012(8) 0.1009(2)
H14 H 0.5487(2) 0.6381(8) 0.45011(18)
H15 H 0.4883(2) 0.4104(8) 0.41821(18)
H16 H 0.4471(2) 0.6721(8) 0.40311(18)
H17 H 0.6481(2) 0.5106(7) 0.3816(2)
H18 H 0.5885(2) 0.2826(7) 0.3486(2)
H19 H 0.6094(2) 0.4675(7) 0.2917(2)
H20 H 0.1647(3) 0.4872(9) -0.01370(18)
H21 H 0.1995(3) 0.2363(9) -0.03249(18)
H22 H 0.1060(3) 0.2533(9) -0.02159(18)
loop_
_geom_bond_atom_site_label_1
_geom_bond_atom_site_label_2
_geom_bond_site_symmetry_1
_geom_bond_site_symmetry_2
O1 C1 1_555 1_555
O2 C1 1_555 1_555
O3 C7 1_555 1_555
O4 C2 1_555 1_555
O5 C9 1_555 1_555
O6 C3 1_555 1_555
O7 C11 1_555 1_555
O8 C5 1_555 1_555
O9 C6 1_555 1_555
C1 C2 1_555 1_555
C2 C3 1_555 1_555
C3 C4 1_555 1_555
C4 O1 1_555 1_555
C5 C4 1_555 1_555
C6 C5 1_555 1_555
C7 O2 1_555 1_555
C8 C7 1_555 1_555
C9 O4 1_555 1_555
C10 C9 1_555 1_555
C11 O6 1_555 1_555
C12 C11 1_555 1_555
C13 O8 1_555 1_555
C14 C13 1_555 1_555
C15 C13 1_555 1_555
H1 C1 1_555 1_555
H2 C2 1_555 1_555
H3 C3 1_555 1_555
H4 C4 1_555 1_555
H5 C5 1_555 1_555
H6 C6 1_555 1_555
H7 C6 1_555 1_555
H8 C8 1_555 1_555
H9 C8 1_555 1_555
H10 C8 1_555 1_555
H11 C10 1_555 1_555
H12 C10 1_555 1_555
H13 C10 1_555 1_555
H14 C14 1_555 1_555
H15 C14 1_555 1_555
H16 C14 1_555 1_555
H17 C15 1_555 1_555
H18 C15 1_555 1_555
H19 C15 1_555 1_555
H20 C12 1_555 1_555
H21 C12 1_555 1_555
H22 C12 1_555 1_555
O9 C13 1_555 1_555

#END
