
#######################################################################
#
#                 Cambridge Crystallographic Data Centre
#                                CCDC 
#
#######################################################################
#
# If this CIF has been generated from an entry in the Cambridge 
# Structural Database, then it will include bibliographic, chemical, 
# crystal, experimental, refinement or atomic coordinate data resulting 
# from the CCDC's data processing and validation procedures.
#
#######################################################################

data_XOKBOO
_chemical_formula_moiety         '2(C7 H8 O1),C4 H10 N2'
_chemical_name_systematic        'bis(4-Methylphenol) piperazine'
_symmetry_cell_setting           triclinic
_symmetry_space_group_name_H-M   'P -1'
_symmetry_Int_Tables_number      2
_space_group_name_Hall           '-P 1'
loop_
_symmetry_equiv_pos_site_id
_symmetry_equiv_pos_as_xyz
1 x,y,z
2 -x,-y,-z
_cell_length_a                   5.905(2)
_cell_length_b                   7.347(2)
_cell_length_c                   10.874(2)
_cell_angle_alpha                95.39(2)
_cell_angle_beta                 91.28(2)
_cell_angle_gamma                112.33(2)
_cell_volume                     433.588
_cell_formula_units_Z            1
_exptl_crystal_recrystallization_method ethanol
loop_
_atom_site_label
_atom_site_type_symbol
_atom_site_fract_x
_atom_site_fract_y
_atom_site_fract_z
O1 O 0.2873(4) 0.0982(3) 0.5875(2)
C1 C 0.4252(5) 0.1310(4) 0.6974(3)
C2 C 0.4202(6) 0.2622(4) 0.7946(3)
C3 C 0.5669(6) 0.2866(4) 0.9011(3)
C4 C 0.7176(5) 0.1843(4) 0.9132(3)
C5 C 0.7172(6) 0.0538(4) 0.8142(3)
C6 C 0.5725(6) 0.0247(4) 0.7068(3)
C7 C 0.8744(7) 0.2180(5) 1.0311(3)
N1 N 0.0394(5) 0.3298(4) 0.5418(2)
C8 C 0.0300(7) 0.4903(5) 0.6293(3)
C9 C 0.1182(7) 0.4016(5) 0.4217(3)
C9A C -0.1182(7) 0.5984(5) 0.5783(3)
N1A N -0.0394(5) 0.6702(4) 0.4582(2)
C8A C -0.0300(7) 0.5097(5) 0.3707(3)
loop_
_geom_bond_atom_site_label_1
_geom_bond_atom_site_label_2
_geom_bond_site_symmetry_1
_geom_bond_site_symmetry_2
O1 C1 1_555 1_555
N1 C8 1_555 1_555
C1 C2 1_555 1_555
C2 C3 1_555 1_555
C3 C4 1_555 1_555
C4 C5 1_555 1_555
C5 C6 1_555 1_555
C6 C1 1_555 1_555
C7 C4 1_555 1_555
C8 C9A 1_555 1_555
C9 N1 1_555 1_555
C9A N1A 1_555 1_555
N1A C8A 1_555 1_555
C8A C9 1_555 1_555

#END
