
#######################################################################
#
#                 Cambridge Crystallographic Data Centre
#                                CCDC 
#
#######################################################################
#
# If this CIF has been generated from an entry in the Cambridge 
# Structural Database, then it will include bibliographic, chemical, 
# crystal, experimental, refinement or atomic coordinate data resulting 
# from the CCDC's data processing and validation procedures.
#
#######################################################################

data_XOLROH
_chemical_formula_moiety         'C16 H17 N1 O1'
_chemical_name_systematic        
3-phenyl-2-propyl-5,6-dihydrocyclopenta[c]pyrrol-4(2H)-one
_symmetry_cell_setting           monoclinic
_symmetry_space_group_name_H-M   'C 2/c'
_symmetry_Int_Tables_number      15
_space_group_name_Hall           '-C 2yn'
loop_
_symmetry_equiv_pos_site_id
_symmetry_equiv_pos_as_xyz
1 x,y,z
2 -x,y,1/2-z
3 1/2+x,1/2+y,z
4 1/2-x,1/2+y,1/2-z
5 -x,-y,-z
6 x,-y,1/2+z
7 1/2-x,1/2-y,-z
8 1/2+x,1/2-y,1/2+z
_cell_length_a                   10.7589(17)
_cell_length_b                   11.6440(17)
_cell_length_c                   20.296(3)
_cell_angle_alpha                90
_cell_angle_beta                 92.800(5)
_cell_angle_gamma                90
_cell_volume                     2539.58
_exptl_crystal_colour            colorless
_exptl_crystal_description       prismatic
_cell_formula_units_Z            8
loop_
_atom_site_label
_atom_site_type_symbol
_atom_site_fract_x
_atom_site_fract_y
_atom_site_fract_z
N1 N 1.08990(10) 0.68816(10) 0.38427(6)
O1 O 0.90254(11) 0.34425(11) 0.39238(7)
C1 C 0.99522(13) 0.39323(13) 0.41382(8)
C2 C 1.09295(15) 0.33898(14) 0.46047(9)
H1 H 1.1287 0.2722 0.4400
H2 H 1.0556 0.3147 0.5007
C3 C 1.19427(14) 0.42866(14) 0.47621(8)
H3 H 1.2003 0.4463 0.5230
H4 H 1.2746 0.4024 0.4626
C4 C 1.15037(12) 0.53042(13) 0.43677(7)
C5 C 1.03681(12) 0.50928(12) 0.40182(7)
C6 C 0.99885(12) 0.60924(13) 0.36945(7)
C7 C 1.18251(13) 0.64071(13) 0.42489(8)
H5 H 1.2542 0.6777 0.4412
C8 C 0.88712(12) 0.63156(13) 0.32711(7)
C9 C 0.84891(14) 0.54977(15) 0.28071(8)
H6 H 0.8935 0.4817 0.2777
C10 C 0.74615(16) 0.56806(18) 0.23926(9)
H7 H 0.7226 0.5127 0.2081
C11 C 0.67811(15) 0.66657(17) 0.24332(9)
H8 H 0.6097 0.6793 0.2144
C12 C 0.71168(16) 0.74622(16) 0.29038(10)
H9 H 0.6642 0.8124 0.2944
C13 C 0.81539(14) 0.72931(14) 0.33190(8)
H10 H 0.8373 0.7844 0.3635
C14 C 1.09636(14) 0.80685(13) 0.36143(8)
H11 H 1.0378 0.8175 0.3240
H12 H 1.1792 0.8222 0.3468
C15 C 1.06673(16) 0.89108(14) 0.41531(9)
H13 H 0.9902 0.8678 0.4349
H14 H 1.1328 0.8889 0.4495
C16 C 1.0525(2) 1.01181(16) 0.39017(11)
H15 H 1.1293 1.0367 0.3726
H16 H 1.0317 1.0615 0.4257
H17 H 0.9875 1.0144 0.3561
loop_
_geom_bond_atom_site_label_1
_geom_bond_atom_site_label_2
_geom_bond_site_symmetry_1
_geom_bond_site_symmetry_2
N1 C6 1_555 1_555
O1 C1 1_555 1_555
C1 C2 1_555 1_555
C2 H1 1_555 1_555
H2 C2 1_555 1_555
C3 C2 1_555 1_555
H3 C3 1_555 1_555
H4 C3 1_555 1_555
C4 C3 1_555 1_555
C5 C1 1_555 1_555
C6 C5 1_555 1_555
C7 N1 1_555 1_555
H5 C7 1_555 1_555
C8 C6 1_555 1_555
C9 C8 1_555 1_555
H6 C9 1_555 1_555
C10 C9 1_555 1_555
H7 C10 1_555 1_555
C11 C10 1_555 1_555
H8 C11 1_555 1_555
C12 C11 1_555 1_555
H9 C12 1_555 1_555
C13 C8 1_555 1_555
H10 C13 1_555 1_555
C14 N1 1_555 1_555
H11 C14 1_555 1_555
H12 C14 1_555 1_555
C15 C14 1_555 1_555
H13 C15 1_555 1_555
H14 C15 1_555 1_555
C16 C15 1_555 1_555
H15 C16 1_555 1_555
H16 C16 1_555 1_555
H17 C16 1_555 1_555
C4 C5 1_555 1_555
C4 C7 1_555 1_555
C12 C13 1_555 1_555

#END
