
#######################################################################
#
#                 Cambridge Crystallographic Data Centre
#                                CCDC 
#
#######################################################################
#
# If this CIF has been generated from an entry in the Cambridge 
# Structural Database, then it will include bibliographic, chemical, 
# crystal, experimental, refinement or atomic coordinate data resulting 
# from the CCDC's data processing and validation procedures.
#
#######################################################################

data_XONXED
_chemical_formula_moiety         'C48 H56 N12 O12 P4,2(C7 H8)'
_chemical_name_systematic        
'5,11,17,23-tetrakis(1,3,5-Trimethyl-1,3,5-triazaphosphorin-4,6-dionyloxy)calix(4)arene toluene solvate'
_symmetry_cell_setting           monoclinic
_symmetry_space_group_name_H-M   'P 21/n'
_symmetry_Int_Tables_number      14
_space_group_name_Hall           '-P 2yn'
loop_
_symmetry_equiv_pos_site_id
_symmetry_equiv_pos_as_xyz
1 x,y,z
2 1/2+x,1/2-y,1/2+z
3 -x,-y,-z
4 1/2-x,1/2+y,1/2-z
_cell_length_a                   13.648(3)
_cell_length_b                   22.546(5)
_cell_length_c                   22.156(4)
_cell_angle_alpha                90
_cell_angle_beta                 92.49(3)
_cell_angle_gamma                90
_cell_volume                     6811.14
_exptl_crystal_colour            colorless
_exptl_crystal_description       prism
_chemical_melting_point          331deg.C
_cell_formula_units_Z            4
_chemical_properties_physical    moisture-sensitive
_exptl_crystal_recrystallization_method pentane/toluene
loop_
_atom_site_label
_atom_site_type_symbol
_atom_site_fract_x
_atom_site_fract_y
_atom_site_fract_z
C1 C 0.0730(5) 0.1013(3) 0.6733(3)
C2 C -0.0266(5) 0.1138(3) 0.6624(3)
C3 C -0.0824(4) 0.0884(3) 0.6150(3)
C4 C -0.1884(4) 0.1084(3) 0.5985(3)
H1 H -0.2343 0.0795 0.6132
H2 H -0.2012 0.1461 0.6176
C5 C -0.2027(5) 0.1145(3) 0.5304(3)
C6 C -0.2600(5) 0.0741(3) 0.4966(3)
H3 H -0.2975 0.0462 0.5162
C7 C -0.2613(5) 0.0753(3) 0.4335(3)
H4 H -0.3022 0.0497 0.4112
C8 C -0.2011(5) 0.1148(3) 0.4040(3)
H5 H -0.1992 0.1136 0.3621
C9 C -0.1440(5) 0.1560(3) 0.4361(3)
C10 C -0.0685(4) 0.1927(3) 0.4045(3)
H6 H -0.0811 0.2346 0.4108
H7 H -0.0734 0.1850 0.3614
C11 C 0.0341(5) 0.1773(3) 0.4293(3)
C12 C 0.0670(5) 0.1187(3) 0.4281(3)
H8 H 0.0289 0.0902 0.4079
C13 C 0.1554(5) 0.1022(4) 0.4565(3)
H9 H 0.1781 0.0634 0.4539
C14 C 0.2099(5) 0.1449(4) 0.4893(3)
H10 H 0.2674 0.1333 0.5101
C15 C 0.1815(5) 0.2040(3) 0.4920(3)
C16 C 0.2388(5) 0.2484(3) 0.5317(3)
H11 H 0.2962 0.2616 0.5112
H12 H 0.1981 0.2827 0.5389
C17 C 0.2697(5) 0.2199(3) 0.5907(3)
C18 C 0.2020(5) 0.2056(3) 0.6343(3)
C19 C 0.2221(5) 0.1652(3) 0.6808(3)
C20 C 0.1387(5) 0.1377(3) 0.7162(3)
H13 H 0.1660 0.1125 0.7483
H14 H 0.1007 0.1688 0.7344
C21 C 0.1136(5) 0.0575(3) 0.6379(3)
H15 H 0.1792 0.0474 0.6448
C22 C 0.0591(5) 0.0286(3) 0.5924(3)
H16 H 0.0870 -0.0015 0.5700
C23 C -0.0377(5) 0.0454(3) 0.5809(3)
H17 H -0.0737 0.0272 0.5495
C24 C 0.3183(5) 0.1445(3) 0.6896(3)
H18 H 0.3343 0.1183 0.7209
C25 C 0.3900(5) 0.1634(4) 0.6510(3)
H19 H 0.4548 0.1519 0.6583
C26 C 0.3650(5) 0.1994(3) 0.6019(3)
H20 H 0.4134 0.2101 0.5756
C27 C -0.1518(4) 0.1586(3) 0.4984(3)
C28 C -0.2993(6) 0.2739(4) 0.4619(4)
C29 C 0.2303(7) 0.3617(4) 0.6275(4)
C37 C 0.2860(5) 0.3654(4) 0.4324(3)
H29 H 0.2410 0.3957 0.4439
H30 H 0.3327 0.3820 0.4060
H31 H 0.3197 0.3498 0.4679
C38 C 0.2835(6) 0.2690(4) 0.3805(3)
C39 C -0.3127(5) 0.1062(4) 0.7343(3)
H32 H -0.3173 0.1477 0.7433
H33 H -0.3541 0.0843 0.7602
H34 H -0.3335 0.0995 0.6929
C40 C -0.1898(6) 0.0280(4) 0.7329(3)
C41 C -0.0040(5) 0.2964(4) 0.2951(3)
H35 H -0.0383 0.3287 0.3130
H36 H -0.0459 0.2622 0.2925
H37 H 0.0147 0.3075 0.2554
C42 C 0.1428(5) 0.2358(4) 0.3130(3)
C43 C -0.1635(6) 0.3396(4) 0.4466(4)
H38 H -0.1006 0.3502 0.4645
H39 H -0.2054 0.3738 0.4454
H40 H -0.1556 0.3254 0.4062
C44 C -0.2399(5) 0.2640(4) 0.6528(3)
H41 H -0.1766 0.2800 0.6641
H42 H -0.2482 0.2266 0.6727
H43 H -0.2900 0.2910 0.6645
C45 C -0.3353(6) 0.2317(4) 0.5625(4)
C46 C -0.0301(6) 0.0350(4) 0.7897(3)
C47 C 0.0194(5) 0.1208(4) 0.8499(3)
H44 H 0.0022 0.1617 0.8551
H45 H 0.0862 0.1181 0.8383
H46 H 0.0121 0.0999 0.8872
C48 C 0.0705(6) 0.3815(4) 0.5804(3)
H47 H 0.0031 0.3698 0.5820
H48 H 0.0936 0.3732 0.5410
H49 H 0.0762 0.4232 0.5884
C49 C 0.2508(6) 0.3139(4) 0.7285(4)
C50 C 0.1135(7) 0.2784(4) 0.7863(3)
H50 H 0.0457 0.2676 0.7806
H51 H 0.1195 0.3107 0.8145
H52 H 0.1502 0.2450 0.8017
C51 C 0.2899(6) 0.1748(4) 0.3240(4)
H53 H 0.3518 0.1734 0.3462
H54 H 0.3008 0.1772 0.2816
H55 H 0.2532 0.1395 0.3320
C52 C -0.0701(6) -0.0534(4) 0.7302(4)
H56 H -0.0041 -0.0621 0.7442
H57 H -0.0749 -0.0558 0.6869
H58 H -0.1140 -0.0815 0.7471
C53 C 0.3923(6) 0.3487(4) 0.6752(4)
H59 H 0.4077 0.3655 0.6369
H60 H 0.4267 0.3119 0.6810
H61 H 0.4120 0.3758 0.7069
C54 C -0.4362(3) 0.2058(3) 0.4735(2)
H62 H -0.4639 0.1805 0.5031
H63 H -0.4178 0.1824 0.4396
H64 H -0.4837 0.2349 0.4603
C55 C 0.0963(3) 0.2205(3) 0.4577(2)
N1 N 0.2308(4) 0.3168(3) 0.4005(2)
N2 N -0.2092(4) 0.0862(3) 0.7443(3)
N3 N 0.0858(4) 0.2821(3) 0.3334(2)
N4 N -0.2075(4) 0.2931(3) 0.4825(2)
N5 N -0.2476(4) 0.2552(3) 0.5868(2)
N6 N -0.0462(4) 0.0940(3) 0.8021(2)
N7 N 0.1298(4) 0.3483(3) 0.6261(2)
N8 N 0.1522(4) 0.2970(3) 0.7273(2)
N9 N 0.2346(4) 0.2270(3) 0.3426(2)
N10 N -0.0963(4) 0.0067(3) 0.7492(2)
N11 N 0.2845(4) 0.3380(3) 0.6764(3)
N12 N -0.3485(4) 0.2359(3) 0.5004(3)
O1 O 0.0703(3) 0.2809(2) 0.45407(18)
O2 O -0.0707(3) 0.1567(2) 0.69959(18)
O3 O 0.1062(3) 0.2302(2) 0.63013(18)
O4 O -0.1003(3) 0.2032(2) 0.53055(18)
O5 O -0.2507(4) -0.0061(3) 0.7098(2)
O6 O 0.3717(3) 0.2622(2) 0.3946(2)
O7 O 0.0393(4) 0.0075(2) 0.8125(2)
O8 O 0.1153(4) 0.2032(3) 0.2722(2)
O9 O 0.3019(4) 0.3082(3) 0.7748(2)
O10 O -0.3346(4) 0.2886(3) 0.4132(2)
O11 O -0.3963(4) 0.2093(3) 0.5941(3)
O12 O 0.2663(4) 0.3916(3) 0.5897(3)
P1 P -0.12549(13) 0.14069(9) 0.76348(8)
P2 P 0.07420(14) 0.29273(10) 0.66441(8)
P3 P 0.10581(14) 0.32373(9) 0.39754(8)
P4 P -0.14503(14) 0.26964(10) 0.54728(9)
C30 C -0.0279(7) 0.4958(4) 0.3098(4)
H21 H 0.0381 0.4897 0.3204
C31 C -0.0538(7) 0.5350(4) 0.2647(4)
C32 C -0.1518(7) 0.5435(4) 0.2479(4)
H22 H -0.1703 0.5690 0.2165
C33 C -0.2215(7) 0.5130(4) 0.2793(4)
H23 H -0.2876 0.5189 0.2692
C34 C -0.1952(8) 0.4742(5) 0.3251(4)
H24 H -0.2432 0.4544 0.3457
C35 C -0.0987(7) 0.4650(5) 0.3400(4)
H25 H -0.0804 0.4383 0.3704
C36 C 0.0234(9) 0.5715(6) 0.2365(5)
H26 H 0.0869 0.5594 0.2523
H27 H 0.0133 0.6126 0.2456
H28 H 0.0196 0.5659 0.1935
C62 C 0.1248(12) 0.0735(8) 0.0438(7)
C63 C 0.1724(12) 0.0832(8) 0.0956(7)
H71 H 0.1451 0.1059 0.1257
C64 C 0.2607(12) 0.0596(7) 0.1036(8)
H72 H 0.2951 0.0655 0.1402
C65 C 0.3026(14) 0.0273(9) 0.0606(9)
H73 H 0.3671 0.0143 0.0658
C66 C 0.2516(11) 0.0149(7) 0.0125(7)
H74 H 0.2788 -0.0096 -0.0161
C67 C 0.1655(10) 0.0345(7) 0.0023(7)
H75 H 0.1296 0.0232 -0.0325
C68 C 0.0293(15) 0.1004(10) 0.0356(9)
H76 H 0.0012 0.0898 -0.0034
H77 H 0.0356 0.1427 0.0382
H78 H -0.0123 0.0865 0.0664
C56? C 0.4340(8) 0.0387(6) 0.4335(6)
H65? H 0.3990 0.0642 0.4076
C57? C 0.4490(11) 0.0533(6) 0.4942(6)
H66? H 0.4239 0.0885 0.5089
C58? C 0.5014(12) 0.0151(8) 0.5329(4)
H67? H 0.5114 0.0249 0.5735
C59? C 0.5388(10) -0.0376(7) 0.5109(5)
H68? H 0.5738 -0.0631 0.5368
C60? C 0.5238(9) -0.0521(5) 0.4502(6)
H69? H 0.5489 -0.0874 0.4355
C61? C 0.4715(8) -0.0140(6) 0.4116(4)
H70? H 0.4615 -0.0238 0.3710
loop_
_geom_bond_atom_site_label_1
_geom_bond_atom_site_label_2
_geom_bond_site_symmetry_1
_geom_bond_site_symmetry_2
C1 C2 1_555 1_555
C2 C3 1_555 1_555
C3 C4 1_555 1_555
C4 H1 1_555 1_555
H2 C4 1_555 1_555
C5 C4 1_555 1_555
C6 C5 1_555 1_555
H3 C6 1_555 1_555
C7 C6 1_555 1_555
H4 C7 1_555 1_555
C8 C7 1_555 1_555
H5 C8 1_555 1_555
C9 C8 1_555 1_555
C10 C9 1_555 1_555
H6 C10 1_555 1_555
H7 C10 1_555 1_555
C11 C10 1_555 1_555
C12 C11 1_555 1_555
H8 C12 1_555 1_555
C13 C12 1_555 1_555
H9 C13 1_555 1_555
C14 C13 1_555 1_555
H10 C14 1_555 1_555
C15 C14 1_555 1_555
C16 C15 1_555 1_555
H11 C16 1_555 1_555
H12 C16 1_555 1_555
C17 C16 1_555 1_555
C18 C17 1_555 1_555
C19 C18 1_555 1_555
C20 C1 1_555 1_555
H13 C20 1_555 1_555
H14 C20 1_555 1_555
C21 C1 1_555 1_555
H15 C21 1_555 1_555
C22 C21 1_555 1_555
H16 C22 1_555 1_555
C23 C3 1_555 1_555
H17 C23 1_555 1_555
C24 C19 1_555 1_555
H18 C24 1_555 1_555
C25 C24 1_555 1_555
H19 C25 1_555 1_555
C26 C17 1_555 1_555
H20 C26 1_555 1_555
C27 C5 1_555 1_555
C28 N4 1_555 1_555
C29 N7 1_555 1_555
C30 H21 1_555 1_555
C31 C30 1_555 1_555
C32 C31 1_555 1_555
H22 C32 1_555 1_555
C33 C32 1_555 1_555
H23 C33 1_555 1_555
C34 C33 1_555 1_555
H24 C34 1_555 1_555
C35 C30 1_555 1_555
H25 C35 1_555 1_555
C36 C31 1_555 1_555
H26 C36 1_555 1_555
H27 C36 1_555 1_555
H28 C36 1_555 1_555
C37 H29 1_555 1_555
H30 C37 1_555 1_555
H31 C37 1_555 1_555
C38 N1 1_555 1_555
C39 H32 1_555 1_555
H33 C39 1_555 1_555
H34 C39 1_555 1_555
C40 N2 1_555 1_555
C41 H35 1_555 1_555
H36 C41 1_555 1_555
H37 C41 1_555 1_555
C42 N3 1_555 1_555
C43 H38 1_555 1_555
H39 C43 1_555 1_555
H40 C43 1_555 1_555
C44 H41 1_555 1_555
H42 C44 1_555 1_555
H43 C44 1_555 1_555
C45 N5 1_555 1_555
C46 N6 1_555 1_555
C47 H44 1_555 1_555
H45 C47 1_555 1_555
H46 C47 1_555 1_555
C48 H47 1_555 1_555
H48 C48 1_555 1_555
H49 C48 1_555 1_555
C49 N8 1_555 1_555
C50 H50 1_555 1_555
H51 C50 1_555 1_555
H52 C50 1_555 1_555
C51 H53 1_555 1_555
H54 C51 1_555 1_555
H55 C51 1_555 1_555
C52 H56 1_555 1_555
H57 C52 1_555 1_555
H58 C52 1_555 1_555
C53 H59 1_555 1_555
H60 C53 1_555 1_555
H61 C53 1_555 1_555
C54 H62 1_555 1_555
H63 C54 1_555 1_555
H64 C54 1_555 1_555
C55 C11 1_555 1_555
N1 C37 1_555 1_555
N2 C39 1_555 1_555
N3 C41 1_555 1_555
N4 C43 1_555 1_555
N5 C44 1_555 1_555
N6 C47 1_555 1_555
N7 C48 1_555 1_555
N8 C50 1_555 1_555
N9 C38 1_555 1_555
N10 C40 1_555 1_555
N11 C29 1_555 1_555
N12 C28 1_555 1_555
O1 C55 1_555 1_555
O2 C2 1_555 1_555
O3 C18 1_555 1_555
O4 C27 1_555 1_555
O5 C40 1_555 1_555
O6 C38 1_555 1_555
O7 C46 1_555 1_555
O8 C42 1_555 1_555
O9 C49 1_555 1_555
O10 C28 1_555 1_555
O11 C45 1_555 1_555
O12 C29 1_555 1_555
P1 N2 1_555 1_555
P2 N7 1_555 1_555
P3 N1 1_555 1_555
P4 N4 1_555 1_555
C62 C63 1_555 1_555
C63 H71 1_555 1_555
C64 C63 1_555 1_555
H72 C64 1_555 1_555
C65 C64 1_555 1_555
H73 C65 1_555 1_555
C66 C65 1_555 1_555
H74 C66 1_555 1_555
C67 C62 1_555 1_555
H75 C67 1_555 1_555
C68 C62 1_555 1_555
H76 C68 1_555 1_555
H77 C68 1_555 1_555
H78 C68 1_555 1_555
C9 C27 1_555 1_555
C15 C55 1_555 1_555
C19 C20 1_555 1_555
C22 C23 1_555 1_555
C25 C26 1_555 1_555
C34 C35 1_555 1_555
C42 N9 1_555 1_555
C45 N12 1_555 1_555
C46 N10 1_555 1_555
C49 N11 1_555 1_555
C51 N9 1_555 1_555
C52 N10 1_555 1_555
C53 N11 1_555 1_555
C54 N12 1_555 1_555
N3 P3 1_555 1_555
N5 P4 1_555 1_555
N6 P1 1_555 1_555
N8 P2 1_555 1_555
O1 P3 1_555 1_555
O2 P1 1_555 1_555
O3 P2 1_555 1_555
O4 P4 1_555 1_555
C66 C67 1_555 1_555

#END
