
#######################################################################
#
#                 Cambridge Crystallographic Data Centre
#                                CCDC 
#
#######################################################################
#
# If this CIF has been generated from an entry in the Cambridge 
# Structural Database, then it will include bibliographic, chemical, 
# crystal, experimental, refinement or atomic coordinate data resulting 
# from the CCDC's data processing and validation procedures.
#
#######################################################################

data_XOPDOW
_chemical_formula_moiety         'C48 H36 F6,C1 H4 O1'
_chemical_name_systematic        
'(8\b,8a\a)-6-Fluoro-1,2,3,8,8a-pentakis(4-fluoro-3-methylphenyl)-5-methyl-8,8a-dihydrocyclopenta(a)indene methanol solvate'
_symmetry_cell_setting           monoclinic
_symmetry_space_group_name_H-M   'P 21/n'
_symmetry_Int_Tables_number      14
_space_group_name_Hall           '-P 2yn'
loop_
_symmetry_equiv_pos_site_id
_symmetry_equiv_pos_as_xyz
1 x,y,z
2 1/2-x,1/2+y,1/2-z
3 -x,-y,-z
4 1/2+x,1/2-y,1/2+z
_cell_length_a                   18.2763(5)
_cell_length_b                   11.1214(4)
_cell_length_c                   21.3674(7)
_cell_angle_alpha                90
_cell_angle_beta                 113.2580(10)
_cell_angle_gamma                90
_cell_volume                     3990.16
_exptl_crystal_colour            colorless
_cell_formula_units_Z            4
loop_
_atom_site_label
_atom_site_type_symbol
_atom_site_fract_x
_atom_site_fract_y
_atom_site_fract_z
C1 C 0.59018(19) 0.6652(4) 1.04129(15)
C2 C 0.55601(18) 0.6098(3) 0.97982(17)
H1 H 0.5513 0.5266 0.9769
C3 C 0.52825(16) 0.6805(3) 0.92159(14)
C4 C 0.49331(17) 0.6400(3) 0.84675(15)
H2 H 0.4523 0.5790 0.8402
C5 C 0.45247(16) 0.7602(3) 0.80948(14)
C6 C 0.45445(17) 0.7960(3) 0.74190(14)
C7 C 0.49864(16) 0.8989(3) 0.75086(14)
C8 C 0.53076(16) 0.9346(3) 0.82316(14)
C9 C 0.50521(16) 0.8546(3) 0.85745(14)
C10 C 0.53653(16) 0.8059(3) 0.92712(14)
C11 C 0.57298(17) 0.8586(3) 0.99123(14)
H3 H 0.5789 0.9417 0.9948
C12 C 0.60064(18) 0.7886(4) 1.04986(15)
C13 C 0.6414(2) 0.8427(4) 1.12007(16)
H4 H 0.6937 0.8088 1.1420
H5 H 0.6108 0.8254 1.1466
H6 H 0.6456 0.9282 1.1162
C14 C 0.55737(17) 0.5884(3) 0.82554(15)
C15 C 0.61981(17) 0.6575(3) 0.82411(16)
H7 H 0.6228 0.7378 0.8369
C16 C 0.6782(2) 0.6116(4) 0.80427(18)
C17 C 0.6724(3) 0.4935(5) 0.7881(2)
C18 C 0.6126(3) 0.4192(4) 0.7900(2)
H8 H 0.6112 0.3383 0.7786
C19 C 0.5550(2) 0.4680(4) 0.80910(19)
H9 H 0.5144 0.4195 0.8109
C20 C 0.7438(2) 0.6913(5) 0.8015(3)
H10 H 0.7940 0.6505 0.8222
H11 H 0.7454 0.7646 0.8257
H12 H 0.7338 0.7093 0.7549
C21 C 0.36624(16) 0.7724(3) 0.80567(14)
C22 C 0.33087(17) 0.6918(3) 0.83450(16)
H13 H 0.3606 0.6264 0.8584
C23 C 0.25255(19) 0.7040(3) 0.82949(18)
C24 C 0.21230(18) 0.8030(4) 0.79460(18)
C25 C 0.2453(2) 0.8885(4) 0.76721(19)
H14 H 0.2163 0.9558 0.7454
C26 C 0.32243(19) 0.8724(3) 0.77284(17)
H15 H 0.3454 0.9293 0.7544
C27 C 0.2156(2) 0.6159(4) 0.8609(2)
H16 H 0.2080 0.6532 0.8985
H17 H 0.2499 0.5474 0.8770
H18 H 0.1650 0.5905 0.8276
C28 C 0.40282(17) 0.7403(3) 0.67678(15)
C29 C 0.3879(2) 0.6164(4) 0.67254(19)
H19 H 0.4111 0.5684 0.7110
C30 C 0.3380(3) 0.5648(5) 0.6107(2)
H20 H 0.3282 0.4825 0.6072
C31 C 0.3043(2) 0.6379(6) 0.5556(2)
C32 C 0.3144(2) 0.7601(5) 0.55698(16)
C33 C 0.36466(18) 0.8078(4) 0.61864(15)
H21 H 0.3734 0.8904 0.6212
C34 C 0.2727(3) 0.8346(5) 0.49581(19)
H22 H 0.2903 0.8125 0.4606
H23 H 0.2844 0.9179 0.5071
H24 H 0.2163 0.8217 0.4801
C35 C 0.51694(17) 0.9648(4) 0.69876(15)
C36 C 0.5498(2) 0.9054(4) 0.65923(18)
H25 H 0.5603 0.8234 0.6652
C37 C 0.5674(2) 0.9699(7) 0.6093(2)
C38 C 0.5483(3) 1.0900(7) 0.6029(3)
C39 C 0.5180(3) 1.1490(5) 0.6395(2)
H26 H 0.5068 1.2307 0.6326
C40 C 0.50286(19) 1.0862(4) 0.68908(18)
H27 H 0.4826 1.1273 0.7166
C41 C 0.6044(5) 0.9166(9) 0.5716(4)
H28 H 0.6163 0.9764 0.5446
H29 H 0.5697 0.8569 0.5422
H30 H 0.6528 0.8791 0.6016
C42 C 0.58999(17) 1.0302(3) 0.85404(16)
C43 C 0.65914(19) 1.0402(4) 0.84059(18)
H31 H 0.6658 0.9905 0.8082
C44 C 0.7162(2) 1.1219(4) 0.8745(2)
H32 H 0.7624 1.1275 0.8662
C45 C 0.7050(3) 1.1946(4) 0.9204(2)
C46 C 0.6390(3) 1.1944(4) 0.9346(2)
C47 C 0.5810(2) 1.1078(3) 0.89956(17)
H33 H 0.5348 1.1037 0.9079
C48 C 0.6283(4) 1.2752(5) 0.9854(4)
H34 H 0.6478 1.2362 1.0291
H35 H 0.5728 1.2934 0.9717
H36 H 0.6575 1.3483 0.9885
F1 F 0.61646(14) 0.5952(2) 1.09808(10)
F2 F 0.72747(16) 0.4417(3) 0.76749(16)
F3 F 0.13428(11) 0.8184(2) 0.78595(13)
F4 F 0.25443(16) 0.5849(3) 0.49597(13)
F5 F 0.5667(2) 1.1490(4) 0.55363(15)
F6 F 0.76315(18) 1.2768(3) 0.95596(17)
O1 O 0.5374(8) 0.5550(8) 0.5825(7)
H37 H 0.5307 0.5489 0.6267
C49 C 0.5615(9) 0.4917(14) 0.5071(8)
H38 H 0.5639 0.5018 0.4633
H39 H 0.5921 0.5486 0.5383
H40 H 0.5780 0.4107 0.5229
loop_
_geom_bond_atom_site_label_1
_geom_bond_atom_site_label_2
_geom_bond_site_symmetry_1
_geom_bond_site_symmetry_2
C1 C2 1_555 1_555
C2 H1 1_555 1_555
C3 C2 1_555 1_555
C4 C3 1_555 1_555
H2 C4 1_555 1_555
C5 C4 1_555 1_555
C6 C5 1_555 1_555
C7 C6 1_555 1_555
C8 C7 1_555 1_555
C9 C5 1_555 1_555
C10 C3 1_555 1_555
C11 C10 1_555 1_555
H3 C11 1_555 1_555
C12 C1 1_555 1_555
C13 C12 1_555 1_555
H4 C13 1_555 1_555
H5 C13 1_555 1_555
H6 C13 1_555 1_555
C14 C4 1_555 1_555
C15 C14 1_555 1_555
H7 C15 1_555 1_555
C16 C15 1_555 1_555
C17 C16 1_555 1_555
C18 C17 1_555 1_555
H8 C18 1_555 1_555
C19 C14 1_555 1_555
H9 C19 1_555 1_555
C20 C16 1_555 1_555
H10 C20 1_555 1_555
H11 C20 1_555 1_555
H12 C20 1_555 1_555
C21 C5 1_555 1_555
C22 C21 1_555 1_555
H13 C22 1_555 1_555
C23 C22 1_555 1_555
C24 C23 1_555 1_555
C25 C24 1_555 1_555
H14 C25 1_555 1_555
C26 C21 1_555 1_555
H15 C26 1_555 1_555
C27 C23 1_555 1_555
H16 C27 1_555 1_555
H17 C27 1_555 1_555
H18 C27 1_555 1_555
C28 C6 1_555 1_555
C29 C28 1_555 1_555
H19 C29 1_555 1_555
C30 C29 1_555 1_555
H20 C30 1_555 1_555
C31 C30 1_555 1_555
C32 C31 1_555 1_555
C33 C28 1_555 1_555
H21 C33 1_555 1_555
C34 C32 1_555 1_555
H22 C34 1_555 1_555
H23 C34 1_555 1_555
H24 C34 1_555 1_555
C35 C7 1_555 1_555
C36 C35 1_555 1_555
H25 C36 1_555 1_555
C37 C36 1_555 1_555
C38 C37 1_555 1_555
C39 C38 1_555 1_555
H26 C39 1_555 1_555
C40 C35 1_555 1_555
H27 C40 1_555 1_555
C41 C37 1_555 1_555
H28 C41 1_555 1_555
H29 C41 1_555 1_555
H30 C41 1_555 1_555
C42 C8 1_555 1_555
C43 C42 1_555 1_555
H31 C43 1_555 1_555
C44 C43 1_555 1_555
H32 C44 1_555 1_555
C45 C44 1_555 1_555
C46 C45 1_555 1_555
C47 C42 1_555 1_555
H33 C47 1_555 1_555
C48 C46 1_555 1_555
H34 C48 1_555 1_555
H35 C48 1_555 1_555
H36 C48 1_555 1_555
F1 C1 1_555 1_555
F2 C17 1_555 1_555
F3 C24 1_555 1_555
F4 C31 1_555 1_555
F5 C38 1_555 1_555
F6 C45 1_555 1_555
O1 H37 1_555 1_555
C49 O1 1_555 1_555
H38 C49 1_555 1_555
H39 C49 1_555 1_555
H40 C49 1_555 1_555
C8 C9 1_555 1_555
C9 C10 1_555 1_555
C11 C12 1_555 1_555
C18 C19 1_555 1_555
C25 C26 1_555 1_555
C32 C33 1_555 1_555
C39 C40 1_555 1_555
C46 C47 1_555 1_555

#END
