
#######################################################################
#
#                 Cambridge Crystallographic Data Centre
#                                CCDC 
#
#######################################################################
#
# If this CIF has been generated from an entry in the Cambridge 
# Structural Database, then it will include bibliographic, chemical, 
# crystal, experimental, refinement or atomic coordinate data resulting 
# from the CCDC's data processing and validation procedures.
#
#######################################################################

data_XOQMIB
_chemical_formula_moiety         'C19 H19 N1 O3'
_chemical_name_systematic        
10b-(2-hydroxy-1-phenylethyl)-3,4-dihydro-2H-[1,3]oxazino[2,3-a]isoindol-6(10bH)-one
_symmetry_cell_setting           triclinic
_symmetry_space_group_name_H-M   'P -1'
_symmetry_Int_Tables_number      2
_space_group_name_Hall           '-P 1'
loop_
_symmetry_equiv_pos_site_id
_symmetry_equiv_pos_as_xyz
1 x,y,z
2 -x,-y,-z
_cell_length_a                   9.255(6)
_cell_length_b                   9.299(6)
_cell_length_c                   10.208(7)
_cell_angle_alpha                91.173(11)
_cell_angle_beta                 109.081(12)
_cell_angle_gamma                102.498(11)
_cell_volume                     806.61
_cell_formula_units_Z            2
loop_
_atom_site_label
_atom_site_type_symbol
_atom_site_fract_x
_atom_site_fract_y
_atom_site_fract_z
C1 C 0.324175 0.497302 0.161476
C2 C 0.277464 0.73644 0.143084
C3 C 0.242714 0.75233 0.387556
H1 H 0.217599 0.844097 0.380056
C4 C 0.249164 0.679403 0.505213
H2 H 0.23057 0.723975 0.578595
C5 C 0.282693 0.541634 0.51581
H3 H 0.285859 0.494351 0.595765
C6 C 0.311444 0.473762 0.409093
H4 H 0.332979 0.380482 0.415358
C7 C 0.30758 0.547241 0.29273
C8 C 0.274494 0.685517 0.28145
C9 C 0.279143 0.594613 -0.069808
H5 H 0.288538 0.498198 -0.099166
H6 H 0.354748 0.669884 -0.093233
C10 C 0.114741 0.612912 -0.142342
H7 H 0.038988 0.527952 -0.131712
H8 H 0.09688 0.617839 -0.24105
C11 C 0.091635 0.752239 -0.081816
H9 H 0.16098 0.837579 -0.100164
H10 H -0.015892 0.760048 -0.127027
C12 C 0.406417 0.878801 0.151061
H11 H 0.407184 0.888917 0.055901
C13 C 0.568782 0.864108 0.237505
C14 C 0.667686 0.825602 0.17282
H12 H 0.633391 0.809609 0.076175
C15 C 0.816913 0.810647 0.250285
H13 H 0.881549 0.784139 0.205549
C16 C 0.868913 0.834871 0.392319
H14 H 0.968811 0.824558 0.444238
C17 C 0.773448 0.874527 0.45853
H15 H 0.808996 0.891614 0.555144
C18 C 0.625364 0.888845 0.381556
H16 H 0.561774 0.915745 0.427254
C19 C 0.364445 1.01735 0.196276
H17 H 0.261193 1.02352 0.13518
H18 H 0.362646 1.01374 0.290646
N1 N 0.309901 0.60878 0.079679
O1 O 0.342713 0.3763 0.127663
O2 O 0.123796 0.752944 0.066189
O3 O 0.47965 1.1419 0.18935
H19 H 0.432143 1.21575 0.182812
loop_
_geom_bond_atom_site_label_1
_geom_bond_atom_site_label_2
_geom_bond_site_symmetry_1
_geom_bond_site_symmetry_2
C1 C7 1_555 1_555
C2 C8 1_555 1_555
C3 H1 1_555 1_555
C4 C3 1_555 1_555
H2 C4 1_555 1_555
C5 C4 1_555 1_555
H3 C5 1_555 1_555
C6 C5 1_555 1_555
H4 C6 1_555 1_555
C7 C6 1_555 1_555
C8 C3 1_555 1_555
C9 H5 1_555 1_555
H6 C9 1_555 1_555
C10 C9 1_555 1_555
H7 C10 1_555 1_555
H8 C10 1_555 1_555
C11 C10 1_555 1_555
H9 C11 1_555 1_555
H10 C11 1_555 1_555
C12 C2 1_555 1_555
H11 C12 1_555 1_555
C13 C12 1_555 1_555
C14 C13 1_555 1_555
H12 C14 1_555 1_555
C15 C14 1_555 1_555
H13 C15 1_555 1_555
C16 C15 1_555 1_555
H14 C16 1_555 1_555
C17 C16 1_555 1_555
H15 C17 1_555 1_555
C18 C13 1_555 1_555
H16 C18 1_555 1_555
C19 C12 1_555 1_555
H17 C19 1_555 1_555
H18 C19 1_555 1_555
N1 C1 1_555 1_555
O1 C1 1_555 1_555
O2 C2 1_555 1_555
O3 C19 1_555 1_555
H19 O3 1_555 1_555
C2 N1 1_555 1_555
C7 C8 1_555 1_555
C9 N1 1_555 1_555
C11 O2 1_555 1_555
C17 C18 1_555 1_555

#END
