
#######################################################################
#
#                 Cambridge Crystallographic Data Centre
#                                CCDC 
#
#######################################################################
#
# If this CIF has been generated from an entry in the Cambridge 
# Structural Database, then it will include bibliographic, chemical, 
# crystal, experimental, refinement or atomic coordinate data resulting 
# from the CCDC's data processing and validation procedures.
#
#######################################################################

data_XOSBAJ
_chemical_name_common            
"trans-anti-3,3'-bis(n-butyl)-3,3'-dihydroxy-5,5',6,6'-tetramethoxy-[2,2'-bi-3H-indenylidene]-1,1'-dione dichloromethane solvate"
_chemical_formula_moiety         'C30 H36 O8,C1 H2 Cl2'
_chemical_name_systematic        
'3-n-Butyl-2-(1-n-butyl-1-hydroxy-5,6-dimethoxy-3-oxo-1,3-dihydro-2H-inden-2-ylidene)-3-hydroxy-5,6-dimethoxy-1-indanone dichloromethane solvate'
_symmetry_cell_setting           monoclinic
_symmetry_space_group_name_H-M   'C 2/c'
_symmetry_Int_Tables_number      15
_space_group_name_Hall           '-C 2yn'
loop_
_symmetry_equiv_pos_site_id
_symmetry_equiv_pos_as_xyz
1 x,y,z
2 -x,y,1/2-z
3 1/2+x,1/2+y,z
4 1/2-x,1/2+y,1/2-z
5 -x,-y,-z
6 x,-y,1/2+z
7 1/2-x,1/2-y,-z
8 1/2+x,1/2-y,1/2+z
_cell_length_a                   11.6741(16)
_cell_length_b                   13.8231(19)
_cell_length_c                   19.620(3)
_cell_angle_alpha                90
_cell_angle_beta                 105.119(2)
_cell_angle_gamma                90
_cell_volume                     3056.53
_chemical_melting_point          '281-283 deg.C'
_cell_formula_units_Z            4
_chemical_properties_physical    light-sensitive
_exptl_crystal_recrystallization_method dichloromethane
_exptl_crystal_preparation       'photochromic and photomagnetic'
loop_
_atom_site_label
_atom_site_type_symbol
_atom_site_fract_x
_atom_site_fract_y
_atom_site_fract_z
O1 O 0.0862(2) -0.21196(17) 1.01089(13)
O2 O 0.1331(2) -0.16648(17) 1.14021(13)
O3 O 0.1733(2) 0.12508(16) 0.89280(12)
O4 O 0.2176(2) 0.21337(16) 1.13060(12)
H1 H 0.2455 0.2682 1.1357
C1 C 0.1499(3) -0.0942(2) 1.09741(17)
C2 C 0.1220(3) -0.1189(2) 1.02469(17)
C3 C 0.1303(3) -0.0514(2) 0.97527(17)
H2 H 0.1079 -0.0660 0.9273
C4 C 0.1739(3) 0.0408(2) 0.99926(16)
C5 C 0.2077(3) 0.0630(2) 1.07005(16)
C6 C 0.1939(3) -0.0034(2) 1.12051(17)
H3 H 0.2137 0.0125 1.1682
C7 C 0.1425(5) -0.1446(3) 1.2125(2)
H4 H 0.2240 -0.1328 1.2366
H5 H 0.0962 -0.0881 1.2155
H6 H 0.1134 -0.1983 1.2343
C8 C 0.0775(4) -0.2472(3) 0.9408(2)
H7 H 0.0155 -0.2131 0.9077
H8 H 0.1515 -0.2369 0.9292
H9 H 0.0597 -0.3151 0.9386
C9 C 0.1929(3) 0.1233(2) 0.95749(17)
C10 C 0.2418(3) 0.2039(2) 1.00886(16)
C11 C 0.2678(3) 0.1609(2) 1.08362(16)
C12 C 0.4031(3) 0.1473(3) 1.11600(17)
H10 H 0.4152 0.1205 1.1630
H11 H 0.4406 0.2105 1.1209
C13 C 0.4660(3) 0.0825(3) 1.0745(2)
H12 H 0.4340 0.0176 1.0732
H13 H 0.4490 0.1059 1.0262
C14 C 0.6004(4) 0.0780(4) 1.1047(2)
H14 H 0.6319 0.1431 1.1060
H15 H 0.6337 0.0405 1.0727
C15 C 0.6402(5) 0.0374(5) 1.1733(3)
H16 H 0.6145 0.0773 1.2065
H17 H 0.6078 -0.0264 1.1734
H18 H 0.7253 0.0338 1.1864
O1F O 0.4138(2) 0.71196(17) 0.98911(13)
O2F O 0.3669(2) 0.66648(17) 0.85979(13)
O3F O 0.3267(2) 0.37492(16) 1.10720(12)
O4F O 0.2824(2) 0.28663(16) 0.86940(12)
H1F H 0.2545 0.2318 0.8643
C1F C 0.3501(3) 0.5942(2) 0.90259(17)
C2F C 0.3780(3) 0.6189(2) 0.97531(17)
C3F C 0.3697(3) 0.5514(2) 1.02473(17)
H2F H 0.3921 0.5660 1.0727
C4F C 0.3261(3) 0.4592(2) 1.00074(16)
C5F C 0.2923(3) 0.4370(2) 0.92995(16)
C6F C 0.3061(3) 0.5034(2) 0.87949(17)
H3F H 0.2863 0.4875 0.8318
C7F C 0.3575(5) 0.6446(3) 0.7875(2)
H4F H 0.2760 0.6328 0.7634
H5F H 0.4038 0.5881 0.7845
H6F H 0.3866 0.6983 0.7657
C8F C 0.4225(4) 0.7472(3) 1.0592(2)
H7F H 0.4845 0.7131 1.0923
H8F H 0.3485 0.7369 1.0708
H9F H 0.4403 0.8151 1.0614
C9F C 0.3071(3) 0.3767(2) 1.04251(17)
C10F C 0.2582(3) 0.2961(2) 0.99114(16)
C11F C 0.2322(3) 0.3391(2) 0.91638(16)
C12F C 0.0969(3) 0.3527(3) 0.88400(17)
H10F H 0.0848 0.3795 0.8370
H11F H 0.0594 0.2895 0.8791
C13F C 0.0340(3) 0.4175(3) 0.9255(2)
H12F H 0.0660 0.4824 0.9268
H13F H 0.0510 0.3941 0.9738
C14F C -0.1004(4) 0.4220(4) 0.8953(2)
H14F H -0.1319 0.3569 0.8940
H15F H -0.1337 0.4595 0.9273
C15F C -0.1402(5) 0.4626(5) 0.8267(3)
H16F H -0.1145 0.4227 0.7935
H17F H -0.1078 0.5264 0.8266
H18F H -0.2253 0.4662 0.8136
Cl1 Cl 0.5000 0.8147(2) 0.2500
Cl2 Cl 0.5000 0.6105(2) 0.2500
C16 C 0.4089(8) 0.7092(6) 0.2416(5)
H19 H 0.3665 0.7086 0.2780
H20 H 0.3514 0.7086 0.1959
C16A C 0.5911(8) 0.7092(6) 0.2584(5)
H19A H 0.6335 0.7086 0.2220
H20A H 0.6486 0.7086 0.3041
loop_
_geom_bond_atom_site_label_1
_geom_bond_atom_site_label_2
_geom_bond_site_symmetry_1
_geom_bond_site_symmetry_2
Cl1 C16 1_555 1_555
Cl2 C16 1_555 1_555
O1 C2 1_555 1_555
O2 C1 1_555 1_555
O3 C9 1_555 1_555
O4 H1 1_555 1_555
C1 C2 1_555 1_555
C2 C3 1_555 1_555
C3 H2 1_555 1_555
C4 C3 1_555 1_555
C5 C4 1_555 1_555
C6 C1 1_555 1_555
H3 C6 1_555 1_555
C7 O2 1_555 1_555
H4 C7 1_555 1_555
H5 C7 1_555 1_555
H6 C7 1_555 1_555
C8 O1 1_555 1_555
H7 C8 1_555 1_555
H8 C8 1_555 1_555
H9 C8 1_555 1_555
C9 C4 1_555 1_555
C10 C9 1_555 1_555
C11 O4 1_555 1_555
C12 C11 1_555 1_555
H10 C12 1_555 1_555
H11 C12 1_555 1_555
C13 C12 1_555 1_555
H12 C13 1_555 1_555
H13 C13 1_555 1_555
C14 C13 1_555 1_555
H14 C14 1_555 1_555
H15 C14 1_555 1_555
C15 C14 1_555 1_555
H16 C15 1_555 1_555
H17 C15 1_555 1_555
H18 C15 1_555 1_555
C16 H19 1_555 1_555
H20 C16 1_555 1_555
O1F C2F 1_555 1_555
O2F C1F 1_555 1_555
O3F C9F 1_555 1_555
O4F H1F 1_555 1_555
C1F C2F 1_555 1_555
C2F C3F 1_555 1_555
C3F H2F 1_555 1_555
C4F C3F 1_555 1_555
C5F C4F 1_555 1_555
C6F C1F 1_555 1_555
H3F C6F 1_555 1_555
C7F O2F 1_555 1_555
H4F C7F 1_555 1_555
H5F C7F 1_555 1_555
H6F C7F 1_555 1_555
C8F O1F 1_555 1_555
H7F C8F 1_555 1_555
H8F C8F 1_555 1_555
H9F C8F 1_555 1_555
C9F C4F 1_555 1_555
C10F C10 1_555 1_555
C11F O4F 1_555 1_555
C12F C11F 1_555 1_555
H10F C12F 1_555 1_555
H11F C12F 1_555 1_555
C13F C12F 1_555 1_555
H12F C13F 1_555 1_555
H13F C13F 1_555 1_555
C14F C13F 1_555 1_555
H14F C14F 1_555 1_555
H15F C14F 1_555 1_555
C15F C14F 1_555 1_555
H16F C15F 1_555 1_555
H17F C15F 1_555 1_555
H18F C15F 1_555 1_555
C16A Cl1 1_555 1_555
H19A C16A 1_555 1_555
H20A C16A 1_555 1_555
Cl2 C16A 1_555 1_555
C5 C6 1_555 1_555
C5 C11 1_555 1_555
C10 C11 1_555 1_555
C5F C6F 1_555 1_555
C5F C11F 1_555 1_555
C9F C10F 1_555 1_555
C10F C11F 1_555 1_555

#END
