
#######################################################################
#
#                 Cambridge Crystallographic Data Centre
#                                CCDC 
#
#######################################################################
#
# If this CIF has been generated from an entry in the Cambridge 
# Structural Database, then it will include bibliographic, chemical, 
# crystal, experimental, refinement or atomic coordinate data resulting 
# from the CCDC's data processing and validation procedures.
#
#######################################################################

data_XOSJEV
_chemical_formula_moiety         'C19 H22 F1 N1 O3'
_chemical_name_systematic        
(1S,2R,5S,8R,1'R)-5-(1'-Hydroxy-1'-(2-fluorophenyl)methyl)-8,11,11-trimethyl-3-oxa-6-azatricyclo(6.2.1.0^2,7^)undec-6-en-4-one
_symmetry_cell_setting           orthorhombic
_symmetry_space_group_name_H-M   'P 21 21 21'
_symmetry_Int_Tables_number      19
_space_group_name_Hall           'P 2ac 2ab'
loop_
_symmetry_equiv_pos_site_id
_symmetry_equiv_pos_as_xyz
1 x,y,z
2 1/2-x,-y,1/2+z
3 -x,1/2+y,1/2-z
4 1/2+x,1/2-y,-z
_cell_length_a                   10.4278(8)
_cell_length_b                   12.2750(10)
_cell_length_c                   13.8915(11)
_cell_angle_alpha                90
_cell_angle_beta                 90
_cell_angle_gamma                90
_cell_volume                     1778.13
_exptl_crystal_colour            white
_chemical_melting_point          '138-140 deg.C'
_cell_formula_units_Z            4
loop_
_atom_site_label
_atom_site_type_symbol
_atom_site_fract_x
_atom_site_fract_y
_atom_site_fract_z
F1 F 0.79525(16) -0.49534(13) -1.02268(12)
O1 O 0.8434(2) -0.73356(13) -1.26574(11)
O2 O 0.89970(15) -0.89278(11) -1.20797(9)
O3 O 1.04848(11) -0.74972(12) -1.05326(12)
H1 H 1.0392 -0.8006 -1.0908
N1 N 0.77698(13) -0.83856(11) -1.03115(10)
C1 C 0.9215(2) -1.07612(16) -1.13097(16)
H2 H 0.9488 -1.1049 -1.1935
C2 C 0.92935(18) -0.95271(15) -1.12048(14)
H3 H 1.0142 -0.9317 -1.0965
C3 C 0.85803(19) -0.79044(16) -1.19669(13)
C4 C 0.82460(17) -0.75135(14) -1.09507(13)
H4 H 0.7533 -0.7000 -1.1026
C5 C 0.82884(16) -0.93027(13) -1.04491(12)
C6 C 0.78836(19) -1.03921(15) -1.00425(13)
C7 C 0.9105(2) -1.08806(19) -0.95739(18)
H5 H 0.8896 -1.1520 -0.9194
H6 H 0.9524 -1.0350 -0.9163
C8 C 0.9972(2) -1.1186(2) -1.0439(2)
H7 H 1.0802 -1.0834 -1.0391
H8 H 1.0095 -1.1968 -1.0478
C9 C 0.7823(2) -1.10478(16) -1.10114(13)
C10 C 0.6814(2) -1.06392(18) -1.17106(15)
H9 H 0.6931 -0.9873 -1.1816
H10 H 0.5976 -1.0767 -1.1447
H11 H 0.6897 -1.1020 -1.2311
C11 C 0.7611(3) -1.22739(18) -1.08672(18)
H12 H 0.7589 -1.2630 -1.1482
H13 H 0.6812 -1.2391 -1.0540
H14 H 0.8299 -1.2569 -1.0489
C12 C 0.6693(3) -1.03719(18) -0.94209(16)
H15 H 0.5995 -1.0062 -0.9779
H16 H 0.6851 -0.9940 -0.8857
H17 H 0.6476 -1.1102 -0.9232
C13 C 0.93705(16) -0.68456(14) -1.05350(14)
H18 H 0.9523 -0.6224 -1.0963
C14 C 0.90628(17) -0.64060(15) -0.95398(14)
C15 C 0.8373(2) -0.54672(19) -0.94231(17)
C16 C 0.8103(3) -0.5014(3) -0.8530(2)
H19 H 0.7640 -0.4369 -0.8474
C17 C 0.8548(3) -0.5560(4) -0.7728(2)
H20 H 0.8375 -0.5282 -0.7119
C18 C 0.9246(3) -0.6509(3) -0.78133(18)
H21 H 0.9546 -0.6866 -0.7267
C19 C 0.9492(2) -0.6921(2) -0.87114(17)
H22 H 0.9959 -0.7564 -0.8767
loop_
_geom_bond_atom_site_label_1
_geom_bond_atom_site_label_2
_geom_bond_site_symmetry_1
_geom_bond_site_symmetry_2
F1 C15 1_555 1_555
O1 C3 1_555 1_555
O2 C2 1_555 1_555
O3 H1 1_555 1_555
N1 C4 1_555 1_555
C1 H2 1_555 1_555
C2 C1 1_555 1_555
H3 C2 1_555 1_555
C3 O2 1_555 1_555
C4 C3 1_555 1_555
H4 C4 1_555 1_555
C5 N1 1_555 1_555
C6 C5 1_555 1_555
C7 C6 1_555 1_555
H5 C7 1_555 1_555
H6 C7 1_555 1_555
C8 C1 1_555 1_555
H7 C8 1_555 1_555
H8 C8 1_555 1_555
C9 C1 1_555 1_555
C10 C9 1_555 1_555
H9 C10 1_555 1_555
H10 C10 1_555 1_555
H11 C10 1_555 1_555
C11 C9 1_555 1_555
H12 C11 1_555 1_555
H13 C11 1_555 1_555
H14 C11 1_555 1_555
C12 C6 1_555 1_555
H15 C12 1_555 1_555
H16 C12 1_555 1_555
H17 C12 1_555 1_555
C13 O3 1_555 1_555
H18 C13 1_555 1_555
C14 C13 1_555 1_555
C15 C14 1_555 1_555
C16 C15 1_555 1_555
H19 C16 1_555 1_555
C17 C16 1_555 1_555
H20 C17 1_555 1_555
C18 C17 1_555 1_555
H21 C18 1_555 1_555
C19 C14 1_555 1_555
H22 C19 1_555 1_555
C2 C5 1_555 1_555
C4 C13 1_555 1_555
C6 C9 1_555 1_555
C7 C8 1_555 1_555
C18 C19 1_555 1_555

#END
