
#######################################################################
#
#                 Cambridge Crystallographic Data Centre
#                                CCDC 
#
#######################################################################
#
# If this CIF has been generated from an entry in the Cambridge 
# Structural Database, then it will include bibliographic, chemical, 
# crystal, experimental, refinement or atomic coordinate data resulting 
# from the CCDC's data processing and validation procedures.
#
#######################################################################

data_XOSKEW
_chemical_formula_moiety         'C20 H25 N1 O4'
_chemical_name_systematic        
5-(1'-Hydroxy-1'-(4-methoxyphenyl)methyl)-1,11,11-trimethyl-3-oxa-6-azatricyclo(6.2.1.0^2,7^)undec-6-en-4-one
_symmetry_cell_setting           orthorhombic
_symmetry_space_group_name_H-M   'P 21 21 21'
_symmetry_Int_Tables_number      19
_space_group_name_Hall           'P 2ac 2ab'
loop_
_symmetry_equiv_pos_site_id
_symmetry_equiv_pos_as_xyz
1 x,y,z
2 1/2-x,-y,1/2+z
3 1/2+x,1/2-y,-z
4 -x,1/2+y,1/2-z
_cell_length_a                   10.349(4)
_cell_length_b                   13.271(4)
_cell_length_c                   13.249(5)
_cell_angle_alpha                90
_cell_angle_beta                 90
_cell_angle_gamma                90
_cell_volume                     1819.64
_exptl_crystal_colour            colorless
_exptl_crystal_description       block
_cell_formula_units_Z            4
loop_
_atom_site_label
_atom_site_type_symbol
_atom_site_fract_x
_atom_site_fract_y
_atom_site_fract_z
O1 O -0.8237(1) -0.0917(1) -0.7128(1)
O2 O -0.8868(2) 0.0039(1) -0.5865(1)
O3 O -0.9107(1) -0.2597(1) -0.5340(1)
O4 O -0.5937(2) -0.3893(1) -0.1424(1)
N1 N -0.6444(1) -0.1942(1) -0.5842(1)
C1 C -0.7786(2) -0.1924(1) -0.7385(1)
C2 C -0.8264(2) -0.0689(2) -0.6140(2)
C3 C -0.7469(2) -0.1319(2) -0.5400(1)
C4 C -0.6635(2) -0.2212(1) -0.6750(1)
C5 C -0.5674(2) -0.2657(2) -0.7469(2)
C6 C -0.6289(2) -0.3592(2) -0.7969(2)
C7 C -0.7323(2) -0.3148(2) -0.8680(2)
C8 C -0.7258(2) -0.2003(1) -0.8469(1)
C9 C -0.5770(2) -0.1847(2) -0.8320(2)
C10 C -0.5378(2) -0.0787(2) -0.7981(2)
C11 C -0.4961(2) -0.2105(2) -0.9248(2)
C12 C -0.7913(2) -0.1343(2) -0.9237(2)
C13 C -0.8383(2) -0.1936(2) -0.4718(1)
C14 C -0.7643(2) -0.2476(2) -0.3884(1)
C15 C -0.7225(2) -0.1938(2) -0.3038(2)
C16 C -0.6629(2) -0.2427(2) -0.2241(2)
C17 C -0.6449(2) -0.3466(2) -0.2276(2)
C18 C -0.6807(2) -0.3995(2) -0.3133(2)
C19 C -0.7409(2) -0.3491(2) -0.3926(2)
C20 C -0.5780(3) -0.4957(2) -0.1412(2)
H1 H -0.8477 -0.2408 -0.7288
H2 H -0.7039 -0.0842 -0.4959
H3 H -0.4815 -0.2760 -0.7195
H4 H -0.5649 -0.3970 -0.8347
H5 H -0.6682 -0.4027 -0.7466
H6 H -0.7118 -0.3292 -0.9380
H7 H -0.8172 -0.3413 -0.8521
H8 H -0.4465 -0.0780 -0.7817
H9 H -0.5547 -0.0311 -0.8521
H10 H -0.5875 -0.0599 -0.7389
H11 H -0.5191 -0.2772 -0.9487
H12 H -0.5126 -0.1615 -0.9776
H13 H -0.4052 -0.2092 -0.9071
H14 H -0.7818 -0.0642 -0.9043
H15 H -0.7519 -0.1448 -0.9893
H16 H -0.8823 -0.1513 -0.9271
H17 H -0.8982 -0.1471 -0.4402
H18 H -0.7353 -0.1215 -0.3010
H19 H -0.6337 -0.2046 -0.1659
H20 H -0.6640 -0.4712 -0.3180
H21 H -0.7668 -0.3867 -0.4521
H22 H -0.6614 -0.5278 -0.1505
H23 H -0.5204 -0.5157 -0.1953
H24 H -0.5417 -0.5163 -0.0769
loop_
_geom_bond_atom_site_label_1
_geom_bond_atom_site_label_2
_geom_bond_site_symmetry_1
_geom_bond_site_symmetry_2
O1 C1 1_555 1_555
O2 C2 1_555 1_555
O3 C13 1_555 1_555
O4 C17 1_555 1_555
N1 C3 1_555 1_555
C1 C4 1_555 1_555
C2 O1 1_555 1_555
C3 C2 1_555 1_555
C4 N1 1_555 1_555
C5 C4 1_555 1_555
C6 C5 1_555 1_555
C7 C6 1_555 1_555
C8 C1 1_555 1_555
C9 C5 1_555 1_555
C10 C9 1_555 1_555
C11 C9 1_555 1_555
C12 C8 1_555 1_555
C13 C3 1_555 1_555
C14 C13 1_555 1_555
C15 C14 1_555 1_555
C16 C15 1_555 1_555
C17 C16 1_555 1_555
C18 C17 1_555 1_555
C19 C14 1_555 1_555
C20 O4 1_555 1_555
H1 C1 1_555 1_555
H2 C3 1_555 1_555
H3 C5 1_555 1_555
H4 C6 1_555 1_555
H5 C6 1_555 1_555
H6 C7 1_555 1_555
H7 C7 1_555 1_555
H8 C10 1_555 1_555
H9 C10 1_555 1_555
H10 C10 1_555 1_555
H11 C11 1_555 1_555
H12 C11 1_555 1_555
H13 C11 1_555 1_555
H14 C12 1_555 1_555
H15 C12 1_555 1_555
H16 C12 1_555 1_555
H17 C13 1_555 1_555
H18 C15 1_555 1_555
H19 C16 1_555 1_555
H20 C18 1_555 1_555
H21 C19 1_555 1_555
H22 C20 1_555 1_555
H23 C20 1_555 1_555
H24 C20 1_555 1_555
C7 C8 1_555 1_555
C8 C9 1_555 1_555
C18 C19 1_555 1_555

#END
