
#######################################################################
#
#                 Cambridge Crystallographic Data Centre
#                                CCDC 
#
#######################################################################
#
# If this CIF has been generated from an entry in the Cambridge 
# Structural Database, then it will include bibliographic, chemical, 
# crystal, experimental, refinement or atomic coordinate data resulting 
# from the CCDC's data processing and validation procedures.
#
#######################################################################

data_XOWCOC
_chemical_formula_moiety         'C12 H24 O6,H10 B3 N1'
_chemical_name_systematic        'Ammonia-(cyclotriborane) 18-crown-6'
_symmetry_cell_setting           monoclinic
_symmetry_space_group_name_H-M   'P 21/n'
_symmetry_Int_Tables_number      14
_space_group_name_Hall           '-P 2yn'
loop_
_symmetry_equiv_pos_site_id
_symmetry_equiv_pos_as_xyz
1 x,y,z
2 1/2-x,1/2+y,1/2-z
3 -x,-y,-z
4 1/2+x,1/2-y,1/2+z
_cell_length_a                   21.961(3)
_cell_length_b                   8.5678(9)
_cell_length_c                   21.910(3)
_cell_angle_alpha                90
_cell_angle_beta                 113.555(3)
_cell_angle_gamma                90
_cell_volume                     3779.03
_cell_formula_units_Z            8
_exptl_crystal_recrystallization_method tetrahydrofuran/hexanes
loop_
_atom_site_label
_atom_site_type_symbol
_atom_site_fract_x
_atom_site_fract_y
_atom_site_fract_z
B1 B 0.51510(14) 0.3346(3) 0.16164(14)
B2 B 0.45784(15) 0.2612(4) 0.08061(16)
B3 B 0.49469(14) 0.4400(4) 0.08264(14)
N1 N 0.58734(10) 0.2629(3) 0.18593(11)
H1 H 0.4816(13) 0.258(4) 0.1756(13)
H2 H 0.5155(13) 0.440(3) 0.1892(13)
H3 H 0.4025(16) 0.262(4) 0.0696(16)
H4 H 0.4758(13) 0.154(4) 0.0715(14)
H5 H 0.4623(14) 0.540(4) 0.0769(14)
H6 H 0.5457(13) 0.459(3) 0.0815(13)
H7 H 0.4632(13) 0.352(3) 0.0336(14)
H8 H 0.6006(13) 0.222(3) 0.2310(15)
H9 H 0.6179(13) 0.343(3) 0.1885(12)
H10 H 0.5926(10) 0.191(3) 0.1647(11)
C1 C 0.55990(13) -0.0984(3) 0.26429(15)
C2 C 0.59991(13) -0.0236(3) 0.33012(14)
C3 C 0.64150(13) 0.2237(3) 0.37829(12)
C4 C 0.64160(13) 0.3914(3) 0.36069(13)
C5 C 0.68028(12) 0.5682(3) 0.30241(13)
C6 C 0.72268(12) 0.5841(3) 0.26365(12)
C7 C 0.72919(12) 0.5123(3) 0.16225(12)
C8 C 0.69214(13) 0.4340(3) 0.09668(12)
C9 C 0.64761(14) 0.1910(3) 0.04782(12)
C10 C 0.64545(14) 0.0221(3) 0.06374(13)
C11 C 0.60273(15) -0.1543(3) 0.12000(13)
C12 C 0.56149(14) -0.1639(3) 0.16017(13)
O1 O 0.60702(8) 0.13684(19) 0.31890(8)
O2 O 0.68103(7) 0.41050(19) 0.32293(8)
O3 O 0.68923(7) 0.51099(19) 0.19992(8)
O4 O 0.68374(8) 0.2742(2) 0.10787(8)
O5 O 0.60897(8) 0.0041(2) 0.10438(8)
O6 O 0.59760(7) -0.09791(19) 0.22463(8)
H11 H 0.5487(13) -0.206(4) 0.2700(14)
H12 H 0.5178(13) -0.034(3) 0.2383(13)
H13 H 0.5814(12) -0.036(3) 0.3624(13)
H14 H 0.6456(13) -0.073(3) 0.3512(13)
H15 H 0.6900(13) 0.183(3) 0.4010(12)
H16 H 0.6202(12) 0.211(3) 0.4093(14)
H17 H 0.5947(14) 0.427(3) 0.3337(14)
H18 H 0.6570(13) 0.459(3) 0.4008(14)
H19 H 0.6935(13) 0.640(4) 0.3404(15)
H20 H 0.6353(13) 0.600(3) 0.2774(13)
H21 H 0.7292(11) 0.696(3) 0.2576(11)
H22 H 0.7655(15) 0.533(3) 0.2895(15)
H23 H 0.7732(13) 0.458(3) 0.1888(13)
H24 H 0.7402(11) 0.624(3) 0.1564(11)
H25 H 0.6505(13) 0.478(3) 0.0722(13)
H26 H 0.7181(12) 0.445(3) 0.0682(12)
H27 H 0.6685(14) 0.201(3) 0.0162(14)
H28 H 0.6020(12) 0.234(3) 0.0251(12)
H29 H 0.6262(13) -0.029(3) 0.0227(15)
H30 H 0.6901(12) -0.019(3) 0.0862(12)
H31 H 0.6467(14) -0.209(4) 0.1424(14)
H32 H 0.5795(14) -0.224(4) 0.0790(15)
H33 H 0.5198(14) -0.098(4) 0.1396(14)
H34 H 0.5533(12) -0.280(4) 0.1641(13)
B4 B 0.33932(13) 0.3671(3) 0.48394(13)
B5 B 0.41658(13) 0.4795(3) 0.50477(15)
B6 B 0.42187(15) 0.3015(4) 0.54289(15)
N2 N 0.31682(10) 0.2937(2) 0.41158(10)
H35 H 0.3101(13) 0.470(3) 0.4842(13)
H36 H 0.3264(15) 0.283(4) 0.5167(16)
H37 H 0.4216(11) 0.583(3) 0.5343(12)
H38 H 0.4191(12) 0.500(3) 0.4533(13)
H39 H 0.4302(15) 0.300(4) 0.5949(17)
H40 H 0.4304(12) 0.182(3) 0.5241(13)
H41 H 0.4669(14) 0.387(4) 0.5354(15)
H42 H 0.2769(14) 0.259(3) 0.3994(13)
H43 H 0.3458(15) 0.206(4) 0.4096(15)
H44 H 0.3189(12) 0.365(3) 0.3802(14)
C13 C 0.14436(12) 0.4327(3) 0.36276(13)
C14 C 0.12580(12) 0.2655(3) 0.36448(13)
C15 C 0.17394(12) 0.0187(3) 0.40656(13)
C16 C 0.24017(12) -0.0591(3) 0.44354(12)
C17 C 0.34122(12) -0.1309(3) 0.43766(13)
C18 C 0.38003(13) -0.1235(3) 0.39585(14)
C19 C 0.43699(12) 0.0519(3) 0.35358(14)
C20 C 0.45302(12) 0.2215(3) 0.35125(14)
C21 C 0.40456(12) 0.4639(3) 0.30484(13)
C22 C 0.33901(12) 0.5414(3) 0.26826(12)
C23 C 0.23869(11) 0.6156(3) 0.27658(12)
C24 C 0.20164(12) 0.6044(3) 0.32041(13)
O7 O 0.18537(7) 0.17802(19) 0.39634(8)
O8 O 0.27695(7) -0.0632(2) 0.40294(8)
O9 O 0.39631(8) 0.03466(19) 0.38957(8)
O10 O 0.39333(7) 0.30350(19) 0.31363(8)
O11 O 0.30189(8) 0.54103(19) 0.30880(8)
O12 O 0.17937(7) 0.44812(18) 0.32074(8)
H45 H 0.1035(13) 0.502(3) 0.3472(13)
H46 H 0.1704(13) 0.475(3) 0.4074(14)
H47 H 0.0988(11) 0.254(3) 0.3903(12)
H48 H 0.1031(12) 0.218(3) 0.3192(14)
H49 H 0.1502(14) -0.033(3) 0.3622(15)
H50 H 0.1431(13) 0.017(3) 0.4358(13)
H51 H 0.2666(11) 0.002(3) 0.4880(12)
H52 H 0.2323(11) -0.165(3) 0.4560(11)
H53 H 0.3367(12) -0.239(4) 0.4469(12)
H54 H 0.3617(14) -0.074(3) 0.4771(15)
H55 H 0.4197(13) -0.183(3) 0.4173(12)
H56 H 0.3542(12) -0.172(3) 0.3513(13)
H57 H 0.4141(14) 0.013(3) 0.3063(15)
H58 H 0.4799(14) -0.012(3) 0.3785(14)
H59 H 0.4732(12) 0.268(3) 0.3986(13)
H60 H 0.4802(13) 0.235(3) 0.3257(13)
H61 H 0.4319(12) 0.473(3) 0.2763(13)
H62 H 0.4277(13) 0.517(3) 0.3481(14)
H63 H 0.3463(11) 0.649(3) 0.2573(12)
H64 H 0.3153(12) 0.484(3) 0.2282(13)
H65 H 0.2156(12) 0.559(3) 0.2331(13)
H66 H 0.2466(10) 0.729(3) 0.2690(11)
H67 H 0.2332(14) 0.636(3) 0.3664(15)
H68 H 0.1634(14) 0.677(3) 0.3051(13)
loop_
_geom_bond_atom_site_label_1
_geom_bond_atom_site_label_2
_geom_bond_site_symmetry_1
_geom_bond_site_symmetry_2
B1 B2 1_555 1_555
B2 B3 1_555 1_555
B3 B1 1_555 1_555
N1 B1 1_555 1_555
H1 B1 1_555 1_555
H2 B1 1_555 1_555
H3 B2 1_555 1_555
H4 B2 1_555 1_555
H5 B3 1_555 1_555
H6 B3 1_555 1_555
H7 B2 1_555 1_555
H8 N1 1_555 1_555
H9 N1 1_555 1_555
H10 N1 1_555 1_555
C1 C2 1_555 1_555
C2 O1 1_555 1_555
C3 C4 1_555 1_555
C4 O2 1_555 1_555
C5 C6 1_555 1_555
C6 O3 1_555 1_555
C7 C8 1_555 1_555
C8 O4 1_555 1_555
C9 C10 1_555 1_555
C10 O5 1_555 1_555
C11 C12 1_555 1_555
C12 O6 1_555 1_555
O1 C3 1_555 1_555
O2 C5 1_555 1_555
O3 C7 1_555 1_555
O4 C9 1_555 1_555
O5 C11 1_555 1_555
O6 C1 1_555 1_555
H11 C1 1_555 1_555
H12 C1 1_555 1_555
H13 C2 1_555 1_555
H14 C2 1_555 1_555
H15 C3 1_555 1_555
H16 C3 1_555 1_555
H17 C4 1_555 1_555
H18 C4 1_555 1_555
H19 C5 1_555 1_555
H20 C5 1_555 1_555
H21 C6 1_555 1_555
H22 C6 1_555 1_555
H23 C7 1_555 1_555
H24 C7 1_555 1_555
H25 C8 1_555 1_555
H26 C8 1_555 1_555
H27 C9 1_555 1_555
H28 C9 1_555 1_555
H29 C10 1_555 1_555
H30 C10 1_555 1_555
H31 C11 1_555 1_555
H32 C11 1_555 1_555
H33 C12 1_555 1_555
H34 C12 1_555 1_555
B4 B5 1_555 1_555
B5 B6 1_555 1_555
B6 B4 1_555 1_555
N2 B4 1_555 1_555
H35 B4 1_555 1_555
H36 B4 1_555 1_555
H37 B5 1_555 1_555
H38 B5 1_555 1_555
H39 B6 1_555 1_555
H40 B6 1_555 1_555
H41 B5 1_555 1_555
H42 N2 1_555 1_555
H43 N2 1_555 1_555
H44 N2 1_555 1_555
C13 C14 1_555 1_555
C14 O7 1_555 1_555
C15 C16 1_555 1_555
C16 O8 1_555 1_555
C17 C18 1_555 1_555
C18 O9 1_555 1_555
C19 C20 1_555 1_555
C20 O10 1_555 1_555
C21 C22 1_555 1_555
C22 O11 1_555 1_555
C23 C24 1_555 1_555
C24 O12 1_555 1_555
O7 C15 1_555 1_555
O8 C17 1_555 1_555
O9 C19 1_555 1_555
O10 C21 1_555 1_555
O11 C23 1_555 1_555
O12 C13 1_555 1_555
H45 C13 1_555 1_555
H46 C13 1_555 1_555
H47 C14 1_555 1_555
H48 C14 1_555 1_555
H49 C15 1_555 1_555
H50 C15 1_555 1_555
H51 C16 1_555 1_555
H52 C16 1_555 1_555
H53 C17 1_555 1_555
H54 C17 1_555 1_555
H55 C18 1_555 1_555
H56 C18 1_555 1_555
H57 C19 1_555 1_555
H58 C19 1_555 1_555
H59 C20 1_555 1_555
H60 C20 1_555 1_555
H61 C21 1_555 1_555
H62 C21 1_555 1_555
H63 C22 1_555 1_555
H64 C22 1_555 1_555
H65 C23 1_555 1_555
H66 C23 1_555 1_555
H67 C24 1_555 1_555
H68 C24 1_555 1_555
B3 H7 1_555 1_555
B6 H41 1_555 1_555

#END
