
#######################################################################
#
#                 Cambridge Crystallographic Data Centre
#                                CCDC 
#
#######################################################################
#
# If this CIF has been generated from an entry in the Cambridge 
# Structural Database, then it will include bibliographic, chemical, 
# crystal, experimental, refinement or atomic coordinate data resulting 
# from the CCDC's data processing and validation procedures.
#
#######################################################################

data_XOWKID
_chemical_formula_moiety         'C15 H22 N3 O9 P1,2(H2 O1)'
_chemical_name_systematic        
"(4''S)-4''-(Diethoxyphosphinoyl)-spiro((1-(\b-D-lyxofuranosyl)uracil)-2',5''-(2''-oxazoline)) dihydrate"
_symmetry_cell_setting           orthorhombic
_symmetry_space_group_name_H-M   'P 21 21 21'
_symmetry_Int_Tables_number      19
_space_group_name_Hall           'P 2ac 2ab'
loop_
_symmetry_equiv_pos_site_id
_symmetry_equiv_pos_as_xyz
1 x,y,z
2 1/2-x,-y,1/2+z
3 1/2+x,1/2-y,-z
4 -x,1/2+y,1/2-z
_cell_length_a                   9.193(2)
_cell_length_b                   14.681(3)
_cell_length_c                   15.201(3)
_cell_angle_alpha                90
_cell_angle_beta                 90
_cell_angle_gamma                90
_cell_volume                     2051.56
_exptl_crystal_colour            colorless
_chemical_melting_point          '123-125 deg.C'
_cell_formula_units_Z            4
_exptl_crystal_recrystallization_method hexane/acetone
loop_
_atom_site_label
_atom_site_type_symbol
_atom_site_fract_x
_atom_site_fract_y
_atom_site_fract_z
N1 N 0.6164(7) 0.5821(4) 0.2579(4)
C1 C 0.6573(9) 0.6405(5) 0.3243(5)
N2 N 0.8018(8) 0.6403(5) 0.3471(4)
C2 C 0.9059(9) 0.5863(6) 0.3084(5)
C3 C 0.8582(9) 0.5312(6) 0.2384(5)
C4 C 0.7188(8) 0.5290(5) 0.2170(5)
O1 O 0.5694(7) 0.6896(4) 0.3620(3)
O2 O 1.0326(7) 0.5909(5) 0.3347(4)
C5 C 0.4614(8) 0.5759(5) 0.2371(5)
C6 C 0.4067(8) 0.6461(5) 0.1689(4)
C7 C 0.4172(8) 0.5918(5) 0.0829(4)
C8 C 0.3695(8) 0.4990(4) 0.1142(5)
O3 O 0.4311(5) 0.4908(3) 0.2018(3)
O4 O 0.4952(5) 0.7261(3) 0.1684(3)
O5 O 0.5617(5) 0.5876(3) 0.0531(3)
C9 C 0.4175(11) 0.4181(5) 0.0601(5)
O6 O 0.3198(7) 0.4086(5) -0.0114(4)
C10 C 0.4195(10) 0.7886(6) 0.2156(5)
N3 N 0.2902(8) 0.7717(4) 0.2366(4)
C11 C 0.2563(8) 0.6831(5) 0.1959(4)
P1 P 0.1203(2) 0.7095(1) 0.1121(1)
O7 O -0.0133(6) 0.7440(3) 0.1650(4)
C12 C -0.0507(15) 0.8395(8) 0.1723(9)
C13 C -0.1825(17) 0.8565(9) 0.2024(17)
O8 O 0.0719(6) 0.6138(3) 0.0797(3)
C14 C -0.0485(13) 0.6090(8) 0.0163(7)
C15 C -0.0426(19) 0.5278(9) -0.0322(10)
O9 O 0.1719(6) 0.7717(4) 0.0439(4)
O10 O 0.3211(13) 0.1615(6) 0.9071(6)
O11 O 0.6202(10) 0.2292(6) 0.9733(6)
loop_
_geom_bond_atom_site_label_1
_geom_bond_atom_site_label_2
_geom_bond_site_symmetry_1
_geom_bond_site_symmetry_2
N1 C1 1_555 1_555
C1 N2 1_555 1_555
N2 C2 1_555 1_555
C2 C3 1_555 1_555
C3 C4 1_555 1_555
C4 N1 1_555 1_555
O1 C1 1_555 1_555
O2 C2 1_555 1_555
C5 N1 1_555 1_555
C6 C5 1_555 1_555
C7 C6 1_555 1_555
C8 C7 1_555 1_555
O3 C5 1_555 1_555
O4 C6 1_555 1_555
O5 C7 1_555 1_555
C9 C8 1_555 1_555
O6 C9 1_555 1_555
C10 O4 1_555 1_555
N3 C10 1_555 1_555
C11 C6 1_555 1_555
P1 C11 1_555 1_555
O7 P1 1_555 1_555
C12 O7 1_555 1_555
C13 C12 1_555 1_555
O8 P1 1_555 1_555
C14 O8 1_555 1_555
C15 C14 1_555 1_555
O9 P1 1_555 1_555
C8 O3 1_555 1_555
N3 C11 1_555 1_555

#END
