
#######################################################################
#
#                 Cambridge Crystallographic Data Centre
#                                CCDC 
#
#######################################################################
#
# If this CIF has been generated from an entry in the Cambridge 
# Structural Database, then it will include bibliographic, chemical, 
# crystal, experimental, refinement or atomic coordinate data resulting 
# from the CCDC's data processing and validation procedures.
#
#######################################################################

data_XOXFOG
_chemical_formula_moiety         'C22 H24 O2'
_chemical_name_systematic        4,9-Dimethylene-2,7-diphenyl-1,6-dioxecane
_symmetry_cell_setting           monoclinic
_symmetry_space_group_name_H-M   'P 21/n'
_symmetry_Int_Tables_number      14
_space_group_name_Hall           '-P 2yn'
loop_
_symmetry_equiv_pos_site_id
_symmetry_equiv_pos_as_xyz
1 x,y,z
2 1/2-x,1/2+y,1/2-z
3 -x,-y,-z
4 1/2+x,1/2-y,1/2+z
_cell_length_a                   11.512(2)
_cell_length_b                   5.381(1)
_cell_length_c                   14.930(3)
_cell_angle_alpha                90
_cell_angle_beta                 107.440(6)
_cell_angle_gamma                90
_cell_volume                     882.341
_exptl_crystal_colour            colorless
_exptl_crystal_description       needle
_chemical_melting_point          '207-208 deg.C'
_cell_formula_units_Z            2
loop_
_atom_site_label
_atom_site_type_symbol
_atom_site_fract_x
_atom_site_fract_y
_atom_site_fract_z
O1 O 0.5105(3) 0.1977(5) -0.0735(2)
C1 C 0.4752(4) 0.0434(8) 0.2084(3)
C2 C 0.4059(4) 0.0566(9) 0.3720(3)
C3 C 0.6381(4) 0.2424(9) -0.0273(3)
C4 C 0.5124(4) 0.0403(8) 0.1197(3)
C5 C 0.6926(4) 0.0687(8) 0.0528(3)
C6 C 0.4790(4) -0.1319(9) 0.3568(3)
C7 C 0.3673(4) 0.2375(9) 0.3049(3)
C8 C 0.5132(4) -0.1406(8) 0.2759(3)
C9 C 0.7789(4) -0.087(1) 0.0491(4)
C10 C 0.4031(4) 0.2307(8) 0.2246(3)
C11 C 0.6482(4) 0.0863(9) 0.1374(3)
H1 H 0.3831 0.0609 0.4267
H2 H 0.6482 0.4118 -0.0040
H3 H 0.6824 0.2263 -0.0730
H4 H 0.5057 -0.2553 0.4019
H5 H 0.3170 0.3647 0.3136
H6 H 0.5618 -0.2701 0.2666
H7 H 0.3777 0.3565 0.1803
H8 H 0.6675 0.2506 0.1645
H9 H 0.6930 -0.0329 0.1837
H10 H 0.8065 -0.0899 -0.0034
H11 H 0.8124 -0.1943 0.0990
H12 H 0.472(3) 0.166(6) 0.079(2)
O1B O 0.4895(3) -0.1977(5) 0.0735(2)
C1B C 0.5248(4) -0.0434(8) -0.2084(3)
C2B C 0.5941(4) -0.0566(9) -0.3720(3)
C3B C 0.3619(4) -0.2424(9) 0.0273(3)
C4B C 0.4876(4) -0.0403(8) -0.1197(3)
C5B C 0.3074(4) -0.0687(8) -0.0528(3)
C6B C 0.5210(4) 0.1319(9) -0.3568(3)
C7B C 0.6327(4) -0.2375(9) -0.3049(3)
C8B C 0.4868(4) 0.1406(8) -0.2759(3)
C9B C 0.2211(4) 0.087(1) -0.0491(4)
C10B C 0.5969(4) -0.2307(8) -0.2246(3)
C11B C 0.3518(4) -0.0863(9) -0.1374(3)
H1B H 0.6169 -0.0609 -0.4267
H2B H 0.3518 -0.4118 0.0040
H3B H 0.3176 -0.2263 0.0730
H4B H 0.4943 0.2553 -0.4019
H5B H 0.6830 -0.3647 -0.3136
H6B H 0.4382 0.2701 -0.2666
H7B H 0.6223 -0.3565 -0.1803
H8B H 0.3325 -0.2506 -0.1645
H9B H 0.3070 0.0329 -0.1837
H10B H 0.1935 0.0899 0.0034
H11B H 0.1876 0.1943 -0.0990
H12B H 0.528(3) -0.166(6) -0.079(2)
loop_
_geom_bond_atom_site_label_1
_geom_bond_atom_site_label_2
_geom_bond_site_symmetry_1
_geom_bond_site_symmetry_2
O1 C3 1_555 1_555
C1 C4 1_555 1_555
C2 C6 1_555 1_555
C3 C5 1_555 1_555
C4 C11 1_555 1_555
C5 C9 1_555 1_555
C6 C8 1_555 1_555
C7 C2 1_555 1_555
C8 C1 1_555 1_555
C9 H10 1_555 1_555
C10 C1 1_555 1_555
C11 C5 1_555 1_555
H1 C2 1_555 1_555
H2 C3 1_555 1_555
H3 C3 1_555 1_555
H4 C6 1_555 1_555
H5 C7 1_555 1_555
H6 C8 1_555 1_555
H7 C10 1_555 1_555
H8 C11 1_555 1_555
H9 C11 1_555 1_555
H11 C9 1_555 1_555
H12 C4 1_555 1_555
O1B C4 1_555 1_555
C1B C4B 1_555 1_555
C2B C6B 1_555 1_555
C3B O1B 1_555 1_555
C4B O1 1_555 1_555
C5B C3B 1_555 1_555
C6B C8B 1_555 1_555
C7B C2B 1_555 1_555
C8B C1B 1_555 1_555
C9B C5B 1_555 1_555
C10B C1B 1_555 1_555
C11B C4B 1_555 1_555
H1B C2B 1_555 1_555
H2B C3B 1_555 1_555
H3B C3B 1_555 1_555
H4B C6B 1_555 1_555
H5B C7B 1_555 1_555
H6B C8B 1_555 1_555
H7B C10B 1_555 1_555
H8B C11B 1_555 1_555
H9B C11B 1_555 1_555
H10B C9B 1_555 1_555
H11B C9B 1_555 1_555
H12B C4B 1_555 1_555
C7 C10 1_555 1_555
C5B C11B 1_555 1_555
C7B C10B 1_555 1_555

#END
