
#######################################################################
#
#                 Cambridge Crystallographic Data Centre
#                                CCDC 
#
#######################################################################
#
# If this CIF has been generated from an entry in the Cambridge 
# Structural Database, then it will include bibliographic, chemical, 
# crystal, experimental, refinement or atomic coordinate data resulting 
# from the CCDC's data processing and validation procedures.
#
#######################################################################

data_XOXQUW
_chemical_formula_moiety         'C19 H24 N7 O6 P1 S1'
_chemical_name_systematic        
1-((bis(2-Azidoethyl)phosphito)-(p-toluenesulfonamido)methyl)-4-methoxybenzene
_symmetry_cell_setting           triclinic
_symmetry_space_group_name_H-M   'P -1'
_symmetry_Int_Tables_number      2
_space_group_name_Hall           '-P 1'
loop_
_symmetry_equiv_pos_site_id
_symmetry_equiv_pos_as_xyz
1 x,y,z
2 -x,-y,-z
_cell_length_a                   9.236(1)
_cell_length_b                   10.805(1)
_cell_length_c                   14.113(1)
_cell_angle_alpha                109.29(1)
_cell_angle_beta                 98.16(1)
_cell_angle_gamma                106.30(1)
_cell_volume                     1232.36
_cell_formula_units_Z            2
loop_
_atom_site_label
_atom_site_type_symbol
_atom_site_fract_x
_atom_site_fract_y
_atom_site_fract_z
S1 S 1.1302(1) 0.1895(1) -0.0744(1)
P1 P 0.8856(1) 0.3750(1) 0.1204(1)
O1 O 1.1435(4) 0.1009(4) -0.0195(3)
O2 O 1.2686(3) 0.2824(4) -0.0833(3)
O3 O 0.9314(4) 0.5078(3) 0.1064(2)
O4 O 0.9843(4) 0.3749(4) 0.2206(2)
O5 O 0.7188(3) 0.3262(3) 0.1388(2)
O6 O 0.3333(4) 0.0061(4) -0.3100(3)
N1 N 1.0430(4) 0.2914(4) -0.0135(3)
N2 N 1.1907(10) 0.6300(9) 0.4012(7)
N3 N 1.0468(1) 0.6211(8) 0.4146(5)
N4 N 0.9207(17) 0.6416(13) 0.4265(11)
N5 N 0.5024(11) 0.4413(13) 0.2404(6)
N6 N 0.5637(8) 0.4220(8) 0.3108(5)
N7 N 0.6186(13) 0.4105(13) 0.3890(8)
C1 C 1.0056(5) 0.0834(5) -0.2000(3)
C2 C 1.0144(7) 0.1332(6) -0.2785(4)
C3 C 0.9076(8) 0.0531(7) -0.3750(4)
C4 C 0.7915(8) -0.0712(7) -0.3921(4)
C5 C 0.7864(6) -0.1197(6) -0.3138(4)
C6 C 0.8945(6) -0.0411(5) -0.2158(4)
C7 C 0.6689(11) -0.1552(10) -0.4961(6)
C8 C 0.8953(5) 0.2325(4) 0.0111(3)
C9 C 0.7460(4) 0.1706(4) -0.0771(3)
C10 C 0.7204(5) 0.2328(5) -0.1463(4)
C11 C 0.5807(6) 0.1745(6) -0.2230(4)
C12 C 0.4672(5) 0.0557(5) -0.2302(4)
C13 C 0.4907(5) -0.0085(5) -0.1631(4)
C14 C 0.6306(5) 0.0498(5) -0.0863(4)
C15 C 1.1495(7) 0.4329(8) 0.2509(5)
C16 C 1.2063(10) 0.4971(10) 0.3648(6)
C17 C 0.5917(6) 0.3570(7) 0.0885(4)
C18 C 0.5428(10) 0.4541(10) 0.1604(6)
C19 C 0.2160(6) -0.1222(7) -0.3261(5)
loop_
_geom_bond_atom_site_label_1
_geom_bond_atom_site_label_2
_geom_bond_site_symmetry_1
_geom_bond_site_symmetry_2
S1 O1 1_555 1_555
P1 O3 1_555 1_555
O2 S1 1_555 1_555
O4 P1 1_555 1_555
O5 P1 1_555 1_555
O6 C12 1_555 1_555
N1 S1 1_555 1_555
N2 N3 1_555 1_555
N3 N4 1_555 1_555
N5 N6 1_555 1_555
N6 N7 1_555 1_555
C1 S1 1_555 1_555
C2 C1 1_555 1_555
C3 C2 1_555 1_555
C4 C3 1_555 1_555
C5 C4 1_555 1_555
C6 C1 1_555 1_555
C7 C4 1_555 1_555
C8 P1 1_555 1_555
C9 C8 1_555 1_555
C10 C9 1_555 1_555
C11 C10 1_555 1_555
C12 C11 1_555 1_555
C13 C12 1_555 1_555
C14 C9 1_555 1_555
C15 O4 1_555 1_555
C16 N2 1_555 1_555
C17 O5 1_555 1_555
C18 N5 1_555 1_555
C19 O6 1_555 1_555
N1 C8 1_555 1_555
C5 C6 1_555 1_555
C13 C14 1_555 1_555
C15 C16 1_555 1_555
C17 C18 1_555 1_555

#END
