
#######################################################################
#
#                 Cambridge Crystallographic Data Centre
#                                CCDC 
#
#######################################################################
#
# If this CIF has been generated from an entry in the Cambridge 
# Structural Database, then it will include bibliographic, chemical, 
# crystal, experimental, refinement or atomic coordinate data resulting 
# from the CCDC's data processing and validation procedures.
#
#######################################################################

data_XOYHID
_chemical_formula_moiety         'C44 H52 Ba1 N4 O4 P2'
_chemical_name_systematic        
bis(\h^2^-3,5-Diphenyl-1,2,4-diazaphospholide)-tetrakis(tetrahydrofuran)-barium
_symmetry_cell_setting           monoclinic
_symmetry_space_group_name_H-M   'C 2/c'
_symmetry_Int_Tables_number      15
_space_group_name_Hall           '-C 2yn'
loop_
_symmetry_equiv_pos_site_id
_symmetry_equiv_pos_as_xyz
1 x,y,z
2 -x,y,1/2-z
3 1/2+x,1/2+y,z
4 1/2-x,1/2+y,1/2-z
5 -x,-y,-z
6 x,-y,1/2+z
7 1/2-x,1/2-y,-z
8 1/2+x,1/2-y,1/2+z
_cell_length_a                   20.256(10)
_cell_length_b                   19.749(10)
_cell_length_c                   14.175(7)
_cell_angle_alpha                90
_cell_angle_beta                 126.997(5)
_cell_angle_gamma                90
_cell_volume                     4528.85
_exptl_crystal_colour            colorless
_exptl_crystal_description       prism
_chemical_melting_point          'decomposes above 135 deg.C'
_cell_formula_units_Z            4
_chemical_properties_physical    'highly moisture- and oxygen-sensitive'
loop_
_atom_site_label
_atom_site_type_symbol
_atom_site_fract_x
_atom_site_fract_y
_atom_site_fract_z
Ba1 Ba 0.0000 0.36528(2) 0.2500
P1 P 0.0000 0.62996(9) 0.2500
P2 P 0.0000 0.10051(9) 0.2500
N1 N 0.0417(3) 0.5033(2) 0.2795(4)
N2 N -0.0087(3) 0.2279(2) 0.1953(4)
O1 O 0.1357(3) 0.3646(2) 0.4826(4)
O2 O -0.0946(4) 0.3648(2) 0.3283(6)
C1 C 0.0732(3) 0.5656(2) 0.3005(4)
C2 C 0.1631(3) 0.5751(3) 0.3644(5)
C3 C 0.2161(4) 0.5182(4) 0.4081(6)
H1 H 0.1941 0.4749 0.3954
C4 C 0.2998(5) 0.5264(6) 0.4693(8)
H2 H 0.3341 0.4886 0.4972
C5 C 0.3333(6) 0.5900(9) 0.4897(9)
H3 H 0.3899 0.5949 0.5299
C6 C 0.2845(6) 0.6452(6) 0.4518(8)
H4 H 0.3077 0.6881 0.4675
C7 C 0.1982(4) 0.6381(4) 0.3883(6)
H5 H 0.1649 0.6764 0.3625
C8 C -0.0150(3) 0.1654(3) 0.1532(5)
C9 C -0.0337(3) 0.1565(3) 0.0359(5)
C10 C -0.0377(5) 0.2127(4) -0.0279(7)
H6 H -0.0293 0.2561 0.0028
C11 C -0.0539(6) 0.2031(5) -0.1366(8)
H7 H -0.0562 0.2406 -0.1781
C12 C -0.0668(5) 0.1403(5) -0.1854(8)
H8 H -0.0780 0.1350 -0.2589
C13 C -0.0628(4) 0.0848(5) -0.1230(7)
H9 H -0.0717 0.0415 -0.1543
C14 C -0.0457(4) 0.0940(3) -0.0145(6)
H10 H -0.0420 0.0560 0.0271
C15 C 0.2029(6) 0.3186(5) 0.5380(10)
H11 H 0.1872 0.2757 0.5525
H12 H 0.2200 0.3105 0.4880
C16 C 0.2682(7) 0.3486(6) 0.6459(13)
H13 H 0.3175 0.3504 0.6496
H14 H 0.2802 0.3212 0.7114
C17 C 0.2454(7) 0.4166(6) 0.6557(8)
H15 H 0.2711 0.4505 0.6379
H16 H 0.2608 0.4248 0.7341
C18 C 0.1551(6) 0.4165(5) 0.5665(8)
H17 H 0.1283 0.4072 0.6032
H18 H 0.1364 0.4602 0.5276
C19 C -0.1101(5) 0.4182(4) 0.3783(7)
H19 H -0.1080 0.4616 0.3479
H20 H -0.0699 0.4183 0.4636
C20 C -0.1953(7) 0.4045(5) 0.3423(10)
H21 H -0.1991 0.4163 0.4052
H22 H -0.2364 0.4301 0.2721
C21 C -0.2065(9) 0.3321(5) 0.3187(16)
H23 H -0.1985 0.3081 0.3845
H24 H -0.2618 0.3228 0.2482
C22 C -0.1502(7) 0.3125(5) 0.3037(14)
H25 H -0.1783 0.2976 0.2228
H26 H -0.1195 0.2744 0.3551
N1A N -0.0417(3) 0.5033(2) 0.2205(4)
N2A N 0.0087(3) 0.2279(2) 0.3047(4)
O1A O -0.1357(3) 0.3646(2) 0.0174(4)
O2A O 0.0946(4) 0.3648(2) 0.1717(6)
C1A C -0.0732(3) 0.5656(2) 0.1995(4)
C2A C -0.1631(3) 0.5751(3) 0.1356(5)
C3A C -0.2161(4) 0.5182(4) 0.0919(6)
H1A H -0.1941 0.4749 0.1046
C4A C -0.2998(5) 0.5264(6) 0.0307(8)
H2A H -0.3341 0.4886 0.0028
C5A C -0.3333(6) 0.5900(9) 0.0103(9)
H3A H -0.3899 0.5949 -0.0299
C6A C -0.2845(6) 0.6452(6) 0.0482(8)
H4A H -0.3077 0.6881 0.0325
C7A C -0.1982(4) 0.6381(4) 0.1117(6)
H5A H -0.1649 0.6764 0.1375
C8A C 0.0150(3) 0.1654(3) 0.3468(5)
C9A C 0.0337(3) 0.1565(3) 0.4641(5)
C10A C 0.0377(5) 0.2127(4) 0.5279(7)
H6A H 0.0293 0.2561 0.4972
C11A C 0.0539(6) 0.2031(5) 0.6366(8)
H7A H 0.0562 0.2406 0.6781
C12A C 0.0668(5) 0.1403(5) 0.6854(8)
H8A H 0.0780 0.1350 0.7589
C13A C 0.0628(4) 0.0848(5) 0.6230(7)
H9A H 0.0717 0.0415 0.6543
C14A C 0.0457(4) 0.0940(3) 0.5145(6)
H10A H 0.0420 0.0560 0.4729
C15A C -0.2029(6) 0.3186(5) -0.0380(10)
H11A H -0.1872 0.2757 -0.0525
H12A H -0.2200 0.3105 0.0120
C16A C -0.2682(7) 0.3486(6) -0.1459(13)
H13A H -0.3175 0.3504 -0.1496
H14A H -0.2802 0.3212 -0.2114
C17A C -0.2454(7) 0.4166(6) -0.1557(8)
H15A H -0.2711 0.4505 -0.1379
H16A H -0.2608 0.4248 -0.2341
C18A C -0.1551(6) 0.4165(5) -0.0665(8)
H17A H -0.1283 0.4072 -0.1032
H18A H -0.1364 0.4602 -0.0276
C19A C 0.1101(5) 0.4182(4) 0.1217(7)
H19A H 0.1080 0.4616 0.1521
H20A H 0.0699 0.4183 0.0364
C20A C 0.1953(7) 0.4045(5) 0.1577(10)
H21A H 0.1991 0.4163 0.0948
H22A H 0.2364 0.4301 0.2279
C21A C 0.2065(9) 0.3321(5) 0.1813(16)
H23A H 0.1985 0.3081 0.1155
H24A H 0.2618 0.3228 0.2518
C22A C 0.1502(7) 0.3125(5) 0.1963(14)
H25A H 0.1783 0.2976 0.2772
H26A H 0.1195 0.2744 0.1449
loop_
_geom_bond_atom_site_label_1
_geom_bond_atom_site_label_2
_geom_bond_site_symmetry_1
_geom_bond_site_symmetry_2
Ba1 N1 1_555 1_555
P1 C1 1_555 1_555
P2 C8 1_555 1_555
N1 C1 1_555 1_555
N2 Ba1 1_555 1_555
O1 Ba1 1_555 1_555
O2 Ba1 1_555 1_555
C1 C2 1_555 1_555
C2 C3 1_555 1_555
C3 H1 1_555 1_555
C4 C3 1_555 1_555
H2 C4 1_555 1_555
C5 C4 1_555 1_555
H3 C5 1_555 1_555
C6 C5 1_555 1_555
H4 C6 1_555 1_555
C7 C2 1_555 1_555
H5 C7 1_555 1_555
C8 N2 1_555 1_555
C9 C8 1_555 1_555
C10 C9 1_555 1_555
H6 C10 1_555 1_555
C11 C10 1_555 1_555
H7 C11 1_555 1_555
C12 C11 1_555 1_555
H8 C12 1_555 1_555
C13 C12 1_555 1_555
H9 C13 1_555 1_555
C14 C9 1_555 1_555
H10 C14 1_555 1_555
C15 O1 1_555 1_555
H11 C15 1_555 1_555
H12 C15 1_555 1_555
C16 C15 1_555 1_555
H13 C16 1_555 1_555
H14 C16 1_555 1_555
C17 C16 1_555 1_555
H15 C17 1_555 1_555
H16 C17 1_555 1_555
C18 O1 1_555 1_555
H17 C18 1_555 1_555
H18 C18 1_555 1_555
C19 O2 1_555 1_555
H19 C19 1_555 1_555
H20 C19 1_555 1_555
C20 C19 1_555 1_555
H21 C20 1_555 1_555
H22 C20 1_555 1_555
C21 C20 1_555 1_555
H23 C21 1_555 1_555
H24 C21 1_555 1_555
C22 O2 1_555 1_555
H25 C22 1_555 1_555
H26 C22 1_555 1_555
N1A Ba1 1_555 1_555
N2A Ba1 1_555 1_555
O1A Ba1 1_555 1_555
O2A Ba1 1_555 1_555
C1A P1 1_555 1_555
C2A C1A 1_555 1_555
C3A C2A 1_555 1_555
H1A C3A 1_555 1_555
C4A C3A 1_555 1_555
H2A C4A 1_555 1_555
C5A C4A 1_555 1_555
H3A C5A 1_555 1_555
C6A C5A 1_555 1_555
H4A C6A 1_555 1_555
C7A C2A 1_555 1_555
H5A C7A 1_555 1_555
C8A P2 1_555 1_555
C9A C8A 1_555 1_555
C10A C9A 1_555 1_555
H6A C10A 1_555 1_555
C11A C10A 1_555 1_555
H7A C11A 1_555 1_555
C12A C11A 1_555 1_555
H8A C12A 1_555 1_555
C13A C12A 1_555 1_555
H9A C13A 1_555 1_555
C14A C9A 1_555 1_555
H10A C14A 1_555 1_555
C15A O1A 1_555 1_555
H11A C15A 1_555 1_555
H12A C15A 1_555 1_555
C16A C15A 1_555 1_555
H13A C16A 1_555 1_555
H14A C16A 1_555 1_555
C17A C16A 1_555 1_555
H15A C17A 1_555 1_555
H16A C17A 1_555 1_555
C18A O1A 1_555 1_555
H17A C18A 1_555 1_555
H18A C18A 1_555 1_555
C19A O2A 1_555 1_555
H19A C19A 1_555 1_555
H20A C19A 1_555 1_555
C20A C19A 1_555 1_555
H21A C20A 1_555 1_555
H22A C20A 1_555 1_555
C21A C20A 1_555 1_555
H23A C21A 1_555 1_555
H24A C21A 1_555 1_555
C22A O2A 1_555 1_555
H25A C22A 1_555 1_555
H26A C22A 1_555 1_555
N1 N1A 1_555 1_555
N2 N2A 1_555 1_555
C6 C7 1_555 1_555
C13 C14 1_555 1_555
C17 C18 1_555 1_555
C21 C22 1_555 1_555
N1A C1A 1_555 1_555
N2A C8A 1_555 1_555
C6A C7A 1_555 1_555
C13A C14A 1_555 1_555
C17A C18A 1_555 1_555
C21A C22A 1_555 1_555

#END
