
#######################################################################
#
#                 Cambridge Crystallographic Data Centre
#                                CCDC 
#
#######################################################################
#
# If this CIF has been generated from an entry in the Cambridge 
# Structural Database, then it will include bibliographic, chemical, 
# crystal, experimental, refinement or atomic coordinate data resulting 
# from the CCDC's data processing and validation procedures.
#
#######################################################################

data_XOYHUP
_chemical_formula_moiety         'C16 H28 Ba1 N4 O6 P2'
_chemical_name_systematic        
trans-bis(\h^2^-1,2,4-Diazaphospholide)-(18-crown-6)-barium
_symmetry_cell_setting           triclinic
_symmetry_space_group_name_H-M   'P -1'
_symmetry_Int_Tables_number      2
_space_group_name_Hall           '-P 1'
loop_
_symmetry_equiv_pos_site_id
_symmetry_equiv_pos_as_xyz
1 x,y,z
2 -x,-y,-z
_cell_length_a                   9.980(7)
_cell_length_b                   10.186(7)
_cell_length_c                   13.325(9)
_cell_angle_alpha                75.072(8)
_cell_angle_beta                 73.752(7)
_cell_angle_gamma                74.300(8)
_cell_volume                     1227.47
_exptl_crystal_colour            colorless
_exptl_crystal_description       prism
_chemical_melting_point          'decomposes above 340 deg.C'
_cell_formula_units_Z            2
_chemical_properties_physical    'highly moisture- and oxygen-sensitive'
loop_
_atom_site_label
_atom_site_type_symbol
_atom_site_fract_x
_atom_site_fract_y
_atom_site_fract_z
Ba1 Ba 0.70438(6) 0.82673(6) 0.73101(4)
P1 P 0.9568(4) 1.1275(4) 0.8504(3)
P2 P 0.4006(5) 0.5131(4) 0.6839(4)
N1 N 0.7961(11) 1.0483(10) 0.7648(8)
N2 N 0.8772(12) 0.9292(11) 0.8086(10)
N3 N 0.4843(12) 0.7038(11) 0.7313(8)
N4 N 0.6005(12) 0.6392(13) 0.6668(11)
O1 O 0.5204(11) 1.0590(9) 0.6483(8)
O2 O 0.7860(12) 0.9647(11) 0.5222(6)
O3 O 0.9373(12) 0.7011(13) 0.5894(12)
O4 O 0.8979(17) 0.5869(14) 0.7995(16)
O5 O 0.6313(17) 0.6864(13) 0.9396(9)
O6 O 0.4694(11) 0.9477(12) 0.8707(9)
C1 C 0.9640(15) 0.9548(15) 0.8573(13)
H1 H 1.0249 0.8838 0.8930
C2 C 0.8255(13) 1.1580(13) 0.7806(9)
H2 H 0.7784 1.2476 0.7555
C3 C 0.5731(17) 0.5397(15) 0.6349(14)
H3 H 0.6417 0.4870 0.5890
C4 C 0.3717(17) 0.6499(13) 0.7455(11)
H4 H 0.2828 0.6841 0.7863
C5 C 0.593(2) 1.1484(16) 0.5615(16)
H5 H 0.6523 1.1878 0.5867
H6 H 0.5233 1.2242 0.5315
C6 C 0.681(2) 1.069(2) 0.4790(13)
H7 H 0.6223 1.0275 0.4550
H8 H 0.7267 1.1307 0.4182
C7 C 0.876(3) 0.883(2) 0.4495(13)
H9 H 0.9181 0.9421 0.3857
H10 H 0.8197 0.8336 0.4293
C8 C 0.985(2) 0.785(3) 0.4939(15)
H11 H 1.0410 0.7272 0.4430
H12 H 1.0481 0.8357 0.5048
C9 C 1.033(3) 0.593(3) 0.634(2)
H13 H 1.0759 0.5311 0.5833
H14 H 1.1083 0.6307 0.6406
C10 C 0.985(2) 0.517(2) 0.7274(18)
H15 H 0.9351 0.4540 0.7162
H16 H 1.0660 0.4607 0.7559
C11 C 0.836(4) 0.508(2) 0.892(2)
H17 H 0.9105 0.4346 0.9185
H18 H 0.7721 0.4634 0.8758
C12 C 0.756(4) 0.588(3) 0.9758(17)
H19 H 0.8169 0.6384 0.9890
H20 H 0.7240 0.5253 1.0416
C13 C 0.541(4) 0.769(3) 1.0066(16)
H21 H 0.5926 0.8287 1.0198
H22 H 0.5061 0.7115 1.0743
C14 C 0.425(3) 0.851(3) 0.9653(19)
H23 H 0.3592 0.9017 1.0183
H24 H 0.3756 0.7920 0.9494
C15 C 0.3627(18) 1.038(2) 0.8105(17)
H25 H 0.3224 0.9811 0.7838
H26 H 0.2858 1.0893 0.8579
C16 C 0.425(2) 1.133(2) 0.7242(19)
H27 H 0.3518 1.2004 0.6925
H28 H 0.4761 1.1826 0.7491
loop_
_geom_bond_atom_site_label_1
_geom_bond_atom_site_label_2
_geom_bond_site_symmetry_1
_geom_bond_site_symmetry_2
Ba1 N1 1_555 1_555
P1 C1 1_555 1_555
P2 C3 1_555 1_555
N1 N2 1_555 1_555
N2 Ba1 1_555 1_555
N3 Ba1 1_555 1_555
N4 Ba1 1_555 1_555
O1 Ba1 1_555 1_555
O2 Ba1 1_555 1_555
O3 Ba1 1_555 1_555
O4 Ba1 1_555 1_555
O5 Ba1 1_555 1_555
O6 Ba1 1_555 1_555
C1 N2 1_555 1_555
H1 C1 1_555 1_555
C2 P1 1_555 1_555
H2 C2 1_555 1_555
C3 N4 1_555 1_555
H3 C3 1_555 1_555
C4 P2 1_555 1_555
H4 C4 1_555 1_555
C5 O1 1_555 1_555
H5 C5 1_555 1_555
H6 C5 1_555 1_555
C6 O2 1_555 1_555
H7 C6 1_555 1_555
H8 C6 1_555 1_555
C7 O2 1_555 1_555
H9 C7 1_555 1_555
H10 C7 1_555 1_555
C8 O3 1_555 1_555
H11 C8 1_555 1_555
H12 C8 1_555 1_555
C9 O3 1_555 1_555
H13 C9 1_555 1_555
H14 C9 1_555 1_555
C10 O4 1_555 1_555
H15 C10 1_555 1_555
H16 C10 1_555 1_555
C11 O4 1_555 1_555
H17 C11 1_555 1_555
H18 C11 1_555 1_555
C12 O5 1_555 1_555
H19 C12 1_555 1_555
H20 C12 1_555 1_555
C13 O5 1_555 1_555
H21 C13 1_555 1_555
H22 C13 1_555 1_555
C14 O6 1_555 1_555
H23 C14 1_555 1_555
H24 C14 1_555 1_555
C15 O6 1_555 1_555
H25 C15 1_555 1_555
H26 C15 1_555 1_555
C16 O1 1_555 1_555
H27 C16 1_555 1_555
H28 C16 1_555 1_555
N1 C2 1_555 1_555
N3 N4 1_555 1_555
N3 C4 1_555 1_555
C5 C6 1_555 1_555
C7 C8 1_555 1_555
C9 C10 1_555 1_555
C11 C12 1_555 1_555
C13 C14 1_555 1_555
C15 C16 1_555 1_555

#END
