
#######################################################################
#
#                 Cambridge Crystallographic Data Centre
#                                CCDC 
#
#######################################################################
#
# If this CIF has been generated from an entry in the Cambridge 
# Structural Database, then it will include bibliographic, chemical, 
# crystal, experimental, refinement or atomic coordinate data resulting 
# from the CCDC's data processing and validation procedures.
#
#######################################################################

data_XOYWOY
_chemical_name_common            2-(2,6-Dichlorobenzyl)pyrrolidine-1,3-dione
_chemical_formula_moiety         'C11 H9 Cl2 N1 O2'
_chemical_name_systematic        1-(2,6-Dichlorobenzyl)-2,5-pyrrolidinedione
_symmetry_cell_setting           orthorhombic
_symmetry_space_group_name_H-M   'P 21 21 21'
_symmetry_Int_Tables_number      19
_space_group_name_Hall           'P 2ac 2ab'
loop_
_symmetry_equiv_pos_site_id
_symmetry_equiv_pos_as_xyz
1 x,y,z
2 1/2+x,1/2-y,-z
3 -x,1/2+y,1/2-z
4 1/2-x,-y,1/2+z
_cell_length_a                   4.8057(5)
_cell_length_b                   9.4388(8)
_cell_length_c                   23.936(2)
_cell_angle_alpha                90
_cell_angle_beta                 90
_cell_angle_gamma                90
_cell_volume                     1085.74
_exptl_crystal_colour            colorless
_exptl_crystal_description       block
_chemical_melting_point          '409-411 K'
_cell_formula_units_Z            4
_exptl_crystal_recrystallization_method chloroform/ethanol
loop_
_atom_site_label
_atom_site_type_symbol
_atom_site_fract_x
_atom_site_fract_y
_atom_site_fract_z
Cl1 Cl 0.00935(11) -0.15827(4) 0.039298(15)
Cl2 Cl -0.01306(10) 0.14810(5) 0.231345(15)
O1 O -0.4371(3) 0.35252(13) 0.15425(5)
O2 O 0.2345(3) 0.17916(13) 0.03882(5)
N1 N -0.1077(3) 0.23490(14) 0.10180(5)
C1 C -0.2311(4) 0.35434(18) 0.12493(6)
C2 C -0.0631(4) 0.48127(18) 0.10689(8)
H1 H 0.0514 0.5174 0.1382
H2 H -0.1863 0.5582 0.0936
C3 C 0.1211(4) 0.42692(18) 0.05958(7)
H3 H 0.0520 0.4604 0.0229
H4 H 0.3156 0.4591 0.0645
C4 C 0.1017(4) 0.26745(17) 0.06376(6)
C5 C -0.2043(4) 0.09082(17) 0.11224(6)
H5 H -0.2735 0.0496 0.0768
H6 H -0.3619 0.0939 0.1389
C6 C 0.0205(4) -0.00365(15) 0.13563(6)
C7 C 0.1336(4) -0.11631(17) 0.10562(7)
C8 C 0.3417(4) -0.20312(18) 0.12690(8)
H7 H 0.4149 -0.2783 0.1050
C9 C 0.4416(4) -0.17880(19) 0.18054(8)
H8 H 0.5851 -0.2370 0.1953
C10 C 0.3327(4) -0.0703(2) 0.21228(7)
H9 H 0.3987 -0.0538 0.2491
C11 C 0.1251(4) 0.01445(17) 0.18967(7)
loop_
_geom_bond_atom_site_label_1
_geom_bond_atom_site_label_2
_geom_bond_site_symmetry_1
_geom_bond_site_symmetry_2
Cl1 C7 1_555 1_555
Cl2 C11 1_555 1_555
O1 C1 1_555 1_555
O2 C4 1_555 1_555
N1 C1 1_555 1_555
C1 C2 1_555 1_555
C2 H1 1_555 1_555
H2 C2 1_555 1_555
C3 C2 1_555 1_555
H3 C3 1_555 1_555
H4 C3 1_555 1_555
C4 N1 1_555 1_555
C5 N1 1_555 1_555
H5 C5 1_555 1_555
H6 C5 1_555 1_555
C6 C5 1_555 1_555
C7 C6 1_555 1_555
C8 C7 1_555 1_555
H7 C8 1_555 1_555
C9 C8 1_555 1_555
H8 C9 1_555 1_555
C10 C9 1_555 1_555
H9 C10 1_555 1_555
C11 C6 1_555 1_555
C3 C4 1_555 1_555
C10 C11 1_555 1_555

#END
