
#######################################################################
#
#                 Cambridge Crystallographic Data Centre
#                                CCDC 
#
#######################################################################
#
# If this CIF has been generated from an entry in the Cambridge 
# Structural Database, then it will include bibliographic, chemical, 
# crystal, experimental, refinement or atomic coordinate data resulting 
# from the CCDC's data processing and validation procedures.
#
#######################################################################

data_XOYWUF
_chemical_formula_moiety         'C16 H15 Br1 O1'
_chemical_name_systematic        4-bromo-2-(2-(3,5-dimethylphenyl)vinyl)phenol
_symmetry_cell_setting           monoclinic
_symmetry_space_group_name_H-M   'C 2/c'
_symmetry_Int_Tables_number      15
_space_group_name_Hall           '-C 2yn'
loop_
_symmetry_equiv_pos_site_id
_symmetry_equiv_pos_as_xyz
1 x,y,z
2 -x,y,1/2-z
3 1/2+x,1/2+y,z
4 1/2-x,1/2+y,1/2-z
5 -x,-y,-z
6 x,-y,1/2+z
7 1/2-x,1/2-y,-z
8 1/2+x,1/2-y,1/2+z
_cell_length_a                   26.589(3)
_cell_length_b                   5.7627(7)
_cell_length_c                   18.270(3)
_cell_angle_alpha                90
_cell_angle_beta                 99.735(12)
_cell_angle_gamma                90
_cell_volume                     2759.1
_exptl_crystal_colour            yellow
_exptl_crystal_description       block
_cell_formula_units_Z            8
loop_
_atom_site_label
_atom_site_type_symbol
_atom_site_fract_x
_atom_site_fract_y
_atom_site_fract_z
Br1 Br 0.222973(14) 0.46147(7) 0.11741(2)
O1 O 0.06130(10) -0.0426(4) 0.24865(14)
H1 H 0.0730 -0.1558 0.2729
C1 C 0.12276(11) 0.3738(5) 0.14536(16)
H2 H 0.1146 0.5066 0.1169
C2 C 0.17228(12) 0.2942(6) 0.15758(17)
C3 C 0.18547(13) 0.0963(6) 0.19837(18)
H3 H 0.2189 0.0417 0.2058
C4 C 0.14834(15) -0.0193(6) 0.22795(18)
H4 H 0.1568 -0.1542 0.2552
C5 C 0.09891(13) 0.0613(5) 0.21792(17)
C6 C 0.08463(11) 0.2595(5) 0.17480(16)
C7 C 0.03118(11) 0.3365(5) 0.16070(16)
H5 H 0.0073 0.2393 0.1767
C8 C 0.01391(12) 0.5308(5) 0.12740(18)
H6 H 0.0385 0.6292 0.1139
C9 C -0.03893(11) 0.6118(5) 0.10887(16)
C10 C -0.07991(12) 0.4981(5) 0.13176(16)
H7 H -0.0738 0.3694 0.1627
C11 C -0.12970(12) 0.5739(5) 0.10919(16)
C12 C -0.13803(12) 0.7678(5) 0.06339(16)
H8 H -0.1713 0.8187 0.0478
C13 C -0.09845(12) 0.8869(5) 0.04045(16)
C14 C -0.04925(12) 0.8068(5) 0.06363(16)
H9 H -0.0222 0.8855 0.0485
C15 C -0.17382(13) 0.4399(6) 0.1304(2)
H10 H -0.1742 0.4596 0.1825
H11 H -0.1701 0.2783 0.1198
H12 H -0.2052 0.4967 0.1025
C16 C -0.10813(14) 1.0932(6) -0.01097(18)
H13 H -0.1040 1.0478 -0.0602
H14 H -0.0843 1.2143 0.0064
H15 H -0.1423 1.1487 -0.0118
loop_
_geom_bond_atom_site_label_1
_geom_bond_atom_site_label_2
_geom_bond_site_symmetry_1
_geom_bond_site_symmetry_2
Br1 C2 1_555 1_555
O1 H1 1_555 1_555
C1 H2 1_555 1_555
C2 C1 1_555 1_555
C3 C2 1_555 1_555
H3 C3 1_555 1_555
C4 C3 1_555 1_555
H4 C4 1_555 1_555
C5 O1 1_555 1_555
C6 C1 1_555 1_555
C7 C6 1_555 1_555
H5 C7 1_555 1_555
C8 C7 1_555 1_555
H6 C8 1_555 1_555
C9 C8 1_555 1_555
C10 C9 1_555 1_555
H7 C10 1_555 1_555
C11 C10 1_555 1_555
C12 C11 1_555 1_555
H8 C12 1_555 1_555
C13 C12 1_555 1_555
C14 C9 1_555 1_555
H9 C14 1_555 1_555
C15 C11 1_555 1_555
H10 C15 1_555 1_555
H11 C15 1_555 1_555
H12 C15 1_555 1_555
C16 C13 1_555 1_555
H13 C16 1_555 1_555
H14 C16 1_555 1_555
H15 C16 1_555 1_555
C4 C5 1_555 1_555
C5 C6 1_555 1_555
C13 C14 1_555 1_555

#END
