
#######################################################################
#
#                 Cambridge Crystallographic Data Centre
#                                CCDC 
#
#######################################################################
#
# If this CIF has been generated from an entry in the Cambridge 
# Structural Database, then it will include bibliographic, chemical, 
# crystal, experimental, refinement or atomic coordinate data resulting 
# from the CCDC's data processing and validation procedures.
#
#######################################################################

data_XOYWUE
_chemical_formula_moiety         'C19 H14 Br1 N1'
_chemical_name_systematic        9-Benzyl-3-bromo-9H-carbazole
_symmetry_cell_setting           orthorhombic
_symmetry_space_group_name_H-M   'P n a 21'
_symmetry_Int_Tables_number      33
_space_group_name_Hall           'P 2c -2n'
loop_
_symmetry_equiv_pos_site_id
_symmetry_equiv_pos_as_xyz
1 x,y,z
2 1/2-x,1/2+y,1/2+z
3 1/2+x,1/2-y,z
4 -x,-y,1/2+z
_cell_length_a                   17.629(3)
_cell_length_b                   14.666(2)
_cell_length_c                   5.6420(8)
_cell_angle_alpha                90
_cell_angle_beta                 90
_cell_angle_gamma                90
_cell_volume                     1458.72
_exptl_crystal_colour            colorless
_exptl_crystal_description       block
_chemical_melting_point          '392-394 K'
_cell_formula_units_Z            4
_exptl_crystal_recrystallization_method chloroform/ethanol
loop_
_atom_site_label
_atom_site_type_symbol
_atom_site_fract_x
_atom_site_fract_y
_atom_site_fract_z
Br1 Br 0.257493(13) 0.192950(18) 0.66598(14)
N1 N 0.53686(13) 0.19508(14) 0.0539(4)
C1 C 0.46874(12) 0.20289(15) 0.1699(6)
C2 C 0.40547(16) 0.25415(17) 0.1164(5)
H1 H 0.4049 0.2918 -0.0206
C3 C 0.34289(16) 0.25037(19) 0.2638(5)
H2 H 0.2988 0.2849 0.2278
C4 C 0.34503(16) 0.19535(18) 0.4663(5)
C5 C 0.40726(15) 0.14351(19) 0.5264(5)
H3 H 0.4072 0.1064 0.6643
C6 C 0.47028(15) 0.14744(17) 0.3781(5)
C7 C 0.58394(13) 0.13641(16) 0.1792(6)
C8 C 0.65823(14) 0.10891(17) 0.1344(6)
H4 H 0.6848 0.1303 -0.0013
C9 C 0.69198(16) 0.0502(2) 0.2913(5)
H5 H 0.7424 0.0303 0.2617
C10 C 0.65424(18) 0.0186(2) 0.4947(5)
H6 H 0.6794 -0.0215 0.6010
C11 C 0.58048(16) 0.04587(18) 0.5403(5)
H7 H 0.5547 0.0246 0.6774
C12 C 0.54435(15) 0.10506(18) 0.3825(5)
C13 C 0.56053(16) 0.25418(18) -0.1405(5)
H8 H 0.5185 0.2588 -0.2563
H9 H 0.6042 0.2258 -0.2223
C14 C 0.58274(15) 0.34943(19) -0.0620(5)
C15 C 0.62312(14) 0.36493(17) 0.1461(6)
H10 H 0.6360 0.3154 0.2470
C16 C 0.64439(15) 0.4530(2) 0.2054(6)
H11 H 0.6726 0.4631 0.3464
C17 C 0.6255(2) 0.5257(2) 0.0643(6)
H12 H 0.6402 0.5858 0.1077
C18 C 0.58455(17) 0.5108(2) -0.1427(7)
H13 H 0.5713 0.5605 -0.2424
C19 C 0.56306(16) 0.42221(19) -0.2030(6)
H14 H 0.5345 0.4120 -0.3432
loop_
_geom_bond_atom_site_label_1
_geom_bond_atom_site_label_2
_geom_bond_site_symmetry_1
_geom_bond_site_symmetry_2
Br1 C4 1_555 1_555
N1 C1 1_555 1_555
C1 C2 1_555 1_555
C2 H1 1_555 1_555
C3 C2 1_555 1_555
H2 C3 1_555 1_555
C4 C3 1_555 1_555
C5 C4 1_555 1_555
H3 C5 1_555 1_555
C6 C1 1_555 1_555
C7 N1 1_555 1_555
C8 C7 1_555 1_555
H4 C8 1_555 1_555
C9 C8 1_555 1_555
H5 C9 1_555 1_555
C10 C9 1_555 1_555
H6 C10 1_555 1_555
C11 C10 1_555 1_555
H7 C11 1_555 1_555
C12 C6 1_555 1_555
C13 N1 1_555 1_555
H8 C13 1_555 1_555
H9 C13 1_555 1_555
C14 C13 1_555 1_555
C15 C14 1_555 1_555
H10 C15 1_555 1_555
C16 C15 1_555 1_555
H11 C16 1_555 1_555
C17 C16 1_555 1_555
H12 C17 1_555 1_555
C18 C17 1_555 1_555
H13 C18 1_555 1_555
C19 C14 1_555 1_555
H14 C19 1_555 1_555
C5 C6 1_555 1_555
C7 C12 1_555 1_555
C11 C12 1_555 1_555
C18 C19 1_555 1_555

#END
