
#######################################################################
#
#                 Cambridge Crystallographic Data Centre
#                                CCDC 
#
#######################################################################
#
# If this CIF has been generated from an entry in the Cambridge 
# Structural Database, then it will include bibliographic, chemical, 
# crystal, experimental, refinement or atomic coordinate data resulting 
# from the CCDC's data processing and validation procedures.
#
#######################################################################

data_XOZSIQ
_chemical_formula_moiety         'C25 H19 Cl1 N2 O2'
_chemical_name_systematic        
(S)-3-(2-(4-chlorophenyl)-2-(3-methyl-1H-indol-2-yl)ethyl)-2H-benzo[b][1,4]oxazin-2-one
_symmetry_cell_setting           triclinic
_symmetry_space_group_name_H-M   'P 1'
_symmetry_Int_Tables_number      1
_space_group_name_Hall           'P 1'
loop_
_symmetry_equiv_pos_site_id
_symmetry_equiv_pos_as_xyz
1 x,y,z
_cell_length_a                   8.6313(2)
_cell_length_b                   10.5785(3)
_cell_length_c                   11.6488(3)
_cell_angle_alpha                83.554(2)
_cell_angle_beta                 84.959(2)
_cell_angle_gamma                86.477(2)
_cell_volume                     1051.37
_cell_formula_units_Z            2
_chemical_properties_physical    'Air-sensitive, Moisture-sensitive'
loop_
_atom_site_label
_atom_site_type_symbol
_atom_site_fract_x
_atom_site_fract_y
_atom_site_fract_z
Cl1 Cl 0.51151(11) 0.46927(9) -0.00819(8)
C1 C 0.9034(3) -0.1702(3) 0.3671(2)
N1 N 0.8375(2) -0.2685(2) 0.34175(18)
O1 O 1.0710(2) -0.2999(2) 0.49626(18)
C2 C 0.8857(3) -0.3888(3) 0.3919(2)
C3 C 0.7737(4) 0.2063(3) 0.1680(3)
H1 H 0.8600 0.2055 0.2107
O2 O 1.0969(3) -0.0935(3) 0.4712(2)
C4 C 0.7827(3) -0.0368(3) 0.1992(2)
H2 H 0.6985 -0.0961 0.2114
C5 C 0.8553(3) -0.0395(3) 0.3160(2)
H3 H 0.9457 0.0120 0.3048
H4 H 0.7803 -0.0012 0.3706
C6 C 0.8983(3) -0.0846(2) 0.1079(2)
N2 N 1.0358(2) -0.0244(2) 0.07781(17)
H5 H 1.0631 0.0413 0.1068
C7 C 0.7105(3) 0.0926(3) 0.1559(2)
C8 C 0.7127(4) 0.3217(3) 0.1186(3)
H6 H 0.7574 0.3972 0.1283
C9 C 1.2478(5) -0.2514(4) -0.1581(3)
H7 H 1.2921 -0.3072 -0.2096
C10 C 1.0360(3) -0.1876(3) -0.0297(2)
C11 C 1.1026(4) -0.2702(3) -0.1073(3)
H8 H 1.0478 -0.3379 -0.1242
C12 C 1.0295(3) -0.1818(4) 0.4475(2)
C13 C 1.3323(4) -0.1503(4) -0.1350(3)
H9 H 1.4316 -0.1395 -0.1715
C14 C 0.5798(4) 0.0999(3) 0.0966(3)
H10 H 0.5307 0.0255 0.0902
C15 C 0.8190(4) -0.4975(3) 0.3659(3)
H11 H 0.7438 -0.4899 0.3127
C16 C 0.8920(3) -0.1835(3) 0.0431(2)
C17 C 1.1220(3) -0.0865(3) -0.0061(2)
C18 C 0.8625(4) -0.6150(4) 0.4173(3)
H12 H 0.8163 -0.6866 0.3993
C19 C 0.9999(3) -0.4050(3) 0.4690(2)
C20 C 1.0449(4) -0.5238(4) 0.5205(3)
H13 H 1.1226 -0.5327 0.5717
C21 C 0.5878(3) 0.3242(3) 0.0561(2)
C22 C 0.7645(4) -0.2743(3) 0.0474(3)
H14 H 0.6810 -0.2508 0.1022
H15 H 0.8044 -0.3592 0.0707
H16 H 0.7265 -0.2712 -0.0279
C23 C 0.5180(5) 0.2143(3) 0.0458(4)
H17 H 0.4298 0.2162 0.0051
C24 C 1.2705(4) -0.0657(3) -0.0584(2)
H18 H 1.3261 0.0021 -0.0427
C25 C 0.9743(5) -0.6281(4) 0.4957(4)
H19 H 1.0017 -0.7083 0.5318
C26 C 0.2434(4) 0.4757(4) 0.2343(2)
C27 C 0.7614(4) -0.3785(3) 0.7143(3)
H20 H 0.8338 -0.4328 0.7523
C28 C 0.5244(3) -0.0069(3) 0.5593(2)
O3 O 0.1795(3) 0.3687(3) 0.20579(18)
N3 N 0.3964(3) 0.3452(3) 0.37242(18)
C29 C 0.4188(4) 0.5721(4) 0.3422(3)
H21 H 0.4927 0.5655 0.3963
C30 C 0.2197(3) 0.2526(4) 0.2572(2)
N4 N 0.4566(3) -0.1209(2) 0.55120(19)
H22 H 0.3720 -0.1280 0.5192
Cl2 Cl 0.06112(16) 0.33058(12) 0.91470(9)
C31 C 0.4539(3) 0.1204(3) 0.5173(2)
H23 H 0.5397 0.1774 0.4972
C32 C 0.2620(5) 0.6994(5) 0.2089(3)
H24 H 0.2304 0.7788 0.1734
C33 C 0.6588(3) -0.0332(3) 0.6134(2)
C34 C 0.3497(3) 0.1748(3) 0.6146(2)
C35 C 0.3902(4) 0.2825(3) 0.6598(3)
H25 H 0.4789 0.3233 0.6278
C36 C 0.2152(3) 0.1178(3) 0.6631(2)
H26 H 0.1845 0.0461 0.6335
C37 C 0.1968(5) 0.5925(5) 0.1819(3)
H27 H 0.1218 0.5993 0.1286
O4 O 0.1649(3) 0.1606(3) 0.2286(2)
C38 C 0.3745(5) 0.6914(4) 0.2886(3)
H28 H 0.4191 0.7642 0.3056
C39 C 0.1259(4) 0.1656(3) 0.7546(3)
H29 H 0.0360 0.1263 0.7862
C40 C 0.7677(4) 0.0610(3) 0.6438(3)
H30 H 0.7312 0.1457 0.6165
H31 H 0.8700 0.0435 0.6080
H32 H 0.7713 0.0540 0.7265
C41 C 0.3694(3) 0.1173(3) 0.4069(2)
H33 H 0.4341 0.0684 0.3536
H34 H 0.2732 0.0741 0.4270
C42 C 0.6743(3) -0.1682(3) 0.6408(2)
C43 C 0.5449(3) -0.2208(3) 0.6019(2)
C44 C 0.7828(3) -0.2494(3) 0.6976(2)
H35 H 0.8690 -0.2168 0.7243
C45 C 0.3022(5) 0.3311(3) 0.7515(3)
H36 H 0.3317 0.4034 0.7810
C46 C 0.5240(4) -0.3506(3) 0.6186(3)
H37 H 0.4382 -0.3843 0.5924
C47 C 0.1714(4) 0.2717(3) 0.7984(2)
C48 C 0.3544(3) 0.4630(3) 0.3162(2)
C49 C 0.3329(3) 0.2463(3) 0.3477(2)
C50 C 0.6338(4) -0.4285(3) 0.6751(3)
H38 H 0.6219 -0.5159 0.6871
loop_
_geom_bond_atom_site_label_1
_geom_bond_atom_site_label_2
_geom_bond_site_symmetry_1
_geom_bond_site_symmetry_2
Cl1 C21 1_555 1_555
C1 N1 1_555 1_555
N1 C2 1_555 1_555
O1 C12 1_555 1_555
C2 C15 1_555 1_555
C3 H1 1_555 1_555
O2 C12 1_555 1_555
C4 H2 1_555 1_555
C5 C1 1_555 1_555
H3 C5 1_555 1_555
H4 C5 1_555 1_555
C6 C4 1_555 1_555
N2 C6 1_555 1_555
H5 N2 1_555 1_555
C7 C3 1_555 1_555
C8 C3 1_555 1_555
H6 C8 1_555 1_555
C9 H7 1_555 1_555
C10 C11 1_555 1_555
C11 C9 1_555 1_555
H8 C11 1_555 1_555
C12 C1 1_555 1_555
C13 C9 1_555 1_555
H9 C13 1_555 1_555
C14 C7 1_555 1_555
H10 C14 1_555 1_555
C15 H11 1_555 1_555
C16 C6 1_555 1_555
C17 N2 1_555 1_555
C18 C15 1_555 1_555
H12 C18 1_555 1_555
C19 O1 1_555 1_555
C20 C19 1_555 1_555
H13 C20 1_555 1_555
C21 C8 1_555 1_555
C22 C16 1_555 1_555
H14 C22 1_555 1_555
H15 C22 1_555 1_555
H16 C22 1_555 1_555
C23 C14 1_555 1_555
H17 C23 1_555 1_555
C24 C13 1_555 1_555
H18 C24 1_555 1_555
C25 C18 1_555 1_555
H19 C25 1_555 1_555
C26 O3 1_555 1_555
C27 H20 1_555 1_555
C28 N4 1_555 1_555
O3 C30 1_555 1_555
N3 C48 1_555 1_555
C29 H21 1_555 1_555
C30 O4 1_555 1_555
N4 H22 1_555 1_555
Cl2 C47 1_555 1_555
C31 C28 1_555 1_555
H23 C31 1_555 1_555
C32 H24 1_555 1_555
C33 C28 1_555 1_555
C34 C31 1_555 1_555
C35 C34 1_555 1_555
H25 C35 1_555 1_555
C36 C34 1_555 1_555
H26 C36 1_555 1_555
C37 C26 1_555 1_555
H27 C37 1_555 1_555
C38 C29 1_555 1_555
H28 C38 1_555 1_555
C39 C36 1_555 1_555
H29 C39 1_555 1_555
C40 C33 1_555 1_555
H30 C40 1_555 1_555
H31 C40 1_555 1_555
H32 C40 1_555 1_555
C41 C31 1_555 1_555
H33 C41 1_555 1_555
H34 C41 1_555 1_555
C42 C33 1_555 1_555
C43 N4 1_555 1_555
C44 C27 1_555 1_555
H35 C44 1_555 1_555
C45 C35 1_555 1_555
H36 C45 1_555 1_555
C46 C43 1_555 1_555
H37 C46 1_555 1_555
C47 C39 1_555 1_555
C48 C26 1_555 1_555
C49 N3 1_555 1_555
C50 C27 1_555 1_555
H38 C50 1_555 1_555
C2 C19 1_555 1_555
C4 C5 1_555 1_555
C4 C7 1_555 1_555
C10 C16 1_555 1_555
C10 C17 1_555 1_555
C17 C24 1_555 1_555
C20 C25 1_555 1_555
C21 C23 1_555 1_555
C29 C48 1_555 1_555
C30 C49 1_555 1_555
C32 C37 1_555 1_555
C32 C38 1_555 1_555
C41 C49 1_555 1_555
C42 C43 1_555 1_555
C42 C44 1_555 1_555
C45 C47 1_555 1_555
C46 C50 1_555 1_555

#END
