
#######################################################################
#
#                 Cambridge Crystallographic Data Centre
#                                CCDC 
#
#######################################################################
#
# If this CIF has been generated from an entry in the Cambridge 
# Structural Database, then it will include bibliographic, chemical, 
# crystal, experimental, refinement or atomic coordinate data resulting 
# from the CCDC's data processing and validation procedures.
#
#######################################################################

data_XUBYEZ
_chemical_formula_moiety         
'C36 H36 N24 O12,C6 H18 N2 2+,2(Cl1 1-),10(H2 O1)'
_chemical_name_systematic        
'Cucurbit(6)uril hexane-1,6-diammonium clathrate dichloride decahydrate'
_symmetry_cell_setting           monoclinic
_symmetry_space_group_name_H-M   'P 21/n'
_symmetry_Int_Tables_number      14
_space_group_name_Hall           '-P 2yn'
loop_
_symmetry_equiv_pos_site_id
_symmetry_equiv_pos_as_xyz
1 x,y,z
2 1/2-x,1/2+y,1/2-z
3 -x,-y,-z
4 1/2+x,1/2-y,1/2+z
_cell_length_a                   14.242(3)
_cell_length_b                   12.138(2)
_cell_length_c                   15.840(3)
_cell_angle_alpha                90
_cell_angle_beta                 91.97(3)
_cell_angle_gamma                90
_cell_volume                     2736.63
_exptl_crystal_colour            colorless
_exptl_crystal_description       cubic
_cell_formula_units_Z            2
loop_
_atom_site_label
_atom_site_type_symbol
_atom_site_fract_x
_atom_site_fract_y
_atom_site_fract_z
O7 O 0.3602(2) -0.0165(2) -0.51731(19)
O8 O 0.9964(2) 0.8753(2) -0.21898(19)
O9 O 0.0055(2) 0.0115(2) -0.6276(2)
O10 O 0.2172(3) -0.0208(3) -0.3949(3)
O11 O 0.1827(3) 0.0397(3) -0.5953(3)
Cl1 Cl 0.98839(7) 0.29519(8) -0.00922(6)
O1 O 0.88641(18) 0.6719(2) -0.25810(16)
O2 O 0.87725(18) 0.1971(2) -0.38503(17)
O3 O 1.14295(18) 0.65319(19) -0.27322(16)
O4 O 1.11098(18) 0.1728(2) -0.38202(17)
O5 O 0.73306(18) 0.2792(2) -0.56617(17)
O6 O 0.76531(18) 0.7489(2) -0.43108(17)
N1 N 0.7849(2) 0.5248(2) -0.2813(2)
N2 N 0.9267(2) 0.4918(2) -0.22441(19)
N3 N 0.7835(2) 0.3366(2) -0.3359(2)
N4 N 0.9170(2) 0.2986(2) -0.2658(2)
N5 N 1.0959(2) 0.4808(2) -0.2284(2)
N6 N 1.2319(2) 0.4961(2) -0.2933(2)
N7 N 1.0870(2) 0.2866(2) -0.2674(2)
N8 N 1.2181(2) 0.3047(2) -0.3370(2)
N9 N 1.3316(2) 0.5490(2) -0.40835(19)
N10 N 0.6923(2) 0.3965(2) -0.45867(19)
N11 N 1.2961(2) 0.3631(2) -0.46203(19)
N12 N 0.6903(2) 0.5851(2) -0.40390(19)
C1 C 0.7051(3) 0.5875(3) -0.3131(2)
H1 H 0.7134 0.6652 -0.2951
H2 H 0.6480 0.5591 -0.2867
C2 C 0.7020(3) 0.3163(3) -0.3915(2)
H3 H 0.7073 0.2419 -0.4165
H4 H 0.6447 0.3175 -0.3578
C3 C 0.8681(3) 0.5733(3) -0.2551(2)
C4 C 0.7813(3) 0.4083(3) -0.2628(2)
H5 H 0.7278 0.3899 -0.2260
C5 C 0.8779(3) 0.3870(3) -0.2169(2)
H6 H 0.8707 0.3654 -0.1565
C6 C 0.8612(3) 0.2707(3) -0.3349(2)
C7 C 1.0159(3) 0.5152(3) -0.1812(2)
H7 H 1.0205 0.5955 -0.1705
H8 H 1.0179 0.4774 -0.1258
C8 C 1.0002(3) 0.2369(3) -0.2400(3)
H9 H 0.9952 0.1614 -0.2633
H10 H 1.0030 0.2309 -0.1776
C9 C 1.1555(3) 0.5538(3) -0.2657(2)
C10 C 1.1374(3) 0.3715(3) -0.2202(2)
H11 H 1.1488 0.3502 -0.1597
C11 C 1.2301(3) 0.3821(3) -0.2674(2)
H12 H 1.2858 0.3631 -0.2301
C12 C 1.1357(3) 0.2481(3) -0.3345(2)
C13 C 1.3173(3) 0.5494(3) -0.3184(2)
H13 H 1.3714 0.5124 -0.2895
H14 H 1.3165 0.6268 -0.2986
C14 C 1.2922(3) 0.2817(3) -0.3953(2)
H15 H 1.3533 0.2801 -0.3636
H16 H 1.2816 0.2081 -0.4207
C15 C 0.7016(2) 0.3664(3) -0.5417(2)
C16 C 1.3617(3) 0.4549(3) -0.4568(2)
H17 H 1.4264 0.4303 -0.4388
C17 C 0.6414(3) 0.4994(3) -0.4511(2)
H18 H 0.5768 0.4871 -0.4301
C18 C 0.7243(2) 0.6661(3) -0.4552(2)
O1B O 1.11359(18) 0.3281(2) -0.74190(16)
O2B O 1.12275(18) 0.8029(2) -0.61497(17)
O3B O 0.85705(18) 0.34681(19) -0.72678(16)
O4B O 0.88902(18) 0.8272(2) -0.61798(17)
O5B O 1.26694(18) 0.7208(2) -0.43383(17)
O6B O 1.23469(18) 0.2511(2) -0.56892(17)
N1B N 1.2151(2) 0.4752(2) -0.7187(2)
N2B N 1.0733(2) 0.5082(2) -0.77559(19)
N3B N 1.2165(2) 0.6634(2) -0.6641(2)
N4B N 1.0830(2) 0.7014(2) -0.7342(2)
N5B N 0.9041(2) 0.5192(2) -0.7716(2)
N6B N 0.7681(2) 0.5039(2) -0.7067(2)
N7B N 0.9130(2) 0.7134(2) -0.7326(2)
N8B N 0.7819(2) 0.6953(2) -0.6630(2)
N9B N 0.6684(2) 0.4510(2) -0.59165(19)
N10B N 1.3077(2) 0.6035(2) -0.54133(19)
N11B N 0.7039(2) 0.6369(2) -0.53797(19)
N12B N 1.3097(2) 0.4149(2) -0.59610(19)
C1B C 1.2949(3) 0.4125(3) -0.6869(2)
H1B H 1.2866 0.3348 -0.7049
H2B H 1.3520 0.4409 -0.7133
C2B C 1.2980(3) 0.6837(3) -0.6085(2)
H3B H 1.2927 0.7581 -0.5835
H4B H 1.3553 0.6825 -0.6422
C3B C 1.1319(3) 0.4267(3) -0.7449(2)
C4B C 1.2187(3) 0.5917(3) -0.7372(2)
H5B H 1.2722 0.6101 -0.7740
C5B C 1.1221(3) 0.6130(3) -0.7831(2)
H6B H 1.1293 0.6346 -0.8435
C6B C 1.1388(3) 0.7293(3) -0.6651(2)
C7B C 0.9841(3) 0.4848(3) -0.8188(2)
H7B H 0.9795 0.4045 -0.8295
H8B H 0.9821 0.5226 -0.8742
C8B C 0.9998(3) 0.7631(3) -0.7600(3)
H9B H 1.0048 0.8386 -0.7367
H10B H 0.9970 0.7691 -0.8224
C9B C 0.8445(3) 0.4462(3) -0.7343(2)
C10B C 0.8626(3) 0.6285(3) -0.7798(2)
H11B H 0.8512 0.6498 -0.8403
C11B C 0.7699(3) 0.6179(3) -0.7326(2)
H12B H 0.7142 0.6369 -0.7699
C12B C 0.8643(3) 0.7519(3) -0.6655(2)
C13B C 0.6827(3) 0.4506(3) -0.6816(2)
H13B H 0.6286 0.4876 -0.7105
H14B H 0.6835 0.3732 -0.7014
C14B C 0.7078(3) 0.7183(3) -0.6047(2)
H15B H 0.6467 0.7199 -0.6364
H16B H 0.7184 0.7919 -0.5793
C15B C 1.2984(2) 0.6336(3) -0.4583(2)
C16B C 0.6383(3) 0.5451(3) -0.5432(2)
H17B H 0.5736 0.5697 -0.5612
C17B C 1.3586(3) 0.5006(3) -0.5489(2)
H18B H 1.4232 0.5129 -0.5699
C18B C 1.2757(2) 0.3339(3) -0.5448(2)
N13? N 0.9173(2) 0.2009(3) -0.5641(2)
H19? H 0.9295 0.1308 -0.5810
H20? H 0.8758 0.2329 -0.6017
H21? H 0.8921 0.1994 -0.5121
C19? C 0.0058(3) 0.2653(3) -0.5603(3)
C20? C 0.9904(10) 0.3784(9) -0.5375(11)
H22? H 0.9528 0.3779 -0.4861
H23? H 0.0336 0.2665 -0.6167
H24? H 0.0514 0.2302 -0.5201
H25? H 0.9467 0.4109 -0.5796
C21? C 0.0629(6) 0.4480(6) -0.5226(6)
H26? H 0.1121 0.4300 -0.5630
H27? H 0.0894 0.4321 -0.4653
C22? C 0.0058(3) 0.2653(3) -0.5603(3)
C23? C 0.9863(6) 0.3819(6) -0.5321(6)
C24? C 0.9551(7) 0.4297(8) -0.4719(7)
H28? H 0.0501 0.2313 -0.5184
H29? H 0.0350 0.2626 -0.6161
H30? H 0.9291 0.1317 -0.5831
H31? H 0.8749 0.2345 -0.6000
H32? H 0.8934 0.1970 -0.5117
H33? H 0.9503 0.4114 -0.5831
H34? H 0.0481 0.4180 -0.5380
H35? H 0.9991 0.4169 -0.4231
H36? H 0.8950 0.3937 -0.4585
N14? N 0.9173(2) 0.2009(3) -0.5641(2)
O12? O 0.1684(7) 0.0065(7) -0.5024(7)
loop_
_geom_bond_atom_site_label_1
_geom_bond_atom_site_label_2
_geom_bond_site_symmetry_1
_geom_bond_site_symmetry_2
O1 C3 1_555 1_555
O2 C6 1_555 1_555
O3 C9 1_555 1_555
O4 C12 1_555 1_555
O5 C15 1_555 1_555
O6 C18 1_555 1_555
N1 C1 1_555 1_555
N2 C3 1_555 1_555
N3 C2 1_555 1_555
N4 C5 1_555 1_555
N5 C7 1_555 1_555
N6 C9 1_555 1_555
N7 C8 1_555 1_555
N8 C11 1_555 1_555
N9 C13 1_555 1_555
N10 C2 1_555 1_555
N11 C14 1_555 1_555
N12 C1 1_555 1_555
C1 H1 1_555 1_555
H2 C1 1_555 1_555
C2 H3 1_555 1_555
H4 C2 1_555 1_555
C3 N1 1_555 1_555
C4 N1 1_555 1_555
H5 C4 1_555 1_555
C5 N2 1_555 1_555
H6 C5 1_555 1_555
C6 N3 1_555 1_555
C7 N2 1_555 1_555
H7 C7 1_555 1_555
H8 C7 1_555 1_555
C8 N4 1_555 1_555
H9 C8 1_555 1_555
H10 C8 1_555 1_555
C9 N5 1_555 1_555
C10 N5 1_555 1_555
H11 C10 1_555 1_555
C11 N6 1_555 1_555
H12 C11 1_555 1_555
C12 N7 1_555 1_555
C13 N6 1_555 1_555
H13 C13 1_555 1_555
H14 C13 1_555 1_555
C14 N8 1_555 1_555
H15 C14 1_555 1_555
H16 C14 1_555 1_555
C15 N10 1_555 1_555
C16 N9 1_555 1_555
H17 C16 1_555 1_555
C17 N10 1_555 1_555
H18 C17 1_555 1_555
C18 N12 1_555 1_555
O1B C3B 1_555 1_555
O2B C6B 1_555 1_555
O3B C9B 1_555 1_555
O4B C12B 1_555 1_555
O5B C15B 1_555 1_555
O6B C18B 1_555 1_555
N1B C1B 1_555 1_555
N2B C3B 1_555 1_555
N3B C2B 1_555 1_555
N4B C5B 1_555 1_555
N5B C7B 1_555 1_555
N6B C9B 1_555 1_555
N7B C8B 1_555 1_555
N8B C11B 1_555 1_555
N9B C15 1_555 1_555
N10B C2B 1_555 1_555
N11B C18 1_555 1_555
N12B C1B 1_555 1_555
C1B H1B 1_555 1_555
H2B C1B 1_555 1_555
C2B H3B 1_555 1_555
H4B C2B 1_555 1_555
C3B N1B 1_555 1_555
C4B N1B 1_555 1_555
H5B C4B 1_555 1_555
C5B N2B 1_555 1_555
H6B C5B 1_555 1_555
C6B N3B 1_555 1_555
C7B N2B 1_555 1_555
H7B C7B 1_555 1_555
H8B C7B 1_555 1_555
C8B N4B 1_555 1_555
H9B C8B 1_555 1_555
H10B C8B 1_555 1_555
C9B N5B 1_555 1_555
C10B N5B 1_555 1_555
H11B C10B 1_555 1_555
C11B N6B 1_555 1_555
H12B C11B 1_555 1_555
C12B N7B 1_555 1_555
C13B N6B 1_555 1_555
H13B C13B 1_555 1_555
H14B C13B 1_555 1_555
C14B N8B 1_555 1_555
H15B C14B 1_555 1_555
H16B C14B 1_555 1_555
C15B N9 1_555 1_555
C16B C17 1_555 1_555
H17B C16B 1_555 1_555
C17B C16 1_555 1_555
H18B C17B 1_555 1_555
C18B N11 1_555 1_555
N3 C4 1_555 1_555
N4 C6 1_555 1_555
N7 C10 1_555 1_555
N8 C12 1_555 1_555
N11 C16 1_555 1_555
N12 C17 1_555 1_555
C4 C5 1_555 1_555
C10 C11 1_555 1_555
N3B C4B 1_555 1_555
N4B C6B 1_555 1_555
N7B C10B 1_555 1_555
N8B C12B 1_555 1_555
N9B C13B 1_555 1_555
N9B C16B 1_555 1_555
N10B C15B 1_555 1_555
N10B C17B 1_555 1_555
N11B C14B 1_555 1_555
N11B C16B 1_555 1_555
N12B C17B 1_555 1_555
N12B C18B 1_555 1_555
C4B C5B 1_555 1_555
C10B C11B 1_555 1_555

#END
