
#######################################################################
#
#                 Cambridge Crystallographic Data Centre
#                                CCDC 
#
#######################################################################
#
# If this CIF has been generated from an entry in the Cambridge 
# Structural Database, then it will include bibliographic, chemical, 
# crystal, experimental, refinement or atomic coordinate data resulting 
# from the CCDC's data processing and validation procedures.
#
#######################################################################

data_XUDGEJ
_chemical_formula_moiety         'C56 H42 N2 O6,1.5(C1 H1 Cl3)'
_chemical_name_systematic        
'25,27-bis((3-(1-Naphthyl)-5-isoxazolyl)methoxy)-26,28-dihydroxycalix(4)arene chloroform solvate'
_symmetry_cell_setting           monoclinic
_symmetry_space_group_name_H-M   'C 2/c'
_symmetry_Int_Tables_number      15
_space_group_name_Hall           '-C 2yn'
loop_
_symmetry_equiv_pos_site_id
_symmetry_equiv_pos_as_xyz
1 x,y,z
2 -x,y,1/2-z
3 1/2+x,1/2+y,z
4 1/2-x,1/2+y,1/2-z
5 -x,-y,-z
6 x,-y,1/2+z
7 1/2-x,1/2-y,-z
8 1/2+x,1/2-y,1/2+z
_cell_length_a                   38.7769(19)
_cell_length_b                   17.9986(9)
_cell_length_c                   15.1865(7)
_cell_angle_alpha                90
_cell_angle_beta                 112.227(1)
_cell_angle_gamma                90
_cell_volume                     9811.52
_exptl_crystal_colour            colorless
_exptl_crystal_description       block
_chemical_melting_point          '196-198 deg.C'
_cell_formula_units_Z            8
_exptl_crystal_preparation       fluorescent
loop_
_atom_site_label
_atom_site_type_symbol
_atom_site_fract_x
_atom_site_fract_y
_atom_site_fract_z
O1 O 0.22402(9) 0.1244(2) 0.3952(3)
H1 H 0.2207 0.0790 0.3817
O2 O 0.15763(10) 0.2011(2) 0.3909(2)
O3 O 0.13769(10) 0.0630(2) 0.3106(3)
H2 H 0.1412 0.1078 0.3269
O4 O 0.20624(10) -0.02362(19) 0.3665(2)
O5 O 0.10359(11) 0.2003(2) 0.4973(3)
O6 O 0.27318(11) -0.0950(2) 0.5245(3)
N1 N 0.06800(14) 0.2233(3) 0.4920(4)
N2 N 0.30503(13) -0.1406(3) 0.5483(3)
C1 C 0.26962(14) 0.0246(3) 0.3307(4)
H3 H 0.2923 0.0046 0.3238
H4 H 0.2702 0.0094 0.3939
C2 C 0.27038(13) 0.1092(3) 0.3261(3)
C3 C 0.29444(14) 0.1448(3) 0.2909(4)
H5 H 0.3104 0.1156 0.2702
C4 C 0.29574(14) 0.2206(3) 0.2853(3)
H6 H 0.3130 0.2435 0.2630
C5 C 0.27167(14) 0.2642(3) 0.3123(3)
H7 H 0.2719 0.3167 0.3062
C6 C 0.24728(14) 0.2311(3) 0.3481(3)
C7 C 0.22097(14) 0.2779(3) 0.3782(4)
H8 H 0.2195 0.2565 0.4367
H9 H 0.2311 0.3288 0.3932
C8 C 0.18207(15) 0.2818(3) 0.3017(4)
C9 C 0.17510(18) 0.3230(3) 0.2193(4)
H10 H 0.1944 0.3523 0.2131
C10 C 0.1403(2) 0.3221(4) 0.1461(4)
H11 H 0.1357 0.3515 0.0909
C11 C 0.11246(19) 0.2787(4) 0.1531(4)
H12 H 0.0891 0.2768 0.1012
C12 C 0.11757(16) 0.2377(4) 0.2342(4)
C13 C 0.08667(16) 0.1877(4) 0.2388(5)
H13 H 0.0914 0.1768 0.3063
H14 H 0.0627 0.2146 0.2117
C14 C 0.08351(15) 0.1150(4) 0.1857(4)
C15 C 0.05479(15) 0.1035(4) 0.0978(4)
H15 H 0.0373 0.1421 0.0702
C16 C 0.05125(16) 0.0365(4) 0.0499(4)
H16 H 0.0310 0.0290 -0.0091
C17 C 0.07677(15) -0.0188(4) 0.0874(4)
H17 H 0.0742 -0.0642 0.0537
C18 C 0.10665(15) -0.0097(3) 0.1748(4)
C19 C 0.13557(16) -0.0694(3) 0.2167(4)
H18 H 0.1253 -0.1178 0.1873
H19 H 0.1412 -0.0732 0.2858
C20 C 0.17142(15) -0.0537(3) 0.2011(4)
C21 C 0.17146(16) -0.0607(3) 0.1101(4)
H20 H 0.1495 -0.0772 0.0600
C22 C 0.20242(18) -0.0443(3) 0.0904(4)
H21 H 0.2021 -0.0519 0.0282
C23 C 0.23393(16) -0.0169(3) 0.1616(4)
H22 H 0.2548 -0.0030 0.1469
C24 C 0.23575(15) -0.0092(3) 0.2549(4)
C25 C 0.24721(13) 0.1536(3) 0.3557(3)
C26 C 0.15219(15) 0.2422(3) 0.3087(4)
C27 C 0.10909(14) 0.0576(4) 0.2239(4)
C28 C 0.20435(14) -0.0308(3) 0.2732(3)
C29 C 0.15787(15) 0.2434(4) 0.4718(4)
H23 H 0.1705 0.2915 0.4736
H24 H 0.1723 0.2160 0.5309
C30 C 0.11949(15) 0.2577(3) 0.4690(4)
C31 C 0.09636(15) 0.3150(3) 0.4447(4)
H25 H 0.1004 0.3618 0.4212
C32 C 0.06424(15) 0.2918(3) 0.4610(4)
C33 C 0.03104(15) 0.3383(3) 0.4462(4)
C34 C 0.02416(17) 0.3965(4) 0.3825(4)
H26 H 0.0397 0.4021 0.3472
C35 C -0.0047(2) 0.4472(4) 0.3679(5)
H27 H -0.0085 0.4866 0.3236
C36 C -0.02722(17) 0.4403(4) 0.4171(5)
H28 H -0.0468 0.4750 0.4072
C37 C -0.02200(15) 0.3823(3) 0.4824(4)
C38 C -0.04477(17) 0.3758(4) 0.5361(5)
H29 H -0.0634 0.4122 0.5286
C39 C -0.04069(19) 0.3200(5) 0.5969(5)
H30 H -0.0562 0.3169 0.6323
C40 C -0.0131(2) 0.2656(5) 0.6082(6)
H31 H -0.0109 0.2249 0.6499
C41 C 0.01039(16) 0.2702(4) 0.5610(5)
H32 H 0.0292 0.2336 0.5712
C42 C 0.00706(15) 0.3286(3) 0.4971(4)
C43 C 0.20800(15) -0.0918(3) 0.4172(4)
H33 H 0.1895 -0.1269 0.3748
H34 H 0.2008 -0.0815 0.4721
C44 C 0.24503(15) -0.1276(3) 0.4523(3)
C45 C 0.25701(15) -0.1910(3) 0.4284(4)
H35 H 0.2430 -0.2246 0.3798
C46 C 0.29535(14) -0.1981(3) 0.4911(3)
C47 C 0.32022(14) -0.2598(3) 0.4910(3)
C48 C 0.30952(14) -0.3032(3) 0.4111(3)
H36 H 0.2861 -0.2938 0.3614
C49 C 0.33182(14) -0.3612(3) 0.3997(4)
H37 H 0.3238 -0.3892 0.3424
C50 C 0.36472(15) -0.3770(3) 0.4710(4)
H38 H 0.3798 -0.4162 0.4634
C51 C 0.37686(14) -0.3355(3) 0.5566(4)
C52 C 0.41055(16) -0.3546(4) 0.6325(4)
H39 H 0.4255 -0.3938 0.6245
C53 C 0.42163(16) -0.3174(4) 0.7163(4)
H40 H 0.4440 -0.3314 0.7670
C54 C 0.40016(16) -0.2584(4) 0.7284(4)
H41 H 0.4084 -0.2321 0.7870
C55 C 0.36774(15) -0.2385(4) 0.6572(4)
H42 H 0.3535 -0.1988 0.6673
C56 C 0.35467(14) -0.2756(3) 0.5685(4)
C58 C 0.1339(2) 0.5209(6) 0.3801(6)
H44 H 0.1480 0.5680 0.3833
Cl3 Cl 0.13314(12) 0.5019(3) 0.4932(4)
Cl4 Cl 0.16014(19) 0.4473(4) 0.3691(6)
Cl5 Cl 0.08822(8) 0.5358(2) 0.3163(3)
C57? C 0.0128(3) 0.0438(5) 0.2385(6)
H43? H 0.0316 0.0477 0.2085
Cl1? Cl -0.02842(8) 0.09377(13) 0.15727(13)
Cl2? Cl 0.0000 -0.04351(19) 0.2500
C59? C 0.1277(3) 0.5461(7) 0.2972(8)
Cl6? Cl 0.1092(3) 0.5802(5) 0.1800(6)
Cl7? Cl 0.14536(15) 0.4599(3) 0.3040(4)
H45? H 0.1454 0.5816 0.3428
loop_
_geom_bond_atom_site_label_1
_geom_bond_atom_site_label_2
_geom_bond_site_symmetry_1
_geom_bond_site_symmetry_2
O1 H1 1_555 1_555
O2 C26 1_555 1_555
O3 H2 1_555 1_555
O4 C28 1_555 1_555
O5 N1 1_555 1_555
O6 N2 1_555 1_555
N1 C32 1_555 1_555
N2 C46 1_555 1_555
C1 H3 1_555 1_555
H4 C1 1_555 1_555
C2 C1 1_555 1_555
C3 C2 1_555 1_555
H5 C3 1_555 1_555
C4 C3 1_555 1_555
H6 C4 1_555 1_555
C5 C4 1_555 1_555
H7 C5 1_555 1_555
C6 C5 1_555 1_555
C7 C6 1_555 1_555
H8 C7 1_555 1_555
H9 C7 1_555 1_555
C8 C7 1_555 1_555
C9 C8 1_555 1_555
H10 C9 1_555 1_555
C10 C9 1_555 1_555
H11 C10 1_555 1_555
C11 C10 1_555 1_555
H12 C11 1_555 1_555
C12 C11 1_555 1_555
C13 C12 1_555 1_555
H13 C13 1_555 1_555
H14 C13 1_555 1_555
C14 C13 1_555 1_555
C15 C14 1_555 1_555
H15 C15 1_555 1_555
C16 C15 1_555 1_555
H16 C16 1_555 1_555
C17 C16 1_555 1_555
H17 C17 1_555 1_555
C18 C17 1_555 1_555
C19 C18 1_555 1_555
H18 C19 1_555 1_555
H19 C19 1_555 1_555
C20 C19 1_555 1_555
C21 C20 1_555 1_555
H20 C21 1_555 1_555
C22 C21 1_555 1_555
H21 C22 1_555 1_555
C23 C22 1_555 1_555
H22 C23 1_555 1_555
C24 C1 1_555 1_555
C25 O1 1_555 1_555
C26 C8 1_555 1_555
C27 O3 1_555 1_555
C28 C20 1_555 1_555
C29 O2 1_555 1_555
H23 C29 1_555 1_555
H24 C29 1_555 1_555
C30 O5 1_555 1_555
C31 C30 1_555 1_555
H25 C31 1_555 1_555
C32 C31 1_555 1_555
C33 C32 1_555 1_555
C34 C33 1_555 1_555
H26 C34 1_555 1_555
C35 C34 1_555 1_555
H27 C35 1_555 1_555
C36 C35 1_555 1_555
H28 C36 1_555 1_555
C37 C36 1_555 1_555
C38 C37 1_555 1_555
H29 C38 1_555 1_555
C39 C38 1_555 1_555
H30 C39 1_555 1_555
C40 C39 1_555 1_555
H31 C40 1_555 1_555
C41 C40 1_555 1_555
H32 C41 1_555 1_555
C42 C33 1_555 1_555
C43 O4 1_555 1_555
H33 C43 1_555 1_555
H34 C43 1_555 1_555
C44 O6 1_555 1_555
C45 C44 1_555 1_555
H35 C45 1_555 1_555
C46 C45 1_555 1_555
C47 C46 1_555 1_555
C48 C47 1_555 1_555
H36 C48 1_555 1_555
C49 C48 1_555 1_555
H37 C49 1_555 1_555
C50 C49 1_555 1_555
H38 C50 1_555 1_555
C51 C50 1_555 1_555
C52 C51 1_555 1_555
H39 C52 1_555 1_555
C53 C52 1_555 1_555
H40 C53 1_555 1_555
C54 C53 1_555 1_555
H41 C54 1_555 1_555
C55 C54 1_555 1_555
H42 C55 1_555 1_555
C56 C47 1_555 1_555
C58 H44 1_555 1_555
Cl3 C58 1_555 1_555
Cl4 C58 1_555 1_555
Cl5 C58 1_555 1_555
C2 C25 1_555 1_555
C6 C25 1_555 1_555
C12 C26 1_555 1_555
C14 C27 1_555 1_555
C18 C27 1_555 1_555
C23 C24 1_555 1_555
C24 C28 1_555 1_555
C29 C30 1_555 1_555
C37 C42 1_555 1_555
C41 C42 1_555 1_555
C43 C44 1_555 1_555
C51 C56 1_555 1_555
C55 C56 1_555 1_555

#END
