
#######################################################################
#
#                 Cambridge Crystallographic Data Centre
#                                CCDC 
#
#######################################################################
#
# If this CIF has been generated from an entry in the Cambridge 
# Structural Database, then it will include bibliographic, chemical, 
# crystal, experimental, refinement or atomic coordinate data resulting 
# from the CCDC's data processing and validation procedures.
#
#######################################################################

data_XUDLUF
_chemical_formula_moiety         'C26 H16 N4 O2'
_chemical_name_systematic        
1,3,7-triphenylpyrazolo[3,4-b]pyrrolo[3,4-d]pyridine-6,8(3H,7H)-dione
_symmetry_cell_setting           triclinic
_symmetry_space_group_name_H-M   'P -1'
_symmetry_Int_Tables_number      2
_space_group_name_Hall           '-P 1'
loop_
_symmetry_equiv_pos_site_id
_symmetry_equiv_pos_as_xyz
1 x,y,z
2 -x,-y,-z
_cell_length_a                   8.078(5)
_cell_length_b                   10.829(6)
_cell_length_c                   11.119(7)
_cell_angle_alpha                93.155(11)
_cell_angle_beta                 102.943(11)
_cell_angle_gamma                93.867(13)
_cell_volume                     943.319
_exptl_crystal_colour            orange
_exptl_crystal_description       Lamellar
_cell_formula_units_Z            2
loop_
_atom_site_label
_atom_site_type_symbol
_atom_site_fract_x
_atom_site_fract_y
_atom_site_fract_z
O1 O 0.2107(2) 0.95635(17) 0.30644(17)
O2 O 0.3542(2) 1.06815(16) -0.05296(17)
N1 N 0.3207(3) 1.03340(19) 0.14630(19)
N2 N -0.1529(3) 0.59540(19) -0.0203(2)
N3 N 0.0007(3) 0.72551(19) -0.1368(2)
N4 N -0.1791(3) 0.59755(19) 0.09765(19)
C1 C 0.6891(4) 1.2977(2) 0.3620(2)
H1 H 0.7721 1.3573 0.4109
C2 C 0.5906(4) 1.3285(2) 0.2505(3)
H2 H 0.6058 1.4094 0.2236
C3 C 0.4698(3) 1.2415(2) 0.1778(2)
H3 H 0.4034 1.2620 0.1008
C4 C 0.4471(3) 1.1241(2) 0.2192(2)
C5 C 0.2143(3) 0.9537(2) 0.1985(2)
C6 C 0.1152(3) 0.8672(2) 0.0931(2)
C7 C -0.0035(3) 0.7650(2) 0.0853(2)
C8 C -0.0475(3) 0.6978(2) -0.0328(2)
C9 C -0.2444(3) 0.4996(2) -0.1089(2)
C10 C -0.3448(3) 0.4088(2) -0.0698(3)
H4 H -0.3494 0.4089 0.0149
C11 C -0.4390(3) 0.3171(2) -0.1552(3)
H5 H -0.5081 0.2545 -0.1286
C12 C -0.4328(4) 0.3164(2) -0.2787(3)
H6 H -0.4974 0.2538 -0.3368
C13 C 0.1061(3) 0.8282(2) -0.1259(2)
H7 H 0.1416 0.8544 -0.1970
C14 C 0.1656(3) 0.8982(2) -0.0131(2)
C15 C 0.2908(3) 1.0080(2) 0.0167(2)
C16 C -0.3326(4) 0.4069(3) -0.3163(3)
H8 H -0.3284 0.4067 -0.4010
C17 C -0.2370(4) 0.4993(3) -0.2322(3)
H9 H -0.1675 0.5613 -0.2591
C18 C -0.0930(3) 0.6973(2) 0.1618(2)
C19 C -0.1066(3) 0.7220(2) 0.2912(2)
C20 C -0.1152(3) 0.6228(2) 0.3651(2)
H10 H -0.1031 0.5414 0.3335
C21 C -0.1410(4) 0.6408(2) 0.4829(2)
H11 H -0.1461 0.5720 0.5318
C22 C -0.1597(4) 0.7600(3) 0.5308(2)
H12 H -0.1779 0.7728 0.6119
C23 C -0.1511(3) 0.8596(2) 0.4575(2)
H13 H -0.1623 0.9411 0.4895
C24 C -0.1266(3) 0.8414(2) 0.3391(2)
H14 H -0.1232 0.9100 0.2897
C25 C 0.5467(4) 1.0925(3) 0.3312(3)
H15 H 0.5321 1.0116 0.3582
C26 C 0.6669(4) 1.1800(2) 0.4025(3)
H16 H 0.7341 1.1595 0.4793
loop_
_geom_bond_atom_site_label_1
_geom_bond_atom_site_label_2
_geom_bond_site_symmetry_1
_geom_bond_site_symmetry_2
O1 C5 1_555 1_555
O2 C15 1_555 1_555
N1 C4 1_555 1_555
N2 N4 1_555 1_555
N3 C8 1_555 1_555
N4 C18 1_555 1_555
C1 H1 1_555 1_555
C2 C1 1_555 1_555
H2 C2 1_555 1_555
C3 C2 1_555 1_555
H3 C3 1_555 1_555
C4 C3 1_555 1_555
C5 N1 1_555 1_555
C6 C5 1_555 1_555
C7 C6 1_555 1_555
C8 N2 1_555 1_555
C9 N2 1_555 1_555
C10 C9 1_555 1_555
H4 C10 1_555 1_555
C11 C10 1_555 1_555
H5 C11 1_555 1_555
C12 C11 1_555 1_555
H6 C12 1_555 1_555
C13 N3 1_555 1_555
H7 C13 1_555 1_555
C14 C6 1_555 1_555
C15 N1 1_555 1_555
C16 C12 1_555 1_555
H8 C16 1_555 1_555
C17 C9 1_555 1_555
H9 C17 1_555 1_555
C18 C7 1_555 1_555
C19 C18 1_555 1_555
C20 C19 1_555 1_555
H10 C20 1_555 1_555
C21 C20 1_555 1_555
H11 C21 1_555 1_555
C22 C21 1_555 1_555
H12 C22 1_555 1_555
C23 C22 1_555 1_555
H13 C23 1_555 1_555
C24 C19 1_555 1_555
H14 C24 1_555 1_555
C25 C4 1_555 1_555
H15 C25 1_555 1_555
C26 C1 1_555 1_555
H16 C26 1_555 1_555
C7 C8 1_555 1_555
C13 C14 1_555 1_555
C14 C15 1_555 1_555
C16 C17 1_555 1_555
C23 C24 1_555 1_555
C25 C26 1_555 1_555

#END
