
#######################################################################
#
#                 Cambridge Crystallographic Data Centre
#                                CCDC 
#
#######################################################################
#
# If this CIF has been generated from an entry in the Cambridge 
# Structural Database, then it will include bibliographic, chemical, 
# crystal, experimental, refinement or atomic coordinate data resulting 
# from the CCDC's data processing and validation procedures.
#
#######################################################################

data_XUDYEA
_chemical_formula_moiety         'C13 H9 I1 N2 O2'
_chemical_name_systematic        3-Nitrobenzylidene-4'-iodoaniline
_symmetry_cell_setting           triclinic
_symmetry_space_group_name_H-M   'P -1'
_symmetry_Int_Tables_number      2
_space_group_name_Hall           '-P 1'
loop_
_symmetry_equiv_pos_site_id
_symmetry_equiv_pos_as_xyz
1 x,y,z
2 -x,-y,-z
_cell_length_a                   7.26460(10)
_cell_length_b                   11.8251(2)
_cell_length_c                   15.0057(3)
_cell_angle_alpha                103.2458(6)
_cell_angle_beta                 98.3999(7)
_cell_angle_gamma                91.6291(10)
_cell_volume                     1238.74
_exptl_crystal_colour            yellow
_exptl_crystal_description       rod
_cell_formula_units_Z            4
_exptl_crystal_recrystallization_method ethanol
loop_
_atom_site_label
_atom_site_type_symbol
_atom_site_fract_x
_atom_site_fract_y
_atom_site_fract_z
C1 C 0.6823(4) 0.6439(2) 0.99745(18)
C2 C 0.6110(4) 0.6440(2) 0.90570(18)
C3 C 0.5536(4) 0.7466(2) 0.88612(17)
N1 N 0.4780(3) 0.7468(2) 0.78935(16)
O1 O 0.4903(3) 0.6587(2) 0.72897(14)
O2 O 0.4080(3) 0.83443(19) 0.77380(14)
C4 C 0.5657(5) 0.8499(3) 0.9522(2)
C5 C 0.6379(5) 0.8487(3) 1.0431(2)
C6 C 0.6943(5) 0.7467(3) 1.06558(19)
C7 C 0.7453(4) 0.5351(2) 1.01811(18)
N2 N 0.8182(3) 0.5274(2) 1.09800(15)
C8 C 0.8758(4) 0.4184(2) 1.11256(18)
C9 C 0.8685(4) 0.3154(2) 1.04452(18)
C10 C 0.9271(4) 0.2140(2) 1.06756(18)
C11 C 0.9964(4) 0.2150(2) 1.15893(18)
I1 I 1.08069(3) 0.059298(16) 1.192057(13)
C12 C 1.0091(4) 0.3164(2) 1.22782(18)
C13 C 0.9488(4) 0.4172(2) 1.20382(17)
H1 H 0.6025 0.5747 0.8580
H2 H 0.5262 0.9196 0.9362
H3 H 0.6486 0.9186 1.0903
H4 H 0.7416 0.7469 1.1281
H5 H 0.7308 0.4670 0.9691
H6 H 0.8229 0.3147 0.9817
H7 H 0.9199 0.1438 1.0209
H8 H 1.0580 0.3170 1.2902
H9 H 0.9573 0.4873 1.2507
C14 C 0.7847(4) 0.3484(2) 0.53796(18)
C15 C 0.7716(4) 0.3626(2) 0.63192(18)
C16 C 0.8156(4) 0.2714(2) 0.67220(18)
N3 N 0.7992(4) 0.2841(2) 0.77028(16)
O3 O 0.7165(4) 0.36639(19) 0.80744(14)
O4 O 0.8681(4) 0.21277(19) 0.81026(14)
C17 C 0.8711(4) 0.1662(2) 0.62420(19)
C18 C 0.8792(4) 0.1532(2) 0.5316(2)
C19 C 0.8351(4) 0.2422(2) 0.48808(19)
C20 C 0.7448(4) 0.4418(2) 0.49021(18)
N4 N 0.7448(3) 0.5474(2) 0.53254(16)
C21 C 0.7097(4) 0.6326(2) 0.48009(17)
C22 C 0.6697(4) 0.7425(2) 0.52793(17)
C23 C 0.6367(4) 0.8315(2) 0.48228(17)
C24 C 0.6455(4) 0.8102(2) 0.38829(17)
I2 I 0.60101(3) 0.944128(15) 0.317776(11)
C25 C 0.6860(4) 0.7016(2) 0.33966(18)
C26 C 0.7172(4) 0.6141(2) 0.38571(19)
H10 H 0.7334 0.4331 0.6669
H11 H 0.9024 0.1055 0.6544
H12 H 0.9157 0.0820 0.4970
H13 H 0.8391 0.2310 0.4237
H14 H 0.7177 0.4223 0.4244
H15 H 0.6650 0.7566 0.5925
H16 H 0.6085 0.9061 0.5151
H17 H 0.6921 0.6877 0.2753
H18 H 0.7443 0.5396 0.3524
loop_
_geom_bond_atom_site_label_1
_geom_bond_atom_site_label_2
_geom_bond_site_symmetry_1
_geom_bond_site_symmetry_2
C1 C2 1_555 1_555
C2 C3 1_555 1_555
C3 N1 1_555 1_555
N1 O1 1_555 1_555
O2 N1 1_555 1_555
C4 C3 1_555 1_555
C5 C4 1_555 1_555
C6 C1 1_555 1_555
C7 C1 1_555 1_555
N2 C7 1_555 1_555
C8 N2 1_555 1_555
C9 C8 1_555 1_555
C10 C9 1_555 1_555
C11 C10 1_555 1_555
I1 C11 1_555 1_555
C12 C11 1_555 1_555
C13 C8 1_555 1_555
C14 C15 1_555 1_555
C15 C16 1_555 1_555
C16 N3 1_555 1_555
N3 O3 1_555 1_555
O4 N3 1_555 1_555
C17 C16 1_555 1_555
C18 C17 1_555 1_555
C19 C14 1_555 1_555
C20 C14 1_555 1_555
N4 C20 1_555 1_555
C21 N4 1_555 1_555
C22 C21 1_555 1_555
C23 C22 1_555 1_555
C24 C23 1_555 1_555
I2 C24 1_555 1_555
C25 C24 1_555 1_555
C26 C21 1_555 1_555
H1 C2 1_555 1_555
H2 C4 1_555 1_555
H3 C5 1_555 1_555
H4 C6 1_555 1_555
H5 C7 1_555 1_555
H6 C9 1_555 1_555
H7 C10 1_555 1_555
H8 C12 1_555 1_555
H9 C13 1_555 1_555
H10 C15 1_555 1_555
H11 C17 1_555 1_555
H12 C18 1_555 1_555
H13 C19 1_555 1_555
H14 C20 1_555 1_555
H15 C22 1_555 1_555
H16 C23 1_555 1_555
H17 C25 1_555 1_555
H18 C26 1_555 1_555
C5 C6 1_555 1_555
C12 C13 1_555 1_555
C18 C19 1_555 1_555
C25 C26 1_555 1_555

#END
