
#######################################################################
#
#                 Cambridge Crystallographic Data Centre
#                                CCDC 
#
#######################################################################
#
# If this CIF has been generated from an entry in the Cambridge 
# Structural Database, then it will include bibliographic, chemical, 
# crystal, experimental, refinement or atomic coordinate data resulting 
# from the CCDC's data processing and validation procedures.
#
#######################################################################

data_XUFGEM
_chemical_formula_moiety         'C20 H17 N1 O5'
_chemical_name_systematic        
4-Hydroxy-3-(3-(4-hydroxy-3-methoxyphenyl)acryloyl)-1-methylquinolin-2(1H)-one
_symmetry_cell_setting           monoclinic
_symmetry_space_group_name_H-M   'P 21/n'
_symmetry_Int_Tables_number      14
_space_group_name_Hall           '-P 2yn'
loop_
_symmetry_equiv_pos_site_id
_symmetry_equiv_pos_as_xyz
1 x,y,z
2 1/2-x,1/2+y,1/2-z
3 -x,-y,-z
4 1/2+x,1/2-y,1/2+z
_cell_length_a                   8.3634(8)
_cell_length_b                   22.664(2)
_cell_length_c                   8.8079(9)
_cell_angle_alpha                90
_cell_angle_beta                 95.413(3)
_cell_angle_gamma                90
_cell_volume                     1662.08
_exptl_crystal_colour            yellow
_exptl_crystal_description       block
_cell_formula_units_Z            4
loop_
_atom_site_label
_atom_site_type_symbol
_atom_site_fract_x
_atom_site_fract_y
_atom_site_fract_z
C1 C 0.7024(3) -0.04442(11) 0.9256(3)
N1 N 0.7229(2) 0.02301(9) 1.1896(2)
O1 O 0.8821(2) 0.08925(8) 1.0865(2)
C2 C 0.6258(3) -0.06452(11) 1.0557(3)
O2 O 0.6850(2) -0.07762(9) 0.8038(2)
H1 H 0.7380 -0.0633 0.7362
C3 C 0.5393(3) -0.11726(12) 1.0516(4)
H2 H 0.5284 -0.1402 0.9609
O3 O 0.8460(2) -0.00808(8) 0.6787(2)
C4 C 0.4692(3) -0.13626(13) 1.1794(4)
H3 H 0.4108 -0.1723 1.1772
O4 O 1.2629(3) 0.28691(9) 0.7891(2)
C5 C 0.4853(3) -0.10230(14) 1.3095(4)
H4 H 0.4376 -0.1152 1.3973
O5 O 1.3629(3) 0.29415(9) 0.5092(3)
H5 H 1.3606 0.3205 0.5759
C6 C 0.5689(3) -0.05015(13) 1.3150(3)
H6 H 0.5789 -0.0277 1.4064
C7 C 0.6394(3) -0.02989(11) 1.1873(3)
C8 C 0.8029(3) 0.04333(11) 1.0694(3)
C9 C 0.7893(3) 0.00803(10) 0.9302(3)
C10 C 0.7290(4) 0.06001(14) 1.3261(3)
H7 H 0.6203 0.0733 1.3420
H8 H 0.7974 0.0944 1.3128
H9 H 0.7732 0.0372 1.4148
C11 C 0.8604(3) 0.02611(11) 0.7932(3)
C12 C 0.9447(3) 0.08179(11) 0.7778(3)
H10 H 0.9507 0.1094 0.8594
C13 C 1.0134(3) 0.09468(11) 0.6516(3)
H11 H 1.0054 0.0654 0.5741
C14 C 1.0990(3) 0.14816(11) 0.6180(3)
C15 C 1.1320(3) 0.19255(11) 0.7263(3)
H12 H 1.0944 0.1890 0.8244
C16 C 1.2192(3) 0.24159(12) 0.6913(3)
C17 C 1.2722(3) 0.24754(12) 0.5466(4)
C18 C 1.2366(4) 0.20473(12) 0.4387(4)
H13 H 1.2714 0.2090 0.3396
C19 C 1.1502(3) 0.15542(12) 0.4737(3)
H14 H 1.1256 0.1261 0.3981
C20 C 1.2328(4) 0.28030(14) 0.9429(4)
H15 H 1.1166 0.2782 0.9499
H16 H 1.2773 0.3141 1.0019
H17 H 1.2834 0.2439 0.9839
loop_
_geom_bond_atom_site_label_1
_geom_bond_atom_site_label_2
_geom_bond_site_symmetry_1
_geom_bond_site_symmetry_2
C1 C2 1_555 1_555
N1 C7 1_555 1_555
O1 C8 1_555 1_555
C2 C3 1_555 1_555
O2 C1 1_555 1_555
H1 O2 1_555 1_555
C3 H2 1_555 1_555
O3 C11 1_555 1_555
C4 C3 1_555 1_555
H3 C4 1_555 1_555
O4 C16 1_555 1_555
C5 C4 1_555 1_555
H4 C5 1_555 1_555
O5 H5 1_555 1_555
C6 C5 1_555 1_555
H6 C6 1_555 1_555
C7 C2 1_555 1_555
C8 N1 1_555 1_555
C9 C1 1_555 1_555
C10 N1 1_555 1_555
H7 C10 1_555 1_555
H8 C10 1_555 1_555
H9 C10 1_555 1_555
C11 C9 1_555 1_555
C12 C11 1_555 1_555
H10 C12 1_555 1_555
C13 C12 1_555 1_555
H11 C13 1_555 1_555
C14 C13 1_555 1_555
C15 C14 1_555 1_555
H12 C15 1_555 1_555
C16 C15 1_555 1_555
C17 O5 1_555 1_555
C18 C17 1_555 1_555
H13 C18 1_555 1_555
C19 C14 1_555 1_555
H14 C19 1_555 1_555
C20 O4 1_555 1_555
H15 C20 1_555 1_555
H16 C20 1_555 1_555
H17 C20 1_555 1_555
C6 C7 1_555 1_555
C8 C9 1_555 1_555
C16 C17 1_555 1_555
C18 C19 1_555 1_555

#END
