
#######################################################################
#
#                 Cambridge Crystallographic Data Centre
#                                CCDC 
#
#######################################################################
#
# If this CIF has been generated from an entry in the Cambridge 
# Structural Database, then it will include bibliographic, chemical, 
# crystal, experimental, refinement or atomic coordinate data resulting 
# from the CCDC's data processing and validation procedures.
#
#######################################################################

data_XUFSUO
_chemical_formula_moiety         'C27 H54 N14 6+,8(H2 O1),6(Cl1 1-)'
_chemical_name_systematic        
'1,7,8,14,20,21,32,33-octaaza-4,11,17,24,29,36-hexaazoniapentacyclo[12.12.12.1^6,9^.1^19,22^.1^31,34^]hentetraconta-6(41),8,19(40),21,31(39),33-hexaene hexakis(chloride) octahydrate'
_symmetry_cell_setting           monoclinic
_symmetry_space_group_name_H-M   'P 21/c'
_symmetry_Int_Tables_number      14
_space_group_name_Hall           '-P 2ybc'
loop_
_symmetry_equiv_pos_site_id
_symmetry_equiv_pos_as_xyz
1 x,y,z
2 -x,1/2+y,1/2-z
3 -x,-y,-z
4 x,1/2-y,1/2+z
_cell_length_a                   14.1190(8)
_cell_length_b                   15.1510(5)
_cell_length_c                   24.8700(11)
_cell_angle_alpha                90
_cell_angle_beta                 121.047(2)
_cell_angle_gamma                90
_cell_volume                     4557.98
_exptl_crystal_colour            colorless
_exptl_crystal_description       block
_cell_formula_units_Z            4
_chemical_properties_physical    Hygroscopic
_exptl_crystal_recrystallization_method water
loop_
_atom_site_label
_atom_site_type_symbol
_atom_site_fract_x
_atom_site_fract_y
_atom_site_fract_z
Cl1 Cl 0.49394(10) 0.23633(8) 0.16479(6)
Cl2 Cl 0.29646(12) 0.20159(8) 0.97719(7)
Cl3 Cl 0.35639(12) 0.46384(9) 0.20148(7)
Cl4 Cl 0.80875(12) 0.46086(8) 0.28084(6)
Cl5 Cl 0.99611(15) 0.46510(9) 0.89764(7)
Cl6 Cl 0.13765(13) 0.83365(11) 0.96423(7)
N1 N 0.3809(3) 0.2256(2) 0.24759(16)
H1 H 0.3980 0.2481 0.2170
H2 H 0.3970 0.1629 0.2525
N2 N 0.2006(3) 0.2157(2) 0.11099(16)
N3 N 0.7866(3) 0.3877(2) 0.15729(17)
H3 H 0.7807 0.4082 0.1924
H4 H 0.7555 0.3288 0.1465
N4 N 0.9464(3) 0.2474(2) 0.24458(16)
N5 N 0.3209(3) 0.0717(2) 0.08259(17)
H5 H 0.3670 0.1104 0.1176
H6 H 0.3135 0.0973 0.0449
N6 N 0.2940(3) 0.3703(2) 0.07401(17)
H7 H 0.3389 0.3174 0.0842
H8 H 0.3155 0.4012 0.1128
C1 C 0.7506(4) 0.2528(3) 0.3749(2)
N7 N 0.6132(3) 0.1801(2) 0.37602(18)
C2 C 0.5713(4) 0.2501(3) 0.3383(2)
N8 N 0.8814(3) 0.2701(2) 0.33883(16)
H9 H 0.8422 0.2207 0.3116
H10 H 0.8488 0.3239 0.3153
N9 N 0.7225(4) 0.1829(3) 0.39706(19)
N10 N 0.8104(3) 0.0793(2) 0.17628(17)
H11 H 0.7715 0.1348 0.1697
H12 H 0.8097 0.0483 0.2102
C3 C 0.6403(4) -0.0008(3) 0.1045(2)
N11 N 0.4760(3) 0.5269(3) 0.0918(2)
N12 N 0.5885(4) -0.0711(3) 0.0685(2)
H13 H 0.6175 -0.1048 0.0530
C4 C 0.9991(4) 0.2662(3) 0.3568(2)
H14 H 1.0259 0.2062 0.3687
H15 H 1.0425 0.3038 0.3930
C5 C 0.4757(4) -0.0190(3) 0.0914(2)
C6 C 0.1489(4) 0.1492(3) 0.0603(2)
H16 H 0.1435 0.1735 0.0228
H17 H 0.0744 0.1379 0.0511
C7 C 0.1878(4) 0.1891(3) 0.16364(19)
H18 H 0.2038 0.1266 0.1714
H19 H 0.1114 0.1979 0.1518
C8 C 0.4523(4) 0.2708(3) 0.3089(2)
H20 H 0.4423 0.3340 0.3025
H21 H 0.4281 0.2539 0.3375
C9 C 0.1460(4) 0.3018(3) 0.0864(2)
H22 H 0.1660 0.3411 0.1215
H23 H 0.0666 0.2934 0.0645
C10 C 0.4315(4) 0.4515(3) 0.0591(2)
N13 N 0.4874(3) -0.0839(3) 0.0591(2)
C11 C 0.6058(4) 0.4608(3) 0.0892(2)
C12 C 0.2616(4) 0.2392(3) 0.2239(2)
H24 H 0.2449 0.3017 0.2166
H25 H 0.2457 0.2202 0.2556
C13 C 0.9536(4) 0.2919(3) 0.1940(2)
H26 H 0.9190(10) 0.2578(9) 0.1592(10)
H27 H 1.026(2) 0.2950(3) 0.2056(4)
C14 C 0.3139(4) 0.4280(3) 0.0323(2)
H28 H 0.2876 0.3980 -0.0074
H29 H 0.2712 0.4817 0.0239
C15 C 0.9872(4) 0.1559(3) 0.2518(2)
H30 H 0.9835 0.1285 0.2860
H31 H 1.0645 0.1578 0.2641
C16 C 0.1755(4) 0.3454(3) 0.0426(2)
H32 H 0.1581 0.3054 0.0082
H33 H 0.1306 0.3979 0.0250
C17 C 0.6548(4) 0.2965(3) 0.3360(2)
H34 H 0.6466 0.3469 0.3126
C18 C 0.9264(4) 0.0976(3) 0.1946(2)
H35 H 0.9269 0.1258 0.1597
H36 H 0.9657 0.0421 0.2028
N14 N 0.5837(3) 0.5338(3) 0.1109(2)
C19 C 0.2102(4) 0.0633(3) 0.0755(2)
H37 H 0.2189 0.0401 0.1141
H38 H 0.1666 0.0212 0.0423
C20 C 1.0148(4) 0.2950(3) 0.3043(2)
H39 H 0.9981 0.3575 0.2970
H40 H 1.0920 0.2874 0.3174
C21 C 0.7515(4) 0.0252(3) 0.1179(2)
H41 H 0.7444 0.0589 0.0828
H42 H 0.7944 -0.0273 0.1226
C22 C 0.8664(4) 0.2679(3) 0.3943(2)
H43 H 0.9118 0.2212 0.4226
H44 H 0.8910 0.3235 0.4167
C23 C 0.5690(4) 0.0331(3) 0.1205(3)
H45 H 0.5808 0.0818 0.1460
C24 C 0.5139(4) 0.4080(3) 0.0568(2)
H46 H 0.5090 0.3543 0.0375
C25 C 0.9053(4) 0.3838(3) 0.1767(2)
H47 H 0.9470 0.4224 0.2125
H48 H 0.9134 0.4056 0.1426
C26 C 0.3733(4) -0.0169(3) 0.0939(3)
H49 H 0.3902 -0.0376 0.1348
H50 H 0.3203 -0.0576 0.0627
C27 C 0.7210(4) 0.4474(3) 0.1025(3)
H51 H 0.7179 0.4224 0.0658
H52 H 0.7579 0.5041 0.1109
H53 H 0.765(6) 0.151(5) 0.429(3)
H54 H 0.447(6) 0.572(4) 0.105(3)
O1 O 0.5907(3) 0.5464(2) 0.26182(18)
H55 H 0.6273(7) 0.5236(5) 0.2472(3)
H56 H 0.5334(10) 0.5253(4) 0.2495(3)
O2 O 0.7264(3) 0.14450(19) 0.26033(14)
H57 H 0.7154(3) 0.1038(7) 0.2751(3)
H58 H 0.6621(11) 0.1664(4) 0.2429(3)
O3 O 0.6742(3) 0.22958(18) 0.12466(15)
H59 H 0.6308(8) 0.2350(2) 0.1342(2)
H60 H 0.6319(8) 0.22908(18) 0.0835(7)
O4 O 0.6288(4) 0.2383(3) 1.0084(2)
H61 H 0.5866(8) 0.2014(7) 0.9873(4)
H62 H 0.6845(10) 0.2058(6) 1.0173(2)
O5 O 0.1647(3) 0.4575(2) 0.23388(16)
H63 H 0.2162(7) 0.4530(2) 0.23083(17)
H64 H 0.1102(7) 0.4733(3) 0.1976(5)
O6 O 0.0286(4) 0.0258(3) 0.9179(2)
H65 H -0.0283(11) 0.0149(4) 0.8819(7)
H66 H 0.0519(6) -0.0228(9) 0.9271(3)
O7 O 0.8859(5) 0.4306(4) 0.9762(3)
H67 H 0.9141(7) 0.4553(6) 1.0061(6)
H68 H 0.9132(7) 0.4516(6) 0.9533(5)
O9 O 0.7250(4) 0.6859(3) 0.13962(19)
H71 H 0.7306(4) 0.6966(3) 0.1101(5)
H72 H 0.6732(10) 0.6472(7) 0.1288(3)
O8? O 0.8506(9) 0.3847(6) 1.0168(4)
H69? H 0.9013(13) 0.4182(9) 1.0349(5)
H70? H 0.8557(9) 0.3348(11) 1.0330(5)
loop_
_geom_bond_atom_site_label_1
_geom_bond_atom_site_label_2
_geom_bond_site_symmetry_1
_geom_bond_site_symmetry_2
N1 H1 1_555 1_555
H2 N1 1_555 1_555
N2 C6 1_555 1_555
N3 H3 1_555 1_555
H4 N3 1_555 1_555
N4 C13 1_555 1_555
N5 H5 1_555 1_555
H6 N5 1_555 1_555
N6 H7 1_555 1_555
H8 N6 1_555 1_555
C1 N9 1_555 1_555
N7 C2 1_555 1_555
C2 C8 1_555 1_555
N8 H9 1_555 1_555
H10 N8 1_555 1_555
N9 N7 1_555 1_555
N10 H11 1_555 1_555
H12 N10 1_555 1_555
C3 N12 1_555 1_555
N11 C10 1_555 1_555
N12 H13 1_555 1_555
C4 N8 1_555 1_555
H14 C4 1_555 1_555
H15 C4 1_555 1_555
C5 N13 1_555 1_555
C6 H16 1_555 1_555
H17 C6 1_555 1_555
C7 N2 1_555 1_555
H18 C7 1_555 1_555
H19 C7 1_555 1_555
C8 N1 1_555 1_555
H20 C8 1_555 1_555
H21 C8 1_555 1_555
C9 N2 1_555 1_555
H22 C9 1_555 1_555
H23 C9 1_555 1_555
C10 C14 1_555 1_555
N13 N12 1_555 1_555
C11 N14 1_555 1_555
C12 N1 1_555 1_555
H24 C12 1_555 1_555
H25 C12 1_555 1_555
C13 H26 1_555 1_555
H27 C13 1_555 1_555
C14 N6 1_555 1_555
H28 C14 1_555 1_555
H29 C14 1_555 1_555
C15 N4 1_555 1_555
H30 C15 1_555 1_555
H31 C15 1_555 1_555
C16 N6 1_555 1_555
H32 C16 1_555 1_555
H33 C16 1_555 1_555
C17 C1 1_555 1_555
H34 C17 1_555 1_555
C18 N10 1_555 1_555
H35 C18 1_555 1_555
H36 C18 1_555 1_555
N14 N11 1_555 1_555
C19 N5 1_555 1_555
H37 C19 1_555 1_555
H38 C19 1_555 1_555
C20 N4 1_555 1_555
H39 C20 1_555 1_555
H40 C20 1_555 1_555
C21 N10 1_555 1_555
H41 C21 1_555 1_555
H42 C21 1_555 1_555
C22 C1 1_555 1_555
H43 C22 1_555 1_555
H44 C22 1_555 1_555
C23 C3 1_555 1_555
H45 C23 1_555 1_555
C24 C10 1_555 1_555
H46 C24 1_555 1_555
C25 N3 1_555 1_555
H47 C25 1_555 1_555
H48 C25 1_555 1_555
C26 N5 1_555 1_555
H49 C26 1_555 1_555
H50 C26 1_555 1_555
C27 N3 1_555 1_555
H51 C27 1_555 1_555
H52 C27 1_555 1_555
H53 N9 1_555 1_555
H54 N11 1_555 1_555
O1 H55 1_555 1_555
H56 O1 1_555 1_555
O2 H57 1_555 1_555
H58 O2 1_555 1_555
O3 H59 1_555 1_555
H60 O3 1_555 1_555
O4 H61 1_555 1_555
H62 O4 1_555 1_555
O5 H63 1_555 1_555
H64 O5 1_555 1_555
O6 H65 1_555 1_555
H66 O6 1_555 1_555
O7 H67 1_555 1_555
H68 O7 1_555 1_555
O9 H71 1_555 1_555
H72 O9 1_555 1_555
C2 C17 1_555 1_555
N8 C22 1_555 1_555
C3 C21 1_555 1_555
C4 C20 1_555 1_555
C5 C23 1_555 1_555
C5 C26 1_555 1_555
C6 C19 1_555 1_555
C7 C12 1_555 1_555
C9 C16 1_555 1_555
C11 C24 1_555 1_555
C11 C27 1_555 1_555
C13 C25 1_555 1_555
C15 C18 1_555 1_555

#END
