
#######################################################################
#
#                 Cambridge Crystallographic Data Centre
#                                CCDC 
#
#######################################################################
#
# If this CIF has been generated from an entry in the Cambridge 
# Structural Database, then it will include bibliographic, chemical, 
# crystal, experimental, refinement or atomic coordinate data resulting 
# from the CCDC's data processing and validation procedures.
#
#######################################################################

data_XUGGIR
_chemical_formula_moiety         'C8 H15 N2 1+,Cl1 O4 1-'
_chemical_name_systematic        
'1-(Cyanomethyl)-1-methylpiperidinium perchlorate'
_symmetry_cell_setting           monoclinic
_symmetry_space_group_name_H-M   'P 21/n'
_symmetry_Int_Tables_number      14
_space_group_name_Hall           '-P 2yn'
loop_
_symmetry_equiv_pos_site_id
_symmetry_equiv_pos_as_xyz
1 x,y,z
2 1/2-x,1/2+y,1/2-z
3 -x,-y,-z
4 1/2+x,1/2-y,1/2+z
_cell_length_a                   7.7088(15)
_cell_length_b                   11.933(2)
_cell_length_c                   12.458(3)
_cell_angle_alpha                90
_cell_angle_beta                 94.94(3)
_cell_angle_gamma                90
_cell_volume                     1141.74
_exptl_crystal_colour            colorless
_exptl_crystal_description       Prism
_cell_formula_units_Z            4
loop_
_atom_site_label
_atom_site_type_symbol
_atom_site_fract_x
_atom_site_fract_y
_atom_site_fract_z
Cl1 Cl 0.13552(11) 0.98107(8) 0.22274(7)
O1 O 0.1514(6) 1.1024(3) 0.2219(4)
O2 O 0.2691(5) 0.9381(4) 0.1632(3)
O3 O 0.1757(6) 0.9501(4) 0.3354(3)
O4 O -0.0330(5) 0.9478(4) 0.1826(4)
N1 N 0.7974(3) 0.2856(2) 0.09828(19)
C1 C 0.6612(4) 0.3570(3) 0.0355(3)
H1 H 0.5980 0.3997 0.0857
H2 H 0.7189 0.4098 -0.0088
C2 C 0.7060(5) 0.1978(3) 0.1627(3)
H3 H 0.7929 0.1493 0.1994
H4 H 0.6443 0.2353 0.2170
C3 C 0.9142(4) 0.2273(3) 0.0251(3)
H5 H 0.9988 0.1823 0.0681
H6 H 0.8449 0.1774 -0.0229
C4 C 1.0052(5) 0.3072(3) -0.0387(3)
C5 C 0.5335(5) 0.2882(3) -0.0357(3)
H7 H 0.5943 0.2518 -0.0911
H8 H 0.4459 0.3373 -0.0709
C6 C 0.5789(5) 0.1272(3) 0.0928(4)
H9 H 0.5203 0.0757 0.1379
H10 H 0.6420 0.0833 0.0435
N2 N 1.0805(5) 0.3679(3) -0.0884(3)
C7 C 0.4443(5) 0.1994(4) 0.0290(4)
H11 H 0.3707 0.2357 0.0779
H12 H 0.3711 0.1524 -0.0197
C8 C 0.9062(6) 0.3575(4) 0.1765(3)
H13 H 0.9650 0.4135 0.1378
H14 H 0.9907 0.3118 0.2172
H15 H 0.8328 0.3933 0.2246
loop_
_geom_bond_atom_site_label_1
_geom_bond_atom_site_label_2
_geom_bond_site_symmetry_1
_geom_bond_site_symmetry_2
Cl1 O1 1_555 1_555
O2 Cl1 1_555 1_555
O3 Cl1 1_555 1_555
O4 Cl1 1_555 1_555
N1 C1 1_555 1_555
C1 H1 1_555 1_555
H2 C1 1_555 1_555
C2 N1 1_555 1_555
H3 C2 1_555 1_555
H4 C2 1_555 1_555
C3 N1 1_555 1_555
H5 C3 1_555 1_555
H6 C3 1_555 1_555
C4 C3 1_555 1_555
C5 C1 1_555 1_555
H7 C5 1_555 1_555
H8 C5 1_555 1_555
C6 C2 1_555 1_555
H9 C6 1_555 1_555
H10 C6 1_555 1_555
N2 C4 1_555 1_555
C7 C5 1_555 1_555
H11 C7 1_555 1_555
H12 C7 1_555 1_555
C8 N1 1_555 1_555
H13 C8 1_555 1_555
H14 C8 1_555 1_555
H15 C8 1_555 1_555
C6 C7 1_555 1_555

#END
