
#######################################################################
#
#                 Cambridge Crystallographic Data Centre
#                                CCDC 
#
#######################################################################
#
# If this CIF has been generated from an entry in the Cambridge 
# Structural Database, then it will include bibliographic, chemical, 
# crystal, experimental, refinement or atomic coordinate data resulting 
# from the CCDC's data processing and validation procedures.
#
#######################################################################

data_XUGGEN
_chemical_formula_moiety         'C7 H13 N2 O1 1+,Cl1 O4 1-'
_chemical_name_systematic        
'4-(Cyanomethyl)-4-methylmorpholin-4-ium perchlorate'
_symmetry_cell_setting           monoclinic
_symmetry_space_group_name_H-M   'P 21/n'
_symmetry_Int_Tables_number      14
_space_group_name_Hall           '-P 2yn'
loop_
_symmetry_equiv_pos_site_id
_symmetry_equiv_pos_as_xyz
1 x,y,z
2 1/2-x,1/2+y,1/2-z
3 -x,-y,-z
4 1/2+x,1/2-y,1/2+z
_cell_length_a                   6.6726(13)
_cell_length_b                   19.552(4)
_cell_length_c                   8.2906(17)
_cell_angle_alpha                90
_cell_angle_beta                 96.50(3)
_cell_angle_gamma                90
_cell_volume                     1074.66
_exptl_crystal_colour            colorless
_exptl_crystal_description       Prism
_cell_formula_units_Z            4
loop_
_atom_site_label
_atom_site_type_symbol
_atom_site_fract_x
_atom_site_fract_y
_atom_site_fract_z
Cl1 Cl 0.41362(10) 0.11723(3) 0.67487(7)
O1 O 0.3714(4) 0.16946(12) 0.5538(3)
O2 O 0.6038(5) 0.08768(18) 0.6576(4)
O3 O 0.2533(5) 0.06958(15) 0.6534(4)
O4 O 0.4177(5) 0.1501(2) 0.8281(3)
N1 N 0.7749(3) 0.13600(10) 0.2324(2)
O5 O 1.1226(3) 0.07539(11) 0.1089(3)
C1 C 0.8502(4) 0.15785(13) 0.0747(3)
H1 H 0.7371 0.1729 -0.0008
H2 H 0.9422 0.1961 0.0951
C2 C 0.6038(4) 0.08599(14) 0.2054(4)
H3 H 0.5610 0.0733 0.3080
H4 H 0.6477 0.0460 0.1522
H5 H 0.4933 0.1067 0.1386
C3 C 0.9569(5) 0.09967(16) 0.0004(4)
H6 H 0.8624 0.0626 -0.0262
H7 H 1.0054 0.1151 -0.0994
C4 C 0.9508(4) 0.10548(16) 0.3403(3)
H8 H 1.0472 0.1412 0.3742
H9 H 0.9026 0.0865 0.4369
C5 C 1.0537(4) 0.05030(16) 0.2536(4)
H10 H 1.1673 0.0327 0.3248
H11 H 0.9601 0.0129 0.2272
C6 C 0.7081(4) 0.19809(14) 0.3202(3)
H12 H 0.6844 0.1852 0.4295
H13 H 0.8147 0.2321 0.3284
C7 C 0.5233(5) 0.22807(16) 0.2363(4)
N2 N 0.3802(6) 0.2517(2) 0.1767(4)
loop_
_geom_bond_atom_site_label_1
_geom_bond_atom_site_label_2
_geom_bond_site_symmetry_1
_geom_bond_site_symmetry_2
Cl1 O1 1_555 1_555
O2 Cl1 1_555 1_555
O3 Cl1 1_555 1_555
O4 Cl1 1_555 1_555
N1 C1 1_555 1_555
O5 C3 1_555 1_555
C1 H1 1_555 1_555
H2 C1 1_555 1_555
C2 N1 1_555 1_555
H3 C2 1_555 1_555
H4 C2 1_555 1_555
H5 C2 1_555 1_555
C3 C1 1_555 1_555
H6 C3 1_555 1_555
H7 C3 1_555 1_555
C4 N1 1_555 1_555
H8 C4 1_555 1_555
H9 C4 1_555 1_555
C5 O5 1_555 1_555
H10 C5 1_555 1_555
H11 C5 1_555 1_555
C6 N1 1_555 1_555
H12 C6 1_555 1_555
H13 C6 1_555 1_555
C7 C6 1_555 1_555
N2 C7 1_555 1_555
C4 C5 1_555 1_555

#END
