
#######################################################################
#
#                 Cambridge Crystallographic Data Centre
#                                CCDC 
#
#######################################################################
#
# If this CIF has been generated from an entry in the Cambridge 
# Structural Database, then it will include bibliographic, chemical, 
# crystal, experimental, refinement or atomic coordinate data resulting 
# from the CCDC's data processing and validation procedures.
#
#######################################################################

data_XUGWOM
_chemical_formula_moiety         'C22 H23 F1 N2 O6'
_chemical_name_systematic        
'Ethyl 2-(6-(1,3-dioxo-4,5,6,7-tetrahydro-1H-isoindol-2(3H)-yl)-7-fluoro-3-oxo-2H-benzo[b][1,4]oxazin-4(3H)-yl)butanoate'
_chemical_properties_biological  'herbicidal activity'
_symmetry_cell_setting           monoclinic
_symmetry_space_group_name_H-M   'P 21/n'
_symmetry_Int_Tables_number      14
_space_group_name_Hall           '-P 2yn'
loop_
_symmetry_equiv_pos_site_id
_symmetry_equiv_pos_as_xyz
1 x,y,z
2 1/2-x,1/2+y,1/2-z
3 -x,-y,-z
4 1/2+x,1/2-y,1/2+z
_cell_length_a                   9.3469(2)
_cell_length_b                   16.7715(5)
_cell_length_c                   13.7153(4)
_cell_angle_alpha                90
_cell_angle_beta                 104.9680(10)
_cell_angle_gamma                90
_cell_volume                     2077.08
_exptl_crystal_colour            'light yellow'
_exptl_crystal_description       block
_chemical_melting_point          164-166deg.C
_cell_formula_units_Z            4
_exptl_crystal_recrystallization_method 'petroleum ether/ethyl acetate'
loop_
_atom_site_label
_atom_site_type_symbol
_atom_site_fract_x
_atom_site_fract_y
_atom_site_fract_z
C1 C 0.3388(3) -0.09187(17) 0.3802(2)
H1 H 0.4397 -0.1110 0.3910
H2 H 0.2730 -0.1305 0.3388
C2 C 0.3015(4) -0.0831(2) 0.4804(3)
H3 H 0.2787 -0.1353 0.5028
H4 H 0.3880 -0.0631 0.5297
C3 C 0.1765(4) -0.0296(3) 0.4779(3)
H5 H 0.1610 -0.0273 0.5451
H6 H 0.0881 -0.0525 0.4335
C4 C 0.1943(3) 0.05573(19) 0.44272(19)
H7 H 0.0987 0.0819 0.4229
H8 H 0.2581 0.0861 0.4970
C5 C 0.2608(2) 0.05116(15) 0.35510(15)
C6 C 0.2642(2) 0.11663(14) 0.28275(15)
C7 C 0.3739(2) 0.00560(12) 0.23649(15)
C8 C 0.3229(2) -0.01350(14) 0.32764(16)
C9 C 0.3660(2) 0.12842(11) 0.13208(14)
C10 C 0.4514(3) 0.19656(13) 0.14626(16)
C11 C 0.4757(3) 0.23934(14) 0.06666(19)
H9 H 0.5326 0.2855 0.0778
C12 C 0.4143(2) 0.21252(12) -0.02988(16)
C13 C 0.3294(2) 0.14305(11) -0.04778(14)
C14 C 0.3054(2) 0.10193(11) 0.03443(14)
H10 H 0.2478 0.0560 0.0238
C15 C 0.4305(3) 0.21414(14) -0.19651(18)
H11 H 0.5243 0.1864 -0.1861
H12 H 0.4229 0.2511 -0.2520
C16 C 0.3085(2) 0.15460(13) -0.22606(16)
C17 C 0.1571(3) 0.05491(14) -0.17247(16)
H13 H 0.1192 0.0554 -0.2461
C18 C 0.2321(3) -0.02785(15) -0.1459(2)
H14 H 0.3386 -0.0202 -0.1264
H15 H 0.2037 -0.0489 -0.0877
C19 C 0.1980(6) -0.0856(2) -0.2236(3)
H16 H 0.0925 -0.0903 -0.2483
H17 H 0.2390 -0.1361 -0.1975
H18 H 0.2395 -0.0695 -0.2777
C20 C 0.0236(2) 0.06761(14) -0.13134(16)
C21 C -0.1227(3) 0.16483(18) -0.0745(3)
H19 H -0.1590 0.1180 -0.0470
H20 H -0.2027 0.1863 -0.1278
C22 C -0.0735(4) 0.2241(3) 0.0042(3)
H21 H -0.0025 0.2005 0.0601
H22 H -0.1569 0.2429 0.0263
H23 H -0.0285 0.2679 -0.0218
F1 F 0.51378(18) 0.22147(9) 0.24152(10)
N1 N 0.26361(19) 0.12025(10) -0.14856(12)
N2 N 0.34097(18) 0.08602(10) 0.21572(12)
O1 O 0.43180(19) -0.03771(9) 0.18771(13)
O2 O 0.2111(2) 0.18239(10) 0.27777(13)
O3 O 0.2574(2) 0.13635(11) -0.31443(12)
O4 O 0.4318(2) 0.25835(9) -0.10851(13)
O5 O -0.0536(2) 0.01363(12) -0.11791(19)
O6 O 0.00025(18) 0.14338(10) -0.11479(14)
loop_
_geom_bond_atom_site_label_1
_geom_bond_atom_site_label_2
_geom_bond_site_symmetry_1
_geom_bond_site_symmetry_2
C1 H1 1_555 1_555
H2 C1 1_555 1_555
C2 C1 1_555 1_555
H3 C2 1_555 1_555
H4 C2 1_555 1_555
C3 C2 1_555 1_555
H5 C3 1_555 1_555
H6 C3 1_555 1_555
C4 C3 1_555 1_555
H7 C4 1_555 1_555
H8 C4 1_555 1_555
C5 C4 1_555 1_555
C6 C5 1_555 1_555
C7 C8 1_555 1_555
C8 C1 1_555 1_555
C9 C10 1_555 1_555
C10 C11 1_555 1_555
C11 H9 1_555 1_555
C12 C11 1_555 1_555
C13 C12 1_555 1_555
C14 C9 1_555 1_555
H10 C14 1_555 1_555
C15 H11 1_555 1_555
H12 C15 1_555 1_555
C16 C15 1_555 1_555
C17 H13 1_555 1_555
C18 C17 1_555 1_555
H14 C18 1_555 1_555
H15 C18 1_555 1_555
C19 C18 1_555 1_555
H16 C19 1_555 1_555
H17 C19 1_555 1_555
H18 C19 1_555 1_555
C20 C17 1_555 1_555
C21 H19 1_555 1_555
H20 C21 1_555 1_555
C22 C21 1_555 1_555
H21 C22 1_555 1_555
H22 C22 1_555 1_555
H23 C22 1_555 1_555
F1 C10 1_555 1_555
N1 C13 1_555 1_555
N2 C6 1_555 1_555
O1 C7 1_555 1_555
O2 C6 1_555 1_555
O3 C16 1_555 1_555
O4 C12 1_555 1_555
O5 C20 1_555 1_555
O6 C20 1_555 1_555
C5 C8 1_555 1_555
C7 N2 1_555 1_555
C9 N2 1_555 1_555
C13 C14 1_555 1_555
C15 O4 1_555 1_555
C16 N1 1_555 1_555
C17 N1 1_555 1_555
C21 O6 1_555 1_555

#END
