
#######################################################################
#
#                 Cambridge Crystallographic Data Centre
#                                CCDC 
#
#######################################################################
#
# If this CIF has been generated from an entry in the Cambridge 
# Structural Database, then it will include bibliographic, chemical, 
# crystal, experimental, refinement or atomic coordinate data resulting 
# from the CCDC's data processing and validation procedures.
#
#######################################################################

data_XUGXOO
_chemical_formula_moiety         'C46 H46 N2 O2'
_chemical_name_systematic        
2,10-bis((2-Ethylhexyl)oxy)benzo[i]pyrido[2',3',4',5':1,12]tetrapheno[4,5,6,7-klmna]phenanthridine
_symmetry_cell_setting           monoclinic
_symmetry_space_group_name_H-M   'P 21/c'
_symmetry_Int_Tables_number      14
_space_group_name_Hall           '-P 2ybc'
loop_
_symmetry_equiv_pos_site_id
_symmetry_equiv_pos_as_xyz
1 x,y,z
2 -x,1/2+y,1/2-z
3 -x,-y,-z
4 x,1/2-y,1/2+z
_cell_length_a                   15.3148(9)
_cell_length_b                   5.2027(3)
_cell_length_c                   21.5181(12)
_cell_angle_alpha                90
_cell_angle_beta                 93.605(4)
_cell_angle_gamma                90
_cell_volume                     1711.13
_exptl_crystal_colour            yellow
_exptl_crystal_description       lath
_cell_formula_units_Z            2
loop_
_atom_site_label
_atom_site_type_symbol
_atom_site_fract_x
_atom_site_fract_y
_atom_site_fract_z
N1 N 0.28224(14) 0.5610(4) 0.56474(9)
C1 C 0.32604(17) 0.7425(5) 0.59462(11)
C2 C 0.41593(16) 0.8094(5) 0.58753(10)
C3 C 0.45800(16) 0.6579(4) 0.54459(10)
C4 C 0.41154(16) 0.4594(4) 0.51063(10)
C5 C 0.32370(16) 0.4201(5) 0.52223(11)
C6 C 0.27616(17) 0.2242(5) 0.48966(12)
H1 H 0.2166 0.1956 0.4977
C7 C 0.31433(16) 0.0765(5) 0.44706(11)
H2 H 0.2807 -0.0523 0.4253
C8 C 0.40336(16) 0.1098(5) 0.43417(10)
C9 C 0.45149(16) 0.3021(4) 0.46660(10)
C10 C 0.44598(16) -0.0494(5) 0.38970(10)
C11 C 0.39902(18) -0.2467(5) 0.35719(11)
H3 H 0.3388 -0.2704 0.3639
C12 C 0.43810(17) -0.4046(5) 0.31631(11)
H4 H 0.4052 -0.5354 0.2948
C13 C 0.52601(18) -0.3724(5) 0.30657(11)
H5 H 0.5535 -0.4831 0.2786
C14 C 0.57351(17) -0.1829(5) 0.33674(11)
H6 H 0.6336 -0.1642 0.3291
C15 C 0.53582(16) -0.0138(5) 0.37900(10)
O1 O 0.28259(12) 0.8771(4) 0.63659(8)
C16 C 0.19180(19) 0.8237(7) 0.63987(17)
H7 H 0.1831 0.6488 0.6565
H8 H 0.1611 0.8363 0.5981
C17 C 0.1573(4) 1.0268(10) 0.6838(2)
H9 H 0.1787 1.1991 0.6709
C18 C 0.0577(3) 1.0278(10) 0.6768(2)
H10 H 0.0338 1.1054 0.7142
H11 H 0.0356 0.8494 0.6727
C19 C 0.0264(4) 1.1912(13) 0.6160(3)
H12 H 0.0407 1.3746 0.6234
H13 H 0.0592 1.1323 0.5804
C20 C -0.0675(3) 1.1672(12) 0.5995(3)
H14 H -0.0825 0.9842 0.5922
H15 H -0.1009 1.2295 0.6345
C21 C -0.0917(3) 1.3153(10) 0.5440(2)
H16 H -0.1547 1.2973 0.5336
H17 H -0.0776 1.4968 0.5515
H18 H -0.0593 1.2519 0.5093
C22 C 0.1967(2) 0.9696(7) 0.75102(14)
H19 H 0.1681 0.8137 0.7666
H20 H 0.2597 0.9303 0.7488
C23 C 0.1877(3) 1.1795(9) 0.79689(18)
H21 H 0.2289 1.1513 0.8329
H22 H 0.2003 1.3448 0.7775
H23 H 0.1278 1.1812 0.8105
N1B N 0.71776(14) 0.4390(4) 0.43526(9)
C1B C 0.67396(17) 0.2575(5) 0.40538(11)
C2B C 0.58407(16) 0.1906(5) 0.41247(10)
C3B C 0.54200(16) 0.3421(4) 0.45541(10)
C4B C 0.58846(16) 0.5406(4) 0.48937(10)
C5B C 0.67630(16) 0.5799(5) 0.47777(11)
C6B C 0.72384(17) 0.7758(5) 0.51034(12)
H1B H 0.7834 0.8044 0.5023
C7B C 0.68567(16) 0.9235(5) 0.55294(11)
H2B H 0.7193 1.0523 0.5747
C8B C 0.59664(16) 0.8902(5) 0.56583(10)
C9B C 0.54851(16) 0.6979(4) 0.53340(10)
C10B C 0.55402(16) 1.0494(5) 0.61030(10)
C11B C 0.60098(18) 1.2467(5) 0.64281(11)
H3B H 0.6612 1.2704 0.6361
C12B C 0.56190(17) 1.4046(5) 0.68369(11)
H4B H 0.5948 1.5354 0.7052
C13B C 0.47399(18) 1.3724(5) 0.69343(11)
H5B H 0.4465 1.4831 0.7214
C14B C 0.42649(17) 1.1829(5) 0.66326(11)
H6B H 0.3664 1.1642 0.6709
C15B C 0.46418(16) 1.0138(5) 0.62100(10)
O1B O 0.71741(12) 0.1229(4) 0.36341(8)
C16B C 0.80820(19) 0.1763(7) 0.36013(17)
H7B H 0.8169 0.3512 0.3435
H8B H 0.8389 0.1637 0.4019
C17B C 0.8427(4) -0.0268(10) 0.3162(2)
H9B H 0.8213 -0.1991 0.3291
C18B C 0.9423(3) -0.0278(10) 0.3232(2)
H10B H 0.9662 -0.1054 0.2858
H11B H 0.9644 0.1506 0.3273
C19B C 0.9736(4) -0.1912(13) 0.3840(3)
H12B H 0.9593 -0.3746 0.3766
H13B H 0.9408 -0.1323 0.4196
C20B C 1.0675(3) -0.1672(12) 0.4005(3)
H14B H 1.0825 0.0158 0.4078
H15B H 1.1009 -0.2295 0.3655
C21B C 1.0917(3) -0.3153(10) 0.4560(2)
H16B H 1.1547 -0.2973 0.4664
H17B H 1.0776 -0.4968 0.4485
H18B H 1.0593 -0.2519 0.4907
C22B C 0.8033(2) 0.0304(7) 0.24898(14)
H19B H 0.8319 0.1863 0.2334
H20B H 0.7403 0.0697 0.2512
C23B C 0.8123(3) -0.1795(9) 0.20311(18)
H21B H 0.7711 -0.1513 0.1671
H22B H 0.7997 -0.3448 0.2225
H23B H 0.8722 -0.1812 0.1895
H24? H 0.1831 0.6352 0.6404
H25? H 0.1596 0.8921 0.6021
H26? H -0.0986 1.4835 0.5238
H27? H -0.0869 1.1819 0.5122
H28? H -0.1427 1.2804 0.5680
C24? C 0.1533(12) 0.942(3) 0.6978(7)
H29? H 0.1064 0.8168 0.7075
C25? C 0.1044(11) 1.150(3) 0.6652(7)
H30? H 0.1443 1.2350 0.6372
H31? H 0.0891 1.2782 0.6966
C26? C 0.0173(13) 1.078(3) 0.6250(10)
H32? H 0.0275 0.9325 0.5967
H33? H -0.0298 1.0297 0.6523
C27? C -0.0063(9) 1.316(3) 0.5891(8)
H34? H 0.0436 1.3588 0.5639
H35? H -0.0119 1.4569 0.6194
H36? H 0.2591 0.9701 0.7416
H37? H 0.1874 0.8084 0.7741
loop_
_geom_bond_atom_site_label_1
_geom_bond_atom_site_label_2
_geom_bond_site_symmetry_1
_geom_bond_site_symmetry_2
N1 C1 1_555 1_555
C1 C2 1_555 1_555
C2 C3 1_555 1_555
C3 C4 1_555 1_555
C4 C5 1_555 1_555
C5 N1 1_555 1_555
C6 C5 1_555 1_555
H1 C6 1_555 1_555
C7 C6 1_555 1_555
H2 C7 1_555 1_555
C8 C7 1_555 1_555
C9 C4 1_555 1_555
C10 C8 1_555 1_555
C11 C10 1_555 1_555
H3 C11 1_555 1_555
C12 C11 1_555 1_555
H4 C12 1_555 1_555
C13 C12 1_555 1_555
H5 C13 1_555 1_555
C14 C13 1_555 1_555
H6 C14 1_555 1_555
C15 C10 1_555 1_555
O1 C1 1_555 1_555
C16 O1 1_555 1_555
H7 C16 1_555 1_555
H8 C16 1_555 1_555
C17 C16 1_555 1_555
H9 C17 1_555 1_555
C18 C17 1_555 1_555
H10 C18 1_555 1_555
H11 C18 1_555 1_555
C19 C18 1_555 1_555
H12 C19 1_555 1_555
H13 C19 1_555 1_555
C20 C19 1_555 1_555
H14 C20 1_555 1_555
H15 C20 1_555 1_555
C21 C20 1_555 1_555
H16 C21 1_555 1_555
H17 C21 1_555 1_555
H18 C21 1_555 1_555
C22 C17 1_555 1_555
H19 C22 1_555 1_555
H20 C22 1_555 1_555
C23 C22 1_555 1_555
H21 C23 1_555 1_555
H22 C23 1_555 1_555
H23 C23 1_555 1_555
N1B C1B 1_555 1_555
C1B C2B 1_555 1_555
C2B C15 1_555 1_555
C3B C9 1_555 1_555
C4B C3B 1_555 1_555
C5B N1B 1_555 1_555
C6B C5B 1_555 1_555
H1B C6B 1_555 1_555
C7B C6B 1_555 1_555
H2B C7B 1_555 1_555
C8B C7B 1_555 1_555
C9B C3 1_555 1_555
C10B C8B 1_555 1_555
C11B C10B 1_555 1_555
H3B C11B 1_555 1_555
C12B C11B 1_555 1_555
H4B C12B 1_555 1_555
C13B C12B 1_555 1_555
H5B C13B 1_555 1_555
C14B C13B 1_555 1_555
H6B C14B 1_555 1_555
C15B C2 1_555 1_555
O1B C1B 1_555 1_555
C16B O1B 1_555 1_555
H7B C16B 1_555 1_555
H8B C16B 1_555 1_555
C17B C16B 1_555 1_555
H9B C17B 1_555 1_555
C18B C17B 1_555 1_555
H10B C18B 1_555 1_555
H11B C18B 1_555 1_555
C19B C18B 1_555 1_555
H12B C19B 1_555 1_555
H13B C19B 1_555 1_555
C20B C19B 1_555 1_555
H14B C20B 1_555 1_555
H15B C20B 1_555 1_555
C21B C20B 1_555 1_555
H16B C21B 1_555 1_555
H17B C21B 1_555 1_555
H18B C21B 1_555 1_555
C22B C17B 1_555 1_555
H19B C22B 1_555 1_555
H20B C22B 1_555 1_555
C23B C22B 1_555 1_555
H21B C23B 1_555 1_555
H22B C23B 1_555 1_555
H23B C23B 1_555 1_555
C8 C9 1_555 1_555
C14 C15 1_555 1_555
C2B C3B 1_555 1_555
C4B C5B 1_555 1_555
C4B C9B 1_555 1_555
C8B C9B 1_555 1_555
C10B C15B 1_555 1_555
C14B C15B 1_555 1_555

#END
