
#######################################################################
#
#                 Cambridge Crystallographic Data Centre
#                                CCDC 
#
#######################################################################
#
# If this CIF has been generated from an entry in the Cambridge 
# Structural Database, then it will include bibliographic, chemical, 
# crystal, experimental, refinement or atomic coordinate data resulting 
# from the CCDC's data processing and validation procedures.
#
#######################################################################

data_XUGXEE
_chemical_formula_moiety         'C46 H46 N2 S2'
_chemical_name_systematic        
2,10-bis((2-Ethylhexyl)sulfanyl)benzo[i]pyrido[2',3',4',5':1,12]tetrapheno[4,5,6,7-klmna]phenanthridine
_symmetry_cell_setting           monoclinic
_symmetry_space_group_name_H-M   'P 21/c'
_symmetry_Int_Tables_number      14
_space_group_name_Hall           '-P 2ybc'
loop_
_symmetry_equiv_pos_site_id
_symmetry_equiv_pos_as_xyz
1 x,y,z
2 -x,1/2+y,1/2-z
3 -x,-y,-z
4 x,1/2-y,1/2+z
_cell_length_a                   23.6399(19)
_cell_length_b                   5.2070(3)
_cell_length_c                   15.0420(10)
_cell_angle_alpha                90
_cell_angle_beta                 107.545(5)
_cell_angle_gamma                90
_cell_volume                     1765.43
_exptl_crystal_colour            yellow
_exptl_crystal_description       plate
_cell_formula_units_Z            2
loop_
_atom_site_label
_atom_site_type_symbol
_atom_site_fract_x
_atom_site_fract_y
_atom_site_fract_z
S1 S 0.73630(7) 0.1925(2) 0.64656(9)
N1 N 0.6400(2) 0.3561(6) 0.5267(3)
C1 C 0.6591(2) 0.1879(8) 0.5939(3)
C2 C 0.6195(3) 0.0057(7) 0.6196(3)
C3 C 0.5610(2) -0.0002(7) 0.5614(3)
C4 C 0.5415(2) 0.1774(7) 0.4868(3)
C5 C 0.4823(2) 0.1818(7) 0.4264(3)
C6 C 0.4642(2) 0.3671(7) 0.3554(3)
C7 C 0.5072(3) 0.5492(8) 0.3462(3)
H1 H 0.4958 0.6768 0.2990
C8 C 0.5635(3) 0.5449(8) 0.4025(3)
H2 H 0.5909 0.6690 0.3943
C9 C 0.5826(3) 0.3582(7) 0.4742(3)
C10 C 0.4048(3) 0.3634(7) 0.2934(3)
C11 C 0.3857(3) 0.5424(8) 0.2196(3)
H3 H 0.4120 0.6762 0.2149
C12 C 0.3313(3) 0.5308(9) 0.1553(4)
H4 H 0.3200 0.6576 0.1078
C13 C 0.2919(3) 0.3342(9) 0.1584(3)
H5 H 0.2546 0.3205 0.1119
C14 C 0.3085(3) 0.1600(9) 0.2307(3)
H6 H 0.2817 0.0261 0.2330
C15 C 0.3631(2) 0.1713(8) 0.3012(3)
C16 C 0.7586(3) 0.4529(11) 0.5847(3)
H7 H 0.7431 0.4226 0.5166
H8 H 0.7419 0.6168 0.5988
C17 C 0.8257(3) 0.4693(15) 0.6141(4)
H9 H 0.8368 0.2835 0.6207
C18 C 0.8508(3) 0.5607(13) 0.7120(4)
H10 H 0.8334 0.7320 0.7152
H11 H 0.8353 0.4448 0.7514
C19 C 0.9124(4) 0.584(2) 0.7561(5)
H12 H 0.9296 0.4152 0.7477
H13 H 0.9268 0.7076 0.7180
C20 C 0.9400(4) 0.653(2) 0.8491(5)
H14 H 0.9494 0.4877 0.8826
H15 H 0.9078 0.7303 0.8698
C21 C 0.9909(11) 0.813(6) 0.891(2)
H16 H 0.9978 0.8197 0.9587
H17 H 1.0258 0.7403 0.8782
H18 H 0.9836 0.9865 0.8652
C22 C 0.8519(5) 0.553(2) 0.5373(6)
H19 H 0.8956 0.5677 0.5639
H20 H 0.8363 0.7251 0.5144
C23 C 0.8375(3) 0.3646(16) 0.4544(5)
H21 H 0.8553 0.4269 0.4074
H22 H 0.8536 0.1948 0.4763
H23 H 0.7944 0.3522 0.4268
S1B S 0.26370(7) -0.1925(2) 0.35344(9)
N1B N 0.3600(2) -0.3561(6) 0.4733(3)
C1B C 0.3409(2) -0.1879(8) 0.4061(3)
C2B C 0.3805(3) -0.0057(7) 0.3804(3)
C3B C 0.4390(2) 0.0002(7) 0.4386(3)
C4B C 0.4585(2) -0.1774(7) 0.5132(3)
C5B C 0.5177(2) -0.1818(7) 0.5736(3)
C6B C 0.5358(2) -0.3671(7) 0.6446(3)
C7B C 0.4928(3) -0.5492(8) 0.6538(3)
H1B H 0.5042 -0.6768 0.7010
C8B C 0.4365(3) -0.5449(8) 0.5975(3)
H2B H 0.4091 -0.6690 0.6057
C9B C 0.4174(3) -0.3582(7) 0.5258(3)
C10B C 0.5952(3) -0.3634(7) 0.7066(3)
C11B C 0.6143(3) -0.5424(8) 0.7804(3)
H3B H 0.5880 -0.6762 0.7851
C12B C 0.6687(3) -0.5308(9) 0.8447(4)
H4B H 0.6800 -0.6576 0.8922
C13B C 0.7081(3) -0.3342(9) 0.8416(3)
H5B H 0.7454 -0.3205 0.8881
C14B C 0.6915(3) -0.1600(9) 0.7693(3)
H6B H 0.7183 -0.0261 0.7670
C15B C 0.6369(2) -0.1713(8) 0.6988(3)
C16B C 0.2414(3) -0.4529(11) 0.4153(3)
H7B H 0.2569 -0.4226 0.4834
H8B H 0.2581 -0.6168 0.4012
C17B C 0.1743(3) -0.4693(15) 0.3859(4)
H9B H 0.1632 -0.2835 0.3793
C18B C 0.1492(3) -0.5607(13) 0.2880(4)
H10B H 0.1666 -0.7320 0.2848
H11B H 0.1647 -0.4448 0.2486
C19B C 0.0876(4) -0.584(2) 0.2439(5)
H12B H 0.0704 -0.4152 0.2523
H13B H 0.0732 -0.7076 0.2820
C20B C 0.0600(4) -0.653(2) 0.1509(5)
H14B H 0.0506 -0.4877 0.1174
H15B H 0.0922 -0.7303 0.1302
C21B C 0.0091(11) -0.813(6) 0.109(2)
H16B H 0.0022 -0.8197 0.0413
H17B H -0.0258 -0.7403 0.1218
H18B H 0.0164 -0.9865 0.1348
C22B C 0.1481(5) -0.553(2) 0.4627(6)
H19B H 0.1044 -0.5677 0.4361
H20B H 0.1637 -0.7251 0.4856
C23B C 0.1625(3) -0.3646(16) 0.5456(5)
H21B H 0.1447 -0.4269 0.5926
H22B H 0.1464 -0.1948 0.5237
H23B H 0.2056 -0.3522 0.5732
H24? H 0.8295 0.6328 0.5815
H25? H 0.9173 0.5729 0.8874
H26? H 0.9356 0.8415 0.8537
C24? C 1.0024(6) 0.591(4) 0.8922(13)
H27? H 1.0150 0.6525 0.9568
H28? H 1.0079 0.4050 0.8913
H29? H 1.0263 0.6752 0.8574
C25? C 0.8483(7) 0.321(3) 0.5694(11)
H30? H 0.8343 0.1459 0.5773
H31? H 0.8917 0.3232 0.6002
H32? H 0.8585 0.2305 0.4313
H33? H 0.7950 0.3549 0.4210
H34? H 0.8527 0.5334 0.4441
loop_
_geom_bond_atom_site_label_1
_geom_bond_atom_site_label_2
_geom_bond_site_symmetry_1
_geom_bond_site_symmetry_2
S1 C1 1_555 1_555
N1 C1 1_555 1_555
C1 C2 1_555 1_555
C2 C3 1_555 1_555
C3 C4 1_555 1_555
C4 C5 1_555 1_555
C5 C6 1_555 1_555
C6 C7 1_555 1_555
C7 H1 1_555 1_555
C8 C7 1_555 1_555
H2 C8 1_555 1_555
C9 N1 1_555 1_555
C10 C6 1_555 1_555
C11 C10 1_555 1_555
H3 C11 1_555 1_555
C12 C11 1_555 1_555
H4 C12 1_555 1_555
C13 C12 1_555 1_555
H5 C13 1_555 1_555
C14 C13 1_555 1_555
H6 C14 1_555 1_555
C15 C10 1_555 1_555
C16 S1 1_555 1_555
H7 C16 1_555 1_555
H8 C16 1_555 1_555
C17 C16 1_555 1_555
H9 C17 1_555 1_555
C18 C17 1_555 1_555
H10 C18 1_555 1_555
H11 C18 1_555 1_555
C19 C18 1_555 1_555
H12 C19 1_555 1_555
H13 C19 1_555 1_555
C20 C19 1_555 1_555
H14 C20 1_555 1_555
H15 C20 1_555 1_555
C21 C20 1_555 1_555
H16 C21 1_555 1_555
H17 C21 1_555 1_555
H18 C21 1_555 1_555
C22 C17 1_555 1_555
H19 C22 1_555 1_555
H20 C22 1_555 1_555
C23 C22 1_555 1_555
H21 C23 1_555 1_555
H22 C23 1_555 1_555
H23 C23 1_555 1_555
S1B C1B 1_555 1_555
N1B C1B 1_555 1_555
C1B C2B 1_555 1_555
C2B C15 1_555 1_555
C3B C5 1_555 1_555
C4B C3B 1_555 1_555
C5B C3 1_555 1_555
C6B C5B 1_555 1_555
C7B C6B 1_555 1_555
H1B C7B 1_555 1_555
C8B C7B 1_555 1_555
H2B C8B 1_555 1_555
C9B N1B 1_555 1_555
C10B C6B 1_555 1_555
C11B C10B 1_555 1_555
H3B C11B 1_555 1_555
C12B C11B 1_555 1_555
H4B C12B 1_555 1_555
C13B C12B 1_555 1_555
H5B C13B 1_555 1_555
C14B C13B 1_555 1_555
H6B C14B 1_555 1_555
C15B C2 1_555 1_555
C16B S1B 1_555 1_555
H7B C16B 1_555 1_555
H8B C16B 1_555 1_555
C17B C16B 1_555 1_555
H9B C17B 1_555 1_555
C18B C17B 1_555 1_555
H10B C18B 1_555 1_555
H11B C18B 1_555 1_555
C19B C18B 1_555 1_555
H12B C19B 1_555 1_555
H13B C19B 1_555 1_555
C20B C19B 1_555 1_555
H14B C20B 1_555 1_555
H15B C20B 1_555 1_555
C21B C20B 1_555 1_555
H16B C21B 1_555 1_555
H17B C21B 1_555 1_555
H18B C21B 1_555 1_555
C22B C17B 1_555 1_555
H19B C22B 1_555 1_555
H20B C22B 1_555 1_555
C23B C22B 1_555 1_555
H21B C23B 1_555 1_555
H22B C23B 1_555 1_555
H23B C23B 1_555 1_555
C4 C9 1_555 1_555
C8 C9 1_555 1_555
C14 C15 1_555 1_555
C2B C3B 1_555 1_555
C4B C5B 1_555 1_555
C4B C9B 1_555 1_555
C8B C9B 1_555 1_555
C10B C15B 1_555 1_555
C14B C15B 1_555 1_555

#END
