
#######################################################################
#
#                 Cambridge Crystallographic Data Centre
#                                CCDC 
#
#######################################################################
#
# If this CIF has been generated from an entry in the Cambridge 
# Structural Database, then it will include bibliographic, chemical, 
# crystal, experimental, refinement or atomic coordinate data resulting 
# from the CCDC's data processing and validation procedures.
#
#######################################################################

data_XUGZUV
_chemical_name_common            'Aspochalasin M methanol solvate'
_chemical_formula_moiety         'C24 H35 N1 O4,C1 H4 O1'
_chemical_name_systematic        
'12-Hydroxy-3-isobutyl-4,5,8-trimethyl-3,3a,4,6a,9,10,13,14-octahydro-1H-cycloundeca[d]isoindole-1,11,15(2H,12H)-trione methanol solvate'
_chemical_properties_biological  'tested for anti-cancer activity'
_symmetry_cell_setting           monoclinic
_symmetry_space_group_name_H-M   'C 2'
_symmetry_Int_Tables_number      5
_space_group_name_Hall           'C 2y'
loop_
_symmetry_equiv_pos_site_id
_symmetry_equiv_pos_as_xyz
1 x,y,z
2 -x,y,-z
3 1/2+x,1/2+y,z
4 1/2-x,1/2+y,-z
_cell_length_a                   25.194(2)
_cell_length_b                   8.0414(9)
_cell_length_c                   14.4200(15)
_cell_angle_alpha                90
_cell_angle_beta                 120.023(2)
_cell_angle_gamma                90
_cell_volume                     2529.44
_cell_formula_units_Z            4
loop_
_atom_site_label
_atom_site_type_symbol
_atom_site_fract_x
_atom_site_fract_y
_atom_site_fract_z
N1 N 0.91767(15) 0.6953(5) 0.4115(3)
H1 H 0.9443 0.7439 0.4003
O1 O 0.97021(11) 0.7251(4) 0.5922(2)
O2 O 0.77640(12) 0.7279(4) 0.4933(2)
O3 O 0.84770(15) 1.0555(5) 0.8300(3)
H2 H 0.8709 1.0910 0.8904
O4 O 0.98001(14) 0.8820(5) 0.8605(2)
C1 C 0.92414(18) 0.6848(6) 0.5089(3)
C2 C 0.86486(17) 0.6160(5) 0.4986(3)
C3 C 0.87889(18) 0.4659(6) 0.5779(3)
H3 H 0.8391 0.4217 0.5626
C4 C 0.9085(2) 0.3332(6) 0.5470(4)
H4 H 0.9456 0.2870 0.5980
C5 C 0.8817(2) 0.2822(6) 0.4470(4)
C6 C 0.8210(2) 0.3624(7) 0.3726(3)
H5 H 0.7938 0.3335 0.4005
C7 C 0.82773(19) 0.5545(6) 0.3813(3)
H6 H 0.7868 0.6050 0.3471
C8 C 0.86267(18) 0.6194(6) 0.3256(3)
H7 H 0.8748 0.5237 0.2983
C9 C 0.83075(17) 0.7457(6) 0.5279(3)
C10 C 0.86545(18) 0.8828(6) 0.6045(3)
H8 H 0.8669 0.9781 0.5645
H9 H 0.9072 0.8466 0.6519
C11 C 0.83694(18) 0.9358(7) 0.6718(3)
H10 H 0.8057 1.0187 0.6322
H11 H 0.8169 0.8402 0.6818
C12 C 0.8822(2) 1.0069(7) 0.7813(4)
H12 H 0.9031 1.1037 0.7731
C13 C 0.9284(2) 0.8752(7) 0.8469(3)
C14 C 0.9098(2) 0.7369(7) 0.8942(3)
H13 H 0.8657 0.7403 0.8642
H14 H 0.9288 0.7539 0.9709
C15 C 0.9279(2) 0.5660(7) 0.8733(4)
H15 H 0.9705 0.5689 0.8913
H16 H 0.9242 0.4853 0.9197
C16 C 0.8891(2) 0.5108(6) 0.7590(3)
C17 C 0.91241(19) 0.5126(6) 0.6942(3)
H17 H 0.9531 0.5457 0.7235
C18 C 0.9085(3) 0.1503(8) 0.4080(5)
H18 H 0.9461 0.1096 0.4672
H19 H 0.9167 0.1972 0.3551
H20 H 0.8800 0.0601 0.3769
C19 C 0.7882(2) 0.3043(7) 0.2563(4)
H21 H 0.8136 0.3254 0.2256
H22 H 0.7502 0.3637 0.2166
H23 H 0.7799 0.1873 0.2535
C20 C 0.8249(2) 0.7360(7) 0.2330(3)
H24 H 0.7880 0.6775 0.1822
H25 H 0.8123 0.8289 0.2603
C21 C 0.8544(3) 0.8052(8) 0.1728(5)
H26 H 0.8887 0.8760 0.2220
C22 C 0.8793(4) 0.6714(11) 0.1328(6)
H27 H 0.8463 0.6019 0.0830
H28 H 0.9084 0.6054 0.1920
H29 H 0.8992 0.7211 0.0976
C23 C 0.8083(4) 0.9140(13) 0.0799(5)
H30 H 0.8279 0.9623 0.0438
H31 H 0.7938 1.0007 0.1073
H32 H 0.7743 0.8469 0.0304
C24 C 0.8252(2) 0.4589(7) 0.7268(4)
H33 H 0.8043 0.4244 0.6531
H34 H 0.8037 0.5508 0.7354
H35 H 0.8264 0.3681 0.7710
O5 O 0.4341(2) 0.6381(8) 0.0403(4)
H36 H 0.4618 0.5708 0.0727
C25 C 0.4324(4) 0.7453(14) 0.1102(7)
H37 H 0.4365 0.6853 0.1709
H38 H 0.3941 0.8039 0.0762
H39 H 0.4655 0.8233 0.1333
loop_
_geom_bond_atom_site_label_1
_geom_bond_atom_site_label_2
_geom_bond_site_symmetry_1
_geom_bond_site_symmetry_2
N1 H1 1_555 1_555
O1 C1 1_555 1_555
O2 C9 1_555 1_555
O3 H2 1_555 1_555
O4 C13 1_555 1_555
C1 N1 1_555 1_555
C2 C1 1_555 1_555
C3 C2 1_555 1_555
H3 C3 1_555 1_555
C4 C3 1_555 1_555
H4 C4 1_555 1_555
C5 C4 1_555 1_555
C6 C5 1_555 1_555
H5 C6 1_555 1_555
C7 C2 1_555 1_555
H6 C7 1_555 1_555
C8 N1 1_555 1_555
H7 C8 1_555 1_555
C9 C2 1_555 1_555
C10 C9 1_555 1_555
H8 C10 1_555 1_555
H9 C10 1_555 1_555
C11 C10 1_555 1_555
H10 C11 1_555 1_555
H11 C11 1_555 1_555
C12 O3 1_555 1_555
H12 C12 1_555 1_555
C13 C12 1_555 1_555
C14 C13 1_555 1_555
H13 C14 1_555 1_555
H14 C14 1_555 1_555
C15 C14 1_555 1_555
H15 C15 1_555 1_555
H16 C15 1_555 1_555
C16 C15 1_555 1_555
C17 C3 1_555 1_555
H17 C17 1_555 1_555
C18 C5 1_555 1_555
H18 C18 1_555 1_555
H19 C18 1_555 1_555
H20 C18 1_555 1_555
C19 C6 1_555 1_555
H21 C19 1_555 1_555
H22 C19 1_555 1_555
H23 C19 1_555 1_555
C20 C8 1_555 1_555
H24 C20 1_555 1_555
H25 C20 1_555 1_555
C21 C20 1_555 1_555
H26 C21 1_555 1_555
C22 C21 1_555 1_555
H27 C22 1_555 1_555
H28 C22 1_555 1_555
H29 C22 1_555 1_555
C23 C21 1_555 1_555
H30 C23 1_555 1_555
H31 C23 1_555 1_555
H32 C23 1_555 1_555
C24 C16 1_555 1_555
H33 C24 1_555 1_555
H34 C24 1_555 1_555
H35 C24 1_555 1_555
O5 H36 1_555 1_555
C25 O5 1_555 1_555
H37 C25 1_555 1_555
H38 C25 1_555 1_555
H39 C25 1_555 1_555
C6 C7 1_555 1_555
C7 C8 1_555 1_555
C11 C12 1_555 1_555
C16 C17 1_555 1_555

#END
