
#######################################################################
#
#                 Cambridge Crystallographic Data Centre
#                                CCDC 
#
#######################################################################
#
# If this CIF has been generated from an entry in the Cambridge 
# Structural Database, then it will include bibliographic, chemical, 
# crystal, experimental, refinement or atomic coordinate data resulting 
# from the CCDC's data processing and validation procedures.
#
#######################################################################

data_XUHZUX
_chemical_formula_moiety         'C7 H13 N3 O2,C1 H4 O1'
_chemical_name_systematic        
'(1,3-diazepan-2-ylideneammonio)acetate methanol solvate'
_symmetry_cell_setting           monoclinic
_symmetry_space_group_name_H-M   'P 21/c'
_symmetry_Int_Tables_number      14
_space_group_name_Hall           '-P 2ybc'
loop_
_symmetry_equiv_pos_site_id
_symmetry_equiv_pos_as_xyz
1 x,y,z
2 -x,1/2+y,1/2-z
3 -x,-y,-z
4 x,1/2-y,1/2+z
_cell_length_a                   11.751(5)
_cell_length_b                   5.298(2)
_cell_length_c                   17.603(8)
_cell_angle_alpha                90
_cell_angle_beta                 102.439(4)
_cell_angle_gamma                90
_cell_volume                     1070.18
_cell_formula_units_Z            4
_exptl_crystal_recrystallization_method methanol/water
loop_
_atom_site_label
_atom_site_type_symbol
_atom_site_fract_x
_atom_site_fract_y
_atom_site_fract_z
C1 C 0.3539(2) 0.5881(5) 0.57485(15)
C2 C 0.2550(3) 0.2678(6) 0.48176(18)
H1 H 0.3154 0.1480 0.5041
H2 H 0.2413 0.2513 0.4256
C3 C 0.1451(3) 0.1968(8) 0.5072(2)
H3 H 0.1168 0.0377 0.4830
H4 H 0.0863 0.3240 0.4888
C4 C 0.1612(3) 0.1714(7) 0.5950(2)
H5 H 0.0882 0.1183 0.6071
H6 H 0.2187 0.0414 0.6134
C5 C 0.2001(3) 0.4154(7) 0.63734(19)
H7 H 0.1474 0.5485 0.6140
H8 H 0.1928 0.3976 0.6909
C6 C 0.4995(3) 0.8604(6) 0.65670(15)
H9 H 0.5505 0.7350 0.6866
H10 H 0.4419 0.9074 0.6862
C7 C 0.5705(2) 1.0906(6) 0.64598(14)
N1 N 0.4407(2) 0.7503(5) 0.58357(13)
H11 H 0.4644 0.7942 0.5425
N2 N 0.2985(2) 0.5229(5) 0.50304(13)
H12 H 0.2878 0.6368 0.4674
N3 N 0.3189(2) 0.4946(5) 0.63728(13)
H13 H 0.3702 0.4808 0.6800
O1 O 0.62614(19) 1.1875(4) 0.70792(11)
O2 O 0.5673(2) 1.1678(4) 0.57924(11)
C8 C 0.7992(4) 0.5122(8) 0.7030(2)
H14 H 0.8211 0.5880 0.7536
H15 H 0.7299 0.4132 0.7001
H16 H 0.7845 0.6420 0.6641
O3 O 0.8846(6) 0.3650(18) 0.6910(4)
H17 H 0.9180 0.3018 0.7323
loop_
_geom_bond_atom_site_label_1
_geom_bond_atom_site_label_2
_geom_bond_site_symmetry_1
_geom_bond_site_symmetry_2
C1 N1 1_555 1_555
C2 H1 1_555 1_555
H2 C2 1_555 1_555
C3 C2 1_555 1_555
H3 C3 1_555 1_555
H4 C3 1_555 1_555
C4 C3 1_555 1_555
H5 C4 1_555 1_555
H6 C4 1_555 1_555
C5 C4 1_555 1_555
H7 C5 1_555 1_555
H8 C5 1_555 1_555
C6 H9 1_555 1_555
H10 C6 1_555 1_555
C7 C6 1_555 1_555
N1 C6 1_555 1_555
H11 N1 1_555 1_555
N2 C1 1_555 1_555
H12 N2 1_555 1_555
N3 C1 1_555 1_555
H13 N3 1_555 1_555
O1 C7 1_555 1_555
O2 C7 1_555 1_555
C8 H14 1_555 1_555
H15 C8 1_555 1_555
H16 C8 1_555 1_555
O3 C8 1_555 1_555
H17 O3 1_555 1_555
C2 N2 1_555 1_555
C5 N3 1_555 1_555

#END
