
#######################################################################
#
#                 Cambridge Crystallographic Data Centre
#                                CCDC 
#
#######################################################################
#
# If this CIF has been generated from an entry in the Cambridge 
# Structural Database, then it will include bibliographic, chemical, 
# crystal, experimental, refinement or atomic coordinate data resulting 
# from the CCDC's data processing and validation procedures.
#
#######################################################################

data_XUKSOL
_chemical_compound_source        'whole plant of Kinostemon alborubrum (HEMSL.)'
_chemical_name_common            'Kinalborin A monohydrate'
_chemical_formula_moiety         'C20 H20 O7,H2 O1'
_chemical_name_systematic        
"(3S,5S,6'aS,8'S,10'aR)-5-(Furan-3-yl)-4,5,6',6'a,8',9'-hexahydro-8'-hydroxy-8'-methylspiro[furan-3(2H),7'(10'H)-[1H]naphtho[1,8a-c]furan]-2,3',10'(5'H)-trione monohydrate"
_symmetry_cell_setting           orthorhombic
_symmetry_space_group_name_H-M   'P 21 21 21'
_symmetry_Int_Tables_number      19
_space_group_name_Hall           'P 2ac 2ab'
loop_
_symmetry_equiv_pos_site_id
_symmetry_equiv_pos_as_xyz
1 x,y,z
2 1/2-x,-y,1/2+z
3 -x,1/2+y,1/2-z
4 1/2+x,1/2-y,-z
_cell_length_a                   10.509(2)
_cell_length_b                   11.463(2)
_cell_length_c                   15.276(2)
_cell_angle_alpha                90
_cell_angle_beta                 90
_cell_angle_gamma                90
_cell_volume                     1840.22
_exptl_crystal_colour            colorless
_chemical_melting_point          '208-209 deg.C'
_cell_formula_units_Z            4
_exptl_crystal_recrystallization_method methanol/chloroform
loop_
_atom_site_label
_atom_site_type_symbol
_atom_site_fract_x
_atom_site_fract_y
_atom_site_fract_z
O1 O 0.5398(2) 0.8600(2) -0.43427(13)
O2 O 0.42504(17) 0.88921(18) -0.31387(12)
O3 O 0.6428(2) 1.06062(18) -0.27622(13)
O4 O 0.79760(16) 1.01719(17) -0.05549(13)
H1 H 0.8334 1.0385 -0.0106
O5 O 0.46827(16) 0.79084(17) 0.05154(11)
O6 O 0.5826(3) 0.6147(3) 0.29615(16)
O7 O 0.39280(17) 0.92537(18) -0.03738(12)
C1 C 0.6590(2) 0.6953(2) -0.13287(16)
H2 H 0.6962 0.6617 -0.0805
H3 H 0.5733 0.6648 -0.1392
C2 C 0.7386(2) 0.6624(2) -0.21271(17)
H4 H 0.8269 0.6828 -0.2022
H5 H 0.7340 0.5788 -0.2219
C3 C 0.6921(3) 0.7242(2) -0.29303(17)
H6 H 0.7117 0.6936 -0.3478
C4 C 0.6239(2) 0.8212(2) -0.28824(16)
C5 C 0.5861(2) 0.8823(2) -0.20506(16)
C6 C 0.6165(2) 1.0122(2) -0.20727(18)
C7 C 0.6029(3) 1.0757(2) -0.12339(18)
H7 H 0.5128 1.0871 -0.1123
H8 H 0.6407 1.1524 -0.1303
C8 C 0.6623(2) 1.0178(2) -0.04207(17)
C9 C 0.6229(2) 0.8859(2) -0.03579(15)
C10 C 0.6549(2) 0.8286(2) -0.12489(14)
H9 H 0.7439 0.8512 -0.1343
C11 C 0.6891(2) 0.8235(2) 0.04082(15)
H10 H 0.7651 0.7834 0.0209
H11 H 0.7126 0.8788 0.0861
C12 C 0.5907(2) 0.7366(2) 0.07486(16)
H12 H 0.5997 0.6628 0.0431
C13 C 0.5899(3) 0.7128(3) 0.17070(17)
C14 C 0.5985(3) 0.7935(3) 0.24180(19)
H13 H 0.6062 0.8741 0.2380
C15 C 0.5931(4) 0.7300(4) 0.3143(2)
H14 H 0.5962 0.7609 0.3705
C16 C 0.5809(4) 0.6080(3) 0.2072(2)
H15 H 0.5742 0.5386 0.1759
C17 C 0.6278(3) 1.0879(3) 0.0384(2)
H16 H 0.6696 1.0552 0.0887
H17 H 0.5374 1.0857 0.0470
H18 H 0.6547 1.1673 0.0307
C18 C 0.5329(3) 0.8589(3) -0.35557(18)
C19 C 0.4392(2) 0.8742(2) -0.21832(17)
H19 H 0.4067 0.7992 -0.1994
H20 H 0.3954 0.9356 -0.1866
C20 C 0.4841(2) 0.8727(2) -0.01011(15)
O8 O 0.3228(4) 0.9194(3) -0.5384(2)
loop_
_geom_bond_atom_site_label_1
_geom_bond_atom_site_label_2
_geom_bond_site_symmetry_1
_geom_bond_site_symmetry_2
O1 C18 1_555 1_555
O2 C18 1_555 1_555
O3 C6 1_555 1_555
O4 H1 1_555 1_555
O5 C12 1_555 1_555
O6 C15 1_555 1_555
O7 C20 1_555 1_555
C1 H2 1_555 1_555
H3 C1 1_555 1_555
C2 C1 1_555 1_555
H4 C2 1_555 1_555
H5 C2 1_555 1_555
C3 C2 1_555 1_555
H6 C3 1_555 1_555
C4 C3 1_555 1_555
C5 C4 1_555 1_555
C6 C5 1_555 1_555
C7 C6 1_555 1_555
H7 C7 1_555 1_555
H8 C7 1_555 1_555
C8 O4 1_555 1_555
C9 C8 1_555 1_555
C10 C1 1_555 1_555
H9 C10 1_555 1_555
C11 C9 1_555 1_555
H10 C11 1_555 1_555
H11 C11 1_555 1_555
C12 C11 1_555 1_555
H12 C12 1_555 1_555
C13 C12 1_555 1_555
C14 C13 1_555 1_555
H13 C14 1_555 1_555
C15 C14 1_555 1_555
H14 C15 1_555 1_555
C16 O6 1_555 1_555
H15 C16 1_555 1_555
C17 C8 1_555 1_555
H16 C17 1_555 1_555
H17 C17 1_555 1_555
H18 C17 1_555 1_555
C18 C4 1_555 1_555
C19 O2 1_555 1_555
H19 C19 1_555 1_555
H20 C19 1_555 1_555
C20 O5 1_555 1_555
C5 C19 1_555 1_555
C5 C10 1_555 1_555
C7 C8 1_555 1_555
C9 C10 1_555 1_555
C9 C20 1_555 1_555
C13 C16 1_555 1_555

#END
