
#######################################################################
#
#                 Cambridge Crystallographic Data Centre
#                                CCDC 
#
#######################################################################
#
# If this CIF has been generated from an entry in the Cambridge 
# Structural Database, then it will include bibliographic, chemical, 
# crystal, experimental, refinement or atomic coordinate data resulting 
# from the CCDC's data processing and validation procedures.
#
#######################################################################

data_XUKXEG
_chemical_formula_moiety         'C24 H28 N2 O4'
_chemical_name_systematic        
3,3,6,6-Tetramethyl-10-(2-hydroxybenzoylamino)-3,4,6,7,9,10-hexahydroacridine-1,8-dione
_symmetry_cell_setting           orthorhombic
_symmetry_space_group_name_H-M   'P 21 21 21'
_symmetry_Int_Tables_number      19
_space_group_name_Hall           'P 2ac 2ab'
loop_
_symmetry_equiv_pos_site_id
_symmetry_equiv_pos_as_xyz
1 x,y,z
2 1/2-x,-y,1/2+z
3 1/2+x,1/2-y,-z
4 -x,1/2+y,1/2-z
_cell_length_a                   9.3506(15)
_cell_length_b                   14.191(3)
_cell_length_c                   17.0514(19)
_cell_angle_alpha                90
_cell_angle_beta                 90
_cell_angle_gamma                90
_cell_volume                     2262.62
_exptl_crystal_colour            yellow
_exptl_crystal_description       rectangular
_chemical_melting_point          517-519K
_cell_formula_units_Z            4
_exptl_crystal_recrystallization_method 'chloroform/ethanol 1:1'
loop_
_atom_site_label
_atom_site_type_symbol
_atom_site_fract_x
_atom_site_fract_y
_atom_site_fract_z
O1 O -0.1016(6) 0.6423(4) 0.0454(3)
O2 O -0.0767(6) 0.6282(3) 0.3441(3)
O3 O 0.3605(4) 0.8378(3) 0.1978(3)
O4 O 0.6298(5) 0.8722(4) 0.1999(6)
H1 H 0.5584 0.8389 0.2034
C1 C -0.0468(9) 0.7215(6) 0.0482(5)
C2 C -0.0122(8) 0.7632(5) 0.1237(5)
C3 C -0.0140(8) 0.7760(6) -0.0247(5)
H2 H -0.0835 0.7596 -0.0646
H3 H 0.0796 0.7573 -0.0437
C4 C -0.0154(9) 0.8826(6) -0.0134(4)
C5 C 0.0830(7) 0.9064(5) 0.0558(3)
H4 H 0.1818 0.8973 0.0401
H5 H 0.0708 0.9722 0.0698
C6 C 0.0518(7) 0.8464(5) 0.1258(4)
C7 C 0.1143(8) 0.8891(5) 0.3423(4)
H6 H 0.1023 0.9565 0.3359
H7 H 0.2155 0.8768 0.3492
C8 C 0.0646(7) 0.8408(5) 0.2689(4)
C9 C 0.0354(11) 0.8582(6) 0.4160(5)
C10 C 0.0338(9) 0.7501(5) 0.4170(4)
H8 H 0.1304 0.7274 0.4256
H9 H -0.0246 0.7289 0.4606
C11 C -0.0227(8) 0.7081(6) 0.3431(5)
C12 C -0.0019(8) 0.7565(5) 0.2699(4)
C13 C -0.0489(7) 0.7084(5) 0.1954(5)
H10 H -0.0039 0.6469 0.1924
H11 H -0.1516 0.6989 0.1972
N1 N 0.0882(5) 0.8876(3) 0.1985(4)
N2 N 0.1986(5) 0.9546(3) 0.1986(3)
H12 H 0.1794 1.0138 0.1995
C14 C 0.3367(7) 0.9240(5) 0.1970(4)
C15 C 0.4514(7) 0.9949(5) 0.1967(5)
C16 C 0.4251(7) 1.0914(5) 0.1978(5)
H13 H 0.3313 1.1130 0.1961
C17 C 0.5347(9) 1.1548(6) 0.2014(5)
H14 H 0.5160 1.2191 0.1997
C18 C 0.6727(10) 1.1227(8) 0.2073(6)
H15 H 0.7468 1.1659 0.2125
C19 C 0.7037(9) 1.0284(7) 0.2058(7)
H16 H 0.7981 1.0078 0.2078
C20 C 0.5910(8) 0.9633(6) 0.2013(6)
C21 C 0.0398(9) 0.9341(6) -0.0877(4)
H17 H 0.1356 0.9139 -0.0990
H18 H 0.0391 1.0009 -0.0788
H19 H -0.0211 0.9194 -0.1314
C22 C -0.1686(9) 0.9159(6) 0.0034(5)
H20 H -0.2292 0.8997 -0.0400
H21 H -0.1691 0.9830 0.0106
H22 H -0.2033 0.8858 0.0501
C23 C 0.1121(13) 0.8962(6) 0.4884(4)
H23 H 0.0609 0.8775 0.5347
H24 H 0.1162 0.9637 0.4858
H25 H 0.2075 0.8712 0.4903
C24 C -0.1182(11) 0.8955(6) 0.4139(6)
H26 H -0.1682 0.8749 0.4600
H27 H -0.1658 0.8718 0.3681
H28 H -0.1168 0.9631 0.4124
loop_
_geom_bond_atom_site_label_1
_geom_bond_atom_site_label_2
_geom_bond_site_symmetry_1
_geom_bond_site_symmetry_2
O1 C1 1_555 1_555
O2 C11 1_555 1_555
O3 C14 1_555 1_555
O4 H1 1_555 1_555
C1 C2 1_555 1_555
C2 C6 1_555 1_555
C3 C1 1_555 1_555
H2 C3 1_555 1_555
H3 C3 1_555 1_555
C4 C3 1_555 1_555
C5 C4 1_555 1_555
H4 C5 1_555 1_555
H5 C5 1_555 1_555
C6 C5 1_555 1_555
C7 H6 1_555 1_555
H7 C7 1_555 1_555
C8 C7 1_555 1_555
C9 C7 1_555 1_555
C10 C9 1_555 1_555
H8 C10 1_555 1_555
H9 C10 1_555 1_555
C11 C10 1_555 1_555
C12 C8 1_555 1_555
C13 C2 1_555 1_555
H10 C13 1_555 1_555
H11 C13 1_555 1_555
N1 C6 1_555 1_555
N2 N1 1_555 1_555
H12 N2 1_555 1_555
C14 N2 1_555 1_555
C15 C14 1_555 1_555
C16 C15 1_555 1_555
H13 C16 1_555 1_555
C17 C16 1_555 1_555
H14 C17 1_555 1_555
C18 C17 1_555 1_555
H15 C18 1_555 1_555
C19 C18 1_555 1_555
H16 C19 1_555 1_555
C20 O4 1_555 1_555
C21 C4 1_555 1_555
H17 C21 1_555 1_555
H18 C21 1_555 1_555
H19 C21 1_555 1_555
C22 C4 1_555 1_555
H20 C22 1_555 1_555
H21 C22 1_555 1_555
H22 C22 1_555 1_555
C23 C9 1_555 1_555
H23 C23 1_555 1_555
H24 C23 1_555 1_555
H25 C23 1_555 1_555
C24 C9 1_555 1_555
H26 C24 1_555 1_555
H27 C24 1_555 1_555
H28 C24 1_555 1_555
C8 N1 1_555 1_555
C11 C12 1_555 1_555
C12 C13 1_555 1_555
C15 C20 1_555 1_555
C19 C20 1_555 1_555

#END
