
#######################################################################
#
#                 Cambridge Crystallographic Data Centre
#                                CCDC 
#
#######################################################################
#
# If this CIF has been generated from an entry in the Cambridge 
# Structural Database, then it will include bibliographic, chemical, 
# crystal, experimental, refinement or atomic coordinate data resulting 
# from the CCDC's data processing and validation procedures.
#
#######################################################################

data_XUKYAF
_chemical_name_common            
'2,3,6,7,12,13,16,17-octakis(methylthio)porphycene monohydrate'
_chemical_formula_moiety         'C28 H28 N4 S8,H2 O1'
_chemical_name_systematic        
'3,4,9,10,13,14,19,20-octakis(methylsulfanyl)-21,22,23,24-tetraazapentacyclo[16.2.1.1^2,5^.1^8,11^.1^12,15^]tetracosa-1,3,5(24),6,8(23),9,11,13,15(22),16,18(21),19-dodecaene monohydrate'
_symmetry_cell_setting           monoclinic
_symmetry_space_group_name_H-M   'P 21/n'
_symmetry_Int_Tables_number      14
_space_group_name_Hall           '-P 2yn'
loop_
_symmetry_equiv_pos_site_id
_symmetry_equiv_pos_as_xyz
1 x,y,z
2 1/2-x,1/2+y,1/2-z
3 -x,-y,-z
4 1/2+x,1/2-y,1/2+z
_cell_length_a                   8.8402(17)
_cell_length_b                   14.927(3)
_cell_length_c                   23.777(5)
_cell_angle_alpha                90
_cell_angle_beta                 96.92(2)
_cell_angle_gamma                90
_cell_volume                     3114.7
_exptl_crystal_colour            'blue purple'
_exptl_crystal_description       block
_cell_formula_units_Z            4
loop_
_atom_site_label
_atom_site_type_symbol
_atom_site_fract_x
_atom_site_fract_y
_atom_site_fract_z
S1 S 0.83588(19) 0.43653(10) 0.19992(8)
S2 S -0.01060(19) -0.03504(12) 0.20684(8)
S3 S 1.01683(19) 0.34661(12) 0.30371(9)
S4 S 0.1784(2) -0.12980(11) 0.30737(8)
S5 S 0.9253(2) 0.29709(13) 0.44029(9)
S6 S 0.0875(2) 0.01155(12) 0.06956(8)
S7 S 0.7358(2) 0.34476(13) 0.06749(9)
S8 S 0.3276(2) -0.04922(14) 0.44423(9)
N1 N 0.6029(5) 0.2125(3) 0.1964(2)
N2 N 0.4084(5) 0.0970(3) 0.3142(2)
N3 N 0.3811(5) 0.0883(3) 0.1974(2)
C1 C 0.3307(7) 0.0834(3) 0.1421(3)
C2 C 0.2836(7) 0.0413(4) 0.2270(3)
N4 N 0.6275(6) 0.2223(3) 0.3135(2)
C3 C 0.3127(6) 0.0360(4) 0.2854(3)
C4 C 0.3931(7) 0.1225(4) 0.0972(3)
H1 H 0.3481 0.1048 0.0615
C5 C 0.6956(6) 0.2735(4) 0.2247(3)
C6 C 0.6800(7) 0.2280(4) 0.3686(3)
C7 C 0.5099(7) 0.1829(4) 0.0964(3)
H2 H 0.5341 0.1965 0.0604
C8 C 0.7228(7) 0.2691(3) 0.2834(3)
C9 C 0.4219(7) 0.0782(4) 0.3700(3)
C10 C 0.5989(7) 0.2274(4) 0.1404(3)
C11 C 0.7504(6) 0.3330(4) 0.1846(3)
C12 C 0.5072(7) 0.1221(4) 0.4142(3)
H3 H 0.4874 0.1048 0.4502
C13 C 0.6168(7) 0.1874(4) 0.4134(3)
H4 H 0.6559 0.2083 0.4490
C14 C 0.2672(6) -0.0281(4) 0.3260(3)
C15 C 0.1606(7) 0.0084(4) 0.1881(3)
C16 C 0.3295(7) -0.0005(4) 0.3779(3)
C17 C 0.8155(8) 0.2794(4) 0.3760(3)
C18 C 0.6982(7) 0.3013(4) 0.1321(3)
C19 C 0.1910(7) 0.0318(4) 0.1347(3)
C20 C 0.3245(8) -0.2057(4) 0.3364(3)
H5 H 0.4198 -0.1887 0.3240
H6 H 0.2987 -0.2654 0.3237
H7 H 0.3331 -0.2036 0.3770
C21 C 0.8457(7) 0.3032(4) 0.3225(3)
C22 C 0.6957(7) 0.5092(4) 0.1627(3)
H8 H 0.7003 0.5043 0.1227
H9 H 0.7158 0.5700 0.1745
H10 H 0.5960 0.4921 0.1710
C23 C 0.9595(12) 0.4137(5) 0.4403(4)
H11 H 1.0167 0.4286 0.4097
H12 H 1.0164 0.4308 0.4756
H13 H 0.8641 0.4451 0.4356
C24 C 0.1338(9) -0.0635(6) 0.4495(4)
H14 H 0.0864 -0.0060 0.4517
H15 H 0.1216 -0.0974 0.4829
H16 H 0.0869 -0.0950 0.4167
C25 C 0.8412(9) 0.2582(5) 0.0398(4)
H17 H 0.9214 0.2392 0.0682
H18 H 0.8844 0.2798 0.0073
H19 H 0.7750 0.2085 0.0291
C26 C -0.1415(8) 0.0495(5) 0.1795(4)
H20 H -0.2422 0.0337 0.1872
H21 H -0.1401 0.0546 0.1393
H22 H -0.1127 0.1058 0.1973
C27 C 0.0436(10) -0.1049(4) 0.0723(4)
H23 H 0.1364 -0.1388 0.0784
H24 H -0.0132 -0.1228 0.0371
H25 H -0.0160 -0.1157 0.1027
C28 C 1.1420(8) 0.2550(5) 0.3236(4)
H26 H 1.1457 0.2445 0.3635
H27 H 1.2423 0.2691 0.3146
H28 H 1.1052 0.2023 0.3032
O1 O 0.5026(4) 0.1555(2) 0.25445(18)
loop_
_geom_bond_atom_site_label_1
_geom_bond_atom_site_label_2
_geom_bond_site_symmetry_1
_geom_bond_site_symmetry_2
S1 C11 1_555 1_555
S2 C15 1_555 1_555
S3 C21 1_555 1_555
S4 C14 1_555 1_555
S5 C17 1_555 1_555
S6 C19 1_555 1_555
S7 C18 1_555 1_555
S8 C16 1_555 1_555
N1 C5 1_555 1_555
N2 C3 1_555 1_555
N3 C1 1_555 1_555
C1 C4 1_555 1_555
C2 N3 1_555 1_555
N4 C6 1_555 1_555
C3 C2 1_555 1_555
C4 H1 1_555 1_555
C5 C8 1_555 1_555
C6 C13 1_555 1_555
C7 C4 1_555 1_555
H2 C7 1_555 1_555
C8 N4 1_555 1_555
C9 N2 1_555 1_555
C10 N1 1_555 1_555
C11 C5 1_555 1_555
C12 C9 1_555 1_555
H3 C12 1_555 1_555
C13 C12 1_555 1_555
H4 C13 1_555 1_555
C14 C3 1_555 1_555
C15 C2 1_555 1_555
C16 C9 1_555 1_555
C17 C6 1_555 1_555
C18 C10 1_555 1_555
C19 C1 1_555 1_555
C20 S4 1_555 1_555
H5 C20 1_555 1_555
H6 C20 1_555 1_555
H7 C20 1_555 1_555
C21 C8 1_555 1_555
C22 S1 1_555 1_555
H8 C22 1_555 1_555
H9 C22 1_555 1_555
H10 C22 1_555 1_555
C23 S5 1_555 1_555
H11 C23 1_555 1_555
H12 C23 1_555 1_555
H13 C23 1_555 1_555
C24 S8 1_555 1_555
H14 C24 1_555 1_555
H15 C24 1_555 1_555
H16 C24 1_555 1_555
C25 S7 1_555 1_555
H17 C25 1_555 1_555
H18 C25 1_555 1_555
H19 C25 1_555 1_555
C26 S2 1_555 1_555
H20 C26 1_555 1_555
H21 C26 1_555 1_555
H22 C26 1_555 1_555
C27 S6 1_555 1_555
H23 C27 1_555 1_555
H24 C27 1_555 1_555
H25 C27 1_555 1_555
C28 S3 1_555 1_555
H26 C28 1_555 1_555
H27 C28 1_555 1_555
H28 C28 1_555 1_555
C7 C10 1_555 1_555
C11 C18 1_555 1_555
C14 C16 1_555 1_555
C15 C19 1_555 1_555
C17 C21 1_555 1_555

#END
