
#######################################################################
#
#                 Cambridge Crystallographic Data Centre
#                                CCDC 
#
#######################################################################
#
# If this CIF has been generated from an entry in the Cambridge 
# Structural Database, then it will include bibliographic, chemical, 
# crystal, experimental, refinement or atomic coordinate data resulting 
# from the CCDC's data processing and validation procedures.
#
#######################################################################

data_XULCOY
_chemical_formula_moiety         'C26 H23 Cl2 N3 O4'
_chemical_name_systematic        
15-benzyl-1,12-dichloro-18,18-dimethoxy-6,7-dimethyl-3,10,15-triazapentacyclo[10.5.1.0^2,11^.0^4,9^.0^13,17^]octadeca-2,4,6,8,10-pentaene-14,16-dione
_symmetry_cell_setting           rhombohedral
_symmetry_space_group_name_H-M   'R -3'
_symmetry_Int_Tables_number      148
_space_group_name_Hall           '-R 3'
loop_
_symmetry_equiv_pos_site_id
_symmetry_equiv_pos_as_xyz
1 x,y,z
2 -y,x-y,z
3 -x+y,-x,z
4 2/3+x,1/3+y,1/3+z
5 2/3-y,1/3+x-y,1/3+z
6 2/3-x+y,1/3-x,1/3+z
7 1/3+x,2/3+y,2/3+z
8 1/3-y,2/3+x-y,2/3+z
9 1/3-x+y,2/3-x,2/3+z
10 -x,-y,-z
11 y,-x+y,-z
12 x-y,x,-z
13 1/3-x,2/3-y,2/3-z
14 1/3+y,2/3-x+y,2/3-z
15 1/3+x-y,2/3+x,2/3-z
16 2/3-x,1/3-y,1/3-z
17 2/3+y,1/3-x+y,1/3-z
18 2/3+x-y,1/3+x,1/3-z
_cell_length_a                   32.512(3)
_cell_length_b                   32.512(3)
_cell_length_c                   12.0390(18)
_cell_angle_alpha                90
_cell_angle_beta                 90
_cell_angle_gamma                120
_cell_volume                     11020.7
_exptl_crystal_colour            colorless
_exptl_crystal_description       chunk
_cell_formula_units_Z            18
loop_
_atom_site_label
_atom_site_type_symbol
_atom_site_fract_x
_atom_site_fract_y
_atom_site_fract_z
Cl1 Cl 0.173157(13) 0.754856(13) 0.76066(3)
Cl2 Cl 0.045692(13) 0.600622(12) 0.49957(3)
O1 O 0.25639(4) 0.72303(5) 0.65701(10)
O2 O 0.15607(5) 0.61139(5) 0.41095(10)
O3 O 0.07466(3) 0.70205(3) 0.65009(8)
O4 O 0.07828(4) 0.64120(4) 0.74242(8)
N1 N 0.18721(4) 0.77089(4) 0.50281(10)
N2 N 0.11697(4) 0.69428(4) 0.36809(9)
N3 N 0.21438(5) 0.67045(5) 0.51774(11)
C1 C 0.18254(5) 0.77582(5) 0.39021(11)
C2 C 0.21362(6) 0.81937(5) 0.33871(14)
H1 H 0.2367 0.8440 0.3812
C3 C 0.21070(6) 0.82641(6) 0.22707(14)
C4 C 0.17479(7) 0.78977(7) 0.16229(13)
C5 C 0.14404(6) 0.74699(6) 0.21110(12)
H2 H 0.1204 0.7230 0.1683
C6 C 0.14757(5) 0.73863(5) 0.32453(11)
C7 C 0.12331(5) 0.69084(4) 0.47357(11)
C8 C 0.09872(5) 0.64875(4) 0.54983(11)
C9 C 0.13614(5) 0.63476(5) 0.58676(11)
H3 H 0.1209 0.6040 0.6250
C10 C 0.16784(6) 0.63563(5) 0.49303(13)
C11 C 0.21896(5) 0.69340(5) 0.61706(12)
C12 C 0.16998(5) 0.67515(5) 0.66538(11)
H4 H 0.1680 0.6635 0.7414
C13 C 0.15128(5) 0.71038(5) 0.65834(10)
C14 C 0.09624(5) 0.67465(5) 0.65819(11)
C15 C 0.15740(5) 0.72891(4) 0.54055(10)
C16 C 0.25543(6) 0.67896(7) 0.45042(16)
H5 H 0.2459 0.6525 0.3998
H6 H 0.2798 0.6802 0.4989
C17 C 0.27605(5) 0.72428(6) 0.38423(13)
C18 C 0.31806(6) 0.76411(7) 0.41526(15)
H7 H 0.3334 0.7634 0.4798
C19 C 0.33735(7) 0.80467(7) 0.35199(19)
H8 H 0.3656 0.8312 0.3737
C20 C 0.31485(8) 0.80606(8) 0.25653(18)
H9 H 0.3278 0.8336 0.2139
C21 C 0.27321(8) 0.76679(9) 0.22414(16)
H10 H 0.2581 0.7677 0.1594
C22 C 0.25388(7) 0.72604(7) 0.28769(15)
H11 H 0.2257 0.6995 0.2655
C23 C 0.24674(8) 0.87294(8) 0.17434(18)
H12 H 0.2656 0.8950 0.2313
H13 H 0.2305 0.8857 0.1326
H14 H 0.2670 0.8676 0.1257
C24 C 0.17025(10) 0.79724(9) 0.03977(16)
H15 H 0.1988 0.8033 0.0020
H16 H 0.1654 0.8238 0.0303
H17 H 0.1437 0.7693 0.0094
C25 C 0.02473(6) 0.67831(6) 0.63164(15)
H18 H 0.0182 0.6693 0.5549
H19 H 0.0128 0.6992 0.6501
H20 H 0.0095 0.6504 0.6775
C26 C 0.07690(7) 0.65845(7) 0.85168(14)
H21 H 0.1036 0.6622 0.8941
H22 H 0.0480 0.6361 0.8882
H23 H 0.0782 0.6885 0.8456
loop_
_geom_bond_atom_site_label_1
_geom_bond_atom_site_label_2
_geom_bond_site_symmetry_1
_geom_bond_site_symmetry_2
Cl1 C13 1_555 1_555
Cl2 C8 1_555 1_555
O1 C11 1_555 1_555
O2 C10 1_555 1_555
O3 C14 1_555 1_555
O4 C14 1_555 1_555
N1 C1 1_555 1_555
N2 C6 1_555 1_555
N3 C10 1_555 1_555
C1 C2 1_555 1_555
C2 H1 1_555 1_555
C3 C2 1_555 1_555
C4 C3 1_555 1_555
C5 C4 1_555 1_555
H2 C5 1_555 1_555
C6 C1 1_555 1_555
C7 N2 1_555 1_555
C8 C7 1_555 1_555
C9 C8 1_555 1_555
H3 C9 1_555 1_555
C10 C9 1_555 1_555
C11 N3 1_555 1_555
C12 C9 1_555 1_555
H4 C12 1_555 1_555
C13 C12 1_555 1_555
C14 C8 1_555 1_555
C15 N1 1_555 1_555
C16 N3 1_555 1_555
H5 C16 1_555 1_555
H6 C16 1_555 1_555
C17 C16 1_555 1_555
C18 C17 1_555 1_555
H7 C18 1_555 1_555
C19 C18 1_555 1_555
H8 C19 1_555 1_555
C20 C19 1_555 1_555
H9 C20 1_555 1_555
C21 C20 1_555 1_555
H10 C21 1_555 1_555
C22 C17 1_555 1_555
H11 C22 1_555 1_555
C23 C3 1_555 1_555
H12 C23 1_555 1_555
H13 C23 1_555 1_555
H14 C23 1_555 1_555
C24 C4 1_555 1_555
H15 C24 1_555 1_555
H16 C24 1_555 1_555
H17 C24 1_555 1_555
C25 O3 1_555 1_555
H18 C25 1_555 1_555
H19 C25 1_555 1_555
H20 C25 1_555 1_555
C26 O4 1_555 1_555
H21 C26 1_555 1_555
H22 C26 1_555 1_555
H23 C26 1_555 1_555
C5 C6 1_555 1_555
C7 C15 1_555 1_555
C11 C12 1_555 1_555
C13 C14 1_555 1_555
C13 C15 1_555 1_555
C21 C22 1_555 1_555

#END
