
#######################################################################
#
#                 Cambridge Crystallographic Data Centre
#                                CCDC 
#
#######################################################################
#
# If this CIF has been generated from an entry in the Cambridge 
# Structural Database, then it will include bibliographic, chemical, 
# crystal, experimental, refinement or atomic coordinate data resulting 
# from the CCDC's data processing and validation procedures.
#
#######################################################################

data_XULWAE
_chemical_formula_moiety         'C29 H16 B1 F10 N1 O2'
_chemical_name_systematic        
(3-(4-(Dimethylamino)phenyl)-3-oxo-1-phenylpropenolato)-bis(pentafluorophenyl)-boron
_symmetry_cell_setting           triclinic
_symmetry_space_group_name_H-M   'P -1'
_symmetry_Int_Tables_number      2
_space_group_name_Hall           '-P 1'
loop_
_symmetry_equiv_pos_site_id
_symmetry_equiv_pos_as_xyz
1 x,y,z
2 -x,-y,-z
_cell_length_a                   11.0372(7)
_cell_length_b                   11.6357(7)
_cell_length_c                   11.8660(7)
_cell_angle_alpha                111.3160(10)
_cell_angle_beta                 103.8310(10)
_cell_angle_gamma                100.2430(10)
_cell_volume                     1318.13
_exptl_crystal_colour            yellow
_exptl_crystal_description       block
_cell_formula_units_Z            2
loop_
_atom_site_label
_atom_site_type_symbol
_atom_site_fract_x
_atom_site_fract_y
_atom_site_fract_z
B1 B 0.6040(3) 0.8270(3) 0.8744(3)
O1 O 0.60519(17) 0.95340(16) 0.87044(17)
O2 O 0.69181(17) 0.85207(16) 1.00282(16)
C1 C 0.6012(3) 1.1705(3) 0.8360(3)
H1 H 0.5233 1.1131 0.8229
C2 C 0.5986(5) 1.2749(4) 0.8081(4)
H2 H 0.5194 1.2892 0.7781
C3 C 0.7138(5) 1.3583(4) 0.8248(4)
H3 H 0.7122 1.4285 0.8049
C4 C 0.8309(4) 1.3383(3) 0.8705(4)
H4 H 0.9081 1.3941 0.8802
C5 C 0.8348(3) 1.2360(3) 0.9023(3)
H5 H 0.9146 1.2246 0.9361
C6 C 0.7196(3) 1.1502(2) 0.8840(2)
C7 C 0.7193(3) 1.0405(2) 0.9187(2)
C8 C 0.8238(3) 1.0306(2) 1.0000(2)
H6 H 0.9075 1.0826 1.0205
C9 C 0.8037(2) 0.9414(2) 1.0520(2)
C10 C 0.8954(3) 0.9418(2) 1.1607(2)
C11 C 1.0159(3) 1.0372(3) 1.2317(3)
H7 H 1.0366 1.1060 1.2107
C12 C 1.1032(3) 1.0314(3) 1.3307(3)
H8 H 1.1817 1.0968 1.3760
C13 C 1.0776(3) 0.9287(3) 1.3664(3)
C14 C 0.9549(3) 0.8359(3) 1.2977(3)
H9 H 0.9323 0.7685 1.3205
C15 C 0.8686(3) 0.8424(3) 1.1989(3)
H10 H 0.7888 0.7785 1.1551
C16 C 1.2949(5) 1.0122(5) 1.5273(5)
H11 H 1.3390 1.0133 1.4669
H12 H 1.3447 0.9891 1.5894
H13 H 1.2858 1.0962 1.5699
C17 C 1.1407(5) 0.8106(5) 1.4933(4)
H14 H 1.0698 0.8124 1.5270
H15 H 1.2172 0.8166 1.5567
H16 H 1.1178 0.7314 1.4181
C18 C 0.45663(12) 0.74313(14) 0.85357(17)
C19 C 0.44936(13) 0.63068(16) 0.87121(19)
C20 C 0.32870(16) 0.54955(14) 0.8483(2)
C21 C 0.21531(13) 0.58088(16) 0.80784(19)
C22 C 0.22258(12) 0.69333(16) 0.79020(18)
C23 C 0.34324(15) 0.77446(13) 0.81307(17)
C24 C 0.65331(17) 0.74052(15) 0.75534(13)
C25 C 0.74860(16) 0.67898(17) 0.77249(14)
C26 C 0.77422(17) 0.59873(18) 0.66700(19)
C27 C 0.7045(2) 0.58004(19) 0.54435(16)
C28 C 0.6092(2) 0.6416(2) 0.52719(12)
C29 C 0.58362(17) 0.72183(18) 0.63268(17)
F1 F 0.55151(17) 0.59446(17) 0.9044(2)
F2 F 0.3202(2) 0.44160(19) 0.8632(2)
F3 F 0.09928(18) 0.50165(19) 0.7846(2)
F4 F 0.11393(16) 0.72013(17) 0.74665(19)
F5 F 0.34312(16) 0.87803(15) 0.79399(17)
F6 F 0.81904(18) 0.69304(17) 0.88451(17)
F7 F 0.8627(2) 0.5368(2) 0.6833(2)
F8 F 0.7305(3) 0.5021(3) 0.4442(2)
F9 F 0.5438(3) 0.6224(3) 0.40920(19)
F10 F 0.4911(2) 0.7736(2) 0.60992(17)
N1 N 1.1669(3) 0.9186(3) 1.4602(3)
loop_
_geom_bond_atom_site_label_1
_geom_bond_atom_site_label_2
_geom_bond_site_symmetry_1
_geom_bond_site_symmetry_2
B1 O1 1_555 1_555
O1 C7 1_555 1_555
O2 B1 1_555 1_555
C1 H1 1_555 1_555
C2 C1 1_555 1_555
H2 C2 1_555 1_555
C3 C2 1_555 1_555
H3 C3 1_555 1_555
C4 C3 1_555 1_555
H4 C4 1_555 1_555
C5 C4 1_555 1_555
H5 C5 1_555 1_555
C6 C1 1_555 1_555
C7 C6 1_555 1_555
C8 C7 1_555 1_555
H6 C8 1_555 1_555
C9 O2 1_555 1_555
C10 C9 1_555 1_555
C11 C10 1_555 1_555
H7 C11 1_555 1_555
C12 C11 1_555 1_555
H8 C12 1_555 1_555
C13 C12 1_555 1_555
C14 C13 1_555 1_555
H9 C14 1_555 1_555
C15 C10 1_555 1_555
H10 C15 1_555 1_555
C16 H11 1_555 1_555
H12 C16 1_555 1_555
H13 C16 1_555 1_555
C17 H14 1_555 1_555
H15 C17 1_555 1_555
H16 C17 1_555 1_555
C18 B1 1_555 1_555
C19 C18 1_555 1_555
C20 C19 1_555 1_555
C21 C20 1_555 1_555
C22 C21 1_555 1_555
C23 C18 1_555 1_555
C24 B1 1_555 1_555
C25 C24 1_555 1_555
C26 C25 1_555 1_555
C27 C26 1_555 1_555
C28 C27 1_555 1_555
C29 C24 1_555 1_555
F1 C19 1_555 1_555
F2 C20 1_555 1_555
F3 C21 1_555 1_555
F4 C22 1_555 1_555
F5 C23 1_555 1_555
F6 C25 1_555 1_555
F7 C26 1_555 1_555
F8 C27 1_555 1_555
F9 C28 1_555 1_555
F10 C29 1_555 1_555
N1 C13 1_555 1_555
C5 C6 1_555 1_555
C8 C9 1_555 1_555
C14 C15 1_555 1_555
C16 N1 1_555 1_555
C17 N1 1_555 1_555
C22 C23 1_555 1_555
C28 C29 1_555 1_555

#END
