
#######################################################################
#
#                 Cambridge Crystallographic Data Centre
#                                CCDC 
#
#######################################################################
#
# If this CIF has been generated from an entry in the Cambridge 
# Structural Database, then it will include bibliographic, chemical, 
# crystal, experimental, refinement or atomic coordinate data resulting 
# from the CCDC's data processing and validation procedures.
#
#######################################################################

data_XULWAE01
_chemical_formula_moiety         'C29 H16 B1 F10 N1 O2'
_chemical_name_systematic        
(3-(4-(Dimethylamino)phenyl)-3-oxo-1-phenylpropenolato)-bis(pentafluorophenyl)-boron
_symmetry_cell_setting           triclinic
_symmetry_space_group_name_H-M   'P -1'
_symmetry_Int_Tables_number      2
_space_group_name_Hall           '-P 1'
loop_
_symmetry_equiv_pos_site_id
_symmetry_equiv_pos_as_xyz
1 x,y,z
2 -x,-y,-z
_cell_length_a                   10.4884(8)
_cell_length_b                   11.0467(8)
_cell_length_c                   11.5358(9)
_cell_angle_alpha                95.2680(10)
_cell_angle_beta                 98.3540(10)
_cell_angle_gamma                99.4260(10)
_cell_volume                     1295.34
_exptl_crystal_colour            red
_exptl_crystal_description       block
_cell_formula_units_Z            2
loop_
_atom_site_label
_atom_site_type_symbol
_atom_site_fract_x
_atom_site_fract_y
_atom_site_fract_z
N1 N 1.0394(3) 0.0983(3) 0.6914(2)
B1 B 0.4847(3) 0.1840(3) 0.2026(3)
O1 O 0.40360(19) 0.06178(19) 0.15108(17)
O2 O 0.60815(19) 0.16134(19) 0.27220(18)
C1 C 0.2168(3) -0.1368(3) 0.0640(3)
H1 H 0.2379 -0.0747 0.0171
C2 C 0.1138(4) -0.2322(4) 0.0221(4)
H2 H 0.0657 -0.2342 -0.0526
C3 C 0.0816(4) -0.3257(4) 0.0914(5)
H3 H 0.0124 -0.3905 0.0631
C4 C 0.1529(4) -0.3215(3) 0.2023(4)
H4 H 0.1306 -0.3834 0.2491
C5 C 0.2567(3) -0.2268(3) 0.2448(3)
H5 H 0.3047 -0.2257 0.3194
C6 C 0.2899(3) -0.1321(3) 0.1758(3)
C7 C 0.3979(3) -0.0275(3) 0.2191(3)
C8 C 0.4899(3) -0.0221(3) 0.3179(3)
H6 H 0.4779 -0.0795 0.3712
C9 C 0.6023(3) 0.0706(3) 0.3382(2)
C10 C 0.7164(3) 0.0734(3) 0.4248(3)
C11 C 0.7293(3) -0.0224(3) 0.4960(3)
H7 H 0.6639 -0.0923 0.4840
C12 C 0.8349(3) -0.0154(3) 0.5818(3)
H8 H 0.8397 -0.0802 0.6274
C13 C 0.9371(3) 0.0879(3) 0.6029(3)
C14 C 0.9263(3) 0.1832(3) 0.5282(3)
H9 H 0.9933 0.2516 0.5378
C15 C 0.8199(3) 0.1758(3) 0.4436(3)
H10 H 0.8152 0.2397 0.3969
C16 C 1.0447(4) 0.0064(4) 0.7739(3)
H11 H 0.9645 -0.0065 0.8055
H12 H 1.1169 0.0350 0.8370
H13 H 1.0564 -0.0700 0.7335
C17 C 1.1432(4) 0.2060(4) 0.7133(4)
H14 H 1.1864 0.2119 0.6456
H15 H 1.2053 0.1983 0.7809
H16 H 1.1065 0.2789 0.7280
C18 C 0.3987(3) 0.2556(3) 0.2865(3)
C19 C 0.4372(3) 0.3066(3) 0.4029(3)
C20 C 0.3624(4) 0.3713(3) 0.4667(3)
C21 C 0.2401(3) 0.3858(3) 0.4129(3)
C22 C 0.1966(3) 0.3371(3) 0.2982(3)
C23 C 0.2746(3) 0.2733(3) 0.2378(3)
C24 C 0.52658(18) 0.26821(16) 0.09776(14)
C25 C 0.62427(18) 0.37173(17) 0.13286(13)
C26 C 0.66402(18) 0.44749(15) 0.05017(18)
C27 C 0.6061(2) 0.41973(17) -0.06762(16)
C28 C 0.50841(19) 0.31621(19) -0.10272(12)
C29 C 0.46865(17) 0.24045(16) -0.02003(16)
F1 F 0.5553(2) 0.29680(19) 0.46300(16)
F2 F 0.4064(2) 0.4175(2) 0.57912(17)
F3 F 0.1661(2) 0.4480(2) 0.4731(2)
F4 F 0.07778(19) 0.3523(2) 0.2444(2)
F5 F 0.22584(17) 0.22919(19) 0.12412(17)
F6 F 0.6796(2) 0.40480(18) 0.24308(16)
F7 F 0.7579(2) 0.54676(18) 0.0823(2)
F8 F 0.6433(2) 0.49305(19) -0.14806(19)
F9 F 0.4527(2) 0.2917(2) -0.21550(16)
F10 F 0.37715(18) 0.14361(18) -0.05978(16)
loop_
_geom_bond_atom_site_label_1
_geom_bond_atom_site_label_2
_geom_bond_site_symmetry_1
_geom_bond_site_symmetry_2
N1 C13 1_555 1_555
B1 O1 1_555 1_555
O1 C7 1_555 1_555
O2 B1 1_555 1_555
C1 H1 1_555 1_555
C2 C1 1_555 1_555
H2 C2 1_555 1_555
C3 C2 1_555 1_555
H3 C3 1_555 1_555
C4 C3 1_555 1_555
H4 C4 1_555 1_555
C5 C4 1_555 1_555
H5 C5 1_555 1_555
C6 C1 1_555 1_555
C7 C6 1_555 1_555
C8 C7 1_555 1_555
H6 C8 1_555 1_555
C9 O2 1_555 1_555
C10 C9 1_555 1_555
C11 C10 1_555 1_555
H7 C11 1_555 1_555
C12 C11 1_555 1_555
H8 C12 1_555 1_555
C13 C12 1_555 1_555
C14 C13 1_555 1_555
H9 C14 1_555 1_555
C15 C10 1_555 1_555
H10 C15 1_555 1_555
C16 N1 1_555 1_555
H11 C16 1_555 1_555
H12 C16 1_555 1_555
H13 C16 1_555 1_555
C17 N1 1_555 1_555
H14 C17 1_555 1_555
H15 C17 1_555 1_555
H16 C17 1_555 1_555
C18 B1 1_555 1_555
C19 C18 1_555 1_555
C20 C19 1_555 1_555
C21 C20 1_555 1_555
C22 C21 1_555 1_555
C23 C18 1_555 1_555
C24 B1 1_555 1_555
C25 C24 1_555 1_555
C26 C25 1_555 1_555
C27 C26 1_555 1_555
C28 C27 1_555 1_555
C29 C24 1_555 1_555
F1 C19 1_555 1_555
F2 C20 1_555 1_555
F3 C21 1_555 1_555
F4 C22 1_555 1_555
F5 C23 1_555 1_555
F6 C25 1_555 1_555
F7 C26 1_555 1_555
F8 C27 1_555 1_555
F9 C28 1_555 1_555
F10 C29 1_555 1_555
C5 C6 1_555 1_555
C8 C9 1_555 1_555
C14 C15 1_555 1_555
C22 C23 1_555 1_555
C28 C29 1_555 1_555

#END
