
#######################################################################
#
#                 Cambridge Crystallographic Data Centre
#                                CCDC 
#
#######################################################################
#
# If this CIF has been generated from an entry in the Cambridge 
# Structural Database, then it will include bibliographic, chemical, 
# crystal, experimental, refinement or atomic coordinate data resulting 
# from the CCDC's data processing and validation procedures.
#
#######################################################################

data_XULWOQ
_chemical_formula_moiety         'C14 H18 Cl1 N1 O2'
_chemical_name_systematic        
1-Acetyl-3-chloro-2,2,6-trimethyl-1,2,3,4-tetrahydroquinolin-4-ol
_symmetry_cell_setting           monoclinic
_symmetry_space_group_name_H-M   'P 21/c'
_symmetry_Int_Tables_number      14
_space_group_name_Hall           '-P 2ybc'
loop_
_symmetry_equiv_pos_site_id
_symmetry_equiv_pos_as_xyz
1 x,y,z
2 -x,1/2+y,1/2-z
3 -x,-y,-z
4 x,1/2-y,1/2+z
_cell_length_a                   5.984(1)
_cell_length_b                   14.435(3)
_cell_length_c                   15.514(2)
_cell_angle_alpha                90
_cell_angle_beta                 95.28(2)
_cell_angle_gamma                90
_cell_volume                     1334.4
_exptl_crystal_colour            colorless
_exptl_crystal_description       plate
_cell_formula_units_Z            4
loop_
_atom_site_label
_atom_site_type_symbol
_atom_site_fract_x
_atom_site_fract_y
_atom_site_fract_z
Cl1 Cl 0.2443(3) 0.43952(12) 0.42540(10)
O1 O 0.1047(6) 0.0962(3) 0.2936(3)
O2 O 0.2895(6) 0.5095(2) 0.2484(2)
H1 H 0.135(5) 0.533(4) 0.235(4)
N1 N 0.2850(6) 0.2259(3) 0.2608(2)
C1 C 0.1946(8) 0.1418(3) 0.2395(3)
C2 C 0.2420(8) 0.2711(3) 0.3443(3)
C3 C 0.3273(8) 0.3716(3) 0.3388(3)
H2 H 0.4916 0.3691 0.3449
C4 C 0.2576(8) 0.4138(3) 0.2516(3)
H3 H 0.1003 0.3987 0.2339
C5 C 0.4065(7) 0.3649(3) 0.1948(3)
C6 C 0.5444(8) 0.4112(3) 0.1433(3)
H4 H 0.5294 0.4750 0.1366
C7 C 0.7054(8) 0.3647(4) 0.1013(3)
C8 C 0.7277(8) 0.2718(4) 0.1156(3)
H5 H 0.8362 0.2395 0.0886
C9 C 0.5960(8) 0.2241(3) 0.1686(3)
H6 H 0.6186 0.1611 0.1786
C10 C 0.4297(7) 0.2711(3) 0.2065(3)
C11 C 0.1996(9) 0.1046(4) 0.1514(4)
H7 H 0.2743 0.1478 0.1167
H8 H 0.0489 0.0950 0.1261
H9 H 0.2790 0.0467 0.1538
C12 C -0.0075(8) 0.2718(4) 0.3551(4)
H10 H -0.0859 0.3039 0.3073
H11 H -0.0331 0.3028 0.4081
H12 H -0.0615 0.2093 0.3568
C13 C 0.3741(9) 0.2206(4) 0.4177(3)
H13 H 0.5308 0.2221 0.4091
H14 H 0.3244 0.1575 0.4192
H15 H 0.3509 0.2503 0.4716
C14 C 0.8497(10) 0.4160(4) 0.0451(4)
H16 H 0.8074 0.4802 0.0434
H17 H 0.8315 0.3907 -0.0123
H18 H 1.0038 0.4104 0.0679
loop_
_geom_bond_atom_site_label_1
_geom_bond_atom_site_label_2
_geom_bond_site_symmetry_1
_geom_bond_site_symmetry_2
Cl1 C3 1_555 1_555
O1 C1 1_555 1_555
O2 H1 1_555 1_555
N1 C1 1_555 1_555
C1 C11 1_555 1_555
C2 N1 1_555 1_555
C3 C2 1_555 1_555
H2 C3 1_555 1_555
C4 O2 1_555 1_555
H3 C4 1_555 1_555
C5 C4 1_555 1_555
C6 C5 1_555 1_555
H4 C6 1_555 1_555
C7 C6 1_555 1_555
C8 C7 1_555 1_555
H5 C8 1_555 1_555
C9 C8 1_555 1_555
H6 C9 1_555 1_555
C10 N1 1_555 1_555
C11 H7 1_555 1_555
H8 C11 1_555 1_555
H9 C11 1_555 1_555
C12 C2 1_555 1_555
H10 C12 1_555 1_555
H11 C12 1_555 1_555
H12 C12 1_555 1_555
C13 C2 1_555 1_555
H13 C13 1_555 1_555
H14 C13 1_555 1_555
H15 C13 1_555 1_555
C14 C7 1_555 1_555
H16 C14 1_555 1_555
H17 C14 1_555 1_555
H18 C14 1_555 1_555
C3 C4 1_555 1_555
C5 C10 1_555 1_555
C9 C10 1_555 1_555

#END
