
#######################################################################
#
#                 Cambridge Crystallographic Data Centre
#                                CCDC 
#
#######################################################################
#
# If this CIF has been generated from an entry in the Cambridge 
# Structural Database, then it will include bibliographic, chemical, 
# crystal, experimental, refinement or atomic coordinate data resulting 
# from the CCDC's data processing and validation procedures.
#
#######################################################################

data_XUMGET
_chemical_formula_moiety         'C22 H12 Cl1 N3 O4,0.5(C6 H14),2.5(C4 H8 O2)'
_chemical_name_systematic        
"2-Amino-5'-chloro-1'-methyl-2',5,10-trioxo-1',2',5,10-tetrahydrospiro[benzo[g]chromene-4,3'-indole]-3-carbonitrile n-hexane 1,4-dioxane solvate"
_symmetry_cell_setting           monoclinic
_symmetry_space_group_name_H-M   'C 2'
_symmetry_Int_Tables_number      5
_space_group_name_Hall           'C 2y'
loop_
_symmetry_equiv_pos_site_id
_symmetry_equiv_pos_as_xyz
1 x,y,z
2 -x,y,-z
3 1/2+x,1/2+y,z
4 1/2-x,1/2+y,-z
_cell_length_a                   23.155(5)
_cell_length_b                   12.242(3)
_cell_length_c                   12.151(3)
_cell_angle_alpha                90
_cell_angle_beta                 94.831(3)
_cell_angle_gamma                90
_cell_volume                     3432.13
_exptl_crystal_colour            colorless
_exptl_crystal_description       prism
_cell_formula_units_Z            4
loop_
_atom_site_label
_atom_site_type_symbol
_atom_site_fract_x
_atom_site_fract_y
_atom_site_fract_z
Cl1 Cl 0.94676(3) 0.27096(8) 0.58927(6)
O1 O 0.82578(8) -0.00685(14) 1.01674(14)
O2 O 0.88030(10) 0.05231(17) 1.20444(17)
O3 O 0.80080(9) 0.36764(15) 0.92875(15)
O4 O 0.68430(8) 0.19002(14) 0.90568(14)
N1 N 0.80386(11) -0.14956(19) 0.90847(19)
H1 H 0.7826(12) -0.182(2) 0.8528(19)
H2 H 0.8115(13) -0.187(2) 0.9718(16)
N2 N 0.74288(13) -0.0453(2) 0.6460(2)
N3 N 0.71327(9) 0.25917(18) 0.74253(16)
C1 C 0.80191(11) -0.0409(2) 0.9157(2)
C2 C 0.78153(11) 0.0317(2) 0.8359(2)
C3 C 0.78346(10) 0.1547(2) 0.85020(19)
C4 C 0.81319(10) 0.1807(2) 0.96208(19)
C5 C 0.82117(11) 0.2969(2) 0.9924(2)
C6 C 0.85232(11) 0.3256(2) 1.0996(2)
C7 C 0.86202(12) 0.4348(2) 1.1271(2)
H3 H 0.8486 0.4908 1.0772
C8 C 0.89145(12) 0.4616(2) 1.2283(2)
H4 H 0.8977 0.5362 1.2475
C9 C 0.91169(12) 0.3808(2) 1.3010(2)
H5 H 0.9320 0.4000 1.3694
C10 C 0.90236(11) 0.2712(2) 1.2743(2)
H6 H 0.9160 0.2156 1.3245
C11 C 0.87275(11) 0.2436(2) 1.1730(2)
C12 C 0.86302(11) 0.1269(2) 1.1445(2)
C13 C 0.83181(10) 0.1031(2) 1.0346(2)
C14 C 0.75970(12) -0.0116(2) 0.7315(2)
C15 C 0.80932(11) 0.2105(2) 0.7543(2)
C16 C 0.86492(12) 0.2093(2) 0.7226(2)
H7 H 0.8947 0.1693 0.7633
C17 C 0.87626(12) 0.2685(3) 0.6285(2)
C18 C 0.83341(13) 0.3279(2) 0.5693(2)
H8 H 0.8426 0.3688 0.5067
C19 C 0.77671(13) 0.3283(2) 0.6006(2)
H9 H 0.7468 0.3680 0.5599
C20 C 0.76584(11) 0.2685(2) 0.69308(18)
C21 C 0.72088(11) 0.2024(2) 0.83915(19)
C22 C 0.65873(12) 0.3113(2) 0.7037(2)
H10 H 0.6277 0.2844 0.7467
H11 H 0.6494 0.2939 0.6254
H12 H 0.6624 0.3906 0.7127
O5 O 0.82874(10) 0.57348(19) 0.63967(18)
O6 O 0.75061(8) 0.67565(15) 0.77402(14)
C23 C 0.79355(15) 0.6628(3) 0.5998(3)
H13 H 0.7842 0.6547 0.5192
H14 H 0.8154 0.7318 0.6127
C24 C 0.73793(14) 0.6688(3) 0.6564(2)
H15 H 0.7154 0.7337 0.6298
H16 H 0.7142 0.6030 0.6379
C25 C 0.78445(13) 0.5839(2) 0.8132(2)
H17 H 0.7620 0.5160 0.7982
H18 H 0.7935 0.5901 0.8940
C26 C 0.83995(14) 0.5783(3) 0.7573(3)
H19 H 0.8639 0.6434 0.7775
H20 H 0.8621 0.5128 0.7834
O7 O 0.94447(11) 0.2432(3) 0.9453(2)
C27 C 0.97967(16) 0.3389(5) 0.9482(4)
H21 H 0.9548 0.4047 0.9466
H22 H 1.0023 0.3406 0.8826
C28 C 0.97828(18) 0.1494(5) 0.9479(3)
H23 H 0.9998 0.1462 0.8808
H24 H 0.9531 0.0841 0.9485
O7A O 1.05553(11) 0.2432(3) 1.0547(2)
C27A C 1.02033(16) 0.3389(5) 1.0518(4)
H21A H 1.0452 0.4047 1.0534
H22A H 0.9977 0.3406 1.1174
C28A C 1.02172(18) 0.1494(5) 1.0521(3)
H23A H 1.0002 0.1462 1.1192
H24A H 1.0469 0.0841 1.0515
C29 C 0.5853(3) 0.4312(6) 0.3082(7)
H25 H 0.6151 0.4723 0.3526
H26 H 0.5848 0.4539 0.2308
H27 H 0.5939 0.3529 0.3141
C30 C 0.5264(4) 0.4535(9) 0.3502(7)
H28 H 0.4991 0.3955 0.3225
H29 H 0.5115 0.5238 0.3192
C31 C 0.5270(3) 0.4584(7) 0.4763(6)
H30 H 0.5497 0.3952 0.5070
H31 H 0.5482 0.5252 0.5016
C29A C 0.4147(3) 0.4312(6) 0.6918(7)
H25A H 0.3849 0.4723 0.6474
H26A H 0.4152 0.4539 0.7692
H27A H 0.4061 0.3529 0.6859
C30A C 0.4736(4) 0.4535(9) 0.6498(7)
H28A H 0.5009 0.3955 0.6775
H29A H 0.4885 0.5238 0.6808
C31A C 0.4730(3) 0.4584(7) 0.5237(6)
H30A H 0.4503 0.3952 0.4930
H31A H 0.4518 0.5252 0.4984
O8? O 0.0075(7) 0.8734(5) 0.0052(17)
O9? O 0.0123(4) 0.6505(6) 0.0458(8)
C32? C -0.0422(4) 0.8210(7) 0.0458(11)
H32? H -0.0681 0.8093 -0.0191
H33? H -0.0623 0.8634 0.0969
C33? C -0.0320(4) 0.7070(8) 0.0861(10)
H34? H -0.0080 0.7173 0.1537
H35? H -0.0658 0.6662 0.1017
C34? C 0.0511(5) 0.6963(9) -0.0193(11)
H36? H 0.0750 0.6539 -0.0641
H37? H 0.0724 0.7103 0.0505
C35? C 0.0320(10) 0.8034(12) -0.0773(16)
H38? H 0.0656 0.8449 -0.0923
H39? H 0.0096 0.7893 -0.1459
O10? O 0.9637(5) 0.6121(13) 0.3989(10)
O11? O 1.0329(5) 0.6398(14) 0.5992(8)
C36? C 0.9375(5) 0.6399(15) 0.4998(10)
H40? H 0.9003 0.6052 0.4977
H41? H 0.9320 0.7172 0.5066
C37? C 0.9755(4) 0.5956(9) 0.5983(9)
H42? H 0.9589 0.6152 0.6653
H43? H 0.9778 0.5173 0.5952
C38? C 1.0589(5) 0.6106(15) 0.4981(9)
H44? H 1.0625 0.5326 0.4931
H45? H 1.0970 0.6419 0.4993
C39? C 1.0211(5) 0.6573(9) 0.4002(7)
H46? H 1.0203 0.7356 0.4025
H47? H 1.0373 0.6356 0.3334
loop_
_geom_bond_atom_site_label_1
_geom_bond_atom_site_label_2
_geom_bond_site_symmetry_1
_geom_bond_site_symmetry_2
Cl1 C17 1_555 1_555
O1 C1 1_555 1_555
O2 C12 1_555 1_555
O3 C5 1_555 1_555
O4 C21 1_555 1_555
N1 H1 1_555 1_555
H2 N1 1_555 1_555
N2 C14 1_555 1_555
N3 C20 1_555 1_555
C1 N1 1_555 1_555
C2 C1 1_555 1_555
C3 C2 1_555 1_555
C4 C3 1_555 1_555
C5 C4 1_555 1_555
C6 C5 1_555 1_555
C7 C6 1_555 1_555
H3 C7 1_555 1_555
C8 C7 1_555 1_555
H4 C8 1_555 1_555
C9 C8 1_555 1_555
H5 C9 1_555 1_555
C10 C9 1_555 1_555
H6 C10 1_555 1_555
C11 C6 1_555 1_555
C12 C11 1_555 1_555
C13 O1 1_555 1_555
C14 C2 1_555 1_555
C15 C3 1_555 1_555
C16 C15 1_555 1_555
H7 C16 1_555 1_555
C17 C16 1_555 1_555
C18 C17 1_555 1_555
H8 C18 1_555 1_555
C19 C18 1_555 1_555
H9 C19 1_555 1_555
C20 C15 1_555 1_555
C21 N3 1_555 1_555
C22 N3 1_555 1_555
H10 C22 1_555 1_555
H11 C22 1_555 1_555
H12 C22 1_555 1_555
O5 C23 1_555 1_555
O6 C24 1_555 1_555
C23 H13 1_555 1_555
H14 C23 1_555 1_555
C24 C23 1_555 1_555
H15 C24 1_555 1_555
H16 C24 1_555 1_555
C25 O6 1_555 1_555
H17 C25 1_555 1_555
H18 C25 1_555 1_555
C26 O5 1_555 1_555
H19 C26 1_555 1_555
H20 C26 1_555 1_555
O7 C27 1_555 1_555
C27 H21 1_555 1_555
H22 C27 1_555 1_555
C28 O7 1_555 1_555
H23 C28 1_555 1_555
H24 C28 1_555 1_555
C29 H25 1_555 1_555
H26 C29 1_555 1_555
H27 C29 1_555 1_555
C30 C29 1_555 1_555
H28 C30 1_555 1_555
H29 C30 1_555 1_555
C31 C30 1_555 1_555
H30 C31 1_555 1_555
H31 C31 1_555 1_555
O7A C27A 1_555 1_555
C27A C27 1_555 1_555
H21A C27A 1_555 1_555
H22A C27A 1_555 1_555
C28A C28 1_555 1_555
H23A C28A 1_555 1_555
H24A C28A 1_555 1_555
C29A H25A 1_555 1_555
H26A C29A 1_555 1_555
H27A C29A 1_555 1_555
C30A C29A 1_555 1_555
H28A C30A 1_555 1_555
H29A C30A 1_555 1_555
C31A C31 1_555 1_555
H30A C31A 1_555 1_555
H31A C31A 1_555 1_555
C3 C21 1_555 1_555
C4 C13 1_555 1_555
C10 C11 1_555 1_555
C12 C13 1_555 1_555
C19 C20 1_555 1_555
C25 C26 1_555 1_555
O7A C28A 1_555 1_555
C30A C31A 1_555 1_555

#END
