
#######################################################################
#
#                 Cambridge Crystallographic Data Centre
#                                CCDC 
#
#######################################################################
#
# If this CIF has been generated from an entry in the Cambridge 
# Structural Database, then it will include bibliographic, chemical, 
# crystal, experimental, refinement or atomic coordinate data resulting 
# from the CCDC's data processing and validation procedures.
#
#######################################################################

data_XUMSEE
_chemical_formula_moiety         'C18 H14 Br2'
_chemical_name_systematic        1,2-dibromo-4,5-diphenylcyclohexa-1,4-diene
_symmetry_cell_setting           orthorhombic
_symmetry_space_group_name_H-M   'P c a b'
_symmetry_Int_Tables_number      61
_space_group_name_Hall           '-P 2bc 2ac'
loop_
_symmetry_equiv_pos_site_id
_symmetry_equiv_pos_as_xyz
1 x,y,z
2 -x,1/2-y,1/2+z
3 1/2+x,-y,1/2-z
4 1/2-x,1/2+y,-z
5 -x,-y,-z
6 x,1/2+y,1/2-z
7 1/2-x,y,1/2+z
8 1/2+x,1/2-y,z
_cell_length_a                   8.1087(2)
_cell_length_b                   11.5770(3)
_cell_length_c                   32.9287(7)
_cell_angle_alpha                90
_cell_angle_beta                 90
_cell_angle_gamma                90
_cell_volume                     3091.16
_exptl_crystal_colour            colorless
_exptl_crystal_description       prism
_cell_formula_units_Z            8
loop_
_atom_site_label
_atom_site_type_symbol
_atom_site_fract_x
_atom_site_fract_y
_atom_site_fract_z
Br1 Br 0.73244(7) -0.25239(4) -0.005973(17)
Br2 Br 0.85765(7) -0.46282(4) 0.056948(17)
C1 C 0.8255(6) -0.2206(4) 0.04551(15)
C2 C 0.8739(5) -0.3050(4) 0.07075(15)
C3 C 0.9463(6) -0.2815(4) 0.11148(15)
H1 H 0.8832 -0.3217 0.1317
H2 H 1.0584 -0.3081 0.1121
C4 C 0.9472(5) -0.1565(4) 0.12370(14)
C5 C 0.8955(5) -0.0723(4) 0.09836(14)
C6 C 0.8409(6) -0.0960(4) 0.05587(14)
H3 H 0.9210 -0.0611 0.0383
H4 H 0.7363 -0.0585 0.0523
C7 C 0.8892(5) 0.0521(4) 0.10995(15)
C8 C 0.9704(5) 0.1353(4) 0.08681(15)
H5 H 1.0287 0.1125 0.0627
C9 C 0.9706(6) 0.2498(4) 0.09835(17)
H6 H 1.0266 0.3057 0.0818
C10 C 0.8899(6) 0.2831(4) 0.13276(16)
H7 H 0.8910 0.3624 0.1412
C11 C 0.8063(6) 0.2031(4) 0.15568(17)
H8 H 0.7488 0.2273 0.1797
C12 C 0.8063(6) 0.0881(4) 0.14436(16)
H9 H 0.7469 0.0328 0.1604
C13 C 1.0149(5) -0.1326(4) 0.16456(15)
C14 C 1.1355(6) -0.0481(4) 0.17057(16)
H10 H 1.1752 -0.0039 0.1479
C15 C 1.1990(7) -0.0262(5) 0.20869(18)
H11 H 1.2797 0.0336 0.2124
C16 C 1.1453(8) -0.0890(6) 0.24168(18)
H12 H 1.1920 -0.0755 0.2680
C17 C 1.0282(8) -0.1724(6) 0.23638(18)
H13 H 0.9880 -0.2152 0.2593
C18 C 0.9635(7) -0.1961(5) 0.19820(16)
H14 H 0.8829 -0.2562 0.1949
loop_
_geom_bond_atom_site_label_1
_geom_bond_atom_site_label_2
_geom_bond_site_symmetry_1
_geom_bond_site_symmetry_2
Br1 C1 1_555 1_555
Br2 C2 1_555 1_555
C1 C2 1_555 1_555
C2 C3 1_555 1_555
C3 H1 1_555 1_555
H2 C3 1_555 1_555
C4 C3 1_555 1_555
C5 C4 1_555 1_555
C6 C1 1_555 1_555
H3 C6 1_555 1_555
H4 C6 1_555 1_555
C7 C5 1_555 1_555
C8 C7 1_555 1_555
H5 C8 1_555 1_555
C9 C8 1_555 1_555
H6 C9 1_555 1_555
C10 C9 1_555 1_555
H7 C10 1_555 1_555
C11 C10 1_555 1_555
H8 C11 1_555 1_555
C12 C7 1_555 1_555
H9 C12 1_555 1_555
C13 C4 1_555 1_555
C14 C13 1_555 1_555
H10 C14 1_555 1_555
C15 C14 1_555 1_555
H11 C15 1_555 1_555
C16 C15 1_555 1_555
H12 C16 1_555 1_555
C17 C16 1_555 1_555
H13 C17 1_555 1_555
C18 C13 1_555 1_555
H14 C18 1_555 1_555
C5 C6 1_555 1_555
C11 C12 1_555 1_555
C17 C18 1_555 1_555

#END
