
#######################################################################
#
#                 Cambridge Crystallographic Data Centre
#                                CCDC 
#
#######################################################################
#
# If this CIF has been generated from an entry in the Cambridge 
# Structural Database, then it will include bibliographic, chemical, 
# crystal, experimental, refinement or atomic coordinate data resulting 
# from the CCDC's data processing and validation procedures.
#
#######################################################################

data_XUNHUJ
_chemical_formula_moiety         'C5 H5 N1 O1,C9 H16 O4'
_chemical_name_systematic        '2-Pyridone azelaic acid'
_symmetry_cell_setting           monoclinic
_symmetry_space_group_name_H-M   'P 21/c'
_symmetry_Int_Tables_number      14
_space_group_name_Hall           '-P 2ybc'
loop_
_symmetry_equiv_pos_site_id
_symmetry_equiv_pos_as_xyz
1 x,y,z
2 -x,1/2+y,1/2-z
3 -x,-y,-z
4 x,1/2-y,1/2+z
_cell_length_a                   16.6443(7)
_cell_length_b                   5.0355(4)
_cell_length_c                   18.2134(12)
_cell_angle_alpha                90
_cell_angle_beta                 103.085(4)
_cell_angle_gamma                90
_cell_volume                     1486.87
_cell_formula_units_Z            4
loop_
_atom_site_label
_atom_site_type_symbol
_atom_site_fract_x
_atom_site_fract_y
_atom_site_fract_z
N1 N 0.97603(8) 0.1198(3) 0.90036(8)
H1 H 1.0109 0.1541 0.9434
C1 C 0.92200(10) -0.0809(4) 0.89843(10)
O1 O 0.92256(8) -0.2147(3) 0.95822(7)
C2 C 0.86742(11) -0.1310(4) 0.82843(10)
H2 H 0.8279 -0.2695 0.8241
C3 C 0.87125(11) 0.0176(5) 0.76754(11)
H3 H 0.8345 -0.0189 0.7206
C4 C 0.92831(12) 0.2242(4) 0.77252(11)
H4 H 0.9308 0.3285 0.7296
C5 C 0.97971(10) 0.2714(4) 0.83994(10)
H5 H 1.0187 0.4119 0.8450
O2 O 0.86375(8) -0.6509(3) 1.07633(7)
O3 O 0.81675(8) -0.6012(3) 0.95257(7)
H6 H 0.8531(12) -0.481(5) 0.9570(11)
O4 O 0.56236(8) -1.0683(3) 1.44233(8)
O5 O 0.48008(10) -0.7211(4) 1.43831(9)
H7 H 0.4645(14) -0.804(5) 1.4783(14)
C6 C 0.81666(11) -0.7147(4) 1.01787(11)
C7 C 0.75351(12) -0.9301(4) 1.01061(11)
H8 H 0.7702 -1.0787 0.9817
H9 H 0.7002 -0.8611 0.9812
C8 C 0.74088(12) -1.0372(4) 1.08497(11)
H10 H 0.7955 -1.0719 1.1187
H11 H 0.7112 -1.2085 1.0758
C9 C 0.69253(10) -0.8493(4) 1.12469(10)
H12 H 0.7209 -0.6753 1.1321
H13 H 0.6369 -0.8209 1.0921
C10 C 0.68375(11) -0.9549(4) 1.20071(10)
H14 H 0.6599 -1.1356 1.1936
H15 H 0.7393 -0.9698 1.2343
C11 C 0.63029(11) -0.7845(4) 1.23928(10)
H16 H 0.5759 -0.7591 1.2044
H17 H 0.6562 -0.6075 1.2498
C12 C 0.61725(11) -0.9024(4) 1.31291(10)
H18 H 0.5963 -1.0863 1.3036
H19 H 0.6709 -0.9102 1.3499
C13 C 0.55686(11) -0.7415(5) 1.34575(10)
H20 H 0.5811 -0.5641 1.3599
H21 H 0.5059 -0.7154 1.3061
C14 C 0.53409(11) -0.8629(5) 1.41317(10)
loop_
_geom_bond_atom_site_label_1
_geom_bond_atom_site_label_2
_geom_bond_site_symmetry_1
_geom_bond_site_symmetry_2
N1 H1 1_555 1_555
C1 N1 1_555 1_555
O1 C1 1_555 1_555
C2 C1 1_555 1_555
H2 C2 1_555 1_555
C3 C2 1_555 1_555
H3 C3 1_555 1_555
C4 C3 1_555 1_555
H4 C4 1_555 1_555
C5 N1 1_555 1_555
H5 C5 1_555 1_555
O2 C6 1_555 1_555
O3 H6 1_555 1_555
O4 C14 1_555 1_555
O5 H7 1_555 1_555
C6 O3 1_555 1_555
C7 C6 1_555 1_555
H8 C7 1_555 1_555
H9 C7 1_555 1_555
C8 C7 1_555 1_555
H10 C8 1_555 1_555
H11 C8 1_555 1_555
C9 C8 1_555 1_555
H12 C9 1_555 1_555
H13 C9 1_555 1_555
C10 C9 1_555 1_555
H14 C10 1_555 1_555
H15 C10 1_555 1_555
C11 C10 1_555 1_555
H16 C11 1_555 1_555
H17 C11 1_555 1_555
C12 C11 1_555 1_555
H18 C12 1_555 1_555
H19 C12 1_555 1_555
C13 C12 1_555 1_555
H20 C13 1_555 1_555
H21 C13 1_555 1_555
C14 O5 1_555 1_555
C4 C5 1_555 1_555
C13 C14 1_555 1_555

#END
