
#######################################################################
#
#                 Cambridge Crystallographic Data Centre
#                                CCDC 
#
#######################################################################
#
# If this CIF has been generated from an entry in the Cambridge 
# Structural Database, then it will include bibliographic, chemical, 
# crystal, experimental, refinement or atomic coordinate data resulting 
# from the CCDC's data processing and validation procedures.
#
#######################################################################

data_XUPPAB
_chemical_formula_moiety         'C16 H18 N1 O1 P1 S1'
_chemical_name_systematic        
1-(5-(t-Butyl(oxido)phosphoranyl)-2-thienyl)-1H-indole
_symmetry_cell_setting           orthorhombic
_symmetry_space_group_name_H-M   'P c a 21'
_symmetry_Int_Tables_number      29
_space_group_name_Hall           'P 2c -2ac'
loop_
_symmetry_equiv_pos_site_id
_symmetry_equiv_pos_as_xyz
1 x,y,z
2 -x,-y,1/2+z
3 1/2+x,-y,z
4 1/2-x,y,1/2+z
_cell_length_a                   10.4802(6)
_cell_length_b                   14.7316(8)
_cell_length_c                   10.1363(6)
_cell_angle_alpha                90
_cell_angle_beta                 90
_cell_angle_gamma                90
_cell_volume                     1564.94
_exptl_crystal_colour            yellow
_exptl_crystal_description       parallelepiped
_cell_formula_units_Z            4
loop_
_atom_site_label
_atom_site_type_symbol
_atom_site_fract_x
_atom_site_fract_y
_atom_site_fract_z
S1 S 0.86961(7) 0.65642(4) 0.46832(8)
P1 P 0.81442(7) 0.86071(4) 0.51572(8)
O1 O 0.70073(18) 0.86626(12) 0.4293(2)
N1 N 0.9383(2) 0.49515(14) 0.5835(2)
C1 C 0.8771(2) 0.42944(16) 0.5081(3)
C2 C 0.7700(3) 0.43516(18) 0.4273(3)
H1 H 0.7245 0.4905 0.4175
C3 C 0.7325(3) 0.35734(19) 0.3619(3)
H2 H 0.6602 0.3593 0.3054
C4 C 0.7996(3) 0.2752(2) 0.3775(3)
H3 H 0.7722 0.2228 0.3308
C5 C 0.9038(3) 0.26953(17) 0.4590(4)
H4 H 0.9477 0.2136 0.4696
C6 C 0.9444(3) 0.34740(16) 0.5263(3)
C7 C 1.0476(3) 0.36586(18) 0.6151(3)
H5 H 1.1087 0.3233 0.6462
C8 C 1.0420(3) 0.45552(19) 0.6469(3)
H6 H 1.0999 0.4863 0.7035
C9 C 0.9053(3) 0.58683(17) 0.6012(3)
C10 C 0.9064(3) 0.63303(19) 0.7163(3)
H7 H 0.9248 0.6060 0.7992
C11 C 0.8771(3) 0.72600(18) 0.7001(3)
H8 H 0.8737 0.7679 0.7712
C12 C 0.8542(2) 0.74951(16) 0.5718(3)
C13 C 0.9562(3) 0.91372(17) 0.4469(3)
C14 C 0.9893(3) 0.8702(2) 0.3143(3)
H9 H 1.0659 0.8992 0.2780
H10 H 0.9180 0.8783 0.2529
H11 H 1.0055 0.8053 0.3269
C15 C 0.9220(3) 1.01423(18) 0.4257(4)
H12 H 0.9957 1.0462 0.3884
H13 H 0.8989 1.0418 0.5104
H14 H 0.8497 1.0187 0.3647
C16 C 1.0676(3) 0.9045(2) 0.5435(3)
H15 H 1.1436 0.9332 0.5058
H16 H 1.0848 0.8401 0.5596
H17 H 1.0457 0.9344 0.6269
H18 H 0.803(2) 0.9032(16) 0.633(3)
loop_
_geom_bond_atom_site_label_1
_geom_bond_atom_site_label_2
_geom_bond_site_symmetry_1
_geom_bond_site_symmetry_2
S1 C9 1_555 1_555
P1 O1 1_555 1_555
N1 C1 1_555 1_555
C1 C2 1_555 1_555
C2 H1 1_555 1_555
C3 C2 1_555 1_555
H2 C3 1_555 1_555
C4 C3 1_555 1_555
H3 C4 1_555 1_555
C5 C4 1_555 1_555
H4 C5 1_555 1_555
C6 C1 1_555 1_555
C7 C6 1_555 1_555
H5 C7 1_555 1_555
C8 N1 1_555 1_555
H6 C8 1_555 1_555
C9 N1 1_555 1_555
C10 C9 1_555 1_555
H7 C10 1_555 1_555
C11 C10 1_555 1_555
H8 C11 1_555 1_555
C12 S1 1_555 1_555
C13 P1 1_555 1_555
C14 C13 1_555 1_555
H9 C14 1_555 1_555
H10 C14 1_555 1_555
H11 C14 1_555 1_555
C15 C13 1_555 1_555
H12 C15 1_555 1_555
H13 C15 1_555 1_555
H14 C15 1_555 1_555
C16 C13 1_555 1_555
H15 C16 1_555 1_555
H16 C16 1_555 1_555
H17 C16 1_555 1_555
H18 P1 1_555 1_555
P1 C12 1_555 1_555
C5 C6 1_555 1_555
C7 C8 1_555 1_555
C11 C12 1_555 1_555

#END
