
#######################################################################
#
#                 Cambridge Crystallographic Data Centre
#                                CCDC 
#
#######################################################################
#
# If this CIF has been generated from an entry in the Cambridge 
# Structural Database, then it will include bibliographic, chemical, 
# crystal, experimental, refinement or atomic coordinate data resulting 
# from the CCDC's data processing and validation procedures.
#
#######################################################################

data_XUQLUS
_chemical_formula_moiety         'C21 H29 N1 O2 Si1'
_chemical_name_systematic        
5-((t-butyl(dimethyl)silyl)oxy)-6-(2-naphthyl)piperidin-2-one
_symmetry_cell_setting           monoclinic
_symmetry_space_group_name_H-M   'P 21/c'
_symmetry_Int_Tables_number      14
_space_group_name_Hall           '-P 2ybc'
loop_
_symmetry_equiv_pos_site_id
_symmetry_equiv_pos_as_xyz
1 x,y,z
2 -x,1/2+y,1/2-z
3 -x,-y,-z
4 x,1/2-y,1/2+z
_cell_length_a                   14.9925(14)
_cell_length_b                   10.2500(9)
_cell_length_c                   14.5255(13)
_cell_angle_alpha                90
_cell_angle_beta                 114.650(2)
_cell_angle_gamma                90
_cell_volume                     2028.77
_exptl_crystal_colour            colorless
_exptl_crystal_description       prismatic
_cell_formula_units_Z            4
loop_
_atom_site_label
_atom_site_type_symbol
_atom_site_fract_x
_atom_site_fract_y
_atom_site_fract_z
Si1 Si 0.26078(3) 0.55841(4) 0.21910(3)
N1 N 0.05619(10) 0.16142(13) 0.05467(11)
O1 O -0.03395(9) 0.02625(12) 0.10283(10)
O2 O 0.15962(8) 0.48683(10) 0.13855(9)
C1 C 0.00928(12) 0.13096(16) 0.11242(13)
C2 C 0.01268(15) 0.22734(19) 0.19155(15)
H1 H 0.0591 0.1963 0.2572
H2 H -0.0514 0.2302 0.1929
C3 C 0.04133(13) 0.36486(18) 0.17626(15)
H3 H -0.0129 0.4065 0.1211
H4 H 0.0564 0.4158 0.2372
C4 C 0.12980(11) 0.35956(15) 0.15206(12)
H5 H 0.1839 0.3157 0.2073
C5 C 0.10464(11) 0.28473(14) 0.05313(12)
H6 H 0.0590 0.3378 -0.0028
C6 C 0.19496(11) 0.26047(15) 0.03482(11)
C7 C 0.21772(12) 0.33779(16) -0.02829(12)
H7 H 0.1739 0.4027 -0.0649
C8 C 0.30635(12) 0.32237(17) -0.03995(12)
C9 C 0.33189(17) 0.4032(2) -0.10370(17)
H8 H 0.2894 0.4691 -0.1407
C10 C 0.41836(19) 0.3855(3) -0.1115(2)
H9 H 0.4345 0.4396 -0.1536
C11 C 0.48308(16) 0.2873(3) -0.05716(18)
H10 H 0.5421 0.2766 -0.0630
C12 C 0.46048(14) 0.2075(2) 0.00387(16)
H11 H 0.5036 0.1412 0.0389
C13 C 0.37187(12) 0.22366(17) 0.01521(13)
C14 C 0.34671(13) 0.14359(18) 0.07922(14)
H12 H 0.3893 0.0776 0.1157
C15 C 0.26118(12) 0.16110(16) 0.08866(14)
H13 H 0.2460 0.1067 0.1313
C16 C 0.26156(15) 0.5607(2) 0.34676(14)
H14 H 0.1980 0.5862 0.3416
H15 H 0.3099 0.6218 0.3888
H16 H 0.2772 0.4752 0.3762
C17 C 0.37097(13) 0.4707(2) 0.22433(17)
H17 H 0.3679 0.3811 0.2421
H18 H 0.4288 0.5106 0.2743
H19 H 0.3732 0.4750 0.1593
C18 C 0.25366(12) 0.72702(17) 0.16688(13)
C19 C 0.16984(16) 0.8025(2) 0.17676(19)
H20 H 0.1851 0.8162 0.2471
H21 H 0.1101 0.7532 0.1461
H22 H 0.1618 0.8852 0.1433
C20 C 0.35033(15) 0.7994(2) 0.22592(17)
H23 H 0.4034 0.7522 0.2209
H24 H 0.3615 0.8062 0.2958
H25 H 0.3467 0.8852 0.1981
C21 C 0.23449(18) 0.7203(3) 0.05529(15)
H26 H 0.2320 0.8071 0.0294
H27 H 0.1730 0.6772 0.0179
H28 H 0.2864 0.6725 0.0483
H29 H 0.0510(13) 0.104(2) 0.0084(15)
loop_
_geom_bond_atom_site_label_1
_geom_bond_atom_site_label_2
_geom_bond_site_symmetry_1
_geom_bond_site_symmetry_2
Si1 O2 1_555 1_555
N1 C1 1_555 1_555
O1 C1 1_555 1_555
O2 C4 1_555 1_555
C1 C2 1_555 1_555
C2 H1 1_555 1_555
H2 C2 1_555 1_555
C3 C2 1_555 1_555
H3 C3 1_555 1_555
H4 C3 1_555 1_555
C4 C3 1_555 1_555
H5 C4 1_555 1_555
C5 N1 1_555 1_555
H6 C5 1_555 1_555
C6 C5 1_555 1_555
C7 C6 1_555 1_555
H7 C7 1_555 1_555
C8 C7 1_555 1_555
C9 C8 1_555 1_555
H8 C9 1_555 1_555
C10 C9 1_555 1_555
H9 C10 1_555 1_555
C11 C10 1_555 1_555
H10 C11 1_555 1_555
C12 C11 1_555 1_555
H11 C12 1_555 1_555
C13 C8 1_555 1_555
C14 C13 1_555 1_555
H12 C14 1_555 1_555
C15 C6 1_555 1_555
H13 C15 1_555 1_555
C16 Si1 1_555 1_555
H14 C16 1_555 1_555
H15 C16 1_555 1_555
H16 C16 1_555 1_555
C17 Si1 1_555 1_555
H17 C17 1_555 1_555
H18 C17 1_555 1_555
H19 C17 1_555 1_555
C18 Si1 1_555 1_555
C19 C18 1_555 1_555
H20 C19 1_555 1_555
H21 C19 1_555 1_555
H22 C19 1_555 1_555
C20 C18 1_555 1_555
H23 C20 1_555 1_555
H24 C20 1_555 1_555
H25 C20 1_555 1_555
C21 C18 1_555 1_555
H26 C21 1_555 1_555
H27 C21 1_555 1_555
H28 C21 1_555 1_555
H29 N1 1_555 1_555
C4 C5 1_555 1_555
C12 C13 1_555 1_555
C14 C15 1_555 1_555

#END
