
#######################################################################
#
#                 Cambridge Crystallographic Data Centre
#                                CCDC 
#
#######################################################################
#
# If this CIF has been generated from an entry in the Cambridge 
# Structural Database, then it will include bibliographic, chemical, 
# crystal, experimental, refinement or atomic coordinate data resulting 
# from the CCDC's data processing and validation procedures.
#
#######################################################################

data_XUTBOD
_chemical_name_common            
'bis(C-n-Propylcalix[4]resorcinarene) tetramethylammonium clathrate bromide ethanol solvate'
_chemical_formula_moiety         'C4 H12 N1 1+,Br1 1-,2(C40 H48 O8),4(C2 H6 O1)'
_chemical_name_systematic        
'bis(2,8,14,20-Tetra-n-propyl-4,6,10,12,16,18,22,24-octahydroxycalix(4)arene) tetramethylammonium clathrate bromide ethanol solvate'
_symmetry_cell_setting           triclinic
_symmetry_space_group_name_H-M   'P -1'
_symmetry_Int_Tables_number      2
_space_group_name_Hall           '-P 1'
loop_
_symmetry_equiv_pos_site_id
_symmetry_equiv_pos_as_xyz
1 x,y,z
2 -x,-y,-z
_cell_length_a                   13.3833(2)
_cell_length_b                   13.7536(2)
_cell_length_c                   14.4512(3)
_cell_angle_alpha                106.6801(5)
_cell_angle_beta                 91.0839(5)
_cell_angle_gamma                117.2219(5)
_cell_volume                     2230.35
_exptl_crystal_colour            colorless
_exptl_crystal_description       block
_cell_formula_units_Z            1
loop_
_atom_site_label
_atom_site_type_symbol
_atom_site_fract_x
_atom_site_fract_y
_atom_site_fract_z
Br1 Br 0.5000 1.0000 1.0000
O1 O 0.3097(3) 0.7788(2) 0.8221(2)
H1 H 0.3598 0.8348 0.8684
O2 O 0.4291(4) 0.5745(3) 0.9754(3)
H2 H 0.3915 0.5170 0.9934
C1 C 0.2373(3) 0.5769(3) 0.7454(3)
C2 C 0.2356(3) 0.4753(3) 0.7482(3)
H3 H 0.1884 0.4056 0.6958
C3 C 0.2976(3) 0.4693(3) 0.8216(3)
C4 C 0.3053(4) 0.6762(3) 0.8240(3)
C5 C 0.3629(4) 0.5711(4) 0.8995(3)
C6 C 0.3675(5) 0.6752(4) 0.9000(4)
H4 H 0.4135 0.7448 0.9529
C7 C 0.1701(3) 0.5783(3) 0.6603(3)
H5 H 0.2070 0.6603 0.6607
C8 C 0.0481(3) 0.5457(3) 0.6754(3)
C9 C -0.0389(3) 0.4310(3) 0.6435(3)
H6 H -0.0194 0.3728 0.6119
C10 C -0.1518(3) 0.3954(3) 0.6542(3)
C11 C -0.1774(3) 0.4821(3) 0.7033(3)
O3 O -0.2869(2) 0.4554(2) 0.7172(3)
H7 H -0.3178 0.3929 0.7294
C12 C -0.0938(4) 0.5972(4) 0.7363(4)
H8 H -0.1131 0.6552 0.7688
C13 C 0.0175(4) 0.6293(3) 0.7227(3)
O4 O 0.0944(3) 0.7461(2) 0.7583(3)
H9 H 0.1601 0.7555 0.7722
C14 C -0.2437(3) 0.2688(3) 0.6136(3)
H10 H -0.3179 0.2682 0.6020
C15 C -0.2542(3) 0.2069(3) 0.6880(3)
C16 C -0.1865(3) 0.1564(3) 0.6974(3)
H11 H -0.1306 0.1632 0.6565
C17 C -0.1955(3) 0.0969(3) 0.7624(3)
C18 C -0.2767(4) 0.0894(3) 0.8222(3)
O5 O -0.2862(3) 0.0312(3) 0.8883(3)
H12 H -0.3378 0.0319 0.9203
C19 C -0.3450(4) 0.1394(4) 0.8179(3)
H13 H -0.3992 0.1343 0.8604
C20 C -0.3338(4) 0.1974(3) 0.7507(3)
O6 O -0.4025(3) 0.2463(3) 0.7458(3)
H14 H -0.4485 0.2314 0.7850
C21 C -0.1189(3) 0.0439(3) 0.7710(3)
H15 H -0.1588 -0.0157 0.8031
C22 C -0.0060(3) 0.1338(3) 0.8390(3)
C23 C 0.0876(3) 0.2035(3) 0.8039(3)
H16 H 0.0780 0.1943 0.7361
C24 C 0.1934(3) 0.2853(3) 0.8613(3)
C25 C 0.2038(4) 0.2976(5) 0.9602(4)
O7 O 0.3064(3) 0.3797(4) 1.0211(3)
H17 H 0.3102 0.3644 1.0729
C26 C 0.1136(5) 0.2302(6) 0.9984(4)
H18 H 0.1234 0.2392 1.0661
C27 C 0.0094(4) 0.1498(5) 0.9384(4)
O8 O -0.0747(3) 0.0882(5) 0.9833(3)
H19 H -0.1364 0.0469 0.9431
C28 C 0.2944(3) 0.3560(3) 0.8182(3)
H20 H 0.3652 0.3774 0.8620
C29 C 0.1775(3) 0.5044(3) 0.5603(3)
H21 H 0.1473 0.4235 0.5593
H22 H 0.1288 0.5038 0.5075
C30 C 0.2990(4) 0.5492(4) 0.5396(3)
H23 H 0.3166 0.6117 0.5115
H24 H 0.3526 0.5832 0.6023
C31 C 0.3188(4) 0.4574(4) 0.4703(4)
H25 H 0.3108 0.3998 0.5010
H26 H 0.3958 0.4931 0.4552
H27 H 0.2625 0.4193 0.4097
C32 C -0.2265(4) 0.2051(3) 0.5134(3)
H28 H -0.2089 0.2549 0.4718
H29 H -0.1598 0.1939 0.5239
C33 C -0.3289(4) 0.0882(4) 0.4587(4)
H30 H -0.3044 0.0444 0.4059
H31 H -0.3560 0.0441 0.5047
C34 C -0.4269(5) 0.0954(5) 0.4141(5)
H32 H -0.4574 0.1310 0.4664
H33 H -0.4869 0.0173 0.3756
H34 H -0.3999 0.1427 0.3713
C35 C -0.1041(4) -0.0209(3) 0.6699(3)
H35 H -0.1802 -0.0731 0.6277
H36 H -0.0585 0.0364 0.6382
C36 C -0.0460(5) -0.0917(4) 0.6765(4)
H37 H 0.0280 -0.0404 0.7218
H38 H -0.0940 -0.1522 0.7043
C37 C -0.0256(5) -0.1490(5) 0.5780(5)
H39 H -0.0984 -0.1980 0.5321
H40 H 0.0080 -0.1968 0.5859
H41 H 0.0266 -0.0893 0.5523
C38 C 0.2974(3) 0.2848(3) 0.7153(3)
H42 H 0.2869 0.2093 0.7170
H43 H 0.2325 0.2691 0.6686
C39 C 0.4075(4) 0.3441(3) 0.6778(3)
H44 H 0.4136 0.4150 0.6682
H45 H 0.4732 0.3681 0.7279
C40 C 0.4136(4) 0.2669(4) 0.5822(4)
H46 H 0.4115 0.1984 0.5920
H47 H 0.4849 0.3097 0.5603
H48 H 0.3486 0.2425 0.5324
N1 N 0.0000 0.5000 1.0000
C43 C 0.008(3) 0.616(3) 1.016(3)
C45 C 0.129(3) 0.546(3) 1.018(3)
C43A C -0.008(3) 0.384(3) 0.984(3)
C45A C -0.129(3) 0.454(3) 0.982(3)
O9 O 0.5531(2) 0.7781(2) 1.1285(2)
H49 H 0.5188 0.7157 1.0812
C46 C 0.6415(7) 0.8601(7) 1.0988(7)
H51 H 0.6109 0.8748 1.0445
H52 H 0.6957 0.8320 1.0755
C47 C 0.7036(9) 0.9745(9) 1.1901(8)
H53 H 0.7667 1.0343 1.1716
H54 H 0.7335 0.9588 1.2433
H55 H 0.6491 1.0016 1.2123
O10 O 0.3352(3) 0.3684(3) 1.1993(3)
H61 H 0.3125 0.3956 1.2489
C50 C 0.3307(11) 0.2711(9) 1.2008(8)
H63 H 0.3531 0.2390 1.1394
H64 H 0.2497 0.2158 1.1978
C51 C 0.3988(7) 0.2706(7) 1.2831(7)
H65 H 0.3864 0.1918 1.2715
H66 H 0.3748 0.2966 1.3448
H67 H 0.4800 0.3229 1.2871
C41? C 0.070(4) 0.594(3) 1.101(3)
C42? C -0.027(3) 0.452(3) 1.080(2)
C44? C -0.019(3) 0.557(2) 1.097(2)
H50? H 0.5471 0.7436 1.0687
C48? C 0.6430(11) 0.8972(12) 1.1550(11)
H56? H 0.6053 0.9455 1.1607
H57? H 0.6833 0.9181 1.2216
C49? C 0.7291(12) 0.9333(11) 1.0957(10)
H58? H 0.7826 1.0163 1.1262
H59? H 0.6929 0.9190 1.0301
H60? H 0.7705 0.8894 1.0903
H62? H 0.3116 0.3961 1.2480
C52? C 0.414(2) 0.3294(18) 1.2318(15)
H68? H 0.4868 0.3747 1.2124
H69? H 0.4270 0.3605 1.3044
C53? C 0.404(3) 0.235(3) 1.214(3)
H70? H 0.4709 0.2407 1.2481
H71? H 0.3975 0.2014 1.1427
H72? H 0.3351 0.1862 1.2350
loop_
_geom_bond_atom_site_label_1
_geom_bond_atom_site_label_2
_geom_bond_site_symmetry_1
_geom_bond_site_symmetry_2
O1 H1 1_555 1_555
O2 H2 1_555 1_555
C1 C2 1_555 1_555
C2 H3 1_555 1_555
C3 C2 1_555 1_555
C4 O1 1_555 1_555
C5 O2 1_555 1_555
C6 C4 1_555 1_555
H4 C6 1_555 1_555
C7 C1 1_555 1_555
H5 C7 1_555 1_555
C8 C7 1_555 1_555
C9 C8 1_555 1_555
H6 C9 1_555 1_555
C10 C9 1_555 1_555
C11 C10 1_555 1_555
O3 C11 1_555 1_555
H7 O3 1_555 1_555
C12 C11 1_555 1_555
H8 C12 1_555 1_555
C13 C8 1_555 1_555
O4 C13 1_555 1_555
H9 O4 1_555 1_555
C14 C10 1_555 1_555
H10 C14 1_555 1_555
C15 C14 1_555 1_555
C16 C15 1_555 1_555
H11 C16 1_555 1_555
C17 C16 1_555 1_555
C18 C17 1_555 1_555
O5 C18 1_555 1_555
H12 O5 1_555 1_555
C19 C18 1_555 1_555
H13 C19 1_555 1_555
C20 C15 1_555 1_555
O6 C20 1_555 1_555
H14 O6 1_555 1_555
C21 C17 1_555 1_555
H15 C21 1_555 1_555
C22 C21 1_555 1_555
C23 C22 1_555 1_555
H16 C23 1_555 1_555
C24 C23 1_555 1_555
C25 C24 1_555 1_555
O7 C25 1_555 1_555
H17 O7 1_555 1_555
C26 C25 1_555 1_555
H18 C26 1_555 1_555
C27 C22 1_555 1_555
O8 C27 1_555 1_555
H19 O8 1_555 1_555
C28 C3 1_555 1_555
H20 C28 1_555 1_555
C29 C7 1_555 1_555
H21 C29 1_555 1_555
H22 C29 1_555 1_555
C30 C29 1_555 1_555
H23 C30 1_555 1_555
H24 C30 1_555 1_555
C31 C30 1_555 1_555
H25 C31 1_555 1_555
H26 C31 1_555 1_555
H27 C31 1_555 1_555
C32 C14 1_555 1_555
H28 C32 1_555 1_555
H29 C32 1_555 1_555
C33 C32 1_555 1_555
H30 C33 1_555 1_555
H31 C33 1_555 1_555
C34 C33 1_555 1_555
H32 C34 1_555 1_555
H33 C34 1_555 1_555
H34 C34 1_555 1_555
C35 C21 1_555 1_555
H35 C35 1_555 1_555
H36 C35 1_555 1_555
C36 C35 1_555 1_555
H37 C36 1_555 1_555
H38 C36 1_555 1_555
C37 C36 1_555 1_555
H39 C37 1_555 1_555
H40 C37 1_555 1_555
H41 C37 1_555 1_555
C38 C28 1_555 1_555
H42 C38 1_555 1_555
H43 C38 1_555 1_555
C39 C38 1_555 1_555
H44 C39 1_555 1_555
H45 C39 1_555 1_555
C40 C39 1_555 1_555
H46 C40 1_555 1_555
H47 C40 1_555 1_555
H48 C40 1_555 1_555
N1 C43 1_555 1_555
C45 N1 1_555 1_555
O9 H49 1_555 1_555
C46 O9 1_555 1_555
H51 C46 1_555 1_555
H52 C46 1_555 1_555
C47 C46 1_555 1_555
H53 C47 1_555 1_555
H54 C47 1_555 1_555
H55 C47 1_555 1_555
O10 H61 1_555 1_555
C50 O10 1_555 1_555
H63 C50 1_555 1_555
H64 C50 1_555 1_555
C51 C50 1_555 1_555
H65 C51 1_555 1_555
H66 C51 1_555 1_555
H67 C51 1_555 1_555
C43A N1 1_555 1_555
C45A N1 1_555 1_555
C1 C4 1_555 1_555
C3 C5 1_555 1_555
C5 C6 1_555 1_555
C12 C13 1_555 1_555
C19 C20 1_555 1_555
C24 C28 1_555 1_555
C26 C27 1_555 1_555

#END
