
#######################################################################
#
#                 Cambridge Crystallographic Data Centre
#                                CCDC 
#
#######################################################################
#
# If this CIF has been generated from an entry in the Cambridge 
# Structural Database, then it will include bibliographic, chemical, 
# crystal, experimental, refinement or atomic coordinate data resulting 
# from the CCDC's data processing and validation procedures.
#
#######################################################################

data_XUTKOO
_chemical_formula_moiety         'C30 H27 F9 N4'
_chemical_name_systematic        
N,N,N-tris(2-((4-(Trifluoromethyl)benzylidene)amino)ethyl)amine
_symmetry_cell_setting           monoclinic
_symmetry_space_group_name_H-M   'P 21/c'
_symmetry_Int_Tables_number      14
_space_group_name_Hall           '-P 2ybc'
loop_
_symmetry_equiv_pos_site_id
_symmetry_equiv_pos_as_xyz
1 x,y,z
2 -x,1/2+y,1/2-z
3 -x,-y,-z
4 x,1/2-y,1/2+z
_cell_length_a                   12.126(2)
_cell_length_b                   16.820(3)
_cell_length_c                   14.784(3)
_cell_angle_alpha                90
_cell_angle_beta                 106.907(3)
_cell_angle_gamma                90
_cell_volume                     2885.01
_exptl_crystal_colour            colorless
_exptl_crystal_description       block
_cell_formula_units_Z            4
loop_
_atom_site_label
_atom_site_type_symbol
_atom_site_fract_x
_atom_site_fract_y
_atom_site_fract_z
C1 C 0.20704(13) 0.64388(8) 0.93056(10)
H1 H 0.2231 0.6004 0.8911
H2 H 0.1254 0.6395 0.9300
C2 C 0.28421(13) 0.63430(9) 1.03132(10)
H3 H 0.2831 0.6838 1.0672
H4 H 0.2548 0.5906 1.0627
C3 C 0.47670(13) 0.67017(8) 1.06300(9)
H5 H 0.4529 0.7188 1.0841
C4 C 0.59917(13) 0.65986(8) 1.06822(9)
C5 C 0.63773(14) 0.59332(8) 1.02910(11)
H6 H 0.5846 0.5537 0.9976
C6 C 0.75403(14) 0.58568(9) 1.03668(11)
H7 H 0.7805 0.5406 1.0104
C7 C 0.83204(13) 0.64371(8) 1.08256(10)
C8 C 0.79435(13) 0.70949(8) 1.12229(10)
H8 H 0.8478 0.7488 1.1544
C9 C 0.67834(13) 0.71725(8) 1.11466(10)
H9 H 0.6524 0.7623 1.1414
C10 C 0.95716(15) 0.63703(10) 1.09051(11)
C11 C 0.16088(12) 0.78409(9) 0.92016(11)
H10 H 0.1572 0.7724 0.9848
H11 H 0.0810 0.7853 0.8776
C12 C 0.21592(12) 0.86531(9) 0.91957(11)
H12 H 0.2363 0.8723 0.8599
H13 H 0.1601 0.9074 0.9229
C13 C 0.41186(11) 0.89230(8) 0.98219(10)
H14 H 0.4115 0.8991 0.9183
C14 C 0.52030(11) 0.90453(7) 1.05814(9)
C15 C 0.52241(12) 0.90475(8) 1.15348(10)
H15 H 0.4528 0.8978 1.1698
C16 C 0.62497(12) 0.91504(8) 1.22361(10)
H16 H 0.6258 0.9158 1.2881
C17 C 0.72748(12) 0.92430(8) 1.19979(9)
C18 C 0.72639(12) 0.92538(8) 1.10566(10)
H17 H 0.7961 0.9323 1.0895
C19 C 0.62285(11) 0.91628(8) 1.03542(9)
H18 H 0.6218 0.9181 0.9709
C20 C 0.83842(13) 0.93034(9) 1.27753(10)
C21 C 0.19421(12) 0.71582(9) 0.78657(10)
H19 H 0.1711 0.7692 0.7594
H20 H 0.1274 0.6798 0.7634
C22 C 0.29352(12) 0.68560(9) 0.75289(10)
H21 H 0.3302 0.6396 0.7919
H22 H 0.2640 0.6677 0.6864
C23 C 0.47850(12) 0.73709(8) 0.81489(9)
H23 H 0.4940 0.6896 0.8512
C24 C 0.57204(11) 0.79547(8) 0.82432(9)
C25 C 0.68481(12) 0.77504(8) 0.87375(10)
H24 H 0.7002 0.7244 0.9032
C26 C 0.77484(12) 0.82764(9) 0.88046(10)
H25 H 0.8515 0.8131 0.9140
C27 C 0.75196(12) 0.90175(8) 0.83769(10)
C28 C 0.63976(12) 0.92351(8) 0.78881(9)
H26 H 0.6247 0.9744 0.7600
C29 C 0.54996(12) 0.87073(8) 0.78224(9)
H27 H 0.4733 0.8856 0.7491
C30 C 0.84752(13) 0.96007(9) 0.84654(11)
N1 N 0.22494(10) 0.72055(7) 0.88975(8)
N2 N 0.40212(11) 0.61670(7) 1.03153(8)
N3 N 0.31932(10) 0.87301(7) 0.99969(9)
N4 N 0.37851(10) 0.74838(7) 0.75998(8)
F1 F 0.98181(9) 0.57672(7) 1.04140(8)
F2 F 1.02224(9) 0.62706(7) 1.18035(7)
F3 F 0.99820(10) 0.70294(7) 1.06043(10)
F4 F 0.86836(10) 0.86046(7) 1.32113(9)
F5 F 0.83111(9) 0.98124(8) 1.34449(7)
F6 F 0.92648(8) 0.95346(7) 1.24801(7)
F7 F 0.9504(4) 0.9293(4) 0.8661(5)
F8 F 0.8472(4) 1.0170(2) 0.9086(4)
F9 F 0.8331(4) 1.0015(3) 0.7641(2)
F10? F 0.9377(9) 0.9221(8) 0.8331(10)
F11? F 0.8911(12) 0.9834(10) 0.9385(5)
F12? F 0.8273(7) 1.0205(5) 0.7973(11)
loop_
_geom_bond_atom_site_label_1
_geom_bond_atom_site_label_2
_geom_bond_site_symmetry_1
_geom_bond_site_symmetry_2
C1 H1 1_555 1_555
H2 C1 1_555 1_555
C2 C1 1_555 1_555
H3 C2 1_555 1_555
H4 C2 1_555 1_555
C3 H5 1_555 1_555
C4 C3 1_555 1_555
C5 C4 1_555 1_555
H6 C5 1_555 1_555
C6 C5 1_555 1_555
H7 C6 1_555 1_555
C7 C6 1_555 1_555
C8 C7 1_555 1_555
H8 C8 1_555 1_555
C9 C4 1_555 1_555
H9 C9 1_555 1_555
C10 C7 1_555 1_555
C11 H10 1_555 1_555
H11 C11 1_555 1_555
C12 C11 1_555 1_555
H12 C12 1_555 1_555
H13 C12 1_555 1_555
C13 H14 1_555 1_555
C14 C13 1_555 1_555
C15 C14 1_555 1_555
H15 C15 1_555 1_555
C16 C15 1_555 1_555
H16 C16 1_555 1_555
C17 C16 1_555 1_555
C18 C17 1_555 1_555
H17 C18 1_555 1_555
C19 C14 1_555 1_555
H18 C19 1_555 1_555
C20 C17 1_555 1_555
C21 H19 1_555 1_555
H20 C21 1_555 1_555
C22 C21 1_555 1_555
H21 C22 1_555 1_555
H22 C22 1_555 1_555
C23 H23 1_555 1_555
C24 C23 1_555 1_555
C25 C24 1_555 1_555
H24 C25 1_555 1_555
C26 C25 1_555 1_555
H25 C26 1_555 1_555
C27 C26 1_555 1_555
C28 C27 1_555 1_555
H26 C28 1_555 1_555
C29 C24 1_555 1_555
H27 C29 1_555 1_555
C30 C27 1_555 1_555
N1 C1 1_555 1_555
N2 C2 1_555 1_555
N3 C12 1_555 1_555
N4 C22 1_555 1_555
F1 C10 1_555 1_555
F2 C10 1_555 1_555
F3 C10 1_555 1_555
F4 C20 1_555 1_555
F5 C20 1_555 1_555
F6 C20 1_555 1_555
F7 C30 1_555 1_555
F8 C30 1_555 1_555
F9 C30 1_555 1_555
C3 N2 1_555 1_555
C8 C9 1_555 1_555
C11 N1 1_555 1_555
C13 N3 1_555 1_555
C18 C19 1_555 1_555
C21 N1 1_555 1_555
C23 N4 1_555 1_555
C28 C29 1_555 1_555

#END
