
#######################################################################
#
#                 Cambridge Crystallographic Data Centre
#                                CCDC 
#
#######################################################################
#
# If this CIF has been generated from an entry in the Cambridge 
# Structural Database, then it will include bibliographic, chemical, 
# crystal, experimental, refinement or atomic coordinate data resulting 
# from the CCDC's data processing and validation procedures.
#
#######################################################################

data_XUVDIC
_chemical_formula_moiety         'C40 H68 N2 P2'
_chemical_name_systematic        
N-t-Butyl-1,3-bis(2,4,6-tri-t-butylphenyl)azadiphosphiridin-2-amine
_symmetry_cell_setting           triclinic
_symmetry_space_group_name_H-M   'P -1'
_symmetry_Int_Tables_number      2
_space_group_name_Hall           '-P 1'
loop_
_symmetry_equiv_pos_site_id
_symmetry_equiv_pos_as_xyz
1 x,y,z
2 -x,-y,-z
_cell_length_a                   11.352(4)
_cell_length_b                   18.936(3)
_cell_length_c                   19.89(2)
_cell_angle_alpha                80.40(1)
_cell_angle_beta                 83.09(2)
_cell_angle_gamma                81.55(2)
_cell_volume                     4149.78
_exptl_crystal_colour            'pale yellow'
_exptl_crystal_description       plates
_cell_formula_units_Z            4
loop_
_atom_site_label
_atom_site_type_symbol
_atom_site_fract_x
_atom_site_fract_y
_atom_site_fract_z
P1 P 0.51752(18) -0.07288(10) 0.25888(9)
P2 P 0.57183(19) -0.04624(11) 0.35149(9)
N1 N 0.6112(5) -0.0108(3) 0.2688(3)
N2 N 0.6712(6) -0.1168(3) 0.3789(3)
H1 H 0.6945 -0.1474 0.3510
C1 C 0.6728(6) 0.0438(4) 0.2243(3)
C2 C 0.7637(6) 0.0225(4) 0.1733(3)
C3 C 0.7932(7) 0.0763(4) 0.1177(3)
H2 H 0.8475 0.0623 0.0819
C4 C 0.7463(6) 0.1481(4) 0.1134(3)
C5 C 0.6749(6) 0.1672(4) 0.1710(4)
H3 H 0.6495 0.2160 0.1722
C6 C 0.6394(6) 0.1184(4) 0.2266(3)
C7 C 0.8434(6) -0.0508(4) 0.1748(3)
C8 C 0.7762(12) -0.1143(6) 0.1718(8)
H4 H 0.8316 -0.1580 0.1733
H5 H 0.7385 -0.1060 0.1300
H6 H 0.7164 -0.1190 0.2102
C9 C 0.8980(12) -0.0677(7) 0.2446(5)
H7 H 0.9484 -0.1132 0.2473
H8 H 0.8347 -0.0700 0.2813
H9 H 0.9444 -0.0303 0.2484
C10 C 0.9489(11) -0.0516(8) 0.1201(7)
H10 H 0.9945 -0.0987 0.1245
H11 H 0.9988 -0.0166 0.1255
H12 H 0.9201 -0.0399 0.0756
C11 C 0.7730(6) 0.2024(4) 0.0494(4)
C12 C 0.7360(14) 0.1779(8) -0.0127(6)
H13 H 0.7532 0.2122 -0.0527
H14 H 0.6517 0.1744 -0.0063
H15 H 0.7795 0.1315 -0.0184
C13 C 0.9039(10) 0.2110(9) 0.0389(8)
H16 H 0.9190 0.2453 -0.0015
H17 H 0.9502 0.1652 0.0334
H18 H 0.9261 0.2278 0.0779
C14 C 0.7038(13) 0.2768(6) 0.0541(7)
H19 H 0.7234 0.3092 0.0131
H20 H 0.7249 0.2945 0.0930
H21 H 0.6195 0.2735 0.0593
C15 C 0.5677(7) 0.1503(4) 0.2899(4)
C16 C 0.5541(8) 0.2321(4) 0.2803(5)
H22 H 0.6318 0.2479 0.2710
H23 H 0.5142 0.2486 0.3212
H24 H 0.5079 0.2514 0.2425
C17 C 0.4414(7) 0.1287(5) 0.3043(4)
H25 H 0.4460 0.0770 0.3108
H26 H 0.3965 0.1491 0.2662
H27 H 0.4025 0.1464 0.3449
C18 C 0.6401(7) 0.1231(4) 0.3520(4)
H28 H 0.6507 0.0713 0.3600
H29 H 0.5978 0.1410 0.3917
H30 H 0.7169 0.1401 0.3428
C19 C 0.3597(7) -0.0254(3) 0.2571(3)
C20 C 0.2767(7) -0.0317(4) 0.3159(4)
C21 C 0.1839(7) 0.0248(4) 0.3222(4)
H31 H 0.1334 0.0227 0.3627
C22 C 0.1626(7) 0.0832(4) 0.2721(4)
C23 C 0.2294(8) 0.0789(4) 0.2096(4)
H32 H 0.2095 0.1137 0.1725
C24 C 0.3257(6) 0.0246(4) 0.1991(4)
C25 C 0.2683(7) -0.0993(4) 0.3701(4)
C26 C 0.3563(9) -0.1660(4) 0.3556(5)
H33 H 0.3481 -0.1762 0.3108
H34 H 0.3391 -0.2067 0.3893
H35 H 0.4366 -0.1567 0.3575
C27 C 0.2844(9) -0.0854(5) 0.4415(4)
H36 H 0.2302 -0.0439 0.4521
H37 H 0.3652 -0.0767 0.4429
H38 H 0.2678 -0.1268 0.4745
C28 C 0.1431(8) -0.1218(5) 0.3693(5)
H39 H 0.0829 -0.0822 0.3780
H40 H 0.1324 -0.1626 0.4042
H41 H 0.1362 -0.1345 0.3253
C29 C 0.0676(7) 0.1476(4) 0.2829(4)
C30 C 0.1186(14) 0.2166(6) 0.2843(9)
H42 H 0.0544 0.2547 0.2906
H43 H 0.1658 0.2292 0.2417
H44 H 0.1680 0.2097 0.3213
C31 C -0.0236(12) 0.1583(8) 0.2305(7)
H45 H -0.0818 0.1992 0.2378
H46 H -0.0629 0.1159 0.2356
H47 H 0.0166 0.1665 0.1851
C32 C -0.0074(14) 0.1316(9) 0.3535(6)
H48 H -0.0670 0.1721 0.3598
H49 H 0.0444 0.1233 0.3895
H50 H -0.0458 0.0894 0.3546
C33 C 0.3783(7) 0.0228(4) 0.1247(4)
C34 C 0.2827(11) 0.0196(8) 0.0782(6)
H51 H 0.3188 0.0191 0.0320
H52 H 0.2234 0.0612 0.0796
H53 H 0.2455 -0.0234 0.0935
C35 C 0.4300(14) 0.0957(7) 0.0981(7)
H54 H 0.4639 0.0961 0.0515
H55 H 0.4909 0.1004 0.1260
H56 H 0.3669 0.1352 0.1006
C36 C 0.4834(12) -0.0346(7) 0.1123(7)
H57 H 0.5092 -0.0302 0.0642
H58 H 0.4594 -0.0816 0.1281
H59 H 0.5480 -0.0284 0.1369
C37 C 0.7227(7) -0.1326(4) 0.4442(4)
C38 C 0.8441(11) -0.1785(8) 0.4390(8)
H60 H 0.8390 -0.2187 0.4162
H61 H 0.8679 -0.1959 0.4841
H62 H 0.9021 -0.1498 0.4132
C39 C 0.7162(17) -0.0671(8) 0.4791(8)
H63 H 0.6362 -0.0422 0.4803
H64 H 0.7706 -0.0355 0.4541
H65 H 0.7378 -0.0821 0.5250
C40 C 0.6364(13) -0.1830(8) 0.4909(7)
H66 H 0.6386 -0.2265 0.4718
H67 H 0.5562 -0.1583 0.4931
H68 H 0.6620 -0.1947 0.5362
P3 P 0.03407(17) 0.45934(10) 0.64801(8)
P4 P 0.09092(17) 0.56356(9) 0.65004(8)
N3 N 0.1316(5) 0.4842(3) 0.6999(2)
N4 N 0.1892(5) 0.5759(3) 0.5811(3)
H69 H 0.2171 0.5385 0.5621
C41 C 0.1921(6) 0.4491(3) 0.7586(3)
C42 C 0.1557(6) 0.4699(3) 0.8254(3)
C43 C 0.1902(7) 0.4208(4) 0.8818(3)
H70 H 0.1638 0.4326 0.9252
C44 C 0.2616(6) 0.3552(4) 0.8778(3)
C45 C 0.3098(6) 0.3432(4) 0.8134(3)
H71 H 0.3643 0.3020 0.8095
C46 C 0.2817(6) 0.3895(3) 0.7531(3)
C47 C 0.0890(7) 0.5447(4) 0.8367(3)
C48 C 0.1665(7) 0.6031(4) 0.7995(4)
H72 H 0.2451 0.5928 0.8149
H73 H 0.1301 0.6497 0.8097
H74 H 0.1723 0.6031 0.7510
C49 C 0.0776(9) 0.5545(4) 0.9128(4)
H75 H 0.1556 0.5465 0.9288
H76 H 0.0289 0.5205 0.9394
H77 H 0.0411 0.6027 0.9175
C50 C -0.0365(7) 0.5584(4) 0.8146(4)
H78 H -0.0333 0.5530 0.7673
H79 H -0.0716 0.6065 0.8206
H80 H -0.0841 0.5242 0.8420
C51 C 0.2855(8) 0.3011(4) 0.9420(4)
C52 C 0.1749(12) 0.2675(7) 0.9695(6)
H81 H 0.1483 0.2463 0.9343
H82 H 0.1134 0.3038 0.9840
H83 H 0.1921 0.2308 1.0078
C53 C 0.3317(15) 0.3344(6) 0.9939(6)
H84 H 0.4026 0.3551 0.9742
H85 H 0.3503 0.2982 1.0324
H86 H 0.2720 0.3715 1.0088
C54 C 0.3797(12) 0.2379(6) 0.9272(6)
H87 H 0.3542 0.2140 0.8936
H88 H 0.3897 0.2044 0.9686
H89 H 0.4543 0.2555 0.9101
C55 C 0.3624(6) 0.3739(3) 0.6876(3)
C56 C 0.3501(13) 0.4285(7) 0.6231(5)
H90 H 0.4051 0.4123 0.5865
H91 H 0.3677 0.4743 0.6311
H92 H 0.2698 0.4337 0.6107
C57 C 0.4954(8) 0.3585(7) 0.6995(6)
H93 H 0.5422 0.3493 0.6576
H94 H 0.5079 0.3170 0.7341
H95 H 0.5193 0.3996 0.7142
C58 C 0.3334(13) 0.3023(6) 0.6681(7)
H96 H 0.3827 0.2918 0.6274
H97 H 0.2507 0.3075 0.6601
H98 H 0.3491 0.2635 0.7050
C59 C -0.1200(6) 0.4640(3) 0.6942(3)
C60 C -0.2066(6) 0.5257(4) 0.6821(3)
C61 C -0.2965(6) 0.5404(4) 0.7340(3)
H99 H -0.3496 0.5826 0.7269
C62 C -0.3098(6) 0.4954(4) 0.7948(3)
C63 C -0.2417(6) 0.4287(4) 0.7992(3)
H100 H -0.2590 0.3940 0.8366
C64 C -0.1476(6) 0.4104(3) 0.7503(3)
C65 C -0.2201(7) 0.5771(4) 0.6121(3)
C66 C -0.1376(7) 0.5520(5) 0.5510(3)
H101 H -0.1476 0.5032 0.5479
H102 H -0.0559 0.5542 0.5576
H103 H -0.1579 0.5829 0.5095
C67 C -0.2051(8) 0.6535(4) 0.6171(4)
H104 H -0.1257 0.6551 0.6283
H105 H -0.2625 0.6708 0.6522
H106 H -0.2176 0.6835 0.5740
C68 C -0.3483(8) 0.5758(6) 0.5940(4)
H107 H -0.3590 0.5272 0.5905
H108 H -0.3604 0.6062 0.5510
H109 H -0.4053 0.5931 0.6292
C69 C -0.4015(6) 0.5147(3) 0.8550(3)
C70 C -0.3413(12) 0.4996(7) 0.9223(5)
H110 H -0.3055 0.4501 0.9298
H111 H -0.4002 0.5087 0.9598
H112 H -0.2806 0.5307 0.9193
C71 C -0.5015(11) 0.4661(7) 0.8637(7)
H113 H -0.4670 0.4163 0.8706
H114 H -0.5432 0.4757 0.8233
H115 H -0.5566 0.4759 0.9026
C72 C -0.4582(13) 0.5932(5) 0.8446(7)
H116 H -0.5142 0.6021 0.8834
H117 H -0.4990 0.6029 0.8039
H118 H -0.3969 0.6241 0.8400
C73 C -0.0936(6) 0.3308(4) 0.7599(3)
C74 C -0.1921(10) 0.2824(6) 0.7670(7)
H119 H -0.1572 0.2327 0.7729
H120 H -0.2337 0.2930 0.7265
H121 H -0.2474 0.2911 0.8061
C75 C -0.0350(12) 0.3143(7) 0.8292(6)
H122 H -0.0006 0.2645 0.8367
H123 H -0.0950 0.3236 0.8662
H124 H 0.0264 0.3446 0.8273
C76 C 0.0070(11) 0.3080(7) 0.7071(6)
H125 H 0.0331 0.2572 0.7182
H126 H 0.0727 0.3346 0.7072
H127 H -0.0214 0.3177 0.6625
C77 C 0.2325(6) 0.6440(4) 0.5498(3)
C78 C 0.1296(12) 0.7025(7) 0.5323(8)
H128 H 0.0786 0.7101 0.5733
H129 H 0.0845 0.6878 0.5004
H130 H 0.1607 0.7465 0.5122
C79 C 0.3165(12) 0.6318(8) 0.4862(6)
H131 H 0.3815 0.5952 0.4984
H132 H 0.3475 0.6760 0.4664
H133 H 0.2737 0.6166 0.4535
C80 C 0.3017(14) 0.6679(8) 0.6018(7)
H134 H 0.3680 0.6317 0.6128
H135 H 0.2497 0.6742 0.6427
H136 H 0.3310 0.7127 0.5825
C81? C 0.9760(9) -0.0387(9) 0.1614(10)
C82? C 0.6608(13) 0.2312(10) 0.0150(9)
C83? C 0.8661(16) 0.1692(10) -0.0014(8)
C84? C 0.8244(18) 0.2652(8) 0.0680(9)
C85? C 0.4153(15) 0.4452(7) 0.6571(8)
C86? C 0.4699(12) 0.3167(8) 0.7015(8)
C87? C 0.2997(15) 0.3554(10) 0.6308(7)
C88? C 0.1060(17) 0.2142(8) 0.2325(10)
C89? C -0.3738(15) 0.4668(8) 0.9225(6)
C90? C -0.0533(11) 0.1364(10) 0.2644(10)
C91? C -0.5269(10) 0.5078(10) 0.8380(9)
C92? C 0.0613(19) 0.1688(11) 0.3536(7)
C93? C -0.3982(16) 0.5934(6) 0.8641(9)
C94? C 0.2900(13) 0.0590(9) 0.0732(7)
C95? C -0.1768(13) 0.2818(7) 0.8052(8)
C96? C 0.5008(12) 0.0460(11) 0.1035(9)
C97? C 0.0325(10) 0.3161(8) 0.7811(9)
C98? C 0.3947(18) -0.0583(6) 0.1127(9)
C99? C -0.0832(16) 0.3055(8) 0.6876(6)
C100? C 0.8048(16) -0.2044(8) 0.4476(10)
C101? C 0.1457(15) 0.6816(9) 0.4980(9)
C102? C 0.8067(17) -0.0729(9) 0.4394(11)
C103? C 0.3567(11) 0.6273(10) 0.5130(9)
C104? C 0.6315(16) -0.1246(12) 0.5048(7)
C105? C 0.2372(19) 0.6924(9) 0.6025(8)
C106? C 0.8186(17) -0.0873(9) 0.1151(8)
C107? C 0.8301(16) -0.1040(8) 0.2402(7)
H137? H 1.0255 -0.0846 0.1627
H138? H 0.9956 -0.0138 0.1959
H139? H 0.9897 -0.0104 0.1171
H140? H 0.6793 0.2653 -0.0250
H141? H 0.6030 0.2547 0.0462
H142? H 0.6284 0.1920 0.0019
H143? H 0.8809 0.2047 -0.0409
H144? H 0.8373 0.1292 -0.0153
H145? H 0.9390 0.1526 0.0196
H146? H 0.8409 0.2988 0.0273
H147? H 0.8971 0.2476 0.0889
H148? H 0.7677 0.2889 0.0995
H149? H 0.4663 0.4383 0.6159
H150? H 0.4610 0.4580 0.6898
H151? H 0.3513 0.4832 0.6467
H152? H 0.5163 0.3095 0.6590
H153? H 0.4425 0.2721 0.7234
H154? H 0.5185 0.3326 0.7309
H155? H 0.3572 0.3470 0.5925
H156? H 0.2401 0.3948 0.6167
H157? H 0.2623 0.3127 0.6472
H158? H 0.0477 0.2556 0.2377
H159? H 0.1117 0.2044 0.1863
H160? H 0.1825 0.2237 0.2423
H161? H -0.4328 0.4803 0.9585
H162? H -0.2960 0.4730 0.9331
H163? H -0.3752 0.4172 0.9183
H164? H -0.1102 0.1781 0.2711
H165? H -0.0797 0.0945 0.2930
H166? H -0.0466 0.1296 0.2172
H167? H -0.5430 0.5383 0.7956
H168? H -0.5850 0.5222 0.8740
H169? H -0.5313 0.4586 0.8337
H170? H 0.0009 0.2096 0.3573
H171? H 0.1374 0.1813 0.3605
H172? H 0.0414 0.1290 0.3877
H173? H -0.4174 0.6249 0.8227
H174? H -0.3196 0.5989 0.8739
H175? H -0.4555 0.6056 0.9014
H176? H 0.3273 0.0571 0.0275
H177? H 0.2666 0.1085 0.0795
H178? H 0.2205 0.0342 0.0804
H179? H -0.1390 0.2327 0.8095
H180? H -0.2504 0.2857 0.7849
H181? H -0.1931 0.2964 0.8498
H182? H 0.5231 0.0422 0.0561
H183? H 0.5580 0.0154 0.1308
H184? H 0.4990 0.0952 0.1103
H185? H 0.0592 0.2652 0.7857
H186? H 0.0335 0.3325 0.8241
H187? H 0.0849 0.3413 0.7468
H188? H 0.4283 -0.0616 0.0665
H189? H 0.3183 -0.0759 0.1203
H190? H 0.4474 -0.0869 0.1441
H191? H -0.0497 0.2556 0.6913
H192? H -0.0322 0.3341 0.6556
H193? H -0.1612 0.3114 0.6718
H194? H 0.8639 -0.2024 0.4088
H195? H 0.7583 -0.2427 0.4473
H196? H 0.8437 -0.2130 0.4890
H197? H 0.1437 0.6511 0.4642
H198? H 0.1718 0.7265 0.4760
H199? H 0.0671 0.6907 0.5212
H200? H 0.8663 -0.0768 0.4012
H201? H 0.8450 -0.0793 0.4808
H202? H 0.7601 -0.0261 0.4332
H203? H 0.3533 0.5957 0.4804
H204? H 0.4112 0.6042 0.5458
H205? H 0.3840 0.6714 0.4896
H206? H 0.5859 -0.0776 0.4981
H207? H 0.6715 -0.1304 0.5456
H208? H 0.5788 -0.1608 0.5093
H209? H 0.2909 0.6685 0.6354
H210? H 0.1586 0.7028 0.6254
H211? H 0.2650 0.7367 0.5801
H212? H 0.8680 -0.1331 0.1158
H213? H 0.8365 -0.0570 0.0724
H214? H 0.7359 -0.0946 0.1199
H215? H 0.8837 -0.1475 0.2357
H216? H 0.7492 -0.1149 0.2485
H217? H 0.8489 -0.0833 0.2778
loop_
_geom_bond_atom_site_label_1
_geom_bond_atom_site_label_2
_geom_bond_site_symmetry_1
_geom_bond_site_symmetry_2
P1 P2 1_555 1_555
P2 N1 1_555 1_555
N1 P1 1_555 1_555
N2 P2 1_555 1_555
H1 N2 1_555 1_555
C1 N1 1_555 1_555
C2 C1 1_555 1_555
C3 C2 1_555 1_555
H2 C3 1_555 1_555
C4 C3 1_555 1_555
C5 C4 1_555 1_555
H3 C5 1_555 1_555
C6 C1 1_555 1_555
C7 C2 1_555 1_555
C8 C7 1_555 1_555
H4 C8 1_555 1_555
H5 C8 1_555 1_555
H6 C8 1_555 1_555
C9 C7 1_555 1_555
H7 C9 1_555 1_555
H8 C9 1_555 1_555
H9 C9 1_555 1_555
C10 C7 1_555 1_555
H10 C10 1_555 1_555
H11 C10 1_555 1_555
H12 C10 1_555 1_555
C11 C4 1_555 1_555
C12 C11 1_555 1_555
H13 C12 1_555 1_555
H14 C12 1_555 1_555
H15 C12 1_555 1_555
C13 C11 1_555 1_555
H16 C13 1_555 1_555
H17 C13 1_555 1_555
H18 C13 1_555 1_555
C14 C11 1_555 1_555
H19 C14 1_555 1_555
H20 C14 1_555 1_555
H21 C14 1_555 1_555
C15 C6 1_555 1_555
C16 C15 1_555 1_555
H22 C16 1_555 1_555
H23 C16 1_555 1_555
H24 C16 1_555 1_555
C17 C15 1_555 1_555
H25 C17 1_555 1_555
H26 C17 1_555 1_555
H27 C17 1_555 1_555
C18 C15 1_555 1_555
H28 C18 1_555 1_555
H29 C18 1_555 1_555
H30 C18 1_555 1_555
C19 P1 1_555 1_555
C20 C19 1_555 1_555
C21 C20 1_555 1_555
H31 C21 1_555 1_555
C22 C21 1_555 1_555
C23 C22 1_555 1_555
H32 C23 1_555 1_555
C24 C19 1_555 1_555
C25 C20 1_555 1_555
C26 C25 1_555 1_555
H33 C26 1_555 1_555
H34 C26 1_555 1_555
H35 C26 1_555 1_555
C27 C25 1_555 1_555
H36 C27 1_555 1_555
H37 C27 1_555 1_555
H38 C27 1_555 1_555
C28 C25 1_555 1_555
H39 C28 1_555 1_555
H40 C28 1_555 1_555
H41 C28 1_555 1_555
C29 C22 1_555 1_555
C30 C29 1_555 1_555
H42 C30 1_555 1_555
H43 C30 1_555 1_555
H44 C30 1_555 1_555
C31 C29 1_555 1_555
H45 C31 1_555 1_555
H46 C31 1_555 1_555
H47 C31 1_555 1_555
C32 C29 1_555 1_555
H48 C32 1_555 1_555
H49 C32 1_555 1_555
H50 C32 1_555 1_555
C33 C24 1_555 1_555
C34 C33 1_555 1_555
H51 C34 1_555 1_555
H52 C34 1_555 1_555
H53 C34 1_555 1_555
C35 C33 1_555 1_555
H54 C35 1_555 1_555
H55 C35 1_555 1_555
H56 C35 1_555 1_555
C36 C33 1_555 1_555
H57 C36 1_555 1_555
H58 C36 1_555 1_555
H59 C36 1_555 1_555
C37 N2 1_555 1_555
C38 C37 1_555 1_555
H60 C38 1_555 1_555
H61 C38 1_555 1_555
H62 C38 1_555 1_555
C39 C37 1_555 1_555
H63 C39 1_555 1_555
H64 C39 1_555 1_555
H65 C39 1_555 1_555
C40 C37 1_555 1_555
H66 C40 1_555 1_555
H67 C40 1_555 1_555
H68 C40 1_555 1_555
P3 P4 1_555 1_555
P4 N3 1_555 1_555
N3 P3 1_555 1_555
N4 P4 1_555 1_555
H69 N4 1_555 1_555
C41 N3 1_555 1_555
C42 C41 1_555 1_555
C43 C42 1_555 1_555
H70 C43 1_555 1_555
C44 C43 1_555 1_555
C45 C44 1_555 1_555
H71 C45 1_555 1_555
C46 C41 1_555 1_555
C47 C42 1_555 1_555
C48 C47 1_555 1_555
H72 C48 1_555 1_555
H73 C48 1_555 1_555
H74 C48 1_555 1_555
C49 C47 1_555 1_555
H75 C49 1_555 1_555
H76 C49 1_555 1_555
H77 C49 1_555 1_555
C50 C47 1_555 1_555
H78 C50 1_555 1_555
H79 C50 1_555 1_555
H80 C50 1_555 1_555
C51 C44 1_555 1_555
C52 C51 1_555 1_555
H81 C52 1_555 1_555
H82 C52 1_555 1_555
H83 C52 1_555 1_555
C53 C51 1_555 1_555
H84 C53 1_555 1_555
H85 C53 1_555 1_555
H86 C53 1_555 1_555
C54 C51 1_555 1_555
H87 C54 1_555 1_555
H88 C54 1_555 1_555
H89 C54 1_555 1_555
C55 C46 1_555 1_555
C56 C55 1_555 1_555
H90 C56 1_555 1_555
H91 C56 1_555 1_555
H92 C56 1_555 1_555
C57 C55 1_555 1_555
H93 C57 1_555 1_555
H94 C57 1_555 1_555
H95 C57 1_555 1_555
C58 C55 1_555 1_555
H96 C58 1_555 1_555
H97 C58 1_555 1_555
H98 C58 1_555 1_555
C59 P3 1_555 1_555
C60 C59 1_555 1_555
C61 C60 1_555 1_555
H99 C61 1_555 1_555
C62 C61 1_555 1_555
C63 C62 1_555 1_555
H100 C63 1_555 1_555
C64 C59 1_555 1_555
C65 C60 1_555 1_555
C66 C65 1_555 1_555
H101 C66 1_555 1_555
H102 C66 1_555 1_555
H103 C66 1_555 1_555
C67 C65 1_555 1_555
H104 C67 1_555 1_555
H105 C67 1_555 1_555
H106 C67 1_555 1_555
C68 C65 1_555 1_555
H107 C68 1_555 1_555
H108 C68 1_555 1_555
H109 C68 1_555 1_555
C69 C62 1_555 1_555
C70 C69 1_555 1_555
H110 C70 1_555 1_555
H111 C70 1_555 1_555
H112 C70 1_555 1_555
C71 C69 1_555 1_555
H113 C71 1_555 1_555
H114 C71 1_555 1_555
H115 C71 1_555 1_555
C72 C69 1_555 1_555
H116 C72 1_555 1_555
H117 C72 1_555 1_555
H118 C72 1_555 1_555
C73 C64 1_555 1_555
C74 C73 1_555 1_555
H119 C74 1_555 1_555
H120 C74 1_555 1_555
H121 C74 1_555 1_555
C75 C73 1_555 1_555
H122 C75 1_555 1_555
H123 C75 1_555 1_555
H124 C75 1_555 1_555
C76 C73 1_555 1_555
H125 C76 1_555 1_555
H126 C76 1_555 1_555
H127 C76 1_555 1_555
C77 N4 1_555 1_555
C78 C77 1_555 1_555
H128 C78 1_555 1_555
H129 C78 1_555 1_555
H130 C78 1_555 1_555
C79 C77 1_555 1_555
H131 C79 1_555 1_555
H132 C79 1_555 1_555
H133 C79 1_555 1_555
C80 C77 1_555 1_555
H134 C80 1_555 1_555
H135 C80 1_555 1_555
H136 C80 1_555 1_555
C5 C6 1_555 1_555
C23 C24 1_555 1_555
C45 C46 1_555 1_555
C63 C64 1_555 1_555

#END
