
#######################################################################
#
#                 Cambridge Crystallographic Data Centre
#                                CCDC 
#
#######################################################################
#
# If this CIF has been generated from an entry in the Cambridge 
# Structural Database, then it will include bibliographic, chemical, 
# crystal, experimental, refinement or atomic coordinate data resulting 
# from the CCDC's data processing and validation procedures.
#
#######################################################################

data_XUWDOK
_chemical_name_common            'Icariin acetone solvate'
_chemical_formula_moiety         '2(C33 H40 O15),C3 H6 O1'
_chemical_name_systematic        
'5-hydroxy-2-(4-methoxyphenyl)-8-(3-methylbut-2-en-1-yl)-7-((3,4,5-trihydroxy-6-(hydroxymethyl)tetrahydro-2H-pyran-2-yl)oxy)-3-((3,4,5-trihydroxy-6-methyltetrahydro-2H-pyran-2-yl)oxy)-4H-chromen-4-one acetone solvate'
_symmetry_cell_setting           orthorhombic
_symmetry_space_group_name_H-M   'P 21 21 21'
_symmetry_Int_Tables_number      19
_space_group_name_Hall           'P 2ac 2ab'
loop_
_symmetry_equiv_pos_site_id
_symmetry_equiv_pos_as_xyz
1 x,y,z
2 1/2+x,1/2-y,-z
3 -x,1/2+y,1/2-z
4 1/2-x,-y,1/2+z
_cell_length_a                   9.8352(6)
_cell_length_b                   22.9018(13)
_cell_length_c                   31.1702(16)
_cell_angle_alpha                90
_cell_angle_beta                 90
_cell_angle_gamma                90
_cell_volume                     7020.89
_exptl_crystal_colour            yellow
_exptl_crystal_description       prism
_cell_formula_units_Z            4
loop_
_atom_site_label
_atom_site_type_symbol
_atom_site_fract_x
_atom_site_fract_y
_atom_site_fract_z
O1 O 0.4432(3) 0.05213(12) 0.92410(9)
O2 O 0.5961(3) 0.05303(11) 0.86603(8)
O3 O 0.2899(3) 0.22171(11) 0.67575(8)
O4 O 0.2208(3) 0.16787(11) 0.61774(8)
O5 O -0.0376(3) 0.19439(12) 0.53574(9)
O6 O 0.2762(4) 0.02993(12) 0.73522(11)
H1 H 0.3088 0.0114 0.7552
H2 H -0.0719 0.2235 0.5221
O7 O 0.4299(4) 0.01080(12) 0.80055(10)
O8 O 0.7010(4) 0.02932(16) 1.00787(10)
H3 H 0.6627 0.0463 1.0276
O9 O 0.4686(3) -0.07252(11) 0.92106(9)
O10 O 0.5350(3) 0.18205(10) 0.80102(8)
O11 O 0.9014(4) 0.27507(15) 0.94832(12)
O12 O 0.1139(3) 0.31151(11) 0.65474(8)
H4 H 0.0370 0.3233 0.6494
H5 H 0.5229 -0.0975 0.9331
O13 O 0.2666(3) 0.11817(13) 0.53613(10)
H6 H 0.2899 0.0902 0.5215
C1 C 0.4424(6) 0.0945(2) 0.99301(16)
H7 H 0.3708 0.0681 1.0010
H8 H 0.4036 0.1295 0.9813
H9 H 0.4956 0.1040 1.0179
C2 C 0.5318(5) 0.06595(18) 0.95986(14)
H10 H 0.6007 0.0940 0.9503
C3 C 0.4995(4) 0.01995(17) 0.89040(13)
H11 H 0.4259 0.0078 0.8712
C4 C 0.5437(4) 0.08919(17) 0.83433(12)
C5 C 0.4592(5) 0.06354(17) 0.80139(13)
C6 C 0.4088(5) 0.10415(17) 0.76961(13)
C7 C 0.3199(5) 0.08582(19) 0.73712(14)
C8 C 0.2783(5) 0.12503(18) 0.70597(14)
H12 H 0.2193 0.1131 0.6844
C9 C 0.3239(5) 0.18124(17) 0.70707(13)
C10 C 0.1803(4) 0.21027(17) 0.64801(13)
H13 H 0.1006 0.1970 0.6641
C11 C 0.1125(4) 0.15244(16) 0.58960(12)
H14 H 0.0342 0.1404 0.6069
C12 C 0.1560(5) 0.10191(18) 0.56260(14)
H15 H 0.1826 0.0696 0.5809
H16 H 0.0805 0.0891 0.5449
C13 C 0.0724(4) 0.20679(17) 0.56344(12)
H17 H 0.1505 0.2183 0.5459
C14 C 0.6027(5) 0.01160(19) 0.97685(13)
H18 H 0.5359 -0.0145 0.9902
C15 C 0.6738(4) -0.01932(19) 0.94106(13)
C16 C 0.5729(4) -0.03379(17) 0.90581(12)
H19 H 0.6207 -0.0520 0.8817
C17 C 0.5792(4) 0.14597(17) 0.83327(12)
C18 C 0.4496(4) 0.16221(17) 0.76965(12)
C19 C 0.4102(4) 0.20290(16) 0.73886(13)
C20 C 0.4489(4) 0.26631(16) 0.74075(13)
H20 H 0.5293 0.2708 0.7585
H21 H 0.4710 0.2799 0.7121
C21 C 0.3366(5) 0.30282(18) 0.75868(14)
H22 H 0.2903 0.2866 0.7818
C22 C 0.2934(5) 0.35504(19) 0.74632(15)
C23 C 0.3542(6) 0.38915(19) 0.71086(16)
H23 H 0.4099 0.3640 0.6936
H24 H 0.4089 0.4200 0.7225
H25 H 0.2832 0.4055 0.6935
C24 C 0.1786(7) 0.3851(2) 0.7698(2)
H26 H 0.2129 0.4191 0.7842
H27 H 0.1401 0.3587 0.7905
H28 H 0.1098 0.3965 0.7496
C25 C 0.6666(4) 0.17821(17) 0.86378(13)
C26 C 0.7641(5) 0.15098(19) 0.88852(13)
H29 H 0.7762 0.1109 0.8859
C27 C 0.8441(5) 0.18165(19) 0.91706(14)
H30 H 0.9089 0.1621 0.9334
C28 C 0.8284(5) 0.2407(2) 0.92142(15)
C29 C 1.0026(6) 0.2476(2) 0.97421(19)
H31 H 1.0607 0.2243 0.9564
H32 H 0.9594 0.2232 0.9952
H33 H 1.0558 0.2769 0.9885
C30 C 0.7301(5) 0.2685(2) 0.89677(15)
H34 H 0.7181 0.3086 0.8995
C31 C 0.6512(5) 0.23821(19) 0.86860(15)
H35 H 0.5862 0.2579 0.8524
C32 C 0.1502(4) 0.26718(16) 0.62472(12)
H36 H 0.2319 0.2795 0.6092
C33 C 0.0376(4) 0.25698(17) 0.59309(12)
H37 H -0.0455 0.2472 0.6089
O14 O 0.7378(3) -0.07154(13) 0.95535(9)
H38 H 0.7243 -0.0757 0.9811
O15 O 0.0157(4) 0.30967(13) 0.57003(11)
H39 H 0.008(5) 0.303(2) 0.5478(15)
H40 H 0.746(4) 0.0053(15) 0.9291(11)
H41 H 0.3887 0.1793 0.5141
O16 O 1.2401(3) -0.04829(13) 0.96780(9)
H42 H 1.2991 -0.0645 0.9535
O17 O 0.9743(3) 0.03976(11) 0.91622(8)
O18 O 1.0741(3) 0.05392(11) 0.84946(8)
O19 O 0.7466(3) 0.22855(11) 0.66710(8)
O20 O 0.6948(3) 0.17157(11) 0.60941(8)
O21 O 0.9998(3) 0.18512(11) 0.78882(8)
O22 O 0.5069(4) 0.31002(11) 0.55081(9)
O23 O 0.5761(3) 0.31712(11) 0.63700(8)
H43 H 0.5653 0.3468 0.6226
H44 H 0.5413 0.3293 0.5295
O24 O 0.7203(4) 0.03667(12) 0.72661(10)
H45 H 0.7536 0.0177 0.7463
O25 O 0.8929(4) 0.01400(12) 0.78768(10)
O26 O 1.3805(5) 0.28349(18) 0.92756(13)
O27 O 0.9026(3) -0.07722(11) 0.88381(9)
H46 H 0.9254 -0.0983 0.9038
C34 C 1.1243(4) -0.03758(18) 0.94158(12)
H47 H 1.0467 -0.0583 0.9541
C35 C 1.0932(5) 0.02738(18) 0.94220(13)
H48 H 1.1712 0.0487 0.9305
C36 C 0.9779(4) 0.01963(16) 0.87376(13)
H49 H 0.8874 0.0248 0.8611
C37 C 1.0159(4) 0.09140(17) 0.81954(13)
C38 C 0.9253(5) 0.06670(18) 0.78818(13)
C39 C 0.8668(4) 0.10811(17) 0.75842(13)
C40 C 0.7701(5) 0.09157(18) 0.72743(13)
C41 C 0.7267(5) 0.13135(17) 0.69703(13)
H50 H 0.6636 0.1204 0.6763
C42 C 0.7783(4) 0.18784(17) 0.69767(12)
C43 C 0.6442(4) 0.21668(16) 0.63674(12)
H51 H 0.5595 0.2047 0.6508
C44 C 0.5956(5) 0.15488(16) 0.57821(12)
H52 H 0.5109 0.1452 0.5932
C45 C 0.5687(4) 0.20627(17) 0.54845(12)
H53 H 0.6539 0.2165 0.5340
C46 C 1.0607(5) 0.0509(2) 0.98602(14)
H54 H 0.9792 0.0328 0.9965
H55 H 1.0474 0.0924 0.9843
H56 H 1.1346 0.0426 1.0052
C47 C 1.0500(4) 0.14851(17) 0.81996(12)
C48 C 0.9091(4) 0.16578(17) 0.75835(12)
C49 C 0.8684(4) 0.20726(16) 0.72902(12)
C50 C 0.5225(5) 0.25861(16) 0.57517(12)
H57 H 0.4348 0.2491 0.5884
C51 C 0.6235(4) 0.27180(16) 0.61046(12)
H58 H 0.7103 0.2834 0.5976
C52 C 0.9114(5) 0.27031(16) 0.73300(12)
H59 H 1.0060 0.2721 0.7417
H60 H 0.9033 0.2892 0.7053
C53 C 0.8256(5) 0.30235(17) 0.76521(13)
H61 H 0.8126 0.2841 0.7915
C54 C 0.7670(5) 0.35345(19) 0.76012(14)
C55 C 0.7776(6) 0.3903(2) 0.72080(16)
H62 H 0.8157 0.3676 0.6979
H63 H 0.8353 0.4232 0.7265
H64 H 0.6888 0.4037 0.7127
C56 C 0.6778(6) 0.3794(2) 0.79446(17)
H65 H 0.6767 0.3540 0.8190
H66 H 0.5869 0.3838 0.7836
H67 H 0.7127 0.4169 0.8027
C57 C 1.1361(4) 0.18276(18) 0.84918(12)
C58 C 1.1142(5) 0.24230(19) 0.85212(14)
H68 H 1.0446 0.2589 0.8360
C59 C 1.1922(5) 0.2780(2) 0.87808(15)
H69 H 1.1753 0.3179 0.8797
C60 C 1.2950(6) 0.2529(2) 0.90138(16)
C61 C 1.3191(5) 0.1937(2) 0.89955(15)
H70 H 1.3884 0.1773 0.9159
C62 C 1.2400(5) 0.15872(19) 0.87341(13)
H71 H 1.2567 0.1188 0.8721
C63 C 1.0180(4) -0.04356(16) 0.86958(13)
H72 H 1.0362 -0.0524 0.8394
C64 C 1.1415(4) -0.05806(17) 0.89580(13)
H73 H 1.2177 -0.0360 0.8836
O28 O 1.1752(3) -0.11808(11) 0.89256(9)
H74 H 1.1786 -0.1324 0.9166
C65 C 1.3677(9) 0.3448(3) 0.9291(3)
H75 H 1.2854 0.3550 0.9439
H76 H 1.3648 0.3601 0.9004
H77 H 1.4441 0.3611 0.9440
O29 O 0.7741(3) 0.11083(14) 0.53623(10)
H78 H 0.8300 0.1208 0.5543
C66 C 0.6469(5) 0.10104(19) 0.55623(15)
H79 H 0.6560 0.0699 0.5771
H80 H 0.5814 0.0887 0.5348
O30 O 0.4706(3) 0.19220(12) 0.51689(8)
C67 C 1.046(2) 0.4689(6) 0.8878(7)
C68 C 0.9447(17) 0.4227(6) 0.8801(5)
H81 H 0.9409 0.4142 0.8500
H82 H 0.8570 0.4357 0.8897
H83 H 0.9704 0.3882 0.8956
C69 C 1.0134(15) 0.5081(5) 0.8470(4)
H84 H 1.0500 0.4897 0.8218
H85 H 1.0541 0.5459 0.8506
H86 H 0.9168 0.5123 0.8439
O31 O 1.124(2) 0.4789(13) 0.8971(7)
loop_
_geom_bond_atom_site_label_1
_geom_bond_atom_site_label_2
_geom_bond_site_symmetry_1
_geom_bond_site_symmetry_2
O1 C2 1_555 1_555
O2 C3 1_555 1_555
O3 C9 1_555 1_555
O4 C10 1_555 1_555
O5 H2 1_555 1_555
O6 H1 1_555 1_555
O7 C5 1_555 1_555
O8 H3 1_555 1_555
O9 H5 1_555 1_555
O10 C17 1_555 1_555
O11 C28 1_555 1_555
O12 H4 1_555 1_555
O13 H6 1_555 1_555
C1 H7 1_555 1_555
H8 C1 1_555 1_555
H9 C1 1_555 1_555
C2 C1 1_555 1_555
H10 C2 1_555 1_555
C3 O1 1_555 1_555
H11 C3 1_555 1_555
C4 O2 1_555 1_555
C5 C4 1_555 1_555
C6 C5 1_555 1_555
C7 O6 1_555 1_555
C8 C7 1_555 1_555
H12 C8 1_555 1_555
C9 C8 1_555 1_555
C10 O3 1_555 1_555
H13 C10 1_555 1_555
C11 O4 1_555 1_555
H14 C11 1_555 1_555
C12 O13 1_555 1_555
H15 C12 1_555 1_555
H16 C12 1_555 1_555
C13 O5 1_555 1_555
H17 C13 1_555 1_555
C14 O8 1_555 1_555
H18 C14 1_555 1_555
C15 C14 1_555 1_555
C16 O9 1_555 1_555
H19 C16 1_555 1_555
C17 C4 1_555 1_555
C18 O10 1_555 1_555
C19 C9 1_555 1_555
C20 C19 1_555 1_555
H20 C20 1_555 1_555
H21 C20 1_555 1_555
C21 C20 1_555 1_555
H22 C21 1_555 1_555
C22 C21 1_555 1_555
C23 C22 1_555 1_555
H23 C23 1_555 1_555
H24 C23 1_555 1_555
H25 C23 1_555 1_555
C24 C22 1_555 1_555
H26 C24 1_555 1_555
H27 C24 1_555 1_555
H28 C24 1_555 1_555
C25 C17 1_555 1_555
C26 C25 1_555 1_555
H29 C26 1_555 1_555
C27 C26 1_555 1_555
H30 C27 1_555 1_555
C28 C27 1_555 1_555
C29 O11 1_555 1_555
H31 C29 1_555 1_555
H32 C29 1_555 1_555
H33 C29 1_555 1_555
C30 C28 1_555 1_555
H34 C30 1_555 1_555
C31 C25 1_555 1_555
H35 C31 1_555 1_555
C32 O12 1_555 1_555
H36 C32 1_555 1_555
C33 C13 1_555 1_555
H37 C33 1_555 1_555
O14 C15 1_555 1_555
H38 O14 1_555 1_555
O15 C33 1_555 1_555
H39 O15 1_555 1_555
H40 C15 1_555 1_555
H41 O30 1_555 1_555
O16 H42 1_555 1_555
O17 C35 1_555 1_555
O18 C36 1_555 1_555
O19 C42 1_555 1_555
O20 C43 1_555 1_555
O21 C47 1_555 1_555
O22 H44 1_555 1_555
O23 H43 1_555 1_555
O24 H45 1_555 1_555
O25 C38 1_555 1_555
O26 C60 1_555 1_555
O27 H46 1_555 1_555
C34 O16 1_555 1_555
H47 C34 1_555 1_555
C35 C34 1_555 1_555
H48 C35 1_555 1_555
C36 O17 1_555 1_555
H49 C36 1_555 1_555
C37 O18 1_555 1_555
C38 C37 1_555 1_555
C39 C38 1_555 1_555
C40 O24 1_555 1_555
C41 C40 1_555 1_555
H50 C41 1_555 1_555
C42 C41 1_555 1_555
C43 O19 1_555 1_555
H51 C43 1_555 1_555
C44 O20 1_555 1_555
H52 C44 1_555 1_555
C45 C44 1_555 1_555
H53 C45 1_555 1_555
C46 C35 1_555 1_555
H54 C46 1_555 1_555
H55 C46 1_555 1_555
H56 C46 1_555 1_555
C47 C37 1_555 1_555
C48 O21 1_555 1_555
C49 C42 1_555 1_555
C50 O22 1_555 1_555
H57 C50 1_555 1_555
C51 O23 1_555 1_555
H58 C51 1_555 1_555
C52 C49 1_555 1_555
H59 C52 1_555 1_555
H60 C52 1_555 1_555
C53 C52 1_555 1_555
H61 C53 1_555 1_555
C54 C53 1_555 1_555
C55 C54 1_555 1_555
H62 C55 1_555 1_555
H63 C55 1_555 1_555
H64 C55 1_555 1_555
C56 C54 1_555 1_555
H65 C56 1_555 1_555
H66 C56 1_555 1_555
H67 C56 1_555 1_555
C57 C47 1_555 1_555
C58 C57 1_555 1_555
H68 C58 1_555 1_555
C59 C58 1_555 1_555
H69 C59 1_555 1_555
C60 C59 1_555 1_555
C61 C60 1_555 1_555
H70 C61 1_555 1_555
C62 C57 1_555 1_555
H71 C62 1_555 1_555
C63 O27 1_555 1_555
H72 C63 1_555 1_555
C64 C34 1_555 1_555
H73 C64 1_555 1_555
O28 C64 1_555 1_555
H74 O28 1_555 1_555
C65 O26 1_555 1_555
H75 C65 1_555 1_555
H76 C65 1_555 1_555
H77 C65 1_555 1_555
O29 H78 1_555 1_555
C66 C44 1_555 1_555
H79 C66 1_555 1_555
H80 C66 1_555 1_555
O30 C45 1_555 1_555
C67 C68 1_555 1_555
C68 H81 1_555 1_555
H82 C68 1_555 1_555
H83 C68 1_555 1_555
C69 C67 1_555 1_555
H84 C69 1_555 1_555
H85 C69 1_555 1_555
H86 C69 1_555 1_555
O31 C67 1_555 1_555
C2 C14 1_555 1_555
C3 C16 1_555 1_555
C6 C7 1_555 1_555
C6 C18 1_555 1_555
C10 C32 1_555 1_555
C11 C12 1_555 1_555
C11 C13 1_555 1_555
C15 C16 1_555 1_555
C18 C19 1_555 1_555
C30 C31 1_555 1_555
C32 C33 1_555 1_555
C36 C63 1_555 1_555
C39 C40 1_555 1_555
C39 C48 1_555 1_555
C43 C51 1_555 1_555
C45 C50 1_555 1_555
C48 C49 1_555 1_555
C50 C51 1_555 1_555
C61 C62 1_555 1_555
C63 C64 1_555 1_555
O29 C66 1_555 1_555

#END
