
#######################################################################
#
#                 Cambridge Crystallographic Data Centre
#                                CCDC 
#
#######################################################################
#
# If this CIF has been generated from an entry in the Cambridge 
# Structural Database, then it will include bibliographic, chemical, 
# crystal, experimental, refinement or atomic coordinate data resulting 
# from the CCDC's data processing and validation procedures.
#
#######################################################################

data_XUXGED
_chemical_formula_moiety         
'C36 H36 N24 O12,C17 H18 N4 2+,12(H2 O1),2(Br1 1-)'
_chemical_name_systematic        
'(2)-((1,5-bis(3-Cyanopyridinio)-n-pentane)-(cucurbit(6)uril)) pseudorotaxane dibromide dodecahydrate'
_symmetry_cell_setting           monoclinic
_symmetry_space_group_name_H-M   'C 2/c'
_symmetry_Int_Tables_number      15
_space_group_name_Hall           '-C 2yn'
loop_
_symmetry_equiv_pos_site_id
_symmetry_equiv_pos_as_xyz
1 x,y,z
2 -x,y,1/2-z
3 1/2+x,1/2+y,z
4 1/2-x,1/2+y,1/2-z
5 -x,-y,-z
6 x,-y,1/2+z
7 1/2-x,1/2-y,-z
8 1/2+x,1/2-y,1/2+z
_cell_length_a                   25.669(5)
_cell_length_b                   14.329(3)
_cell_length_c                   24.572(4)
_cell_angle_alpha                90
_cell_angle_beta                 117.913(9)
_cell_angle_gamma                90
_cell_volume                     7986.39
_exptl_crystal_colour            colorless
_cell_formula_units_Z            4
loop_
_atom_site_label
_atom_site_type_symbol
_atom_site_fract_x
_atom_site_fract_y
_atom_site_fract_z
Br1 Br 0.330493(18) 0.30076(3) 0.24929(2)
C1 C 0.59351(17) 0.3359(3) 0.66006(19)
C2 C 0.59998(15) 0.0543(3) 0.65602(18)
C3 C 0.46259(16) -0.0749(2) 0.66036(15)
C4 C 0.67436(15) 0.0654(3) 0.83661(18)
C5 C 0.67933(17) 0.3435(3) 0.83535(17)
C6 C 0.54569(19) 0.4764(2) 0.8390(2)
C7 C 0.53120(17) -0.1415(2) 0.75109(18)
H1 H 0.5457 -0.2053 0.7530
C8 C 0.52993(19) 0.5434(3) 0.74874(19)
H2 H 0.5429 0.6069 0.7464
C9 C 0.65307(18) 0.4198(3) 0.74380(18)
H3 H 0.6747 0.4741 0.7406
C10 C 0.68478(14) 0.3267(2) 0.74432(15)
H4 H 0.7219 0.3377 0.7430
C11 C 0.68427(15) 0.0722(3) 0.74758(17)
H5 H 0.7220 0.0593 0.7482
C12 C 0.65530(14) -0.0212(3) 0.75055(15)
H6 H 0.6803 -0.0750 0.7540
C13 C 0.55403(18) 0.4876(3) 0.66782(19)
H7 H 0.5762 0.5454 0.6765
H8 H 0.5309 0.4823 0.6235
C14 C 0.65554(15) 0.1995(3) 0.66620(17)
H9 H 0.6965 0.2016 0.6748
H10 H 0.6314 0.2003 0.6218
C15 C 0.56058(17) -0.1003(2) 0.67046(17)
H11 H 0.5399 -0.0999 0.6258
H12 H 0.5828 -0.1580 0.6836
C16 C 0.63078(14) -0.0846(3) 0.83186(16)
H13 H 0.6478 -0.0732 0.8758
H14 H 0.6467 -0.1430 0.8261
C17 C 0.72810(14) 0.2021(2) 0.82484(17)
H15 H 0.7596 0.2013 0.8135
H16 H 0.7461 0.2032 0.8694
C18 C 0.63140(17) 0.4973(3) 0.82933(18)
H17 H 0.6499 0.4900 0.8737
H18 H 0.6436 0.5569 0.8204
N1 N 0.59594(12) 0.4094(2) 0.69024(13)
N2 N 0.64308(13) 0.2804(2) 0.69117(15)
N3 N 0.64506(12) 0.1108(2) 0.69037(12)
N4 N 0.60202(12) -0.0201(2) 0.69262(14)
N5 N 0.51864(13) -0.0976(2) 0.69317(14)
N6 N 0.56619(13) -0.0932(2) 0.80565(13)
N7 N 0.64737(14) -0.0103(2) 0.80375(13)
N8 N 0.69490(13) 0.1189(2) 0.80341(13)
N9 N 0.69430(13) 0.2858(2) 0.80123(14)
N10 N 0.65254(13) 0.4167(2) 0.80091(16)
N11 N 0.57035(13) 0.4968(2) 0.80576(14)
N12 N 0.51554(15) 0.4937(2) 0.69296(14)
O1 O 0.55082(11) 0.31120(17) 0.60885(11)
O2 O 0.56117(10) 0.06414(17) 0.60091(11)
O3 O 0.43917(11) -0.03680(16) 0.60916(11)
O4 O 0.68356(12) 0.08815(19) 0.88891(12)
O5 O 0.68772(11) 0.32505(17) 0.88762(12)
O6 O 0.56946(12) 0.44390(19) 0.89245(12)
C1A C 0.40649(17) 0.3359(3) 0.83994(19)
C2A C 0.40002(15) 0.0543(3) 0.84398(18)
C3A C 0.53741(16) -0.0749(2) 0.83964(15)
C4A C 0.32564(15) 0.0654(3) 0.66339(18)
C5A C 0.32067(17) 0.3435(3) 0.66465(17)
C6A C 0.45431(19) 0.4764(2) 0.6610(2)
C7A C 0.46880(17) -0.1415(2) 0.74891(18)
H1A H 0.4543 -0.2053 0.7470
C8A C 0.47007(19) 0.5434(3) 0.75126(19)
H2A H 0.4571 0.6069 0.7536
C9A C 0.34693(18) 0.4198(3) 0.75620(18)
H3A H 0.3253 0.4741 0.7594
C10A C 0.31522(14) 0.3267(2) 0.75568(15)
H4A H 0.2781 0.3377 0.7570
C11A C 0.31573(15) 0.0722(3) 0.75242(17)
H5A H 0.2780 0.0593 0.7518
C12A C 0.34470(14) -0.0212(3) 0.74945(15)
H6A H 0.3197 -0.0750 0.7460
C13A C 0.44597(18) 0.4876(3) 0.83218(19)
H7A H 0.4238 0.5454 0.8235
H8A H 0.4691 0.4823 0.8765
C14A C 0.34446(15) 0.1995(3) 0.83380(17)
H9A H 0.3035 0.2016 0.8252
H10A H 0.3686 0.2003 0.8782
C15A C 0.43942(17) -0.1003(2) 0.82954(17)
H11A H 0.4601 -0.0999 0.8742
H12A H 0.4172 -0.1580 0.8164
C16A C 0.36922(14) -0.0846(3) 0.66814(16)
H13A H 0.3522 -0.0732 0.6242
H14A H 0.3533 -0.1430 0.6739
C17A C 0.27190(14) 0.2021(2) 0.67516(17)
H15A H 0.2404 0.2013 0.6865
H16A H 0.2539 0.2032 0.6306
C18A C 0.36860(17) 0.4973(3) 0.67067(18)
H17A H 0.3501 0.4900 0.6263
H18A H 0.3564 0.5569 0.6796
N1A N 0.40406(12) 0.4094(2) 0.80976(13)
N2A N 0.35692(13) 0.2804(2) 0.80883(15)
N3A N 0.35494(12) 0.1108(2) 0.80963(12)
N4A N 0.39798(12) -0.0201(2) 0.80738(14)
N5A N 0.48136(13) -0.0976(2) 0.80683(14)
N6A N 0.43381(13) -0.0932(2) 0.69435(13)
N7A N 0.35263(14) -0.0103(2) 0.69625(13)
N8A N 0.30510(13) 0.1189(2) 0.69659(13)
N9A N 0.30570(13) 0.2858(2) 0.69877(14)
N10A N 0.34746(13) 0.4167(2) 0.69909(16)
N11A N 0.42965(13) 0.4968(2) 0.69424(14)
N12A N 0.48446(15) 0.4937(2) 0.80704(14)
O1A O 0.44918(11) 0.31120(17) 0.89115(11)
O2A O 0.43883(10) 0.06414(17) 0.89909(11)
O3A O 0.56083(11) -0.03680(16) 0.89084(11)
O4A O 0.31644(12) 0.08815(19) 0.61109(12)
O5A O 0.31228(11) 0.32505(17) 0.61238(12)
O6A O 0.43054(12) 0.44390(19) 0.60755(12)
C19 C 0.35486(15) 0.1950(2) 0.54514(15)
H19 H 0.3340 0.2239 0.5628
C20 C 0.32488(16) 0.1551(3) 0.48699(18)
H20 H 0.2839 0.1572 0.4657
C21 C 0.35612(16) 0.1119(2) 0.46062(16)
C22 C 0.41733(17) 0.1086(2) 0.49240(18)
H21 H 0.4382 0.0797 0.4748
C23 C 0.44731(17) 0.1485(3) 0.55055(18)
H22 H 0.4883 0.1464 0.5718
C24 C 0.32337(16) 0.0800(3) 0.39943(16)
C25 C 0.44746(15) 0.2334(2) 0.63817(15)
H23 H 0.4202 0.2739 0.6440
H24 H 0.4786 0.2726 0.6390
C26 C 0.47426(16) 0.1684(3) 0.69180(16)
H25 H 0.4444 0.1262 0.6911
H26 H 0.5048 0.1314 0.6894
C27 C 0.5000 0.2232(4) 0.7500
H27 H 0.4694 0.2633 0.7498
N13 N 0.29816(15) 0.0546(2) 0.34835(16)
N14 N 0.41608(13) 0.1917(2) 0.57692(12)
C19A C 0.64514(15) 0.1950(2) 0.95486(15)
H19A H 0.6660 0.2239 0.9372
C20A C 0.67512(16) 0.1551(3) 1.01301(18)
H20A H 0.7161 0.1572 1.0343
C21A C 0.64388(16) 0.1119(2) 1.03938(16)
C22A C 0.58267(17) 0.1086(2) 1.00760(18)
H21A H 0.5618 0.0797 1.0252
C23A C 0.55269(17) 0.1485(3) 0.94945(18)
H22A H 0.5117 0.1464 0.9282
C24A C 0.67663(16) 0.0800(3) 1.10057(16)
C25A C 0.55254(15) 0.2334(2) 0.86183(15)
H23A H 0.5798 0.2739 0.8560
H24A H 0.5214 0.2726 0.8610
C26A C 0.52574(16) 0.1684(3) 0.80820(16)
H25A H 0.5556 0.1262 0.8089
H26A H 0.4952 0.1314 0.8106
H27A H 0.5306 0.2633 0.7502
N13A N 0.70184(15) 0.0546(2) 1.15165(16)
N14A N 0.58392(13) 0.1917(2) 0.92308(12)
O7 O 0.55224(12) 0.12919(18) 0.49171(12)
H28 H 0.5803 0.1314 0.4825
H29 H 0.5488 0.0739 0.5021
O8 O 0.53690(13) 0.43954(18) 0.51391(12)
H30 H 0.5236 0.4660 0.4790
H31 H 0.5708 0.4613 0.5379
O9 O 0.49737(13) 0.70775(18) 0.56314(13)
H32 H 0.5118 0.7507 0.5504
H33 H 0.4601 0.7140 0.5466
O10 O 0.7874(3) 0.9383(5) 0.8498(3)
H34 H 0.7998 0.9025 0.8810
H35 H 0.8143 0.9455 0.8392
O11 O 0.7425(3) 0.9667(5) -0.0011(3)
H36 H 0.7711 0.9906 0.0303
H37 H 0.7123 1.0014 -0.0128
O12 O 0.74203(11) 0.73314(17) 0.89840(10)
H38 H 0.7306 0.6860 0.9110
H39 H 0.7187 0.7421 0.8604
O13 O 0.6630(3) 0.7024(4) 0.9314(3)
H40 H 0.6788 0.7030 0.9705
H41 H 0.6369 0.7448 0.9168
O14 O 0.86450(11) 0.06773(18) 0.93997(11)
H42 H 0.8489 0.0248 0.9514
H43 H 0.8598 0.0555 0.9041
loop_
_geom_bond_atom_site_label_1
_geom_bond_atom_site_label_2
_geom_bond_site_symmetry_1
_geom_bond_site_symmetry_2
C1 N1 1_555 1_555
C2 N3 1_555 1_555
C3 N5 1_555 1_555
C4 N7 1_555 1_555
C5 N9 1_555 1_555
C6 N11 1_555 1_555
C7 H1 1_555 1_555
C8 H2 1_555 1_555
C9 H3 1_555 1_555
C10 C9 1_555 1_555
H4 C10 1_555 1_555
C11 H5 1_555 1_555
C12 C11 1_555 1_555
H6 C12 1_555 1_555
C13 H7 1_555 1_555
H8 C13 1_555 1_555
C14 H9 1_555 1_555
H10 C14 1_555 1_555
C15 H11 1_555 1_555
H12 C15 1_555 1_555
C16 H13 1_555 1_555
H14 C16 1_555 1_555
C17 H15 1_555 1_555
H16 C17 1_555 1_555
C18 H17 1_555 1_555
H18 C18 1_555 1_555
N1 C9 1_555 1_555
N2 C1 1_555 1_555
N3 C11 1_555 1_555
N4 C2 1_555 1_555
N5 C7 1_555 1_555
N6 C7 1_555 1_555
N7 C12 1_555 1_555
N8 C4 1_555 1_555
N9 C10 1_555 1_555
N10 C5 1_555 1_555
N11 C8 1_555 1_555
N12 C8 1_555 1_555
O1 C1 1_555 1_555
O2 C2 1_555 1_555
O3 C3 1_555 1_555
O4 C4 1_555 1_555
O5 C5 1_555 1_555
O6 C6 1_555 1_555
C19 H19 1_555 1_555
C20 C19 1_555 1_555
H20 C20 1_555 1_555
C21 C20 1_555 1_555
C22 C21 1_555 1_555
H21 C22 1_555 1_555
C23 C22 1_555 1_555
H22 C23 1_555 1_555
C24 C21 1_555 1_555
C25 H23 1_555 1_555
H24 C25 1_555 1_555
C26 C25 1_555 1_555
H25 C26 1_555 1_555
H26 C26 1_555 1_555
C27 C26 1_555 1_555
H27 C27 1_555 1_555
N13 C24 1_555 1_555
N14 C19 1_555 1_555
O7 H28 1_555 1_555
H29 O7 1_555 1_555
O8 H30 1_555 1_555
H31 O8 1_555 1_555
O9 H32 1_555 1_555
H33 O9 1_555 1_555
O10 H34 1_555 1_555
H35 O10 1_555 1_555
O11 H36 1_555 1_555
H37 O11 1_555 1_555
O12 H38 1_555 1_555
H39 O12 1_555 1_555
O13 H40 1_555 1_555
H41 O13 1_555 1_555
O14 H42 1_555 1_555
H43 O14 1_555 1_555
C1A N1A 1_555 1_555
C2A N3A 1_555 1_555
C3A N6 1_555 1_555
C4A N7A 1_555 1_555
C5A N9A 1_555 1_555
C6A N12 1_555 1_555
C7A C7 1_555 1_555
H1A C7A 1_555 1_555
C8A C8 1_555 1_555
H2A C8A 1_555 1_555
C9A H3A 1_555 1_555
C10A C9A 1_555 1_555
H4A C10A 1_555 1_555
C11A H5A 1_555 1_555
C12A C11A 1_555 1_555
H6A C12A 1_555 1_555
C13A H7A 1_555 1_555
H8A C13A 1_555 1_555
C14A H9A 1_555 1_555
H10A C14A 1_555 1_555
C15A H11A 1_555 1_555
H12A C15A 1_555 1_555
C16A H13A 1_555 1_555
H14A C16A 1_555 1_555
C17A H15A 1_555 1_555
H16A C17A 1_555 1_555
C18A H17A 1_555 1_555
H18A C18A 1_555 1_555
N1A C9A 1_555 1_555
N2A C1A 1_555 1_555
N3A C11A 1_555 1_555
N4A C2A 1_555 1_555
N5A C3A 1_555 1_555
N6A C3 1_555 1_555
N7A C12A 1_555 1_555
N8A C4A 1_555 1_555
N9A C10A 1_555 1_555
N10A C5A 1_555 1_555
N11A C6A 1_555 1_555
N12A C6 1_555 1_555
O1A C1A 1_555 1_555
O2A C2A 1_555 1_555
O3A C3A 1_555 1_555
O4A C4A 1_555 1_555
O5A C5A 1_555 1_555
O6A C6A 1_555 1_555
C19A H19A 1_555 1_555
C20A C19A 1_555 1_555
H20A C20A 1_555 1_555
C21A C20A 1_555 1_555
C22A C21A 1_555 1_555
H21A C22A 1_555 1_555
C23A C22A 1_555 1_555
H22A C23A 1_555 1_555
C24A C21A 1_555 1_555
C25A H23A 1_555 1_555
H24A C25A 1_555 1_555
C26A C27 1_555 1_555
H25A C26A 1_555 1_555
H26A C26A 1_555 1_555
H27A C27 1_555 1_555
N13A C24A 1_555 1_555
N14A C19A 1_555 1_555
C9 N10 1_555 1_555
C10 N2 1_555 1_555
C11 N8 1_555 1_555
C12 N4 1_555 1_555
C13 N1 1_555 1_555
C13 N12 1_555 1_555
C14 N2 1_555 1_555
C14 N3 1_555 1_555
C15 N4 1_555 1_555
C15 N5 1_555 1_555
C16 N6 1_555 1_555
C16 N7 1_555 1_555
C17 N8 1_555 1_555
C17 N9 1_555 1_555
C18 N10 1_555 1_555
C18 N11 1_555 1_555
C23 N14 1_555 1_555
C25 N14 1_555 1_555
C7A N5A 1_555 1_555
C7A N6A 1_555 1_555
C8A N11A 1_555 1_555
C8A N12A 1_555 1_555
C9A N10A 1_555 1_555
C10A N2A 1_555 1_555
C11A N8A 1_555 1_555
C12A N4A 1_555 1_555
C13A N1A 1_555 1_555
C13A N12A 1_555 1_555
C14A N2A 1_555 1_555
C14A N3A 1_555 1_555
C15A N4A 1_555 1_555
C15A N5A 1_555 1_555
C16A N6A 1_555 1_555
C16A N7A 1_555 1_555
C17A N8A 1_555 1_555
C17A N9A 1_555 1_555
C18A N10A 1_555 1_555
C18A N11A 1_555 1_555
C23A N14A 1_555 1_555
C25A C26A 1_555 1_555
C25A N14A 1_555 1_555

#END
