
#######################################################################
#
#                 Cambridge Crystallographic Data Centre
#                                CCDC 
#
#######################################################################
#
# If this CIF has been generated from an entry in the Cambridge 
# Structural Database, then it will include bibliographic, chemical, 
# crystal, experimental, refinement or atomic coordinate data resulting 
# from the CCDC's data processing and validation procedures.
#
#######################################################################

data_XUXHII
_chemical_formula_moiety         'C46 H50 Ba2 Cl4 N2 O30'
_chemical_name_systematic        
bis(\m~2~-Perchlorato-O,O',O'')-bis(acetonitrile)-bis(6,9,12,15,18,27-hexaoxatetracyclo[21.3.1.0^5,26^.0^19,24^]heptacosa-1(26),2,4,19,21,23-hexaen-25-one)-bis(perchlorato-O)-di-barium
_symmetry_cell_setting           triclinic
_symmetry_space_group_name_H-M   'P -1'
_symmetry_Int_Tables_number      2
_space_group_name_Hall           '-P 1'
loop_
_symmetry_equiv_pos_site_id
_symmetry_equiv_pos_as_xyz
1 x,y,z
2 -x,-y,-z
_cell_length_a                   8.4880(2)
_cell_length_b                   10.9445(3)
_cell_length_c                   17.3063(4)
_cell_angle_alpha                94.9500(10)
_cell_angle_beta                 104.1670(10)
_cell_angle_gamma                112.778(2)
_cell_volume                     1407.46
_exptl_crystal_colour            colorless
_exptl_crystal_description       block
_cell_formula_units_Z            1
_exptl_crystal_recrystallization_method acetonitrile/ether
loop_
_atom_site_label
_atom_site_type_symbol
_atom_site_fract_x
_atom_site_fract_y
_atom_site_fract_z
Ba1 Ba 0.58437(4) 0.71837(3) 0.169960(18)
Cl1 Cl 0.66339(18) 0.66487(14) -0.04876(8)
Cl2 Cl 0.29127(18) 0.48670(14) 0.29169(9)
N1 N 0.2625(7) 0.7141(5) 0.0596(3)
O1 O 0.7503(4) 1.0463(4) 0.5408(2)
O2 O 0.6651(6) 0.8628(4) 0.3100(2)
O3 O 0.7878(4) 0.6976(3) 0.3708(2)
O4 O 0.8586(4) 0.6456(3) 0.2283(2)
O5 O 0.9455(4) 0.8982(3) 0.1921(2)
O6 O 0.6747(5) 0.9776(3) 0.1278(2)
O7 O 0.5610(5) 1.0410(3) 0.2558(2)
O8 O 0.3255(5) 0.5793(4) 0.2388(3)
O9 O 0.1154(5) 0.3883(5) 0.2597(3)
O10 O 0.3031(10) 0.5525(6) 0.3646(3)
O11 O 0.4086(7) 0.4300(6) 0.3025(4)
O12 O 0.7803(9) 0.7635(5) -0.0708(3)
O13 O 0.6286(12) 0.6984(8) 0.0221(5)
O14 O 0.5099(15) 0.4038(11) 0.1123(7)
O15 O 0.2935(15) 0.4419(10) 0.0552(6)
C1 C 0.8076(6) 0.7600(5) 0.4457(3)
C2 C 0.8734(7) 0.7206(6) 0.5160(3)
H1 H 0.9028 0.6472 0.5126
C3 C 0.8956(7) 0.7912(6) 0.5918(3)
H2 H 0.9384 0.7636 0.6387
C4 C 0.8561(7) 0.8989(6) 0.5981(3)
H3 H 0.8737 0.9465 0.6490
C5 C 0.7889(6) 0.9382(5) 0.5279(3)
C6 C 0.6843(6) 1.0944(5) 0.4766(4)
C7 C 0.6546(7) 1.2071(5) 0.4974(4)
H4 H 0.6759 1.2431 0.5516
C8 C 0.5930(7) 1.2641(6) 0.4364(4)
H5 H 0.5700 1.3386 0.4491
C9 C 0.5644(7) 1.2116(6) 0.3552(4)
H6 H 0.5260 1.2533 0.3147
C10 C 0.5922(6) 1.0991(5) 0.3343(3)
C11 C 0.6540(6) 1.0366(5) 0.3961(3)
C12 C 0.6916(6) 0.9190(5) 0.3802(3)
C13 C 0.7635(6) 0.8712(5) 0.4510(3)
C14 C 0.8606(7) 0.6001(5) 0.3651(3)
H7 H 0.8077 0.5278 0.3923
H8 H 0.9893 0.6426 0.3910
C15 C 0.8188(7) 0.5436(5) 0.2759(3)
H9 H 0.8872 0.4916 0.2707
H10 H 0.6926 0.4824 0.2543
C16 C 1.0403(7) 0.7429(5) 0.2519(4)
H11 H 1.1187 0.6974 0.2535
H12 H 1.0719 0.7957 0.3058
C17 C 1.0628(7) 0.8319(6) 0.1931(4)
H13 H 1.1863 0.8987 0.2085
H14 H 1.0338 0.7794 0.1394
C18 C 0.9690(7) 0.9963(5) 0.1421(4)
H15 H 0.9324 0.9520 0.0856
H16 H 1.0944 1.0591 0.1573
C19 C 0.8600(8) 1.0699(5) 0.1522(4)
H17 H 0.8969 1.1143 0.2088
H18 H 0.8780 1.1388 0.1195
C20 C 0.5576(8) 1.0430(6) 0.1199(3)
H19 H 0.4349 0.9748 0.0982
H20 H 0.5798 1.1009 0.0807
C21 C 0.5769(8) 1.1278(6) 0.1988(3)
H21 H 0.6926 1.2053 0.2175
H22 H 0.4835 1.1599 0.1911
C22 C 0.1915(7) 0.6539(6) -0.0049(4)
C23 C 0.1006(8) 0.5757(6) -0.0883(3)
H23 H -0.0195 0.5689 -0.1052
H24 H 0.0971 0.4867 -0.0904
H25 H 0.1645 0.6203 -0.1238
Ba1A Ba 0.41563(4) 0.28163(3) -0.169960(18)
Cl1A Cl 0.33661(18) 0.33513(14) 0.04876(8)
Cl2A Cl 0.70873(18) 0.51330(14) -0.29169(9)
N1A N 0.7375(7) 0.2859(5) -0.0596(3)
O1A O 0.2497(4) -0.0463(4) -0.5408(2)
O2A O 0.3349(6) 0.1372(4) -0.3100(2)
O3A O 0.2122(4) 0.3024(3) -0.3708(2)
O4A O 0.1414(4) 0.3544(3) -0.2283(2)
O5A O 0.0545(4) 0.1018(3) -0.1921(2)
O6A O 0.3253(5) 0.0224(3) -0.1278(2)
O7A O 0.4390(5) -0.0410(3) -0.2558(2)
O8A O 0.6745(5) 0.4207(4) -0.2388(3)
O9A O 0.8846(5) 0.6117(5) -0.2597(3)
O10A O 0.6969(10) 0.4475(6) -0.3646(3)
O11A O 0.5914(7) 0.5700(6) -0.3025(4)
O12A O 0.2197(9) 0.2365(5) 0.0708(3)
O13A O 0.3714(12) 0.3016(8) -0.0221(5)
O14A O 0.4901(15) 0.5962(11) -0.1123(7)
O15A O 0.7065(15) 0.5581(10) -0.0552(6)
C1A C 0.1924(6) 0.2400(5) -0.4457(3)
C2A C 0.1266(7) 0.2794(6) -0.5160(3)
H1A H 0.0972 0.3528 -0.5126
C3A C 0.1044(7) 0.2088(6) -0.5918(3)
H2A H 0.0616 0.2364 -0.6387
C4A C 0.1439(7) 0.1011(6) -0.5981(3)
H3A H 0.1263 0.0535 -0.6490
C5A C 0.2111(6) 0.0618(5) -0.5279(3)
C6A C 0.3157(6) -0.0944(5) -0.4766(4)
C7A C 0.3454(7) -0.2071(5) -0.4974(4)
H4A H 0.3241 -0.2431 -0.5516
C8A C 0.4070(7) -0.2641(6) -0.4364(4)
H5A H 0.4300 -0.3386 -0.4491
C9A C 0.4356(7) -0.2116(6) -0.3552(4)
H6A H 0.4740 -0.2533 -0.3147
C10A C 0.4078(6) -0.0991(5) -0.3343(3)
C11A C 0.3460(6) -0.0366(5) -0.3961(3)
C12A C 0.3084(6) 0.0810(5) -0.3802(3)
C13A C 0.2365(6) 0.1288(5) -0.4510(3)
C14A C 0.1394(7) 0.3999(5) -0.3651(3)
H7A H 0.1923 0.4722 -0.3923
H8A H 0.0107 0.3574 -0.3910
C15A C 0.1812(7) 0.4564(5) -0.2759(3)
H9A H 0.1128 0.5084 -0.2707
H10A H 0.3074 0.5176 -0.2543
C16A C -0.0403(7) 0.2571(5) -0.2519(4)
H11A H -0.1187 0.3026 -0.2535
H12A H -0.0719 0.2043 -0.3058
C17A C -0.0628(7) 0.1681(6) -0.1931(4)
H13A H -0.1863 0.1013 -0.2085
H14A H -0.0338 0.2206 -0.1394
C18A C 0.0310(7) 0.0037(5) -0.1421(4)
H15A H 0.0676 0.0480 -0.0856
H16A H -0.0944 -0.0591 -0.1573
C19A C 0.1400(8) -0.0699(5) -0.1522(4)
H17A H 0.1031 -0.1143 -0.2088
H18A H 0.1220 -0.1388 -0.1195
C20A C 0.4424(8) -0.0430(6) -0.1199(3)
H19A H 0.5651 0.0252 -0.0982
H20A H 0.4202 -0.1009 -0.0807
C21A C 0.4231(8) -0.1278(6) -0.1988(3)
H21A H 0.3074 -0.2053 -0.2175
H22A H 0.5165 -0.1599 -0.1911
C22A C 0.8085(7) 0.3461(6) 0.0049(4)
C23A C 0.8994(8) 0.4243(6) 0.0883(3)
H23A H 1.0195 0.4311 0.1052
H24A H 0.9029 0.5133 0.0904
H25A H 0.8355 0.3797 0.1238
O16? O 0.448(2) 0.2721(19) 0.0432(12)
O17? O 0.2948(14) 0.3420(10) -0.0363(7)
O18? O 0.4409(16) 0.4635(12) 0.0999(7)
loop_
_geom_bond_atom_site_label_1
_geom_bond_atom_site_label_2
_geom_bond_site_symmetry_1
_geom_bond_site_symmetry_2
Ba1 N1 1_555 1_555
Cl1 O12 1_555 1_555
Cl2 O8 1_555 1_555
N1 C22 1_555 1_555
O1 C5 1_555 1_555
O2 Ba1 1_555 1_555
O3 C1 1_555 1_555
O4 Ba1 1_555 1_555
O5 Ba1 1_555 1_555
O6 Ba1 1_555 1_555
O7 C10 1_555 1_555
O8 Ba1 1_555 1_555
O9 Cl2 1_555 1_555
O10 Cl2 1_555 1_555
O11 Cl2 1_555 1_555
O13 Ba1 1_555 1_555
O14 Ba1 1_555 1_555
O15 Ba1 1_555 1_555
C1 C2 1_555 1_555
C2 H1 1_555 1_555
C3 C2 1_555 1_555
H2 C3 1_555 1_555
C4 C3 1_555 1_555
H3 C4 1_555 1_555
C5 C4 1_555 1_555
C6 O1 1_555 1_555
C7 C6 1_555 1_555
H4 C7 1_555 1_555
C8 C7 1_555 1_555
H5 C8 1_555 1_555
C9 C8 1_555 1_555
H6 C9 1_555 1_555
C10 C9 1_555 1_555
C11 C6 1_555 1_555
C12 O2 1_555 1_555
C13 C1 1_555 1_555
C14 O3 1_555 1_555
H7 C14 1_555 1_555
H8 C14 1_555 1_555
C15 O4 1_555 1_555
H9 C15 1_555 1_555
H10 C15 1_555 1_555
C16 O4 1_555 1_555
H11 C16 1_555 1_555
H12 C16 1_555 1_555
C17 O5 1_555 1_555
H13 C17 1_555 1_555
H14 C17 1_555 1_555
C18 O5 1_555 1_555
H15 C18 1_555 1_555
H16 C18 1_555 1_555
C19 O6 1_555 1_555
H17 C19 1_555 1_555
H18 C19 1_555 1_555
C20 O6 1_555 1_555
H19 C20 1_555 1_555
H20 C20 1_555 1_555
C21 O7 1_555 1_555
H21 C21 1_555 1_555
H22 C21 1_555 1_555
C22 C23 1_555 1_555
C23 H23 1_555 1_555
H24 C23 1_555 1_555
H25 C23 1_555 1_555
Ba1A N1A 1_555 1_555
Cl1A O14 1_555 1_555
Cl2A O8A 1_555 1_555
N1A C22A 1_555 1_555
O1A C5A 1_555 1_555
O2A Ba1A 1_555 1_555
O3A C1A 1_555 1_555
O4A Ba1A 1_555 1_555
O5A Ba1A 1_555 1_555
O6A Ba1A 1_555 1_555
O7A C10A 1_555 1_555
O8A Ba1A 1_555 1_555
O9A Cl2A 1_555 1_555
O10A Cl2A 1_555 1_555
O11A Cl2A 1_555 1_555
O12A Cl1A 1_555 1_555
O13A Ba1A 1_555 1_555
O14A Cl1 1_555 1_555
O15A Cl1 1_555 1_555
C1A C2A 1_555 1_555
C2A H1A 1_555 1_555
C3A C2A 1_555 1_555
H2A C3A 1_555 1_555
C4A C3A 1_555 1_555
H3A C4A 1_555 1_555
C5A C4A 1_555 1_555
C6A O1A 1_555 1_555
C7A C6A 1_555 1_555
H4A C7A 1_555 1_555
C8A C7A 1_555 1_555
H5A C8A 1_555 1_555
C9A C8A 1_555 1_555
H6A C9A 1_555 1_555
C10A C9A 1_555 1_555
C11A C6A 1_555 1_555
C12A O2A 1_555 1_555
C13A C1A 1_555 1_555
C14A O3A 1_555 1_555
H7A C14A 1_555 1_555
H8A C14A 1_555 1_555
C15A O4A 1_555 1_555
H9A C15A 1_555 1_555
H10A C15A 1_555 1_555
C16A O4A 1_555 1_555
H11A C16A 1_555 1_555
H12A C16A 1_555 1_555
C17A O5A 1_555 1_555
H13A C17A 1_555 1_555
H14A C17A 1_555 1_555
C18A O5A 1_555 1_555
H15A C18A 1_555 1_555
H16A C18A 1_555 1_555
C19A O6A 1_555 1_555
H17A C19A 1_555 1_555
H18A C19A 1_555 1_555
C20A O6A 1_555 1_555
H19A C20A 1_555 1_555
H20A C20A 1_555 1_555
C21A O7A 1_555 1_555
H21A C21A 1_555 1_555
H22A C21A 1_555 1_555
C22A C23A 1_555 1_555
C23A H23A 1_555 1_555
H24A C23A 1_555 1_555
H25A C23A 1_555 1_555
Cl1 O13 1_555 1_555
O15 Cl1A 1_555 1_555
C5 C13 1_555 1_555
C10 C11 1_555 1_555
C11 C12 1_555 1_555
C12 C13 1_555 1_555
C14 C15 1_555 1_555
C16 C17 1_555 1_555
C18 C19 1_555 1_555
C20 C21 1_555 1_555
Ba1A O14A 1_555 1_555
Ba1A O15A 1_555 1_555
Cl1A O13A 1_555 1_555
C5A C13A 1_555 1_555
C10A C11A 1_555 1_555
C11A C12A 1_555 1_555
C12A C13A 1_555 1_555
C14A C15A 1_555 1_555
C16A C17A 1_555 1_555
C18A C19A 1_555 1_555
C20A C21A 1_555 1_555

#END
