
#######################################################################
#
#                 Cambridge Crystallographic Data Centre
#                                CCDC 
#
#######################################################################
#
# If this CIF has been generated from an entry in the Cambridge 
# Structural Database, then it will include bibliographic, chemical, 
# crystal, experimental, refinement or atomic coordinate data resulting 
# from the CCDC's data processing and validation procedures.
#
#######################################################################

data_XUXVIX
_chemical_formula_moiety         'C31 H32 O4'
_chemical_name_systematic        
(9-cyclohexyl-12,13-dimethoxy-8-oxatetracyclo[7.7.1.0^2,7^.0^10,15^]heptadeca-2,4,6,10,12,14-hexaen-16-yl)(phenyl)methanone
_symmetry_cell_setting           trigonal
_symmetry_space_group_name_H-M   'P 32'
_symmetry_Int_Tables_number      145
_space_group_name_Hall           'P 32'
loop_
_symmetry_equiv_pos_site_id
_symmetry_equiv_pos_as_xyz
1 x,y,z
2 -y,x-y,2/3+z
3 -x+y,-x,1/3+z
_cell_length_a                   13.1073(19)
_cell_length_b                   13.1073(19)
_cell_length_c                   12.630(3)
_cell_angle_alpha                90
_cell_angle_beta                 90
_cell_angle_gamma                120
_cell_volume                     1879.15
_exptl_crystal_colour            colorless
_exptl_crystal_description       block
_cell_formula_units_Z            3
loop_
_atom_site_label
_atom_site_type_symbol
_atom_site_fract_x
_atom_site_fract_y
_atom_site_fract_z
O1 O 0.65347(12) 0.54632(15) 0.20734(11)
O2 O 1.04228(9) 0.56882(9) 0.27976(8)
O3 O 1.00040(13) 0.93928(11) 0.00381(9)
O4 O 1.08349(12) 0.81579(11) -0.07400(9)
C1 C 0.82482(13) 0.67380(14) 0.30782(11)
H1 H 0.8460 0.7467 0.3462
C2 C 0.85476(14) 0.59569(13) 0.37786(11)
H2 H 0.8030 0.5693 0.4399
C3 C 0.83569(14) 0.48933(13) 0.31440(11)
H3 H 0.7575 0.4505 0.2834
H4 H 0.8423 0.4336 0.3603
C4 C 0.92858(13) 0.53035(14) 0.22718(11)
C5 C 0.94076(13) 0.63714(13) 0.16654(10)
C6 C 1.00532(13) 0.67418(14) 0.07163(11)
H5 H 1.0375 0.6307 0.0440
C7 C 1.02214(14) 0.77338(14) 0.01852(11)
C8 C 0.97644(14) 0.84107(14) 0.06038(11)
C9 C 0.91378(14) 0.80657(14) 0.15300(11)
H6 H 0.8831 0.8512 0.1810
C10 C 0.89526(13) 0.70477(13) 0.20627(10)
C11 C 0.98169(14) 0.66175(14) 0.41386(11)
C12 C 1.01818(16) 0.74144(16) 0.49722(12)
H7 H 0.9639 0.7577 0.5290
C13 C 1.13277(17) 0.79740(17) 0.53440(13)
H8 H 1.1552 0.8512 0.5898
C14 C 1.21363(16) 0.77268(16) 0.48853(14)
H9 H 1.2904 0.8083 0.5140
C15 C 1.18000(14) 0.69490(15) 0.40483(13)
H10 H 1.2347 0.6784 0.3742
C16 C 1.06594(13) 0.64087(13) 0.36556(11)
C17 C 0.90984(14) 0.42767(14) 0.15471(12)
H11 H 0.9792 0.4572 0.1088
C18 C 0.90083(17) 0.32263(15) 0.21664(14)
H12 H 0.9712 0.3488 0.2593
H13 H 0.8337 0.2920 0.2640
C19 C 0.8871(2) 0.22507(18) 0.14202(18)
H14 H 0.9566 0.2539 0.0978
H15 H 0.8796 0.1591 0.1830
C20 C 0.7787(2) 0.1845(2) 0.0725(2)
H16 H 0.7720 0.1239 0.0242
H17 H 0.7086 0.1509 0.1165
C21 C 0.7872(2) 0.2875(2) 0.00960(18)
H18 H 0.7164 0.2607 -0.0324
H19 H 0.8537 0.3169 -0.0384
C22 C 0.80231(17) 0.38692(18) 0.08257(15)
H20 H 0.7322 0.3599 0.1256
H21 H 0.8117 0.4528 0.0402
C23 C 0.69292(14) 0.61049(15) 0.28352(13)
C24 C 0.61224(14) 0.62802(14) 0.35580(12)
C25 C 0.65020(16) 0.69454(16) 0.44714(14)
H22 H 0.7284 0.7276 0.4682
C26 C 0.5720(2) 0.71217(19) 0.50756(17)
H23 H 0.5975 0.7567 0.5693
C27 C 0.45619(19) 0.6635(2) 0.47580(18)
H24 H 0.4039 0.6762 0.5156
C28 C 0.41799(17) 0.59640(18) 0.38588(17)
H25 H 0.3398 0.5636 0.3650
C29 C 0.49449(15) 0.57730(16) 0.32630(14)
H26 H 0.4675 0.5303 0.2661
C30 C 0.9658(2) 1.01665(17) 0.04772(15)
H27 H 0.9874 1.0816 0.0003
H28 H 1.0046 1.0457 0.1145
H29 H 0.8820 0.9752 0.0581
C31 C 1.12608(19) 0.74792(18) -0.12360(13)
H30 H 1.1662 0.7860 -0.1878
H31 H 1.0612 0.6711 -0.1398
H32 H 1.1798 0.7404 -0.0769
loop_
_geom_bond_atom_site_label_1
_geom_bond_atom_site_label_2
_geom_bond_site_symmetry_1
_geom_bond_site_symmetry_2
O1 C23 1_555 1_555
O2 C4 1_555 1_555
O3 C8 1_555 1_555
O4 C7 1_555 1_555
C1 H1 1_555 1_555
C2 C1 1_555 1_555
H2 C2 1_555 1_555
C3 C2 1_555 1_555
H3 C3 1_555 1_555
H4 C3 1_555 1_555
C4 C3 1_555 1_555
C5 C4 1_555 1_555
C6 C5 1_555 1_555
H5 C6 1_555 1_555
C7 C6 1_555 1_555
C8 C7 1_555 1_555
C9 C8 1_555 1_555
H6 C9 1_555 1_555
C10 C1 1_555 1_555
C11 C2 1_555 1_555
C12 C11 1_555 1_555
H7 C12 1_555 1_555
C13 C12 1_555 1_555
H8 C13 1_555 1_555
C14 C13 1_555 1_555
H9 C14 1_555 1_555
C15 C14 1_555 1_555
H10 C15 1_555 1_555
C16 O2 1_555 1_555
C17 C4 1_555 1_555
H11 C17 1_555 1_555
C18 C17 1_555 1_555
H12 C18 1_555 1_555
H13 C18 1_555 1_555
C19 C18 1_555 1_555
H14 C19 1_555 1_555
H15 C19 1_555 1_555
C20 C19 1_555 1_555
H16 C20 1_555 1_555
H17 C20 1_555 1_555
C21 C20 1_555 1_555
H18 C21 1_555 1_555
H19 C21 1_555 1_555
C22 C17 1_555 1_555
H20 C22 1_555 1_555
H21 C22 1_555 1_555
C23 C1 1_555 1_555
C24 C23 1_555 1_555
C25 C24 1_555 1_555
H22 C25 1_555 1_555
C26 C25 1_555 1_555
H23 C26 1_555 1_555
C27 C26 1_555 1_555
H24 C27 1_555 1_555
C28 C27 1_555 1_555
H25 C28 1_555 1_555
C29 C24 1_555 1_555
H26 C29 1_555 1_555
C30 O3 1_555 1_555
H27 C30 1_555 1_555
H28 C30 1_555 1_555
H29 C30 1_555 1_555
C31 O4 1_555 1_555
H30 C31 1_555 1_555
H31 C31 1_555 1_555
H32 C31 1_555 1_555
C5 C10 1_555 1_555
C9 C10 1_555 1_555
C11 C16 1_555 1_555
C15 C16 1_555 1_555
C21 C22 1_555 1_555
C28 C29 1_555 1_555

#END
