
#######################################################################
#
#                 Cambridge Crystallographic Data Centre
#                                CCDC 
#
#######################################################################
#
# If this CIF has been generated from an entry in the Cambridge 
# Structural Database, then it will include bibliographic, chemical, 
# crystal, experimental, refinement or atomic coordinate data resulting 
# from the CCDC's data processing and validation procedures.
#
#######################################################################

data_XUYKEJ
_chemical_formula_moiety         'C20 H20 O2'
_chemical_name_systematic        
1,3-dimethoxy-8-methyl-5-(4-methylphenyl)naphthalene
_symmetry_cell_setting           monoclinic
_symmetry_space_group_name_H-M   'P 21/n'
_symmetry_Int_Tables_number      14
_space_group_name_Hall           '-P 2yn'
loop_
_symmetry_equiv_pos_site_id
_symmetry_equiv_pos_as_xyz
1 x,y,z
2 1/2-x,1/2+y,1/2-z
3 -x,-y,-z
4 1/2+x,1/2-y,1/2+z
_cell_length_a                   7.6811(4)
_cell_length_b                   12.1214(6)
_cell_length_c                   17.6690(9)
_cell_angle_alpha                90
_cell_angle_beta                 99.5640(10)
_cell_angle_gamma                90
_cell_volume                     1622.22
_exptl_crystal_colour            colorless
_cell_formula_units_Z            4
loop_
_atom_site_label
_atom_site_type_symbol
_atom_site_fract_x
_atom_site_fract_y
_atom_site_fract_z
O1 O -0.14459(18) 1.08307(11) 0.10609(8)
O2 O 0.42999(16) 0.96497(11) 0.21157(7)
C1 C -0.3098(3) 1.06617(18) 0.05819(13)
H1 H -0.2911 1.0496 0.0070
H2 H -0.3801 1.1318 0.0575
H3 H -0.3700 1.0057 0.0776
C2 C -0.0261(2) 0.99821(15) 0.11232(10)
C3 C -0.0547(2) 0.89823(14) 0.07771(9)
H4 H -0.1613 0.8843 0.0457
C4 C 0.0764(2) 0.81522(13) 0.08999(8)
C5 C 0.0461(2) 0.71101(14) 0.05189(9)
C6 C -0.1175(2) 0.68953(13) -0.00465(9)
C7 C -0.1097(2) 0.68528(16) -0.08186(10)
H5 H -0.0023 0.6970 -0.0984
C8 C -0.2584(3) 0.66397(18) -0.13516(10)
H6 H -0.2489 0.6617 -0.1869
C9 C -0.4195(2) 0.64612(15) -0.11409(11)
C10 C -0.5832(3) 0.6252(2) -0.17253(14)
H7 H -0.6596 0.5753 -0.1515
H8 H -0.5504 0.5935 -0.2179
H9 H -0.6439 0.6937 -0.1854
C11 C 0.4691(3) 1.07335(19) 0.23970(15)
H10 H 0.4494 1.1247 0.1978
H11 H 0.5903 1.0770 0.2642
H12 H 0.3939 1.0916 0.2762
C12 C 0.2668(2) 0.94452(15) 0.16998(9)
C13 C 0.1368(2) 1.02188(15) 0.15812(10)
H13 H 0.1562 1.0911 0.1806
C14 C 0.2414(2) 0.83523(14) 0.13882(8)
C15 C 0.3691(2) 0.74864(15) 0.15261(9)
C16 C 0.5453(2) 0.75750(18) 0.20553(11)
H14 H 0.6010 0.6864 0.2107
H15 H 0.5270 0.7831 0.2550
H16 H 0.6197 0.8087 0.1843
C17 C 0.3297(2) 0.65019(16) 0.11637(11)
H17 H 0.4110 0.5929 0.1259
C18 C 0.1730(2) 0.63174(15) 0.06573(10)
H18 H 0.1547 0.5640 0.0409
C19 C -0.4270(2) 0.64922(19) -0.03735(12)
H19 H -0.5344 0.6366 -0.0211
C20 C -0.2788(2) 0.67059(19) 0.01683(11)
H20 H -0.2887 0.6722 0.0686
loop_
_geom_bond_atom_site_label_1
_geom_bond_atom_site_label_2
_geom_bond_site_symmetry_1
_geom_bond_site_symmetry_2
O1 C1 1_555 1_555
O2 C11 1_555 1_555
C1 H1 1_555 1_555
H2 C1 1_555 1_555
H3 C1 1_555 1_555
C2 O1 1_555 1_555
C3 C2 1_555 1_555
H4 C3 1_555 1_555
C4 C3 1_555 1_555
C5 C4 1_555 1_555
C6 C5 1_555 1_555
C7 C6 1_555 1_555
H5 C7 1_555 1_555
C8 C7 1_555 1_555
H6 C8 1_555 1_555
C9 C8 1_555 1_555
C10 C9 1_555 1_555
H7 C10 1_555 1_555
H8 C10 1_555 1_555
H9 C10 1_555 1_555
C11 H10 1_555 1_555
H11 C11 1_555 1_555
H12 C11 1_555 1_555
C12 O2 1_555 1_555
C13 C2 1_555 1_555
H13 C13 1_555 1_555
C14 C4 1_555 1_555
C15 C14 1_555 1_555
C16 C15 1_555 1_555
H14 C16 1_555 1_555
H15 C16 1_555 1_555
H16 C16 1_555 1_555
C17 C15 1_555 1_555
H17 C17 1_555 1_555
C18 C5 1_555 1_555
H18 C18 1_555 1_555
C19 C9 1_555 1_555
H19 C19 1_555 1_555
C20 C6 1_555 1_555
H20 C20 1_555 1_555
C12 C13 1_555 1_555
C12 C14 1_555 1_555
C17 C18 1_555 1_555
C19 C20 1_555 1_555

#END
