
#######################################################################
#
#                 Cambridge Crystallographic Data Centre
#                                CCDC 
#
#######################################################################
#
# If this CIF has been generated from an entry in the Cambridge 
# Structural Database, then it will include bibliographic, chemical, 
# crystal, experimental, refinement or atomic coordinate data resulting 
# from the CCDC's data processing and validation procedures.
#
#######################################################################

data_XUYKAE
_chemical_formula_moiety         'C20 H14 O3,2(C3 H6 O1)'
_chemical_name_systematic        '2,7,14-trihydroxytriptycene acetone solvate'
_symmetry_cell_setting           monoclinic
_symmetry_space_group_name_H-M   'P 21'
_symmetry_Int_Tables_number      4
_space_group_name_Hall           'P 2yb'
loop_
_symmetry_equiv_pos_site_id
_symmetry_equiv_pos_as_xyz
1 x,y,z
2 -x,1/2+y,-z
_cell_length_a                   10.7093(7)
_cell_length_b                   8.1477(4)
_cell_length_c                   12.8858(8)
_cell_angle_alpha                90
_cell_angle_beta                 102.935(3)
_cell_angle_gamma                90
_cell_volume                     1095.83
_exptl_crystal_colour            yellow
_exptl_crystal_description       block
_cell_formula_units_Z            2
loop_
_atom_site_label
_atom_site_type_symbol
_atom_site_fract_x
_atom_site_fract_y
_atom_site_fract_z
O1 O 0.90155(13) 0.4148(2) 0.49130(12)
O2 O 0.62668(15) 1.0350(2) 0.02074(11)
O3 O 0.08664(14) 0.2925(2) 0.18769(12)
C1 C 0.50313(17) 0.5823(2) 0.23058(14)
H1 H 0.5262 0.5045 0.1778
C2 C 0.59570(18) 0.5757(2) 0.33921(14)
C3 C 0.70690(18) 0.4835(2) 0.36352(15)
H2 H 0.7273 0.4092 0.3129
C4 C 0.78862(17) 0.5014(3) 0.46361(15)
C5 C 0.75853(19) 0.6096(2) 0.53737(15)
H3 H 0.8145 0.6204 0.6055
C6 C 0.64613(18) 0.7029(3) 0.51207(15)
H4 H 0.6260 0.7777 0.5625
C7 C 0.56455(17) 0.6855(2) 0.41308(14)
C8 C 0.44371(17) 0.7856(2) 0.36752(14)
H5 H 0.4207 0.8635 0.4202
C9 C 0.33834(18) 0.6615(2) 0.32447(15)
C10 C 0.22015(19) 0.6490(3) 0.35091(15)
H6 H 0.1971 0.7243 0.3998
C11 C 0.13509(18) 0.5254(3) 0.30549(15)
H7 H 0.0543 0.5161 0.3239
C12 C 0.16797(18) 0.4166(3) 0.23376(15)
C13 C 0.28606(18) 0.4298(2) 0.20488(15)
H8 H 0.3080 0.3560 0.1547
C14 C 0.37004(17) 0.5517(2) 0.25056(14)
C15 C 0.50898(17) 0.7620(2) 0.19854(14)
C16 C 0.55682(17) 0.8180(3) 0.11390(14)
H9 H 0.5798 0.7427 0.0651
C17 C 0.57089(18) 0.9863(3) 0.10112(15)
C18 C 0.53006(19) 1.0962(2) 0.16888(15)
H10 H 0.5349 1.2110 0.1572
C19 C 0.48192(18) 1.0386(3) 0.25427(15)
H11 H 0.4545 1.1139 0.3009
C20 C 0.47430(18) 0.8714(2) 0.27084(14)
H24 H 0.909(3) 0.347(4) 0.443(2)
H25 H 0.027(3) 0.278(4) 0.232(2)
H26 H 0.645(3) 1.143(4) 0.025(2)
O4 O 0.92466(13) 1.20249(18) 0.32240(11)
C21 C 0.8066(2) 0.9896(3) 0.38137(18)
H12 H 0.7902 1.0739 0.4309
H13 H 0.8508 0.8964 0.4217
H14 H 0.7251 0.9524 0.3367
C22 C 0.88756(18) 1.0590(3) 0.31324(16)
C23 C 0.9227(2) 0.9492(3) 0.2323(2)
H15 H 0.9760 1.0096 0.1925
H16 H 0.8447 0.9108 0.1831
H17 H 0.9707 0.8547 0.2678
O5 O 0.72193(16) 0.3457(2) 0.07439(13)
C24 C 0.8474(2) 0.5794(3) 0.0660(3)
H18 H 0.8115 0.6153 0.1258
H19 H 0.8233 0.6576 0.0071
H20 H 0.9410 0.5742 0.0886
C25 C 0.7964(2) 0.4139(3) 0.03009(17)
C26 C 0.8396(3) 0.3377(4) -0.0598(2)
H21 H 0.7990 0.2300 -0.0753
H22 H 0.9329 0.3246 -0.0411
H23 H 0.8155 0.4081 -0.1228
loop_
_geom_bond_atom_site_label_1
_geom_bond_atom_site_label_2
_geom_bond_site_symmetry_1
_geom_bond_site_symmetry_2
O1 C4 1_555 1_555
O2 C17 1_555 1_555
O3 C12 1_555 1_555
O4 C22 1_555 1_555
O5 C25 1_555 1_555
C1 H1 1_555 1_555
C2 C1 1_555 1_555
C3 C2 1_555 1_555
H2 C3 1_555 1_555
C4 C3 1_555 1_555
C5 C4 1_555 1_555
H3 C5 1_555 1_555
C6 C5 1_555 1_555
H4 C6 1_555 1_555
C7 C2 1_555 1_555
C8 C7 1_555 1_555
H5 C8 1_555 1_555
C9 C8 1_555 1_555
C10 C9 1_555 1_555
H6 C10 1_555 1_555
C11 C10 1_555 1_555
H7 C11 1_555 1_555
C12 C11 1_555 1_555
C13 C12 1_555 1_555
H8 C13 1_555 1_555
C14 C1 1_555 1_555
C15 C1 1_555 1_555
C16 C15 1_555 1_555
H9 C16 1_555 1_555
C17 C16 1_555 1_555
C18 C17 1_555 1_555
H10 C18 1_555 1_555
C19 C18 1_555 1_555
H11 C19 1_555 1_555
C20 C8 1_555 1_555
C21 H12 1_555 1_555
H13 C21 1_555 1_555
H14 C21 1_555 1_555
C22 C21 1_555 1_555
C23 C22 1_555 1_555
H15 C23 1_555 1_555
H16 C23 1_555 1_555
H17 C23 1_555 1_555
C24 H18 1_555 1_555
H19 C24 1_555 1_555
H20 C24 1_555 1_555
C25 C24 1_555 1_555
C26 C25 1_555 1_555
H21 C26 1_555 1_555
H22 C26 1_555 1_555
H23 C26 1_555 1_555
H24 O1 1_555 1_555
H25 O3 1_555 1_555
H26 O2 1_555 1_555
C6 C7 1_555 1_555
C9 C14 1_555 1_555
C13 C14 1_555 1_555
C15 C20 1_555 1_555
C19 C20 1_555 1_555

#END
