
#######################################################################
#
#                 Cambridge Crystallographic Data Centre
#                                CCDC 
#
#######################################################################
#
# If this CIF has been generated from an entry in the Cambridge 
# Structural Database, then it will include bibliographic, chemical, 
# crystal, experimental, refinement or atomic coordinate data resulting 
# from the CCDC's data processing and validation procedures.
#
#######################################################################

data_XUYVUK
_chemical_formula_moiety         'C14 H22 N2 O1'
_chemical_name_systematic        1-heptyl-3-phenylurea
_symmetry_cell_setting           monoclinic
_symmetry_space_group_name_H-M   'P 21/c'
_symmetry_Int_Tables_number      14
_space_group_name_Hall           '-P 2ybc'
loop_
_symmetry_equiv_pos_site_id
_symmetry_equiv_pos_as_xyz
1 x,y,z
2 -x,1/2+y,1/2-z
3 -x,-y,-z
4 x,1/2-y,1/2+z
_cell_length_a                   29.946(9)
_cell_length_b                   4.6270(14)
_cell_length_c                   9.554(3)
_cell_angle_alpha                90
_cell_angle_beta                 94.259(15)
_cell_angle_gamma                90
_cell_volume                     1320.15
_exptl_crystal_colour            colorless
_exptl_crystal_description       blade
_cell_formula_units_Z            4
_exptl_crystal_recrystallization_method ethanol
loop_
_atom_site_label
_atom_site_type_symbol
_atom_site_fract_x
_atom_site_fract_y
_atom_site_fract_z
O1 O 0.19406(3) 0.3138(2) 0.67870(11)
N1 N 0.22225(4) 0.7381(3) 0.60754(14)
H1 H 0.2199(5) 0.930(3) 0.6040(18)
N2 N 0.16061(4) 0.7380(3) 0.73699(14)
H2 H 0.1595(5) 0.921(3) 0.7206(18)
C1 C 0.45960(6) 0.6675(4) 0.1108(2)
H3 H 0.4760 0.5494 0.1828
H4 H 0.4805 0.7985 0.0685
H5 H 0.4454 0.5414 0.0381
C2 C 0.42379(5) 0.8436(4) 0.17791(18)
H6 H 0.4384 0.9750 0.2491
H7 H 0.4076 0.9639 0.1050
C3 C 0.39031(5) 0.6537(4) 0.24732(18)
H8 H 0.4066 0.5323 0.3195
H9 H 0.3757 0.5230 0.1758
C4 C 0.35426(5) 0.8257(3) 0.31603(17)
H10 H 0.3688 0.9511 0.3901
H11 H 0.3386 0.9522 0.2447
C5 C 0.31994(5) 0.6328(3) 0.38081(17)
H12 H 0.3041 0.5174 0.3054
H13 H 0.3360 0.4964 0.4467
C6 C 0.28547(5) 0.7982(3) 0.45902(16)
H14 H 0.3010 0.9165 0.5341
H15 H 0.2684 0.9301 0.3933
C7 C 0.25356(5) 0.5907(3) 0.52282(17)
H16 H 0.2366 0.4831 0.4467
H17 H 0.2710 0.4488 0.5820
C8 C 0.19232(5) 0.5819(3) 0.67462(15)
C9 C 0.12430(5) 0.6092(3) 0.80129(15)
C10 C 0.13175(5) 0.3918(3) 0.90058(15)
H18 H 0.1614 0.3269 0.9260
C11 C 0.09576(5) 0.2699(3) 0.96245(16)
H19 H 0.1008 0.1200 1.0297
C12 C 0.05242(5) 0.3649(3) 0.92710(17)
H20 H 0.0279 0.2799 0.9694
C13 C 0.04532(5) 0.5848(3) 0.82951(17)
H21 H 0.0158 0.6533 0.8061
C14 C 0.08114(5) 0.7060(3) 0.76562(16)
H22 H 0.0760 0.8547 0.6977
loop_
_geom_bond_atom_site_label_1
_geom_bond_atom_site_label_2
_geom_bond_site_symmetry_1
_geom_bond_site_symmetry_2
O1 C8 1_555 1_555
N1 H1 1_555 1_555
N2 H2 1_555 1_555
C1 H3 1_555 1_555
H4 C1 1_555 1_555
H5 C1 1_555 1_555
C2 C1 1_555 1_555
H6 C2 1_555 1_555
H7 C2 1_555 1_555
C3 C2 1_555 1_555
H8 C3 1_555 1_555
H9 C3 1_555 1_555
C4 C3 1_555 1_555
H10 C4 1_555 1_555
H11 C4 1_555 1_555
C5 C4 1_555 1_555
H12 C5 1_555 1_555
H13 C5 1_555 1_555
C6 C5 1_555 1_555
H14 C6 1_555 1_555
H15 C6 1_555 1_555
C7 N1 1_555 1_555
H16 C7 1_555 1_555
H17 C7 1_555 1_555
C8 N1 1_555 1_555
C9 N2 1_555 1_555
C10 C9 1_555 1_555
H18 C10 1_555 1_555
C11 C10 1_555 1_555
H19 C11 1_555 1_555
C12 C11 1_555 1_555
H20 C12 1_555 1_555
C13 C12 1_555 1_555
H21 C13 1_555 1_555
C14 C9 1_555 1_555
H22 C14 1_555 1_555
N2 C8 1_555 1_555
C6 C7 1_555 1_555
C13 C14 1_555 1_555

#END
