
#######################################################################
#
#                 Cambridge Crystallographic Data Centre
#                                CCDC 
#
#######################################################################
#
# If this CIF has been generated from an entry in the Cambridge 
# Structural Database, then it will include bibliographic, chemical, 
# crystal, experimental, refinement or atomic coordinate data resulting 
# from the CCDC's data processing and validation procedures.
#
#######################################################################

data_XUZVOE
_chemical_formula_moiety         'C21 H25 B1 N2 Se1,2(C4 H8 O1)'
_chemical_name_systematic        
"[N,N'-pent-2-en-2-yl-4-ylidenebis(2,6-dimethylanilinato)]-(selenoxo)-boron tetrahydrofuran solvate"
_symmetry_cell_setting           monoclinic
_symmetry_space_group_name_H-M   'P 21/n'
_symmetry_Int_Tables_number      14
_space_group_name_Hall           '-P 2yn'
loop_
_symmetry_equiv_pos_site_id
_symmetry_equiv_pos_as_xyz
1 x,y,z
2 1/2-x,1/2+y,1/2-z
3 -x,-y,-z
4 1/2+x,1/2-y,1/2+z
_cell_length_a                   13.375(7)
_cell_length_b                   14.196(8)
_cell_length_c                   14.971(8)
_cell_angle_alpha                90
_cell_angle_beta                 90.145(7)
_cell_angle_gamma                90
_cell_volume                     2842.56
_exptl_crystal_colour            colorless
_exptl_crystal_description       prism
_cell_formula_units_Z            4
loop_
_atom_site_label
_atom_site_type_symbol
_atom_site_fract_x
_atom_site_fract_y
_atom_site_fract_z
B1 B 0.2277(4) 0.9420(3) 0.8240(3)
N1 N 0.1350(3) 0.9000(2) 0.7856(2)
N2 N 0.3184(3) 0.8886(2) 0.7998(2)
Se1 Se 0.22905(4) 1.05044(2) 0.89779(3)
C1 C 0.0383(3) 0.7741(3) 0.7088(3)
H1 H -0.0097 0.7687 0.7579
H2 H 0.0512 0.7115 0.6838
H3 H 0.0108 0.8151 0.6623
C2 C 0.1344(4) 0.8153(3) 0.7435(3)
C3 C 0.2254(4) 0.7678(3) 0.7301(3)
H4 H 0.2249 0.7073 0.7030
C4 C 0.3145(4) 0.8066(3) 0.7552(3)
C5 C 0.4110(4) 0.7580(3) 0.7322(4)
H5 H 0.4546 0.8018 0.7000
H6 H 0.3969 0.7032 0.6945
H7 H 0.4443 0.7373 0.7872
C6 C 0.0419(3) 0.9518(2) 0.7906(3)
C7 C -0.0193(4) 0.9400(3) 0.8639(3)
C8 C -0.1091(4) 0.9916(3) 0.8652(3)
H8 H -0.1525 0.9860 0.9150
C9 C -0.1354(4) 1.0508(3) 0.7948(4)
H9 H -0.1967 1.0846 0.7966
C10 C -0.0728(4) 1.0605(3) 0.7229(4)
H10 H -0.0914 1.1015 0.6756
C11 C 0.0170(3) 1.0118(3) 0.7177(3)
C12 C 0.0093(4) 0.8759(3) 0.9391(3)
H11 H 0.0136 0.8111 0.9170
H12 H -0.0414 0.8796 0.9861
H13 H 0.0743 0.8952 0.9633
C13 C 0.0852(4) 1.0246(4) 0.6419(3)
H14 H 0.0517 1.0614 0.5952
H15 H 0.1040 0.9629 0.6179
H16 H 0.1453 1.0579 0.6619
C14 C 0.4160(3) 0.9263(3) 0.8269(3)
C15 C 0.4602(3) 0.8941(3) 0.9063(3)
C16 C 0.5536(4) 0.9287(4) 0.9305(4)
H17 H 0.5841 0.9085 0.9846
C17 C 0.6020(4) 0.9921(4) 0.8763(4)
H18 H 0.6662 1.0149 0.8929
C18 C 0.5583(4) 1.0231(3) 0.7978(4)
H19 H 0.5930 1.0666 0.7610
C19 C 0.4626(3) 0.9906(3) 0.7718(3)
C20 C 0.4051(4) 0.8257(3) 0.9667(3)
H20 H 0.4453 0.8135 1.0202
H21 H 0.3935 0.7665 0.9347
H22 H 0.3407 0.8531 0.9841
C21 C 0.4126(4) 1.0268(4) 0.6868(3)
H23 H 0.4064 0.9751 0.6438
H24 H 0.4533 1.0772 0.6609
H25 H 0.3461 1.0512 0.7011
O1 O 0.2655(15) 0.2455(13) 0.1079(10)
C22 C 0.1993(9) 0.3148(8) 0.1468(6)
H26 H 0.2376 0.3568 0.1871
H27 H 0.1470 0.2829 0.1823
C23 C 0.1510(13) 0.3723(14) 0.0727(9)
H28 H 0.1611 0.4406 0.0831
H29 H 0.0784 0.3594 0.0692
C24 C 0.2047(10) 0.3402(10) -0.0148(6)
H30 H 0.2266 0.3954 -0.0503
H31 H 0.1598 0.3009 -0.0520
C25 C 0.2971(11) 0.2817(13) 0.0183(8)
H32 H 0.3116 0.2291 -0.0230
H33 H 0.3572 0.3220 0.0236
O2 O 0.2255(10) 0.1782(13) 0.3534(9)
C26 C 0.1908(8) 0.1142(10) 0.4228(7)
H34 H 0.1807 0.0504 0.3976
H35 H 0.1263 0.1365 0.4472
C27 C 0.2689(9) 0.1111(10) 0.4961(6)
H36 H 0.2853 0.0452 0.5120
H37 H 0.2447 0.1440 0.5502
C28 C 0.3631(11) 0.1626(19) 0.4567(12)
H38 H 0.3766 0.2219 0.4894
H39 H 0.4229 0.1218 0.4605
C29 C 0.3354(9) 0.1834(12) 0.3570(10)
H40 H 0.3590 0.2467 0.3391
H41 H 0.3657 0.1359 0.3169
C30? C 0.2036(8) 0.1387(10) 0.4461(10)
C31? C 0.3007(10) 0.1592(12) 0.4968(7)
C32? C 0.3853(9) 0.150(2) 0.4244(11)
C33? C 0.3293(15) 0.159(2) 0.3331(8)
H42? H 0.1812 0.0735 0.4582
H43? H 0.1504 0.1826 0.4655
H44? H 0.3110 0.1129 0.5455
H45? H 0.2996 0.2233 0.5227
H46? H 0.4354 0.2011 0.4314
H47? H 0.4196 0.0886 0.4291
H48? H 0.3437 0.2212 0.3053
H49? H 0.3510 0.1090 0.2917
O3? O 0.2229(13) 0.1506(18) 0.3519(10)
loop_
_geom_bond_atom_site_label_1
_geom_bond_atom_site_label_2
_geom_bond_site_symmetry_1
_geom_bond_site_symmetry_2
B1 N1 1_555 1_555
N1 C2 1_555 1_555
N2 B1 1_555 1_555
Se1 B1 1_555 1_555
C1 H1 1_555 1_555
H2 C1 1_555 1_555
H3 C1 1_555 1_555
C2 C1 1_555 1_555
C3 C2 1_555 1_555
H4 C3 1_555 1_555
C4 N2 1_555 1_555
C5 C4 1_555 1_555
H5 C5 1_555 1_555
H6 C5 1_555 1_555
H7 C5 1_555 1_555
C6 N1 1_555 1_555
C7 C6 1_555 1_555
C8 C7 1_555 1_555
H8 C8 1_555 1_555
C9 C8 1_555 1_555
H9 C9 1_555 1_555
C10 C9 1_555 1_555
H10 C10 1_555 1_555
C11 C6 1_555 1_555
C12 C7 1_555 1_555
H11 C12 1_555 1_555
H12 C12 1_555 1_555
H13 C12 1_555 1_555
C13 C11 1_555 1_555
H14 C13 1_555 1_555
H15 C13 1_555 1_555
H16 C13 1_555 1_555
C14 N2 1_555 1_555
C15 C14 1_555 1_555
C16 C15 1_555 1_555
H17 C16 1_555 1_555
C17 C16 1_555 1_555
H18 C17 1_555 1_555
C18 C17 1_555 1_555
H19 C18 1_555 1_555
C19 C14 1_555 1_555
C20 C15 1_555 1_555
H20 C20 1_555 1_555
H21 C20 1_555 1_555
H22 C20 1_555 1_555
C21 C19 1_555 1_555
H23 C21 1_555 1_555
H24 C21 1_555 1_555
H25 C21 1_555 1_555
O1 C22 1_555 1_555
C22 H26 1_555 1_555
H27 C22 1_555 1_555
C23 C22 1_555 1_555
H28 C23 1_555 1_555
H29 C23 1_555 1_555
C24 C23 1_555 1_555
H30 C24 1_555 1_555
H31 C24 1_555 1_555
C25 O1 1_555 1_555
H32 C25 1_555 1_555
H33 C25 1_555 1_555
O2 C26 1_555 1_555
C26 H34 1_555 1_555
H35 C26 1_555 1_555
C27 C26 1_555 1_555
H36 C27 1_555 1_555
H37 C27 1_555 1_555
C28 C27 1_555 1_555
H38 C28 1_555 1_555
H39 C28 1_555 1_555
C29 O2 1_555 1_555
H40 C29 1_555 1_555
H41 C29 1_555 1_555
C3 C4 1_555 1_555
C10 C11 1_555 1_555
C18 C19 1_555 1_555
C24 C25 1_555 1_555
C28 C29 1_555 1_555

#END
