
#######################################################################
#
#                 Cambridge Crystallographic Data Centre
#                                CCDC 
#
#######################################################################
#
# If this CIF has been generated from an entry in the Cambridge 
# Structural Database, then it will include bibliographic, chemical, 
# crystal, experimental, refinement or atomic coordinate data resulting 
# from the CCDC's data processing and validation procedures.
#
#######################################################################

data_YABDIR
_chemical_formula_moiety         'C29 H32 O2'
_chemical_name_systematic        
1-benzoyl-5,7-di-t-butyl-2-phenylspiro[2.5]octa-4,7-dien-6-one
_symmetry_cell_setting           monoclinic
_symmetry_space_group_name_H-M   'P 21/c'
_symmetry_Int_Tables_number      14
_space_group_name_Hall           '-P 2ybc'
loop_
_symmetry_equiv_pos_site_id
_symmetry_equiv_pos_as_xyz
1 x,y,z
2 -x,1/2+y,1/2-z
3 -x,-y,-z
4 x,1/2-y,1/2+z
_cell_length_a                   13.417(2)
_cell_length_b                   19.553(3)
_cell_length_c                   9.7821(16)
_cell_angle_alpha                90
_cell_angle_beta                 108.595(3)
_cell_angle_gamma                90
_cell_volume                     2432.29
_exptl_crystal_colour            colorless
_exptl_crystal_description       block
_chemical_melting_point          '439.8 K'
_cell_formula_units_Z            4
_chemical_properties_physical    Moisture-sensitive
_exptl_crystal_recrystallization_method dichloromethane/n-hexane
loop_
_atom_site_label
_atom_site_type_symbol
_atom_site_fract_x
_atom_site_fract_y
_atom_site_fract_z
C1 C 0.32727(16) 0.41684(10) 0.8976(2)
C2 C 0.25475(15) 0.41071(9) 0.9839(2)
C3 C 0.19034(15) 0.46309(9) 0.9835(2)
H1 H 0.1445 0.4589 1.0371
C4 C 0.18811(14) 0.52630(9) 0.9037(2)
C5 C 0.25575(15) 0.52866(10) 0.81299(19)
H2 H 0.2541 0.5678 0.7583
C6 C 0.32004(14) 0.47781(10) 0.80374(19)
C7 C 0.08602(16) 0.56820(9) 0.8585(2)
H3 H 0.0302 0.5481 0.8904
C8 C 0.17505(16) 0.59549(9) 0.9786(2)
H4 H 0.2110 0.6347 0.9530
C9 C 0.16972(18) 0.59696(10) 1.1278(2)
C10 C 0.24416(18) 0.64196(9) 1.2346(2)
C11 C 0.2184(2) 0.66354(11) 1.3544(2)
H5 H 0.1554 0.6498 1.3666
C12 C 0.2867(3) 0.70563(13) 1.4556(3)
H6 H 0.2693 0.7201 1.5356
C13 C 0.3791(3) 0.72596(14) 1.4387(3)
H7 H 0.4239 0.7548 1.5067
C14 C 0.4067(2) 0.70427(13) 1.3222(3)
H8 H 0.4707 0.7173 1.3123
C15 C 0.33851(18) 0.66281(11) 1.2196(2)
H9 H 0.3564 0.6488 1.1396
C16 C 0.04598(15) 0.60353(10) 0.7165(2)
C17 C -0.02270(18) 0.56983(13) 0.6011(3)
H10 H -0.0441 0.5256 0.6126
C18 C -0.0600(2) 0.60146(18) 0.4683(3)
H11 H -0.1057 0.5779 0.3908
C19 C -0.0311(2) 0.66636(18) 0.4488(3)
H12 H -0.0562 0.6870 0.3587
C20 C 0.0340(2) 0.70043(14) 0.5614(3)
H13 H 0.0528 0.7453 0.5493
C21 C 0.07315(19) 0.66966(11) 0.6946(3)
H14 H 0.1187 0.6939 0.7710
C22 C 0.38714(17) 0.48050(11) 0.7032(2)
C23 C 0.50359(17) 0.48348(13) 0.7942(3)
H15 H 0.5163 0.5238 0.8534
H16 H 0.5461 0.4848 0.7318
H17 H 0.5213 0.4437 0.8546
C24 C 0.3653(2) 0.41758(15) 0.6039(3)
H18 H 0.4119 0.4179 0.5470
H19 H 0.2938 0.4188 0.5413
H20 H 0.3766 0.3767 0.6613
C25 C 0.3617(2) 0.54441(16) 0.6086(3)
H21 H 0.3726 0.5843 0.6687
H22 H 0.2896 0.5428 0.5480
H23 H 0.4067 0.5463 0.5497
C26 C 0.25656(17) 0.34543(10) 1.0715(2)
C27 C 0.3625(2) 0.33813(13) 1.1906(3)
H24 H 0.3628 0.2968 1.2437
H25 H 0.3732 0.3766 1.2547
H26 H 0.4179 0.3364 1.1483
C28 C 0.1716(2) 0.34754(12) 1.1457(3)
H27 H 0.1037 0.3521 1.0742
H28 H 0.1841 0.3858 1.2104
H29 H 0.1740 0.3060 1.1990
C29 C 0.2348(2) 0.28268(11) 0.9728(3)
H30 H 0.1706 0.2894 0.8949
H31 H 0.2284 0.2429 1.0270
H32 H 0.2919 0.2763 0.9347
O1 O 0.10399(14) 0.56381(8) 1.16152(18)
O2 O 0.39385(14) 0.37247(8) 0.90449(18)
loop_
_geom_bond_atom_site_label_1
_geom_bond_atom_site_label_2
_geom_bond_site_symmetry_1
_geom_bond_site_symmetry_2
C1 C2 1_555 1_555
C2 C3 1_555 1_555
C3 H1 1_555 1_555
C4 C3 1_555 1_555
C5 C4 1_555 1_555
H2 C5 1_555 1_555
C6 C1 1_555 1_555
C7 C4 1_555 1_555
H3 C7 1_555 1_555
C8 C4 1_555 1_555
H4 C8 1_555 1_555
C9 C8 1_555 1_555
C10 C9 1_555 1_555
C11 C10 1_555 1_555
H5 C11 1_555 1_555
C12 C11 1_555 1_555
H6 C12 1_555 1_555
C13 C12 1_555 1_555
H7 C13 1_555 1_555
C14 C13 1_555 1_555
H8 C14 1_555 1_555
C15 C10 1_555 1_555
H9 C15 1_555 1_555
C16 C7 1_555 1_555
C17 C16 1_555 1_555
H10 C17 1_555 1_555
C18 C17 1_555 1_555
H11 C18 1_555 1_555
C19 C18 1_555 1_555
H12 C19 1_555 1_555
C20 C19 1_555 1_555
H13 C20 1_555 1_555
C21 C16 1_555 1_555
H14 C21 1_555 1_555
C22 C6 1_555 1_555
C23 C22 1_555 1_555
H15 C23 1_555 1_555
H16 C23 1_555 1_555
H17 C23 1_555 1_555
C24 C22 1_555 1_555
H18 C24 1_555 1_555
H19 C24 1_555 1_555
H20 C24 1_555 1_555
C25 C22 1_555 1_555
H21 C25 1_555 1_555
H22 C25 1_555 1_555
H23 C25 1_555 1_555
C26 C2 1_555 1_555
C27 C26 1_555 1_555
H24 C27 1_555 1_555
H25 C27 1_555 1_555
H26 C27 1_555 1_555
C28 C26 1_555 1_555
H27 C28 1_555 1_555
H28 C28 1_555 1_555
H29 C28 1_555 1_555
C29 C26 1_555 1_555
H30 C29 1_555 1_555
H31 C29 1_555 1_555
H32 C29 1_555 1_555
O1 C9 1_555 1_555
O2 C1 1_555 1_555
C5 C6 1_555 1_555
C7 C8 1_555 1_555
C14 C15 1_555 1_555
C20 C21 1_555 1_555

#END
