
#######################################################################
#
#                 Cambridge Crystallographic Data Centre
#                                CCDC 
#
#######################################################################
#
# If this CIF has been generated from an entry in the Cambridge 
# Structural Database, then it will include bibliographic, chemical, 
# crystal, experimental, refinement or atomic coordinate data resulting 
# from the CCDC's data processing and validation procedures.
#
#######################################################################

data_YABFOW
_chemical_formula_moiety         'C20 H26 N2 O6 S1'
_chemical_name_systematic        
'Ethyl (2E,5Z)-6(5,7-bis(ethoxycarbonyl)-2,3-dihydro-1H-pyrrolo(1,2-a)imidazol-1-yl)-4-thiahepta-2,5-dienoate'
_symmetry_cell_setting           triclinic
_symmetry_space_group_name_H-M   'P -1'
_symmetry_Int_Tables_number      2
_space_group_name_Hall           '-P 1'
loop_
_symmetry_equiv_pos_site_id
_symmetry_equiv_pos_as_xyz
1 x,y,z
2 -x,-y,-z
_cell_length_a                   6.496(2)
_cell_length_b                   9.032(1)
_cell_length_c                   18.523(4)
_cell_angle_alpha                78.52(1)
_cell_angle_beta                 87.04(2)
_cell_angle_gamma                86.53(2)
_cell_volume                     1062.21
_exptl_crystal_colour            colorless
_chemical_melting_point          91-93deg.C
_cell_formula_units_Z            2
loop_
_atom_site_label
_atom_site_type_symbol
_atom_site_fract_x
_atom_site_fract_y
_atom_site_fract_z
S1 S 0.4926(1) 0.0485(1) 0.8977
O1 O 1.2898(3) -0.4559(2) 0.7370(1)
O2 O 1.1308(3) -0.4900(2) 0.6375(1)
O3 O 0.4118(3) 0.0225(2) 0.6759(1)
O4 O 0.4482(3) -0.1366(2) 0.5971(1)
O5 O -0.0814(4) 0.2448(3) 0.9994(1)
O6 O -0.1090(3) 0.4322(2) 0.9022(1)
N1 N 0.8000(3) -0.0265(2) 0.7889(1)
N2 N 0.9806(3) -0.2138(2) 0.7478(1)
C1 C 0.5781(4) 0.1722(3) 0.8189(1)
C2 C 0.7146(4) 0.1265(3) 0.7719(1)
C3 C 0.8001(6) 0.2268(4) 0.7036(2)
C4 C 1.0018(5) -0.0478(4) 0.8257(2)
C5 C 1.0977(5) -0.1967(3) 0.8100(1)
C6 C 0.8137(4) -0.1183(3) 0.7378(1)
C7 C 0.7006(4) -0.1518(3) 0.6812(1)
C8 C 0.8119(4) -0.2752(3) 0.6585(1)
C9 C 0.9810(4) -0.3143(3) 0.6999(1)
C10 C 1.1500(4) -0.4256(3) 0.6956(2)
C11 C 1.2992(5) -0.5904(4) 0.6197(2)
C12 C 1.2599(7) -0.6236(5) 0.5473(2)
C13 C 0.5090(4) -0.0781(3) 0.6535(1)
C14 C 0.2623(4) -0.0670(3) 0.5627(2)
C15 C 0.2184(5) -0.1529(3) 0.5051(2)
C16 C 0.2765(5) 0.1398(3) 0.9295(2)
C17 C 0.1743(4) 0.2658(3) 0.9018(2)
C18 C -0.0145(5) 0.3093(4) 0.9409(2)
C19 C -0.3037(6) 0.4809(5) 0.9357(2)
C20 C -0.3959(7) 0.6060(6) 0.8839(3)
H1 H 0.5253(4) 0.2743(3) 0.8096(1)
H2 H 0.8957(6) 0.1693(4) 0.6783(2)
H3 H 0.8679(6) 0.3070(4) 0.7170(2)
H4 H 0.6906(6) 0.2674(4) 0.6723(2)
H5 H 1.0877(5) 0.0330(4) 0.8056(2)
H6 H 0.9811(5) -0.0531(4) 0.8773(2)
H7 H 1.0783(5) -0.2775(3) 0.8509(1)
H8 H 1.2408(5) -0.1901(3) 0.7972(1)
H9 H 0.7746(4) -0.3233(3) 0.6202(1)
H10 H 1.4264(5) -0.5427(4) 0.6176(2)
H11 H 1.3040(5) -0.6812(4) 0.6558(2)
H12 H 1.3679(7) -0.6897(5) 0.5336(2)
H13 H 1.2545(7) -0.5321(5) 0.5116(2)
H14 H 1.1321(7) -0.6706(5) 0.5498(2)
H15 H 0.1599(4) -0.0722(3) 0.5982(2)
H16 H 0.2826(4) 0.0358(3) 0.5409(2)
H17 H 0.0967(5) -0.1104(3) 0.4810(2)
H18 H 0.1994(5) -0.2556(3) 0.5273(2)
H19 H 0.3311(5) -0.1476(3) 0.4700(2)
H20 H 0.2213(5) 0.0893(3) 0.9757(2)
H21 H 0.2215(4) 0.3278(3) 0.8571(2)
H22 H -0.2785(6) 0.5126(5) 0.9802(2)
H23 H -0.3939(6) 0.3996(5) 0.9459(2)
H24 H -0.5229(7) 0.6395(6) 0.9046(3)
H25 H -0.4203(7) 0.5737(6) 0.8395(3)
H26 H -0.3049(7) 0.6867(6) 0.8738(3)
loop_
_geom_bond_atom_site_label_1
_geom_bond_atom_site_label_2
_geom_bond_site_symmetry_1
_geom_bond_site_symmetry_2
S1 C1 1_555 1_555
O1 C10 1_555 1_555
O2 C10 1_555 1_555
O3 C13 1_555 1_555
O4 C13 1_555 1_555
O5 C18 1_555 1_555
O6 C18 1_555 1_555
N1 C2 1_555 1_555
N2 C5 1_555 1_555
C1 C2 1_555 1_555
C2 C3 1_555 1_555
C3 H2 1_555 1_555
C4 N1 1_555 1_555
C5 C4 1_555 1_555
C6 N1 1_555 1_555
C7 C6 1_555 1_555
C8 C7 1_555 1_555
C9 N2 1_555 1_555
C10 C9 1_555 1_555
C11 O2 1_555 1_555
C12 C11 1_555 1_555
C13 C7 1_555 1_555
C14 O4 1_555 1_555
C15 C14 1_555 1_555
C16 S1 1_555 1_555
C17 C16 1_555 1_555
C18 C17 1_555 1_555
C19 O6 1_555 1_555
C20 C19 1_555 1_555
H1 C1 1_555 1_555
H3 C3 1_555 1_555
H4 C3 1_555 1_555
H5 C4 1_555 1_555
H6 C4 1_555 1_555
H7 C5 1_555 1_555
H8 C5 1_555 1_555
H9 C8 1_555 1_555
H10 C11 1_555 1_555
H11 C11 1_555 1_555
H12 C12 1_555 1_555
H13 C12 1_555 1_555
H14 C12 1_555 1_555
H15 C14 1_555 1_555
H16 C14 1_555 1_555
H17 C15 1_555 1_555
H18 C15 1_555 1_555
H19 C15 1_555 1_555
H20 C16 1_555 1_555
H21 C17 1_555 1_555
H22 C19 1_555 1_555
H23 C19 1_555 1_555
H24 C20 1_555 1_555
H25 C20 1_555 1_555
H26 C20 1_555 1_555
N2 C6 1_555 1_555
C8 C9 1_555 1_555

#END
