
#######################################################################
#
#                 Cambridge Crystallographic Data Centre
#                                CCDC 
#
#######################################################################
#
# If this CIF has been generated from an entry in the Cambridge 
# Structural Database, then it will include bibliographic, chemical, 
# crystal, experimental, refinement or atomic coordinate data resulting 
# from the CCDC's data processing and validation procedures.
#
#######################################################################

data_YABTAW
_chemical_formula_moiety         'C13 H19 N2 O2 1+,0.5(C18 H12 O8 2-)'
_chemical_name_systematic        
'bis((R)-(+)-3,4-Dihydro-3-((4-morpholiniumyl)methyl)-2H-1,4-benzoxazine) (-)-dibenzoyl-L-tartrate'
_symmetry_cell_setting           monoclinic
_symmetry_space_group_name_H-M   'C 2'
_symmetry_Int_Tables_number      5
_space_group_name_Hall           'C 2y'
loop_
_symmetry_equiv_pos_site_id
_symmetry_equiv_pos_as_xyz
1 x,y,z
2 1/2+x,1/2+y,z
3 -x,y,-z
4 1/2-x,1/2+y,-z
_cell_length_a                   21.555(6)
_cell_length_b                   8.066(5)
_cell_length_c                   12.507(4)
_cell_angle_alpha                90
_cell_angle_beta                 105.90(2)
_cell_angle_gamma                90
_cell_volume                     2091.31
_exptl_crystal_colour            off-white
_chemical_melting_point          177.5-179.5deg.C
_cell_formula_units_Z            4
loop_
_atom_site_label
_atom_site_type_symbol
_atom_site_fract_x
_atom_site_fract_y
_atom_site_fract_z
O1 O 0.2540(1) -0.2105(3) 0.5139(2)
C1 C 0.2964(1) -0.1573(4) 0.4501(2)
C2 C 0.2617(1) -0.1656(4) 0.3266(2)
O2 O 0.1863(1) -0.5414(3) -0.0299(2)
C3 C 0.1450(2) -0.5697(4) 0.0399(3)
C4 C 0.1797(1) -0.5431(4) 0.1602(3)
N1 N 0.2065(1) -0.3721(3) 0.1776(2)
C5 C 0.2474(1) -0.3410(4) 0.1011(2)
C6 C 0.2099(2) -0.3767(5) -0.0171(3)
C7 C 0.2425(1) -0.3441(4) 0.2963(2)
N2 N 0.2084(1) -0.0505(3) 0.3077(2)
C8 C 0.1704(1) -0.0588(3) 0.3805(2)
C9 C 0.1100(1) 0.0136(4) 0.3572(2)
C10 C 0.0732(1) 0.0049(4) 0.4314(2)
C11 C 0.0956(1) -0.0802(4) 0.5297(3)
C12 C 0.1557(1) -0.1530(4) 0.5552(2)
C13 C 0.1934(1) -0.1395(4) 0.4826(2)
H1 H 0.3098 -0.0452 0.4698
H2 H 0.3336 -0.2282 0.4657
H3 H 0.2879 -0.1337 0.2793
H4 H 0.1092 -0.4947 0.0191
H5 H 0.1296 -0.6818 0.0299
H6 H 0.2144 -0.6216 0.1825
H7 H 0.1501 -0.5588 0.2044
H8 H 0.1715 -0.2940 0.1605
H9 H 0.2609 -0.2272 0.1072
H10 H 0.2846 -0.4117 0.1213
H11 H 0.2377 -0.3605 -0.0646
H12 H 0.1741 -0.3016 -0.0383
H13 H 0.2158 -0.3806 0.3417
H14 H 0.2811 -0.4098 0.3123
H15 H 0.1882(11) -0.0178(33) 0.2458(22)
H16 H 0.0935 0.0711 0.2881
H17 H 0.0319 0.0583 0.4144
H18 H 0.0694 -0.0889 0.5804
H19 H 0.1713 -0.2132 0.6236
C14 C 0.0930(1) -0.0785(3) 0.0587(2)
O3 O 0.1347(1) 0.0291(3) 0.0729(1)
O4 O 0.0976(1) -0.2153(2) 0.1089(1)
C15 C 0.0275(1) -0.0573(3) -0.0270(2)
O5 O 0.0218(1) 0.0958(2) -0.0871(1)
C16 C 0.0518(1) 0.1106(3) -0.1674(2)
O6 O 0.0836(1) 0.0012(3) -0.1916(2)
C17 C 0.0400(1) 0.2745(3) -0.2214(2)
C18 C 0.0013(1) 0.3930(4) -0.1898(2)
C19 C -0.0100(2) 0.5449(4) -0.2445(3)
C20 C 0.0172(2) 0.5773(4) -0.3295(3)
C21 C 0.0555(2) 0.4617(4) -0.3604(3)
C22 C 0.0670(1) 0.3108(4) -0.3069(2)
H20 H 0.0250 -0.1497 -0.0764
H21 H -0.0175 0.3698 -0.1302
H22 H -0.0367 0.6265 -0.2229
H23 H 0.0092 0.6818 -0.3676
H24 H 0.0745 0.4859 -0.4197
H25 H 0.0939 0.2305 -0.3292
C15B C -0.0275(1) -0.0573(3) 0.0270(2)
C14B C -0.0930(1) -0.0785(3) -0.0587(2)
O5B O -0.0218(1) 0.0958(2) 0.0871(1)
H20B H -0.0250 -0.1497 0.0764
O3B O -0.1347(1) 0.0291(3) -0.0729(1)
O4B O -0.0976(1) -0.2153(2) -0.1089(1)
C16B C -0.0518(1) 0.1106(3) 0.1674(2)
O6B O -0.0836(1) 0.0012(3) 0.1916(2)
C17B C -0.0400(1) 0.2745(3) 0.2214(2)
C18B C -0.0013(1) 0.3930(4) 0.1898(2)
C22B C -0.0670(1) 0.3108(4) 0.3069(2)
C19B C 0.0100(2) 0.5449(4) 0.2445(3)
H21B H 0.0175 0.3698 0.1302
C21B C -0.0555(2) 0.4617(4) 0.3604(3)
H25B H -0.0939 0.2305 0.3292
C20B C -0.0172(2) 0.5773(4) 0.3295(3)
H22B H 0.0367 0.6265 0.2229
H24B H -0.0745 0.4859 0.4197
H23B H -0.0092 0.6818 0.3676
loop_
_geom_bond_atom_site_label_1
_geom_bond_atom_site_label_2
_geom_bond_site_symmetry_1
_geom_bond_site_symmetry_2
O1 C1 1_555 1_555
C1 C2 1_555 1_555
C2 C7 1_555 1_555
O2 C3 1_555 1_555
C3 C4 1_555 1_555
C4 N1 1_555 1_555
N1 C5 1_555 1_555
C5 C6 1_555 1_555
C6 O2 1_555 1_555
C7 N1 1_555 1_555
N2 C2 1_555 1_555
C8 N2 1_555 1_555
C9 C8 1_555 1_555
C10 C9 1_555 1_555
C11 C10 1_555 1_555
C12 C11 1_555 1_555
C13 O1 1_555 1_555
C14 O3 1_555 1_555
O4 C14 1_555 1_555
C15 C14 1_555 1_555
O5 C15 1_555 1_555
C16 O5 1_555 1_555
O6 C16 1_555 1_555
C17 C16 1_555 1_555
C18 C17 1_555 1_555
C19 C18 1_555 1_555
C20 C19 1_555 1_555
C21 C20 1_555 1_555
C22 C17 1_555 1_555
H1 C1 1_555 1_555
H2 C1 1_555 1_555
H3 C2 1_555 1_555
H4 C3 1_555 1_555
H5 C3 1_555 1_555
H6 C4 1_555 1_555
H7 C4 1_555 1_555
H8 N1 1_555 1_555
H9 C5 1_555 1_555
H10 C5 1_555 1_555
H11 C6 1_555 1_555
H12 C6 1_555 1_555
H13 C7 1_555 1_555
H14 C7 1_555 1_555
H15 N2 1_555 1_555
H16 C9 1_555 1_555
H17 C10 1_555 1_555
H18 C11 1_555 1_555
H19 C12 1_555 1_555
H20 C15 1_555 1_555
H21 C18 1_555 1_555
H22 C19 1_555 1_555
H23 C20 1_555 1_555
H24 C21 1_555 1_555
H25 C22 1_555 1_555
C15B C15 1_555 1_555
C14B C15B 1_555 1_555
O5B C15B 1_555 1_555
H20B C15B 1_555 1_555
O3B C14B 1_555 1_555
O4B C14B 1_555 1_555
C16B O5B 1_555 1_555
O6B C16B 1_555 1_555
C17B C16B 1_555 1_555
C18B C17B 1_555 1_555
C22B C17B 1_555 1_555
C19B C18B 1_555 1_555
H21B C18B 1_555 1_555
C21B C22B 1_555 1_555
H25B C22B 1_555 1_555
C20B C19B 1_555 1_555
H22B C19B 1_555 1_555
H24B C21B 1_555 1_555
H23B C20B 1_555 1_555
C8 C13 1_555 1_555
C12 C13 1_555 1_555
C21 C22 1_555 1_555
C21B C20B 1_555 1_555

#END
