
#######################################################################
#
#                 Cambridge Crystallographic Data Centre
#                                CCDC 
#
#######################################################################
#
# If this CIF has been generated from an entry in the Cambridge 
# Structural Database, then it will include bibliographic, chemical, 
# crystal, experimental, refinement or atomic coordinate data resulting 
# from the CCDC's data processing and validation procedures.
#
#######################################################################

data_YADCUE
_chemical_formula_moiety         'C26 H21 N3 O1'
_chemical_name_systematic        
1-methyl-3-(3'-methyl-1',3'-dihydro-1H,2'H-3,3'-biindol-2'-ylidene)-1,3-dihydro-2H-indol-2-one
_symmetry_cell_setting           monoclinic
_symmetry_space_group_name_H-M   'P 21/n'
_symmetry_Int_Tables_number      14
_space_group_name_Hall           '-P 2yn'
loop_
_symmetry_equiv_pos_site_id
_symmetry_equiv_pos_as_xyz
1 x,y,z
2 1/2-x,1/2+y,1/2-z
3 -x,-y,-z
4 1/2+x,1/2-y,1/2+z
_cell_length_a                   10.0804(4)
_cell_length_b                   13.1042(6)
_cell_length_c                   15.9458(7)
_cell_angle_alpha                90
_cell_angle_beta                 105.516(2)
_cell_angle_gamma                90
_cell_volume                     2029.6
_exptl_crystal_colour            yellow
_cell_formula_units_Z            4
loop_
_atom_site_label
_atom_site_type_symbol
_atom_site_fract_x
_atom_site_fract_y
_atom_site_fract_z
O1 O 0.45916(11) 0.28691(10) 0.24403(8)
N1 N 0.59562(12) 0.35707(11) 0.13090(8)
H1 H 0.5179 0.3322 0.1335
N2 N 1.17356(13) 0.31612(12) 0.22422(11)
H2 H 1.2617 0.3212 0.2416
N3 N 0.59387(15) 0.28877(12) 0.38602(9)
C1 C 0.81977(14) 0.42207(12) 0.17099(10)
C2 C 0.84186(18) 0.53051(13) 0.20983(13)
H3 H 0.7562 0.5670 0.1945
H4 H 0.9081 0.5659 0.1871
H5 H 0.8750 0.5262 0.2720
C3 C 0.95048(14) 0.35973(12) 0.18983(11)
C4 C 1.08248(16) 0.39410(14) 0.21934(13)
H6 H 1.1069 0.4615 0.2341
C5 C 1.10167(16) 0.22859(14) 0.19685(11)
C6 C 1.1492(2) 0.13087(15) 0.18890(14)
H7 H 1.2429 0.1162 0.2047
C7 C 1.0538(2) 0.05667(17) 0.15706(15)
H8 H 1.0829 -0.0095 0.1507
C8 C 0.9128(2) 0.07891(15) 0.13386(16)
H9 H 0.8500 0.0270 0.1123
C9 C 0.86518(18) 0.17528(14) 0.14215(13)
H10 H 0.7712 0.1889 0.1267
C10 C 0.96053(15) 0.25275(13) 0.17423(10)
C11 C 0.75405(16) 0.42829(13) 0.07312(11)
C12 C 0.8036(2) 0.46603(16) 0.00713(14)
H11 H 0.8915 0.4938 0.0188
C13 C 0.7190(3) 0.46189(18) -0.07792(14)
H12 H 0.7510 0.4881 -0.1231
C14 C 0.5903(2) 0.42010(17) -0.09609(13)
H13 H 0.5370 0.4170 -0.1535
C15 C 0.53816(19) 0.38247(14) -0.03068(11)
H14 H 0.4504 0.3543 -0.0425
C16 C 0.62247(16) 0.38855(12) 0.05344(10)
C17 C 0.70397(13) 0.36965(11) 0.20144(10)
C18 C 0.69939(14) 0.34114(12) 0.28344(10)
C19 C 0.57165(15) 0.30333(12) 0.29838(11)
C20 C 0.72939(18) 0.31509(13) 0.42941(11)
C21 C 0.7917(2) 0.31452(16) 0.51819(13)
H15 H 0.7444 0.2927 0.5576
C22 C 0.9267(3) 0.34757(17) 0.54622(14)
H16 H 0.9698 0.3505 0.6055
C23 C 0.9978(2) 0.37610(16) 0.48783(14)
H17 H 1.0893 0.3961 0.5081
C24 C 0.93589(18) 0.37562(14) 0.39945(12)
H18 H 0.9859 0.3945 0.3607
C25 C 0.79887(16) 0.34684(12) 0.36856(10)
C26 C 0.4909(2) 0.2541(2) 0.42807(15)
H19 H 0.5288 0.2006 0.4685
H20 H 0.4122 0.2288 0.3849
H21 H 0.4637 0.3100 0.4587
loop_
_geom_bond_atom_site_label_1
_geom_bond_atom_site_label_2
_geom_bond_site_symmetry_1
_geom_bond_site_symmetry_2
O1 C19 1_555 1_555
N1 H1 1_555 1_555
N2 H2 1_555 1_555
N3 C19 1_555 1_555
C1 C2 1_555 1_555
C2 H3 1_555 1_555
H4 C2 1_555 1_555
H5 C2 1_555 1_555
C3 C1 1_555 1_555
C4 N2 1_555 1_555
H6 C4 1_555 1_555
C5 N2 1_555 1_555
C6 C5 1_555 1_555
H7 C6 1_555 1_555
C7 C6 1_555 1_555
H8 C7 1_555 1_555
C8 C7 1_555 1_555
H9 C8 1_555 1_555
C9 C8 1_555 1_555
H10 C9 1_555 1_555
C10 C3 1_555 1_555
C11 C1 1_555 1_555
C12 C11 1_555 1_555
H11 C12 1_555 1_555
C13 C12 1_555 1_555
H12 C13 1_555 1_555
C14 C13 1_555 1_555
H13 C14 1_555 1_555
C15 C14 1_555 1_555
H14 C15 1_555 1_555
C16 N1 1_555 1_555
C17 N1 1_555 1_555
C18 C17 1_555 1_555
C19 C18 1_555 1_555
C20 N3 1_555 1_555
C21 C20 1_555 1_555
H15 C21 1_555 1_555
C22 C21 1_555 1_555
H16 C22 1_555 1_555
C23 C22 1_555 1_555
H17 C23 1_555 1_555
C24 C23 1_555 1_555
H18 C24 1_555 1_555
C25 C18 1_555 1_555
C26 N3 1_555 1_555
H19 C26 1_555 1_555
H20 C26 1_555 1_555
H21 C26 1_555 1_555
C1 C17 1_555 1_555
C3 C4 1_555 1_555
C5 C10 1_555 1_555
C9 C10 1_555 1_555
C11 C16 1_555 1_555
C15 C16 1_555 1_555
C20 C25 1_555 1_555
C24 C25 1_555 1_555

#END
