
#######################################################################
#
#                 Cambridge Crystallographic Data Centre
#                                CCDC 
#
#######################################################################
#
# If this CIF has been generated from an entry in the Cambridge 
# Structural Database, then it will include bibliographic, chemical, 
# crystal, experimental, refinement or atomic coordinate data resulting 
# from the CCDC's data processing and validation procedures.
#
#######################################################################

data_YADXUW
_chemical_formula_moiety         'C20 H22 N4 O2 P2 S4'
_chemical_name_systematic        
cis-6,13-bis(Propylthio)-6,13-dithioxo-5,12-dioxa-6a,7,13a,14-tetra-aza-6,13-diphosphadibenz(a,h)anthracene
_symmetry_cell_setting           monoclinic
_symmetry_space_group_name_H-M   'I c'
_symmetry_Int_Tables_number      9
_space_group_name_Hall           'I -2yc'
loop_
_symmetry_equiv_pos_site_id
_symmetry_equiv_pos_as_xyz
1 x,y,z
2 1/2+x,1/2+y,1/2+z
3 x,-y,1/2+z
4 1/2+x,1/2-y,z
_cell_length_a                   14.649(5)
_cell_length_b                   7.009(2)
_cell_length_c                   22.694(8)
_cell_angle_alpha                90
_cell_angle_beta                 100.60(3)
_cell_angle_gamma                90
_cell_volume                     2290.34
_cell_formula_units_Z            4
loop_
_atom_site_label
_atom_site_type_symbol
_atom_site_fract_x
_atom_site_fract_y
_atom_site_fract_z
P1 P 0.5000 0.0306(8) 0.50030(6)
P2 P 0.5505(4) 0.0035(9) 0.2463(2)
S1 S 0.5228(4) -0.247(1) 0.5228(4)
S2 S 0.5733(4) 0.2193(9) 0.5529(3)
S3 S 0.5332(4) -0.2401(9) 0.2245(3)
S4 S 0.4732(4) 0.2141(9) 0.1929(3)
O1 O 0.4013(9) 0.122(2) 0.4994(6)
O2 O 0.6570(8) 0.076(2) 0.2488(6)
N1 N 0.5087(9) 0.090(2) 0.4306(6)
N2 N 0.604(1) 0.013(2) 0.4202(7)
N3 N 0.539(1) 0.057(2) 0.3188(8)
N4 N 0.4497(9) 0.055(2) 0.3256(6)
C1 C 0.325(1) 0.032(3) 0.4486(9)
C2 C 0.335(1) 0.022(3) 0.3893(8)
C3 C 0.2698(9) -0.020(2) 0.3528(6)
C4 C 0.174(1) -0.023(3) 0.3543(8)
C5 C 0.162(1) -0.003(3) 0.4156(8)
C6 C 0.235(1) 0.041(3) 0.4619(8)
C7 C 0.719(1) 0.059(3) 0.2916(8)
C8 C 0.700(1) 0.020(3) 0.3490(7)
C9 C 0.784(2) -0.014(4) 0.409(1)
C10 C 0.868(1) -0.034(3) 0.3797(9)
C11 C 0.876(2) -0.010(4) 0.322(1)
C12 C 0.804(2) 0.022(4) 0.276(1)
C13 C 0.437(1) 0.034(3) 0.3823(8)
C14 C 0.610(1) 0.048(3) 0.3682(9)
C15 C 0.657(1) 0.068(3) 0.602(1)
C16 C 0.746(1) 0.030(3) 0.5721(9)
C17 C 0.832(2) 0.069(4) 0.602(1)
C18 C 0.381(1) 0.065(3) 0.1449(9)
C19 C 0.313(2) -0.001(4) 0.183(1)
C20 C 0.223(2) 0.050(4) 0.166(1)
H1 H 0.284(8) -0.059(7) 0.316(6)
H2 H 0.125(7) -0.036(7) 0.321(4)
H3 H 0.102(3) -0.021(5) 0.425(4)
H4 H 0.225(5) 0.076(8) 0.501(8)
H5 H 0.780(3) -0.019(6) 0.45(1)
H6 H 0.924(7) -0.069(7) 0.406(8)
H7 H 0.937(6) -0.016(4) 0.313(8)
H8 H 0.812(6) 0.019(5) 0.235(5)
H9 H 0.676(7) 0.130(5) 0.639(5)
H10 H 0.628(7) -0.050(5) 0.608(6)
H11 H 0.737(6) 0.103(2) 0.536(3)
H12 H 0.745(7) -0.109(5) 0.562(5)
H13 H 0.876(7) 0.038(5) 0.578(6)
H14 H 0.836(6) 0.201(2) 0.612(3)
H15 H 0.844(7) -0.004(5) 0.638(5)
H16 H 0.409(7) -0.042(5) 0.130(6)
H17 H 0.350(6) 0.139(7) 0.112(9)
H18 H 0.334(7) 0.048(5) 0.222(5)
H19 H 0.315(7) -0.136(5) 0.184(6)
H20 H 0.188(6) 0.001(7) 0.194(8)
H21 H 0.218(7) 0.185(5) 0.165(5)
H22 H 0.198(7) 0.001(5) 0.128(6)
loop_
_geom_bond_atom_site_label_1
_geom_bond_atom_site_label_2
_geom_bond_site_symmetry_1
_geom_bond_site_symmetry_2
P1 S1 1_555 1_555
P2 S3 1_555 1_555
S2 P1 1_555 1_555
S4 P2 1_555 1_555
O1 P1 1_555 1_555
O2 P2 1_555 1_555
N1 P1 1_555 1_555
N2 N1 1_555 1_555
N3 P2 1_555 1_555
N4 N3 1_555 1_555
C1 O1 1_555 1_555
C2 C1 1_555 1_555
C3 C2 1_555 1_555
C4 C3 1_555 1_555
C5 C4 1_555 1_555
C6 C1 1_555 1_555
C7 O2 1_555 1_555
C8 C7 1_555 1_555
C9 C8 1_555 1_555
C10 C9 1_555 1_555
C11 C10 1_555 1_555
C12 C7 1_555 1_555
C13 N1 1_555 1_555
C14 N2 1_555 1_555
C15 S2 1_555 1_555
C16 C15 1_555 1_555
C17 C16 1_555 1_555
C18 S4 1_555 1_555
C19 C18 1_555 1_555
C20 C19 1_555 1_555
H1 C3 1_555 1_555
H2 C4 1_555 1_555
H3 C5 1_555 1_555
H4 C6 1_555 1_555
H5 C9 1_555 1_555
H6 C10 1_555 1_555
H7 C11 1_555 1_555
H8 C12 1_555 1_555
H9 C15 1_555 1_555
H10 C15 1_555 1_555
H11 C16 1_555 1_555
H12 C16 1_555 1_555
H13 C17 1_555 1_555
H14 C17 1_555 1_555
H15 C17 1_555 1_555
H16 C18 1_555 1_555
H17 C18 1_555 1_555
H18 C19 1_555 1_555
H19 C19 1_555 1_555
H20 C20 1_555 1_555
H21 C20 1_555 1_555
H22 C20 1_555 1_555
N3 C14 1_555 1_555
N4 C13 1_555 1_555
C2 C13 1_555 1_555
C5 C6 1_555 1_555
C8 C14 1_555 1_555
C11 C12 1_555 1_555

#END
