
#######################################################################
#
#                 Cambridge Crystallographic Data Centre
#                                CCDC 
#
#######################################################################
#
# If this CIF has been generated from an entry in the Cambridge 
# Structural Database, then it will include bibliographic, chemical, 
# crystal, experimental, refinement or atomic coordinate data resulting 
# from the CCDC's data processing and validation procedures.
#
#######################################################################

data_YADYIO
_chemical_formula_moiety         'C18 H23 F1 N2 O1'
_chemical_name_systematic        
1-t-butyl-5-(t-butylimino)-4-(4-fluorophenyl)-1,5-dihydro-2H-pyrrol-2-one
_symmetry_cell_setting           monoclinic
_symmetry_space_group_name_H-M   'P 21/c'
_symmetry_Int_Tables_number      14
_space_group_name_Hall           '-P 2ybc'
loop_
_symmetry_equiv_pos_site_id
_symmetry_equiv_pos_as_xyz
1 x,y,z
2 -x,1/2+y,1/2-z
3 -x,-y,-z
4 x,1/2-y,1/2+z
_cell_length_a                   9.518(3)
_cell_length_b                   11.375(4)
_cell_length_c                   16.123(5)
_cell_angle_alpha                90
_cell_angle_beta                 91.368(5)
_cell_angle_gamma                90
_cell_volume                     1745.1
_cell_formula_units_Z            4
loop_
_atom_site_label
_atom_site_type_symbol
_atom_site_fract_x
_atom_site_fract_y
_atom_site_fract_z
F1 F 1.05965(16) 0.92879(18) -0.26392(10)
O1 O 0.24429(14) 0.66327(16) -0.12012(10)
N1 N 0.41329(14) 0.69743(12) -0.01571(8)
N2 N 0.59782(14) 0.78875(12) 0.05555(8)
C1 C 0.2163(3) 0.5751(3) 0.03633(18)
H1 H 0.1466 0.6191 0.0056
H2 H 0.1757 0.5439 0.0856
H3 H 0.2495 0.5116 0.0028
C2 C 0.2841(3) 0.76079(18) 0.10780(15)
H4 H 0.3610 0.8117 0.1229
H5 H 0.2392 0.7341 0.1570
H6 H 0.2175 0.8030 0.0735
C3 C 0.4411(3) 0.5844(2) 0.11471(14)
H7 H 0.4835 0.5241 0.0820
H8 H 0.3911 0.5491 0.1593
H9 H 0.5129 0.6354 0.1370
C4 C 0.33900(19) 0.65551(15) 0.06023(11)
C5 C 0.6878(3) 0.8940(3) 0.17118(14)
H10 H 0.6063 0.9437 0.1721
H11 H 0.7669 0.9350 0.1952
H12 H 0.6706 0.8239 0.2025
C6 C 0.8518(2) 0.7870(3) 0.08199(17)
H13 H 0.8347 0.7134 0.1091
H14 H 0.9260 0.8281 0.1111
H15 H 0.8788 0.7726 0.0259
C7 C 0.71861(18) 0.86118(17) 0.08180(11)
C8 C 0.7367(3) 0.9729(2) 0.03148(15)
H16 H 0.7735 0.9535 -0.0217
H17 H 0.8007 1.0247 0.0604
H18 H 0.6473 1.0110 0.0240
C9 C 0.54531(15) 0.76018(12) -0.01349(9)
C10 C 0.35863(17) 0.69864(15) -0.09527(11)
C11 C 0.46616(19) 0.74972(17) -0.14783(11)
H19 H 0.4567 0.7584 -0.2051
C12 C 0.57855(16) 0.78206(14) -0.10346(10)
C13 C 0.70926(17) 0.82463(14) -0.14066(10)
C14 C 0.7065(2) 0.92376(16) -0.19078(11)
H20 H 0.6238 0.9667 -0.1967
C15 C 0.8245(2) 0.95986(19) -0.23207(13)
H21 H 0.8222 1.0265 -0.2655
C16 C 0.9442(2) 0.8952(2) -0.22248(13)
C17 C 0.9519(2) 0.7955(2) -0.17493(14)
H22 H 1.0349 0.7526 -0.1704
C18 C 0.83342(19) 0.76043(17) -0.13400(12)
H23 H 0.8365 0.6929 -0.1015
H24? H 0.5534 0.7596 0.0966
loop_
_geom_bond_atom_site_label_1
_geom_bond_atom_site_label_2
_geom_bond_site_symmetry_1
_geom_bond_site_symmetry_2
F1 C16 1_555 1_555
O1 C10 1_555 1_555
N1 C4 1_555 1_555
N2 C7 1_555 1_555
C1 H1 1_555 1_555
H2 C1 1_555 1_555
H3 C1 1_555 1_555
C2 H4 1_555 1_555
H5 C2 1_555 1_555
H6 C2 1_555 1_555
C3 H7 1_555 1_555
H8 C3 1_555 1_555
H9 C3 1_555 1_555
C4 C1 1_555 1_555
C5 H10 1_555 1_555
H11 C5 1_555 1_555
H12 C5 1_555 1_555
C6 H13 1_555 1_555
H14 C6 1_555 1_555
H15 C6 1_555 1_555
C7 C5 1_555 1_555
C8 C7 1_555 1_555
H16 C8 1_555 1_555
H17 C8 1_555 1_555
H18 C8 1_555 1_555
C9 N1 1_555 1_555
C10 N1 1_555 1_555
C11 C10 1_555 1_555
H19 C11 1_555 1_555
C12 C9 1_555 1_555
C13 C12 1_555 1_555
C14 C13 1_555 1_555
H20 C14 1_555 1_555
C15 C14 1_555 1_555
H21 C15 1_555 1_555
C16 C15 1_555 1_555
C17 C16 1_555 1_555
H22 C17 1_555 1_555
C18 C13 1_555 1_555
H23 C18 1_555 1_555
N2 C9 1_555 1_555
C2 C4 1_555 1_555
C3 C4 1_555 1_555
C6 C7 1_555 1_555
C11 C12 1_555 1_555
C17 C18 1_555 1_555

#END
