
#######################################################################
#
#                 Cambridge Crystallographic Data Centre
#                                CCDC 
#
#######################################################################
#
# If this CIF has been generated from an entry in the Cambridge 
# Structural Database, then it will include bibliographic, chemical, 
# crystal, experimental, refinement or atomic coordinate data resulting 
# from the CCDC's data processing and validation procedures.
#
#######################################################################

data_YAFCUE
_chemical_formula_moiety         'C28 H28 O4'
_chemical_name_systematic        
9,12,21,24-Tetramethoxy(6.6)(1,3)cyclophan-1,3,5,13,15,17-hexaene
_symmetry_cell_setting           monoclinic
_symmetry_space_group_name_H-M   'P 21/c'
_symmetry_Int_Tables_number      14
_space_group_name_Hall           '-P 2ybc'
loop_
_symmetry_equiv_pos_site_id
_symmetry_equiv_pos_as_xyz
1 x,y,z
2 x,1/2-y,1/2+z
3 -x,-y,-z
4 -x,1/2+y,1/2-z
_cell_length_a                   11.328(1)
_cell_length_b                   7.825(1)
_cell_length_c                   13.191(1)
_cell_angle_alpha                90
_cell_angle_beta                 99.02(1)
_cell_angle_gamma                90
_cell_volume                     1154.81
_exptl_crystal_colour            colorless
_exptl_crystal_description       plates
_cell_formula_units_Z            2
loop_
_atom_site_label
_atom_site_type_symbol
_atom_site_fract_x
_atom_site_fract_y
_atom_site_fract_z
C1 C 0.21704(19) 0.6590(3) 0.61309(14)
C2 C 0.19880(19) 0.7392(3) 0.70544(13)
C3 C 0.2916(2) 0.7318(3) 0.78775(14)
H1 H 0.2843 0.7907 0.8477
C4 C 0.39450(19) 0.6389(3) 0.78289(14)
C5 C 0.40649(19) 0.5479(3) 0.69511(14)
H2 H 0.4742 0.4815 0.6933
C6 C 0.31655(18) 0.5555(3) 0.60855(13)
C7 C 0.32829(19) 0.4452(3) 0.52012(13)
H3 H 0.4050 0.4191 0.5081
C8 C 0.23682(19) 0.3808(3) 0.45650(14)
H4 H 0.1614 0.4163 0.4671
C9 C 0.2396(2) 0.2623(3) 0.37284(14)
H5 H 0.3137 0.2257 0.3594
C10 C 0.1416(2) 0.2020(3) 0.31347(14)
H6 H 0.1518 0.1260 0.2614
C11 C 0.02069(19) 0.2483(3) 0.32559(14)
H7 H 0.0154 0.3330 0.3741
C12 C 0.0829(2) 0.8100(3) 0.72098(14)
H8 H 0.0827 0.9011 0.7662
O1 O 0.13329(13) 0.6781(2) 0.52524(10)
C13 C 0.1222(3) 0.8499(4) 0.48712(16)
H9 H 0.0568 0.8565 0.4314
H10 H 0.1948 0.8827 0.4633
H11 H 0.1077 0.9255 0.5411
O2 O 0.47684(14) 0.6410(2) 0.87093(10)
C14 C 0.5812(2) 0.5395(4) 0.87364(19)
H12 H 0.6302 0.5505 0.9396
H13 H 0.6252 0.5773 0.8212
H14 H 0.5588 0.4220 0.8619
C12B C -0.0829(2) 0.1900(3) 0.27902(14)
C2B C -0.19880(19) 0.2608(3) 0.29456(13)
C1B C -0.21704(19) 0.3410(3) 0.38691(14)
C6B C -0.31655(18) 0.4445(3) 0.39145(13)
C5B C -0.40649(19) 0.4521(3) 0.30489(14)
C4B C -0.39450(19) 0.3611(3) 0.21711(14)
C3B C -0.2916(2) 0.2682(3) 0.21225(14)
H1B H -0.2843 0.2093 0.1523
O2B O -0.47684(14) 0.3590(2) 0.12907(10)
C14B C -0.5812(2) 0.4605(4) 0.12636(19)
H12B H -0.6302 0.4495 0.0604
H13B H -0.6252 0.4227 0.1788
H14B H -0.5588 0.5780 0.1381
H2B H -0.4742 0.5185 0.3067
C7B C -0.32829(19) 0.5548(3) 0.47988(13)
H3B H -0.4050 0.5809 0.4919
C8B C -0.23682(19) 0.6192(3) 0.54350(14)
H4B H -0.1614 0.5837 0.5329
C9B C -0.2396(2) 0.7377(3) 0.62716(14)
H5B H -0.3137 0.7743 0.6406
C10B C -0.1416(2) 0.7980(3) 0.68653(14)
H6B H -0.1518 0.8740 0.7386
C11B C -0.02069(19) 0.7517(3) 0.67441(14)
H7B H -0.0154 0.6670 0.6259
O1B O -0.13329(13) 0.3219(2) 0.47476(10)
C13B C -0.1222(3) 0.1501(4) 0.51288(16)
H9B H -0.0568 0.1435 0.5686
H10B H -0.1948 0.1173 0.5367
H11B H -0.1077 0.0745 0.4589
H8B H -0.0827 0.0989 0.2338
loop_
_geom_bond_atom_site_label_1
_geom_bond_atom_site_label_2
_geom_bond_site_symmetry_1
_geom_bond_site_symmetry_2
C1 C2 1_555 1_555
C2 C3 1_555 1_555
C3 H1 1_555 1_555
C4 C3 1_555 1_555
C5 C4 1_555 1_555
H2 C5 1_555 1_555
C6 C1 1_555 1_555
C7 C6 1_555 1_555
H3 C7 1_555 1_555
C8 C7 1_555 1_555
H4 C8 1_555 1_555
C9 C8 1_555 1_555
H5 C9 1_555 1_555
C10 C9 1_555 1_555
H6 C10 1_555 1_555
C11 C10 1_555 1_555
H7 C11 1_555 1_555
C12 C2 1_555 1_555
H8 C12 1_555 1_555
O1 C1 1_555 1_555
C13 O1 1_555 1_555
H9 C13 1_555 1_555
H10 C13 1_555 1_555
H11 C13 1_555 1_555
O2 C4 1_555 1_555
C14 O2 1_555 1_555
H12 C14 1_555 1_555
H13 C14 1_555 1_555
H14 C14 1_555 1_555
C12B C11 1_555 1_555
C2B C12B 1_555 1_555
C1B C2B 1_555 1_555
C6B C1B 1_555 1_555
C5B C6B 1_555 1_555
C4B C5B 1_555 1_555
C3B C2B 1_555 1_555
H1B C3B 1_555 1_555
O2B C4B 1_555 1_555
C14B O2B 1_555 1_555
H12B C14B 1_555 1_555
H13B C14B 1_555 1_555
H14B C14B 1_555 1_555
H2B C5B 1_555 1_555
C7B C6B 1_555 1_555
H3B C7B 1_555 1_555
C8B C7B 1_555 1_555
H4B C8B 1_555 1_555
C9B C8B 1_555 1_555
H5B C9B 1_555 1_555
C10B C9B 1_555 1_555
H6B C10B 1_555 1_555
C11B C12 1_555 1_555
H7B C11B 1_555 1_555
O1B C1B 1_555 1_555
C13B O1B 1_555 1_555
H9B C13B 1_555 1_555
H10B C13B 1_555 1_555
H11B C13B 1_555 1_555
H8B C12B 1_555 1_555
C5 C6 1_555 1_555
C4B C3B 1_555 1_555
C10B C11B 1_555 1_555

#END
