
#######################################################################
#
#                 Cambridge Crystallographic Data Centre
#                                CCDC 
#
#######################################################################
#
# If this CIF has been generated from an entry in the Cambridge 
# Structural Database, then it will include bibliographic, chemical, 
# crystal, experimental, refinement or atomic coordinate data resulting 
# from the CCDC's data processing and validation procedures.
#
#######################################################################

data_YAFFUH
_chemical_formula_moiety         'C15 H15 N1'
_chemical_name_systematic        
2-Azatricyclo(9.3.1.1^4,8^)hexadeca-1(15),4,6,8(16),11,13-hexaene
_symmetry_cell_setting           monoclinic
_symmetry_space_group_name_H-M   'P 21/c'
_symmetry_Int_Tables_number      14
_space_group_name_Hall           '-P 2ybc'
loop_
_symmetry_equiv_pos_site_id
_symmetry_equiv_pos_as_xyz
1 x,y,z
2 x,1/2-y,1/2+z
3 -x,-y,-z
4 -x,1/2+y,1/2-z
_cell_length_a                   5.866(1)
_cell_length_b                   8.179(1)
_cell_length_c                   11.646(1)
_cell_angle_alpha                90
_cell_angle_beta                 94.61(1)
_cell_angle_gamma                90
_cell_volume                     556.944
_exptl_crystal_colour            colorless
_exptl_crystal_description       prisms
_cell_formula_units_Z            2
loop_
_atom_site_label
_atom_site_type_symbol
_atom_site_fract_x
_atom_site_fract_y
_atom_site_fract_z
N1 N 0.383(5) 0.096(3) 0.291(3)
H1 H 0.536(7) 0.112(8) 0.288(7)
C2 C 0.3154(5) 0.2340(4) 0.3815(3)
H4 H 0.3211 0.3417 0.3450
H5 H 0.1582 0.2154 0.4012
C3 C 0.4717(5) 0.2333(3) 0.4893(3)
C4 C 0.6740(5) 0.3220(4) 0.4978(3)
H6 H 0.6947 0.4069 0.4452
C5 C 0.8441(6) 0.2872(4) 0.5820(3)
H7 H 0.9749 0.3538 0.5906
C6 C 0.8246(5) 0.1545(4) 0.6546(3)
H8 H 0.9469 0.1263 0.7081
C7 C 0.3757(5) -0.0631(3) 0.3518(2)
C8 C 0.4448(4) 0.1129(3) 0.5720(2)
H9 H 0.3005 0.0643 0.5760
C7B C 0.6243(5) 0.0631(3) 0.6482(2)
N1B N 0.617(5) -0.096(3) 0.709(3)
H1B H 0.464(7) -0.112(8) 0.712(7)
C2B C 0.6846(5) -0.2340(4) 0.6185(3)
H4B H 0.6789 -0.3417 0.6550
H5B H 0.8418 -0.2154 0.5988
C3B C 0.5283(5) -0.2333(3) 0.5107(3)
C4B C 0.3260(5) -0.3220(4) 0.5022(3)
H6B H 0.3053 -0.4069 0.5548
C5B C 0.1559(6) -0.2872(4) 0.4180(3)
H7B H 0.0251 -0.3538 0.4094
C6B C 0.1754(5) -0.1545(4) 0.3454(3)
H8B H 0.0531 -0.1263 0.2919
C8B C 0.5552(4) -0.1129(3) 0.4280(2)
H9B H 0.6995 -0.0643 0.4240
C1? C 0.375(6) 0.108(3) 0.303(4)
H2? H 0.5279 0.1313 0.2788
H3? H 0.2673 0.1117 0.2347
loop_
_geom_bond_atom_site_label_1
_geom_bond_atom_site_label_2
_geom_bond_site_symmetry_1
_geom_bond_site_symmetry_2
N1 H1 1_555 1_555
C2 N1 1_555 1_555
H4 C2 1_555 1_555
H5 C2 1_555 1_555
C3 C2 1_555 1_555
C4 C3 1_555 1_555
H6 C4 1_555 1_555
C5 C4 1_555 1_555
H7 C5 1_555 1_555
C6 C5 1_555 1_555
H8 C6 1_555 1_555
C7 N1 1_555 1_555
C8 C3 1_555 1_555
H9 C8 1_555 1_555
C7B C6 1_555 1_555
N1B C7B 1_555 1_555
H1B N1B 1_555 1_555
C2B N1B 1_555 1_555
H4B C2B 1_555 1_555
H5B C2B 1_555 1_555
C3B C2B 1_555 1_555
C4B C3B 1_555 1_555
H6B C4B 1_555 1_555
C5B C4B 1_555 1_555
H7B C5B 1_555 1_555
C6B C7 1_555 1_555
H8B C6B 1_555 1_555
C8B C7 1_555 1_555
H9B C8B 1_555 1_555
C8 C7B 1_555 1_555
C3B C8B 1_555 1_555
C5B C6B 1_555 1_555

#END
