
#######################################################################
#
#                 Cambridge Crystallographic Data Centre
#                                CCDC 
#
#######################################################################
#
# If this CIF has been generated from an entry in the Cambridge 
# Structural Database, then it will include bibliographic, chemical, 
# crystal, experimental, refinement or atomic coordinate data resulting 
# from the CCDC's data processing and validation procedures.
#
#######################################################################

data_YAFJOF
_chemical_formula_moiety         'C20 H16 Br4 O2'
_chemical_name_systematic        
5,7-bis(Bromomethyl)-6,9-dibromo(3.3)(1,3)cyclophane-2,11-dione
_symmetry_cell_setting           monoclinic
_symmetry_space_group_name_H-M   'P 21/c'
_symmetry_Int_Tables_number      14
_space_group_name_Hall           '-P 2ybc'
loop_
_symmetry_equiv_pos_site_id
_symmetry_equiv_pos_as_xyz
1 x,y,z
2 x,1/2-y,1/2+z
3 -x,-y,-z
4 -x,1/2+y,1/2-z
_cell_length_a                   15.855(7)
_cell_length_b                   9.173(4)
_cell_length_c                   13.730(6)
_cell_angle_alpha                90
_cell_angle_beta                 95.58(4)
_cell_angle_gamma                90
_cell_volume                     1987.4
_exptl_crystal_colour            colorless
_exptl_crystal_description       prisms
_cell_formula_units_Z            4
loop_
_atom_site_label
_atom_site_type_symbol
_atom_site_fract_x
_atom_site_fract_y
_atom_site_fract_z
C1 C 0.6046(8) -0.2426(17) -0.0599(11)
H1 H 0.6122 -0.3473 -0.0544
H2 H 0.5793 -0.2227 -0.1257
C2 C 0.5413(8) -0.1971(15) 0.0109(12)
O1 O 0.4737(7) -0.1672(17) -0.0203(9)
C3 C 0.5623(8) -0.2003(17) 0.1274(10)
H3 H 0.5461 -0.1067 0.1527
H4 H 0.5263 -0.2733 0.1532
C4 C 0.6542(7) -0.2315(14) 0.1691(9)
C5 C 0.7105(7) -0.1123(12) 0.1972(9)
C6 C 0.6802(8) 0.0452(13) 0.1910(10)
H5 H 0.6318 0.0535 0.1423
H6 H 0.7250 0.1072 0.1712
Br1 Br 0.64792(15) 0.1094(2) 0.31961(19)
C7 C 0.7942(7) -0.1447(12) 0.2238(9)
Br2 Br 0.86852(9) 0.01125(15) 0.26641(12)
C8 C 0.8281(7) -0.2853(13) 0.2193(9)
C9 C 0.7712(8) -0.4012(13) 0.2019(9)
C10 C 0.8020(10) -0.5569(14) 0.2141(11)
H7 H 0.7575 -0.6170 0.2367
H8 H 0.8504 -0.5606 0.2631
Br3 Br 0.8340(2) -0.6328(3) 0.0914(2)
C11 C 0.6846(8) -0.3691(14) 0.1769(10)
Br4 Br 0.61023(10) -0.52937(18) 0.14699(15)
C12 C 0.9233(7) -0.3067(15) 0.2243(10)
H9 H 0.9357 -0.4100 0.2311
H10 H 0.9495 -0.2581 0.2823
C13 C 0.9638(8) -0.2474(16) 0.1330(11)
O2 O 1.0284(6) -0.1838(16) 0.1432(9)
C14 C 0.9215(9) -0.281(2) 0.0252(12)
H11 H 0.9632 -0.2655 -0.0209
H12 H 0.9052 -0.3833 0.0214
C15 C 0.8428(8) -0.1864(17) -0.0052(9)
C16 C 0.8488(9) -0.0385(17) -0.0158(11)
H13 H 0.9014 0.0064 -0.0035
C17 C 0.7800(10) 0.0436(17) -0.0439(10)
H14 H 0.7856 0.1432 -0.0539
C18 C 0.6990(10) -0.0232(17) -0.0581(11)
H15 H 0.6510 0.0335 -0.0741
C19 C 0.6915(8) -0.1725(15) -0.0482(9)
C20 C 0.7642(8) -0.2555(15) -0.0256(9)
H16 H 0.7607 -0.3567 -0.0240
loop_
_geom_bond_atom_site_label_1
_geom_bond_atom_site_label_2
_geom_bond_site_symmetry_1
_geom_bond_site_symmetry_2
C1 H1 1_555 1_555
H2 C1 1_555 1_555
C2 C1 1_555 1_555
O1 C2 1_555 1_555
C3 C2 1_555 1_555
H3 C3 1_555 1_555
H4 C3 1_555 1_555
C4 C3 1_555 1_555
C5 C4 1_555 1_555
C6 C5 1_555 1_555
H5 C6 1_555 1_555
H6 C6 1_555 1_555
Br1 C6 1_555 1_555
C7 C5 1_555 1_555
Br2 C7 1_555 1_555
C8 C7 1_555 1_555
C9 C8 1_555 1_555
C10 C9 1_555 1_555
H7 C10 1_555 1_555
H8 C10 1_555 1_555
Br3 C10 1_555 1_555
C11 C4 1_555 1_555
Br4 C11 1_555 1_555
C12 C8 1_555 1_555
H9 C12 1_555 1_555
H10 C12 1_555 1_555
C13 C12 1_555 1_555
O2 C13 1_555 1_555
C14 C13 1_555 1_555
H11 C14 1_555 1_555
H12 C14 1_555 1_555
C15 C14 1_555 1_555
C16 C15 1_555 1_555
H13 C16 1_555 1_555
C17 C16 1_555 1_555
H14 C17 1_555 1_555
C18 C17 1_555 1_555
H15 C18 1_555 1_555
C19 C1 1_555 1_555
C20 C15 1_555 1_555
H16 C20 1_555 1_555
C9 C11 1_555 1_555
C18 C19 1_555 1_555
C19 C20 1_555 1_555

#END
