
#######################################################################
#
#                 Cambridge Crystallographic Data Centre
#                                CCDC 
#
#######################################################################
#
# If this CIF has been generated from an entry in the Cambridge 
# Structural Database, then it will include bibliographic, chemical, 
# crystal, experimental, refinement or atomic coordinate data resulting 
# from the CCDC's data processing and validation procedures.
#
#######################################################################

data_YAFLEX
_chemical_formula_moiety         'C32 H26 N6 2+,2(Br1 1-),5(H2 O1)'
_chemical_name_systematic        
"N,N'-bis(2,2'-Bipyridin-5'-ylmethyl)-4,4'-bipyridinium dibromide pentahydrate"
_symmetry_cell_setting           triclinic
_symmetry_space_group_name_H-M   'P -1'
_symmetry_Int_Tables_number      2
_space_group_name_Hall           '-P 1'
loop_
_symmetry_equiv_pos_site_id
_symmetry_equiv_pos_as_xyz
1 x,y,z
2 -x,-y,-z
_cell_length_a                   8.802(3)
_cell_length_b                   16.426(6)
_cell_length_c                   18.867(7)
_cell_angle_alpha                66.36(3)
_cell_angle_beta                 79.64(3)
_cell_angle_gamma                82.73(3)
_cell_volume                     2453.68
_exptl_crystal_colour            colorless
_exptl_crystal_description       prisms
_cell_formula_units_Z            3
loop_
_atom_site_label
_atom_site_type_symbol
_atom_site_fract_x
_atom_site_fract_y
_atom_site_fract_z
Br1 Br 0.63499(13) 0.64947(7) 0.68698(6)
C1 C 0.8809(10) 0.3864(6) 0.5466(4)
C2 C 1.0067(10) 0.3510(6) 0.5839(5)
H1 H 1.0828 0.3151 0.5673
C3 C 1.0160(10) 0.3705(6) 0.6469(5)
H2 H 1.1029 0.3473 0.6719
N1 N 0.9115(8) 0.4198(5) 0.6758(4)
C4 C 0.7852(12) 0.4533(6) 0.6408(6)
H3 H 0.7092 0.4870 0.6600
C5 C 0.7692(11) 0.4382(6) 0.5785(5)
H4 H 0.6812 0.4624 0.5546
C6 C 0.9234(11) 0.4329(6) 0.7468(5)
H5 H 0.8949 0.4947 0.7386
H6 H 1.0302 0.4209 0.7564
C7 C 0.8186(11) 0.3723(7) 0.8206(5)
C8 C 0.8757(12) 0.2868(7) 0.8612(5)
H7 H 0.9725 0.2672 0.8427
N2 N 0.7931(10) 0.2295(5) 0.9286(4)
C9 C 0.6490(11) 0.2582(6) 0.9551(5)
C10 C 0.5841(12) 0.3403(7) 0.9169(6)
H8 H 0.4864 0.3585 0.9356
C11 C 0.6718(12) 0.3986(7) 0.8461(5)
H9 H 0.6286 0.4545 0.8176
C12 C 0.5628(13) 0.1960(8) 1.0344(6)
N3 N 0.4102(12) 0.2164(7) 1.0577(6)
C13 C 0.3398(15) 0.1637(10) 1.1331(8)
H10 H 0.2374 0.1769 1.1501
C14 C 0.4201(18) 0.0946(9) 1.1803(7)
H11 H 0.3742 0.0605 1.2303
C15 C 0.5704(18) 0.0741(8) 1.1546(7)
H12 H 0.6239 0.0245 1.1870
C16 C 0.6475(13) 0.1280(7) 1.0783(5)
H13 H 0.7502 0.1157 1.0611
C17 C 0.8622(10) 0.3687(6) 0.4784(5)
C18 C 0.7461(11) 0.4127(7) 0.4364(5)
H14 H 0.6781 0.4529 0.4514
C19 C 0.7288(12) 0.3979(7) 0.3719(5)
H15 H 0.6468 0.4274 0.3447
N4 N 0.8258(9) 0.3427(5) 0.3470(4)
C20 C 0.9386(13) 0.2960(8) 0.3873(6)
H16 H 1.0024 0.2541 0.3725
C21 C 0.9584(12) 0.3111(8) 0.4509(6)
H17 H 1.0411 0.2810 0.4773
C22 C 0.8107(11) 0.3338(6) 0.2734(5)
H18 H 0.7036 0.3468 0.2644
H19 H 0.8395 0.2729 0.2786
C23 C 0.9126(10) 0.3966(7) 0.2033(5)
C24 C 0.8543(12) 0.4804(7) 0.1633(6)
H20 H 0.7549 0.4989 0.1799
N5 N 0.9443(12) 0.5401(6) 0.0963(5)
C25 C 1.0886(12) 0.5125(8) 0.0706(6)
C26 C 1.1466(10) 0.4329(7) 0.1085(5)
H21 H 1.2462 0.4151 0.0915
C27 C 1.0618(12) 0.3753(8) 0.1730(6)
H22 H 1.1060 0.3186 0.1983
C28 C 1.1829(13) 0.5785(8) -0.0039(5)
N6 N 1.3279(12) 0.5463(7) -0.0304(5)
C29 C 1.4147(14) 0.6034(12) -0.0977(7)
H23 H 1.5111 0.5838 -0.1165
C30 C 1.3556(17) 0.6898(9) -0.1362(6)
H24 H 1.4145 0.7294 -0.1795
C31 C 1.2087(16) 0.7164(8) -0.1099(7)
H25 H 1.1670 0.7731 -0.1374
C32 C 1.1221(12) 0.6595(7) -0.0425(6)
H26 H 1.0235 0.6780 -0.0250
Br2 Br 0.61664(13) 0.62229(7) 0.27402(6)
Br3 Br 0.84277(12) 0.85604(7) 0.25811(7)
C33 C 0.4676(10) 0.9689(5) 0.0412(4)
C34 C 0.3073(10) 0.9702(7) 0.0723(5)
H27 H 0.2375 1.0087 0.0407
C35 C 0.2519(12) 0.9144(7) 0.1499(5)
H28 H 0.1476 0.9175 0.1697
N7 N 0.3487(8) 0.8591(4) 0.1928(4)
C36 C 0.5022(11) 0.8540(7) 0.1650(5)
H29 H 0.5687 0.8132 0.1973
C37 C 0.5628(12) 0.9095(7) 0.0879(5)
H30 H 0.6677 0.9047 0.0698
C38 C 0.2832(11) 0.7979(6) 0.2754(4)
H31 H 0.1767 0.7876 0.2761
H32 H 0.3418 0.7409 0.2896
C39 C 0.2892(10) 0.8363(5) 0.3341(5)
C40 C 0.4030(12) 0.8141(6) 0.3771(5)
H33 H 0.4846 0.7779 0.3649
N8 N 0.4142(9) 0.8377(5) 0.4361(4)
C41 C 0.3026(11) 0.8965(5) 0.4502(5)
C42 C 0.1808(11) 0.9248(7) 0.4102(5)
H34 H 0.1027 0.9635 0.4212
C43 C 0.1760(11) 0.8942(7) 0.3525(5)
H35 H 0.0926 0.9134 0.3244
C44 C 0.3131(11) 0.9246(7) 0.5142(5)
N9 N 0.2504(9) 1.0050(6) 0.5081(5)
C45 C 0.2597(11) 1.0315(7) 0.5657(7)
H36 H 0.2156 1.0873 0.5621
C46 C 0.3283(13) 0.9825(9) 0.6275(7)
H37 H 0.3326 1.0044 0.6655
C47 C 0.3928(13) 0.8999(7) 0.6355(6)
H38 H 0.4394 0.8638 0.6791
C48 C 0.3861(11) 0.8714(7) 0.5753(6)
H39 H 0.4316 0.8163 0.5775
C33A C 0.5324(10) 1.0311(5) -0.0412(4)
C34A C 0.6927(10) 1.0298(7) -0.0723(5)
H27A H 0.7625 0.9913 -0.0407
C35A C 0.7481(12) 1.0856(7) -0.1499(5)
H28A H 0.8524 1.0825 -0.1697
N7A N 0.6513(8) 1.1409(4) -0.1928(4)
C36A C 0.4978(11) 1.1460(7) -0.1650(5)
H29A H 0.4313 1.1868 -0.1973
C37A C 0.4372(12) 1.0905(7) -0.0879(5)
H30A H 0.3323 1.0953 -0.0698
C38A C 0.7168(11) 1.2021(6) -0.2754(4)
H31A H 0.8233 1.2124 -0.2761
H32A H 0.6582 1.2591 -0.2896
C39A C 0.7108(10) 1.1637(5) -0.3341(5)
C40A C 0.5970(12) 1.1859(6) -0.3771(5)
H33A H 0.5154 1.2221 -0.3649
N8A N 0.5858(9) 1.1623(5) -0.4361(4)
C41A C 0.6974(11) 1.1035(5) -0.4502(5)
C42A C 0.8192(11) 1.0752(7) -0.4102(5)
H34A H 0.8973 1.0365 -0.4212
C43A C 0.8240(11) 1.1058(7) -0.3525(5)
H35A H 0.9074 1.0866 -0.3244
C44A C 0.6869(11) 1.0754(7) -0.5142(5)
N9A N 0.7496(9) 0.9950(6) -0.5081(5)
C45A C 0.7403(11) 0.9685(7) -0.5657(7)
H36A H 0.7844 0.9127 -0.5621
C46A C 0.6717(13) 1.0175(9) -0.6275(7)
H37A H 0.6674 0.9956 -0.6655
C47A C 0.6072(13) 1.1001(7) -0.6355(6)
H38A H 0.5606 1.1362 -0.6791
C48A C 0.6139(11) 1.1286(7) -0.5753(6)
H39A H 0.5684 1.1837 -0.5775
O1 O 0.5942(8) 0.5999(5) 0.4560(4)
O2 O 1.0002(11) 0.1478(6) 0.2856(6)
O3 O 0.7976(19) 0.7183(12) 0.0705(11)
O4 O 0.6774(8) 0.7347(5) 0.4953(4)
O5 O -0.0199(10) 1.0588(6) 0.1914(5)
O6 O 0.2117(11) 1.1507(7) 0.3644(6)
O7 O 0.0415(16) 1.1403(10) 0.0235(8)
O8 O 0.945(3) 0.9430(17) 0.0582(15)
loop_
_geom_bond_atom_site_label_1
_geom_bond_atom_site_label_2
_geom_bond_site_symmetry_1
_geom_bond_site_symmetry_2
C1 C2 1_555 1_555
C2 H1 1_555 1_555
C3 C2 1_555 1_555
H2 C3 1_555 1_555
N1 C3 1_555 1_555
C4 N1 1_555 1_555
H3 C4 1_555 1_555
C5 C1 1_555 1_555
H4 C5 1_555 1_555
C6 N1 1_555 1_555
H5 C6 1_555 1_555
H6 C6 1_555 1_555
C7 C6 1_555 1_555
C8 C7 1_555 1_555
H7 C8 1_555 1_555
N2 C8 1_555 1_555
C9 N2 1_555 1_555
C10 C9 1_555 1_555
H8 C10 1_555 1_555
C11 C7 1_555 1_555
H9 C11 1_555 1_555
C12 C9 1_555 1_555
N3 C12 1_555 1_555
C13 N3 1_555 1_555
H10 C13 1_555 1_555
C14 C13 1_555 1_555
H11 C14 1_555 1_555
C15 C14 1_555 1_555
H12 C15 1_555 1_555
C16 C12 1_555 1_555
H13 C16 1_555 1_555
C17 C1 1_555 1_555
C18 C17 1_555 1_555
H14 C18 1_555 1_555
C19 C18 1_555 1_555
H15 C19 1_555 1_555
N4 C19 1_555 1_555
C20 N4 1_555 1_555
H16 C20 1_555 1_555
C21 C17 1_555 1_555
H17 C21 1_555 1_555
C22 N4 1_555 1_555
H18 C22 1_555 1_555
H19 C22 1_555 1_555
C23 C22 1_555 1_555
C24 C23 1_555 1_555
H20 C24 1_555 1_555
N5 C24 1_555 1_555
C25 N5 1_555 1_555
C26 C25 1_555 1_555
H21 C26 1_555 1_555
C27 C23 1_555 1_555
H22 C27 1_555 1_555
C28 C25 1_555 1_555
N6 C28 1_555 1_555
C29 N6 1_555 1_555
H23 C29 1_555 1_555
C30 C29 1_555 1_555
H24 C30 1_555 1_555
C31 C30 1_555 1_555
H25 C31 1_555 1_555
C32 C28 1_555 1_555
H26 C32 1_555 1_555
C33 C34 1_555 1_555
C34 H27 1_555 1_555
C35 C34 1_555 1_555
H28 C35 1_555 1_555
N7 C35 1_555 1_555
C36 N7 1_555 1_555
H29 C36 1_555 1_555
C37 C33 1_555 1_555
H30 C37 1_555 1_555
C38 N7 1_555 1_555
H31 C38 1_555 1_555
H32 C38 1_555 1_555
C39 C38 1_555 1_555
C40 C39 1_555 1_555
H33 C40 1_555 1_555
N8 C40 1_555 1_555
C41 N8 1_555 1_555
C42 C41 1_555 1_555
H34 C42 1_555 1_555
C43 C39 1_555 1_555
H35 C43 1_555 1_555
C44 C41 1_555 1_555
N9 C44 1_555 1_555
C45 N9 1_555 1_555
H36 C45 1_555 1_555
C46 C45 1_555 1_555
H37 C46 1_555 1_555
C47 C46 1_555 1_555
H38 C47 1_555 1_555
C48 C44 1_555 1_555
H39 C48 1_555 1_555
C33A C33 1_555 1_555
C34A C33A 1_555 1_555
H27A C34A 1_555 1_555
C35A C34A 1_555 1_555
H28A C35A 1_555 1_555
N7A C35A 1_555 1_555
C36A N7A 1_555 1_555
H29A C36A 1_555 1_555
C37A C33A 1_555 1_555
H30A C37A 1_555 1_555
C38A N7A 1_555 1_555
H31A C38A 1_555 1_555
H32A C38A 1_555 1_555
C39A C38A 1_555 1_555
C40A C39A 1_555 1_555
H33A C40A 1_555 1_555
N8A C40A 1_555 1_555
C41A N8A 1_555 1_555
C42A C41A 1_555 1_555
H34A C42A 1_555 1_555
C43A C39A 1_555 1_555
H35A C43A 1_555 1_555
C44A C41A 1_555 1_555
N9A C44A 1_555 1_555
C45A N9A 1_555 1_555
H36A C45A 1_555 1_555
C46A C45A 1_555 1_555
H37A C46A 1_555 1_555
C47A C46A 1_555 1_555
H38A C47A 1_555 1_555
C48A C44A 1_555 1_555
H39A C48A 1_555 1_555
C4 C5 1_555 1_555
C10 C11 1_555 1_555
C15 C16 1_555 1_555
C20 C21 1_555 1_555
C26 C27 1_555 1_555
C31 C32 1_555 1_555
C36 C37 1_555 1_555
C42 C43 1_555 1_555
C47 C48 1_555 1_555
C36A C37A 1_555 1_555
C42A C43A 1_555 1_555
C47A C48A 1_555 1_555

#END
