
#######################################################################
#
#                 Cambridge Crystallographic Data Centre
#                                CCDC 
#
#######################################################################
#
# If this CIF has been generated from an entry in the Cambridge 
# Structural Database, then it will include bibliographic, chemical, 
# crystal, experimental, refinement or atomic coordinate data resulting 
# from the CCDC's data processing and validation procedures.
#
#######################################################################

data_YAFNID
_chemical_formula_moiety         'C24 H30 O2'
_chemical_name_systematic        4,4'-Diphenylbi-cyclohexyl-1,1'-diol
_symmetry_cell_setting           monoclinic
_symmetry_space_group_name_H-M   'C 2/c'
_symmetry_Int_Tables_number      15
_space_group_name_Hall           '-C 2yn'
loop_
_symmetry_equiv_pos_site_id
_symmetry_equiv_pos_as_xyz
1 x,y,z
2 1/2+x,1/2+y,z
3 x,-y,1/2+z
4 1/2+x,1/2-y,1/2+z
5 -x,-y,-z
6 1/2-x,1/2-y,-z
7 -x,y,1/2-z
8 1/2-x,1/2+y,1/2-z
_cell_length_a                   18.054(1)
_cell_length_b                   10.014(1)
_cell_length_c                   10.647(1)
_cell_angle_alpha                90
_cell_angle_beta                 94.83(1)
_cell_angle_gamma                90
_cell_volume                     1918.06
_exptl_crystal_colour            colorless
_exptl_crystal_description       plates
_cell_formula_units_Z            4
loop_
_atom_site_label
_atom_site_type_symbol
_atom_site_fract_x
_atom_site_fract_y
_atom_site_fract_z
O1 O -0.00711(12) 0.44572(18) 0.62849(17)
H1 H 0.003(4) 0.498(4) 0.688(4)
C1 C 0.01568(12) 0.3180(2) 0.6836(2)
C2 C -0.01625(14) 0.2087(3) 0.5962(2)
H3 H -0.0695 0.2217 0.5813
H4 H -0.0081 0.1230 0.6376
C3 C 0.01748(14) 0.2049(3) 0.4697(2)
H5 H -0.0027 0.1293 0.4212
H6 H 0.0036 0.2855 0.4228
C4 C 0.10173(14) 0.1939(2) 0.4854(2)
H7 H 0.1139 0.1113 0.5320
C5 C 0.13293(14) 0.3098(3) 0.5670(3)
H8 H 0.1866 0.3022 0.5792
H9 H 0.1210 0.3935 0.5243
C6 C 0.10078(13) 0.3095(3) 0.6942(2)
H10 H 0.1210 0.3846 0.7434
H11 H 0.1161 0.2284 0.7390
C7 C 0.13595(13) 0.1843(2) 0.3615(2)
C8 C 0.13734(16) 0.2929(3) 0.2796(3)
H12 H 0.1160 0.3732 0.3013
C9 C 0.16966(17) 0.2837(3) 0.1674(3)
H13 H 0.1697 0.3574 0.1143
C10 C 0.20185(16) 0.1661(3) 0.1331(3)
H14 H 0.2238 0.1603 0.0574
C11 C 0.20131(15) 0.0575(3) 0.2118(3)
H15 H 0.2230 -0.0224 0.1895
C12 C 0.16862(15) 0.0669(3) 0.3240(3)
H16 H 0.1685 -0.0076 0.3761
C1F C -0.01568(12) 0.3180(2) 0.8164(2)
O1F O 0.00711(12) 0.44572(18) 0.87151(17)
H1F H -0.003(4) 0.498(4) 0.812(4)
C2F C 0.01625(14) 0.2087(3) 0.9038(2)
H3F H 0.0695 0.2217 0.9187
H4F H 0.0081 0.1230 0.8624
C3F C -0.01748(14) 0.2049(3) 1.0303(2)
H5F H 0.0027 0.1293 1.0788
H6F H -0.0036 0.2855 1.0772
C4F C -0.10173(14) 0.1939(2) 1.0146(2)
H7F H -0.1139 0.1113 0.9680
C5F C -0.13293(14) 0.3098(3) 0.9330(3)
H8F H -0.1866 0.3022 0.9208
H9F H -0.1210 0.3935 0.9757
C6F C -0.10078(13) 0.3095(3) 0.8058(2)
H10F H -0.1210 0.3846 0.7566
H11F H -0.1161 0.2284 0.7610
C7F C -0.13595(13) 0.1843(2) 1.1385(2)
C8F C -0.13734(16) 0.2929(3) 1.2204(3)
H12F H -0.1160 0.3732 1.1987
C9F C -0.16966(17) 0.2837(3) 1.3326(3)
H13F H -0.1697 0.3574 1.3857
C10F C -0.20185(16) 0.1661(3) 1.3669(3)
H14F H -0.2238 0.1603 1.4426
C11F C -0.20131(15) 0.0575(3) 1.2882(3)
H15F H -0.2230 -0.0224 1.3105
C12F C -0.16862(15) 0.0669(3) 1.1760(3)
H16F H -0.1685 -0.0076 1.1239
H2? H 0.003(4) 0.439(5) 0.555(3)
loop_
_geom_bond_atom_site_label_1
_geom_bond_atom_site_label_2
_geom_bond_site_symmetry_1
_geom_bond_site_symmetry_2
O1 H1 1_555 1_555
C1 O1 1_555 1_555
C2 C1 1_555 1_555
H3 C2 1_555 1_555
H4 C2 1_555 1_555
C3 C2 1_555 1_555
H5 C3 1_555 1_555
H6 C3 1_555 1_555
C4 C3 1_555 1_555
H7 C4 1_555 1_555
C5 C4 1_555 1_555
H8 C5 1_555 1_555
H9 C5 1_555 1_555
C6 C1 1_555 1_555
H10 C6 1_555 1_555
H11 C6 1_555 1_555
C7 C4 1_555 1_555
C8 C7 1_555 1_555
H12 C8 1_555 1_555
C9 C8 1_555 1_555
H13 C9 1_555 1_555
C10 C9 1_555 1_555
H14 C10 1_555 1_555
C11 C10 1_555 1_555
H15 C11 1_555 1_555
C12 C7 1_555 1_555
H16 C12 1_555 1_555
C1F C1 1_555 1_555
O1F C1F 1_555 1_555
H1F O1F 1_555 1_555
C2F C1F 1_555 1_555
H3F C2F 1_555 1_555
H4F C2F 1_555 1_555
C3F C2F 1_555 1_555
H5F C3F 1_555 1_555
H6F C3F 1_555 1_555
C4F C3F 1_555 1_555
H7F C4F 1_555 1_555
C5F C4F 1_555 1_555
H8F C5F 1_555 1_555
H9F C5F 1_555 1_555
C6F C1F 1_555 1_555
H10F C6F 1_555 1_555
H11F C6F 1_555 1_555
C7F C4F 1_555 1_555
C8F C7F 1_555 1_555
H12F C8F 1_555 1_555
C9F C8F 1_555 1_555
H13F C9F 1_555 1_555
C10F C9F 1_555 1_555
H14F C10F 1_555 1_555
C11F C10F 1_555 1_555
H15F C11F 1_555 1_555
C12F C7F 1_555 1_555
H16F C12F 1_555 1_555
C5 C6 1_555 1_555
C11 C12 1_555 1_555
C5F C6F 1_555 1_555
C11F C12F 1_555 1_555

#END
