
#######################################################################
#
#                 Cambridge Crystallographic Data Centre
#                                CCDC 
#
#######################################################################
#
# If this CIF has been generated from an entry in the Cambridge 
# Structural Database, then it will include bibliographic, chemical, 
# crystal, experimental, refinement or atomic coordinate data resulting 
# from the CCDC's data processing and validation procedures.
#
#######################################################################

data_YAFNOJ
_chemical_formula_moiety         'C24 H26 O2'
_chemical_name_systematic        4,4'-bis(4-Oxocyclohexyl)biphenyl
_symmetry_cell_setting           tetragonal
_symmetry_space_group_name_H-M   'P 41 21 2'
_symmetry_Int_Tables_number      92
_space_group_name_Hall           'P 4abw 2nw'
loop_
_symmetry_equiv_pos_site_id
_symmetry_equiv_pos_as_xyz
1 x,y,z
2 -x,-y,1/2+z
3 1/2-y,1/2+x,1/4+z
4 1/2+y,1/2-x,3/4+z
5 1/2-x,1/2+y,1/4-z
6 1/2+x,1/2-y,3/4-z
7 y,x,-z
8 -y,-x,1/2-z
_cell_length_a                   7.192(2)
_cell_length_b                   7.192(2)
_cell_length_c                   36.550(18)
_cell_angle_alpha                90
_cell_angle_beta                 90
_cell_angle_gamma                90
_cell_volume                     1890.54
_exptl_crystal_colour            colorless
_exptl_crystal_description       plates
_cell_formula_units_Z            4
loop_
_atom_site_label
_atom_site_type_symbol
_atom_site_fract_x
_atom_site_fract_y
_atom_site_fract_z
C1 C 0.9410(3) 0.0722(3) 0.00897(5)
C2 C 0.9641(3) 0.2618(3) 0.00573(6)
H1 H 1.0612 0.3073 -0.0085
C3 C 0.8469(3) 0.3860(3) 0.02303(6)
H2 H 0.8666 0.5129 0.0200
C4 C 0.7009(3) 0.3260(3) 0.04474(5)
C5 C 0.6757(3) 0.1356(3) 0.04767(5)
H3 H 0.5782 0.0900 0.0618
C6 C 0.7931(3) 0.0114(3) 0.02995(5)
H4 H 0.7717 -0.1155 0.0323
C7 C 0.5799(3) 0.4646(3) 0.06480(5)
H5 H 0.6182 0.5893 0.0571
C8 C 0.3745(3) 0.4430(3) 0.05553(5)
H6 H 0.3346 0.3182 0.0618
H7 H 0.3576 0.4593 0.0294
C9 C 0.2532(3) 0.5841(4) 0.07597(5)
H8 H 0.2820 0.7088 0.0676
H9 H 0.1231 0.5599 0.0708
C10 C 0.2868(3) 0.5712(3) 0.11600(6)
O1 O 0.1617(3) 0.5459(3) 0.13764(5)
C11 C 0.4841(4) 0.5889(3) 0.12707(6)
H10 H 0.4951 0.5656 0.1531
H11 H 0.5262 0.7149 0.1224
C12 C 0.6078(3) 0.4521(3) 0.10615(5)
H12 H 0.7370 0.4775 0.1119
H13 H 0.5801 0.3266 0.1142
C1F C 1.0722(3) -0.0590(3) -0.00897(5)
C2F C 1.2618(3) -0.0359(3) -0.00573(6)
H1F H 1.3073 0.0612 0.0085
C3F C 1.3860(3) -0.1531(3) -0.02303(6)
H2F H 1.5129 -0.1334 -0.0200
C4F C 1.3260(3) -0.2991(3) -0.04474(5)
C5F C 1.1356(3) -0.3243(3) -0.04767(5)
H3F H 1.0900 -0.4218 -0.0618
C6F C 1.0114(3) -0.2069(3) -0.02995(5)
H4F H 0.8845 -0.2283 -0.0323
C7F C 1.4646(3) -0.4201(3) -0.06480(5)
H5F H 1.5893 -0.3818 -0.0571
C8F C 1.4430(3) -0.6255(3) -0.05553(5)
H6F H 1.3182 -0.6654 -0.0618
H7F H 1.4593 -0.6424 -0.0294
C9F C 1.5841(4) -0.7468(3) -0.07597(5)
H8F H 1.7088 -0.7180 -0.0676
H9F H 1.5599 -0.8769 -0.0708
C10F C 1.5712(3) -0.7132(3) -0.11600(6)
O1F O 1.5459(3) -0.8383(3) -0.13764(5)
C11F C 1.5889(3) -0.5159(4) -0.12707(6)
H10F H 1.5656 -0.5049 -0.1531
H11F H 1.7149 -0.4738 -0.1224
C12F C 1.4521(3) -0.3922(3) -0.10615(5)
H12F H 1.4775 -0.2630 -0.1119
H13F H 1.3266 -0.4199 -0.1142
loop_
_geom_bond_atom_site_label_1
_geom_bond_atom_site_label_2
_geom_bond_site_symmetry_1
_geom_bond_site_symmetry_2
C1 C2 1_555 1_555
C2 H1 1_555 1_555
C3 C2 1_555 1_555
H2 C3 1_555 1_555
C4 C3 1_555 1_555
C5 C4 1_555 1_555
H3 C5 1_555 1_555
C6 C1 1_555 1_555
H4 C6 1_555 1_555
C7 C4 1_555 1_555
H5 C7 1_555 1_555
C8 C7 1_555 1_555
H6 C8 1_555 1_555
H7 C8 1_555 1_555
C9 C8 1_555 1_555
H8 C9 1_555 1_555
H9 C9 1_555 1_555
C10 C9 1_555 1_555
O1 C10 1_555 1_555
C11 C10 1_555 1_555
H10 C11 1_555 1_555
H11 C11 1_555 1_555
C12 C7 1_555 1_555
H12 C12 1_555 1_555
H13 C12 1_555 1_555
C1F C1 1_555 1_555
C2F C1F 1_555 1_555
H1F C2F 1_555 1_555
C3F C2F 1_555 1_555
H2F C3F 1_555 1_555
C4F C3F 1_555 1_555
C5F C4F 1_555 1_555
H3F C5F 1_555 1_555
C6F C1F 1_555 1_555
H4F C6F 1_555 1_555
C7F C4F 1_555 1_555
H5F C7F 1_555 1_555
C8F C7F 1_555 1_555
H6F C8F 1_555 1_555
H7F C8F 1_555 1_555
C9F C8F 1_555 1_555
H8F C9F 1_555 1_555
H9F C9F 1_555 1_555
C10F C9F 1_555 1_555
O1F C10F 1_555 1_555
C11F C10F 1_555 1_555
H10F C11F 1_555 1_555
H11F C11F 1_555 1_555
C12F C7F 1_555 1_555
H12F C12F 1_555 1_555
H13F C12F 1_555 1_555
C5 C6 1_555 1_555
C11 C12 1_555 1_555
C5F C6F 1_555 1_555
C11F C12F 1_555 1_555

#END
