
#######################################################################
#
#                 Cambridge Crystallographic Data Centre
#                                CCDC 
#
#######################################################################
#
# If this CIF has been generated from an entry in the Cambridge 
# Structural Database, then it will include bibliographic, chemical, 
# crystal, experimental, refinement or atomic coordinate data resulting 
# from the CCDC's data processing and validation procedures.
#
#######################################################################

data_YAFNAV
_chemical_formula_moiety         'C34 H34 N2 O8 S2,C1 H1 Cl3'
_chemical_name_systematic        
'2,11-bis(4-Tolylsulfonyl)-6,15-bis(methoxycarbonyl)-2,11-diaza-(3.3)metacyclophane chloroform solvate'
_symmetry_cell_setting           triclinic
_symmetry_space_group_name_H-M   'P -1'
_symmetry_Int_Tables_number      2
_space_group_name_Hall           '-P 1'
loop_
_symmetry_equiv_pos_site_id
_symmetry_equiv_pos_as_xyz
1 x,y,z
2 -x,-y,-z
_cell_length_a                   8.540(1)
_cell_length_b                   12.988(1)
_cell_length_c                   16.998(1)
_cell_angle_alpha                86.80(1)
_cell_angle_beta                 80.93(1)
_cell_angle_gamma                82.36(1)
_cell_volume                     1844.1
_exptl_crystal_colour            colorless
_exptl_crystal_description       plates
_cell_formula_units_Z            2
loop_
_atom_site_label
_atom_site_type_symbol
_atom_site_fract_x
_atom_site_fract_y
_atom_site_fract_z
C1 C 0.9156(6) 0.2098(4) 0.7286(3)
H1 H 0.9967 0.2528 0.7031
H2 H 0.9695 0.1399 0.7385
N1 N 0.7983(5) 0.2040(3) 0.6747(2)
C2 C 0.7316(7) 0.3041(4) 0.6395(3)
H3 H 0.6840 0.2909 0.5928
H4 H 0.8179 0.3468 0.6218
C3 C 0.6058(6) 0.3625(4) 0.6996(3)
C4 C 0.6118(6) 0.4667(4) 0.7145(3)
H5 H 0.6881 0.5033 0.6828
C5 C 0.5069(6) 0.5166(4) 0.7753(3)
C6 C 0.3961(6) 0.4613(4) 0.8233(3)
H6 H 0.3267 0.4941 0.8657
C7 C 0.3879(6) 0.3586(3) 0.8089(3)
C8 C 0.4872(6) 0.3117(4) 0.7456(3)
H7 H 0.4748 0.2439 0.7332
C9 C 0.2784(6) 0.2968(4) 0.8675(3)
H8 H 0.2291 0.3400 0.9125
H9 H 0.1928 0.2779 0.8410
N2 N 0.3694(5) 0.2013(3) 0.8972(2)
C10 C 0.4721(6) 0.2154(4) 0.9570(3)
H10 H 0.4999 0.1485 0.9843
H11 H 0.4136 0.2636 0.9970
C11 C 0.6225(6) 0.2575(3) 0.9179(3)
C12 C 0.6635(6) 0.3494(3) 0.9433(3)
H12 H 0.6043 0.3819 0.9886
C13 C 0.7946(6) 0.3921(3) 0.9000(3)
C14 C 0.8776(5) 0.3461(3) 0.8318(3)
H13 H 0.9626 0.3770 0.8021
C15 C 0.8371(5) 0.2552(3) 0.8068(3)
C16 C 0.7119(6) 0.2105(3) 0.8517(3)
H14 H 0.6874 0.1466 0.8367
S1 S 0.83730(18) 0.10392(11) 0.61655(9)
O1 O 0.8622(5) 0.0142(3) 0.6677(2)
O2 O 0.7149(5) 0.1135(3) 0.5686(3)
C17 C 1.0207(7) 0.1200(4) 0.5565(3)
C18 C 1.1617(7) 0.0803(4) 0.5820(4)
H15 H 1.1614 0.0393 0.6293
C19 C 1.3044(8) 0.1012(5) 0.5374(4)
H16 H 1.4007 0.0740 0.5552
C20 C 1.3099(8) 0.1607(5) 0.4677(4)
C21 C 1.1663(9) 0.1988(5) 0.4430(4)
H17 H 1.1666 0.2392 0.3954
C22 C 1.0220(8) 0.1790(5) 0.4867(4)
H18 H 0.9255 0.2057 0.4689
C23 C 1.4671(9) 0.1780(7) 0.4183(5)
H19 H 1.4622 0.2497 0.3985
H20 H 1.4889 0.1322 0.3736
H21 H 1.5516 0.1633 0.4508
C24 C 0.5155(7) 0.6245(4) 0.7991(3)
O3 O 0.4244(6) 0.6693(3) 0.8504(3)
O4 O 0.6420(5) 0.6647(3) 0.7587(2)
C25 C 0.6616(9) 0.7672(5) 0.7832(4)
H22 H 0.7613 0.7877 0.7552
H23 H 0.6632 0.7652 0.8402
H24 H 0.5733 0.8170 0.7704
S2 S 0.28417(15) 0.09425(9) 0.90449(8)
O5 O 0.1937(4) 0.0993(3) 0.8403(2)
O6 O 0.4084(4) 0.0102(2) 0.9117(2)
C26 C 0.1516(6) 0.0992(3) 0.9951(3)
C27 C -0.0056(6) 0.1440(3) 0.9974(3)
H25 H -0.0448 0.1681 0.9502
C28 C -0.1039(6) 0.1528(4) 1.0700(3)
H26 H -0.2107 0.1828 1.0716
C29 C -0.0503(6) 0.1189(4) 1.1400(3)
C30 C 0.1089(7) 0.0726(4) 1.1370(3)
H27 H 0.1474 0.0487 1.1845
C31 C 0.2086(6) 0.0619(4) 1.0654(3)
H28 H 0.3143 0.0297 1.0637
C32 C -0.1592(8) 0.1305(4) 1.2201(4)
H29 H -0.0950 0.1198 1.2629
H30 H -0.2336 0.0793 1.2259
H31 H -0.2181 0.1997 1.2226
C33 C 0.8283(6) 0.4939(4) 0.9255(3)
O7 O 0.7456(5) 0.5452(3) 0.9762(3)
O8 O 0.9610(4) 0.5233(3) 0.8837(2)
C34 C 1.0003(7) 0.6239(4) 0.9013(4)
H32 H 1.0984 0.6378 0.8675
H33 H 1.0146 0.6239 0.9568
H34 H 0.9143 0.6774 0.8914
C35 C 1.2323(8) 0.5008(5) 0.6252(4)
H35 H 1.2965 0.4743 0.6674
Cl1 Cl 1.0454(3) 0.5527(2) 0.67371(18)
Cl2 Cl 1.3300(4) 0.5932(3) 0.5715(2)
Cl3 Cl 1.2147(5) 0.3960(3) 0.5725(3)
loop_
_geom_bond_atom_site_label_1
_geom_bond_atom_site_label_2
_geom_bond_site_symmetry_1
_geom_bond_site_symmetry_2
C1 H1 1_555 1_555
H2 C1 1_555 1_555
N1 C1 1_555 1_555
C2 N1 1_555 1_555
H3 C2 1_555 1_555
H4 C2 1_555 1_555
C3 C2 1_555 1_555
C4 C3 1_555 1_555
H5 C4 1_555 1_555
C5 C4 1_555 1_555
C6 C5 1_555 1_555
H6 C6 1_555 1_555
C7 C6 1_555 1_555
C8 C3 1_555 1_555
H7 C8 1_555 1_555
C9 C7 1_555 1_555
H8 C9 1_555 1_555
H9 C9 1_555 1_555
N2 C9 1_555 1_555
C10 N2 1_555 1_555
H10 C10 1_555 1_555
H11 C10 1_555 1_555
C11 C10 1_555 1_555
C12 C11 1_555 1_555
H12 C12 1_555 1_555
C13 C12 1_555 1_555
C14 C13 1_555 1_555
H13 C14 1_555 1_555
C15 C1 1_555 1_555
C16 C11 1_555 1_555
H14 C16 1_555 1_555
S1 N1 1_555 1_555
O1 S1 1_555 1_555
O2 S1 1_555 1_555
C17 S1 1_555 1_555
C18 C17 1_555 1_555
H15 C18 1_555 1_555
C19 C18 1_555 1_555
H16 C19 1_555 1_555
C20 C19 1_555 1_555
C21 C20 1_555 1_555
H17 C21 1_555 1_555
C22 C17 1_555 1_555
H18 C22 1_555 1_555
C23 C20 1_555 1_555
H19 C23 1_555 1_555
H20 C23 1_555 1_555
H21 C23 1_555 1_555
C24 C5 1_555 1_555
O3 C24 1_555 1_555
O4 C24 1_555 1_555
C25 O4 1_555 1_555
H22 C25 1_555 1_555
H23 C25 1_555 1_555
H24 C25 1_555 1_555
S2 N2 1_555 1_555
O5 S2 1_555 1_555
O6 S2 1_555 1_555
C26 S2 1_555 1_555
C27 C26 1_555 1_555
H25 C27 1_555 1_555
C28 C27 1_555 1_555
H26 C28 1_555 1_555
C29 C28 1_555 1_555
C30 C29 1_555 1_555
H27 C30 1_555 1_555
C31 C26 1_555 1_555
H28 C31 1_555 1_555
C32 C29 1_555 1_555
H29 C32 1_555 1_555
H30 C32 1_555 1_555
H31 C32 1_555 1_555
C33 C13 1_555 1_555
O7 C33 1_555 1_555
O8 C33 1_555 1_555
C34 O8 1_555 1_555
H32 C34 1_555 1_555
H33 C34 1_555 1_555
H34 C34 1_555 1_555
C35 H35 1_555 1_555
Cl1 C35 1_555 1_555
Cl2 C35 1_555 1_555
Cl3 C35 1_555 1_555
C7 C8 1_555 1_555
C14 C15 1_555 1_555
C15 C16 1_555 1_555
C21 C22 1_555 1_555
C30 C31 1_555 1_555

#END
