
#######################################################################
#
#                 Cambridge Crystallographic Data Centre
#                                CCDC 
#
#######################################################################
#
# If this CIF has been generated from an entry in the Cambridge 
# Structural Database, then it will include bibliographic, chemical, 
# crystal, experimental, refinement or atomic coordinate data resulting 
# from the CCDC's data processing and validation procedures.
#
#######################################################################

data_YAFPAX
_chemical_formula_moiety         'C28 H34 O4'
_chemical_name_systematic        
8-(4'-(1,4-Dioxaspiro(4.5)dec-8-yl)biphenyl-4-yl)-1,4-dioxaspiro(4.5)decane
_symmetry_cell_setting           monoclinic
_symmetry_space_group_name_H-M   'P 21/c'
_symmetry_Int_Tables_number      14
_space_group_name_Hall           '-P 2ybc'
loop_
_symmetry_equiv_pos_site_id
_symmetry_equiv_pos_as_xyz
1 x,y,z
2 x,1/2-y,1/2+z
3 -x,-y,-z
4 -x,1/2+y,1/2-z
_cell_length_a                   13.969(7)
_cell_length_b                   9.144(3)
_cell_length_c                   9.139(4)
_cell_angle_alpha                90
_cell_angle_beta                 90.95(4)
_cell_angle_gamma                90
_cell_volume                     1167.19
_exptl_crystal_colour            colorless
_exptl_crystal_description       plates
_cell_formula_units_Z            2
loop_
_atom_site_label
_atom_site_type_symbol
_atom_site_fract_x
_atom_site_fract_y
_atom_site_fract_z
O1 O 0.89220(13) 0.46337(18) 0.19558(17)
O2 O 0.87497(14) 0.63113(18) 0.37713(19)
C1 C 0.53135(13) 0.4839(2) 0.9371(2)
C2 C 0.51333(15) 0.3687(3) 0.8428(2)
H1 H 0.4615 0.3076 0.8598
C3 C 0.57060(15) 0.3418(2) 0.7233(2)
H2 H 0.5557 0.2633 0.6624
C4 C 0.64881(14) 0.4274(2) 0.6918(2)
C5 C 0.66806(18) 0.5396(3) 0.7891(3)
H3 H 0.7213 0.5985 0.7742
C6 C 0.61088(16) 0.5672(3) 0.9077(3)
H4 H 0.6266 0.6445 0.9697
C7 C 0.70628(14) 0.4026(2) 0.5558(2)
H5 H 0.6887 0.3061 0.5171
C8 C 0.81462(14) 0.4025(3) 0.5823(2)
H6 H 0.8313 0.3255 0.6511
H7 H 0.8337 0.4951 0.6256
C9 C 0.86944(15) 0.3792(3) 0.4408(2)
H8 H 0.9377 0.3855 0.4614
H9 H 0.8559 0.2821 0.4030
C10 C 0.84200(17) 0.4911(2) 0.3274(2)
C11 C 0.73606(18) 0.4935(3) 0.2986(3)
H10 H 0.7167 0.4022 0.2528
H11 H 0.7207 0.5722 0.2311
C12 C 0.68028(17) 0.5147(3) 0.4392(2)
H12 H 0.6930 0.6119 0.4774
H13 H 0.6123 0.5080 0.4169
C13 C 0.9303(3) 0.5941(3) 0.1463(4)
H14 H 0.8973 0.6254 0.0576
H15 H 0.9977 0.5821 0.1252
C14 C 0.9182(2) 0.7021(3) 0.2615(3)
H16 H 0.9799 0.7413 0.2923
H17 H 0.8784 0.7821 0.2267
C1B C 0.46865(13) 0.5161(2) 1.0629(2)
C2B C 0.48667(15) 0.6313(3) 1.1572(2)
H1B H 0.5385 0.6924 1.1402
C3B C 0.42940(15) 0.6582(2) 1.2767(2)
H2B H 0.4443 0.7367 1.3376
C4B C 0.35119(14) 0.5726(2) 1.3082(2)
C5B C 0.33194(18) 0.4604(3) 1.2109(3)
H3B H 0.2787 0.4015 1.2258
C6B C 0.38912(16) 0.4328(3) 1.0923(3)
H4B H 0.3734 0.3555 1.0303
C7B C 0.29372(14) 0.5974(2) 1.4442(2)
H5B H 0.3113 0.6939 1.4829
C8B C 0.18538(14) 0.5975(3) 1.4177(2)
H6B H 0.1687 0.6745 1.3489
H7B H 0.1663 0.5049 1.3744
C9B C 0.13056(15) 0.6208(3) 1.5592(2)
H8B H 0.0623 0.6145 1.5386
H9B H 0.1441 0.7179 1.5970
C10B C 0.15800(17) 0.5089(2) 1.6726(2)
O1B O 0.10780(13) 0.53663(18) 1.80442(17)
C13B C 0.0697(3) 0.4059(3) 1.8537(4)
H14B H 0.1027 0.3746 1.9424
H15B H 0.0023 0.4179 1.8748
C14B C 0.0818(2) 0.2979(3) 1.7385(3)
O2B O 0.12503(14) 0.36887(18) 1.62287(19)
C11B C 0.26394(18) 0.5065(3) 1.7014(3)
H10B H 0.2833 0.5978 1.7472
H11B H 0.2793 0.4278 1.7689
C12B C 0.31972(17) 0.4853(3) 1.5608(2)
H12B H 0.3070 0.3881 1.5226
H13B H 0.3877 0.4920 1.5831
H16B H 0.0201 0.2587 1.7077
H17B H 0.1216 0.2179 1.7733
loop_
_geom_bond_atom_site_label_1
_geom_bond_atom_site_label_2
_geom_bond_site_symmetry_1
_geom_bond_site_symmetry_2
O1 C10 1_555 1_555
O2 C10 1_555 1_555
C1 C2 1_555 1_555
C2 H1 1_555 1_555
C3 C2 1_555 1_555
H2 C3 1_555 1_555
C4 C3 1_555 1_555
C5 C4 1_555 1_555
H3 C5 1_555 1_555
C6 C1 1_555 1_555
H4 C6 1_555 1_555
C7 C4 1_555 1_555
H5 C7 1_555 1_555
C8 C7 1_555 1_555
H6 C8 1_555 1_555
H7 C8 1_555 1_555
C9 C8 1_555 1_555
H8 C9 1_555 1_555
H9 C9 1_555 1_555
C10 C9 1_555 1_555
C11 C10 1_555 1_555
H10 C11 1_555 1_555
H11 C11 1_555 1_555
C12 C7 1_555 1_555
H12 C12 1_555 1_555
H13 C12 1_555 1_555
C13 O1 1_555 1_555
H14 C13 1_555 1_555
H15 C13 1_555 1_555
C14 O2 1_555 1_555
H16 C14 1_555 1_555
H17 C14 1_555 1_555
C1B C1 1_555 1_555
C2B C1B 1_555 1_555
H1B C2B 1_555 1_555
C3B C2B 1_555 1_555
H2B C3B 1_555 1_555
C4B C3B 1_555 1_555
C5B C4B 1_555 1_555
H3B C5B 1_555 1_555
C6B C1B 1_555 1_555
H4B C6B 1_555 1_555
C7B C4B 1_555 1_555
H5B C7B 1_555 1_555
C8B C7B 1_555 1_555
H6B C8B 1_555 1_555
H7B C8B 1_555 1_555
C9B C8B 1_555 1_555
H8B C9B 1_555 1_555
H9B C9B 1_555 1_555
C10B C9B 1_555 1_555
O1B C10B 1_555 1_555
C13B O1B 1_555 1_555
H14B C13B 1_555 1_555
H15B C13B 1_555 1_555
C14B C13B 1_555 1_555
O2B C10B 1_555 1_555
C11B C10B 1_555 1_555
H10B C11B 1_555 1_555
H11B C11B 1_555 1_555
C12B C7B 1_555 1_555
H12B C12B 1_555 1_555
H13B C12B 1_555 1_555
H16B C14B 1_555 1_555
H17B C14B 1_555 1_555
C5 C6 1_555 1_555
C11 C12 1_555 1_555
C13 C14 1_555 1_555
C5B C6B 1_555 1_555
C14B O2B 1_555 1_555
C11B C12B 1_555 1_555

#END
