
#######################################################################
#
#                 Cambridge Crystallographic Data Centre
#                                CCDC 
#
#######################################################################
#
# If this CIF has been generated from an entry in the Cambridge 
# Structural Database, then it will include bibliographic, chemical, 
# crystal, experimental, refinement or atomic coordinate data resulting 
# from the CCDC's data processing and validation procedures.
#
#######################################################################

data_YAFYOW
_chemical_formula_moiety         'C16 H11 N1 O3'
_chemical_name_systematic        
5a-methyl-12H-indolo[2,1-b][1,3]benzoxazine-6,12(5aH)-dione
_symmetry_cell_setting           monoclinic
_symmetry_space_group_name_H-M   'P 21/c'
_symmetry_Int_Tables_number      14
_space_group_name_Hall           '-P 2ybc'
loop_
_symmetry_equiv_pos_site_id
_symmetry_equiv_pos_as_xyz
1 x,y,z
2 -x,1/2+y,1/2-z
3 -x,-y,-z
4 x,1/2-y,1/2+z
_cell_length_a                   8.269(3)
_cell_length_b                   9.296(4)
_cell_length_c                   16.904(7)
_cell_angle_alpha                90
_cell_angle_beta                 93.281(4)
_cell_angle_gamma                90
_cell_volume                     1297.26
_exptl_crystal_colour            colorless
_exptl_crystal_description       block
_cell_formula_units_Z            4
loop_
_atom_site_label
_atom_site_type_symbol
_atom_site_fract_x
_atom_site_fract_y
_atom_site_fract_z
O1 O 0.15174(10) 0.66026(9) 0.49535(5)
N1 N 0.27209(12) 0.89260(11) 0.49444(6)
C1 C 0.23688(14) 0.63224(14) 0.56638(7)
O2 O 0.39330(13) 0.98868(10) 0.60681(6)
C2 C 0.33816(15) 0.73605(14) 0.60239(7)
C3 C 0.34237(15) 0.88385(14) 0.56991(7)
C4 C 0.11015(16) 0.82088(16) 0.38245(7)
C5 C 0.21203(16) 0.50071(14) 0.60197(8)
H1 H 0.1417 0.4334 0.5781
C6 C 0.21582(14) 1.01635(13) 0.45344(7)
C7 C 0.23046(15) 0.76285(13) 0.44819(7)
O3 O 0.03280(15) 0.74360(13) 0.33671(6)
C8 C 0.41962(17) 0.70227(16) 0.67455(8)
H2 H 0.4887 0.7696 0.6993
C9 C 0.29378(18) 0.47133(16) 0.67369(8)
H3 H 0.2778 0.3834 0.6983
C10 C 0.11921(15) 0.97720(15) 0.38650(7)
C11 C 0.37518(17) 0.69621(16) 0.41104(8)
H4 H 0.4468 0.6555 0.4518
H5 H 0.4316 0.7689 0.3831
H6 H 0.3389 0.6221 0.3747
C12 C 0.39890(19) 0.57021(17) 0.70960(8)
H7 H 0.4554 0.5478 0.7572
C13 C 0.24382(17) 1.16004(14) 0.47176(8)
H8 H 0.3059 1.1872 0.5169
C14 C 0.05093(18) 1.08144(17) 0.33576(8)
H9 H -0.0144 1.0552 0.2915
C15 C 0.08185(19) 1.22360(17) 0.35221(9)
H10 H 0.0402 1.2947 0.3181
C16 C 0.17545(19) 1.26132(16) 0.41990(9)
H11 H 0.1929 1.3583 0.4308
loop_
_geom_bond_atom_site_label_1
_geom_bond_atom_site_label_2
_geom_bond_site_symmetry_1
_geom_bond_site_symmetry_2
O1 C1 1_555 1_555
N1 C3 1_555 1_555
C1 C2 1_555 1_555
O2 C3 1_555 1_555
C2 C3 1_555 1_555
C4 C7 1_555 1_555
C5 C1 1_555 1_555
H1 C5 1_555 1_555
C6 N1 1_555 1_555
C7 O1 1_555 1_555
O3 C4 1_555 1_555
C8 C2 1_555 1_555
H2 C8 1_555 1_555
C9 C5 1_555 1_555
H3 C9 1_555 1_555
C10 C4 1_555 1_555
C11 C7 1_555 1_555
H4 C11 1_555 1_555
H5 C11 1_555 1_555
H6 C11 1_555 1_555
C12 C8 1_555 1_555
H7 C12 1_555 1_555
C13 C6 1_555 1_555
H8 C13 1_555 1_555
C14 C10 1_555 1_555
H9 C14 1_555 1_555
C15 C14 1_555 1_555
H10 C15 1_555 1_555
C16 C13 1_555 1_555
H11 C16 1_555 1_555
N1 C7 1_555 1_555
C6 C10 1_555 1_555
C9 C12 1_555 1_555
C15 C16 1_555 1_555

#END
