
#######################################################################
#
#                 Cambridge Crystallographic Data Centre
#                                CCDC 
#
#######################################################################
#
# If this CIF has been generated from an entry in the Cambridge 
# Structural Database, then it will include bibliographic, chemical, 
# crystal, experimental, refinement or atomic coordinate data resulting 
# from the CCDC's data processing and validation procedures.
#
#######################################################################

data_YAGFAN
_chemical_formula_moiety         'C13 H8 Br1 Cl1 N2 O3'
_chemical_name_systematic        
2-Chloro-4-nitro-N-(5-bromosalicylidene)aniline
_symmetry_cell_setting           monoclinic
_symmetry_space_group_name_H-M   'P 21/n'
_symmetry_Int_Tables_number      14
_space_group_name_Hall           '-P 2yn'
loop_
_symmetry_equiv_pos_site_id
_symmetry_equiv_pos_as_xyz
1 x,y,z
2 1/2-x,1/2+y,1/2-z
3 -x,-y,-z
4 1/2+x,1/2-y,1/2+z
_cell_length_a                   7.4927(7)
_cell_length_b                   16.389(5)
_cell_length_c                   11.013(5)
_cell_angle_alpha                90
_cell_angle_beta                 98.2(6)
_cell_angle_gamma                90
_cell_volume                     1338.55
_cell_formula_units_Z            4
loop_
_atom_site_label
_atom_site_type_symbol
_atom_site_fract_x
_atom_site_fract_y
_atom_site_fract_z
Br1 Br 0.6484(2) 0.89944(7) -0.00817(8)
Cl2 Cl 0.0359(7) 0.9303(3) -0.7792(4)
O1 O -0.125(1) 1.2987(4) -0.8143(6)
O2 O -0.183(1) 1.2083(4) -0.9584(5)
O3 O 0.3039(9) 0.8319(4) -0.5235(5)
N1 N 0.2250(9) 0.9855(4) -0.5462(5)
N2 N -0.117(1) 1.2292(5) -0.8543(6)
C1 C 0.304(1) 0.9970(5) -0.4372(7)
C2 C 0.383(1) 0.9298(5) -0.3642(6)
C3 C 0.465(1) 0.9442(5) -0.2427(7)
C4 C 0.538(1) 0.8812(5) -0.1714(7)
C5 C 0.535(1) 0.8027(6) -0.2159(7)
C6 C 0.451(1) 0.7870(5) -0.3347(8)
C7 C 0.376(1) 0.8508(5) -0.4084(7)
C8 C 0.142(1) 1.0495(5) -0.6192(6)
C9 C 0.127(1) 1.1281(5) -0.5796(7)
C10 C 0.046(1) 1.1874(5) -0.6562(8)
C11 C -0.027(1) 1.1662(5) -0.7736(7)
C12 C -0.018(1) 1.0893(5) -0.8173(7)
C13 C 0.069(1) 1.0310(5) -0.7401(7)
Cl1? Cl 1.1183(5) 0.9345(2) 0.1962(3)
loop_
_geom_bond_atom_site_label_1
_geom_bond_atom_site_label_2
_geom_bond_site_symmetry_1
_geom_bond_site_symmetry_2
Br1 C4 1_555 1_555
Cl2 C13 1_555 1_555
O1 N2 1_555 1_555
O2 N2 1_555 1_555
O3 C7 1_555 1_555
N1 C1 1_555 1_555
N2 C11 1_555 1_555
C1 C2 1_555 1_555
C2 C3 1_555 1_555
C3 C4 1_555 1_555
C4 C5 1_555 1_555
C5 C6 1_555 1_555
C6 C7 1_555 1_555
C7 C2 1_555 1_555
C8 N1 1_555 1_555
C9 C8 1_555 1_555
C10 C9 1_555 1_555
C11 C10 1_555 1_555
C12 C11 1_555 1_555
C13 C8 1_555 1_555
C12 C13 1_555 1_555

#END
