
#######################################################################
#
#                 Cambridge Crystallographic Data Centre
#                                CCDC 
#
#######################################################################
#
# If this CIF has been generated from an entry in the Cambridge 
# Structural Database, then it will include bibliographic, chemical, 
# crystal, experimental, refinement or atomic coordinate data resulting 
# from the CCDC's data processing and validation procedures.
#
#######################################################################

data_YAGJAS
_chemical_formula_moiety         'C10 H7 Cl3 O1'
_chemical_name_systematic        (E)-4,4,4-Trichloro-1-phenylbut-2-en-1-one
_symmetry_cell_setting           orthorhombic
_symmetry_space_group_name_H-M   'P n m a'
_symmetry_Int_Tables_number      62
_space_group_name_Hall           '-P 2ac 2n'
loop_
_symmetry_equiv_pos_site_id
_symmetry_equiv_pos_as_xyz
1 x,y,z
2 1/2+x,y,1/2-z
3 x,1/2-y,z
4 1/2-x,1/2+y,1/2+z
5 -x,-y,-z
6 1/2-x,-y,1/2+z
7 -x,1/2+y,-z
8 1/2+x,1/2-y,1/2-z
_cell_length_a                   10.4802(7)
_cell_length_b                   7.1166(10)
_cell_length_c                   14.69240(14)
_cell_angle_alpha                90
_cell_angle_beta                 90
_cell_angle_gamma                90
_cell_volume                     1095.81
_exptl_crystal_colour            colorless
_exptl_crystal_description       block
_chemical_melting_point          '394-397 K'
_cell_formula_units_Z            4
_exptl_crystal_recrystallization_method 'ethyl acetate/petroleum ether'
loop_
_atom_site_label
_atom_site_type_symbol
_atom_site_fract_x
_atom_site_fract_y
_atom_site_fract_z
Cl1 Cl 0.46399(14) 0.0487(2) 0.64530(10)
Cl2 Cl 0.6641(2) 0.2500 0.73919(13)
O1 O 0.7505(4) 0.2500 0.3870(3)
C1 C 1.0119(7) 0.2500 0.3588(4)
H1 H 0.9584 0.2500 0.3083
C2 C 1.1414(7) 0.2500 0.3462(5)
H2 H 1.1752 0.2500 0.2877
C3 C 1.2207(7) 0.2500 0.4204(5)
H3 H 1.3087 0.2500 0.4123
C4 C 1.1706(6) 0.2500 0.5065(5)
H4 H 1.2251 0.2500 0.5565
C5 C 1.0414(6) 0.2500 0.5200(4)
H5 H 1.0085 0.2500 0.5788
C6 C 0.9589(5) 0.2500 0.4449(4)
C7 C 0.8189(5) 0.2500 0.4538(4)
C8 C 0.7606(6) 0.2500 0.5458(4)
H6 H 0.8136 0.2500 0.5965
C9 C 0.6383(6) 0.2500 0.5575(4)
H7 H 0.5893 0.2500 0.5048
C10 C 0.5665(6) 0.2500 0.6442(4)
Cl1B Cl 0.46399(14) 0.4513(2) 0.64530(10)
loop_
_geom_bond_atom_site_label_1
_geom_bond_atom_site_label_2
_geom_bond_site_symmetry_1
_geom_bond_site_symmetry_2
Cl1 C10 1_555 1_555
Cl2 C10 1_555 1_555
O1 C7 1_555 1_555
C1 H1 1_555 1_555
C2 C1 1_555 1_555
H2 C2 1_555 1_555
C3 C2 1_555 1_555
H3 C3 1_555 1_555
C4 C3 1_555 1_555
H4 C4 1_555 1_555
C5 C4 1_555 1_555
H5 C5 1_555 1_555
C6 C1 1_555 1_555
C7 C6 1_555 1_555
C8 C7 1_555 1_555
H6 C8 1_555 1_555
C9 C8 1_555 1_555
H7 C9 1_555 1_555
C10 C9 1_555 1_555
Cl1B C10 1_555 1_555
C5 C6 1_555 1_555

#END
