
#######################################################################
#
#                 Cambridge Crystallographic Data Centre
#                                CCDC 
#
#######################################################################
#
# If this CIF has been generated from an entry in the Cambridge 
# Structural Database, then it will include bibliographic, chemical, 
# crystal, experimental, refinement or atomic coordinate data resulting 
# from the CCDC's data processing and validation procedures.
#
#######################################################################

data_YAGLID
_chemical_formula_moiety         'C12 H9 F2 N3 O1'
_chemical_name_systematic        
(2,4-Difluorophenyl)(1-(1H-1,2,4-triazol-1-yl)cyclopropyl)methanone
_symmetry_cell_setting           triclinic
_symmetry_space_group_name_H-M   'P -1'
_symmetry_Int_Tables_number      2
_space_group_name_Hall           '-P 1'
loop_
_symmetry_equiv_pos_site_id
_symmetry_equiv_pos_as_xyz
1 x,y,z
2 -x,-y,-z
_cell_length_a                   9.6067(11)
_cell_length_b                   11.4840(13)
_cell_length_c                   11.9127(14)
_cell_angle_alpha                73.6520(10)
_cell_angle_beta                 84.202(2)
_cell_angle_gamma                69.2600(10)
_cell_volume                     1179.39
_exptl_crystal_colour            colorless
_exptl_crystal_description       block
_chemical_melting_point          '362.15 K'
_cell_formula_units_Z            4
loop_
_atom_site_label
_atom_site_type_symbol
_atom_site_fract_x
_atom_site_fract_y
_atom_site_fract_z
F1 F 1.40947(15) 0.64219(16) 0.00685(15)
F2 F 0.96387(13) 0.81942(11) 0.18986(12)
C1 C 1.2783(2) 0.6334(2) 0.0552(2)
C2 C 1.2443(2) 0.5265(2) 0.0588(2)
H1 H 1.3102 0.4597 0.0302
C3 C 1.1099(2) 0.52091(19) 0.10591(18)
H2 H 1.0851 0.4485 0.1102
C4 C 1.0094(2) 0.62149(17) 0.14757(16)
C5 C 1.0544(2) 0.72398(18) 0.14347(17)
C6 C 1.1876(2) 0.7330(2) 0.09827(18)
H3 H 1.2151 0.8033 0.0969
C7 C 0.8640(2) 0.61067(19) 0.19488(18)
C8 C 0.7238(2) 0.72473(17) 0.16397(16)
C9 C 0.5788(2) 0.7042(2) 0.1994(2)
H4 H 0.4949 0.7541 0.1470
H5 H 0.5817 0.6175 0.2403
C10 C 0.6327(3) 0.7735(2) 0.26206(19)
H6 H 0.6689 0.7291 0.3413
H7 H 0.5820 0.8658 0.2480
N1 N 0.7482(2) 0.78048(16) -0.04611(14)
N2 N 0.7144(2) 0.99200(16) -0.08345(15)
C21 C 0.7074(2) 0.94269(18) 0.02927(17)
H15 H 0.6907 0.9894 0.0846
C22 C 0.7406(3) 0.8883(2) -0.12474(18)
H16 H 0.7525 0.8930 -0.2042
N5 N 0.72688(16) 0.81780(13) 0.05495(12)
O1 O 0.85746(19) 0.50900(16) 0.25590(17)
F3 F 0.93617(18) 0.62666(18) 0.51796(17)
F4 F 0.49568(16) 0.58407(11) 0.69708(13)
C11 C 0.8010(3) 0.6783(3) 0.5629(2)
C12 C 0.7534(3) 0.8061(2) 0.5600(2)
H8 H 0.8135 0.8558 0.5296
C13 C 0.6152(3) 0.8589(2) 0.6032(2)
H9 H 0.5821 0.9455 0.6030
C14 C 0.5225(2) 0.78710(18) 0.64746(18)
C15 C 0.5794(3) 0.65813(19) 0.64870(19)
C16 C 0.7182(3) 0.6007(2) 0.6075(2)
H10 H 0.7540 0.5134 0.6100
C17 C 0.3729(3) 0.8500(2) 0.69230(19)
C18 C 0.2382(2) 0.83360(19) 0.65607(17)
C19 C 0.1380(3) 0.7875(3) 0.7494(2)
H11 H 0.0900 0.7320 0.7342
H12 H 0.1660 0.7684 0.8303
C20 C 0.0889(3) 0.9228(3) 0.6814(2)
H13 H 0.0864 0.9871 0.7204
H14 H 0.0105 0.9507 0.6244
N3 N 0.2577(2) 0.69776(17) 0.41577(15)
N4 N 0.26550(18) 0.87964(14) 0.44550(14)
N6 N 0.25081(17) 0.79612(14) 0.54907(13)
C23 C 0.2467(2) 0.68990(19) 0.52741(19)
H17 H 0.2371 0.6190 0.5847
C24 C 0.2694(2) 0.81488(19) 0.37037(18)
H18 H 0.2797 0.8479 0.2904
O2 O 0.3590(2) 0.9191(2) 0.75643(18)
loop_
_geom_bond_atom_site_label_1
_geom_bond_atom_site_label_2
_geom_bond_site_symmetry_1
_geom_bond_site_symmetry_2
F1 C1 1_555 1_555
F2 C5 1_555 1_555
F3 C11 1_555 1_555
F4 C15 1_555 1_555
C1 C2 1_555 1_555
C2 H1 1_555 1_555
C3 C2 1_555 1_555
H2 C3 1_555 1_555
C4 C3 1_555 1_555
C5 C4 1_555 1_555
C6 C1 1_555 1_555
H3 C6 1_555 1_555
C7 C4 1_555 1_555
C8 C7 1_555 1_555
C9 C8 1_555 1_555
H4 C9 1_555 1_555
H5 C9 1_555 1_555
C10 C8 1_555 1_555
H6 C10 1_555 1_555
H7 C10 1_555 1_555
N1 C22 1_555 1_555
N2 C21 1_555 1_555
C11 C12 1_555 1_555
C12 H8 1_555 1_555
C13 C12 1_555 1_555
H9 C13 1_555 1_555
C14 C13 1_555 1_555
C15 C14 1_555 1_555
C16 C11 1_555 1_555
H10 C16 1_555 1_555
C17 C14 1_555 1_555
C18 C17 1_555 1_555
C19 C18 1_555 1_555
H11 C19 1_555 1_555
H12 C19 1_555 1_555
C20 C18 1_555 1_555
H13 C20 1_555 1_555
H14 C20 1_555 1_555
N3 C23 1_555 1_555
N4 N6 1_555 1_555
C21 H15 1_555 1_555
C22 N2 1_555 1_555
H16 C22 1_555 1_555
N5 C8 1_555 1_555
N6 C18 1_555 1_555
C23 N6 1_555 1_555
H17 C23 1_555 1_555
C24 N3 1_555 1_555
H18 C24 1_555 1_555
O1 C7 1_555 1_555
O2 C17 1_555 1_555
C5 C6 1_555 1_555
C9 C10 1_555 1_555
N1 N5 1_555 1_555
C15 C16 1_555 1_555
C19 C20 1_555 1_555
N4 C24 1_555 1_555
C21 N5 1_555 1_555

#END
