
#######################################################################
#
#                 Cambridge Crystallographic Data Centre
#                                CCDC 
#
#######################################################################
#
# If this CIF has been generated from an entry in the Cambridge 
# Structural Database, then it will include bibliographic, chemical, 
# crystal, experimental, refinement or atomic coordinate data resulting 
# from the CCDC's data processing and validation procedures.
#
#######################################################################

data_YAGPUR
_chemical_formula_moiety         'C26 H28 F3 N3 O4'
_chemical_name_systematic        
'(R,R)-Isopropyl 3,4-dihydro-3-((N-1-phenylethyl)-carbamoyl)-2-methoxy-6-methyl-4-(2-trifluoromethylphenyl)-pyrimidine-5-carboxylate'
_chemical_properties_biological  'antihypertensive agent'
_symmetry_cell_setting           orthorhombic
_symmetry_space_group_name_H-M   'P 21 21 2'
_symmetry_Int_Tables_number      18
_space_group_name_Hall           'P 2 2ab'
loop_
_symmetry_equiv_pos_site_id
_symmetry_equiv_pos_as_xyz
1 x,y,z
2 1/2+x,1/2-y,-z
3 1/2-x,1/2+y,-z
4 -x,-y,z
_cell_length_a                   17.116(2)
_cell_length_b                   16.366(2)
_cell_length_c                   9.032(1)
_cell_angle_alpha                90
_cell_angle_beta                 90
_cell_angle_gamma                90
_cell_volume                     2530.05
_chemical_melting_point          142-146deg.C
_cell_formula_units_Z            4
loop_
_atom_site_label
_atom_site_type_symbol
_atom_site_fract_x
_atom_site_fract_y
_atom_site_fract_z
N1 N 0.6174(2) 0.1257(2) 0.5270(4)
C1 C 0.6327(3) 0.1769(3) 0.4238(5)
N2 N 0.6666(2) 0.2532(2) 0.4444(4)
C2 C 0.7147(3) 0.2590(3) 0.5792(5)
C3 C 0.6746(3) 0.2153(3) 0.7060(5)
C4 C 0.6270(3) 0.1525(3) 0.6735(5)
C5 C 0.7963(3) 0.2266(3) 0.5437(5)
C6 C 0.8585(3) 0.2773(3) 0.4987(6)
C7 C 0.9302(3) 0.2420(4) 0.4602(6)
C8 C 0.9404(3) 0.1591(4) 0.4650(7)
C9 C 0.8808(3) 0.1094(4) 0.5122(6)
C10 C 0.8104(3) 0.1433(3) 0.5522(6)
O1 O 0.6215(2) 0.1584(2) 0.2817(3)
C11 C 0.5769(4) 0.0851(4) 0.2502(6)
C12 C 0.6317(3) 0.3272(3) 0.3866(5)
O2 O 0.6296(2) 0.3881(2) 0.4644(4)
N3 N 0.6050(2) 0.3214(2) 0.2492(4)
C13 C 0.5574(3) 0.3853(3) 0.1794(6)
C14 C 0.4846(3) 0.3459(4) 0.1178(7)
C15 C 0.6053(3) 0.4342(3) 0.0693(6)
C16 C 0.5950(4) 0.4274(3) -0.0813(6)
C17 C 0.6420(5) 0.4713(4) -0.1777(6)
C18 C 0.6983(4) 0.5213(4) -0.1244(8)
C19 C 0.7091(4) 0.5288(4) 0.0247(8)
C20 C 0.6636(3) 0.4850(3) 0.1219(6)
C21 C 0.6921(3) 0.2413(3) 0.8586(5)
O3 O 0.6519(2) 0.2290(2) 0.9662(4)
O4 O 0.7607(2) 0.2799(2) 0.8622(3)
C22 C 0.7889(3) 0.3099(3) 1.0063(5)
C23 C 0.8549(4) 0.3666(4) 0.9694(7)
C24 C 0.8131(4) 0.2392(4) 1.1020(6)
C25 C 0.8502(3) 0.3679(4) 0.4855(7)
F1 F 0.9162(2) 0.4047(2) 0.4487(5)
F2 F 0.8250(3) 0.4042(2) 0.6085(4)
F3 F 0.7990(2) 0.3894(2) 0.3816(4)
C26 C 0.5814(3) 0.1015(4) 0.7808(6)
H1 H 0.7211 0.3143 0.6119
H2 H 0.9724 0.2762 0.4312
H3 H 0.9893 0.1347 0.4355
H4 H 0.8883 0.0515 0.5150
H5 H 0.7700 0.1074 0.5857
H6 H 0.5711 0.0799 0.1454
H7 H 0.5253 0.0917 0.2922
H8 H 0.6013 0.0399 0.2904
H9 H 0.6169 0.2743 0.1915
H10 H 0.5400 0.4243 0.2534
H11 H 0.4560 0.3141 0.1901
H12 H 0.4985 0.3062 0.0390
H13 H 0.4493 0.3836 0.0739
H14 H 0.5530 0.3943 -0.1215
H15 H 0.6356 0.4655 -0.2829
H16 H 0.7286 0.5538 -0.1923
H17 H 0.7483 0.5648 0.0606
H18 H 0.6721 0.4898 0.2252
H19 H 0.7507 0.3397 1.0616
H20 H 0.8373 0.4101 0.9092
H21 H 0.8949 0.3370 0.9183
H22 H 0.8769 0.3884 1.0587
H23 H 0.7684 0.2062 1.1225
H24 H 0.8335 0.2593 1.1937
H25 H 0.8514 0.2079 1.0534
H26 H 0.5895 0.1207 0.8783
H27 H 0.5995 0.0460 0.7741
H28 H 0.5275 0.1030 0.7571
loop_
_geom_bond_atom_site_label_1
_geom_bond_atom_site_label_2
_geom_bond_site_symmetry_1
_geom_bond_site_symmetry_2
N1 C1 1_555 1_555
C1 N2 1_555 1_555
N2 C2 1_555 1_555
C2 C3 1_555 1_555
C3 C4 1_555 1_555
C4 N1 1_555 1_555
C5 C2 1_555 1_555
C6 C5 1_555 1_555
C7 C6 1_555 1_555
C8 C7 1_555 1_555
C9 C8 1_555 1_555
C10 C5 1_555 1_555
O1 C1 1_555 1_555
C11 O1 1_555 1_555
C12 N2 1_555 1_555
O2 C12 1_555 1_555
N3 C12 1_555 1_555
C13 N3 1_555 1_555
C14 C13 1_555 1_555
C15 C13 1_555 1_555
C16 C15 1_555 1_555
C17 C16 1_555 1_555
C18 C17 1_555 1_555
C19 C18 1_555 1_555
C20 C15 1_555 1_555
C21 C3 1_555 1_555
O3 C21 1_555 1_555
O4 C21 1_555 1_555
C22 O4 1_555 1_555
C23 C22 1_555 1_555
C24 C22 1_555 1_555
C25 C6 1_555 1_555
F1 C25 1_555 1_555
F2 C25 1_555 1_555
F3 C25 1_555 1_555
C26 C4 1_555 1_555
H1 C2 1_555 1_555
H2 C7 1_555 1_555
H3 C8 1_555 1_555
H4 C9 1_555 1_555
H5 C10 1_555 1_555
H6 C11 1_555 1_555
H7 C11 1_555 1_555
H8 C11 1_555 1_555
H9 N3 1_555 1_555
H10 C13 1_555 1_555
H11 C14 1_555 1_555
H12 C14 1_555 1_555
H13 C14 1_555 1_555
H14 C16 1_555 1_555
H15 C17 1_555 1_555
H16 C18 1_555 1_555
H17 C19 1_555 1_555
H18 C20 1_555 1_555
H19 C22 1_555 1_555
H20 C23 1_555 1_555
H21 C23 1_555 1_555
H22 C23 1_555 1_555
H23 C24 1_555 1_555
H24 C24 1_555 1_555
H25 C24 1_555 1_555
H26 C26 1_555 1_555
H27 C26 1_555 1_555
H28 C26 1_555 1_555
C9 C10 1_555 1_555
C19 C20 1_555 1_555

#END
