
#######################################################################
#
#                 Cambridge Crystallographic Data Centre
#                                CCDC 
#
#######################################################################
#
# If this CIF has been generated from an entry in the Cambridge 
# Structural Database, then it will include bibliographic, chemical, 
# crystal, experimental, refinement or atomic coordinate data resulting 
# from the CCDC's data processing and validation procedures.
#
#######################################################################

data_YAGZOY
_chemical_formula_moiety         'C17 H18 Cl1 N1 O2 S1'
_chemical_name_systematic        
2-(3-chlorophenyl)-2-(4-hydroxyphenoxy)-N,N-dimethylpropanethioamide
_symmetry_cell_setting           orthorhombic
_symmetry_space_group_name_H-M   'P 21 21 21'
_symmetry_Int_Tables_number      19
_space_group_name_Hall           'P 2ac 2ab'
loop_
_symmetry_equiv_pos_site_id
_symmetry_equiv_pos_as_xyz
1 x,y,z
2 1/2-x,-y,1/2+z
3 -x,1/2+y,1/2-z
4 1/2+x,1/2-y,-z
_cell_length_a                   8.072(4)
_cell_length_b                   12.922(6)
_cell_length_c                   15.704(7)
_cell_angle_alpha                90
_cell_angle_beta                 90
_cell_angle_gamma                90
_cell_volume                     1638.03
_exptl_crystal_colour            colorless
_exptl_crystal_description       prismatic
_cell_formula_units_Z            4
loop_
_atom_site_label
_atom_site_type_symbol
_atom_site_fract_x
_atom_site_fract_y
_atom_site_fract_z
S1 S 0.1957(4) 1.1073(2) 0.73233(17)
Cl1 Cl 0.8211(5) 0.7725(3) 0.98136(19)
N1 N 0.1832(10) 0.9088(6) 0.7647(5)
O1 O 0.5178(8) 0.8865(6) 0.7123(4)
O2 O 0.5956(10) 0.8420(7) 0.3666(4)
H1 H 0.5196 0.8680 0.3393
C1 C 0.2759(12) 0.9903(7) 0.7527(5)
C2 C 0.4674(11) 0.9771(7) 0.7593(6)
C3 C 0.5160(11) 0.9571(8) 0.8517(6)
C4 C 0.4658(12) 1.0238(8) 0.9142(7)
H2 H 0.3963 1.0786 0.9000
C5 C 0.5155(14) 1.0119(10) 0.9979(7)
H3 H 0.4757 1.0563 1.0397
C6 C 0.6246(14) 0.9337(10) 1.0191(7)
H4 H 0.6618 0.9253 1.0747
C7 C 0.6755(12) 0.8699(8) 0.9564(6)
C8 C 0.6264(11) 0.8790(9) 0.8732(6)
H5 H 0.6663 0.8338 0.8320
C9 C 0.5614(12) 1.0732(9) 0.7298(7)
H6 H 0.6784 1.0604 0.7330
H7 H 0.5334 1.1306 0.7659
H8 H 0.5314 1.0889 0.6721
C10 C 0.5310(12) 0.8852(8) 0.6250(6)
C11 C 0.6445(12) 0.8147(8) 0.5922(6)
H9 H 0.7101 0.7767 0.6295
C12 C 0.6618(14) 0.8002(9) 0.5074(6)
H10 H 0.7372 0.7517 0.4872
C13 C 0.5687(13) 0.8568(8) 0.4509(6)
C14 C 0.4593(12) 0.9297(8) 0.4827(6)
H11 H 0.3984 0.9704 0.4452
C15 C 0.4392(12) 0.9427(8) 0.5690(6)
H12 H 0.3632 0.9908 0.5894
C16 C 0.0025(12) 0.9107(9) 0.7532(7)
H13 H -0.0502 0.9214 0.8073
H14 H -0.0335 0.8460 0.7296
H15 H -0.0269 0.9660 0.7153
C17 C 0.2383(14) 0.8035(8) 0.7927(7)
H16 H 0.2322 0.7565 0.7455
H17 H 0.1675 0.7795 0.8377
H18 H 0.3504 0.8070 0.8129
loop_
_geom_bond_atom_site_label_1
_geom_bond_atom_site_label_2
_geom_bond_site_symmetry_1
_geom_bond_site_symmetry_2
S1 C1 1_555 1_555
Cl1 C7 1_555 1_555
N1 C1 1_555 1_555
O1 C2 1_555 1_555
O2 H1 1_555 1_555
C1 C2 1_555 1_555
C2 C3 1_555 1_555
C3 C4 1_555 1_555
C4 H2 1_555 1_555
C5 C4 1_555 1_555
H3 C5 1_555 1_555
C6 C5 1_555 1_555
H4 C6 1_555 1_555
C7 C6 1_555 1_555
C8 C3 1_555 1_555
H5 C8 1_555 1_555
C9 C2 1_555 1_555
H6 C9 1_555 1_555
H7 C9 1_555 1_555
H8 C9 1_555 1_555
C10 O1 1_555 1_555
C11 C10 1_555 1_555
H9 C11 1_555 1_555
C12 C11 1_555 1_555
H10 C12 1_555 1_555
C13 O2 1_555 1_555
C14 C13 1_555 1_555
H11 C14 1_555 1_555
C15 C10 1_555 1_555
H12 C15 1_555 1_555
C16 N1 1_555 1_555
H13 C16 1_555 1_555
H14 C16 1_555 1_555
H15 C16 1_555 1_555
C17 N1 1_555 1_555
H16 C17 1_555 1_555
H17 C17 1_555 1_555
H18 C17 1_555 1_555
C7 C8 1_555 1_555
C12 C13 1_555 1_555
C14 C15 1_555 1_555

#END
