
#######################################################################
#
#                 Cambridge Crystallographic Data Centre
#                                CCDC 
#
#######################################################################
#
# If this CIF has been generated from an entry in the Cambridge 
# Structural Database, then it will include bibliographic, chemical, 
# crystal, experimental, refinement or atomic coordinate data resulting 
# from the CCDC's data processing and validation procedures.
#
#######################################################################

data_YAHCES
_chemical_formula_moiety         'C21 H19 N1 O7 S1'
_chemical_name_systematic        
'methyl 3-(3-methoxy-2-(((4-methylphenyl)sulfonyl)oxy)-3-oxoprop-1-en-1-yl)-1H-indole-2-carboxylate'
_symmetry_cell_setting           monoclinic
_symmetry_space_group_name_H-M   'P 21/c'
_symmetry_Int_Tables_number      14
_space_group_name_Hall           '-P 2ybc'
loop_
_symmetry_equiv_pos_site_id
_symmetry_equiv_pos_as_xyz
1 x,y,z
2 -x,1/2+y,1/2-z
3 -x,-y,-z
4 x,1/2-y,1/2+z
_cell_length_a                   8.8855(8)
_cell_length_b                   17.9963(17)
_cell_length_c                   13.1460(12)
_cell_angle_alpha                90
_cell_angle_beta                 105.177(3)
_cell_angle_gamma                90
_cell_volume                     2028.81
_exptl_crystal_colour            colorless
_exptl_crystal_description       block
_cell_formula_units_Z            4
loop_
_atom_site_label
_atom_site_type_symbol
_atom_site_fract_x
_atom_site_fract_y
_atom_site_fract_z
S1 S 0.13722(7) 0.41371(3) 0.20028(5)
O1 O 0.23142(19) 0.35743(9) 0.26046(15)
O2 O 0.0492(2) 0.40005(10) 0.09495(13)
O3 O -0.2471(2) 0.67767(9) 0.08097(14)
O4 O -0.05973(19) 0.76347(8) 0.10344(13)
O5 O -0.23613(18) 0.35108(8) 0.17729(14)
O6 O -0.37786(17) 0.45154(8) 0.11827(13)
O7 O 0.01756(16) 0.43496(7) 0.26940(11)
N1 N 0.0872(2) 0.71161(9) 0.29419(15)
H1 H 0.1117 0.7566 0.2832
C1 C 0.1605(3) 0.66916(11) 0.37853(18)
C2 C 0.2824(3) 0.68760(13) 0.4644(2)
H2 H 0.3297 0.7340 0.4698
C3 C 0.3307(3) 0.63488(15) 0.5412(2)
H3 H 0.4125 0.6455 0.5997
C4 C 0.2583(3) 0.56509(14) 0.5327(2)
H4 H 0.2919 0.5306 0.5866
C5 C 0.1393(3) 0.54636(12) 0.44691(18)
H5 H 0.0933 0.4996 0.4422
C6 C 0.0883(3) 0.59867(11) 0.36651(17)
C7 C -0.0340(2) 0.60100(11) 0.27021(17)
C8 C -0.0309(2) 0.67188(11) 0.22970(17)
C9 C -0.1257(3) 0.70311(11) 0.13080(19)
C10 C -0.1473(4) 0.80072(16) 0.0097(2)
H6 H -0.0901 0.8433 -0.0035
H7 H -0.2460 0.8164 0.0191
H8 H -0.1642 0.7673 -0.0492
C11 C 0.2471(3) 0.49499(12) 0.20548(19)
C12 C 0.3737(3) 0.50694(13) 0.2906(2)
H9 H 0.4049 0.4708 0.3424
C13 C 0.4532(3) 0.57341(14) 0.2976(2)
H10 H 0.5394 0.5814 0.3543
C14 C 0.4080(3) 0.62833(14) 0.2223(2)
C15 C 0.2821(3) 0.61417(15) 0.1374(2)
H11 H 0.2512 0.6501 0.0853
C16 C 0.2014(3) 0.54815(14) 0.1280(2)
H12 H 0.1172 0.5395 0.0701
C17 C 0.4910(4) 0.70220(15) 0.2345(3)
H13 H 0.5729 0.7024 0.2988
H14 H 0.4182 0.7412 0.2366
H15 H 0.5347 0.7100 0.1759
C18 C -0.1228(2) 0.47046(11) 0.21809(17)
C19 C -0.2487(3) 0.41732(11) 0.16966(18)
C20 C -0.5072(3) 0.40433(13) 0.0675(2)
H16 H -0.5940 0.4345 0.0318
H17 H -0.5365 0.3743 0.1195
H18 H -0.4769 0.3728 0.0173
C21 C -0.1425(2) 0.54370(11) 0.21972(17)
H19 H -0.2406 0.5606 0.1830
loop_
_geom_bond_atom_site_label_1
_geom_bond_atom_site_label_2
_geom_bond_site_symmetry_1
_geom_bond_site_symmetry_2
S1 O1 1_555 1_555
O2 S1 1_555 1_555
O3 C9 1_555 1_555
O4 C9 1_555 1_555
O5 C19 1_555 1_555
O6 C19 1_555 1_555
O7 S1 1_555 1_555
N1 H1 1_555 1_555
C1 N1 1_555 1_555
C2 C1 1_555 1_555
H2 C2 1_555 1_555
C3 C2 1_555 1_555
H3 C3 1_555 1_555
C4 C3 1_555 1_555
H4 C4 1_555 1_555
C5 C4 1_555 1_555
H5 C5 1_555 1_555
C6 C1 1_555 1_555
C7 C6 1_555 1_555
C8 N1 1_555 1_555
C9 C8 1_555 1_555
C10 O4 1_555 1_555
H6 C10 1_555 1_555
H7 C10 1_555 1_555
H8 C10 1_555 1_555
C11 S1 1_555 1_555
C12 C11 1_555 1_555
H9 C12 1_555 1_555
C13 C12 1_555 1_555
H10 C13 1_555 1_555
C14 C13 1_555 1_555
C15 C14 1_555 1_555
H11 C15 1_555 1_555
C16 C11 1_555 1_555
H12 C16 1_555 1_555
C17 C14 1_555 1_555
H13 C17 1_555 1_555
H14 C17 1_555 1_555
H15 C17 1_555 1_555
C18 O7 1_555 1_555
C19 C18 1_555 1_555
C20 O6 1_555 1_555
H16 C20 1_555 1_555
H17 C20 1_555 1_555
H18 C20 1_555 1_555
C21 C7 1_555 1_555
H19 C21 1_555 1_555
C5 C6 1_555 1_555
C7 C8 1_555 1_555
C15 C16 1_555 1_555
C18 C21 1_555 1_555

#END
