
#######################################################################
#
#                 Cambridge Crystallographic Data Centre
#                                CCDC 
#
#######################################################################
#
# If this CIF has been generated from an entry in the Cambridge 
# Structural Database, then it will include bibliographic, chemical, 
# crystal, experimental, refinement or atomic coordinate data resulting 
# from the CCDC's data processing and validation procedures.
#
#######################################################################

data_YAHNUT
_chemical_formula_moiety         'C31 H26 N4 P2 Se2'
_chemical_name_systematic        
1,1'-methylenebis(2-(diphenylphosphoroselenoyl)-1H-imidazole)
_symmetry_cell_setting           monoclinic
_symmetry_space_group_name_H-M   'P 21/n'
_symmetry_Int_Tables_number      14
_space_group_name_Hall           '-P 2yn'
loop_
_symmetry_equiv_pos_site_id
_symmetry_equiv_pos_as_xyz
1 x,y,z
2 1/2-x,1/2+y,1/2-z
3 -x,-y,-z
4 1/2+x,1/2-y,1/2+z
_cell_length_a                   13.078(3)
_cell_length_b                   13.427(3)
_cell_length_c                   16.699(4)
_cell_angle_alpha                90
_cell_angle_beta                 103.209(4)
_cell_angle_gamma                90
_cell_volume                     2854.74
_exptl_crystal_colour            colorless
_exptl_crystal_description       block
_cell_formula_units_Z            4
loop_
_atom_site_label
_atom_site_type_symbol
_atom_site_fract_x
_atom_site_fract_y
_atom_site_fract_z
Se1 Se 0.41842(2) 0.03291(2) 0.60950(2)
Se2 Se 0.09578(2) 0.41915(2) 0.31558(2)
P1 P 0.25382(3) 0.02829(3) 0.56750(3)
P2 P 0.23881(3) 0.46125(3) 0.39456(3)
N1 N 0.16182(11) -0.01718(11) 0.40458(8)
N2 N 0.22455(11) 0.13778(10) 0.41917(9)
N3 N 0.34162(11) 0.27635(10) 0.41893(9)
N4 N 0.42970(11) 0.39172(11) 0.36629(9)
C1 C 0.19626(13) -0.09186(12) 0.58016(10)
C2 C 0.23664(14) -0.17576(13) 0.54834(10)
H1 H 0.2932 -0.1689 0.5218
C3 C 0.19397(15) -0.26904(13) 0.55567(11)
H2 H 0.2205 -0.3259 0.5333
C4 C 0.11196(14) -0.27918(13) 0.59595(12)
H3 H 0.0827 -0.3430 0.6008
C5 C 0.07320(13) -0.19674(13) 0.62881(11)
H4 H 0.0181 -0.2043 0.6569
C6 C 0.11475(13) -0.10235(13) 0.62086(10)
H5 H 0.0877 -0.0456 0.6430
C7 C 0.18440(12) 0.11941(12) 0.61513(10)
C8 C 0.23588(13) 0.16951(13) 0.68625(10)
H6 H 0.3088 0.1591 0.7082
C9 C 0.17972(14) 0.23483(13) 0.72482(11)
H7 H 0.2143 0.2692 0.7732
C10 C 0.07317(14) 0.24964(14) 0.69249(11)
H8 H 0.0350 0.2938 0.7193
C11 C 0.02167(13) 0.20072(13) 0.62140(11)
H9 H -0.0512 0.2115 0.5996
C12 C 0.07735(13) 0.13597(13) 0.58242(10)
H10 H 0.0427 0.1028 0.5335
C13 C 0.20941(12) 0.05045(12) 0.45800(10)
C14 C 0.14555(14) 0.02843(13) 0.32875(10)
H11 H 0.1131 -0.0023 0.2781
C15 C 0.18247(14) 0.12374(13) 0.33658(10)
H12 H 0.1797 0.1709 0.2937
C16 C 0.26500(14) 0.23086(12) 0.45881(11)
H13 H 0.2983 0.2179 0.5173
H14 H 0.2060 0.2777 0.4568
C17 C 0.43202(13) 0.23156(13) 0.40800(11)
H15 H 0.4535 0.1647 0.4206
C18 C 0.48452(13) 0.30304(14) 0.37538(11)
H16 H 0.5499 0.2931 0.3609
C19 C 0.34384(12) 0.37341(12) 0.39315(10)
C20 C 0.28346(13) 0.58446(12) 0.37346(10)
C21 C 0.38704(15) 0.61652(14) 0.40110(12)
H17 H 0.4399 0.5707 0.4264
C22 C 0.41286(16) 0.71588(15) 0.39153(12)
H18 H 0.4836 0.7375 0.4096
C23 C 0.33563(17) 0.78318(14) 0.35569(11)
H19 H 0.3531 0.8512 0.3506
C24 C 0.23303(16) 0.75135(14) 0.32729(12)
H20 H 0.1804 0.7975 0.3021
C25 C 0.20678(14) 0.65208(13) 0.33557(11)
H21 H 0.1365 0.6304 0.3154
C26 C 0.23543(13) 0.46485(12) 0.50300(10)
C27 C 0.32813(14) 0.48041(14) 0.56259(12)
H22 H 0.3928 0.4884 0.5465
C28 C 0.32605(16) 0.48420(15) 0.64532(12)
H23 H 0.3891 0.4947 0.6858
C29 C 0.23158(16) 0.47262(14) 0.66868(11)
H24 H 0.2301 0.4749 0.7253
C30 C 0.13902(15) 0.45774(13) 0.60956(11)
H25 H 0.0744 0.4503 0.6258
C31 C 0.14077(13) 0.45375(13) 0.52660(11)
H26 H 0.0775 0.4435 0.4862
loop_
_geom_bond_atom_site_label_1
_geom_bond_atom_site_label_2
_geom_bond_site_symmetry_1
_geom_bond_site_symmetry_2
Se1 P1 1_555 1_555
Se2 P2 1_555 1_555
P1 C1 1_555 1_555
P2 C19 1_555 1_555
N1 C13 1_555 1_555
N2 C13 1_555 1_555
N3 C16 1_555 1_555
N4 C18 1_555 1_555
C1 C2 1_555 1_555
C2 H1 1_555 1_555
C3 C2 1_555 1_555
H2 C3 1_555 1_555
C4 C3 1_555 1_555
H3 C4 1_555 1_555
C5 C4 1_555 1_555
H4 C5 1_555 1_555
C6 C1 1_555 1_555
H5 C6 1_555 1_555
C7 P1 1_555 1_555
C8 C7 1_555 1_555
H6 C8 1_555 1_555
C9 C8 1_555 1_555
H7 C9 1_555 1_555
C10 C9 1_555 1_555
H8 C10 1_555 1_555
C11 C10 1_555 1_555
H9 C11 1_555 1_555
C12 C7 1_555 1_555
H10 C12 1_555 1_555
C13 P1 1_555 1_555
C14 N1 1_555 1_555
H11 C14 1_555 1_555
C15 N2 1_555 1_555
H12 C15 1_555 1_555
C16 N2 1_555 1_555
H13 C16 1_555 1_555
H14 C16 1_555 1_555
C17 N3 1_555 1_555
H15 C17 1_555 1_555
C18 C17 1_555 1_555
H16 C18 1_555 1_555
C19 N3 1_555 1_555
C20 P2 1_555 1_555
C21 C20 1_555 1_555
H17 C21 1_555 1_555
C22 C21 1_555 1_555
H18 C22 1_555 1_555
C23 C22 1_555 1_555
H19 C23 1_555 1_555
C24 C23 1_555 1_555
H20 C24 1_555 1_555
C25 C20 1_555 1_555
H21 C25 1_555 1_555
C26 P2 1_555 1_555
C27 C26 1_555 1_555
H22 C27 1_555 1_555
C28 C27 1_555 1_555
H23 C28 1_555 1_555
C29 C28 1_555 1_555
H24 C29 1_555 1_555
C30 C29 1_555 1_555
H25 C30 1_555 1_555
C31 C26 1_555 1_555
H26 C31 1_555 1_555
N4 C19 1_555 1_555
C5 C6 1_555 1_555
C11 C12 1_555 1_555
C14 C15 1_555 1_555
C24 C25 1_555 1_555
C30 C31 1_555 1_555

#END
