
#######################################################################
#
#                 Cambridge Crystallographic Data Centre
#                                CCDC 
#
#######################################################################
#
# If this CIF has been generated from an entry in the Cambridge 
# Structural Database, then it will include bibliographic, chemical, 
# crystal, experimental, refinement or atomic coordinate data resulting 
# from the CCDC's data processing and validation procedures.
#
#######################################################################

data_YAHPAB
_chemical_formula_moiety         'C29 H24 N6 P2 Se2'
_chemical_name_systematic        
1,1'-methylenebis(5-(diphenylphosphoroselenoyl)-1H-1,2,4-triazole)
_symmetry_cell_setting           monoclinic
_symmetry_space_group_name_H-M   'P 21/n'
_symmetry_Int_Tables_number      14
_space_group_name_Hall           '-P 2yn'
loop_
_symmetry_equiv_pos_site_id
_symmetry_equiv_pos_as_xyz
1 x,y,z
2 1/2-x,1/2+y,1/2-z
3 -x,-y,-z
4 1/2+x,1/2-y,1/2+z
_cell_length_a                   14.321(3)
_cell_length_b                   11.432(2)
_cell_length_c                   17.924(3)
_cell_angle_alpha                90
_cell_angle_beta                 103.979(2)
_cell_angle_gamma                90
_cell_volume                     2847.57
_exptl_crystal_colour            colorless
_exptl_crystal_description       column
_cell_formula_units_Z            4
loop_
_atom_site_label
_atom_site_type_symbol
_atom_site_fract_x
_atom_site_fract_y
_atom_site_fract_z
Se1 Se 0.61284(7) -0.00229(8) 0.40735(6)
Se2 Se 0.17368(8) 0.11927(10) 0.34745(7)
P1 P 0.64277(15) 0.1779(2) 0.41030(12)
P2 P 0.17399(16) 0.2428(2) 0.43357(14)
N1 N 0.5379(5) 0.3478(7) 0.3128(4)
N2 N 0.3890(5) 0.3336(7) 0.3334(5)
N3 N 0.4491(5) 0.2549(6) 0.3772(4)
N4 N 0.3810(5) 0.2506(7) 0.4851(5)
N5 N 0.4486(6) 0.3022(9) 0.5425(5)
N6 N 0.3081(4) 0.3505(5) 0.5550(3)
C1 C 0.7301(6) 0.2203(8) 0.3575(5)
C2 C 0.7517(7) 0.1416(11) 0.3047(6)
H1 H 0.7239 0.0658 0.2990
C3 C 0.8140(9) 0.1751(13) 0.2607(7)
H2 H 0.8271 0.1224 0.2236
C4 C 0.8565(8) 0.2808(12) 0.2695(6)
H3 H 0.8992 0.3018 0.2386
C5 C 0.8386(7) 0.3574(11) 0.3220(6)
H4 H 0.8702 0.4311 0.3286
C6 C 0.7740(7) 0.3289(9) 0.3666(6)
H5 H 0.7606 0.3834 0.4026
C7 C 0.6753(6) 0.2393(9) 0.5061(5)
C8 C 0.7088(7) 0.1646(11) 0.5678(5)
H6 H 0.7168 0.0835 0.5596
C9 C 0.7304(8) 0.2100(16) 0.6415(6)
H7 H 0.7526 0.1594 0.6841
C10 C 0.7203(9) 0.3249(17) 0.6537(7)
H8 H 0.7355 0.3543 0.7048
C11 C 0.6881(8) 0.4008(13) 0.5931(8)
H9 H 0.6827 0.4821 0.6023
C12 C 0.6635(7) 0.3569(10) 0.5174(6)
H10 H 0.6392 0.4075 0.4751
C13 C 0.5385(6) 0.2646(7) 0.3649(5)
C14 C 0.4452(7) 0.3867(9) 0.2966(5)
H11 H 0.4230 0.4482 0.2611
C15 C 0.4136(7) 0.1806(8) 0.4302(6)
H12 H 0.3599 0.1318 0.4011
H13 H 0.4656 0.1278 0.4572
C16 C 0.3972(8) 0.3643(11) 0.5794(6)
H14 H 0.4248 0.4151 0.6208
C17 C 0.2909(6) 0.2829(8) 0.4926(5)
C18 C 0.1074(6) 0.1965(8) 0.5021(5)
C19 C 0.1451(6) 0.1770(8) 0.5791(5)
H15 H 0.2113 0.1914 0.6013
C20 C 0.0861(7) 0.1362(9) 0.6243(6)
H16 H 0.1118 0.1232 0.6776
C21 C -0.0099(8) 0.1145(8) 0.5919(6)
H17 H -0.0500 0.0868 0.6233
C22 C -0.0470(7) 0.1321(8) 0.5171(6)
H18 H -0.1131 0.1162 0.4956
C23 C 0.0099(6) 0.1733(8) 0.4704(6)
H19 H -0.0171 0.1857 0.4172
C24 C 0.1235(6) 0.3812(8) 0.3959(5)
C25 C 0.1090(7) 0.4034(9) 0.3179(6)
H20 H 0.1271 0.3470 0.2851
C26 C 0.0672(8) 0.5096(12) 0.2878(7)
H21 H 0.0567 0.5248 0.2343
C27 C 0.0419(8) 0.5906(11) 0.3341(8)
H22 H 0.0148 0.6629 0.3133
C28 C 0.0553(7) 0.5684(10) 0.4108(7)
H23 H 0.0356 0.6247 0.4428
C29 C 0.0973(6) 0.4648(9) 0.4426(6)
H24 H 0.1080 0.4514 0.4963
loop_
_geom_bond_atom_site_label_1
_geom_bond_atom_site_label_2
_geom_bond_site_symmetry_1
_geom_bond_site_symmetry_2
Se1 P1 1_555 1_555
Se2 P2 1_555 1_555
P1 C1 1_555 1_555
P2 C17 1_555 1_555
N1 C13 1_555 1_555
N2 N3 1_555 1_555
N3 C13 1_555 1_555
N4 N5 1_555 1_555
N5 C16 1_555 1_555
N6 C16 1_555 1_555
C1 C2 1_555 1_555
C2 H1 1_555 1_555
C3 C2 1_555 1_555
H2 C3 1_555 1_555
C4 C3 1_555 1_555
H3 C4 1_555 1_555
C5 C4 1_555 1_555
H4 C5 1_555 1_555
C6 C1 1_555 1_555
H5 C6 1_555 1_555
C7 P1 1_555 1_555
C8 C7 1_555 1_555
H6 C8 1_555 1_555
C9 C8 1_555 1_555
H7 C9 1_555 1_555
C10 C9 1_555 1_555
H8 C10 1_555 1_555
C11 C10 1_555 1_555
H9 C11 1_555 1_555
C12 C7 1_555 1_555
H10 C12 1_555 1_555
C13 P1 1_555 1_555
C14 N1 1_555 1_555
H11 C14 1_555 1_555
C15 N3 1_555 1_555
H12 C15 1_555 1_555
H13 C15 1_555 1_555
C16 H14 1_555 1_555
C17 N4 1_555 1_555
C18 P2 1_555 1_555
C19 C18 1_555 1_555
H15 C19 1_555 1_555
C20 C19 1_555 1_555
H16 C20 1_555 1_555
C21 C20 1_555 1_555
H17 C21 1_555 1_555
C22 C21 1_555 1_555
H18 C22 1_555 1_555
C23 C18 1_555 1_555
H19 C23 1_555 1_555
C24 P2 1_555 1_555
C25 C24 1_555 1_555
H20 C25 1_555 1_555
C26 C25 1_555 1_555
H21 C26 1_555 1_555
C27 C26 1_555 1_555
H22 C27 1_555 1_555
C28 C27 1_555 1_555
H23 C28 1_555 1_555
C29 C24 1_555 1_555
H24 C29 1_555 1_555
N2 C14 1_555 1_555
N4 C15 1_555 1_555
N6 C17 1_555 1_555
C5 C6 1_555 1_555
C11 C12 1_555 1_555
C22 C23 1_555 1_555
C28 C29 1_555 1_555

#END
