
#######################################################################
#
#                 Cambridge Crystallographic Data Centre
#                                CCDC 
#
#######################################################################
#
# If this CIF has been generated from an entry in the Cambridge 
# Structural Database, then it will include bibliographic, chemical, 
# crystal, experimental, refinement or atomic coordinate data resulting 
# from the CCDC's data processing and validation procedures.
#
#######################################################################

data_YAHSAD
_chemical_formula_moiety         'C16 H12 Br1 N3 O4'
_chemical_name_systematic        
3-(4-Bromophenyl)-4-[2-(4-nitrophenyl)hydrazinyl]furan-2(5H)-one
_symmetry_cell_setting           orthorhombic
_symmetry_space_group_name_H-M   'P b c a'
_symmetry_Int_Tables_number      61
_space_group_name_Hall           '-P 2ac 2ab'
loop_
_symmetry_equiv_pos_site_id
_symmetry_equiv_pos_as_xyz
1 x,y,z
2 1/2-x,-y,1/2+z
3 -x,1/2+y,1/2-z
4 1/2+x,1/2-y,-z
5 -x,-y,-z
6 1/2+x,y,1/2-z
7 x,1/2-y,1/2+z
8 1/2-x,1/2+y,z
_cell_length_a                   14.4725(11)
_cell_length_b                   6.7744(5)
_cell_length_c                   31.310(2)
_cell_angle_alpha                90
_cell_angle_beta                 90
_cell_angle_gamma                90
_cell_volume                     3069.71
_exptl_crystal_colour            colorless
_exptl_crystal_description       block
_cell_formula_units_Z            8
loop_
_atom_site_label
_atom_site_type_symbol
_atom_site_fract_x
_atom_site_fract_y
_atom_site_fract_z
Br1 Br 0.61747(3) 0.27111(6) 0.394041(10)
C1 C 0.62850(19) 0.4835(4) 0.53598(9)
C2 C 0.6776(2) 0.5813(5) 0.50422(10)
H1 H 0.7131 0.6909 0.5114
C3 C 0.6746(2) 0.5187(5) 0.46235(10)
H2 H 0.7078 0.5851 0.4414
C4 C 0.6220(2) 0.3580(5) 0.45199(9)
C5 C 0.5723(2) 0.2560(4) 0.48239(9)
H3 H 0.5371 0.1465 0.4749
C6 C 0.5761(2) 0.3203(4) 0.52416(9)
H4 H 0.5427 0.2529 0.5449
C7 C 0.63070(19) 0.5525(4) 0.58069(9)
C8 C 0.6358(2) 0.7596(4) 0.59231(10)
C9 C 0.6233(2) 0.5875(4) 0.65466(9)
H5 H 0.5653 0.5791 0.6701
H6 H 0.6736 0.5581 0.6741
C10 C 0.62402(19) 0.4491(4) 0.61743(9)
C11 C 0.5150(2) 0.1371(4) 0.67875(9)
C12 C 0.5037(2) 0.0240(4) 0.71579(9)
H7 H 0.5552 -0.0264 0.7298
C13 C 0.4173(2) -0.0127(4) 0.73158(9)
H8 H 0.4098 -0.0871 0.7563
C14 C 0.3413(2) 0.0617(4) 0.71039(9)
C15 C 0.3506(2) 0.1675(5) 0.67330(9)
H9 H 0.2986 0.2133 0.6589
C16 C 0.4374(2) 0.2055(4) 0.65750(9)
H10 H 0.4441 0.2774 0.6324
H11 H 0.649(2) 0.101(5) 0.6741(11)
N1 N 0.61816(19) 0.2544(4) 0.62466(9)
N2 N 0.60423(18) 0.1894(4) 0.66655(8)
N3 N 0.24976(19) 0.0297(4) 0.72818(8)
O1 O 0.63888(16) 0.9067(3) 0.57072(7)
O2 O 0.63469(16) 0.7778(3) 0.63613(7)
O3 O 0.24263(16) -0.0574(3) 0.76267(7)
O4 O 0.18281(16) 0.0904(4) 0.70812(8)
H12 H 0.627(2) 0.175(6) 0.6061(11)
loop_
_geom_bond_atom_site_label_1
_geom_bond_atom_site_label_2
_geom_bond_site_symmetry_1
_geom_bond_site_symmetry_2
Br1 C4 1_555 1_555
C1 C2 1_555 1_555
C2 H1 1_555 1_555
C3 C2 1_555 1_555
H2 C3 1_555 1_555
C4 C3 1_555 1_555
C5 C4 1_555 1_555
H3 C5 1_555 1_555
C6 C1 1_555 1_555
H4 C6 1_555 1_555
C7 C1 1_555 1_555
C8 C7 1_555 1_555
C9 H5 1_555 1_555
H6 C9 1_555 1_555
C10 C7 1_555 1_555
C11 C12 1_555 1_555
C12 H7 1_555 1_555
C13 C12 1_555 1_555
H8 C13 1_555 1_555
C14 C13 1_555 1_555
C15 C14 1_555 1_555
H9 C15 1_555 1_555
C16 C11 1_555 1_555
H10 C16 1_555 1_555
H11 N2 1_555 1_555
N1 C10 1_555 1_555
N2 C11 1_555 1_555
N3 C14 1_555 1_555
O1 C8 1_555 1_555
O2 C8 1_555 1_555
O3 N3 1_555 1_555
O4 N3 1_555 1_555
H12 N1 1_555 1_555
C5 C6 1_555 1_555
C9 C10 1_555 1_555
C9 O2 1_555 1_555
C15 C16 1_555 1_555
N1 N2 1_555 1_555

#END
