
#######################################################################
#
#                 Cambridge Crystallographic Data Centre
#                                CCDC 
#
#######################################################################
#
# If this CIF has been generated from an entry in the Cambridge 
# Structural Database, then it will include bibliographic, chemical, 
# crystal, experimental, refinement or atomic coordinate data resulting 
# from the CCDC's data processing and validation procedures.
#
#######################################################################

data_YAHWIN
_chemical_formula_moiety         'C17 H16 O2 S2'
_chemical_name_systematic        
'2,11-Diathia(3.3)metacyclophane-9-carboxylic acid'
_symmetry_cell_setting           monoclinic
_symmetry_space_group_name_H-M   'P 21/n'
_symmetry_Int_Tables_number      14
_space_group_name_Hall           '-P 2yn'
loop_
_symmetry_equiv_pos_site_id
_symmetry_equiv_pos_as_xyz
1 x,y,z
2 1/2-x,1/2+y,1/2-z
3 -x,-y,-z
4 1/2+x,1/2-y,1/2+z
_cell_length_a                   9.285(4)
_cell_length_b                   11.297(3)
_cell_length_c                   14.858(5)
_cell_angle_alpha                90
_cell_angle_beta                 103.80(2)
_cell_angle_gamma                90
_cell_volume                     1513.51
_exptl_crystal_colour            colorless
_cell_formula_units_Z            4
loop_
_atom_site_label
_atom_site_type_symbol
_atom_site_fract_x
_atom_site_fract_y
_atom_site_fract_z
C1 C -0.27859(25) 0.80103(23) 1.30002(16)
H1 H -0.25144(25) 0.74944(23) 1.36300(16)
H2 H -0.30652(25) 0.89020(23) 1.31585(16)
S1 S -0.44076(7) 0.73611(6) 1.22553(5)
C2 C -0.49658(24) 0.84535(21) 1.13525(16)
H3 H -0.51151(24) 0.92853(21) 1.16769(16)
H4 H -0.60094(24) 0.81746(21) 1.09102(16)
C3 C -0.38927(23) 0.86520(19) 1.07538(16)
C4 C -0.33103(25) 0.97784(20) 1.07405(18)
H5 H -0.36741(25) 1.04815(20) 1.11265(18)
C5 C -0.22550(25) 1.00136(21) 1.02369(18)
H6 H -0.18467(25) 1.09038(21) 1.02040(18)
C6 C -0.17381(25) 0.91128(22) 0.97832(17)
H7 H -0.09219(25) 0.93076(22) 0.93940(17)
C7 C -0.22372(23) 0.79564(20) 0.98096(15)
C8 C -0.33795(22) 0.77435(18) 1.02606(15)
C9 C -0.14844(25) 0.70059(21) 0.93623(16)
H8 H -0.20481(25) 0.61765(21) 0.93952(16)
H9 H -0.15850(25) 0.72458(21) 0.86463(16)
S2 S 0.04660(7) 0.68079(6) 0.99077(5)
C10 C 0.05177(27) 0.62999(20) 1.10738(16)
H10 H 0.16087(27) 0.59455(20) 1.13682(16)
H11 H -0.02988(27) 0.56079(20) 1.10292(16)
C11 C 0.01994(23) 0.72498(20) 1.17187(15)
C12 C 0.10896(25) 0.82536(22) 1.19059(16)
H12 H 0.20656(25) 0.83268(22) 1.16338(16)
C13 C 0.07265(27) 0.91599(23) 1.24376(16)
H13 H 0.14224(27) 0.99362(23) 1.25813(16)
C14 C -0.05201(27) 0.90764(21) 1.27854(16)
H14 H -0.08099(27) 0.97959(21) 1.31873(16)
C15 C -0.14006(24) 0.80718(21) 1.26232(14)
C16 C -0.10127(23) 0.71574(19) 1.21019(14)
H15 H -0.16739(23) 0.63604(19) 1.19928(14)
C17 C -0.40596(24) 0.65296(20) 1.02148(15)
O1 O -0.33326(16) 0.56150(14) 1.03161(11)
O2 O -0.55138(17) 0.65454(16) 1.00275(12)
H16 H -0.5819(31) 0.5799(26) 0.9960(21)
loop_
_geom_bond_atom_site_label_1
_geom_bond_atom_site_label_2
_geom_bond_site_symmetry_1
_geom_bond_site_symmetry_2
C1 H1 1_555 1_555
H2 C1 1_555 1_555
S1 C1 1_555 1_555
C2 S1 1_555 1_555
H3 C2 1_555 1_555
H4 C2 1_555 1_555
C3 C2 1_555 1_555
C4 C3 1_555 1_555
H5 C4 1_555 1_555
C5 C4 1_555 1_555
H6 C5 1_555 1_555
C6 C5 1_555 1_555
H7 C6 1_555 1_555
C7 C6 1_555 1_555
C8 C3 1_555 1_555
C9 C7 1_555 1_555
H8 C9 1_555 1_555
H9 C9 1_555 1_555
S2 C9 1_555 1_555
C10 S2 1_555 1_555
H10 C10 1_555 1_555
H11 C10 1_555 1_555
C11 C10 1_555 1_555
C12 C11 1_555 1_555
H12 C12 1_555 1_555
C13 C12 1_555 1_555
H13 C13 1_555 1_555
C14 C13 1_555 1_555
H14 C14 1_555 1_555
C15 C1 1_555 1_555
C16 C11 1_555 1_555
H15 C16 1_555 1_555
C17 C8 1_555 1_555
O1 C17 1_555 1_555
O2 C17 1_555 1_555
H16 O2 1_555 1_555
C7 C8 1_555 1_555
C14 C15 1_555 1_555
C15 C16 1_555 1_555

#END
