
#######################################################################
#
#                 Cambridge Crystallographic Data Centre
#                                CCDC 
#
#######################################################################
#
# If this CIF has been generated from an entry in the Cambridge 
# Structural Database, then it will include bibliographic, chemical, 
# crystal, experimental, refinement or atomic coordinate data resulting 
# from the CCDC's data processing and validation procedures.
#
#######################################################################

data_YAJFEW
_chemical_name_common            
N-((6-Bromo-2-methoxyquinolin-3-yl)(phenyl)methyl)-N-(1-(4-methoxyphenyl)ethyl)-2-(piperazin-1-yl)acetamide
_chemical_formula_moiety         'C32 H35 Br1 N4 O3'
_chemical_name_systematic        
N-[(R)-(6-Bromo-2-methoxyquinolin-3-yl)(phenyl)methyl]-N-[(S)-1-(4-methoxyphenyl)ethyl]-2-(piperazin-1-yl)acetamide
_symmetry_cell_setting           orthorhombic
_symmetry_space_group_name_H-M   'P 21 21 21'
_symmetry_Int_Tables_number      19
_space_group_name_Hall           'P 2ac 2ab'
loop_
_symmetry_equiv_pos_site_id
_symmetry_equiv_pos_as_xyz
1 x,y,z
2 1/2-x,-y,1/2+z
3 1/2+x,1/2-y,-z
4 -x,1/2+y,1/2-z
_cell_length_a                   9.9738(9)
_cell_length_b                   10.9397(10)
_cell_length_c                   27.910(3)
_cell_angle_alpha                90
_cell_angle_beta                 90
_cell_angle_gamma                90
_cell_volume                     3045.27
_exptl_crystal_colour            colorless
_exptl_crystal_description       block
_cell_formula_units_Z            4
loop_
_atom_site_label
_atom_site_type_symbol
_atom_site_fract_x
_atom_site_fract_y
_atom_site_fract_z
Br1 Br 1.16448(6) -0.50994(6) 0.67941(2)
O1 O 0.5985(3) -0.1119(3) 0.63967(10)
N1 N 0.6854(3) 0.0788(3) 0.64410(10)
O2 O 0.5042(4) 0.5855(3) 0.55607(14)
O3 O 1.0020(3) 0.1519(3) 0.56260(13)
N2 N 0.4433(3) 0.0798(3) 0.71731(11)
N3 N 1.1268(3) -0.0147(3) 0.58380(12)
C1 C 0.6723(4) 0.0284(3) 0.55538(13)
C2 C 0.8885(4) -0.0074(3) 0.60224(12)
C3 C 1.1325(4) -0.1290(3) 0.60612(12)
C4 C 0.7336(4) -0.0184(4) 0.51555(13)
H1 H 0.8258 -0.0311 0.5157
C5 C 0.7584(4) 0.0681(3) 0.59812(12)
H2 H 0.7878 0.1514 0.5905
C6 C 0.8947(4) -0.1195(4) 0.62209(13)
H3 H 0.8170 -0.1554 0.6340
C7 C 1.0190(4) -0.1841(4) 0.62510(13)
C8 C 0.7040(4) 0.1975(4) 0.67042(14)
H4 H 0.6443 0.1949 0.6983
C9 C 1.0297(4) -0.3000(4) 0.64702(14)
H5 H 0.9539 -0.3391 0.6590
C10 C 0.6586(4) 0.3032(4) 0.64005(13)
C11 C 1.2674(4) -0.2991(4) 0.63264(15)
H6 H 1.3500 -0.3375 0.6360
C12 C 0.5536(4) -0.0052(5) 0.71269(14)
H7 H 0.5233 -0.0853 0.7229
H8 H 0.6246 0.0200 0.7343
C13 C 1.2584(4) -0.1884(4) 0.61003(14)
H9 H 1.3348 -0.1522 0.5972
C14 C 0.6590(4) -0.0473(4) 0.47472(15)
H10 H 0.7017 -0.0794 0.4479
C15 C 1.0115(4) 0.0395(3) 0.58310(14)
C16 C 0.5344(4) 0.0471(4) 0.55422(15)
H11 H 0.4913 0.0802 0.5808
C17 C 0.7433(4) 0.3932(4) 0.62201(16)
H12 H 0.8347 0.3882 0.6283
C18 C 0.5599(4) 0.4968(4) 0.58342(16)
C19 C 0.5236(4) 0.3155(4) 0.62922(17)
H13 H 0.4634 0.2582 0.6412
C20 C 0.6960(4) 0.4898(4) 0.59510(17)
H14 H 0.7547 0.5504 0.5847
C21 C 0.6126(4) -0.0162(4) 0.66139(14)
C22 C 0.5229(5) -0.0284(4) 0.47393(16)
H15 H 0.4734 -0.0462 0.4466
C23 C 0.4758(5) 0.4090(4) 0.60162(18)
H16 H 0.3845 0.4132 0.5950
C24 C 0.8467(5) 0.2064(5) 0.68981(17)
H17 H 0.8662 0.1354 0.7088
H18 H 0.8550 0.2783 0.7093
H19 H 0.9087 0.2110 0.6636
C25 C 1.1521(5) -0.3534(4) 0.65043(13)
C26 C 0.4107(5) 0.0920(6) 0.76822(15)
H20 H 0.4881 0.1228 0.7854
H21 H 0.3881 0.0124 0.7813
C27 C 0.3260(4) 0.0351(5) 0.69106(16)
H22 H 0.3012 -0.0448 0.7032
H23 H 0.3489 0.0261 0.6575
C28 C 0.4610(5) 0.0170(5) 0.51402(16)
H24 H 0.3685 0.0276 0.5141
C29 C 0.2923(5) 0.1794(6) 0.77515(19)
H25 H 0.2710 0.1854 0.8090
H26 H 0.3168 0.2602 0.7638
N4 N 0.1719(5) 0.1351(6) 0.74826(18)
H27 H 0.0942 0.1210 0.7604
C30 C 0.2101(5) 0.1193(7) 0.69568(18)
H28 H 0.1343 0.0867 0.6780
H29 H 0.2330 0.1981 0.6820
C31 C 1.1213(5) 0.1999(5) 0.5407(3)
H30 H 1.1025 0.2788 0.5272
H31 H 1.1504 0.1455 0.5158
H32 H 1.1906 0.2073 0.5644
C32 C 0.5833(7) 0.6817(5) 0.5379(2)
H33 H 0.5281 0.7354 0.5191
H34 H 0.6533 0.6488 0.5181
H35 H 0.6222 0.7265 0.5640
loop_
_geom_bond_atom_site_label_1
_geom_bond_atom_site_label_2
_geom_bond_site_symmetry_1
_geom_bond_site_symmetry_2
Br1 C25 1_555 1_555
O1 C21 1_555 1_555
N1 C5 1_555 1_555
O2 C18 1_555 1_555
O3 C15 1_555 1_555
N2 C12 1_555 1_555
N3 C3 1_555 1_555
C1 C4 1_555 1_555
C2 C5 1_555 1_555
C3 C7 1_555 1_555
C4 H1 1_555 1_555
C5 C1 1_555 1_555
H2 C5 1_555 1_555
C6 C2 1_555 1_555
H3 C6 1_555 1_555
C7 C6 1_555 1_555
C8 N1 1_555 1_555
H4 C8 1_555 1_555
C9 C7 1_555 1_555
H5 C9 1_555 1_555
C10 C8 1_555 1_555
C11 H6 1_555 1_555
C12 H7 1_555 1_555
H8 C12 1_555 1_555
C13 C3 1_555 1_555
H9 C13 1_555 1_555
C14 C4 1_555 1_555
H10 C14 1_555 1_555
C15 N3 1_555 1_555
C16 C1 1_555 1_555
H11 C16 1_555 1_555
C17 C10 1_555 1_555
H12 C17 1_555 1_555
C18 C20 1_555 1_555
C19 C10 1_555 1_555
H13 C19 1_555 1_555
C20 C17 1_555 1_555
H14 C20 1_555 1_555
C21 N1 1_555 1_555
C22 C14 1_555 1_555
H15 C22 1_555 1_555
C23 C18 1_555 1_555
H16 C23 1_555 1_555
C24 C8 1_555 1_555
H17 C24 1_555 1_555
H18 C24 1_555 1_555
H19 C24 1_555 1_555
C25 C9 1_555 1_555
C26 N2 1_555 1_555
H20 C26 1_555 1_555
H21 C26 1_555 1_555
C27 N2 1_555 1_555
H22 C27 1_555 1_555
H23 C27 1_555 1_555
C28 C16 1_555 1_555
H24 C28 1_555 1_555
C29 C26 1_555 1_555
H25 C29 1_555 1_555
H26 C29 1_555 1_555
N4 C29 1_555 1_555
H27 N4 1_555 1_555
C30 C27 1_555 1_555
H28 C30 1_555 1_555
H29 C30 1_555 1_555
C31 O3 1_555 1_555
H30 C31 1_555 1_555
H31 C31 1_555 1_555
H32 C31 1_555 1_555
C32 O2 1_555 1_555
H33 C32 1_555 1_555
H34 C32 1_555 1_555
H35 C32 1_555 1_555
C2 C15 1_555 1_555
C11 C13 1_555 1_555
C11 C25 1_555 1_555
C12 C21 1_555 1_555
C19 C23 1_555 1_555
C22 C28 1_555 1_555
N4 C30 1_555 1_555

#END
