
#######################################################################
#
#                 Cambridge Crystallographic Data Centre
#                                CCDC 
#
#######################################################################
#
# If this CIF has been generated from an entry in the Cambridge 
# Structural Database, then it will include bibliographic, chemical, 
# crystal, experimental, refinement or atomic coordinate data resulting 
# from the CCDC's data processing and validation procedures.
#
#######################################################################

data_YAKPUY
_chemical_formula_moiety         'C28 H32 N3 O3 P1'
_chemical_name_systematic        
'diethyl (((4-methylphenyl)amino)(1-(4-methylphenyl)-3-phenyl-1H-pyrazol-5-yl)methyl)phosphonate'
_chemical_properties_biological  
'tested for insecticidal activity against Plutella xylostella'
_symmetry_cell_setting           monoclinic
_symmetry_space_group_name_H-M   'P 21/n'
_symmetry_Int_Tables_number      14
_space_group_name_Hall           '-P 2yn'
loop_
_symmetry_equiv_pos_site_id
_symmetry_equiv_pos_as_xyz
1 x,y,z
2 1/2-x,1/2+y,1/2-z
3 -x,-y,-z
4 1/2+x,1/2-y,1/2+z
_cell_length_a                   14.570(3)
_cell_length_b                   11.953(2)
_cell_length_c                   17.058(3)
_cell_angle_alpha                90
_cell_angle_beta                 112.905(5)
_cell_angle_gamma                90
_cell_volume                     2736.5
_exptl_crystal_colour            colorless
_exptl_crystal_description       block
_chemical_melting_point          '172-174 deg.C'
_cell_formula_units_Z            4
loop_
_atom_site_label
_atom_site_type_symbol
_atom_site_fract_x
_atom_site_fract_y
_atom_site_fract_z
P1 P 0.31428(10) 0.45822(12) -0.00235(9)
N1 N 0.5650(3) 0.2686(3) 0.2404(2)
N2 N 0.5040(4) 0.3565(4) 0.2256(3)
N3 N 0.4614(3) 0.5921(3) 0.0947(3)
H1 H 0.5015 0.5873 0.0689
O1 O 0.2540(3) 0.3625(4) 0.0176(3)
O2 O 0.2408(3) 0.5603(4) -0.0246(3)
O3 O 0.3534(3) 0.4292(3) -0.0663(2)
C1 C 0.4504(4) 0.6954(4) 0.1283(3)
C2 C 0.4754(3) 0.3962(4) 0.1417(3)
C3 C 0.6327(4) 0.1599(4) 0.1557(3)
C4 C 0.4713(4) 0.3983(4) 0.2911(3)
C5 C 0.7121(4) 0.1199(4) 0.2274(3)
H2 H 0.7278 0.1531 0.2804
C6 C 0.5236(4) 0.7765(4) 0.1418(3)
H3 H 0.5783 0.7611 0.1284
C7 C 0.5755(3) 0.2508(4) 0.1654(2)
C8 C 0.5218(4) 0.3257(4) 0.1050(3)
H4 H 0.5173 0.3287 0.0491
C9 C 0.4082(4) 0.4927(4) 0.1016(3)
H5 H 0.3730 0.5113 0.1385
C10 C 0.6096(4) 0.1102(5) 0.0775(3)
H6 H 0.5564 0.1368 0.0303
C11 C 0.6654(5) 0.0208(6) 0.0690(4)
H7 H 0.6509 -0.0117 0.0159
C12 C 0.4664(5) 0.5112(5) 0.3068(4)
H8 H 0.4907 0.5631 0.2790
C13 C 0.7658(4) 0.0313(5) 0.2180(4)
H9 H 0.8190 0.0052 0.2655
C14 C 0.4396(5) 0.3230(5) 0.3381(4)
H10 H 0.4444 0.2465 0.3308
C15 C 0.7446(5) -0.0209(5) 0.1416(4)
H11 H 0.7815 -0.0825 0.1375
C16 C 0.3684(5) 0.7240(5) 0.1455(4)
H12 H 0.3167 0.6731 0.1347
C17 C 0.5155(5) 0.8790(5) 0.1747(4)
H13 H 0.5662 0.9311 0.1845
C18 C 0.3629(5) 0.8285(5) 0.1788(5)
H14 H 0.3078 0.8455 0.1913
C19 C 0.4261(6) 0.5478(6) 0.3630(4)
H15 H 0.4210 0.6243 0.3707
C20 C 0.4009(5) 0.3619(6) 0.3956(4)
H16 H 0.3797 0.3109 0.4262
C21 C 0.4354(6) 0.9071(5) 0.1937(5)
C22 C 0.3933(6) 0.4742(6) 0.4080(4)
C23 C 0.1451(7) 0.7111(7) -0.1034(5)
H17 H 0.1344 0.7554 -0.1532
H18 H 0.1659 0.7587 -0.0542
H19 H 0.0842 0.6740 -0.1096
C24 C 0.2198(8) 0.6305(8) -0.0936(6)
H20 H 0.1991 0.5853 -0.1448
H21 H 0.2805 0.6691 -0.0882
C25 C 0.3448(8) 0.5129(9) 0.4677(6)
H22 H 0.3449 0.5931 0.4698
H23 H 0.3815 0.4838 0.5237
H24 H 0.2774 0.4861 0.4474
C26 C 0.0981(16) 0.3723(15) 0.0266(15)
H25 H 0.0289 0.3546 -0.0037
H26 H 0.1056 0.4516 0.0352
H27 H 0.1225 0.3350 0.0807
C27 C 0.4277(8) 1.0224(7) 0.2300(7)
H28 H 0.4846 1.0667 0.2349
H29 H 0.4254 1.0137 0.2851
H30 H 0.3681 1.0592 0.1926
C28 C 0.1573(11) 0.3332(13) -0.0252(10)
H31 H 0.1518 0.2527 -0.0327
H32 H 0.1314 0.3681 -0.0809
loop_
_geom_bond_atom_site_label_1
_geom_bond_atom_site_label_2
_geom_bond_site_symmetry_1
_geom_bond_site_symmetry_2
P1 O1 1_555 1_555
N1 N2 1_555 1_555
N2 C2 1_555 1_555
N3 H1 1_555 1_555
O1 C28 1_555 1_555
O2 P1 1_555 1_555
O3 P1 1_555 1_555
C1 N3 1_555 1_555
C2 C8 1_555 1_555
C3 C5 1_555 1_555
C4 N2 1_555 1_555
C5 H2 1_555 1_555
C6 C1 1_555 1_555
H3 C6 1_555 1_555
C7 N1 1_555 1_555
C8 C7 1_555 1_555
H4 C8 1_555 1_555
C9 P1 1_555 1_555
H5 C9 1_555 1_555
C10 C3 1_555 1_555
H6 C10 1_555 1_555
C11 C10 1_555 1_555
H7 C11 1_555 1_555
C12 C4 1_555 1_555
H8 C12 1_555 1_555
C13 C5 1_555 1_555
H9 C13 1_555 1_555
C14 C4 1_555 1_555
H10 C14 1_555 1_555
C15 C11 1_555 1_555
H11 C15 1_555 1_555
C16 C1 1_555 1_555
H12 C16 1_555 1_555
C17 C6 1_555 1_555
H13 C17 1_555 1_555
C18 C16 1_555 1_555
H14 C18 1_555 1_555
C19 C12 1_555 1_555
H15 C19 1_555 1_555
C20 C14 1_555 1_555
H16 C20 1_555 1_555
C21 C17 1_555 1_555
C22 C19 1_555 1_555
C23 H17 1_555 1_555
H18 C23 1_555 1_555
H19 C23 1_555 1_555
C24 O2 1_555 1_555
H20 C24 1_555 1_555
H21 C24 1_555 1_555
C25 C22 1_555 1_555
H22 C25 1_555 1_555
H23 C25 1_555 1_555
H24 C25 1_555 1_555
C26 H25 1_555 1_555
H26 C26 1_555 1_555
H27 C26 1_555 1_555
C27 C21 1_555 1_555
H28 C27 1_555 1_555
H29 C27 1_555 1_555
H30 C27 1_555 1_555
C28 C26 1_555 1_555
H31 C28 1_555 1_555
H32 C28 1_555 1_555
N3 C9 1_555 1_555
C2 C9 1_555 1_555
C3 C7 1_555 1_555
C13 C15 1_555 1_555
C18 C21 1_555 1_555
C20 C22 1_555 1_555
C23 C24 1_555 1_555

#END
