
#######################################################################
#
#                 Cambridge Crystallographic Data Centre
#                                CCDC 
#
#######################################################################
#
# If this CIF has been generated from an entry in the Cambridge 
# Structural Database, then it will include bibliographic, chemical, 
# crystal, experimental, refinement or atomic coordinate data resulting 
# from the CCDC's data processing and validation procedures.
#
#######################################################################

data_YAKPAE
_chemical_formula_moiety         'C6 H22 Ca1 N6 O8 2+,2(Cl1 O4 1-)'
_chemical_name_systematic        
'diaqua-tris(methyl hydrazinecarboxylate)-calcium diperchlorate'
_symmetry_cell_setting           monoclinic
_symmetry_space_group_name_H-M   'P 21/c'
_symmetry_Int_Tables_number      14
_space_group_name_Hall           '-P 2ybc'
loop_
_symmetry_equiv_pos_site_id
_symmetry_equiv_pos_as_xyz
1 x,y,z
2 -x,1/2+y,1/2-z
3 -x,-y,-z
4 x,1/2-y,1/2+z
_cell_length_a                   14.168(3)
_cell_length_b                   8.5938(18)
_cell_length_c                   18.889(4)
_cell_angle_alpha                90
_cell_angle_beta                 111.234(2)
_cell_angle_gamma                90
_cell_volume                     2143.73
_exptl_crystal_colour            colorless
_exptl_crystal_description       Chunk
_cell_formula_units_Z            4
loop_
_atom_site_label
_atom_site_type_symbol
_atom_site_fract_x
_atom_site_fract_y
_atom_site_fract_z
Ca1 Ca 0.72069(3) 0.73194(5) 0.69266(2)
O1 O 0.81611(11) 0.96913(18) 0.72584(8)
O2 O 0.87410(13) 1.1770(2) 0.80305(9)
O3 O 0.81758(12) 0.70470(18) 0.61222(8)
O4 O 0.83146(13) 0.7427(2) 0.49760(9)
O5 O 0.87500(11) 0.63412(19) 0.79162(8)
O6 O 0.94438(11) 0.5131(2) 0.90531(9)
O7 O 0.54636(13) 0.7745(2) 0.67991(10)
O8 O 0.61841(15) 0.5527(2) 0.59622(10)
N1 N 0.72123(14) 0.8688(2) 0.81958(10)
H1 H 0.6572 0.9038 0.8129
H2 H 0.7404 0.7983 0.8589
N2 N 0.78971(14) 0.9952(2) 0.83719(10)
H3 H 0.8084 1.0419 0.8816
N3 N 0.65256(14) 0.8952(2) 0.56818(10)
H4 H 0.5853 0.8727 0.5424
H5 H 0.6580 0.9996 0.5798
N4 N 0.70873(15) 0.8605(2) 0.52213(10)
H6 H 0.6921 0.9016 0.4766
N5 N 0.69734(13) 0.4962(2) 0.77193(10)
H7 H 0.6382 0.5076 0.7810
H8 H 0.6932 0.4055 0.7451
N6 N 0.78047(13) 0.4881(2) 0.84181(10)
H9 H 0.7754 0.4449 0.8825
C1 C 0.82525(15) 1.0415(2) 0.78358(11)
C2 C 0.9242(2) 1.2314(3) 0.75323(16)
H10 H 0.9757 1.1556 0.7528
H11 H 0.9566 1.3319 0.7715
H12 H 0.8743 1.2434 0.7017
C3 C 0.78746(16) 0.7644(2) 0.54884(12)
C4 C 0.92144(19) 0.6469(3) 0.52286(14)
H13 H 0.9754 0.7009 0.5633
H14 H 0.9435 0.6270 0.4801
H15 H 0.9064 0.5478 0.5422
C5 C 0.86759(15) 0.5508(2) 0.84198(11)
C6 C 1.04175(16) 0.5789(3) 0.91337(13)
H16 H 1.0684 0.5263 0.8785
H17 H 1.0889 0.5648 0.9657
H18 H 1.0339 0.6902 0.9014
Cl1 Cl 0.71164(4) 1.28746(6) 0.48262(3)
O9 O 0.75335(15) 1.2540(2) 0.56174(10)
O10 O 0.79005(18) 1.2733(2) 0.45075(12)
O11 O 0.67087(17) 1.4420(2) 0.46935(12)
O12 O 0.63390(18) 1.1769(3) 0.44676(13)
Cl2 Cl 0.51574(4) 0.20668(6) 0.65352(3)
O13 O 0.42785(14) 0.1140(2) 0.64615(10)
O14 O 0.49854(13) 0.3630(2) 0.67343(12)
O15 O 0.60322(16) 0.1465(3) 0.71220(14)
O16 O 0.53063(17) 0.2079(3) 0.58299(13)
loop_
_geom_bond_atom_site_label_1
_geom_bond_atom_site_label_2
_geom_bond_site_symmetry_1
_geom_bond_site_symmetry_2
Ca1 O1 1_555 1_555
O1 C1 1_555 1_555
O2 C1 1_555 1_555
O3 Ca1 1_555 1_555
O4 C3 1_555 1_555
O5 Ca1 1_555 1_555
O6 C5 1_555 1_555
O7 Ca1 1_555 1_555
O8 Ca1 1_555 1_555
N1 Ca1 1_555 1_555
H1 N1 1_555 1_555
H2 N1 1_555 1_555
N2 N1 1_555 1_555
H3 N2 1_555 1_555
N3 Ca1 1_555 1_555
H4 N3 1_555 1_555
H5 N3 1_555 1_555
N4 N3 1_555 1_555
H6 N4 1_555 1_555
N5 Ca1 1_555 1_555
H7 N5 1_555 1_555
H8 N5 1_555 1_555
N6 N5 1_555 1_555
H9 N6 1_555 1_555
C1 N2 1_555 1_555
C2 O2 1_555 1_555
H10 C2 1_555 1_555
H11 C2 1_555 1_555
H12 C2 1_555 1_555
C3 O3 1_555 1_555
C4 O4 1_555 1_555
H13 C4 1_555 1_555
H14 C4 1_555 1_555
H15 C4 1_555 1_555
C5 O5 1_555 1_555
C6 O6 1_555 1_555
H16 C6 1_555 1_555
H17 C6 1_555 1_555
H18 C6 1_555 1_555
Cl1 O9 1_555 1_555
O10 Cl1 1_555 1_555
O11 Cl1 1_555 1_555
O12 Cl1 1_555 1_555
Cl2 O13 1_555 1_555
O14 Cl2 1_555 1_555
O15 Cl2 1_555 1_555
O16 Cl2 1_555 1_555
N4 C3 1_555 1_555
N6 C5 1_555 1_555

#END
