
#######################################################################
#
#                 Cambridge Crystallographic Data Centre
#                                CCDC 
#
#######################################################################
#
# If this CIF has been generated from an entry in the Cambridge 
# Structural Database, then it will include bibliographic, chemical, 
# crystal, experimental, refinement or atomic coordinate data resulting 
# from the CCDC's data processing and validation procedures.
#
#######################################################################

data_YAKQIN
_chemical_formula_moiety         'C27 H29 Cl1 N3 O4 P1'
_chemical_name_systematic        
'diethyl ((3-(4-chlorophenyl)-1-phenyl-1H-pyrazol-4-yl)((4-methoxyphenyl)amino)methyl)phosphonate'
_chemical_properties_biological  
'tested for insecticidal activity against Plutella xylostella'
_symmetry_cell_setting           monoclinic
_symmetry_space_group_name_H-M   'P 21/c'
_symmetry_Int_Tables_number      14
_space_group_name_Hall           '-P 2ybc'
loop_
_symmetry_equiv_pos_site_id
_symmetry_equiv_pos_as_xyz
1 x,y,z
2 -x,1/2+y,1/2-z
3 -x,-y,-z
4 x,1/2-y,1/2+z
_cell_length_a                   14.7287(13)
_cell_length_b                   12.2428(12)
_cell_length_c                   17.4681(16)
_cell_angle_alpha                90
_cell_angle_beta                 112.688(3)
_cell_angle_gamma                90
_cell_volume                     2906.12
_exptl_crystal_colour            colorless
_exptl_crystal_description       block
_chemical_melting_point          '146-148 deg.C'
_cell_formula_units_Z            4
loop_
_atom_site_label
_atom_site_type_symbol
_atom_site_fract_x
_atom_site_fract_y
_atom_site_fract_z
Cl1 Cl 0.54888(5) -0.05643(9) -0.14385(6)
P1 P 0.17338(4) 0.03805(5) 0.12411(3)
N1 N 0.08920(11) 0.23984(14) -0.10439(10)
N2 N 0.16713(11) 0.21888(14) -0.12562(10)
N3 N 0.13172(12) -0.09734(14) -0.00677(12)
H1 H 0.0688 -0.0928 -0.0312
O1 O 0.2993(3) -0.5080(2) 0.0043(2)
O2 O 0.21848(14) -0.06271(16) 0.17976(11)
O3 O 0.25270(11) 0.12814(15) 0.16274(11)
O4 O 0.07465(10) 0.06950(13) 0.11607(9)
C1 C 0.08362(14) 0.16685(17) -0.04860(12)
H2 H 0.0360 0.1655 -0.0258
C2 C 0.15997(13) 0.09522(15) -0.03137(12)
C3 C 0.29739(13) 0.08471(18) -0.09085(12)
C4 C 0.21006(13) 0.13166(16) -0.08135(12)
C5 C 0.18657(13) 0.00142(16) 0.02790(12)
H3 H 0.2563 -0.0148 0.0418
C6 C 0.17551(15) -0.19898(17) -0.00265(13)
C7 C 0.02236(15) 0.37586(18) -0.21328(13)
H4 H 0.0605 0.3470 -0.2402
C8 C -0.03817(17) 0.4634(2) -0.24679(14)
H5 H -0.0412 0.4937 -0.2966
C9 C 0.02651(14) 0.33076(17) -0.13961(12)
C10 C 0.12334(19) -0.28067(19) -0.05617(15)
H6 H 0.0602 -0.2667 -0.0947
C11 C -0.02790(17) 0.3751(2) -0.09850(15)
H7 H -0.0233 0.3465 -0.0478
C12 C 0.30745(15) -0.0263(2) -0.09655(15)
H8 H 0.2611 -0.0730 -0.0901
C13 C 0.38595(17) -0.0692(2) -0.11180(17)
H9 H 0.3922 -0.1443 -0.1158
C14 C 0.26897(18) -0.22329(19) 0.05420(18)
H10 H 0.3048 -0.1705 0.0921
C15 C -0.0892(2) 0.4622(2) -0.13312(17)
H11 H -0.1274 0.4914 -0.1064
C16 C 0.45365(15) -0.0009(3) -0.12086(16)
C17 C 0.36839(16) 0.1513(2) -0.09848(17)
H12 H 0.3638 0.2265 -0.0932
C18 C -0.0942(2) 0.5064(2) -0.20704(16)
H13 H -0.1356 0.5654 -0.2301
C19 C 0.44689(17) 0.1087(3) -0.11389(19)
H14 H 0.4943 0.1547 -0.1194
C20 C 0.2327(3) 0.2349(3) 0.1799(3)
H15 H 0.2396 0.2397 0.2374
H16 H 0.1652 0.2533 0.1451
C21 C 0.3099(2) -0.3266(2) 0.0551(2)
H17 H 0.3734 -0.3413 0.0927
C22 C 0.1643(2) -0.3829(2) -0.05287(19)
H18 H 0.1277 -0.4375 -0.0884
C23 C 0.2581(3) -0.4049(2) 0.0020(2)
C24 C 0.1965(3) -0.1033(4) 0.2418(3)
H19 H 0.1272 -0.1222 0.2199
H20 H 0.2066 -0.0464 0.2829
C25 C 0.2969(3) 0.3106(4) 0.1658(3)
H21 H 0.2811 0.3830 0.1777
H22 H 0.2896 0.3065 0.1088
H23 H 0.3636 0.2936 0.2011
C26 C 0.2501(4) -0.1944(4) 0.2812(3)
H24 H 0.2295 -0.2172 0.3245
H25 H 0.3189 -0.1765 0.3046
H26 H 0.2391 -0.2525 0.2417
C27 C 0.3949(5) -0.5309(6) 0.0411(7)
H27 H 0.4052 -0.6071 0.0344
H28 H 0.4173 -0.5140 0.0992
H29 H 0.4310 -0.4881 0.0163
C28? C 0.2841(16) -0.5704(10) -0.0590(8)
H30? H 0.3303 -0.6297 -0.0433
H31? H 0.2922 -0.5290 -0.1026
H32? H 0.2183 -0.5990 -0.0782
loop_
_geom_bond_atom_site_label_1
_geom_bond_atom_site_label_2
_geom_bond_site_symmetry_1
_geom_bond_site_symmetry_2
Cl1 C16 1_555 1_555
P1 O2 1_555 1_555
N1 N2 1_555 1_555
N2 C4 1_555 1_555
N3 H1 1_555 1_555
O1 C23 1_555 1_555
O2 C24 1_555 1_555
O3 P1 1_555 1_555
O4 P1 1_555 1_555
C1 N1 1_555 1_555
H2 C1 1_555 1_555
C2 C1 1_555 1_555
C3 C4 1_555 1_555
C4 C2 1_555 1_555
C5 P1 1_555 1_555
H3 C5 1_555 1_555
C6 N3 1_555 1_555
C7 H4 1_555 1_555
C8 C7 1_555 1_555
H5 C8 1_555 1_555
C9 N1 1_555 1_555
C10 C6 1_555 1_555
H6 C10 1_555 1_555
C11 C9 1_555 1_555
H7 C11 1_555 1_555
C12 C3 1_555 1_555
H8 C12 1_555 1_555
C13 C12 1_555 1_555
H9 C13 1_555 1_555
C14 C6 1_555 1_555
H10 C14 1_555 1_555
C15 C11 1_555 1_555
H11 C15 1_555 1_555
C16 C13 1_555 1_555
C17 C3 1_555 1_555
H12 C17 1_555 1_555
C18 C8 1_555 1_555
H13 C18 1_555 1_555
C19 C16 1_555 1_555
H14 C19 1_555 1_555
C20 O3 1_555 1_555
H15 C20 1_555 1_555
H16 C20 1_555 1_555
C21 C14 1_555 1_555
H17 C21 1_555 1_555
C22 C10 1_555 1_555
H18 C22 1_555 1_555
C23 C21 1_555 1_555
C24 H19 1_555 1_555
H20 C24 1_555 1_555
C25 C20 1_555 1_555
H21 C25 1_555 1_555
H22 C25 1_555 1_555
H23 C25 1_555 1_555
C26 C24 1_555 1_555
H24 C26 1_555 1_555
H25 C26 1_555 1_555
H26 C26 1_555 1_555
C27 O1 1_555 1_555
H27 C27 1_555 1_555
H28 C27 1_555 1_555
H29 C27 1_555 1_555
N3 C5 1_555 1_555
C2 C5 1_555 1_555
C7 C9 1_555 1_555
C15 C18 1_555 1_555
C17 C19 1_555 1_555
C22 C23 1_555 1_555

#END
