
#######################################################################
#
#                 Cambridge Crystallographic Data Centre
#                                CCDC 
#
#######################################################################
#
# If this CIF has been generated from an entry in the Cambridge 
# Structural Database, then it will include bibliographic, chemical, 
# crystal, experimental, refinement or atomic coordinate data resulting 
# from the CCDC's data processing and validation procedures.
#
#######################################################################

data_YALCUK
_chemical_formula_moiety         'C48 H36 N2 O2'
_chemical_name_systematic        
9-(4-(4-(4-(9H-Carbazol-9-yl)styryl)-2,5-dimethoxystyryl)phenyl)-9H-carbazole
_symmetry_cell_setting           monoclinic
_symmetry_space_group_name_H-M   'P c'
_symmetry_Int_Tables_number      7
_space_group_name_Hall           'P -2yc'
loop_
_symmetry_equiv_pos_site_id
_symmetry_equiv_pos_as_xyz
1 x,y,z
2 x,-y,1/2+z
_cell_length_a                   8.777(5)
_cell_length_b                   21.279(5)
_cell_length_c                   9.934(5)
_cell_angle_alpha                90
_cell_angle_beta                 97.797(5)
_cell_angle_gamma                90
_cell_volume                     1838.18
_exptl_crystal_colour            yellow
_exptl_crystal_description       prism
_cell_formula_units_Z            2
loop_
_atom_site_label
_atom_site_type_symbol
_atom_site_fract_x
_atom_site_fract_y
_atom_site_fract_z
C1 C 0.9469(9) 0.8948(2) 0.6001(5)
C2 C 0.8281(7) 0.9144(3) 0.6695(7)
H1 H 0.7343 0.8934 0.6570
C3 C 0.8494(9) 0.9653(3) 0.7577(6)
H2 H 0.7699 0.9784 0.8042
C4 C 0.9896(10) 0.9967(3) 0.7765(6)
H3 H 1.0039 1.0307 0.8355
C5 C 1.1084(8) 0.9771(3) 0.7070(7)
H4 H 1.2022 0.9981 0.7196
C6 C 1.0871(7) 0.9262(3) 0.6189(6)
C7 C 1.1811(9) 0.8987(3) 0.5271(6)
C8 C 1.3284(8) 0.9096(3) 0.4957(8)
H5 H 1.3901 0.9401 0.5426
C9 C 1.3835(7) 0.8748(4) 0.3941(9)
H6 H 1.4820 0.8821 0.3730
C10 C 1.2913(10) 0.8291(3) 0.3239(7)
H7 H 1.3281 0.8059 0.2559
C11 C 1.1440(9) 0.8182(3) 0.3553(7)
H8 H 1.0823 0.7877 0.3084
C12 C 1.0889(6) 0.8530(3) 0.4569(7)
C13 C 0.8296(10) 0.8066(3) 0.4630(8)
C14 C 0.7742(10) 0.7989(3) 0.3271(8)
H9 H 0.8158 0.8226 0.2623
C15 C 0.6581(10) 0.7566(3) 0.2864(8)
H10 H 0.6217 0.7519 0.1945
C16 C 0.5952(9) 0.7208(3) 0.3824(7)
C17 C 0.6508(11) 0.7286(4) 0.5176(8)
H11 H 0.6090 0.7053 0.5830
C18 C 0.7683(11) 0.7706(4) 0.5569(8)
H12 H 0.8065 0.7746 0.6486
C19 C 0.4727(10) 0.6747(3) 0.3440(8)
H13 H 0.4039 0.6673 0.4057
C20 C 0.4519(10) 0.6424(4) 0.2273(8)
H14 H 0.5189 0.6513 0.1649
C21 C 0.3349(10) 0.5945(3) 0.1878(7)
C22 C 0.3689(10) 0.5420(4) 0.1127(8)
C23 C 0.2624(12) 0.4953(4) 0.0843(8)
H15 H 0.2885 0.4600 0.0371
C24 C 0.1182(11) 0.4986(4) 0.1230(9)
C25 C 0.0778(11) 0.5527(4) 0.1913(9)
C26 C 0.1849(10) 0.5996(4) 0.2234(8)
H16 H 0.1579 0.6351 0.2692
C27 C -0.1311(11) 0.6126(5) 0.2518(10)
H17 H -0.2331 0.6066 0.2742
H18 H -0.1350 0.6395 0.1738
H19 H -0.0678 0.6316 0.3273
C28 C 0.5576(13) 0.4922(5) -0.0039(13)
H20 H 0.6617 0.4977 -0.0214
H21 H 0.4901 0.4917 -0.0884
H22 H 0.5488 0.4532 0.0430
C29 C 0.0042(12) 0.4482(4) 0.0934(9)
H23 H -0.0950 0.4607 0.0589
C30 C 0.0268(11) 0.3868(4) 0.1106(9)
H24 H -0.0554 0.3614 0.0756
C31 C 0.1640(10) 0.3530(3) 0.1775(8)
C32 C 0.1897(11) 0.2931(4) 0.1343(8)
H25 H 0.1229 0.2761 0.0629
C33 C 0.3110(11) 0.2574(4) 0.1935(8)
H26 H 0.3303 0.2179 0.1594
C34 C 0.4046(10) 0.2818(4) 0.3059(8)
C35 C 0.3814(11) 0.3423(4) 0.3497(8)
H27 H 0.4468 0.3592 0.4222
C36 C 0.2622(11) 0.3772(4) 0.2861(8)
H28 H 0.2467 0.4178 0.3162
C37 C 0.5209(8) 0.1842(2) 0.4146(5)
C38 C 0.3925(6) 0.1463(3) 0.4182(6)
H29 H 0.2954 0.1611 0.3834
C39 C 0.4092(8) 0.0864(3) 0.4738(7)
H30 H 0.3233 0.0610 0.4762
C40 C 0.5543(10) 0.0643(2) 0.5258(7)
H31 H 0.5655 0.0242 0.5630
C41 C 0.6828(7) 0.1021(3) 0.5222(6)
H32 H 0.7799 0.0873 0.5570
C42 C 0.6661(6) 0.1621(3) 0.4666(6)
C43 C 0.7685(8) 0.2128(3) 0.4542(6)
C44 C 0.9269(8) 0.2192(3) 0.4860(5)
H33 H 0.9858 0.1855 0.5229
C45 C 0.9974(6) 0.2759(4) 0.4625(6)
H34 H 1.1034 0.2801 0.4838
C46 C 0.9094(10) 0.3263(3) 0.4073(6)
H35 H 0.9565 0.3642 0.3916
C47 C 0.7509(9) 0.3200(3) 0.3756(5)
H36 H 0.6920 0.3537 0.3387
C48 C 0.6805(6) 0.2632(4) 0.3990(6)
N1 N 0.9483(8) 0.8496(3) 0.5024(6)
N2 N 0.5304(9) 0.2459(3) 0.3708(7)
O1 O 0.5169(7) 0.5424(3) 0.0774(6)
O2 O -0.0678(8) 0.5534(3) 0.2222(8)
loop_
_geom_bond_atom_site_label_1
_geom_bond_atom_site_label_2
_geom_bond_site_symmetry_1
_geom_bond_site_symmetry_2
C1 C2 1_555 1_555
C2 H1 1_555 1_555
C3 C2 1_555 1_555
H2 C3 1_555 1_555
C4 C3 1_555 1_555
H3 C4 1_555 1_555
C5 C4 1_555 1_555
H4 C5 1_555 1_555
C6 C1 1_555 1_555
C7 C6 1_555 1_555
C8 C7 1_555 1_555
H5 C8 1_555 1_555
C9 C8 1_555 1_555
H6 C9 1_555 1_555
C10 C9 1_555 1_555
H7 C10 1_555 1_555
C11 C10 1_555 1_555
H8 C11 1_555 1_555
C12 C7 1_555 1_555
C13 C14 1_555 1_555
C14 H9 1_555 1_555
C15 C14 1_555 1_555
H10 C15 1_555 1_555
C16 C15 1_555 1_555
C17 C16 1_555 1_555
H11 C17 1_555 1_555
C18 C13 1_555 1_555
H12 C18 1_555 1_555
C19 C16 1_555 1_555
H13 C19 1_555 1_555
C20 C19 1_555 1_555
H14 C20 1_555 1_555
C21 C20 1_555 1_555
C22 C21 1_555 1_555
C23 C22 1_555 1_555
H15 C23 1_555 1_555
C24 C23 1_555 1_555
C25 C24 1_555 1_555
C26 C21 1_555 1_555
H16 C26 1_555 1_555
C27 H17 1_555 1_555
H18 C27 1_555 1_555
H19 C27 1_555 1_555
C28 H20 1_555 1_555
H21 C28 1_555 1_555
H22 C28 1_555 1_555
C29 C24 1_555 1_555
H23 C29 1_555 1_555
C30 C29 1_555 1_555
H24 C30 1_555 1_555
C31 C30 1_555 1_555
C32 C31 1_555 1_555
H25 C32 1_555 1_555
C33 C32 1_555 1_555
H26 C33 1_555 1_555
C34 C33 1_555 1_555
C35 C34 1_555 1_555
H27 C35 1_555 1_555
C36 C31 1_555 1_555
H28 C36 1_555 1_555
C37 C38 1_555 1_555
C38 H29 1_555 1_555
C39 C38 1_555 1_555
H30 C39 1_555 1_555
C40 C39 1_555 1_555
H31 C40 1_555 1_555
C41 C40 1_555 1_555
H32 C41 1_555 1_555
C42 C37 1_555 1_555
C43 C42 1_555 1_555
C44 C43 1_555 1_555
H33 C44 1_555 1_555
C45 C44 1_555 1_555
H34 C45 1_555 1_555
C46 C45 1_555 1_555
H35 C46 1_555 1_555
C47 C46 1_555 1_555
H36 C47 1_555 1_555
C48 C43 1_555 1_555
N1 C1 1_555 1_555
N2 C34 1_555 1_555
O1 C22 1_555 1_555
O2 C25 1_555 1_555
C5 C6 1_555 1_555
C11 C12 1_555 1_555
C12 N1 1_555 1_555
C13 N1 1_555 1_555
C17 C18 1_555 1_555
C25 C26 1_555 1_555
C27 O2 1_555 1_555
C28 O1 1_555 1_555
C35 C36 1_555 1_555
C37 N2 1_555 1_555
C41 C42 1_555 1_555
C47 C48 1_555 1_555
C48 N2 1_555 1_555

#END
