
#######################################################################
#
#                 Cambridge Crystallographic Data Centre
#                                CCDC 
#
#######################################################################
#
# If this CIF has been generated from an entry in the Cambridge 
# Structural Database, then it will include bibliographic, chemical, 
# crystal, experimental, refinement or atomic coordinate data resulting 
# from the CCDC's data processing and validation procedures.
#
#######################################################################

data_YALPEJ
_chemical_formula_moiety         
'C56 H94 Ca2 F6 N6 O26 S2 2+,2(C1 F3 O3 S1 1-),4(C2 H3 N1)'
_chemical_name_systematic        
'bis(\m-trifluoromethanesulfonato)-(\m-valinomycin)-diaqua-di-calcium bis(trifluoromethanesulfonate) acetonitrile solvate'
_chemical_properties_biological  'valinomycin is an antibiotic'
_symmetry_cell_setting           triclinic
_symmetry_space_group_name_H-M   'P 1'
_symmetry_Int_Tables_number      1
_space_group_name_Hall           'P 1'
loop_
_symmetry_equiv_pos_site_id
_symmetry_equiv_pos_as_xyz
1 x,y,z
_cell_length_a                   12.0584(12)
_cell_length_b                   14.2293(14)
_cell_length_c                   15.0829(15)
_cell_angle_alpha                69.9040(10)
_cell_angle_beta                 79.4170(10)
_cell_angle_gamma                77.4120(10)
_cell_volume                     2355.22
_exptl_crystal_colour            colorless
_exptl_crystal_description       prism
_cell_formula_units_Z            1
loop_
_atom_site_label
_atom_site_type_symbol
_atom_site_fract_x
_atom_site_fract_y
_atom_site_fract_z
H1 H -0.137(6) 0.145(4) 0.664(5)
C1 C -0.0736(4) 0.0526(4) 0.9244(4)
H2 H -0.1242 0.0798 0.8742
C2 C 0.5662(4) 0.2629(4) 0.4218(3)
H3 H 0.6154 0.1989 0.4196
C3 C 0.1304(5) 0.2214(5) 0.4173(4)
C4 C 0.1588(4) -0.0107(4) 0.7467(4)
H4 H 0.2110 -0.0618 0.7890
C5 C -0.0632(4) 0.2228(4) 0.9201(4)
C6 C 0.1379(5) -0.0501(4) 0.6707(4)
H5 H 0.1089 -0.1128 0.7003
H6 H 0.2085 -0.0615 0.6314
H7 H 0.0832 -0.0011 0.6322
C7 C 0.0490(5) 0.0322(4) 0.8783(4)
C8 C 0.3762(4) 0.1665(4) 0.6441(4)
H8 H 0.3172 0.2272 0.6294
C9 C 0.4510(4) 0.1638(4) 0.5514(4)
C10 C 0.2067(4) 0.0878(4) 0.7018(4)
C11 C 0.4866(4) 0.2998(4) 0.3455(4)
C12 C 0.4334(5) 0.2889(4) 0.2033(4)
H9 H 0.3552 0.2834 0.2343
C13 C 0.4363(4) 0.3995(4) 0.1440(4)
C14 C 0.3252(5) 0.5448(4) 0.0503(4)
H10 H 0.3881 0.5536 -0.0016
C15 C 0.3266(4) 0.6125(4) 0.1102(4)
C16 C 0.3389(5) 0.7820(4) 0.1088(4)
H11 H 0.3976 0.7595 0.1523
C17 C 0.2215(4) 0.7930(4) 0.1655(4)
C18 C 0.1308(4) 0.8149(4) 0.3134(4)
H12 H 0.0797 0.8773 0.2836
C19 C 0.0720(5) 0.7217(4) 0.3391(4)
C20 C -0.1056(5) 0.6546(4) 0.3763(4)
H13 H -0.0511 0.5908 0.3917
C21 C -0.1831(5) 0.6574(4) 0.4668(4)
C22 C -0.3030(4) 0.5620(4) 0.5935(4)
H14 H -0.3471 0.6274 0.5971
C23 C -0.2176(5) 0.5201(4) 0.6663(4)
N1 N -0.2215(4) 0.5719(3) 0.7248(3)
H15 H -0.2755 0.6227 0.7247
C24 C -0.1360(5) 0.5443(4) 0.7890(4)
H16 H -0.0617 0.5268 0.7543
C25 C -0.1604(5) 0.4489(4) 0.8722(4)
C26 C -0.0678(5) 0.2953(4) 0.9762(4)
H17 H -0.1393 0.2966 1.0192
C27 C 0.0337(5) 0.2679(4) 1.0321(4)
H18 H 0.0288 0.2017 1.0806
C28 C 0.0279(7) 0.3450(5) 1.0836(5)
H19 H 0.0385 0.4096 1.0378
H20 H 0.0870 0.3220 1.1248
H21 H -0.0455 0.3517 1.1206
C29 C 0.1468(5) 0.2580(5) 0.9702(5)
H22 H 0.1512 0.2050 0.9432
H23 H 0.2084 0.2416 1.0081
H24 H 0.1524 0.3210 0.9201
C30 C -0.1309(5) 0.6367(5) 0.8183(4)
H25 H -0.2078 0.6602 0.8456
C31 C -0.0953(7) 0.7233(5) 0.7309(6)
H26 H -0.0939 0.7809 0.7498
H27 H -0.1491 0.7418 0.6856
H28 H -0.0205 0.7015 0.7024
C32 C -0.0500(6) 0.6116(5) 0.8918(5)
H29 H 0.0246 0.5831 0.8684
H30 H -0.0777 0.5634 0.9495
H31 H -0.0455 0.6724 0.9043
C33 C -0.3818(5) 0.4901(5) 0.6035(4)
H32 H -0.4280 0.5169 0.5521
H33 H -0.4303 0.4816 0.6628
H34 H -0.3376 0.4256 0.6022
C34 C -0.1684(5) 0.6561(4) 0.2965(4)
H35 H -0.2148 0.6020 0.3225
C35 C -0.2500(5) 0.7566(5) 0.2621(5)
H36 H -0.3055 0.7661 0.3141
H37 H -0.2885 0.7551 0.2123
H38 H -0.2073 0.8116 0.2382
C36 C -0.0845(6) 0.6333(5) 0.2147(4)
H39 H -0.0329 0.6815 0.1914
H40 H -0.1260 0.6379 0.1643
H41 H -0.0418 0.5660 0.2367
C37 C 0.1708(5) 0.8211(5) 0.4016(4)
H42 H 0.2222 0.7578 0.4286
C38 C 0.2384(5) 0.9091(5) 0.3740(5)
H43 H 0.3024 0.8995 0.3279
H44 H 0.2654 0.9105 0.4295
H45 H 0.1895 0.9721 0.3474
C39 C 0.0700(5) 0.8321(5) 0.4772(4)
H46 H 0.0162 0.8917 0.4510
H47 H 0.0972 0.8380 0.5307
H48 H 0.0334 0.7734 0.4973
C40 C 0.3598(5) 0.8847(4) 0.0329(4)
H49 H 0.3161 0.8977 -0.0200
C41 C 0.3201(7) 0.9713(5) 0.0761(5)
H50 H 0.3621 0.9587 0.1284
H51 H 0.2399 0.9751 0.0984
H52 H 0.3334 1.0343 0.0287
C42 C 0.4876(6) 0.8778(5) -0.0042(5)
H53 H 0.5306 0.8686 0.0466
H54 H 0.5002 0.9392 -0.0544
H55 H 0.5119 0.8212 -0.0281
C43 C 0.2129(6) 0.5715(5) 0.0104(5)
H56 H 0.2107 0.5258 -0.0232
H57 H 0.2048 0.6398 -0.0324
H58 H 0.1514 0.5660 0.0614
C44 C 0.4653(6) 0.2195(5) 0.1409(5)
H59 H 0.4112 0.2446 0.0934
C45 C 0.5815(7) 0.2242(6) 0.0875(5)
H60 H 0.5884 0.2936 0.0528
H61 H 0.5933 0.1861 0.0439
H62 H 0.6377 0.1958 0.1313
C46 C 0.4483(8) 0.1128(6) 0.1978(6)
H63 H 0.5011 0.0846 0.2446
H64 H 0.4617 0.0723 0.1563
H65 H 0.3714 0.1134 0.2291
C47 C 0.6389(4) 0.3420(4) 0.4129(4)
H66 H 0.5877 0.3994 0.4284
C48 C 0.6972(5) 0.3817(5) 0.3126(4)
H67 H 0.7428 0.3260 0.2936
H68 H 0.7454 0.4281 0.3106
H69 H 0.6403 0.4162 0.2701
C49 C 0.7247(5) 0.2972(5) 0.4856(4)
H70 H 0.6847 0.2726 0.5480
H71 H 0.7657 0.3487 0.4838
H72 H 0.7776 0.2422 0.4707
C50 C 0.4484(5) 0.1759(5) 0.7161(4)
H73 H 0.4788 0.2396 0.6876
C51 C 0.5490(5) 0.0888(5) 0.7364(4)
H74 H 0.5211 0.0254 0.7609
H75 H 0.5899 0.0951 0.7824
H76 H 0.5992 0.0911 0.6787
C52 C 0.3698(6) 0.1813(6) 0.8060(5)
H77 H 0.3032 0.2317 0.7894
H78 H 0.4096 0.1992 0.8459
H79 H 0.3471 0.1164 0.8395
C53 C -0.1138(5) -0.0432(4) 0.9966(4)
H80 H -0.0783 -0.0597 1.0547
C54 C -0.2442(5) -0.0218(5) 1.0208(4)
H81 H -0.2802 -0.0047 0.9643
H82 H -0.2645 0.0339 1.0462
H83 H -0.2694 -0.0811 1.0672
C55 C -0.0803(6) -0.1350(5) 0.9599(5)
H84 H -0.1083 -0.1178 0.8997
H85 H -0.1131 -0.1912 1.0047
H86 H 0.0016 -0.1533 0.9523
O1 O 0.0678(5) 0.5710(4) 0.5735(4)
S1 S 0.15832(14) 0.48656(13) 0.59838(11)
C56 C 0.2497(5) 0.5243(3) 0.6599(4)
F1 F 0.2918(6) 0.6065(4) 0.6036(5)
F2 F 0.1927(5) 0.5447(6) 0.7371(4)
F3 F 0.3372(4) 0.4507(4) 0.6882(4)
N2 N -0.0826(4) 0.1292(3) 0.9710(3)
H87 H -0.1008 0.1133 1.0330
N3 N 0.3193(4) 0.0792(3) 0.6835(3)
H88 H 0.3600 0.0196 0.6956
N4 N 0.5093(4) 0.2569(3) 0.2775(3)
H89 H 0.5693 0.2090 0.2771
N5 N 0.3476(4) 0.7056(3) 0.0610(3)
H90 H 0.3671 0.7212 -0.0009
N6 N -0.0395(4) 0.7374(3) 0.3472(3)
H91 H -0.0756 0.7988 0.3349
O2 O -0.2352(3) 0.5748(3) 0.5010(3)
O3 O -0.0631(3) 0.3948(3) 0.9068(3)
O4 O 0.1313(4) 0.6368(3) 0.3545(3)
O5 O 0.2336(3) 0.8001(3) 0.2498(3)
O6 O 0.0486(3) 0.0090(3) 0.7987(3)
O7 O 0.3363(3) 0.4407(3) 0.1090(3)
O8 O 0.1352(3) 0.3925(2) 0.6726(3)
O9 O 0.2473(3) 0.4621(3) 0.5256(2)
O10 O 0.0275(4) 0.3451(3) 0.5069(3)
O11 O -0.0347(4) 0.3671(4) 0.3562(3)
O12 O -0.0391(3) 0.2483(3) 0.8338(3)
O13 O 0.1470(3) 0.4102(3) 0.3608(3)
O14 O 0.1339(3) 0.0336(3) 0.9080(3)
O15 O 0.1416(3) 0.1707(3) 0.6821(3)
O16 O 0.4956(3) 0.2486(3) 0.5124(3)
O17 O 0.4052(3) 0.3688(3) 0.3460(3)
O18 O 0.5163(3) 0.4428(3) 0.1272(3)
O19 O 0.3032(3) 0.5840(3) 0.1969(3)
O20 O 0.1312(3) 0.7983(3) 0.1400(3)
O21 O -0.1972(4) 0.7220(3) 0.5030(3)
O22 O -0.1486(4) 0.4417(3) 0.6685(3)
O23 O -0.2526(4) 0.4266(4) 0.9024(3)
O24 O 0.4697(3) 0.0949(3) 0.5186(3)
O25 O -0.1477(3) 0.2048(3) 0.6846(3)
O26 O 0.4279(3) 0.5863(3) 0.3669(3)
F4 F 0.1592(4) 0.2118(3) 0.3308(3)
F5 F 0.0633(4) 0.1550(3) 0.4671(3)
F6 F 0.2251(3) 0.1987(3) 0.4577(3)
S2 S 0.05760(12) 0.35053(11) 0.40858(10)
Ca1 Ca 0.27843(9) 0.50819(8) 0.35930(8)
Ca2 Ca -0.00935(9) 0.30160(8) 0.67143(8)
H92 H -0.218(4) 0.211(5) 0.727(4)
H93 H 0.472(4) 0.604(4) 0.308(2)
H94 H 0.428(6) 0.626(5) 0.407(4)
C58 C -0.0840(6) 0.1053(5) 0.3000(5)
O28 O -0.1566(4) -0.0578(3) 0.3209(4)
O29 O -0.2963(4) 0.0917(3) 0.3093(3)
O30 O -0.1671(4) 0.0768(5) 0.1706(3)
F10 F -0.0931(4) 0.0872(4) 0.3922(3)
F11 F -0.1016(4) 0.2053(3) 0.2603(4)
F12 F 0.0210(3) 0.0718(3) 0.2683(3)
S4 S -0.18763(12) 0.04856(11) 0.27022(10)
C59 C 0.3830(5) 0.7147(4) 0.7355(4)
O31 O 0.5887(4) 0.7471(3) 0.7204(3)
O32 O 0.4320(4) 0.8671(3) 0.7646(3)
O33 O 0.4822(4) 0.7016(3) 0.8768(3)
F13 F 0.4210(4) 0.6177(3) 0.7426(4)
F14 F 0.3709(4) 0.7660(3) 0.6452(3)
F15 F 0.2812(3) 0.7218(3) 0.7851(3)
S5 S 0.48373(12) 0.76370(10) 0.77846(10)
C60 C 0.5070(5) 0.7951(5) 0.4514(4)
C61 C 0.5372(7) 0.8844(5) 0.4615(6)
H95 H 0.6014 0.9044 0.4158
H96 H 0.5568 0.8686 0.5245
H97 H 0.4732 0.9389 0.4508
N7 N 0.4835(5) 0.7253(4) 0.4451(4)
C62 C 0.6215(5) 0.6151(5) 0.1283(5)
C63 C 0.6805(7) 0.5946(7) 0.0424(6)
H98 H 0.6281 0.6148 -0.0042
H99 H 0.7097 0.5233 0.0566
H100 H 0.7427 0.6321 0.0179
N8 N 0.5768(4) 0.6312(4) 0.1943(4)
C64 C 0.5909(6) 0.3121(6) 0.8394(5)
C65 C 0.5028(7) 0.3870(6) 0.8687(6)
H101 H 0.4571 0.4242 0.8179
H102 H 0.5381 0.4329 0.8839
H103 H 0.4551 0.3532 0.9237
N9 N 0.6596(5) 0.2548(5) 0.8148(4)
C66 C -0.1963(5) -0.0101(5) 0.6003(4)
C67 C -0.2574(5) -0.0586(5) 0.5583(5)
H104 H -0.2035 -0.0959 0.5220
H105 H -0.3085 -0.0078 0.5173
H106 H -0.3006 -0.1043 0.6078
N10 N -0.1515(5) 0.0308(4) 0.6315(4)
O27? O 0.3378(11) 0.4094(10) 0.6783(13)
S3? S 0.2377(3) 0.4417(3) 0.6298(2)
C57? C 0.1789(7) 0.5680(6) 0.6395(7)
F7? F 0.2515(11) 0.6323(7) 0.5952(14)
F8? F 0.1566(15) 0.5659(11) 0.7297(8)
F9? F 0.0812(8) 0.6049(7) 0.6014(9)
loop_
_geom_bond_atom_site_label_1
_geom_bond_atom_site_label_2
_geom_bond_site_symmetry_1
_geom_bond_site_symmetry_2
H1 O25 1_555 1_555
C1 H2 1_555 1_555
C2 H3 1_555 1_555
C3 F4 1_555 1_555
C4 H4 1_555 1_555
C5 C26 1_555 1_555
C6 C4 1_555 1_555
H5 C6 1_555 1_555
H6 C6 1_555 1_555
H7 C6 1_555 1_555
C7 C1 1_555 1_555
C8 H8 1_555 1_555
C9 C8 1_555 1_555
C10 C4 1_555 1_555
C11 C2 1_555 1_555
C12 H9 1_555 1_555
C13 C12 1_555 1_555
C14 H10 1_555 1_555
C15 C14 1_555 1_555
C16 H11 1_555 1_555
C17 C16 1_555 1_555
C18 H12 1_555 1_555
C19 C18 1_555 1_555
C20 H13 1_555 1_555
C21 C20 1_555 1_555
C22 H14 1_555 1_555
C23 C22 1_555 1_555
N1 C23 1_555 1_555
H15 N1 1_555 1_555
C24 N1 1_555 1_555
H16 C24 1_555 1_555
C25 C24 1_555 1_555
C26 H17 1_555 1_555
C27 C26 1_555 1_555
H18 C27 1_555 1_555
C28 C27 1_555 1_555
H19 C28 1_555 1_555
H20 C28 1_555 1_555
H21 C28 1_555 1_555
C29 C27 1_555 1_555
H22 C29 1_555 1_555
H23 C29 1_555 1_555
H24 C29 1_555 1_555
C30 C24 1_555 1_555
H25 C30 1_555 1_555
C31 C30 1_555 1_555
H26 C31 1_555 1_555
H27 C31 1_555 1_555
H28 C31 1_555 1_555
C32 C30 1_555 1_555
H29 C32 1_555 1_555
H30 C32 1_555 1_555
H31 C32 1_555 1_555
C33 C22 1_555 1_555
H32 C33 1_555 1_555
H33 C33 1_555 1_555
H34 C33 1_555 1_555
C34 C20 1_555 1_555
H35 C34 1_555 1_555
C35 C34 1_555 1_555
H36 C35 1_555 1_555
H37 C35 1_555 1_555
H38 C35 1_555 1_555
C36 C34 1_555 1_555
H39 C36 1_555 1_555
H40 C36 1_555 1_555
H41 C36 1_555 1_555
C37 C18 1_555 1_555
H42 C37 1_555 1_555
C38 C37 1_555 1_555
H43 C38 1_555 1_555
H44 C38 1_555 1_555
H45 C38 1_555 1_555
C39 C37 1_555 1_555
H46 C39 1_555 1_555
H47 C39 1_555 1_555
H48 C39 1_555 1_555
C40 C16 1_555 1_555
H49 C40 1_555 1_555
C41 C40 1_555 1_555
H50 C41 1_555 1_555
H51 C41 1_555 1_555
H52 C41 1_555 1_555
C42 C40 1_555 1_555
H53 C42 1_555 1_555
H54 C42 1_555 1_555
H55 C42 1_555 1_555
C43 C14 1_555 1_555
H56 C43 1_555 1_555
H57 C43 1_555 1_555
H58 C43 1_555 1_555
C44 C12 1_555 1_555
H59 C44 1_555 1_555
C45 C44 1_555 1_555
H60 C45 1_555 1_555
H61 C45 1_555 1_555
H62 C45 1_555 1_555
C46 C44 1_555 1_555
H63 C46 1_555 1_555
H64 C46 1_555 1_555
H65 C46 1_555 1_555
C47 C2 1_555 1_555
H66 C47 1_555 1_555
C48 C47 1_555 1_555
H67 C48 1_555 1_555
H68 C48 1_555 1_555
H69 C48 1_555 1_555
C49 C47 1_555 1_555
H70 C49 1_555 1_555
H71 C49 1_555 1_555
H72 C49 1_555 1_555
C50 C8 1_555 1_555
H73 C50 1_555 1_555
C51 C50 1_555 1_555
H74 C51 1_555 1_555
H75 C51 1_555 1_555
H76 C51 1_555 1_555
C52 C50 1_555 1_555
H77 C52 1_555 1_555
H78 C52 1_555 1_555
H79 C52 1_555 1_555
C53 C1 1_555 1_555
H80 C53 1_555 1_555
C54 C53 1_555 1_555
H81 C54 1_555 1_555
H82 C54 1_555 1_555
H83 C54 1_555 1_555
C55 C53 1_555 1_555
H84 C55 1_555 1_555
H85 C55 1_555 1_555
H86 C55 1_555 1_555
O1 S1 1_555 1_555
S1 C56 1_555 1_555
C56 F1 1_555 1_555
F2 C56 1_555 1_555
F3 C56 1_555 1_555
N2 C1 1_555 1_555
H87 N2 1_555 1_555
N3 C8 1_555 1_555
H88 N3 1_555 1_555
N4 C11 1_555 1_555
H89 N4 1_555 1_555
N5 C15 1_555 1_555
H90 N5 1_555 1_555
N6 C19 1_555 1_555
H91 N6 1_555 1_555
O2 C21 1_555 1_555
O3 C25 1_555 1_555
O4 C19 1_555 1_555
O5 C17 1_555 1_555
O6 C4 1_555 1_555
O7 C13 1_555 1_555
O8 S1 1_555 1_555
O9 S1 1_555 1_555
O10 S2 1_555 1_555
O11 S2 1_555 1_555
O12 C5 1_555 1_555
O13 S2 1_555 1_555
O14 C7 1_555 1_555
O15 C10 1_555 1_555
O16 C2 1_555 1_555
O17 C11 1_555 1_555
O18 C13 1_555 1_555
O19 C15 1_555 1_555
O20 C17 1_555 1_555
O21 C21 1_555 1_555
O22 C23 1_555 1_555
O23 C25 1_555 1_555
O24 C9 1_555 1_555
O25 Ca2 1_555 1_555
O26 Ca1 1_555 1_555
F5 C3 1_555 1_555
F6 C3 1_555 1_555
S2 C3 1_555 1_555
Ca1 O4 1_555 1_555
Ca2 O8 1_555 1_555
H92 O25 1_555 1_555
H93 O26 1_555 1_555
H94 O26 1_555 1_555
C58 F10 1_555 1_555
O28 S4 1_555 1_555
O29 S4 1_555 1_555
O30 S4 1_555 1_555
F11 C58 1_555 1_555
F12 C58 1_555 1_555
S4 C58 1_555 1_555
C59 F13 1_555 1_555
O31 S5 1_555 1_555
O32 S5 1_555 1_555
O33 S5 1_555 1_555
F14 C59 1_555 1_555
F15 C59 1_555 1_555
S5 C59 1_555 1_555
C60 C61 1_555 1_555
C61 H95 1_555 1_555
H96 C61 1_555 1_555
H97 C61 1_555 1_555
N7 C60 1_555 1_555
C62 C63 1_555 1_555
C63 H98 1_555 1_555
H99 C63 1_555 1_555
H100 C63 1_555 1_555
N8 C62 1_555 1_555
C64 C65 1_555 1_555
C65 H101 1_555 1_555
H102 C65 1_555 1_555
H103 C65 1_555 1_555
N9 C64 1_555 1_555
C66 C67 1_555 1_555
C67 H104 1_555 1_555
H105 C67 1_555 1_555
H106 C67 1_555 1_555
N10 C66 1_555 1_555
C5 N2 1_555 1_555
C7 O6 1_555 1_555
C9 O16 1_555 1_555
C10 N3 1_555 1_555
C12 N4 1_555 1_555
C14 O7 1_555 1_555
C16 N5 1_555 1_555
C18 O5 1_555 1_555
C20 N6 1_555 1_555
C22 O2 1_555 1_555
C26 O3 1_555 1_555
O9 Ca1 1_555 1_555
O10 Ca2 1_555 1_555
O12 Ca2 1_555 1_555
O13 Ca1 1_555 1_555
O15 Ca2 1_555 1_555
O17 Ca1 1_555 1_555
O19 Ca1 1_555 1_555
O22 Ca2 1_555 1_555

#END
