
#######################################################################
#
#                 Cambridge Crystallographic Data Centre
#                                CCDC 
#
#######################################################################
#
# If this CIF has been generated from an entry in the Cambridge 
# Structural Database, then it will include bibliographic, chemical, 
# crystal, experimental, refinement or atomic coordinate data resulting 
# from the CCDC's data processing and validation procedures.
#
#######################################################################

data_YALYUI
_chemical_compound_source        Plant
_chemical_formula_moiety         'C16 H18 O5'
_chemical_name_systematic        
'methyl 1,2-dihydroxy-2-(3-methylbut-2-en-1-yl)-3-oxoindane-1-carboxylate'
_symmetry_cell_setting           monoclinic
_symmetry_space_group_name_H-M   'P 21'
_symmetry_Int_Tables_number      4
_space_group_name_Hall           'P 2yb'
loop_
_symmetry_equiv_pos_site_id
_symmetry_equiv_pos_as_xyz
1 x,y,z
2 -x,1/2+y,-z
_cell_length_a                   9.5722(6)
_cell_length_b                   5.7169(8)
_cell_length_c                   13.0072(9)
_cell_angle_alpha                90
_cell_angle_beta                 96.770(3)
_cell_angle_gamma                90
_cell_volume                     706.834
_exptl_crystal_colour            colorless
_exptl_crystal_description       block
_cell_formula_units_Z            2
_exptl_crystal_recrystallization_method methanol
loop_
_atom_site_label
_atom_site_type_symbol
_atom_site_fract_x
_atom_site_fract_y
_atom_site_fract_z
C1 C 0.8255(2) 0.7566(6) 0.25345(18)
C2 C 0.7460(2) 0.9409(7) 0.28245(19)
H1 H 0.7026 1.0483 0.2329
C3 C 0.7317(2) 0.9635(7) 0.38769(19)
H2 H 0.6775 1.0890 0.4099
C4 C 0.7948(3) 0.8071(7) 0.46056(19)
H3 H 0.7834 0.8274 0.5316
C5 C 0.8738(3) 0.6224(7) 0.43077(19)
H4 H 0.9162 0.5134 0.4801
C6 C 0.8895(2) 0.6011(7) 0.32537(18)
C7 C 0.9717(2) 0.4272(7) 0.27367(19)
O1 O 1.02003(19) 0.2418(5) 0.30494(13)
C8 C 0.9881(2) 0.5301(7) 0.16614(18)
O2 O 0.99580(19) 0.3528(4) 0.09066(12)
H5 H 0.9728 0.2238 0.1146
C9 C 0.8566(3) 0.6970(7) 0.14388(18)
O3 O 0.87970(17) 0.9027(5) 0.08962(12)
H6 H 0.9025 0.8684 0.0311
C10 C 0.7348(2) 0.5506(7) 0.08909(18)
O4 O 0.68262(19) 0.3900(5) 0.12974(14)
C11 C 0.5852(3) 0.4873(8) -0.0651(2)
H7 H 0.4987 0.5025 -0.0322
H8 H 0.6129 0.3224 -0.0659
H9 H 0.5689 0.5461 -0.1363
O5 O 0.69650(18) 0.6221(5) -0.00730(12)
C12 C 1.1235(2) 0.6777(6) 0.17273(19)
H10 H 1.1370 0.7331 0.1025
H11 H 1.1122 0.8170 0.2162
C13 C 1.2521(2) 0.5462(7) 0.21700(19)
H12 H 1.2718 0.4043 0.1835
C14 C 1.3412(2) 0.6084(7) 0.29842(19)
C15 C 1.3268(3) 0.8280(8) 0.3597(2)
H13 H 1.2464 0.9188 0.3277
H14 H 1.4128 0.9215 0.3608
H15 H 1.3118 0.7870 0.4308
C16 C 1.4677(3) 0.4598(8) 0.3346(2)
H16 H 1.4669 0.3188 0.2917
H17 H 1.4647 0.4150 0.4070
H18 H 1.5538 0.5491 0.3286
loop_
_geom_bond_atom_site_label_1
_geom_bond_atom_site_label_2
_geom_bond_site_symmetry_1
_geom_bond_site_symmetry_2
C1 C2 1_555 1_555
C2 H1 1_555 1_555
C3 C2 1_555 1_555
H2 C3 1_555 1_555
C4 C3 1_555 1_555
H3 C4 1_555 1_555
C5 C4 1_555 1_555
H4 C5 1_555 1_555
C6 C1 1_555 1_555
C7 C6 1_555 1_555
O1 C7 1_555 1_555
C8 C7 1_555 1_555
O2 C8 1_555 1_555
H5 O2 1_555 1_555
C9 C1 1_555 1_555
O3 C9 1_555 1_555
H6 O3 1_555 1_555
C10 C9 1_555 1_555
O4 C10 1_555 1_555
C11 H7 1_555 1_555
H8 C11 1_555 1_555
H9 C11 1_555 1_555
O5 C10 1_555 1_555
C12 C8 1_555 1_555
H10 C12 1_555 1_555
H11 C12 1_555 1_555
C13 C12 1_555 1_555
H12 C13 1_555 1_555
C14 C13 1_555 1_555
C15 C14 1_555 1_555
H13 C15 1_555 1_555
H14 C15 1_555 1_555
H15 C15 1_555 1_555
C16 C14 1_555 1_555
H16 C16 1_555 1_555
H17 C16 1_555 1_555
H18 C16 1_555 1_555
C5 C6 1_555 1_555
C8 C9 1_555 1_555
C11 O5 1_555 1_555

#END
