
#######################################################################
#
#                 Cambridge Crystallographic Data Centre
#                                CCDC 
#
#######################################################################
#
# If this CIF has been generated from an entry in the Cambridge 
# Structural Database, then it will include bibliographic, chemical, 
# crystal, experimental, refinement or atomic coordinate data resulting 
# from the CCDC's data processing and validation procedures.
#
#######################################################################

data_YALZES
_chemical_name_common            Byakangelicin
_chemical_formula_moiety         'C17 H18 O7'
_chemical_name_systematic        
9-(2,3-Dihydroxy-3-methylbutoxy)-4-methoxy-7H-furo[3,2-g]chromen-7-one
_chemical_properties_biological  'furanocoumarin aldose reductase inhibitor'
_symmetry_cell_setting           triclinic
_symmetry_space_group_name_H-M   'P 1'
_symmetry_Int_Tables_number      1
_space_group_name_Hall           'P 1'
loop_
_symmetry_equiv_pos_site_id
_symmetry_equiv_pos_as_xyz
1 x,y,z
_cell_length_a                   8.114(1)
_cell_length_b                   10.194(1)
_cell_length_c                   11.428(1)
_cell_angle_alpha                111.50(1)
_cell_angle_beta                 95.57(1)
_cell_angle_gamma                112.52(1)
_cell_volume                     780.803
_exptl_crystal_colour            colorless
_exptl_crystal_description       prism
_cell_formula_units_Z            2
loop_
_atom_site_label
_atom_site_type_symbol
_atom_site_fract_x
_atom_site_fract_y
_atom_site_fract_z
O1 O 0.9780(6) 0.3145(5) 0.1277(4)
O2 O 1.1084(6) 0.5954(5) 0.3492(4)
O3 O 1.3752(6) 0.8719(4) 0.3414(4)
O4 O 1.3767(6) 0.5638(5) -0.0878(4)
O5 O 0.8035(8) 0.0627(6) 0.0358(7)
O6 O 0.7745(8) 0.4872(6) 0.4401(5)
O7 O 0.9444(8) 0.9140(5) 0.5863(6)
C1 C 1.5012(8) 0.9698(7) 0.3016(6)
C2 C 1.5111(9) 0.8921(7) 0.1793(7)
C3 C 1.3773(7) 0.7278(5) 0.1338(5)
C4 C 1.2987(7) 0.7238(6) 0.2383(5)
C5 C 1.1699(7) 0.5919(7) 0.2419(5)
C6 C 1.1164(6) 0.4519(6) 0.1287(5)
C7 C 0.9172(9) 0.1698(7) 0.0239(7)
C8 C 0.9943(10) 0.1640(8) -0.0831(7)
C9 C 1.1199(8) 0.2942(7) -0.0845(6)
C10 C 1.1844(7) 0.4456(6) 0.0205(5)
C11 C 1.3130(8) 0.5818(7) 0.0214(5)
C12 C 1.4548(13) 0.6906(11) -0.1194(8)
C13 C 0.9812(9) 0.6593(8) 0.3695(5)
C14 C 0.9122(7) 0.6510(6) 0.4838(5)
C15 C 0.8125(8) 0.7500(7) 0.5280(5)
C16 C 0.7202(10) 0.7214(10) 0.6322(7)
C17 C 0.6633(11) 0.7241(11) 0.4162(7)
O8 O -0.0204(5) 0.6459(5) 0.8421(4)
O9 O -0.1362(6) 0.3754(5) 0.6226(4)
O10 O -0.4090(6) 0.0928(5) 0.6318(4)
O11 O -0.4019(7) 0.3978(5) 1.0581(4)
O12 O 0.1621(7) 0.9059(6) 0.9385(5)
O13 O -0.0931(8) 0.2694(7) 0.3806(5)
O14 O 0.0208(7) 0.0491(5) 0.3882(5)
C18 C -0.5380(9) -0.0053(8) 0.6713(7)
C19 C -0.5390(8) 0.0714(7) 0.7910(6)
C20 C -0.4074(7) 0.2346(7) 0.8375(6)
C21 C -0.3342(8) 0.2400(6) 0.7331(5)
C22 C -0.2042(8) 0.3735(7) 0.7299(5)
C23 C -0.1457(7) 0.5116(7) 0.8398(5)
C24 C 0.0475(8) 0.7946(8) 0.9476(6)
C25 C -0.0286(10) 0.8010(8) 1.0576(7)
C26 C -0.1547(9) 0.6720(7) 1.0580(8)
C27 C -0.2190(7) 0.5174(6) 0.9472(5)
C28 C -0.3497(7) 0.3770(6) 0.9481(5)
C29 C -0.4847(11) 0.2693(8) 1.0905(7)
C30 C -0.0187(9) 0.2942(7) 0.5999(6)
C31 C 0.0608(8) 0.3184(7) 0.4894(5)
C32 C 0.1625(8) 0.2122(6) 0.4427(5)
C33 C 0.2398(13) 0.2387(10) 0.3335(9)
C34 C 0.3114(13) 0.2427(12) 0.5528(9)
loop_
_geom_bond_atom_site_label_1
_geom_bond_atom_site_label_2
_geom_bond_site_symmetry_1
_geom_bond_site_symmetry_2
O1 C6 1_555 1_555
O2 C5 1_555 1_555
O3 C1 1_555 1_555
O4 C11 1_555 1_555
O5 C7 1_555 1_555
O6 C14 1_555 1_555
O7 C15 1_555 1_555
C1 C2 1_555 1_555
C2 C3 1_555 1_555
C3 C4 1_555 1_555
C4 O3 1_555 1_555
C5 C4 1_555 1_555
C6 C5 1_555 1_555
C7 O1 1_555 1_555
C8 C7 1_555 1_555
C9 C8 1_555 1_555
C10 C6 1_555 1_555
C11 C3 1_555 1_555
C12 O4 1_555 1_555
C13 O2 1_555 1_555
C14 C13 1_555 1_555
C15 C14 1_555 1_555
C16 C15 1_555 1_555
C17 C15 1_555 1_555
O8 C23 1_555 1_555
O9 C22 1_555 1_555
O10 C18 1_555 1_555
O11 C28 1_555 1_555
O12 C24 1_555 1_555
O13 C31 1_555 1_555
O14 C32 1_555 1_555
C18 C19 1_555 1_555
C19 C20 1_555 1_555
C20 C21 1_555 1_555
C21 O10 1_555 1_555
C22 C21 1_555 1_555
C23 C22 1_555 1_555
C24 O8 1_555 1_555
C25 C24 1_555 1_555
C26 C25 1_555 1_555
C27 C23 1_555 1_555
C28 C20 1_555 1_555
C29 O11 1_555 1_555
C30 O9 1_555 1_555
C31 C30 1_555 1_555
C32 C31 1_555 1_555
C33 C32 1_555 1_555
C34 C32 1_555 1_555
C9 C10 1_555 1_555
C10 C11 1_555 1_555
C26 C27 1_555 1_555
C27 C28 1_555 1_555

#END
