
#######################################################################
#
#                 Cambridge Crystallographic Data Centre
#                                CCDC 
#
#######################################################################
#
# If this CIF has been generated from an entry in the Cambridge 
# Structural Database, then it will include bibliographic, chemical, 
# crystal, experimental, refinement or atomic coordinate data resulting 
# from the CCDC's data processing and validation procedures.
#
#######################################################################

data_YAMFUP
_chemical_formula_moiety         'C25 H37 Br1 O3 Si1'
_chemical_name_systematic        
3-Bromo-17-((t-butyl(dimethyl)silyl)oxy)-5,8-epoxy-9,19-cyclo-9,10-secoandrosta-1(10),9(19)-dien-2-one
_symmetry_cell_setting           monoclinic
_symmetry_space_group_name_H-M   'P 21'
_symmetry_Int_Tables_number      4
_space_group_name_Hall           'P 2yb'
loop_
_symmetry_equiv_pos_site_id
_symmetry_equiv_pos_as_xyz
1 x,y,z
2 -x,1/2+y,-z
_cell_length_a                   10.342(2)
_cell_length_b                   6.7854(14)
_cell_length_c                   18.153(4)
_cell_angle_alpha                90
_cell_angle_beta                 97.52(3)
_cell_angle_gamma                90
_cell_volume                     1262.92
_cell_formula_units_Z            2
loop_
_atom_site_label
_atom_site_type_symbol
_atom_site_fract_x
_atom_site_fract_y
_atom_site_fract_z
Br1 Br 0.85958(5) 0.7156(2) 0.42570(4)
C1 C 0.7463(5) 0.4720(10) 0.5218(3)
C2 C 0.6048(6) 0.4861(11) 0.5173(3)
H1 H 0.5668 0.5040 0.5605
C3 C 0.5262(5) 0.4732(9) 0.4495(3)
C4 C 0.3845(5) 0.4810(10) 0.4444(3)
H2 H 0.3466 0.4988 0.4876
C5 C 0.3073(4) 0.4633(10) 0.3797(3)
C6 C 0.1618(5) 0.5034(12) 0.3707(3)
H3 H 0.1463 0.6378 0.3536
H4 H 0.1314 0.4922 0.4189
C7 C 0.0815(4) 0.3621(11) 0.3157(2)
H5 H 0.0780 0.2330 0.3383
H6 H -0.0071 0.4111 0.3048
C8 C 0.1409(5) 0.3449(10) 0.2451(3)
C9 C 0.2848(4) 0.2723(10) 0.2631(3)
H7 H 0.2803 0.1527 0.2929
C10 C 0.3724(4) 0.4131(10) 0.3121(3)
C11 C 0.4238(5) 0.6062(10) 0.2799(3)
H8 H 0.4348 0.5906 0.2280
H9 H 0.3654 0.7158 0.2849
C12 C 0.5546(5) 0.6359(10) 0.3280(3)
H10 H 0.5527 0.7519 0.3590
H11 H 0.6243 0.6502 0.2974
C13 C 0.5734(4) 0.4461(11) 0.3761(3)
C14 C 0.7125(4) 0.3609(11) 0.3866(3)
H12 H 0.7074 0.2203 0.3954
H13 H 0.7503 0.3792 0.3409
C15 C 0.8031(5) 0.4535(11) 0.4505(3)
H14 H 0.8809 0.3702 0.4600
C16 C 0.0898(5) 0.1682(9) 0.1965(3)
H15 H 0.0800 0.0555 0.2290
C17 C 0.1944(4) 0.1191(12) 0.1480(3)
H16 H 0.1748 0.1801 0.0995
H17 H 0.2009 -0.0223 0.1415
C18 C 0.3231(4) 0.2028(17) 0.1898(2)
H18 H 0.3897 0.1015 0.1975
H19 H 0.3554 0.3113 0.1626
C19 C 0.1261(5) 0.5363(10) 0.2003(3)
H20 H 0.1641 0.6431 0.2304
H21 H 0.0352 0.5625 0.1854
H22 H 0.1696 0.5234 0.1570
C20 C -0.1950(6) -0.0783(14) 0.2148(3)
H23 H -0.1277 -0.0562 0.2556
H24 H -0.2028 -0.2171 0.2048
H25 H -0.2764 -0.0288 0.2272
C21 C -0.1036(6) -0.1288(12) 0.0620(3)
H26 H -0.0717 -0.0597 0.0219
H27 H -0.1777 -0.2072 0.0428
H28 H -0.0362 -0.2129 0.0860
C22 C -0.2906(5) 0.2109(19) 0.0866(3)
C23 C -0.2501(6) 0.3098(11) 0.0175(3)
H29 H -0.3194 0.3931 -0.0047
H30 H -0.2320 0.2107 -0.0175
H31 H -0.1732 0.3877 0.0314
C24 C -0.4088(5) 0.0760(13) 0.0606(3)
H32 H -0.4818 0.1555 0.0405
H33 H -0.4312 0.0016 0.1020
H34 H -0.3865 -0.0126 0.0230
C25 C -0.3226(5) 0.3657(13) 0.1446(3)
H35 H -0.2435 0.4279 0.1665
H36 H -0.3635 0.3014 0.1826
H37 H -0.3806 0.4633 0.1205
O1 O 0.8160(4) 0.4722(8) 0.5821(2)
O2 O 0.4921(3) 0.3043(6) 0.33496(18)
O3 O -0.0336(3) 0.2090(10) 0.15455(18)
Si1 Si -0.15255(14) 0.0523(3) 0.13048(9)
loop_
_geom_bond_atom_site_label_1
_geom_bond_atom_site_label_2
_geom_bond_site_symmetry_1
_geom_bond_site_symmetry_2
Br1 C15 1_555 1_555
C1 C2 1_555 1_555
C2 H1 1_555 1_555
C3 C2 1_555 1_555
C4 C3 1_555 1_555
H2 C4 1_555 1_555
C5 C4 1_555 1_555
C6 C5 1_555 1_555
H3 C6 1_555 1_555
H4 C6 1_555 1_555
C7 C6 1_555 1_555
H5 C7 1_555 1_555
H6 C7 1_555 1_555
C8 C7 1_555 1_555
C9 C8 1_555 1_555
H7 C9 1_555 1_555
C10 C5 1_555 1_555
C11 C10 1_555 1_555
H8 C11 1_555 1_555
H9 C11 1_555 1_555
C12 C11 1_555 1_555
H10 C12 1_555 1_555
H11 C12 1_555 1_555
C13 C3 1_555 1_555
C14 C13 1_555 1_555
H12 C14 1_555 1_555
H13 C14 1_555 1_555
C15 C1 1_555 1_555
H14 C15 1_555 1_555
C16 C8 1_555 1_555
H15 C16 1_555 1_555
C17 C16 1_555 1_555
H16 C17 1_555 1_555
H17 C17 1_555 1_555
C18 C9 1_555 1_555
H18 C18 1_555 1_555
H19 C18 1_555 1_555
C19 C8 1_555 1_555
H20 C19 1_555 1_555
H21 C19 1_555 1_555
H22 C19 1_555 1_555
C20 H23 1_555 1_555
H24 C20 1_555 1_555
H25 C20 1_555 1_555
C21 H26 1_555 1_555
H27 C21 1_555 1_555
H28 C21 1_555 1_555
C22 C23 1_555 1_555
C23 H29 1_555 1_555
H30 C23 1_555 1_555
H31 C23 1_555 1_555
C24 C22 1_555 1_555
H32 C24 1_555 1_555
H33 C24 1_555 1_555
H34 C24 1_555 1_555
C25 C22 1_555 1_555
H35 C25 1_555 1_555
H36 C25 1_555 1_555
H37 C25 1_555 1_555
O1 C1 1_555 1_555
O2 C10 1_555 1_555
O3 C16 1_555 1_555
Si1 C20 1_555 1_555
C9 C10 1_555 1_555
C12 C13 1_555 1_555
C13 O2 1_555 1_555
C14 C15 1_555 1_555
C17 C18 1_555 1_555
C21 Si1 1_555 1_555
C22 Si1 1_555 1_555
O3 Si1 1_555 1_555

#END
