
#######################################################################
#
#                 Cambridge Crystallographic Data Centre
#                                CCDC 
#
#######################################################################
#
# If this CIF has been generated from an entry in the Cambridge 
# Structural Database, then it will include bibliographic, chemical, 
# crystal, experimental, refinement or atomic coordinate data resulting 
# from the CCDC's data processing and validation procedures.
#
#######################################################################

data_YANFUR01
_chemical_formula_moiety         'C18 H16 N6 O2,2(H2 O1)'
_chemical_name_systematic        
'N^2^,N^3^-bis(pyridin-4- ylmethyl)pyrazine-2,3-dicarboxamide dihydrate'
_symmetry_cell_setting           monoclinic
_symmetry_space_group_name_H-M   'P c'
_symmetry_Int_Tables_number      7
_space_group_name_Hall           'P -2yc'
loop_
_symmetry_equiv_pos_site_id
_symmetry_equiv_pos_as_xyz
1 x,y,z
2 x,-y,1/2+z
_cell_length_a                   4.4412(8)
_cell_length_b                   14.100(3)
_cell_length_c                   15.206(3)
_cell_angle_alpha                90
_cell_angle_beta                 95.920(4)
_cell_angle_gamma                90
_cell_volume                     947.135
_exptl_crystal_colour            yellow
_exptl_crystal_description       block
_cell_formula_units_Z            2
loop_
_atom_site_label
_atom_site_type_symbol
_atom_site_fract_x
_atom_site_fract_y
_atom_site_fract_z
O1 O 0.0764(4) 0.50400(13) 0.69686(11)
O2 O -0.1529(4) 0.58860(11) 0.50554(11)
N1 N 0.4514(5) 0.58862(14) 0.64393(13)
H1 H 0.5572 0.5968 0.6003
N2 N 0.6937(7) 0.93853(17) 0.6340(2)
N3 N 0.4427(6) 0.36879(15) 0.59609(14)
N4 N 0.1944(5) 0.38785(14) 0.42142(14)
N5 N -0.0888(5) 0.55002(13) 0.36457(12)
H2 H 0.0044 0.5142 0.3304
N6 N 0.1070(7) 0.90226(17) 0.3298(2)
C1 C 0.2571(5) 0.51721(15) 0.64218(14)
C2 C 0.4845(6) 0.65575(17) 0.71719(17)
H3 H 0.6452 0.6343 0.7607
H4 H 0.2983 0.6573 0.7453
C3 C 0.5563(6) 0.75401(17) 0.68745(16)
C4 C 0.4248(7) 0.7919(2) 0.6094(2)
H5 H 0.2870 0.7565 0.5727
C5 C 0.4986(9) 0.8829(2) 0.5858(2)
H6 H 0.4059 0.9069 0.5328
C6 C 0.8168(9) 0.9011(2) 0.7106(3)
H7 H 0.9500 0.9384 0.7470
C7 C 0.7571(7) 0.8111(2) 0.7383(2)
H8 H 0.8523 0.7885 0.7916
C8 C 0.2830(6) 0.44608(16) 0.56901(15)
C9 C 0.4760(8) 0.30252(18) 0.53578(19)
H9 H 0.5829 0.2476 0.5527
C10 C 0.3573(7) 0.31265(18) 0.44917(18)
H10 H 0.3921 0.2654 0.4088
C11 C 0.1544(5) 0.45461(15) 0.48162(14)
C12 C -0.0427(5) 0.53776(16) 0.45160(14)
C13 C -0.2905(6) 0.62335(16) 0.32515(17)
H11 H -0.4698 0.6257 0.3565
H12 H -0.3542 0.6063 0.2643
C14 C -0.1485(5) 0.72047(17) 0.32697(16)
C15 C -0.1882(7) 0.78357(19) 0.39381(19)
H13 H -0.3005 0.7665 0.4397
C16 C -0.0596(9) 0.8724(2) 0.3919(2)
H14 H -0.0918 0.9142 0.4372
C17 C 0.1435(8) 0.8410(2) 0.2651(2)
H15 H 0.2573 0.8599 0.2202
C18 C 0.0205(7) 0.7505(2) 0.2614(2)
H16 H 0.0523 0.7102 0.2148
O3 O 0.2917(6) 0.08204(14) 0.41438(19)
H17 H 0.3102 0.0307 0.3909
H18 H 0.4755 0.0921 0.4399
O4 O 0.8244(6) 0.09840(15) 0.52465(18)
H19 H 0.8494 0.0438 0.5539
H20 H 0.9698 0.0981 0.4933
loop_
_geom_bond_atom_site_label_1
_geom_bond_atom_site_label_2
_geom_bond_site_symmetry_1
_geom_bond_site_symmetry_2
O1 C1 1_555 1_555
O2 C12 1_555 1_555
N1 H1 1_555 1_555
N2 C5 1_555 1_555
N3 C8 1_555 1_555
N4 C10 1_555 1_555
N5 H2 1_555 1_555
N6 C16 1_555 1_555
C1 N1 1_555 1_555
C2 N1 1_555 1_555
H3 C2 1_555 1_555
H4 C2 1_555 1_555
C3 C2 1_555 1_555
C4 C3 1_555 1_555
H5 C4 1_555 1_555
C5 C4 1_555 1_555
H6 C5 1_555 1_555
C6 N2 1_555 1_555
H7 C6 1_555 1_555
C7 C3 1_555 1_555
H8 C7 1_555 1_555
C8 C1 1_555 1_555
C9 N3 1_555 1_555
H9 C9 1_555 1_555
C10 C9 1_555 1_555
H10 C10 1_555 1_555
C11 N4 1_555 1_555
C12 N5 1_555 1_555
C13 N5 1_555 1_555
H11 C13 1_555 1_555
H12 C13 1_555 1_555
C14 C13 1_555 1_555
C15 C14 1_555 1_555
H13 C15 1_555 1_555
C16 C15 1_555 1_555
H14 C16 1_555 1_555
C17 N6 1_555 1_555
H15 C17 1_555 1_555
C18 C14 1_555 1_555
H16 C18 1_555 1_555
O3 H17 1_555 1_555
H18 O3 1_555 1_555
O4 H19 1_555 1_555
H20 O4 1_555 1_555
C6 C7 1_555 1_555
C8 C11 1_555 1_555
C11 C12 1_555 1_555
C17 C18 1_555 1_555

#END
