
#######################################################################
#
#                 Cambridge Crystallographic Data Centre
#                                CCDC 
#
#######################################################################
#
# If this CIF has been generated from an entry in the Cambridge 
# Structural Database, then it will include bibliographic, chemical, 
# crystal, experimental, refinement or atomic coordinate data resulting 
# from the CCDC's data processing and validation procedures.
#
#######################################################################

data_YANPIP
_chemical_formula_moiety         '6(C12 H8 N2),5(C6 F4 I2),2(C6 F4 I2)'
_chemical_name_systematic        
'hexakis(1,10-phenanthroline) pentakis(1,2,4,5-tetrafluoro-3,6-di-iodobenzene) bis(1,2,3,4-tetrafluoro-5,6-di-iodobenzene)'
_symmetry_cell_setting           monoclinic
_symmetry_space_group_name_H-M   'P 21/c'
_symmetry_Int_Tables_number      14
_space_group_name_Hall           '-P 2ybc'
loop_
_symmetry_equiv_pos_site_id
_symmetry_equiv_pos_as_xyz
1 x,y,z
2 -x,1/2+y,1/2-z
3 -x,-y,-z
4 x,1/2-y,1/2+z
_cell_length_a                   10.791(9)
_cell_length_b                   26.76(2)
_cell_length_c                   20.331(18)
_cell_angle_alpha                90
_cell_angle_beta                 104.686(11)
_cell_angle_gamma                90
_cell_volume                     5679.12
_exptl_crystal_description       bulk
_cell_formula_units_Z            2
loop_
_atom_site_label
_atom_site_type_symbol
_atom_site_fract_x
_atom_site_fract_y
_atom_site_fract_z
C1 C 0.2397(9) 0.0426(4) 0.3777(5)
C2 C 0.2600(9) -0.0076(3) 0.3900(5)
C3 C 0.1654(10) -0.0419(4) 0.3688(5)
C4 C 0.0419(9) -0.0294(3) 0.3334(5)
C5 C 0.0212(8) 0.0212(4) 0.3218(5)
C6 C 0.1163(9) 0.0563(4) 0.3426(5)
F1 F 0.3786(5) -0.02359(19) 0.4250(3)
F2 F 0.1958(5) -0.0912(2) 0.3814(3)
F3 F -0.0975(6) 0.0371(2) 0.2872(3)
F4 F 0.0859(6) 0.10490(19) 0.3282(3)
I1 I 0.38469(6) 0.09510(2) 0.41005(4)
I2 I -0.09731(6) -0.08430(2) 0.30352(4)
C7 C 0.3889(9) 0.9477(4) 0.2560(5)
C8 C 0.2654(10) 0.9317(4) 0.2240(5)
C9 C 0.1695(10) 0.9648(4) 0.1920(5)
C10 C 0.1973(10) 1.0143(4) 0.1873(5)
C11 C 0.3244(11) 1.0308(4) 0.2193(5)
C12 C 0.4113(10) 0.9985(4) 0.2525(5)
F5 F 0.2351(6) 0.8829(2) 0.2269(3)
F6 F 0.0533(5) 0.9451(2) 0.1614(3)
F7 F 0.3539(6) 1.0781(2) 0.2174(3)
F8 F 0.5303(5) 1.0182(2) 0.2824(3)
I3 I 0.53312(7) 0.89901(2) 0.30471(4)
I4 I 0.05726(7) 1.06505(3) 0.13652(4)
C13 C 0.50751(18) 0.05594(15) 0.0786(3)
C14 C 0.4994(10) 0.0061(4) 0.0911(5)
C15 C 0.3810(10) -0.0177(4) 0.0670(6)
C16 C 0.2764(10) 0.0084(4) 0.0303(5)
C17 C 0.2888(11) 0.0574(5) 0.0173(6)
C18 C 0.4009(5) 0.0819(3) 0.0409(4)
F9 F 0.3664(6) -0.0666(2) 0.0799(3)
F10 F 0.1618(6) -0.0164(3) 0.0073(3)
F11 F 0.1834(6) 0.0827(3) -0.0204(4)
F12 F 0.4071(6) 0.1307(2) 0.0268(4)
I5 I 0.67979(7) 0.09730(3) 0.11102(4)
I6 I 0.65096(8) -0.03489(3) 0.15036(4)
C19 C 0.8754(9) -0.0147(4) 0.4755(5)
C20 C 0.9043(9) 0.0339(4) 0.4683(5)
C21 C 1.0306(10) 0.0487(4) 0.4928(5)
F13 F 0.7536(5) -0.0319(2) 0.4527(3)
F14 F 1.0665(5) 0.09686(19) 0.4875(3)
I7 I 0.76380(6) 0.08638(2) 0.42230(4)
C19B C 1.1246(9) 0.0147(4) 0.5245(5)
C20B C 1.0957(9) -0.0339(4) 0.5317(5)
C21B C 0.9694(10) -0.0487(4) 0.5072(5)
F13B F 1.2464(5) 0.0319(2) 0.5473(3)
F14B F 0.9335(5) -0.09686(19) 0.5125(3)
I7B I 1.23620(6) -0.08638(2) 0.57770(4)
C22 C 0.2760(9) 0.3303(4) 0.0640(5)
H1 H 0.2873 0.3617 0.0447
C23 C 0.2648(10) 0.2881(4) 0.0219(6)
H2 H 0.2623 0.2915 -0.0249
C24 C 0.2575(9) 0.2422(4) 0.0497(6)
H3 H 0.2571 0.2128 0.0235
C25 C 0.2502(9) 0.2390(4) 0.1197(5)
C26 C 0.2392(9) 0.1920(4) 0.1510(6)
H4 H 0.2339 0.1620 0.1255
C27 C 0.2364(9) 0.1902(4) 0.2178(5)
H5 H 0.2333 0.1588 0.2390
C28 C 0.2380(9) 0.2344(3) 0.2555(5)
C29 C 0.2308(10) 0.2340(4) 0.3237(5)
H6 H 0.2246 0.2031 0.3456
C30 C 0.2326(10) 0.2778(4) 0.3587(5)
H7 H 0.2312 0.2781 0.4052
C31 C 0.2366(10) 0.3226(4) 0.3225(6)
H8 H 0.2322 0.3530 0.3458
C32 C 0.2479(9) 0.2817(4) 0.2247(5)
C33 C 0.2586(9) 0.2841(4) 0.1568(5)
N1 N 0.2722(7) 0.3296(3) 0.1277(4)
N2 N 0.2459(8) 0.3259(3) 0.2602(4)
C34 C 0.4173(9) 0.6699(3) -0.0416(5)
H9 H 0.4206 0.6389 -0.0640
C35 C 0.4036(9) 0.7138(4) -0.0801(6)
H10 H 0.3965 0.7124 -0.1276
C36 C 0.4004(10) 0.7591(4) -0.0487(5)
H11 H 0.3922 0.7893 -0.0740
C37 C 0.4094(9) 0.7602(4) 0.0210(5)
C38 C 0.4093(10) 0.8053(4) 0.0577(5)
H12 H 0.4029 0.8363 0.0342
C39 C 0.4182(10) 0.8054(4) 0.1259(5)
H13 H 0.4226 0.8363 0.1494
C40 C 0.4209(9) 0.7581(3) 0.1633(5)
C41 C 0.4274(10) 0.7562(4) 0.2310(5)
H14 H 0.4293 0.7861 0.2564
C42 C 0.4314(10) 0.7099(4) 0.2624(6)
H15 H 0.4415 0.7079 0.3101
C43 C 0.4206(10) 0.6663(4) 0.2237(5)
H16 H 0.4164 0.6350 0.2450
C44 C 0.4183(8) 0.7130(4) 0.1268(5)
C45 C 0.4177(9) 0.7133(4) 0.0553(5)
N3 N 0.4258(7) 0.6695(3) 0.0234(4)
N4 N 0.4159(7) 0.6677(3) 0.1573(4)
C46 C 0.1136(11) 0.8153(5) 0.7767(7)
H17 H 0.1242 0.8406 0.7457
C47 C 0.1044(12) 0.7643(6) 0.7541(7)
H18 H 0.1080 0.7552 0.7094
C48 C 0.0906(11) 0.7307(6) 0.7998(7)
H19 H 0.0868 0.6966 0.7865
C49 C 0.0812(11) 0.7408(5) 0.8644(7)
C50 C 0.0721(10) 0.7038(5) 0.9126(7)
H20 H 0.0697 0.6694 0.9008
C51 C 0.0668(12) 0.7178(5) 0.9752(7)
H21 H 0.0589 0.6920 1.0060
C52 C 0.0721(10) 0.7680(4) 0.9995(6)
C53 C 0.0616(12) 0.7836(5) 1.0608(6)
H22 H 0.0535 0.7595 1.0937
C54 C 0.0621(11) 0.8327(5) 1.0771(6)
H23 H 0.0561 0.8433 1.1208
C55 C 0.0719(11) 0.8669(5) 1.0270(6)
H24 H 0.0700 0.9014 1.0377
C56 C 0.0825(10) 0.8059(4) 0.9494(6)
C57 C 0.0927(10) 0.7917(4) 0.8835(6)
N5 N 0.1082(9) 0.8289(4) 0.8376(5)
N6 N 0.0837(9) 0.8549(3) 0.9647(5)
loop_
_geom_bond_atom_site_label_1
_geom_bond_atom_site_label_2
_geom_bond_site_symmetry_1
_geom_bond_site_symmetry_2
C1 C2 1_555 1_555
C2 C3 1_555 1_555
C3 C4 1_555 1_555
C4 C5 1_555 1_555
C5 C6 1_555 1_555
C6 C1 1_555 1_555
F1 C2 1_555 1_555
F2 C3 1_555 1_555
F3 C5 1_555 1_555
F4 C6 1_555 1_555
I1 C1 1_555 1_555
I2 C4 1_555 1_555
C7 C8 1_555 1_555
C8 C9 1_555 1_555
C9 C10 1_555 1_555
C10 C11 1_555 1_555
C11 C12 1_555 1_555
C12 C7 1_555 1_555
F5 C8 1_555 1_555
F6 C9 1_555 1_555
F7 C11 1_555 1_555
F8 C12 1_555 1_555
I3 C7 1_555 1_555
I4 C10 1_555 1_555
C13 C14 1_555 1_555
C14 C15 1_555 1_555
C15 C16 1_555 1_555
C16 C17 1_555 1_555
C17 C18 1_555 1_555
C18 C13 1_555 1_555
F9 C15 1_555 1_555
F10 C16 1_555 1_555
F11 C17 1_555 1_555
F12 C18 1_555 1_555
I5 C13 1_555 1_555
I6 C14 1_555 1_555
C19 C20 1_555 1_555
C20 C21 1_555 1_555
C21 F14 1_555 1_555
F13 C19 1_555 1_555
I7 C20 1_555 1_555
C22 H1 1_555 1_555
C23 C22 1_555 1_555
H2 C23 1_555 1_555
C24 C23 1_555 1_555
H3 C24 1_555 1_555
C25 C24 1_555 1_555
C26 C25 1_555 1_555
H4 C26 1_555 1_555
C27 C26 1_555 1_555
H5 C27 1_555 1_555
C28 C27 1_555 1_555
C29 C28 1_555 1_555
H6 C29 1_555 1_555
C30 C29 1_555 1_555
H7 C30 1_555 1_555
C31 C30 1_555 1_555
H8 C31 1_555 1_555
C32 C28 1_555 1_555
C33 C25 1_555 1_555
N1 C22 1_555 1_555
N2 C31 1_555 1_555
C34 H9 1_555 1_555
C35 C34 1_555 1_555
H10 C35 1_555 1_555
C36 C35 1_555 1_555
H11 C36 1_555 1_555
C37 C36 1_555 1_555
C38 C37 1_555 1_555
H12 C38 1_555 1_555
C39 C38 1_555 1_555
H13 C39 1_555 1_555
C40 C39 1_555 1_555
C41 C40 1_555 1_555
H14 C41 1_555 1_555
C42 C41 1_555 1_555
H15 C42 1_555 1_555
C43 C42 1_555 1_555
H16 C43 1_555 1_555
C44 C40 1_555 1_555
C45 C37 1_555 1_555
N3 C34 1_555 1_555
N4 C43 1_555 1_555
C46 H17 1_555 1_555
C47 C46 1_555 1_555
H18 C47 1_555 1_555
C48 C47 1_555 1_555
H19 C48 1_555 1_555
C49 C48 1_555 1_555
C50 C49 1_555 1_555
H20 C50 1_555 1_555
C51 C50 1_555 1_555
H21 C51 1_555 1_555
C52 C51 1_555 1_555
C53 C52 1_555 1_555
H22 C53 1_555 1_555
C54 C53 1_555 1_555
H23 C54 1_555 1_555
C55 C54 1_555 1_555
H24 C55 1_555 1_555
C56 C52 1_555 1_555
C57 C49 1_555 1_555
N5 C46 1_555 1_555
N6 C55 1_555 1_555
C19B C21 1_555 1_555
C20B C19B 1_555 1_555
C21B C19 1_555 1_555
F13B C19B 1_555 1_555
F14B C21B 1_555 1_555
I7B C20B 1_555 1_555
C32 C33 1_555 1_555
C32 N2 1_555 1_555
C33 N1 1_555 1_555
C44 C45 1_555 1_555
C44 N4 1_555 1_555
C45 N3 1_555 1_555
C56 C57 1_555 1_555
C56 N6 1_555 1_555
C57 N5 1_555 1_555
C20B C21B 1_555 1_555

#END
