
#######################################################################
#
#                 Cambridge Crystallographic Data Centre
#                                CCDC 
#
#######################################################################
#
# If this CIF has been generated from an entry in the Cambridge 
# Structural Database, then it will include bibliographic, chemical, 
# crystal, experimental, refinement or atomic coordinate data resulting 
# from the CCDC's data processing and validation procedures.
#
#######################################################################

data_YANPAH
_chemical_formula_moiety         'C12 H8 N2,C6 F4 I2'
_chemical_name_systematic        
'1,2,3,4-tetrafluoro-5,6-di-iodobenzene 4,7-phenanthroline'
_symmetry_cell_setting           triclinic
_symmetry_space_group_name_H-M   'P -1'
_symmetry_Int_Tables_number      2
_space_group_name_Hall           '-P 1'
loop_
_symmetry_equiv_pos_site_id
_symmetry_equiv_pos_as_xyz
1 x,y,z
2 -x,-y,-z
_cell_length_a                   10.052(16)
_cell_length_b                   12.73(2)
_cell_length_c                   14.02(2)
_cell_angle_alpha                82.50(2)
_cell_angle_beta                 74.834(19)
_cell_angle_gamma                85.58(2)
_cell_volume                     1715
_exptl_crystal_description       bulk
_cell_formula_units_Z            4
loop_
_atom_site_label
_atom_site_type_symbol
_atom_site_fract_x
_atom_site_fract_y
_atom_site_fract_z
C1 C 0.4451(13) 0.8370(11) 0.3213(10)
C2 C 0.4333(13) 0.7780(11) 0.4157(10)
C3 C 0.3214(14) 0.8062(11) 0.4906(10)
C4 C 0.2299(15) 0.8856(13) 0.4789(11)
C5 C 0.2416(15) 0.9439(13) 0.3894(11)
C6 C 0.3506(14) 0.9214(13) 0.3093(11)
F1 F 0.3035(9) 0.7499(7) 0.5836(6)
F2 F 0.1230(9) 0.9089(8) 0.5574(7)
F3 F 0.1534(8) 1.0259(7) 0.3776(6)
F4 F 0.3559(8) 0.9776(7) 0.2205(6)
I1 I 0.60929(9) 0.81442(8) 0.19592(7)
I2 I 0.57365(10) 0.65898(8) 0.44397(7)
C7 C 0.4662(15) 0.2332(11) 0.1911(12)
C8 C 0.5888(15) 0.1789(12) 0.1470(10)
C9 C 0.6497(14) 0.1036(12) 0.2036(10)
C10 C 0.5980(14) 0.0841(11) 0.3041(9)
C11 C 0.4733(15) 0.1358(13) 0.3494(11)
C12 C 0.4130(15) 0.2077(12) 0.2945(11)
F5 F 0.7712(8) 0.0539(7) 0.1614(6)
F6 F 0.6593(8) 0.0137(7) 0.3574(6)
F7 F 0.4200(10) 0.1113(7) 0.4473(6)
F8 F 0.2993(9) 0.2602(7) 0.3415(6)
I3 I 0.36409(10) 0.34955(8) 0.11441(8)
I4 I 0.67898(10) 0.19939(8) -0.00847(7)
C13 C 0.3365(13) 0.4776(12) 0.8866(11)
H1 H 0.4075 0.4233 0.8820
C14 C 0.3222(14) 0.5375(13) 0.8016(11)
H2 H 0.3824 0.5236 0.7396
C15 C 0.2237(15) 0.6163(12) 0.8042(11)
H3 H 0.2168 0.6583 0.7444
C16 C 0.1331(14) 0.6361(11) 0.8932(10)
C17 C 0.1541(15) 0.5693(12) 0.9812(10)
C18 C 0.0634(14) 0.5841(12) 1.0759(10)
H4 H 0.0761 0.5396 1.1330
C19 C -0.0379(16) 0.6579(12) 1.0866(11)
H5 H -0.0978 0.6641 1.1506
C20 C -0.0579(14) 0.7272(11) 1.0043(10)
C21 C 0.0245(15) 0.7198(11) 0.9080(10)
C22 C 0.0006(15) 0.7915(12) 0.8298(11)
H6 H 0.0560 0.7873 0.7641
C23 C -0.1035(16) 0.8682(12) 0.8480(12)
H7 H -0.1213 0.9192 0.7966
C24 C -0.1809(15) 0.8672(11) 0.9453(11)
H8 H -0.2545 0.9192 0.9575
N1 N 0.2552(12) 0.4920(10) 0.9755(9)
N2 N -0.1648(12) 0.8034(9) 1.0220(9)
C25 C 0.0553(15) 0.8454(13) 0.2197(11)
H9 H 0.0492 0.8916 0.1619
C26 C -0.0464(15) 0.8585(14) 0.3102(12)
H10 H -0.1186 0.9115 0.3115
C27 C -0.0394(14) 0.7966(11) 0.3923(10)
H11 H -0.1044 0.8066 0.4536
C28 C 0.0651(15) 0.7156(12) 0.3883(10)
C29 C 0.1590(14) 0.7080(11) 0.2931(11)
C30 C 0.2629(15) 0.6229(13) 0.2843(12)
H12 H 0.3236 0.6150 0.2210
C31 C 0.2766(14) 0.5543(12) 0.3630(11)
H13 H 0.3460 0.4987 0.3543
C32 C 0.1853(15) 0.5646(12) 0.4619(10)
C33 C 0.0807(13) 0.6452(12) 0.4712(11)
C34 C -0.0041(16) 0.6493(14) 0.5705(11)
H14 H -0.0765 0.7021 0.5837
C35 C 0.0193(16) 0.5780(12) 0.6449(10)
H15 H -0.0367 0.5800 0.7108
C36 C 0.1255(15) 0.5018(12) 0.6246(11)
H16 H 0.1397 0.4518 0.6779
N3 N 0.1537(12) 0.7754(11) 0.2118(9)
N4 N 0.2091(12) 0.4946(10) 0.5339(10)
loop_
_geom_bond_atom_site_label_1
_geom_bond_atom_site_label_2
_geom_bond_site_symmetry_1
_geom_bond_site_symmetry_2
C1 C2 1_555 1_555
C2 C3 1_555 1_555
C3 C4 1_555 1_555
C4 C5 1_555 1_555
C5 C6 1_555 1_555
C6 C1 1_555 1_555
F1 C3 1_555 1_555
F2 C4 1_555 1_555
F3 C5 1_555 1_555
F4 C6 1_555 1_555
I1 C1 1_555 1_555
I2 C2 1_555 1_555
C7 C8 1_555 1_555
C8 C9 1_555 1_555
C9 C10 1_555 1_555
C10 C11 1_555 1_555
C11 C12 1_555 1_555
C12 C7 1_555 1_555
F5 C9 1_555 1_555
F6 C10 1_555 1_555
F7 C11 1_555 1_555
F8 C12 1_555 1_555
I3 C7 1_555 1_555
I4 C8 1_555 1_555
C13 H1 1_555 1_555
C14 C13 1_555 1_555
H2 C14 1_555 1_555
C15 C14 1_555 1_555
H3 C15 1_555 1_555
C16 C15 1_555 1_555
C17 C16 1_555 1_555
C18 C17 1_555 1_555
H4 C18 1_555 1_555
C19 C18 1_555 1_555
H5 C19 1_555 1_555
C20 C19 1_555 1_555
C21 C16 1_555 1_555
C22 C21 1_555 1_555
H6 C22 1_555 1_555
C23 C22 1_555 1_555
H7 C23 1_555 1_555
C24 C23 1_555 1_555
H8 C24 1_555 1_555
N1 C13 1_555 1_555
N2 C20 1_555 1_555
C25 H9 1_555 1_555
C26 C25 1_555 1_555
H10 C26 1_555 1_555
C27 C26 1_555 1_555
H11 C27 1_555 1_555
C28 C27 1_555 1_555
C29 C28 1_555 1_555
C30 C29 1_555 1_555
H12 C30 1_555 1_555
C31 C30 1_555 1_555
H13 C31 1_555 1_555
C32 C31 1_555 1_555
C33 C28 1_555 1_555
C34 C33 1_555 1_555
H14 C34 1_555 1_555
C35 C34 1_555 1_555
H15 C35 1_555 1_555
C36 C35 1_555 1_555
H16 C36 1_555 1_555
N3 C25 1_555 1_555
N4 C32 1_555 1_555
C17 N1 1_555 1_555
C20 C21 1_555 1_555
C24 N2 1_555 1_555
C29 N3 1_555 1_555
C32 C33 1_555 1_555
C36 N4 1_555 1_555

#END
