
#######################################################################
#
#                 Cambridge Crystallographic Data Centre
#                                CCDC 
#
#######################################################################
#
# If this CIF has been generated from an entry in the Cambridge 
# Structural Database, then it will include bibliographic, chemical, 
# crystal, experimental, refinement or atomic coordinate data resulting 
# from the CCDC's data processing and validation procedures.
#
#######################################################################

data_YANRUD
_chemical_formula_moiety         'C21 H20 O3'
_chemical_name_systematic        
(E)-4-(4-Methoxybenzylidene)-2-(4-methoxyphenyl)-3-methylcyclopent-2-en-1-one
_symmetry_cell_setting           orthorhombic
_symmetry_space_group_name_H-M   'P c a 21'
_symmetry_Int_Tables_number      29
_space_group_name_Hall           'P 2c -2ac'
loop_
_symmetry_equiv_pos_site_id
_symmetry_equiv_pos_as_xyz
1 x,y,z
2 -x,-y,1/2+z
3 1/2-x,y,1/2+z
4 1/2+x,-y,z
_cell_length_a                   11.8946(9)
_cell_length_b                   18.6719(14)
_cell_length_c                   7.5647(5)
_cell_angle_alpha                90
_cell_angle_beta                 90
_cell_angle_gamma                90
_cell_volume                     1680.08
_exptl_crystal_colour            yellow
_exptl_crystal_description       Needle
_chemical_melting_point          '435 K'
_cell_formula_units_Z            4
_exptl_crystal_recrystallization_method acetone
loop_
_atom_site_label
_atom_site_type_symbol
_atom_site_fract_x
_atom_site_fract_y
_atom_site_fract_z
O1 O -0.35502(14) -0.92579(9) -0.3821(2)
O2 O -0.45526(14) -1.69264(10) -0.1568(3)
O3 O -0.60879(13) -1.22778(10) -0.2491(3)
C1 C -0.31577(18) -1.40734(12) -0.2543(3)
H1 H -0.23885(18) -1.40207(12) -0.2796(3)
C2 C -0.35356(17) -1.48097(13) -0.2286(3)
C3 C -0.36584(18) -0.99859(13) -0.3710(3)
C4 C -0.40735(17) -1.22311(13) -0.2866(3)
C5 C -0.3032(2) -1.04673(14) -0.4679(3)
H2 H -0.2504(2) -1.03024(14) -0.5509(3)
C6 C -0.2640(2) -0.89887(14) -0.4851(4)
H3 H -0.2758(10) -0.9110(10) -0.6084(6)
H4 H -0.2601(12) -0.84723(19) -0.473(2)
H5 H -0.1942(3) -0.9200(9) -0.4444(19)
C7 C -0.39499(18) -1.14608(13) -0.3196(3)
C8 C -0.28607(18) -1.53694(13) -0.2886(4)
H6 H -0.21762(18) -1.52590(13) -0.3444(4)
C9 C -0.51733(18) -1.25709(13) -0.2504(3)
C10 C -0.31596(19) -1.60813(14) -0.2692(4)
H7 H -0.26843(19) -1.64459(14) -0.3112(4)
C11 C -0.32685(17) -1.27526(13) -0.2809(3)
C12 C -0.44522(18) -1.02357(13) -0.2518(3)
H8 H -0.48975(18) -0.99092(13) -0.1882(3)
C13 C -0.37450(18) -1.34600(12) -0.2471(3)
C14 C -0.3184(2) -1.11944(14) -0.4422(3)
H9 H -0.2757(2) -1.15185(14) -0.5096(3)
C15 C -0.20225(17) -1.26497(14) -0.2995(4)
H10 H -0.1778(3) -1.2834(10) -0.4131(12)
H11 H -0.1846(3) -1.21435(17) -0.292(3)
H12 H -0.1638(2) -1.2905(9) -0.2056(16)
C16 C -0.45900(18) -1.09594(13) -0.2263(3)
H13 H -0.51267(18) -1.11208(13) -0.1442(3)
C17 C -0.45480(19) -1.50009(13) -0.1455(3)
H14 H -0.50239(19) -1.46396(13) -0.1020(3)
C18 C -0.4855(2) -1.57048(14) -0.1265(3)
H15 H -0.5542(2) -1.58182(14) -0.0715(3)
C19 C -0.4982(2) -1.33555(13) -0.2128(4)
C20 C -0.41676(19) -1.62511(13) -0.1873(3)
C21 C -0.3912(3) -1.75167(15) -0.2221(5)
H16 H -0.3827(17) -1.7473(7) -0.3492(6)
H17 H -0.3176(8) -1.7517(8) -0.167(2)
H18 H -0.4297(11) -1.79608(16) -0.195(3)
H19 H -0.550(2) -1.3654(14) -0.292(4)
H20 H -0.519(3) -1.3444(16) -0.079(5)
loop_
_geom_bond_atom_site_label_1
_geom_bond_atom_site_label_2
_geom_bond_site_symmetry_1
_geom_bond_site_symmetry_2
O1 C3 1_555 1_555
O2 C20 1_555 1_555
O3 C9 1_555 1_555
C1 H1 1_555 1_555
C2 C1 1_555 1_555
C3 C5 1_555 1_555
C4 C7 1_555 1_555
C5 H2 1_555 1_555
C6 O1 1_555 1_555
H3 C6 1_555 1_555
H4 C6 1_555 1_555
H5 C6 1_555 1_555
C7 C14 1_555 1_555
C8 C2 1_555 1_555
H6 C8 1_555 1_555
C9 C4 1_555 1_555
C10 C8 1_555 1_555
H7 C10 1_555 1_555
C11 C4 1_555 1_555
C12 C3 1_555 1_555
H8 C12 1_555 1_555
C13 C1 1_555 1_555
C14 C5 1_555 1_555
H9 C14 1_555 1_555
C15 C11 1_555 1_555
H10 C15 1_555 1_555
H11 C15 1_555 1_555
H12 C15 1_555 1_555
C16 C7 1_555 1_555
H13 C16 1_555 1_555
C17 C2 1_555 1_555
H14 C17 1_555 1_555
C18 C17 1_555 1_555
H15 C18 1_555 1_555
C19 C9 1_555 1_555
C20 C10 1_555 1_555
C21 O2 1_555 1_555
H16 C21 1_555 1_555
H17 C21 1_555 1_555
H18 C21 1_555 1_555
H19 C19 1_555 1_555
H20 C19 1_555 1_555
C11 C13 1_555 1_555
C12 C16 1_555 1_555
C13 C19 1_555 1_555
C18 C20 1_555 1_555

#END
