
#######################################################################
#
#                 Cambridge Crystallographic Data Centre
#                                CCDC 
#
#######################################################################
#
# If this CIF has been generated from an entry in the Cambridge 
# Structural Database, then it will include bibliographic, chemical, 
# crystal, experimental, refinement or atomic coordinate data resulting 
# from the CCDC's data processing and validation procedures.
#
#######################################################################

data_YANVUG
_chemical_formula_moiety         'C2 H2 N4 O3,H2 O1'
_chemical_name_systematic        '3-Nitro-1,2,4-oxadiazol-5-amine monohydrate'
_symmetry_cell_setting           monoclinic
_symmetry_space_group_name_H-M   'P 21/n'
_symmetry_Int_Tables_number      14
_space_group_name_Hall           '-P 2yn'
loop_
_symmetry_equiv_pos_site_id
_symmetry_equiv_pos_as_xyz
1 x,y,z
2 1/2-x,1/2+y,1/2-z
3 -x,-y,-z
4 1/2+x,1/2-y,1/2+z
_cell_length_a                   8.829(4)
_cell_length_b                   4.620(2)
_cell_length_c                   14.065(6)
_cell_angle_alpha                90
_cell_angle_beta                 95.551(7)
_cell_angle_gamma                90
_cell_volume                     571.021
_exptl_crystal_colour            colorless
_exptl_crystal_description       block
_cell_formula_units_Z            4
loop_
_atom_site_label
_atom_site_type_symbol
_atom_site_fract_x
_atom_site_fract_y
_atom_site_fract_z
O1 O 0.34660(9) 0.1719(2) 0.00278(6)
O2 O 0.23507(10) 0.8990(2) 0.18074(6)
O3 O 0.46826(11) 0.7483(2) 0.21200(7)
N1 N 0.42208(12) 0.3407(2) 0.07772(7)
N2 N 0.17755(11) 0.4983(2) 0.04416(7)
N3 N 0.10891(13) 0.1580(3) -0.07924(8)
N4 N 0.34211(12) 0.7389(2) 0.16863(7)
C1 C 0.31373(13) 0.5178(3) 0.09477(8)
C2 C 0.20243(13) 0.2787(3) -0.01291(8)
H1 H 0.021(2) 0.227(4) -0.0875(12)
H2 H 0.144(2) 0.018(4) -0.1149(14)
O4 O 0.27404(10) -0.2334(2) -0.18964(7)
H3 H 0.358(2) -0.262(4) -0.1611(14)
H4 H 0.249(2) -0.391(5) -0.2199(15)
loop_
_geom_bond_atom_site_label_1
_geom_bond_atom_site_label_2
_geom_bond_site_symmetry_1
_geom_bond_site_symmetry_2
O1 N1 1_555 1_555
O2 N4 1_555 1_555
O3 N4 1_555 1_555
O4 H3 1_555 1_555
N1 C1 1_555 1_555
N2 C1 1_555 1_555
N3 C2 1_555 1_555
N4 C1 1_555 1_555
C2 O1 1_555 1_555
H1 N3 1_555 1_555
H2 N3 1_555 1_555
H4 O4 1_555 1_555
N2 C2 1_555 1_555

#END
