
#######################################################################
#
#                 Cambridge Crystallographic Data Centre
#                                CCDC 
#
#######################################################################
#
# If this CIF has been generated from an entry in the Cambridge 
# Structural Database, then it will include bibliographic, chemical, 
# crystal, experimental, refinement or atomic coordinate data resulting 
# from the CCDC's data processing and validation procedures.
#
#######################################################################

data_YAPDIF
_chemical_formula_moiety         'C16 H17 N1 O4'
_chemical_name_systematic        
'4-benzyl 2-ethyl 5-methyl-1H-pyrrole-2,4-dicarboxylate'
_symmetry_cell_setting           triclinic
_symmetry_space_group_name_H-M   'P -1'
_symmetry_Int_Tables_number      2
_space_group_name_Hall           '-P 1'
loop_
_symmetry_equiv_pos_site_id
_symmetry_equiv_pos_as_xyz
1 x,y,z
2 -x,-y,-z
_cell_length_a                   5.8451(7)
_cell_length_b                   9.9032(12)
_cell_length_c                   13.7165(17)
_cell_angle_alpha                110.081(2)
_cell_angle_beta                 92.430(2)
_cell_angle_gamma                101.712(2)
_cell_volume                     724.745
_cell_formula_units_Z            2
loop_
_atom_site_label
_atom_site_type_symbol
_atom_site_fract_x
_atom_site_fract_y
_atom_site_fract_z
O1 O 0.2653(5) 0.1956(3) 0.0316(2)
O2 O 0.7468(5) 0.1903(3) -0.2915(2)
O3 O 0.7317(6) 0.3828(4) -0.3404(3)
N1 N 0.2389(6) 0.4326(4) -0.1150(3)
O4 O 0.0293(6) 0.3536(4) 0.0492(3)
C1 C 0.9031(7) -0.0153(5) -0.3851(3)
C2 C 0.4677(7) 0.2738(5) -0.1331(3)
C3 C 0.6738(7) 0.3124(5) -0.2860(3)
C4 C 0.1825(7) 0.2987(5) 0.0070(3)
C5 C 0.2976(7) 0.3319(4) -0.0773(3)
C6 C 0.5123(7) 0.3438(5) -0.2065(3)
C7 C 1.0960(8) -0.0525(5) -0.3486(4)
C8 C 0.9070(8) 0.1449(5) -0.3679(3)
C9 C 0.1648(8) 0.1559(5) 0.1159(4)
C10 C 0.3302(8) 0.5433(5) -0.2505(4)
C11 C 0.7014(8) -0.1246(5) -0.4370(4)
C12 C 0.3673(7) 0.4434(4) -0.1927(3)
C13 C 1.0938(9) -0.1987(6) -0.3615(4)
C14 C 0.8914(9) -0.3102(6) -0.4134(4)
C15 C 0.6961(9) -0.2729(6) -0.4503(4)
C16 C 0.2973(9) 0.0485(6) 0.1336(4)
loop_
_geom_bond_atom_site_label_1
_geom_bond_atom_site_label_2
_geom_bond_site_symmetry_1
_geom_bond_site_symmetry_2
O1 C4 1_555 1_555
O2 C3 1_555 1_555
O3 C3 1_555 1_555
N1 C5 1_555 1_555
O4 C4 1_555 1_555
C1 C7 1_555 1_555
C2 C5 1_555 1_555
C3 C6 1_555 1_555
C4 C5 1_555 1_555
C6 C2 1_555 1_555
C7 C13 1_555 1_555
C8 O2 1_555 1_555
C9 O1 1_555 1_555
C10 C12 1_555 1_555
C11 C1 1_555 1_555
C12 N1 1_555 1_555
C13 C14 1_555 1_555
C14 C15 1_555 1_555
C15 C11 1_555 1_555
C16 C9 1_555 1_555
C1 C8 1_555 1_555
C6 C12 1_555 1_555

#END
