
#######################################################################
#
#                 Cambridge Crystallographic Data Centre
#                                CCDC 
#
#######################################################################
#
# If this CIF has been generated from an entry in the Cambridge 
# Structural Database, then it will include bibliographic, chemical, 
# crystal, experimental, refinement or atomic coordinate data resulting 
# from the CCDC's data processing and validation procedures.
#
#######################################################################

data_YAPFIH01
_chemical_formula_moiety         'C28 H14 S2'
_chemical_name_systematic        
naphtho[1,8,7-jkl:4,5,6-j'k'l']bisthioxanthene
_symmetry_cell_setting           monoclinic
_symmetry_space_group_name_H-M   'P 21/n'
_symmetry_Int_Tables_number      14
_space_group_name_Hall           '-P 2yn'
loop_
_symmetry_equiv_pos_site_id
_symmetry_equiv_pos_as_xyz
1 x,y,z
2 1/2-x,1/2+y,1/2-z
3 -x,-y,-z
4 1/2+x,1/2-y,1/2+z
_cell_length_a                   12.0014(2)
_cell_length_b                   14.5055(2)
_cell_length_c                   12.1322(2)
_cell_angle_alpha                90
_cell_angle_beta                 114.5910(10)
_cell_angle_gamma                90
_cell_volume                     1920.49
_exptl_crystal_colour            orange
_exptl_crystal_description       plate
_cell_formula_units_Z            4
loop_
_atom_site_label
_atom_site_type_symbol
_atom_site_fract_x
_atom_site_fract_y
_atom_site_fract_z
S1 S 0.61835(5) 0.74866(3) 1.03376(5)
S2 S 0.71305(5) 1.09701(3) 0.61012(5)
C1 C 0.3149(2) 0.90094(16) 0.9099(2)
C2 C 0.32876(16) 0.96306(13) 0.82865(16)
C3 C 0.44150(15) 0.96212(11) 0.81555(14)
C4 C 0.53905(15) 0.90341(11) 0.88729(14)
C5 C 0.65463(15) 0.90636(10) 0.87543(14)
C6 C 0.66025(14) 0.95175(10) 0.77701(13)
C7 C 0.75605(15) 0.93124(11) 0.73379(14)
C8 C 0.78961(15) 0.99346(12) 0.66443(14)
C9 C 0.88669(19) 0.97428(15) 0.63292(18)
C10 C 0.9476(2) 0.89257(15) 0.66500(19)
C11 C 0.9760(2) 0.80048(14) 1.17146(18)
C12 C 0.98511(18) 0.87411(14) 1.10310(16)
C13 C 0.88070(17) 0.90721(13) 1.00889(16)
C14 C 0.76530(15) 0.86817(11) 0.97714(14)
C15 C 0.75821(17) 0.79697(12) 1.05201(15)
C16 C 0.51701(17) 0.83901(12) 0.96319(15)
C17 C 0.23619(19) 1.02685(15) 0.75956(19)
C18 C 0.25139(19) 1.08529(15) 0.68182(19)
C19 C 0.36083(17) 1.08513(12) 0.66204(15)
C20 C 0.45632(15) 1.02202(11) 0.72935(14)
C21 C 0.56482(14) 1.01672(10) 0.70882(13)
C22 C 0.81320(18) 0.84459(13) 0.75385(15)
C23 C 0.90856(19) 0.82616(15) 0.72168(17)
C24 C 0.57682(16) 1.08020(11) 0.62642(15)
C25 C 0.48260(18) 1.14154(13) 0.56100(17)
C26 C 0.37639(19) 1.14348(14) 0.57791(17)
C27 C 0.4051(2) 0.83954(16) 0.97333(19)
C28 C 0.8635(2) 0.76305(13) 1.14744(17)
H1 H 0.246(2) 0.9019(14) 0.9181(19)
H2 H 0.393(2) 0.7964(17) 1.021(2)
H3 H 0.161(2) 1.0175(18) 0.767(2)
H4 H 0.195(2) 1.1281(17) 0.640(2)
H5 H 0.3183(17) 1.1875(14) 0.5364(16)
H6 H 0.4883(18) 1.1821(14) 0.5034(19)
H7 H 0.8859(15) 0.9576(14) 0.9689(16)
H8 H 1.0477(19) 0.7810(15) 1.2338(19)
H9 H 1.077(2) 0.8972(14) 1.1222(19)
H10 H 0.8528(18) 0.7165(14) 1.1936(18)
H11 H 0.7864(15) 0.7998(12) 0.7870(15)
H12 H 0.9455(17) 0.7607(13) 0.7420(15)
H13 H 0.9069(19) 1.0159(15) 0.5914(19)
H14 H 1.009(2) 0.8813(15) 0.6461(19)
loop_
_geom_bond_atom_site_label_1
_geom_bond_atom_site_label_2
_geom_bond_site_symmetry_1
_geom_bond_site_symmetry_2
S1 C15 1_555 1_555
S2 C8 1_555 1_555
C1 C2 1_555 1_555
C2 C3 1_555 1_555
C3 C4 1_555 1_555
C4 C5 1_555 1_555
C5 C6 1_555 1_555
C6 C7 1_555 1_555
C7 C8 1_555 1_555
C8 C9 1_555 1_555
C9 C10 1_555 1_555
C10 C23 1_555 1_555
C11 C12 1_555 1_555
C12 C13 1_555 1_555
C13 C14 1_555 1_555
C14 C5 1_555 1_555
C15 C14 1_555 1_555
C16 S1 1_555 1_555
C17 C2 1_555 1_555
C18 C17 1_555 1_555
C19 C18 1_555 1_555
C20 C3 1_555 1_555
C21 C6 1_555 1_555
C22 C7 1_555 1_555
C23 C22 1_555 1_555
C24 S2 1_555 1_555
C25 C24 1_555 1_555
C26 C19 1_555 1_555
C27 C1 1_555 1_555
C28 C11 1_555 1_555
H1 C1 1_555 1_555
H2 C27 1_555 1_555
H3 C17 1_555 1_555
H4 C18 1_555 1_555
H5 C26 1_555 1_555
H6 C25 1_555 1_555
H7 C13 1_555 1_555
H8 C11 1_555 1_555
H9 C12 1_555 1_555
H10 C28 1_555 1_555
H11 C22 1_555 1_555
H12 C23 1_555 1_555
H13 C9 1_555 1_555
H14 C10 1_555 1_555
C4 C16 1_555 1_555
C15 C28 1_555 1_555
C16 C27 1_555 1_555
C19 C20 1_555 1_555
C20 C21 1_555 1_555
C21 C24 1_555 1_555
C25 C26 1_555 1_555

#END
