
#######################################################################
#
#                 Cambridge Crystallographic Data Centre
#                                CCDC 
#
#######################################################################
#
# If this CIF has been generated from an entry in the Cambridge 
# Structural Database, then it will include bibliographic, chemical, 
# crystal, experimental, refinement or atomic coordinate data resulting 
# from the CCDC's data processing and validation procedures.
#
#######################################################################

data_YAPSOA
_chemical_formula_moiety         'C31 H21 Cl1 O1'
_chemical_name_systematic        
3'-chloro-4-methyl-2,3-diphenyl-2'H-spiro[indene-1,1'-naphthalen]-2'-one
_symmetry_cell_setting           monoclinic
_symmetry_space_group_name_H-M   'P 21/n'
_symmetry_Int_Tables_number      14
_space_group_name_Hall           '-P 2yn'
loop_
_symmetry_equiv_pos_site_id
_symmetry_equiv_pos_as_xyz
1 x,y,z
2 1/2-x,1/2+y,1/2-z
3 -x,-y,-z
4 1/2+x,1/2-y,1/2+z
_cell_length_a                   10.937(3)
_cell_length_b                   15.365(4)
_cell_length_c                   14.070(4)
_cell_angle_alpha                90
_cell_angle_beta                 107.027(5)
_cell_angle_gamma                90
_cell_volume                     2260.78
_exptl_crystal_colour            colorless
_exptl_crystal_description       block
_cell_formula_units_Z            4
loop_
_atom_site_label
_atom_site_type_symbol
_atom_site_fract_x
_atom_site_fract_y
_atom_site_fract_z
C1 C 0.0542(3) 0.8710(2) 0.1031(3)
C2 C 0.1701(3) 0.8766(2) 0.0807(3)
C3 C 0.2796(3) 0.8679(2) 0.1771(3)
C4 C 0.4606(4) 0.7902(2) 0.1345(3)
C5 C 0.3595(3) 0.9526(2) 0.1871(3)
C6 C 0.3502(3) 0.7848(2) 0.1650(2)
C7 C -0.0615(3) 0.8720(2) 0.0235(3)
C8 C 0.0807(3) 0.8629(2) 0.2120(3)
C9 C 0.2984(3) 0.7030(2) 0.1742(3)
H1 H 0.2264 0.6985 0.1963
C10 C 0.2077(3) 0.8628(2) 0.2558(3)
C11 C 0.5167(4) 0.8735(3) 0.1271(3)
H2 H 0.5885 0.8752 0.1045
C12 C -0.0205(3) 0.8519(2) 0.2630(3)
C13 C 0.1776(4) 0.8833(2) -0.0153(3)
H3 H 0.2561 0.8864 -0.0284
C14 C 0.2825(4) 0.8652(2) 0.3624(3)
C15 C 0.4714(4) 0.9486(3) 0.1509(3)
C16 C 0.4140(4) 0.8541(3) 0.3914(3)
H4 H 0.4534 0.8403 0.3431
C17 C 0.0647(4) 0.8852(3) -0.0909(3)
H5 H 0.0668 0.8900 -0.1563
C18 C 0.4621(4) 0.6346(3) 0.1173(3)
H6 H 0.4982 0.5847 0.0997
C19 C 0.5132(4) 0.7131(3) 0.1112(3)
H7 H 0.5865 0.7162 0.0906
C20 C -0.0517(4) 0.8801(3) -0.0719(3)
H8 H -0.1262 0.8822 -0.1249
C21 C 0.2312(4) 0.8849(3) 0.4388(3)
H9 H 0.1434 0.8931 0.4240
C22 C 0.3551(4) 0.6290(3) 0.1503(3)
H10 H 0.3208 0.5747 0.1565
C23 C 0.4359(5) 0.8822(3) 0.5605(3)
H11 H 0.4865 0.8884 0.6260
C24 C -0.0447(4) 0.7723(3) 0.2961(3)
H12 H 0.0044 0.7246 0.2892
C25 C -0.0934(4) 0.9223(3) 0.2747(3)
H13 H -0.0793 0.9770 0.2516
C26 C -0.2125(5) 0.8303(4) 0.3521(4)
H14 H -0.2777 0.8226 0.3814
C27 C -0.1878(4) 0.9105(4) 0.3213(4)
H15 H -0.2348 0.9581 0.3316
C28 C 0.4893(5) 0.8628(3) 0.4888(3)
H16 H 0.5773 0.8551 0.5045
C29 C 0.3061(5) 0.8928(3) 0.5366(3)
H17 H 0.2681 0.9053 0.5862
C30 C -0.1413(5) 0.7621(4) 0.3397(4)
H18 H -0.1577 0.7072 0.3609
C31 C -0.1918(4) 0.8639(3) 0.0372(3)
H19 H -0.2128 0.9169 0.0652
H20 H -0.1925 0.8163 0.0813
H21 H -0.2536 0.8535 -0.0260
Cl1 Cl 0.54523(12) 1.04627(7) 0.14418(11)
O1 O 0.3253(2) 1.01835(17) 0.2196(2)
loop_
_geom_bond_atom_site_label_1
_geom_bond_atom_site_label_2
_geom_bond_site_symmetry_1
_geom_bond_site_symmetry_2
C1 C2 1_555 1_555
C2 C3 1_555 1_555
C3 C5 1_555 1_555
C4 C6 1_555 1_555
C5 C15 1_555 1_555
C6 C3 1_555 1_555
C7 C1 1_555 1_555
C8 C1 1_555 1_555
C9 C6 1_555 1_555
H1 C9 1_555 1_555
C10 C3 1_555 1_555
C11 C4 1_555 1_555
H2 C11 1_555 1_555
C12 C8 1_555 1_555
C13 C2 1_555 1_555
H3 C13 1_555 1_555
C14 C10 1_555 1_555
C15 C11 1_555 1_555
C16 C14 1_555 1_555
H4 C16 1_555 1_555
C17 C13 1_555 1_555
H5 C17 1_555 1_555
C18 H6 1_555 1_555
C19 C4 1_555 1_555
H7 C19 1_555 1_555
C20 C7 1_555 1_555
H8 C20 1_555 1_555
C21 C14 1_555 1_555
H9 C21 1_555 1_555
C22 C9 1_555 1_555
H10 C22 1_555 1_555
C23 H11 1_555 1_555
C24 C12 1_555 1_555
H12 C24 1_555 1_555
C25 C12 1_555 1_555
H13 C25 1_555 1_555
C26 H14 1_555 1_555
C27 C25 1_555 1_555
H15 C27 1_555 1_555
C28 C16 1_555 1_555
H16 C28 1_555 1_555
C29 C21 1_555 1_555
H17 C29 1_555 1_555
C30 C24 1_555 1_555
H18 C30 1_555 1_555
C31 C7 1_555 1_555
H19 C31 1_555 1_555
H20 C31 1_555 1_555
H21 C31 1_555 1_555
Cl1 C15 1_555 1_555
O1 C5 1_555 1_555
C8 C10 1_555 1_555
C17 C20 1_555 1_555
C18 C19 1_555 1_555
C18 C22 1_555 1_555
C23 C28 1_555 1_555
C23 C29 1_555 1_555
C26 C27 1_555 1_555
C26 C30 1_555 1_555

#END
