
#######################################################################
#
#                 Cambridge Crystallographic Data Centre
#                                CCDC 
#
#######################################################################
#
# If this CIF has been generated from an entry in the Cambridge 
# Structural Database, then it will include bibliographic, chemical, 
# crystal, experimental, refinement or atomic coordinate data resulting 
# from the CCDC's data processing and validation procedures.
#
#######################################################################

data_YAPYAR
_chemical_formula_moiety         
'C78 H82 K1 N4 O9 1+,C1 H1 Cl3,H2 O1,N1 O3 1-,0.5(C5 H12)'
_chemical_name_systematic        
'(\h^6^,\h^6^-1,57,62,62,71,71-Hexamethyl-6,9,23,26,29,32,35,49,52-nonaoxa-76,77,78,79-tetraazatetradecacyclo[55.9.9.2^2,5^.2^53,56^.1^11,37^.1^21,47^.1^58,61^.1^63,66^.1^67,70^.1^72,75^.0^10,15^.0^17,22^.0^36,41^.0^43,48^]pentaoctaconta-2,4,10,12,14,17,19,21,36,38,40,43,45,47,53,55,58,60,63,65,67,69,72,74,80,84-hexacosaene)-potassium nitrate pentane chloroform solvate monohydrate'
_symmetry_cell_setting           monoclinic
_symmetry_space_group_name_H-M   'P 21/c'
_symmetry_Int_Tables_number      14
_space_group_name_Hall           '-P 2ybc'
loop_
_symmetry_equiv_pos_site_id
_symmetry_equiv_pos_as_xyz
1 x,y,z
2 -x,1/2+y,1/2-z
3 -x,-y,-z
4 x,1/2-y,1/2+z
_cell_length_a                   15.839(2)
_cell_length_b                   14.841(2)
_cell_length_c                   35.024(4)
_cell_angle_alpha                90
_cell_angle_beta                 93.290(4)
_cell_angle_gamma                90
_cell_volume                     8219.4
_exptl_crystal_colour            yellow
_exptl_crystal_description       prisms
_cell_formula_units_Z            4
loop_
_atom_site_label
_atom_site_type_symbol
_atom_site_fract_x
_atom_site_fract_y
_atom_site_fract_z
K1 K 0.80185(14) 0.97920(17) 0.36262(7)
N1 N 0.5966(5) 0.6159(8) 0.6750(3)
H1 H 0.6291 0.6310 0.6565
N2 N 0.7249(6) 0.7890(5) 0.6937(2)
H2 H 0.7282 0.7540 0.6736
N3 N 0.8885(5) 0.6649(6) 0.6732(2)
H3 H 0.8513 0.6736 0.6539
N4 N 0.7584(7) 0.4892(6) 0.6575(2)
H4 H 0.7491 0.5452 0.6501
O1 O 0.5536(4) 0.8937(5) 0.5363(2)
O2 O 0.6098(4) 0.8861(5) 0.4566(2)
O3 O 0.7052(4) 0.8342(5) 0.34044(18)
O4 O 0.7401(4) 0.9612(5) 0.28715(19)
O5 O 0.8315(5) 1.1131(5) 0.3088(2)
O6 O 0.8673(5) 1.1505(6) 0.3856(3)
O7 O 0.8611(5) 1.0105(5) 0.4365(2)
O8 O 0.8814(4) 0.7253(4) 0.42980(18)
O9 O 0.9530(4) 0.6166(5) 0.49982(19)
C1 C 0.5794(7) 0.5290(10) 0.6846(4)
C2 C 0.5285(8) 0.5398(11) 0.7145(4)
H5 H 0.5065 0.4911 0.7284
C3 C 0.5122(8) 0.6293(11) 0.7222(4)
H6 H 0.4771 0.6528 0.7409
C4 C 0.5583(7) 0.6761(9) 0.6970(4)
C5 C 0.5681(7) 0.7768(9) 0.6919(3)
C6 C 0.6525(7) 0.8105(8) 0.7096(3)
C7 C 0.6763(8) 0.8627(7) 0.7418(3)
H7 H 0.6379 0.8871 0.7589
C8 C 0.7662(8) 0.8744(7) 0.7455(3)
H8 H 0.7991 0.9050 0.7650
C9 C 0.7938(8) 0.8292(7) 0.7131(4)
C10 C 0.8820(8) 0.8232(8) 0.6990(3)
C11 C 0.9124(8) 0.7294(9) 0.6991(3)
C12 C 0.9723(7) 0.6857(10) 0.7233(3)
H9 H 1.0016 0.7132 0.7446
C13 C 0.9840(6) 0.5940(9) 0.7119(3)
H10 H 1.0211 0.5502 0.7235
C14 C 0.9294(7) 0.5843(9) 0.6807(3)
C15 C 0.9182(8) 0.5008(7) 0.6556(3)
C16 C 0.8384(8) 0.4515(9) 0.6614(3)
C17 C 0.8315(10) 0.3595(9) 0.6739(4)
H11 H 0.8750 0.3165 0.6794
C18 C 0.7408(12) 0.3495(9) 0.6761(3)
H12 H 0.7147 0.2949 0.6833
C19 C 0.6943(10) 0.4301(10) 0.6664(3)
C20 C 0.6011(8) 0.4506(9) 0.6634(4)
C21 C 0.4944(7) 0.8257(8) 0.7125(3)
H13 H 0.4404 0.7965 0.7052
H14 H 0.4920 0.8892 0.7047
H15 H 0.5053 0.8218 0.7403
C22 C 0.9421(7) 0.8833(7) 0.7233(3)
H16 H 0.9231 0.9460 0.7212
H17 H 0.9993 0.8782 0.7143
H18 H 0.9424 0.8642 0.7501
C23 C 0.8778(7) 0.8628(7) 0.6583(3)
H19 H 0.8431 0.8237 0.6412
H20 H 0.9350 0.8668 0.6492
H21 H 0.8526 0.9231 0.6587
C24 C 0.9925(7) 0.4365(7) 0.6630(3)
H22 H 0.9798 0.3788 0.6504
H23 H 1.0021 0.4270 0.6906
H24 H 1.0434 0.4626 0.6528
C25 C 0.5552(8) 0.3641(8) 0.6771(4)
H25 H 0.5685 0.3554 0.7046
H26 H 0.5744 0.3116 0.6631
H27 H 0.4940 0.3711 0.6724
C26 C 0.5768(7) 0.4672(8) 0.6204(3)
H28 H 0.5159 0.4785 0.6170
H29 H 0.5914 0.4140 0.6056
H30 H 0.6078 0.5196 0.6115
C27 C 0.5611(6) 0.8063(7) 0.6494(3)
C28 C 0.5167(6) 0.7550(7) 0.6215(3)
H31 H 0.4885 0.7015 0.6285
C29 C 0.5136(7) 0.7835(9) 0.5819(3)
H32 H 0.4847 0.7495 0.5622
C30 C 0.5547(8) 0.8620(10) 0.5744(4)
C31 C 0.5945(7) 0.9174(8) 0.6001(3)
H33 H 0.6183 0.9734 0.5932
C32 C 0.5975(6) 0.8860(7) 0.6372(3)
H34 H 0.6270 0.9218 0.6561
C33 C 0.5180(7) 0.8396(8) 0.5054(4)
H35 H 0.4578 0.8266 0.5094
H36 H 0.5486 0.7816 0.5043
C34 C 0.5255(8) 0.8920(10) 0.4673(4)
H37 H 0.4869 0.8657 0.4470
H38 H 0.5097 0.9559 0.4707
C35 C 0.6209(9) 0.9501(9) 0.4283(4)
C36 C 0.5945(8) 0.9437(12) 0.3932(5)
C37 C 0.6029(9) 1.0154(14) 0.3676(4)
H39 H 0.5790 1.0113 0.3421
C38 C 0.6457(9) 1.0918(12) 0.3795(5)
H40 H 0.6529 1.1413 0.3629
C39 C 0.6767(9) 1.0930(12) 0.4157(6)
H41 H 0.7066 1.1450 0.4248
C40 C 0.6672(9) 1.0214(13) 0.4410(4)
C41 C 0.7044(10) 1.0297(9) 0.4813(4)
H42 H 0.6596 1.0174 0.4992
H43 H 0.7239 1.0924 0.4857
C42 C 0.7818(11) 0.9627(9) 0.4908(4)
C43 C 0.8525(8) 0.9543(9) 0.4691(4)
C44 C 0.9096(8) 0.8892(11) 0.4760(5)
C45 C 0.9053(10) 0.8342(11) 0.5082(5)
H44 H 0.9473 0.7893 0.5130
C46 C 0.8456(12) 0.8426(10) 0.5317(5)
H45 H 0.8452 0.8056 0.5538
C47 C 0.7828(10) 0.9054(11) 0.5246(4)
H46 H 0.7393 0.9113 0.5420
C48 C 0.9816(9) 0.8752(11) 0.4521(4)
H47 H 1.0167 0.8262 0.4639
H48 H 1.0164 0.9307 0.4535
C49 C 0.9639(8) 0.8520(11) 0.4100(4)
C50 C 0.9946(8) 0.9036(12) 0.3805(5)
H49 H 1.0298 0.9543 0.3860
C51 C 0.9730(9) 0.8796(13) 0.3430(6)
H50 H 0.9973 0.9125 0.3231
C52 C 0.9174(10) 0.8097(13) 0.3330(4)
H51 H 0.9046 0.7970 0.3068
C53 C 0.8794(10) 0.7567(12) 0.3613(5)
C54 C 0.9104(9) 0.7767(10) 0.3994(4)
C55 C 0.8172(11) 0.6851(10) 0.3513(4)
H52 H 0.8415 0.6262 0.3595
H53 H 0.8069 0.6834 0.3232
C56 C 0.7328(12) 0.6982(12) 0.3697(4)
C57 C 0.6776(10) 0.7703(9) 0.3648(3)
C58 C 0.6028(11) 0.7865(13) 0.3826(4)
C59 C 0.5858(9) 0.7161(15) 0.4055(6)
H54 H 0.5349 0.7199 0.4184
C60 C 0.6348(13) 0.6375(13) 0.4125(5)
H55 H 0.6182 0.5913 0.4293
C61 C 0.7095(11) 0.6323(11) 0.3930(5)
H56 H 0.7445 0.5806 0.3964
C62 C 0.5517(8) 0.8647(12) 0.3777(4)
H57 H 0.4984 0.8558 0.3907
H58 H 0.5371 0.8740 0.3501
C63 C 0.8917(9) 1.0952(9) 0.4494(4)
H59 H 0.9320 1.0881 0.4718
H60 H 0.8445 1.1343 0.4565
C64 C 0.9377(9) 1.1370(13) 0.4142(5)
H61 H 0.9656 1.1947 0.4213
H62 H 0.9802 1.0948 0.4048
C65 C 0.8889(9) 1.2143(10) 0.3584(4)
H63 H 0.9487 1.2063 0.3522
H64 H 0.8821 1.2759 0.3686
C66 C 0.8301(8) 1.2006(8) 0.3223(4)
H65 H 0.7715 1.2163 0.3282
H66 H 0.8475 1.2420 0.3020
C67 C 0.7907(8) 1.1067(10) 0.2726(3)
H67 H 0.8202 1.1448 0.2543
H68 H 0.7318 1.1285 0.2734
C68 C 0.7910(9) 1.0104(10) 0.2597(4)
H69 H 0.7654 1.0048 0.2333
H70 H 0.8495 0.9866 0.2602
C69 C 0.7205(7) 0.8759(8) 0.2749(3)
H71 H 0.7730 0.8401 0.2736
H72 H 0.6925 0.8784 0.2489
C70 C 0.6629(8) 0.8312(9) 0.3016(3)
H73 H 0.6081 0.8633 0.3013
H74 H 0.6522 0.7680 0.2938
C71 C 0.9203(8) 0.6370(9) 0.4332(4)
H75 H 0.9825 0.6431 0.4332
H76 H 0.9011 0.5993 0.4111
C72 C 0.8967(7) 0.5917(8) 0.4700(3)
H77 H 0.8386 0.6094 0.4759
H78 H 0.8979 0.5254 0.4667
C73 C 0.9406(8) 0.5851(8) 0.5350(3)
C74 C 0.9982(7) 0.6107(8) 0.5627(4)
H79 H 1.0449 0.6465 0.5561
C75 C 0.9911(8) 0.5859(8) 0.6012(4)
H80 H 1.0321 0.6060 0.6202
C76 C 0.9218(8) 0.5303(8) 0.6120(3)
C77 C 0.8661(8) 0.5060(7) 0.5832(4)
H81 H 0.8203 0.4682 0.5891
C78 C 0.8719(9) 0.5339(9) 0.5438(4)
H82 H 0.8298 0.5175 0.5247
N5 N 0.7169(7) 0.6869(7) 0.5917(3)
O10 O 0.7301(5) 0.6757(6) 0.6254(3)
O11 O 0.6764(7) 0.6314(8) 0.5726(3)
O12 O 0.7390(10) 0.7554(9) 0.5768(4)
O13 O 0.6950(11) 0.6959(12) 0.4974(5)
O14 O 0.6460(16) 0.5079(18) 0.5007(8)
Cl1 Cl 0.8204(5) 1.1277(6) 0.7236(2)
Cl2 Cl 0.7561(5) 1.0978(5) 0.6470(2)
Cl3 Cl 0.6413(5) 1.1124(11) 0.7065(3)
C79 C 0.7410(6) 1.0753(12) 0.6950(3)
C80 C 0.7399 0.3563 0.4572
H83 H 0.6996 0.3907 0.4717
H84 H 0.7972 0.3650 0.4688
H85 H 0.7253 0.2922 0.4578
C81 C 0.7530 0.4036 0.4197
H86 H 0.7324 0.4663 0.4215
H87 H 0.8144 0.4061 0.4159
C82 C 0.7098 0.3603 0.3859
H88 H 0.7519 0.3223 0.3737
H89 H 0.6662 0.3193 0.3952
C83 C 0.6689 0.4172 0.3561
H90 H 0.6537 0.4752 0.3679
H91 H 0.6156 0.3877 0.3468
C84 C 0.7196 0.4370 0.3223
H92 H 0.7762 0.4639 0.3240
H93 H 0.6775 0.4838 0.3159
H94 H 0.7169 0.3906 0.3023
C85? C 0.7286(7) 1.0782(14) 0.7126(3)
C86? C 0.7670(7) 1.2013(9) 0.5930(7)
Cl4? Cl 0.7226(6) 1.1172(7) 0.7593(3)
Cl5? Cl 0.7859(8) 1.0877(7) 0.5851(5)
Cl6? Cl 0.8211(6) 1.1165(8) 0.6934(3)
Cl7? Cl 0.6630(5) 1.2283(8) 0.5790(4)
Cl8? Cl 0.6403(6) 1.1126(14) 0.6844(3)
Cl9? Cl 0.8355(7) 1.2663(8) 0.5678(5)
loop_
_geom_bond_atom_site_label_1
_geom_bond_atom_site_label_2
_geom_bond_site_symmetry_1
_geom_bond_site_symmetry_2
K1 O3 1_555 1_555
N1 H1 1_555 1_555
N2 H2 1_555 1_555
N3 H3 1_555 1_555
N4 H4 1_555 1_555
O1 C30 1_555 1_555
O2 C34 1_555 1_555
O3 C57 1_555 1_555
O4 K1 1_555 1_555
O5 K1 1_555 1_555
O6 K1 1_555 1_555
O7 K1 1_555 1_555
O8 C54 1_555 1_555
O9 C72 1_555 1_555
C1 N1 1_555 1_555
C2 C1 1_555 1_555
H5 C2 1_555 1_555
C3 C2 1_555 1_555
H6 C3 1_555 1_555
C4 N1 1_555 1_555
C5 C4 1_555 1_555
C6 N2 1_555 1_555
C7 C6 1_555 1_555
H7 C7 1_555 1_555
C8 C7 1_555 1_555
H8 C8 1_555 1_555
C9 N2 1_555 1_555
C10 C9 1_555 1_555
C11 N3 1_555 1_555
C12 C11 1_555 1_555
H9 C12 1_555 1_555
C13 C12 1_555 1_555
H10 C13 1_555 1_555
C14 N3 1_555 1_555
C15 C14 1_555 1_555
C16 N4 1_555 1_555
C17 C16 1_555 1_555
H11 C17 1_555 1_555
C18 C17 1_555 1_555
H12 C18 1_555 1_555
C19 N4 1_555 1_555
C20 C1 1_555 1_555
C21 C5 1_555 1_555
H13 C21 1_555 1_555
H14 C21 1_555 1_555
H15 C21 1_555 1_555
C22 C10 1_555 1_555
H16 C22 1_555 1_555
H17 C22 1_555 1_555
H18 C22 1_555 1_555
C23 C10 1_555 1_555
H19 C23 1_555 1_555
H20 C23 1_555 1_555
H21 C23 1_555 1_555
C24 C15 1_555 1_555
H22 C24 1_555 1_555
H23 C24 1_555 1_555
H24 C24 1_555 1_555
C25 C20 1_555 1_555
H25 C25 1_555 1_555
H26 C25 1_555 1_555
H27 C25 1_555 1_555
C26 C20 1_555 1_555
H28 C26 1_555 1_555
H29 C26 1_555 1_555
H30 C26 1_555 1_555
C27 C5 1_555 1_555
C28 C27 1_555 1_555
H31 C28 1_555 1_555
C29 C28 1_555 1_555
H32 C29 1_555 1_555
C30 C29 1_555 1_555
C31 C30 1_555 1_555
H33 C31 1_555 1_555
C32 C27 1_555 1_555
H34 C32 1_555 1_555
C33 O1 1_555 1_555
H35 C33 1_555 1_555
H36 C33 1_555 1_555
C34 C33 1_555 1_555
H37 C34 1_555 1_555
H38 C34 1_555 1_555
C35 K1 1_555 1_555
C36 K1 1_555 1_555
C37 K1 1_555 1_555
H39 C37 1_555 1_555
C38 K1 1_555 1_555
H40 C38 1_555 1_555
C39 K1 1_555 1_555
H41 C39 1_555 1_555
C40 K1 1_555 1_555
C41 C40 1_555 1_555
H42 C41 1_555 1_555
H43 C41 1_555 1_555
C42 C41 1_555 1_555
C43 O7 1_555 1_555
C44 C43 1_555 1_555
C45 C44 1_555 1_555
H44 C45 1_555 1_555
C46 C45 1_555 1_555
H45 C46 1_555 1_555
C47 C42 1_555 1_555
H46 C47 1_555 1_555
C48 C44 1_555 1_555
H47 C48 1_555 1_555
H48 C48 1_555 1_555
C49 K1 1_555 1_555
C50 K1 1_555 1_555
H49 C50 1_555 1_555
C51 K1 1_555 1_555
H50 C51 1_555 1_555
C52 K1 1_555 1_555
H51 C52 1_555 1_555
C53 K1 1_555 1_555
C54 K1 1_555 1_555
C55 C53 1_555 1_555
H52 C55 1_555 1_555
H53 C55 1_555 1_555
C56 C55 1_555 1_555
C57 C56 1_555 1_555
C58 C57 1_555 1_555
C59 C58 1_555 1_555
H54 C59 1_555 1_555
C60 C59 1_555 1_555
H55 C60 1_555 1_555
C61 C56 1_555 1_555
H56 C61 1_555 1_555
C62 C36 1_555 1_555
H57 C62 1_555 1_555
H58 C62 1_555 1_555
C63 O7 1_555 1_555
H59 C63 1_555 1_555
H60 C63 1_555 1_555
C64 O6 1_555 1_555
H61 C64 1_555 1_555
H62 C64 1_555 1_555
C65 O6 1_555 1_555
H63 C65 1_555 1_555
H64 C65 1_555 1_555
C66 O5 1_555 1_555
H65 C66 1_555 1_555
H66 C66 1_555 1_555
C67 O5 1_555 1_555
H67 C67 1_555 1_555
H68 C67 1_555 1_555
C68 O4 1_555 1_555
H69 C68 1_555 1_555
H70 C68 1_555 1_555
C69 O4 1_555 1_555
H71 C69 1_555 1_555
H72 C69 1_555 1_555
C70 O3 1_555 1_555
H73 C70 1_555 1_555
H74 C70 1_555 1_555
C71 O8 1_555 1_555
H75 C71 1_555 1_555
H76 C71 1_555 1_555
C72 C71 1_555 1_555
H77 C72 1_555 1_555
H78 C72 1_555 1_555
C73 O9 1_555 1_555
C74 C73 1_555 1_555
H79 C74 1_555 1_555
C75 C74 1_555 1_555
H80 C75 1_555 1_555
C76 C15 1_555 1_555
C77 C76 1_555 1_555
H81 C77 1_555 1_555
C78 C73 1_555 1_555
H82 C78 1_555 1_555
N5 O10 1_555 1_555
O11 N5 1_555 1_555
O12 N5 1_555 1_555
Cl1 C79 1_555 1_555
Cl2 C79 1_555 1_555
Cl3 C79 1_555 1_555
C80 H83 1_555 1_555
H84 C80 1_555 1_555
H85 C80 1_555 1_555
C81 C80 1_555 1_555
H86 C81 1_555 1_555
H87 C81 1_555 1_555
C82 C81 1_555 1_555
H88 C82 1_555 1_555
H89 C82 1_555 1_555
C83 C82 1_555 1_555
H90 C83 1_555 1_555
H91 C83 1_555 1_555
C84 C83 1_555 1_555
H92 C84 1_555 1_555
H93 C84 1_555 1_555
H94 C84 1_555 1_555
O2 C35 1_555 1_555
C3 C4 1_555 1_555
C5 C6 1_555 1_555
C8 C9 1_555 1_555
C10 C11 1_555 1_555
C13 C14 1_555 1_555
C15 C16 1_555 1_555
C18 C19 1_555 1_555
C19 C20 1_555 1_555
C31 C32 1_555 1_555
C35 C36 1_555 1_555
C35 C40 1_555 1_555
C36 C37 1_555 1_555
C37 C38 1_555 1_555
C38 C39 1_555 1_555
C39 C40 1_555 1_555
C42 C43 1_555 1_555
C46 C47 1_555 1_555
C48 C49 1_555 1_555
C49 C50 1_555 1_555
C49 C54 1_555 1_555
C50 C51 1_555 1_555
C51 C52 1_555 1_555
C52 C53 1_555 1_555
C53 C54 1_555 1_555
C58 C62 1_555 1_555
C60 C61 1_555 1_555
C63 C64 1_555 1_555
C65 C66 1_555 1_555
C67 C68 1_555 1_555
C69 C70 1_555 1_555
C75 C76 1_555 1_555
C77 C78 1_555 1_555

#END
