
#######################################################################
#
#                 Cambridge Crystallographic Data Centre
#                                CCDC 
#
#######################################################################
#
# If this CIF has been generated from an entry in the Cambridge 
# Structural Database, then it will include bibliographic, chemical, 
# crystal, experimental, refinement or atomic coordinate data resulting 
# from the CCDC's data processing and validation procedures.
#
#######################################################################

data_YAPYUL
_chemical_formula_moiety         'C58 H42 N2 O8 S2,C1 H4 O1'
_chemical_name_systematic        
"2,2'-(1,3,6,8-Tetraoxo-1,3,6,8-tetrahydrobenzo[lmn][3,8]phenanthroline-2,7-diyl)bis(3-(tritylsulfanyl)propanoic acid) methanol solvate"
_symmetry_cell_setting           monoclinic
_symmetry_space_group_name_H-M   'P 21'
_symmetry_Int_Tables_number      4
_space_group_name_Hall           'P 2yb'
loop_
_symmetry_equiv_pos_site_id
_symmetry_equiv_pos_as_xyz
1 x,y,z
2 -x,1/2+y,-z
_cell_length_a                   17.2326(4)
_cell_length_b                   7.6970(2)
_cell_length_c                   20.4782(6)
_cell_angle_alpha                90
_cell_angle_beta                 108.6480(10)
_cell_angle_gamma                90
_cell_volume                     2573.62
_exptl_crystal_colour            colorless
_exptl_crystal_description       block
_cell_formula_units_Z            2
loop_
_atom_site_label
_atom_site_type_symbol
_atom_site_fract_x
_atom_site_fract_y
_atom_site_fract_z
N1 N -0.2321(4) 0.3603(10) 0.6372(4)
O1 O -0.2884(4) 0.6245(9) 0.6128(4)
C1 C -0.2302(5) 0.5323(13) 0.6167(5)
N2 N 0.1319(4) 0.6815(10) 0.5950(3)
O2 O 0.0654(4) 0.9337(9) 0.5504(3)
C2 C -0.1569(5) 0.5912(12) 0.6009(5)
O3 O 0.1915(4) 0.4181(9) 0.6206(3)
C3 C -0.1551(5) 0.7585(13) 0.5764(4)
H1 H -0.2016 0.8318 0.5680
O4 O -0.1717(4) 0.0947(9) 0.6662(3)
C4 C -0.0837(5) 0.8197(14) 0.5641(5)
H2 H -0.0826 0.9328 0.5458
C5 C -0.0154(5) 0.7137(11) 0.5787(4)
C6 C 0.0615(5) 0.7894(12) 0.5714(4)
C7 C 0.1299(5) 0.5052(13) 0.6117(4)
C8 C 0.0526(5) 0.4375(12) 0.6193(4)
C9 C 0.0510(5) 0.2709(12) 0.6429(4)
H3 H 0.0982 0.1994 0.6521
C10 C -0.0209(5) 0.2051(12) 0.6537(4)
H4 H -0.0214 0.0916 0.6717
C11 C -0.0905(5) 0.3091(11) 0.6375(4)
C12 C -0.1655(5) 0.2408(12) 0.6487(4)
C13 C -0.0886(5) 0.4816(12) 0.6139(4)
C14 C -0.0167(5) 0.5460(11) 0.6034(4)
O5 O -0.3708(5) 0.3305(13) 0.5270(4)
S1 S -0.26393(14) 0.2586(3) 0.79240(13)
C15 C -0.3804(6) 0.3298(19) 0.5856(6)
O6 O -0.4486(5) 0.358(3) 0.5965(6)
C16 C -0.3062(5) 0.3016(14) 0.6498(5)
H5 H -0.3005 0.1730 0.6568
C17 C -0.3171(6) 0.3766(17) 0.7156(5)
H6 H -0.3762 0.3783 0.7103
H7 H -0.2974 0.4982 0.7209
C18 C -0.2201(5) 0.4321(13) 0.8563(5)
C19 C -0.1696(6) 0.5562(14) 0.8261(5)
C20 C -0.1057(5) 0.4793(14) 0.8055(5)
H8 H -0.0964 0.3576 0.8097
C21 C -0.0578(6) 0.5839(13) 0.7792(5)
H9 H -0.0151 0.5336 0.7655
C22 C -0.0713(7) 0.7606(16) 0.7726(5)
H10 H -0.0384 0.8318 0.7541
C23 C -0.1323(6) 0.8323(18) 0.7929(5)
H11 H -0.1415 0.9541 0.7886
C24 C -0.1803(6) 0.7312(14) 0.8192(5)
H12 H -0.2222 0.7844 0.8330
C25 C -0.1693(5) 0.3291(13) 0.9206(5)
C26 C -0.0877(5) 0.3654(13) 0.9549(5)
H13 H -0.0605 0.4499 0.9363
C27 C -0.0452(6) 0.2826(14) 1.0149(5)
H14 H 0.0105 0.3109 1.0380
C28 C -0.0845(7) 0.1566(16) 1.0416(6)
H15 H -0.0555 0.0971 1.0828
C29 C -0.1652(7) 0.1183(15) 1.0081(6)
H16 H -0.1922 0.0323 1.0262
C30 C -0.2074(7) 0.2045(15) 0.9482(6)
H17 H -0.2634 0.1778 0.9256
C31 C -0.2849(6) 0.5335(14) 0.8780(5)
C32 C -0.2594(6) 0.6411(13) 0.9360(5)
H18 H -0.2028 0.6511 0.9611
C33 C -0.3158(7) 0.7322(16) 0.9569(6)
H19 H -0.2972 0.8040 0.9966
C34 C -0.3992(7) 0.7228(16) 0.9217(6)
H20 H -0.4370 0.7915 0.9356
C35 C -0.4254(7) 0.6142(19) 0.8675(6)
H21 H -0.4824 0.6036 0.8437
C36 C -0.3681(6) 0.5146(16) 0.8456(6)
H22 H -0.3874 0.4349 0.8085
O7 O 0.2105(4) 0.6281(11) 0.4961(3)
S2 S 0.20617(12) 0.8337(3) 0.73071(11)
C37 C 0.2500(7) 0.668(2) 0.5537(6)
O8 O 0.3303(5) 0.6178(14) 0.5826(4)
C38 C 0.2111(5) 0.7594(16) 0.6024(4)
H23 H 0.2016 0.8836 0.5876
C39 C 0.2668(5) 0.7567(15) 0.6784(4)
H24 H 0.3149 0.8331 0.6846
H25 H 0.2866 0.6372 0.6921
C40 C 0.2785(5) 0.9492(12) 0.8060(4)
C41 C 0.3412(5) 1.0544(12) 0.7826(4)
C42 C 0.4242(5) 1.0420(13) 0.8163(5)
H26 H 0.4440 0.9660 0.8546
C43 C 0.4796(6) 1.1404(18) 0.7943(6)
H27 H 0.5367 1.1324 0.8180
C44 C 0.4515(7) 1.2464(16) 0.7395(7)
H28 H 0.4888 1.3104 0.7233
C45 C 0.3676(6) 1.2618(17) 0.7067(6)
H29 H 0.3478 1.3426 0.6700
C46 C 0.3139(6) 1.1640(14) 0.7261(5)
H30 H 0.2571 1.1701 0.7010
C47 C 0.3218(5) 0.8254(13) 0.8640(4)
C48 C 0.3510(6) 0.8887(16) 0.9327(5)
H31 H 0.3385 1.0047 0.9417
C49 C 0.3968(6) 0.7875(17) 0.9867(6)
H32 H 0.4168 0.8346 1.0319
C50 C 0.4136(7) 0.6183(17) 0.9749(6)
H33 H 0.4443 0.5477 1.0123
C51 C 0.3863(6) 0.5505(14) 0.9098(6)
H34 H 0.3983 0.4330 0.9024
C52 C 0.3402(6) 0.6540(13) 0.8529(6)
H35 H 0.3222 0.6065 0.8077
C53 C 0.2180(5) 1.0620(12) 0.8282(5)
C54 C 0.1589(6) 0.9781(15) 0.8511(5)
H36 H 0.1588 0.8550 0.8546
C55 C 0.1012(6) 1.0745(15) 0.8685(5)
H37 H 0.0613 1.0155 0.8833
C56 C 0.0992(6) 1.2507(15) 0.8655(6)
H38 H 0.0585 1.3134 0.8778
C57 C 0.1588(6) 1.3407(16) 0.8436(5)
H39 H 0.1588 1.4640 0.8413
C58 C 0.2168(5) 1.2435(13) 0.8256(5)
H40 H 0.2569 1.3022 0.8111
O9 O 0.3957(10) 0.409(2) 0.5152(9)
C59 C 0.3786(15) 0.252(4) 0.5328(13)
C60? C 0.3727(15) 0.436(4) 0.4545(13)
C61? C 0.4642(14) 0.347(4) 0.3581(12)
O10? O 0.3771(10) 0.408(2) 0.3807(9)
O11? O 0.5144(10) 0.389(2) 0.4195(8)
loop_
_geom_bond_atom_site_label_1
_geom_bond_atom_site_label_2
_geom_bond_site_symmetry_1
_geom_bond_site_symmetry_2
N1 C1 1_555 1_555
O1 C1 1_555 1_555
C1 C2 1_555 1_555
N2 C6 1_555 1_555
O2 C6 1_555 1_555
C2 C3 1_555 1_555
O3 C7 1_555 1_555
C3 H1 1_555 1_555
O4 C12 1_555 1_555
C4 C3 1_555 1_555
H2 C4 1_555 1_555
C5 C4 1_555 1_555
C6 C5 1_555 1_555
C7 N2 1_555 1_555
C8 C7 1_555 1_555
C9 C8 1_555 1_555
H3 C9 1_555 1_555
C10 C9 1_555 1_555
H4 C10 1_555 1_555
C11 C10 1_555 1_555
C12 N1 1_555 1_555
C13 C2 1_555 1_555
C14 C5 1_555 1_555
O5 C15 1_555 1_555
S1 C17 1_555 1_555
C15 O6 1_555 1_555
C16 N1 1_555 1_555
H5 C16 1_555 1_555
C17 C16 1_555 1_555
H6 C17 1_555 1_555
H7 C17 1_555 1_555
C18 S1 1_555 1_555
C19 C18 1_555 1_555
C20 C19 1_555 1_555
H8 C20 1_555 1_555
C21 C20 1_555 1_555
H9 C21 1_555 1_555
C22 C21 1_555 1_555
H10 C22 1_555 1_555
C23 C22 1_555 1_555
H11 C23 1_555 1_555
C24 C19 1_555 1_555
H12 C24 1_555 1_555
C25 C18 1_555 1_555
C26 C25 1_555 1_555
H13 C26 1_555 1_555
C27 C26 1_555 1_555
H14 C27 1_555 1_555
C28 C27 1_555 1_555
H15 C28 1_555 1_555
C29 C28 1_555 1_555
H16 C29 1_555 1_555
C30 C25 1_555 1_555
H17 C30 1_555 1_555
C31 C18 1_555 1_555
C32 C31 1_555 1_555
H18 C32 1_555 1_555
C33 C32 1_555 1_555
H19 C33 1_555 1_555
C34 C33 1_555 1_555
H20 C34 1_555 1_555
C35 C34 1_555 1_555
H21 C35 1_555 1_555
C36 C31 1_555 1_555
H22 C36 1_555 1_555
O7 C37 1_555 1_555
S2 C39 1_555 1_555
C37 O8 1_555 1_555
C38 N2 1_555 1_555
H23 C38 1_555 1_555
C39 C38 1_555 1_555
H24 C39 1_555 1_555
H25 C39 1_555 1_555
C40 S2 1_555 1_555
C41 C40 1_555 1_555
C42 C41 1_555 1_555
H26 C42 1_555 1_555
C43 C42 1_555 1_555
H27 C43 1_555 1_555
C44 C43 1_555 1_555
H28 C44 1_555 1_555
C45 C44 1_555 1_555
H29 C45 1_555 1_555
C46 C41 1_555 1_555
H30 C46 1_555 1_555
C47 C40 1_555 1_555
C48 C47 1_555 1_555
H31 C48 1_555 1_555
C49 C48 1_555 1_555
H32 C49 1_555 1_555
C50 C49 1_555 1_555
H33 C50 1_555 1_555
C51 C50 1_555 1_555
H34 C51 1_555 1_555
C52 C47 1_555 1_555
H35 C52 1_555 1_555
C53 C40 1_555 1_555
C54 C53 1_555 1_555
H36 C54 1_555 1_555
C55 C54 1_555 1_555
H37 C55 1_555 1_555
C56 C55 1_555 1_555
H38 C56 1_555 1_555
C57 C56 1_555 1_555
H39 C57 1_555 1_555
C58 C53 1_555 1_555
H40 C58 1_555 1_555
O9 C59 1_555 1_555
C8 C14 1_555 1_555
C11 C12 1_555 1_555
C11 C13 1_555 1_555
C13 C14 1_555 1_555
C15 C16 1_555 1_555
C23 C24 1_555 1_555
C29 C30 1_555 1_555
C35 C36 1_555 1_555
C37 C38 1_555 1_555
C45 C46 1_555 1_555
C51 C52 1_555 1_555
C57 C58 1_555 1_555

#END
