
#######################################################################
#
#                 Cambridge Crystallographic Data Centre
#                                CCDC 
#
#######################################################################
#
# If this CIF has been generated from an entry in the Cambridge 
# Structural Database, then it will include bibliographic, chemical, 
# crystal, experimental, refinement or atomic coordinate data resulting 
# from the CCDC's data processing and validation procedures.
#
#######################################################################

data_YAQBIE
_chemical_formula_moiety         'C20 H15 N1 O1'
_chemical_name_systematic        
5-phenyl-11H-pyrrolo[2,1-b][3]benzazepine-1-carbaldehyde
_symmetry_cell_setting           triclinic
_symmetry_space_group_name_H-M   'P -1'
_symmetry_Int_Tables_number      2
_space_group_name_Hall           '-P 1'
loop_
_symmetry_equiv_pos_site_id
_symmetry_equiv_pos_as_xyz
1 x,y,z
2 -x,-y,-z
_cell_length_a                   8.9477(6)
_cell_length_b                   9.8191(6)
_cell_length_c                   10.1325(6)
_cell_angle_alpha                100.835(3)
_cell_angle_beta                 102.579(3)
_cell_angle_gamma                115.911(3)
_cell_volume                     739.748
_exptl_crystal_colour            white
_exptl_crystal_description       block
_cell_formula_units_Z            2
loop_
_atom_site_label
_atom_site_type_symbol
_atom_site_fract_x
_atom_site_fract_y
_atom_site_fract_z
O1 O -0.1069(2) 0.17940(18) 0.3996(2)
N1 N 0.40523(18) 0.65551(15) 0.53166(15)
C1 C 0.2408(2) 0.5683(2) 0.42982(19)
C2 C 0.1896(2) 0.6302(2) 0.31535(19)
H1 H 0.2045 0.7344 0.3580
H2 H 0.0659 0.5587 0.2584
C3 C 0.3004(2) 0.6440(2) 0.22047(19)
C4 C 0.2290(3) 0.5504(2) 0.0777(2)
H3 H 0.1110 0.4702 0.0406
C5 C 0.3296(3) 0.5741(3) -0.0099(2)
H4 H 0.2797 0.5099 -0.1051
C6 C 0.5036(3) 0.6926(2) 0.0436(2)
H5 H 0.5709 0.7112 -0.0161
C7 C 0.5780(3) 0.7833(2) 0.1850(2)
H6 H 0.6960 0.8632 0.2205
C8 C 0.4800(2) 0.75815(19) 0.27716(18)
C9 C 0.5695(2) 0.8517(2) 0.42827(19)
H7 H 0.6571 0.9567 0.4482
C10 C 0.5437(2) 0.80833(18) 0.54243(18)
C11 C 0.6607(2) 0.91404(19) 0.68948(18)
C12 C 0.8424(3) 0.9953(2) 0.7216(2)
H8 H 0.8904 0.9811 0.6509
C13 C 0.9522(3) 1.0970(3) 0.8577(2)
H9 H 1.0738 1.1515 0.8777
C14 C 0.8849(3) 1.1187(2) 0.9635(2)
H10 H 0.9601 1.1864 1.0554
C15 C 0.7060(3) 1.0401(2) 0.9333(2)
H11 H 0.6593 1.0554 1.0046
C16 C 0.5948(3) 0.9385(2) 0.7979(2)
H12 H 0.4734 0.8854 0.7787
C17 C 0.4207(3) 0.5685(2) 0.6227(2)
H13 H 0.5199 0.6011 0.7006
C18 C 0.2678(3) 0.4296(2) 0.5786(2)
H14 H 0.2430 0.3495 0.6208
C19 C 0.1509(2) 0.4260(2) 0.4566(2)
C20 C -0.0290(3) 0.3029(2) 0.3758(3)
H15 H -0.0898 0.3198 0.2996
loop_
_geom_bond_atom_site_label_1
_geom_bond_atom_site_label_2
_geom_bond_site_symmetry_1
_geom_bond_site_symmetry_2
O1 C20 1_555 1_555
N1 C1 1_555 1_555
C1 C2 1_555 1_555
C2 H1 1_555 1_555
H2 C2 1_555 1_555
C3 C2 1_555 1_555
C4 C3 1_555 1_555
H3 C4 1_555 1_555
C5 C4 1_555 1_555
H4 C5 1_555 1_555
C6 C5 1_555 1_555
H5 C6 1_555 1_555
C7 C6 1_555 1_555
H6 C7 1_555 1_555
C8 C3 1_555 1_555
C9 C8 1_555 1_555
H7 C9 1_555 1_555
C10 N1 1_555 1_555
C11 C10 1_555 1_555
C12 C11 1_555 1_555
H8 C12 1_555 1_555
C13 C12 1_555 1_555
H9 C13 1_555 1_555
C14 C13 1_555 1_555
H10 C14 1_555 1_555
C15 C14 1_555 1_555
H11 C15 1_555 1_555
C16 C11 1_555 1_555
H12 C16 1_555 1_555
C17 N1 1_555 1_555
H13 C17 1_555 1_555
C18 C17 1_555 1_555
H14 C18 1_555 1_555
C19 C1 1_555 1_555
C20 C19 1_555 1_555
H15 C20 1_555 1_555
C7 C8 1_555 1_555
C9 C10 1_555 1_555
C15 C16 1_555 1_555
C18 C19 1_555 1_555

#END
