
#######################################################################
#
#                 Cambridge Crystallographic Data Centre
#                                CCDC 
#
#######################################################################
#
# If this CIF has been generated from an entry in the Cambridge 
# Structural Database, then it will include bibliographic, chemical, 
# crystal, experimental, refinement or atomic coordinate data resulting 
# from the CCDC's data processing and validation procedures.
#
#######################################################################

data_YAQBAW
_chemical_formula_moiety         'C18 H10 F4 O3'
_chemical_name_systematic        
6-fluoro-2-(2-methoxyphenyl)-3-(trifluoromethyl)-1,4-naphthoquinone
_symmetry_cell_setting           triclinic
_symmetry_space_group_name_H-M   'P -1'
_symmetry_Int_Tables_number      2
_space_group_name_Hall           '-P 1'
loop_
_symmetry_equiv_pos_site_id
_symmetry_equiv_pos_as_xyz
1 x,y,z
2 -x,-y,-z
_cell_length_a                   9.7735(3)
_cell_length_b                   12.0104(4)
_cell_length_c                   13.4634(5)
_cell_angle_alpha                106.2750(10)
_cell_angle_beta                 90.00
_cell_angle_gamma                90.065(2)
_cell_volume                     1517.05
_exptl_crystal_colour            yellow
_exptl_crystal_description       noodle
_cell_formula_units_Z            4
loop_
_atom_site_label
_atom_site_type_symbol
_atom_site_fract_x
_atom_site_fract_y
_atom_site_fract_z
C1 C 0.1256(4) 0.0686(4) -0.1436(4)
H1 H 0.0935 0.0333 -0.0922
H2 H 0.1532 0.0093 -0.2043
H3 H 0.0535 0.1139 -0.1612
C2 C 0.2981(3) 0.1996(2) -0.1666(2)
C3 C 0.4139(3) 0.2634(2) -0.12475(18)
C4 C 0.4836(3) 0.3252(3) -0.1814(2)
H4 H 0.5605 0.3682 -0.1533
C5 C 0.4399(4) 0.3236(3) -0.2798(2)
H5 H 0.4869 0.3654 -0.3175
C6 C 0.3268(4) 0.2598(3) -0.3206(2)
H6 H 0.2980 0.2582 -0.3869
C7 C 0.2544(3) 0.1977(3) -0.2659(2)
H7 H 0.1776 0.1551 -0.2948
C8 C 0.4562(2) 0.2660(2) -0.01769(18)
C9 C 0.3809(3) 0.3555(2) 0.06560(19)
C10 C 0.5187(3) 0.2912(3) 0.3038(2)
H8 H 0.5851 0.2454 0.3224
C11 C 0.4988(3) 0.2873(2) 0.20003(19)
C12 C 0.5851(3) 0.2090(2) 0.1193(2)
C13 C 0.5511(2) 0.1987(2) 0.00838(19)
C14 C 0.4013(3) 0.3580(2) 0.17424(19)
C15 C 0.3219(3) 0.4323(3) 0.2518(2)
H9 H 0.2564 0.4798 0.2344
C16 C 0.3413(4) 0.4348(3) 0.3544(2)
H10 H 0.2894 0.4835 0.4067
C17 C 0.4393(4) 0.3632(3) 0.3769(2)
C18 C 0.6331(3) 0.1062(3) -0.0702(2)
O1 O 0.6806(2) 0.1567(2) 0.14119(18)
O2 O 0.3060(3) 0.4236(2) 0.04112(16)
O3 O 0.2390(2) 0.1417(2) -0.10384(17)
F1 F 0.7622(2) 0.1371(2) -0.0706(2)
F2 F 0.6311(2) 0.00615(16) -0.04825(18)
F3 F 0.5894(3) 0.0867(2) -0.16582(16)
F4 F 0.4560(3) 0.3654(2) 0.47692(14)
C19 C 0.6173(3) 0.0759(3) 0.4368(3)
H11 H 0.5828 0.0393 0.3687
H12 H 0.5479 0.1253 0.4767
H13 H 0.6419 0.0177 0.4699
C20 C 0.7977(3) 0.2029(2) 0.5194(2)
C21 C 0.7573(3) 0.2016(3) 0.6185(2)
H14 H 0.6815 0.1584 0.6273
C22 C 0.8306(3) 0.2650(3) 0.7034(2)
H15 H 0.8038 0.2639 0.7694
C23 C 0.9420(3) 0.3292(3) 0.6919(2)
H16 H 0.9903 0.3714 0.7497
C24 C 0.9826(3) 0.3313(3) 0.5937(2)
H17 H 1.0580 0.3755 0.5860
C25 C 0.9115(2) 0.2677(2) 0.50682(19)
C26 C 0.9517(2) 0.2698(2) 0.40059(18)
C27 C 1.0469(2) 0.2026(2) 0.3408(2)
C28 C 1.0800(3) 0.2120(2) 0.2346(2)
C29 C 0.9942(3) 0.2912(2) 0.19306(19)
C30 C 0.8962(3) 0.3616(2) 0.25511(19)
C31 C 0.8757(3) 0.3584(2) 0.36234(19)
C32 C 0.8158(3) 0.4351(3) 0.2141(2)
H18 H 0.7490 0.4816 0.2546
C33 C 1.0152(3) 0.2948(3) 0.0914(2)
H19 H 1.0818 0.2493 0.0499
C34 C 0.8364(4) 0.4380(3) 0.1133(3)
H20 H 0.7847 0.4869 0.0855
C35 C 0.9346(4) 0.3672(3) 0.0549(2)
C36 C 1.1275(3) 0.1103(2) 0.3722(2)
O4 O 0.7997(2) 0.4267(2) 0.42071(16)
O5 O 1.1729(3) 0.1575(3) 0.1850(2)
O6 O 0.7349(2) 0.14366(19) 0.42947(16)
F5 F 0.9530(3) 0.3690(2) -0.04444(15)
F6 F 1.1221(3) 0.01024(17) 0.3025(2)
F7 F 1.0902(3) 0.0936(2) 0.4605(2)
F8 F 1.2587(2) 0.1390(2) 0.3853(2)
loop_
_geom_bond_atom_site_label_1
_geom_bond_atom_site_label_2
_geom_bond_site_symmetry_1
_geom_bond_site_symmetry_2
C1 H1 1_555 1_555
H2 C1 1_555 1_555
H3 C1 1_555 1_555
C2 C3 1_555 1_555
C3 C4 1_555 1_555
C4 H4 1_555 1_555
C5 C4 1_555 1_555
H5 C5 1_555 1_555
C6 C5 1_555 1_555
H6 C6 1_555 1_555
C7 C2 1_555 1_555
H7 C7 1_555 1_555
C8 C3 1_555 1_555
C9 C8 1_555 1_555
C10 H8 1_555 1_555
C11 C10 1_555 1_555
C12 C11 1_555 1_555
C13 C8 1_555 1_555
C14 C9 1_555 1_555
C15 C14 1_555 1_555
H9 C15 1_555 1_555
C16 C15 1_555 1_555
H10 C16 1_555 1_555
C17 C10 1_555 1_555
C18 C13 1_555 1_555
O1 C12 1_555 1_555
O2 C9 1_555 1_555
O3 C1 1_555 1_555
F1 C18 1_555 1_555
F2 C18 1_555 1_555
F3 C18 1_555 1_555
F4 C17 1_555 1_555
C19 H11 1_555 1_555
H12 C19 1_555 1_555
H13 C19 1_555 1_555
C20 C21 1_555 1_555
C21 H14 1_555 1_555
C22 C21 1_555 1_555
H15 C22 1_555 1_555
C23 C22 1_555 1_555
H16 C23 1_555 1_555
C24 C23 1_555 1_555
H17 C24 1_555 1_555
C25 C20 1_555 1_555
C26 C25 1_555 1_555
C27 C26 1_555 1_555
C28 C27 1_555 1_555
C29 C28 1_555 1_555
C30 C29 1_555 1_555
C31 C26 1_555 1_555
C32 C30 1_555 1_555
H18 C32 1_555 1_555
C33 C29 1_555 1_555
H19 C33 1_555 1_555
C34 C32 1_555 1_555
H20 C34 1_555 1_555
C35 C33 1_555 1_555
C36 C27 1_555 1_555
O4 C31 1_555 1_555
O5 C28 1_555 1_555
O6 C19 1_555 1_555
F5 C35 1_555 1_555
F6 C36 1_555 1_555
F7 C36 1_555 1_555
F8 C36 1_555 1_555
C2 O3 1_555 1_555
C6 C7 1_555 1_555
C11 C14 1_555 1_555
C12 C13 1_555 1_555
C16 C17 1_555 1_555
C20 O6 1_555 1_555
C24 C25 1_555 1_555
C30 C31 1_555 1_555
C34 C35 1_555 1_555

#END
