
#######################################################################
#
#                 Cambridge Crystallographic Data Centre
#                                CCDC 
#
#######################################################################
#
# If this CIF has been generated from an entry in the Cambridge 
# Structural Database, then it will include bibliographic, chemical, 
# crystal, experimental, refinement or atomic coordinate data resulting 
# from the CCDC's data processing and validation procedures.
#
#######################################################################

data_YAQWAR
_chemical_formula_moiety         'C14 H13 F2 N3 O1'
_chemical_name_systematic        
(2R,3S)-2-(2,4-difluorophenyl)-3-methyl-1-(1H-1,2,4-triazol-1-yl)pent-4-yn-2-ol
_symmetry_cell_setting           orthorhombic
_symmetry_space_group_name_H-M   'P 21 21 21'
_symmetry_Int_Tables_number      19
_space_group_name_Hall           'P 2ac 2ab'
loop_
_symmetry_equiv_pos_site_id
_symmetry_equiv_pos_as_xyz
1 x,y,z
2 1/2-x,-y,1/2+z
3 -x,1/2+y,1/2-z
4 1/2+x,1/2-y,-z
_cell_length_a                   9.0806(7)
_cell_length_b                   10.9935(8)
_cell_length_c                   13.7050(10)
_cell_angle_alpha                90
_cell_angle_beta                 90
_cell_angle_gamma                90
_cell_volume                     1368.14
_exptl_crystal_colour            colorless
_exptl_crystal_description       block
_cell_formula_units_Z            4
loop_
_atom_site_label
_atom_site_type_symbol
_atom_site_fract_x
_atom_site_fract_y
_atom_site_fract_z
N1 N 0.2041(2) 0.91414(18) 0.56150(13)
N2 N 0.0961(3) 0.9978(2) 0.56349(19)
N3 N 0.0321(3) 0.8436(3) 0.46724(19)
O1 O 0.3320(2) 0.72670(15) 0.68290(12)
H1 H 0.408(4) 0.715(3) 0.644(3)
F1 F 0.2326(2) 1.08336(14) 0.77816(13)
F2 F -0.1674(2) 0.9236(3) 0.94879(17)
C1 C -0.0035(3) 0.9500(3) 0.5059(2)
H2 H -0.0929 0.9880 0.4932
C2 C 0.1643(3) 0.8247(3) 0.5035(2)
H3 H 0.2221 0.7569 0.4899
C3 C 0.3372(2) 0.9289(2) 0.61958(16)
H4 H 0.3478 1.0136 0.6380
H5 H 0.4222 0.9065 0.5806
C4 C 0.3330(2) 0.8496(2) 0.71231(15)
C5 C 0.1944(2) 0.87007(19) 0.77236(15)
C6 C 0.1522(3) 0.9845(2) 0.80421(17)
C7 C 0.0311(3) 1.0047(3) 0.8623(2)
H6 H 0.0048 1.0828 0.8818
C8 C -0.0490(3) 0.9053(4) 0.8904(2)
C9 C -0.0151(3) 0.7901(3) 0.8623(2)
H7 H -0.0719 0.7243 0.8823
C10 C 0.1070(3) 0.7737(2) 0.80289(18)
H8 H 0.1312 0.6953 0.7828
C11 C 0.4698(3) 0.8778(3) 0.77795(18)
H9 H 0.4530 0.9569 0.8090
C12 C 0.6073(3) 0.8860(3) 0.7233(2)
C13 C 0.7229(4) 0.8944(5) 0.6859(3)
H10 H 0.8147 0.9011 0.6562
C14 C 0.4839(4) 0.7822(4) 0.8597(2)
H11 H 0.4852 0.7022 0.8316
H12 H 0.4017 0.7892 0.9034
H13 H 0.5737 0.7956 0.8951
loop_
_geom_bond_atom_site_label_1
_geom_bond_atom_site_label_2
_geom_bond_site_symmetry_1
_geom_bond_site_symmetry_2
N1 N2 1_555 1_555
N2 C1 1_555 1_555
N3 C1 1_555 1_555
O1 H1 1_555 1_555
F1 C6 1_555 1_555
F2 C8 1_555 1_555
C1 H2 1_555 1_555
C2 N1 1_555 1_555
H3 C2 1_555 1_555
C3 N1 1_555 1_555
H4 C3 1_555 1_555
H5 C3 1_555 1_555
C4 O1 1_555 1_555
C5 C4 1_555 1_555
C6 C5 1_555 1_555
C7 C6 1_555 1_555
H6 C7 1_555 1_555
C8 C7 1_555 1_555
C9 C8 1_555 1_555
H7 C9 1_555 1_555
C10 C5 1_555 1_555
H8 C10 1_555 1_555
C11 C4 1_555 1_555
H9 C11 1_555 1_555
C12 C11 1_555 1_555
C13 C12 1_555 1_555
H10 C13 1_555 1_555
C14 C11 1_555 1_555
H11 C14 1_555 1_555
H12 C14 1_555 1_555
H13 C14 1_555 1_555
N3 C2 1_555 1_555
C3 C4 1_555 1_555
C9 C10 1_555 1_555

#END
