
#######################################################################
#
#                 Cambridge Crystallographic Data Centre
#                                CCDC 
#
#######################################################################
#
# If this CIF has been generated from an entry in the Cambridge 
# Structural Database, then it will include bibliographic, chemical, 
# crystal, experimental, refinement or atomic coordinate data resulting 
# from the CCDC's data processing and validation procedures.
#
#######################################################################

data_YARHIK
_chemical_formula_moiety         'C19 H15 N3 O2 S1'
_chemical_name_systematic        
1-(4-Nitrophenyl)-2-(4-(phenylsulfanyl)benzylidene)hydrazine
_symmetry_cell_setting           monoclinic
_symmetry_space_group_name_H-M   'P 21'
_symmetry_Int_Tables_number      4
_space_group_name_Hall           'P 2yb'
loop_
_symmetry_equiv_pos_site_id
_symmetry_equiv_pos_as_xyz
1 x,y,z
2 -x,1/2+y,-z
_cell_length_a                   5.5734(8)
_cell_length_b                   28.393(4)
_cell_length_c                   11.0183(17)
_cell_angle_alpha                90
_cell_angle_beta                 94.397(4)
_cell_angle_gamma                90
_cell_volume                     1738.47
_cell_formula_units_Z            4
loop_
_atom_site_label
_atom_site_type_symbol
_atom_site_fract_x
_atom_site_fract_y
_atom_site_fract_z
S1 S 0.7900(4) 0.81394(6) 0.84926(15)
O1 O 0.7859(9) 0.4916(2) 0.0921(4)
O2 O 0.4896(10) 0.44129(17) 0.1043(4)
N1 N 0.3790(7) 0.61966(14) 0.5589(4)
N2 N 0.2611(7) 0.58073(15) 0.5154(4)
H1 H 0.1325 0.5717 0.5470
N3 N 0.6057(11) 0.4766(2) 0.1372(5)
C1 C 0.6466(12) 0.7632(2) 0.7892(5)
C2 C 0.4386(12) 0.7478(2) 0.8346(5)
H3 H 0.3702 0.7650 0.8948
C3 C 0.3299(10) 0.7068(2) 0.7918(5)
H4 H 0.1926 0.6961 0.8262
C4 C 0.4199(9) 0.68114(18) 0.6989(4)
C5 C 0.6324(10) 0.6972(2) 0.6525(5)
H5 H 0.6980 0.6804 0.5907
C6 C 0.7432(11) 0.7366(2) 0.6960(5)
H6 H 0.8849 0.7464 0.6643
C7 C 0.8868(11) 0.84348(19) 0.7227(5)
C8 C 1.1045(12) 0.8679(2) 0.7355(6)
H7 H 1.1989 0.8668 0.8088
C9 C 1.1797(13) 0.8937(2) 0.6384(8)
H8 H 1.3185 0.9119 0.6487
C10 C 1.0522(13) 0.8926(2) 0.5289(6)
H9 H 1.1069 0.9088 0.4630
C11 C 0.8422(12) 0.8675(2) 0.5158(6)
H10 H 0.7550 0.8668 0.4404
C12 C 0.7595(10) 0.8439(2) 0.6093(6)
H11 H 0.6148 0.8276 0.5981
C13 C 0.2971(9) 0.63997(19) 0.6486(5)
H12 H 0.1600 0.6286 0.6818
C14 C 0.3463(9) 0.55534(19) 0.4202(5)
C15 C 0.2290(10) 0.5158(2) 0.3836(5)
H13 H 0.0930 0.5066 0.4214
C16 C 0.3103(10) 0.4882(2) 0.2881(5)
H14 H 0.2345 0.4603 0.2626
C17 C 0.5113(11) 0.5054(2) 0.2350(5)
C18 C 0.6317(10) 0.5454(2) 0.2693(5)
H15 H 0.7661 0.5551 0.2308
C19 C 0.5454(9) 0.5720(2) 0.3661(4)
H16 H 0.6206 0.5999 0.3923
S2 S 0.2202(4) 0.21233(7) 0.65599(14)
O3 O 1.8409(8) 0.53266(18) 0.6162(4)
O4 O 1.8112(8) 0.58290(18) 0.7612(5)
N4 N 0.9028(8) 0.40552(15) 0.8143(4)
N5 N 0.9908(8) 0.44500(15) 0.8746(4)
H2 H 0.9293 0.4542 0.9398
N6 N 1.7500(8) 0.5477(2) 0.7055(5)
C20 C 0.3666(11) 0.26258(19) 0.7190(4)
C21 C 0.5724(11) 0.2779(2) 0.6689(5)
H17 H 0.6328 0.2608 0.6062
C22 C 0.6904(11) 0.3184(2) 0.7105(5)
H18 H 0.8268 0.3288 0.6747
C23 C 0.6034(10) 0.34345(19) 0.8059(5)
C24 C 0.3964(10) 0.3285(2) 0.8533(5)
H19 H 0.3349 0.3454 0.9162
C25 C 0.2777(11) 0.2886(2) 0.8092(6)
H20 H 0.1356 0.2795 0.8415
C26 C 0.1297(10) 0.18170(19) 0.7838(5)
C27 C -0.0759(11) 0.1554(2) 0.7689(6)
H21 H -0.1667 0.1555 0.6945
C28 C -0.1493(12) 0.1287(2) 0.8637(7)
H22 H -0.2916 0.1115 0.8530
C29 C -0.0195(13) 0.1269(2) 0.9706(6)
H23 H -0.0705 0.1083 1.0331
C30 C 0.1936(11) 0.1532(2) 0.9891(6)
H24 H 0.2838 0.1525 1.0637
C31 C 0.2657(10) 0.1797(2) 0.8947(6)
H25 H 0.4083 0.1968 0.9050
C32 C 0.7169(10) 0.3856(2) 0.8576(5)
H26 H 0.6538 0.3991 0.9251
C33 C 1.1801(9) 0.47014(18) 0.8299(4)
C34 C 1.2800(11) 0.4548(2) 0.7281(5)
H27 H 1.2239 0.4279 0.6869
C35 C 1.4740(9) 0.4816(2) 0.6877(5)
H28 H 1.5494 0.4725 0.6189
C36 C 1.5465(10) 0.52032(19) 0.7506(5)
C37 C 1.4495(10) 0.53618(18) 0.8494(5)
H29 H 1.5071 0.5633 0.8891
C38 C 1.2537(11) 0.5101(2) 0.8923(5)
H30 H 1.1785 0.5199 0.9605
loop_
_geom_bond_atom_site_label_1
_geom_bond_atom_site_label_2
_geom_bond_site_symmetry_1
_geom_bond_site_symmetry_2
S1 C1 1_555 1_555
S2 C20 1_555 1_555
O1 N3 1_555 1_555
O2 N3 1_555 1_555
O3 N6 1_555 1_555
O4 N6 1_555 1_555
N1 N2 1_555 1_555
N2 H1 1_555 1_555
N3 C17 1_555 1_555
N4 N5 1_555 1_555
N5 H2 1_555 1_555
N6 C36 1_555 1_555
C1 C2 1_555 1_555
C2 H3 1_555 1_555
C3 C2 1_555 1_555
H4 C3 1_555 1_555
C4 C3 1_555 1_555
C5 C4 1_555 1_555
H5 C5 1_555 1_555
C6 C1 1_555 1_555
H6 C6 1_555 1_555
C7 S1 1_555 1_555
C8 C7 1_555 1_555
H7 C8 1_555 1_555
C9 C8 1_555 1_555
H8 C9 1_555 1_555
C10 C9 1_555 1_555
H9 C10 1_555 1_555
C11 C10 1_555 1_555
H10 C11 1_555 1_555
C12 C7 1_555 1_555
H11 C12 1_555 1_555
C13 N1 1_555 1_555
H12 C13 1_555 1_555
C14 N2 1_555 1_555
C15 C14 1_555 1_555
H13 C15 1_555 1_555
C16 C15 1_555 1_555
H14 C16 1_555 1_555
C17 C16 1_555 1_555
C18 C17 1_555 1_555
H15 C18 1_555 1_555
C19 C14 1_555 1_555
H16 C19 1_555 1_555
C20 C21 1_555 1_555
C21 H17 1_555 1_555
C22 C21 1_555 1_555
H18 C22 1_555 1_555
C23 C22 1_555 1_555
C24 C23 1_555 1_555
H19 C24 1_555 1_555
C25 C20 1_555 1_555
H20 C25 1_555 1_555
C26 S2 1_555 1_555
C27 C26 1_555 1_555
H21 C27 1_555 1_555
C28 C27 1_555 1_555
H22 C28 1_555 1_555
C29 C28 1_555 1_555
H23 C29 1_555 1_555
C30 C29 1_555 1_555
H24 C30 1_555 1_555
C31 C26 1_555 1_555
H25 C31 1_555 1_555
C32 N4 1_555 1_555
H26 C32 1_555 1_555
C33 N5 1_555 1_555
C34 C33 1_555 1_555
H27 C34 1_555 1_555
C35 C34 1_555 1_555
H28 C35 1_555 1_555
C36 C35 1_555 1_555
C37 C36 1_555 1_555
H29 C37 1_555 1_555
C38 C33 1_555 1_555
H30 C38 1_555 1_555
C4 C13 1_555 1_555
C5 C6 1_555 1_555
C11 C12 1_555 1_555
C18 C19 1_555 1_555
C23 C32 1_555 1_555
C24 C25 1_555 1_555
C30 C31 1_555 1_555
C37 C38 1_555 1_555

#END
