
#######################################################################
#
#                 Cambridge Crystallographic Data Centre
#                                CCDC 
#
#######################################################################
#
# If this CIF has been generated from an entry in the Cambridge 
# Structural Database, then it will include bibliographic, chemical, 
# crystal, experimental, refinement or atomic coordinate data resulting 
# from the CCDC's data processing and validation procedures.
#
#######################################################################

data_YARMUC
_chemical_formula_moiety         'C36 H18 N12 O6,3(C3 H6 O1)'
_chemical_name_systematic        
'2,13,18,29,34,45-hexaoxa-15,16,31,32,47,48,49,50,51,52,53,54-dodecaazadecacyclo[44.2.2.2^14,17^.2^30,33^.0^3,8^.0^7,12^.0^19,24^.0^23,28^.0^35,40^.0^39,44^]tetrapentaconta-1(48),3,5,7,9,11,14,16,19,21,23,25,27,30,32,35,37,39,41,43,46,49,51,53-tetracosaene acetone solvate'
_symmetry_cell_setting           orthorhombic
_symmetry_space_group_name_H-M   'P n a 21'
_symmetry_Int_Tables_number      33
_space_group_name_Hall           'P 2c -2n'
loop_
_symmetry_equiv_pos_site_id
_symmetry_equiv_pos_as_xyz
1 x,y,z
2 -x,-y,1/2+z
3 1/2+x,1/2-y,z
4 1/2-x,1/2+y,1/2+z
_cell_length_a                   24.673(5)
_cell_length_b                   7.0365(14)
_cell_length_c                   25.163(5)
_cell_angle_alpha                90
_cell_angle_beta                 90
_cell_angle_gamma                90
_cell_volume                     4368.59
_exptl_crystal_colour            red
_exptl_crystal_description       block
_cell_formula_units_Z            4
loop_
_atom_site_label
_atom_site_type_symbol
_atom_site_fract_x
_atom_site_fract_y
_atom_site_fract_z
O1 O -0.6429(4) -1.1338(15) -0.1599(4)
O2 O -0.6411(4) -1.1315(14) -0.3652(3)
O3 O -0.4365(7) -0.886(2) -0.4831(6)
O4 O -0.3144(6) -0.366(2) -0.3906(5)
O5 O -0.2812(6) -0.520(2) -0.1527(5)
O6 O -0.4387(4) -0.8609(14) -0.0486(3)
N1 N -0.6705(4) -1.2606(15) -0.2378(5)
N2 N -0.6721(4) -1.2605(14) -0.2894(4)
N3 N -0.6035(5) -1.0173(18) -0.2904(4)
N4 N -0.6064(4) -1.0121(15) -0.2379(4)
N5 N -0.3816(11) -0.628(4) -0.4831(12)
N6 N -0.3491(8) -0.502(2) -0.4633(6)
N7 N -0.3834(7) -0.601(3) -0.3793(7)
N8 N -0.4134(12) -0.731(4) -0.4009(10)
N9 N -0.3316(8) -0.518(3) -0.0775(7)
N10 N -0.3682(9) -0.611(4) -0.0514(8)
N11 N -0.4076(12) -0.749(4) -0.1266(10)
N12 N -0.3707(9) -0.650(3) -0.1536(11)
C1 C -0.6391(5) -1.1222(17) -0.2154(5)
C2 C -0.6387(6) -1.1451(19) -0.3135(5)
C3 C -0.6095(5) -0.9953(19) -0.3942(5)
C4 C -0.6321(5) -0.8188(19) -0.4061(5)
H1 H -0.6683 -0.7846 -0.3976
C5 C -0.5959(5) -0.698(2) -0.4317(6)
H2 H -0.6063 -0.5687 -0.4355
C6 C -0.5463(5) -0.751(2) -0.4521(5)
H3 H -0.5278 -0.6684 -0.4759
C7 C -0.5225(5) -0.9286(17) -0.4379(4)
C8 C -0.4712(5) -0.9852(18) -0.4509(5)
C9 C -0.4513(7) -1.153(2) -0.4370(7)
H4 H -0.4143 -1.1827 -0.4436
C10 C -0.4856(7) -1.286(2) -0.4123(6)
H5 H -0.4734 -1.4123 -0.4071
C11 C -0.5377(6) -1.2334(19) -0.3952(6)
H6 H -0.5601 -1.3209 -0.3766
C12 C -0.5559(5) -1.0491(16) -0.4064(4)
C13 C -0.4100(12) -0.753(4) -0.4537(9)
C14 C -0.3493(7) -0.498(3) -0.4101(6)
C15 C -0.3169(9) -0.334(3) -0.3359(7)
C16 C -0.3399(10) -0.164(3) -0.3213(9)
H7 H -0.3514 -0.0767 -0.3478
C17 C -0.3462(11) -0.119(5) -0.2688(9)
H8 H -0.3652 -0.0085 -0.2580
C18 C -0.3238(9) -0.244(3) -0.2318(9)
H9 H -0.3262 -0.2054 -0.1957
C19 C -0.2979(10) -0.420(3) -0.2414(10)
C20 C -0.2763(10) -0.559(3) -0.2077(7)
C21 C -0.2536(9) -0.730(3) -0.2252(10)
H10 H -0.2447 -0.8286 -0.2009
C22 C -0.2446(10) -0.749(4) -0.2791(11)
H11 H -0.2222 -0.8492 -0.2920
C23 C -0.2688(10) -0.621(4) -0.3149(9)
H12 H -0.2661 -0.6435 -0.3521
C24 C -0.2968(10) -0.461(3) -0.2963(9)
C25 C -0.3310(8) -0.556(3) -0.1299(7)
C26 C -0.4077(16) -0.723(5) -0.0736(10)
C27 C -0.4722(6) -0.984(2) -0.0797(5)
C28 C -0.4527(7) -1.163(2) -0.0900(7)
H13 H -0.4187 -1.1998 -0.0756
C29 C -0.4816(7) -1.291(2) -0.1210(7)
H14 H -0.4654 -1.4062 -0.1327
C30 C -0.5348(6) -1.247(2) -0.1345(6)
H15 H -0.5560 -1.3336 -0.1545
C31 C -0.5579(5) -1.0645(16) -0.1174(4)
C32 C -0.6081(6) -1.003(2) -0.1333(5)
C33 C -0.6246(5) -0.841(2) -0.1183(5)
H16 H -0.6604 -0.8068 -0.1286
C34 C -0.5961(5) -0.707(2) -0.0884(5)
H17 H -0.6130 -0.5944 -0.0760
C35 C -0.5454(5) -0.7443(19) -0.0781(4)
H18 H -0.5227 -0.6518 -0.0619
C36 C -0.5244(5) -0.9302(17) -0.0921(4)
O10 O -0.3015(5) 0.0811(17) -0.1008(4)
C51 C -0.2936(6) -0.0807(19) -0.0196(5)
H25 H -0.2629 -0.0794 0.0051
H26 H -0.3091 -0.2088 -0.0209
H27 H -0.3212 0.0093 -0.0073
C52 C -0.2746(6) -0.024(2) -0.0741(5)
C53 C -0.2219(5) -0.1201(19) -0.0905(5)
H28 H -0.2244 -0.2569 -0.0837
H29 H -0.1918 -0.0667 -0.0699
H30 H -0.2155 -0.0983 -0.1285
O11 O -0.2927(5) -0.8879(16) -0.4294(4)
C54 C -0.2950(5) -1.0777(19) -0.5070(4)
H31 H -0.3297 -1.0129 -0.5128
H32 H -0.3007 -1.2155 -0.5076
H33 H -0.2696 -1.0423 -0.5353
C55 C -0.2726(5) -1.0213(18) -0.4553(4)
C56 C -0.2241(4) -1.1057(18) -0.4326(5)
H34 H -0.2147 -1.0394 -0.3996
H35 H -0.1941 -1.0943 -0.4580
H36 H -0.2308 -1.2402 -0.4250
O12 O -0.5580(4) -0.4521(17) -0.2596(8)
C57 C -0.4966(6) -0.706(2) -0.2503(8)
H37 H -0.4651 -0.7479 -0.2710
H38 H -0.5273 -0.7909 -0.2576
H39 H -0.4879 -0.7109 -0.2124
C58 C -0.5119(5) -0.499(2) -0.2662(11)
C59 C -0.4636(5) -0.374(2) -0.2675(12)
H40 H -0.4549 -0.3421 -0.3044
H41 H -0.4328 -0.4402 -0.2513
H42 H -0.4712 -0.2573 -0.2476
O7? O -0.3117(6) -0.393(2) -0.1368(5)
C37? C -0.3175(9) -0.340(3) -0.1914(7)
C38? C -0.3400(10) -0.171(3) -0.2064(9)
H19? H -0.3565 -0.0885 -0.1812
C39? C -0.3378(12) -0.125(5) -0.2593(9)
H20? H -0.3484 0.0008 -0.2686
C40? C -0.3216(11) -0.241(3) -0.3006(10)
H21? H -0.3250 -0.2139 -0.3374
C41? C -0.2992(10) -0.409(3) -0.2784(10)
C42? C -0.2928(10) -0.466(3) -0.2258(8)
C43? C -0.2678(10) -0.641(4) -0.2114(9)
H22? H -0.2651 -0.6797 -0.1754
C44? C -0.2477(10) -0.750(4) -0.2519(12)
H23? H -0.2302 -0.8669 -0.2441
C45? C -0.2529(11) -0.689(4) -0.3055(11)
H24? H -0.2357 -0.7582 -0.3332
C46? C -0.2828(11) -0.531(4) -0.3170(8)
O8? O -0.2859(7) -0.499(3) -0.3729(6)
C47? C -0.3290(8) -0.588(3) -0.3992(7)
N13? N -0.3334(8) -0.544(3) -0.4508(7)
N14? N -0.3671(7) -0.661(3) -0.3670(7)
N15? N -0.3713(12) -0.612(5) -0.4793(13)
N16? N -0.4062(12) -0.746(5) -0.3950(11)
C48? C -0.4031(12) -0.718(4) -0.4475(10)
O9? O -0.4437(8) -0.816(2) -0.4762(8)
C49? C -0.3502(9) -0.512(3) -0.1129(8)
N17? N -0.3790(11) -0.600(3) -0.1503(11)
N18? N -0.4137(13) -0.709(4) -0.1275(11)
C50? C -0.4062(17) -0.747(5) -0.0769(10)
N19? N -0.3841(9) -0.645(3) -0.0370(8)
N20? N -0.3541(10) -0.520(3) -0.0596(8)
loop_
_geom_bond_atom_site_label_1
_geom_bond_atom_site_label_2
_geom_bond_site_symmetry_1
_geom_bond_site_symmetry_2
O1 C1 1_555 1_555
O2 C2 1_555 1_555
O3 C8 1_555 1_555
O4 C14 1_555 1_555
O5 C20 1_555 1_555
O6 C26 1_555 1_555
N1 N2 1_555 1_555
N2 C2 1_555 1_555
N3 N4 1_555 1_555
N4 C1 1_555 1_555
N5 N6 1_555 1_555
N6 C14 1_555 1_555
N7 N8 1_555 1_555
N8 C13 1_555 1_555
N9 N10 1_555 1_555
N10 C26 1_555 1_555
N11 N12 1_555 1_555
N12 C25 1_555 1_555
C1 N1 1_555 1_555
C2 N3 1_555 1_555
C3 O2 1_555 1_555
C4 C3 1_555 1_555
H1 C4 1_555 1_555
C5 C4 1_555 1_555
H2 C5 1_555 1_555
C6 C5 1_555 1_555
H3 C6 1_555 1_555
C7 C6 1_555 1_555
C8 C7 1_555 1_555
C9 C8 1_555 1_555
H4 C9 1_555 1_555
C10 C9 1_555 1_555
H5 C10 1_555 1_555
C11 C10 1_555 1_555
H6 C11 1_555 1_555
C12 C3 1_555 1_555
C13 O3 1_555 1_555
C14 N7 1_555 1_555
C15 O4 1_555 1_555
C16 C15 1_555 1_555
H7 C16 1_555 1_555
C17 C16 1_555 1_555
H8 C17 1_555 1_555
C18 C17 1_555 1_555
H9 C18 1_555 1_555
C19 C18 1_555 1_555
C20 C19 1_555 1_555
C21 C20 1_555 1_555
H10 C21 1_555 1_555
C22 C21 1_555 1_555
H11 C22 1_555 1_555
C23 C22 1_555 1_555
H12 C23 1_555 1_555
C24 C15 1_555 1_555
C25 O5 1_555 1_555
C26 N11 1_555 1_555
C27 O6 1_555 1_555
C28 C27 1_555 1_555
H13 C28 1_555 1_555
C29 C28 1_555 1_555
H14 C29 1_555 1_555
C30 C29 1_555 1_555
H15 C30 1_555 1_555
C31 C30 1_555 1_555
C32 O1 1_555 1_555
C33 C32 1_555 1_555
H16 C33 1_555 1_555
C34 C33 1_555 1_555
H17 C34 1_555 1_555
C35 C34 1_555 1_555
H18 C35 1_555 1_555
C36 C27 1_555 1_555
O10 C52 1_555 1_555
C51 H25 1_555 1_555
H26 C51 1_555 1_555
H27 C51 1_555 1_555
C52 C51 1_555 1_555
C53 C52 1_555 1_555
H28 C53 1_555 1_555
H29 C53 1_555 1_555
H30 C53 1_555 1_555
O11 C55 1_555 1_555
C54 H31 1_555 1_555
H32 C54 1_555 1_555
H33 C54 1_555 1_555
C55 C54 1_555 1_555
C56 C55 1_555 1_555
H34 C56 1_555 1_555
H35 C56 1_555 1_555
H36 C56 1_555 1_555
O12 C58 1_555 1_555
C57 H37 1_555 1_555
H38 C57 1_555 1_555
H39 C57 1_555 1_555
C58 C57 1_555 1_555
C59 C58 1_555 1_555
H40 C59 1_555 1_555
H41 C59 1_555 1_555
H42 C59 1_555 1_555
N5 C13 1_555 1_555
N9 C25 1_555 1_555
C7 C12 1_555 1_555
C11 C12 1_555 1_555
C19 C24 1_555 1_555
C23 C24 1_555 1_555
C31 C32 1_555 1_555
C31 C36 1_555 1_555
C35 C36 1_555 1_555

#END
