
#######################################################################
#
#                 Cambridge Crystallographic Data Centre
#                                CCDC 
#
#######################################################################
#
# If this CIF has been generated from an entry in the Cambridge 
# Structural Database, then it will include bibliographic, chemical, 
# crystal, experimental, refinement or atomic coordinate data resulting 
# from the CCDC's data processing and validation procedures.
#
#######################################################################

data_YARNUD
_chemical_formula_moiety         'C27 H34 O3'
_chemical_name_systematic        
'ethyl 7,9-di-t-butyl-8-oxo-4-phenylspiro[4.5]deca-2,6,9-triene-1-carboxylate'
_symmetry_cell_setting           triclinic
_symmetry_space_group_name_H-M   'P -1'
_symmetry_Int_Tables_number      2
_space_group_name_Hall           '-P 1'
loop_
_symmetry_equiv_pos_site_id
_symmetry_equiv_pos_as_xyz
1 x,y,z
2 -x,-y,-z
_cell_length_a                   9.8361(10)
_cell_length_b                   9.9871(10)
_cell_length_c                   12.5171(14)
_cell_angle_alpha                98.404(9)
_cell_angle_beta                 92.358(9)
_cell_angle_gamma                94.506(8)
_cell_volume                     1210.92
_exptl_crystal_colour            colorless
_exptl_crystal_description       block
_chemical_melting_point          '372-374 K'
_cell_formula_units_Z            2
_exptl_crystal_recrystallization_method 'petroleum ether/ethyl acetate'
loop_
_atom_site_label
_atom_site_type_symbol
_atom_site_fract_x
_atom_site_fract_y
_atom_site_fract_z
O1 O 0.0339(2) 0.4933(2) 0.2628(3)
O2 O 0.3431(3) 0.0673(3) 0.0164(2)
O3 O 0.3608(2) 0.2909(3) 0.0128(2)
C1 C 0.3830(3) 0.2892(3) 0.2510(2)
C2 C 0.4586(3) 0.2530(3) 0.3568(3)
H1 H 0.5327 0.3240 0.3802
C3 C 0.5215(3) 0.1254(3) 0.3132(3)
H2 H 0.5536 0.0657 0.3569
C4 C 0.5266(3) 0.1066(3) 0.2083(3)
H3 H 0.5608 0.0317 0.1685
C5 C 0.4706(3) 0.2206(3) 0.1598(3)
H4 H 0.5466 0.2856 0.1483
C6 C 0.2423(3) 0.2205(3) 0.2394(2)
H5 H 0.2343 0.1261 0.2324
C7 C 0.1273(3) 0.2809(3) 0.2381(2)
C8 C 0.1376(3) 0.4325(3) 0.2516(3)
C9 C 0.2736(3) 0.5081(3) 0.2558(3)
C10 C 0.3842(3) 0.4392(3) 0.2548(2)
H6 H 0.4687 0.4885 0.2566
C11 C 0.2816(3) 0.6635(3) 0.2631(3)
C12 C 0.4276(4) 0.7223(4) 0.2570(4)
H7 H 0.4833 0.6979 0.3147
H8 H 0.4299 0.8195 0.2636
H9 H 0.4618 0.6868 0.1889
C13 C 0.1967(5) 0.7062(4) 0.1713(4)
H10 H 0.2280 0.6662 0.1032
H11 H 0.2062 0.8034 0.1765
H12 H 0.1024 0.6759 0.1763
C14 C 0.2289(5) 0.7244(4) 0.3718(4)
H13 H 0.1374 0.6862 0.3781
H14 H 0.2293 0.8211 0.3755
H15 H 0.2869 0.7039 0.4298
C15 C -0.0138(3) 0.2033(3) 0.2278(3)
C16 C -0.0965(4) 0.2359(4) 0.1297(4)
H16 H -0.1111 0.3307 0.1401
H17 H -0.1830 0.1828 0.1219
H18 H -0.0471 0.2145 0.0657
C17 C -0.0873(4) 0.2402(4) 0.3326(4)
H19 H -0.0316 0.2227 0.3930
H20 H -0.1730 0.1863 0.3288
H21 H -0.1032 0.3347 0.3416
C18 C -0.0038(3) 0.0502(3) 0.2127(4)
H22 H 0.0392 0.0225 0.1466
H23 H -0.0938 0.0045 0.2097
H24 H 0.0494 0.0272 0.2724
C19 C 0.3653(3) 0.2470(3) 0.4493(3)
C20 C 0.3252(4) 0.3646(4) 0.5068(3)
H25 H 0.3620 0.4483 0.4924
C21 C 0.2309(4) 0.3599(5) 0.5859(3)
H26 H 0.2035 0.4401 0.6230
C22 C 0.1782(4) 0.2376(5) 0.6092(3)
H27 H 0.1152 0.2343 0.6623
C23 C 0.2183(4) 0.1199(5) 0.5544(4)
H28 H 0.1833 0.0365 0.5707
C24 C 0.3110(3) 0.1252(3) 0.4744(3)
H29 H 0.3371 0.0446 0.4370
C25 C 0.3870(3) 0.1798(4) 0.0551(3)
C26 C 0.2615(4) 0.2735(5) -0.0792(3)
H30 H 0.1808 0.2180 -0.0649
H31 H 0.3006 0.2294 -0.1437
C27 C 0.2258(6) 0.4096(6) -0.0944(4)
H32 H 0.1621 0.4027 -0.1556
H33 H 0.3068 0.4642 -0.1067
H34 H 0.1851 0.4512 -0.0308
loop_
_geom_bond_atom_site_label_1
_geom_bond_atom_site_label_2
_geom_bond_site_symmetry_1
_geom_bond_site_symmetry_2
O1 C8 1_555 1_555
O2 C25 1_555 1_555
O3 C25 1_555 1_555
C1 C2 1_555 1_555
C2 H1 1_555 1_555
C3 C2 1_555 1_555
H2 C3 1_555 1_555
C4 C3 1_555 1_555
H3 C4 1_555 1_555
C5 C1 1_555 1_555
H4 C5 1_555 1_555
C6 C1 1_555 1_555
H5 C6 1_555 1_555
C7 C6 1_555 1_555
C8 C7 1_555 1_555
C9 C8 1_555 1_555
C10 C1 1_555 1_555
H6 C10 1_555 1_555
C11 C9 1_555 1_555
C12 C11 1_555 1_555
H7 C12 1_555 1_555
H8 C12 1_555 1_555
H9 C12 1_555 1_555
C13 C11 1_555 1_555
H10 C13 1_555 1_555
H11 C13 1_555 1_555
H12 C13 1_555 1_555
C14 C11 1_555 1_555
H13 C14 1_555 1_555
H14 C14 1_555 1_555
H15 C14 1_555 1_555
C15 C7 1_555 1_555
C16 C15 1_555 1_555
H16 C16 1_555 1_555
H17 C16 1_555 1_555
H18 C16 1_555 1_555
C17 C15 1_555 1_555
H19 C17 1_555 1_555
H20 C17 1_555 1_555
H21 C17 1_555 1_555
C18 C15 1_555 1_555
H22 C18 1_555 1_555
H23 C18 1_555 1_555
H24 C18 1_555 1_555
C19 C2 1_555 1_555
C20 C19 1_555 1_555
H25 C20 1_555 1_555
C21 C20 1_555 1_555
H26 C21 1_555 1_555
C22 C21 1_555 1_555
H27 C22 1_555 1_555
C23 C22 1_555 1_555
H28 C23 1_555 1_555
C24 C19 1_555 1_555
H29 C24 1_555 1_555
C25 C5 1_555 1_555
C26 O3 1_555 1_555
H30 C26 1_555 1_555
H31 C26 1_555 1_555
C27 C26 1_555 1_555
H32 C27 1_555 1_555
H33 C27 1_555 1_555
H34 C27 1_555 1_555
C4 C5 1_555 1_555
C9 C10 1_555 1_555
C23 C24 1_555 1_555

#END
