
#######################################################################
#
#                 Cambridge Crystallographic Data Centre
#                                CCDC 
#
#######################################################################
#
# If this CIF has been generated from an entry in the Cambridge 
# Structural Database, then it will include bibliographic, chemical, 
# crystal, experimental, refinement or atomic coordinate data resulting 
# from the CCDC's data processing and validation procedures.
#
#######################################################################

data_YATCUU
_chemical_formula_moiety         'C20 H13 Br1'
_chemical_name_systematic        9-(4-bromophenyl)anthracene
_symmetry_cell_setting           triclinic
_symmetry_space_group_name_H-M   'P -1'
_symmetry_Int_Tables_number      2
_space_group_name_Hall           '-P 1'
loop_
_symmetry_equiv_pos_site_id
_symmetry_equiv_pos_as_xyz
1 x,y,z
2 -x,-y,-z
_cell_length_a                   6.0449(12)
_cell_length_b                   10.748(2)
_cell_length_c                   12.027(2)
_cell_angle_alpha                77.82(3)
_cell_angle_beta                 83.89(3)
_cell_angle_gamma                79.55(3)
_cell_volume                     749.252
_exptl_crystal_colour            colorless
_exptl_crystal_description       block
_cell_formula_units_Z            2
_exptl_crystal_recrystallization_method 'Re-crystallisation from solvent'
_exptl_crystal_preparation       ', Luminescent'
loop_
_atom_site_label
_atom_site_type_symbol
_atom_site_fract_x
_atom_site_fract_y
_atom_site_fract_z
Br1 Br 0.44233(11) 0.16313(5) 0.90235(4)
C1 C 0.3422(7) 0.3609(4) 0.3168(3)
C2 C 0.1428(7) 0.4219(4) 0.3727(4)
H1 H 0.1271 0.4067 0.4520
C3 C -0.0246(8) 0.5019(5) 0.3121(4)
H2 H -0.1516 0.5404 0.3505
C4 C -0.0064(9) 0.5264(5) 0.1923(5)
H3 H -0.1211 0.5810 0.1519
C5 C 0.1797(9) 0.4702(5) 0.1348(4)
H4 H 0.1901 0.4873 0.0555
C6 C 0.3583(7) 0.3856(4) 0.1944(4)
C7 C 0.5443(8) 0.3278(5) 0.1375(4)
H5 H 0.5536 0.3446 0.0582
C8 C 0.7193(8) 0.2451(4) 0.1940(4)
C9 C 0.9134(9) 0.1840(5) 0.1340(4)
H6 H 0.9223 0.1990 0.0548
C10 C 1.0850(9) 0.1044(5) 0.1915(5)
H7 H 1.2096 0.0654 0.1518
C11 C 1.0711(8) 0.0820(5) 0.3118(5)
H8 H 1.1893 0.0292 0.3509
C12 C 0.8892(7) 0.1357(4) 0.3714(4)
H9 H 0.8838 0.1173 0.4507
C13 C 0.7056(7) 0.2198(4) 0.3159(3)
C14 C 0.5154(7) 0.2774(4) 0.3767(3)
C15 C 0.4997(7) 0.2491(4) 0.5035(3)
C16 C 0.6179(8) 0.3079(5) 0.5645(4)
H10 H 0.7105 0.3654 0.5250
C17 C 0.6023(9) 0.2837(5) 0.6819(4)
H11 H 0.6832 0.3241 0.7213
C18 C 0.4652(8) 0.1988(4) 0.7400(3)
C19 C 0.3440(9) 0.1386(5) 0.6834(4)
H12 H 0.2515 0.0814 0.7234
C20 C 0.3621(8) 0.1648(4) 0.5656(4)
H13 H 0.2797 0.1247 0.5267
loop_
_geom_bond_atom_site_label_1
_geom_bond_atom_site_label_2
_geom_bond_site_symmetry_1
_geom_bond_site_symmetry_2
Br1 C18 1_555 1_555
C1 C2 1_555 1_555
C2 H1 1_555 1_555
C3 C2 1_555 1_555
H2 C3 1_555 1_555
C4 C3 1_555 1_555
H3 C4 1_555 1_555
C5 C4 1_555 1_555
H4 C5 1_555 1_555
C6 C1 1_555 1_555
C7 C6 1_555 1_555
H5 C7 1_555 1_555
C8 C7 1_555 1_555
C9 C8 1_555 1_555
H6 C9 1_555 1_555
C10 C9 1_555 1_555
H7 C10 1_555 1_555
C11 C10 1_555 1_555
H8 C11 1_555 1_555
C12 C11 1_555 1_555
H9 C12 1_555 1_555
C13 C8 1_555 1_555
C14 C1 1_555 1_555
C15 C14 1_555 1_555
C16 C15 1_555 1_555
H10 C16 1_555 1_555
C17 C16 1_555 1_555
H11 C17 1_555 1_555
C18 C17 1_555 1_555
C19 C18 1_555 1_555
H12 C19 1_555 1_555
C20 C15 1_555 1_555
H13 C20 1_555 1_555
C5 C6 1_555 1_555
C12 C13 1_555 1_555
C13 C14 1_555 1_555
C19 C20 1_555 1_555

#END
