
#######################################################################
#
#                 Cambridge Crystallographic Data Centre
#                                CCDC 
#
#######################################################################
#
# If this CIF has been generated from an entry in the Cambridge 
# Structural Database, then it will include bibliographic, chemical, 
# crystal, experimental, refinement or atomic coordinate data resulting 
# from the CCDC's data processing and validation procedures.
#
#######################################################################

data_YAVJEN
_chemical_formula_moiety         'C24 H25 N3 O5,H2 O1'
_chemical_name_systematic        
"4a-ethyl 11-methyl 6a-cyano-5'-oxo-1,1',2,5',6,6a-hexahydrospiro[indeno[7a,1-b]indole-3,2'-pyrrole]-4a,11(4H,5H)-dicarboxylate monohydrate"
_symmetry_cell_setting           monoclinic
_symmetry_space_group_name_H-M   'P 21/n'
_symmetry_Int_Tables_number      14
_space_group_name_Hall           '-P 2yn'
loop_
_symmetry_equiv_pos_site_id
_symmetry_equiv_pos_as_xyz
1 x,y,z
2 1/2-x,1/2+y,1/2-z
3 -x,-y,-z
4 1/2+x,1/2-y,1/2+z
_cell_length_a                   10.4886(7)
_cell_length_b                   20.6885(18)
_cell_length_c                   10.5508(7)
_cell_angle_alpha                90
_cell_angle_beta                 96.517(9)
_cell_angle_gamma                90
_cell_volume                     2274.66
_exptl_crystal_colour            colorless
_exptl_crystal_description       block
_cell_formula_units_Z            4
loop_
_atom_site_label
_atom_site_type_symbol
_atom_site_fract_x
_atom_site_fract_y
_atom_site_fract_z
O1 O 0.50055(12) 0.21752(7) 0.01375(13)
O2 O 0.80644(13) 0.11130(7) 0.29487(14)
O3 O 0.67215(12) 0.15320(6) 0.00329(13)
O4 O 0.37248(13) 0.48987(7) 0.11554(14)
O5 O 0.66057(12) 0.19164(7) 0.26737(13)
N1 N 0.85410(14) 0.20190(8) 0.19006(14)
C1 C 0.76561(18) 0.16967(10) 0.25231(17)
C2 C 0.43971(18) 0.44033(10) 0.13187(18)
N2 N 0.55278(15) 0.43078(8) 0.08547(15)
H1 H 0.5874 0.4586 0.0393
C3 C 0.97403(18) 0.17904(10) 0.15684(17)
C4 C 1.02066(18) 0.34181(10) 0.13686(19)
C5 C 1.03209(18) 0.22679(10) 0.09126(17)
C6 C 0.82231(17) 0.26781(9) 0.13655(17)
C7 C 1.03549(19) 0.11985(10) 0.18302(18)
H2 H 0.9971 0.0873 0.2262
N3 N 1.07956(16) 0.38408(9) 0.18367(17)
C8 C 0.61518(18) 0.21094(10) 0.01478(17)
C9 C 1.15270(18) 0.21782(11) 0.05181(18)
H3 H 1.1910 0.2504 0.0087
C10 C 0.94902(18) 0.28699(10) 0.07338(18)
C11 C 0.63763(18) 0.33141(10) 0.00121(18)
H4 H 0.6851 0.3601 -0.0490
H5 H 0.5559 0.3227 -0.0486
C12 C 0.50879(18) 0.33965(10) 0.19576(18)
H6 H 0.5122 0.2984 0.2311
C13 C 0.71232(18) 0.26678(10) 0.01747(17)
C14 C 0.41391(19) 0.38134(10) 0.20349(19)
H7 H 0.3427 0.3745 0.2469
C15 C 0.61051(18) 0.36806(10) 0.12196(18)
C16 C 1.15598(19) 0.11108(11) 0.14245(19)
H8 H 1.1982 0.0719 0.1589
C17 C 0.73936(18) 0.37806(10) 0.20576(18)
H9 H 0.7983 0.4014 0.1580
H10 H 0.7257 0.4035 0.2803
C18 C 0.90590(18) 0.30264(10) -0.06839(18)
H11 H 0.8823 0.3478 -0.0797
H12 H 0.9728 0.2925 -0.1216
C19 C 0.79058(18) 0.25896(10) -0.09851(17)
H13 H 0.8172 0.2144 -0.1072
H14 H 0.7401 0.2722 -0.1769
C20 C 0.79675(18) 0.31278(10) 0.24731(18)
H15 H 0.7389 0.2911 0.2989
H16 H 0.8770 0.3200 0.3008
C21 C 1.21514(19) 0.15927(11) 0.07796(19)
H17 H 1.2961 0.1523 0.0525
C22 C 0.5898(2) 0.09678(10) 0.0022(2)
H18 H 0.5232 0.0987 -0.0694
H19 H 0.5494 0.0945 0.0804
C23 C 0.7142(2) 0.07585(11) 0.3603(2)
H20 H 0.6326 0.0755 0.3088
H21 H 0.7053 0.0963 0.4405
H22 H 0.7435 0.0322 0.3751
C24 C 0.6748(2) 0.03881(11) -0.0093(2)
H23 H 0.7134 0.0416 -0.0874
H24 H 0.6244 0.0001 -0.0096
H25 H 0.7408 0.0379 0.0616
O6 O 0.11242(18) 0.52839(10) 0.0864(3)
H26 H 0.1884(14) 0.5123(15) 0.102(4)
H27 H 0.059(2) 0.4976(12) 0.092(4)
loop_
_geom_bond_atom_site_label_1
_geom_bond_atom_site_label_2
_geom_bond_site_symmetry_1
_geom_bond_site_symmetry_2
O1 C8 1_555 1_555
O2 C1 1_555 1_555
O3 C8 1_555 1_555
O4 C2 1_555 1_555
O5 C1 1_555 1_555
N1 C1 1_555 1_555
C2 N2 1_555 1_555
N2 H1 1_555 1_555
C3 N1 1_555 1_555
C4 N3 1_555 1_555
C5 C3 1_555 1_555
C6 N1 1_555 1_555
C7 C3 1_555 1_555
H2 C7 1_555 1_555
C8 C13 1_555 1_555
C9 C5 1_555 1_555
H3 C9 1_555 1_555
C10 C4 1_555 1_555
C11 H4 1_555 1_555
H5 C11 1_555 1_555
C12 H6 1_555 1_555
C13 C6 1_555 1_555
C14 C2 1_555 1_555
H7 C14 1_555 1_555
C15 N2 1_555 1_555
C16 C7 1_555 1_555
H8 C16 1_555 1_555
C17 C15 1_555 1_555
H9 C17 1_555 1_555
H10 C17 1_555 1_555
C18 C10 1_555 1_555
H11 C18 1_555 1_555
H12 C18 1_555 1_555
C19 C13 1_555 1_555
H13 C19 1_555 1_555
H14 C19 1_555 1_555
C20 C6 1_555 1_555
H15 C20 1_555 1_555
H16 C20 1_555 1_555
C21 C9 1_555 1_555
H17 C21 1_555 1_555
C22 O3 1_555 1_555
H18 C22 1_555 1_555
H19 C22 1_555 1_555
C23 O2 1_555 1_555
H20 C23 1_555 1_555
H21 C23 1_555 1_555
H22 C23 1_555 1_555
C24 C22 1_555 1_555
H23 C24 1_555 1_555
H24 C24 1_555 1_555
H25 C24 1_555 1_555
O6 H26 1_555 1_555
H27 O6 1_555 1_555
C5 C10 1_555 1_555
C6 C10 1_555 1_555
C11 C13 1_555 1_555
C11 C15 1_555 1_555
C12 C14 1_555 1_555
C12 C15 1_555 1_555
C16 C21 1_555 1_555
C17 C20 1_555 1_555
C18 C19 1_555 1_555

#END
