
#######################################################################
#
#                 Cambridge Crystallographic Data Centre
#                                CCDC 
#
#######################################################################
#
# If this CIF has been generated from an entry in the Cambridge 
# Structural Database, then it will include bibliographic, chemical, 
# crystal, experimental, refinement or atomic coordinate data resulting 
# from the CCDC's data processing and validation procedures.
#
#######################################################################

data_YAVQET
_chemical_name_common            
"1,1'-Binaphthalene-2,2'-diol ethyl(ethylidene)hydroxy-lambda$5!-azane"
_chemical_formula_moiety         'C20 H14 O2,C4 H9 N1 O1'
_chemical_name_systematic        
'(R)-1-(2-hydroxynaphthalen-1-yl)naphthalen-2-ol (Z)-N-ethylethanimine N-oxide'
_symmetry_cell_setting           trigonal
_symmetry_space_group_name_H-M   'P 31'
_symmetry_Int_Tables_number      144
_space_group_name_Hall           'P 31'
loop_
_symmetry_equiv_pos_site_id
_symmetry_equiv_pos_as_xyz
1 x,y,z
2 -y,x-y,1/3+z
3 -x+y,-x,2/3+z
_cell_length_a                   8.9579(6)
_cell_length_b                   8.9579(6)
_cell_length_c                   21.187(3)
_cell_angle_alpha                90
_cell_angle_beta                 90
_cell_angle_gamma                120
_cell_volume                     1472.35
_exptl_crystal_colour            colorless
_exptl_crystal_description       prism
_cell_formula_units_Z            3
loop_
_atom_site_label
_atom_site_type_symbol
_atom_site_fract_x
_atom_site_fract_y
_atom_site_fract_z
O1 O 0.6567(4) 0.7994(4) 0.76094(13)
H1 H 0.5835 0.7851 0.7872
O2 O 0.5514(4) 0.5899(4) 0.59216(14)
H2 H 0.5018 0.5977 0.5609
C1 C 0.7392(4) 0.6275(4) 0.70313(16)
C2 C 0.6670(5) 0.6537(5) 0.75628(16)
C3 C 0.6065(5) 0.5327(5) 0.80628(17)
H3 H 0.5573 0.5521 0.8417
C4 C 0.6198(5) 0.3880(5) 0.80293(17)
H4 H 0.5799 0.3100 0.8363
C5 C 0.6929(5) 0.3548(5) 0.74984(19)
C6 C 0.7057(6) 0.2039(6) 0.7449(2)
H5 H 0.6660 0.1247 0.7778
C7 C 0.7742(7) 0.1731(6) 0.6935(2)
H6 H 0.7819 0.0735 0.6911
C8 C 0.8336(7) 0.2911(6) 0.6437(2)
H7 H 0.8796 0.2686 0.6080
C9 C 0.8253(5) 0.4385(5) 0.64668(18)
H8 H 0.8674 0.5161 0.6132
C10 C 0.7537(4) 0.4758(5) 0.69961(17)
C11 C 0.8048(5) 0.7566(4) 0.65051(16)
C12 C 0.7106(5) 0.7323(5) 0.59651(17)
C13 C 0.7759(5) 0.8506(5) 0.54687(18)
H9 H 0.7108 0.8299 0.5104
C14 C 0.9330(5) 0.9954(5) 0.55105(18)
H10 H 0.9747 1.0715 0.5172
C15 C 1.0329(5) 1.0315(5) 0.60593(19)
C16 C 1.1919(6) 1.1874(6) 0.6136(2)
H11 H 1.2330 1.2674 0.5810
C17 C 1.2848(6) 1.2220(6) 0.6673(2)
H12 H 1.3878 1.3256 0.6718
C18 C 1.2245(6) 1.1009(6) 0.7159(2)
H13 H 1.2897 1.1232 0.7525
C19 C 1.0714(5) 0.9500(6) 0.71080(19)
H14 H 1.0337 0.8720 0.7441
C20 C 0.9695(5) 0.9104(5) 0.65601(17)
O3 O 0.3797(4) 0.7314(5) 0.83262(16)
N1 N 0.2490(6) 0.5834(6) 0.8144(2)
C21 C 0.2757(9) 0.6739(10) 0.7052(3)
H15 H 0.3380 0.6372 0.6785
H16 H 0.3534 0.7868 0.7215
H17 H 0.1865 0.6772 0.6812
C22 C 0.1986(8) 0.5529(9) 0.7577(3)
H18 H 0.1050 0.4449 0.7486
C23 C 0.0453(10) 0.4797(11) 0.9012(4)
H19 H -0.0384 0.4820 0.8735
H20 H 0.1082 0.5886 0.9225
H21 H -0.0123 0.3896 0.9318
C24 C 0.1635(9) 0.4481(9) 0.8648(3)
H22 H 0.1012 0.3351 0.8454
H23 H 0.2505 0.4498 0.8925
loop_
_geom_bond_atom_site_label_1
_geom_bond_atom_site_label_2
_geom_bond_site_symmetry_1
_geom_bond_site_symmetry_2
O1 H1 1_555 1_555
O2 H2 1_555 1_555
O3 N1 1_555 1_555
N1 C22 1_555 1_555
C1 C2 1_555 1_555
C2 O1 1_555 1_555
C3 C2 1_555 1_555
H3 C3 1_555 1_555
C4 C3 1_555 1_555
H4 C4 1_555 1_555
C5 C4 1_555 1_555
C6 C5 1_555 1_555
H5 C6 1_555 1_555
C7 C6 1_555 1_555
H6 C7 1_555 1_555
C8 C7 1_555 1_555
H7 C8 1_555 1_555
C9 C8 1_555 1_555
H8 C9 1_555 1_555
C10 C1 1_555 1_555
C11 C1 1_555 1_555
C12 O2 1_555 1_555
C13 C12 1_555 1_555
H9 C13 1_555 1_555
C14 C13 1_555 1_555
H10 C14 1_555 1_555
C15 C14 1_555 1_555
C16 C15 1_555 1_555
H11 C16 1_555 1_555
C17 C16 1_555 1_555
H12 C17 1_555 1_555
C18 C17 1_555 1_555
H13 C18 1_555 1_555
C19 C18 1_555 1_555
H14 C19 1_555 1_555
C20 C11 1_555 1_555
C21 H15 1_555 1_555
H16 C21 1_555 1_555
H17 C21 1_555 1_555
C22 C21 1_555 1_555
H18 C22 1_555 1_555
C23 H19 1_555 1_555
H20 C23 1_555 1_555
H21 C23 1_555 1_555
C24 N1 1_555 1_555
H22 C24 1_555 1_555
H23 C24 1_555 1_555
C5 C10 1_555 1_555
C9 C10 1_555 1_555
C11 C12 1_555 1_555
C15 C20 1_555 1_555
C19 C20 1_555 1_555
C23 C24 1_555 1_555

#END
