
#######################################################################
#
#                 Cambridge Crystallographic Data Centre
#                                CCDC 
#
#######################################################################
#
# If this CIF has been generated from an entry in the Cambridge 
# Structural Database, then it will include bibliographic, chemical, 
# crystal, experimental, refinement or atomic coordinate data resulting 
# from the CCDC's data processing and validation procedures.
#
#######################################################################

data_YAWLIR
_chemical_formula_moiety         '2(C36 H28),C28 H22'
_chemical_name_systematic        
'bis(1,6,7,8-Tetraphenyl-3,4-benzo-bicyclo(4.2.0)oct-7-ene) cis,cis-1,2,3,4-tetraphenylbutadiene'
_symmetry_cell_setting           monoclinic
_symmetry_space_group_name_H-M   'P 21/a'
_symmetry_Int_Tables_number      14
_space_group_name_Hall           '-P 2yab'
loop_
_symmetry_equiv_pos_site_id
_symmetry_equiv_pos_as_xyz
1 x,y,z
2 1/2-x,1/2+y,-z
3 -x,-y,-z
4 1/2+x,1/2-y,z
_cell_length_a                   17.282(3)
_cell_length_b                   10.669(4)
_cell_length_c                   19.927(3)
_cell_angle_alpha                90
_cell_angle_beta                 102.99(1)
_cell_angle_gamma                90
_cell_volume                     3580.15
_cell_formula_units_Z            2
loop_
_atom_site_label
_atom_site_type_symbol
_atom_site_fract_x
_atom_site_fract_y
_atom_site_fract_z
C1 C 0.8532(7) 0.100(1) 0.3776(7)
C2 C 0.8428(7) 0.218(1) 0.3310(6)
C3 C 0.8965(7) 0.182(1) 0.2942(6)
C4 C 0.9137(7) 0.053(1) 0.3304(7)
C5 C 1.0007(8) 0.039(1) 0.3727(7)
C6 C 0.8942(8) 0.122(1) 0.4543(7)
C7 C 0.7778(7) 0.025(1) 0.3726(6)
C8 C 0.7784(8) -0.079(1) 0.4194(7)
C9 C 0.7080(8) -0.151(1) 0.4145(7)
C10 C 0.6373(9) -0.116(1) 0.3650(8)
C11 C 0.6377(8) -0.018(1) 0.3205(7)
C12 C 0.7065(8) 0.051(1) 0.3218(7)
C13 C 0.7928(7) 0.331(1) 0.3282(7)
C14 C 0.7942(8) 0.397(1) 0.3906(7)
C15 C 0.7449(8) 0.508(1) 0.3865(7)
C16 C 0.6989(8) 0.546(1) 0.3217(7)
C17 C 0.6991(8) 0.479(1) 0.2617(7)
C18 C 0.7440(8) 0.368(1) 0.2647(7)
C19 C 0.9354(7) 0.242(1) 0.2444(7)
C20 C 0.9883(8) 0.170(1) 0.2151(7)
C21 C 1.0257(9) 0.229(2) 0.1658(8)
C22 C 1.0124(8) 0.358(1) 0.1492(8)
C23 C 0.9627(8) 0.426(1) 0.1803(7)
C24 C 0.9225(8) 0.370(1) 0.2280(7)
C25 C 0.8873(8) -0.063(1) 0.2874(7)
C26 C 0.9024(8) -0.179(1) 0.3190(7)
C27 C 0.8741(9) -0.289(2) 0.2765(8)
C28 C 0.8360(9) -0.279(2) 0.2082(8)
C29 C 0.8216(8) -0.162(1) 0.1782(7)
C30 C 0.8461(8) -0.051(1) 0.2173(7)
C31 C 1.0234(7) 0.154(1) 0.4170(7)
C32 C 1.0947(8) 0.220(1) 0.4171(7)
C33 C 1.1149(8) 0.325(1) 0.4617(7)
C34 C 1.0641(8) 0.364(1) 0.5046(7)
C35 C 0.9909(8) 0.300(1) 0.5023(8)
C36 C 0.9714(8) 0.193(1) 0.4583(7)
C37 C 0.5249(8) 0.647(1) 0.0589(7)
C38 C 0.5118(8) 0.642(1) 0.1262(7)
C39 C 0.5542(9) 0.725(2) 0.1768(8)
C40 C 0.6065(9) 0.812(2) 0.1579(8)
C41 C 0.6173(9) 0.823(2) 0.0898(8)
C42 C 0.5755(8) 0.735(1) 0.0394(7)
C43 C 0.3518(7) 0.691(1) -0.0288(7)
C44 C 0.2750(8) 0.676(1) -0.0729(7)
C45 C 0.2190(8) 0.776(1) -0.0768(7)
C46 C 0.2411(9) 0.886(2) -0.0371(8)
C47 C 0.3175(9) 0.900(2) 0.0061(8)
C48 C 0.3728(8) 0.800(1) 0.0099(7)
C49 C 0.4784(7) 0.559(1) 0.0044(7)
C50 C 0.4027(7) 0.580(1) -0.0314(7)
C49B C 0.5216(7) 0.441(1) -0.0044(7)
C37B C 0.4751(8) 0.353(1) -0.0589(7)
C50B C 0.5973(7) 0.420(1) 0.0314(7)
C38B C 0.4882(8) 0.358(1) -0.1262(7)
C42B C 0.4245(8) 0.265(1) -0.0394(7)
C43B C 0.6482(7) 0.309(1) 0.0288(7)
C39B C 0.4458(9) 0.275(2) -0.1768(8)
C41B C 0.3827(9) 0.177(2) -0.0898(8)
C44B C 0.7250(8) 0.324(1) 0.0729(7)
C48B C 0.6272(8) 0.200(1) -0.0099(7)
C40B C 0.3935(9) 0.188(2) -0.1579(8)
C45B C 0.7810(8) 0.224(1) 0.0768(7)
C47B C 0.6825(9) 0.100(2) -0.0061(8)
C46B C 0.7589(9) 0.114(2) 0.0371(8)
loop_
_geom_bond_atom_site_label_1
_geom_bond_atom_site_label_2
_geom_bond_site_symmetry_1
_geom_bond_site_symmetry_2
C1 C2 1_555 1_555
C2 C3 1_555 1_555
C3 C4 1_555 1_555
C4 C1 1_555 1_555
C5 C4 1_555 1_555
C6 C1 1_555 1_555
C7 C1 1_555 1_555
C8 C7 1_555 1_555
C9 C8 1_555 1_555
C10 C9 1_555 1_555
C11 C10 1_555 1_555
C12 C7 1_555 1_555
C13 C2 1_555 1_555
C14 C13 1_555 1_555
C15 C14 1_555 1_555
C16 C15 1_555 1_555
C17 C16 1_555 1_555
C18 C13 1_555 1_555
C19 C3 1_555 1_555
C20 C19 1_555 1_555
C21 C20 1_555 1_555
C22 C21 1_555 1_555
C23 C22 1_555 1_555
C24 C19 1_555 1_555
C25 C4 1_555 1_555
C26 C25 1_555 1_555
C27 C26 1_555 1_555
C28 C27 1_555 1_555
C29 C28 1_555 1_555
C30 C25 1_555 1_555
C31 C5 1_555 1_555
C32 C31 1_555 1_555
C33 C32 1_555 1_555
C34 C33 1_555 1_555
C35 C34 1_555 1_555
C36 C6 1_555 1_555
C37 C38 1_555 1_555
C38 C39 1_555 1_555
C39 C40 1_555 1_555
C40 C41 1_555 1_555
C41 C42 1_555 1_555
C42 C37 1_555 1_555
C43 C44 1_555 1_555
C44 C45 1_555 1_555
C45 C46 1_555 1_555
C46 C47 1_555 1_555
C47 C48 1_555 1_555
C48 C43 1_555 1_555
C49 C37 1_555 1_555
C50 C43 1_555 1_555
C49B C49 1_555 1_555
C37B C49B 1_555 1_555
C50B C49B 1_555 1_555
C38B C37B 1_555 1_555
C42B C37B 1_555 1_555
C43B C50B 1_555 1_555
C39B C38B 1_555 1_555
C41B C42B 1_555 1_555
C44B C43B 1_555 1_555
C48B C43B 1_555 1_555
C40B C39B 1_555 1_555
C45B C44B 1_555 1_555
C47B C48B 1_555 1_555
C46B C45B 1_555 1_555
C11 C12 1_555 1_555
C17 C18 1_555 1_555
C23 C24 1_555 1_555
C29 C30 1_555 1_555
C31 C36 1_555 1_555
C35 C36 1_555 1_555
C49 C50 1_555 1_555
C41B C40B 1_555 1_555
C47B C46B 1_555 1_555

#END
