
#######################################################################
#
#                 Cambridge Crystallographic Data Centre
#                                CCDC 
#
#######################################################################
#
# If this CIF has been generated from an entry in the Cambridge 
# Structural Database, then it will include bibliographic, chemical, 
# crystal, experimental, refinement or atomic coordinate data resulting 
# from the CCDC's data processing and validation procedures.
#
#######################################################################

data_YAWLEN
_chemical_formula_moiety         'C11 H14 Cl1 N2 P1 S2'
_chemical_name_systematic        
4-Chloro-5-ethyl-5-methyl-3-phenyl-1,3,4-diazaphospholidin-2-thione-4-sulfide
_symmetry_cell_setting           triclinic
_symmetry_space_group_name_H-M   'P -1'
_symmetry_Int_Tables_number      2
_space_group_name_Hall           '-P 1'
loop_
_symmetry_equiv_pos_site_id
_symmetry_equiv_pos_as_xyz
1 x,y,z
2 -x,-y,-z
_cell_length_a                   7.282(2)
_cell_length_b                   9.064(2)
_cell_length_c                   11.737(5)
_cell_angle_alpha                75.79(3)
_cell_angle_beta                 78.70(3)
_cell_angle_gamma                88.49(2)
_cell_volume                     736.235
_exptl_crystal_colour            colorless
_cell_formula_units_Z            2
loop_
_atom_site_label
_atom_site_type_symbol
_atom_site_fract_x
_atom_site_fract_y
_atom_site_fract_z
Cl1 Cl 0.485(1) 0.2461(8) 0.0705(6)
S1 S 0.0748(9) 0.3902(7) 0.1252(6)
S2 S 0.2974(8) -0.1365(6) 0.4412(5)
P1 P 0.2576(8) 0.2709(6) 0.1941(5)
N1 N 0.197(2) 0.092(1) 0.274(1)
N2 N 0.392(2) 0.164(2) 0.381(1)
C1 C 0.298(2) 0.048(2) 0.365(1)
C2 C 0.383(3) 0.324(2) 0.308(2)
C3 C 0.542(3) 0.443(3) 0.262(2)
C4 C 0.203(3) 0.367(2) 0.390(2)
C5 C 0.080(2) -0.011(2) 0.235(1)
C6 C -0.108(2) -0.011(2) 0.268(2)
C7 C -0.217(3) -0.108(2) 0.225(2)
C8 C -0.124(3) -0.184(2) 0.145(2)
C9 C 0.069(3) -0.178(2) 0.105(2)
C10 C 0.181(3) -0.090(2) 0.150(2)
C11 C 0.249(4) 0.414(3) 0.499(2)
C12? C 0.139(9) 0.492(8) 0.357(6)
loop_
_geom_bond_atom_site_label_1
_geom_bond_atom_site_label_2
_geom_bond_site_symmetry_1
_geom_bond_site_symmetry_2
Cl1 P1 1_555 1_555
S1 P1 1_555 1_555
S2 C1 1_555 1_555
P1 N1 1_555 1_555
N1 C1 1_555 1_555
N2 C1 1_555 1_555
C2 P1 1_555 1_555
C3 C2 1_555 1_555
C4 C2 1_555 1_555
C5 N1 1_555 1_555
C6 C5 1_555 1_555
C7 C6 1_555 1_555
C8 C7 1_555 1_555
C9 C8 1_555 1_555
C10 C5 1_555 1_555
C11 C4 1_555 1_555
N2 C2 1_555 1_555
C9 C10 1_555 1_555

#END
