
#######################################################################
#
#                 Cambridge Crystallographic Data Centre
#                                CCDC 
#
#######################################################################
#
# If this CIF has been generated from an entry in the Cambridge 
# Structural Database, then it will include bibliographic, chemical, 
# crystal, experimental, refinement or atomic coordinate data resulting 
# from the CCDC's data processing and validation procedures.
#
#######################################################################

data_YAXHOU
_chemical_formula_moiety         'C21 H26 N2 O5'
_chemical_name_systematic        4-(\a-Hydrazonobenzyl)benzo-15-crown-5
_symmetry_cell_setting           triclinic
_symmetry_space_group_name_H-M   'P -1'
_symmetry_Int_Tables_number      2
_space_group_name_Hall           '-P 1'
loop_
_symmetry_equiv_pos_site_id
_symmetry_equiv_pos_as_xyz
1 x,y,z
2 -x,-y,-z
_cell_length_a                   7.839(1)
_cell_length_b                   9.326(1)
_cell_length_c                   13.803(1)
_cell_angle_alpha                86.28(1)
_cell_angle_beta                 89.12(1)
_cell_angle_gamma                83.43(1)
_cell_volume                     1000.32
_exptl_crystal_colour            yellow
_chemical_melting_point          135-136deg.C
_cell_formula_units_Z            2
loop_
_atom_site_label
_atom_site_type_symbol
_atom_site_fract_x
_atom_site_fract_y
_atom_site_fract_z
O1 O -0.1028(2) 0.3019(1) 0.6430(1)
O2 O -0.1277(2) 0.1915(2) 0.8359(1)
O3 O 0.0898(2) 0.3524(2) 0.9342(1)
O4 O 0.3307(2) 0.4237(2) 0.7894(1)
O5 O 0.1624(2) 0.4379(1) 0.6152(1)
N1 N 0.2143(2) 0.3344(2) 0.2124(1)
N2 N 0.0659(2) 0.4259(2) 0.2179(1)
C1 C 0.4924(3) 0.0708(2) 0.3605(1)
C2 C 0.6388(3) -0.0267(2) 0.3521(2)
C3 C 0.7155(3) -0.0467(2) 0.2640(2)
C4 C 0.6468(3) 0.0327(3) 0.1839(2)
C5 C 0.5008(3) 0.1300(2) 0.1911(1)
C6 C 0.4204(2) 0.1507(2) 0.2799(1)
C7 C 0.2637(2) 0.2547(2) 0.2888(1)
C8 C 0.1676(2) 0.2621(2) 0.3829(1)
C9 C 0.0241(2) 0.1900(2) 0.3988(1)
C10 C -0.0687(2) 0.1997(2) 0.4850(1)
C11 C -0.0206(2) 0.2828(2) 0.5563(1)
C12 C 0.1246(2) 0.3575(2) 0.5410(1)
C13 C 0.2163(2) 0.3462(2) 0.4552(1)
C14 C -0.2215(3) 0.2034(2) 0.6739(1)
C15 C -0.2720(3) 0.2302(3) 0.7763(2)
C16 C -0.1526(3) 0.2279(3) 0.9335(2)
C17 C 0.0178(3) 0.2330(3) 0.9786(2)
C18 C 0.2667(3) 0.3558(3) 0.9514(2)
C19 C 0.3292(3) 0.4702(3) 0.8847(1)
C20 C 0.3525(3) 0.5349(2) 0.7171(1)
C21 C 0.3327(2) 0.4767(2) 0.6202(1)
H1 H 0.0559(28) 0.4931(18) 0.1682(11)
H2 H 0.0380(28) 0.4555(23) 0.2771(9)
H3 H 0.4399 0.0845 0.4230
H4 H 0.6862 -0.0809 0.4088
H5 H 0.8151 -0.1158 0.2577
H6 H 0.7016 0.0228 0.1216
H7 H 0.4526 0.1826 0.1340
H8 H -0.0110 0.1321 0.3494
H9 H -0.1680 0.1490 0.4951
H10 H 0.3154 0.3972 0.4454
H11 H -0.1685 0.1057 0.6711
H12 H -0.3200 0.2164 0.6324
H13 H -0.3121 0.3308 0.7807
H14 H -0.3628 0.1742 0.7970
H15 H -0.2147 0.1573 0.9680
H16 H -0.2187 0.3208 0.9361
H17 H 0.0048 0.2430 1.0472
H18 H 0.0905 0.1451 0.9684
H19 H 0.3284 0.2638 0.9389
H20 H 0.2838 0.3745 1.0179
H21 H 0.2547 0.5587 0.8892
H22 H 0.4430 0.4866 0.9022
H23 H 0.4630 0.5685 0.7224
H24 H 0.2657 0.6148 0.7248
H25 H 0.3527 0.5476 0.5689
H26 H 0.4147 0.3931 0.6139
loop_
_geom_bond_atom_site_label_1
_geom_bond_atom_site_label_2
_geom_bond_site_symmetry_1
_geom_bond_site_symmetry_2
O1 C11 1_555 1_555
O2 C15 1_555 1_555
O3 C17 1_555 1_555
O4 C19 1_555 1_555
O5 C12 1_555 1_555
N1 N2 1_555 1_555
N2 H1 1_555 1_555
C1 C2 1_555 1_555
C2 C3 1_555 1_555
C3 C4 1_555 1_555
C4 C5 1_555 1_555
C5 C6 1_555 1_555
C6 C1 1_555 1_555
C7 N1 1_555 1_555
C8 C7 1_555 1_555
C9 C8 1_555 1_555
C10 C9 1_555 1_555
C11 C10 1_555 1_555
C12 C11 1_555 1_555
C13 C8 1_555 1_555
C14 O1 1_555 1_555
C15 C14 1_555 1_555
C16 O2 1_555 1_555
C17 C16 1_555 1_555
C18 O3 1_555 1_555
C19 C18 1_555 1_555
C20 O4 1_555 1_555
C21 O5 1_555 1_555
H2 N2 1_555 1_555
H3 C1 1_555 1_555
H4 C2 1_555 1_555
H5 C3 1_555 1_555
H6 C4 1_555 1_555
H7 C5 1_555 1_555
H8 C9 1_555 1_555
H9 C10 1_555 1_555
H10 C13 1_555 1_555
H11 C14 1_555 1_555
H12 C14 1_555 1_555
H13 C15 1_555 1_555
H14 C15 1_555 1_555
H15 C16 1_555 1_555
H16 C16 1_555 1_555
H17 C17 1_555 1_555
H18 C17 1_555 1_555
H19 C18 1_555 1_555
H20 C18 1_555 1_555
H21 C19 1_555 1_555
H22 C19 1_555 1_555
H23 C20 1_555 1_555
H24 C20 1_555 1_555
H25 C21 1_555 1_555
H26 C21 1_555 1_555
C6 C7 1_555 1_555
C12 C13 1_555 1_555
C20 C21 1_555 1_555

#END
