
#######################################################################
#
#                 Cambridge Crystallographic Data Centre
#                                CCDC 
#
#######################################################################
#
# If this CIF has been generated from an entry in the Cambridge 
# Structural Database, then it will include bibliographic, chemical, 
# crystal, experimental, refinement or atomic coordinate data resulting 
# from the CCDC's data processing and validation procedures.
#
#######################################################################

data_YAXQIA
_chemical_formula_moiety         'C20 H27 N3 O2'
_chemical_name_systematic        
'methyl 4-(3-(t-butylamino)-2-(t-butylimino)-2H-pyrrol-5-yl)benzoate'
_symmetry_cell_setting           monoclinic
_symmetry_space_group_name_H-M   'P 21/n'
_symmetry_Int_Tables_number      14
_space_group_name_Hall           '-P 2yn'
loop_
_symmetry_equiv_pos_site_id
_symmetry_equiv_pos_as_xyz
1 x,y,z
2 1/2-x,1/2+y,1/2-z
3 -x,-y,-z
4 1/2+x,1/2-y,1/2+z
_cell_length_a                   10.5287(7)
_cell_length_b                   13.0679(8)
_cell_length_c                   14.2874(8)
_cell_angle_alpha                90
_cell_angle_beta                 95.724(2)
_cell_angle_gamma                90
_cell_volume                     1955.97
_exptl_crystal_colour            black
_exptl_crystal_description       parallelepiped
_cell_formula_units_Z            4
loop_
_atom_site_label
_atom_site_type_symbol
_atom_site_fract_x
_atom_site_fract_y
_atom_site_fract_z
O1 O -0.10018(16) 0.11485(14) -0.21676(11)
O2 O 0.0837(2) 0.0652(2) -0.26577(13)
N1 N 0.17162(19) 0.16561(15) 0.24822(14)
N2 N 0.24271(17) 0.19164(14) 0.41563(13)
N3 N 0.47426(18) 0.11220(15) 0.37240(14)
H1 H 0.462(3) 0.143(3) 0.427(3)
C1 C 0.2548(2) 0.16458(17) 0.33012(15)
C2 C 0.3805(2) 0.12214(16) 0.30576(16)
C3 C 0.3644(2) 0.10118(17) 0.21129(15)
H2 H 0.4250 0.0742 0.1750
C4 C 0.2392(2) 0.12833(17) 0.18044(15)
C5 C 0.1828(2) 0.11909(16) 0.08244(15)
C6 C 0.2558(2) 0.0863(2) 0.01241(17)
H3 H 0.3413 0.0699 0.0277
C7 C 0.2032(2) 0.0778(2) -0.07939(17)
H4 H 0.2534 0.0559 -0.1255
C8 C 0.0759(2) 0.10163(17) -0.10363(15)
C9 C 0.0027(2) 0.13446(18) -0.03373(15)
H5 H -0.0829 0.1506 -0.0489
C10 C 0.0559(2) 0.14318(18) 0.05748(16)
H6 H 0.0058 0.1657 0.1034
C11 C 0.0230(2) 0.09152(19) -0.20356(17)
C12 C -0.1597(3) 0.1081(2) -0.31178(17)
H7 H -0.2481 0.1265 -0.3131
H8 H -0.1178 0.1540 -0.3512
H9 H -0.1528 0.0393 -0.3343
C13 C 0.1241(2) 0.23500(19) 0.44635(18)
C14 C 0.0844(3) 0.3293(3) 0.3879(3)
H10 H 0.0074 0.3570 0.4083
H11 H 0.1509 0.3797 0.3959
H12 H 0.0700 0.3105 0.3228
C15 C 0.0202(3) 0.1551(3) 0.4399(3)
H13 H -0.0563 0.1841 0.4601
H14 H 0.0040 0.1321 0.3760
H15 H 0.0468 0.0982 0.4796
C16 C 0.1557(3) 0.2664(3) 0.5481(2)
H16 H 0.0813 0.2952 0.5717
H17 H 0.1830 0.2074 0.5849
H18 H 0.2229 0.3163 0.5523
C17 C 0.6022(2) 0.06958(19) 0.36221(17)
C18 C 0.6763(2) 0.0771(3) 0.4587(2)
H19 H 0.7607 0.0502 0.4559
H20 H 0.6818 0.1474 0.4780
H21 H 0.6334 0.0383 0.5031
C19 C 0.6698(3) 0.1323(3) 0.2918(2)
H22 H 0.7526 0.1037 0.2861
H23 H 0.6202 0.1311 0.2316
H24 H 0.6789 0.2017 0.3135
C20 C 0.5891(3) -0.0424(2) 0.3323(2)
H25 H 0.6721 -0.0703 0.3257
H26 H 0.5498 -0.0804 0.3793
H27 H 0.5372 -0.0470 0.2733
loop_
_geom_bond_atom_site_label_1
_geom_bond_atom_site_label_2
_geom_bond_site_symmetry_1
_geom_bond_site_symmetry_2
O1 C11 1_555 1_555
O2 C11 1_555 1_555
N1 C1 1_555 1_555
N2 C1 1_555 1_555
N3 H1 1_555 1_555
C1 C2 1_555 1_555
C2 N3 1_555 1_555
C3 C2 1_555 1_555
H2 C3 1_555 1_555
C4 N1 1_555 1_555
C5 C4 1_555 1_555
C6 C5 1_555 1_555
H3 C6 1_555 1_555
C7 C6 1_555 1_555
H4 C7 1_555 1_555
C8 C7 1_555 1_555
C9 C8 1_555 1_555
H5 C9 1_555 1_555
C10 C5 1_555 1_555
H6 C10 1_555 1_555
C11 C8 1_555 1_555
C12 O1 1_555 1_555
H7 C12 1_555 1_555
H8 C12 1_555 1_555
H9 C12 1_555 1_555
C13 N2 1_555 1_555
C14 C13 1_555 1_555
H10 C14 1_555 1_555
H11 C14 1_555 1_555
H12 C14 1_555 1_555
C15 C13 1_555 1_555
H13 C15 1_555 1_555
H14 C15 1_555 1_555
H15 C15 1_555 1_555
C16 C13 1_555 1_555
H16 C16 1_555 1_555
H17 C16 1_555 1_555
H18 C16 1_555 1_555
C17 N3 1_555 1_555
C18 C17 1_555 1_555
H19 C18 1_555 1_555
H20 C18 1_555 1_555
H21 C18 1_555 1_555
C19 C17 1_555 1_555
H22 C19 1_555 1_555
H23 C19 1_555 1_555
H24 C19 1_555 1_555
C20 C17 1_555 1_555
H25 C20 1_555 1_555
H26 C20 1_555 1_555
H27 C20 1_555 1_555
C3 C4 1_555 1_555
C9 C10 1_555 1_555

#END
