
#######################################################################
#
#                 Cambridge Crystallographic Data Centre
#                                CCDC 
#
#######################################################################
#
# If this CIF has been generated from an entry in the Cambridge 
# Structural Database, then it will include bibliographic, chemical, 
# crystal, experimental, refinement or atomic coordinate data resulting 
# from the CCDC's data processing and validation procedures.
#
#######################################################################

data_YAXQOE
_chemical_formula_moiety         'C32 H30 Cl2 N4 O2'
_chemical_name_systematic        
3,10-bis(4-Chlorobenzoyl)-2,4,9,11-tetramethyl-13,14-benzo-1,5,8,12-tetra-azacyclotetradeca-1,3,9,11-tetraene
_symmetry_cell_setting           monoclinic
_symmetry_space_group_name_H-M   'C 2/c'
_symmetry_Int_Tables_number      15
_space_group_name_Hall           '-C 2yn'
loop_
_symmetry_equiv_pos_site_id
_symmetry_equiv_pos_as_xyz
1 x,y,z
2 1/2+x,1/2+y,z
3 -x,y,1/2-z
4 1/2-x,1/2+y,1/2-z
5 -x,-y,-z
6 1/2-x,1/2-y,-z
7 x,-y,1/2+z
8 1/2+x,1/2-y,1/2+z
_cell_length_a                   26.0059(19)
_cell_length_b                   6.9058(5)
_cell_length_c                   33.082(2)
_cell_angle_alpha                90
_cell_angle_beta                 109.5930(10)
_cell_angle_gamma                90
_cell_volume                     5597.24
_exptl_crystal_colour            'ruby red'
_exptl_crystal_description       block
_cell_formula_units_Z            8
loop_
_atom_site_label
_atom_site_type_symbol
_atom_site_fract_x
_atom_site_fract_y
_atom_site_fract_z
Cl1 Cl 0.26391(3) 0.36490(12) 0.72409(2)
Cl2 Cl 0.09524(3) 0.32133(10) 0.15381(2)
O1 O 0.16208(8) -0.3216(2) 0.58002(5)
O2 O 0.09651(9) -0.3433(2) 0.29789(5)
N1 N 0.11388(7) 0.1848(2) 0.47930(5)
N2 N 0.04208(11) -0.0846(5) 0.47165(6)
N3 N 0.02369(10) -0.0985(4) 0.38308(7)
N4 N 0.09705(7) 0.1687(2) 0.39172(5)
C1 C 0.13398(8) 0.3361(3) 0.45982(6)
C2 C 0.12619(8) 0.3267(3) 0.41567(6)
C3 C 0.14274(9) 0.4846(3) 0.39656(7)
C4 C 0.16641(10) 0.6451(3) 0.41999(8)
C5 C 0.17356(10) 0.6541(3) 0.46302(8)
C6 C 0.15712(10) 0.5016(3) 0.48271(7)
C7 C 0.14556(8) 0.0925(3) 0.51245(6)
C8 C 0.12331(9) -0.0648(3) 0.53132(6)
C9 C 0.07353(12) -0.1528(4) 0.50921(7)
C11 C 0.0051(2) -0.2402(11) 0.44122(15)
H3 H 0.0272 -0.3502 0.4370
H4 H -0.0228 -0.2896 0.4529
C13 C -0.0211(2) -0.1321(11) 0.39981(15)
H7 H -0.0503 -0.2105 0.3795
H8 H -0.0368 -0.0080 0.4051
C14 C 0.03849(10) -0.1728(4) 0.35169(6)
C15 C 0.07928(9) -0.0852(3) 0.33944(6)
C16 C 0.11210(8) 0.0755(3) 0.36329(6)
C17 C 0.20625(9) 0.1248(3) 0.52902(7)
C18 C 0.15706(10) -0.1469(3) 0.57299(6)
C19 C 0.18449(8) -0.0115(3) 0.60942(6)
C20 C 0.16808(9) 0.1796(3) 0.61002(6)
C21 C 0.19264(9) 0.2974(3) 0.64518(7)
C22 C 0.23343(9) 0.2202(3) 0.67971(6)
C23 C 0.25116(10) 0.0325(4) 0.67979(7)
C24 C 0.22633(9) -0.0836(3) 0.64461(6)
C25 C 0.05176(18) -0.3242(6) 0.52626(9)
C26 C 0.00851(13) -0.3508(4) 0.33025(8)
C27 C 0.09166(10) -0.1683(3) 0.30248(6)
C28 C 0.09441(9) -0.0379(3) 0.26713(6)
C29 C 0.11421(9) -0.1133(3) 0.23600(6)
C30 C 0.11431(9) -0.0028(3) 0.20128(7)
C31 C 0.09473(9) 0.1833(3) 0.19778(6)
C32 C 0.07565(10) 0.2644(3) 0.22816(7)
C33 C 0.07508(9) 0.1510(3) 0.26262(6)
C34 C 0.16654(10) 0.1118(4) 0.35737(7)
H9 H 0.1366(9) 0.482(3) 0.3655(7)
H10 H 0.1764(9) 0.746(4) 0.4064(7)
H11 H 0.1896(9) 0.763(4) 0.4787(7)
H12 H 0.1612(9) 0.508(3) 0.5120(7)
H13 H 0.2187(10) 0.148(3) 0.5048(8)
H14 H 0.2261(10) 0.018(4) 0.5458(8)
H15 H 0.2171(10) 0.234(4) 0.5470(8)
H16 H 0.1405(10) 0.230(3) 0.5860(7)
H17 H 0.1812(9) 0.430(3) 0.6459(7)
H18 H 0.2805(9) -0.020(3) 0.7029(7)
H19 H 0.2377(9) -0.216(4) 0.6444(7)
H20 H 0.0147(12) -0.306(4) 0.5212(8)
H21 H 0.0693(10) -0.339(4) 0.5569(8)
H22 H 0.0546(11) -0.427(4) 0.5132(9)
H23 H 0.0236(10) -0.469(4) 0.3444(8)
H24 H 0.0115(10) -0.367(4) 0.3019(8)
H25 H -0.0296(12) -0.343(4) 0.3290(8)
H26 H 0.1274(9) -0.241(4) 0.2394(7)
H27 H 0.1261(9) -0.053(3) 0.1801(7)
H28 H 0.0626(9) 0.400(3) 0.2259(7)
H29 H 0.0607(9) 0.204(3) 0.2826(7)
H30 H 0.1634(10) 0.213(4) 0.3362(8)
H31 H 0.1796(10) -0.007(4) 0.3474(8)
H32 H 0.1923(11) 0.154(4) 0.3828(8)
H33 H 0.0511(11) 0.022(4) 0.4632(8)
H34 H 0.0397(12) 0.007(4) 0.3935(9)
C10? C -0.0139(2) -0.1189(11) 0.44096(14)
H1? H -0.0319 0.0034 0.4281
H2? H -0.0371 -0.1880 0.4547
C12? C -0.0008(2) -0.2444(11) 0.40826(16)
H5? H -0.0341 -0.3071 0.3888
H6? H 0.0261 -0.3457 0.4225
loop_
_geom_bond_atom_site_label_1
_geom_bond_atom_site_label_2
_geom_bond_site_symmetry_1
_geom_bond_site_symmetry_2
Cl1 C22 1_555 1_555
Cl2 C31 1_555 1_555
O1 C18 1_555 1_555
O2 C27 1_555 1_555
N1 C1 1_555 1_555
N2 C9 1_555 1_555
N3 C13 1_555 1_555
N4 C2 1_555 1_555
C1 C2 1_555 1_555
C2 C3 1_555 1_555
C3 C4 1_555 1_555
C4 C5 1_555 1_555
C5 C6 1_555 1_555
C6 C1 1_555 1_555
C7 N1 1_555 1_555
C8 C7 1_555 1_555
C9 C8 1_555 1_555
C11 N2 1_555 1_555
H3 C11 1_555 1_555
H4 C11 1_555 1_555
C13 C11 1_555 1_555
H7 C13 1_555 1_555
H8 C13 1_555 1_555
C14 N3 1_555 1_555
C15 C14 1_555 1_555
C16 N4 1_555 1_555
C17 C7 1_555 1_555
C18 C8 1_555 1_555
C19 C18 1_555 1_555
C20 C19 1_555 1_555
C21 C20 1_555 1_555
C22 C21 1_555 1_555
C23 C22 1_555 1_555
C24 C19 1_555 1_555
C25 C9 1_555 1_555
C26 C14 1_555 1_555
C27 C15 1_555 1_555
C28 C27 1_555 1_555
C29 C28 1_555 1_555
C30 C29 1_555 1_555
C31 C30 1_555 1_555
C32 C31 1_555 1_555
C33 C28 1_555 1_555
C34 C16 1_555 1_555
H9 C3 1_555 1_555
H10 C4 1_555 1_555
H11 C5 1_555 1_555
H12 C6 1_555 1_555
H13 C17 1_555 1_555
H14 C17 1_555 1_555
H15 C17 1_555 1_555
H16 C20 1_555 1_555
H17 C21 1_555 1_555
H18 C23 1_555 1_555
H19 C24 1_555 1_555
H20 C25 1_555 1_555
H21 C25 1_555 1_555
H22 C25 1_555 1_555
H23 C26 1_555 1_555
H24 C26 1_555 1_555
H25 C26 1_555 1_555
H26 C29 1_555 1_555
H27 C30 1_555 1_555
H28 C32 1_555 1_555
H29 C33 1_555 1_555
H30 C34 1_555 1_555
H31 C34 1_555 1_555
H32 C34 1_555 1_555
H33 N2 1_555 1_555
H34 N3 1_555 1_555
C15 C16 1_555 1_555
C23 C24 1_555 1_555
C32 C33 1_555 1_555

#END
