
#######################################################################
#
#                 Cambridge Crystallographic Data Centre
#                                CCDC 
#
#######################################################################
#
# If this CIF has been generated from an entry in the Cambridge 
# Structural Database, then it will include bibliographic, chemical, 
# crystal, experimental, refinement or atomic coordinate data resulting 
# from the CCDC's data processing and validation procedures.
#
#######################################################################

data_YAXQAS
_chemical_formula_moiety         'C12 H9 N1 O2'
_chemical_name_systematic        4,5-dihydro-1H-benzo[g]indole-2,3-dione
_symmetry_cell_setting           monoclinic
_symmetry_space_group_name_H-M   'P 21/n'
_symmetry_Int_Tables_number      14
_space_group_name_Hall           '-P 2yn'
loop_
_symmetry_equiv_pos_site_id
_symmetry_equiv_pos_as_xyz
1 x,y,z
2 1/2-x,1/2+y,1/2-z
3 -x,-y,-z
4 1/2+x,1/2-y,1/2+z
_cell_length_a                   7.5190(6)
_cell_length_b                   8.0121(6)
_cell_length_c                   15.9597(11)
_cell_angle_alpha                90
_cell_angle_beta                 103.624(7)
_cell_angle_gamma                90
_cell_volume                     934.407
_exptl_crystal_colour            red
_exptl_crystal_description       parallelepiped
_cell_formula_units_Z            4
loop_
_atom_site_label
_atom_site_type_symbol
_atom_site_fract_x
_atom_site_fract_y
_atom_site_fract_z
O1 O 0.0042(2) 0.4230(3) 0.11056(11)
O2 O 0.2742(3) 0.4587(3) 0.27652(12)
N1 N 0.2248(3) 0.5668(3) 0.06124(13)
H1 H 0.169(4) 0.575(4) 0.008(2)
C1 C 0.1525(3) 0.4916(3) 0.12132(15)
C2 C 0.2981(3) 0.5106(3) 0.20813(15)
C3 C 0.4472(3) 0.5973(3) 0.18626(14)
C4 C 0.4005(3) 0.6279(3) 0.10028(13)
C5 C 0.5165(3) 0.7135(3) 0.05389(13)
C6 C 0.4601(3) 0.7583(3) -0.03288(14)
H2 H 0.3425 0.7323 -0.0639
C7 C 0.5789(4) 0.8412(3) -0.07267(16)
H3 H 0.5415 0.8709 -0.1305
C8 C 0.7533(4) 0.8797(3) -0.02636(17)
H4 H 0.8332 0.9354 -0.0532
C9 C 0.8104(4) 0.8363(3) 0.05969(16)
H5 H 0.9282 0.8636 0.0900
C10 C 0.6947(3) 0.7529(3) 0.10137(14)
C11 C 0.7599(4) 0.6923(5) 0.19320(17)
H6 H 0.8245 0.5878 0.1922
H7 H 0.8476 0.7724 0.2244
C12 C 0.6196(4) 0.6660(4) 0.24175(16)
H8 H 0.5933 0.7713 0.2663
H9 H 0.6659 0.5893 0.2889
loop_
_geom_bond_atom_site_label_1
_geom_bond_atom_site_label_2
_geom_bond_site_symmetry_1
_geom_bond_site_symmetry_2
O1 C1 1_555 1_555
O2 C2 1_555 1_555
N1 H1 1_555 1_555
C1 N1 1_555 1_555
C2 C1 1_555 1_555
C3 C2 1_555 1_555
C4 N1 1_555 1_555
C5 C4 1_555 1_555
C6 C5 1_555 1_555
H2 C6 1_555 1_555
C7 C6 1_555 1_555
H3 C7 1_555 1_555
C8 C7 1_555 1_555
H4 C8 1_555 1_555
C9 C8 1_555 1_555
H5 C9 1_555 1_555
C10 C5 1_555 1_555
C11 C10 1_555 1_555
H6 C11 1_555 1_555
H7 C11 1_555 1_555
C12 C3 1_555 1_555
H8 C12 1_555 1_555
H9 C12 1_555 1_555
C3 C4 1_555 1_555
C9 C10 1_555 1_555
C11 C12 1_555 1_555

#END
