
#######################################################################
#
#                 Cambridge Crystallographic Data Centre
#                                CCDC 
#
#######################################################################
#
# If this CIF has been generated from an entry in the Cambridge 
# Structural Database, then it will include bibliographic, chemical, 
# crystal, experimental, refinement or atomic coordinate data resulting 
# from the CCDC's data processing and validation procedures.
#
#######################################################################

data_YAXWAX01
_chemical_formula_moiety         'C2 H3 N3 O1 S1'
_chemical_name_systematic        5-Amino-1,3,4-thiadiazol-2(3H)-one
_symmetry_cell_setting           monoclinic
_symmetry_space_group_name_H-M   'P 21/c'
_symmetry_Int_Tables_number      14
_space_group_name_Hall           '-P 2ybc'
loop_
_symmetry_equiv_pos_site_id
_symmetry_equiv_pos_as_xyz
1 x,y,z
2 -x,1/2+y,1/2-z
3 -x,-y,-z
4 x,1/2-y,1/2+z
_cell_length_a                   3.8182(3)
_cell_length_b                   10.8166(7)
_cell_length_c                   21.8043(15)
_cell_angle_alpha                90
_cell_angle_beta                 91.015(4)
_cell_angle_gamma                90
_cell_volume                     900.375
_exptl_crystal_colour            colorless
_exptl_crystal_description       block
_cell_formula_units_Z            8
loop_
_atom_site_label
_atom_site_type_symbol
_atom_site_fract_x
_atom_site_fract_y
_atom_site_fract_z
S1 S 0.5670(2) 0.33458(7) 0.36148(3)
C1 C 0.4389(8) 0.4860(3) 0.33723(13)
N1 N 0.5448(8) 0.5631(3) 0.38116(12)
H1 H 0.487(9) 0.631(3) 0.3829(14)
N2 N 0.7091(7) 0.5177(2) 0.43328(11)
C2 C 0.7362(8) 0.3992(3) 0.42932(13)
O1 O 0.2779(7) 0.5107(2) 0.28964(10)
N3 N 0.8708(8) 0.3270(3) 0.47486(13)
H2 H 0.968(9) 0.259(3) 0.4641(14)
H3 H 0.983(10) 0.364(3) 0.5033(17)
S2 S 0.0629(2) 1.02405(7) 0.34352(4)
C3 C 0.2461(8) 1.0171(3) 0.41853(13)
N4 N 0.3361(7) 0.9003(2) 0.42943(12)
H4 H 0.438(8) 0.884(3) 0.4630(14)
N5 N 0.2747(8) 0.8126(2) 0.38422(11)
C4 C 0.1325(8) 0.8645(3) 0.33686(13)
O2 O 0.2843(7) 1.1052(2) 0.45367(10)
N6 N 0.0397(10) 0.8045(4) 0.28504(14)
H5 H -0.052(11) 0.853(4) 0.2546(19)
H6 H 0.074(10) 0.738(4) 0.2852(17)
loop_
_geom_bond_atom_site_label_1
_geom_bond_atom_site_label_2
_geom_bond_site_symmetry_1
_geom_bond_site_symmetry_2
S1 C1 1_555 1_555
C1 N1 1_555 1_555
N1 H1 1_555 1_555
N2 N1 1_555 1_555
C2 S1 1_555 1_555
O1 C1 1_555 1_555
N3 C2 1_555 1_555
H2 N3 1_555 1_555
H3 N3 1_555 1_555
S2 C3 1_555 1_555
C3 N4 1_555 1_555
N4 H4 1_555 1_555
N5 N4 1_555 1_555
C4 S2 1_555 1_555
O2 C3 1_555 1_555
N6 C4 1_555 1_555
H5 N6 1_555 1_555
H6 N6 1_555 1_555
N2 C2 1_555 1_555
N5 C4 1_555 1_555

#END
