
#######################################################################
#
#                 Cambridge Crystallographic Data Centre
#                                CCDC 
#
#######################################################################
#
# If this CIF has been generated from an entry in the Cambridge 
# Structural Database, then it will include bibliographic, chemical, 
# crystal, experimental, refinement or atomic coordinate data resulting 
# from the CCDC's data processing and validation procedures.
#
#######################################################################

data_YAYKEQ
_chemical_formula_moiety         'C24 H30 N6 O5'
_chemical_name_systematic        
N-Cyclohexyl-N-((3-((4,6-dimethoxypyrimidin-2-yl)oxy)pyridin-2-yl)methyl)-4,6-dimethoxypyrimidin-2-amine
_symmetry_cell_setting           triclinic
_symmetry_space_group_name_H-M   'P -1'
_symmetry_Int_Tables_number      2
_space_group_name_Hall           '-P 1'
loop_
_symmetry_equiv_pos_site_id
_symmetry_equiv_pos_as_xyz
1 x,y,z
2 -x,-y,-z
_cell_length_a                   7.0260(14)
_cell_length_b                   10.624(2)
_cell_length_c                   17.084(3)
_cell_angle_alpha                72.95(3)
_cell_angle_beta                 84.18(3)
_cell_angle_gamma                79.56(3)
_cell_volume                     1197.41
_exptl_crystal_colour            white
_exptl_crystal_description       block
_cell_formula_units_Z            2
_exptl_crystal_recrystallization_method methanol
loop_
_atom_site_label
_atom_site_type_symbol
_atom_site_fract_x
_atom_site_fract_y
_atom_site_fract_z
O1 O -0.5779(3) -0.4010(2) 0.30512(12)
N1 N -0.2211(4) -0.6995(3) 0.32680(17)
C1 C -0.5799(5) -0.5959(3) 0.2625(2)
H1 H -0.7015 -0.5608 0.2416
N2 N -0.6650(3) -0.1812(2) 0.25672(15)
N3 N -0.5486(4) -0.3123(2) 0.16500(15)
O2 O -0.5286(3) -0.2115(2) 0.02694(13)
C2 C -0.4927(6) -0.7205(4) 0.2608(2)
H2 H -0.5505 -0.7711 0.2368
O3 O -0.7485(3) 0.0450(2) 0.20679(14)
C3 C -0.3169(6) -0.7692(3) 0.2957(2)
H3 H -0.2613 -0.8564 0.2976
O4 O 0.0337(3) -0.4581(2) 0.08476(13)
N4 N -0.1984(4) -0.3603(2) 0.32456(14)
C4 C -0.3046(5) -0.5749(3) 0.32542(18)
O5 O -0.1294(3) -0.0173(2) 0.09128(13)
N5 N -0.0728(3) -0.4126(2) 0.20658(14)
C5 C -0.4850(5) -0.5237(3) 0.29541(18)
N6 N -0.1554(3) -0.1847(2) 0.21032(14)
C6 C -0.5969(4) -0.2925(3) 0.23752(18)
C7 C -0.5704(4) -0.2005(3) 0.10297(19)
C8 C -0.6346(5) -0.0770(3) 0.1132(2)
H4 H -0.6451 -0.0001 0.0693
C9 C -0.6827(4) -0.0735(3) 0.1924(2)
C10 C -0.4772(6) -0.3424(4) 0.0165(2)
H5 H -0.4518 -0.3359 -0.0407
H6 H -0.5820 -0.3917 0.0375
H7 H -0.3633 -0.3875 0.0458
C11 C -0.8112(6) 0.0430(3) 0.2890(2)
H8 H -0.8558 0.1326 0.2918
H9 H -0.7050 0.0034 0.3241
H10 H -0.9149 -0.0083 0.3065
C12 C -0.1847(5) -0.5041(3) 0.36202(19)
H11 H -0.2232 -0.5194 0.4198
H12 H -0.0500 -0.5445 0.3583
C13 C -0.1381(4) -0.3174(3) 0.24449(17)
C14 C -0.0298(4) -0.3675(3) 0.12722(19)
C15 C -0.0444(5) -0.2355(3) 0.08470(19)
H13 H -0.0130 -0.2069 0.0288
C16 C -0.1090(4) -0.1485(3) 0.13068(18)
C17 C 0.0071(6) -0.5926(4) 0.1224(2)
H14 H 0.0587 -0.6458 0.0860
H15 H -0.1286 -0.5964 0.1338
H16 H 0.0734 -0.6263 0.1726
C18 C -0.2060(5) 0.0734(3) 0.1364(2)
H17 H -0.2129 0.1628 0.1012
H18 H -0.1239 0.0615 0.1805
H19 H -0.3336 0.0577 0.1584
C19 C -0.2291(5) -0.2710(3) 0.37820(17)
H20 H -0.2527 -0.1798 0.3419
C20 C -0.0472(5) -0.2818(3) 0.4213(2)
H21 H 0.0598 -0.2649 0.3811
H22 H -0.0156 -0.3715 0.4572
C21 C -0.0747(6) -0.1815(4) 0.4717(2)
H23 H 0.0391 -0.1959 0.5028
H24 H -0.0871 -0.0918 0.4348
C22 C -0.2499(6) -0.1934(4) 0.5293(2)
H25 H -0.2686 -0.1229 0.5560
H26 H -0.2298 -0.2782 0.5713
C23 C -0.4279(6) -0.1842(4) 0.4849(2)
H27 H -0.4566 -0.0956 0.4475
H28 H -0.5371 -0.1980 0.5243
C24 C -0.4025(5) -0.2862(4) 0.4373(2)
H29 H -0.3858 -0.3752 0.4750
H30 H -0.5176 -0.2747 0.4075
loop_
_geom_bond_atom_site_label_1
_geom_bond_atom_site_label_2
_geom_bond_site_symmetry_1
_geom_bond_site_symmetry_2
O1 C5 1_555 1_555
N1 C3 1_555 1_555
C1 H1 1_555 1_555
N2 C6 1_555 1_555
N3 C6 1_555 1_555
O2 C7 1_555 1_555
C2 C1 1_555 1_555
H2 C2 1_555 1_555
O3 C9 1_555 1_555
C3 C2 1_555 1_555
H3 C3 1_555 1_555
O4 C14 1_555 1_555
N4 C12 1_555 1_555
C4 N1 1_555 1_555
O5 C16 1_555 1_555
N5 C13 1_555 1_555
C5 C1 1_555 1_555
N6 C13 1_555 1_555
C6 O1 1_555 1_555
C7 N3 1_555 1_555
C8 C7 1_555 1_555
H4 C8 1_555 1_555
C9 N2 1_555 1_555
C10 O2 1_555 1_555
H5 C10 1_555 1_555
H6 C10 1_555 1_555
H7 C10 1_555 1_555
C11 O3 1_555 1_555
H8 C11 1_555 1_555
H9 C11 1_555 1_555
H10 C11 1_555 1_555
C12 C4 1_555 1_555
H11 C12 1_555 1_555
H12 C12 1_555 1_555
C13 N4 1_555 1_555
C14 N5 1_555 1_555
C15 C14 1_555 1_555
H13 C15 1_555 1_555
C16 N6 1_555 1_555
C17 O4 1_555 1_555
H14 C17 1_555 1_555
H15 C17 1_555 1_555
H16 C17 1_555 1_555
C18 O5 1_555 1_555
H17 C18 1_555 1_555
H18 C18 1_555 1_555
H19 C18 1_555 1_555
C19 N4 1_555 1_555
H20 C19 1_555 1_555
C20 C19 1_555 1_555
H21 C20 1_555 1_555
H22 C20 1_555 1_555
C21 C20 1_555 1_555
H23 C21 1_555 1_555
H24 C21 1_555 1_555
C22 C21 1_555 1_555
H25 C22 1_555 1_555
H26 C22 1_555 1_555
C23 C22 1_555 1_555
H27 C23 1_555 1_555
H28 C23 1_555 1_555
C24 C19 1_555 1_555
H29 C24 1_555 1_555
H30 C24 1_555 1_555
C4 C5 1_555 1_555
C8 C9 1_555 1_555
C15 C16 1_555 1_555
C23 C24 1_555 1_555

#END
