
#######################################################################
#
#                 Cambridge Crystallographic Data Centre
#                                CCDC 
#
#######################################################################
#
# If this CIF has been generated from an entry in the Cambridge 
# Structural Database, then it will include bibliographic, chemical, 
# crystal, experimental, refinement or atomic coordinate data resulting 
# from the CCDC's data processing and validation procedures.
#
#######################################################################

data_YAYKEP
_chemical_formula_moiety         'C16 H21 N1 O4 S1'
_chemical_name_systematic        
trans-2,2-Dimethyl-5-(p-toluenesulfonyl)-4a,5,6,8a-tetrahydro-4H-[1,3]-dioxino[5,4-b]pyridine
_symmetry_cell_setting           orthorhombic
_symmetry_space_group_name_H-M   'P b c a'
_symmetry_Int_Tables_number      61
_space_group_name_Hall           '-P 2ac 2ab'
loop_
_symmetry_equiv_pos_site_id
_symmetry_equiv_pos_as_xyz
1 x,y,z
2 1/2-x,-y,1/2+z
3 -x,1/2+y,1/2-z
4 1/2+x,1/2-y,-z
5 -x,-y,-z
6 1/2+x,y,1/2-z
7 x,1/2-y,1/2+z
8 1/2-x,1/2+y,z
_cell_length_a                   20.924(2)
_cell_length_b                   7.9873(10)
_cell_length_c                   23.365(3)
_cell_angle_alpha                90
_cell_angle_beta                 90
_cell_angle_gamma                90
_cell_volume                     3904.91
_exptl_crystal_colour            colorless
_exptl_crystal_description       rod
_chemical_melting_point          68-70deg.C
_cell_formula_units_Z            8
loop_
_atom_site_label
_atom_site_type_symbol
_atom_site_fract_x
_atom_site_fract_y
_atom_site_fract_z
S1 S 1.04252(3) 0.65733(7) 0.18023(3)
N1 N 0.96494(11) 0.6458(2) 0.18886(8)
O1 O 1.06765(11) 0.7069(2) 0.23481(8)
O2 O 1.06296(9) 0.5033(2) 0.15569(8)
O3 O 0.89476(9) 0.3841(2) 0.07115(7)
O4 O 0.81548(9) 0.4642(3) 0.13510(8)
C1 C 1.05790(11) 0.8191(3) 0.13126(10)
C2 C 1.06209(12) 0.7850(3) 0.07306(10)
H1 H 1.0575 0.6760 0.0596
C3 C 1.07316(13) 0.9143(4) 0.03562(11)
H2 H 1.0756 0.8916 -0.0034
C4 C 1.08082(11) 1.0778(3) 0.05432(11)
C5 C 1.07713(14) 1.1092(3) 0.11214(12)
H3 H 1.0825 1.2181 0.1253
C6 C 1.06563(13) 0.9822(3) 0.15110(11)
H4 H 1.0631 1.0055 0.1900
C7 C 1.09385(16) 1.2179(5) 0.01243(15)
H5 H 1.0600 1.2987 0.0144
H6 H 1.0962 1.1731 -0.0256
H7 H 1.1336 1.2709 0.0219
C8 C 0.93773(15) 0.7970(3) 0.21762(13)
H8 H 0.9597 0.8144 0.2537
H9 H 0.9454 0.8944 0.1938
C9 C 0.86923(17) 0.7822(4) 0.22835(13)
H10 H 0.8494 0.8667 0.2492
C10 C 0.83389(16) 0.6569(4) 0.21040(13)
H11 H 0.7906 0.6540 0.2194
C11 C 0.86238(13) 0.5191(3) 0.17570(10)
H12 H 0.8738 0.4257 0.2009
C12 C 0.92187(12) 0.5791(3) 0.14414(9)
H13 H 0.9098 0.6708 0.1184
C13 C 0.94547(12) 0.4328(3) 0.10832(11)
H14 H 0.9826 0.4658 0.0862
H15 H 0.9575 0.3401 0.1329
C14 C 0.83746(13) 0.3325(3) 0.09893(11)
C15 C 0.84658(17) 0.1689(3) 0.13047(14)
H16 H 0.8614 0.0849 0.1042
H17 H 0.8066 0.1342 0.1468
H18 H 0.8775 0.1838 0.1604
C16 C 0.78743(17) 0.3190(5) 0.05217(16)
H19 H 0.7864 0.4213 0.0306
H20 H 0.7463 0.2995 0.0691
H21 H 0.7980 0.2277 0.0272
loop_
_geom_bond_atom_site_label_1
_geom_bond_atom_site_label_2
_geom_bond_site_symmetry_1
_geom_bond_site_symmetry_2
S1 N1 1_555 1_555
N1 C8 1_555 1_555
O1 S1 1_555 1_555
O2 S1 1_555 1_555
O3 C13 1_555 1_555
O4 C11 1_555 1_555
C1 S1 1_555 1_555
C2 C1 1_555 1_555
H1 C2 1_555 1_555
C3 C2 1_555 1_555
H2 C3 1_555 1_555
C4 C3 1_555 1_555
C5 C4 1_555 1_555
H3 C5 1_555 1_555
C6 C1 1_555 1_555
H4 C6 1_555 1_555
C7 C4 1_555 1_555
H5 C7 1_555 1_555
H6 C7 1_555 1_555
H7 C7 1_555 1_555
C8 H8 1_555 1_555
H9 C8 1_555 1_555
C9 C8 1_555 1_555
H10 C9 1_555 1_555
C10 C9 1_555 1_555
H11 C10 1_555 1_555
C11 C10 1_555 1_555
H12 C11 1_555 1_555
C12 N1 1_555 1_555
H13 C12 1_555 1_555
C13 C12 1_555 1_555
H14 C13 1_555 1_555
H15 C13 1_555 1_555
C14 O3 1_555 1_555
C15 C14 1_555 1_555
H16 C15 1_555 1_555
H17 C15 1_555 1_555
H18 C15 1_555 1_555
C16 C14 1_555 1_555
H19 C16 1_555 1_555
H20 C16 1_555 1_555
H21 C16 1_555 1_555
O4 C14 1_555 1_555
C5 C6 1_555 1_555
C11 C12 1_555 1_555

#END
