
#######################################################################
#
#                 Cambridge Crystallographic Data Centre
#                                CCDC 
#
#######################################################################
#
# If this CIF has been generated from an entry in the Cambridge 
# Structural Database, then it will include bibliographic, chemical, 
# crystal, experimental, refinement or atomic coordinate data resulting 
# from the CCDC's data processing and validation procedures.
#
#######################################################################

data_YAYLUI
_chemical_formula_moiety         'C28 H23 N1 O3 S1'
_chemical_name_systematic        
'3-benzylidene-5-phenyl-1,3,4,4a,5,12a-hexahydro-2H-[1,2]benzothiazolo[2,3-a]quinolin-2-one 11,11-dioxide'
_symmetry_cell_setting           orthorhombic
_symmetry_space_group_name_H-M   'P 21 21 21'
_symmetry_Int_Tables_number      19
_space_group_name_Hall           'P 2ac 2ab'
loop_
_symmetry_equiv_pos_site_id
_symmetry_equiv_pos_as_xyz
1 x,y,z
2 1/2-x,-y,1/2+z
3 1/2+x,1/2-y,-z
4 -x,1/2+y,1/2-z
_cell_length_a                   8.3208(2)
_cell_length_b                   11.0807(2)
_cell_length_c                   24.3228(4)
_cell_angle_alpha                90
_cell_angle_beta                 90
_cell_angle_gamma                90
_cell_volume                     2242.57
_exptl_crystal_description       block
_cell_formula_units_Z            4
loop_
_atom_site_label
_atom_site_type_symbol
_atom_site_fract_x
_atom_site_fract_y
_atom_site_fract_z
S1 S 0.76666(8) 0.20625(5) 0.26902(3)
O1 O 0.9095(3) 0.55315(19) 0.32386(8)
N1 N 0.6296(2) 0.26178(16) 0.31256(7)
O2 O 0.7114(3) 0.21699(18) 0.21337(7)
C1 C 0.6051(3) 0.05107(19) 0.32447(8)
C2 C 0.5582(3) 0.4368(2) 0.39924(9)
H1 H 0.4944 0.4746 0.4278
H2 H 0.5944 0.3596 0.4133
C3 C 0.4490(3) 0.4135(2) 0.34969(9)
H3 H 0.3935 0.4891 0.3410
O3 O 0.9202(3) 0.25481(19) 0.28167(12)
C4 C 0.3844(3) 0.1917(2) 0.35410(9)
H4 H 0.3213 0.1265 0.3648
C5 C 0.5264(3) 0.16895(18) 0.33208(8)
C6 C 0.3186(3) 0.3167(2) 0.36294(9)
H5 H 0.2280 0.3286 0.3378
C7 C 0.5488(3) 0.3774(2) 0.29943(9)
H6 H 0.4768 0.3653 0.2680
C8 C 0.5619(3) -0.0599(2) 0.34638(9)
H7 H 0.4699 -0.0678 0.3678
C9 C 0.7716(3) 0.5863(2) 0.42681(10)
H8 H 0.8604 0.6292 0.4143
C10 C 0.7034(3) 0.51430(18) 0.38900(9)
C11 C 0.2586(3) 0.3342(2) 0.42148(9)
C12 C 0.7298(3) 0.6087(2) 0.48452(10)
C13 C 0.7427(3) 0.05854(19) 0.29276(8)
C14 C 0.6588(4) -0.1584(2) 0.33561(11)
H9 H 0.6312 -0.2332 0.3502
C15 C 0.6693(3) 0.4764(2) 0.28549(9)
H10 H 0.7375 0.4481 0.2558
H11 H 0.6107 0.5461 0.2721
C16 C 0.8401(3) -0.0396(2) 0.28100(10)
H12 H 0.9308 -0.0322 0.2589
C17 C 0.6436(4) 0.5297(2) 0.51789(10)
H13 H 0.6092 0.4561 0.5038
C18 C 0.3220(3) 0.2694(2) 0.46471(10)
H14 H 0.3862 0.2026 0.4574
C19 C 0.7957(4) -0.1489(2) 0.30367(11)
H15 H 0.8586 -0.2168 0.2974
C20 C 0.6084(4) 0.5596(3) 0.57204(12)
H16 H 0.5493 0.5063 0.5936
C21 C 0.7746(3) 0.51564(19) 0.33262(10)
C22 C 0.1259(4) 0.4606(3) 0.48776(15)
H17 H 0.0578 0.5248 0.4957
C23 C 0.2926(4) 0.3014(3) 0.51880(11)
H18 H 0.3379 0.2574 0.5474
C24 C 0.1546(3) 0.4291(3) 0.43332(13)
H19 H 0.1046 0.4712 0.4050
C25 C 0.1966(4) 0.3982(3) 0.52967(13)
H20 H 0.1791 0.4218 0.5659
C26 C 0.6598(5) 0.6669(3) 0.59409(13)
H21 H 0.6333 0.6874 0.6300
C27 C 0.7847(4) 0.7161(3) 0.50843(14)
H22 H 0.8451 0.7699 0.4876
C28 C 0.7501(5) 0.7431(3) 0.56281(15)
H23 H 0.7889 0.8143 0.5781
loop_
_geom_bond_atom_site_label_1
_geom_bond_atom_site_label_2
_geom_bond_site_symmetry_1
_geom_bond_site_symmetry_2
S1 N1 1_555 1_555
O1 C21 1_555 1_555
N1 C5 1_555 1_555
O2 S1 1_555 1_555
C1 C5 1_555 1_555
C2 H1 1_555 1_555
H2 C2 1_555 1_555
C3 C2 1_555 1_555
H3 C3 1_555 1_555
O3 S1 1_555 1_555
C4 H4 1_555 1_555
C5 C4 1_555 1_555
C6 C3 1_555 1_555
H5 C6 1_555 1_555
C7 N1 1_555 1_555
H6 C7 1_555 1_555
C8 C1 1_555 1_555
H7 C8 1_555 1_555
C9 H8 1_555 1_555
C10 C2 1_555 1_555
C11 C6 1_555 1_555
C12 C9 1_555 1_555
C13 S1 1_555 1_555
C14 C8 1_555 1_555
H9 C14 1_555 1_555
C15 C7 1_555 1_555
H10 C15 1_555 1_555
H11 C15 1_555 1_555
C16 C13 1_555 1_555
H12 C16 1_555 1_555
C17 C12 1_555 1_555
H13 C17 1_555 1_555
C18 C11 1_555 1_555
H14 C18 1_555 1_555
C19 C14 1_555 1_555
H15 C19 1_555 1_555
C20 C17 1_555 1_555
H16 C20 1_555 1_555
C21 C10 1_555 1_555
C22 H17 1_555 1_555
C23 C18 1_555 1_555
H18 C23 1_555 1_555
C24 C11 1_555 1_555
H19 C24 1_555 1_555
C25 C22 1_555 1_555
H20 C25 1_555 1_555
C26 C20 1_555 1_555
H21 C26 1_555 1_555
C27 C12 1_555 1_555
H22 C27 1_555 1_555
C28 C26 1_555 1_555
H23 C28 1_555 1_555
C1 C13 1_555 1_555
C3 C7 1_555 1_555
C4 C6 1_555 1_555
C9 C10 1_555 1_555
C15 C21 1_555 1_555
C16 C19 1_555 1_555
C22 C24 1_555 1_555
C23 C25 1_555 1_555
C27 C28 1_555 1_555

#END
