
#######################################################################
#
#                 Cambridge Crystallographic Data Centre
#                                CCDC 
#
#######################################################################
#
# If this CIF has been generated from an entry in the Cambridge 
# Structural Database, then it will include bibliographic, chemical, 
# crystal, experimental, refinement or atomic coordinate data resulting 
# from the CCDC's data processing and validation procedures.
#
#######################################################################

data_YAYMAO
_chemical_formula_moiety         'C13 H12 N2 O3'
_chemical_name_systematic        (S)-1-(4-Cyanobenzyl)-5-oxoproline
_symmetry_cell_setting           orthorhombic
_symmetry_space_group_name_H-M   'P 21 21 21'
_symmetry_Int_Tables_number      19
_space_group_name_Hall           'P 2ac 2ab'
loop_
_symmetry_equiv_pos_site_id
_symmetry_equiv_pos_as_xyz
1 x,y,z
2 1/2-x,-y,1/2+z
3 -x,1/2+y,1/2-z
4 1/2+x,1/2-y,-z
_cell_length_a                   5.071(2)
_cell_length_b                   13.152(6)
_cell_length_c                   17.641(8)
_cell_angle_alpha                90
_cell_angle_beta                 90
_cell_angle_gamma                90
_cell_volume                     1176.55
_exptl_crystal_colour            colorless
_exptl_crystal_description       prism
_cell_formula_units_Z            4
loop_
_atom_site_label
_atom_site_type_symbol
_atom_site_fract_x
_atom_site_fract_y
_atom_site_fract_z
C1 C -0.0830(5) 0.39476(17) 1.02875(12)
C2 C 0.0585(5) 0.47192(15) 0.98817(11)
C3 C -0.0171(5) 0.57309(16) 0.99425(12)
H1 H -0.1555 0.5916 1.0260
C4 C 0.1149(4) 0.64575(15) 0.95281(11)
H2 H 0.0641 0.7135 0.9566
C5 C 0.3224(4) 0.61950(14) 0.90544(10)
C6 C 0.3977(5) 0.51823(15) 0.90084(12)
H3 H 0.5375 0.4997 0.8696
C7 C 0.2667(5) 0.44456(15) 0.94221(12)
H4 H 0.3189 0.3769 0.9391
C8 C 0.4637(4) 0.69919(14) 0.85878(11)
H5 H 0.5000 0.7577 0.8906
H6 H 0.6314 0.6718 0.8420
C9 C 0.1471(4) 0.81195(13) 0.79347(11)
C10 C 0.0366(5) 0.82587(16) 0.71521(11)
H7 H 0.0437 0.8967 0.7000
H8 H -0.1446 0.8026 0.7126
C11 C 0.2150(5) 0.76082(15) 0.66541(11)
H9 H 0.3580 0.8009 0.6444
H10 H 0.1162 0.7301 0.6242
C12 C 0.3203(4) 0.67927(13) 0.72013(10)
H11 H 0.5006 0.6594 0.7068
C13 C 0.1359(4) 0.58777(14) 0.71904(10)
N1 N -0.1968(5) 0.33279(17) 1.06004(13)
N2 N 0.3141(3) 0.73247(11) 0.79274(9)
O1 O 0.0964(3) 0.86342(10) 0.85024(7)
O2 O 0.2108(3) 0.52033(11) 0.66845(9)
O3 O -0.0579(3) 0.58078(11) 0.75805(9)
loop_
_geom_bond_atom_site_label_1
_geom_bond_atom_site_label_2
_geom_bond_site_symmetry_1
_geom_bond_site_symmetry_2
C1 C2 1_555 1_555
C2 C3 1_555 1_555
C3 H1 1_555 1_555
C4 C3 1_555 1_555
H2 C4 1_555 1_555
C5 C4 1_555 1_555
C6 C5 1_555 1_555
H3 C6 1_555 1_555
C7 C2 1_555 1_555
H4 C7 1_555 1_555
C8 C5 1_555 1_555
H5 C8 1_555 1_555
H6 C8 1_555 1_555
C9 C10 1_555 1_555
C10 H7 1_555 1_555
H8 C10 1_555 1_555
C11 C10 1_555 1_555
H9 C11 1_555 1_555
H10 C11 1_555 1_555
C12 C11 1_555 1_555
H11 C12 1_555 1_555
C13 C12 1_555 1_555
N1 C1 1_555 1_555
N2 C8 1_555 1_555
O1 C9 1_555 1_555
O2 C13 1_555 1_555
O3 C13 1_555 1_555
C6 C7 1_555 1_555
C9 N2 1_555 1_555
C12 N2 1_555 1_555

#END
