
#######################################################################
#
#                 Cambridge Crystallographic Data Centre
#                                CCDC 
#
#######################################################################
#
# If this CIF has been generated from an entry in the Cambridge 
# Structural Database, then it will include bibliographic, chemical, 
# crystal, experimental, refinement or atomic coordinate data resulting 
# from the CCDC's data processing and validation procedures.
#
#######################################################################

data_YAZQUO
_chemical_formula_moiety         'C20 H15 Br1 O3 S1'
_chemical_name_systematic        
'methyl 9-bromo-5-phenyl-2,5-dihydro[1]benzothieno[3,2-b]oxepine-4-carboxylate'
_symmetry_cell_setting           monoclinic
_symmetry_space_group_name_H-M   'P 21'
_symmetry_Int_Tables_number      4
_space_group_name_Hall           'P 2yb'
loop_
_symmetry_equiv_pos_site_id
_symmetry_equiv_pos_as_xyz
1 x,y,z
2 -x,1/2+y,-z
_cell_length_a                   8.811(4)
_cell_length_b                   7.488(4)
_cell_length_c                   13.687(7)
_cell_angle_alpha                90
_cell_angle_beta                 107.942(12)
_cell_angle_gamma                90
_cell_volume                     859.109
_exptl_crystal_colour            colorless
_exptl_crystal_description       Prism
_cell_formula_units_Z            2
loop_
_atom_site_label
_atom_site_type_symbol
_atom_site_fract_x
_atom_site_fract_y
_atom_site_fract_z
Br1 Br 0.20161(3) 0.35398(4) 0.183518(15)
S1 S 0.42477(6) 0.47709(8) 0.66735(4)
O1 O 0.02290(16) 0.2261(2) 0.54295(11)
O2 O 0.1214(2) 0.3997(3) 0.93727(12)
O3 O -0.13981(18) 0.3808(3) 0.85697(11)
C1 C 0.3864(2) 0.4473(3) 0.53581(16)
C2 C 0.4798(3) 0.5014(3) 0.47482(18)
H1 H 0.5795 0.5587 0.5049
C3 C 0.4249(3) 0.4703(4) 0.37046(18)
H2 H 0.4862 0.5074 0.3278
C4 C 0.2786(2) 0.3839(4) 0.32775(15)
C5 C 0.1860(2) 0.3269(3) 0.38690(15)
H3 H 0.0877 0.2671 0.3564
C6 C 0.2402(2) 0.3591(4) 0.49239(13)
C7 C 0.1645(2) 0.3189(3) 0.56885(15)
C8 C 0.2469(2) 0.3708(4) 0.66444(14)
C9 C 0.2096(2) 0.3329(4) 0.76339(14)
H4 H 0.2715 0.4211 0.8153
C10 C 0.0350(2) 0.3556(4) 0.75619(13)
C11 C -0.0922(2) 0.3519(4) 0.67300(14)
H5 H -0.1910 0.3706 0.6858
C12 C -0.1055(2) 0.3234(3) 0.56243(15)
H6 H -0.2063 0.2589 0.5292
H7 H -0.1133 0.4416 0.5289
C13 C 0.2723(2) 0.1480(3) 0.80244(15)
C14 C 0.1867(3) -0.0055(4) 0.76270(19)
H8 H 0.0855 0.0049 0.7119
C15 C 0.2465(3) -0.1725(4) 0.79603(19)
H9 H 0.1857 -0.2759 0.7688
C16 C 0.3949(3) -0.1905(3) 0.86905(17)
H10 H 0.4366 -0.3056 0.8913
C17 C 0.4808(3) -0.0400(4) 0.90887(16)
H11 H 0.5823 -0.0511 0.9593
C18 C 0.4199(3) 0.1289(3) 0.87578(16)
H12 H 0.4804 0.2321 0.9039
C19 C 0.0124(2) 0.3808(4) 0.85981(16)
C20 C -0.1694(3) 0.4065(4) 0.95441(19)
H13 H -0.1456 0.2957 0.9944
H14 H -0.2816 0.4384 0.9422
H15 H -0.1011 0.5026 0.9926
loop_
_geom_bond_atom_site_label_1
_geom_bond_atom_site_label_2
_geom_bond_site_symmetry_1
_geom_bond_site_symmetry_2
Br1 C4 1_555 1_555
S1 C1 1_555 1_555
O1 C7 1_555 1_555
O2 C19 1_555 1_555
O3 C19 1_555 1_555
C1 C2 1_555 1_555
C2 H1 1_555 1_555
C3 C2 1_555 1_555
H2 C3 1_555 1_555
C4 C3 1_555 1_555
C5 C4 1_555 1_555
H3 C5 1_555 1_555
C6 C1 1_555 1_555
C7 C6 1_555 1_555
C8 S1 1_555 1_555
C9 C8 1_555 1_555
H4 C9 1_555 1_555
C10 C9 1_555 1_555
C11 C10 1_555 1_555
H5 C11 1_555 1_555
C12 O1 1_555 1_555
H6 C12 1_555 1_555
H7 C12 1_555 1_555
C13 C9 1_555 1_555
C14 C13 1_555 1_555
H8 C14 1_555 1_555
C15 C14 1_555 1_555
H9 C15 1_555 1_555
C16 C15 1_555 1_555
H10 C16 1_555 1_555
C17 C16 1_555 1_555
H11 C17 1_555 1_555
C18 C13 1_555 1_555
H12 C18 1_555 1_555
C19 C10 1_555 1_555
C20 O3 1_555 1_555
H13 C20 1_555 1_555
H14 C20 1_555 1_555
H15 C20 1_555 1_555
C5 C6 1_555 1_555
C7 C8 1_555 1_555
C11 C12 1_555 1_555
C17 C18 1_555 1_555

#END
