
#######################################################################
#
#                 Cambridge Crystallographic Data Centre
#                                CCDC 
#
#######################################################################
#
# If this CIF has been generated from an entry in the Cambridge 
# Structural Database, then it will include bibliographic, chemical, 
# crystal, experimental, refinement or atomic coordinate data resulting 
# from the CCDC's data processing and validation procedures.
#
#######################################################################

data_YEBCUF
_chemical_compound_source        'Chrysanthemum imdicum'
_chemical_formula_moiety         'C17 H28 O5,H2 O1'
_chemical_name_systematic        
'3-Acetyl-3a-hydroxy-5-(2-hydroxypropan-2-yl)-7a-methyloctahydro-1H-inden-1-yl acetate monohydrate'
_symmetry_cell_setting           monoclinic
_symmetry_space_group_name_H-M   'P 21'
_symmetry_Int_Tables_number      4
_space_group_name_Hall           'P 2yb'
loop_
_symmetry_equiv_pos_site_id
_symmetry_equiv_pos_as_xyz
1 x,y,z
2 -x,1/2+y,-z
_cell_length_a                   8.04300(10)
_cell_length_b                   9.3012(2)
_cell_length_c                   11.9067(2)
_cell_angle_alpha                90
_cell_angle_beta                 92.8310(10)
_cell_angle_gamma                90
_cell_volume                     889.648
_cell_formula_units_Z            2
loop_
_atom_site_label
_atom_site_type_symbol
_atom_site_fract_x
_atom_site_fract_y
_atom_site_fract_z
O1 O 0.35664(13) 0.02013(10) 0.13462(7)
H1 H 0.3767 0.0402 0.0696
O2 O 0.55932(12) 0.55261(11) 0.08521(7)
H2 H 0.4740 0.5982 0.0951
O4 O -0.02742(15) 0.14072(14) 0.05701(11)
O5 O 0.22622(14) -0.11707(11) 0.34736(9)
C1 C 0.49035(15) 0.25360(13) 0.16312(9)
H3 H 0.4623 0.2829 0.0863
H4 H 0.5966 0.2042 0.1638
C2 C 0.62867(16) 0.50158(14) 0.19199(10)
O6 O 0.0327(2) -0.14079(18) 0.47291(16)
C3 C 0.17491(15) 0.20610(16) 0.20017(11)
H5 H 0.1772 0.3026 0.2333
C4 C 0.5511(2) 0.34008(17) 0.35824(10)
H6 H 0.6582 0.2918 0.3617
H7 H 0.5595 0.4237 0.4068
C5 C 0.39003(17) 0.10312(14) 0.32606(9)
C6 C 0.50823(16) 0.38807(14) 0.23720(9)
H8 H 0.3981 0.4332 0.2370
C7 C 0.0885(2) 0.1046(2) 0.28118(14)
H9 H 0.0097 0.1577 0.3242
H10 H 0.0287 0.0298 0.2393
C8 C 0.35768(15) 0.14905(14) 0.20100(9)
C9 C 0.53833(19) 0.00168(17) 0.34173(12)
H11 H 0.5233 -0.0789 0.2919
H12 H 0.5466 -0.0318 0.4181
H13 H 0.6385 0.0518 0.3251
C10 C 0.41890(19) 0.23880(16) 0.39962(10)
H14 H 0.3147 0.2909 0.4024
H15 H 0.4511 0.2090 0.4757
C11 C 0.6472(2) 0.62943(17) 0.27193(12)
H16 H 0.5391 0.6607 0.2925
H17 H 0.7024 0.7067 0.2354
H18 H 0.7118 0.6013 0.3383
C12 C 0.79832(17) 0.44126(19) 0.16766(14)
H19 H 0.8462 0.3959 0.2341
H20 H 0.8696 0.5179 0.1453
H21 H 0.7866 0.3718 0.1082
C13 C 0.22337(18) 0.03836(16) 0.35969(11)
H22 H 0.2033 0.0637 0.4378
C14 C 0.09088(17) 0.21629(16) 0.08427(12)
C15 C 0.1517(2) 0.3250(2) 0.00404(14)
H23 H 0.2376 0.2833 -0.0387
H24 H 0.1956 0.4065 0.0451
H25 H 0.0611 0.3552 -0.0460
C16 C 0.1240(2) -0.19307(18) 0.40930(13)
C17 C 0.1418(2) -0.3507(2) 0.39036(17)
H26 H 0.1327 -0.3705 0.3112
H27 H 0.0556 -0.4010 0.4271
H28 H 0.2485 -0.3822 0.4206
O3 O 0.27558(15) -0.29011(14) 0.11661(10)
H29 H 0.197(2) -0.299(3) 0.0670(17)
H30 H 0.281(3) -0.2018(13) 0.136(2)
loop_
_geom_bond_atom_site_label_1
_geom_bond_atom_site_label_2
_geom_bond_site_symmetry_1
_geom_bond_site_symmetry_2
O1 H1 1_555 1_555
O2 H2 1_555 1_555
O3 H29 1_555 1_555
O4 C14 1_555 1_555
O5 C13 1_555 1_555
C1 H3 1_555 1_555
H4 C1 1_555 1_555
C2 O2 1_555 1_555
O6 C16 1_555 1_555
C3 H5 1_555 1_555
C4 H6 1_555 1_555
H7 C4 1_555 1_555
C5 C8 1_555 1_555
C6 C1 1_555 1_555
H8 C6 1_555 1_555
C7 C3 1_555 1_555
H9 C7 1_555 1_555
H10 C7 1_555 1_555
C8 O1 1_555 1_555
C9 C5 1_555 1_555
H11 C9 1_555 1_555
H12 C9 1_555 1_555
H13 C9 1_555 1_555
C10 C4 1_555 1_555
H14 C10 1_555 1_555
H15 C10 1_555 1_555
C11 C2 1_555 1_555
H16 C11 1_555 1_555
H17 C11 1_555 1_555
H18 C11 1_555 1_555
C12 C2 1_555 1_555
H19 C12 1_555 1_555
H20 C12 1_555 1_555
H21 C12 1_555 1_555
C13 C5 1_555 1_555
H22 C13 1_555 1_555
C14 C3 1_555 1_555
C15 C14 1_555 1_555
H23 C15 1_555 1_555
H24 C15 1_555 1_555
H25 C15 1_555 1_555
C16 O5 1_555 1_555
C17 C16 1_555 1_555
H26 C17 1_555 1_555
H27 C17 1_555 1_555
H28 C17 1_555 1_555
H30 O3 1_555 1_555
C1 C8 1_555 1_555
C2 C6 1_555 1_555
C3 C8 1_555 1_555
C4 C6 1_555 1_555
C5 C10 1_555 1_555
C7 C13 1_555 1_555

#END
