
#######################################################################
#
#                 Cambridge Crystallographic Data Centre
#                                CCDC 
#
#######################################################################
#
# If this CIF has been generated from an entry in the Cambridge 
# Structural Database, then it will include bibliographic, chemical, 
# crystal, experimental, refinement or atomic coordinate data resulting 
# from the CCDC's data processing and validation procedures.
#
#######################################################################

data_YEBQUT
_chemical_formula_moiety         'C19 H18 N2 O4 S1'
_chemical_name_systematic        
N'-(1-(3-Furyl)-4,7a-dimethyl-3-oxo-1,6,7,7a-tetrahydro-2-benzofuran-5(3H)-ylidene)thiophene-2-carbohydrazide
_symmetry_cell_setting           orthorhombic
_symmetry_space_group_name_H-M   'I 2 2 2'
_symmetry_Int_Tables_number      23
_space_group_name_Hall           'I 2 2'
loop_
_symmetry_equiv_pos_site_id
_symmetry_equiv_pos_as_xyz
1 x,y,z
2 -x,-y,z
3 -x,y,-z
4 x,-y,-z
5 1/2+x,1/2+y,1/2+z
6 1/2-x,1/2-y,1/2+z
7 1/2-x,1/2+y,1/2-z
8 1/2+x,1/2-y,1/2-z
_cell_length_a                   7.1965(11)
_cell_length_b                   20.528(3)
_cell_length_c                   27.267(4)
_cell_angle_alpha                90
_cell_angle_beta                 90
_cell_angle_gamma                90
_cell_volume                     4028.15
_exptl_crystal_colour            colorless
_exptl_crystal_description       block
_cell_formula_units_Z            8
loop_
_atom_site_label
_atom_site_type_symbol
_atom_site_fract_x
_atom_site_fract_y
_atom_site_fract_z
S1 S 0.7546(2) 0.23391(6) 1.02700(4)
N1 N 0.7517(5) 0.14479(13) 0.94756(9)
C1 C 0.7612(5) 0.19688(15) 0.87128(11)
N2 N 0.7450(6) 0.09092(15) 0.97661(10)
H1 H 0.7427 0.0531 0.9631
C2 C 0.7463(6) 0.13648(15) 0.90092(11)
C3 C 0.7464(6) 0.15939(19) 1.05094(12)
O1 O 0.7588(5) 0.21605(11) 0.74102(8)
C4 C 0.7525(7) 0.26043(16) 0.89715(13)
H2 H 0.6313 0.2660 0.9113
H3 H 0.7761 0.2950 0.8743
H4 H 0.8444 0.2614 0.9227
C5 C 0.7401(5) 0.15884(18) 1.10601(10)
H5 H 0.7359 0.1228 1.1267
C6 C 0.7248(8) 0.07169(17) 0.87596(12)
H6 H 0.6316 0.0465 0.8933
H7 H 0.8415 0.0482 0.8782
C7 C 0.7795(5) 0.19005(14) 0.82281(12)
C8 C 0.7419(7) 0.2267(3) 1.11959(16)
H8 H 0.7355 0.2403 1.1521
O2 O 0.8051(4) 0.30055(12) 0.79031(10)
C9 C 0.7866(6) 0.12670(15) 0.79563(12)
O3 O 0.7433(8) 0.04568(14) 1.05095(10)
C10 C 0.7419(8) 0.0950(2) 1.02624(13)
C11 C 0.7834(5) 0.24290(17) 0.78625(13)
C12 C 0.7438(8) 0.11301(17) 0.70105(13)
C13 C 0.6692(6) 0.07652(18) 0.82234(13)
H9 H 0.6844 0.0344 0.8068
H10 H 0.5392 0.0886 0.8201
C14 C 0.7001(6) 0.14784(16) 0.74639(13)
H11 H 0.5647 0.1475 0.7503
C15 C 0.9098(10) 0.1079(3) 0.6747(2)
H12 H 1.0224 0.1267 0.6837
C16 C 0.6238(11) 0.0782(3) 0.6731(2)
H13 H 0.4985 0.0726 0.6803
O4 O 0.7081(10) 0.0531(2) 0.63418(19)
C17 C 0.7535(7) 0.2688(2) 1.08226(18)
H14 H 0.7603 0.3136 1.0867
C18 C 0.9870(7) 0.10329(18) 0.78939(16)
H15 H 1.0581 0.1363 0.7729
H16 H 0.9883 0.0640 0.7703
H17 H 1.0403 0.0949 0.8210
C19 C 0.8822(10) 0.0726(3) 0.6354(2)
H18 H 0.9718 0.0628 0.6119
loop_
_geom_bond_atom_site_label_1
_geom_bond_atom_site_label_2
_geom_bond_site_symmetry_1
_geom_bond_site_symmetry_2
S1 C3 1_555 1_555
N1 N2 1_555 1_555
C1 C2 1_555 1_555
N2 H1 1_555 1_555
C2 N1 1_555 1_555
C3 C5 1_555 1_555
O1 C11 1_555 1_555
C4 C1 1_555 1_555
H2 C4 1_555 1_555
H3 C4 1_555 1_555
H4 C4 1_555 1_555
C5 H5 1_555 1_555
C6 C2 1_555 1_555
H6 C6 1_555 1_555
H7 C6 1_555 1_555
C7 C1 1_555 1_555
C8 C5 1_555 1_555
H8 C8 1_555 1_555
O2 C11 1_555 1_555
C9 C7 1_555 1_555
O3 C10 1_555 1_555
C10 N2 1_555 1_555
C11 C7 1_555 1_555
C12 C14 1_555 1_555
C13 C6 1_555 1_555
H9 C13 1_555 1_555
H10 C13 1_555 1_555
C14 O1 1_555 1_555
H11 C14 1_555 1_555
C15 C12 1_555 1_555
H12 C15 1_555 1_555
C16 C12 1_555 1_555
H13 C16 1_555 1_555
O4 C16 1_555 1_555
C17 S1 1_555 1_555
H14 C17 1_555 1_555
C18 C9 1_555 1_555
H15 C18 1_555 1_555
H16 C18 1_555 1_555
H17 C18 1_555 1_555
C19 C15 1_555 1_555
H18 C19 1_555 1_555
C3 C10 1_555 1_555
C8 C17 1_555 1_555
C9 C13 1_555 1_555
C9 C14 1_555 1_555
O4 C19 1_555 1_555

#END
