
#######################################################################
#
#                 Cambridge Crystallographic Data Centre
#                                CCDC 
#
#######################################################################
#
# If this CIF has been generated from an entry in the Cambridge 
# Structural Database, then it will include bibliographic, chemical, 
# crystal, experimental, refinement or atomic coordinate data resulting 
# from the CCDC's data processing and validation procedures.
#
#######################################################################

data_YEBSUV
_chemical_formula_moiety         'C22 H35 N1 O4,2(C1 H4 O1)'
_chemical_name_systematic        
'Ethyl 15-hydroxy-16-(hydroxyimino)beyeran-18-oate methanol solvate'
_symmetry_cell_setting           monoclinic
_symmetry_space_group_name_H-M   'P 21'
_symmetry_Int_Tables_number      4
_space_group_name_Hall           'P 2yb'
loop_
_symmetry_equiv_pos_site_id
_symmetry_equiv_pos_as_xyz
1 x,y,z
2 -x,1/2+y,-z
_cell_length_a                   12.963(3)
_cell_length_b                   7.5283(15)
_cell_length_c                   13.519(3)
_cell_angle_alpha                90
_cell_angle_beta                 105.57(3)
_cell_angle_gamma                90
_cell_volume                     1270.9
_exptl_crystal_colour            colorless
_exptl_crystal_description       prismatic
_cell_formula_units_Z            2
loop_
_atom_site_label
_atom_site_type_symbol
_atom_site_fract_x
_atom_site_fract_y
_atom_site_fract_z
N1 N 0.7910(2) 0.7936(4) 0.9859(2)
C1 C 0.6213(3) 0.6811(6) 0.5169(2)
H1 H 0.5490 0.6357 0.5053
H2 H 0.6195 0.8074 0.5305
C2 C 0.6572(3) 0.6544(7) 0.4211(3)
H3 H 0.7257 0.7126 0.4290
H4 H 0.6059 0.7092 0.3635
C3 C 0.6679(3) 0.4570(7) 0.3980(3)
H5 H 0.6964 0.4465 0.3388
H6 H 0.5973 0.4036 0.3801
C4 C 0.7404(3) 0.3524(5) 0.4877(3)
C5 C 0.7017(2) 0.3877(4) 0.5860(2)
H7 H 0.6269 0.3486 0.5662
C6 C 0.7528(3) 0.2753(4) 0.6813(2)
H8 H 0.7600 0.1533 0.6610
H9 H 0.8237 0.3205 0.7145
C7 C 0.6840(3) 0.2818(4) 0.7554(3)
H10 H 0.7150 0.2049 0.8134
H11 H 0.6133 0.2366 0.7216
C8 C 0.6735(2) 0.4700(4) 0.7948(2)
C9 C 0.6373(2) 0.6023(4) 0.7021(2)
H12 H 0.5630 0.5685 0.6693
C10 C 0.6945(2) 0.5882(4) 0.6131(2)
C11 C 0.6288(3) 0.7933(5) 0.7393(3)
H13 H 0.5933 0.8666 0.6811
H14 H 0.7003 0.8405 0.7677
C12 C 0.5659(3) 0.8042(5) 0.8219(3)
H15 H 0.5742 0.9218 0.8523
H16 H 0.4903 0.7850 0.7898
C13 C 0.6063(2) 0.6642(5) 0.9068(2)
C14 C 0.5884(2) 0.4803(5) 0.8553(2)
H17 H 0.5167 0.4708 0.8095
H18 H 0.5987 0.3865 0.9062
C15 C 0.7709(2) 0.5232(4) 0.8863(2)
H19 H 0.7845 0.4239 0.9349
C16 C 0.7278(2) 0.6746(5) 0.9365(2)
C17 C 0.5524(3) 0.6818(6) 0.9951(3)
H20 H 0.5796 0.5918 1.0457
H21 H 0.4764 0.6677 0.9685
H22 H 0.5676 0.7970 1.0261
C18 C 0.7293(4) 0.1515(6) 0.4598(3)
H23 H 0.7531 0.1308 0.3994
H24 H 0.6557 0.1166 0.4470
H25 H 0.7723 0.0832 0.5158
C19 C 0.8570(3) 0.3982(5) 0.4957(3)
C20 C 0.8039(2) 0.6822(5) 0.6399(2)
H26 H 0.8355 0.6705 0.5836
H27 H 0.8501 0.6291 0.7002
H28 H 0.7944 0.8058 0.6525
C21 C 1.0362(3) 0.3877(6) 0.5996(3)
H29 H 1.0446 0.5144 0.5914
H30 H 1.0652 0.3253 0.5503
C22 C 1.0928(4) 0.3308(8) 0.7076(3)
H31 H 1.1677 0.3574 0.7215
H32 H 1.0835 0.2053 0.7146
H33 H 1.0631 0.3934 0.7554
O1 O 0.8885(2) 0.4676(5) 0.4296(2)
O2 O 0.92394(18) 0.3431(4) 0.58460(19)
O3 O 0.86899(17) 0.5617(4) 0.86265(18)
O4 O 0.7368(2) 0.9320(4) 1.0226(2)
H40 H 0.923(4) 0.517(8) 0.907(4)
H43 H 0.802(7) 1.009(15) 1.030(6)
C23 C 0.9488(4) 1.0418(7) 0.8799(3)
H34 H 0.8974 1.1187 0.8976
H35 H 0.9153 0.9789 0.8178
H36 H 1.0072 1.1114 0.8698
O5 O 0.9882(2) 0.9178(4) 0.96084(19)
H41 H 0.933(4) 0.858(8) 0.970(4)
C24 C 0.8292(7) 1.2987(10) 1.1780(5)
H37 H 0.8844 1.3088 1.2413
H38 H 0.7685 1.2386 1.1902
H39 H 0.8082 1.4151 1.1510
O6 O 0.8678(3) 1.2019(4) 1.1073(3)
H42 H 0.923(5) 1.265(9) 1.074(4)
loop_
_geom_bond_atom_site_label_1
_geom_bond_atom_site_label_2
_geom_bond_site_symmetry_1
_geom_bond_site_symmetry_2
N1 C16 1_555 1_555
C1 H1 1_555 1_555
H2 C1 1_555 1_555
C2 C1 1_555 1_555
H3 C2 1_555 1_555
H4 C2 1_555 1_555
C3 C2 1_555 1_555
H5 C3 1_555 1_555
H6 C3 1_555 1_555
C4 C3 1_555 1_555
C5 C4 1_555 1_555
H7 C5 1_555 1_555
C6 C5 1_555 1_555
H8 C6 1_555 1_555
H9 C6 1_555 1_555
C7 C6 1_555 1_555
H10 C7 1_555 1_555
H11 C7 1_555 1_555
C8 C7 1_555 1_555
C9 C8 1_555 1_555
H12 C9 1_555 1_555
C10 C1 1_555 1_555
C11 C9 1_555 1_555
H13 C11 1_555 1_555
H14 C11 1_555 1_555
C12 C11 1_555 1_555
H15 C12 1_555 1_555
H16 C12 1_555 1_555
C13 C12 1_555 1_555
C14 C8 1_555 1_555
H17 C14 1_555 1_555
H18 C14 1_555 1_555
C15 C8 1_555 1_555
H19 C15 1_555 1_555
C16 C13 1_555 1_555
C17 C13 1_555 1_555
H20 C17 1_555 1_555
H21 C17 1_555 1_555
H22 C17 1_555 1_555
C18 C4 1_555 1_555
H23 C18 1_555 1_555
H24 C18 1_555 1_555
H25 C18 1_555 1_555
C19 C4 1_555 1_555
C20 C10 1_555 1_555
H26 C20 1_555 1_555
H27 C20 1_555 1_555
H28 C20 1_555 1_555
C21 H29 1_555 1_555
H30 C21 1_555 1_555
C22 C21 1_555 1_555
H31 C22 1_555 1_555
H32 C22 1_555 1_555
H33 C22 1_555 1_555
C23 H34 1_555 1_555
H35 C23 1_555 1_555
H36 C23 1_555 1_555
C24 H37 1_555 1_555
H38 C24 1_555 1_555
H39 C24 1_555 1_555
O1 C19 1_555 1_555
O2 C19 1_555 1_555
O3 C15 1_555 1_555
O4 N1 1_555 1_555
O5 C23 1_555 1_555
O6 C24 1_555 1_555
H40 O3 1_555 1_555
H41 O5 1_555 1_555
H42 O6 1_555 1_555
H43 O4 1_555 1_555
C5 C10 1_555 1_555
C9 C10 1_555 1_555
C13 C14 1_555 1_555
C15 C16 1_555 1_555
C21 O2 1_555 1_555

#END
