
#######################################################################
#
#                 Cambridge Crystallographic Data Centre
#                                CCDC 
#
#######################################################################
#
# If this CIF has been generated from an entry in the Cambridge 
# Structural Database, then it will include bibliographic, chemical, 
# crystal, experimental, refinement or atomic coordinate data resulting 
# from the CCDC's data processing and validation procedures.
#
#######################################################################

data_YEBTOQ
_chemical_formula_moiety         'C24 H29 N1 O5'
_chemical_name_systematic        
2,4-bis(2,5-dimethoxyphenyl)-3-azabicyclo[3.3.1]nonan-9-one
_symmetry_cell_setting           triclinic
_symmetry_space_group_name_H-M   'P -1'
_symmetry_Int_Tables_number      2
_space_group_name_Hall           '-P 1'
loop_
_symmetry_equiv_pos_site_id
_symmetry_equiv_pos_as_xyz
1 x,y,z
2 -x,-y,-z
_cell_length_a                   7.0116(2)
_cell_length_b                   10.3453(4)
_cell_length_c                   15.4906(6)
_cell_angle_alpha                100.081(2)
_cell_angle_beta                 97.603(2)
_cell_angle_gamma                104.450(2)
_cell_volume                     1052.89
_exptl_crystal_description       block
_cell_formula_units_Z            2
loop_
_atom_site_label
_atom_site_type_symbol
_atom_site_fract_x
_atom_site_fract_y
_atom_site_fract_z
C1 C 0.1027(2) 0.72866(14) 0.31233(9)
H1 H -0.0094 0.7690 0.3153
C2 C 0.1372(2) 0.67006(14) 0.39688(9)
H2 H 0.1610 0.7438 0.4497
C3 C 0.3112(2) 0.60452(16) 0.40402(10)
H3 H 0.4313 0.6695 0.3970
H4 H 0.3350 0.5867 0.4633
C4 C 0.2763(2) 0.47144(16) 0.33564(11)
H5 H 0.2950 0.4923 0.2782
H6 H 0.3747 0.4253 0.3535
C5 C 0.0667(2) 0.37637(15) 0.32650(10)
H7 H 0.0607 0.3363 0.3785
H8 H 0.0423 0.3026 0.2747
C6 C -0.0994(2) 0.44768(14) 0.31700(9)
H9 H -0.2266 0.3827 0.3186
C7 C -0.12510(19) 0.50428(13) 0.23123(9)
H10 H -0.2429 0.5393 0.2296
C8 C -0.0568(2) 0.56648(15) 0.39427(9)
C9 C 0.2870(2) 0.83889(14) 0.30848(9)
C10 C 0.4213(2) 0.81410(15) 0.25451(10)
H11 H 0.3943 0.7285 0.2170
C11 C 0.5958(2) 0.91392(16) 0.25495(11)
C12 C 0.6374(2) 1.03997(16) 0.31122(11)
H12 H 0.7550 1.1069 0.3127
C13 C 0.5046(2) 1.06736(15) 0.36574(11)
H13 H 0.5336 1.1528 0.4037
C14 C 0.3300(2) 0.96906(15) 0.36412(10)
C15 C -0.15939(19) 0.39378(14) 0.14774(9)
C16 C -0.34164(19) 0.29271(14) 0.12070(9)
C17 C -0.3772(2) 0.19605(15) 0.04177(10)
H14 H -0.4993 0.1290 0.0239
C18 C -0.2322(2) 0.19924(16) -0.01018(10)
H15 H -0.2576 0.1352 -0.0635
C19 C -0.0501(2) 0.29669(15) 0.01637(10)
C20 C -0.0141(2) 0.39298(14) 0.09512(9)
H16 H 0.1097 0.4583 0.1131
C21 C 0.8875(2) 0.97723(17) 0.19139(13)
H17 H 0.8487 1.0525 0.1733
H18 H 0.9562 0.9390 0.1483
H19 H 0.9749 1.0088 0.2486
C22 C 0.2282(3) 1.11480(17) 0.47576(12)
H20 H 0.3458 1.1276 0.5194
H21 H 0.1159 1.1155 0.5050
H22 H 0.2495 1.1874 0.4440
C23 C -0.6513(2) 0.18398(16) 0.16054(12)
H23 H -0.7334 0.1741 0.1037
H24 H -0.7273 0.1970 0.2069
H25 H -0.6081 0.1031 0.1615
C24 C 0.2766(2) 0.38734(18) -0.01489(11)
H26 H 0.2634 0.4781 -0.0118
H27 H 0.3580 0.3684 -0.0580
H28 H 0.3385 0.3803 0.0425
H29 H 0.024(2) 0.6552(15) 0.1833(10)
N1 N 0.05010(16) 0.61801(12) 0.23237(8)
O1 O -0.17027(16) 0.58040(11) 0.44549(7)
O2 O 0.71436(16) 0.87577(11) 0.19729(8)
O3 O 0.18889(15) 0.98747(10) 0.41482(7)
O4 O -0.48101(14) 0.29909(10) 0.17452(7)
O5 O 0.08443(16) 0.29179(12) -0.04053(7)
loop_
_geom_bond_atom_site_label_1
_geom_bond_atom_site_label_2
_geom_bond_site_symmetry_1
_geom_bond_site_symmetry_2
C1 H1 1_555 1_555
C2 C1 1_555 1_555
H2 C2 1_555 1_555
C3 C2 1_555 1_555
H3 C3 1_555 1_555
H4 C3 1_555 1_555
C4 C3 1_555 1_555
H5 C4 1_555 1_555
H6 C4 1_555 1_555
C5 C4 1_555 1_555
H7 C5 1_555 1_555
H8 C5 1_555 1_555
C6 C5 1_555 1_555
H9 C6 1_555 1_555
C7 C6 1_555 1_555
H10 C7 1_555 1_555
C8 C2 1_555 1_555
C9 C1 1_555 1_555
C10 C9 1_555 1_555
H11 C10 1_555 1_555
C11 C10 1_555 1_555
C12 C11 1_555 1_555
H12 C12 1_555 1_555
C13 C12 1_555 1_555
H13 C13 1_555 1_555
C14 C9 1_555 1_555
C15 C7 1_555 1_555
C16 C15 1_555 1_555
C17 C16 1_555 1_555
H14 C17 1_555 1_555
C18 C17 1_555 1_555
H15 C18 1_555 1_555
C19 C18 1_555 1_555
C20 C15 1_555 1_555
H16 C20 1_555 1_555
C21 H17 1_555 1_555
H18 C21 1_555 1_555
H19 C21 1_555 1_555
C22 H20 1_555 1_555
H21 C22 1_555 1_555
H22 C22 1_555 1_555
C23 H23 1_555 1_555
H24 C23 1_555 1_555
H25 C23 1_555 1_555
C24 H26 1_555 1_555
H27 C24 1_555 1_555
H28 C24 1_555 1_555
H29 N1 1_555 1_555
N1 C1 1_555 1_555
O1 C8 1_555 1_555
O2 C11 1_555 1_555
O3 C14 1_555 1_555
O4 C16 1_555 1_555
O5 C19 1_555 1_555
C6 C8 1_555 1_555
C7 N1 1_555 1_555
C13 C14 1_555 1_555
C19 C20 1_555 1_555
C21 O2 1_555 1_555
C22 O3 1_555 1_555
C23 O4 1_555 1_555
C24 O5 1_555 1_555

#END
