
#######################################################################
#
#                 Cambridge Crystallographic Data Centre
#                                CCDC 
#
#######################################################################
#
# If this CIF has been generated from an entry in the Cambridge 
# Structural Database, then it will include bibliographic, chemical, 
# crystal, experimental, refinement or atomic coordinate data resulting 
# from the CCDC's data processing and validation procedures.
#
#######################################################################

data_YEBTUW
_chemical_formula_moiety         'C25 H31 N1 O5'
_chemical_name_systematic        
2,4-bis(2,5-dimethoxyphenyl)-7-methyl-3-azabicyclo[3.3.1]nonan-9-one
_symmetry_cell_setting           orthorhombic
_symmetry_space_group_name_H-M   'F d d 2'
_symmetry_Int_Tables_number      43
_space_group_name_Hall           'F 2 -2d'
loop_
_symmetry_equiv_pos_site_id
_symmetry_equiv_pos_as_xyz
1 x,y,z
2 -x,-y,z
3 1/4+x,1/4-y,1/4+z
4 1/4-x,1/4+y,1/4+z
5 x,1/2+y,1/2+z
6 -x,1/2-y,1/2+z
7 1/4+x,3/4-y,3/4+z
8 1/4-x,3/4+y,3/4+z
9 1/2+x,y,1/2+z
10 1/2-x,-y,1/2+z
11 3/4+x,1/4-y,3/4+z
12 3/4-x,1/4+y,3/4+z
13 1/2+x,1/2+y,z
14 1/2-x,1/2-y,z
15 3/4+x,3/4-y,1/4+z
16 3/4-x,3/4+y,1/4+z
_cell_length_a                   27.7990(10)
_cell_length_b                   37.6164(19)
_cell_length_c                   8.9063(3)
_cell_angle_alpha                90
_cell_angle_beta                 90
_cell_angle_gamma                90
_cell_volume                     9313.3
_exptl_crystal_description       block
_cell_formula_units_Z            16
loop_
_atom_site_label
_atom_site_type_symbol
_atom_site_fract_x
_atom_site_fract_y
_atom_site_fract_z
C1 C 0.17442(5) 0.04526(4) 0.28921(17)
H1 H 0.1879 0.0438 0.1877
C2 C 0.13532(5) 0.07481(4) 0.2893(2)
H2 H 0.1499 0.0971 0.2553
C3 C 0.11009(6) 0.08128(4) 0.4398(2)
H3 H 0.1342 0.0874 0.5142
H4 H 0.0888 0.1015 0.4292
C4 C 0.08105(5) 0.04983(5) 0.4979(2)
H5 H 0.1038 0.0315 0.5306
C5 C 0.04982(5) 0.03388(4) 0.3741(2)
H6 H 0.0219 0.0490 0.3604
H7 H 0.0384 0.0108 0.4076
C6 C 0.07450(5) 0.02914(4) 0.2219(2)
H8 H 0.0502 0.0230 0.1467
C7 C 0.11483(5) 0.00058(4) 0.21903(18)
H9 H 0.1286 -0.0001 0.1178
C8 C 0.09773(6) 0.06366(5) 0.1781(2)
C9 C 0.21511(5) 0.05368(4) 0.39625(17)
C10 C 0.21386(5) 0.04222(4) 0.54391(18)
H10 H 0.1877 0.0291 0.5779
C11 C 0.25127(5) 0.05009(4) 0.64208(19)
C12 C 0.29029(6) 0.06929(4) 0.5914(2)
H11 H 0.3155 0.0744 0.6565
C13 C 0.29207(5) 0.08099(4) 0.4446(2)
H12 H 0.3185 0.0940 0.4113
C14 C 0.25461(5) 0.07347(4) 0.34613(19)
C15 C 0.09475(4) -0.03573(4) 0.25456(18)
C16 C 0.07040(6) -0.05460(4) 0.1415(2)
C17 C 0.05018(6) -0.08733(4) 0.1724(2)
H13 H 0.0339 -0.0995 0.0970
C18 C 0.05382(5) -0.10214(4) 0.3137(2)
H14 H 0.0400 -0.1242 0.3336
C19 C 0.07801(5) -0.08405(4) 0.4253(2)
C20 C 0.09801(5) -0.05092(4) 0.39482(18)
H15 H 0.1139 -0.0388 0.4709
C21 C 0.05024(9) 0.06019(8) 0.6336(3)
H16 H 0.0708 0.0666 0.7160
H17 H 0.0304 0.0404 0.6622
H18 H 0.0302 0.0801 0.6078
C22 C 0.21145(8) 0.02229(5) 0.8489(2)
H19 H 0.1838 0.0373 0.8364
H20 H 0.2163 0.0175 0.9537
H21 H 0.2065 0.0003 0.7964
C23 C 0.29659(7) 0.09508(7) 0.1300(3)
H22 H 0.3060 0.1180 0.1672
H23 H 0.2920 0.0964 0.0233
H24 H 0.3213 0.0780 0.1521
C24 C 0.04757(15) -0.05594(9) -0.1146(3)
H25 H 0.0642 -0.0780 -0.1307
H26 H 0.0496 -0.0416 -0.2035
H27 H 0.0144 -0.0607 -0.0921
C25 C 0.06802(8) -0.13088(5) 0.6027(3)
H28 H 0.0341 -0.1328 0.5842
H29 H 0.0745 -0.1360 0.7063
H30 H 0.0849 -0.1475 0.5403
N1 N 0.15305(4) 0.01062(3) 0.32502(15)
O1 O 0.08812(6) 0.08024(4) 0.06531(19)
O2 O 0.25255(5) 0.03964(4) 0.78992(14)
O3 O 0.25304(4) 0.08454(3) 0.19975(15)
O4 O 0.06852(5) -0.03794(4) 0.00481(16)
O5 O 0.08355(5) -0.09605(3) 0.56928(15)
H31 H 0.1734(5) -0.0047(4) 0.3225(18)
loop_
_geom_bond_atom_site_label_1
_geom_bond_atom_site_label_2
_geom_bond_site_symmetry_1
_geom_bond_site_symmetry_2
C1 H1 1_555 1_555
C2 C1 1_555 1_555
H2 C2 1_555 1_555
C3 C2 1_555 1_555
H3 C3 1_555 1_555
H4 C3 1_555 1_555
C4 C3 1_555 1_555
H5 C4 1_555 1_555
C5 C4 1_555 1_555
H6 C5 1_555 1_555
H7 C5 1_555 1_555
C6 C5 1_555 1_555
H8 C6 1_555 1_555
C7 C6 1_555 1_555
H9 C7 1_555 1_555
C8 C2 1_555 1_555
C9 C1 1_555 1_555
C10 C9 1_555 1_555
H10 C10 1_555 1_555
C11 C10 1_555 1_555
C12 C11 1_555 1_555
H11 C12 1_555 1_555
C13 C12 1_555 1_555
H12 C13 1_555 1_555
C14 C9 1_555 1_555
C15 C7 1_555 1_555
C16 C15 1_555 1_555
C17 C16 1_555 1_555
H13 C17 1_555 1_555
C18 C17 1_555 1_555
H14 C18 1_555 1_555
C19 C18 1_555 1_555
C20 C15 1_555 1_555
H15 C20 1_555 1_555
C21 C4 1_555 1_555
H16 C21 1_555 1_555
H17 C21 1_555 1_555
H18 C21 1_555 1_555
C22 H19 1_555 1_555
H20 C22 1_555 1_555
H21 C22 1_555 1_555
C23 H22 1_555 1_555
H23 C23 1_555 1_555
H24 C23 1_555 1_555
C24 H25 1_555 1_555
H26 C24 1_555 1_555
H27 C24 1_555 1_555
C25 H28 1_555 1_555
H29 C25 1_555 1_555
H30 C25 1_555 1_555
N1 C1 1_555 1_555
O1 C8 1_555 1_555
O2 C11 1_555 1_555
O3 C14 1_555 1_555
O4 C16 1_555 1_555
O5 C19 1_555 1_555
H31 N1 1_555 1_555
C6 C8 1_555 1_555
C7 N1 1_555 1_555
C13 C14 1_555 1_555
C19 C20 1_555 1_555
C22 O2 1_555 1_555
C23 O3 1_555 1_555
C24 O4 1_555 1_555
C25 O5 1_555 1_555

#END
