
#######################################################################
#
#                 Cambridge Crystallographic Data Centre
#                                CCDC 
#
#######################################################################
#
# If this CIF has been generated from an entry in the Cambridge 
# Structural Database, then it will include bibliographic, chemical, 
# crystal, experimental, refinement or atomic coordinate data resulting 
# from the CCDC's data processing and validation procedures.
#
#######################################################################

data_YEBXEK
_chemical_compound_source        'Isodon eriocalyx var. laxiflora'
_chemical_formula_moiety         'C20 H24 O6'
_chemical_name_systematic        'Neolaxiflorin F'
_symmetry_cell_setting           monoclinic
_symmetry_space_group_name_H-M   'P 21'
_symmetry_Int_Tables_number      4
_space_group_name_Hall           'P 2yb'
loop_
_symmetry_equiv_pos_site_id
_symmetry_equiv_pos_as_xyz
1 x,y,z
2 -x,1/2+y,-z
_cell_length_a                   9.9719(5)
_cell_length_b                   7.5897(4)
_cell_length_c                   10.9911(5)
_cell_angle_alpha                90
_cell_angle_beta                 101.164(2)
_cell_angle_gamma                90
_cell_volume                     816.106
_exptl_crystal_colour            colorless
_cell_formula_units_Z            2
loop_
_atom_site_label
_atom_site_type_symbol
_atom_site_fract_x
_atom_site_fract_y
_atom_site_fract_z
O1 O -0.0559(5) 0.0988(9) 0.5785(4)
O2 O 0.4643(4) 0.3010(6) 0.9573(3)
O3 O 0.2707(5) 0.1606(6) 0.9672(3)
O4 O 0.5070(4) 0.2954(5) 0.6371(3)
O5 O 0.3810(4) 0.4827(5) 0.7251(3)
H1 H 0.3566 0.5130 0.7910
O6 O 0.5970(4) -0.2844(6) 0.7319(3)
C1 C 0.8473(7) 0.3312(9) 0.8382(5)
H2 H 0.9468 0.3208 0.8476
H3 H 0.8251 0.4384 0.8800
H4 H 0.8058 0.3375 0.7499
C2 C 0.7908(6) 0.1680(8) 0.8971(5)
C3 C 0.6344(5) 0.1413(7) 0.8703(4)
H5 H 0.6137 0.0740 0.9427
C4 C 0.5732(6) 0.0292(8) 0.7527(4)
C5 C 0.4170(5) -0.0018(7) 0.7488(4)
H6 H 0.4084 -0.0796 0.8202
C6 C 0.3400(6) -0.0929(8) 0.6279(5)
H7 H 0.4059 -0.1688 0.5955
H8 H 0.2689 -0.1708 0.6501
C7 C 0.2718(7) 0.0298(9) 0.5233(5)
H9 H 0.2190 -0.0426 0.4557
H10 H 0.3440 0.0918 0.4896
C8 C 0.1755(6) 0.1681(8) 0.5631(5)
H11 H 0.1975 0.2845 0.5289
C9 C 0.0229(6) 0.1294(8) 0.5114(5)
C10 C -0.0227(7) 0.1333(8) 0.3737(5)
H12 H -0.1134 0.0795 0.3511
H13 H 0.0424 0.0674 0.3349
H14 H -0.0270 0.2557 0.3447
C11 C 0.5512(6) 0.3132(9) 0.8649(5)
H15 H 0.6115 0.4195 0.8780
C12 C 0.3513(6) 0.2066(8) 0.9051(5)
C13 C 0.3477(6) 0.1797(8) 0.7683(4)
C14 C 0.4458(6) 0.3236(8) 0.7420(5)
C15 C 0.5855(6) 0.1336(7) 0.6377(5)
H16 H 0.6826 0.1617 0.6384
H17 H 0.5497 0.0636 0.5624
C16 C 0.1985(5) 0.1859(8) 0.7030(5)
H18 H 0.1485 0.0900 0.7360
H19 H 0.1586 0.2990 0.7234
C17 C 0.8620(7) 0.0066(9) 0.8598(6)
H20 H 0.9591 0.0062 0.8794
C18 C 0.8031(6) -0.1311(8) 0.8036(5)
H21 H 0.8583 -0.2284 0.7898
C19 C 0.6510(6) -0.1431(8) 0.7593(4)
C20 C 0.8364(7) 0.1912(10) 1.0394(5)
H22 H 0.8091 0.0874 1.0817
H23 H 0.7930 0.2964 1.0661
H24 H 0.9360 0.2043 1.0602
loop_
_geom_bond_atom_site_label_1
_geom_bond_atom_site_label_2
_geom_bond_site_symmetry_1
_geom_bond_site_symmetry_2
O1 C9 1_555 1_555
O2 C11 1_555 1_555
O3 C12 1_555 1_555
O4 C14 1_555 1_555
O5 H1 1_555 1_555
O6 C19 1_555 1_555
C1 H2 1_555 1_555
H3 C1 1_555 1_555
H4 C1 1_555 1_555
C2 C1 1_555 1_555
C3 C2 1_555 1_555
H5 C3 1_555 1_555
C4 C3 1_555 1_555
C5 C4 1_555 1_555
H6 C5 1_555 1_555
C6 C5 1_555 1_555
H7 C6 1_555 1_555
H8 C6 1_555 1_555
C7 C6 1_555 1_555
H9 C7 1_555 1_555
H10 C7 1_555 1_555
C8 C7 1_555 1_555
H11 C8 1_555 1_555
C9 C8 1_555 1_555
C10 C9 1_555 1_555
H12 C10 1_555 1_555
H13 C10 1_555 1_555
H14 C10 1_555 1_555
C11 C3 1_555 1_555
H15 C11 1_555 1_555
C12 O2 1_555 1_555
C13 C5 1_555 1_555
C14 O5 1_555 1_555
C15 O4 1_555 1_555
H16 C15 1_555 1_555
H17 C15 1_555 1_555
C16 C8 1_555 1_555
H18 C16 1_555 1_555
H19 C16 1_555 1_555
C17 C2 1_555 1_555
H20 C17 1_555 1_555
C18 C17 1_555 1_555
H21 C18 1_555 1_555
C19 C4 1_555 1_555
C20 C2 1_555 1_555
H22 C20 1_555 1_555
H23 C20 1_555 1_555
H24 C20 1_555 1_555
C4 C15 1_555 1_555
C11 C14 1_555 1_555
C12 C13 1_555 1_555
C13 C14 1_555 1_555
C13 C16 1_555 1_555
C18 C19 1_555 1_555

#END
