
#######################################################################
#
#                 Cambridge Crystallographic Data Centre
#                                CCDC 
#
#######################################################################
#
# If this CIF has been generated from an entry in the Cambridge 
# Structural Database, then it will include bibliographic, chemical, 
# crystal, experimental, refinement or atomic coordinate data resulting 
# from the CCDC's data processing and validation procedures.
#
#######################################################################

data_YEBZAH
_chemical_name_common            2-C-((1R)-Aminoethyl)isomannide
_chemical_formula_moiety         'C8 H15 N1 O4'
_chemical_name_systematic        2-C-(1R)-Aminoethyl-1,4:3,6-dianhydrohexitol
_symmetry_cell_setting           orthorhombic
_symmetry_space_group_name_H-M   'P 21 21 21'
_symmetry_Int_Tables_number      19
_space_group_name_Hall           'P 2ac 2ab'
loop_
_symmetry_equiv_pos_site_id
_symmetry_equiv_pos_as_xyz
1 x,y,z
2 1/2-x,-y,1/2+z
3 -x,1/2+y,1/2-z
4 1/2+x,1/2-y,-z
_cell_length_a                   5.6985(11)
_cell_length_b                   10.056(2)
_cell_length_c                   16.330(3)
_cell_angle_alpha                90
_cell_angle_beta                 90
_cell_angle_gamma                90
_cell_volume                     935.776
_exptl_crystal_colour            colorless
_exptl_crystal_description       prismatic
_chemical_melting_point          124-125deg.C
_cell_formula_units_Z            4
loop_
_atom_site_label
_atom_site_type_symbol
_atom_site_fract_x
_atom_site_fract_y
_atom_site_fract_z
O1 O 1.1693(2) 1.23955(16) 0.76706(10)
O2 O 0.8636(2) 1.00678(19) 0.79214(9)
O3 O 1.2687(3) 0.93136(16) 0.72600(10)
O4 O 1.4004(3) 1.23403(19) 0.61468(10)
N1 N 1.0514(4) 0.8409(2) 0.92135(15)
C1 C 1.0568(4) 1.1984(2) 0.84097(16)
H1 H 0.8969 1.2314 0.8429
H2 H 1.1409 1.2320 0.8883
C2 C 1.0592(3) 1.0476(2) 0.84023(13)
C3 C 1.2962(3) 1.0198(2) 0.79393(14)
H3 H 1.4151 0.9859 0.8319
C4 C 1.3705(4) 1.1547(2) 0.75930(14)
H4 H 1.5082 1.1909 0.7875
C5 C 1.4194(4) 1.1260(2) 0.66927(14)
H5 H 1.5801 1.0919 0.6654
C6 C 1.2545(4) 1.0107(3) 0.65292(15)
H6 H 1.0956 1.0420 0.6440
H7 H 1.3049 0.9603 0.6054
C7 C 1.0501(4) 0.9874(3) 0.92599(13)
H8 H 1.1892 1.0164 0.9564
C8 C 0.8329(4) 1.0301(3) 0.97302(15)
H9 H 0.8347 0.9905 1.0265
H10 H 0.6951 1.0017 0.9441
H11 H 0.8315 1.1252 0.9782
H12 H 0.884(6) 0.916(4) 0.773(2)
H13 H 1.256(6) 1.267(3) 0.6167(18)
H14 H 1.060(5) 0.802(3) 0.9751(19)
H15 H 1.174(7) 0.808(4) 0.903(2)
loop_
_geom_bond_atom_site_label_1
_geom_bond_atom_site_label_2
_geom_bond_site_symmetry_1
_geom_bond_site_symmetry_2
O1 C1 1_555 1_555
O2 C2 1_555 1_555
O3 C3 1_555 1_555
O4 C5 1_555 1_555
N1 C7 1_555 1_555
C1 H1 1_555 1_555
H2 C1 1_555 1_555
C2 C1 1_555 1_555
C3 C2 1_555 1_555
H3 C3 1_555 1_555
C4 O1 1_555 1_555
H4 C4 1_555 1_555
C5 C4 1_555 1_555
H5 C5 1_555 1_555
C6 O3 1_555 1_555
H6 C6 1_555 1_555
H7 C6 1_555 1_555
C7 C2 1_555 1_555
H8 C7 1_555 1_555
C8 C7 1_555 1_555
H9 C8 1_555 1_555
H10 C8 1_555 1_555
H11 C8 1_555 1_555
H12 O2 1_555 1_555
H13 O4 1_555 1_555
H14 N1 1_555 1_555
H15 N1 1_555 1_555
C3 C4 1_555 1_555
C5 C6 1_555 1_555

#END
