
#######################################################################
#
#                 Cambridge Crystallographic Data Centre
#                                CCDC 
#
#######################################################################
#
# If this CIF has been generated from an entry in the Cambridge 
# Structural Database, then it will include bibliographic, chemical, 
# crystal, experimental, refinement or atomic coordinate data resulting 
# from the CCDC's data processing and validation procedures.
#
#######################################################################

data_YEDPOM
_chemical_formula_moiety         'C14 H20 N1 O3 P1'
_chemical_name_systematic        
2-Dimethoxyphosphorylmethylene-1,3,3-trimethylindoline
_symmetry_cell_setting           monoclinic
_symmetry_space_group_name_H-M   'P 21/c'
_symmetry_Int_Tables_number      14
_space_group_name_Hall           '-P 2ybc'
loop_
_symmetry_equiv_pos_site_id
_symmetry_equiv_pos_as_xyz
1 x,y,z
2 -x,1/2+y,1/2-z
3 -x,-y,-z
4 x,1/2-y,1/2+z
_cell_length_a                   11.822(1)
_cell_length_b                   10.201(1)
_cell_length_c                   12.640(2)
_cell_angle_alpha                90
_cell_angle_beta                 101.45(1)
_cell_angle_gamma                90
_cell_volume                     1494
_chemical_melting_point          78-80deg.C
_cell_formula_units_Z            4
loop_
_atom_site_label
_atom_site_type_symbol
_atom_site_fract_x
_atom_site_fract_y
_atom_site_fract_z
N1 N 0.4370(5) 0.0342(7) 0.3353(6)
C1 C 0.3265(7) -0.0130(8) 0.2993(7)
C2 C 0.2425(7) 0.0823(9) 0.3353(7)
C3 C 0.3250(7) 0.1805(8) 0.4023(7)
C4 C 0.3041(8) 0.2855(9) 0.4605(8)
C5 C 0.3937(9) 0.3565(9) 0.5199(9)
C6 C 0.5050(9) 0.3216(9) 0.5186(8)
C7 C 0.5303(7) 0.2149(9) 0.4576(8)
C8 C 0.4386(8) 0.1446(8) 0.4003(7)
C9 C 0.3079(7) -0.1243(9) 0.2409(7)
P1 P 0.1798(2) -0.2087(3) 0.1881(2)
O1 O 0.2156(6) -0.3541(8) 0.2351(6)
C10 C 0.1439(9) -0.4650(11) 0.2144(9)
O2 O 0.1799(6) -0.2414(8) 0.0711(7)
C11 C 0.1557(17) -0.1499(20) 0.0129(16)
O3 O 0.0693(5) -0.1647(6) 0.2093(5)
C13 C 0.5409(7) -0.0280(9) 0.3110(8)
C14 C 0.1696(7) 0.0170(9) 0.4082(7)
C15 C 0.1686(8) 0.1499(9) 0.2379(7)
C12? C 0.0843(17) -0.1751(20) -0.0271(16)
loop_
_geom_bond_atom_site_label_1
_geom_bond_atom_site_label_2
_geom_bond_site_symmetry_1
_geom_bond_site_symmetry_2
N1 C1 1_555 1_555
C1 C2 1_555 1_555
C2 C3 1_555 1_555
C3 C4 1_555 1_555
C4 C5 1_555 1_555
C5 C6 1_555 1_555
C6 C7 1_555 1_555
C7 C8 1_555 1_555
C8 N1 1_555 1_555
C9 C1 1_555 1_555
P1 C9 1_555 1_555
O1 P1 1_555 1_555
C10 O1 1_555 1_555
O2 P1 1_555 1_555
C11 O2 1_555 1_555
O3 P1 1_555 1_555
C13 N1 1_555 1_555
C14 C2 1_555 1_555
C15 C2 1_555 1_555
C3 C8 1_555 1_555

#END
