
#######################################################################
#
#                 Cambridge Crystallographic Data Centre
#                                CCDC 
#
#######################################################################
#
# If this CIF has been generated from an entry in the Cambridge 
# Structural Database, then it will include bibliographic, chemical, 
# crystal, experimental, refinement or atomic coordinate data resulting 
# from the CCDC's data processing and validation procedures.
#
#######################################################################

data_YEFFIB
_chemical_formula_moiety         'C108 H132 Li12 O24'
_chemical_name_systematic        
dodecakis(\m-(2-phenylpropan-2-yl)peroxy)-dodeca-lithium
_symmetry_cell_setting           rhombohedral
_symmetry_space_group_name_H-M   'R -3'
_symmetry_Int_Tables_number      148
_space_group_name_Hall           '-R 3'
loop_
_symmetry_equiv_pos_site_id
_symmetry_equiv_pos_as_xyz
1 x,y,z
2 -y,x-y,z
3 -x+y,-x,z
4 2/3+x,1/3+y,1/3+z
5 2/3-y,1/3+x-y,1/3+z
6 2/3-x+y,1/3-x,1/3+z
7 1/3+x,2/3+y,2/3+z
8 1/3-y,2/3+x-y,2/3+z
9 1/3-x+y,2/3-x,2/3+z
10 -x,-y,-z
11 y,-x+y,-z
12 x-y,x,-z
13 1/3-x,2/3-y,2/3-z
14 1/3+y,2/3-x+y,2/3-z
15 1/3+x-y,2/3+x,2/3-z
16 2/3-x,1/3-y,1/3-z
17 2/3+y,1/3-x+y,1/3-z
18 2/3+x-y,1/3+x,1/3-z
_cell_length_a                   19.799(17)
_cell_length_b                   19.799(17)
_cell_length_c                   48.14(4)
_cell_angle_alpha                90
_cell_angle_beta                 90
_cell_angle_gamma                120
_cell_volume                     16342.7
_exptl_crystal_colour            colorless
_exptl_crystal_description       block
_cell_formula_units_Z            6
_chemical_properties_physical    Air-sensitive,Moisture-sensitive
_exptl_crystal_recrystallization_method n-pentane
loop_
_atom_site_label
_atom_site_type_symbol
_atom_site_fract_x
_atom_site_fract_y
_atom_site_fract_z
O1 O 0.9176(5) 0.8889(5) 0.70439(12)
O2 O 0.8977(5) 0.8991(5) 0.67524(12)
O3 O 0.8224(5) 0.9389(5) 0.72999(12)
O4 O 0.7695(6) 0.9676(5) 0.73734(13)
O5 O 0.8868(5) 0.9746(5) 0.79212(12)
O6 O 0.9067(5) 1.0084(5) 0.82090(12)
O7 O 0.8798(5) 0.8198(5) 0.76590(12)
O8 O 0.7992(5) 0.7634(5) 0.75570(13)
C1 C 0.8527(9) 0.8225(8) 0.6617(2)
C2 C 0.7776(9) 0.7747(8) 0.6779(2)
H1 H 0.7897 0.7622 0.6963
H2 H 0.7437 0.7263 0.6679
H3 H 0.7508 0.8048 0.6801
C3 C 0.8994(10) 0.7808(9) 0.6617(2)
H4 H 0.9507 0.8146 0.6534
H5 H 0.8717 0.7326 0.6509
H6 H 0.9060 0.7682 0.6809
C4 C 0.8400(9) 0.8443(9) 0.6327(2)
C5 C 0.7720(10) 0.8230(11) 0.6216(3)
H7 H 0.7267 0.7932 0.6326
C6 C 0.7620(10) 0.8417(9) 0.5945(2)
H8 H 0.7111 0.8254 0.5876
C7 C 0.8234(10) 0.8822(10) 0.5782(3)
H9 H 0.8178 0.9007 0.5607
C8 C 0.8932(11) 0.8964(11) 0.5870(3)
H10 H 0.9361 0.9186 0.5745
C9 C 0.9046(10) 0.8786(10) 0.6151(2)
H11 H 0.9547 0.8898 0.6214
C10 C 0.6901(9) 0.9078(9) 0.7385(2)
C11 C 0.6800(9) 0.8454(9) 0.7598(2)
H12 H 0.7083 0.8195 0.7534
H13 H 0.6245 0.8069 0.7617
H14 H 0.7007 0.8703 0.7778
C12 C 0.6467(8) 0.9489(9) 0.7478(2)
H15 H 0.6664 0.9732 0.7660
H16 H 0.5909 0.9110 0.7492
H17 H 0.6547 0.9892 0.7342
C13 C 0.6625(8) 0.8749(8) 0.7099(2)
C14 C 0.6051(10) 0.7987(10) 0.7050(3)
H18 H 0.5832 0.7647 0.7204
C15 C 0.5781(10) 0.7696(10) 0.6786(3)
H19 H 0.5397 0.7165 0.6756
C16 C 0.6108(11) 0.8229(12) 0.6564(3)
H20 H 0.5931 0.8058 0.6380
C17 C 0.6666(11) 0.8974(11) 0.6608(3)
H21 H 0.6887 0.9318 0.6454
C18 C 0.6910(9) 0.9233(9) 0.6864(2)
H22 H 0.7292 0.9766 0.6888
C19 C 0.8355(8) 0.9948(8) 0.8352(2)
C20 C 0.8014(8) 1.0394(8) 0.8203(2)
H23 H 0.8427 1.0934 0.8172
H24 H 0.7601 1.0387 0.8317
H25 H 0.7797 1.0145 0.8023
C21 C 0.7788(8) 0.9090(8) 0.8383(2)
H26 H 0.7595 0.8860 0.8200
H27 H 0.7349 0.9014 0.8499
H28 H 0.8051 0.8837 0.8471
C22 C 0.8674(9) 1.0317(8) 0.8647(2)
C23 C 0.9457(8) 1.0651(8) 0.8713(2)
H29 H 0.9817 1.0687 0.8575
C24 C 0.9724(9) 1.0935(8) 0.8979(2)
H30 H 1.0260 1.1154 0.9024
C25 C 0.9183(9) 1.0889(8) 0.9178(2)
H31 H 0.9350 1.1072 0.9362
C26 C 0.8420(9) 1.0581(9) 0.9107(2)
H32 H 0.8059 1.0554 0.9242
C27 C 0.8156(8) 1.0304(8) 0.8839(2)
H33 H 0.7625 1.0111 0.8790
C28 C 0.7806(8) 0.6843(8) 0.7605(2)
C29 C 0.7029(8) 0.6380(9) 0.7455(2)
H34 H 0.6666 0.6545 0.7521
H35 H 0.6812 0.5823 0.7492
H36 H 0.7110 0.6475 0.7254
C30 C 0.8432(8) 0.6697(8) 0.7481(2)
H37 H 0.8600 0.6962 0.7301
H38 H 0.8218 0.6135 0.7454
H39 H 0.8880 0.6899 0.7607
C31 C 0.7685(8) 0.6664(8) 0.7914(2)
C32 C 0.7544(8) 0.7133(8) 0.8091(2)
H40 H 0.7512 0.7558 0.8015
C33 C 0.7450(9) 0.7007(9) 0.8371(2)
H41 H 0.7371 0.7350 0.8487
C34 C 0.7471(10) 0.6379(9) 0.8484(3)
H42 H 0.7398 0.6284 0.8678
C35 C 0.7595(13) 0.5887(10) 0.8316(3)
H43 H 0.7602 0.5449 0.8394
C36 C 0.7712(10) 0.6037(9) 0.8033(2)
H44 H 0.7811 0.5706 0.7919
Li1 Li 1.0215(13) 0.9210(14) 0.7005(3)
Li2 Li 0.8435(13) 0.8568(13) 0.7337(3)
Li3 Li 0.8583(14) 1.0146(13) 0.7606(3)
Li4 Li 0.9144(13) 0.8976(12) 0.7944(3)
O1A O 1.1111(5) 1.0287(7) 0.70439(12)
O2A O 1.1009(5) 0.9986(7) 0.67524(12)
O3A O 1.0611(5) 0.8835(7) 0.72999(12)
O4A O 1.0324(5) 0.8019(8) 0.73734(13)
O5A O 1.0254(5) 0.9122(7) 0.79212(12)
O6A O 0.9916(5) 0.8983(7) 0.82090(12)
O7A O 1.1802(5) 1.0600(7) 0.76590(12)
O8A O 1.2366(5) 1.0358(7) 0.75570(13)
C1A C 1.1775(8) 1.0302(12) 0.6617(2)
C2A C 1.2253(8) 1.0029(12) 0.6779(2)
H1A H 1.2378 1.0275 0.6963
H2A H 1.2737 1.0174 0.6679
H3A H 1.1952 0.9460 0.6801
C3A C 1.2192(9) 1.1186(13) 0.6617(2)
H4A H 1.1854 1.1361 0.6534
H5A H 1.2674 1.1391 0.6509
H6A H 1.2318 1.1378 0.6809
C4A C 1.1557(9) 0.9957(13) 0.6327(2)
C5A C 1.1770(11) 0.9490(15) 0.6216(3)
H7A H 1.2068 0.9335 0.6326
C6A C 1.1583(9) 0.9203(13) 0.5945(2)
H8A H 1.1746 0.8857 0.5876
C7A C 1.1178(10) 0.9412(14) 0.5782(3)
H9A H 1.0993 0.9171 0.5607
C8A C 1.1036(11) 0.9968(16) 0.5870(3)
H10A H 1.0814 1.0175 0.5745
C9A C 1.1214(10) 1.0260(14) 0.6151(2)
H11A H 1.1102 1.0649 0.6214
C10A C 1.0922(9) 0.7823(13) 0.7385(2)
C11A C 1.1546(9) 0.8346(13) 0.7598(2)
H12A H 1.1805 0.8888 0.7534
H13A H 1.1931 0.8176 0.7617
H14A H 1.1297 0.8304 0.7778
C12A C 1.0511(9) 0.6978(12) 0.7478(2)
H15A H 1.0268 0.6932 0.7660
H16A H 1.0890 0.6799 0.7492
H17A H 1.0108 0.6655 0.7342
C13A C 1.1251(8) 0.7876(11) 0.7099(2)
C14A C 1.2013(10) 0.8064(14) 0.7050(3)
H18A H 1.2353 0.8185 0.7204
C15A C 1.2304(10) 0.8085(14) 0.6786(3)
H19A H 1.2835 0.8232 0.6756
C16A C 1.1771(12) 0.7879(16) 0.6564(3)
H20A H 1.1942 0.7873 0.6380
C17A C 1.1026(11) 0.7692(16) 0.6608(3)
H21A H 1.0682 0.7569 0.6454
C18A C 1.0767(9) 0.7677(13) 0.6864(2)
H22A H 1.0234 0.7526 0.6888
C19A C 1.0052(8) 0.8407(11) 0.8352(2)
C20A C 0.9606(8) 0.7620(11) 0.8203(2)
H23A H 0.9066 0.7493 0.8172
H24A H 0.9613 0.7214 0.8317
H25A H 0.9855 0.7652 0.8023
C21A C 1.0910(8) 0.8698(11) 0.8383(2)
H26A H 1.1140 0.8735 0.8200
H27A H 1.0986 0.8335 0.8499
H28A H 1.1163 0.9214 0.8471
C22A C 0.9683(8) 0.8357(12) 0.8647(2)
C23A C 0.9349(8) 0.8806(11) 0.8713(2)
H29A H 0.9313 0.9130 0.8575
C24A C 0.9065(8) 0.8789(12) 0.8979(2)
H30A H 0.8846 0.9106 0.9024
C25A C 0.9111(8) 0.8294(12) 0.9178(2)
H31A H 0.8928 0.8278 0.9362
C26A C 0.9419(9) 0.7839(13) 0.9107(2)
H32A H 0.9446 0.7505 0.9242
C27A C 0.9696(8) 0.7852(11) 0.8839(2)
H33A H 0.9889 0.7514 0.8790
C28A C 1.3157(8) 1.0963(11) 0.7605(2)
C29A C 1.3620(9) 1.0649(12) 0.7455(2)
H34A H 1.3455 1.0121 0.7521
H35A H 1.4177 1.0989 0.7492
H36A H 1.3525 1.0635 0.7254
C30A C 1.3303(8) 1.1735(11) 0.7481(2)
H37A H 1.3038 1.1638 0.7301
H38A H 1.3865 1.2083 0.7454
H39A H 1.3101 1.1981 0.7607
C31A C 1.3336(8) 1.1021(11) 0.7914(2)
C32A C 1.2867(8) 1.0411(11) 0.8091(2)
H40A H 1.2442 0.9954 0.8015
C33A C 1.2993(9) 1.0443(13) 0.8371(2)
H41A H 1.2650 1.0021 0.8487
C34A C 1.3621(9) 1.1092(13) 0.8484(3)
H42A H 1.3716 1.1114 0.8678
C35A C 1.4113(10) 1.1708(16) 0.8316(3)
H43A H 1.4551 1.2153 0.8394
C36A C 1.3963(9) 1.1675(13) 0.8033(2)
H44A H 1.4294 1.2105 0.7919
Li1A Li 1.0790(14) 1.1005(19) 0.7005(3)
Li2A Li 1.1432(13) 0.9867(18) 0.7337(3)
Li3A Li 0.9854(13) 0.8437(19) 0.7606(3)
Li4A Li 1.1024(12) 1.0168(18) 0.7944(3)
O1B O 0.9713(7) 1.0824(5) 0.70439(12)
O2B O 1.0014(7) 1.1023(5) 0.67524(12)
O3B O 1.1165(7) 1.1776(5) 0.72999(12)
O4B O 1.1981(8) 1.2305(6) 0.73734(13)
O5B O 1.0878(7) 1.1132(5) 0.79212(12)
O6B O 1.1017(7) 1.0933(5) 0.82090(12)
O7B O 0.9400(7) 1.1202(5) 0.76590(12)
O8B O 0.9642(7) 1.2008(5) 0.75570(13)
C1B C 0.9698(12) 1.1473(9) 0.6617(2)
C2B C 0.9971(12) 1.2224(9) 0.6779(2)
H1B H 0.9725 1.2103 0.6963
H2B H 0.9826 1.2563 0.6679
H3B H 1.0540 1.2492 0.6801
C3B C 0.8814(13) 1.1006(10) 0.6617(2)
H4B H 0.8639 1.0493 0.6534
H5B H 0.8609 1.1283 0.6509
H6B H 0.8622 1.0940 0.6809
C4B C 1.0043(13) 1.1600(9) 0.6327(2)
C5B C 1.0510(15) 1.2280(10) 0.6216(3)
H7B H 1.0665 1.2733 0.6326
C6B C 1.0797(13) 1.2380(10) 0.5945(2)
H8B H 1.1143 1.2889 0.5876
C7B C 1.0588(14) 1.1766(10) 0.5782(3)
H9B H 1.0829 1.1822 0.5607
C8B C 1.0032(16) 1.1068(11) 0.5870(3)
H10B H 0.9825 1.0639 0.5745
C9B C 0.9740(14) 1.0954(10) 0.6151(2)
H11B H 0.9351 1.0453 0.6214
C10B C 1.2177(13) 1.3099(9) 0.7385(2)
C11B C 1.1654(13) 1.3200(9) 0.7598(2)
H12B H 1.1112 1.2917 0.7534
H13B H 1.1824 1.3755 0.7617
H14B H 1.1696 1.2993 0.7778
C12B C 1.3022(12) 1.3533(8) 0.7478(2)
H15B H 1.3068 1.3336 0.7660
H16B H 1.3201 1.4091 0.7492
H17B H 1.3345 1.3453 0.7342
C13B C 1.2124(11) 1.3375(8) 0.7099(2)
C14B C 1.1936(14) 1.3949(10) 0.7050(3)
H18B H 1.1815 1.4168 0.7204
C15B C 1.1915(14) 1.4219(10) 0.6786(3)
H19B H 1.1768 1.4603 0.6756
C16B C 1.2121(16) 1.3892(11) 0.6564(3)
H20B H 1.2127 1.4069 0.6380
C17B C 1.2308(16) 1.3334(11) 0.6608(3)
H21B H 1.2431 1.3113 0.6454
C18B C 1.2323(13) 1.3090(9) 0.6864(2)
H22B H 1.2474 1.2708 0.6888
C19B C 1.1593(11) 1.1645(8) 0.8352(2)
C20B C 1.2380(11) 1.1986(8) 0.8203(2)
H23B H 1.2507 1.1573 0.8172
H24B H 1.2786 1.2399 0.8317
H25B H 1.2348 1.2203 0.8023
C21B C 1.1302(11) 1.2212(8) 0.8383(2)
H26B H 1.1265 1.2405 0.8200
H27B H 1.1665 1.2651 0.8499
H28B H 1.0786 1.1949 0.8471
C22B C 1.1643(12) 1.1326(9) 0.8647(2)
C23B C 1.1194(11) 1.0543(8) 0.8713(2)
H29B H 1.0870 1.0183 0.8575
C24B C 1.1211(12) 1.0276(9) 0.8979(2)
H30B H 1.0894 0.9740 0.9024
C25B C 1.1706(12) 1.0817(9) 0.9178(2)
H31B H 1.1722 1.0650 0.9362
C26B C 1.2161(13) 1.1580(9) 0.9107(2)
H32B H 1.2495 1.1941 0.9242
C27B C 1.2148(11) 1.1844(8) 0.8839(2)
H33B H 1.2486 1.2375 0.8790
C28B C 0.9037(11) 1.2194(8) 0.7605(2)
C29B C 0.9351(12) 1.2971(8) 0.7455(2)
H34B H 0.9879 1.3334 0.7521
H35B H 0.9011 1.3188 0.7492
H36B H 0.9365 1.2890 0.7254
C30B C 0.8265(11) 1.1568(8) 0.7481(2)
H37B H 0.8362 1.1400 0.7301
H38B H 0.7917 1.1782 0.7454
H39B H 0.8019 1.1120 0.7607
C31B C 0.8979(11) 1.2315(8) 0.7914(2)
C32B C 0.9589(11) 1.2456(8) 0.8091(2)
H40B H 1.0046 1.2488 0.8015
C33B C 0.9557(13) 1.2550(9) 0.8371(2)
H41B H 0.9979 1.2629 0.8487
C34B C 0.8908(13) 1.2529(10) 0.8484(3)
H42B H 0.8886 1.2602 0.8678
C35B C 0.8292(16) 1.2405(13) 0.8316(3)
H43B H 0.7847 1.2398 0.8394
C36B C 0.8325(13) 1.2288(10) 0.8033(2)
H44B H 0.7895 1.2189 0.7919
Li1B Li 0.8995(19) 0.9785(13) 0.7005(3)
Li2B Li 1.0133(18) 1.1565(13) 0.7337(3)
Li3B Li 1.1563(19) 1.1417(14) 0.7606(3)
Li4B Li 0.9832(18) 1.0856(13) 0.7944(3)
loop_
_geom_bond_atom_site_label_1
_geom_bond_atom_site_label_2
_geom_bond_site_symmetry_1
_geom_bond_site_symmetry_2
O1 O2 1_555 1_555
O2 C1 1_555 1_555
O3 O4 1_555 1_555
O4 C10 1_555 1_555
O5 O6 1_555 1_555
O6 C19 1_555 1_555
O7 O8 1_555 1_555
O8 C28 1_555 1_555
C1 C2 1_555 1_555
C2 H1 1_555 1_555
H2 C2 1_555 1_555
H3 C2 1_555 1_555
C3 C1 1_555 1_555
H4 C3 1_555 1_555
H5 C3 1_555 1_555
H6 C3 1_555 1_555
C4 C1 1_555 1_555
C5 C4 1_555 1_555
H7 C5 1_555 1_555
C6 C5 1_555 1_555
H8 C6 1_555 1_555
C7 C6 1_555 1_555
H9 C7 1_555 1_555
C8 C7 1_555 1_555
H10 C8 1_555 1_555
C9 C4 1_555 1_555
H11 C9 1_555 1_555
C10 C11 1_555 1_555
C11 H12 1_555 1_555
H13 C11 1_555 1_555
H14 C11 1_555 1_555
C12 C10 1_555 1_555
H15 C12 1_555 1_555
H16 C12 1_555 1_555
H17 C12 1_555 1_555
C13 C10 1_555 1_555
C14 C13 1_555 1_555
H18 C14 1_555 1_555
C15 C14 1_555 1_555
H19 C15 1_555 1_555
C16 C15 1_555 1_555
H20 C16 1_555 1_555
C17 C16 1_555 1_555
H21 C17 1_555 1_555
C18 C13 1_555 1_555
H22 C18 1_555 1_555
C19 C20 1_555 1_555
C20 H23 1_555 1_555
H24 C20 1_555 1_555
H25 C20 1_555 1_555
C21 C19 1_555 1_555
H26 C21 1_555 1_555
H27 C21 1_555 1_555
H28 C21 1_555 1_555
C22 C19 1_555 1_555
C23 C22 1_555 1_555
H29 C23 1_555 1_555
C24 C23 1_555 1_555
H30 C24 1_555 1_555
C25 C24 1_555 1_555
H31 C25 1_555 1_555
C26 C25 1_555 1_555
H32 C26 1_555 1_555
C27 C22 1_555 1_555
H33 C27 1_555 1_555
C28 C29 1_555 1_555
C29 H34 1_555 1_555
H35 C29 1_555 1_555
H36 C29 1_555 1_555
C30 C28 1_555 1_555
H37 C30 1_555 1_555
H38 C30 1_555 1_555
H39 C30 1_555 1_555
C31 C28 1_555 1_555
C32 C31 1_555 1_555
H40 C32 1_555 1_555
C33 C32 1_555 1_555
H41 C33 1_555 1_555
C34 C33 1_555 1_555
H42 C34 1_555 1_555
C35 C34 1_555 1_555
H43 C35 1_555 1_555
C36 C31 1_555 1_555
H44 C36 1_555 1_555
Li1 O1 1_555 1_555
Li2 O1 1_555 1_555
Li3 O3 1_555 1_555
Li4 O5 1_555 1_555
O1A Li1 1_555 1_555
O2A Li1 1_555 1_555
O3A Li1 1_555 1_555
O4A O3A 1_555 1_555
O5A Li4 1_555 1_555
O6A Li4 1_555 1_555
O7A O8A 1_555 1_555
O8A C28A 1_555 1_555
C1A O2A 1_555 1_555
C2A C1A 1_555 1_555
H1A C2A 1_555 1_555
H2A C2A 1_555 1_555
H3A C2A 1_555 1_555
C3A C1A 1_555 1_555
H4A C3A 1_555 1_555
H5A C3A 1_555 1_555
H6A C3A 1_555 1_555
C4A C1A 1_555 1_555
C5A C4A 1_555 1_555
H7A C5A 1_555 1_555
C6A C5A 1_555 1_555
H8A C6A 1_555 1_555
C7A C6A 1_555 1_555
H9A C7A 1_555 1_555
C8A C7A 1_555 1_555
H10A C8A 1_555 1_555
C9A C4A 1_555 1_555
H11A C9A 1_555 1_555
C10A O4A 1_555 1_555
C11A C10A 1_555 1_555
H12A C11A 1_555 1_555
H13A C11A 1_555 1_555
H14A C11A 1_555 1_555
C12A C10A 1_555 1_555
H15A C12A 1_555 1_555
H16A C12A 1_555 1_555
H17A C12A 1_555 1_555
C13A C10A 1_555 1_555
C14A C13A 1_555 1_555
H18A C14A 1_555 1_555
C15A C14A 1_555 1_555
H19A C15A 1_555 1_555
C16A C15A 1_555 1_555
H20A C16A 1_555 1_555
C17A C16A 1_555 1_555
H21A C17A 1_555 1_555
C18A C13A 1_555 1_555
H22A C18A 1_555 1_555
C19A O6A 1_555 1_555
C20A C19A 1_555 1_555
H23A C20A 1_555 1_555
H24A C20A 1_555 1_555
H25A C20A 1_555 1_555
C21A C19A 1_555 1_555
H26A C21A 1_555 1_555
H27A C21A 1_555 1_555
H28A C21A 1_555 1_555
C22A C19A 1_555 1_555
C23A C22A 1_555 1_555
H29A C23A 1_555 1_555
C24A C23A 1_555 1_555
H30A C24A 1_555 1_555
C25A C24A 1_555 1_555
H31A C25A 1_555 1_555
C26A C25A 1_555 1_555
H32A C26A 1_555 1_555
C27A C22A 1_555 1_555
H33A C27A 1_555 1_555
C28A C29A 1_555 1_555
C29A H34A 1_555 1_555
H35A C29A 1_555 1_555
H36A C29A 1_555 1_555
C30A C28A 1_555 1_555
H37A C30A 1_555 1_555
H38A C30A 1_555 1_555
H39A C30A 1_555 1_555
C31A C28A 1_555 1_555
C32A C31A 1_555 1_555
H40A C32A 1_555 1_555
C33A C32A 1_555 1_555
H41A C33A 1_555 1_555
C34A C33A 1_555 1_555
H42A C34A 1_555 1_555
C35A C34A 1_555 1_555
H43A C35A 1_555 1_555
C36A C31A 1_555 1_555
H44A C36A 1_555 1_555
Li1A O1A 1_555 1_555
Li2A O1A 1_555 1_555
Li3A O7 1_555 1_555
Li4A O5A 1_555 1_555
O1B Li1A 1_555 1_555
O2B Li1A 1_555 1_555
O3B Li1A 1_555 1_555
O4B O3B 1_555 1_555
O5B Li4A 1_555 1_555
O6B Li4A 1_555 1_555
O7B Li3 1_555 1_555
O8B O7B 1_555 1_555
C1B O2B 1_555 1_555
C2B C1B 1_555 1_555
H1B C2B 1_555 1_555
H2B C2B 1_555 1_555
H3B C2B 1_555 1_555
C3B C1B 1_555 1_555
H4B C3B 1_555 1_555
H5B C3B 1_555 1_555
H6B C3B 1_555 1_555
C4B C1B 1_555 1_555
C5B C4B 1_555 1_555
H7B C5B 1_555 1_555
C6B C5B 1_555 1_555
H8B C6B 1_555 1_555
C7B C6B 1_555 1_555
H9B C7B 1_555 1_555
C8B C7B 1_555 1_555
H10B C8B 1_555 1_555
C9B C4B 1_555 1_555
H11B C9B 1_555 1_555
C10B O4B 1_555 1_555
C11B C10B 1_555 1_555
H12B C11B 1_555 1_555
H13B C11B 1_555 1_555
H14B C11B 1_555 1_555
C12B C10B 1_555 1_555
H15B C12B 1_555 1_555
H16B C12B 1_555 1_555
H17B C12B 1_555 1_555
C13B C10B 1_555 1_555
C14B C13B 1_555 1_555
H18B C14B 1_555 1_555
C15B C14B 1_555 1_555
H19B C15B 1_555 1_555
C16B C15B 1_555 1_555
H20B C16B 1_555 1_555
C17B C16B 1_555 1_555
H21B C17B 1_555 1_555
C18B C13B 1_555 1_555
H22B C18B 1_555 1_555
C19B O6B 1_555 1_555
C20B C19B 1_555 1_555
H23B C20B 1_555 1_555
H24B C20B 1_555 1_555
H25B C20B 1_555 1_555
C21B C19B 1_555 1_555
H26B C21B 1_555 1_555
H27B C21B 1_555 1_555
H28B C21B 1_555 1_555
C22B C19B 1_555 1_555
C23B C22B 1_555 1_555
H29B C23B 1_555 1_555
C24B C23B 1_555 1_555
H30B C24B 1_555 1_555
C25B C24B 1_555 1_555
H31B C25B 1_555 1_555
C26B C25B 1_555 1_555
H32B C26B 1_555 1_555
C27B C22B 1_555 1_555
H33B C27B 1_555 1_555
C28B O8B 1_555 1_555
C29B C28B 1_555 1_555
H34B C29B 1_555 1_555
H35B C29B 1_555 1_555
H36B C29B 1_555 1_555
C30B C28B 1_555 1_555
H37B C30B 1_555 1_555
H38B C30B 1_555 1_555
H39B C30B 1_555 1_555
C31B C28B 1_555 1_555
C32B C31B 1_555 1_555
H40B C32B 1_555 1_555
C33B C32B 1_555 1_555
H41B C33B 1_555 1_555
C34B C33B 1_555 1_555
H42B C34B 1_555 1_555
C35B C34B 1_555 1_555
H43B C35B 1_555 1_555
C36B C31B 1_555 1_555
H44B C36B 1_555 1_555
Li1B O1 1_555 1_555
Li2B O1B 1_555 1_555
Li3B O7A 1_555 1_555
Li4B O5 1_555 1_555
O2 Li1B 1_555 1_555
O3 Li2 1_555 1_555
O3 Li1B 1_555 1_555
O4 Li3 1_555 1_555
O5 Li3 1_555 1_555
O6 Li4B 1_555 1_555
O7 Li2 1_555 1_555
O7 Li4 1_555 1_555
O8 Li2 1_555 1_555
C8 C9 1_555 1_555
C17 C18 1_555 1_555
C26 C27 1_555 1_555
C35 C36 1_555 1_555
O1A O2A 1_555 1_555
O3A Li2A 1_555 1_555
O3A Li3A 1_555 1_555
O4A Li3A 1_555 1_555
O5A O6A 1_555 1_555
O5A Li3A 1_555 1_555
O7A Li2A 1_555 1_555
O7A Li4A 1_555 1_555
O8A Li2A 1_555 1_555
C8A C9A 1_555 1_555
C17A C18A 1_555 1_555
C26A C27A 1_555 1_555
C35A C36A 1_555 1_555
O1B O2B 1_555 1_555
O1B Li1B 1_555 1_555
O3B Li2B 1_555 1_555
O3B Li3B 1_555 1_555
O4B Li3B 1_555 1_555
O5B O6B 1_555 1_555
O5B Li3B 1_555 1_555
O5B Li4B 1_555 1_555
O7B Li2B 1_555 1_555
O7B Li4B 1_555 1_555
O8B Li2B 1_555 1_555
C8B C9B 1_555 1_555
C17B C18B 1_555 1_555
C26B C27B 1_555 1_555
C35B C36B 1_555 1_555

#END
