
#######################################################################
#
#                 Cambridge Crystallographic Data Centre
#                                CCDC 
#
#######################################################################
#
# If this CIF has been generated from an entry in the Cambridge 
# Structural Database, then it will include bibliographic, chemical, 
# crystal, experimental, refinement or atomic coordinate data resulting 
# from the CCDC's data processing and validation procedures.
#
#######################################################################

data_YEFFOF
_chemical_formula_moiety         'C18 H22 F12 Mg1 N2 O4'
_chemical_name_systematic        
bis(1,1,1,5,5,5-Hexafluoro-2,4-pentanedionato-O,O')-(N,N-diethyl-N',N'-dimethylethylenediamine-N,N')-magnesium(ii)
_symmetry_cell_setting           monoclinic
_symmetry_space_group_name_H-M   'P 21/c'
_symmetry_Int_Tables_number      14
_space_group_name_Hall           '-P 2ybc'
loop_
_symmetry_equiv_pos_site_id
_symmetry_equiv_pos_as_xyz
1 x,y,z
2 -x,1/2+y,1/2-z
3 -x,-y,-z
4 x,1/2-y,1/2+z
_cell_length_a                   10.985(2)
_cell_length_b                   13.6047(18)
_cell_length_c                   16.897(3)
_cell_angle_alpha                90
_cell_angle_beta                 90.479(14)
_cell_angle_gamma                90
_cell_volume                     2525.13
_exptl_crystal_colour            colorless
_exptl_crystal_description       tabular
_chemical_melting_point          48-50deg.C
_cell_formula_units_Z            4
loop_
_atom_site_label
_atom_site_type_symbol
_atom_site_fract_x
_atom_site_fract_y
_atom_site_fract_z
Mg1 Mg 0.73583(8) 0.84309(8) 0.79515(6)
F1 F 1.0388(5) 0.7226(5) 0.6299(4)
F2 F 1.1375(5) 0.8436(5) 0.6791(3)
F3 F 1.0592(5) 0.8473(5) 0.5604(3)
F7 F 0.8003(6) 1.1697(4) 0.6983(4)
F8 F 0.8095(7) 1.1197(4) 0.5738(3)
F9 F 0.6370(5) 1.1128(4) 0.6372(4)
F16 F 0.5540(9) 0.7424(9) 0.5661(5)
F17 F 0.3749(11) 0.7969(8) 0.5907(6)
F18 F 0.4334(8) 0.6550(7) 0.6342(5)
F25 F 0.3854(2) 0.9870(2) 0.9020(2)
F26 F 0.25754(17) 0.8892(2) 0.85045(13)
F27 F 0.3715(2) 0.8388(2) 0.94236(13)
O1 O 0.88954(17) 0.81703(17) 0.73117(13)
O2 O 0.73121(19) 0.97649(17) 0.73537(13)
O3 O 0.63149(18) 0.78395(17) 0.70592(12)
O4 O 0.57423(18) 0.87242(16) 0.84848(12)
N1 N 0.7669(2) 0.7054(2) 0.86963(17)
N2 N 0.8338(3) 0.9123(2) 0.89612(16)
C1 C 0.9278(2) 0.8624(2) 0.67218(17)
C2 C 0.8842(3) 0.9492(3) 0.63955(18)
H1 H 0.9187 0.9737 0.5921
C3 C 0.7901(3) 1.0009(2) 0.67578(18)
C4 C 1.0416(3) 0.8166(3) 0.6354(2)
C5 C 0.7557(3) 1.1012(3) 0.6419(2)
C6 C 0.5190(2) 0.7914(2) 0.69542(17)
C7 C 0.4336(2) 0.8302(2) 0.74728(17)
H2 H 0.3503 0.8331 0.7319
C8 C 0.4693(2) 0.8645(2) 0.82104(16)
C9 C 0.4730(3) 0.7515(3) 0.6159(2)
C10 C 0.3699(3) 0.8961(3) 0.87926(19)
C11 C 0.8209(5) 0.7421(4) 0.9442(3)
H3 H 0.7537 0.7552 0.9813
H4 H 0.8707 0.6885 0.9673
C12 C 0.8926(8) 0.8252(7) 0.9411(5)
H5 H 0.9704 0.8082 0.9153
H6 H 0.9117 0.8464 0.9959
C14 C 0.8526(4) 0.6347(3) 0.8337(3)
H9 H 0.8708 0.5822 0.8727
H10 H 0.9298 0.6691 0.8222
C15 C 0.8053(6) 0.5880(4) 0.7585(3)
H11 H 0.7334 0.5482 0.7703
H12 H 0.8686 0.5460 0.7359
H13 H 0.7833 0.6395 0.7204
C16 C 0.6479(3) 0.6568(3) 0.8850(3)
H14 H 0.6091 0.6417 0.8333
H15 H 0.5948 0.7045 0.9123
C17 C 0.6511(4) 0.5625(4) 0.9337(3)
H16 H 0.6946 0.5114 0.9045
H17 H 0.5677 0.5406 0.9439
H18 H 0.6931 0.5750 0.9841
C18 C 0.7740(6) 1.0107(7) 0.9193(5)
H19 H 0.7833 1.0580 0.8761
H20 H 0.8136 1.0364 0.9672
H21 H 0.6873 1.0001 0.9294
C20 C 0.9473(7) 0.9665(10) 0.8680(6)
H25 H 0.9915 0.9931 0.9138
H26 H 0.9231 1.0205 0.8328
H27 H 0.9999 0.9208 0.8394
F4? F 1.1294(6) 0.8008(7) 0.6884(5)
F5? F 1.0914(6) 0.8692(6) 0.5766(4)
F6? F 1.0086(6) 0.7254(6) 0.6073(5)
F10? F 0.6450(12) 1.1358(9) 0.6630(7)
F11? F 0.8171(11) 1.1728(9) 0.6643(8)
F12? F 0.7517(13) 1.1053(8) 0.5600(6)
F13? F 0.7432(14) 1.1702(10) 0.6916(8)
F14? F 0.8419(12) 1.1463(11) 0.5983(9)
F15? F 0.6507(13) 1.0939(10) 0.6024(9)
F19? F 0.4483(9) 0.8256(6) 0.5644(4)
F20? F 0.3670(8) 0.7033(8) 0.6216(5)
F21? F 0.5547(9) 0.6942(9) 0.5775(6)
F22? F 0.5191(6) 0.8125(5) 0.5565(3)
F23? F 0.3536(6) 0.7540(7) 0.6049(4)
F24? F 0.5136(6) 0.6672(5) 0.5989(4)
C13? C 0.8015(7) 0.8460(5) 0.9628(4)
H7? H 0.8513 0.8636 1.0098
H8? H 0.7149 0.8561 0.9764
C19? C 0.7638(10) 0.9673(11) 0.9452(8)
H22? H 0.7188 1.0164 0.9142
H23? H 0.8161 1.0006 0.9841
H24? H 0.7062 0.9246 0.9728
C21? C 0.9578(10) 0.9223(13) 0.8868(8)
H28? H 0.9938 0.9494 0.9353
H29? H 0.9739 0.9668 0.8424
H30? H 0.9938 0.8579 0.8759
loop_
_geom_bond_atom_site_label_1
_geom_bond_atom_site_label_2
_geom_bond_site_symmetry_1
_geom_bond_site_symmetry_2
Mg1 O1 1_555 1_555
F1 C4 1_555 1_555
F2 C4 1_555 1_555
F3 C4 1_555 1_555
F7 C5 1_555 1_555
F8 C5 1_555 1_555
F9 C5 1_555 1_555
F16 C9 1_555 1_555
F17 C9 1_555 1_555
F18 C9 1_555 1_555
F25 C10 1_555 1_555
F26 C10 1_555 1_555
F27 C10 1_555 1_555
O1 C1 1_555 1_555
O2 Mg1 1_555 1_555
O3 Mg1 1_555 1_555
O4 Mg1 1_555 1_555
N1 Mg1 1_555 1_555
N2 Mg1 1_555 1_555
C1 C2 1_555 1_555
C2 H1 1_555 1_555
C3 O2 1_555 1_555
C4 C1 1_555 1_555
C5 C3 1_555 1_555
C6 O3 1_555 1_555
C7 C6 1_555 1_555
H2 C7 1_555 1_555
C8 O4 1_555 1_555
C9 C6 1_555 1_555
C10 C8 1_555 1_555
C11 N1 1_555 1_555
H3 C11 1_555 1_555
H4 C11 1_555 1_555
C12 N2 1_555 1_555
H5 C12 1_555 1_555
H6 C12 1_555 1_555
C14 N1 1_555 1_555
H9 C14 1_555 1_555
H10 C14 1_555 1_555
C15 C14 1_555 1_555
H11 C15 1_555 1_555
H12 C15 1_555 1_555
H13 C15 1_555 1_555
C16 N1 1_555 1_555
H14 C16 1_555 1_555
H15 C16 1_555 1_555
C17 C16 1_555 1_555
H16 C17 1_555 1_555
H17 C17 1_555 1_555
H18 C17 1_555 1_555
C18 N2 1_555 1_555
H19 C18 1_555 1_555
H20 C18 1_555 1_555
H21 C18 1_555 1_555
C20 N2 1_555 1_555
H25 C20 1_555 1_555
H26 C20 1_555 1_555
H27 C20 1_555 1_555
C2 C3 1_555 1_555
C7 C8 1_555 1_555
C11 C12 1_555 1_555

#END
