
#######################################################################
#
#                 Cambridge Crystallographic Data Centre
#                                CCDC 
#
#######################################################################
#
# If this CIF has been generated from an entry in the Cambridge 
# Structural Database, then it will include bibliographic, chemical, 
# crystal, experimental, refinement or atomic coordinate data resulting 
# from the CCDC's data processing and validation procedures.
#
#######################################################################

data_YEFJAX
_chemical_formula_moiety         'C74 H16 N2 O8'
_chemical_name_systematic        
'tetra-oxo-bis((4-methoxyphenyl)imino)-dihydroxy-open-cage-C60fullerene unknown solvate'
_symmetry_cell_setting           orthorhombic
_symmetry_space_group_name_H-M   'P m c n'
_symmetry_Int_Tables_number      62
_space_group_name_Hall           '-P 2n 2a'
loop_
_symmetry_equiv_pos_site_id
_symmetry_equiv_pos_as_xyz
1 x,y,z
2 1/2-x,1/2-y,1/2+z
3 1/2+x,-y,-z
4 -x,1/2+y,1/2-z
5 -x,-y,-z
6 1/2+x,1/2+y,1/2-z
7 1/2-x,y,z
8 x,1/2-y,1/2+z
_cell_length_a                   17.9805(10)
_cell_length_b                   38.864(3)
_cell_length_c                   15.2231(18)
_cell_angle_alpha                90
_cell_angle_beta                 90
_cell_angle_gamma                90
_cell_volume                     10637.8
_cell_formula_units_Z            8
_exptl_crystal_recrystallization_method 'carbon disulfide/hexane'
loop_
_atom_site_label
_atom_site_type_symbol
_atom_site_fract_x
_atom_site_fract_y
_atom_site_fract_z
C1 C 0.2500 0.6788(2) 0.1424(7)
C2 C 0.3156(3) 0.69478(13) 0.0959(5)
C3 C 0.3755(2) 0.67744(11) 0.0639(4)
C4 C 0.3856(2) 0.63900(13) 0.0623(5)
C5 C 0.4078(2) 0.63074(13) -0.0328(4)
C6 C 0.3866(2) 0.60406(12) -0.0884(4)
C7 C 0.3362(2) 0.57141(11) -0.0763(5)
C8 C 0.2866(2) 0.57464(11) -0.1572(4)
C9 C 0.3273(3) 0.59301(13) -0.2245(4)
C10 C 0.3881(2) 0.61088(12) -0.1793(5)
C11 C 0.4147(2) 0.64127(13) -0.2180(4)
C12 C 0.4371(2) 0.66877(13) -0.1612(4)
C13 C 0.4333(2) 0.66362(12) -0.0723(5)
C14 C 0.4119(2) 0.69065(13) -0.0153(4)
C15 C 0.3926(3) 0.72289(14) -0.0535(6)
C16 C 0.3273(3) 0.74041(13) -0.0150(4)
C17 C 0.2906(3) 0.72557(14) 0.0539(5)
C18 C 0.2899(3) 0.75638(13) -0.0891(5)
C19 C 0.3285(3) 0.74812(14) -0.1688(5)
C20 C 0.3944(3) 0.72731(14) -0.1440(6)
C21 C 0.4161(2) 0.70102(13) -0.1993(5)
C22 C 0.3776(3) 0.69377(13) -0.2810(5)
C23 C 0.3762(3) 0.65660(13) -0.2932(4)
C24 C 0.2912(3) 0.60810(15) -0.2956(5)
C25 C 0.3141(3) 0.64074(14) -0.3268(4)
C26 C 0.2500 0.6611(2) -0.3542(6)
C27 C 0.2500 0.6959(2) -0.3395(7)
C28 C 0.3144(3) 0.71342(14) -0.3014(5)
C29 C 0.2899(3) 0.74070(14) -0.2466(5)
C30 C 0.2875(2) 0.56790(11) 0.0044(4)
C31 C 0.3163(2) 0.55532(12) 0.0865(5)
C32 C 0.2500 0.5522(2) 0.1521(7)
C33 C 0.4175(3) 0.53049(13) 0.1727(5)
C34 C 0.4626(3) 0.50267(13) 0.1669(5)
H1 H 0.4670 0.4910 0.1122
C35 C 0.5021(4) 0.4909(2) 0.2372(8)
H2 H 0.5295 0.4701 0.2330
C36 C 0.5019(4) 0.5088(2) 0.3120(8)
C37 C 0.4571(3) 0.53845(18) 0.3248(6)
H3 H 0.4561 0.5508 0.3787
C38 C 0.4144(3) 0.54821(15) 0.2514(5)
H4 H 0.3825 0.5676 0.2561
C39 C 0.5874(7) 0.4803(5) 0.3890(15)
H5 H 0.5877 0.4694 0.3310
H6 H 0.5749 0.4632 0.4338
H7 H 0.6366 0.4900 0.4014
N1 N 0.38328(18) 0.54204(9) 0.0969(4)
O1 O 0.2500 0.65866(15) 0.2038(5)
O2 O 0.37059(18) 0.61898(9) 0.1186(3)
O3 O 0.38441(16) 0.54235(8) -0.0839(3)
H8 H 0.4011 0.5372 -0.0341
O4 O 0.2500 0.54625(19) 0.2279(6)
O5 O 0.5423(4) 0.5028(2) 0.3899(6)
C2F C 0.1844(3) 0.69478(13) 0.0959(5)
C3F C 0.1245(2) 0.67744(11) 0.0639(4)
C4F C 0.1144(2) 0.63900(13) 0.0623(5)
C5F C 0.0922(2) 0.63074(13) -0.0328(4)
C6F C 0.1134(2) 0.60406(12) -0.0884(4)
C7F C 0.1638(2) 0.57141(11) -0.0763(5)
C8F C 0.2134(2) 0.57464(11) -0.1572(4)
C9F C 0.1727(3) 0.59301(13) -0.2245(4)
C10F C 0.1119(2) 0.61088(12) -0.1793(5)
C11F C 0.0853(2) 0.64127(13) -0.2180(4)
C12F C 0.0629(2) 0.66877(13) -0.1612(4)
C13F C 0.0667(2) 0.66362(12) -0.0723(5)
C14F C 0.0881(2) 0.69065(13) -0.0153(4)
C15F C 0.1074(3) 0.72289(14) -0.0535(6)
C16F C 0.1727(3) 0.74041(13) -0.0150(4)
C17F C 0.2094(3) 0.72557(14) 0.0539(5)
C18F C 0.2101(3) 0.75638(13) -0.0891(5)
C19F C 0.1715(3) 0.74812(14) -0.1688(5)
C20F C 0.1056(3) 0.72731(14) -0.1440(6)
C21F C 0.0839(2) 0.70102(13) -0.1993(5)
C22F C 0.1224(3) 0.69377(13) -0.2810(5)
C23F C 0.1238(3) 0.65660(13) -0.2932(4)
C24F C 0.2088(3) 0.60810(15) -0.2956(5)
C25F C 0.1859(3) 0.64074(14) -0.3268(4)
C28F C 0.1856(3) 0.71342(14) -0.3014(5)
C29F C 0.2101(3) 0.74070(14) -0.2466(5)
C30F C 0.2125(2) 0.56790(11) 0.0044(4)
C31F C 0.1837(2) 0.55532(12) 0.0865(5)
C33F C 0.0825(3) 0.53049(13) 0.1727(5)
C34F C 0.0374(3) 0.50267(13) 0.1669(5)
H1F H 0.0330 0.4910 0.1122
C35F C -0.0021(4) 0.4909(2) 0.2372(8)
H2F H -0.0295 0.4701 0.2330
C36F C -0.0019(4) 0.5088(2) 0.3120(8)
C37F C 0.0429(3) 0.53845(18) 0.3248(6)
H3F H 0.0439 0.5508 0.3787
C38F C 0.0856(3) 0.54821(15) 0.2514(5)
H4F H 0.1175 0.5676 0.2561
C39F C -0.0874(7) 0.4803(5) 0.3890(15)
H5F H -0.0877 0.4694 0.3310
H6F H -0.0749 0.4632 0.4338
H7F H -0.1366 0.4900 0.4014
N1F N 0.11672(18) 0.54204(9) 0.0969(4)
O2F O 0.12941(18) 0.61898(9) 0.1186(3)
O3F O 0.11559(16) 0.54235(8) -0.0839(3)
H8F H 0.0989 0.5372 -0.0341
O5F O -0.0423(4) 0.5028(2) 0.3899(6)
C40 C 0.7500 0.7067(2) 1.1473(7)
C41 C 0.6840(3) 0.68703(13) 1.1814(5)
C42 C 0.6250(3) 0.67532(14) 1.1306(5)
C43 C 0.6139(3) 0.67817(14) 1.0327(6)
C44 C 0.5915(2) 0.64284(13) 1.0000(4)
C45 C 0.6151(2) 0.62464(12) 0.9272(4)
C46 C 0.6630(2) 0.63378(12) 0.8466(5)
C47 C 0.7118(2) 0.60204(13) 0.8448(4)
C48 C 0.6733(2) 0.57363(12) 0.8853(4)
C49 C 0.6112(2) 0.58755(12) 0.9309(4)
C50 C 0.5857(2) 0.57026(12) 1.0052(5)
C51 C 0.5629(2) 0.58902(12) 1.0828(5)
C52 C 0.5677(2) 0.62497(13) 1.0785(5)
C53 C 0.5892(3) 0.64370(14) 1.1571(5)
C54 C 0.6080(3) 0.62607(14) 1.2331(5)
C55 C 0.6715(3) 0.63752(14) 1.2811(5)
C56 C 0.7095(3) 0.66656(14) 1.2501(5)
C57 C 0.7123(2) 0.60780(13) 1.3123(4)
C58 C 0.6723(3) 0.57793(13) 1.2817(5)
C59 C 0.6070(3) 0.58880(13) 1.2338(5)
C60 C 0.5838(2) 0.57096(13) 1.1600(5)
C61 C 0.6228(3) 0.54046(13) 1.1329(5)
C62 C 0.6232(2) 0.53976(12) 1.0395(5)
C63 C 0.6851(3) 0.52741(12) 0.9929(5)
C64 C 0.7095(2) 0.54489(13) 0.9135(4)
C65 C 0.7500 0.51653(17) 1.0418(7)
C66 C 0.7500 0.51742(16) 1.1304(6)
C67 C 0.6857(3) 0.53007(12) 1.1797(5)
C68 C 0.7112(3) 0.54789(14) 1.2557(5)
C69 C 0.7120(2) 0.66509(12) 0.8439(4)
C70 C 0.6834(2) 0.69996(12) 0.8242(5)
C71 C 0.7500 0.72377(18) 0.8227(7)
C72 C 0.5841(3) 0.73659(14) 0.7797(5)
C73 C 0.5813(3) 0.76131(13) 0.8422(5)
H9 H 0.6108 0.7589 0.8935
C74 C 0.5363(2) 0.79004(13) 0.8330(5)
H10 H 0.5337 0.8067 0.8785
C75 C 0.4956(3) 0.79420(14) 0.7579(6)
C76 C 0.4996(2) 0.76978(13) 0.6881(4)
H11 H 0.4732 0.7734 0.6348
C77 C 0.5432(2) 0.74026(13) 0.6998(5)
H12 H 0.5455 0.7231 0.6555
C78 C 0.4303(3) 0.84391(15) 0.8072(5)
H13 H 0.4117 0.8311 0.8582
H14 H 0.3921 0.8601 0.7871
H15 H 0.4752 0.8566 0.8238
N2 N 0.6184(2) 0.70413(10) 0.7934(4)
O6 O 0.7500 0.73217(14) 1.1001(5)
O7 O 0.62758(19) 0.70408(10) 0.9901(3)
O8 O 0.61698(18) 0.63421(9) 0.7696(3)
H16 H 0.5918 0.6524 0.7687
O9 O 0.7500 0.75498(13) 0.8194(5)
O10 O 0.44733(18) 0.82080(9) 0.7394(3)
C41F C 0.8160(3) 0.68703(13) 1.1814(5)
C42F C 0.8750(3) 0.67532(14) 1.1306(5)
C43F C 0.8861(3) 0.67817(14) 1.0327(6)
C44F C 0.9085(2) 0.64284(13) 1.0000(4)
C45F C 0.8849(2) 0.62464(12) 0.9272(4)
C46F C 0.8370(2) 0.63378(12) 0.8466(5)
C47F C 0.7882(2) 0.60204(13) 0.8448(4)
C48F C 0.8267(2) 0.57363(12) 0.8853(4)
C49F C 0.8888(2) 0.58755(12) 0.9309(4)
C50F C 0.9143(2) 0.57026(12) 1.0052(5)
C51F C 0.9371(2) 0.58902(12) 1.0828(5)
C52F C 0.9323(2) 0.62497(13) 1.0785(5)
C53F C 0.9108(3) 0.64370(14) 1.1571(5)
C54F C 0.8920(3) 0.62607(14) 1.2331(5)
C55F C 0.8285(3) 0.63752(14) 1.2811(5)
C56F C 0.7905(3) 0.66656(14) 1.2501(5)
C57F C 0.7877(2) 0.60780(13) 1.3123(4)
C58F C 0.8277(3) 0.57793(13) 1.2817(5)
C59F C 0.8930(3) 0.58880(13) 1.2338(5)
C60F C 0.9162(2) 0.57096(13) 1.1600(5)
C61F C 0.8772(3) 0.54046(13) 1.1329(5)
C62F C 0.8768(2) 0.53976(12) 1.0395(5)
C63F C 0.8149(3) 0.52741(12) 0.9929(5)
C64F C 0.7905(2) 0.54489(13) 0.9135(4)
C67F C 0.8143(3) 0.53007(12) 1.1797(5)
C68F C 0.7888(3) 0.54789(14) 1.2557(5)
C69F C 0.7880(2) 0.66509(12) 0.8439(4)
C70F C 0.8166(2) 0.69996(12) 0.8242(5)
C72F C 0.9159(3) 0.73659(14) 0.7797(5)
C73F C 0.9187(3) 0.76131(13) 0.8422(5)
H9F H 0.8892 0.7589 0.8935
C74F C 0.9637(2) 0.79004(13) 0.8330(5)
H10F H 0.9663 0.8067 0.8785
C75F C 1.0044(3) 0.79420(14) 0.7579(6)
C76F C 1.0004(2) 0.76978(13) 0.6881(4)
H11F H 1.0268 0.7734 0.6348
C77F C 0.9568(2) 0.74026(13) 0.6998(5)
H12F H 0.9545 0.7231 0.6555
C78F C 1.0697(3) 0.84391(15) 0.8072(5)
H13F H 1.0883 0.8311 0.8582
H14F H 1.1079 0.8601 0.7871
H15F H 1.0248 0.8566 0.8238
N2F N 0.8816(2) 0.70413(10) 0.7934(4)
O7F O 0.87242(19) 0.70408(10) 0.9901(3)
O8F O 0.88302(18) 0.63421(9) 0.7696(3)
H16F H 0.9082 0.6524 0.7687
O10F O 1.05267(18) 0.82080(9) 0.7394(3)
loop_
_geom_bond_atom_site_label_1
_geom_bond_atom_site_label_2
_geom_bond_site_symmetry_1
_geom_bond_site_symmetry_2
C1 C2 1_555 1_555
C2 C3 1_555 1_555
C3 C4 1_555 1_555
C4 C5 1_555 1_555
C5 C6 1_555 1_555
C6 C7 1_555 1_555
C7 C8 1_555 1_555
C8 C9 1_555 1_555
C9 C10 1_555 1_555
C10 C6 1_555 1_555
C11 C10 1_555 1_555
C12 C11 1_555 1_555
C13 C5 1_555 1_555
C14 C3 1_555 1_555
C15 C14 1_555 1_555
C16 C15 1_555 1_555
C17 C2 1_555 1_555
C18 C16 1_555 1_555
C19 C18 1_555 1_555
C20 C15 1_555 1_555
C21 C12 1_555 1_555
C22 C21 1_555 1_555
C23 C11 1_555 1_555
C24 C9 1_555 1_555
C25 C23 1_555 1_555
C26 C25 1_555 1_555
C27 C26 1_555 1_555
C28 C22 1_555 1_555
C29 C19 1_555 1_555
C30 C7 1_555 1_555
C31 C30 1_555 1_555
C32 C31 1_555 1_555
C33 C34 1_555 1_555
C34 H1 1_555 1_555
C35 C34 1_555 1_555
H2 C35 1_555 1_555
C36 C35 1_555 1_555
C37 C36 1_555 1_555
H3 C37 1_555 1_555
C38 C33 1_555 1_555
H4 C38 1_555 1_555
C39 H5 1_555 1_555
H6 C39 1_555 1_555
H7 C39 1_555 1_555
N1 C31 1_555 1_555
O1 C1 1_555 1_555
O2 C4 1_555 1_555
O3 C7 1_555 1_555
H8 O3 1_555 1_555
O4 C32 1_555 1_555
O5 C36 1_555 1_555
C40 C41 1_555 1_555
C41 C42 1_555 1_555
C42 C43 1_555 1_555
C43 C44 1_555 1_555
C44 C45 1_555 1_555
C45 C46 1_555 1_555
C46 C47 1_555 1_555
C47 C48 1_555 1_555
C48 C49 1_555 1_555
C49 C45 1_555 1_555
C50 C49 1_555 1_555
C51 C50 1_555 1_555
C52 C44 1_555 1_555
C53 C42 1_555 1_555
C54 C53 1_555 1_555
C55 C54 1_555 1_555
C56 C41 1_555 1_555
C57 C55 1_555 1_555
C58 C57 1_555 1_555
C59 C54 1_555 1_555
C60 C51 1_555 1_555
C61 C60 1_555 1_555
C62 C50 1_555 1_555
C63 C62 1_555 1_555
C64 C48 1_555 1_555
C65 C63 1_555 1_555
C66 C65 1_555 1_555
C67 C61 1_555 1_555
C68 C58 1_555 1_555
C69 C46 1_555 1_555
C70 C69 1_555 1_555
C71 C70 1_555 1_555
C72 C73 1_555 1_555
C73 H9 1_555 1_555
C74 C73 1_555 1_555
H10 C74 1_555 1_555
C75 C74 1_555 1_555
C76 C75 1_555 1_555
H11 C76 1_555 1_555
C77 C72 1_555 1_555
H12 C77 1_555 1_555
C78 H13 1_555 1_555
H14 C78 1_555 1_555
H15 C78 1_555 1_555
N2 C70 1_555 1_555
O6 C40 1_555 1_555
O7 C43 1_555 1_555
O8 C46 1_555 1_555
H16 O8 1_555 1_555
O9 C71 1_555 1_555
O10 C75 1_555 1_555
C2F C1 1_555 1_555
C3F C2F 1_555 1_555
C4F C3F 1_555 1_555
C5F C4F 1_555 1_555
C6F C5F 1_555 1_555
C7F C6F 1_555 1_555
C8F C8 1_555 1_555
C9F C8F 1_555 1_555
C10F C6F 1_555 1_555
C11F C10F 1_555 1_555
C12F C11F 1_555 1_555
C13F C5F 1_555 1_555
C14F C3F 1_555 1_555
C15F C14F 1_555 1_555
C16F C15F 1_555 1_555
C17F C17 1_555 1_555
C18F C18 1_555 1_555
C19F C18F 1_555 1_555
C20F C15F 1_555 1_555
C21F C12F 1_555 1_555
C22F C21F 1_555 1_555
C23F C11F 1_555 1_555
C24F C24 1_555 1_555
C25F C26 1_555 1_555
C28F C27 1_555 1_555
C29F C29 1_555 1_555
C30F C30 1_555 1_555
C31F C32 1_555 1_555
C33F C34F 1_555 1_555
C34F H1F 1_555 1_555
C35F C34F 1_555 1_555
H2F C35F 1_555 1_555
C36F C35F 1_555 1_555
C37F C36F 1_555 1_555
H3F C37F 1_555 1_555
C38F C33F 1_555 1_555
H4F C38F 1_555 1_555
C39F H5F 1_555 1_555
H6F C39F 1_555 1_555
H7F C39F 1_555 1_555
N1F C31F 1_555 1_555
O2F C4F 1_555 1_555
O3F C7F 1_555 1_555
H8F O3F 1_555 1_555
O5F C36F 1_555 1_555
C41F C40 1_555 1_555
C42F C41F 1_555 1_555
C43F C42F 1_555 1_555
C44F C43F 1_555 1_555
C45F C44F 1_555 1_555
C46F C45F 1_555 1_555
C47F C47 1_555 1_555
C48F C47F 1_555 1_555
C49F C45F 1_555 1_555
C50F C49F 1_555 1_555
C51F C50F 1_555 1_555
C52F C44F 1_555 1_555
C53F C42F 1_555 1_555
C54F C53F 1_555 1_555
C55F C54F 1_555 1_555
C56F C56 1_555 1_555
C57F C57 1_555 1_555
C58F C57F 1_555 1_555
C59F C54F 1_555 1_555
C60F C51F 1_555 1_555
C61F C60F 1_555 1_555
C62F C50F 1_555 1_555
C63F C65 1_555 1_555
C64F C64 1_555 1_555
C67F C66 1_555 1_555
C68F C68 1_555 1_555
C69F C69 1_555 1_555
C70F C71 1_555 1_555
C72F C73F 1_555 1_555
C73F H9F 1_555 1_555
C74F C73F 1_555 1_555
H10F C74F 1_555 1_555
C75F C74F 1_555 1_555
C76F C75F 1_555 1_555
H11F C76F 1_555 1_555
C77F C72F 1_555 1_555
H12F C77F 1_555 1_555
C78F H13F 1_555 1_555
H14F C78F 1_555 1_555
H15F C78F 1_555 1_555
N2F C70F 1_555 1_555
O7F C43F 1_555 1_555
O8F C46F 1_555 1_555
H16F O8F 1_555 1_555
O10F C75F 1_555 1_555
C12 C13 1_555 1_555
C13 C14 1_555 1_555
C16 C17 1_555 1_555
C19 C20 1_555 1_555
C20 C21 1_555 1_555
C22 C23 1_555 1_555
C24 C25 1_555 1_555
C27 C28 1_555 1_555
C28 C29 1_555 1_555
C33 N1 1_555 1_555
C37 C38 1_555 1_555
C39 O5 1_555 1_555
C51 C52 1_555 1_555
C52 C53 1_555 1_555
C55 C56 1_555 1_555
C58 C59 1_555 1_555
C59 C60 1_555 1_555
C61 C62 1_555 1_555
C63 C64 1_555 1_555
C66 C67 1_555 1_555
C67 C68 1_555 1_555
C72 N2 1_555 1_555
C76 C77 1_555 1_555
C78 O10 1_555 1_555
C2F C17F 1_555 1_555
C7F C8F 1_555 1_555
C7F C30F 1_555 1_555
C9F C10F 1_555 1_555
C9F C24F 1_555 1_555
C12F C13F 1_555 1_555
C13F C14F 1_555 1_555
C16F C17F 1_555 1_555
C16F C18F 1_555 1_555
C19F C20F 1_555 1_555
C19F C29F 1_555 1_555
C20F C21F 1_555 1_555
C22F C23F 1_555 1_555
C22F C28F 1_555 1_555
C23F C25F 1_555 1_555
C24F C25F 1_555 1_555
C28F C29F 1_555 1_555
C30F C31F 1_555 1_555
C33F N1F 1_555 1_555
C37F C38F 1_555 1_555
C39F O5F 1_555 1_555
C41F C56F 1_555 1_555
C46F C47F 1_555 1_555
C46F C69F 1_555 1_555
C48F C49F 1_555 1_555
C48F C64F 1_555 1_555
C51F C52F 1_555 1_555
C52F C53F 1_555 1_555
C55F C56F 1_555 1_555
C55F C57F 1_555 1_555
C58F C59F 1_555 1_555
C58F C68F 1_555 1_555
C59F C60F 1_555 1_555
C61F C62F 1_555 1_555
C61F C67F 1_555 1_555
C62F C63F 1_555 1_555
C63F C64F 1_555 1_555
C67F C68F 1_555 1_555
C69F C70F 1_555 1_555
C72F N2F 1_555 1_555
C76F C77F 1_555 1_555
C78F O10F 1_555 1_555

#END
