
#######################################################################
#
#                 Cambridge Crystallographic Data Centre
#                                CCDC 
#
#######################################################################
#
# If this CIF has been generated from an entry in the Cambridge 
# Structural Database, then it will include bibliographic, chemical, 
# crystal, experimental, refinement or atomic coordinate data resulting 
# from the CCDC's data processing and validation procedures.
#
#######################################################################

data_YEFSOT
_chemical_formula_moiety         'C19 H20 Cl1 N1 O5'
_chemical_name_systematic        
'Methyl 4-(4-chlorophenyl)-3-(4-methoxyphenyl)-5-nitropentanoate'
_symmetry_cell_setting           orthorhombic
_symmetry_space_group_name_H-M   'P 21 21 21'
_symmetry_Int_Tables_number      19
_space_group_name_Hall           'P 2ac 2ab'
loop_
_symmetry_equiv_pos_site_id
_symmetry_equiv_pos_as_xyz
1 x,y,z
2 1/2-x,-y,1/2+z
3 -x,1/2+y,1/2-z
4 1/2+x,1/2-y,-z
_cell_length_a                   5.6919(2)
_cell_length_b                   10.6547(4)
_cell_length_c                   30.5750(12)
_cell_angle_alpha                90
_cell_angle_beta                 90
_cell_angle_gamma                90
_cell_volume                     1854.24
_exptl_crystal_colour            colorless
_exptl_crystal_description       needle
_cell_formula_units_Z            4
loop_
_atom_site_label
_atom_site_type_symbol
_atom_site_fract_x
_atom_site_fract_y
_atom_site_fract_z
C1 C 0.0644(3) 0.21227(14) 0.94019(5)
H1 H 0.0548 0.1288 0.9543
H2 H 0.2168 0.2506 0.9482
C2 C 0.0505(3) 0.19727(15) 0.89052(5)
H3 H -0.1027 0.1566 0.8831
C3 C 0.0628(3) 0.32281(15) 0.86737(5)
C4 C 0.2542(3) 0.40356(15) 0.87368(5)
H4 H 0.3742 0.3812 0.8938
C5 C 0.2705(3) 0.51572(16) 0.85087(6)
H5 H 0.4004 0.5702 0.8554
C6 C 0.0952(3) 0.54723(16) 0.82153(5)
C7 C -0.0984(3) 0.47031(17) 0.81512(6)
H6 H -0.2190 0.4936 0.7952
C8 C -0.1122(3) 0.35908(16) 0.83822(5)
H7 H -0.2445 0.3060 0.8341
C9 C 0.2525(3) 0.10887(14) 0.87583(5)
H8 H 0.4047 0.1495 0.8840
C10 C 0.2484(3) 0.09325(15) 0.82566(5)
H9 H 0.1065 0.0457 0.8170
H10 H 0.2411 0.1769 0.8116
C11 C 0.4638(3) 0.02505(16) 0.81027(5)
C12 C 0.6131(4) -0.1302(2) 0.76360(7)
H11 H 0.7402 -0.0737 0.7547
H12 H 0.5651 -0.1818 0.7386
H13 H 0.6682 -0.1847 0.7873
C13 C 0.2429(3) -0.01868(14) 0.89812(5)
C14 C 0.4241(3) -0.05836(15) 0.92544(5)
H14 H 0.5517 -0.0033 0.9311
C15 C 0.4227(3) -0.17699(15) 0.94471(5)
H15 H 0.5481 -0.2022 0.9633
C16 C 0.2373(3) -0.25776(15) 0.93658(5)
C17 C 0.4165(4) -0.42771(16) 0.97516(6)
H16 H 0.5528 -0.4248 0.9556
H17 H 0.3842 -0.5150 0.9833
H18 H 0.4498 -0.3787 1.0016
C18 C 0.0527(3) -0.21910(15) 0.90988(5)
H19 H -0.0760 -0.2739 0.9047
C19 C 0.0561(3) -0.10146(15) 0.89091(5)
H20 H -0.0705 -0.0763 0.8727
Cl1 Cl 0.12200(9) 0.68518(4) 0.791401(17)
N1 N -0.1332(2) 0.29379(12) 0.95629(4)
O1 O -0.0858(2) 0.38506(12) 0.97835(4)
O2 O -0.3341(2) 0.26264(12) 0.94668(4)
O3 O 0.6593(2) 0.04243(14) 0.82392(4)
O4 O 0.4149(2) -0.05702(11) 0.77870(4)
O5 O 0.2176(2) -0.37646(11) 0.95348(4)
loop_
_geom_bond_atom_site_label_1
_geom_bond_atom_site_label_2
_geom_bond_site_symmetry_1
_geom_bond_site_symmetry_2
C1 H1 1_555 1_555
H2 C1 1_555 1_555
C2 C1 1_555 1_555
H3 C2 1_555 1_555
C3 C2 1_555 1_555
C4 C3 1_555 1_555
H4 C4 1_555 1_555
C5 C4 1_555 1_555
H5 C5 1_555 1_555
C6 C5 1_555 1_555
C7 C6 1_555 1_555
H6 C7 1_555 1_555
C8 C3 1_555 1_555
H7 C8 1_555 1_555
C9 C2 1_555 1_555
H8 C9 1_555 1_555
C10 C9 1_555 1_555
H9 C10 1_555 1_555
H10 C10 1_555 1_555
C11 C10 1_555 1_555
C12 H11 1_555 1_555
H12 C12 1_555 1_555
H13 C12 1_555 1_555
C13 C9 1_555 1_555
C14 C13 1_555 1_555
H14 C14 1_555 1_555
C15 C14 1_555 1_555
H15 C15 1_555 1_555
C16 C15 1_555 1_555
C17 H16 1_555 1_555
H17 C17 1_555 1_555
H18 C17 1_555 1_555
C18 C16 1_555 1_555
H19 C18 1_555 1_555
C19 C13 1_555 1_555
H20 C19 1_555 1_555
Cl1 C6 1_555 1_555
N1 C1 1_555 1_555
O1 N1 1_555 1_555
O2 N1 1_555 1_555
O3 C11 1_555 1_555
O4 C11 1_555 1_555
O5 C16 1_555 1_555
C7 C8 1_555 1_555
C12 O4 1_555 1_555
C17 O5 1_555 1_555
C18 C19 1_555 1_555

#END
