
#######################################################################
#
#                 Cambridge Crystallographic Data Centre
#                                CCDC 
#
#######################################################################
#
# If this CIF has been generated from an entry in the Cambridge 
# Structural Database, then it will include bibliographic, chemical, 
# crystal, experimental, refinement or atomic coordinate data resulting 
# from the CCDC's data processing and validation procedures.
#
#######################################################################

data_YEHDIB
_chemical_formula_moiety         'C17 H15 N1 O3 S1'
_chemical_name_systematic        
'methyl (4-oxo-3-phenyl-3,4-dihydro-2H-1,3-benzothiazin-2-yl)acetate'
_symmetry_cell_setting           monoclinic
_symmetry_space_group_name_H-M   'P 21/c'
_symmetry_Int_Tables_number      14
_space_group_name_Hall           '-P 2ybc'
loop_
_symmetry_equiv_pos_site_id
_symmetry_equiv_pos_as_xyz
1 x,y,z
2 -x,1/2+y,1/2-z
3 -x,-y,-z
4 x,1/2-y,1/2+z
_cell_length_a                   15.0717(8)
_cell_length_b                   10.5131(5)
_cell_length_c                   9.6899(5)
_cell_angle_alpha                90
_cell_angle_beta                 99.871(5)
_cell_angle_gamma                90
_cell_volume                     1512.64
_exptl_crystal_colour            colorless
_exptl_crystal_description       block
_cell_formula_units_Z            4
loop_
_atom_site_label
_atom_site_type_symbol
_atom_site_fract_x
_atom_site_fract_y
_atom_site_fract_z
S1 S 0.37054(4) 0.67235(6) 0.04994(6)
O1 O 0.29118(10) 0.36525(15) -0.24421(16)
O2 O 0.17991(12) 0.87847(16) 0.02693(17)
O3 O 0.23383(11) 0.97387(16) -0.14785(15)
N1 N 0.24782(12) 0.51831(17) -0.10623(18)
C1 C 0.30688(15) 0.4676(2) -0.1832(2)
C2 C 0.39233(15) 0.5373(2) -0.1865(2)
C3 C 0.44117(15) 0.5045(2) -0.2908(2)
H1 H 0.4174 0.4457 -0.3590
C4 C 0.52459(17) 0.5580(2) -0.2946(3)
H2 H 0.5565 0.5354 -0.3650
C5 C 0.56036(17) 0.6451(2) -0.1936(3)
H3 H 0.6167 0.6804 -0.1953
C6 C 0.51256(16) 0.6801(2) -0.0898(3)
H4 H 0.5370 0.7388 -0.0220
C7 C 0.42810(16) 0.6278(2) -0.0864(2)
C8 C 0.25816(15) 0.6457(2) -0.0441(2)
H5 H 0.2179 0.6498 0.0252
C9 C 0.22828(16) 0.7504(2) -0.1503(2)
H6 H 0.2743 0.7634 -0.2077
H7 H 0.1734 0.7245 -0.2113
C10 C 0.21206(15) 0.8730(2) -0.0788(2)
C11 C 0.2128(2) 1.0968(2) -0.0921(3)
H8 H 0.2358 1.1635 -0.1438
H9 H 0.2402 1.1024 0.0048
H10 H 0.1487 1.1056 -0.1004
C12 C 0.16467(15) 0.4539(2) -0.0998(2)
C13 C 0.09532(16) 0.4561(3) -0.2127(2)
H11 H 0.1026 0.4974 -0.2950
C14 C 0.01466(18) 0.3965(3) -0.2028(3)
H12 H -0.0324 0.3981 -0.2787
C15 C 0.00358(18) 0.3349(3) -0.0812(3)
H13 H -0.0506 0.2947 -0.0751
C16 C 0.0733(2) 0.3332(3) 0.0309(3)
H14 H 0.0659 0.2926 0.1134
C17 C 0.15442(18) 0.3919(2) 0.0216(2)
H15 H 0.2017 0.3893 0.0971
loop_
_geom_bond_atom_site_label_1
_geom_bond_atom_site_label_2
_geom_bond_site_symmetry_1
_geom_bond_site_symmetry_2
S1 C7 1_555 1_555
O1 C1 1_555 1_555
O2 C10 1_555 1_555
O3 C10 1_555 1_555
N1 C1 1_555 1_555
C1 C2 1_555 1_555
C2 C3 1_555 1_555
C3 H1 1_555 1_555
C4 C3 1_555 1_555
H2 C4 1_555 1_555
C5 C4 1_555 1_555
H3 C5 1_555 1_555
C6 C5 1_555 1_555
H4 C6 1_555 1_555
C7 C2 1_555 1_555
C8 S1 1_555 1_555
H5 C8 1_555 1_555
C9 C8 1_555 1_555
H6 C9 1_555 1_555
H7 C9 1_555 1_555
C10 C9 1_555 1_555
C11 O3 1_555 1_555
H8 C11 1_555 1_555
H9 C11 1_555 1_555
H10 C11 1_555 1_555
C12 N1 1_555 1_555
C13 C12 1_555 1_555
H11 C13 1_555 1_555
C14 C13 1_555 1_555
H12 C14 1_555 1_555
C15 C14 1_555 1_555
H13 C15 1_555 1_555
C16 C15 1_555 1_555
H14 C16 1_555 1_555
C17 C12 1_555 1_555
H15 C17 1_555 1_555
N1 C8 1_555 1_555
C6 C7 1_555 1_555
C16 C17 1_555 1_555

#END
