
#######################################################################
#
#                 Cambridge Crystallographic Data Centre
#                                CCDC 
#
#######################################################################
#
# If this CIF has been generated from an entry in the Cambridge 
# Structural Database, then it will include bibliographic, chemical, 
# crystal, experimental, refinement or atomic coordinate data resulting 
# from the CCDC's data processing and validation procedures.
#
#######################################################################

data_YEHFID
_chemical_formula_moiety         'C21 H23 N1 O4'
_chemical_name_systematic        
'[2-(4-methoxyphenoxy)-1-phenylcyclopropyl](morpholin-4-yl)methanone'
_symmetry_cell_setting           triclinic
_symmetry_space_group_name_H-M   'P -1'
_symmetry_Int_Tables_number      2
_space_group_name_Hall           '-P 1'
loop_
_symmetry_equiv_pos_site_id
_symmetry_equiv_pos_as_xyz
1 x,y,z
2 -x,-y,-z
_cell_length_a                   9.4667(5)
_cell_length_b                   10.5554(6)
_cell_length_c                   10.6002(6)
_cell_angle_alpha                62.334(6)
_cell_angle_beta                 83.248(5)
_cell_angle_gamma                79.062(5)
_cell_volume                     920.549
_exptl_crystal_colour            colorless
_exptl_crystal_description       prism
_cell_formula_units_Z            2
loop_
_atom_site_label
_atom_site_type_symbol
_atom_site_fract_x
_atom_site_fract_y
_atom_site_fract_z
O1 O 0.50719(11) 0.37066(11) 0.71697(13)
O2 O 0.59815(14) -0.11479(13) 0.67112(12)
O3 O 0.06189(12) 0.69528(13) 0.87345(14)
O4 O 0.73526(14) 0.06830(14) 0.97568(11)
N1 N 0.66059(15) 0.05965(13) 0.78717(12)
C1 C 0.71619(15) 0.12574(16) 0.84750(14)
C2 C 0.40421(15) 0.46050(14) 0.75422(15)
C3 C 0.27572(16) 0.40833(15) 0.80958(15)
H1 H 0.264290 0.318441 0.819744
C4 C 0.90519(15) 0.26346(15) 0.67265(15)
C5 C 0.18011(16) 0.62335(15) 0.83298(15)
C6 C 0.76298(15) 0.27223(15) 0.75068(15)
C7 C 1.02723(16) 0.19086(16) 0.75209(16)
H2 H 1.019492 0.150654 0.850979
C8 C 0.30799(16) 0.67593(15) 0.77772(16)
H3 H 0.318930 0.766229 0.766818
C9 C 0.16506(16) 0.48822(16) 0.84958(16)
H4 H 0.079568 0.451645 0.887996
C10 C 0.42070(16) 0.59430(15) 0.73822(16)
H5 H 0.506886 0.629863 0.701135
C11 C 0.64862(16) 0.40276(16) 0.68886(17)
H6 H 0.669857 0.480852 0.595289
C12 C 0.61815(19) 0.12343(17) 0.63951(15)
H7 H 0.665762 0.206958 0.581480
H8 H 0.514996 0.155369 0.634059
C13 C 0.91903(18) 0.3218(2) 0.52630(17)
H9 H 0.838321 0.370545 0.471357
C14 C 1.16004(17) 0.17754(18) 0.68617(19)
H10 H 1.241030 0.128490 0.740614
C15 C 0.73079(17) 0.37969(18) 0.81131(18)
H11 H 0.681024 0.349929 0.903647
H12 H 0.800990 0.442918 0.792655
C16 C 1.17253(18) 0.23678(19) 0.54004(19)
H13 H 1.261958 0.228492 0.495339
C17 C 0.6590(2) 0.01341(19) 0.58444(17)
H14 H 0.626293 0.054709 0.487972
H15 H 0.763022 -0.010905 0.581451
C18 C 0.6064(2) -0.07765(18) 0.87702(17)
H16 H 0.502403 -0.059448 0.887309
H17 H 0.645832 -0.121477 0.971074
C19 C 0.0628(2) 0.84324(19) 0.8357(2)
H18 H 0.075608 0.896475 0.734166
H19 H 0.140364 0.850662 0.881417
H20 H -0.026974 0.882442 0.865862
C20 C 0.6481(2) -0.17894(19) 0.81212(19)
H21 H 0.752044 -0.204282 0.810284
H22 H 0.607487 -0.267150 0.870004
C21 C 1.0525(2) 0.3082(2) 0.46051(19)
H23 H 1.060674 0.347748 0.361678
loop_
_geom_bond_atom_site_label_1
_geom_bond_atom_site_label_2
_geom_bond_site_symmetry_1
_geom_bond_site_symmetry_2
O1 C2 1_555 1_555
O2 C17 1_555 1_555
O3 C5 1_555 1_555
O4 C1 1_555 1_555
N1 C1 1_555 1_555
C1 C6 1_555 1_555
C2 C3 1_555 1_555
C3 H1 1_555 1_555
C4 C6 1_555 1_555
C5 C8 1_555 1_555
C6 C11 1_555 1_555
C7 C4 1_555 1_555
H2 C7 1_555 1_555
C8 H3 1_555 1_555
C9 C3 1_555 1_555
H4 C9 1_555 1_555
C10 C2 1_555 1_555
H5 C10 1_555 1_555
C11 O1 1_555 1_555
H6 C11 1_555 1_555
C12 N1 1_555 1_555
H7 C12 1_555 1_555
H8 C12 1_555 1_555
C13 C4 1_555 1_555
H9 C13 1_555 1_555
C14 C7 1_555 1_555
H10 C14 1_555 1_555
C15 C6 1_555 1_555
H11 C15 1_555 1_555
H12 C15 1_555 1_555
C16 C14 1_555 1_555
H13 C16 1_555 1_555
C17 C12 1_555 1_555
H14 C17 1_555 1_555
H15 C17 1_555 1_555
C18 N1 1_555 1_555
H16 C18 1_555 1_555
H17 C18 1_555 1_555
C19 O3 1_555 1_555
H18 C19 1_555 1_555
H19 C19 1_555 1_555
H20 C19 1_555 1_555
C20 O2 1_555 1_555
H21 C20 1_555 1_555
H22 C20 1_555 1_555
C21 C13 1_555 1_555
H23 C21 1_555 1_555
C5 C9 1_555 1_555
C8 C10 1_555 1_555
C11 C15 1_555 1_555
C16 C21 1_555 1_555
C18 C20 1_555 1_555

#END
