
#######################################################################
#
#                 Cambridge Crystallographic Data Centre
#                                CCDC 
#
#######################################################################
#
# If this CIF has been generated from an entry in the Cambridge 
# Structural Database, then it will include bibliographic, chemical, 
# crystal, experimental, refinement or atomic coordinate data resulting 
# from the CCDC's data processing and validation procedures.
#
#######################################################################

data_YEHFEW
_chemical_formula_moiety         'C13 H17 Cl2 N2 O2 P1 S1'
_chemical_name_systematic        
2-Diethylamino-3-(2',4'-dichlorobenzoyl)-2-thione-1,3,2-oxazaphospholidine
_symmetry_cell_setting           monoclinic
_symmetry_space_group_name_H-M   'P 21/c'
_symmetry_Int_Tables_number      14
_space_group_name_Hall           '-P 2ybc'
loop_
_symmetry_equiv_pos_site_id
_symmetry_equiv_pos_as_xyz
1 x,y,z
2 -x,1/2+y,1/2-z
3 -x,-y,-z
4 x,1/2-y,1/2+z
_cell_length_a                   7.375(1)
_cell_length_b                   14.370(3)
_cell_length_c                   16.015(7)
_cell_angle_alpha                90
_cell_angle_beta                 93.70(2)
_cell_angle_gamma                90
_cell_volume                     1693.71
_cell_formula_units_Z            4
loop_
_atom_site_label
_atom_site_type_symbol
_atom_site_fract_x
_atom_site_fract_y
_atom_site_fract_z
P1 P 0.61116(7) 0.31571(4) 0.43251(4)
S1 S 0.84132(8) 0.36585(6) 0.47244(5)
Cl1 Cl 0.8641(1) 0.55799(5) 0.30915(5)
Cl2 Cl 1.1857(1) 0.29912(7) 0.12949(5)
N1 N 0.4815(3) 0.3900(2) 0.3688(1)
N2 N 0.6156(3) 0.2136(2) 0.3898(2)
O1 O 0.4591(3) 0.3087(2) 0.4990(1)
O2 O 0.4317(3) 0.4916(2) 0.2639(2)
C1 C 0.3395(4) 0.3891(2) 0.4969(2)
C2 C 0.3120(3) 0.4171(2) 0.4062(2)
C3 C 0.5266(3) 0.4324(2) 0.2967(2)
C4 C 0.7835(5) 0.1626(3) 0.3790(2)
C5 C 0.8356(8) 0.0927(4) 0.4457(4)
C6 C 0.4462(5) 0.1703(3) 0.3568(2)
C7 C 0.3710(7) 0.0973(4) 0.4124(4)
C8 C 0.6954(3) 0.3981(2) 0.2579(2)
C9 C 0.6909(4) 0.3149(2) 0.2152(2)
C10 C 0.8399(4) 0.2831(3) 0.1747(2)
C11 C 0.9960(4) 0.3377(2) 0.1784(2)
C12 C 1.0046(3) 0.4214(2) 0.2194(2)
C13 C 0.8521(3) 0.4525(2) 0.2587(1)
loop_
_geom_bond_atom_site_label_1
_geom_bond_atom_site_label_2
_geom_bond_site_symmetry_1
_geom_bond_site_symmetry_2
P1 S1 1_555 1_555
Cl1 C13 1_555 1_555
Cl2 C11 1_555 1_555
N1 P1 1_555 1_555
N2 P1 1_555 1_555
O1 P1 1_555 1_555
O2 C3 1_555 1_555
C1 O1 1_555 1_555
C2 N1 1_555 1_555
C3 N1 1_555 1_555
C4 N2 1_555 1_555
C5 C4 1_555 1_555
C6 N2 1_555 1_555
C7 C6 1_555 1_555
C8 C3 1_555 1_555
C9 C8 1_555 1_555
C10 C9 1_555 1_555
C11 C10 1_555 1_555
C12 C11 1_555 1_555
C13 C8 1_555 1_555
C1 C2 1_555 1_555
C12 C13 1_555 1_555

#END
