
#######################################################################
#
#                 Cambridge Crystallographic Data Centre
#                                CCDC 
#
#######################################################################
#
# If this CIF has been generated from an entry in the Cambridge 
# Structural Database, then it will include bibliographic, chemical, 
# crystal, experimental, refinement or atomic coordinate data resulting 
# from the CCDC's data processing and validation procedures.
#
#######################################################################

data_YEHPEJ
_chemical_formula_moiety         'C50 H55 B2 N4 1+,C1 F3 O3 S1 1-,2(C1 H2 Cl2)'
_chemical_name_systematic        
'2,5-diphenyl-1,3,4,6-tetrakis(2,4,6-trimethylphenyl)-2,3,3a,4,5,6-hexahydro[1,3,2]diazaborolo[4,5-d][1,3,2]diazaborol-1-ium trifluoromethanesulfonate dichloromethane solvate'
_symmetry_cell_setting           monoclinic
_symmetry_space_group_name_H-M   'C c'
_symmetry_Int_Tables_number      9
_space_group_name_Hall           'C -2yc'
loop_
_symmetry_equiv_pos_site_id
_symmetry_equiv_pos_as_xyz
1 x,y,z
2 x,-y,1/2+z
3 1/2+x,1/2+y,z
4 1/2+x,1/2-y,1/2+z
_cell_length_a                   21.6523(7)
_cell_length_b                   12.0310(4)
_cell_length_c                   22.3972(7)
_cell_angle_alpha                90
_cell_angle_beta                 117.8819(13)
_cell_angle_gamma                90
_cell_volume                     5157.14
_exptl_crystal_colour            yellow
_exptl_crystal_description       block
_cell_formula_units_Z            4
loop_
_atom_site_label
_atom_site_type_symbol
_atom_site_fract_x
_atom_site_fract_y
_atom_site_fract_z
C1 C 0.4716(5) 0.3722(9) 0.3000(5)
F1 F 0.4843(6) 0.3441(9) 0.2505(5)
F2 F 0.4253(3) 0.2991(6) 0.3003(4)
F3 F 0.4392(6) 0.4722(10) 0.2869(6)
O1 O 0.5272(9) 0.4026(15) 0.4288(5)
O2 O 0.5912(5) 0.4570(8) 0.3693(5)
O3 O 0.5764(7) 0.2610(11) 0.3877(7)
S1 S 0.55142(12) 0.3736(2) 0.38005(13)
B1 B 0.5866(3) 0.3780(4) 0.6165(2)
B2 B 0.4218(3) 0.6133(4) 0.5200(2)
C4 C 0.6485(2) 0.2959(4) 0.6483(2)
C5 C 0.7057(2) 0.3082(4) 0.6355(2)
H1 H 0.7075 0.371 0.6106
C6 C 0.7595(3) 0.2315(4) 0.6580(3)
H2 H 0.7974 0.2416 0.6483
C7 C 0.7579(3) 0.1402(4) 0.6946(3)
H3 H 0.795 0.0877 0.7106
C8 C 0.7019(3) 0.1252(4) 0.7080(2)
H4 H 0.7009 0.0623 0.7332
C9 C 0.6479(3) 0.2010(4) 0.6851(2)
H5 H 0.6097 0.1892 0.6942
C10 C 0.6547(2) 0.5657(3) 0.6355(2)
C11 C 0.6729(2) 0.5923(4) 0.7022(3)
C12 C 0.6339(3) 0.5446(5) 0.7376(3)
H6 H 0.6484 0.4674 0.7504
H7 H 0.5835 0.5472 0.707
H8 H 0.6446 0.5885 0.7781
C13 C 0.7297(3) 0.6614(4) 0.7375(2)
H9 H 0.7425 0.6799 0.783
C14 C 0.7685(2) 0.7042(4) 0.7078(2)
C15 C 0.8272(3) 0.7857(5) 0.7468(3)
H10 H 0.8695 0.7618 0.7449
H11 H 0.8363 0.7881 0.794
H12 H 0.8136 0.8599 0.7268
C16 C 0.7515(2) 0.6712(4) 0.6427(2)
H13 H 0.7796 0.696 0.623
C17 C 0.6942(2) 0.6022(4) 0.6050(2)
C18 C 0.6783(3) 0.5681(4) 0.5345(2)
H14 H 0.652 0.4982 0.5228
H15 H 0.7221 0.5577 0.5323
H16 H 0.6505 0.6261 0.5025
C19 C 0.4804(2) 0.2584(4) 0.5991(2)
C20 C 0.4746(2) 0.2450(4) 0.6589(2)
C21 C 0.5027(3) 0.3287(4) 0.7145(2)
H17 H 0.4845 0.3132 0.7463
H18 H 0.4882 0.4033 0.6955
H19 H 0.5539 0.3246 0.7382
C22 C 0.4423(3) 0.1486(4) 0.6654(3)
H20 H 0.4374 0.1385 0.705
C23 C 0.4173(2) 0.0675(4) 0.6159(3)
C24 C 0.3827(3) -0.0369(4) 0.6248(3)
H21 H 0.373 -0.0884 0.5875
H22 H 0.3389 -0.0169 0.6248
H23 H 0.4141 -0.0727 0.6677
C25 C 0.4263(3) 0.0823(4) 0.5585(3)
H24 H 0.4105 0.0259 0.5249
C26 C 0.4575(2) 0.1765(4) 0.5490(2)
C27 C 0.4657(3) 0.1874(5) 0.4862(3)
H25 H 0.4228 0.2184 0.4497
H26 H 0.4747 0.114 0.4729
H27 H 0.5051 0.2369 0.4952
C28 C 0.4770(2) 0.4385(3) 0.5387(2)
H28 H 0.4682 0.4054 0.4945
C29 C 0.5292(2) 0.5299(3) 0.55720(19)
C30 C 0.3497(2) 0.4337(3) 0.4935(2)
C31 C 0.3128(2) 0.3949(4) 0.5271(2)
C32 C 0.3334(3) 0.4245(4) 0.5994(2)
H29 H 0.2917 0.4458 0.6032
H30 H 0.3664 0.4868 0.6136
H31 H 0.3556 0.3601 0.6284
C33 C 0.2553(2) 0.3267(4) 0.4915(2)
H32 H 0.2292 0.3013 0.513
C34 C 0.2348(2) 0.2944(4) 0.4252(2)
C35 C 0.1756(3) 0.2153(5) 0.3873(3)
H33 H 0.1942 0.1405 0.389
H34 H 0.1494 0.2394 0.3402
H35 H 0.1446 0.2145 0.4081
C36 C 0.2706(3) 0.3405(4) 0.3923(3)
H36 H 0.2559 0.3225 0.3463
C37 C 0.3269(2) 0.4116(4) 0.4256(2)
C38 C 0.3588(3) 0.4637(5) 0.3844(3)
H37 H 0.3312 0.4424 0.3369
H38 H 0.4069 0.4374 0.4014
H39 H 0.3586 0.5448 0.3884
C39 C 0.3639(2) 0.7025(4) 0.4931(2)
C40 C 0.3063(3) 0.6907(4) 0.5060(3)
H40 H 0.3046 0.6294 0.5319
C41 C 0.2520(3) 0.7676(4) 0.4812(3)
H41 H 0.2138 0.7587 0.4906
C42 C 0.2533(3) 0.8567(4) 0.4431(3)
H42 H 0.2159 0.9087 0.4261
C43 C 0.3092(3) 0.8707(4) 0.4295(3)
H43 H 0.3101 0.932 0.4032
C44 C 0.3642(2) 0.7941(4) 0.4548(2)
H44 H 0.4026 0.8045 0.4458
C45 C 0.5311(2) 0.7342(4) 0.5368(2)
C46 C 0.5512(2) 0.8123(4) 0.5884(2)
C47 C 0.5382(3) 0.7966(5) 0.6482(3)
H45 H 0.4903 0.7702 0.6327
H46 H 0.5447 0.8675 0.6719
H47 H 0.5712 0.7417 0.679
C48 C 0.5826(3) 0.9105(4) 0.5817(3)
H48 H 0.5977 0.9642 0.6168
C49 C 0.5923(2) 0.9317(4) 0.5267(3)
C50 C 0.6264(3) 1.0367(4) 0.5200(3)
H49 H 0.632 1.0888 0.5558
H50 H 0.5971 1.0707 0.4759
H51 H 0.6724 1.0191 0.524
C51 C 0.5683(2) 0.8529(4) 0.4742(2)
H52 H 0.573 0.8678 0.4349
C52 C 0.5377(2) 0.7536(4) 0.4786(2)
C53 C 0.5070(3) 0.6749(4) 0.4184(2)
H53 H 0.528 0.6011 0.4324
H54 H 0.5168 0.7034 0.3827
H55 H 0.4563 0.6696 0.4012
N1 N 0.59395(19) 0.4968(3) 0.5986(2)
N2 N 0.51418(19) 0.3580(3) 0.59325(19)
N3 N 0.41372(18) 0.4983(3) 0.53087(19)
N4 N 0.49690(19) 0.6310(3) 0.53948(19)
C54 C 0.3533(4) 0.0594(6) 0.2824(4)
H56 H 0.3754 0.1197 0.269
H57 H 0.3208 0.0193 0.2409
Cl1 Cl 0.30666(9) 0.11703(14) 0.31936(8)
Cl2 Cl 0.41904(11) -0.03404(18) 0.33706(11)
C55 C 0.6495(3) 0.0611(5) 0.3558(3)
H58 H 0.6285 0.12 0.3714
H59 H 0.6825 0.0182 0.3957
Cl3 Cl 0.58286(10) -0.02819(17) 0.29906(11)
Cl4 Cl 0.69495(8) 0.12239(13) 0.31677(8)
C2? C 0.5036(10) 0.4341(11) 0.3104(8)
F4? F 0.5561(9) 0.5051(14) 0.3283(10)
F5? F 0.4894(12) 0.3915(13) 0.2497(9)
F6? F 0.4487(11) 0.4978(17) 0.3036(12)
O4? O 0.538(2) 0.387(4) 0.4347(13)
O5? O 0.4577(8) 0.2645(12) 0.3448(9)
O6? O 0.5793(15) 0.273(2) 0.3706(17)
S2? S 0.5218(3) 0.3259(5) 0.3750(3)
C3? C 0.5413(10) 0.386(2) 0.3446(11)
F7? F 0.5333(13) 0.380(2) 0.4001(13)
F8? F 0.5736(14) 0.483(2) 0.3482(16)
F9? F 0.5870(13) 0.304(2) 0.3501(16)
O7? O 0.4320(17) 0.272(2) 0.2652(18)
O8? O 0.4222(19) 0.470(3) 0.271(2)
O9? O 0.4829(13) 0.395(2) 0.2140(12)
S3? S 0.4596(6) 0.3777(10) 0.2641(7)
loop_
_geom_bond_atom_site_label_1
_geom_bond_atom_site_label_2
_geom_bond_site_symmetry_1
_geom_bond_site_symmetry_2
C1 F1 1_555 1_555
F2 C1 1_555 1_555
F3 C1 1_555 1_555
O1 S1 1_555 1_555
O2 S1 1_555 1_555
O3 S1 1_555 1_555
S1 C1 1_555 1_555
B1 C4 1_555 1_555
B2 C39 1_555 1_555
C4 C5 1_555 1_555
C5 H1 1_555 1_555
C6 C5 1_555 1_555
H2 C6 1_555 1_555
C7 C6 1_555 1_555
H3 C7 1_555 1_555
C8 C7 1_555 1_555
H4 C8 1_555 1_555
C9 C4 1_555 1_555
H5 C9 1_555 1_555
C10 C11 1_555 1_555
C11 C12 1_555 1_555
C12 H6 1_555 1_555
H7 C12 1_555 1_555
H8 C12 1_555 1_555
C13 C11 1_555 1_555
H9 C13 1_555 1_555
C14 C13 1_555 1_555
C15 C14 1_555 1_555
H10 C15 1_555 1_555
H11 C15 1_555 1_555
H12 C15 1_555 1_555
C16 C14 1_555 1_555
H13 C16 1_555 1_555
C17 C10 1_555 1_555
C18 C17 1_555 1_555
H14 C18 1_555 1_555
H15 C18 1_555 1_555
H16 C18 1_555 1_555
C19 C20 1_555 1_555
C20 C21 1_555 1_555
C21 H17 1_555 1_555
H18 C21 1_555 1_555
H19 C21 1_555 1_555
C22 C20 1_555 1_555
H20 C22 1_555 1_555
C23 C22 1_555 1_555
C24 C23 1_555 1_555
H21 C24 1_555 1_555
H22 C24 1_555 1_555
H23 C24 1_555 1_555
C25 C23 1_555 1_555
H24 C25 1_555 1_555
C26 C19 1_555 1_555
C27 C26 1_555 1_555
H25 C27 1_555 1_555
H26 C27 1_555 1_555
H27 C27 1_555 1_555
C28 H28 1_555 1_555
C29 C28 1_555 1_555
C30 C31 1_555 1_555
C31 C32 1_555 1_555
C32 H29 1_555 1_555
H30 C32 1_555 1_555
H31 C32 1_555 1_555
C33 C31 1_555 1_555
H32 C33 1_555 1_555
C34 C33 1_555 1_555
C35 C34 1_555 1_555
H33 C35 1_555 1_555
H34 C35 1_555 1_555
H35 C35 1_555 1_555
C36 C34 1_555 1_555
H36 C36 1_555 1_555
C37 C30 1_555 1_555
C38 C37 1_555 1_555
H37 C38 1_555 1_555
H38 C38 1_555 1_555
H39 C38 1_555 1_555
C39 C40 1_555 1_555
C40 H40 1_555 1_555
C41 C40 1_555 1_555
H41 C41 1_555 1_555
C42 C41 1_555 1_555
H42 C42 1_555 1_555
C43 C42 1_555 1_555
H43 C43 1_555 1_555
C44 C39 1_555 1_555
H44 C44 1_555 1_555
C45 C46 1_555 1_555
C46 C47 1_555 1_555
C47 H45 1_555 1_555
H46 C47 1_555 1_555
H47 C47 1_555 1_555
C48 C46 1_555 1_555
H48 C48 1_555 1_555
C49 C48 1_555 1_555
C50 C49 1_555 1_555
H49 C50 1_555 1_555
H50 C50 1_555 1_555
H51 C50 1_555 1_555
C51 C49 1_555 1_555
H52 C51 1_555 1_555
C52 C45 1_555 1_555
C53 C52 1_555 1_555
H53 C53 1_555 1_555
H54 C53 1_555 1_555
H55 C53 1_555 1_555
N1 B1 1_555 1_555
N2 B1 1_555 1_555
N3 B2 1_555 1_555
N4 B2 1_555 1_555
C54 H56 1_555 1_555
H57 C54 1_555 1_555
Cl1 C54 1_555 1_555
Cl2 C54 1_555 1_555
C55 H58 1_555 1_555
H59 C55 1_555 1_555
Cl3 C55 1_555 1_555
Cl4 C55 1_555 1_555
C8 C9 1_555 1_555
C10 N1 1_555 1_555
C16 C17 1_555 1_555
C19 N2 1_555 1_555
C25 C26 1_555 1_555
C28 N2 1_555 1_555
C28 N3 1_555 1_555
C29 N1 1_555 1_555
C29 N4 1_555 1_555
C30 N3 1_555 1_555
C36 C37 1_555 1_555
C43 C44 1_555 1_555
C45 N4 1_555 1_555
C51 C52 1_555 1_555

#END
