
#######################################################################
#
#                 Cambridge Crystallographic Data Centre
#                                CCDC 
#
#######################################################################
#
# If this CIF has been generated from an entry in the Cambridge 
# Structural Database, then it will include bibliographic, chemical, 
# crystal, experimental, refinement or atomic coordinate data resulting 
# from the CCDC's data processing and validation procedures.
#
#######################################################################

data_YEHXUG
_chemical_formula_moiety         'C16 H27 N1 O9'
_chemical_name_systematic        
'Methyl 5-acetamido-6-((2,2-dimethyl-1,3-dioxolan-4-yl)(hydroxy)methyl)-4-hydroxy-2-methoxytetrahydro-2H-pyran-2-carboxylate'
_symmetry_cell_setting           monoclinic
_symmetry_space_group_name_H-M   'C 2'
_symmetry_Int_Tables_number      5
_space_group_name_Hall           'C 2y'
loop_
_symmetry_equiv_pos_site_id
_symmetry_equiv_pos_as_xyz
1 x,y,z
2 -x,y,-z
3 1/2+x,1/2+y,z
4 1/2-x,1/2+y,-z
_cell_length_a                   22.868(3)
_cell_length_b                   6.1707(7)
_cell_length_c                   17.3335(19)
_cell_angle_alpha                90
_cell_angle_beta                 126.8340(10)
_cell_angle_gamma                90
_cell_volume                     1957.68
_exptl_crystal_description       block
_chemical_melting_point          '184-185 deg.C'
_cell_formula_units_Z            4
loop_
_atom_site_label
_atom_site_type_symbol
_atom_site_fract_x
_atom_site_fract_y
_atom_site_fract_z
C1 C 0.2330(3) 0.5754(12) 0.0760(3)
H1 H 0.2527 0.4533 0.0643
H2 H 0.2723 0.6649 0.1254
H3 H 0.2025 0.6581 0.0178
C2 C 0.0618(5) 1.1168(12) -0.0479(4)
H4 H 0.0722 1.2687 -0.0348
H5 H 0.0123 1.0896 -0.0715
H6 H 0.0682 1.0732 -0.0955
C3 C 0.1045(2) 0.7941(7) 0.0340(2)
C4 C 0.36997(17) 0.3882(6) 0.5844(2)
H7 H 0.3492 0.2432 0.5758
H8 H 0.3878 0.4335 0.6493
H9 H 0.4156 0.3588 0.5911
C5 C 0.31836(15) 0.5443(5) 0.5048(2)
C6 C 0.4910(4) 0.7829(16) 0.3280(6)
H10 H 0.4738 0.6947 0.2725
H11 H 0.4915 0.6988 0.3750
H12 H 0.5395 0.8329 0.3552
C7 C 0.4386(4) 1.0937(15) 0.2226(4)
H13 H 0.4219 1.0001 0.1688
H14 H 0.4864 1.1478 0.2478
H15 H 0.4054 1.2130 0.2019
N1 N 0.28615(13) 0.4727(4) 0.41485(17)
H16 H 0.2954 0.3497 0.4068
O1 O 0.19097(16) 0.5012(5) 0.1065(2)
O2 O 0.0601(2) 0.6975(7) -0.0391(2)
O3 O 0.1115(3) 0.9936(6) 0.0406(2)
O4 O 0.12815(13) 0.3733(6) 0.28562(18)
H17 H 0.1544 0.3089 0.3371
O5 O 0.30801(13) 0.7297(4) 0.52213(15)
C8 C 0.26672(16) 0.7080(5) 0.2862(2)
H18 H 0.2912 0.5995 0.2734
C9 C 0.23175(15) 0.5936(5) 0.3277(2)
H19 H 0.2107 0.7044 0.3449
C10 C 0.17030(17) 0.4397(6) 0.2545(2)
H20 H 0.1909 0.3127 0.2447
C11 C 0.11793(17) 0.5576(7) 0.1592(2)
H21 H 0.0831 0.4549 0.1106
H22 H 0.0909 0.6657 0.1668
C12 C 0.15829(18) 0.6653(6) 0.1264(2)
C13 C 0.32254(17) 0.8804(5) 0.3541(2)
H23 H 0.3664 0.8069 0.4079
C14 C 0.34444(18) 1.0271(6) 0.3052(2)
H24 H 0.3022 1.1113 0.2542
C15 C 0.40800(19) 1.1796(7) 0.3752(3)
H25 H 0.3993 1.3242 0.3484
H26 H 0.4155 1.1877 0.4365
C16 C 0.4422(2) 0.9698(7) 0.2991(3)
O6 O 0.21167(11) 0.8134(4) 0.19776(14)
O7 O 0.29541(13) 1.0199(4) 0.39225(16)
H27 H 0.2830 0.9467 0.4197
O8 O 0.37154(14) 0.8973(6) 0.2653(2)
O9 O 0.4677(7) 1.083(3) 0.3857(7)
O10? O 0.459(2) 1.145(9) 0.360(5)
loop_
_geom_bond_atom_site_label_1
_geom_bond_atom_site_label_2
_geom_bond_site_symmetry_1
_geom_bond_site_symmetry_2
C1 H1 1_555 1_555
H2 C1 1_555 1_555
H3 C1 1_555 1_555
C2 H4 1_555 1_555
H5 C2 1_555 1_555
H6 C2 1_555 1_555
C3 O2 1_555 1_555
C4 H7 1_555 1_555
H8 C4 1_555 1_555
H9 C4 1_555 1_555
C5 C4 1_555 1_555
C6 H10 1_555 1_555
H11 C6 1_555 1_555
H12 C6 1_555 1_555
C7 H13 1_555 1_555
H14 C7 1_555 1_555
H15 C7 1_555 1_555
N1 C5 1_555 1_555
H16 N1 1_555 1_555
O1 C1 1_555 1_555
O3 C2 1_555 1_555
O4 H17 1_555 1_555
O5 C5 1_555 1_555
C8 H18 1_555 1_555
C9 N1 1_555 1_555
H19 C9 1_555 1_555
C10 O4 1_555 1_555
H20 C10 1_555 1_555
C11 C10 1_555 1_555
H21 C11 1_555 1_555
H22 C11 1_555 1_555
C12 C3 1_555 1_555
C13 C8 1_555 1_555
H23 C13 1_555 1_555
C14 C13 1_555 1_555
H24 C14 1_555 1_555
C15 C14 1_555 1_555
H25 C15 1_555 1_555
H26 C15 1_555 1_555
C16 C6 1_555 1_555
O6 C8 1_555 1_555
O7 C13 1_555 1_555
H27 O7 1_555 1_555
O8 C14 1_555 1_555
O9 C15 1_555 1_555
C3 O3 1_555 1_555
C7 C16 1_555 1_555
O1 C12 1_555 1_555
C8 C9 1_555 1_555
C9 C10 1_555 1_555
C11 C12 1_555 1_555
C12 O6 1_555 1_555
C16 O8 1_555 1_555
C16 O9 1_555 1_555

#END
