
#######################################################################
#
#                 Cambridge Crystallographic Data Centre
#                                CCDC 
#
#######################################################################
#
# If this CIF has been generated from an entry in the Cambridge 
# Structural Database, then it will include bibliographic, chemical, 
# crystal, experimental, refinement or atomic coordinate data resulting 
# from the CCDC's data processing and validation procedures.
#
#######################################################################

data_YEJCOH
_chemical_formula_moiety         'C9 H10 N2 O4'
_chemical_name_systematic        'Methyl 4-(methylamino)-3-nitrobenzoate'
_symmetry_cell_setting           monoclinic
_symmetry_space_group_name_H-M   'P 21/n'
_symmetry_Int_Tables_number      14
_space_group_name_Hall           '-P 2yn'
loop_
_symmetry_equiv_pos_site_id
_symmetry_equiv_pos_as_xyz
1 x,y,z
2 1/2-x,1/2+y,1/2-z
3 -x,-y,-z
4 1/2+x,1/2-y,1/2+z
_cell_length_a                   7.8167(7)
_cell_length_b                   8.6045(8)
_cell_length_c                   14.3211(11)
_cell_angle_alpha                90
_cell_angle_beta                 92.7580(10)
_cell_angle_gamma                90
_cell_volume                     962.104
_exptl_crystal_colour            yellow
_exptl_crystal_description       block
_cell_formula_units_Z            4
loop_
_atom_site_label
_atom_site_type_symbol
_atom_site_fract_x
_atom_site_fract_y
_atom_site_fract_z
N1 N 0.8175(2) 0.5877(2) 0.44847(11)
N2 N 0.7787(2) 0.92223(19) 0.48992(11)
H1 H 0.8260 0.8941 0.4396
O1 O 0.50638(18) 0.32480(16) 0.69544(9)
O2 O 0.44912(19) 0.50261(17) 0.80415(10)
O3 O 0.8196(2) 0.44719(17) 0.43553(11)
O4 O 0.8850(2) 0.67939(16) 0.39471(9)
C1 C 0.5075(3) 0.4689(2) 0.72966(14)
C2 C 0.5863(2) 0.5832(2) 0.66754(12)
C3 C 0.6654(2) 0.5386(2) 0.58741(12)
H2 H 0.6726 0.4336 0.5726
C4 C 0.7344(2) 0.6486(2) 0.52873(12)
C5 C 0.7236(2) 0.8097(2) 0.54634(12)
C6 C 0.6449(3) 0.8506(2) 0.63072(13)
H3 H 0.6377 0.9549 0.6470
C7 C 0.5799(3) 0.7417(2) 0.68820(13)
H4 H 0.5300 0.7737 0.7426
C8 C 0.4347(3) 0.2067(2) 0.75438(15)
H5 H 0.5095 0.1909 0.8087
H6 H 0.4228 0.1111 0.7201
H7 H 0.3244 0.2400 0.7733
C9 C 0.7642(3) 1.0875(2) 0.50783(15)
H8 H 0.6456 1.1148 0.5111
H9 H 0.8135 1.1446 0.4582
H10 H 0.8240 1.1123 0.5661
loop_
_geom_bond_atom_site_label_1
_geom_bond_atom_site_label_2
_geom_bond_site_symmetry_1
_geom_bond_site_symmetry_2
N1 O3 1_555 1_555
N2 H1 1_555 1_555
O1 C1 1_555 1_555
O2 C1 1_555 1_555
O4 N1 1_555 1_555
C1 C2 1_555 1_555
C2 C3 1_555 1_555
C3 H2 1_555 1_555
C4 N1 1_555 1_555
C5 N2 1_555 1_555
C6 C5 1_555 1_555
H3 C6 1_555 1_555
C7 C2 1_555 1_555
H4 C7 1_555 1_555
C8 O1 1_555 1_555
H5 C8 1_555 1_555
H6 C8 1_555 1_555
H7 C8 1_555 1_555
C9 N2 1_555 1_555
H8 C9 1_555 1_555
H9 C9 1_555 1_555
H10 C9 1_555 1_555
C3 C4 1_555 1_555
C4 C5 1_555 1_555
C6 C7 1_555 1_555

#END
