
#######################################################################
#
#                 Cambridge Crystallographic Data Centre
#                                CCDC 
#
#######################################################################
#
# If this CIF has been generated from an entry in the Cambridge 
# Structural Database, then it will include bibliographic, chemical, 
# crystal, experimental, refinement or atomic coordinate data resulting 
# from the CCDC's data processing and validation procedures.
#
#######################################################################

data_YEJXEQ
_chemical_formula_moiety         'C26 H8 Cl10'
_chemical_name_systematic        6-(p-Tolyl)-6H-perchlorobenzo(cd)pyrene
_symmetry_cell_setting           tetragonal
_symmetry_space_group_name_H-M   'I 41/a'
_symmetry_Int_Tables_number      88
_space_group_name_Hall           '-I 4ad'
loop_
_symmetry_equiv_pos_site_id
_symmetry_equiv_pos_as_xyz
1 x,y,z
2 3/4-y,1/4+x,1/4+z
3 1/2+x,1/2+y,1/2+z
4 1/4-y,3/4+x,3/4+z
5 1/4+y,1/4-x,1/4+z
6 1/2+x,y,1/2-z
7 1/4-y,1/4+x,1/4-z
8 x,1/2+y,-z
9 -x,-y,-z
10 1/4+y,3/4-x,3/4-z
11 1/2-x,1/2-y,1/2-z
12 3/4+y,1/4-x,1/4-z
13 3/4-y,3/4+x,3/4-z
14 1/2-x,-y,1/2+z
15 3/4+y,3/4-x,3/4+z
16 -x,1/2-y,z
_cell_length_a                   27.0286(4)
_cell_length_b                   27.0286(4)
_cell_length_c                   13.6117(5)
_cell_angle_alpha                90
_cell_angle_beta                 90
_cell_angle_gamma                90
_cell_volume                     9943.96
_exptl_crystal_colour            yellow
_exptl_crystal_description       prism
_chemical_melting_point          541K
_cell_formula_units_Z            16
loop_
_atom_site_label
_atom_site_type_symbol
_atom_site_fract_x
_atom_site_fract_y
_atom_site_fract_z
Cl1 Cl 0.44280(6) 0.77467(6) -0.13873(14)
Cl2 Cl 0.40668(6) 0.77314(6) -0.34579(13)
Cl3 Cl 0.34681(7) 0.71158(6) -0.48574(13)
Cl4 Cl 0.23640(6) 0.69274(6) -0.51023(12)
Cl5 Cl 0.17302(5) 0.66057(6) -0.33452(12)
Cl6 Cl 0.14928(6) 0.65079(6) 0.02836(13)
Cl7 Cl 0.18900(6) 0.67100(7) 0.23623(13)
Cl8 Cl 0.29831(7) 0.69385(6) 0.27097(13)
Cl9 Cl 0.39512(7) 0.65844(7) 0.18139(14)
Cl10 Cl 0.45723(6) 0.69054(7) 0.00900(14)
C1 C 0.3954(2) 0.7349(2) -0.1695(5)
C2 C 0.3772(2) 0.7357(2) -0.2613(5)
C3 C 0.3106(2) 0.70698(19) -0.3809(4)
C4 C 0.2616(2) 0.6943(2) -0.3944(4)
C5 C 0.2331(2) 0.6795(2) -0.3137(5)
C6 C 0.2242(2) 0.65339(18) -0.1379(4)
C7 C 0.2119(2) 0.6641(2) 0.0435(5)
C8 C 0.2291(2) 0.6723(2) 0.1382(5)
C9 C 0.2794(2) 0.6800(2) 0.1533(4)
C10 C 0.3655(2) 0.6821(2) 0.0790(5)
C11 C 0.3935(2) 0.6962(2) 0.0010(5)
C12 C 0.3715(2) 0.7079(2) -0.0914(5)
C13 C 0.3310(2) 0.71196(19) -0.2853(4)
C14 C 0.2528(2) 0.67773(19) -0.2203(5)
C15 C 0.2421(2) 0.66741(19) -0.0375(4)
C16 C 0.3119(2) 0.6813(2) 0.0728(5)
C17 C 0.2925(2) 0.67929(19) -0.0232(4)
C18 C 0.3220(2) 0.69307(18) -0.1062(4)
C19 C 0.3018(2) 0.69459(18) -0.2052(4)
C20 C 0.2269(2) 0.5971(2) -0.1490(4)
C21 C 0.1845(2) 0.5686(2) -0.1584(5)
C22 C 0.1872(2) 0.5176(2) -0.1676(5)
C23 C 0.2327(3) 0.4936(2) -0.1687(5)
C24 C 0.2745(2) 0.5224(2) -0.1605(5)
C25 C 0.2716(2) 0.5726(2) -0.1500(4)
C26 C 0.2353(3) 0.4378(2) -0.1787(5)
H1 H 0.1894 0.6634 -0.1435
H2 H 0.1583 0.4992 -0.1730
H3 H 0.1537 0.5839 -0.1585
H4 H 0.3054 0.5073 -0.1621
H5 H 0.3007 0.5908 -0.1434
H6 H 0.2693 0.4275 -0.1782
H7 H 0.2202 0.4280 -0.2395
H8 H 0.2181 0.4227 -0.1249
loop_
_geom_bond_atom_site_label_1
_geom_bond_atom_site_label_2
_geom_bond_site_symmetry_1
_geom_bond_site_symmetry_2
Cl1 C1 1_555 1_555
Cl2 C2 1_555 1_555
Cl3 C3 1_555 1_555
Cl4 C4 1_555 1_555
Cl5 C5 1_555 1_555
Cl6 C7 1_555 1_555
Cl7 C8 1_555 1_555
Cl8 C9 1_555 1_555
Cl9 C10 1_555 1_555
Cl10 C11 1_555 1_555
C1 C2 1_555 1_555
C2 C13 1_555 1_555
C3 C4 1_555 1_555
C4 C5 1_555 1_555
C5 C14 1_555 1_555
C6 C14 1_555 1_555
C7 C8 1_555 1_555
C8 C9 1_555 1_555
C9 C16 1_555 1_555
C10 C11 1_555 1_555
C11 C12 1_555 1_555
C12 C1 1_555 1_555
C13 C3 1_555 1_555
C14 C19 1_555 1_555
C15 C6 1_555 1_555
C16 C10 1_555 1_555
C17 C15 1_555 1_555
C18 C12 1_555 1_555
C19 C13 1_555 1_555
C20 C6 1_555 1_555
C21 C20 1_555 1_555
C22 C21 1_555 1_555
C23 C22 1_555 1_555
C24 C23 1_555 1_555
C25 C20 1_555 1_555
C26 C23 1_555 1_555
H1 C6 1_555 1_555
H2 C22 1_555 1_555
H3 C21 1_555 1_555
H4 C24 1_555 1_555
H5 C25 1_555 1_555
H6 C26 1_555 1_555
H7 C26 1_555 1_555
H8 C26 1_555 1_555
C7 C15 1_555 1_555
C16 C17 1_555 1_555
C17 C18 1_555 1_555
C18 C19 1_555 1_555
C24 C25 1_555 1_555

#END
