
#######################################################################
#
#                 Cambridge Crystallographic Data Centre
#                                CCDC 
#
#######################################################################
#
# If this CIF has been generated from an entry in the Cambridge 
# Structural Database, then it will include bibliographic, chemical, 
# crystal, experimental, refinement or atomic coordinate data resulting 
# from the CCDC's data processing and validation procedures.
#
#######################################################################

data_YEJXOA
_chemical_formula_moiety         'C15 H14 O2 S1'
_chemical_name_systematic        4-((4-Methoxybenzyl)sulfanyl)benzaldehyde
_symmetry_cell_setting           monoclinic
_symmetry_space_group_name_H-M   'P 21/n'
_symmetry_Int_Tables_number      14
_space_group_name_Hall           '-P 2yn'
loop_
_symmetry_equiv_pos_site_id
_symmetry_equiv_pos_as_xyz
1 x,y,z
2 1/2+x,1/2-y,1/2+z
3 -x,-y,-z
4 1/2-x,1/2+y,1/2-z
_cell_length_a                   7.648(3)
_cell_length_b                   6.872(6)
_cell_length_c                   24.314(2)
_cell_angle_alpha                90
_cell_angle_beta                 93.10(2)
_cell_angle_gamma                90
_cell_volume                     1276
_exptl_crystal_colour            colorless
_exptl_crystal_description       plate
_chemical_melting_point          377-378K
_cell_formula_units_Z            4
_exptl_crystal_recrystallization_method 'ethyl acetate/hexane'
loop_
_atom_site_label
_atom_site_type_symbol
_atom_site_fract_x
_atom_site_fract_y
_atom_site_fract_z
S1 S 0.07660(7) 0.66559(9) 0.451215(19)
O1 O 0.7886(2) 0.8163(3) 0.62435(6)
O2 O -0.58167(17) 0.6666(2) 0.28187(6)
C1 C 0.5984(3) 0.7729(3) 0.54431(8)
C2 C 0.5914(3) 0.7668(3) 0.48715(8)
H1 H 0.6957 0.7860 0.4683
C3 C 0.4367(3) 0.7335(3) 0.45742(8)
H2 H 0.4347 0.7276 0.4184
C4 C 0.2824(3) 0.7084(3) 0.48455(7)
C5 C 0.2877(3) 0.7141(3) 0.54238(7)
H3 H 0.1832 0.6965 0.5612
C6 C 0.4439(3) 0.7450(3) 0.57159(8)
H4 H 0.4471 0.7476 0.6107
C7 C 0.7660(3) 0.8110(3) 0.57467(9)
H5 H 0.8650 0.8336 0.5536
C8 C 0.1102(3) 0.6878(3) 0.37787(7)
H6 H 0.1683 0.8126 0.3699
H7 H 0.1835 0.5796 0.3652
C9 C -0.0711(2) 0.6798(3) 0.34977(7)
C10 C -0.1315(3) 0.5118(3) 0.32327(8)
H8 H -0.0560 0.4025 0.3213
C11 C -0.3018(3) 0.5014(3) 0.29952(7)
H9 H -0.3415 0.3860 0.2813
C12 C -0.4120(2) 0.6594(3) 0.30274(7)
C13 C -0.3519(3) 0.8297(3) 0.32859(7)
H10 H -0.4269 0.9394 0.3303
C14 C -0.1830(3) 0.8383(3) 0.35165(7)
H11 H -0.1428 0.9548 0.3691
C15 C -0.6549(3) 0.4943(4) 0.25854(9)
H12 H -0.7763 0.5190 0.2454
H13 H -0.6525 0.3914 0.2865
H14 H -0.5867 0.4531 0.2276
loop_
_geom_bond_atom_site_label_1
_geom_bond_atom_site_label_2
_geom_bond_site_symmetry_1
_geom_bond_site_symmetry_2
S1 C4 1_555 1_555
O1 C7 1_555 1_555
O2 C12 1_555 1_555
C1 C2 1_555 1_555
C2 H1 1_555 1_555
C3 C2 1_555 1_555
H2 C3 1_555 1_555
C4 C3 1_555 1_555
C5 C4 1_555 1_555
H3 C5 1_555 1_555
C6 C1 1_555 1_555
H4 C6 1_555 1_555
C7 C1 1_555 1_555
H5 C7 1_555 1_555
C8 S1 1_555 1_555
H6 C8 1_555 1_555
H7 C8 1_555 1_555
C9 C8 1_555 1_555
C10 C9 1_555 1_555
H8 C10 1_555 1_555
C11 C10 1_555 1_555
H9 C11 1_555 1_555
C12 C11 1_555 1_555
C13 C12 1_555 1_555
H10 C13 1_555 1_555
C14 C9 1_555 1_555
H11 C14 1_555 1_555
C15 O2 1_555 1_555
H12 C15 1_555 1_555
H13 C15 1_555 1_555
H14 C15 1_555 1_555
C5 C6 1_555 1_555
C13 C14 1_555 1_555

#END
