
#######################################################################
#
#                 Cambridge Crystallographic Data Centre
#                                CCDC 
#
#######################################################################
#
# If this CIF has been generated from an entry in the Cambridge 
# Structural Database, then it will include bibliographic, chemical, 
# crystal, experimental, refinement or atomic coordinate data resulting 
# from the CCDC's data processing and validation procedures.
#
#######################################################################

data_YEJZAO01
_chemical_name_common            'guanidinium 2-hydroxy-3,5-dinitrobenzoate'
_chemical_formula_moiety         'C7 H3 N2 O7 1-,C1 H6 N3 1+'
_chemical_name_systematic        'guanidinium 3,5-dinitrosalicylate'
_symmetry_cell_setting           monoclinic
_symmetry_space_group_name_H-M   'P 21/c'
_symmetry_Int_Tables_number      14
_space_group_name_Hall           '-P 2ybc'
loop_
_symmetry_equiv_pos_site_id
_symmetry_equiv_pos_as_xyz
1 x,y,z
2 -x,1/2+y,1/2-z
3 -x,-y,-z
4 x,1/2-y,1/2+z
_cell_length_a                   9.797(3)
_cell_length_b                   5.9213(14)
_cell_length_c                   22.084(5)
_cell_angle_alpha                90
_cell_angle_beta                 115.610(10)
_cell_angle_gamma                90
_cell_volume                     1155.25
_exptl_crystal_colour            yellow
_exptl_crystal_description       plate
_cell_formula_units_Z            4
loop_
_atom_site_label
_atom_site_type_symbol
_atom_site_fract_x
_atom_site_fract_y
_atom_site_fract_z
O1 O 0.7695(3) 0.5801(4) -0.06513(12)
O2 O 0.9810(3) 0.7544(4) -0.00897(14)
O3 O 0.6738(3) 0.3604(3) 0.01495(11)
H1 H 0.6233 0.2855 0.0290
O4 O 0.5560(3) 0.2352(4) 0.08518(12)
O5 O 0.5751(3) 0.4318(4) 0.17451(12)
O6 O 0.8769(3) 1.1357(4) 0.22670(13)
O7 O 1.0250(4) 1.1963(5) 0.17936(16)
N1 N 0.8604(3) 0.6749(4) -0.01432(15)
N2 N 0.9237(4) 1.0914(5) 0.18496(16)
C1 C 0.6999(4) 0.5712(5) 0.11061(15)
C2 C 0.7619(4) 0.7535(5) 0.15232(16)
H2 H 0.7400 0.7773 0.1888
C3 C 0.8565(4) 0.9011(5) 0.14007(16)
C4 C 0.8892(4) 0.8744(5) 0.08611(17)
H3 H 0.9536 0.9743 0.0787
C5 C 0.7290(4) 0.5356(5) 0.05332(15)
C6 C 0.8243(4) 0.6959(5) 0.04299(16)
C7 C 0.6040(4) 0.4051(5) 0.12564(17)
N3 N 0.3967(4) 1.0810(5) 0.19847(15)
H4 H 0.3848 1.0897 0.2348
H5 H 0.4464 1.1841 0.1891
N4 N 0.2654(3) 0.7486(4) 0.17239(15)
H6 H 0.2244 0.6395 0.1447
H7 H 0.2585 0.7530 0.2099
N5 N 0.3527(3) 0.9040(4) 0.10048(14)
H8 H 0.3121 0.7958 0.0725
H9 H 0.4027 1.0079 0.0916
C8 C 0.3384(4) 0.9110(5) 0.15711(16)
loop_
_geom_bond_atom_site_label_1
_geom_bond_atom_site_label_2
_geom_bond_site_symmetry_1
_geom_bond_site_symmetry_2
O1 N1 1_555 1_555
O2 N1 1_555 1_555
O3 H1 1_555 1_555
O4 C7 1_555 1_555
O5 C7 1_555 1_555
O6 N2 1_555 1_555
O7 N2 1_555 1_555
N1 C6 1_555 1_555
N2 C3 1_555 1_555
C1 C2 1_555 1_555
C2 H2 1_555 1_555
C3 C2 1_555 1_555
C4 C3 1_555 1_555
H3 C4 1_555 1_555
C5 O3 1_555 1_555
C6 C4 1_555 1_555
C7 C1 1_555 1_555
N3 H4 1_555 1_555
H5 N3 1_555 1_555
N4 H6 1_555 1_555
H7 N4 1_555 1_555
N5 H8 1_555 1_555
H9 N5 1_555 1_555
C8 N3 1_555 1_555
C1 C5 1_555 1_555
C5 C6 1_555 1_555
N4 C8 1_555 1_555
N5 C8 1_555 1_555

#END
