
#######################################################################
#
#                 Cambridge Crystallographic Data Centre
#                                CCDC 
#
#######################################################################
#
# If this CIF has been generated from an entry in the Cambridge 
# Structural Database, then it will include bibliographic, chemical, 
# crystal, experimental, refinement or atomic coordinate data resulting 
# from the CCDC's data processing and validation procedures.
#
#######################################################################

data_YEKKUV
_chemical_name_common            
(+)-(3aS,4R,8S,8aR,8bR)-4-(4-bromophenyl)-2-(4-fluorobenzyl)-8-hydroxyhexahydropyrrolo[3,4-a]pyrrolizine-1,3-dione
_chemical_formula_moiety         'C22 H20 Br1 F1 N2 O3'
_chemical_name_systematic        
(+)-(3aS,4R,8S,8aR,8bR)-4-(4-bromophenyl)-2-(4-fluorobenzyl)-8-hydroxy-1,3-dioxodecahydropyrrolo[3,4-a]pyrrolizine
_symmetry_cell_setting           monoclinic
_symmetry_space_group_name_H-M   'P 21'
_symmetry_Int_Tables_number      4
_space_group_name_Hall           'P 2yb'
loop_
_symmetry_equiv_pos_site_id
_symmetry_equiv_pos_as_xyz
1 x,y,z
2 -x,1/2+y,-z
_cell_length_a                   12.8360(10)
_cell_length_b                   5.1640(4)
_cell_length_c                   16.2915(10)
_cell_angle_alpha                90
_cell_angle_beta                 94.174(4)
_cell_angle_gamma                90
_cell_volume                     1077.02
_exptl_crystal_colour            colorless
_chemical_melting_point          '123-125 deg.C'
_cell_formula_units_Z            2
loop_
_atom_site_label
_atom_site_type_symbol
_atom_site_fract_x
_atom_site_fract_y
_atom_site_fract_z
C1 C 0.2296(4) -1.1368(12) 0.1347(3)
N1 N 0.2973(4) -1.0435(11) 0.1985(3)
C2 C 0.2556(5) -0.8418(13) 0.2424(4)
C3 C 0.1425(5) -0.8096(12) 0.2107(3)
H1 H 0.1244 -0.6253 0.2008
C4 C 0.1337(5) -0.9688(12) 0.1293(3)
H2 H 0.1316 -0.8544 0.0804
O1 O 0.2486(3) -1.3207(9) 0.0926(3)
O2 O 0.3029(3) -0.7216(12) 0.2963(2)
C5 C 0.4029(5) -1.1503(13) 0.2199(4)
H3 H 0.4057 -1.3293 0.2002
H4 H 0.4162 -1.1526 0.2799
C6 C 0.4876(5) -0.9931(13) 0.1825(4)
C7 C 0.5347(5) -0.7848(13) 0.2257(4)
H5 H 0.5145 -0.7428 0.2784
C8 C 0.6116(5) -0.6392(13) 0.1907(4)
H6 H 0.6430 -0.4966 0.2185
C9 C 0.6401(4) -0.7125(19) 0.1133(4)
C10 C 0.5975(5) -0.9191(15) 0.0702(4)
H7 H 0.6200 -0.9656 0.0186
C11 C 0.5188(5) -1.0590(15) 0.1063(4)
H8 H 0.4870 -1.2000 0.0779
F1 F 0.7171(3) -0.5723(10) 0.0800(3)
C12 C 0.0640(5) -0.9445(12) 0.2662(3)
H9 H 0.0024 -0.8301 0.2685
N2 N 0.0296(3) -1.1840(12) 0.2206(2)
C13 C -0.0810(4) -1.2435(15) 0.2284(3)
H10 H -0.0988 -1.2181 0.2854
H11 H -0.0959 -1.4237 0.2128
C14 C -0.1437(5) -1.0602(15) 0.1712(4)
H12 H -0.1662 -0.9084 0.2014
H13 H -0.2056 -1.1473 0.1455
C15 C -0.0694(4) -0.9806(13) 0.1062(3)
H14 H -0.0583 -0.7908 0.1072
C16 C 0.0335(4) -1.1236(11) 0.1322(3)
H15 H 0.0382 -1.2855 0.1002
O3 O -0.1021(4) -1.0659(10) 0.0246(2)
H16 H -0.1493 -0.9698 0.0048
C17 C 0.1028(5) -1.0080(13) 0.3532(3)
C18 C 0.1684(4) -1.2193(16) 0.3702(3)
H17 H 0.1873 -1.3247 0.3266
C19 C 0.2065(5) -1.2778(13) 0.4503(4)
H18 H 0.2510 -1.4202 0.4609
C20 C 0.1773(5) -1.1218(13) 0.5140(4)
C21 C 0.1119(6) -0.9086(15) 0.4988(4)
H19 H 0.0925 -0.8034 0.5423
C22 C 0.0760(5) -0.8550(13) 0.4176(4)
H20 H 0.0324 -0.7109 0.4067
Br1 Br 0.22488(6) -1.2061(2) 0.62334(3)
loop_
_geom_bond_atom_site_label_1
_geom_bond_atom_site_label_2
_geom_bond_site_symmetry_1
_geom_bond_site_symmetry_2
C1 N1 1_555 1_555
N1 C2 1_555 1_555
C2 C3 1_555 1_555
C3 H1 1_555 1_555
C4 C1 1_555 1_555
H2 C4 1_555 1_555
O1 C1 1_555 1_555
O2 C2 1_555 1_555
C5 N1 1_555 1_555
H3 C5 1_555 1_555
H4 C5 1_555 1_555
C6 C5 1_555 1_555
C7 C6 1_555 1_555
H5 C7 1_555 1_555
C8 C7 1_555 1_555
H6 C8 1_555 1_555
C9 C8 1_555 1_555
C10 C9 1_555 1_555
H7 C10 1_555 1_555
C11 C6 1_555 1_555
H8 C11 1_555 1_555
F1 C9 1_555 1_555
C12 C3 1_555 1_555
H9 C12 1_555 1_555
N2 C12 1_555 1_555
C13 N2 1_555 1_555
H10 C13 1_555 1_555
H11 C13 1_555 1_555
C14 C13 1_555 1_555
H12 C14 1_555 1_555
H13 C14 1_555 1_555
C15 C14 1_555 1_555
H14 C15 1_555 1_555
C16 C4 1_555 1_555
H15 C16 1_555 1_555
O3 C15 1_555 1_555
H16 O3 1_555 1_555
C17 C12 1_555 1_555
C18 C17 1_555 1_555
H17 C18 1_555 1_555
C19 C18 1_555 1_555
H18 C19 1_555 1_555
C20 C19 1_555 1_555
C21 C20 1_555 1_555
H19 C21 1_555 1_555
C22 C17 1_555 1_555
H20 C22 1_555 1_555
Br1 C20 1_555 1_555
C3 C4 1_555 1_555
C10 C11 1_555 1_555
N2 C16 1_555 1_555
C15 C16 1_555 1_555
C21 C22 1_555 1_555

#END
