
#######################################################################
#
#                 Cambridge Crystallographic Data Centre
#                                CCDC 
#
#######################################################################
#
# If this CIF has been generated from an entry in the Cambridge 
# Structural Database, then it will include bibliographic, chemical, 
# crystal, experimental, refinement or atomic coordinate data resulting 
# from the CCDC's data processing and validation procedures.
#
#######################################################################

data_YEKLEG
_chemical_formula_moiety         'C23 H19 F2 N3 O2'
_chemical_name_systematic        
(+)-4-((3aS,4R,8S,8aR,8bR)-2-(4-fluorobenzyl)-8-fluoro-1,3-dioxodecahydropyrrolo[3,4-a]pyrrolizin-4-yl)benzonitrile
_symmetry_cell_setting           orthorhombic
_symmetry_space_group_name_H-M   'P 21 21 21'
_symmetry_Int_Tables_number      19
_space_group_name_Hall           'P 2ac 2ab'
loop_
_symmetry_equiv_pos_site_id
_symmetry_equiv_pos_as_xyz
1 x,y,z
2 1/2-x,-y,1/2+z
3 -x,1/2+y,1/2-z
4 1/2+x,1/2-y,-z
_cell_length_a                   10.9500(2)
_cell_length_b                   10.9922(3)
_cell_length_c                   16.4856(4)
_cell_angle_alpha                90
_cell_angle_beta                 90
_cell_angle_gamma                90
_cell_volume                     1984.28
_exptl_crystal_colour            colorless
_chemical_melting_point          '197-200 deg.C'
_cell_formula_units_Z            4
loop_
_atom_site_label
_atom_site_type_symbol
_atom_site_fract_x
_atom_site_fract_y
_atom_site_fract_z
C1 C 0.9944(2) 0.8997(2) 1.01059(16)
N1 N 1.1052(2) 0.95046(17) 1.03326(11)
C2 C 1.2048(2) 0.89313(18) 0.99831(13)
C3 C 1.15901(18) 0.78895(17) 0.94734(14)
H1 H 1.1910 0.7106 0.9679
C4 C 1.01864(19) 0.79388(19) 0.95540(16)
H2 H 0.9851 0.7171 0.9775
O1 O 0.8963(2) 0.93661(18) 1.03388(14)
O2 O 1.30961(18) 0.92359(14) 1.00952(11)
C5 C 1.1167(4) 1.0551(2) 1.08817(16)
H3 H 1.1940 1.0487 1.1178
H4 H 1.0503 1.0525 1.1279
C6 C 1.1129(3) 1.1756(2) 1.04431(16)
C7 C 1.2154(8) 1.2144(6) 0.9851(7)
H5 H 1.2776 1.1588 0.9720
C8 C 1.2125(9) 1.3237(7) 0.9407(9)
H6 H 1.2736 1.3519 0.9053
C9 C 1.1070(4) 1.3959(2) 0.9674(3)
C10 C 1.0243(14) 1.3654(10) 1.0078(6)
H7 H 0.9488 1.4058 1.0046
C11 C 1.0305(10) 1.2561(8) 1.0471(5)
H8 H 0.9677 1.2357 1.0835
F1 F 1.1058(2) 1.50601(15) 0.92782(17)
C16 C 1.18289(17) 0.80118(17) 0.85512(13)
H13 H 1.1799 0.7190 0.8306
N2 N 1.07629(15) 0.87097(16) 0.82637(12)
C17 C 1.0476(2) 0.8490(3) 0.74062(17)
H14 H 1.1226 0.8459 0.7082
H15 H 0.9951 0.9138 0.7193
C18 C 0.9805(3) 0.7248(3) 0.7379(2)
H16 H 0.9175 0.7248 0.6957
H17 H 1.0381 0.6586 0.7271
C19 C 0.92413(19) 0.7107(2) 0.82022(18)
H18 H 0.9508 0.6334 0.8454
C20 C 0.97045(19) 0.82006(19) 0.87037(16)
H19 H 0.9053 0.8823 0.8736
C21 C 1.30347(17) 0.85960(18) 0.83292(12)
C22 C 1.3148(2) 0.9829(2) 0.81822(15)
H20 H 1.2450 1.0327 0.8184
C23 C 1.4286(2) 1.0336(2) 0.80320(16)
H21 H 1.4357 1.1173 0.7927
C24 C 1.5317(2) 0.9605(3) 0.80369(15)
C25 C 1.5211(2) 0.8362(2) 0.81619(16)
H22 H 1.5908 0.7863 0.8153
C26 C 1.40733(19) 0.7864(2) 0.82992(14)
H23 H 1.3997 0.7020 0.8374
C27 C 1.6512(2) 1.0111(3) 0.7898(2)
N3 N 1.7466(3) 1.0490(4) 0.7775(3)
F2 F 0.79670(14) 0.7152(2) 0.81574(16)
C12? C 1.1945(10) 1.2470(9) 1.0577(10)
H9? H 1.2726 1.2129 1.0714
C13? C 1.1941(10) 1.3609(9) 1.0195(11)
H10? H 1.2442 1.4213 1.0452
C14? C 1.0072(12) 1.3224(10) 0.9655(9)
H11? H 0.9473 1.3381 0.9243
C15? C 1.0089(10) 1.2102(9) 1.0031(9)
H12? H 0.9337 1.1665 1.0100
loop_
_geom_bond_atom_site_label_1
_geom_bond_atom_site_label_2
_geom_bond_site_symmetry_1
_geom_bond_site_symmetry_2
C1 N1 1_555 1_555
N1 C2 1_555 1_555
C2 C3 1_555 1_555
C3 H1 1_555 1_555
C4 C1 1_555 1_555
H2 C4 1_555 1_555
O1 C1 1_555 1_555
O2 C2 1_555 1_555
C5 N1 1_555 1_555
H3 C5 1_555 1_555
H4 C5 1_555 1_555
C6 C5 1_555 1_555
C7 C6 1_555 1_555
H5 C7 1_555 1_555
C8 C7 1_555 1_555
H6 C8 1_555 1_555
C9 C8 1_555 1_555
C10 C9 1_555 1_555
H7 C10 1_555 1_555
C11 C6 1_555 1_555
H8 C11 1_555 1_555
F1 C9 1_555 1_555
C16 C3 1_555 1_555
H13 C16 1_555 1_555
N2 C16 1_555 1_555
C17 N2 1_555 1_555
H14 C17 1_555 1_555
H15 C17 1_555 1_555
C18 C17 1_555 1_555
H16 C18 1_555 1_555
H17 C18 1_555 1_555
C19 C18 1_555 1_555
H18 C19 1_555 1_555
C20 C4 1_555 1_555
H19 C20 1_555 1_555
C21 C16 1_555 1_555
C22 C21 1_555 1_555
H20 C22 1_555 1_555
C23 C22 1_555 1_555
H21 C23 1_555 1_555
C24 C23 1_555 1_555
C25 C24 1_555 1_555
H22 C25 1_555 1_555
C26 C21 1_555 1_555
H23 C26 1_555 1_555
C27 C24 1_555 1_555
N3 C27 1_555 1_555
F2 C19 1_555 1_555
C3 C4 1_555 1_555
C10 C11 1_555 1_555
N2 C20 1_555 1_555
C19 C20 1_555 1_555
C25 C26 1_555 1_555

#END
