
#######################################################################
#
#                 Cambridge Crystallographic Data Centre
#                                CCDC 
#
#######################################################################
#
# If this CIF has been generated from an entry in the Cambridge 
# Structural Database, then it will include bibliographic, chemical, 
# crystal, experimental, refinement or atomic coordinate data resulting 
# from the CCDC's data processing and validation procedures.
#
#######################################################################

data_YEKLAC
_chemical_formula_moiety         'C23 H18 F3 N3 O2'
_chemical_name_systematic        
(+)-4-((3aS,4R,8aR,8bR)-2-(4-fluorobenzyl)-8,8-difluoro-1,3-dioxodecahydropyrrolo[3,4-a]pyrrolizin-4-yl)benzonitrile
_symmetry_cell_setting           monoclinic
_symmetry_space_group_name_H-M   'C 2'
_symmetry_Int_Tables_number      5
_space_group_name_Hall           'C 2y'
loop_
_symmetry_equiv_pos_site_id
_symmetry_equiv_pos_as_xyz
1 x,y,z
2 -x,y,-z
3 1/2+x,1/2+y,z
4 1/2-x,1/2+y,-z
_cell_length_a                   21.7419(10)
_cell_length_b                   5.1347(2)
_cell_length_c                   17.4446(10)
_cell_angle_alpha                90
_cell_angle_beta                 97.038(2)
_cell_angle_gamma                90
_cell_volume                     1932.81
_exptl_crystal_colour            colorless
_chemical_melting_point          '159-161 deg.C'
_cell_formula_units_Z            4
loop_
_atom_site_label
_atom_site_type_symbol
_atom_site_fract_x
_atom_site_fract_y
_atom_site_fract_z
C1 C 0.56027(11) 0.4879(5) 0.63616(13)
N1 N 0.61811(10) 0.5855(4) 0.62625(11)
C2 C 0.63673(12) 0.7867(5) 0.67738(14)
C3 C 0.58882(11) 0.8170(4) 0.73205(13)
H1 H 0.5769 1.0021 0.7361
C4 C 0.53337(11) 0.6537(5) 0.69605(13)
H2 H 0.4990 0.7649 0.6724
O1 O 0.53714(9) 0.2970(4) 0.60321(11)
O2 O 0.68415(9) 0.9082(4) 0.67624(11)
C5 C 0.65608(13) 0.4892(5) 0.56915(15)
H3 H 0.6444 0.3084 0.5566
H4 H 0.6996 0.4894 0.5920
C6 C 0.65034(11) 0.6454(5) 0.49533(14)
C7 C 0.69015(12) 0.5857(5) 0.44099(15)
H5 H 0.7189 0.4495 0.4510
C8 C 0.68816(13) 0.7236(6) 0.37243(16)
H6 H 0.7144 0.6797 0.3354
C9 C 0.64690(12) 0.9259(5) 0.35984(14)
C10 C 0.60653(12) 0.9903(5) 0.41163(15)
H7 H 0.5783 1.1284 0.4014
C11 C 0.60824(12) 0.8475(5) 0.47921(15)
H8 H 0.5805 0.8880 0.5148
F1 F 0.64584(9) 1.0675(4) 0.29415(9)
C12 C 0.60670(11) 0.6971(4) 0.81388(13)
H9 H 0.5899 0.8116 0.8520
N2 N 0.57245(9) 0.4455(4) 0.81162(10)
C13 C 0.55311(12) 0.3820(5) 0.88802(13)
H10 H 0.5855 0.4318 0.9295
H11 H 0.5454 0.1947 0.8919
C14 C 0.49356(13) 0.5365(6) 0.89451(15)
H12 H 0.4630 0.4284 0.9166
H13 H 0.5023 0.6908 0.9271
C15 C 0.47012(11) 0.6136(5) 0.81290(14)
C16 C 0.51397(10) 0.4877(4) 0.76101(13)
H14 H 0.4968 0.3195 0.7405
C17 C 0.67491(11) 0.6530(4) 0.84055(13)
C18 C 0.70757(11) 0.4478(5) 0.81265(14)
H15 H 0.6876 0.3379 0.7743
C19 C 0.76898(11) 0.4031(5) 0.84052(14)
H16 H 0.7908 0.2649 0.8210
C20 C 0.79819(11) 0.5655(5) 0.89794(13)
C21 C 0.76647(12) 0.7739(5) 0.92590(15)
H17 H 0.7864 0.8846 0.9641
C22 C 0.70502(11) 0.8158(5) 0.89667(14)
H18 H 0.6834 0.9566 0.9151
C23 C 0.86041(12) 0.5110(6) 0.93268(15)
N3 N 0.90834(11) 0.4673(6) 0.96475(15)
F2 F 0.47094(7) 0.8804(3) 0.80526(9)
F3 F 0.41015(7) 0.5457(3) 0.79102(10)
loop_
_geom_bond_atom_site_label_1
_geom_bond_atom_site_label_2
_geom_bond_site_symmetry_1
_geom_bond_site_symmetry_2
C1 N1 1_555 1_555
N1 C2 1_555 1_555
C2 C3 1_555 1_555
C3 H1 1_555 1_555
C4 C1 1_555 1_555
H2 C4 1_555 1_555
O1 C1 1_555 1_555
O2 C2 1_555 1_555
C5 N1 1_555 1_555
H3 C5 1_555 1_555
H4 C5 1_555 1_555
C6 C5 1_555 1_555
C7 C6 1_555 1_555
H5 C7 1_555 1_555
C8 C7 1_555 1_555
H6 C8 1_555 1_555
C9 C8 1_555 1_555
C10 C9 1_555 1_555
H7 C10 1_555 1_555
C11 C6 1_555 1_555
H8 C11 1_555 1_555
F1 C9 1_555 1_555
C12 C3 1_555 1_555
H9 C12 1_555 1_555
N2 C12 1_555 1_555
C13 N2 1_555 1_555
H10 C13 1_555 1_555
H11 C13 1_555 1_555
C14 C13 1_555 1_555
H12 C14 1_555 1_555
H13 C14 1_555 1_555
C15 C14 1_555 1_555
C16 C4 1_555 1_555
H14 C16 1_555 1_555
C17 C12 1_555 1_555
C18 C17 1_555 1_555
H15 C18 1_555 1_555
C19 C18 1_555 1_555
H16 C19 1_555 1_555
C20 C19 1_555 1_555
C21 C20 1_555 1_555
H17 C21 1_555 1_555
C22 C17 1_555 1_555
H18 C22 1_555 1_555
C23 C20 1_555 1_555
N3 C23 1_555 1_555
F2 C15 1_555 1_555
F3 C15 1_555 1_555
C3 C4 1_555 1_555
C10 C11 1_555 1_555
N2 C16 1_555 1_555
C15 C16 1_555 1_555
C21 C22 1_555 1_555

#END
