
#######################################################################
#
#                 Cambridge Crystallographic Data Centre
#                                CCDC 
#
#######################################################################
#
# If this CIF has been generated from an entry in the Cambridge 
# Structural Database, then it will include bibliographic, chemical, 
# crystal, experimental, refinement or atomic coordinate data resulting 
# from the CCDC's data processing and validation procedures.
#
#######################################################################

data_YEKYIX
_chemical_formula_moiety         'C11 H21 B10 N1'
_chemical_name_systematic        
1-(2,6-Dimethylphenyliminomethyl)-1,2-dicarba-closo-dodecaborane
_symmetry_cell_setting           monoclinic
_symmetry_space_group_name_H-M   'P 21/c'
_symmetry_Int_Tables_number      14
_space_group_name_Hall           '-P 2ybc'
loop_
_symmetry_equiv_pos_site_id
_symmetry_equiv_pos_as_xyz
1 x,y,z
2 -x,1/2+y,1/2-z
3 -x,-y,-z
4 x,1/2-y,1/2+z
_cell_length_a                   7.7747(12)
_cell_length_b                   18.751(3)
_cell_length_c                   11.8701(18)
_cell_angle_alpha                90
_cell_angle_beta                 96.696(3)
_cell_angle_gamma                90
_cell_volume                     1718.66
_exptl_crystal_colour            colorless
_exptl_crystal_description       block
_chemical_melting_point          104-105deg.C
_cell_formula_units_Z            4
_exptl_crystal_recrystallization_method dichloromethane/hexane
loop_
_atom_site_label
_atom_site_type_symbol
_atom_site_fract_x
_atom_site_fract_y
_atom_site_fract_z
N1 N 0.4150(3) 0.59451(10) 0.46130(17)
B1 B 0.0852(4) 0.61494(18) 0.2603(2)
H1 H 0.0050 0.5990 0.3265
B2 B 0.1371(4) 0.70500(17) 0.2354(2)
H2 H 0.0893 0.7484 0.2858
B3 B 0.3443(4) 0.70802(15) 0.1905(2)
H3 H 0.4312 0.7536 0.2119
B4 B 0.4260(4) 0.62018(16) 0.1863(2)
H4 H 0.5646 0.6077 0.2050
B5 B 0.0803(5) 0.56869(19) 0.1304(2)
H5 H -0.0048 0.5223 0.1118
B6 B -0.0002(4) 0.65693(19) 0.1333(3)
H6 H -0.1391 0.6691 0.1156
B7 B 0.1602(4) 0.71438(17) 0.0900(2)
H7 H 0.1260 0.7642 0.0438
B8 B 0.3380(4) 0.66186(15) 0.0604(2)
H8 H 0.4202 0.6773 -0.0049
B9 B 0.2879(5) 0.57195(17) 0.0852(2)
H9 H 0.3370 0.5277 0.0373
B10 B 0.1246(4) 0.63009(18) 0.0243(3)
H10 H 0.0671 0.6247 -0.0645
C1 C 0.2930(3) 0.64641(11) 0.28432(18)
C2 C 0.2610(3) 0.56934(12) 0.22449(18)
H11 H 0.2970 0.5202 0.2722
C3 C 0.3707(3) 0.64861(14) 0.4049(2)
H12 H 0.3871 0.6929 0.4399
C4 C 0.4928(3) 0.60323(12) 0.5760(2)
C5 C 0.4005(4) 0.57996(13) 0.6615(2)
C6 C 0.4775(5) 0.58746(14) 0.7729(2)
H13 H 0.4168 0.5733 0.8322
C7 C 0.6397(5) 0.61506(17) 0.7969(3)
H14 H 0.6892 0.6195 0.8718
C8 C 0.7289(4) 0.63619(15) 0.7104(3)
H15 H 0.8400 0.6545 0.7274
C9 C 0.6585(4) 0.63108(14) 0.5975(2)
C10 C 0.2214(4) 0.54871(17) 0.6352(2)
H16 H 0.1396 0.5864 0.6158
H17 H 0.1907 0.5237 0.7005
H18 H 0.2200 0.5162 0.5726
C11 C 0.7616(4) 0.65509(17) 0.5044(2)
H19 H 0.7174 0.6999 0.4746
H20 H 0.7521 0.6201 0.4449
H21 H 0.8810 0.6605 0.5344
loop_
_geom_bond_atom_site_label_1
_geom_bond_atom_site_label_2
_geom_bond_site_symmetry_1
_geom_bond_site_symmetry_2
N1 C3 1_555 1_555
B1 H1 1_555 1_555
B2 B1 1_555 1_555
H2 B2 1_555 1_555
B3 B2 1_555 1_555
H3 B3 1_555 1_555
B4 B3 1_555 1_555
H4 B4 1_555 1_555
B5 B1 1_555 1_555
H5 B5 1_555 1_555
B6 B1 1_555 1_555
H6 B6 1_555 1_555
B7 B2 1_555 1_555
H7 B7 1_555 1_555
B8 B3 1_555 1_555
H8 B8 1_555 1_555
B9 B4 1_555 1_555
H9 B9 1_555 1_555
B10 B5 1_555 1_555
H10 B10 1_555 1_555
C1 B1 1_555 1_555
C2 B1 1_555 1_555
H11 C2 1_555 1_555
C3 C1 1_555 1_555
H12 C3 1_555 1_555
C4 N1 1_555 1_555
C5 C4 1_555 1_555
C6 C5 1_555 1_555
H13 C6 1_555 1_555
C7 C6 1_555 1_555
H14 C7 1_555 1_555
C8 C7 1_555 1_555
H15 C8 1_555 1_555
C9 C4 1_555 1_555
C10 C5 1_555 1_555
H16 C10 1_555 1_555
H17 C10 1_555 1_555
H18 C10 1_555 1_555
C11 C9 1_555 1_555
H19 C11 1_555 1_555
H20 C11 1_555 1_555
H21 C11 1_555 1_555
B2 B6 1_555 1_555
B2 C1 1_555 1_555
B3 B7 1_555 1_555
B3 C1 1_555 1_555
B4 B8 1_555 1_555
B4 C1 1_555 1_555
B4 C2 1_555 1_555
B5 B6 1_555 1_555
B5 B9 1_555 1_555
B5 C2 1_555 1_555
B6 B7 1_555 1_555
B6 B10 1_555 1_555
B7 B8 1_555 1_555
B7 B10 1_555 1_555
B8 B9 1_555 1_555
B8 B10 1_555 1_555
B9 B10 1_555 1_555
B9 C2 1_555 1_555
C1 C2 1_555 1_555
C8 C9 1_555 1_555

#END
