
#######################################################################
#
#                 Cambridge Crystallographic Data Centre
#                                CCDC 
#
#######################################################################
#
# If this CIF has been generated from an entry in the Cambridge 
# Structural Database, then it will include bibliographic, chemical, 
# crystal, experimental, refinement or atomic coordinate data resulting 
# from the CCDC's data processing and validation procedures.
#
#######################################################################

data_YEMKIL
_chemical_formula_moiety         'C17 H18 Br1 N1 O3 S1'
_chemical_name_systematic        
(2R*,3S*)-2-(4-bromophenyl)-1-tosylpyrrolidin-3-ol
_symmetry_cell_setting           triclinic
_symmetry_space_group_name_H-M   'P -1'
_symmetry_Int_Tables_number      2
_space_group_name_Hall           '-P 1'
loop_
_symmetry_equiv_pos_site_id
_symmetry_equiv_pos_as_xyz
1 x,y,z
2 -x,-y,-z
_cell_length_a                   7.4856(4)
_cell_length_b                   9.7383(5)
_cell_length_c                   11.5200(6)
_cell_angle_alpha                95.766(2)
_cell_angle_beta                 96.224(2)
_cell_angle_gamma                92.306(3)
_cell_volume                     829.489
_exptl_crystal_colour            colorless
_exptl_crystal_description       needle
_cell_formula_units_Z            2
loop_
_atom_site_label
_atom_site_type_symbol
_atom_site_fract_x
_atom_site_fract_y
_atom_site_fract_z
N1 N 0.8233(3) 0.2355(2) -0.16962(19)
C1 C 0.7008(3) 0.2917(3) -0.0847(2)
C2 C 0.5132(4) 0.2442(3) -0.1463(3)
C3 C 0.5460(4) 0.1092(3) -0.2177(3)
C4 C 0.7209(4) 0.1449(3) -0.2683(3)
C5 C 0.7396(3) 0.2408(3) 0.0351(2)
C6 C 0.8227(4) 0.1171(3) 0.0500(3)
C7 C 0.8578(4) 0.0725(3) 0.1615(3)
C8 C 0.8105(4) 0.1545(3) 0.2578(2)
C9 C 0.7238(4) 0.2770(3) 0.2446(3)
C10 C 0.6880(4) 0.3187(3) 0.1335(3)
Br1 Br 0.87007(4) 0.10015(3) 0.41018(2)
O1 O 0.4593(3) 0.3466(2) -0.2216(2)
S1 S 0.98594(8) 0.33867(7) -0.19877(6)
O2 O 1.0794(3) 0.3974(2) -0.08894(18)
O3 O 1.0827(3) 0.2579(2) -0.28134(18)
C11 C 0.8869(3) 0.4723(3) -0.2715(2)
C12 C 0.8406(4) 0.5912(3) -0.2072(2)
C13 C 0.7531(4) 0.6916(3) -0.2664(3)
C14 C 0.7107(4) 0.6749(3) -0.3880(3)
C15 C 0.7599(4) 0.5544(3) -0.4507(3)
C16 C 0.8469(4) 0.4528(3) -0.3939(3)
C17 C 0.6186(4) 0.7838(3) -0.4520(3)
H1 H 0.353(7) 0.316(5) -0.252(4)
H2 H 0.7154 0.3944 -0.0665
H3 H 0.4182 0.2316 -0.0930
H4 H 0.4454 0.0831 -0.2816
H5 H 0.5614 0.0324 -0.1667
H6 H 0.6971 0.1953 -0.3394
H7 H 0.7865 0.0600 -0.2887
H8 H 0.8575 0.0595 -0.0201
H9 H 0.9160 -0.0168 0.1716
H10 H 0.6879 0.3341 0.3146
H11 H 0.6243 0.4058 0.1235
H12 H 0.8696 0.6046 -0.1199
H13 H 0.7199 0.7778 -0.2206
H14 H 0.7318 0.5414 -0.5381
H15 H 0.8807 0.3668 -0.4396
H16 H 0.6000 0.7527 -0.5380
H17 H 0.6949 0.8718 -0.4380
H18 H 0.4994 0.7996 -0.4226
loop_
_geom_bond_atom_site_label_1
_geom_bond_atom_site_label_2
_geom_bond_site_symmetry_1
_geom_bond_site_symmetry_2
N1 C1 1_555 1_555
C1 C2 1_555 1_555
C2 C3 1_555 1_555
C3 C4 1_555 1_555
C4 N1 1_555 1_555
C5 C1 1_555 1_555
C6 C5 1_555 1_555
C7 C6 1_555 1_555
C8 C7 1_555 1_555
C9 C8 1_555 1_555
C10 C5 1_555 1_555
Br1 C8 1_555 1_555
O1 C2 1_555 1_555
S1 N1 1_555 1_555
O2 S1 1_555 1_555
O3 S1 1_555 1_555
C11 S1 1_555 1_555
C12 C11 1_555 1_555
C13 C12 1_555 1_555
C14 C13 1_555 1_555
C15 C14 1_555 1_555
C16 C11 1_555 1_555
C17 C14 1_555 1_555
H1 O1 1_555 1_555
H2 C1 1_555 1_555
H3 C2 1_555 1_555
H4 C3 1_555 1_555
H5 C3 1_555 1_555
H6 C4 1_555 1_555
H7 C4 1_555 1_555
H8 C6 1_555 1_555
H9 C7 1_555 1_555
H10 C9 1_555 1_555
H11 C10 1_555 1_555
H12 C12 1_555 1_555
H13 C13 1_555 1_555
H14 C15 1_555 1_555
H15 C16 1_555 1_555
H16 C17 1_555 1_555
H17 C17 1_555 1_555
H18 C17 1_555 1_555
C9 C10 1_555 1_555
C15 C16 1_555 1_555

#END
