
#######################################################################
#
#                 Cambridge Crystallographic Data Centre
#                                CCDC 
#
#######################################################################
#
# If this CIF has been generated from an entry in the Cambridge 
# Structural Database, then it will include bibliographic, chemical, 
# crystal, experimental, refinement or atomic coordinate data resulting 
# from the CCDC's data processing and validation procedures.
#
#######################################################################

data_YEMKOT
_chemical_formula_moiety         'C14 H22 O2,0.5(H2 O1)'
_chemical_name_systematic        
'1,1-dimethyl-6-methylenedecahydro-2bH-cyclobuta[a]indene-2b,5-diol hemihydrate'
_symmetry_cell_setting           monoclinic
_symmetry_space_group_name_H-M   'C 2'
_symmetry_Int_Tables_number      5
_space_group_name_Hall           'C 2y'
loop_
_symmetry_equiv_pos_site_id
_symmetry_equiv_pos_as_xyz
1 x,y,z
2 -x,y,-z
3 1/2+x,1/2+y,z
4 1/2-x,1/2+y,-z
_cell_length_a                   11.4685(14)
_cell_length_b                   7.2540(9)
_cell_length_c                   16.254(3)
_cell_angle_alpha                90
_cell_angle_beta                 108.730(2)
_cell_angle_gamma                90
_cell_volume                     1280.6
_exptl_crystal_colour            colorless
_exptl_crystal_description       prism
_cell_formula_units_Z            4
loop_
_atom_site_label
_atom_site_type_symbol
_atom_site_fract_x
_atom_site_fract_y
_atom_site_fract_z
O1 O 0.0000 0.83396(15) 0.5000
H1 H 0.0530 0.9116 0.5361
H1A H -0.0530 0.9116 0.4639
O2 O -0.09562(7) 0.57633(11) 0.59195(5)
H2 H -0.0637 0.6509 0.5659
O3 O 0.17217(6) 0.05822(11) 0.61539(5)
H3 H 0.2414 0.0641 0.6083
C1 C 0.32768(11) -0.1670(2) 0.94677(7)
H4 H 0.3424 -0.3002 0.9508
H5 H 0.3150 -0.1229 1.0003
H6 H 0.3990 -0.1043 0.9388
C2 C 0.21315(10) -0.12558(16) 0.86937(7)
C3 C 0.20447(9) 0.08612(15) 0.84972(6)
H7 H 0.2573 0.1632 0.8985
C4 C 0.07580(10) 0.16912(15) 0.80414(7)
H8 H 0.0754 0.3026 0.8167
H9 H 0.0130 0.1077 0.8245
C5 C 0.04818(9) 0.13669(14) 0.70556(6)
H10 H 0.0175 0.0075 0.6921
C6 C -0.04339(9) 0.26437(14) 0.64457(6)
C7 C -0.00163(9) 0.46347(15) 0.64863(6)
H11 H 0.0157 0.5090 0.7095
C8 C 0.11872(9) 0.46664(15) 0.62667(6)
H12 H 0.1042 0.4167 0.5675
H13 H 0.1482 0.5952 0.6278
C9 C 0.21643(9) 0.35044(15) 0.69286(6)
H14 H 0.2328 0.4046 0.7514
H15 H 0.2940 0.3550 0.6785
C10 C 0.17742(9) 0.14853(14) 0.69475(6)
C11 C 0.23935(10) -0.15843(16) 0.78242(7)
H16 H 0.3133 -0.2347 0.7887
H17 H 0.1675 -0.2061 0.7353
C12 C 0.26142(9) 0.05111(14) 0.77554(6)
H18 H 0.3502 0.0862 0.7910
C13 C 0.10039(11) -0.22076(18) 0.87938(8)
H19 H 0.0850 -0.1744 0.9316
H20 H 0.1147 -0.3541 0.8847
H21 H 0.0288 -0.1951 0.8283
C14 C -0.14546(9) 0.20317(16) 0.58547(7)
H22 H -0.1628 0.0748 0.5806
H23 H -0.2010 0.2878 0.5481
loop_
_geom_bond_atom_site_label_1
_geom_bond_atom_site_label_2
_geom_bond_site_symmetry_1
_geom_bond_site_symmetry_2
O1 H1 1_555 1_555
O2 H2 1_555 1_555
O3 H3 1_555 1_555
C1 H4 1_555 1_555
H5 C1 1_555 1_555
H6 C1 1_555 1_555
C2 C1 1_555 1_555
C3 C2 1_555 1_555
H7 C3 1_555 1_555
C4 C3 1_555 1_555
H8 C4 1_555 1_555
H9 C4 1_555 1_555
C5 C4 1_555 1_555
H10 C5 1_555 1_555
C6 C5 1_555 1_555
C7 O2 1_555 1_555
H11 C7 1_555 1_555
C8 C7 1_555 1_555
H12 C8 1_555 1_555
H13 C8 1_555 1_555
C9 C8 1_555 1_555
H14 C9 1_555 1_555
H15 C9 1_555 1_555
C10 O3 1_555 1_555
C11 C2 1_555 1_555
H16 C11 1_555 1_555
H17 C11 1_555 1_555
C12 C3 1_555 1_555
H18 C12 1_555 1_555
C13 C2 1_555 1_555
H19 C13 1_555 1_555
H20 C13 1_555 1_555
H21 C13 1_555 1_555
C14 C6 1_555 1_555
H22 C14 1_555 1_555
H23 C14 1_555 1_555
H1A O1 1_555 1_555
C5 C10 1_555 1_555
C6 C7 1_555 1_555
C9 C10 1_555 1_555
C10 C12 1_555 1_555
C11 C12 1_555 1_555

#END
