
#######################################################################
#
#                 Cambridge Crystallographic Data Centre
#                                CCDC 
#
#######################################################################
#
# If this CIF has been generated from an entry in the Cambridge 
# Structural Database, then it will include bibliographic, chemical, 
# crystal, experimental, refinement or atomic coordinate data resulting 
# from the CCDC's data processing and validation procedures.
#
#######################################################################

data_YENGAB
_chemical_formula_moiety         'C7 H6 Br2 O2 S1'
_chemical_name_systematic        
6,8-Dibromo-3,4-dihydro-2H-thieno[3,4-b][1,4]dioxepine
_symmetry_cell_setting           orthorhombic
_symmetry_space_group_name_H-M   'P n a 21'
_symmetry_Int_Tables_number      33
_space_group_name_Hall           'P 2c -2n'
loop_
_symmetry_equiv_pos_site_id
_symmetry_equiv_pos_as_xyz
1 x,y,z
2 -x,-y,1/2+z
3 1/2+x,1/2-y,z
4 1/2-x,1/2+y,1/2+z
_cell_length_a                   24.622(5)
_cell_length_b                   4.4172(9)
_cell_length_c                   16.873(3)
_cell_angle_alpha                90
_cell_angle_beta                 90
_cell_angle_gamma                90
_cell_volume                     1835.11
_exptl_crystal_colour            colorless
_exptl_crystal_description       stick
_cell_formula_units_Z            8
loop_
_atom_site_label
_atom_site_type_symbol
_atom_site_fract_x
_atom_site_fract_y
_atom_site_fract_z
S1 S 0.18183(15) -0.0759(9) 0.5061(2)
C1 C 0.2406(6) 0.141(4) 0.4890(7)
Br1 Br 0.25449(7) 0.2764(4) 0.38628(9)
C2 C 0.2000(7) -0.119(3) 0.6039(9)
Br2 Br 0.15598(7) -0.3196(4) 0.67504(9)
C3 C 0.2711(6) 0.166(4) 0.5523(9)
C4 C 0.2484(6) 0.017(3) 0.6225(7)
O1 O 0.3187(4) 0.319(2) 0.5524(6)
O2 O 0.2711(4) 0.007(2) 0.6943(5)
C5 C 0.3608(5) 0.196(4) 0.6005(8)
H1 H 0.3964 0.2624 0.5797
H2 H 0.3595 -0.0277 0.5978
C6 C 0.3555(6) 0.296(3) 0.6866(9)
H3 H 0.3795 0.1679 0.7198
H4 H 0.3682 0.5075 0.6914
C7 C 0.2989(7) 0.275(4) 0.7179(10)
H5 H 0.3001 0.2828 0.7765
H6 H 0.2780 0.4529 0.6993
S2 S 0.06156(16) 0.4045(9) 0.5191(2)
C8 C 0.0398(7) 0.363(4) 0.4224(9)
Br3 Br 0.08409(7) 0.1703(4) 0.34736(9)
C9 C 0.0038(6) 0.611(4) 0.5396(9)
Br4 Br -0.00922(7) 0.7412(4) 0.64354(9)
C10 C -0.0077(6) 0.508(3) 0.4075(8)
C11 C -0.0292(6) 0.654(4) 0.4765(9)
O3 O -0.0323(4) 0.497(2) 0.3341(5)
O4 O -0.0754(4) 0.815(2) 0.4794(6)
C12 C -0.0587(7) 0.771(3) 0.3115(9)
H7 H -0.0608 0.7801 0.2530
H8 H -0.0365 0.9449 0.3296
C13 C -0.1152(6) 0.800(3) 0.3454(10)
H9 H -0.1269 1.0142 0.3420
H10 H -0.1406 0.6779 0.3131
C14 C -0.1184(6) 0.698(3) 0.4302(9)
H11 H -0.1537 0.7620 0.4525
H12 H -0.1172 0.4736 0.4316
loop_
_geom_bond_atom_site_label_1
_geom_bond_atom_site_label_2
_geom_bond_site_symmetry_1
_geom_bond_site_symmetry_2
S1 C1 1_555 1_555
C1 Br1 1_555 1_555
C2 S1 1_555 1_555
Br2 C2 1_555 1_555
C3 C1 1_555 1_555
C4 C2 1_555 1_555
O1 C3 1_555 1_555
O2 C4 1_555 1_555
C5 O1 1_555 1_555
H1 C5 1_555 1_555
H2 C5 1_555 1_555
C6 C5 1_555 1_555
H3 C6 1_555 1_555
H4 C6 1_555 1_555
C7 O2 1_555 1_555
H5 C7 1_555 1_555
H6 C7 1_555 1_555
S2 C8 1_555 1_555
C8 Br3 1_555 1_555
C9 S2 1_555 1_555
Br4 C9 1_555 1_555
C10 C8 1_555 1_555
C11 C9 1_555 1_555
O3 C10 1_555 1_555
O4 C11 1_555 1_555
C12 O3 1_555 1_555
H7 C12 1_555 1_555
H8 C12 1_555 1_555
C13 C12 1_555 1_555
H9 C13 1_555 1_555
H10 C13 1_555 1_555
C14 O4 1_555 1_555
H11 C14 1_555 1_555
H12 C14 1_555 1_555
C3 C4 1_555 1_555
C6 C7 1_555 1_555
C10 C11 1_555 1_555
C13 C14 1_555 1_555

#END
