
#######################################################################
#
#                 Cambridge Crystallographic Data Centre
#                                CCDC 
#
#######################################################################
#
# If this CIF has been generated from an entry in the Cambridge 
# Structural Database, then it will include bibliographic, chemical, 
# crystal, experimental, refinement or atomic coordinate data resulting 
# from the CCDC's data processing and validation procedures.
#
#######################################################################

data_YENTUG
_chemical_formula_moiety         'C26 H46 N4 O12 S1'
_chemical_name_systematic        
2,2'-Sulfonyl-bis(3-(t-butoxycarbonylmethylamino)-(E,E)-N-(2,2-dimethoxyethyl)propenamide)
_symmetry_cell_setting           monoclinic
_symmetry_space_group_name_H-M   'P 21/c'
_symmetry_Int_Tables_number      14
_space_group_name_Hall           '-P 2ybc'
loop_
_symmetry_equiv_pos_site_id
_symmetry_equiv_pos_as_xyz
1 x,y,z
2 -x,1/2+y,1/2-z
3 -x,-y,-z
4 x,1/2-y,1/2+z
_cell_length_a                   12.410(4)
_cell_length_b                   23.660(10)
_cell_length_c                   11.471(3)
_cell_angle_alpha                90
_cell_angle_beta                 93.24(3)
_cell_angle_gamma                90
_cell_volume                     3362.74
_exptl_crystal_colour            white
_chemical_melting_point          85-86deg.C
_cell_formula_units_Z            4
loop_
_atom_site_label
_atom_site_type_symbol
_atom_site_fract_x
_atom_site_fract_y
_atom_site_fract_z
S1 S 0.4615(2) 0.3603(1) 0.0013(2)
O1 O 0.4173(4) 0.4163(2) -0.0208(4)
O2 O 0.4272(4) 0.3318(2) 0.1040(4)
C1 C 0.4296(6) 0.3171(4) -0.1178(7)
C2 C 0.4470(6) 0.3349(4) -0.2371(8)
O3 O 0.4438(4) 0.3007(3) -0.3191(5)
N1 N 0.4662(5) 0.3899(3) -0.2571(6)
C3 C 0.5007(7) 0.4132(4) -0.3663(7)
C4 C 0.6032(8) 0.4467(4) -0.3447(9)
O4 O 0.6248(5) 0.4732(3) -0.4482(6)
C5 C 0.7287(9) 0.4972(5) -0.4487(11)
O5 O 0.5978(5) 0.4851(3) -0.2507(6)
C6 C 0.5183(9) 0.5279(5) -0.2681(9)
C7 C 0.6017(6) 0.3674(3) 0.0119(6)
C8 C 0.6743(9) 0.3188(4) 0.0391(8)
O6 O 0.7721(6) 0.3233(3) 0.0286(6)
N2 N 0.6313(5) 0.2705(3) 0.0757(6)
C9 C 0.6996(7) 0.2229(4) 0.1054(8)
C10 C 0.7367(8) 0.1936(4) -0.0014(9)
O7 O 0.8082(6) 0.1500(3) 0.0358(6)
C11 C 0.8806(10) 0.1343(6) -0.0428(10)
O8 O 0.6414(6) 0.1676(3) -0.0534(7)
C12 C 0.6419(10) 0.1582(7) -0.1656(11)
C13 C 0.3937(6) 0.2641(4) -0.0934(7)
N3 N 0.3718(5) 0.2230(3) -0.1676(5)
C14 C 0.3240(7) 0.1700(3) -0.1331(7)
C15 C 0.2082(8) 0.1639(4) -0.1764(10)
O9 O 0.1423(6) 0.1402(3) -0.1232(6)
O10 O 0.1921(5) 0.1866(3) -0.2804(6)
C16 C 0.0887(9) 0.1869(5) -0.3458(10)
C17 C 0.0116(9) 0.2234(5) -0.2857(10)
C18 C 0.0447(9) 0.1275(5) -0.3635(9)
C19 C 0.1144(9) 0.2144(5) -0.4591(10)
C20 C 0.6418(6) 0.4203(3) -0.0067(6)
N4 N 0.7457(5) 0.4323(3) -0.0085(6)
C21 C 0.7893(7) 0.4895(3) -0.0020(8)
C22 C 0.8085(9) 0.5070(4) 0.1234(10)
O11 O 0.7577(6) 0.4917(3) 0.2020(7)
O12 O 0.8904(5) 0.5435(3) 0.1322(5)
C23 C 0.9245(8) 0.5686(4) 0.2457(8)
C24 C 0.8366(9) 0.6053(4) 0.2894(9)
C25 C 0.9602(8) 0.5234(5) 0.3292(9)
C26 C 1.0212(8) 0.6047(4) 0.2160(8)
loop_
_geom_bond_atom_site_label_1
_geom_bond_atom_site_label_2
_geom_bond_site_symmetry_1
_geom_bond_site_symmetry_2
S1 O1 1_555 1_555
O2 S1 1_555 1_555
C1 S1 1_555 1_555
C2 C1 1_555 1_555
O3 C2 1_555 1_555
N1 C2 1_555 1_555
C3 N1 1_555 1_555
C4 C3 1_555 1_555
O4 C4 1_555 1_555
C5 O4 1_555 1_555
O5 C4 1_555 1_555
C6 O5 1_555 1_555
C7 S1 1_555 1_555
C8 C7 1_555 1_555
O6 C8 1_555 1_555
N2 C8 1_555 1_555
C9 N2 1_555 1_555
C10 C9 1_555 1_555
O7 C10 1_555 1_555
C11 O7 1_555 1_555
O8 C10 1_555 1_555
C12 O8 1_555 1_555
C13 C1 1_555 1_555
N3 C13 1_555 1_555
C14 N3 1_555 1_555
C15 C14 1_555 1_555
O9 C15 1_555 1_555
O10 C15 1_555 1_555
C16 O10 1_555 1_555
C17 C16 1_555 1_555
C18 C16 1_555 1_555
C19 C16 1_555 1_555
C20 C7 1_555 1_555
N4 C20 1_555 1_555
C21 N4 1_555 1_555
C22 C21 1_555 1_555
O11 C22 1_555 1_555
O12 C22 1_555 1_555
C23 O12 1_555 1_555
C24 C23 1_555 1_555
C25 C23 1_555 1_555
C26 C23 1_555 1_555

#END
