
#######################################################################
#
#                 Cambridge Crystallographic Data Centre
#                                CCDC 
#
#######################################################################
#
# If this CIF has been generated from an entry in the Cambridge 
# Structural Database, then it will include bibliographic, chemical, 
# crystal, experimental, refinement or atomic coordinate data resulting 
# from the CCDC's data processing and validation procedures.
#
#######################################################################

data_YENTOA
_chemical_formula_moiety         'C22 H38 N4 O10 S1'
_chemical_name_systematic        
2,2'-Sulfonyl-bis(3-(t-butoxycarbonylmethylamino)-(E,E)-N-(2-hydroxyethyl)propenamide)
_symmetry_cell_setting           monoclinic
_symmetry_space_group_name_H-M   'P 21/n'
_symmetry_Int_Tables_number      14
_space_group_name_Hall           '-P 2yn'
loop_
_symmetry_equiv_pos_site_id
_symmetry_equiv_pos_as_xyz
1 x,y,z
2 1/2-x,1/2+y,1/2-z
3 -x,-y,-z
4 1/2+x,1/2-y,1/2+z
_cell_length_a                   14.910(3)
_cell_length_b                   10.759(2)
_cell_length_c                   17.702(4)
_cell_angle_alpha                90
_cell_angle_beta                 105.60(2)
_cell_angle_gamma                90
_cell_volume                     2735.09
_chemical_melting_point          151-152deg.C
_cell_formula_units_Z            4
loop_
_atom_site_label
_atom_site_type_symbol
_atom_site_fract_x
_atom_site_fract_y
_atom_site_fract_z
S1 S 0.2856(1) 0.0027(1) 0.3035(1)
O1 O 0.2585(1) 0.1322(2) 0.2996(1)
O2 O 0.2139(1) -0.0870(2) 0.2697(1)
C1 C 0.3330(2) -0.0337(2) 0.4019(1)
C2 C 0.3544(2) 0.0646(3) 0.4535(2)
N1 N 0.3964(2) 0.0591(2) 0.5289(1)
C3 C 0.4115(2) 0.1664(3) 0.5797(2)
C4 C 0.3283(2) 0.2003(3) 0.6082(2)
O3 O 0.2520(2) 0.1606(2) 0.5812(2)
O4 O 0.3539(1) 0.2849(2) 0.6647(1)
C5 C 0.2866(2) 0.3448(3) 0.7010(1)
C6 C 0.3491(3) 0.4244(3) 0.7633(2)
C7 C 0.2201(3) 0.4218(5) 0.6402(3)
C8 C 0.2398(4) 0.2473(4) 0.7388(3)
C9 C 0.3738(2) -0.0160(2) 0.2575(1)
C10 C 0.3663(2) -0.1109(3) 0.2046(2)
N2 N 0.4293(2) -0.1402(2) 0.1677(1)
C11 C 0.4151(2) -0.2282(3) 0.1036(2)
C12 C 0.4951(2) -0.2151(3) 0.0673(2)
O5 O 0.5555(2) -0.1397(2) 0.0893(1)
O6 O 0.4889(1) -0.2969(2) 0.0104(1)
C13 C 0.5594(2) -0.2991(3) -0.0357(2)
C14 C 0.5558(3) -0.1773(4) -0.0789(3)
C15 C 0.6533(3) -0.3293(5) 0.0173(3)
C16 C 0.5222(4) -0.4028(4) -0.0940(3)
C17 C 0.3569(2) -0.1617(2) 0.4274(2)
O7 O 0.4053(1) -0.1813(2) 0.4959(1)
N3 N 0.3279(2) -0.2557(2) 0.3781(2)
C18 C 0.3541(2) -0.3848(3) 0.3977(2)
C19 C 0.2978(2) -0.4464(3) 0.4459(2)
O8 O 0.3165(2) -0.5753(2) 0.4562(2)
C20 C 0.4566(2) 0.0657(3) 0.2756(2)
O9 O 0.5311(1) 0.0291(2) 0.2658(1)
N4 N 0.4496(2) 0.1814(2) 0.3017(1)
C21 C 0.5274(2) 0.2664(3) 0.3182(2)
C22 C 0.5053(3) 0.3830(3) 0.3561(2)
O10 O 0.4785(1) 0.3571(2) 0.4257(1)
loop_
_geom_bond_atom_site_label_1
_geom_bond_atom_site_label_2
_geom_bond_site_symmetry_1
_geom_bond_site_symmetry_2
S1 O1 1_555 1_555
O2 S1 1_555 1_555
C1 S1 1_555 1_555
C2 C1 1_555 1_555
N1 C2 1_555 1_555
C3 N1 1_555 1_555
C4 C3 1_555 1_555
O3 C4 1_555 1_555
O4 C4 1_555 1_555
C5 O4 1_555 1_555
C6 C5 1_555 1_555
C7 C5 1_555 1_555
C8 C5 1_555 1_555
C9 S1 1_555 1_555
C10 C9 1_555 1_555
N2 C10 1_555 1_555
C11 N2 1_555 1_555
C12 C11 1_555 1_555
O5 C12 1_555 1_555
O6 C12 1_555 1_555
C13 O6 1_555 1_555
C14 C13 1_555 1_555
C15 C13 1_555 1_555
C16 C13 1_555 1_555
C17 C1 1_555 1_555
O7 C17 1_555 1_555
N3 C17 1_555 1_555
C18 N3 1_555 1_555
C19 C18 1_555 1_555
O8 C19 1_555 1_555
C20 C9 1_555 1_555
O9 C20 1_555 1_555
N4 C20 1_555 1_555
C21 N4 1_555 1_555
C22 C21 1_555 1_555
O10 C22 1_555 1_555

#END
