
#######################################################################
#
#                 Cambridge Crystallographic Data Centre
#                                CCDC 
#
#######################################################################
#
# If this CIF has been generated from an entry in the Cambridge 
# Structural Database, then it will include bibliographic, chemical, 
# crystal, experimental, refinement or atomic coordinate data resulting 
# from the CCDC's data processing and validation procedures.
#
#######################################################################

data_YEPFIL
_chemical_formula_moiety         'C24 H28 N2 O6'
_chemical_name_systematic        
'diethyl [2-(diphenylamino)-2-(2-oxo-1,3-oxazolidin-3-yl)ethyl]propanedioate'
_symmetry_cell_setting           monoclinic
_symmetry_space_group_name_H-M   'P 21/c'
_symmetry_Int_Tables_number      14
_space_group_name_Hall           '-P 2ybc'
loop_
_symmetry_equiv_pos_site_id
_symmetry_equiv_pos_as_xyz
1 x,y,z
2 -x,1/2+y,1/2-z
3 -x,-y,-z
4 x,1/2-y,1/2+z
_cell_length_a                   11.672(2)
_cell_length_b                   9.7109(19)
_cell_length_c                   19.793(4)
_cell_angle_alpha                90
_cell_angle_beta                 91.335(3)
_cell_angle_gamma                90
_cell_volume                     2242.84
_exptl_crystal_colour            colorless
_exptl_crystal_description       tablet
_cell_formula_units_Z            4
_exptl_crystal_recrystallization_method 
'Re-crystallisation from solvent: dichloromethane/hexane'
loop_
_atom_site_label
_atom_site_type_symbol
_atom_site_fract_x
_atom_site_fract_y
_atom_site_fract_z
N1 N 0.43379(9) 0.34089(12) 0.30139(5)
C1 C 0.47297(11) 0.35098(13) 0.23497(6)
C2 C 0.40444(12) 0.31765(14) 0.17840(7)
H1 H 0.328688 0.284604 0.184171
C3 C 0.44694(14) 0.33277(16) 0.11362(7)
H2 H 0.399266 0.310373 0.075644
C4 C 0.55717(14) 0.37975(16) 0.10344(8)
H3 H 0.585445 0.389271 0.059064
C5 C 0.62519(12) 0.41250(16) 0.15923(8)
H4 H 0.701166 0.444391 0.153005
C6 C 0.58437(12) 0.39958(15) 0.22412(7)
H5 H 0.632303 0.423873 0.261700
C7 C 0.31418(10) 0.30724(13) 0.31391(6)
H6 H 0.294525 0.221615 0.288072
N2 N 0.23899(9) 0.41796(11) 0.28882(5)
C8 C 0.14959(12) 0.39287(15) 0.24545(7)
O1 O 0.11282(9) 0.28200(11) 0.22713(5)
O2 O 0.10247(9) 0.51300(11) 0.22398(5)
C9 C 0.16757(14) 0.62705(16) 0.25179(9)
H7 H 0.117836 0.687257 0.278850
H8 H 0.200742 0.682533 0.215121
C10 C 0.26260(13) 0.56451(14) 0.29641(8)
H9 H 0.339466 0.588520 0.279871
H10 H 0.256536 0.594380 0.344012
C11 C 0.29633(11) 0.27821(14) 0.38884(6)
H11 H 0.323791 0.358172 0.415687
H12 H 0.342947 0.197324 0.402582
C12 C 0.17089(10) 0.25051(13) 0.40487(6)
H13 H 0.136220 0.190698 0.368701
C13 C 0.10269(11) 0.38389(14) 0.40878(6)
O3 O 0.13660(8) 0.48398(10) 0.43962(5)
O4 O 0.00339(7) 0.37646(9) 0.37458(5)
C14 C -0.06811(12) 0.49981(14) 0.37627(8)
H14 H -0.022925 0.582012 0.364024
H15 H -0.098335 0.513573 0.422097
C15 C -0.16459(12) 0.47809(15) 0.32611(8)
H16 H -0.133595 0.467154 0.280830
H17 H -0.215998 0.557852 0.326571
H18 H -0.207263 0.395048 0.338124
C16 C 0.16411(11) 0.17633(14) 0.47274(7)
O5 O 0.24193(9) 0.11264(12) 0.49863(5)
O6 O 0.06068(8) 0.18823(10) 0.49912(5)
C17 C 0.04713(12) 0.12469(15) 0.56556(7)
H19 H 0.100650 0.167074 0.599062
H20 H 0.063580 0.024807 0.563271
C18 C -0.07489(12) 0.14822(16) 0.58560(7)
H21 H -0.090899 0.247279 0.586060
H22 H -0.086379 0.109980 0.630760
H23 H -0.126866 0.102731 0.553036
C19 C 0.51770(11) 0.33587(14) 0.35598(6)
C20 C 0.54000(12) 0.45162(16) 0.39504(7)
H24 H 0.500280 0.535167 0.385829
C21 C 0.62074(13) 0.44520(19) 0.44780(8)
H25 H 0.635735 0.524460 0.474719
C22 C 0.67912(13) 0.32439(19) 0.46123(8)
H26 H 0.734343 0.320691 0.497208
C23 C 0.65723(12) 0.20850(17) 0.42225(8)
H27 H 0.697185 0.125187 0.431643
C24 C 0.57666(11) 0.21402(15) 0.36929(7)
H28 H 0.562019 0.134753 0.342315
loop_
_geom_bond_atom_site_label_1
_geom_bond_atom_site_label_2
_geom_bond_site_symmetry_1
_geom_bond_site_symmetry_2
N1 C1 1_555 1_555
C1 C2 1_555 1_555
C2 H1 1_555 1_555
C3 C2 1_555 1_555
H2 C3 1_555 1_555
C4 C3 1_555 1_555
H3 C4 1_555 1_555
C5 C4 1_555 1_555
H4 C5 1_555 1_555
C6 C1 1_555 1_555
H5 C6 1_555 1_555
C7 N1 1_555 1_555
H6 C7 1_555 1_555
N2 C7 1_555 1_555
C8 N2 1_555 1_555
O1 C8 1_555 1_555
O2 C8 1_555 1_555
C9 O2 1_555 1_555
H7 C9 1_555 1_555
H8 C9 1_555 1_555
C10 N2 1_555 1_555
H9 C10 1_555 1_555
H10 C10 1_555 1_555
C11 C7 1_555 1_555
H11 C11 1_555 1_555
H12 C11 1_555 1_555
C12 C11 1_555 1_555
H13 C12 1_555 1_555
C13 C12 1_555 1_555
O3 C13 1_555 1_555
O4 C13 1_555 1_555
C14 O4 1_555 1_555
H14 C14 1_555 1_555
H15 C14 1_555 1_555
C15 C14 1_555 1_555
H16 C15 1_555 1_555
H17 C15 1_555 1_555
H18 C15 1_555 1_555
C16 C12 1_555 1_555
O5 C16 1_555 1_555
O6 C16 1_555 1_555
C17 O6 1_555 1_555
H19 C17 1_555 1_555
H20 C17 1_555 1_555
C18 C17 1_555 1_555
H21 C18 1_555 1_555
H22 C18 1_555 1_555
H23 C18 1_555 1_555
C19 N1 1_555 1_555
C20 C19 1_555 1_555
H24 C20 1_555 1_555
C21 C20 1_555 1_555
H25 C21 1_555 1_555
C22 C21 1_555 1_555
H26 C22 1_555 1_555
C23 C22 1_555 1_555
H27 C23 1_555 1_555
C24 C19 1_555 1_555
H28 C24 1_555 1_555
C5 C6 1_555 1_555
C9 C10 1_555 1_555
C23 C24 1_555 1_555

#END
