
#######################################################################
#
#                 Cambridge Crystallographic Data Centre
#                                CCDC 
#
#######################################################################
#
# If this CIF has been generated from an entry in the Cambridge 
# Structural Database, then it will include bibliographic, chemical, 
# crystal, experimental, refinement or atomic coordinate data resulting 
# from the CCDC's data processing and validation procedures.
#
#######################################################################

data_YEPFAD
_chemical_formula_moiety         'C18 H23 Br1 N2 O6'
_chemical_name_systematic        
'diethyl {2-[(4-bromophenyl)amino]-2-(2-oxo-1,3-oxazolidin-3-yl)ethyl}propanedioate'
_symmetry_cell_setting           monoclinic
_symmetry_space_group_name_H-M   'P 21/n'
_symmetry_Int_Tables_number      14
_space_group_name_Hall           '-P 2yn'
loop_
_symmetry_equiv_pos_site_id
_symmetry_equiv_pos_as_xyz
1 x,y,z
2 1/2-x,1/2+y,1/2-z
3 -x,-y,-z
4 1/2+x,1/2-y,1/2+z
_cell_length_a                   14.9021(19)
_cell_length_b                   8.1368(10)
_cell_length_c                   16.044(2)
_cell_angle_alpha                90
_cell_angle_beta                 99.097(2)
_cell_angle_gamma                90
_cell_volume                     1920.95
_exptl_crystal_colour            colorless
_exptl_crystal_description       tablet
_cell_formula_units_Z            4
_exptl_crystal_recrystallization_method 
'Re-crystallisation from solvent: dichloromethane/hexane'
loop_
_atom_site_label
_atom_site_type_symbol
_atom_site_fract_x
_atom_site_fract_y
_atom_site_fract_z
N1 N 0.39620(9) 0.33283(17) 0.28814(9)
H1 H 0.3576(16) 0.345(3) 0.2475(14)
C1 C 0.48174(11) 0.29547(19) 0.26686(10)
C2 C 0.55723(11) 0.2713(2) 0.32934(10)
H2 H 0.551647 0.286651 0.386989
C3 C 0.64012(12) 0.2250(2) 0.30797(11)
H3 H 0.691123 0.208570 0.350802
C4 C 0.64833(12) 0.2028(2) 0.22410(11)
C5 C 0.57513(12) 0.2289(2) 0.16071(11)
H4 H 0.581596 0.215145 0.103154
C6 C 0.49230(11) 0.2753(2) 0.18235(10)
H5 H 0.441932 0.293773 0.139116
Br1 Br 0.76156(2) 0.13562(3) 0.19529(2)
C7 C 0.38998(10) 0.45464(19) 0.35300(9)
H6 H 0.426895 0.415445 0.406829
N2 N 0.42490(9) 0.61635(16) 0.33248(8)
C8 C 0.50342(11) 0.6808(2) 0.37499(11)
O1 O 0.54874(9) 0.63115(16) 0.43941(9)
O2 O 0.52522(9) 0.81912(16) 0.33514(9)
C9 C 0.45404(14) 0.8545(2) 0.26499(12)
H7 H 0.480221 0.883592 0.213947
H8 H 0.415573 0.946546 0.278877
C10 C 0.39882(12) 0.6960(2) 0.25100(10)
H9 H 0.332726 0.718451 0.239264
H10 H 0.416525 0.629725 0.204476
C11 C 0.29119(10) 0.4686(2) 0.36647(10)
H11 H 0.267637 0.357767 0.376449
H12 H 0.254270 0.513567 0.314772
C12 C 0.28118(10) 0.5795(2) 0.44132(10)
H13 H 0.329223 0.548558 0.489560
C13 C 0.29253(10) 0.7610(2) 0.42205(10)
O3 O 0.25155(8) 0.82973(15) 0.36062(7)
O4 O 0.35080(8) 0.83461(14) 0.48182(7)
C14 C 0.35758(13) 1.0143(2) 0.47687(12)
H14 H 0.358660 1.047385 0.417663
H15 H 0.414968 1.051426 0.511426
C15 C 0.27863(16) 1.0944(2) 0.50805(14)
H16 H 0.222832 1.071953 0.468505
H17 H 0.288664 1.213359 0.512246
H18 H 0.272753 1.050344 0.563774
C16 C 0.18867(11) 0.5568(2) 0.46914(10)
O5 O 0.13736(9) 0.44437(17) 0.44891(9)
O6 O 0.17308(8) 0.68032(16) 0.51987(8)
C17 C 0.08870(14) 0.6752(3) 0.55487(14)
H19 H 0.095446 0.602263 0.604859
H20 H 0.038678 0.632669 0.512343
C18 C 0.06847(16) 0.8467(3) 0.57931(15)
H21 H 0.115423 0.883471 0.625296
H22 H 0.009035 0.849603 0.598107
H23 H 0.067658 0.919554 0.530558
loop_
_geom_bond_atom_site_label_1
_geom_bond_atom_site_label_2
_geom_bond_site_symmetry_1
_geom_bond_site_symmetry_2
N1 H1 1_555 1_555
C1 N1 1_555 1_555
C2 C1 1_555 1_555
H2 C2 1_555 1_555
C3 C2 1_555 1_555
H3 C3 1_555 1_555
C4 C3 1_555 1_555
C5 C4 1_555 1_555
H4 C5 1_555 1_555
C6 C1 1_555 1_555
H5 C6 1_555 1_555
Br1 C4 1_555 1_555
C7 N1 1_555 1_555
H6 C7 1_555 1_555
N2 C7 1_555 1_555
C8 N2 1_555 1_555
O1 C8 1_555 1_555
O2 C8 1_555 1_555
C9 O2 1_555 1_555
H7 C9 1_555 1_555
H8 C9 1_555 1_555
C10 N2 1_555 1_555
H9 C10 1_555 1_555
H10 C10 1_555 1_555
C11 C7 1_555 1_555
H11 C11 1_555 1_555
H12 C11 1_555 1_555
C12 C11 1_555 1_555
H13 C12 1_555 1_555
C13 C12 1_555 1_555
O3 C13 1_555 1_555
O4 C13 1_555 1_555
C14 O4 1_555 1_555
H14 C14 1_555 1_555
H15 C14 1_555 1_555
C15 C14 1_555 1_555
H16 C15 1_555 1_555
H17 C15 1_555 1_555
H18 C15 1_555 1_555
C16 C12 1_555 1_555
O5 C16 1_555 1_555
O6 C16 1_555 1_555
C17 O6 1_555 1_555
H19 C17 1_555 1_555
H20 C17 1_555 1_555
C18 C17 1_555 1_555
H21 C18 1_555 1_555
H22 C18 1_555 1_555
H23 C18 1_555 1_555
C5 C6 1_555 1_555
C9 C10 1_555 1_555

#END
