
#######################################################################
#
#                 Cambridge Crystallographic Data Centre
#                                CCDC 
#
#######################################################################
#
# If this CIF has been generated from an entry in the Cambridge 
# Structural Database, then it will include bibliographic, chemical, 
# crystal, experimental, refinement or atomic coordinate data resulting 
# from the CCDC's data processing and validation procedures.
#
#######################################################################

data_YEPRUJ
_chemical_formula_moiety         'C31 H26 N2 O2 S1'
_chemical_name_systematic        
'methyl 2-(4-(biphenyl-4-yl)-2-(phenylimino)-1,3-thiazol-3(2H)-yl)-3-phenylpropanoate'
_symmetry_cell_setting           tetragonal
_symmetry_space_group_name_H-M   'P 41'
_symmetry_Int_Tables_number      76
_space_group_name_Hall           'P 4w'
loop_
_symmetry_equiv_pos_site_id
_symmetry_equiv_pos_as_xyz
1 x,y,z
2 -x,-y,1/2+z
3 -y,x,1/4+z
4 y,-x,3/4+z
_cell_length_a                   10.0749(3)
_cell_length_b                   10.0749(3)
_cell_length_c                   24.5470(10)
_cell_angle_alpha                90
_cell_angle_beta                 90
_cell_angle_gamma                90
_cell_volume                     2491.61
_exptl_crystal_colour            colorless
_exptl_crystal_description       prism
_cell_formula_units_Z            4
loop_
_atom_site_label
_atom_site_type_symbol
_atom_site_fract_x
_atom_site_fract_y
_atom_site_fract_z
C1 C -0.1249(3) 0.6787(3) 0.23426(13)
H1 H -0.1146 0.6305 0.2673
C2 C -0.0349(3) 0.6788(3) 0.19420(12)
C3 C 0.0954(3) 0.6131(3) 0.19870(11)
C4 C 0.1011(3) 0.4801(3) 0.21417(12)
H2 H 0.0226 0.4279 0.2145
C5 C 0.2215(3) 0.4239(3) 0.22914(11)
H3 H 0.2241 0.3335 0.2402
C6 C 0.3386(3) 0.4972(3) 0.22825(11)
C7 C 0.3333(3) 0.6262(3) 0.20841(11)
H4 H 0.4131 0.6755 0.2047
C8 C 0.2130(3) 0.6845(3) 0.19392(11)
H5 H 0.2113 0.7732 0.1808
C9 C 0.4635(3) 0.4420(3) 0.25083(11)
C10 C 0.4655(3) 0.3865(3) 0.30280(12)
H6 H 0.3856 0.3810 0.3232
C11 C 0.5825(3) 0.3394(3) 0.32497(14)
H7 H 0.5831 0.3045 0.3609
C12 C 0.6987(3) 0.3429(3) 0.29492(14)
H8 H 0.7792 0.3104 0.3100
C13 C 0.6964(3) 0.3937(3) 0.24316(15)
H9 H 0.7751 0.3936 0.2219
C14 C 0.5804(3) 0.4452(3) 0.22161(13)
H10 H 0.5813 0.4833 0.1862
C15 C -0.0131(3) 0.7484(3) 0.09514(11)
H11 H 0.0718 0.6981 0.0996
C16 C -0.0992(3) 0.6672(3) 0.05570(11)
H12 H -0.1869 0.7106 0.0520
H13 H -0.0567 0.6669 0.0193
C17 C -0.1193(3) 0.5253(3) 0.07414(11)
C18 C -0.2449(3) 0.4762(3) 0.08633(12)
H14 H -0.3196 0.5334 0.0842
C19 C -0.2625(3) 0.3449(3) 0.10154(13)
H15 H -0.3490 0.3123 0.1093
C20 C -0.1533(4) 0.2608(3) 0.10548(13)
H16 H -0.1648 0.1708 0.1161
C21 C -0.0292(3) 0.3084(3) 0.09398(13)
H17 H 0.0457 0.2517 0.0972
C22 C -0.0122(3) 0.4390(3) 0.07760(13)
H18 H 0.0742 0.4699 0.0686
C23 C 0.0254(3) 0.8870(3) 0.07493(13)
C24 C 0.0635(4) 1.0149(3) -0.00417(14)
H19 H 0.0599 1.0064 -0.0439
H20 H 0.1540 1.0377 0.0070
H21 H 0.0024 1.0850 0.0076
C25 C -0.3724(3) 0.9485(3) 0.13251(11)
C26 C -0.4812(3) 0.9026(3) 0.10402(13)
H22 H -0.4696 0.8367 0.0767
C27 C -0.6069(3) 0.9513(4) 0.11467(15)
H23 H -0.6808 0.9181 0.0949
C28 C -0.6258(3) 1.0471(3) 0.15349(16)
H24 H -0.7124 1.0799 0.1607
C29 C -0.5179(3) 1.0957(3) 0.18210(14)
H25 H -0.5302 1.1625 0.2090
C30 C -0.3921(3) 1.0469(3) 0.17153(13)
H26 H -0.3182 1.0809 0.1911
C31 C -0.1936(3) 0.8197(3) 0.15590(11)
N1 N -0.0717(2) 0.7584(2) 0.14940(9)
N2 N -0.2446(2) 0.8968(2) 0.11993(9)
O1 O 0.05707(19) 0.9777(2) 0.10357(8)
O2 O 0.0252(2) 0.89055(18) 0.02058(8)
S1 S -0.26274(8) 0.77614(8) 0.21947(3)
loop_
_geom_bond_atom_site_label_1
_geom_bond_atom_site_label_2
_geom_bond_site_symmetry_1
_geom_bond_site_symmetry_2
C1 H1 1_555 1_555
C2 C1 1_555 1_555
C3 C2 1_555 1_555
C4 C3 1_555 1_555
H2 C4 1_555 1_555
C5 C4 1_555 1_555
H3 C5 1_555 1_555
C6 C5 1_555 1_555
C7 C6 1_555 1_555
H4 C7 1_555 1_555
C8 C3 1_555 1_555
H5 C8 1_555 1_555
C9 C6 1_555 1_555
C10 C9 1_555 1_555
H6 C10 1_555 1_555
C11 C10 1_555 1_555
H7 C11 1_555 1_555
C12 C11 1_555 1_555
H8 C12 1_555 1_555
C13 C12 1_555 1_555
H9 C13 1_555 1_555
C14 C9 1_555 1_555
H10 C14 1_555 1_555
C15 H11 1_555 1_555
C16 C15 1_555 1_555
H12 C16 1_555 1_555
H13 C16 1_555 1_555
C17 C16 1_555 1_555
C18 C17 1_555 1_555
H14 C18 1_555 1_555
C19 C18 1_555 1_555
H15 C19 1_555 1_555
C20 C19 1_555 1_555
H16 C20 1_555 1_555
C21 C20 1_555 1_555
H17 C21 1_555 1_555
C22 C17 1_555 1_555
H18 C22 1_555 1_555
C23 C15 1_555 1_555
C24 H19 1_555 1_555
H20 C24 1_555 1_555
H21 C24 1_555 1_555
C25 C26 1_555 1_555
C26 H22 1_555 1_555
C27 C26 1_555 1_555
H23 C27 1_555 1_555
C28 C27 1_555 1_555
H24 C28 1_555 1_555
C29 C28 1_555 1_555
H25 C29 1_555 1_555
C30 C25 1_555 1_555
H26 C30 1_555 1_555
C31 N1 1_555 1_555
N1 C2 1_555 1_555
N2 C25 1_555 1_555
O1 C23 1_555 1_555
O2 C23 1_555 1_555
S1 C1 1_555 1_555
C7 C8 1_555 1_555
C13 C14 1_555 1_555
C15 N1 1_555 1_555
C21 C22 1_555 1_555
C24 O2 1_555 1_555
C29 C30 1_555 1_555
C31 N2 1_555 1_555
C31 S1 1_555 1_555

#END
