
#######################################################################
#
#                 Cambridge Crystallographic Data Centre
#                                CCDC 
#
#######################################################################
#
# If this CIF has been generated from an entry in the Cambridge 
# Structural Database, then it will include bibliographic, chemical, 
# crystal, experimental, refinement or atomic coordinate data resulting 
# from the CCDC's data processing and validation procedures.
#
#######################################################################

data_YEQCUV
_chemical_formula_moiety         'C21 H18 F1 N1 O2 S1'
_chemical_name_systematic        
5-(3-fluorophenyl)-2-[(4-methylphenyl)sulfonyl]-2,3-dihydro-1H-isoindole
_symmetry_cell_setting           monoclinic
_symmetry_space_group_name_H-M   'P 21/c'
_symmetry_Int_Tables_number      14
_space_group_name_Hall           '-P 2ybc'
loop_
_symmetry_equiv_pos_site_id
_symmetry_equiv_pos_as_xyz
1 x,y,z
2 -x,1/2+y,1/2-z
3 -x,-y,-z
4 x,1/2-y,1/2+z
_cell_length_a                   19.4865(5)
_cell_length_b                   6.17720(10)
_cell_length_c                   15.7523(4)
_cell_angle_alpha                90
_cell_angle_beta                 109.925(3)
_cell_angle_gamma                90
_cell_volume                     1782.63
_exptl_crystal_colour            colorless
_exptl_crystal_description       prism
_cell_formula_units_Z            4
loop_
_atom_site_label
_atom_site_type_symbol
_atom_site_fract_x
_atom_site_fract_y
_atom_site_fract_z
C1 C 0.69126(10) 0.2839(3) 0.73439(15)
H1 H 0.6817 0.1373 0.7494
H2 H 0.7132 0.2796 0.6876
C2 C 0.62325(10) 0.4181(3) 0.70627(12)
C3 C 0.63713(10) 0.6183(3) 0.74900(13)
C4 C 0.71514(11) 0.6319(3) 0.81023(15)
H3 H 0.7438 0.7222 0.7845
H4 H 0.7189 0.6874 0.8693
C5 C 0.55471(10) 0.3680(3) 0.64621(12)
H5 H 0.5463 0.2333 0.6182
C6 C 0.49790(10) 0.5194(3) 0.62736(12)
C7 C 0.51356(11) 0.7203(3) 0.67072(14)
H6 H 0.4767 0.8236 0.6587
C8 C 0.58187(11) 0.7700(3) 0.73073(15)
H7 H 0.5907 0.9047 0.7587
C9 C 0.42279(10) 0.4670(3) 0.56583(11)
C10 C 0.40856(11) 0.2778(3) 0.51490(14)
H8 H 0.4463 0.1830 0.5175
C11 C 0.33838(13) 0.2321(4) 0.46083(15)
C12 C 0.28007(13) 0.3612(4) 0.45363(15)
H9 H 0.2332 0.3245 0.4165
C13 C 0.29372(13) 0.5486(5) 0.50384(17)
H10 H 0.2553 0.6413 0.5007
C14 C 0.36344(12) 0.6007(4) 0.55866(15)
H11 H 0.3711 0.7285 0.5918
C15 C 0.86483(9) 0.4209(3) 0.77824(13)
C16 C 0.86462(11) 0.2809(3) 0.70902(15)
H12 H 0.8449 0.1428 0.7059
C17 C 0.89389(11) 0.3485(4) 0.64492(15)
H13 H 0.8939 0.2544 0.5988
C18 C 0.92331(10) 0.5542(4) 0.64820(14)
C19 C 0.92314(10) 0.6911(3) 0.71831(15)
H14 H 0.9431 0.8290 0.7217
C20 C 0.89409(10) 0.6271(3) 0.78288(14)
H15 H 0.8941 0.7211 0.8290
C21 C 0.95537(14) 0.6268(6) 0.57821(18)
H16 H 1.0013 0.5555 0.5886
H17 H 0.9628 0.7806 0.5824
H18 H 0.9225 0.5905 0.5191
F1 F 0.32680(9) 0.0468(3) 0.41163(12)
N1 N 0.73798(9) 0.4024(3) 0.81507(11)
O1 O 0.82662(9) 0.1060(3) 0.86059(12)
O2 O 0.85438(9) 0.4623(3) 0.93748(10)
S1 S 0.82392(3) 0.33787(9) 0.85687(3)
loop_
_geom_bond_atom_site_label_1
_geom_bond_atom_site_label_2
_geom_bond_site_symmetry_1
_geom_bond_site_symmetry_2
C1 H1 1_555 1_555
H2 C1 1_555 1_555
C2 C1 1_555 1_555
C3 C2 1_555 1_555
C4 C3 1_555 1_555
H3 C4 1_555 1_555
H4 C4 1_555 1_555
C5 C2 1_555 1_555
H5 C5 1_555 1_555
C6 C5 1_555 1_555
C7 C6 1_555 1_555
H6 C7 1_555 1_555
C8 C3 1_555 1_555
H7 C8 1_555 1_555
C9 C6 1_555 1_555
C10 C9 1_555 1_555
H8 C10 1_555 1_555
C11 C10 1_555 1_555
C12 C11 1_555 1_555
H9 C12 1_555 1_555
C13 C12 1_555 1_555
H10 C13 1_555 1_555
C14 C9 1_555 1_555
H11 C14 1_555 1_555
C15 C16 1_555 1_555
C16 H12 1_555 1_555
C17 C16 1_555 1_555
H13 C17 1_555 1_555
C18 C17 1_555 1_555
C19 C18 1_555 1_555
H14 C19 1_555 1_555
C20 C15 1_555 1_555
H15 C20 1_555 1_555
C21 C18 1_555 1_555
H16 C21 1_555 1_555
H17 C21 1_555 1_555
H18 C21 1_555 1_555
F1 C11 1_555 1_555
N1 C1 1_555 1_555
O1 S1 1_555 1_555
O2 S1 1_555 1_555
S1 C15 1_555 1_555
C4 N1 1_555 1_555
C7 C8 1_555 1_555
C13 C14 1_555 1_555
C19 C20 1_555 1_555
N1 S1 1_555 1_555

#END
