
#######################################################################
#
#                 Cambridge Crystallographic Data Centre
#                                CCDC 
#
#######################################################################
#
# If this CIF has been generated from an entry in the Cambridge 
# Structural Database, then it will include bibliographic, chemical, 
# crystal, experimental, refinement or atomic coordinate data resulting 
# from the CCDC's data processing and validation procedures.
#
#######################################################################

data_YERHOS
_chemical_formula_moiety         'C16 H12 S12 Te2'
_chemical_name_systematic        
bis(2,3-bis(Methylthio)tetrathiofulvalene)-1,4-ditellurin
_symmetry_cell_setting           monoclinic
_symmetry_space_group_name_H-M   'P 21/c'
_symmetry_Int_Tables_number      14
_space_group_name_Hall           '-P 2ybc'
loop_
_symmetry_equiv_pos_site_id
_symmetry_equiv_pos_as_xyz
1 x,y,z
2 -x,1/2+y,1/2-z
3 -x,-y,-z
4 x,1/2-y,1/2+z
_cell_length_a                   19.521(4)
_cell_length_b                   8.571(2)
_cell_length_c                   15.877(4)
_cell_angle_alpha                90
_cell_angle_beta                 92.81(2)
_cell_angle_gamma                90
_cell_volume                     2653.26
_exptl_crystal_colour            orange
_cell_formula_units_Z            4
_chemical_properties_physical    'Unstable when heated'
loop_
_atom_site_label
_atom_site_type_symbol
_atom_site_fract_x
_atom_site_fract_y
_atom_site_fract_z
Te1 Te 0.5126(1) -0.0521(1) 0.2742(1)
Te2 Te 0.6060(1) 0.1497(1) 0.4491(1)
S1 S 0.6187(1) 0.1485(4) 0.1563(2)
S2 S 0.6912(1) 0.3107(3) 0.2958(2)
S3 S 0.7611(2) 0.1628(4) 0.0497(2)
S4 S 0.8295(1) 0.3232(4) 0.1931(2)
S5 S 0.8911(3) 0.0329(6) -0.0139(3)
S6 S 0.9704(2) 0.2321(6) 0.1444(3)
S7 S 0.3796(1) 0.1484(4) 0.3419(2)
S8 S 0.4549(1) 0.3093(3) 0.4797(2)
S9 S 0.2428(1) 0.1495(4) 0.4483(2)
S10 S 0.3163(1) 0.3155(3) 0.5878(2)
S11 S 0.1217(2) 0.0751(5) 0.5515(3)
S12 S 0.2034(2) 0.2779(4) 0.7061(2)
C1 C 0.5963(4) 0.0976(11) 0.2587(6)
C2 C 0.6281(5) 0.1738(12) 0.3232(6)
C3 C 0.6952(5) 0.2392(12) 0.1922(6)
C4 C 0.7532(5) 0.2453(13) 0.1498(7)
C5 C 0.8508(6) 0.1460(16) 0.0598(8)
C6 C 0.8814(5) 0.2156(14) 0.1256(9)
C7 C 0.8919(16) 0.1237(26) -0.0920(10)
C8 C 0.9847(9) 0.1245(28) 0.2353(10)
C9 C 0.4669(5) 0.0964(11) 0.3590(6)
C10 C 0.5008(5) 0.1726(12) 0.4219(6)
C11 C 0.3749(4) 0.2377(12) 0.4411(6)
C12 C 0.3188(4) 0.2398(12) 0.4864(6)
C13 C 0.2018(5) 0.1653(14) 0.5438(7)
C14 C 0.2346(5) 0.2384(14) 0.6064(7)
C15 C 0.0804(6) 0.1208(17) 0.4533(8)
C16 C 0.2256(7) 0.0978(15) 0.7581(8)
H1 H 0.9143 0.0656 -0.1345
H2 H 0.8461 0.1495 -0.1122
H3 H 0.9171 0.2179 -0.0797
H4 H 1.0325 0.1242 0.2525
H5 H 0.9586 0.1636 0.2804
H6 H 0.9702 0.0202 0.2215
H7 H 0.0353 0.0760 0.4511
H8 H 0.0769 0.2320 0.4470
H9 H 0.1061 0.0787 0.4086
H10 H 0.2116 0.1006 0.8152
H11 H 0.2029 0.0132 0.7286
H12 H 0.2743 0.0831 0.7580
loop_
_geom_bond_atom_site_label_1
_geom_bond_atom_site_label_2
_geom_bond_site_symmetry_1
_geom_bond_site_symmetry_2
Te1 C1 1_555 1_555
Te2 C2 1_555 1_555
S1 C1 1_555 1_555
S2 C2 1_555 1_555
S3 C4 1_555 1_555
S4 C4 1_555 1_555
S5 C5 1_555 1_555
S6 C6 1_555 1_555
S7 C9 1_555 1_555
S8 C10 1_555 1_555
S9 C12 1_555 1_555
S10 C12 1_555 1_555
S11 C13 1_555 1_555
S12 C14 1_555 1_555
C1 C2 1_555 1_555
C3 S1 1_555 1_555
C4 C3 1_555 1_555
C5 S3 1_555 1_555
C6 S4 1_555 1_555
C7 S5 1_555 1_555
C8 S6 1_555 1_555
C9 Te1 1_555 1_555
C10 Te2 1_555 1_555
C11 S7 1_555 1_555
C12 C11 1_555 1_555
C13 S9 1_555 1_555
C14 S10 1_555 1_555
C15 S11 1_555 1_555
C16 S12 1_555 1_555
H1 C7 1_555 1_555
H2 C7 1_555 1_555
H3 C7 1_555 1_555
H4 C8 1_555 1_555
H5 C8 1_555 1_555
H6 C8 1_555 1_555
H7 C15 1_555 1_555
H8 C15 1_555 1_555
H9 C15 1_555 1_555
H10 C16 1_555 1_555
H11 C16 1_555 1_555
H12 C16 1_555 1_555
S2 C3 1_555 1_555
S8 C11 1_555 1_555
C5 C6 1_555 1_555
C9 C10 1_555 1_555
C13 C14 1_555 1_555

#END
