
#######################################################################
#
#                 Cambridge Crystallographic Data Centre
#                                CCDC 
#
#######################################################################
#
# If this CIF has been generated from an entry in the Cambridge 
# Structural Database, then it will include bibliographic, chemical, 
# crystal, experimental, refinement or atomic coordinate data resulting 
# from the CCDC's data processing and validation procedures.
#
#######################################################################

data_YESJAI
_chemical_formula_moiety         'C24 H19 Cl4 N1 O7'
_chemical_name_systematic        
'Allyl 4,6-O-benzylidene-2-deoxy-2-(tetrachlorophthalimido)-\b-D-glucopyranoside'
_symmetry_cell_setting           orthorhombic
_symmetry_space_group_name_H-M   'P 21 21 21'
_symmetry_Int_Tables_number      19
_space_group_name_Hall           'P 2ac 2ab'
loop_
_symmetry_equiv_pos_site_id
_symmetry_equiv_pos_as_xyz
1 x,y,z
2 1/2-x,-y,1/2+z
3 -x,1/2+y,1/2-z
4 1/2+x,1/2-y,-z
_cell_length_a                   8.0242(15)
_cell_length_b                   17.487(3)
_cell_length_c                   17.969(3)
_cell_angle_alpha                90
_cell_angle_beta                 90
_cell_angle_gamma                90
_cell_volume                     2521.4
_exptl_crystal_colour            colorless
_exptl_crystal_description       Prism
_chemical_melting_point          '465 K'
_cell_formula_units_Z            4
loop_
_atom_site_label
_atom_site_type_symbol
_atom_site_fract_x
_atom_site_fract_y
_atom_site_fract_z
Cl1 Cl 0.70633(12) 0.56105(5) -0.03722(5)
Cl2 Cl 0.84621(17) 0.70527(5) 0.04295(7)
Cl3 Cl 0.98845(14) 0.69431(6) 0.20248(7)
Cl4 Cl 0.99076(18) 0.53677(7) 0.28546(6)
O1 O 0.9094(3) 0.36914(15) 0.23891(13)
O2 O 0.6901(3) 0.38582(11) 0.00436(11)
O3 O 1.0009(3) 0.23551(12) 0.06678(13)
H1 H 1.0435 0.1967 0.0497
O4 O 0.5284(3) 0.30222(13) 0.20587(12)
O5 O 0.5343(3) 0.18510(11) 0.15057(11)
O6 O 0.5885(3) 0.01967(12) 0.03117(12)
O7 O 0.8106(2) 0.10317(11) 0.01122(11)
N1 N 0.7923(3) 0.35790(13) 0.12169(13)
C1 C 0.8635(4) 0.39799(19) 0.18217(19)
C2 C 0.8658(4) 0.47955(18) 0.15820(18)
C3 C 0.9210(4) 0.5436(2) 0.1951(2)
C4 C 0.9153(4) 0.6138(2) 0.1584(2)
C5 C 0.8506(4) 0.61918(19) 0.0868(2)
C6 C 0.7903(4) 0.55352(18) 0.05008(18)
C7 C 0.8014(4) 0.48449(17) 0.08634(17)
C8 C 0.7519(4) 0.40579(17) 0.06269(17)
C9 C 0.7547(4) 0.27618(16) 0.12750(16)
H2 H 0.8106 0.2581 0.1727
C10 C 0.5673(4) 0.26406(18) 0.14048(17)
H3 H 0.5024 0.2845 0.0988
C11 C 0.5791(4) 0.14304(17) 0.08593(17)
H4 H 0.5221 0.1642 0.0423
C12 C 0.7671(4) 0.14780(16) 0.07512(16)
H5 H 0.8226 0.1265 0.1190
C13 C 0.8239(4) 0.22870(15) 0.06413(16)
H6 H 0.7822 0.2482 0.0165
C14 C 0.3563(4) 0.3014(2) 0.2255(2)
H7 H 0.3167 0.2491 0.2290
H8 H 0.2913 0.3277 0.1879
C15 C 0.3375(6) 0.3403(2) 0.2983(2)
H9 H 0.2294 0.3491 0.3149
C16 C 0.4553(7) 0.3630(3) 0.3403(2)
H10 H 0.5656 0.3555 0.3261
H11 H 0.4312 0.3870 0.3852
C17 C 0.5326(4) 0.06032(17) 0.09557(17)
H12 H 0.5850 0.0397 0.1399
H13 H 0.4128 0.0553 0.1008
C18 C 0.7619(4) 0.02616(17) 0.02053(18)
H14 H 0.8190 0.0052 0.0642
C19 C 0.8114(4) -0.01946(18) -0.04691(19)
C20 C 0.8116(5) -0.09824(19) -0.0437(2)
H15 H 0.7788 -0.1228 -0.0001
C21 C 0.8599(6) -0.1408(2) -0.1043(3)
H16 H 0.8611 -0.1939 -0.1012
C22 C 0.9059(5) -0.1061(3) -0.1690(2)
H17 H 0.9363 -0.1352 -0.2102
C23 C 0.9069(6) -0.0283(3) -0.1726(2)
H18 H 0.9400 -0.0041 -0.2162
C24 C 0.8592(5) 0.0148(2) -0.1120(2)
H19 H 0.8594 0.0679 -0.1155
loop_
_geom_bond_atom_site_label_1
_geom_bond_atom_site_label_2
_geom_bond_site_symmetry_1
_geom_bond_site_symmetry_2
Cl1 C6 1_555 1_555
Cl2 C5 1_555 1_555
Cl3 C4 1_555 1_555
Cl4 C3 1_555 1_555
O1 C1 1_555 1_555
O2 C8 1_555 1_555
O3 H1 1_555 1_555
O4 C10 1_555 1_555
O5 C10 1_555 1_555
O6 C17 1_555 1_555
O7 C12 1_555 1_555
N1 C1 1_555 1_555
C1 C2 1_555 1_555
C2 C3 1_555 1_555
C3 C4 1_555 1_555
C4 C5 1_555 1_555
C5 C6 1_555 1_555
C6 C7 1_555 1_555
C7 C2 1_555 1_555
C8 N1 1_555 1_555
C9 N1 1_555 1_555
H2 C9 1_555 1_555
C10 C9 1_555 1_555
H3 C10 1_555 1_555
C11 O5 1_555 1_555
H4 C11 1_555 1_555
C12 C11 1_555 1_555
H5 C12 1_555 1_555
C13 O3 1_555 1_555
H6 C13 1_555 1_555
C14 O4 1_555 1_555
H7 C14 1_555 1_555
H8 C14 1_555 1_555
C15 C14 1_555 1_555
H9 C15 1_555 1_555
C16 C15 1_555 1_555
H10 C16 1_555 1_555
H11 C16 1_555 1_555
C17 C11 1_555 1_555
H12 C17 1_555 1_555
H13 C17 1_555 1_555
C18 O6 1_555 1_555
H14 C18 1_555 1_555
C19 C18 1_555 1_555
C20 C19 1_555 1_555
H15 C20 1_555 1_555
C21 C20 1_555 1_555
H16 C21 1_555 1_555
C22 C21 1_555 1_555
H17 C22 1_555 1_555
C23 C22 1_555 1_555
H18 C23 1_555 1_555
C24 C19 1_555 1_555
H19 C24 1_555 1_555
O7 C18 1_555 1_555
C7 C8 1_555 1_555
C9 C13 1_555 1_555
C12 C13 1_555 1_555
C23 C24 1_555 1_555

#END
