
#######################################################################
#
#                 Cambridge Crystallographic Data Centre
#                                CCDC 
#
#######################################################################
#
# If this CIF has been generated from an entry in the Cambridge 
# Structural Database, then it will include bibliographic, chemical, 
# crystal, experimental, refinement or atomic coordinate data resulting 
# from the CCDC's data processing and validation procedures.
#
#######################################################################

data_YESKUF
_chemical_name_common            
'2-acetylpyrrole S-methylthiosemicarbazonium hydroiodide'
_chemical_formula_moiety         'C8 H13 N4 S1 1+,I1 1-'
_chemical_name_systematic        
'(methylsulfanyl){2-[1-(1H-pyrrol-2-yl)ethylidene]hydrazinyl}methaniminium iodide'
_symmetry_cell_setting           monoclinic
_symmetry_space_group_name_H-M   'P 21/n'
_symmetry_Int_Tables_number      14
_space_group_name_Hall           '-P 2yn'
loop_
_symmetry_equiv_pos_site_id
_symmetry_equiv_pos_as_xyz
1 x,y,z
2 1/2-x,1/2+y,1/2-z
3 -x,-y,-z
4 1/2+x,1/2-y,1/2+z
_cell_length_a                   5.9563(4)
_cell_length_b                   12.8592(8)
_cell_length_c                   16.1795(10)
_cell_angle_alpha                90
_cell_angle_beta                 99.4500(10)
_cell_angle_gamma                90
_cell_volume                     1222.42
_exptl_crystal_colour            yellow
_exptl_crystal_description       block
_cell_formula_units_Z            4
loop_
_atom_site_label
_atom_site_type_symbol
_atom_site_fract_x
_atom_site_fract_y
_atom_site_fract_z
I1 I -0.08624(4) 0.340072(15) 0.093888(12)
S1 S -0.04359(14) 0.22772(6) 0.32909(6)
N1 N 0.8020(4) -0.04470(18) 0.23107(15)
H1 H 0.7559 -0.0484 0.2786
N2 N 0.4354(4) 0.07985(18) 0.23997(14)
N3 N 0.2459(4) 0.14077(17) 0.24625(15)
H2 H 0.1815 0.1779 0.2049
N4 N 0.2524(4) 0.0743(2) 0.37718(15)
H3 H 0.3587 0.0320 0.3695
H4 H 0.2011 0.0739 0.4239
C1 C 0.9810(5) -0.0976(2) 0.2104(2)
H5 H 1.0730 -0.1439 0.2448
C2 C 1.0037(5) -0.0716(3) 0.1311(2)
H6 H 1.1131 -0.0966 0.1012
C3 C 0.8312(5) 0.0002(3) 0.1024(2)
H7 H 0.8064 0.0319 0.0501
C4 C 0.7054(5) 0.0154(2) 0.16527(17)
C5 C 0.5086(5) 0.0802(2) 0.16959(17)
C6 C 0.4087(5) 0.1408(3) 0.09352(19)
H8 H 0.4944 0.1276 0.0493
H9 H 0.4142 0.2137 0.1066
H10 H 0.2534 0.1200 0.0759
C7 C 0.1689(5) 0.1393(2) 0.31804(18)
C8 C -0.1612(6) 0.1736(3) 0.4149(2)
H11 H -0.2831 0.2171 0.4268
H12 H -0.0450 0.1698 0.4635
H13 H -0.2185 0.1051 0.4003
loop_
_geom_bond_atom_site_label_1
_geom_bond_atom_site_label_2
_geom_bond_site_symmetry_1
_geom_bond_site_symmetry_2
S1 C7 1_555 1_555
N1 H1 1_555 1_555
N2 N3 1_555 1_555
N3 H2 1_555 1_555
N4 H3 1_555 1_555
H4 N4 1_555 1_555
C1 N1 1_555 1_555
H5 C1 1_555 1_555
C2 C1 1_555 1_555
H6 C2 1_555 1_555
C3 C2 1_555 1_555
H7 C3 1_555 1_555
C4 N1 1_555 1_555
C5 N2 1_555 1_555
C6 C5 1_555 1_555
H8 C6 1_555 1_555
H9 C6 1_555 1_555
H10 C6 1_555 1_555
C7 N3 1_555 1_555
C8 S1 1_555 1_555
H11 C8 1_555 1_555
H12 C8 1_555 1_555
H13 C8 1_555 1_555
N4 C7 1_555 1_555
C3 C4 1_555 1_555
C4 C5 1_555 1_555

#END
