
#######################################################################
#
#                 Cambridge Crystallographic Data Centre
#                                CCDC 
#
#######################################################################
#
# If this CIF has been generated from an entry in the Cambridge 
# Structural Database, then it will include bibliographic, chemical, 
# crystal, experimental, refinement or atomic coordinate data resulting 
# from the CCDC's data processing and validation procedures.
#
#######################################################################

data_YESREW
_chemical_compound_source        
'isolated from the leaves of Rhododendron molle'
_chemical_name_common            'mollfoliagein B'
_chemical_formula_moiety         'C20 H30 O5'
_chemical_name_systematic        2,3-epoxygrayanotox-16-ene-5,6,10,14-tetrol
_symmetry_cell_setting           monoclinic
_symmetry_space_group_name_H-M   'P 21'
_symmetry_Int_Tables_number      4
_space_group_name_Hall           'P 2yb'
loop_
_symmetry_equiv_pos_site_id
_symmetry_equiv_pos_as_xyz
1 x,y,z
2 -x,1/2+y,-z
_cell_length_a                   7.9231(3)
_cell_length_b                   10.9643(4)
_cell_length_c                   21.6231(7)
_cell_angle_alpha                90
_cell_angle_beta                 95.0830(10)
_cell_angle_gamma                90
_cell_volume                     1871.04
_exptl_crystal_colour            colorless
_exptl_crystal_description       block
_cell_formula_units_Z            4
loop_
_atom_site_label
_atom_site_type_symbol
_atom_site_fract_x
_atom_site_fract_y
_atom_site_fract_z
C1 C 0.0985(3) 0.51350(19) -0.00101(10)
H1 H 0.1578 0.5921 0.0010
C2 C -0.0691(3) 0.5365(2) -0.03831(11)
H2 H -0.1425 0.6030 -0.0265
C3 C -0.0505(3) 0.5133(3) -0.10321(12)
H3 H -0.1120 0.5643 -0.1349
C4 C 0.1286(3) 0.4735(2) -0.11209(11)
C5 C 0.1968(3) 0.43144(19) -0.04432(10)
C6 C 0.3879(3) 0.4465(2) -0.02924(11)
H4 H 0.4164 0.5334 -0.0307
C7 C 0.4539(3) 0.3955(2) 0.03364(11)
H5 H 0.5761 0.3887 0.0339
H6 H 0.4101 0.3132 0.0362
C8 C 0.4169(3) 0.4616(2) 0.09294(11)
C9 C 0.2334(3) 0.4414(2) 0.11150(11)
H7 H 0.2232 0.3528 0.1160
C10 C 0.0745(3) 0.4791(2) 0.06712(11)
C11 C 0.2184(3) 0.4924(3) 0.17712(12)
H8 H 0.0997 0.4952 0.1848
H9 H 0.2754 0.4374 0.2073
C12 C 0.2945(4) 0.6199(4) 0.18646(13)
H10 H 0.2997 0.6414 0.2301
H11 H 0.2221 0.6788 0.1635
C13 C 0.4737(3) 0.6258(3) 0.16425(12)
H12 H 0.5287 0.7044 0.1741
C14 C 0.4608(3) 0.5989(2) 0.09477(11)
H13 H 0.3717 0.6476 0.0722
C15 C 0.5423(3) 0.4132(3) 0.14726(12)
H14 H 0.4913 0.3471 0.1688
H15 H 0.6458 0.3838 0.1316
C16 C 0.5789(4) 0.5203(3) 0.19020(14)
C17 C 0.6861(6) 0.5229(5) 0.2405(2)
H16 H 0.7484 0.4537 0.2526
H17 H 0.6994 0.5940 0.2639
C18 C 0.1304(4) 0.3739(3) -0.16179(12)
H18 H 0.0684 0.3042 -0.1493
H19 H 0.2453 0.3506 -0.1666
H20 H 0.0787 0.4044 -0.2005
C19 C 0.2220(4) 0.5867(3) -0.13315(14)
H21 H 0.1616 0.6199 -0.1698
H22 H 0.3344 0.5643 -0.1421
H23 H 0.2283 0.6467 -0.1007
C20 C -0.0533(3) 0.3759(2) 0.07154(13)
H24 H -0.0724 0.3627 0.1143
H25 H -0.0097 0.3026 0.0546
H26 H -0.1582 0.3975 0.0485
O1 O -0.1441(2) 0.42691(18) -0.06816(9)
O2 O 0.0027(2) 0.58966(16) 0.09046(8)
H27 H -0.1003 0.5820 0.0902
O3 O 0.1648(2) 0.30460(14) -0.03557(8)
H28 H 0.0695 0.2877 -0.0511
O4 O 0.6201(2) 0.61350(15) 0.06925(8)
H29 H 0.6421 0.6863 0.0669
O5 O 0.4683(2) 0.38359(18) -0.07696(9)
H30 H 0.5709 0.3951 -0.0722
C21 C 0.8993(3) 0.08659(19) 0.49778(10)
H31 H 0.8389 0.1647 0.4958
C22 C 1.0671(3) 0.1108(2) 0.53518(11)
H32 H 1.1398 0.1776 0.5233
C23 C 1.0486(3) 0.0873(3) 0.59989(12)
H33 H 1.1096 0.1387 0.6315
C24 C 0.8694(3) 0.0474(2) 0.60884(11)
C25 C 0.8024(3) 0.0038(2) 0.54097(10)
C26 C 0.6112(3) 0.0178(2) 0.52630(10)
H34 H 0.5815 0.1044 0.5278
C27 C 0.5455(3) -0.0342(2) 0.46333(11)
H35 H 0.4235 -0.0419 0.4631
H36 H 0.5906 -0.1161 0.4608
C28 C 0.7651(3) 0.0127(2) 0.38521(11)
H37 H 0.7763 -0.0759 0.3812
C29 C 0.9239(3) 0.0522(2) 0.42953(11)
C30 C 0.7796(3) 0.0625(3) 0.31891(11)
H38 H 0.8983 0.0663 0.3113
H39 H 0.7241 0.0061 0.2891
C31 C 0.7011(4) 0.1886(3) 0.30851(12)
H40 H 0.6945 0.2082 0.2646
H41 H 0.7730 0.2489 0.3306
C32 C 0.5226(3) 0.1944(3) 0.33120(12)
H42 H 0.4668 0.2725 0.3211
C33 C 0.4176(4) 0.0881(3) 0.30634(13)
C34 C 0.4575(3) -0.0187(3) 0.34959(12)
H43 H 0.5106 -0.0841 0.3282
H44 H 0.3549 -0.0497 0.3654
C35 C 0.5369(3) 0.1689(2) 0.40075(11)
H45 H 0.6264 0.2183 0.4227
C36 C 0.5814(3) 0.0323(2) 0.40372(10)
C37 C 0.8685(4) -0.0522(3) 0.65854(12)
H46 H 0.9302 -0.1219 0.6459
H47 H 0.7537 -0.0754 0.6637
H48 H 0.9210 -0.0216 0.6972
C38 C 1.0542(3) -0.0490(3) 0.42528(13)
H49 H 1.0695 -0.0647 0.3825
H50 H 1.0150 -0.1217 0.4441
H51 H 1.1601 -0.0242 0.4466
C39 C 0.7743(4) 0.1597(3) 0.62926(13)
H52 H 0.8331 0.1933 0.6661
H53 H 0.6617 0.1367 0.6377
H54 H 0.7685 0.2197 0.5968
C40 C 0.3077(7) 0.0871(6) 0.2572(2)
H55 H 0.2883 0.1576 0.2338
H56 H 0.2491 0.0159 0.2459
O6 O 1.1429(2) 0.00151(19) 0.56536(8)
O7 O 0.9923(2) 0.16369(17) 0.40594(8)
H57 H 1.0946 0.1560 0.4041
O8 O 0.8359(2) -0.12288(14) 0.53273(8)
H58 H 0.9316 -0.1389 0.5481
O9 O 0.3786(2) 0.18502(16) 0.42678(9)
H59 H 0.3615 0.2580 0.4319
O10 O 0.5310(2) -0.04617(18) 0.57376(8)
H60 H 0.4288 -0.0329 0.5698
loop_
_geom_bond_atom_site_label_1
_geom_bond_atom_site_label_2
_geom_bond_site_symmetry_1
_geom_bond_site_symmetry_2
C1 H1 1_555 1_555
C2 C1 1_555 1_555
H2 C2 1_555 1_555
C3 C2 1_555 1_555
H3 C3 1_555 1_555
C4 C3 1_555 1_555
C5 C1 1_555 1_555
C6 C5 1_555 1_555
H4 C6 1_555 1_555
C7 C6 1_555 1_555
H5 C7 1_555 1_555
H6 C7 1_555 1_555
C8 C7 1_555 1_555
C9 C8 1_555 1_555
H7 C9 1_555 1_555
C10 C1 1_555 1_555
C11 C9 1_555 1_555
H8 C11 1_555 1_555
H9 C11 1_555 1_555
C12 C11 1_555 1_555
H10 C12 1_555 1_555
H11 C12 1_555 1_555
C13 C12 1_555 1_555
H12 C13 1_555 1_555
C14 C8 1_555 1_555
H13 C14 1_555 1_555
C15 C8 1_555 1_555
H14 C15 1_555 1_555
H15 C15 1_555 1_555
C16 C13 1_555 1_555
C17 C16 1_555 1_555
H16 C17 1_555 1_555
H17 C17 1_555 1_555
C18 C4 1_555 1_555
H18 C18 1_555 1_555
H19 C18 1_555 1_555
H20 C18 1_555 1_555
C19 C4 1_555 1_555
H21 C19 1_555 1_555
H22 C19 1_555 1_555
H23 C19 1_555 1_555
C20 C10 1_555 1_555
H24 C20 1_555 1_555
H25 C20 1_555 1_555
H26 C20 1_555 1_555
O1 C2 1_555 1_555
O2 C10 1_555 1_555
H27 O2 1_555 1_555
O3 C5 1_555 1_555
H28 O3 1_555 1_555
O4 C14 1_555 1_555
H29 O4 1_555 1_555
O5 C6 1_555 1_555
H30 O5 1_555 1_555
C21 H31 1_555 1_555
C22 C21 1_555 1_555
H32 C22 1_555 1_555
C23 C22 1_555 1_555
H33 C23 1_555 1_555
C24 C23 1_555 1_555
C25 C21 1_555 1_555
C26 C25 1_555 1_555
H34 C26 1_555 1_555
C27 C26 1_555 1_555
H35 C27 1_555 1_555
H36 C27 1_555 1_555
C28 H37 1_555 1_555
C29 C21 1_555 1_555
C30 C28 1_555 1_555
H38 C30 1_555 1_555
H39 C30 1_555 1_555
C31 C30 1_555 1_555
H40 C31 1_555 1_555
H41 C31 1_555 1_555
C32 C31 1_555 1_555
H42 C32 1_555 1_555
C33 C32 1_555 1_555
C34 C33 1_555 1_555
H43 C34 1_555 1_555
H44 C34 1_555 1_555
C35 C32 1_555 1_555
H45 C35 1_555 1_555
C36 C27 1_555 1_555
C37 C24 1_555 1_555
H46 C37 1_555 1_555
H47 C37 1_555 1_555
H48 C37 1_555 1_555
C38 C29 1_555 1_555
H49 C38 1_555 1_555
H50 C38 1_555 1_555
H51 C38 1_555 1_555
C39 C24 1_555 1_555
H52 C39 1_555 1_555
H53 C39 1_555 1_555
H54 C39 1_555 1_555
C40 C33 1_555 1_555
H55 C40 1_555 1_555
H56 C40 1_555 1_555
O6 C22 1_555 1_555
O7 C29 1_555 1_555
H57 O7 1_555 1_555
O8 C25 1_555 1_555
H58 O8 1_555 1_555
O9 C35 1_555 1_555
H59 O9 1_555 1_555
O10 C26 1_555 1_555
H60 O10 1_555 1_555
C3 O1 1_555 1_555
C4 C5 1_555 1_555
C9 C10 1_555 1_555
C13 C14 1_555 1_555
C15 C16 1_555 1_555
C23 O6 1_555 1_555
C24 C25 1_555 1_555
C28 C29 1_555 1_555
C28 C36 1_555 1_555
C34 C36 1_555 1_555
C35 C36 1_555 1_555

#END
