
#######################################################################
#
#                 Cambridge Crystallographic Data Centre
#                                CCDC 
#
#######################################################################
#
# If this CIF has been generated from an entry in the Cambridge 
# Structural Database, then it will include bibliographic, chemical, 
# crystal, experimental, refinement or atomic coordinate data resulting 
# from the CCDC's data processing and validation procedures.
#
#######################################################################

data_YESROG
_chemical_compound_source        
'isolated from the leaves of Rhododendron molle'
_chemical_name_common            'mollfoliagein E'
_chemical_formula_moiety         'C23 H34 O6'
_chemical_name_systematic        
'3,14-dihydroxy-2-methoxy-5,9-epoxygrayanotox-15-en-6-yl acetate'
_symmetry_cell_setting           monoclinic
_symmetry_space_group_name_H-M   'P 21'
_symmetry_Int_Tables_number      4
_space_group_name_Hall           'P 2yb'
loop_
_symmetry_equiv_pos_site_id
_symmetry_equiv_pos_as_xyz
1 x,y,z
2 -x,1/2+y,-z
_cell_length_a                   9.81810(10)
_cell_length_b                   16.3996(2)
_cell_length_c                   13.9736(2)
_cell_angle_alpha                90
_cell_angle_beta                 107.0090(10)
_cell_angle_gamma                90
_cell_volume                     2151.52
_exptl_crystal_colour            colorless
_exptl_crystal_description       block
_cell_formula_units_Z            4
loop_
_atom_site_label
_atom_site_type_symbol
_atom_site_fract_x
_atom_site_fract_y
_atom_site_fract_z
O1 O 0.86479(16) 0.73437(10) 0.88347(11)
O2 O 0.98818(15) 0.59815(10) 1.00611(11)
O3 O 1.17658(18) 0.83669(10) 1.21204(12)
H1 H 1.172178 0.858829 1.158606
O4 O 0.86635(18) 0.44112(11) 0.97199(14)
H2 H 0.937943 0.469758 0.986867
O5 O 0.60101(17) 0.52643(11) 1.08043(13)
O6 O 0.7314(3) 0.84787(16) 0.86341(19)
C1 C 1.0673(2) 0.62613(14) 1.10558(15)
C2 C 1.3216(2) 0.73665(14) 1.08995(16)
C3 C 1.1859(2) 0.73690(14) 1.03374(16)
H3 H 1.155741 0.745917 0.965035
C4 C 1.1818(2) 0.75033(14) 1.20082(16)
H4 H 1.153666 0.723151 1.254564
C5 C 0.8428(2) 0.62473(14) 0.99190(16)
C6 C 0.7432(2) 0.49086(15) 0.96586(18)
H5 H 0.656460 0.460173 0.932971
C7 C 0.9658(2) 0.60613(15) 1.17061(16)
H6 H 0.964477 0.653964 1.212371
C8 C 1.0870(2) 0.72033(14) 1.09788(15)
C9 C 0.7445(2) 0.57105(15) 0.90952(17)
C10 C 0.8342(2) 0.71691(14) 0.97728(16)
H7 H 0.737450 0.735314 0.972521
C11 C 0.8153(2) 0.59969(14) 1.09166(16)
H8 H 0.750811 0.639255 1.108158
C12 C 1.2115(2) 0.58244(15) 1.13230(16)
H9 H 1.242559 0.578466 1.072639
H10 H 1.199421 0.527424 1.153965
C13 C 0.9404(2) 0.76195(14) 1.06314(16)
H11 H 0.901553 0.765507 1.119339
H12 H 0.952359 0.817078 1.041763
C14 C 1.3286(2) 0.62521(15) 1.21499(17)
H13 H 1.420920 0.603520 1.215931
H14 H 1.314156 0.614209 1.279528
C15 C 0.7417(2) 0.51593(15) 1.07201(17)
H15 H 0.794310 0.476068 1.121290
C16 C 0.8053(3) 0.80164(17) 0.8343(2)
C17 C 1.3267(2) 0.71824(15) 1.19749(16)
H16 H 1.406003 0.745937 1.245749
C18 C 1.4537(2) 0.74341(17) 1.05818(19)
H17 H 1.507803 0.693956 1.074728
H18 H 1.509858 0.788435 1.092166
H19 H 1.428381 0.752190 0.987216
C19 C 0.7943(2) 0.55864(16) 0.81659(17)
H20 H 0.780544 0.608151 0.778293
H21 H 0.740030 0.515582 0.776485
H22 H 0.893437 0.544398 0.836631
C20 C 0.5934(2) 0.60733(17) 0.87586(18)
H23 H 0.562181 0.618508 0.933525
H24 H 0.529557 0.569093 0.833319
H25 H 0.594240 0.657026 0.839722
C21 C 1.0088(3) 0.53297(19) 1.24027(19)
H26 H 1.018528 0.485807 1.202108
H27 H 0.936941 0.522980 1.272963
H28 H 1.097954 0.544058 1.289598
C22 C 0.5315(3) 0.45184(18) 1.0866(2)
H29 H 0.509577 0.424263 1.023303
H30 H 0.445011 0.462532 1.103238
H31 H 0.592794 0.418152 1.137405
C23 C 0.8447(4) 0.8107(2) 0.7390(2)
H32 H 0.946538 0.809671 0.753613
H33 H 0.808766 0.861582 0.707806
H34 H 0.804192 0.766596 0.694630
O7 O 0.07594(16) 0.40043(10) 0.49479(11)
O8 O -0.25819(17) 0.19957(11) 0.55432(12)
O9 O 0.24908(16) 0.25541(10) 0.55311(13)
O10 O 0.18579(19) 0.55733(11) 0.52299(12)
H35 H 0.136718 0.522051 0.487570
O11 O 0.27818(17) 0.51599(12) 0.78695(12)
O12 O 0.30524(19) 0.15139(13) 0.66321(16)
C24 C 0.3144(2) 0.18427(16) 0.5885(2)
C25 C -0.0832(2) 0.29397(14) 0.51600(16)
C26 C -0.0859(2) 0.25294(14) 0.41771(16)
H36 H -0.006350 0.231837 0.403144
C27 C -0.1707(2) 0.41909(15) 0.40773(16)
H37 H -0.134982 0.404873 0.352124
H38 H -0.175139 0.478098 0.410606
C28 C 0.1824(2) 0.51553(15) 0.68807(16)
H39 H 0.115493 0.561260 0.678604
C29 C 0.1012(2) 0.43363(14) 0.66344(16)
H40 H 0.114499 0.402434 0.725320
C30 C 0.0313(2) 0.26213(15) 0.60831(16)
H41 H 0.034763 0.203131 0.604630
H42 H 0.004370 0.276136 0.667757
C31 C 0.1726(2) 0.38720(14) 0.59361(16)
C32 C -0.0657(2) 0.38785(14) 0.50506(16)
C33 C -0.2379(2) 0.27788(15) 0.51767(16)
H43 H -0.266031 0.319766 0.558192
C34 C 0.1803(2) 0.29650(15) 0.61861(17)
H44 H 0.239256 0.289316 0.687999
C35 C -0.2175(2) 0.25136(15) 0.35553(16)
C36 C 0.3630(3) 0.42503(16) 0.50463(19)
H45 H 0.391378 0.369818 0.497889
H46 H 0.442353 0.460833 0.510226
H47 H 0.286288 0.439745 0.446869
C37 C 0.2711(2) 0.52122(15) 0.61453(17)
H48 H 0.356487 0.554244 0.643336
C38 C -0.3219(2) 0.38454(16) 0.38780(18)
H49 H -0.376319 0.395628 0.319053
H50 H -0.369153 0.411276 0.431266
C39 C -0.0607(2) 0.43457(15) 0.60358(16)
H51 H -0.111877 0.401973 0.640705
C40 C 0.3136(2) 0.43255(15) 0.59874(17)
C41 C -0.3176(2) 0.29179(16) 0.40660(17)
H52 H -0.412758 0.267173 0.387060
C42 C -0.1282(2) 0.51908(16) 0.58675(17)
H53 H -0.115771 0.545351 0.650136
H54 H -0.228078 0.514035 0.552612
H55 H -0.083441 0.551055 0.546919
C43 C 0.4353(2) 0.40424(17) 0.68886(19)
H56 H 0.404398 0.405521 0.747961
H57 H 0.515655 0.439846 0.697510
H58 H 0.462214 0.349604 0.677561
C44 C 0.2103(3) 0.52735(19) 0.86279(18)
H59 H 0.154329 0.576335 0.849564
H60 H 0.281050 0.531791 0.926641
H61 H 0.149501 0.481626 0.863437
C45 C 0.4021(3) 0.15465(18) 0.5243(2)
H62 H 0.349404 0.161069 0.455096
H63 H 0.424784 0.098097 0.538111
H64 H 0.488590 0.185765 0.538483
C46 C -0.2644(3) 0.22638(17) 0.24793(18)
H65 H -0.182833 0.211010 0.227427
H66 H -0.312172 0.271185 0.207695
H67 H -0.328414 0.180905 0.239582
H68 H -0.230(3) 0.166(2) 0.523(3)
loop_
_geom_bond_atom_site_label_1
_geom_bond_atom_site_label_2
_geom_bond_site_symmetry_1
_geom_bond_site_symmetry_2
O1 C10 1_555 1_555
O2 C1 1_555 1_555
O3 H1 1_555 1_555
O4 H2 1_555 1_555
O5 C15 1_555 1_555
O6 C16 1_555 1_555
C1 C7 1_555 1_555
C2 C3 1_555 1_555
C3 H3 1_555 1_555
C4 O3 1_555 1_555
H4 C4 1_555 1_555
C5 O2 1_555 1_555
C6 O4 1_555 1_555
H5 C6 1_555 1_555
C7 H6 1_555 1_555
C8 C1 1_555 1_555
C9 C5 1_555 1_555
C10 C5 1_555 1_555
H7 C10 1_555 1_555
C11 C5 1_555 1_555
H8 C11 1_555 1_555
C12 C1 1_555 1_555
H9 C12 1_555 1_555
H10 C12 1_555 1_555
C13 C8 1_555 1_555
H11 C13 1_555 1_555
H12 C13 1_555 1_555
C14 C12 1_555 1_555
H13 C14 1_555 1_555
H14 C14 1_555 1_555
C15 C6 1_555 1_555
H15 C15 1_555 1_555
C16 O1 1_555 1_555
C17 C2 1_555 1_555
H16 C17 1_555 1_555
C18 C2 1_555 1_555
H17 C18 1_555 1_555
H18 C18 1_555 1_555
H19 C18 1_555 1_555
C19 C9 1_555 1_555
H20 C19 1_555 1_555
H21 C19 1_555 1_555
H22 C19 1_555 1_555
C20 C9 1_555 1_555
H23 C20 1_555 1_555
H24 C20 1_555 1_555
H25 C20 1_555 1_555
C21 C7 1_555 1_555
H26 C21 1_555 1_555
H27 C21 1_555 1_555
H28 C21 1_555 1_555
C22 O5 1_555 1_555
H29 C22 1_555 1_555
H30 C22 1_555 1_555
H31 C22 1_555 1_555
C23 C16 1_555 1_555
H32 C23 1_555 1_555
H33 C23 1_555 1_555
H34 C23 1_555 1_555
O7 C31 1_555 1_555
O8 C33 1_555 1_555
O9 C24 1_555 1_555
O10 H35 1_555 1_555
O11 C28 1_555 1_555
O12 C24 1_555 1_555
C24 C45 1_555 1_555
C25 C26 1_555 1_555
C26 H36 1_555 1_555
C27 H37 1_555 1_555
H38 C27 1_555 1_555
C28 H39 1_555 1_555
C29 C28 1_555 1_555
H40 C29 1_555 1_555
C30 C25 1_555 1_555
H41 C30 1_555 1_555
H42 C30 1_555 1_555
C31 C29 1_555 1_555
C32 O7 1_555 1_555
C33 C25 1_555 1_555
H43 C33 1_555 1_555
C34 O9 1_555 1_555
H44 C34 1_555 1_555
C35 C26 1_555 1_555
C36 H45 1_555 1_555
H46 C36 1_555 1_555
H47 C36 1_555 1_555
C37 O10 1_555 1_555
H48 C37 1_555 1_555
C38 C27 1_555 1_555
H49 C38 1_555 1_555
H50 C38 1_555 1_555
C39 C29 1_555 1_555
H51 C39 1_555 1_555
C40 C31 1_555 1_555
C41 C33 1_555 1_555
H52 C41 1_555 1_555
C42 C39 1_555 1_555
H53 C42 1_555 1_555
H54 C42 1_555 1_555
H55 C42 1_555 1_555
C43 C40 1_555 1_555
H56 C43 1_555 1_555
H57 C43 1_555 1_555
H58 C43 1_555 1_555
C44 O11 1_555 1_555
H59 C44 1_555 1_555
H60 C44 1_555 1_555
H61 C44 1_555 1_555
C45 H62 1_555 1_555
H63 C45 1_555 1_555
H64 C45 1_555 1_555
C46 C35 1_555 1_555
H65 C46 1_555 1_555
H66 C46 1_555 1_555
H67 C46 1_555 1_555
H68 O8 1_555 1_555
C3 C8 1_555 1_555
C4 C8 1_555 1_555
C4 C17 1_555 1_555
C6 C9 1_555 1_555
C7 C11 1_555 1_555
C10 C13 1_555 1_555
C11 C15 1_555 1_555
C14 C17 1_555 1_555
C25 C32 1_555 1_555
C27 C32 1_555 1_555
C28 C37 1_555 1_555
C30 C34 1_555 1_555
C31 C34 1_555 1_555
C32 C39 1_555 1_555
C35 C41 1_555 1_555
C36 C40 1_555 1_555
C37 C40 1_555 1_555
C38 C41 1_555 1_555

#END
