
#######################################################################
#
#                 Cambridge Crystallographic Data Centre
#                                CCDC 
#
#######################################################################
#
# If this CIF has been generated from an entry in the Cambridge 
# Structural Database, then it will include bibliographic, chemical, 
# crystal, experimental, refinement or atomic coordinate data resulting 
# from the CCDC's data processing and validation procedures.
#
#######################################################################

data_YETFAH
_chemical_formula_moiety         'C11 H16 B1 Cl2 N1 O2'
_chemical_name_systematic        
3,5-dichloro-1-(4,4,5,5-tetramethyl-1,3,2-dioxaborolan-2-yl)-1,4-dihydropyridine
_symmetry_cell_setting           triclinic
_symmetry_space_group_name_H-M   'P -1'
_symmetry_Int_Tables_number      2
_space_group_name_Hall           '-P 1'
loop_
_symmetry_equiv_pos_site_id
_symmetry_equiv_pos_as_xyz
1 x,y,z
2 -x,-y,-z
_cell_length_a                   9.6684(4)
_cell_length_b                   10.1429(4)
_cell_length_c                   14.6746(7)
_cell_angle_alpha                103.7009(19)
_cell_angle_beta                 104.597(2)
_cell_angle_gamma                94.841(2)
_cell_volume                     1337.02
_exptl_crystal_colour            colorless
_exptl_crystal_description       block
_cell_formula_units_Z            4
loop_
_atom_site_label
_atom_site_type_symbol
_atom_site_fract_x
_atom_site_fract_y
_atom_site_fract_z
B1 B 0.3282(6) 0.6966(6) 0.1251(5)
C1 C 0.3896(6) 0.4650(5) 0.0716(4)
H1 H 0.2943 0.4356 0.0292
C2 C 0.4829(6) 0.3752(5) 0.0755(4)
C3 C 0.6382(6) 0.4086(6) 0.1346(4)
H2 H 0.6586 0.3475 0.1784
H3 H 0.7016 0.3946 0.0908
C4 C 0.6669(6) 0.5544(5) 0.1935(4)
C5 C 0.5712(6) 0.6420(6) 0.1901(4)
H4 H 0.5998 0.7337 0.2302
C6 C 0.1648(6) 0.8644(6) 0.2556(4)
H5 H 0.1416 0.766 0.2489
H6 H 0.077 0.9068 0.2531
H7 H 0.2371 0.9075 0.3184
C7 C 0.2255(6) 0.8846(6) 0.1720(4)
C8 C 0.2583(6) 1.0363(5) 0.1795(4)
H8 H 0.3181 1.0846 0.2456
H9 H 0.1675 1.074 0.1656
H10 H 0.3105 1.0484 0.1321
C9 C 0.1323(6) 0.7939(6) 0.0697(4)
C10 C -0.0285(6) 0.7613(6) 0.0589(4)
H11 H -0.0779 0.7056 -0.0077
H12 H -0.0688 0.847 0.0718
H13 H -0.0424 0.7102 0.1057
C11 C 0.1548(6) 0.8480(6) -0.0148(4)
H14 H 0.2586 0.8686 -0.0072
H15 H 0.1113 0.9319 -0.0148
H16 H 0.109 0.7784 -0.0767
Cl1 Cl 0.84125(14) 0.61164(15) 0.27047(10)
Cl2 Cl 0.42678(15) 0.20614(13) 0.00559(10)
N1 N 0.4287(5) 0.6013(4) 0.1285(3)
O1 O 0.3613(4) 0.8278(4) 0.1845(3)
O2 O 0.1917(4) 0.6643(4) 0.0617(3)
B2 B 0.6748(6) 0.3220(6) 0.3716(5)
C12 C 0.4452(6) 0.4073(6) 0.3149(4)
H17 H 0.4081 0.3207 0.2687
C13 C 0.3611(6) 0.5048(6) 0.3179(4)
C14 C 0.4051(6) 0.6456(6) 0.3860(4)
H18 H 0.4037 0.7149 0.3484
H19 H 0.3369 0.664 0.4261
C15 C 0.5539(6) 0.6541(6) 0.4502(4)
C16 C 0.6354(6) 0.5555(6) 0.4457(4)
H20 H 0.7294 0.5717 0.49
C17 C 0.9674(6) 0.2783(6) 0.3391(5)
H21 H 0.9044 0.2999 0.2827
H22 H 1.0257 0.2098 0.3166
H23 H 1.0314 0.3619 0.382
C18 C 0.9693(6) 0.1747(6) 0.4772(4)
H24 H 1.0476 0.2494 0.5172
H25 H 1.0104 0.0946 0.4498
H26 H 0.9105 0.15 0.5179
C19 C 0.8755(6) 0.2211(6) 0.3952(4)
C20 C 0.7412(6) 0.1134(6) 0.3278(4)
C21 C 0.6788(6) 0.0235(6) 0.3815(4)
H27 H 0.6673 0.0813 0.4421
H28 H 0.7444 -0.0416 0.3971
H29 H 0.5843 -0.0271 0.3401
C22 C 0.7620(6) 0.0254(6) 0.2342(4)
H30 H 0.6703 -0.0328 0.1947
H31 H 0.8355 -0.0327 0.2505
H32 H 0.7936 0.0848 0.1971
Cl3 Cl 0.62361(16) 0.81078(14) 0.53854(10)
Cl4 Cl 0.18716(14) 0.47057(14) 0.23919(10)
N2 N 0.5850(5) 0.4268(4) 0.3764(3)
O3 O 0.8060(4) 0.3346(4) 0.4379(3)
O4 O 0.6343(4) 0.2009(4) 0.2997(3)
loop_
_geom_bond_atom_site_label_1
_geom_bond_atom_site_label_2
_geom_bond_site_symmetry_1
_geom_bond_site_symmetry_2
B1 N1 1_555 1_555
C1 H1 1_555 1_555
C2 C1 1_555 1_555
C3 C2 1_555 1_555
H2 C3 1_555 1_555
H3 C3 1_555 1_555
C4 C3 1_555 1_555
C5 C4 1_555 1_555
H4 C5 1_555 1_555
C6 H5 1_555 1_555
H6 C6 1_555 1_555
H7 C6 1_555 1_555
C7 C6 1_555 1_555
C8 C7 1_555 1_555
H8 C8 1_555 1_555
H9 C8 1_555 1_555
H10 C8 1_555 1_555
C9 C7 1_555 1_555
C10 C9 1_555 1_555
H11 C10 1_555 1_555
H12 C10 1_555 1_555
H13 C10 1_555 1_555
C11 C9 1_555 1_555
H14 C11 1_555 1_555
H15 C11 1_555 1_555
H16 C11 1_555 1_555
Cl1 C4 1_555 1_555
Cl2 C2 1_555 1_555
N1 C1 1_555 1_555
O1 B1 1_555 1_555
O2 B1 1_555 1_555
B2 N2 1_555 1_555
C12 H17 1_555 1_555
C13 C12 1_555 1_555
C14 C13 1_555 1_555
H18 C14 1_555 1_555
H19 C14 1_555 1_555
C15 C14 1_555 1_555
C16 C15 1_555 1_555
H20 C16 1_555 1_555
C17 H21 1_555 1_555
H22 C17 1_555 1_555
H23 C17 1_555 1_555
C18 H24 1_555 1_555
H25 C18 1_555 1_555
H26 C18 1_555 1_555
C19 C17 1_555 1_555
C20 C19 1_555 1_555
C21 C20 1_555 1_555
H27 C21 1_555 1_555
H28 C21 1_555 1_555
H29 C21 1_555 1_555
C22 C20 1_555 1_555
H30 C22 1_555 1_555
H31 C22 1_555 1_555
H32 C22 1_555 1_555
Cl3 C15 1_555 1_555
Cl4 C13 1_555 1_555
N2 C12 1_555 1_555
O3 B2 1_555 1_555
O4 B2 1_555 1_555
C5 N1 1_555 1_555
C7 O1 1_555 1_555
C9 O2 1_555 1_555
C16 N2 1_555 1_555
C18 C19 1_555 1_555
C19 O3 1_555 1_555
C20 O4 1_555 1_555

#END
