
#######################################################################
#
#                 Cambridge Crystallographic Data Centre
#                                CCDC 
#
#######################################################################
#
# If this CIF has been generated from an entry in the Cambridge 
# Structural Database, then it will include bibliographic, chemical, 
# crystal, experimental, refinement or atomic coordinate data resulting 
# from the CCDC's data processing and validation procedures.
#
#######################################################################

data_YETGOW
_chemical_name_common            
2-amino-4-(4-methoxyphenyl)-3-cyano-7,7-dimethyl-5-oxo-4H-5,6,7,8-tetrahydrobenzo[b]pyran
_chemical_formula_moiety         'C19 H20 N2 O3'
_chemical_name_systematic        
2-amino-4-(4-methoxyphenyl)-7,7-dimethyl-5-oxo-5,6,7,8-tetrahydro-4H-1-benzopyran-3-carbonitrile
_symmetry_cell_setting           monoclinic
_symmetry_space_group_name_H-M   'C 2/c'
_symmetry_Int_Tables_number      15
_space_group_name_Hall           '-C 2yn'
loop_
_symmetry_equiv_pos_site_id
_symmetry_equiv_pos_as_xyz
1 x,y,z
2 -x,y,1/2-z
3 1/2+x,1/2+y,z
4 1/2-x,1/2+y,1/2-z
5 -x,-y,-z
6 x,-y,1/2+z
7 1/2-x,1/2-y,-z
8 1/2+x,1/2-y,1/2+z
_cell_length_a                   30.474(9)
_cell_length_b                   9.331(2)
_cell_length_c                   26.269(7)
_cell_angle_alpha                90
_cell_angle_beta                 112.591(3)
_cell_angle_gamma                90
_cell_volume                     6896.52
_exptl_crystal_colour            colorless
_exptl_crystal_description       Prism
_cell_formula_units_Z            16
loop_
_atom_site_label
_atom_site_type_symbol
_atom_site_fract_x
_atom_site_fract_y
_atom_site_fract_z
C1 C -0.14809(5) 1.02297(16) 0.17399(6)
C2 C -0.18002(5) 1.06137(16) 0.12390(6)
C3 C -0.22547(5) 0.97826(15) 0.09332(5)
H1 H -0.2289 0.9673 0.0549
C4 C -0.22039(5) 0.83177(16) 0.11853(6)
C5 C -0.18641(5) 0.79948(16) 0.16732(6)
C6 C -0.18050(6) 0.65953(17) 0.19612(7)
H2 H -0.1701 0.6763 0.2355
H3 H -0.1559 0.6050 0.1899
C7 C -0.22636(6) 0.57136(17) 0.17659(7)
C8 C -0.24676(7) 0.57154(18) 0.11336(7)
H4 H -0.2257 0.5171 0.1008
H5 H -0.2773 0.5231 0.1001
C9 C -0.25327(5) 0.71834(17) 0.08817(6)
C10 C -0.17424(5) 1.19432(16) 0.10165(6)
C11 C -0.26249(7) 0.6359(2) 0.19723(9)
H6 H -0.2699 0.7320 0.1835
H7 H -0.2494 0.6374 0.2368
H8 H -0.2909 0.5791 0.1844
C12 C -0.21415(8) 0.4187(2) 0.19850(8)
H9 H -0.1917 0.3782 0.1850
H10 H -0.2425 0.3616 0.1862
H11 H -0.2005 0.4205 0.2381
C13 C -0.26786(5) 1.06294(16) 0.09403(5)
C14 C -0.29055(5) 1.15886(18) 0.05198(6)
H12 H -0.2824 1.1616 0.0214
C15 C -0.32516(6) 1.2507(2) 0.05464(7)
H13 H -0.3397 1.3152 0.0261
C16 C -0.33828(5) 1.24758(19) 0.09935(7)
C17 C -0.31740(6) 1.14923(18) 0.14079(7)
H14 H -0.3269 1.1433 0.1704
C18 C -0.28222(5) 1.05935(17) 0.13802(6)
H15 H -0.2678 0.9947 0.1665
C19 C -0.38051(8) 1.3629(3) 0.14812(11)
H16 H -0.4056 1.4313 0.1420
H17 H -0.3521 1.3960 0.1773
H18 H -0.3898 1.2723 0.1582
O1 O -0.15176(4) 0.89493(11) 0.19767(4)
O2 O -0.28406(4) 0.74220(13) 0.04271(5)
O3 O -0.37177(5) 1.34656(16) 0.09906(7)
N1 N -0.11059(5) 1.09670(15) 0.20739(6)
H19 H -0.1044 1.1799 0.1977
H20 H -0.0926 1.0611 0.2386
N2 N -0.17060(5) 1.30126(16) 0.08240(6)
C20 C 0.10800(5) 0.67061(15) 0.41374(6)
C21 C 0.07336(5) 0.63017(15) 0.36553(5)
C22 C 0.02588(5) 0.70811(16) 0.34203(5)
H21 H 0.0159 0.7125 0.3019
C23 C 0.03361(5) 0.85852(16) 0.36377(6)
C24 C 0.07000(5) 0.89322(15) 0.41014(6)
C25 C 0.07924(6) 1.03556(16) 0.43747(6)
H22 H 0.1055 1.0808 0.4314
H23 H 0.0888 1.0222 0.4769
C26 C 0.03608(5) 1.13558(16) 0.41659(6)
C27 C 0.01303(6) 1.12305(17) 0.35373(7)
H24 H -0.0157 1.1803 0.3404
H25 H 0.0346 1.1624 0.3381
C28 C 0.00079(5) 0.97200(17) 0.33351(6)
C29 C 0.05269(7) 1.28811(18) 0.43382(8)
H26 H 0.0260 1.3520 0.4204
H27 H 0.0756 1.3150 0.4187
H28 H 0.0670 1.2937 0.4733
C30 C 0.00003(7) 1.0937(2) 0.44122(9)
H29 H -0.0112 0.9982 0.4298
H30 H -0.0263 1.1592 0.4286
H31 H 0.0148 1.0973 0.4807
C31 C 0.07914(5) 0.50469(16) 0.33874(5)
C32 C -0.01213(5) 0.62672(15) 0.35475(6)
C33 C -0.01510(6) 0.63171(17) 0.40595(6)
H32 H 0.0049 0.6934 0.4326
C34 C -0.04697(6) 0.54737(19) 0.41877(7)
H33 H -0.0483 0.5531 0.4535
C35 C -0.07662(6) 0.45504(19) 0.37961(7)
C36 C -0.07495(6) 0.4511(2) 0.32769(7)
H34 H -0.0954 0.3911 0.3007
C37 C -0.04302(6) 0.53591(18) 0.31586(6)
H35 H -0.0423 0.5319 0.2808
C38 C -0.11020(8) 0.3585(3) 0.44067(10)
H36 H -0.1353 0.2953 0.4400
H37 H -0.1162 0.4530 0.4509
H38 H -0.0804 0.3243 0.4670
O4 O 0.10456(4) 0.79598(11) 0.43922(4)
O5 O -0.03424(4) 0.94284(14) 0.29234(5)
O6 O -0.10828(5) 0.36276(16) 0.38775(6)
N3 N 0.14843(5) 0.60331(15) 0.44313(5)
H39 H 0.1551 0.5230 0.4318
H40 H 0.1678 0.6402 0.4734
N4 N 0.08292(5) 0.40415(15) 0.31550(5)
loop_
_geom_bond_atom_site_label_1
_geom_bond_atom_site_label_2
_geom_bond_site_symmetry_1
_geom_bond_site_symmetry_2
C1 C2 1_555 1_555
C2 C3 1_555 1_555
C3 H1 1_555 1_555
C4 C3 1_555 1_555
C5 C4 1_555 1_555
C6 C5 1_555 1_555
H2 C6 1_555 1_555
H3 C6 1_555 1_555
C7 C6 1_555 1_555
C8 C7 1_555 1_555
H4 C8 1_555 1_555
H5 C8 1_555 1_555
C9 C4 1_555 1_555
C10 C2 1_555 1_555
C11 C7 1_555 1_555
H6 C11 1_555 1_555
H7 C11 1_555 1_555
H8 C11 1_555 1_555
C12 C7 1_555 1_555
H9 C12 1_555 1_555
H10 C12 1_555 1_555
H11 C12 1_555 1_555
C13 C3 1_555 1_555
C14 C13 1_555 1_555
H12 C14 1_555 1_555
C15 C14 1_555 1_555
H13 C15 1_555 1_555
C16 C15 1_555 1_555
C17 C16 1_555 1_555
H14 C17 1_555 1_555
C18 C13 1_555 1_555
H15 C18 1_555 1_555
C19 H16 1_555 1_555
H17 C19 1_555 1_555
H18 C19 1_555 1_555
O1 C1 1_555 1_555
O2 C9 1_555 1_555
O3 C16 1_555 1_555
N1 C1 1_555 1_555
H19 N1 1_555 1_555
H20 N1 1_555 1_555
N2 C10 1_555 1_555
C20 C21 1_555 1_555
C21 C22 1_555 1_555
C22 H21 1_555 1_555
C23 C22 1_555 1_555
C24 C23 1_555 1_555
C25 C24 1_555 1_555
H22 C25 1_555 1_555
H23 C25 1_555 1_555
C26 C25 1_555 1_555
C27 C26 1_555 1_555
H24 C27 1_555 1_555
H25 C27 1_555 1_555
C28 C23 1_555 1_555
C29 C26 1_555 1_555
H26 C29 1_555 1_555
H27 C29 1_555 1_555
H28 C29 1_555 1_555
C30 C26 1_555 1_555
H29 C30 1_555 1_555
H30 C30 1_555 1_555
H31 C30 1_555 1_555
C31 C21 1_555 1_555
C32 C22 1_555 1_555
C33 C32 1_555 1_555
H32 C33 1_555 1_555
C34 C33 1_555 1_555
H33 C34 1_555 1_555
C35 C34 1_555 1_555
C36 C35 1_555 1_555
H34 C36 1_555 1_555
C37 C32 1_555 1_555
H35 C37 1_555 1_555
C38 H36 1_555 1_555
H37 C38 1_555 1_555
H38 C38 1_555 1_555
O4 C20 1_555 1_555
O5 C28 1_555 1_555
O6 C35 1_555 1_555
N3 C20 1_555 1_555
H39 N3 1_555 1_555
H40 N3 1_555 1_555
N4 C31 1_555 1_555
C5 O1 1_555 1_555
C8 C9 1_555 1_555
C17 C18 1_555 1_555
C19 O3 1_555 1_555
C24 O4 1_555 1_555
C27 C28 1_555 1_555
C36 C37 1_555 1_555
C38 O6 1_555 1_555

#END
