
#######################################################################
#
#                 Cambridge Crystallographic Data Centre
#                                CCDC 
#
#######################################################################
#
# If this CIF has been generated from an entry in the Cambridge 
# Structural Database, then it will include bibliographic, chemical, 
# crystal, experimental, refinement or atomic coordinate data resulting 
# from the CCDC's data processing and validation procedures.
#
#######################################################################

data_YETTAV
_chemical_formula_moiety         'C11 H13 N2 1+,2(H2 O1),Cl1 1-'
_chemical_name_systematic        
'2,3,4,9-tetrahydro-1H-pyrrolo[2,1-b]quinazolin-10-ium chloride hydrate'
_symmetry_cell_setting           orthorhombic
_symmetry_space_group_name_H-M   'P 21 21 21'
_symmetry_Int_Tables_number      19
_space_group_name_Hall           'P 2ac 2ab'
loop_
_symmetry_equiv_pos_site_id
_symmetry_equiv_pos_as_xyz
1 x,y,z
2 1/2-x,-y,1/2+z
3 -x,1/2+y,1/2-z
4 1/2+x,1/2-y,-z
_cell_length_a                   6.9445(6)
_cell_length_b                   9.6917(8)
_cell_length_c                   17.9575(15)
_cell_angle_alpha                90
_cell_angle_beta                 90
_cell_angle_gamma                90
_cell_volume                     1208.61
_exptl_crystal_colour            colorless
_exptl_crystal_description       plate
_cell_formula_units_Z            4
loop_
_atom_site_label
_atom_site_type_symbol
_atom_site_fract_x
_atom_site_fract_y
_atom_site_fract_z
Cl1 Cl 0.75739(3) 0.403165(17) 0.823087(10)
O1 O 1.06635(16) 0.26677(12) 0.93094(6)
H1 H 0.970237 0.310865 0.898565
H2 H 1.017923 0.259695 0.982239
O2 O 0.45092(17) 0.24074(11) 0.91746(7)
H3 H 0.540245 0.305081 0.893013
H4 H 0.316256 0.270943 0.921798
N1 N 0.80735(12) 0.68025(6) 0.90676(3)
N2 N 0.80632(10) 0.91516(5) 0.88373(3)
C1 C 0.80496(12) 0.78670(6) 0.86084(4)
C2 C 0.81321(13) 0.95869(7) 0.96104(4)
C3 C 0.81332(12) 0.83525(7) 1.01226(4)
C4 C 0.81790(15) 0.85441(9) 1.08887(4)
C5 C 0.81670(17) 0.74222(11) 1.13740(5)
C6 C 0.81216(15) 0.60858(10) 1.10873(5)
C7 C 0.81027(13) 0.58741(8) 1.03191(4)
C8 C 0.80969(12) 0.70075(6) 0.98445(4)
C9 C 0.80700(17) 0.77764(8) 0.77789(4)
C10 C 0.75920(18) 0.92661(9) 0.75414(4)
C11 C 0.81222(16) 1.01420(7) 0.82202(5)
H5 H 0.7946(18) 0.5865(14) 0.8845(7)
H6 H 0.942(3) 1.017(2) 0.9695(12)
H7 H 0.687(2) 1.0248(16) 0.9705(8)
H8 H 0.820(3) 0.9560(18) 1.1101(10)
H9 H 0.818(3) 0.761(2) 1.1960(10)
H10 H 0.807(3) 0.5210(18) 1.1461(9)
H11 H 0.803(3) 0.4854(18) 1.0052(9)
H12 H 0.952(2) 0.7507(19) 0.7604(9)
H13 H 0.705(2) 0.6978(14) 0.7633(8)
H14 H 0.833(3) 0.960(2) 0.7036(10)
H15 H 0.607(3) 0.937(2) 0.7403(11)
H16 H 0.956(3) 1.056(2) 0.8163(10)
H17 H 0.725(2) 1.1026(17) 0.8301(9)
loop_
_geom_bond_atom_site_label_1
_geom_bond_atom_site_label_2
_geom_bond_site_symmetry_1
_geom_bond_site_symmetry_2
O1 H1 1_555 1_555
H2 O1 1_555 1_555
O2 H3 1_555 1_555
H4 O2 1_555 1_555
N1 C1 1_555 1_555
N2 C1 1_555 1_555
C1 C9 1_555 1_555
C2 N2 1_555 1_555
C3 C2 1_555 1_555
C4 C3 1_555 1_555
C5 C4 1_555 1_555
C6 C5 1_555 1_555
C7 C6 1_555 1_555
C8 N1 1_555 1_555
C9 C10 1_555 1_555
C10 C11 1_555 1_555
C11 N2 1_555 1_555
H5 N1 1_555 1_555
H6 C2 1_555 1_555
H7 C2 1_555 1_555
H8 C4 1_555 1_555
H9 C5 1_555 1_555
H10 C6 1_555 1_555
H11 C7 1_555 1_555
H12 C9 1_555 1_555
H13 C9 1_555 1_555
H14 C10 1_555 1_555
H15 C10 1_555 1_555
H16 C11 1_555 1_555
H17 C11 1_555 1_555
C3 C8 1_555 1_555
C7 C8 1_555 1_555

#END
