
#######################################################################
#
#                 Cambridge Crystallographic Data Centre
#                                CCDC 
#
#######################################################################
#
# If this CIF has been generated from an entry in the Cambridge 
# Structural Database, then it will include bibliographic, chemical, 
# crystal, experimental, refinement or atomic coordinate data resulting 
# from the CCDC's data processing and validation procedures.
#
#######################################################################

data_YETXIH
_chemical_compound_source        'isolated from Callistemon rigidus'
_chemical_name_common            'callisretone A'
_chemical_formula_moiety         'C22 H30 O5'
_chemical_name_systematic        
6-hydroxy-8-methoxy-3a-methyl-5-(2-methylbutanoyl)-2-(propan-2-yl)-2,3,3a,8b-tetrahydro-1H-benzo[b]cyclopenta[d]furan-3-carbaldehyde
_chemical_properties_biological  'inhibitory effect on nitric oxide production'
_symmetry_cell_setting           triclinic
_symmetry_space_group_name_H-M   'P 1'
_symmetry_Int_Tables_number      1
_space_group_name_Hall           'P 1'
loop_
_symmetry_equiv_pos_site_id
_symmetry_equiv_pos_as_xyz
1 x,y,z
_cell_length_a                   9.3123(2)
_cell_length_b                   11.7835(2)
_cell_length_c                   11.8236(2)
_cell_angle_alpha                117.449(2)
_cell_angle_beta                 110.752(2)
_cell_angle_gamma                94.972(2)
_cell_volume                     1026.64
_exptl_crystal_colour            colorless
_exptl_crystal_description       plate
_cell_formula_units_Z            2
loop_
_atom_site_label
_atom_site_type_symbol
_atom_site_fract_x
_atom_site_fract_y
_atom_site_fract_z
O1 O -0.04541(19) -0.13885(14) 0.16044(16)
O2 O -0.44542(18) -0.03938(17) 0.32176(17)
H1 H -0.4548 0.0136 0.3921
O3 O -0.36294(18) 0.15593(17) 0.56738(17)
O4 O 0.4543(3) 0.4868(2) 0.8812(2)
O5 O 0.12092(15) 0.20506(13) 0.62256(14)
C1 C -0.0934(3) -0.06842(19) 0.2604(2)
C2 C -0.2174(2) 0.17609(19) 0.5953(2)
C3 C -0.2520(3) -0.0911(2) 0.2397(2)
H2 H -0.3335 -0.1600 0.1526
C4 C -0.0939(2) 0.28092(19) 0.7456(2)
H3 H -0.0072 0.3295 0.7411
C5 C -0.2890(2) -0.01120(19) 0.3489(2)
C6 C -0.1680(3) 0.3814(2) 0.8248(2)
H4 H -0.2084 0.4266 0.7759
H5 H -0.0875 0.4460 0.9200
H6 H -0.2548 0.3349 0.8281
C7 C -0.1698(2) 0.09519(19) 0.4858(2)
C8 C -0.0229(3) 0.2068(2) 0.8204(2)
H7 H -0.1033 0.1709 0.8394
H8 H 0.0011 0.1317 0.7565
C9 C -0.0109(2) 0.11094(17) 0.50001(19)
C10 C 0.1291(3) 0.2951(3) 0.9593(3)
H9 H 0.2084 0.3332 0.9420
H10 H 0.1704 0.2423 0.9978
H11 H 0.1046 0.3659 1.0259
C11 C 0.2669(2) 0.18235(18) 0.6041(2)
C12 C 0.3657(2) 0.31457(19) 0.6358(2)
H12 H 0.4783 0.3154 0.6630
C13 C 0.3542(3) 0.1381(2) 0.7043(2)
H13 H 0.3875 0.2089 0.8008
H14 H 0.4472 0.1178 0.6918
H15 H 0.2834 0.0597 0.6836
C14 C 0.2984(2) 0.3086(2) 0.4939(2)
H16 H 0.1982 0.3329 0.4795
C15 C 0.3573(3) 0.4323(2) 0.7584(3)
H17 H 0.2705 0.4651 0.7375
C16 C 0.2582(3) 0.1589(2) 0.3830(2)
H18 H 0.3518 0.1403 0.3684
H19 H 0.1713 0.1342 0.2926
C17 C 0.4143(3) 0.4011(2) 0.4843(3)
H20 H 0.5073 0.3678 0.4859
C18 C 0.2072(2) 0.07975(18) 0.4433(2)
H21 H 0.2534 0.0053 0.4279
C19 C 0.0286(2) 0.03357(19) 0.3929(2)
C20 C 0.4764(4) 0.5457(3) 0.6109(4)
H22 H 0.5378 0.6020 0.5955
H23 H 0.5436 0.5491 0.6963
H24 H 0.3869 0.5765 0.6205
C21 C 0.3354(3) 0.3964(4) 0.3446(4)
H25 H 0.2455 0.4311 0.3414
H26 H 0.2987 0.3053 0.2664
H27 H 0.4124 0.4498 0.3380
C22 C -0.1680(3) -0.2436(2) 0.0230(2)
H28 H -0.2243 -0.3081 0.0328
H29 H -0.1191 -0.2868 -0.0381
H30 H -0.2424 -0.2059 -0.0176
O6 O 0.1302(2) 0.64160(16) 0.17719(17)
O7 O 0.56045(19) 0.87808(17) 0.6454(2)
H31 H 0.5789 0.9014 0.7274
O8 O 0.5032(2) 0.89530(19) 0.84500(19)
O9 O -0.0665(3) 0.4446(2) 0.5678(2)
O10 O 0.01058(17) 0.70789(14) 0.54426(15)
C23 C 0.1901(3) 0.69632(19) 0.3194(2)
C24 C 0.3512(3) 0.7671(2) 0.4160(3)
H32 H 0.4248 0.7827 0.3844
C25 C 0.4015(2) 0.81419(19) 0.5589(2)
C26 C 0.2951(3) 0.79690(19) 0.6144(2)
C27 C 0.3569(3) 0.8416(2) 0.7649(2)
C28 C 0.1324(2) 0.72884(18) 0.5112(2)
C29 C 0.2461(3) 0.8258(2) 0.8275(2)
H33 H 0.1611 0.7399 0.7570
C30 C -0.1420(2) 0.6350(2) 0.4131(2)
C31 C -0.2000(3) 0.4948(2) 0.3883(2)
H34 H -0.3179 0.4630 0.3367
C32 C 0.3349(5) 0.8243(3) 0.9623(3)
H35 H 0.3825 0.7526 0.9413
H36 H 0.2604 0.8112 0.9974
H37 H 0.4178 0.9082 1.0333
C33 C -0.1347(3) 0.4031(2) 0.2907(2)
H38 H -0.0196 0.4236 0.3492
C34 C 0.1666(3) 0.9389(2) 0.8543(3)
H39 H 0.2479 1.0234 0.9319
H40 H 0.1264 0.9445 0.7699
C35 C -0.1487(3) 0.4548(2) 0.1919(2)
H41 H -0.2582 0.4200 0.1175
H42 H -0.0770 0.4288 0.1482
C36 C 0.0285(5) 0.9202(3) 0.8909(4)
H43 H -0.0528 0.8368 0.8147
H44 H -0.0169 0.9927 0.9038
H45 H 0.0682 0.9191 0.9771
C37 C -0.0998(2) 0.6088(2) 0.2890(2)
H46 H -0.1568 0.6489 0.2371
C38 C 0.0798(2) 0.67814(19) 0.3686(2)
C39 C -0.2540(3) 0.7199(3) 0.4338(3)
H47 H -0.2721 0.7316 0.5130
H48 H -0.3548 0.6760 0.3492
H49 H -0.2062 0.8058 0.4522
C40 C -0.1522(3) 0.5017(2) 0.5280(3)
H50 H -0.1929 0.5549 0.5883
C41 C -0.2125(3) 0.2511(2) 0.2196(3)
H51 H -0.1770 0.2308 0.2949
C42 C -0.3936(4) 0.2070(3) 0.1501(4)
H52 H -0.4326 0.2404 0.0884
H53 H -0.4307 0.2416 0.2221
H54 H -0.4331 0.1108 0.0955
C43 C -0.1510(3) 0.1692(2) 0.1127(3)
H55 H -0.1839 0.0766 0.0833
H56 H -0.0356 0.2019 0.1566
H57 H -0.1950 0.1776 0.0312
C44 C 0.2402(4) 0.6627(3) 0.1247(3)
H58 H 0.2913 0.7572 0.1725
H59 H 0.1827 0.6261 0.0242
H60 H 0.3205 0.6191 0.1422
loop_
_geom_bond_atom_site_label_1
_geom_bond_atom_site_label_2
_geom_bond_site_symmetry_1
_geom_bond_site_symmetry_2
O1 C1 1_555 1_555
O2 H1 1_555 1_555
O3 C2 1_555 1_555
O4 C15 1_555 1_555
O5 C9 1_555 1_555
C1 C3 1_555 1_555
C2 C4 1_555 1_555
C3 H2 1_555 1_555
C4 H3 1_555 1_555
C5 O2 1_555 1_555
C6 C4 1_555 1_555
H4 C6 1_555 1_555
H5 C6 1_555 1_555
H6 C6 1_555 1_555
C7 C2 1_555 1_555
C8 C4 1_555 1_555
H7 C8 1_555 1_555
H8 C8 1_555 1_555
C9 C7 1_555 1_555
C10 C8 1_555 1_555
H9 C10 1_555 1_555
H10 C10 1_555 1_555
H11 C10 1_555 1_555
C11 O5 1_555 1_555
C12 C11 1_555 1_555
H12 C12 1_555 1_555
C13 C11 1_555 1_555
H13 C13 1_555 1_555
H14 C13 1_555 1_555
H15 C13 1_555 1_555
C14 C12 1_555 1_555
H16 C14 1_555 1_555
C15 C12 1_555 1_555
H17 C15 1_555 1_555
C16 C14 1_555 1_555
H18 C16 1_555 1_555
H19 C16 1_555 1_555
C17 C14 1_555 1_555
H20 C17 1_555 1_555
C18 C11 1_555 1_555
H21 C18 1_555 1_555
C19 C1 1_555 1_555
C20 C17 1_555 1_555
H22 C20 1_555 1_555
H23 C20 1_555 1_555
H24 C20 1_555 1_555
C21 C17 1_555 1_555
H25 C21 1_555 1_555
H26 C21 1_555 1_555
H27 C21 1_555 1_555
C22 O1 1_555 1_555
H28 C22 1_555 1_555
H29 C22 1_555 1_555
H30 C22 1_555 1_555
O6 C23 1_555 1_555
O7 H31 1_555 1_555
O8 C27 1_555 1_555
O9 C40 1_555 1_555
O10 C28 1_555 1_555
C23 C24 1_555 1_555
C24 H32 1_555 1_555
C25 O7 1_555 1_555
C26 C25 1_555 1_555
C27 C26 1_555 1_555
C28 C26 1_555 1_555
C29 C27 1_555 1_555
H33 C29 1_555 1_555
C30 O10 1_555 1_555
C31 C30 1_555 1_555
H34 C31 1_555 1_555
C32 C29 1_555 1_555
H35 C32 1_555 1_555
H36 C32 1_555 1_555
H37 C32 1_555 1_555
C33 C31 1_555 1_555
H38 C33 1_555 1_555
C34 C29 1_555 1_555
H39 C34 1_555 1_555
H40 C34 1_555 1_555
C35 C33 1_555 1_555
H41 C35 1_555 1_555
H42 C35 1_555 1_555
C36 C34 1_555 1_555
H43 C36 1_555 1_555
H44 C36 1_555 1_555
H45 C36 1_555 1_555
C37 C30 1_555 1_555
H46 C37 1_555 1_555
C38 C23 1_555 1_555
C39 C30 1_555 1_555
H47 C39 1_555 1_555
H48 C39 1_555 1_555
H49 C39 1_555 1_555
C40 C31 1_555 1_555
H50 C40 1_555 1_555
C41 C33 1_555 1_555
H51 C41 1_555 1_555
C42 C41 1_555 1_555
H52 C42 1_555 1_555
H53 C42 1_555 1_555
H54 C42 1_555 1_555
C43 C41 1_555 1_555
H55 C43 1_555 1_555
H56 C43 1_555 1_555
H57 C43 1_555 1_555
C44 O6 1_555 1_555
H58 C44 1_555 1_555
H59 C44 1_555 1_555
H60 C44 1_555 1_555
C3 C5 1_555 1_555
C5 C7 1_555 1_555
C9 C19 1_555 1_555
C16 C18 1_555 1_555
C18 C19 1_555 1_555
C24 C25 1_555 1_555
C28 C38 1_555 1_555
C35 C37 1_555 1_555
C37 C38 1_555 1_555

#END
