
#######################################################################
#
#                 Cambridge Crystallographic Data Centre
#                                CCDC 
#
#######################################################################
#
# If this CIF has been generated from an entry in the Cambridge 
# Structural Database, then it will include bibliographic, chemical, 
# crystal, experimental, refinement or atomic coordinate data resulting 
# from the CCDC's data processing and validation procedures.
#
#######################################################################

data_YEVYAA
_chemical_formula_moiety         'C30 H28 N6,C1 H4 O1'
_chemical_name_systematic        
"N,N,N',N'-tetrakis(2-Pyridylmethyl)benzene-1,3-diamine methanol solvate"
_symmetry_cell_setting           triclinic
_symmetry_space_group_name_H-M   'P -1'
_symmetry_Int_Tables_number      2
_space_group_name_Hall           '-P 1'
loop_
_symmetry_equiv_pos_site_id
_symmetry_equiv_pos_as_xyz
1 x,y,z
2 -x,-y,-z
_cell_length_a                   8.0703(10)
_cell_length_b                   13.2071(17)
_cell_length_c                   14.379(2)
_cell_angle_alpha                64.833(15)
_cell_angle_beta                 81.997(16)
_cell_angle_gamma                88.423(15)
_cell_volume                     1372.74
_exptl_crystal_colour            colorless
_exptl_crystal_description       needle
_cell_formula_units_Z            2
loop_
_atom_site_label
_atom_site_type_symbol
_atom_site_fract_x
_atom_site_fract_y
_atom_site_fract_z
N1 N 0.7951(2) 0.74254(11) 0.16848(11)
N2 N 0.5249(2) 0.88868(12) 0.29865(12)
N3 N 1.1092(2) 0.88284(11) -0.06299(12)
N4 N 0.4901(2) 0.38134(11) 0.32483(11)
N5 N 0.6305(3) 0.37172(14) 0.55945(13)
N6 N 0.2222(2) 0.21395(12) 0.25135(13)
C1 C 0.7255(2) 0.65097(12) 0.15928(12)
C2 C 0.6377(2) 0.56290(12) 0.24570(12)
H1 H 0.6210 0.5668 0.3094
C3 C 0.5741(2) 0.46871(12) 0.23827(12)
C4 C 0.5972(2) 0.46586(14) 0.14053(13)
H2 H 0.5537 0.4058 0.1329
C5 C 0.6846(2) 0.55229(15) 0.05626(13)
H3 H 0.7009 0.5488 -0.0076
C6 C 0.7490(2) 0.64424(14) 0.06383(13)
H4 H 0.8076 0.7013 0.0057
C7 C 0.7261(3) 0.77371(13) 0.25100(13)
H5 H 0.8119 0.8155 0.2624
H6 H 0.6992 0.7059 0.3143
C8 C 0.5712(2) 0.84284(12) 0.23189(13)
C9 C 0.4838(3) 0.85916(14) 0.15079(15)
H7 H 0.5193 0.8273 0.1052
C10 C 0.3434(3) 0.92326(16) 0.13796(19)
H8 H 0.2838 0.9354 0.0834
C11 C 0.2928(3) 0.96872(18) 0.2066(2)
H9 H 0.1978 1.0114 0.2000
C12 C 0.3851(3) 0.94987(17) 0.2851(2)
H10 H 0.3501 0.9807 0.3316
C13 C 0.8785(3) 0.83379(13) 0.07483(15)
H11 H 0.8904 0.8983 0.0894
H12 H 0.8071 0.8542 0.0210
C14 C 1.0486(2) 0.80787(12) 0.03362(13)
C15 C 1.1384(3) 0.71621(14) 0.08981(14)
H13 H 1.0928 0.6653 0.1560
C16 C 1.2959(3) 0.70108(16) 0.04675(17)
H14 H 1.3573 0.6399 0.0834
C17 C 1.3608(3) 0.77847(16) -0.05178(16)
H15 H 1.4670 0.7712 -0.0826
C18 C 1.2629(3) 0.86667(16) -0.10273(15)
H16 H 1.3063 0.9184 -0.1691
C19 C 0.4766(3) 0.37912(14) 0.42746(13)
H17 H 0.3870 0.3262 0.4722
H18 H 0.4450 0.4525 0.4224
C20 C 0.6325(3) 0.34814(13) 0.47769(12)
C21 C 0.7626(3) 0.2959(2) 0.44483(16)
H19 H 0.7572 0.2793 0.3886
C22 C 0.9003(4) 0.2687(3) 0.4959(2)
H20 H 0.9902 0.2338 0.4752
C23 C 0.9003(5) 0.2952(3) 0.5794(3)
H21 H 0.9920 0.2793 0.6154
C24 C 0.7636(5) 0.3451(2) 0.6086(2)
H22 H 0.7647 0.3610 0.6657
C25 C 0.4289(3) 0.28328(13) 0.31674(14)
H23 H 0.4100 0.2221 0.3856
H24 H 0.5150 0.2614 0.2754
C26 C 0.2693(2) 0.29983(12) 0.26907(12)
C27 C 0.1762(3) 0.39527(14) 0.24627(15)
H25 H 0.2111 0.4534 0.2601
C28 C 0.0316(3) 0.40313(16) 0.20297(17)
H26 H -0.0315 0.4669 0.1862
C29 C -0.0177(3) 0.31502(17) 0.18505(16)
H27 H -0.1151 0.3174 0.1564
C30 C 0.0808(3) 0.22360(16) 0.21057(17)
H28 H 0.0466 0.1640 0.1986
O1 O 0.7360(4) 0.88840(17) 0.43806(16)
H29 H 0.623(7) 0.886(4) 0.389(4)
C31 C 0.7743(7) 0.9936(3) 0.4257(3)
H30 H 0.8242 0.9892 0.4840
H31 H 0.6739 1.0352 0.4211
H32 H 0.8516 1.0305 0.3632
loop_
_geom_bond_atom_site_label_1
_geom_bond_atom_site_label_2
_geom_bond_site_symmetry_1
_geom_bond_site_symmetry_2
N1 C1 1_555 1_555
N2 C8 1_555 1_555
N3 C14 1_555 1_555
N4 C3 1_555 1_555
N5 C20 1_555 1_555
N6 C26 1_555 1_555
C1 C2 1_555 1_555
C2 H1 1_555 1_555
C3 C2 1_555 1_555
C4 C3 1_555 1_555
H2 C4 1_555 1_555
C5 C4 1_555 1_555
H3 C5 1_555 1_555
C6 C1 1_555 1_555
H4 C6 1_555 1_555
C7 N1 1_555 1_555
H5 C7 1_555 1_555
H6 C7 1_555 1_555
C8 C7 1_555 1_555
C9 C8 1_555 1_555
H7 C9 1_555 1_555
C10 C9 1_555 1_555
H8 C10 1_555 1_555
C11 C10 1_555 1_555
H9 C11 1_555 1_555
C12 N2 1_555 1_555
H10 C12 1_555 1_555
C13 N1 1_555 1_555
H11 C13 1_555 1_555
H12 C13 1_555 1_555
C14 C13 1_555 1_555
C15 C14 1_555 1_555
H13 C15 1_555 1_555
C16 C15 1_555 1_555
H14 C16 1_555 1_555
C17 C16 1_555 1_555
H15 C17 1_555 1_555
C18 N3 1_555 1_555
H16 C18 1_555 1_555
C19 N4 1_555 1_555
H17 C19 1_555 1_555
H18 C19 1_555 1_555
C20 C19 1_555 1_555
C21 C20 1_555 1_555
H19 C21 1_555 1_555
C22 C21 1_555 1_555
H20 C22 1_555 1_555
C23 C22 1_555 1_555
H21 C23 1_555 1_555
C24 N5 1_555 1_555
H22 C24 1_555 1_555
C25 N4 1_555 1_555
H23 C25 1_555 1_555
H24 C25 1_555 1_555
C26 C25 1_555 1_555
C27 C26 1_555 1_555
H25 C27 1_555 1_555
C28 C27 1_555 1_555
H26 C28 1_555 1_555
C29 C28 1_555 1_555
H27 C29 1_555 1_555
C30 N6 1_555 1_555
H28 C30 1_555 1_555
O1 H29 1_555 1_555
C31 O1 1_555 1_555
H30 C31 1_555 1_555
H31 C31 1_555 1_555
H32 C31 1_555 1_555
C5 C6 1_555 1_555
C11 C12 1_555 1_555
C17 C18 1_555 1_555
C23 C24 1_555 1_555
C29 C30 1_555 1_555

#END
