
#######################################################################
#
#                 Cambridge Crystallographic Data Centre
#                                CCDC 
#
#######################################################################
#
# If this CIF has been generated from an entry in the Cambridge 
# Structural Database, then it will include bibliographic, chemical, 
# crystal, experimental, refinement or atomic coordinate data resulting 
# from the CCDC's data processing and validation procedures.
#
#######################################################################

data_YEWJUI
_chemical_formula_moiety         '0.35(C32 H32 N2),0.65(C32 H30 N2)'
_chemical_name_systematic        
'N^1^,N^4^-bis(2,6-dimethylphenyl)-1,4-diphenylbutane-1,4-diimine N^1^,N^4^-bis(2,6-dimethylphenyl)-1,4-diphenylbut-2-ene-1,4-diimine'
_symmetry_cell_setting           triclinic
_symmetry_space_group_name_H-M   'P -1'
_symmetry_Int_Tables_number      2
_space_group_name_Hall           '-P 1'
loop_
_symmetry_equiv_pos_site_id
_symmetry_equiv_pos_as_xyz
1 x,y,z
2 -x,-y,-z
_cell_length_a                   10.129(2)
_cell_length_b                   11.495(3)
_cell_length_c                   12.113(3)
_cell_angle_alpha                66.334(5)
_cell_angle_beta                 82.721(4)
_cell_angle_gamma                83.176(5)
_cell_volume                     1277.74
_exptl_crystal_colour            colorless
_exptl_crystal_description       block
_cell_formula_units_Z            2
loop_
_atom_site_label
_atom_site_type_symbol
_atom_site_fract_x
_atom_site_fract_y
_atom_site_fract_z
N1 N 0.96896(16) 0.78220(16) 0.37965(15)
C1 C 1.0000(2) 0.55297(18) 0.45035(18)
H1 H 1.0530 0.5513 0.3824
C2 C 0.92213(19) 0.67355(19) 0.43936(17)
C3 C 0.78552(19) 0.6712(2) 0.50244(17)
C4 C 0.7048(2) 0.5729(2) 0.52813(19)
H2 H 0.7352 0.5066 0.5038
C5 C 0.5799(2) 0.5715(3) 0.5892(2)
H3 H 0.5268 0.5049 0.6053
C6 C 0.5344(3) 0.6683(3) 0.6258(2)
H4 H 0.4511 0.6665 0.6684
C7 C 0.6112(3) 0.7675(3) 0.5999(2)
H5 H 0.5791 0.8338 0.6237
C8 C 0.7373(2) 0.7702(2) 0.5380(2)
H6 H 0.7890 0.8381 0.5205
C9 C 1.1024(2) 0.78808(18) 0.32472(19)
C10 C 1.1255(2) 0.80276(19) 0.2041(2)
C11 C 1.2552(2) 0.8137(2) 0.1516(2)
H7 H 1.2728 0.8227 0.0715
C12 C 1.3586(2) 0.8115(2) 0.2160(3)
H8 H 1.4456 0.8172 0.1798
C13 C 1.3338(2) 0.8008(2) 0.3331(3)
H9 H 1.4042 0.8013 0.3753
C14 C 1.2056(2) 0.7895(2) 0.3901(2)
C15 C 1.0118(2) 0.8081(2) 0.1333(2)
H10 H 0.9727 0.7276 0.1673
H11 H 1.0444 0.8260 0.0506
H12 H 0.9457 0.8740 0.1366
C16 C 1.1778(3) 0.7806(3) 0.5185(2)
H13 H 1.1015 0.8368 0.5237
H14 H 1.2540 0.8046 0.5421
H15 H 1.1604 0.6947 0.5715
N1A N 1.03104(16) 0.21780(16) 0.62035(15)
C1A C 1.0000(2) 0.44703(18) 0.54965(18)
H1A H 0.9470 0.4487 0.6176
C2A C 1.07787(19) 0.32645(19) 0.56064(17)
C3A C 1.21448(19) 0.3288(2) 0.49756(17)
C4A C 1.2952(2) 0.4271(2) 0.47187(19)
H2A H 1.2648 0.4934 0.4962
C5A C 1.4201(2) 0.4285(3) 0.4108(2)
H3A H 1.4732 0.4951 0.3947
C6A C 1.4656(3) 0.3317(3) 0.3742(2)
H4A H 1.5489 0.3335 0.3316
C7A C 1.3888(3) 0.2325(3) 0.4001(2)
H5A H 1.4209 0.1662 0.3763
C8A C 1.2627(2) 0.2298(2) 0.4620(2)
H6A H 1.2110 0.1619 0.4795
C9A C 0.8976(2) 0.21192(18) 0.67528(19)
C10A C 0.8745(2) 0.19724(19) 0.7959(2)
C11A C 0.7448(2) 0.1863(2) 0.8484(2)
H7A H 0.7272 0.1773 0.9285
C12A C 0.6414(2) 0.1885(2) 0.7840(3)
H8A H 0.5544 0.1828 0.8202
C13A C 0.6662(2) 0.1992(2) 0.6669(3)
H9A H 0.5958 0.1987 0.6247
C14A C 0.7944(2) 0.2105(2) 0.6099(2)
C15A C 0.9882(2) 0.1919(2) 0.8667(2)
H10A H 1.0273 0.2724 0.8327
H11A H 0.9556 0.1740 0.9494
H12A H 1.0543 0.1260 0.8634
C16A C 0.8222(3) 0.2194(3) 0.4815(2)
H13A H 0.8985 0.1632 0.4763
H14A H 0.7460 0.1954 0.4579
H15A H 0.8396 0.3053 0.4285
N2 N 0.76919(16) 0.46787(16) 0.06140(15)
C17 C 0.56170(19) 0.4830(2) -0.02945(19)
H16 H 0.601(2) 0.562(2) -0.103(2)
H17 H 0.531(3) 0.415(3) -0.063(3)
C18 C 0.67218(18) 0.41312(19) 0.05046(17)
C19 C 0.67086(18) 0.27340(19) 0.11829(17)
C20 C 0.5628(2) 0.2070(2) 0.12497(19)
H18 H 0.4867 0.2510 0.0879
C21 C 0.5665(2) 0.0763(2) 0.1860(2)
H19 H 0.4930 0.0329 0.1900
C22 C 0.6778(3) 0.0109(2) 0.2404(2)
H20 H 0.6800 -0.0771 0.2817
C23 C 0.7864(2) 0.0748(2) 0.2344(2)
H21 H 0.8625 0.0298 0.2709
C24 C 0.7832(2) 0.2050(2) 0.17464(19)
H22 H 0.8568 0.2476 0.1719
C25 C 0.78005(19) 0.60053(19) -0.00538(19)
C26 C 0.74042(19) 0.6838(2) 0.0531(2)
C27 C 0.7538(2) 0.8128(2) -0.0127(2)
H23 H 0.7257 0.8699 0.0238
C28 C 0.8077(2) 0.8576(2) -0.1304(2)
H24 H 0.8141 0.9446 -0.1736
C29 C 0.8522(2) 0.7735(2) -0.1844(2)
H25 H 0.8911 0.8044 -0.2636
C30 C 0.8404(2) 0.6440(2) -0.1234(2)
C31 C 0.8934(2) 0.5520(2) -0.1809(2)
H26 H 0.9496 0.4852 -0.1275
H27 H 0.9443 0.5959 -0.2559
H28 H 0.8203 0.5159 -0.1960
C32 C 0.6891(2) 0.6325(2) 0.1849(2)
H29 H 0.6013 0.6048 0.1934
H30 H 0.6856 0.6982 0.2153
H31 H 0.7478 0.5618 0.2298
N2A N 0.23081(16) 0.53213(16) -0.06140(15)
C17A C 0.43830(19) 0.5170(2) 0.02945(19)
H16A H 0.399(2) 0.438(2) 0.103(2)
H17A H 0.469(3) 0.585(3) 0.063(3)
C18A C 0.32782(18) 0.58688(19) -0.05046(17)
C19A C 0.32914(18) 0.72660(19) -0.11829(17)
C20A C 0.4372(2) 0.7930(2) -0.12497(19)
H18A H 0.5133 0.7490 -0.0879
C21A C 0.4335(2) 0.9237(2) -0.1860(2)
H19A H 0.5070 0.9671 -0.1900
C22A C 0.3222(3) 0.9891(2) -0.2404(2)
H20A H 0.3200 1.0771 -0.2817
C23A C 0.2136(2) 0.9252(2) -0.2344(2)
H21A H 0.1375 0.9702 -0.2709
C24A C 0.2168(2) 0.7950(2) -0.17464(19)
H22A H 0.1432 0.7524 -0.1719
C25A C 0.21995(19) 0.39947(19) 0.00538(19)
C26A C 0.25958(19) 0.3162(2) -0.0531(2)
C27A C 0.2462(2) 0.1872(2) 0.0127(2)
H23A H 0.2743 0.1301 -0.0238
C28A C 0.1923(2) 0.1424(2) 0.1304(2)
H24A H 0.1859 0.0554 0.1736
C29A C 0.1478(2) 0.2265(2) 0.1844(2)
H25A H 0.1089 0.1956 0.2636
C30A C 0.1596(2) 0.3560(2) 0.1234(2)
C31A C 0.1066(2) 0.4480(2) 0.1809(2)
H26A H 0.0504 0.5148 0.1275
H27A H 0.0557 0.4041 0.2559
H28A H 0.1797 0.4841 0.1960
C32A C 0.3109(2) 0.3675(2) -0.1849(2)
H29A H 0.3987 0.3952 -0.1934
H30A H 0.3144 0.3018 -0.2153
H31A H 0.2522 0.4382 -0.2298
H32? H 0.5721 0.5032 -0.1124
loop_
_geom_bond_atom_site_label_1
_geom_bond_atom_site_label_2
_geom_bond_site_symmetry_1
_geom_bond_site_symmetry_2
N1 C2 1_555 1_555
C1 H1 1_555 1_555
C2 C1 1_555 1_555
C3 C2 1_555 1_555
C4 C3 1_555 1_555
H2 C4 1_555 1_555
C5 C4 1_555 1_555
H3 C5 1_555 1_555
C6 C5 1_555 1_555
H4 C6 1_555 1_555
C7 C6 1_555 1_555
H5 C7 1_555 1_555
C8 C3 1_555 1_555
H6 C8 1_555 1_555
C9 N1 1_555 1_555
C10 C9 1_555 1_555
C11 C10 1_555 1_555
H7 C11 1_555 1_555
C12 C11 1_555 1_555
H8 C12 1_555 1_555
C13 C12 1_555 1_555
H9 C13 1_555 1_555
C14 C9 1_555 1_555
C15 C10 1_555 1_555
H10 C15 1_555 1_555
H11 C15 1_555 1_555
H12 C15 1_555 1_555
C16 C14 1_555 1_555
H13 C16 1_555 1_555
H14 C16 1_555 1_555
H15 C16 1_555 1_555
N2 C18 1_555 1_555
C17 H16 1_555 1_555
H17 C17 1_555 1_555
C18 C17 1_555 1_555
C19 C18 1_555 1_555
C20 C19 1_555 1_555
H18 C20 1_555 1_555
C21 C20 1_555 1_555
H19 C21 1_555 1_555
C22 C21 1_555 1_555
H20 C22 1_555 1_555
C23 C22 1_555 1_555
H21 C23 1_555 1_555
C24 C19 1_555 1_555
H22 C24 1_555 1_555
C25 N2 1_555 1_555
C26 C25 1_555 1_555
C27 C26 1_555 1_555
H23 C27 1_555 1_555
C28 C27 1_555 1_555
H24 C28 1_555 1_555
C29 C28 1_555 1_555
H25 C29 1_555 1_555
C30 C25 1_555 1_555
C31 C30 1_555 1_555
H26 C31 1_555 1_555
H27 C31 1_555 1_555
H28 C31 1_555 1_555
C32 C26 1_555 1_555
H29 C32 1_555 1_555
H30 C32 1_555 1_555
H31 C32 1_555 1_555
N1A C2A 1_555 1_555
C1A C1 1_555 1_555
H1A C1A 1_555 1_555
C2A C1A 1_555 1_555
C3A C2A 1_555 1_555
C4A C3A 1_555 1_555
H2A C4A 1_555 1_555
C5A C4A 1_555 1_555
H3A C5A 1_555 1_555
C6A C5A 1_555 1_555
H4A C6A 1_555 1_555
C7A C6A 1_555 1_555
H5A C7A 1_555 1_555
C8A C3A 1_555 1_555
H6A C8A 1_555 1_555
C9A N1A 1_555 1_555
C10A C9A 1_555 1_555
C11A C10A 1_555 1_555
H7A C11A 1_555 1_555
C12A C11A 1_555 1_555
H8A C12A 1_555 1_555
C13A C12A 1_555 1_555
H9A C13A 1_555 1_555
C14A C9A 1_555 1_555
C15A C10A 1_555 1_555
H10A C15A 1_555 1_555
H11A C15A 1_555 1_555
H12A C15A 1_555 1_555
C16A C14A 1_555 1_555
H13A C16A 1_555 1_555
H14A C16A 1_555 1_555
H15A C16A 1_555 1_555
N2A C18A 1_555 1_555
C17A C17 1_555 1_555
H16A C17A 1_555 1_555
H17A C17A 1_555 1_555
C18A C17A 1_555 1_555
C19A C18A 1_555 1_555
C20A C19A 1_555 1_555
H18A C20A 1_555 1_555
C21A C20A 1_555 1_555
H19A C21A 1_555 1_555
C22A C21A 1_555 1_555
H20A C22A 1_555 1_555
C23A C22A 1_555 1_555
H21A C23A 1_555 1_555
C24A C19A 1_555 1_555
H22A C24A 1_555 1_555
C25A N2A 1_555 1_555
C26A C25A 1_555 1_555
C27A C26A 1_555 1_555
H23A C27A 1_555 1_555
C28A C27A 1_555 1_555
H24A C28A 1_555 1_555
C29A C28A 1_555 1_555
H25A C29A 1_555 1_555
C30A C25A 1_555 1_555
C31A C30A 1_555 1_555
H26A C31A 1_555 1_555
H27A C31A 1_555 1_555
H28A C31A 1_555 1_555
C32A C26A 1_555 1_555
H29A C32A 1_555 1_555
H30A C32A 1_555 1_555
H31A C32A 1_555 1_555
C7 C8 1_555 1_555
C13 C14 1_555 1_555
C23 C24 1_555 1_555
C29 C30 1_555 1_555
C7A C8A 1_555 1_555
C13A C14A 1_555 1_555
C23A C24A 1_555 1_555
C29A C30A 1_555 1_555

#END
