
#######################################################################
#
#                 Cambridge Crystallographic Data Centre
#                                CCDC 
#
#######################################################################
#
# If this CIF has been generated from an entry in the Cambridge 
# Structural Database, then it will include bibliographic, chemical, 
# crystal, experimental, refinement or atomic coordinate data resulting 
# from the CCDC's data processing and validation procedures.
#
#######################################################################

data_YEWMOF
_chemical_formula_moiety         'C19 H26 N1 O1 S1 1+,Cl1 1-'
_chemical_name_systematic        
'N-benzyl-1-hydroxy-3-methyl-1-[4-(methylsulfanyl)phenyl]butan-2-aminium chloride'
_symmetry_cell_setting           monoclinic
_symmetry_space_group_name_H-M   'P 21'
_symmetry_Int_Tables_number      4
_space_group_name_Hall           'P 2yb'
loop_
_symmetry_equiv_pos_site_id
_symmetry_equiv_pos_as_xyz
1 x,y,z
2 -x,1/2+y,-z
_cell_length_a                   7.67810(10)
_cell_length_b                   7.98550(10)
_cell_length_c                   15.5357(2)
_cell_angle_alpha                90
_cell_angle_beta                 91.5140(10)
_cell_angle_gamma                90
_cell_volume                     952.215
_exptl_crystal_colour            colorless
_exptl_crystal_description       plate
_cell_formula_units_Z            2
loop_
_atom_site_label
_atom_site_type_symbol
_atom_site_fract_x
_atom_site_fract_y
_atom_site_fract_z
Cl1 Cl 1.05995(15) 0.45586(11) -0.05197(5)
S1 S 0.30364(12) 0.13512(12) 0.45975(5)
O1 O 0.9498(3) 0.2634(3) 0.17512(16)
H1 H 0.9667 0.1864 0.1414
N1 N 0.9192(4) 0.5860(3) 0.11829(15)
H2 H 0.8886 0.6892 0.1024
H3 H 0.9311 0.5265 0.0704
C1 C 0.6156(5) 0.2435(5) 0.3924(2)
H4 H 0.6561 0.2621 0.4486
C2 C 0.6632(4) 0.2578(4) 0.2386(2)
C3 C 1.0839(4) 0.6548(4) 0.2552(2)
C4 C 0.4524(5) 0.1781(4) 0.3775(2)
C5 C 0.7739(4) 0.3190(4) 0.1657(2)
H5 H 0.7243 0.2786 0.1107
C6 C 0.7711(4) 0.5120(4) 0.16673(18)
H6 H 0.7856 0.5473 0.2269
C7 C 1.0954(4) 0.5962(5) 0.1633(2)
H7 H 1.1498 0.4866 0.1626
H8 H 1.1687 0.6727 0.1321
C8 C 1.0213(5) 0.8124(4) 0.2746(2)
H9 H 0.9889 0.8854 0.2304
C9 C 0.5957(4) 0.5833(4) 0.1327(2)
H10 H 0.5041 0.5113 0.1551
C10 C 0.7205(5) 0.2822(5) 0.3236(2)
H11 H 0.8314 0.3253 0.3345
C11 C 0.5001(5) 0.1872(4) 0.2246(2)
H12 H 0.4608 0.1662 0.1685
C12 C 0.3941(5) 0.1473(5) 0.2926(2)
H13 H 0.2848 0.1003 0.2820
C13 C 1.0571(5) 0.7557(6) 0.4258(2)
H14 H 1.0484 0.7895 0.4828
C14 C 0.5631(5) 0.7598(5) 0.1674(3)
H15 H 0.5696 0.7580 0.2292
H16 H 0.4496 0.7971 0.1485
H17 H 0.6497 0.8349 0.1463
C15 C 1.1203(5) 0.5992(5) 0.4072(2)
H18 H 1.1544 0.5273 0.4516
C16 C 0.5763(6) 0.5791(6) 0.0342(2)
H19 H 0.6491 0.6637 0.0100
H20 H 0.4570 0.5999 0.0175
H21 H 0.6106 0.4711 0.0135
C17 C 1.0062(5) 0.8629(5) 0.3600(2)
H22 H 0.9621 0.9682 0.3726
C18 C 1.1336(5) 0.5481(5) 0.3221(3)
H23 H 1.1760 0.4419 0.3098
C19 C 0.4123(6) 0.2098(6) 0.5562(2)
H24 H 0.4473 0.3240 0.5483
H25 H 0.5132 0.1421 0.5685
H26 H 0.3344 0.2031 0.6034
loop_
_geom_bond_atom_site_label_1
_geom_bond_atom_site_label_2
_geom_bond_site_symmetry_1
_geom_bond_site_symmetry_2
S1 C4 1_555 1_555
O1 H1 1_555 1_555
N1 H2 1_555 1_555
H3 N1 1_555 1_555
C1 H4 1_555 1_555
C2 C5 1_555 1_555
C3 C7 1_555 1_555
C4 C1 1_555 1_555
C5 O1 1_555 1_555
H5 C5 1_555 1_555
C6 N1 1_555 1_555
H6 C6 1_555 1_555
C7 N1 1_555 1_555
H7 C7 1_555 1_555
H8 C7 1_555 1_555
C8 C3 1_555 1_555
H9 C8 1_555 1_555
C9 C6 1_555 1_555
H10 C9 1_555 1_555
C10 C1 1_555 1_555
H11 C10 1_555 1_555
C11 C2 1_555 1_555
H12 C11 1_555 1_555
C12 C4 1_555 1_555
H13 C12 1_555 1_555
C13 H14 1_555 1_555
C14 C9 1_555 1_555
H15 C14 1_555 1_555
H16 C14 1_555 1_555
H17 C14 1_555 1_555
C15 C13 1_555 1_555
H18 C15 1_555 1_555
C16 C9 1_555 1_555
H19 C16 1_555 1_555
H20 C16 1_555 1_555
H21 C16 1_555 1_555
C17 C8 1_555 1_555
H22 C17 1_555 1_555
C18 C3 1_555 1_555
H23 C18 1_555 1_555
C19 S1 1_555 1_555
H24 C19 1_555 1_555
H25 C19 1_555 1_555
H26 C19 1_555 1_555
C2 C10 1_555 1_555
C5 C6 1_555 1_555
C11 C12 1_555 1_555
C13 C17 1_555 1_555
C15 C18 1_555 1_555

#END
