
#######################################################################
#
#                 Cambridge Crystallographic Data Centre
#                                CCDC 
#
#######################################################################
#
# If this CIF has been generated from an entry in the Cambridge 
# Structural Database, then it will include bibliographic, chemical, 
# crystal, experimental, refinement or atomic coordinate data resulting 
# from the CCDC's data processing and validation procedures.
#
#######################################################################

data_YEWSIE
_chemical_formula_moiety         'C39 H52 N1 P1 Si2'
_chemical_name_systematic        
(2-(2,6-Diisopropylphenyl)-3,3,3-trimethyldisilazanylidene)(2,2'',4,4'',6,6''-hexamethyl-1,1':3',1''-terphenyl-2'-yl)phosphine
_symmetry_cell_setting           monoclinic
_symmetry_space_group_name_H-M   'P 21/c'
_symmetry_Int_Tables_number      14
_space_group_name_Hall           '-P 2ybc'
loop_
_symmetry_equiv_pos_site_id
_symmetry_equiv_pos_as_xyz
1 x,y,z
2 -x,1/2+y,1/2-z
3 -x,-y,-z
4 x,1/2-y,1/2+z
_cell_length_a                   21.048(4)
_cell_length_b                   11.345(2)
_cell_length_c                   16.460(3)
_cell_angle_alpha                90
_cell_angle_beta                 108.619(2)
_cell_angle_gamma                90
_cell_volume                     3724.77
_exptl_crystal_colour            colorless
_exptl_crystal_description       Prism
_cell_formula_units_Z            4
loop_
_atom_site_label
_atom_site_type_symbol
_atom_site_fract_x
_atom_site_fract_y
_atom_site_fract_z
P1 P 0.27422(2) 0.74901(4) 0.39843(3)
Si1 Si 0.25397(2) 0.86463(4) 0.48445(3)
Si2 Si 0.20575(3) 1.09889(4) 0.53354(3)
N1 N 0.21460(6) 0.99637(11) 0.45637(8)
C1 C 0.19252(8) 1.02828(13) 0.36606(10)
C2 C 0.12703(8) 0.99948(14) 0.31412(11)
C3 C 0.10618(9) 1.03873(16) 0.22932(11)
H1 H 0.0621 1.0206 0.1934
C4 C 0.14780(9) 1.10304(17) 0.19617(11)
H2 H 0.1320 1.1306 0.1387
C5 C 0.21247(9) 1.12705(15) 0.24691(11)
H3 H 0.2413 1.1698 0.2234
C6 C 0.23649(8) 1.08978(14) 0.33227(10)
C7 C 0.07874(9) 0.92697(16) 0.34577(12)
H4 H 0.1041 0.8966 0.4042
C8 C 0.05193(11) 0.82067(18) 0.28762(13)
H5 H 0.0260 0.8482 0.2301
H6 H 0.0230 0.7735 0.3113
H7 H 0.0896 0.7724 0.2842
C9 C 0.02077(10) 1.0019(2) 0.35361(16)
H8 H 0.0383 1.0647 0.3957
H9 H -0.0100 0.9522 0.3724
H10 H -0.0032 1.0368 0.2978
C10 C 0.30958(8) 1.11414(14) 0.38319(11)
H11 H 0.3181 1.0827 0.4425
C11 C 0.32566(10) 1.24610(16) 0.39053(14)
H12 H 0.3174 1.2793 0.3331
H13 H 0.3728 1.2576 0.4245
H14 H 0.2970 1.2858 0.4187
C12 C 0.35636(9) 1.04927(16) 0.34343(12)
H15 H 0.3465 0.9647 0.3409
H16 H 0.4031 1.0625 0.3786
H17 H 0.3494 1.0792 0.2854
C13 C 0.15758(13) 1.02898(19) 0.59838(14)
H18 H 0.1133 1.0048 0.5604
H19 H 0.1522 1.0857 0.6406
H20 H 0.1819 0.9597 0.6281
C14 C 0.29079(10) 1.14020(17) 0.60589(12)
H21 H 0.3171 1.0686 0.6265
H22 H 0.2865 1.1848 0.6548
H23 H 0.3135 1.1888 0.5743
C15 C 0.16261(10) 1.23192(16) 0.47550(13)
H24 H 0.1875 1.2625 0.4389
H25 H 0.1605 1.2925 0.5171
H26 H 0.1170 1.2109 0.4400
C16 C 0.31343(7) 0.63157(13) 0.47723(9)
C17 C 0.27895(7) 0.56526(13) 0.52267(9)
C18 C 0.31215(8) 0.47279(14) 0.57556(10)
H27 H 0.2891 0.4287 0.6065
C19 C 0.37764(8) 0.44421(14) 0.58370(11)
H28 H 0.3992 0.3809 0.6198
C20 C 0.41187(8) 0.50813(14) 0.53916(10)
H29 H 0.4570 0.4886 0.5449
C21 C 0.38034(8) 0.60137(13) 0.48574(9)
C22 C 0.20812(7) 0.59239(13) 0.51748(10)
C23 C 0.15437(8) 0.56372(14) 0.44341(10)
C24 C 0.08953(8) 0.59131(15) 0.44072(11)
H30 H 0.0533 0.5704 0.3913
C25 C 0.07568(9) 0.64872(16) 0.50803(12)
C26 C 0.12900(9) 0.67428(15) 0.58075(11)
H31 H 0.1204 0.7129 0.6274
C27 C 0.19492(8) 0.64516(14) 0.58771(10)
C28 C 0.16572(9) 0.50722(16) 0.36594(11)
H32 H 0.1273 0.4573 0.3365
H33 H 0.2065 0.4590 0.3844
H34 H 0.1708 0.5688 0.3267
C29 C 0.00462(10) 0.6808(2) 0.50227(15)
H35 H 0.0050 0.7248 0.5536
H36 H -0.0219 0.6087 0.4981
H37 H -0.0153 0.7296 0.4513
C30 C 0.24943(9) 0.67073(16) 0.67148(10)
H38 H 0.2400 0.7458 0.6948
H39 H 0.2928 0.6756 0.6615
H40 H 0.2508 0.6074 0.7125
C31 C 0.41849(7) 0.67134(13) 0.43918(10)
C32 C 0.45862(8) 0.76567(15) 0.48028(10)
C33 C 0.49229(8) 0.83228(15) 0.43566(11)
H41 H 0.5199 0.8959 0.4640
C34 C 0.48650(8) 0.80807(15) 0.35094(11)
C35 C 0.44715(9) 0.71298(15) 0.31147(11)
H42 H 0.4433 0.6946 0.2538
C36 C 0.41320(8) 0.64395(14) 0.35389(10)
C37 C 0.46323(10) 0.79808(18) 0.57130(11)
H43 H 0.4180 0.8081 0.5750
H44 H 0.4883 0.8719 0.5874
H45 H 0.4864 0.7352 0.6104
C38 C 0.52078(10) 0.88412(18) 0.30181(13)
H46 H 0.5495 0.9421 0.3407
H47 H 0.4869 0.9252 0.2555
H48 H 0.5482 0.8343 0.2774
C39 C 0.37014(11) 0.54247(17) 0.30830(12)
H49 H 0.3705 0.5389 0.2489
H50 H 0.3241 0.5540 0.3086
H51 H 0.3879 0.4686 0.3377
H52 H 0.2770(8) 0.8563(14) 0.5732(10)
loop_
_geom_bond_atom_site_label_1
_geom_bond_atom_site_label_2
_geom_bond_site_symmetry_1
_geom_bond_site_symmetry_2
P1 Si1 1_555 1_555
Si1 N1 1_555 1_555
Si2 N1 1_555 1_555
N1 C1 1_555 1_555
C1 C2 1_555 1_555
C2 C3 1_555 1_555
C3 H1 1_555 1_555
C4 C3 1_555 1_555
H2 C4 1_555 1_555
C5 C4 1_555 1_555
H3 C5 1_555 1_555
C6 C1 1_555 1_555
C7 C2 1_555 1_555
H4 C7 1_555 1_555
C8 C7 1_555 1_555
H5 C8 1_555 1_555
H6 C8 1_555 1_555
H7 C8 1_555 1_555
C9 C7 1_555 1_555
H8 C9 1_555 1_555
H9 C9 1_555 1_555
H10 C9 1_555 1_555
C10 C6 1_555 1_555
H11 C10 1_555 1_555
C11 C10 1_555 1_555
H12 C11 1_555 1_555
H13 C11 1_555 1_555
H14 C11 1_555 1_555
C12 C10 1_555 1_555
H15 C12 1_555 1_555
H16 C12 1_555 1_555
H17 C12 1_555 1_555
C13 Si2 1_555 1_555
H18 C13 1_555 1_555
H19 C13 1_555 1_555
H20 C13 1_555 1_555
C14 Si2 1_555 1_555
H21 C14 1_555 1_555
H22 C14 1_555 1_555
H23 C14 1_555 1_555
C15 Si2 1_555 1_555
H24 C15 1_555 1_555
H25 C15 1_555 1_555
H26 C15 1_555 1_555
C16 P1 1_555 1_555
C17 C16 1_555 1_555
C18 C17 1_555 1_555
H27 C18 1_555 1_555
C19 C18 1_555 1_555
H28 C19 1_555 1_555
C20 C19 1_555 1_555
H29 C20 1_555 1_555
C21 C16 1_555 1_555
C22 C17 1_555 1_555
C23 C22 1_555 1_555
C24 C23 1_555 1_555
H30 C24 1_555 1_555
C25 C24 1_555 1_555
C26 C25 1_555 1_555
H31 C26 1_555 1_555
C27 C22 1_555 1_555
C28 C23 1_555 1_555
H32 C28 1_555 1_555
H33 C28 1_555 1_555
H34 C28 1_555 1_555
C29 C25 1_555 1_555
H35 C29 1_555 1_555
H36 C29 1_555 1_555
H37 C29 1_555 1_555
C30 C27 1_555 1_555
H38 C30 1_555 1_555
H39 C30 1_555 1_555
H40 C30 1_555 1_555
C31 C21 1_555 1_555
C32 C31 1_555 1_555
C33 C32 1_555 1_555
H41 C33 1_555 1_555
C34 C33 1_555 1_555
C35 C34 1_555 1_555
H42 C35 1_555 1_555
C36 C31 1_555 1_555
C37 C32 1_555 1_555
H43 C37 1_555 1_555
H44 C37 1_555 1_555
H45 C37 1_555 1_555
C38 C34 1_555 1_555
H46 C38 1_555 1_555
H47 C38 1_555 1_555
H48 C38 1_555 1_555
C39 C36 1_555 1_555
H49 C39 1_555 1_555
H50 C39 1_555 1_555
H51 C39 1_555 1_555
H52 Si1 1_555 1_555
C5 C6 1_555 1_555
C20 C21 1_555 1_555
C26 C27 1_555 1_555
C35 C36 1_555 1_555

#END
