
#######################################################################
#
#                 Cambridge Crystallographic Data Centre
#                                CCDC 
#
#######################################################################
#
# If this CIF has been generated from an entry in the Cambridge 
# Structural Database, then it will include bibliographic, chemical, 
# crystal, experimental, refinement or atomic coordinate data resulting 
# from the CCDC's data processing and validation procedures.
#
#######################################################################

data_YEWYUW
_chemical_formula_moiety         'C29 H20 N2'
_chemical_name_systematic        1,8-Diphenyl-9-(pyridin-2-yl)-9H-carbazole
_symmetry_cell_setting           triclinic
_symmetry_space_group_name_H-M   'P -1'
_symmetry_Int_Tables_number      2
_space_group_name_Hall           '-P 1'
loop_
_symmetry_equiv_pos_site_id
_symmetry_equiv_pos_as_xyz
1 x,y,z
2 -x,-y,-z
_cell_length_a                   9.6120(7)
_cell_length_b                   10.2532(8)
_cell_length_c                   21.4325(17)
_cell_angle_alpha                87.8650(10)
_cell_angle_beta                 80.9780(10)
_cell_angle_gamma                72.3540(10)
_cell_volume                     1987.85
_exptl_crystal_colour            colorless
_exptl_crystal_description       prism
_cell_formula_units_Z            4
loop_
_atom_site_label
_atom_site_type_symbol
_atom_site_fract_x
_atom_site_fract_y
_atom_site_fract_z
C1 C 0.2265(2) 0.76944(19) 0.47379(9)
C2 C 0.0958(2) 0.7646(2) 0.45698(9)
H1 H 0.0220 0.8460 0.4485
C3 C 0.0752(2) 0.6380(2) 0.45287(10)
H2 H -0.0122 0.6297 0.4402
C4 C 0.1840(2) 0.5242(2) 0.46745(10)
H3 H 0.1723 0.4357 0.4655
C5 C 0.3097(2) 0.5396(2) 0.48487(10)
H4 H 0.3829 0.4601 0.4956
C6 C 0.2691(2) 0.96116(19) 0.53083(9)
C7 C 0.2467(2) 0.9243(2) 0.59493(9)
C8 C 0.2040(2) 0.8006(2) 0.61832(9)
C9 C 0.0713(2) 0.7819(2) 0.60982(9)
H5 H 0.0033 0.8504 0.5893
C10 C 0.0368(2) 0.6642(2) 0.63096(10)
H6 H -0.0545 0.6526 0.6248
C11 C 0.1342(3) 0.5639(2) 0.66089(10)
H7 H 0.1115 0.4822 0.6741
C12 C 0.2642(3) 0.5827(2) 0.67155(10)
H8 H 0.3304 0.5149 0.6932
C13 C 0.2991(2) 0.7007(2) 0.65067(10)
H9 H 0.3887 0.7134 0.6586
C14 C 0.2696(2) 1.0113(2) 0.63799(10)
H10 H 0.2554 0.9903 0.6816
C15 C 0.3123(2) 1.1278(2) 0.62034(10)
H11 H 0.3268 1.1834 0.6517
C16 C 0.3333(2) 1.1620(2) 0.55765(10)
H12 H 0.3620 1.2412 0.5453
C17 C 0.3117(2) 1.07887(19) 0.51259(9)
C18 C 0.3241(2) 1.08688(19) 0.44486(9)
C19 C 0.3631(2) 1.1796(2) 0.40132(10)
H13 H 0.3893 1.2547 0.4151
C20 C 0.3631(2) 1.1604(2) 0.33859(10)
H14 H 0.3878 1.2237 0.3087
C21 C 0.3270(2) 1.0487(2) 0.31788(10)
H15 H 0.3268 1.0388 0.2740
C22 C 0.2916(2) 0.9517(2) 0.35889(9)
C23 C 0.2890(2) 0.97445(19) 0.42357(9)
C24 C 0.2564(2) 0.8349(2) 0.33268(9)
C25 C 0.3533(2) 0.7022(2) 0.33161(10)
H16 H 0.4443 0.6854 0.3472
C26 C 0.3173(3) 0.5950(2) 0.30799(11)
H17 H 0.3837 0.5049 0.3072
C27 C 0.1850(3) 0.6187(3) 0.28549(11)
H18 H 0.1601 0.5445 0.2698
C28 C 0.0888(3) 0.7495(3) 0.28563(10)
H19 H -0.0018 0.7657 0.2698
C29 C 0.1248(2) 0.8571(2) 0.30891(9)
H20 H 0.0588 0.9473 0.3086
N1 N 0.25449(18) 0.89857(15) 0.47625(7)
N2 N 0.33454(18) 0.66134(16) 0.48750(8)
C30 C 0.7753(2) 0.90138(19) 1.00401(9)
C31 C 0.9084(2) 0.8274(2) 0.97083(9)
H21 H 0.9812 0.8696 0.9537
C32 C 0.9316(3) 0.6885(2) 0.96356(10)
H22 H 1.0202 0.6332 0.9396
C33 C 0.8261(3) 0.6317(2) 0.99104(11)
H23 H 0.8410 0.5364 0.9868
C34 C 0.6978(3) 0.7139(2) 1.02495(11)
H24 H 0.6263 0.6727 1.0448
C35 C 0.7263(2) 1.1163(2) 1.06793(9)
C36 C 0.7387(2) 1.0671(2) 1.12966(9)
C37 C 0.7736(2) 0.9205(2) 1.14828(9)
C38 C 0.9093(2) 0.8250(2) 1.12617(10)
H25 H 0.9830 0.8534 1.0993
C39 C 0.9369(3) 0.6883(2) 1.14338(11)
H26 H 1.0293 0.6240 1.1279
C40 C 0.8321(3) 0.6456(2) 1.18243(11)
H27 H 0.8514 0.5519 1.1934
C41 C 0.6990(3) 0.7391(3) 1.20559(11)
H28 H 0.6267 0.7101 1.2331
C42 C 0.6702(3) 0.8760(2) 1.18876(10)
H29 H 0.5784 0.9399 1.2052
C43 C 0.7123(3) 1.1668(2) 1.17628(10)
H30 H 0.7168 1.1384 1.2188
C44 C 0.6795(3) 1.3061(2) 1.16326(10)
H31 H 0.6635 1.3699 1.1967
C45 C 0.6702(2) 1.3520(2) 1.10268(10)
H32 H 0.6496 1.4469 1.0938
C46 C 0.6913(2) 1.25752(19) 1.05415(9)
C47 C 0.6864(2) 1.27207(19) 0.98782(9)
C48 C 0.6549(2) 1.3862(2) 0.94821(10)
H33 H 0.6328 1.4759 0.9650
C49 C 0.6564(2) 1.3669(2) 0.88520(10)
H34 H 0.6366 1.4436 0.8581
C50 C 0.6869(2) 1.2351(2) 0.86040(10)
H35 H 0.6867 1.2247 0.8166
C51 C 0.7176(2) 1.11872(19) 0.89766(9)
C52 C 0.7180(2) 1.14020(19) 0.96195(9)
C53 C 0.7502(2) 0.9820(2) 0.86669(9)
C54 C 0.6518(2) 0.9061(2) 0.87792(10)
H36 H 0.5609 0.9413 0.9053
C55 C 0.6853(3) 0.7792(2) 0.84939(12)
H37 H 0.6175 0.7275 0.8571
C56 C 0.8173(3) 0.7280(2) 0.80982(12)
H38 H 0.8410 0.6398 0.7911
C57 C 0.9154(3) 0.8031(2) 0.79698(11)
H39 H 1.0051 0.7682 0.7688
C58 C 0.8815(2) 0.9303(2) 0.82572(9)
H40 H 0.9488 0.9824 0.8173
N3 N 0.74461(18) 1.04576(16) 1.01095(7)
N4 N 0.66920(19) 0.85003(17) 1.03118(8)
loop_
_geom_bond_atom_site_label_1
_geom_bond_atom_site_label_2
_geom_bond_site_symmetry_1
_geom_bond_site_symmetry_2
C1 C2 1_555 1_555
C2 H1 1_555 1_555
C3 C2 1_555 1_555
H2 C3 1_555 1_555
C4 C3 1_555 1_555
H3 C4 1_555 1_555
C5 C4 1_555 1_555
H4 C5 1_555 1_555
C6 C7 1_555 1_555
C7 C8 1_555 1_555
C8 C9 1_555 1_555
C9 H5 1_555 1_555
C10 C9 1_555 1_555
H6 C10 1_555 1_555
C11 C10 1_555 1_555
H7 C11 1_555 1_555
C12 C11 1_555 1_555
H8 C12 1_555 1_555
C13 C8 1_555 1_555
H9 C13 1_555 1_555
C14 C7 1_555 1_555
H10 C14 1_555 1_555
C15 C14 1_555 1_555
H11 C15 1_555 1_555
C16 C15 1_555 1_555
H12 C16 1_555 1_555
C17 C6 1_555 1_555
C18 C17 1_555 1_555
C19 C18 1_555 1_555
H13 C19 1_555 1_555
C20 C19 1_555 1_555
H14 C20 1_555 1_555
C21 C20 1_555 1_555
H15 C21 1_555 1_555
C22 C21 1_555 1_555
C23 C18 1_555 1_555
C24 C22 1_555 1_555
C25 C24 1_555 1_555
H16 C25 1_555 1_555
C26 C25 1_555 1_555
H17 C26 1_555 1_555
C27 C26 1_555 1_555
H18 C27 1_555 1_555
C28 C27 1_555 1_555
H19 C28 1_555 1_555
C29 C24 1_555 1_555
H20 C29 1_555 1_555
N1 C1 1_555 1_555
N2 C1 1_555 1_555
C30 C31 1_555 1_555
C31 H21 1_555 1_555
C32 C31 1_555 1_555
H22 C32 1_555 1_555
C33 C32 1_555 1_555
H23 C33 1_555 1_555
C34 C33 1_555 1_555
H24 C34 1_555 1_555
C35 C36 1_555 1_555
C36 C37 1_555 1_555
C37 C38 1_555 1_555
C38 H25 1_555 1_555
C39 C38 1_555 1_555
H26 C39 1_555 1_555
C40 C39 1_555 1_555
H27 C40 1_555 1_555
C41 C40 1_555 1_555
H28 C41 1_555 1_555
C42 C37 1_555 1_555
H29 C42 1_555 1_555
C43 C36 1_555 1_555
H30 C43 1_555 1_555
C44 C43 1_555 1_555
H31 C44 1_555 1_555
C45 C44 1_555 1_555
H32 C45 1_555 1_555
C46 C35 1_555 1_555
C47 C46 1_555 1_555
C48 C47 1_555 1_555
H33 C48 1_555 1_555
C49 C48 1_555 1_555
H34 C49 1_555 1_555
C50 C49 1_555 1_555
H35 C50 1_555 1_555
C51 C50 1_555 1_555
C52 C47 1_555 1_555
C53 C51 1_555 1_555
C54 C53 1_555 1_555
H36 C54 1_555 1_555
C55 C54 1_555 1_555
H37 C55 1_555 1_555
C56 C55 1_555 1_555
H38 C56 1_555 1_555
C57 C56 1_555 1_555
H39 C57 1_555 1_555
C58 C53 1_555 1_555
H40 C58 1_555 1_555
N3 C30 1_555 1_555
N4 C30 1_555 1_555
C5 N2 1_555 1_555
C6 N1 1_555 1_555
C12 C13 1_555 1_555
C16 C17 1_555 1_555
C22 C23 1_555 1_555
C23 N1 1_555 1_555
C28 C29 1_555 1_555
C34 N4 1_555 1_555
C35 N3 1_555 1_555
C41 C42 1_555 1_555
C45 C46 1_555 1_555
C51 C52 1_555 1_555
C52 N3 1_555 1_555
C57 C58 1_555 1_555

#END
