
#######################################################################
#
#                 Cambridge Crystallographic Data Centre
#                                CCDC 
#
#######################################################################
#
# If this CIF has been generated from an entry in the Cambridge 
# Structural Database, then it will include bibliographic, chemical, 
# crystal, experimental, refinement or atomic coordinate data resulting 
# from the CCDC's data processing and validation procedures.
#
#######################################################################

data_YEXJAN
_chemical_formula_moiety         'C23 H28 B1 F2 N3,H2 O1'
_chemical_name_systematic        
'4,4-difluoro-1,2,3,5,6,7-hexamethyl-8-(4-dimethylaminophenyl)-4-bora-3a,4a-diaza-s-indacene monohydrate'
_symmetry_cell_setting           monoclinic
_symmetry_space_group_name_H-M   'C 2/c'
_symmetry_Int_Tables_number      15
_space_group_name_Hall           '-C 2yn'
loop_
_symmetry_equiv_pos_site_id
_symmetry_equiv_pos_as_xyz
1 x,y,z
2 1/2+x,1/2+y,z
3 -x,y,1/2-z
4 1/2-x,1/2+y,1/2-z
5 -x,-y,-z
6 1/2-x,1/2-y,-z
7 x,-y,1/2+z
8 1/2+x,1/2-y,1/2+z
_cell_length_a                   17.747(4)
_cell_length_b                   13.633(3)
_cell_length_c                   11.676(3)
_cell_angle_alpha                90
_cell_angle_beta                 129.747(4)
_cell_angle_gamma                90
_cell_volume                     2172.03
_exptl_crystal_colour            red
_chemical_melting_point          'above 250 deg.C'
_cell_formula_units_Z            4
_exptl_crystal_recrystallization_method methanol/chloroform
_exptl_crystal_preparation       fluorescent
loop_
_atom_site_label
_atom_site_type_symbol
_atom_site_fract_x
_atom_site_fract_y
_atom_site_fract_z
N1 N 0.07355(13) 0.19262(12) 0.88323(18)
N2 N 0.0000 0.75983(18) 0.7500
B1 B 0.0000 0.1282(3) 0.7500
C1 C 0.15100(15) 0.16401(15) 1.02067(19)
C2 C 0.20315(16) 0.24437(16) 1.1094(2)
C3 C 0.15520(17) 0.32576(16) 1.0202(2)
C4 C 0.07465(14) 0.29545(15) 0.88104(19)
C5 C 0.0000 0.3477(2) 0.7500
C6 C 0.0000 0.4504(2) 0.7500
C7 C 0.03375(14) 0.50663(14) 0.69186(19)
H1 H 0.0572 0.4741 0.6502
C8 C 0.03458(14) 0.60841(14) 0.6922(2)
H2 H 0.0587 0.6429 0.6529
C9 C 0.0000 0.65550(19) 0.7500
C10 C -0.03401(16) 0.81154(16) 0.8221(2)
H3 H -0.0273 0.8799 0.8105
H4 H -0.1018 0.7967 0.7701
H5 H 0.0037 0.7967 0.9259
C11 C 0.17423(13) 0.05828(13) 1.06665(19)
H6 H 0.1498 0.0185 0.9814
H7 H 0.1438 0.0386 1.1076
H8 H 0.2439 0.0502 1.1404
C12 C 0.29756(14) 0.24123(16) 1.2729(2)
H9 H 0.3185 0.3069 1.3099
H10 H 0.3479 0.2078 1.2797
H11 H 0.2853 0.2070 1.3313
C13 C 0.18915(14) 0.43030(15) 1.07304(19)
H12 H 0.2497 0.4297 1.1738
H13 H 0.1404 0.4651 1.0688
H14 H 0.1989 0.4622 1.0101
F1 F 0.04848(7) 0.06524(7) 0.72021(10)
N1B N -0.07355(13) 0.19262(12) 0.61677(18)
C1B C -0.15100(15) 0.16401(15) 0.47933(19)
C2B C -0.20315(16) 0.24437(16) 0.3906(2)
C3B C -0.15520(17) 0.32576(16) 0.4798(2)
C4B C -0.07465(14) 0.29545(15) 0.61896(19)
C7B C -0.03375(14) 0.50663(14) 0.80814(19)
H1B H -0.0572 0.4741 0.8498
C8B C -0.03458(14) 0.60841(14) 0.8078(2)
H2B H -0.0587 0.6429 0.8471
C10B C 0.03401(16) 0.81154(16) 0.6779(2)
H3B H 0.0273 0.8799 0.6895
H4B H 0.1018 0.7967 0.7299
H5B H -0.0037 0.7967 0.5741
C11B C -0.17423(13) 0.05828(13) 0.43335(19)
H6B H -0.1498 0.0185 0.5186
H7B H -0.1438 0.0386 0.3924
H8B H -0.2439 0.0502 0.3596
C12B C -0.29756(14) 0.24123(16) 0.2271(2)
H9B H -0.3185 0.3069 0.1901
H10B H -0.3479 0.2078 0.2203
H11B H -0.2853 0.2070 0.1687
C13B C -0.18915(14) 0.43030(15) 0.42696(19)
H12B H -0.2497 0.4297 0.3262
H13B H -0.1404 0.4651 0.4312
H14B H -0.1989 0.4622 0.4899
F1B F -0.04848(7) 0.06524(7) 0.77979(10)
O1 O 0.25254(18) 0.3807(2) 0.5063(3)
H15 H 0.3133 0.3759 0.5502
H16 H 0.2197 0.3488 0.4250
loop_
_geom_bond_atom_site_label_1
_geom_bond_atom_site_label_2
_geom_bond_site_symmetry_1
_geom_bond_site_symmetry_2
N1 B1 1_555 1_555
N2 C9 1_555 1_555
B1 F1 1_555 1_555
C1 N1 1_555 1_555
C2 C1 1_555 1_555
C3 C2 1_555 1_555
C4 N1 1_555 1_555
C5 C4 1_555 1_555
C6 C5 1_555 1_555
C7 C6 1_555 1_555
H1 C7 1_555 1_555
C8 C7 1_555 1_555
H2 C8 1_555 1_555
C9 C8 1_555 1_555
C10 N2 1_555 1_555
H3 C10 1_555 1_555
H4 C10 1_555 1_555
H5 C10 1_555 1_555
C11 C1 1_555 1_555
H6 C11 1_555 1_555
H7 C11 1_555 1_555
H8 C11 1_555 1_555
C12 C2 1_555 1_555
H9 C12 1_555 1_555
H10 C12 1_555 1_555
H11 C12 1_555 1_555
C13 C3 1_555 1_555
H12 C13 1_555 1_555
H13 C13 1_555 1_555
H14 C13 1_555 1_555
O1 H15 1_555 1_555
H16 O1 1_555 1_555
N1B B1 1_555 1_555
C1B N1B 1_555 1_555
C2B C1B 1_555 1_555
C3B C2B 1_555 1_555
C4B C5 1_555 1_555
C7B C6 1_555 1_555
H1B C7B 1_555 1_555
C8B C9 1_555 1_555
H2B C8B 1_555 1_555
C10B N2 1_555 1_555
H3B C10B 1_555 1_555
H4B C10B 1_555 1_555
H5B C10B 1_555 1_555
C11B C1B 1_555 1_555
H6B C11B 1_555 1_555
H7B C11B 1_555 1_555
H8B C11B 1_555 1_555
C12B C2B 1_555 1_555
H9B C12B 1_555 1_555
H10B C12B 1_555 1_555
H11B C12B 1_555 1_555
C13B C3B 1_555 1_555
H12B C13B 1_555 1_555
H13B C13B 1_555 1_555
H14B C13B 1_555 1_555
F1B B1 1_555 1_555
C3 C4 1_555 1_555
N1B C4B 1_555 1_555
C3B C4B 1_555 1_555
C7B C8B 1_555 1_555

#END
