
#######################################################################
#
#                 Cambridge Crystallographic Data Centre
#                                CCDC 
#
#######################################################################
#
# If this CIF has been generated from an entry in the Cambridge 
# Structural Database, then it will include bibliographic, chemical, 
# crystal, experimental, refinement or atomic coordinate data resulting 
# from the CCDC's data processing and validation procedures.
#
#######################################################################

data_YEXJER
_chemical_formula_moiety         'C27 H36 B1 F2 N3'
_chemical_name_systematic        
1,2,6,7-hexaethyl-4,4-difluoro-3,5-dimethyl-8-(4-dimethylaminophenyl)-4-bora-3a,4a-diaza-s-indacene
_symmetry_cell_setting           monoclinic
_symmetry_space_group_name_H-M   'C 2/c'
_symmetry_Int_Tables_number      15
_space_group_name_Hall           '-C 2yn'
loop_
_symmetry_equiv_pos_site_id
_symmetry_equiv_pos_as_xyz
1 x,y,z
2 1/2+x,1/2+y,z
3 -x,y,1/2-z
4 1/2-x,1/2+y,1/2-z
5 -x,-y,-z
6 1/2-x,1/2-y,-z
7 x,-y,1/2+z
8 1/2+x,1/2-y,1/2+z
_cell_length_a                   19.290(6)
_cell_length_b                   13.721(5)
_cell_length_c                   11.075(4)
_cell_angle_alpha                90
_cell_angle_beta                 122.447(5)
_cell_angle_gamma                90
_cell_volume                     2473.7
_exptl_crystal_colour            red
_chemical_melting_point          'above 250 deg.C'
_cell_formula_units_Z            4
_exptl_crystal_recrystallization_method methanol/chloroform
_exptl_crystal_preparation       fluorescent
loop_
_atom_site_label
_atom_site_type_symbol
_atom_site_fract_x
_atom_site_fract_y
_atom_site_fract_z
B1 B 0.0000 0.7397(3) 0.2500
C1 C 0.06632(13) 0.57154(16) 0.2611(2)
C2 C 0.14158(13) 0.53833(16) 0.2772(2)
C3 C 0.18616(13) 0.62134(17) 0.2917(2)
C4 C 0.14004(13) 0.70249(16) 0.2841(2)
C5 C 0.0000 0.5208(2) 0.2500
C6 C 0.0000 0.4131(2) 0.2500
C7 C -0.03094(13) 0.36011(15) 0.1241(2)
H1 H -0.0523 0.3933 0.0380
C8 C -0.03071(14) 0.26113(16) 0.1236(2)
H2 H -0.0514 0.2284 0.0373
C9 C 0.0000 0.2067(2) 0.2500
C10 C 0.02977(16) 0.05403(18) 0.3790(3)
H3 H 0.0853 0.0733 0.4476
H4 H 0.0282 -0.0145 0.3602
H5 H -0.0040 0.0676 0.4164
C11 C 0.16666(13) 0.43585(16) 0.2724(2)
H6 H 0.1429 0.3921 0.3094
H7 H 0.2260 0.4304 0.3329
C12 C 0.13858(14) 0.40610(17) 0.1208(2)
H8 H 0.0807 0.4180 0.0588
H9 H 0.1495 0.3380 0.1189
H10 H 0.1678 0.4435 0.0888
C13 C 0.27051(14) 0.62598(19) 0.3125(3)
H11 H 0.2985 0.5645 0.3523
H12 H 0.3023 0.6767 0.3814
C14 C 0.26829(15) 0.64626(18) 0.1747(3)
H13 H 0.2453 0.5911 0.1120
H14 H 0.3231 0.6577 0.1972
H15 H 0.2351 0.7028 0.1284
C15 C 0.16297(15) 0.80751(17) 0.2956(3)
H16 H 0.1178 0.8472 0.2798
H17 H 0.1757 0.8227 0.2250
H18 H 0.2101 0.8203 0.3893
F1 F 0.02982(8) 0.79809(9) 0.37017(14)
N1 N 0.06875(11) 0.67231(13) 0.26466(19)
N2 N 0.0000 0.10685(18) 0.2500
C1B C -0.06632(13) 0.57154(16) 0.2389(2)
C2B C -0.14158(13) 0.53833(16) 0.2228(2)
C3B C -0.18616(13) 0.62134(17) 0.2083(2)
C4B C -0.14004(13) 0.70249(16) 0.2159(2)
C7B C 0.03094(13) 0.36011(15) 0.3759(2)
H1B H 0.0523 0.3933 0.4620
C8B C 0.03071(14) 0.26113(16) 0.3764(2)
H2B H 0.0514 0.2284 0.4627
C10B C -0.02977(16) 0.05403(18) 0.1210(3)
H3B H -0.0853 0.0733 0.0524
H4B H -0.0282 -0.0145 0.1398
H5B H 0.0040 0.0676 0.0836
C11B C -0.16666(13) 0.43585(16) 0.2276(2)
H6B H -0.1429 0.3921 0.1906
H7B H -0.2260 0.4304 0.1671
C12B C -0.13858(14) 0.40610(17) 0.3792(2)
H8B H -0.0807 0.4180 0.4412
H9B H -0.1495 0.3380 0.3811
H10B H -0.1678 0.4435 0.4112
C13B C -0.27051(14) 0.62598(19) 0.1875(3)
H11B H -0.2985 0.5645 0.1477
H12B H -0.3023 0.6767 0.1186
C14B C -0.26829(15) 0.64626(18) 0.3253(3)
H13B H -0.2453 0.5911 0.3880
H14B H -0.3231 0.6577 0.3028
H15B H -0.2351 0.7028 0.3716
C15B C -0.16297(15) 0.80751(17) 0.2044(3)
H16B H -0.1178 0.8472 0.2202
H17B H -0.1757 0.8227 0.2750
H18B H -0.2101 0.8203 0.1107
F1B F -0.02982(8) 0.79809(9) 0.12983(14)
N1B N -0.06875(11) 0.67231(13) 0.23534(19)
loop_
_geom_bond_atom_site_label_1
_geom_bond_atom_site_label_2
_geom_bond_site_symmetry_1
_geom_bond_site_symmetry_2
B1 F1 1_555 1_555
C1 C2 1_555 1_555
C2 C3 1_555 1_555
C3 C4 1_555 1_555
C4 C15 1_555 1_555
C5 C1 1_555 1_555
C6 C5 1_555 1_555
C7 C6 1_555 1_555
H1 C7 1_555 1_555
C8 C7 1_555 1_555
H2 C8 1_555 1_555
C9 C8 1_555 1_555
C10 H3 1_555 1_555
H4 C10 1_555 1_555
H5 C10 1_555 1_555
C11 C2 1_555 1_555
H6 C11 1_555 1_555
H7 C11 1_555 1_555
C12 C11 1_555 1_555
H8 C12 1_555 1_555
H9 C12 1_555 1_555
H10 C12 1_555 1_555
C13 C3 1_555 1_555
H11 C13 1_555 1_555
H12 C13 1_555 1_555
C14 C13 1_555 1_555
H13 C14 1_555 1_555
H14 C14 1_555 1_555
H15 C14 1_555 1_555
C15 H16 1_555 1_555
H17 C15 1_555 1_555
H18 C15 1_555 1_555
N1 B1 1_555 1_555
N2 C9 1_555 1_555
C1B C5 1_555 1_555
C2B C1B 1_555 1_555
C3B C2B 1_555 1_555
C4B C3B 1_555 1_555
C7B C6 1_555 1_555
H1B C7B 1_555 1_555
C8B C9 1_555 1_555
H2B C8B 1_555 1_555
C10B N2 1_555 1_555
H3B C10B 1_555 1_555
H4B C10B 1_555 1_555
H5B C10B 1_555 1_555
C11B C2B 1_555 1_555
H6B C11B 1_555 1_555
H7B C11B 1_555 1_555
C12B C11B 1_555 1_555
H8B C12B 1_555 1_555
H9B C12B 1_555 1_555
H10B C12B 1_555 1_555
C13B C3B 1_555 1_555
H11B C13B 1_555 1_555
H12B C13B 1_555 1_555
C14B C13B 1_555 1_555
H13B C14B 1_555 1_555
H14B C14B 1_555 1_555
H15B C14B 1_555 1_555
C15B C4B 1_555 1_555
H16B C15B 1_555 1_555
H17B C15B 1_555 1_555
H18B C15B 1_555 1_555
F1B B1 1_555 1_555
N1B B1 1_555 1_555
C1 N1 1_555 1_555
C4 N1 1_555 1_555
C10 N2 1_555 1_555
C1B N1B 1_555 1_555
C4B N1B 1_555 1_555
C7B C8B 1_555 1_555

#END
