
#######################################################################
#
#                 Cambridge Crystallographic Data Centre
#                                CCDC 
#
#######################################################################
#
# If this CIF has been generated from an entry in the Cambridge 
# Structural Database, then it will include bibliographic, chemical, 
# crystal, experimental, refinement or atomic coordinate data resulting 
# from the CCDC's data processing and validation procedures.
#
#######################################################################

data_YEXREZ
_chemical_formula_moiety         'C27 H24 N2 O4 S3'
_chemical_name_systematic        
N-(3'-(2-Thienyl)prop-2'-ynyl)-N,N'-1,2-phenylenedi-(p-tosylamide)
_symmetry_cell_setting           triclinic
_symmetry_space_group_name_H-M   'P -1'
_symmetry_Int_Tables_number      2
_space_group_name_Hall           '-P 1'
loop_
_symmetry_equiv_pos_site_id
_symmetry_equiv_pos_as_xyz
1 x,y,z
2 -x,-y,-z
_cell_length_a                   9.0592(6)
_cell_length_b                   10.3757(7)
_cell_length_c                   14.2600(9)
_cell_angle_alpha                74.6230(10)
_cell_angle_beta                 82.9030(10)
_cell_angle_gamma                78.4810(10)
_cell_volume                     1262.82
_exptl_crystal_colour            colorless
_exptl_crystal_description       irregular
_chemical_melting_point          '422-424 K'
_cell_formula_units_Z            2
_exptl_crystal_recrystallization_method 'ethyl acetate/petroleum ether'
loop_
_atom_site_label
_atom_site_type_symbol
_atom_site_fract_x
_atom_site_fract_y
_atom_site_fract_z
S1 S 0.33237(5) 0.66911(5) 0.05351(4)
S2 S 0.76908(5) 0.42584(5) 0.25282(4)
S3 S 0.34881(6) 0.05015(6) 0.40966(4)
O1 O 0.42455(16) 0.73559(15) 0.09332(11)
O2 O 0.37095(17) 0.64621(15) -0.04195(10)
O3 O 0.86369(16) 0.45925(15) 0.16470(11)
O4 O 0.78153(17) 0.48428(16) 0.33125(11)
N1 N 0.33734(19) 0.51671(17) 0.12856(12)
N2 N 0.59729(19) 0.46837(17) 0.21975(12)
H1 H 0.5884 0.4894 0.1579
C1 C -0.3169(3) 0.9526(2) 0.07271(19)
H2 H -0.3293 1.0159 0.1126
H3 H -0.3793 0.8853 0.1007
H4 H -0.3458 0.9999 0.0083
C2 C -0.1541(2) 0.8847(2) 0.06707(16)
C3 C -0.0517(2) 0.8998(2) 0.12682(16)
H5 H -0.0840 0.9547 0.1700
C4 C 0.0969(2) 0.8349(2) 0.12329(15)
H6 H 0.1639 0.8446 0.1644
C5 C 0.1449(2) 0.7548(2) 0.05750(15)
C6 C 0.0463(2) 0.7396(2) -0.00440(16)
H7 H 0.0794 0.6870 -0.0491
C7 C -0.1024(3) 0.8045(2) 0.00187(18)
H8 H -0.1696 0.7941 -0.0388
C8 C 0.3261(2) 0.50660(19) 0.23207(14)
C9 C 0.1869(2) 0.5141(2) 0.28551(16)
H9 H 0.0983 0.5351 0.2537
C10 C 0.1799(2) 0.4902(2) 0.38627(16)
H10 H 0.0869 0.4955 0.4222
C11 C 0.3126(3) 0.4585(2) 0.43300(15)
H11 H 0.3081 0.4419 0.5006
C12 C 0.4524(2) 0.4511(2) 0.38032(15)
H12 H 0.5404 0.4298 0.4127
C13 C 0.4609(2) 0.47539(19) 0.27896(15)
C14 C 0.8007(2) 0.2473(2) 0.29766(15)
C15 C 0.7012(2) 0.1691(2) 0.28476(15)
H13 H 0.6134 0.2100 0.2534
C16 C 0.7337(2) 0.0291(2) 0.31899(16)
H14 H 0.6658 -0.0233 0.3117
C17 C 0.8665(2) -0.0345(2) 0.36409(16)
C18 C 0.9652(3) 0.0463(2) 0.37512(17)
H15 H 1.0546 0.0053 0.4046
C19 C 0.9336(2) 0.1865(2) 0.34331(17)
H16 H 1.0000 0.2392 0.3523
C20 C 0.9040(3) -0.1867(2) 0.39789(19)
H17 H 1.0049 -0.2127 0.4186
H18 H 0.8969 -0.2261 0.3452
H19 H 0.8342 -0.2184 0.4514
C21 C 0.2609(2) 0.4216(2) 0.09799(15)
H20 H 0.1525 0.4525 0.1013
H21 H 0.2950 0.4187 0.0312
C22 C 0.2972(2) 0.2861(2) 0.16298(15)
C23 C 0.3218(2) 0.1777(2) 0.21851(15)
C24 C 0.3490(2) 0.0514(2) 0.28948(15)
C25 C 0.3751(2) -0.08261(19) 0.27444(14)
H22 H 0.3786 -0.1041 0.2148
C26 C 0.3950(3) -0.1781(2) 0.36754(19)
H23 H 0.4148 -0.2715 0.3746
C27 C 0.3828(3) -0.1217(2) 0.44401(18)
H24 H 0.3919 -0.1716 0.5083
loop_
_geom_bond_atom_site_label_1
_geom_bond_atom_site_label_2
_geom_bond_site_symmetry_1
_geom_bond_site_symmetry_2
S1 O1 1_555 1_555
S2 O3 1_555 1_555
S3 C24 1_555 1_555
O2 S1 1_555 1_555
O4 S2 1_555 1_555
N1 S1 1_555 1_555
N2 S2 1_555 1_555
H1 N2 1_555 1_555
C1 H2 1_555 1_555
H3 C1 1_555 1_555
H4 C1 1_555 1_555
C2 C1 1_555 1_555
C3 C2 1_555 1_555
H5 C3 1_555 1_555
C4 C3 1_555 1_555
H6 C4 1_555 1_555
C5 S1 1_555 1_555
C6 C5 1_555 1_555
H7 C6 1_555 1_555
C7 C2 1_555 1_555
H8 C7 1_555 1_555
C8 N1 1_555 1_555
C9 C8 1_555 1_555
H9 C9 1_555 1_555
C10 C9 1_555 1_555
H10 C10 1_555 1_555
C11 C10 1_555 1_555
H11 C11 1_555 1_555
C12 C11 1_555 1_555
H12 C12 1_555 1_555
C13 N2 1_555 1_555
C14 S2 1_555 1_555
C15 C14 1_555 1_555
H13 C15 1_555 1_555
C16 C15 1_555 1_555
H14 C16 1_555 1_555
C17 C16 1_555 1_555
C18 C17 1_555 1_555
H15 C18 1_555 1_555
C19 C14 1_555 1_555
H16 C19 1_555 1_555
C20 C17 1_555 1_555
H17 C20 1_555 1_555
H18 C20 1_555 1_555
H19 C20 1_555 1_555
C21 N1 1_555 1_555
H20 C21 1_555 1_555
H21 C21 1_555 1_555
C22 C21 1_555 1_555
C23 C22 1_555 1_555
C24 C23 1_555 1_555
C25 C24 1_555 1_555
H22 C25 1_555 1_555
C26 C25 1_555 1_555
H23 C26 1_555 1_555
C27 S3 1_555 1_555
H24 C27 1_555 1_555
C4 C5 1_555 1_555
C6 C7 1_555 1_555
C8 C13 1_555 1_555
C12 C13 1_555 1_555
C18 C19 1_555 1_555
C26 C27 1_555 1_555

#END
