
#######################################################################
#
#                 Cambridge Crystallographic Data Centre
#                                CCDC 
#
#######################################################################
#
# If this CIF has been generated from an entry in the Cambridge 
# Structural Database, then it will include bibliographic, chemical, 
# crystal, experimental, refinement or atomic coordinate data resulting 
# from the CCDC's data processing and validation procedures.
#
#######################################################################

data_YEYCAI01
_chemical_formula_moiety         'C4 H11 N1 O3 S1'
_chemical_name_systematic        4-Ammoniobutane-1-sulfonate
_symmetry_cell_setting           monoclinic
_symmetry_space_group_name_H-M   'P 21/c'
_symmetry_Int_Tables_number      14
_space_group_name_Hall           '-P 2ybc'
loop_
_symmetry_equiv_pos_site_id
_symmetry_equiv_pos_as_xyz
1 x,y,z
2 -x,1/2+y,1/2-z
3 -x,-y,-z
4 x,1/2-y,1/2+z
_cell_length_a                   5.2815
_cell_length_b                   14.9489
_cell_length_c                   8.7463
_cell_angle_alpha                90
_cell_angle_beta                 91.6920
_cell_angle_gamma                90
_cell_volume                     690.242
_cell_formula_units_Z            4
loop_
_atom_site_label
_atom_site_type_symbol
_atom_site_fract_x
_atom_site_fract_y
_atom_site_fract_z
N1 N 0.23270 0.67185 0.77965
H1 H 0.28902 0.73158 0.83336
H2 H 0.03910 0.67275 0.75247
H3 H 0.32532 0.66689 0.67677
S1 S 0.29567 0.31714 0.50786
O1 O 0.57020 0.31269 0.53924
O2 O 0.17520 0.23000 0.50968
O3 O 0.24360 0.36692 0.36707
C1 C 0.16510 0.37821 0.65980
H4 H -0.03869 0.38357 0.63137
H5 H 0.18787 0.33547 0.76185
C2 C 0.28520 0.46943 0.68880
H6 H 0.24987 0.51350 0.58975
H7 H 0.49211 0.46249 0.70213
C3 C 0.17820 0.50933 0.83390
H8 H -0.02803 0.51821 0.81859
H9 H 0.20660 0.46098 0.92777
C4 C 0.29640 0.59717 0.88560
H10 H 0.22573 0.61697 0.99734
H11 H 0.50375 0.59358 0.89435
loop_
_geom_bond_atom_site_label_1
_geom_bond_atom_site_label_2
_geom_bond_site_symmetry_1
_geom_bond_site_symmetry_2
N1 H1 1_555 1_555
H2 N1 1_555 1_555
H3 N1 1_555 1_555
S1 O1 1_555 1_555
O2 S1 1_555 1_555
O3 S1 1_555 1_555
C1 S1 1_555 1_555
H4 C1 1_555 1_555
H5 C1 1_555 1_555
C2 C1 1_555 1_555
H6 C2 1_555 1_555
H7 C2 1_555 1_555
C3 C2 1_555 1_555
H8 C3 1_555 1_555
H9 C3 1_555 1_555
C4 N1 1_555 1_555
H10 C4 1_555 1_555
H11 C4 1_555 1_555
C3 C4 1_555 1_555

#END
