
#######################################################################
#
#                 Cambridge Crystallographic Data Centre
#                                CCDC 
#
#######################################################################
#
# If this CIF has been generated from an entry in the Cambridge 
# Structural Database, then it will include bibliographic, chemical, 
# crystal, experimental, refinement or atomic coordinate data resulting 
# from the CCDC's data processing and validation procedures.
#
#######################################################################

data_YEYHUG
_chemical_formula_moiety         'C26 H30 N2 O6'
_chemical_name_systematic        
2,2'-(9,10-Dioxo-9,10-dihydroanthracene-1,8-diyldioxy)bis(N,N-diethylacetamide)
_symmetry_cell_setting           triclinic
_symmetry_space_group_name_H-M   'P -1'
_symmetry_Int_Tables_number      2
_space_group_name_Hall           '-P 1'
loop_
_symmetry_equiv_pos_site_id
_symmetry_equiv_pos_as_xyz
1 x,y,z
2 -x,-y,-z
_cell_length_a                   10.313(4)
_cell_length_b                   11.462(4)
_cell_length_c                   11.668(4)
_cell_angle_alpha                82.418(7)
_cell_angle_beta                 74.330(7)
_cell_angle_gamma                64.749(7)
_cell_volume                     1200.87
_exptl_crystal_colour            yellow
_exptl_crystal_description       block
_cell_formula_units_Z            2
_exptl_crystal_recrystallization_method 'ethyl acetate'
loop_
_atom_site_label
_atom_site_type_symbol
_atom_site_fract_x
_atom_site_fract_y
_atom_site_fract_z
O1 O 0.5407(3) 0.8065(2) 0.2266(2)
O2 O 0.67403(18) 0.56473(16) 0.42663(14)
O3 O 0.7808(2) 0.31507(18) 0.47338(18)
O4 O 1.3262(2) 0.2775(2) 0.3196(2)
O5 O 0.8543(2) 0.14045(17) 0.64125(15)
O6 O 0.8524(2) 0.16671(18) 0.86680(16)
N1 N 0.5283(2) 0.6149(2) 0.2276(2)
N2 N 0.8066(2) -0.0081(2) 0.93764(19)
C1 C 0.8162(3) 0.5493(3) 0.3762(2)
C2 C 0.8505(3) 0.6460(3) 0.3089(2)
H1 H 0.7751 0.7236 0.2945
C3 C 0.9960(4) 0.6277(3) 0.2632(2)
H2 H 1.0182 0.6932 0.2186
C4 C 1.1072(3) 0.5138(3) 0.2833(2)
H3 H 1.2050 0.5019 0.2523
C5 C 1.2849(3) 0.0876(3) 0.4791(3)
H4 H 1.3814 0.0753 0.4412
C6 C 1.2580(3) -0.0003(3) 0.5620(3)
H5 H 1.3369 -0.0726 0.5800
C7 C 1.1162(3) 0.0162(3) 0.6194(2)
H6 H 1.1001 -0.0425 0.6784
C8 C 0.9965(3) 0.1207(3) 0.5894(2)
C9 C 0.8992(3) 0.3205(2) 0.4618(2)
C10 C 1.1987(3) 0.2946(3) 0.3688(2)
C11 C 1.0752(3) 0.4156(3) 0.3500(2)
C12 C 0.9294(3) 0.4307(2) 0.39711(19)
C13 C 1.0214(3) 0.2120(2) 0.5036(2)
C14 C 1.1674(3) 0.1953(3) 0.4519(2)
C15 C 0.5569(3) 0.6836(2) 0.4060(2)
H7 H 0.5732 0.7541 0.4279
H8 H 0.4648 0.6857 0.4576
C16 C 0.5411(3) 0.7057(3) 0.2784(3)
C17 C 0.5060(4) 0.5032(3) 0.2905(3)
H9 H 0.4119 0.5078 0.2845
H10 H 0.5008 0.5076 0.3742
C18 C 0.6240(5) 0.3769(3) 0.2444(3)
H11 H 0.6248 0.3686 0.1634
H12 H 0.6054 0.3082 0.2922
H13 H 0.7180 0.3723 0.2480
C19 C 0.5162(4) 0.6365(4) 0.1039(3)
H14 H 0.4597 0.7277 0.0910
H15 H 0.4623 0.5901 0.0899
C20 C 0.6622(4) 0.5942(4) 0.0160(3)
H16 H 0.7211 0.6316 0.0353
H17 H 0.6476 0.6221 -0.0625
H18 H 0.7120 0.5019 0.0189
C21 C 0.8233(3) 0.0503(3) 0.7277(2)
H19 H 0.8938 -0.0364 0.7036
H20 H 0.7255 0.0564 0.7315
C22 C 0.8311(3) 0.0742(3) 0.8503(2)
C23 C 0.7953(3) 0.0159(3) 1.0604(2)
H21 H 0.8383 0.0763 1.0607
H22 H 0.8513 -0.0642 1.0974
C24 C 0.6381(4) 0.0695(3) 1.1320(3)
H23 H 0.5838 0.1517 1.0988
H24 H 0.6359 0.0799 1.2129
H25 H 0.5941 0.0112 1.1300
C25 C 0.7934(3) -0.1254(3) 0.9180(2)
H26 H 0.7531 -0.1123 0.8489
H27 H 0.7249 -0.1419 0.9863
C26 C 0.9397(4) -0.2418(3) 0.8988(3)
H28 H 1.0073 -0.2269 0.8301
H29 H 0.9254 -0.3163 0.8865
H30 H 0.9793 -0.2562 0.9675
loop_
_geom_bond_atom_site_label_1
_geom_bond_atom_site_label_2
_geom_bond_site_symmetry_1
_geom_bond_site_symmetry_2
O1 C16 1_555 1_555
O2 C1 1_555 1_555
O3 C9 1_555 1_555
O4 C10 1_555 1_555
O5 C8 1_555 1_555
O6 C22 1_555 1_555
N1 C16 1_555 1_555
N2 C22 1_555 1_555
C1 C2 1_555 1_555
C2 H1 1_555 1_555
C3 C2 1_555 1_555
H2 C3 1_555 1_555
C4 C3 1_555 1_555
H3 C4 1_555 1_555
C5 H4 1_555 1_555
C6 C5 1_555 1_555
H5 C6 1_555 1_555
C7 C6 1_555 1_555
H6 C7 1_555 1_555
C8 C7 1_555 1_555
C9 C12 1_555 1_555
C10 C11 1_555 1_555
C11 C4 1_555 1_555
C12 C1 1_555 1_555
C13 C8 1_555 1_555
C14 C5 1_555 1_555
C15 O2 1_555 1_555
H7 C15 1_555 1_555
H8 C15 1_555 1_555
C16 C15 1_555 1_555
C17 N1 1_555 1_555
H9 C17 1_555 1_555
H10 C17 1_555 1_555
C18 C17 1_555 1_555
H11 C18 1_555 1_555
H12 C18 1_555 1_555
H13 C18 1_555 1_555
C19 N1 1_555 1_555
H14 C19 1_555 1_555
H15 C19 1_555 1_555
C20 C19 1_555 1_555
H16 C20 1_555 1_555
H17 C20 1_555 1_555
H18 C20 1_555 1_555
C21 O5 1_555 1_555
H19 C21 1_555 1_555
H20 C21 1_555 1_555
C22 C21 1_555 1_555
C23 N2 1_555 1_555
H21 C23 1_555 1_555
H22 C23 1_555 1_555
C24 C23 1_555 1_555
H23 C24 1_555 1_555
H24 C24 1_555 1_555
H25 C24 1_555 1_555
C25 N2 1_555 1_555
H26 C25 1_555 1_555
H27 C25 1_555 1_555
C26 C25 1_555 1_555
H28 C26 1_555 1_555
H29 C26 1_555 1_555
H30 C26 1_555 1_555
C9 C13 1_555 1_555
C10 C14 1_555 1_555
C11 C12 1_555 1_555
C13 C14 1_555 1_555

#END
