
#######################################################################
#
#                 Cambridge Crystallographic Data Centre
#                                CCDC 
#
#######################################################################
#
# If this CIF has been generated from an entry in the Cambridge 
# Structural Database, then it will include bibliographic, chemical, 
# crystal, experimental, refinement or atomic coordinate data resulting 
# from the CCDC's data processing and validation procedures.
#
#######################################################################

data_YEYRUQ
_chemical_formula_moiety         'C24 H22 N2 O4,3(H2 O1)'
_chemical_name_systematic        
'2,3,10,11-Tetramethoxy-6,7-dihydro-13,14-diazapentaphene trihydrate'
_symmetry_cell_setting           triclinic
_symmetry_space_group_name_H-M   'P -1'
_symmetry_Int_Tables_number      2
_space_group_name_Hall           '-P 1'
loop_
_symmetry_equiv_pos_site_id
_symmetry_equiv_pos_as_xyz
1 x,y,z
2 -x,-y,-z
_cell_length_a                   7.9814(8)
_cell_length_b                   11.3775(11)
_cell_length_c                   13.1359(12)
_cell_angle_alpha                74.362(7)
_cell_angle_beta                 81.933(7)
_cell_angle_gamma                77.998(7)
_cell_volume                     1119.08
_exptl_crystal_colour            brown
_exptl_crystal_description       prism
_cell_formula_units_Z            2
_exptl_crystal_recrystallization_method 'ethanol/ethyl acetate'
loop_
_atom_site_label
_atom_site_type_symbol
_atom_site_fract_x
_atom_site_fract_y
_atom_site_fract_z
O1 O 0.77486(18) 0.54677(12) -0.02474(9)
O2 O 0.6902(2) 0.73386(12) 0.05269(10)
O3 O 0.09009(16) -0.25993(11) 0.33605(9)
O4 O 0.08752(16) -0.34963(11) 0.53722(9)
N1 N 0.47068(18) 0.29782(12) 0.26933(10)
N2 N 0.29068(17) 0.10237(12) 0.35821(10)
C1 C 0.8372(3) 0.44419(19) -0.07052(16)
H7 H 0.9053 0.3795 -0.0220
H8 H 0.9064 0.4701 -0.1355
H9 H 0.7417 0.4137 -0.0849
C2 C 0.6783(2) 0.52561(16) 0.06969(13)
C3 C 0.6228(2) 0.41794(16) 0.12109(13)
H10 H 0.6494 0.3507 0.0905
C4 C 0.5250(2) 0.40722(15) 0.22051(12)
C5 C 0.3915(2) 0.28549(15) 0.36632(12)
C6 C 0.3303(2) 0.16763(15) 0.41882(12)
C7 C 0.2388(2) -0.00772(14) 0.40686(12)
C8 C 0.1927(2) -0.07694(15) 0.34368(13)
H11 H 0.1975 -0.0465 0.2703
C9 C 0.1414(2) -0.18767(15) 0.38937(13)
C10 C 0.0732(3) -0.21003(19) 0.22530(14)
H12 H 0.0025 -0.1291 0.2140
H13 H 0.0210 -0.2635 0.1991
H14 H 0.1849 -0.2038 0.1883
C11 C 0.0620(2) -0.39801(17) 0.64874(14)
H15 H 0.1693 -0.4133 0.6793
H16 H 0.0191 -0.4742 0.6632
H17 H -0.0197 -0.3392 0.6791
C12 C 0.1366(2) -0.23677(15) 0.50178(13)
C13 C 0.1780(2) -0.17067(15) 0.56405(13)
H18 H 0.1732 -0.2025 0.6372
C14 C 0.2284(2) -0.05421(15) 0.51881(12)
C15 C 0.2678(2) 0.01956(16) 0.57923(13)
H19 H 0.2609 -0.0080 0.6528
C16 C 0.3161(2) 0.13101(15) 0.53138(12)
C17 C 0.3539(2) 0.21620(16) 0.59144(13)
H20 H 0.4770 0.2039 0.5955
H21 H 0.2991 0.1969 0.6632
C18 C 0.2881(2) 0.35105(16) 0.53657(13)
H22 H 0.1636 0.3658 0.5392
H23 H 0.3205 0.4054 0.5731
C19 C 0.3629(2) 0.37920(15) 0.42298(13)
C20 C 0.4070(2) 0.49115(16) 0.37127(13)
H24 H 0.3831 0.5559 0.4048
C21 C 0.4883(2) 0.50919(16) 0.26757(13)
C22 C 0.5414(2) 0.62236(16) 0.21068(13)
H25 H 0.5134 0.6909 0.2395
C23 C 0.6327(2) 0.63118(16) 0.11439(14)
C24 C 0.6343(3) 0.84741(18) 0.08321(18)
H26 H 0.5109 0.8655 0.0906
H27 H 0.6771 0.9131 0.0300
H28 H 0.6771 0.8404 0.1497
O5 O 0.9252(2) 0.09748(19) 0.05258(15)
H1 H 0.9836 0.1108 0.0955
H2 H 0.8327 0.0932 0.0899
O6 O 0.5831(2) 0.09629(19) 0.15534(15)
H3 H 0.5403 0.1458 0.1933
H4 H 0.5613 0.1375 0.0937
O7 O 0.1242(2) 0.20350(16) 0.15931(11)
H5 H 0.1935 0.1726 0.2073
H6 H 0.1706 0.2542 0.1095
loop_
_geom_bond_atom_site_label_1
_geom_bond_atom_site_label_2
_geom_bond_site_symmetry_1
_geom_bond_site_symmetry_2
O1 C1 1_555 1_555
O2 C23 1_555 1_555
O3 C9 1_555 1_555
O4 C11 1_555 1_555
O5 H1 1_555 1_555
H2 O5 1_555 1_555
O6 H3 1_555 1_555
H4 O6 1_555 1_555
O7 H5 1_555 1_555
H6 O7 1_555 1_555
N1 C4 1_555 1_555
N2 C6 1_555 1_555
C1 H7 1_555 1_555
H8 C1 1_555 1_555
H9 C1 1_555 1_555
C2 O1 1_555 1_555
C3 C2 1_555 1_555
H10 C3 1_555 1_555
C4 C3 1_555 1_555
C5 N1 1_555 1_555
C6 C5 1_555 1_555
C7 N2 1_555 1_555
C8 C7 1_555 1_555
H11 C8 1_555 1_555
C9 C8 1_555 1_555
C10 O3 1_555 1_555
H12 C10 1_555 1_555
H13 C10 1_555 1_555
H14 C10 1_555 1_555
C11 H15 1_555 1_555
H16 C11 1_555 1_555
H17 C11 1_555 1_555
C12 O4 1_555 1_555
C13 C12 1_555 1_555
H18 C13 1_555 1_555
C14 C7 1_555 1_555
C15 C14 1_555 1_555
H19 C15 1_555 1_555
C16 C6 1_555 1_555
C17 C16 1_555 1_555
H20 C17 1_555 1_555
H21 C17 1_555 1_555
C18 C17 1_555 1_555
H22 C18 1_555 1_555
H23 C18 1_555 1_555
C19 C5 1_555 1_555
C20 C19 1_555 1_555
H24 C20 1_555 1_555
C21 C4 1_555 1_555
C22 C21 1_555 1_555
H25 C22 1_555 1_555
C23 C2 1_555 1_555
C24 O2 1_555 1_555
H26 C24 1_555 1_555
H27 C24 1_555 1_555
H28 C24 1_555 1_555
C9 C12 1_555 1_555
C13 C14 1_555 1_555
C15 C16 1_555 1_555
C18 C19 1_555 1_555
C20 C21 1_555 1_555
C22 C23 1_555 1_555

#END
