
#######################################################################
#
#                 Cambridge Crystallographic Data Centre
#                                CCDC 
#
#######################################################################
#
# If this CIF has been generated from an entry in the Cambridge 
# Structural Database, then it will include bibliographic, chemical, 
# crystal, experimental, refinement or atomic coordinate data resulting 
# from the CCDC's data processing and validation procedures.
#
#######################################################################

data_YEYSIF
_chemical_formula_moiety         'C16 H14 Cl1 N3 O1 S1'
_chemical_name_systematic        
(E)-4-(5-Chlorothiophen-2-ylmethyleneamino)-1,5-dimethyl-2-phenyl-1H-pyrazol-3(2H)-one
_symmetry_cell_setting           monoclinic
_symmetry_space_group_name_H-M   'P 21/n'
_symmetry_Int_Tables_number      14
_space_group_name_Hall           '-P 2yn'
loop_
_symmetry_equiv_pos_site_id
_symmetry_equiv_pos_as_xyz
1 x,y,z
2 1/2-x,1/2+y,1/2-z
3 -x,-y,-z
4 1/2+x,1/2-y,1/2+z
_cell_length_a                   9.1582(5)
_cell_length_b                   7.3314(4)
_cell_length_c                   24.1175(13)
_cell_angle_alpha                90
_cell_angle_beta                 100.7460(10)
_cell_angle_gamma                90
_cell_volume                     1590.91
_exptl_crystal_colour            colorless
_exptl_crystal_description       block
_cell_formula_units_Z            4
_exptl_crystal_recrystallization_method dichloromethane/ethanol
loop_
_atom_site_label
_atom_site_type_symbol
_atom_site_fract_x
_atom_site_fract_y
_atom_site_fract_z
C1 C 1.17908(19) 0.8388(2) 1.16356(7)
C2 C 1.1899(2) 0.6733(3) 1.14075(7)
H1 H 1.2570 0.5839 1.1565
C3 C 1.0877(2) 0.6522(2) 1.09039(7)
H2 H 1.0804 0.5463 1.0688
C4 C 0.99947(18) 0.8007(2) 1.07565(7)
C5 C 0.88458(19) 0.8195(2) 1.02603(7)
H3 H 0.8697 0.7246 1.0000
C6 C 0.69265(17) 0.96788(19) 0.96801(6)
C7 C 0.65288(17) 0.8302(2) 0.92526(6)
C8 C 0.59431(17) 1.1104(2) 0.95487(6)
C9 C 0.5937(2) 1.2898(2) 0.98311(7)
H4 H 0.6111 1.3846 0.9576
H5 H 0.6707 1.2923 1.0161
H6 H 0.4991 1.3088 0.9939
C10 C 0.4106(2) 1.1985(2) 0.86905(7)
H7 H 0.3910 1.3068 0.8888
H8 H 0.3183 1.1460 0.8505
H9 H 0.4698 1.2291 0.8415
C11 C 0.42625(18) 0.7909(2) 0.85242(6)
C12 C 0.28340(19) 0.7772(2) 0.86102(7)
H10 H 0.2522 0.8452 0.8892
C13 C 0.1851(2) 0.6607(3) 0.82716(9)
H11 H 0.0875 0.6509 0.8326
C14 C 0.2318(3) 0.5593(3) 0.78544(8)
H12 H 0.1659 0.4811 0.7630
C15 C 0.3758(3) 0.5743(3) 0.77725(8)
H13 H 0.4071 0.5055 0.7493
C16 C 0.4745(2) 0.6907(2) 0.81018(7)
H14 H 0.5716 0.7019 0.8043
Cl1 Cl 1.28368(6) 0.92207(8) 1.22494(2)
N1 N 0.49017(15) 1.06807(16) 0.90890(5)
N2 N 0.53323(15) 0.90196(16) 0.88734(5)
N3 N 0.80232(15) 0.96179(17) 1.01653(6)
O1 O 0.70245(13) 0.67498(14) 0.92033(5)
S1 S 1.04372(5) 0.97278(6) 1.124592(19)
loop_
_geom_bond_atom_site_label_1
_geom_bond_atom_site_label_2
_geom_bond_site_symmetry_1
_geom_bond_site_symmetry_2
C1 C2 1_555 1_555
C2 H1 1_555 1_555
C3 C2 1_555 1_555
H2 C3 1_555 1_555
C4 C3 1_555 1_555
C5 C4 1_555 1_555
H3 C5 1_555 1_555
C6 C7 1_555 1_555
C7 N2 1_555 1_555
C8 C6 1_555 1_555
C9 C8 1_555 1_555
H4 C9 1_555 1_555
H5 C9 1_555 1_555
H6 C9 1_555 1_555
C10 H7 1_555 1_555
H8 C10 1_555 1_555
H9 C10 1_555 1_555
C11 C12 1_555 1_555
C12 H10 1_555 1_555
C13 C12 1_555 1_555
H11 C13 1_555 1_555
C14 C13 1_555 1_555
H12 C14 1_555 1_555
C15 C14 1_555 1_555
H13 C15 1_555 1_555
C16 C11 1_555 1_555
H14 C16 1_555 1_555
Cl1 C1 1_555 1_555
N1 C8 1_555 1_555
N2 C11 1_555 1_555
N3 C5 1_555 1_555
O1 C7 1_555 1_555
S1 C1 1_555 1_555
C4 S1 1_555 1_555
C6 N3 1_555 1_555
C10 N1 1_555 1_555
C15 C16 1_555 1_555
N1 N2 1_555 1_555

#END
