
#######################################################################
#
#                 Cambridge Crystallographic Data Centre
#                                CCDC 
#
#######################################################################
#
# If this CIF has been generated from an entry in the Cambridge 
# Structural Database, then it will include bibliographic, chemical, 
# crystal, experimental, refinement or atomic coordinate data resulting 
# from the CCDC's data processing and validation procedures.
#
#######################################################################

data_YEYTUU02
_chemical_formula_moiety         '2(C4 H12 N1 1+),C2 O4 2-,3(H2 O1)'
_chemical_name_systematic        'bis(diethylammonium) oxalate trihydrate'
_symmetry_cell_setting           monoclinic
_symmetry_space_group_name_H-M   'P 21/m'
_symmetry_Int_Tables_number      11
_space_group_name_Hall           '-P 2yb'
loop_
_symmetry_equiv_pos_site_id
_symmetry_equiv_pos_as_xyz
1 x,y,z
2 -x,1/2+y,-z
3 -x,-y,-z
4 x,1/2-y,z
_cell_length_a                   7.0168(5)
_cell_length_b                   12.4139(11)
_cell_length_c                   10.0332(7)
_cell_angle_alpha                90
_cell_angle_beta                 104.776(7)
_cell_angle_gamma                90
_cell_volume                     845.049
_exptl_crystal_colour            colorless
_exptl_crystal_description       block
_cell_formula_units_Z            2
loop_
_atom_site_label
_atom_site_type_symbol
_atom_site_fract_x
_atom_site_fract_y
_atom_site_fract_z
O1 O 0.9231(3) 0.2500 0.8697(2)
O2 O 0.6167(3) 0.2500 0.7345(2)
O3 O 0.7811(4) 0.2500 1.0919(2)
O4 O 0.4763(3) 0.2500 0.9600(2)
C1 C 0.7406(4) 0.2500 0.8484(3)
C2 C 0.6577(4) 0.2500 0.9800(3)
O5 O 0.6234(4) 0.0941(2) 0.5217(2)
H1 H 0.626(5) 0.138(2) 0.591(2)
H2 H 0.666(10) 0.091(5) 0.444(4)
O6 O 0.7191(6) 0.2500 1.3461(3)
C3 C 0.1857(7) 0.0538(3) 0.7104(5)
H3 H 0.3157 0.0542 0.7713
H4 H 0.1682 -0.0103 0.6551
H5 H 0.0897 0.0554 0.7635
N1 N 0.1836(4) 0.2500 0.7021(3)
H6 H 0.0951 0.2500 0.7518
H7 H 0.3026 0.2500 0.7606
C4 C 0.1604(4) 0.1492(4) 0.6199(3)
H8 H 0.0305 0.1476 0.5565
H9 H 0.2574 0.1475 0.5663
C3C C 0.1857(7) 0.4462(3) 0.7104(5)
H3C H 0.3157 0.4458 0.7713
H4C H 0.1682 0.5103 0.6551
H5C H 0.0897 0.4446 0.7635
C4C C 0.1604(4) 0.3508(4) 0.6199(3)
H8C H 0.0305 0.3524 0.5565
H9C H 0.2574 0.3525 0.5663
C5 C 0.2514(8) 0.0535(4) 1.1250(5)
H10 H 0.1463 0.0500 1.0423
H11 H 0.2518 -0.0109 1.1780
H12 H 0.3750 0.0602 1.1013
N2 N 0.2139(4) 0.2500 1.1269(3)
H13 H 0.3144 0.2500 1.0879
H14 H 0.1032 0.2500 1.0596
C6 C 0.2218(5) 0.1493(3) 1.2084(3)
H15 H 0.0998 0.1410 1.2361
H16 H 0.3292 0.1537 1.2911
C5C C 0.2514(8) 0.4465(4) 1.1250(5)
H10C H 0.1463 0.4500 1.0423
H11C H 0.2518 0.5109 1.1780
H12C H 0.3750 0.4398 1.1013
C6C C 0.2218(5) 0.3507(3) 1.2084(3)
H15C H 0.0998 0.3590 1.2361
H16C H 0.3292 0.3463 1.2911
H17? H 0.740(8) 0.2500 1.262(3)
H18? H 0.688(10) 0.201(4) 1.402(6)
loop_
_geom_bond_atom_site_label_1
_geom_bond_atom_site_label_2
_geom_bond_site_symmetry_1
_geom_bond_site_symmetry_2
O1 C1 1_555 1_555
O2 C1 1_555 1_555
O3 C2 1_555 1_555
O4 C2 1_555 1_555
C1 C2 1_555 1_555
O5 H1 1_555 1_555
H2 O5 1_555 1_555
C3 H3 1_555 1_555
H4 C3 1_555 1_555
H5 C3 1_555 1_555
N1 H6 1_555 1_555
H7 N1 1_555 1_555
C4 C3 1_555 1_555
H8 C4 1_555 1_555
H9 C4 1_555 1_555
C5 H10 1_555 1_555
H11 C5 1_555 1_555
H12 C5 1_555 1_555
N2 H13 1_555 1_555
H14 N2 1_555 1_555
C6 C5 1_555 1_555
H15 C6 1_555 1_555
H16 C6 1_555 1_555
C3C H3C 1_555 1_555
H4C C3C 1_555 1_555
H5C C3C 1_555 1_555
C4C N1 1_555 1_555
H8C C4C 1_555 1_555
H9C C4C 1_555 1_555
C5C H10C 1_555 1_555
H11C C5C 1_555 1_555
H12C C5C 1_555 1_555
C6C N2 1_555 1_555
H15C C6C 1_555 1_555
H16C C6C 1_555 1_555
N1 C4 1_555 1_555
N2 C6 1_555 1_555
C3C C4C 1_555 1_555
C5C C6C 1_555 1_555

#END
