
#######################################################################
#
#                 Cambridge Crystallographic Data Centre
#                                CCDC 
#
#######################################################################
#
# If this CIF has been generated from an entry in the Cambridge 
# Structural Database, then it will include bibliographic, chemical, 
# crystal, experimental, refinement or atomic coordinate data resulting 
# from the CCDC's data processing and validation procedures.
#
#######################################################################

data_YEZDUE
_chemical_formula_moiety         'C47 H52 N3 O3 P1 Si1'
_chemical_name_systematic        
3-((Benzyloxy)methyl)-6-(((t-butyl(dimethyl)silyl)oxy)methyl)-5-methyl-7-phenyl-2-((triphenylphosphoranylidene)amino)-3,5,6,7-tetrahydro-4H-benzimidazol-4-one
_symmetry_cell_setting           triclinic
_symmetry_space_group_name_H-M   'P -1'
_symmetry_Int_Tables_number      2
_space_group_name_Hall           '-P 1'
loop_
_symmetry_equiv_pos_site_id
_symmetry_equiv_pos_as_xyz
1 x,y,z
2 -x,-y,-z
_cell_length_a                   12.9114(15)
_cell_length_b                   14.344(2)
_cell_length_c                   15.129(2)
_cell_angle_alpha                73.225(3)
_cell_angle_beta                 65.051(2)
_cell_angle_gamma                69.261(3)
_cell_volume                     2343.58
_cell_formula_units_Z            2
loop_
_atom_site_label
_atom_site_type_symbol
_atom_site_fract_x
_atom_site_fract_y
_atom_site_fract_z
C1 C 0.3284(2) 0.4256(2) 0.2912(2)
C2 C 0.4616(2) 0.4528(2) 0.3305(2)
C3 C 0.5617(3) 0.4423(3) 0.3548(2)
C4 C 0.5955(3) 0.5411(3) 0.3284(2)
H1 H 0.6393 0.5509 0.2570
C5 C 0.4854(3) 0.6321(2) 0.3487(2)
H2 H 0.4369 0.6196 0.4189
C6 C 0.4083(3) 0.6431(2) 0.2883(2)
H3 H 0.4518 0.6656 0.2188
C7 C 0.3941(2) 0.5415(2) 0.29600(19)
C8 C 0.6800(3) 0.5343(3) 0.3782(3)
H4 H 0.6363 0.5388 0.4470
H5 H 0.7167 0.5889 0.3470
H6 H 0.7399 0.4710 0.3719
C9 C 0.5165(3) 0.7306(3) 0.3298(3)
H7 H 0.4446 0.7856 0.3440
H8 H 0.5574 0.7259 0.3725
C10 C 0.7321(6) 0.8667(5) 0.2239(5)
H9 H 0.6884 0.8793 0.2906
H10 H 0.7650 0.9221 0.1843
H11 H 0.7949 0.8055 0.2232
C11 C 0.5000(5) 0.9646(4) 0.1892(4)
H12 H 0.4451 0.9553 0.1673
H13 H 0.5244 1.0245 0.1509
H14 H 0.4624 0.9716 0.2577
C12 C 0.7078(4) 0.8353(3) 0.0414(3)
C13 C 0.8160(5) 0.7434(4) 0.0297(5)
H15 H 0.7905 0.6832 0.0643
H16 H 0.8676 0.7507 0.0565
H17 H 0.8577 0.7385 -0.0392
C14 C 0.6207(6) 0.8176(5) 0.0066(4)
H18 H 0.6577 0.8123 -0.0623
H19 H 0.5506 0.8733 0.0167
H20 H 0.5995 0.7562 0.0439
C15 C 0.7487(5) 0.9301(4) -0.0237(4)
H21 H 0.7924 0.9183 -0.0906
H22 H 0.7985 0.9439 0.0007
H23 H 0.6807 0.9869 -0.0216
C16 C 0.2902(3) 0.7220(2) 0.3198(2)
C17 C 0.2605(3) 0.8067(3) 0.2544(3)
H24 H 0.3129 0.8150 0.1895
C18 C 0.1551(4) 0.8791(3) 0.2832(4)
H25 H 0.1365 0.9356 0.2379
C19 C 0.0774(4) 0.8685(3) 0.3782(4)
H26 H 0.0062 0.9178 0.3979
C20 C 0.1048(4) 0.7847(3) 0.4444(3)
H27 H 0.0519 0.7770 0.5091
C21 C 0.2099(3) 0.7122(3) 0.4157(3)
H28 H 0.2275 0.6556 0.4612
C22 C 0.4607(3) 0.2695(2) 0.3559(3)
H29 H 0.4688 0.2555 0.4197
H30 H 0.4030 0.2370 0.3623
C23 C 0.5627(4) 0.2234(4) 0.1978(4)
H31 H 0.5186 0.2887 0.1730
H32 H 0.5206 0.1741 0.2102
C24 C 0.6838(4) 0.1944(3) 0.1223(3)
C25 C 0.7808(4) 0.1417(4) 0.1471(4)
H33 H 0.7715 0.1215 0.2135
C26 C 0.8924(6) 0.1173(5) 0.0768(6)
H34 H 0.9581 0.0820 0.0950
C27 C 0.9037(7) 0.1458(6) -0.0185(6)
H35 H 0.9788 0.1281 -0.0660
C28 C 0.8142(8) 0.1977(6) -0.0490(5)
H36 H 0.8267 0.2168 -0.1161
C29 C 0.6998(6) 0.2235(5) 0.0220(5)
H37 H 0.6353 0.2597 0.0023
C30 C 0.0978(3) 0.3232(2) 0.2598(2)
C31 C 0.1575(3) 0.2238(3) 0.2844(3)
H38 H 0.2288 0.2094 0.2934
C32 C 0.1109(4) 0.1460(3) 0.2957(3)
H39 H 0.1514 0.0793 0.3116
C33 C 0.0054(4) 0.1669(3) 0.2834(3)
H40 H -0.0251 0.1141 0.2908
C34 C -0.0559(4) 0.2647(3) 0.2602(3)
H41 H -0.1281 0.2783 0.2529
C35 C -0.0093(3) 0.3430(3) 0.2479(3)
H42 H -0.0501 0.4094 0.2315
C36 C 0.1993(3) 0.4820(2) 0.1163(2)
C37 C 0.3172(3) 0.4620(3) 0.0566(3)
H43 H 0.3745 0.4209 0.0833
C38 C 0.3515(4) 0.5031(3) -0.0444(3)
H44 H 0.4313 0.4893 -0.0843
C39 C 0.2678(5) 0.5631(3) -0.0834(3)
H45 H 0.2906 0.5912 -0.1501
C40 C 0.1517(5) 0.5821(3) -0.0263(3)
H46 H 0.0951 0.6219 -0.0543
C41 C 0.1160(4) 0.5427(3) 0.0742(3)
H47 H 0.0359 0.5572 0.1131
C42 C 0.0401(3) 0.5168(2) 0.3159(2)
C43 C 0.0367(3) 0.6181(3) 0.2891(3)
H48 H 0.0919 0.6407 0.2304
C44 C -0.0503(4) 0.6864(3) 0.3505(3)
H49 H -0.0535 0.7548 0.3325
C45 C -0.1312(3) 0.6527(4) 0.4376(3)
H50 H -0.1891 0.6985 0.4781
C46 C -0.1274(3) 0.5524(3) 0.4650(3)
H51 H -0.1822 0.5300 0.5241
C47 C -0.0417(3) 0.4846(3) 0.4044(2)
H52 H -0.0389 0.4163 0.4234
N1 N 0.4179(2) 0.37719(18) 0.32863(18)
N2 N 0.3122(2) 0.52631(18) 0.27097(17)
N3 N 0.2689(2) 0.37131(19) 0.2803(2)
O1 O 0.6178(2) 0.3628(2) 0.3903(2)
O2 O 0.5903(2) 0.74936(19) 0.22930(18)
O3 O 0.5706(2) 0.22822(19) 0.2861(2)
Si1 Si 0.63179(10) 0.85341(8) 0.17301(9)
P1 P 0.15887(7) 0.42448(6) 0.24513(6)
loop_
_geom_bond_atom_site_label_1
_geom_bond_atom_site_label_2
_geom_bond_site_symmetry_1
_geom_bond_site_symmetry_2
C1 N1 1_555 1_555
C2 C3 1_555 1_555
C3 C4 1_555 1_555
C4 H1 1_555 1_555
C5 C4 1_555 1_555
H2 C5 1_555 1_555
C6 C5 1_555 1_555
H3 C6 1_555 1_555
C7 C2 1_555 1_555
C8 C4 1_555 1_555
H4 C8 1_555 1_555
H5 C8 1_555 1_555
H6 C8 1_555 1_555
C9 C5 1_555 1_555
H7 C9 1_555 1_555
H8 C9 1_555 1_555
C10 H9 1_555 1_555
H10 C10 1_555 1_555
H11 C10 1_555 1_555
C11 H12 1_555 1_555
H13 C11 1_555 1_555
H14 C11 1_555 1_555
C12 C13 1_555 1_555
C13 H15 1_555 1_555
H16 C13 1_555 1_555
H17 C13 1_555 1_555
C14 C12 1_555 1_555
H18 C14 1_555 1_555
H19 C14 1_555 1_555
H20 C14 1_555 1_555
C15 C12 1_555 1_555
H21 C15 1_555 1_555
H22 C15 1_555 1_555
H23 C15 1_555 1_555
C16 C6 1_555 1_555
C17 C16 1_555 1_555
H24 C17 1_555 1_555
C18 C17 1_555 1_555
H25 C18 1_555 1_555
C19 C18 1_555 1_555
H26 C19 1_555 1_555
C20 C19 1_555 1_555
H27 C20 1_555 1_555
C21 C16 1_555 1_555
H28 C21 1_555 1_555
C22 H29 1_555 1_555
H30 C22 1_555 1_555
C23 H31 1_555 1_555
H32 C23 1_555 1_555
C24 C23 1_555 1_555
C25 C24 1_555 1_555
H33 C25 1_555 1_555
C26 C25 1_555 1_555
H34 C26 1_555 1_555
C27 C26 1_555 1_555
H35 C27 1_555 1_555
C28 C27 1_555 1_555
H36 C28 1_555 1_555
C29 C24 1_555 1_555
H37 C29 1_555 1_555
C30 C31 1_555 1_555
C31 H38 1_555 1_555
C32 C31 1_555 1_555
H39 C32 1_555 1_555
C33 C32 1_555 1_555
H40 C33 1_555 1_555
C34 C33 1_555 1_555
H41 C34 1_555 1_555
C35 C30 1_555 1_555
H42 C35 1_555 1_555
C36 C37 1_555 1_555
C37 H43 1_555 1_555
C38 C37 1_555 1_555
H44 C38 1_555 1_555
C39 C38 1_555 1_555
H45 C39 1_555 1_555
C40 C39 1_555 1_555
H46 C40 1_555 1_555
C41 C36 1_555 1_555
H47 C41 1_555 1_555
C42 C43 1_555 1_555
C43 H48 1_555 1_555
C44 C43 1_555 1_555
H49 C44 1_555 1_555
C45 C44 1_555 1_555
H50 C45 1_555 1_555
C46 C45 1_555 1_555
H51 C46 1_555 1_555
C47 C42 1_555 1_555
H52 C47 1_555 1_555
N1 C2 1_555 1_555
N2 C1 1_555 1_555
N3 C1 1_555 1_555
O1 C3 1_555 1_555
O2 C9 1_555 1_555
O3 C22 1_555 1_555
Si1 C10 1_555 1_555
P1 C30 1_555 1_555
C6 C7 1_555 1_555
C7 N2 1_555 1_555
C11 Si1 1_555 1_555
C12 Si1 1_555 1_555
C20 C21 1_555 1_555
C22 N1 1_555 1_555
C23 O3 1_555 1_555
C28 C29 1_555 1_555
C34 C35 1_555 1_555
C36 P1 1_555 1_555
C40 C41 1_555 1_555
C42 P1 1_555 1_555
C46 C47 1_555 1_555
N3 P1 1_555 1_555
O2 Si1 1_555 1_555

#END
