
#######################################################################
#
#                 Cambridge Crystallographic Data Centre
#                                CCDC 
#
#######################################################################
#
# If this CIF has been generated from an entry in the Cambridge 
# Structural Database, then it will include bibliographic, chemical, 
# crystal, experimental, refinement or atomic coordinate data resulting 
# from the CCDC's data processing and validation procedures.
#
#######################################################################

data_YEZFAM
_chemical_formula_moiety         'C41 H38 N3 O4 P1'
_chemical_name_systematic        
3-((Benzyloxy)methyl)-8-(hydroxymethyl)-7-methyl-9-phenyl-2-((triphenylphosphoranylidene)amino)-1,3-diazaspiro[4.4]non-1-ene-4,6-dione
_symmetry_cell_setting           triclinic
_symmetry_space_group_name_H-M   'P -1'
_symmetry_Int_Tables_number      2
_space_group_name_Hall           '-P 1'
loop_
_symmetry_equiv_pos_site_id
_symmetry_equiv_pos_as_xyz
1 x,y,z
2 -x,-y,-z
_cell_length_a                   9.5390(4)
_cell_length_b                   11.3726(4)
_cell_length_c                   17.4102(7)
_cell_angle_alpha                97.8624(5)
_cell_angle_beta                 93.3019(5)
_cell_angle_gamma                111.4492(4)
_cell_volume                     1729.48
_exptl_crystal_colour            colorless
_exptl_crystal_description       plate
_cell_formula_units_Z            2
loop_
_atom_site_label
_atom_site_type_symbol
_atom_site_fract_x
_atom_site_fract_y
_atom_site_fract_z
P1 P 0.21207(4) 0.48943(3) 0.25440(2)
O1 O 0.34821(13) 0.00969(10) 0.24009(7)
O2 O 0.41059(13) 0.15717(11) 0.07704(7)
O3 O -0.12446(15) -0.19654(12) -0.00465(8)
O4 O 0.30109(15) 0.13695(11) 0.40695(7)
N1 N 0.30937(14) 0.19549(11) 0.28148(7)
N2 N 0.18768(13) 0.22011(11) 0.17238(7)
N3 N 0.25652(14) 0.38199(11) 0.28746(7)
C1 C 0.29488(16) 0.08906(13) 0.22964(9)
C2 C 0.24604(16) 0.27129(13) 0.24379(8)
C3 C 0.20305(16) 0.09611(13) 0.15692(8)
C4 C 0.29244(17) 0.07766(14) 0.08776(9)
C5 C 0.20961(19) -0.05494(15) 0.03996(10)
C6 C 0.09425(18) -0.12605(14) 0.09208(9)
C7 C 0.04930(16) -0.01973(13) 0.13486(8)
C8 C 0.3116(3) -0.1198(2) 0.00809(18)
C9 C -0.03907(19) -0.23904(15) 0.04641(10)
C10 C -0.04906(17) -0.05180(13) 0.19978(9)
C11 C -0.0204(2) -0.11534(16) 0.25817(10)
C12 C -0.1151(2) -0.14386(18) 0.31649(11)
C13 C -0.2386(2) -0.10853(19) 0.31767(13)
C14 C -0.2689(2) -0.0452(2) 0.26084(14)
C15 C -0.1750(2) -0.01777(17) 0.20199(11)
C16 C 0.38364(19) 0.22377(15) 0.36025(9)
C17 C 0.1647(2) 0.15163(19) 0.42623(12)
C18 C 0.18994(19) 0.26563(16) 0.48832(9)
C19 C 0.3238(2) 0.32356(16) 0.53822(10)
C20 C 0.3439(2) 0.42587(17) 0.59659(10)
C21 C 0.2285(2) 0.47080(19) 0.60606(12)
C22 C 0.0954(3) 0.4140(2) 0.55748(13)
C23 C 0.0756(2) 0.3127(2) 0.49875(12)
C24 C 0.27149(16) 0.62384(13) 0.33315(8)
C25 C 0.27843(17) 0.60188(15) 0.40968(9)
C26 C 0.3123(2) 0.70312(16) 0.47119(10)
C27 C 0.3393(2) 0.82538(16) 0.45670(11)
C28 C 0.3339(2) 0.84832(16) 0.38135(11)
C29 C 0.3006(2) 0.74812(15) 0.31907(10)
C30 C 0.30411(18) 0.54587(14) 0.17173(9)
C31 C 0.4603(2) 0.61685(18) 0.18219(12)
C32 C 0.5347(2) 0.6590(2) 0.11917(14)
C33 C 0.4556(3) 0.62974(19) 0.04603(13)
C34 C 0.3021(3) 0.5588(2) 0.03490(12)
C35 C 0.2260(2) 0.51754(17) 0.09761(10)
C36 C 0.01078(17) 0.44612(14) 0.22899(9)
C37 C -0.0902(2) 0.32161(17) 0.22811(12)
C38 C -0.2445(2) 0.28917(19) 0.20705(14)
C39 C -0.2980(2) 0.3795(2) 0.18781(11)
C40 C -0.1990(2) 0.5035(2) 0.19053(12)
C41 C -0.0454(2) 0.53715(18) 0.21071(11)
H1 H -0.132(3) -0.235(2) -0.0531(16)
H2 H 0.151(2) -0.0361(18) -0.0064(12)
H3 H 0.1479(18) -0.1576(15) 0.1304(9)
H4 H -0.0076(17) 0.0034(14) 0.0949(9)
H5 H 0.383(3) -0.068(3) -0.0237(15)
H6 H 0.246(3) -0.210(3) -0.0219(14)
H7 H 0.375(2) -0.1255(17) 0.0611(11)
H8 H 0.0022(19) -0.3001(17) 0.0161(10)
H9 H -0.1066(19) -0.2868(16) 0.0823(10)
H10 H 0.066(2) -0.1368(18) 0.2588(11)
H11 H -0.092(2) -0.188(2) 0.3560(13)
H12 H -0.307(3) -0.130(2) 0.3562(13)
H13 H -0.356(3) -0.023(2) 0.2597(13)
H14 H -0.198(2) 0.0244(19) 0.1613(12)
H15 H 0.482(2) 0.2129(16) 0.3583(10)
H16 H 0.3992(19) 0.3129(17) 0.3818(10)
H17 H 0.107(3) 0.074(2) 0.4456(14)
H18 H 0.105(2) 0.158(2) 0.3782(13)
H19 H 0.404(2) 0.2898(19) 0.5320(11)
H20 H 0.443(2) 0.4686(19) 0.6303(12)
H21 H 0.241(2) 0.541(2) 0.6457(13)
H22 H 0.015(3) 0.442(2) 0.5625(15)
H23 H -0.018(3) 0.272(2) 0.4629(14)
H24 H 0.2604(18) 0.5157(16) 0.4192(9)
H25 H 0.316(2) 0.6857(18) 0.5232(12)
H26 H 0.363(2) 0.8917(18) 0.4992(11)
H27 H 0.353(2) 0.934(2) 0.3687(12)
H28 H 0.299(2) 0.7650(17) 0.2680(11)
H29 H 0.514(2) 0.6359(18) 0.2328(12)
H30 H 0.639(3) 0.711(2) 0.1279(14)
H31 H 0.508(3) 0.656(2) 0.0050(14)
H32 H 0.244(3) 0.537(2) -0.0150(15)
H33 H 0.119(2) 0.469(2) 0.0912(12)
H34 H -0.053(2) 0.259(2) 0.2421(12)
H35 H -0.311(3) 0.202(2) 0.2068(13)
H36 H -0.403(2) 0.3560(19) 0.1738(12)
H37 H -0.232(3) 0.569(2) 0.1795(13)
H38 H 0.026(2) 0.6254(19) 0.2107(11)
loop_
_geom_bond_atom_site_label_1
_geom_bond_atom_site_label_2
_geom_bond_site_symmetry_1
_geom_bond_site_symmetry_2
P1 N3 1_555 1_555
O1 C1 1_555 1_555
O2 C4 1_555 1_555
O3 C9 1_555 1_555
O4 C16 1_555 1_555
N1 C1 1_555 1_555
N2 C2 1_555 1_555
N3 C2 1_555 1_555
C1 C3 1_555 1_555
C2 N1 1_555 1_555
C3 N2 1_555 1_555
C4 C3 1_555 1_555
C5 C4 1_555 1_555
C6 C5 1_555 1_555
C7 C3 1_555 1_555
C8 C5 1_555 1_555
C9 C6 1_555 1_555
C10 C7 1_555 1_555
C11 C10 1_555 1_555
C12 C11 1_555 1_555
C13 C12 1_555 1_555
C14 C13 1_555 1_555
C15 C10 1_555 1_555
C16 N1 1_555 1_555
C17 O4 1_555 1_555
C18 C17 1_555 1_555
C19 C18 1_555 1_555
C20 C19 1_555 1_555
C21 C20 1_555 1_555
C22 C21 1_555 1_555
C23 C18 1_555 1_555
C24 P1 1_555 1_555
C25 C24 1_555 1_555
C26 C25 1_555 1_555
C27 C26 1_555 1_555
C28 C27 1_555 1_555
C29 C24 1_555 1_555
C30 P1 1_555 1_555
C31 C30 1_555 1_555
C32 C31 1_555 1_555
C33 C32 1_555 1_555
C34 C33 1_555 1_555
C35 C30 1_555 1_555
C36 P1 1_555 1_555
C37 C36 1_555 1_555
C38 C37 1_555 1_555
C39 C38 1_555 1_555
C40 C39 1_555 1_555
C41 C36 1_555 1_555
H1 O3 1_555 1_555
H2 C5 1_555 1_555
H3 C6 1_555 1_555
H4 C7 1_555 1_555
H5 C8 1_555 1_555
H6 C8 1_555 1_555
H7 C8 1_555 1_555
H8 C9 1_555 1_555
H9 C9 1_555 1_555
H10 C11 1_555 1_555
H11 C12 1_555 1_555
H12 C13 1_555 1_555
H13 C14 1_555 1_555
H14 C15 1_555 1_555
H15 C16 1_555 1_555
H16 C16 1_555 1_555
H17 C17 1_555 1_555
H18 C17 1_555 1_555
H19 C19 1_555 1_555
H20 C20 1_555 1_555
H21 C21 1_555 1_555
H22 C22 1_555 1_555
H23 C23 1_555 1_555
H24 C25 1_555 1_555
H25 C26 1_555 1_555
H26 C27 1_555 1_555
H27 C28 1_555 1_555
H28 C29 1_555 1_555
H29 C31 1_555 1_555
H30 C32 1_555 1_555
H31 C33 1_555 1_555
H32 C34 1_555 1_555
H33 C35 1_555 1_555
H34 C37 1_555 1_555
H35 C38 1_555 1_555
H36 C39 1_555 1_555
H37 C40 1_555 1_555
H38 C41 1_555 1_555
C6 C7 1_555 1_555
C14 C15 1_555 1_555
C22 C23 1_555 1_555
C28 C29 1_555 1_555
C34 C35 1_555 1_555
C40 C41 1_555 1_555

#END
