
#######################################################################
#
#                 Cambridge Crystallographic Data Centre
#                                CCDC 
#
#######################################################################
#
# If this CIF has been generated from an entry in the Cambridge 
# Structural Database, then it will include bibliographic, chemical, 
# crystal, experimental, refinement or atomic coordinate data resulting 
# from the CCDC's data processing and validation procedures.
#
#######################################################################

data_YICDIY
_chemical_formula_moiety         'C20 H17 N1 O1'
_chemical_name_systematic        (4-Acetylphenyl)diphenylamine
_symmetry_cell_setting           monoclinic
_symmetry_space_group_name_H-M   'P 21/c'
_symmetry_Int_Tables_number      14
_space_group_name_Hall           '-P 2ybc'
loop_
_symmetry_equiv_pos_site_id
_symmetry_equiv_pos_as_xyz
1 x,y,z
2 -x,1/2+y,1/2-z
3 -x,-y,-z
4 x,1/2-y,1/2+z
_cell_length_a                   12.4246(15)
_cell_length_b                   11.6657(14)
_cell_length_c                   10.7149(13)
_cell_angle_alpha                90
_cell_angle_beta                 95.692(2)
_cell_angle_gamma                90
_cell_volume                     1545.38
_exptl_crystal_colour            yellow
_exptl_crystal_description       needle
_chemical_melting_point          '416-418 K'
_cell_formula_units_Z            4
_exptl_crystal_recrystallization_method ethanol
loop_
_atom_site_label
_atom_site_type_symbol
_atom_site_fract_x
_atom_site_fract_y
_atom_site_fract_z
C1 C 0.98420(15) 0.63194(16) 0.1092(2)
H1 H 0.9616 0.5813 0.0448
C2 C 1.08370(17) 0.6168(2) 0.1763(2)
H2 H 1.1273 0.5557 0.1572
C3 C 1.11854(17) 0.6901(2) 0.2700(2)
H3 H 1.1862 0.6802 0.3142
C4 C 1.05306(17) 0.7790(2) 0.29892(18)
H4 H 1.0762 0.8290 0.3637
C5 C 0.95291(14) 0.79464(17) 0.23241(17)
H5 H 0.9090 0.8551 0.2526
C6 C 0.91798(13) 0.72097(13) 0.13646(16)
C7 C 0.79048(12) 0.85026(13) 0.01683(15)
C8 C 0.86768(13) 0.91749(15) -0.03108(16)
H6 H 0.9371 0.8889 -0.0355
C9 C 0.84239(15) 1.02710(16) -0.07262(17)
H7 H 0.8952 1.0722 -0.1041
C10 C 0.74081(16) 1.06985(15) -0.06800(17)
H8 H 0.7244 1.1440 -0.0954
C11 C 0.66348(15) 1.00311(15) -0.02287(18)
H9 H 0.5938 1.0318 -0.0208
C12 C 0.68717(13) 0.89334(14) 0.01988(17)
H10 H 0.6337 0.8486 0.0506
C13 C 0.75297(12) 0.64351(13) 0.02226(16)
C14 C 0.74125(14) 0.55137(14) 0.10220(17)
H11 H 0.7753 0.5529 0.1835
C15 C 0.67985(13) 0.45833(14) 0.06191(17)
H12 H 0.6726 0.3977 0.1168
C16 C 0.62840(12) 0.45266(13) -0.05875(15)
C17 C 0.63985(12) 0.54510(13) -0.13801(15)
H13 H 0.6055 0.5436 -0.2192
C18 C 0.70135(12) 0.63927(13) -0.09827(16)
H14 H 0.7082 0.7003 -0.1528
C19 C 0.56434(13) 0.34906(14) -0.09891(18)
C20 C 0.5170(2) 0.33839(19) -0.2318(2)
H15 H 0.4790 0.2669 -0.2430
H16 H 0.5738 0.3409 -0.2863
H17 H 0.4676 0.4005 -0.2519
N1 N 0.81658(11) 0.73840(11) 0.06453(15)
O1 O 0.55117(12) 0.27271(11) -0.02457(15)
loop_
_geom_bond_atom_site_label_1
_geom_bond_atom_site_label_2
_geom_bond_site_symmetry_1
_geom_bond_site_symmetry_2
C1 H1 1_555 1_555
C2 C1 1_555 1_555
H2 C2 1_555 1_555
C3 C2 1_555 1_555
H3 C3 1_555 1_555
C4 C3 1_555 1_555
H4 C4 1_555 1_555
C5 C4 1_555 1_555
H5 C5 1_555 1_555
C6 C1 1_555 1_555
C7 C8 1_555 1_555
C8 H6 1_555 1_555
C9 C8 1_555 1_555
H7 C9 1_555 1_555
C10 C9 1_555 1_555
H8 C10 1_555 1_555
C11 C10 1_555 1_555
H9 C11 1_555 1_555
C12 C7 1_555 1_555
H10 C12 1_555 1_555
C13 C14 1_555 1_555
C14 H11 1_555 1_555
C15 C14 1_555 1_555
H12 C15 1_555 1_555
C16 C15 1_555 1_555
C17 C16 1_555 1_555
H13 C17 1_555 1_555
C18 C13 1_555 1_555
H14 C18 1_555 1_555
C19 C16 1_555 1_555
C20 C19 1_555 1_555
H15 C20 1_555 1_555
H16 C20 1_555 1_555
H17 C20 1_555 1_555
N1 C6 1_555 1_555
O1 C19 1_555 1_555
C5 C6 1_555 1_555
C7 N1 1_555 1_555
C11 C12 1_555 1_555
C13 N1 1_555 1_555
C17 C18 1_555 1_555

#END
