
#######################################################################
#
#                 Cambridge Crystallographic Data Centre
#                                CCDC 
#
#######################################################################
#
# If this CIF has been generated from an entry in the Cambridge 
# Structural Database, then it will include bibliographic, chemical, 
# crystal, experimental, refinement or atomic coordinate data resulting 
# from the CCDC's data processing and validation procedures.
#
#######################################################################

data_YICFAR01
_chemical_name_common            p-chlorobenzaldehyde
_chemical_formula_moiety         'C7 H5 Cl1 O1'
_chemical_name_systematic        4-chlorobenzaldehyde
_symmetry_cell_setting           monoclinic
_symmetry_space_group_name_H-M   'P 21/c'
_symmetry_Int_Tables_number      14
_space_group_name_Hall           '-P 2ybc'
loop_
_symmetry_equiv_pos_site_id
_symmetry_equiv_pos_as_xyz
1 x,y,z
2 -x,1/2+y,1/2-z
3 -x,-y,-z
4 x,1/2-y,1/2+z
_cell_length_a                   26.512(5)
_cell_length_b                   3.8184(7)
_cell_length_c                   12.890(2)
_cell_angle_alpha                90
_cell_angle_beta                 103.966(2)
_cell_angle_gamma                90
_cell_volume                     1266.32
_exptl_crystal_colour            colorless
_exptl_crystal_description       block
_cell_formula_units_Z            8
_exptl_crystal_recrystallization_method Methanol
loop_
_atom_site_label
_atom_site_type_symbol
_atom_site_fract_x
_atom_site_fract_y
_atom_site_fract_z
Cl1 Cl 0.46604(2) 0.27701(8) 0.64207(2)
O1 O 0.28958(4) -0.2172(3) 0.19455(8)
C1 C 0.29157(5) -0.2372(3) 0.28935(10)
H1 H 0.2629 -0.3411 0.3101
C2 C 0.33551(4) -0.1108(3) 0.37488(9)
C3 C 0.37982(4) 0.0365(3) 0.35156(9)
H2 H 0.3821 0.0562 0.2794
C4 C 0.42049(4) 0.1542(3) 0.43333(10)
H3 H 0.4508 0.2530 0.4180
C5 C 0.41598(4) 0.1242(3) 0.53852(9)
C6 C 0.37258(4) -0.0234(3) 0.56381(9)
H4 H 0.3704 -0.0427 0.6361
C7 C 0.33236(4) -0.1421(3) 0.48114(9)
H5 H 0.3025 -0.2454 0.4970
Cl2 Cl 0.03431(2) 0.77235(8) 0.17671(3)
O2 O 0.20945(4) 0.3057(3) -0.10092(8)
C8 C 0.20826(5) 0.2860(3) -0.00763(10)
H6 H 0.2376 0.1879 0.0410
C9 C 0.16440(4) 0.4037(3) 0.03555(9)
C10 C 0.11958(4) 0.5484(3) -0.03088(9)
H7 H 0.1169 0.5700 -0.1054
C11 C 0.07903(4) 0.6605(3) 0.01178(9)
H8 H 0.0485 0.7587 -0.0328
C12 C 0.08418(4) 0.6256(3) 0.12158(9)
C13 C 0.12807(4) 0.4793(3) 0.18885(9)
H9 H 0.1305 0.4562 0.2633
C14 C 0.16826(4) 0.3676(3) 0.14506(9)
H10 H 0.1985 0.2661 0.1897
loop_
_geom_bond_atom_site_label_1
_geom_bond_atom_site_label_2
_geom_bond_site_symmetry_1
_geom_bond_site_symmetry_2
Cl1 C5 1_555 1_555
O1 C1 1_555 1_555
C1 H1 1_555 1_555
C2 C1 1_555 1_555
C3 C2 1_555 1_555
H2 C3 1_555 1_555
C4 C3 1_555 1_555
H3 C4 1_555 1_555
C5 C4 1_555 1_555
C6 C5 1_555 1_555
H4 C6 1_555 1_555
C7 C2 1_555 1_555
H5 C7 1_555 1_555
Cl2 C12 1_555 1_555
O2 C8 1_555 1_555
C8 H6 1_555 1_555
C9 C8 1_555 1_555
C10 C9 1_555 1_555
H7 C10 1_555 1_555
C11 C10 1_555 1_555
H8 C11 1_555 1_555
C12 C11 1_555 1_555
C13 C12 1_555 1_555
H9 C13 1_555 1_555
C14 C9 1_555 1_555
H10 C14 1_555 1_555
C6 C7 1_555 1_555
C13 C14 1_555 1_555

#END
