
#######################################################################
#
#                 Cambridge Crystallographic Data Centre
#                                CCDC 
#
#######################################################################
#
# If this CIF has been generated from an entry in the Cambridge 
# Structural Database, then it will include bibliographic, chemical, 
# crystal, experimental, refinement or atomic coordinate data resulting 
# from the CCDC's data processing and validation procedures.
#
#######################################################################

data_YICKEB
_chemical_formula_moiety         'C12 H8 N4 S1'
_chemical_name_systematic        2,5-bis(3-Pyridyl)-1,3,4-thiadiazole
_symmetry_cell_setting           monoclinic
_symmetry_space_group_name_H-M   'P 21/c'
_symmetry_Int_Tables_number      14
_space_group_name_Hall           '-P 2ybc'
loop_
_symmetry_equiv_pos_site_id
_symmetry_equiv_pos_as_xyz
1 x,y,z
2 -x,1/2+y,1/2-z
3 -x,-y,-z
4 x,1/2-y,1/2+z
_cell_length_a                   12.872(2)
_cell_length_b                   11.0157(19)
_cell_length_c                   7.8170(13)
_cell_angle_alpha                90
_cell_angle_beta                 100.405(2)
_cell_angle_gamma                90
_cell_volume                     1090.18
_exptl_crystal_colour            colorless
_exptl_crystal_description       block
_cell_formula_units_Z            4
_exptl_crystal_recrystallization_method chloroform/methanol/water
loop_
_atom_site_label
_atom_site_type_symbol
_atom_site_fract_x
_atom_site_fract_y
_atom_site_fract_z
S1 S 0.59978(4) 0.85764(4) 0.84368(7)
N1 N 0.96414(14) 0.73907(18) 0.6939(3)
N2 N 0.66769(14) 0.64330(14) 0.8180(2)
N3 N 0.56693(14) 0.63101(14) 0.8517(2)
N4 N 0.27159(14) 0.87171(16) 0.9614(2)
C1 C 0.99272(17) 0.8548(2) 0.7123(3)
H1 H 1.0589 0.8763 0.6904
C2 C 0.93024(16) 0.9446(2) 0.7619(3)
H2 H 0.9537 1.0245 0.7729
C3 C 0.83263(16) 0.91395(19) 0.7950(3)
H3 H 0.7891 0.9729 0.8300
C4 C 0.79946(14) 0.79478(18) 0.7757(2)
C5 C 0.86925(16) 0.7110(2) 0.7247(3)
H4 H 0.8478 0.6304 0.7116
C6 C 0.69585(14) 0.75625(16) 0.8097(2)
C7 C 0.52175(14) 0.73476(16) 0.8696(2)
C8 C 0.41592(14) 0.74513(16) 0.9136(2)
C9 C 0.36241(16) 0.64305(17) 0.9557(3)
H5 H 0.3925 0.5664 0.9543
C10 C 0.26449(16) 0.65682(19) 0.9993(3)
H6 H 0.2270 0.5896 1.0268
C11 C 0.22255(16) 0.7720(2) 1.0018(3)
H7 H 0.1566 0.7804 1.0332
C12 C 0.36602(15) 0.85647(17) 0.9178(3)
H8 H 0.4009 0.9251 0.8880
loop_
_geom_bond_atom_site_label_1
_geom_bond_atom_site_label_2
_geom_bond_site_symmetry_1
_geom_bond_site_symmetry_2
S1 C6 1_555 1_555
N1 C1 1_555 1_555
N2 N3 1_555 1_555
N3 C7 1_555 1_555
N4 C11 1_555 1_555
C1 H1 1_555 1_555
C2 C1 1_555 1_555
H2 C2 1_555 1_555
C3 C2 1_555 1_555
H3 C3 1_555 1_555
C4 C3 1_555 1_555
C5 N1 1_555 1_555
H4 C5 1_555 1_555
C6 N2 1_555 1_555
C7 S1 1_555 1_555
C8 C7 1_555 1_555
C9 C8 1_555 1_555
H5 C9 1_555 1_555
C10 C9 1_555 1_555
H6 C10 1_555 1_555
C11 C10 1_555 1_555
H7 C11 1_555 1_555
C12 N4 1_555 1_555
H8 C12 1_555 1_555
C4 C5 1_555 1_555
C4 C6 1_555 1_555
C8 C12 1_555 1_555

#END
