
#######################################################################
#
#                 Cambridge Crystallographic Data Centre
#                                CCDC 
#
#######################################################################
#
# If this CIF has been generated from an entry in the Cambridge 
# Structural Database, then it will include bibliographic, chemical, 
# crystal, experimental, refinement or atomic coordinate data resulting 
# from the CCDC's data processing and validation procedures.
#
#######################################################################

data_YICNUU
_chemical_formula_moiety         'C17 H16 N4 O5 S1'
_chemical_name_systematic        
1-(2,4-Dimethylphenyl)-3-methyl-4-(2-nitrophenylsulfonyl)-1H-1,2,4-triazol-5(4H)-one
_symmetry_cell_setting           triclinic
_symmetry_space_group_name_H-M   'P -1'
_symmetry_Int_Tables_number      2
_space_group_name_Hall           '-P 1'
loop_
_symmetry_equiv_pos_site_id
_symmetry_equiv_pos_as_xyz
1 x,y,z
2 -x,-y,-z
_cell_length_a                   7.8875(13)
_cell_length_b                   7.9125(13)
_cell_length_c                   15.029(3)
_cell_angle_alpha                96.040(3)
_cell_angle_beta                 96.765(3)
_cell_angle_gamma                100.710(3)
_cell_volume                     907.403
_exptl_crystal_colour            colorless
_exptl_crystal_description       block
_chemical_melting_point          '449-450 K'
_cell_formula_units_Z            2
_exptl_crystal_recrystallization_method 'ethyl acetate-petroleum ether'
loop_
_atom_site_label
_atom_site_type_symbol
_atom_site_fract_x
_atom_site_fract_y
_atom_site_fract_z
S1 S 0.21260(6) 0.63080(5) 0.91267(3)
O1 O 0.40747(16) 0.44960(18) 0.77793(10)
O2 O 0.07301(17) 0.70888(17) 0.93693(9)
O3 O 0.28719(19) 0.52543(18) 0.97068(9)
O4 O 0.0917(2) 0.8587(2) 0.76488(12)
O5 O 0.1384(2) 1.1019(2) 0.85298(15)
N1 N 0.14249(19) 0.3573(2) 0.68355(11)
N2 N 0.13855(17) 0.50887(18) 0.81212(10)
N3 N -0.03033(19) 0.3744(2) 0.68676(12)
N4 N 0.1816(2) 0.9698(2) 0.82287(13)
C1 C 0.1944(2) 0.2883(2) 0.60105(13)
C2 C 0.2375(3) 0.3978(3) 0.53730(15)
C3 C 0.2821(3) 0.3239(3) 0.45721(16)
H1 H 0.3106 0.3949 0.4134
C4 C 0.2860(3) 0.1503(3) 0.44011(14)
C5 C 0.2438(4) 0.0477(3) 0.50524(17)
H2 H 0.2466 -0.0697 0.4953
C6 C 0.1974(3) 0.1142(3) 0.58528(16)
H3 H 0.1682 0.0420 0.6284
C7 C 0.2341(4) 0.5882(3) 0.5532(2)
H4 H 0.1194 0.6024 0.5634
H5 H 0.2643 0.6415 0.5012
H6 H 0.3165 0.6422 0.6051
C8 C 0.3314(4) 0.0742(4) 0.35150(17)
H7 H 0.2309 -0.0045 0.3184
H8 H 0.4242 0.0128 0.3632
H9 H 0.3679 0.1658 0.3166
C9 C 0.2518(2) 0.4380(2) 0.75891(12)
C10 C -0.0303(2) 0.4644(2) 0.76333(13)
C11 C -0.1906(2) 0.5099(3) 0.79394(16)
H10 H -0.2909 0.4467 0.7535
H11 H -0.1855 0.6322 0.7943
H12 H -0.1988 0.4803 0.8538
C12 C 0.3843(2) 0.7934(2) 0.89039(11)
C13 C 0.5541(2) 0.7774(2) 0.91934(12)
H13 H 0.5745 0.6787 0.9438
C14 C 0.6932(2) 0.9088(3) 0.91168(13)
H14 H 0.8066 0.8967 0.9300
C15 C 0.6641(3) 1.0567(3) 0.87717(14)
H15 H 0.7582 1.1436 0.8721
C16 C 0.4958(3) 1.0777(2) 0.84987(13)
H16 H 0.4762 1.1789 0.8279
C17 C 0.3579(2) 0.9451(2) 0.85602(11)
loop_
_geom_bond_atom_site_label_1
_geom_bond_atom_site_label_2
_geom_bond_site_symmetry_1
_geom_bond_site_symmetry_2
S1 O2 1_555 1_555
O1 C9 1_555 1_555
O3 S1 1_555 1_555
O4 N4 1_555 1_555
O5 N4 1_555 1_555
N1 N3 1_555 1_555
N2 S1 1_555 1_555
N3 C10 1_555 1_555
N4 C17 1_555 1_555
C1 N1 1_555 1_555
C2 C1 1_555 1_555
C3 C2 1_555 1_555
H1 C3 1_555 1_555
C4 C3 1_555 1_555
C5 C4 1_555 1_555
H2 C5 1_555 1_555
C6 C1 1_555 1_555
H3 C6 1_555 1_555
C7 C2 1_555 1_555
H4 C7 1_555 1_555
H5 C7 1_555 1_555
H6 C7 1_555 1_555
C8 C4 1_555 1_555
H7 C8 1_555 1_555
H8 C8 1_555 1_555
H9 C8 1_555 1_555
C9 N1 1_555 1_555
C10 N2 1_555 1_555
C11 C10 1_555 1_555
H10 C11 1_555 1_555
H11 C11 1_555 1_555
H12 C11 1_555 1_555
C12 S1 1_555 1_555
C13 C12 1_555 1_555
H13 C13 1_555 1_555
C14 C13 1_555 1_555
H14 C14 1_555 1_555
C15 C14 1_555 1_555
H15 C15 1_555 1_555
C16 C15 1_555 1_555
H16 C16 1_555 1_555
C17 C12 1_555 1_555
N2 C9 1_555 1_555
C5 C6 1_555 1_555
C16 C17 1_555 1_555

#END
