
#######################################################################
#
#                 Cambridge Crystallographic Data Centre
#                                CCDC 
#
#######################################################################
#
# If this CIF has been generated from an entry in the Cambridge 
# Structural Database, then it will include bibliographic, chemical, 
# crystal, experimental, refinement or atomic coordinate data resulting 
# from the CCDC's data processing and validation procedures.
#
#######################################################################

data_YICWUD
_chemical_formula_moiety         'C17 H25 N5'
_chemical_name_systematic        
1-t-butyl-3-ethyl-2-(3-methyl-1-phenyl-1H-pyrazol-5-yl)guanidine
_symmetry_cell_setting           monoclinic
_symmetry_space_group_name_H-M   'P 21/c'
_symmetry_Int_Tables_number      14
_space_group_name_Hall           '-P 2ybc'
loop_
_symmetry_equiv_pos_site_id
_symmetry_equiv_pos_as_xyz
1 x,y,z
2 -x,1/2+y,1/2-z
3 -x,-y,-z
4 x,1/2-y,1/2+z
_cell_length_a                   7.9995(10)
_cell_length_b                   24.091(3)
_cell_length_c                   9.5576(12)
_cell_angle_alpha                90
_cell_angle_beta                 107.590(2)
_cell_angle_gamma                90
_cell_volume                     1755.78
_exptl_crystal_colour            colorless
_exptl_crystal_description       prism
_cell_formula_units_Z            4
_exptl_crystal_recrystallization_method 'diethyl ether/hexane'
loop_
_atom_site_label
_atom_site_type_symbol
_atom_site_fract_x
_atom_site_fract_y
_atom_site_fract_z
N1 N 0.41959(16) 0.63894(5) 0.32808(13)
N2 N 0.58150(16) 0.64295(6) 0.43446(14)
N3 N 0.12442(16) 0.61111(6) 0.30051(14)
N4 N -0.15290(18) 0.58608(6) 0.30397(15)
N5 N -0.01867(19) 0.65649(6) 0.45469(16)
C1 C -0.0082(2) 0.61787(7) 0.35256(16)
C2 C 0.0728(2) 0.70965(7) 0.47401(19)
H1 H 0.0864 0.7215 0.3810
H2 H 0.1889 0.7054 0.5435
C3 C -0.0254(3) 0.75260(9) 0.5284(3)
H3 H -0.1352 0.7598 0.4549
H4 H 0.0424 0.7862 0.5489
H5 H -0.0467 0.7397 0.6164
C4 C -0.1790(2) 0.53677(7) 0.20963(17)
C5 C -0.0328(3) 0.49473(8) 0.2680(2)
H6 H 0.0777 0.5114 0.2724
H7 H -0.0528 0.4631 0.2040
H8 H -0.0310 0.4831 0.3646
C6 C -0.1920(3) 0.55415(10) 0.05333(19)
H9 H -0.2891 0.5791 0.0171
H10 H -0.2096 0.5219 -0.0083
H11 H -0.0856 0.5724 0.0528
C7 C -0.3533(2) 0.51167(8) 0.2124(2)
H12 H -0.3468 0.5023 0.3115
H13 H -0.3770 0.4788 0.1528
H14 H -0.4456 0.5382 0.1747
C8 C 0.2909(2) 0.62210(6) 0.38777(16)
C9 C 0.3756(2) 0.61505(7) 0.53579(17)
H15 H 0.3248 0.6038 0.6067
C10 C 0.5513(2) 0.62805(7) 0.55858(17)
C11 C 0.6979(2) 0.62625(10) 0.69923(18)
H16 H 0.8004 0.6431 0.6852
H17 H 0.7232 0.5883 0.7292
H18 H 0.6645 0.6461 0.7737
C12 C 0.40453(19) 0.65581(6) 0.18253(16)
C13 C 0.5068(2) 0.69942(7) 0.16080(17)
H19 H 0.5842 0.7171 0.2409
C14 C 0.4938(2) 0.71661(7) 0.02000(18)
H20 H 0.5619 0.7461 0.0058
C15 C 0.3806(2) 0.69038(8) -0.09959(19)
H21 H 0.3724 0.7020 -0.1943
C16 C 0.2794(2) 0.64670(7) -0.07752(17)
H22 H 0.2024 0.6290 -0.1579
C17 C 0.2917(2) 0.62902(7) 0.06298(17)
H23 H 0.2245 0.5993 0.0770
H24 H -0.122(2) 0.6578(7) 0.4722(18)
H25 H -0.241(2) 0.5959(7) 0.3316(18)
loop_
_geom_bond_atom_site_label_1
_geom_bond_atom_site_label_2
_geom_bond_site_symmetry_1
_geom_bond_site_symmetry_2
N1 N2 1_555 1_555
N2 C10 1_555 1_555
N3 C1 1_555 1_555
N4 C1 1_555 1_555
N5 C1 1_555 1_555
C2 N5 1_555 1_555
H1 C2 1_555 1_555
H2 C2 1_555 1_555
C3 C2 1_555 1_555
H3 C3 1_555 1_555
H4 C3 1_555 1_555
H5 C3 1_555 1_555
C4 N4 1_555 1_555
C5 C4 1_555 1_555
H6 C5 1_555 1_555
H7 C5 1_555 1_555
H8 C5 1_555 1_555
C6 C4 1_555 1_555
H9 C6 1_555 1_555
H10 C6 1_555 1_555
H11 C6 1_555 1_555
C7 C4 1_555 1_555
H12 C7 1_555 1_555
H13 C7 1_555 1_555
H14 C7 1_555 1_555
C8 N1 1_555 1_555
C9 C8 1_555 1_555
H15 C9 1_555 1_555
C10 C9 1_555 1_555
C11 C10 1_555 1_555
H16 C11 1_555 1_555
H17 C11 1_555 1_555
H18 C11 1_555 1_555
C12 N1 1_555 1_555
C13 C12 1_555 1_555
H19 C13 1_555 1_555
C14 C13 1_555 1_555
H20 C14 1_555 1_555
C15 C14 1_555 1_555
H21 C15 1_555 1_555
C16 C15 1_555 1_555
H22 C16 1_555 1_555
C17 C12 1_555 1_555
H23 C17 1_555 1_555
H24 N5 1_555 1_555
H25 N4 1_555 1_555
N3 C8 1_555 1_555
C16 C17 1_555 1_555

#END
