
#######################################################################
#
#                 Cambridge Crystallographic Data Centre
#                                CCDC 
#
#######################################################################
#
# If this CIF has been generated from an entry in the Cambridge 
# Structural Database, then it will include bibliographic, chemical, 
# crystal, experimental, refinement or atomic coordinate data resulting 
# from the CCDC's data processing and validation procedures.
#
#######################################################################

data_YIFJUT
_chemical_name_common            N-acryloyltryptophane
_chemical_formula_moiety         'C15 H16 N2 O3'
_chemical_name_systematic        
'3-(1H-Indol-3-yl)-2-(2-methylacryloyl)propanoic acid'
_symmetry_cell_setting           orthorhombic
_symmetry_space_group_name_H-M   'P 21 21 21'
_symmetry_Int_Tables_number      19
_space_group_name_Hall           'P 2ac 2ab'
loop_
_symmetry_equiv_pos_site_id
_symmetry_equiv_pos_as_xyz
1 x,y,z
2 1/2-x,-y,1/2+z
3 -x,1/2+y,1/2-z
4 1/2+x,1/2-y,-z
_cell_length_a                   9.4220(19)
_cell_length_b                   10.587(2)
_cell_length_c                   14.328(3)
_cell_angle_alpha                90
_cell_angle_beta                 90
_cell_angle_gamma                90
_cell_volume                     1429.23
_exptl_crystal_colour            colorless
_exptl_crystal_description       block
_chemical_melting_point          '415-416 K'
_cell_formula_units_Z            4
_exptl_crystal_recrystallization_method 'ethyl acetate'
loop_
_atom_site_label
_atom_site_type_symbol
_atom_site_fract_x
_atom_site_fract_y
_atom_site_fract_z
O1 O 0.8618(4) 0.8428(4) 0.6888(3)
O2 O 0.9329(4) 0.5009(4) 0.8343(3)
H1 H 0.9981 0.4515 0.8241
O3 O 0.9733(4) 0.5619(4) 0.6880(3)
N1 N 0.7147(4) 0.6787(4) 0.6775(3)
H2 H 0.6527 0.6393 0.6445
N2 N 0.2704(5) 0.6077(5) 0.7424(4)
H3 H 0.1938 0.5974 0.7107
C1 C 0.5920(9) 0.7664(8) 0.5107(6)
H4 H 0.5643 0.8088 0.4544
H5 H 0.5126 0.7628 0.5527
H6 H 0.6226 0.6822 0.4962
C2 C 0.7464(9) 0.9474(6) 0.5222(5)
H7 H 0.6989 0.9817 0.4713
H8 H 0.8204 0.9917 0.5501
C3 C 0.7088(7) 0.8358(6) 0.5550(5)
C4 C 0.7669(5) 0.7871(5) 0.6447(4)
C5 C 0.8991(5) 0.5595(5) 0.7569(4)
C6 C 0.7564(5) 0.6247(5) 0.7650(4)
H9 H 0.7653 0.6931 0.8106
C7 C 0.6414(5) 0.5319(5) 0.8001(4)
H10 H 0.6486 0.4539 0.7649
H11 H 0.6600 0.5122 0.8651
C8 C 0.4940(5) 0.5816(5) 0.7915(4)
C9 C 0.4304(5) 0.6838(5) 0.8436(4)
C10 C 0.4757(7) 0.7634(6) 0.9155(4)
H12 H 0.5675 0.7578 0.9390
C11 C 0.3811(9) 0.8505(7) 0.9508(4)
H13 H 0.4102 0.9047 0.9982
C12 C 0.2438(7) 0.8590(6) 0.9174(5)
H14 H 0.1830 0.9185 0.9434
C13 C 0.1942(6) 0.7829(5) 0.8476(4)
H15 H 0.1015 0.7889 0.8257
C14 C 0.2909(6) 0.6954(5) 0.8108(4)
C15 C 0.3931(5) 0.5387(6) 0.7326(4)
H16 H 0.4048 0.4718 0.6913
loop_
_geom_bond_atom_site_label_1
_geom_bond_atom_site_label_2
_geom_bond_site_symmetry_1
_geom_bond_site_symmetry_2
O1 C4 1_555 1_555
O2 H1 1_555 1_555
O3 C5 1_555 1_555
N1 H2 1_555 1_555
N2 H3 1_555 1_555
C1 H4 1_555 1_555
H5 C1 1_555 1_555
H6 C1 1_555 1_555
C2 H7 1_555 1_555
H8 C2 1_555 1_555
C3 C1 1_555 1_555
C4 N1 1_555 1_555
C5 O2 1_555 1_555
C6 N1 1_555 1_555
H9 C6 1_555 1_555
C7 C6 1_555 1_555
H10 C7 1_555 1_555
H11 C7 1_555 1_555
C8 C7 1_555 1_555
C9 C8 1_555 1_555
C10 C9 1_555 1_555
H12 C10 1_555 1_555
C11 C10 1_555 1_555
H13 C11 1_555 1_555
C12 C11 1_555 1_555
H14 C12 1_555 1_555
C13 C12 1_555 1_555
H15 C13 1_555 1_555
C14 N2 1_555 1_555
C15 N2 1_555 1_555
H16 C15 1_555 1_555
C2 C3 1_555 1_555
C3 C4 1_555 1_555
C5 C6 1_555 1_555
C8 C15 1_555 1_555
C9 C14 1_555 1_555
C13 C14 1_555 1_555

#END
