
#######################################################################
#
#                 Cambridge Crystallographic Data Centre
#                                CCDC 
#
#######################################################################
#
# If this CIF has been generated from an entry in the Cambridge 
# Structural Database, then it will include bibliographic, chemical, 
# crystal, experimental, refinement or atomic coordinate data resulting 
# from the CCDC's data processing and validation procedures.
#
#######################################################################

data_YIFMAC
_chemical_formula_moiety         'C16 H24 N3 O10 P1 S2'
_chemical_name_systematic        
3-(Dimethoxythiophosphorylamido)-2-(2',3',4'-tri-O-acetyl-\b-D-xylopyranos-1'-ylimino)-1,3-thiazolidin-4-one
_symmetry_cell_setting           monoclinic
_symmetry_space_group_name_H-M   'P 21'
_symmetry_Int_Tables_number      4
_space_group_name_Hall           'P 2yb'
loop_
_symmetry_equiv_pos_site_id
_symmetry_equiv_pos_as_xyz
1 x,y,z
2 -x,1/2+y,-z
_cell_length_a                   7.517(4)
_cell_length_b                   6.819(3)
_cell_length_c                   22.574(11)
_cell_angle_alpha                90
_cell_angle_beta                 98.626(7)
_cell_angle_gamma                90
_cell_volume                     1144.02
_exptl_crystal_colour            colorless
_exptl_crystal_description       prism
_chemical_melting_point          415K
_cell_formula_units_Z            2
_exptl_crystal_recrystallization_method 'ethyl acetate/petroleum ether'
loop_
_atom_site_label
_atom_site_type_symbol
_atom_site_fract_x
_atom_site_fract_y
_atom_site_fract_z
P1 P 1.27299(8) 1.00950(9) 0.41121(3)
S1 S 0.76207(8) 1.37077(9) 0.30835(3)
S2 S 1.34386(9) 1.19672(10) 0.35610(3)
O1 O 1.3000(3) 0.7882(3) 0.39418(8)
O2 O 1.3728(2) 1.0092(3) 0.47781(7)
O3 O 1.0379(2) 1.4066(3) 0.46618(8)
O4 O 0.6442(2) 0.7630(2) 0.26237(7)
O5 O 0.5524(3) 0.2977(3) 0.13984(9)
O6 O 0.5693(2) 0.6059(3) 0.10502(8)
O7 O 0.8927(3) 1.0823(3) 0.06911(9)
O8 O 0.9080(2) 0.7906(3) 0.11631(8)
O9 O 1.2034(2) 1.0073(3) 0.19712(9)
O10 O 0.9277(2) 1.1226(2) 0.20528(7)
N1 N 1.0612(3) 1.0299(3) 0.42213(9)
H1 H 1.038(4) 0.984(4) 0.4573(7)
N2 N 0.9539(3) 1.1789(3) 0.39393(8)
N3 N 0.8374(3) 0.9761(3) 0.31576(8)
C1 C 1.2593(4) 0.7227(4) 0.33309(12)
H2 H 1.1295 0.7331 0.3197
H3 H 1.2970 0.5858 0.3304
H4 H 1.3237 0.8046 0.3076
C2 C 1.5678(3) 0.9869(5) 0.48845(13)
H5 H 1.6015 0.8676 0.4686
H6 H 1.6093 0.9772 0.5316
H7 H 1.6238 1.1009 0.4723
C3 C 0.9513(3) 1.3632(4) 0.41845(10)
C4 C 0.8219(3) 1.4938(4) 0.37981(10)
H8 H 0.8786 1.6221 0.3741
H9 H 0.7132 1.5165 0.3988
C5 C 0.8509(3) 1.1458(3) 0.33800(10)
C6 C 0.7331(3) 0.9452(3) 0.25780(10)
H10 H 0.6448 1.0539 0.2471
C7 C 0.5415(3) 0.7061(4) 0.20668(11)
H11 H 0.4580 0.8130 0.1913
H12 H 0.4694 0.5880 0.2124
C8 C 0.6690(3) 0.6627(4) 0.16199(10)
H13 H 0.7551 0.5566 0.1777
C9 C 0.7709(3) 0.8482(4) 0.15154(10)
H14 H 0.6885 0.9486 0.1299
C10 C 0.8616(3) 0.9265(3) 0.21165(10)
H15 H 0.9641 0.8388 0.2278
C11 C 0.5240(3) 0.4131(4) 0.09965(12)
C12 C 0.4350(5) 0.3669(5) 0.03717(13)
H16 H 0.5273 0.3414 0.0117
H17 H 0.3610 0.4785 0.0211
H18 H 0.3588 0.2507 0.0379
C13 C 0.9619(4) 0.9255(5) 0.07871(11)
C14 C 1.1199(5) 0.8508(6) 0.05268(14)
H19 H 1.0832 0.7380 0.0268
H20 H 1.2146 0.8107 0.0851
H21 H 1.1657 0.9546 0.0290
C15 C 1.1032(3) 1.1417(4) 0.19986(11)
C16 C 1.1503(4) 1.3544(5) 0.19700(14)
H22 H 1.2796 1.3679 0.1961
H23 H 1.1188 1.4220 0.2323
H24 H 1.0831 1.4126 0.1607
loop_
_geom_bond_atom_site_label_1
_geom_bond_atom_site_label_2
_geom_bond_site_symmetry_1
_geom_bond_site_symmetry_2
P1 S2 1_555 1_555
S1 C4 1_555 1_555
O1 P1 1_555 1_555
O2 P1 1_555 1_555
O3 C3 1_555 1_555
O4 C6 1_555 1_555
O5 C11 1_555 1_555
O6 C8 1_555 1_555
O7 C13 1_555 1_555
O8 C9 1_555 1_555
O9 C15 1_555 1_555
O10 C10 1_555 1_555
N1 P1 1_555 1_555
H1 N1 1_555 1_555
N2 N1 1_555 1_555
N3 C5 1_555 1_555
C1 O1 1_555 1_555
H2 C1 1_555 1_555
H3 C1 1_555 1_555
H4 C1 1_555 1_555
C2 O2 1_555 1_555
H5 C2 1_555 1_555
H6 C2 1_555 1_555
H7 C2 1_555 1_555
C3 N2 1_555 1_555
C4 C3 1_555 1_555
H8 C4 1_555 1_555
H9 C4 1_555 1_555
C5 S1 1_555 1_555
C6 N3 1_555 1_555
H10 C6 1_555 1_555
C7 O4 1_555 1_555
H11 C7 1_555 1_555
H12 C7 1_555 1_555
C8 C7 1_555 1_555
H13 C8 1_555 1_555
C9 C8 1_555 1_555
H14 C9 1_555 1_555
C10 C6 1_555 1_555
H15 C10 1_555 1_555
C11 O6 1_555 1_555
C12 C11 1_555 1_555
H16 C12 1_555 1_555
H17 C12 1_555 1_555
H18 C12 1_555 1_555
C13 O8 1_555 1_555
C14 C13 1_555 1_555
H19 C14 1_555 1_555
H20 C14 1_555 1_555
H21 C14 1_555 1_555
C15 O10 1_555 1_555
C16 C15 1_555 1_555
H22 C16 1_555 1_555
H23 C16 1_555 1_555
H24 C16 1_555 1_555
N2 C5 1_555 1_555
C9 C10 1_555 1_555

#END
