
#######################################################################
#
#                 Cambridge Crystallographic Data Centre
#                                CCDC 
#
#######################################################################
#
# If this CIF has been generated from an entry in the Cambridge 
# Structural Database, then it will include bibliographic, chemical, 
# crystal, experimental, refinement or atomic coordinate data resulting 
# from the CCDC's data processing and validation procedures.
#
#######################################################################

data_YIFVUH
_chemical_formula_moiety         'C29 H30 B1 N1,C4 H10 O1'
_chemical_name_systematic        
'5,5-bis(2,4,6-trimethylphenyl)-5-borata-5H-indeno[1,2-b]pyridin-1-ium diethyl ether solvate'
_symmetry_cell_setting           monoclinic
_symmetry_space_group_name_H-M   'C 2/c'
_symmetry_Int_Tables_number      15
_space_group_name_Hall           '-C 2yn'
loop_
_symmetry_equiv_pos_site_id
_symmetry_equiv_pos_as_xyz
1 x,y,z
2 -x,y,1/2-z
3 1/2+x,1/2+y,z
4 1/2-x,1/2+y,1/2-z
5 -x,-y,-z
6 x,-y,1/2+z
7 1/2-x,1/2-y,-z
8 1/2+x,1/2-y,1/2+z
_cell_length_a                   20.5415(19)
_cell_length_b                   12.8840(15)
_cell_length_c                   13.9875(12)
_cell_angle_alpha                90
_cell_angle_beta                 127.990(5)
_cell_angle_gamma                90
_cell_volume                     2917.52
_exptl_crystal_colour            colorless
_exptl_crystal_description       needle
_cell_formula_units_Z            4
loop_
_atom_site_label
_atom_site_type_symbol
_atom_site_fract_x
_atom_site_fract_y
_atom_site_fract_z
B1 B 0.500000 0.6555(3) 0.750000
C1 C 0.46005(14) 0.56982(19) 0.6385(2)
C2 C 0.47792(15) 0.46802(19) 0.6848(2)
N1 N 0.45626(17) 0.3813(2) 0.6140(2)
H1 H 0.469(2) 0.312(3) 0.652(3)
C3 C 0.41666(19) 0.3923(2) 0.4920(3)
H2 H 0.401074 0.332676 0.442288
C4 C 0.39966(18) 0.4895(2) 0.4423(3)
H3 H 0.372490 0.496944 0.357888
C5 C 0.42190(16) 0.5776(2) 0.5143(2)
H4 H 0.410953 0.644338 0.478477
C6 C 0.56039(15) 0.72676(19) 0.7347(2)
C7 C 0.52447(16) 0.8087(2) 0.6484(2)
C8 C 0.57147(18) 0.8665(2) 0.6268(3)
H5 H 0.545195 0.920095 0.567635
C9 C 0.65488(17) 0.8491(2) 0.6880(3)
C10 C 0.69057(16) 0.7696(2) 0.7722(2)
H6 H 0.747835 0.756101 0.815923
C11 C 0.64534(15) 0.70808(19) 0.7956(2)
C12 C 0.43431(18) 0.8403(2) 0.5758(3)
H7 H 0.400763 0.778899 0.559838
H8 H 0.415688 0.871080 0.498615
H9 H 0.428346 0.891114 0.622016
C13 C 0.7034(2) 0.9130(3) 0.6606(3)
H10 H 0.669376 0.925951 0.573091
H11 H 0.753376 0.875089 0.687011
H12 H 0.719023 0.979322 0.703827
C14 C 0.69319(16) 0.6227(2) 0.8892(2)
H13 H 0.749210 0.618920 0.913509
H14 H 0.665150 0.556084 0.854098
H15 H 0.696082 0.637866 0.960376
C1A C 0.53995(14) 0.56982(19) 0.8615(2)
C2A C 0.52208(15) 0.46802(19) 0.8152(2)
N1A N 0.54374(17) 0.3813(2) 0.8860(2)
H1A H 0.531(2) 0.312(3) 0.848(3)
C3A C 0.58334(19) 0.3923(2) 1.0080(3)
H2A H 0.598926 0.332676 1.057712
C4A C 0.60034(18) 0.4895(2) 1.0577(3)
H3A H 0.627510 0.496944 1.142112
C5A C 0.57810(16) 0.5776(2) 0.9857(2)
H4A H 0.589047 0.644338 1.021523
C6A C 0.43961(15) 0.72676(19) 0.7653(2)
C7A C 0.47553(16) 0.8087(2) 0.8516(2)
C8A C 0.42853(18) 0.8665(2) 0.8732(3)
H5A H 0.454805 0.920095 0.932365
C9A C 0.34512(17) 0.8491(2) 0.8120(3)
C10A C 0.30943(16) 0.7696(2) 0.7278(2)
H6A H 0.252165 0.756101 0.684077
C11A C 0.35466(15) 0.70808(19) 0.7044(2)
C12A C 0.56569(18) 0.8403(2) 0.9242(3)
H7A H 0.599237 0.778899 0.940162
H8A H 0.584312 0.871080 1.001385
H9A H 0.571654 0.891114 0.877984
C13A C 0.2966(2) 0.9130(3) 0.8394(3)
H10A H 0.330624 0.925951 0.926909
H11A H 0.246624 0.875089 0.812989
H12A H 0.280977 0.979322 0.796173
C14A C 0.30681(16) 0.6227(2) 0.6108(2)
H13A H 0.250790 0.618920 0.586491
H14A H 0.334850 0.556084 0.645902
H15A H 0.303918 0.637866 0.539624
C15? C 0.5824(8) 0.1266(11) 0.7865(14)
H16? H 0.554702 0.114598 0.699348
H17? H 0.599640 0.058216 0.827516
C16? C 0.6547(9) 0.1892(12) 0.8364(16)
H18? H 0.691745 0.153823 0.825054
H19? H 0.638337 0.256476 0.794897
H20? H 0.683315 0.200044 0.923180
O1? O 0.5242(3) 0.1724(3) 0.7989(4)
C17? C 0.4504(8) 0.1164(9) 0.7494(13)
H21? H 0.463782 0.049997 0.793653
H22? H 0.423385 0.100106 0.663295
C18? C 0.3928(8) 0.1773(10) 0.7582(12)
H23? H 0.342268 0.137130 0.723441
H24? H 0.419220 0.192515 0.843549
H25? H 0.378873 0.242561 0.713354
C19? C 0.45626(17) 0.3813(2) 0.6140(2)
loop_
_geom_bond_atom_site_label_1
_geom_bond_atom_site_label_2
_geom_bond_site_symmetry_1
_geom_bond_site_symmetry_2
B1 C1 1_555 1_555
C1 C2 1_555 1_555
C2 N1 1_555 1_555
N1 H1 1_555 1_555
C3 N1 1_555 1_555
H2 C3 1_555 1_555
C4 C3 1_555 1_555
H3 C4 1_555 1_555
C5 C1 1_555 1_555
H4 C5 1_555 1_555
C6 B1 1_555 1_555
C7 C6 1_555 1_555
C8 C7 1_555 1_555
H5 C8 1_555 1_555
C9 C8 1_555 1_555
C10 C9 1_555 1_555
H6 C10 1_555 1_555
C11 C6 1_555 1_555
C12 C7 1_555 1_555
H7 C12 1_555 1_555
H8 C12 1_555 1_555
H9 C12 1_555 1_555
C13 C9 1_555 1_555
H10 C13 1_555 1_555
H11 C13 1_555 1_555
H12 C13 1_555 1_555
C14 C11 1_555 1_555
H13 C14 1_555 1_555
H14 C14 1_555 1_555
H15 C14 1_555 1_555
C1A B1 1_555 1_555
C2A C2 1_555 1_555
N1A C2A 1_555 1_555
H1A N1A 1_555 1_555
C3A N1A 1_555 1_555
H2A C3A 1_555 1_555
C4A C3A 1_555 1_555
H3A C4A 1_555 1_555
C5A C1A 1_555 1_555
H4A C5A 1_555 1_555
C6A B1 1_555 1_555
C7A C6A 1_555 1_555
C8A C7A 1_555 1_555
H5A C8A 1_555 1_555
C9A C8A 1_555 1_555
C10A C9A 1_555 1_555
H6A C10A 1_555 1_555
C11A C6A 1_555 1_555
C12A C7A 1_555 1_555
H7A C12A 1_555 1_555
H8A C12A 1_555 1_555
H9A C12A 1_555 1_555
C13A C9A 1_555 1_555
H10A C13A 1_555 1_555
H11A C13A 1_555 1_555
H12A C13A 1_555 1_555
C14A C11A 1_555 1_555
H13A C14A 1_555 1_555
H14A C14A 1_555 1_555
H15A C14A 1_555 1_555
C4 C5 1_555 1_555
C10 C11 1_555 1_555
C1A C2A 1_555 1_555
C4A C5A 1_555 1_555
C10A C11A 1_555 1_555

#END
