
#######################################################################
#
#                 Cambridge Crystallographic Data Centre
#                                CCDC 
#
#######################################################################
#
# If this CIF has been generated from an entry in the Cambridge 
# Structural Database, then it will include bibliographic, chemical, 
# crystal, experimental, refinement or atomic coordinate data resulting 
# from the CCDC's data processing and validation procedures.
#
#######################################################################

data_YIFXAN
_chemical_formula_moiety         'C20 H17 Cl1 N2 O4'
_chemical_name_systematic        
(E)-N'-(4-(4-Chlorobenzyloxy)-3-methoxybenzylidene)furan-2-carbohydrazide
_symmetry_cell_setting           orthorhombic
_symmetry_space_group_name_H-M   'P n a 21'
_symmetry_Int_Tables_number      33
_space_group_name_Hall           'P 2c -2n'
loop_
_symmetry_equiv_pos_site_id
_symmetry_equiv_pos_as_xyz
1 x,y,z
2 -x,-y,1/2+z
3 1/2+x,1/2-y,z
4 1/2-x,1/2+y,1/2+z
_cell_length_a                   7.797(2)
_cell_length_b                   17.456(4)
_cell_length_c                   13.500(3)
_cell_angle_alpha                90
_cell_angle_beta                 90
_cell_angle_gamma                90
_cell_volume                     1837.41
_exptl_crystal_colour            colorless
_exptl_crystal_description       block
_cell_formula_units_Z            4
_exptl_crystal_recrystallization_method acetonitrile
loop_
_atom_site_label
_atom_site_type_symbol
_atom_site_fract_x
_atom_site_fract_y
_atom_site_fract_z
Cl1 Cl 0.6842(2) 0.48526(10) 1.34550(12)
O1 O 0.7267(3) 0.40745(14) 0.87244(18)
O2 O 0.6436(4) 0.27130(15) 0.8220(2)
O3 O 0.6572(3) 0.15143(16) 0.3146(2)
O4 O 0.9870(4) 0.22846(18) 0.1624(2)
N1 N 0.7978(4) 0.2547(2) 0.4438(2)
N2 N 0.8591(4) 0.2419(2) 0.3490(2)
H1 H 0.9457 0.2675 0.3274
C1 C 0.6632(6) 0.5382(3) 1.0597(3)
H2 H 0.6123 0.5757 1.0206
C2 C 0.6388(6) 0.5392(3) 1.1599(4)
H3 H 0.5714 0.5772 1.1886
C3 C 0.7138(6) 0.4844(3) 1.2181(3)
C4 C 0.8135(6) 0.4284(3) 1.1777(3)
H4 H 0.8648 0.3914 1.2174
C5 C 0.8367(6) 0.4279(2) 1.0759(3)
H5 H 0.9040 0.3900 1.0472
C6 C 0.7618(5) 0.4827(2) 1.0161(3)
C7 C 0.7871(6) 0.4801(2) 0.9068(3)
H6 H 0.7234 0.5212 0.8753
H7 H 0.9076 0.4862 0.8909
C8 C 0.7572(5) 0.3894(2) 0.7759(3)
C9 C 0.8276(5) 0.4376(2) 0.7078(3)
H8 H 0.8529 0.4879 0.7252
C10 C 0.8616(5) 0.4121(2) 0.6130(3)
H9 H 0.9148 0.4448 0.5681
C11 C 0.8180(5) 0.3389(2) 0.5837(3)
C12 C 0.7422(5) 0.2900(2) 0.6540(3)
H10 H 0.7117 0.2404 0.6359
C13 C 0.7127(5) 0.3148(2) 0.7487(3)
C14 C 0.6537(6) 0.1916(2) 0.8124(3)
H11 H 0.7712 0.1767 0.8036
H12 H 0.5879 0.1755 0.7560
H13 H 0.6088 0.1678 0.8710
C15 C 0.8604(5) 0.3144(3) 0.4838(3)
H14 H 0.9372 0.3439 0.4473
C16 C 0.7831(6) 0.1893(2) 0.2902(3)
C17 C 0.8590(5) 0.1808(2) 0.1915(3)
C18 C 0.8186(6) 0.1324(2) 0.1178(3)
H15 H 0.7365 0.0938 0.1186
C19 C 0.9294(7) 0.1531(3) 0.0374(3)
H16 H 0.9321 0.1305 -0.0250
C20 C 1.0258(7) 0.2094(3) 0.0677(3)
H17 H 1.1097 0.2332 0.0296
loop_
_geom_bond_atom_site_label_1
_geom_bond_atom_site_label_2
_geom_bond_site_symmetry_1
_geom_bond_site_symmetry_2
Cl1 C3 1_555 1_555
O1 C7 1_555 1_555
O2 C13 1_555 1_555
O3 C16 1_555 1_555
O4 C17 1_555 1_555
N1 N2 1_555 1_555
N2 H1 1_555 1_555
C1 H2 1_555 1_555
C2 C1 1_555 1_555
H3 C2 1_555 1_555
C3 C2 1_555 1_555
C4 C3 1_555 1_555
H4 C4 1_555 1_555
C5 C4 1_555 1_555
H5 C5 1_555 1_555
C6 C1 1_555 1_555
C7 C6 1_555 1_555
H6 C7 1_555 1_555
H7 C7 1_555 1_555
C8 O1 1_555 1_555
C9 C8 1_555 1_555
H8 C9 1_555 1_555
C10 C9 1_555 1_555
H9 C10 1_555 1_555
C11 C10 1_555 1_555
C12 C11 1_555 1_555
H10 C12 1_555 1_555
C13 C8 1_555 1_555
C14 O2 1_555 1_555
H11 C14 1_555 1_555
H12 C14 1_555 1_555
H13 C14 1_555 1_555
C15 N1 1_555 1_555
H14 C15 1_555 1_555
C16 N2 1_555 1_555
C17 C16 1_555 1_555
C18 C17 1_555 1_555
H15 C18 1_555 1_555
C19 C18 1_555 1_555
H16 C19 1_555 1_555
C20 O4 1_555 1_555
H17 C20 1_555 1_555
C5 C6 1_555 1_555
C11 C15 1_555 1_555
C12 C13 1_555 1_555
C19 C20 1_555 1_555

#END
