
#######################################################################
#
#                 Cambridge Crystallographic Data Centre
#                                CCDC 
#
#######################################################################
#
# If this CIF has been generated from an entry in the Cambridge 
# Structural Database, then it will include bibliographic, chemical, 
# crystal, experimental, refinement or atomic coordinate data resulting 
# from the CCDC's data processing and validation procedures.
#
#######################################################################

data_YIGNOT
_chemical_formula_moiety         'C51 H60 Br2 O10'
_chemical_name_systematic        
4,34-bis(4-bromobutoxy)-9,14,19,24,26,28,30,32-octamethoxyhexacyclo[21.2.2.2^3,6^.2^8,11^.2^13,16^.2^18,21^]pentatriaconta-1(25),3,5,8,10,13,15,18,20,23,26,28,30,32,34-pentadecaene
_symmetry_cell_setting           monoclinic
_symmetry_space_group_name_H-M   'C 2/c'
_symmetry_Int_Tables_number      15
_space_group_name_Hall           '-C 2yn'
loop_
_symmetry_equiv_pos_site_id
_symmetry_equiv_pos_as_xyz
1 x,y,z
2 -x,y,1/2-z
3 1/2+x,1/2+y,z
4 1/2-x,1/2+y,1/2-z
5 -x,-y,-z
6 x,-y,1/2+z
7 1/2-x,1/2-y,-z
8 1/2+x,1/2-y,1/2+z
_cell_length_a                   37.756(4)
_cell_length_b                   11.9135(11)
_cell_length_c                   27.853(5)
_cell_angle_alpha                90
_cell_angle_beta                 129.9680(10)
_cell_angle_gamma                90
_cell_volume                     9601.85
_exptl_crystal_colour            colorless
_exptl_crystal_description       block
_cell_formula_units_Z            8
loop_
_atom_site_label
_atom_site_type_symbol
_atom_site_fract_x
_atom_site_fract_y
_atom_site_fract_z
Br1 Br 0.091812(9) 0.64274(3) 0.512607(14)
Br2 Br 0.59605(5) 0.32037(18) 0.73354(5)
C1 C 0.45926(8) 0.5312(2) 0.59083(11)
H1 H 0.4545 0.5700 0.5556
H2 H 0.4428 0.4584 0.5756
C2 C 0.51024(7) 0.5132(2) 0.64423(11)
H3 H 0.5259 0.5869 0.6596
H4 H 0.5237 0.4707 0.6288
C3 C 0.51889(8) 0.4491(2) 0.69830(12)
H5 H 0.5046 0.4916 0.7125
H6 H 0.5028 0.3759 0.6822
C4 C 0.56857(8) 0.4275(2) 0.75412(12)
H7 H 0.5705 0.3976 0.7889
H8 H 0.5860 0.4989 0.7682
O1 O 0.25624(5) 0.58643(13) 0.49568(7)
O2 O 0.44240(5) 0.59863(13) 0.61482(7)
O3 O 0.37638(5) 0.89792(13) 0.68252(7)
O4 O 0.51262(5) 0.96015(13) 0.66404(7)
O5 O 0.38835(6) 1.25609(14) 0.60962(7)
O6 O 0.44606(6) 1.19890(19) 0.47249(8)
O7 O 0.27027(5) 1.24506(14) 0.37322(8)
O8 O 0.32902(7) 0.92725(14) 0.29350(9)
O9 O 0.18830(5) 0.85405(13) 0.29732(8)
O10 O 0.33144(5) 0.55962(12) 0.38367(8)
C5 C 0.30234(6) 0.59917(17) 0.52487(9)
C6 C 0.33476(7) 0.64513(16) 0.58467(10)
H9 H 0.3248 0.6740 0.6060
C7 C 0.38143(7) 0.64920(16) 0.61343(9)
C8 C 0.39533(7) 0.60198(17) 0.58193(10)
C9 C 0.36303(7) 0.56265(17) 0.52131(10)
H10 H 0.3730 0.5355 0.4997
C10 C 0.31606(7) 0.56211(16) 0.49139(9)
C11 C 0.41622(7) 0.70252(17) 0.67760(9)
H11 H 0.4441 0.6545 0.7033
H12 H 0.4027 0.7053 0.6985
C12 C 0.43055(7) 0.82050(17) 0.67543(9)
C13 C 0.41044(7) 0.91528(17) 0.67823(9)
C14 C 0.42542(7) 1.02144(17) 0.67767(9)
H13 H 0.4118 1.0856 0.6804
C15 C 0.45947(7) 1.03611(17) 0.67326(9)
C16 C 0.47902(7) 0.94142(18) 0.66938(9)
C17 C 0.46492(7) 0.83535(17) 0.67122(9)
H14 H 0.4791 0.7713 0.6696
C18 C 0.47358(7) 1.15378(18) 0.67067(10)
H15 H 0.4697 1.2055 0.6948
H16 H 0.5066 1.1540 0.6902
C19 C 0.44471(7) 1.19463(17) 0.60371(9)
C20 C 0.40112(7) 1.24103(17) 0.57328(10)
C21 C 0.37348(7) 1.26931(17) 0.51040(10)
H17 H 0.3437 1.2999 0.4902
C22 C 0.38814(7) 1.25424(17) 0.47636(9)
C23 C 0.43243(7) 1.2108(2) 0.50763(10)
C24 C 0.45998(7) 1.18154(19) 0.57041(10)
H18 H 0.4900 1.1519 0.5909
C25 C 0.35669(7) 1.27999(17) 0.40717(9)
H19 H 0.3756 1.3007 0.3954
H20 H 0.3369 1.3450 0.3981
C26 C 0.32626(7) 1.18008(17) 0.36800(9)
C27 C 0.28320(7) 1.16452(17) 0.35192(10)
C28 C 0.25604(7) 1.07293(17) 0.31577(10)
H21 H 0.2265 1.0638 0.3045
C29 C 0.27143(8) 0.99422(17) 0.29581(9)
C30 C 0.31442(8) 1.00824(18) 0.31323(10)
C31 C 0.34158(8) 1.10082(18) 0.34877(10)
H22 H 0.3711 1.1096 0.3599
C32 C 0.24092(8) 0.89429(18) 0.25696(10)
H23 H 0.2081 0.9168 0.2306
H24 H 0.2471 0.8706 0.2288
C33 C 0.24968(7) 0.79638(17) 0.29810(9)
C34 C 0.22361(7) 0.77937(17) 0.31632(10)
C35 C 0.23312(7) 0.69112(17) 0.35568(9)
H25 H 0.2145 0.6811 0.3673
C36 C 0.26941(7) 0.61701(16) 0.37845(9)
C37 C 0.29588(7) 0.63538(17) 0.36022(10)
C38 C 0.28618(7) 0.72274(18) 0.32092(10)
H26 H 0.3047 0.7330 0.3092
C39 C 0.28087(7) 0.52417(17) 0.42388(9)
H27 H 0.2523 0.5004 0.4156
H28 H 0.2932 0.4586 0.4170
C40 C 0.24190(7) 0.61314(19) 0.53106(10)
H29 H 0.2430 0.6953 0.5371
H30 H 0.2628 0.5770 0.5728
C41 C 0.19310(7) 0.57064(19) 0.49510(10)
H31 H 0.1933 0.4876 0.4962
H32 H 0.1740 0.5945 0.4508
C42 C 0.17192(7) 0.6158(2) 0.52305(10)
H33 H 0.1925 0.5980 0.5683
H34 H 0.1690 0.6985 0.5184
C43 C 0.12517(7) 0.5649(2) 0.49075(12)
H35 H 0.1289 0.4849 0.5028
H36 H 0.1069 0.5684 0.4448
C44 C 0.35725(9) 0.9952(2) 0.68742(14)
H37 H 0.3821 1.0408 0.7229
H38 H 0.3357 0.9730 0.6941
H39 H 0.3407 1.0391 0.6487
C45 C 0.53157(8) 0.8645(2) 0.65807(12)
H40 H 0.5483 0.8196 0.6965
H41 H 0.5529 0.8880 0.6512
H42 H 0.5066 0.8193 0.6224
C46 C 0.34283(9) 1.2934(2) 0.57940(13)
H43 H 0.3384 1.3680 0.5614
H44 H 0.3379 1.2974 0.6099
H45 H 0.3207 1.2407 0.5460
C47 C 0.49124(16) 1.1597(6) 0.5050(2)
H46 H 0.5115 1.1918 0.5473
H47 H 0.5022 1.1823 0.4827
H48 H 0.4916 1.0777 0.5078
C48 C 0.22495(10) 1.2361(3) 0.35304(19)
H49 H 0.2023 1.2373 0.3072
H50 H 0.2191 1.2994 0.3697
H51 H 0.2221 1.1656 0.3684
C49 C 0.37657(11) 0.9185(3) 0.32651(16)
H52 H 0.3873 0.9854 0.3188
H53 H 0.3828 0.8517 0.3124
H54 H 0.3929 0.9122 0.3714
C50 C 0.14408(8) 0.8161(2) 0.24373(12)
H55 H 0.1452 0.7962 0.2106
H56 H 0.1213 0.8759 0.2288
H57 H 0.1352 0.7500 0.2548
C51 C 0.36219(9) 0.5823(2) 0.37213(14)
H58 H 0.3450 0.5832 0.3269
H59 H 0.3860 0.5238 0.3916
H60 H 0.3769 0.6555 0.3900
Br3? Br 0.60491(12) 0.3538(3) 0.73649(16)
C52? C 0.45926(8) 0.5312(2) 0.59083(11)
H61? H 0.4545 0.5700 0.5556
H62? H 0.4428 0.4584 0.5756
C53? C 0.51024(7) 0.5132(2) 0.64423(11)
H63? H 0.5259 0.5869 0.6596
H64? H 0.5237 0.4707 0.6288
C54? C 0.51889(8) 0.4491(2) 0.69830(12)
H65? H 0.5046 0.4916 0.7125
H66? H 0.5028 0.3759 0.6822
C55? C 0.56857(8) 0.4275(2) 0.75412(12)
H67? H 0.5695 0.3807 0.7843
H68? H 0.5834 0.5001 0.7748
loop_
_geom_bond_atom_site_label_1
_geom_bond_atom_site_label_2
_geom_bond_site_symmetry_1
_geom_bond_site_symmetry_2
Br1 C43 1_555 1_555
Br2 C4 1_555 1_555
C1 H1 1_555 1_555
H2 C1 1_555 1_555
C2 C1 1_555 1_555
H3 C2 1_555 1_555
H4 C2 1_555 1_555
C3 C2 1_555 1_555
H5 C3 1_555 1_555
H6 C3 1_555 1_555
C4 C3 1_555 1_555
H7 C4 1_555 1_555
H8 C4 1_555 1_555
O1 C5 1_555 1_555
O2 C1 1_555 1_555
O3 C13 1_555 1_555
O4 C16 1_555 1_555
O5 C20 1_555 1_555
O6 C23 1_555 1_555
O7 C27 1_555 1_555
O8 C30 1_555 1_555
O9 C34 1_555 1_555
O10 C37 1_555 1_555
C5 C6 1_555 1_555
C6 H9 1_555 1_555
C7 C6 1_555 1_555
C8 O2 1_555 1_555
C9 C8 1_555 1_555
H10 C9 1_555 1_555
C10 C5 1_555 1_555
C11 C7 1_555 1_555
H11 C11 1_555 1_555
H12 C11 1_555 1_555
C12 C11 1_555 1_555
C13 C12 1_555 1_555
C14 C13 1_555 1_555
H13 C14 1_555 1_555
C15 C14 1_555 1_555
C16 C15 1_555 1_555
C17 C12 1_555 1_555
H14 C17 1_555 1_555
C18 C15 1_555 1_555
H15 C18 1_555 1_555
H16 C18 1_555 1_555
C19 C18 1_555 1_555
C20 C19 1_555 1_555
C21 C20 1_555 1_555
H17 C21 1_555 1_555
C22 C21 1_555 1_555
C23 C22 1_555 1_555
C24 C19 1_555 1_555
H18 C24 1_555 1_555
C25 C22 1_555 1_555
H19 C25 1_555 1_555
H20 C25 1_555 1_555
C26 C25 1_555 1_555
C27 C26 1_555 1_555
C28 C27 1_555 1_555
H21 C28 1_555 1_555
C29 C28 1_555 1_555
C30 C29 1_555 1_555
C31 C26 1_555 1_555
H22 C31 1_555 1_555
C32 C29 1_555 1_555
H23 C32 1_555 1_555
H24 C32 1_555 1_555
C33 C32 1_555 1_555
C34 C33 1_555 1_555
C35 C34 1_555 1_555
H25 C35 1_555 1_555
C36 C35 1_555 1_555
C37 C36 1_555 1_555
C38 C33 1_555 1_555
H26 C38 1_555 1_555
C39 C10 1_555 1_555
H27 C39 1_555 1_555
H28 C39 1_555 1_555
C40 O1 1_555 1_555
H29 C40 1_555 1_555
H30 C40 1_555 1_555
C41 C40 1_555 1_555
H31 C41 1_555 1_555
H32 C41 1_555 1_555
C42 C41 1_555 1_555
H33 C42 1_555 1_555
H34 C42 1_555 1_555
C43 C42 1_555 1_555
H35 C43 1_555 1_555
H36 C43 1_555 1_555
C44 O3 1_555 1_555
H37 C44 1_555 1_555
H38 C44 1_555 1_555
H39 C44 1_555 1_555
C45 O4 1_555 1_555
H40 C45 1_555 1_555
H41 C45 1_555 1_555
H42 C45 1_555 1_555
C46 O5 1_555 1_555
H43 C46 1_555 1_555
H44 C46 1_555 1_555
H45 C46 1_555 1_555
C47 O6 1_555 1_555
H46 C47 1_555 1_555
H47 C47 1_555 1_555
H48 C47 1_555 1_555
C48 O7 1_555 1_555
H49 C48 1_555 1_555
H50 C48 1_555 1_555
H51 C48 1_555 1_555
C49 O8 1_555 1_555
H52 C49 1_555 1_555
H53 C49 1_555 1_555
H54 C49 1_555 1_555
C50 O9 1_555 1_555
H55 C50 1_555 1_555
H56 C50 1_555 1_555
H57 C50 1_555 1_555
C51 O10 1_555 1_555
H58 C51 1_555 1_555
H59 C51 1_555 1_555
H60 C51 1_555 1_555
C7 C8 1_555 1_555
C9 C10 1_555 1_555
C16 C17 1_555 1_555
C23 C24 1_555 1_555
C30 C31 1_555 1_555
C36 C39 1_555 1_555
C37 C38 1_555 1_555

#END
