
#######################################################################
#
#                 Cambridge Crystallographic Data Centre
#                                CCDC 
#
#######################################################################
#
# If this CIF has been generated from an entry in the Cambridge 
# Structural Database, then it will include bibliographic, chemical, 
# crystal, experimental, refinement or atomic coordinate data resulting 
# from the CCDC's data processing and validation procedures.
#
#######################################################################

data_YIGVOB
_chemical_formula_moiety         'C21 H23 N5 O10 S1'
_chemical_name_systematic        
N-(2-((5-(4,4-Dimethyl-2-oxo-1,3-oxazolidin-3-yl)-1,3-oxazol-2-yl)sulfonyl)cyclohexyl)-3,5-dinitrobenzamide
_symmetry_cell_setting           triclinic
_symmetry_space_group_name_H-M   'P -1'
_symmetry_Int_Tables_number      2
_space_group_name_Hall           '-P 1'
loop_
_symmetry_equiv_pos_site_id
_symmetry_equiv_pos_as_xyz
1 x,y,z
2 -x,-y,-z
_cell_length_a                   8.1807(5)
_cell_length_b                   13.2413(8)
_cell_length_c                   13.3381(8)
_cell_angle_alpha                115.198(6)
_cell_angle_beta                 106.693(5)
_cell_angle_gamma                96.318(5)
_cell_volume                     1206.41
_cell_formula_units_Z            2
loop_
_atom_site_label
_atom_site_type_symbol
_atom_site_fract_x
_atom_site_fract_y
_atom_site_fract_z
S1 S 0.74188(13) 0.35485(8) 0.33702(8)
O1 O 0.7478(3) 0.13359(19) 0.2642(2)
O2 O 0.5749(4) 0.3001(2) 0.2411(3)
O3 O 0.7588(4) 0.4412(2) 0.4514(2)
O4 O 0.7161(4) -0.2350(2) 0.1876(3)
O5 O 0.4889(4) 0.5029(2) 0.1510(3)
O6 O 0.7841(4) -0.1015(2) 0.3778(3)
N1 N 0.7756(4) -0.0507(2) 0.2320(2)
N2 N 0.7551(4) 0.5651(2) 0.3006(3)
H1 H 0.8190 0.6144 0.3737
O7 O 0.1682(5) 0.9186(3) 0.3527(3)
N3 N 0.9302(4) 0.2495(2) 0.4526(3)
C1 C 0.8283(5) 0.0672(3) 0.3075(3)
O8 O 0.5806(5) 0.9487(3) 0.7115(3)
O9 O 0.1647(5) 0.7959(3) 0.1823(3)
C2 C 0.8171(5) 0.2422(3) 0.3585(3)
O10 O 0.7464(5) 0.8315(3) 0.7000(3)
C3 C 0.5341(5) 0.6673(3) 0.3340(3)
N4 N 0.6307(5) 0.8670(3) 0.6551(3)
C4 C 0.5895(5) 0.5703(3) 0.2525(4)
C5 C 0.7041(5) -0.1120(3) 0.0997(3)
N5 N 0.2181(5) 0.8406(3) 0.2908(4)
C6 C 0.3534(5) 0.7984(3) 0.3498(4)
C7 C 0.5486(5) 0.8094(3) 0.5235(4)
C8 C 0.7628(5) -0.1262(3) 0.2765(4)
C9 C 0.4054(5) 0.7071(3) 0.2797(4)
H2 H 0.3548 0.6726 0.1970
C10 C 0.9387(5) 0.1367(3) 0.4209(3)
H3 H 1.0094 0.1129 0.4703
C11 C 0.9011(6) 0.4119(3) 0.2915(4)
H4 H 1.0004 0.4680 0.3648
C12 C 0.5120(6) -0.1120(4) 0.0533(3)
H5 H 0.4448 -0.1494 0.0823
H6 H 0.4655 -0.1529 -0.0323
H7 H 0.5039 -0.0336 0.0806
C13 C 0.9564(6) 0.5258(3) 0.1908(4)
H8 H 1.0487 0.5902 0.2605
H9 H 0.8948 0.5556 0.1401
C14 C 0.4231(5) 0.8526(3) 0.4725(4)
H10 H 0.3876 0.9149 0.5185
C15 C 0.6042(5) 0.7173(3) 0.4573(4)
H11 H 0.6871 0.6894 0.4948
C16 C 0.7210(6) -0.2324(3) 0.0808(4)
H12 H 0.6238 -0.2925 0.0106
H13 H 0.8317 -0.2437 0.0710
C17 C 0.9767(6) 0.3195(3) 0.2192(4)
H14 H 0.8818 0.2591 0.1476
H15 H 1.0336 0.2847 0.2658
C18 C 0.8281(6) 0.4767(3) 0.2301(4)
H16 H 0.7282 0.4205 0.1572
C19 C 0.8170(7) -0.0630(4) 0.0503(4)
H17 H 0.8072 0.0138 0.0674
H18 H 0.7770 -0.1115 -0.0345
H19 H 0.9384 -0.0600 0.0866
C20 C 1.0408(7) 0.4379(4) 0.1237(4)
H20 H 0.9535 0.3834 0.0452
H21 H 1.1362 0.4773 0.1129
C21 C 1.1113(8) 0.3740(5) 0.1850(5)
H22 H 1.2133 0.4263 0.2567
H23 H 1.1514 0.3133 0.1336
loop_
_geom_bond_atom_site_label_1
_geom_bond_atom_site_label_2
_geom_bond_site_symmetry_1
_geom_bond_site_symmetry_2
S1 O2 1_555 1_555
O1 C1 1_555 1_555
O3 S1 1_555 1_555
O4 C8 1_555 1_555
O5 C4 1_555 1_555
O6 C8 1_555 1_555
N1 C1 1_555 1_555
N2 H1 1_555 1_555
O7 N5 1_555 1_555
N3 C2 1_555 1_555
C1 C10 1_555 1_555
O8 N4 1_555 1_555
O9 N5 1_555 1_555
C2 S1 1_555 1_555
O10 N4 1_555 1_555
C3 C4 1_555 1_555
N4 C7 1_555 1_555
C4 N2 1_555 1_555
C5 N1 1_555 1_555
N5 C6 1_555 1_555
C6 C9 1_555 1_555
C7 C14 1_555 1_555
C8 N1 1_555 1_555
C9 C3 1_555 1_555
H2 C9 1_555 1_555
C10 N3 1_555 1_555
H3 C10 1_555 1_555
C11 S1 1_555 1_555
H4 C11 1_555 1_555
C12 C5 1_555 1_555
H5 C12 1_555 1_555
H6 C12 1_555 1_555
H7 C12 1_555 1_555
C13 H8 1_555 1_555
H9 C13 1_555 1_555
C14 C6 1_555 1_555
H10 C14 1_555 1_555
C15 C3 1_555 1_555
H11 C15 1_555 1_555
C16 O4 1_555 1_555
H12 C16 1_555 1_555
H13 C16 1_555 1_555
C17 C11 1_555 1_555
H14 C17 1_555 1_555
H15 C17 1_555 1_555
C18 N2 1_555 1_555
H16 C18 1_555 1_555
C19 C5 1_555 1_555
H17 C19 1_555 1_555
H18 C19 1_555 1_555
H19 C19 1_555 1_555
C20 C13 1_555 1_555
H20 C20 1_555 1_555
H21 C20 1_555 1_555
C21 C17 1_555 1_555
H22 C21 1_555 1_555
H23 C21 1_555 1_555
O1 C2 1_555 1_555
C5 C16 1_555 1_555
C7 C15 1_555 1_555
C11 C18 1_555 1_555
C13 C18 1_555 1_555
C20 C21 1_555 1_555

#END
