
#######################################################################
#
#                 Cambridge Crystallographic Data Centre
#                                CCDC 
#
#######################################################################
#
# If this CIF has been generated from an entry in the Cambridge 
# Structural Database, then it will include bibliographic, chemical, 
# crystal, experimental, refinement or atomic coordinate data resulting 
# from the CCDC's data processing and validation procedures.
#
#######################################################################

data_YIHSUF
_chemical_name_common            'Calix[4]imidazolium tetrabromide'
_chemical_formula_moiety         'C16 H20 N8 4+,4(Br1 1-)'
_chemical_name_systematic        
'3,8,13,18-Tetraaza-1,6,11,16-tetraazoniapentacyclo[16.2.1.1^3,6^.1^8,11^.1^13,16^]tetracosa-1(21),4,6(24),9,11(23),14,16(22),19-octaene tetrabromide'
_symmetry_cell_setting           monoclinic
_symmetry_space_group_name_H-M   'P 21/c'
_symmetry_Int_Tables_number      14
_space_group_name_Hall           '-P 2ybc'
loop_
_symmetry_equiv_pos_site_id
_symmetry_equiv_pos_as_xyz
1 x,y,z
2 -x,1/2+y,1/2-z
3 -x,-y,-z
4 x,1/2-y,1/2+z
_cell_length_a                   8.790(6)
_cell_length_b                   9.380(6)
_cell_length_c                   13.255(9)
_cell_angle_alpha                90
_cell_angle_beta                 105.413(10)
_cell_angle_gamma                90
_cell_volume                     1053.57
_exptl_crystal_colour            colorless
_exptl_crystal_description       cubic
_cell_formula_units_Z            2
loop_
_atom_site_label
_atom_site_type_symbol
_atom_site_fract_x
_atom_site_fract_y
_atom_site_fract_z
Br1 Br 0.65368(5) 0.53524(5) 0.32499(3)
Br2 Br 0.12391(6) 0.61812(5) 0.12455(3)
N1 N 0.1952(4) 0.4383(3) 0.3597(2)
N2 N 0.2126(4) 0.6628(3) 0.3922(2)
N3 N 0.4352(4) 0.8104(3) 0.4588(2)
C1 C 0.2856(5) 0.5527(4) 0.3647(3)
H1 H 0.3840 0.5548 0.3511
C2 C 0.0555(5) 0.4782(4) 0.3798(3)
H2 H -0.0299 0.4195 0.3795
C3 C 0.0668(5) 0.6183(4) 0.3998(3)
H3 H -0.0099 0.6754 0.4160
C4 C 0.2699(5) 0.8086(4) 0.4010(3)
H4 H 0.2576 0.8486 0.3318
H5 H 0.2091 0.8661 0.4371
C5 C 0.4962(5) 0.7481(4) 0.5516(3)
H6 H 0.4401 0.6990 0.5910
C6 C 0.5564(5) 0.8742(4) 0.4269(3)
H7 H 0.5465 0.9261 0.3657
C7 C 0.6905(5) 0.8478(4) 0.5001(3)
H8 H 0.7913 0.8770 0.4992
N4 N 0.6512(4) 0.7689(3) 0.5774(2)
C8 C 0.7616(5) 0.7034(4) 0.6674(3)
H9 H 0.8555 0.7620 0.6895
H10 H 0.7134 0.6971 0.7252
N1B N 0.8048(4) 0.5617(3) 0.6403(2)
N2B N 0.7874(4) 0.3372(3) 0.6078(2)
N3B N 0.5648(4) 0.1896(3) 0.5412(2)
C1B C 0.7144(5) 0.4473(4) 0.6353(3)
H1B H 0.6160 0.4452 0.6489
C2B C 0.9445(5) 0.5218(4) 0.6202(3)
H2B H 1.0299 0.5805 0.6205
C3B C 0.9332(5) 0.3817(4) 0.6002(3)
H3B H 1.0099 0.3246 0.5840
C4B C 0.7301(5) 0.1914(4) 0.5990(3)
H4B H 0.7424 0.1514 0.6682
H5B H 0.7909 0.1339 0.5629
C5B C 0.5038(5) 0.2519(4) 0.4484(3)
H6B H 0.5599 0.3010 0.4090
C6B C 0.4436(5) 0.1258(4) 0.5731(3)
H7B H 0.4535 0.0739 0.6343
C7B C 0.3095(5) 0.1522(4) 0.4999(3)
H8B H 0.2087 0.1230 0.5008
N4B N 0.3488(4) 0.2311(3) 0.4226(2)
C8B C 0.2384(5) 0.2966(4) 0.3326(3)
H9B H 0.1445 0.2380 0.3105
H10B H 0.2866 0.3029 0.2748
loop_
_geom_bond_atom_site_label_1
_geom_bond_atom_site_label_2
_geom_bond_site_symmetry_1
_geom_bond_site_symmetry_2
N1 C1 1_555 1_555
N2 C1 1_555 1_555
N3 C4 1_555 1_555
C1 H1 1_555 1_555
C2 N1 1_555 1_555
H2 C2 1_555 1_555
C3 N2 1_555 1_555
H3 C3 1_555 1_555
C4 N2 1_555 1_555
H4 C4 1_555 1_555
H5 C4 1_555 1_555
C5 N3 1_555 1_555
H6 C5 1_555 1_555
C6 N3 1_555 1_555
H7 C6 1_555 1_555
C7 C6 1_555 1_555
H8 C7 1_555 1_555
N4 C5 1_555 1_555
C8 N4 1_555 1_555
H9 C8 1_555 1_555
H10 C8 1_555 1_555
N1B C8 1_555 1_555
N2B C1B 1_555 1_555
N3B C4B 1_555 1_555
C1B N1B 1_555 1_555
H1B C1B 1_555 1_555
C2B N1B 1_555 1_555
H2B C2B 1_555 1_555
C3B N2B 1_555 1_555
H3B C3B 1_555 1_555
C4B N2B 1_555 1_555
H4B C4B 1_555 1_555
H5B C4B 1_555 1_555
C5B N3B 1_555 1_555
H6B C5B 1_555 1_555
C6B N3B 1_555 1_555
H7B C6B 1_555 1_555
C7B C6B 1_555 1_555
H8B C7B 1_555 1_555
N4B C5B 1_555 1_555
C8B N1 1_555 1_555
H9B C8B 1_555 1_555
H10B C8B 1_555 1_555
C2 C3 1_555 1_555
C7 N4 1_555 1_555
C2B C3B 1_555 1_555
C7B N4B 1_555 1_555
N4B C8B 1_555 1_555

#END
