
#######################################################################
#
#                 Cambridge Crystallographic Data Centre
#                                CCDC 
#
#######################################################################
#
# If this CIF has been generated from an entry in the Cambridge 
# Structural Database, then it will include bibliographic, chemical, 
# crystal, experimental, refinement or atomic coordinate data resulting 
# from the CCDC's data processing and validation procedures.
#
#######################################################################

data_YIHTUG01
_chemical_formula_moiety         'C18 H10 S3'
_chemical_name_systematic        
2-Phenylthieno[2',3':4,5]thieno[3,2-b][1]benzothiophene
_symmetry_cell_setting           triclinic
_symmetry_space_group_name_H-M   'P -1'
_symmetry_Int_Tables_number      2
_space_group_name_Hall           '-P 1'
loop_
_symmetry_equiv_pos_site_id
_symmetry_equiv_pos_as_xyz
1 x,y,z
2 -x,-y,-z
_cell_length_a                   5.8966(2)
_cell_length_b                   7.6220(3)
_cell_length_c                   31.0572(13)
_cell_angle_alpha                95.177(3)
_cell_angle_beta                 94.222(3)
_cell_angle_gamma                90.159(3)
_cell_volume                     1386.3
_exptl_crystal_colour            colorless
_exptl_crystal_description       plate
_cell_formula_units_Z            4
loop_
_atom_site_label
_atom_site_type_symbol
_atom_site_fract_x
_atom_site_fract_y
_atom_site_fract_z
S1 S -0.1523(2) 1.13306(17) 0.34055(4)
S2 S 0.4041(2) 0.90500(17) 0.27998(4)
S3 S -0.1889(2) 1.07375(18) 0.21463(4)
C1 C 0.4172(10) 0.9483(7) 0.39544(18)
H1 H 0.5506 0.8935 0.3856
C2 C 0.2447(10) 1.0028(7) 0.36546(18)
C3 C 0.0482(10) 1.0815(7) 0.38169(17)
C4 C 0.2014(9) 0.9518(7) 0.23927(18)
C5 C 0.0098(10) 1.0311(7) 0.25559(17)
C6 C 0.2259(9) 0.9882(6) 0.31927(17)
C7 C 0.0239(9) 1.0511(7) 0.30146(17)
C8 C 0.3885(11) 0.9761(7) 0.43897(19)
H2 H 0.5039 0.9395 0.4591
C9 C -0.3743(11) 1.0485(8) 0.07285(19)
H3 H -0.5138 1.1026 0.0646
C10 C 0.1893(10) 0.9239(7) 0.19365(18)
H4 H 0.3064 0.8714 0.1776
C11 C -0.0145(9) 0.9823(7) 0.17511(18)
C12 C -0.2976(10) 1.0553(8) 0.11589(19)
H5 H -0.3848 1.1155 0.1370
C13 C 0.1939(10) 1.0567(7) 0.45452(19)
H6 H 0.1790 1.0735 0.4849
C14 C -0.0460(11) 0.8828(8) 0.05391(19)
H7 H 0.0410 0.8241 0.0325
C15 C -0.0931(10) 0.9752(7) 0.12931(18)
C16 C 0.0308(10) 0.8873(7) 0.09712(19)
H8 H 0.1687 0.8304 0.1051
C17 C -0.2471(10) 0.9622(8) 0.04143(18)
H9 H -0.2985 0.9581 0.0116
C18 C 0.0230(10) 1.1122(7) 0.42595(18)
H10 H -0.1078 1.1697 0.4363
S4 S 0.3541(2) 0.41610(17) 0.34229(4)
S5 S 0.3138(2) 0.41343(18) 0.21675(4)
S6 S 0.9112(2) 0.61478(18) 0.28421(4)
C19 C 0.9268(10) 0.6274(7) 0.39971(18)
H11 H 1.0591 0.6797 0.3905
C20 C 0.7543(10) 0.5605(7) 0.36933(18)
C21 C 0.7065(10) 0.5453(7) 0.24298(18)
C22 C 0.7308(10) 0.5530(7) 0.32241(18)
C23 C 0.5302(10) 0.4796(7) 0.30413(18)
C24 C 0.5163(9) 0.4744(7) 0.25817(18)
C25 C 0.4041(10) 0.4753(7) 0.13281(18)
C26 C 0.6917(9) 0.5525(7) 0.19737(18)
H12 H 0.8086 0.5977 0.1819
C27 C 0.1991(10) 0.3895(7) 0.11812(19)
H13 H 0.1125 0.3370 0.1382
C28 C 0.7089(11) 0.5388(8) 0.45747(19)
H14 H 0.6974 0.5315 0.4876
C29 C 0.5574(10) 0.4857(7) 0.38395(18)
C30 C 0.5261(11) 0.5530(7) 0.10198(19)
H15 H 0.6651 0.6135 0.1109
C31 C 0.1200(11) 0.3795(8) 0.0750(2)
H16 H -0.0196 0.3204 0.0658
C32 C 0.9033(10) 0.6167(7) 0.44293(19)
H17 H 1.0202 0.6628 0.4636
C33 C 0.4458(11) 0.5420(8) 0.05901(19)
H18 H 0.5307 0.5945 0.0386
C34 C 0.5350(10) 0.4729(7) 0.42811(18)
H19 H 0.4036 0.4202 0.4377
C35 C 0.2435(11) 0.4556(8) 0.04506(19)
H20 H 0.1897 0.4484 0.0154
C36 C 0.4887(10) 0.4866(7) 0.17836(18)
loop_
_geom_bond_atom_site_label_1
_geom_bond_atom_site_label_2
_geom_bond_site_symmetry_1
_geom_bond_site_symmetry_2
S1 C3 1_555 1_555
S2 C4 1_555 1_555
S3 C5 1_555 1_555
C1 H1 1_555 1_555
C2 C1 1_555 1_555
C3 C2 1_555 1_555
C4 C5 1_555 1_555
C5 C7 1_555 1_555
C6 S2 1_555 1_555
C7 S1 1_555 1_555
C8 C1 1_555 1_555
H2 C8 1_555 1_555
C9 H3 1_555 1_555
C10 C4 1_555 1_555
H4 C10 1_555 1_555
C11 S3 1_555 1_555
C12 C9 1_555 1_555
H5 C12 1_555 1_555
C13 C8 1_555 1_555
H6 C13 1_555 1_555
C14 H7 1_555 1_555
C15 C11 1_555 1_555
C16 C14 1_555 1_555
H8 C16 1_555 1_555
C17 C9 1_555 1_555
H9 C17 1_555 1_555
C18 C3 1_555 1_555
H10 C18 1_555 1_555
S4 C23 1_555 1_555
S5 C24 1_555 1_555
S6 C21 1_555 1_555
C19 H11 1_555 1_555
C20 C19 1_555 1_555
C21 C24 1_555 1_555
C22 S6 1_555 1_555
C23 C22 1_555 1_555
C24 C23 1_555 1_555
C25 C27 1_555 1_555
C26 C21 1_555 1_555
H12 C26 1_555 1_555
C27 H13 1_555 1_555
C28 H14 1_555 1_555
C29 S4 1_555 1_555
C30 C25 1_555 1_555
H15 C30 1_555 1_555
C31 C27 1_555 1_555
H16 C31 1_555 1_555
C32 C19 1_555 1_555
H17 C32 1_555 1_555
C33 C30 1_555 1_555
H18 C33 1_555 1_555
C34 C28 1_555 1_555
H19 C34 1_555 1_555
C35 C31 1_555 1_555
H20 C35 1_555 1_555
C36 S5 1_555 1_555
C2 C6 1_555 1_555
C6 C7 1_555 1_555
C10 C11 1_555 1_555
C12 C15 1_555 1_555
C13 C18 1_555 1_555
C14 C17 1_555 1_555
C15 C16 1_555 1_555
C20 C22 1_555 1_555
C20 C29 1_555 1_555
C25 C36 1_555 1_555
C26 C36 1_555 1_555
C28 C32 1_555 1_555
C29 C34 1_555 1_555
C33 C35 1_555 1_555

#END
