
#######################################################################
#
#                 Cambridge Crystallographic Data Centre
#                                CCDC 
#
#######################################################################
#
# If this CIF has been generated from an entry in the Cambridge 
# Structural Database, then it will include bibliographic, chemical, 
# crystal, experimental, refinement or atomic coordinate data resulting 
# from the CCDC's data processing and validation procedures.
#
#######################################################################

data_YIJBAX
_chemical_formula_moiety         'C36 H72 Li8 Si8,C6 H6'
_chemical_name_systematic        
'tetrakis(\m-1,3-bis(trimethylsilyl)allenyl)-octa-lithium benzene solvate'
_symmetry_cell_setting           triclinic
_symmetry_space_group_name_H-M   'P -1'
_symmetry_Int_Tables_number      2
_space_group_name_Hall           '-P 1'
loop_
_symmetry_equiv_pos_site_id
_symmetry_equiv_pos_as_xyz
1 x,y,z
2 -x,-y,-z
_cell_length_a                   12.2466(16)
_cell_length_b                   12.8466(16)
_cell_length_c                   19.161(3)
_cell_angle_alpha                94.060(2)
_cell_angle_beta                 101.389(2)
_cell_angle_gamma                98.281(2)
_cell_volume                     2909.03
_exptl_crystal_colour            colorless
_exptl_crystal_description       prism
_cell_formula_units_Z            2
loop_
_atom_site_label
_atom_site_type_symbol
_atom_site_fract_x
_atom_site_fract_y
_atom_site_fract_z
C1 C 0.92531(13) 0.14671(12) 0.22586(8)
C2 C 0.88929(12) 0.17667(11) 0.16184(8)
C3 C 0.85017(13) 0.21489(12) 0.10241(8)
C4 C 0.57917(13) 0.23744(12) 0.17599(9)
C5 C 0.59034(12) 0.14034(12) 0.15436(8)
C6 C 0.60835(13) 0.04453(12) 0.13877(8)
C7 C 0.72010(13) 0.11169(12) 0.33519(8)
C8 C 0.68707(12) 0.19883(12) 0.35922(8)
C9 C 0.65470(13) 0.28737(12) 0.37703(9)
C10 C 0.95205(13) 0.35927(12) 0.37482(9)
C11 C 0.89735(12) 0.38978(11) 0.31631(9)
C12 C 0.84073(13) 0.41180(12) 0.25431(9)
C13 C 1.12512(17) 0.06449(18) 0.17768(13)
H1 H 1.0927 0.0735 0.1279
H2 H 1.1662 0.0044 0.1789
H3 H 1.1771 0.1288 0.1998
C14 C 1.0779(2) 0.02437(19) 0.32214(11)
H4 H 1.1301 0.0892 0.3428
H5 H 1.1195 -0.0353 0.3226
H6 H 1.0197 0.0113 0.3504
C15 C 0.91997(18) -0.08946(14) 0.18707(12)
H7 H 0.8636 -0.1094 0.2156
H8 H 0.9677 -0.1444 0.1861
H9 H 0.8817 -0.0820 0.1381
C16 C 0.9829(2) 0.1993(2) -0.01618(12)
H10 H 1.0262 0.1496 0.0089
H11 H 1.0299 0.2416 -0.0431
H12 H 0.9160 0.1598 -0.0493
C17 C 0.86086(19) 0.38461(17) 0.00015(11)
H13 H 0.7909 0.3468 -0.0308
H14 H 0.9084 0.4208 -0.0292
H15 H 0.8428 0.4367 0.0342
C18 C 1.06856(17) 0.36578(18) 0.11084(12)
H16 H 1.0475 0.4219 0.1404
H17 H 1.1197 0.3973 0.0819
H18 H 1.1065 0.3185 0.1418
C19 C 0.36177(16) 0.19660(16) 0.05682(11)
H19 H 0.3969 0.1536 0.0260
H20 H 0.3075 0.2328 0.0271
H21 H 0.3226 0.1509 0.0860
C20 C 0.5410(2) 0.38178(19) 0.05652(15)
H22 H 0.5947 0.4403 0.0855
H23 H 0.4829 0.4101 0.0239
H24 H 0.5811 0.3394 0.0287
C21 C 0.3964(2) 0.3774(2) 0.16978(15)
H25 H 0.3451 0.3302 0.1913
H26 H 0.3530 0.4206 0.1383
H27 H 0.4511 0.4236 0.2077
C22 C 0.57435(17) -0.19233(14) 0.15250(11)
H28 H 0.6169 -0.2016 0.1149
H29 H 0.5162 -0.2545 0.1493
H30 H 0.6258 -0.1841 0.1994
C23 C 0.39687(16) -0.09982(16) 0.05497(10)
C24 C 0.42800(17) -0.05195(16) 0.21471(11)
C25 C 0.49558(16) 0.44361(15) 0.39421(11)
H31 H 0.5626 0.4935 0.4190
H32 H 0.4312 0.4547 0.4156
H33 H 0.4785 0.4552 0.3435
C26 C 0.52917(17) 0.28280(16) 0.49868(10)
H34 H 0.5427 0.2106 0.5059
H35 H 0.4574 0.2927 0.5114
H36 H 0.5906 0.3334 0.5291
C27 C 0.40155(15) 0.20933(16) 0.34691(12)
H37 H 0.3959 0.2204 0.2963
H38 H 0.3314 0.2209 0.3612
H39 H 0.4141 0.1368 0.3540
C28 C 0.6188(2) -0.0138(2) 0.44426(14)
H40 H 0.6016 0.0511 0.4668
H41 H 0.6350 -0.0628 0.4805
H42 H 0.5538 -0.0469 0.4069
C29 C 0.8652(2) 0.0771(2) 0.47803(13)
H43 H 0.9340 0.0917 0.4591
H44 H 0.8757 0.0270 0.5141
H45 H 0.8495 0.1431 0.4999
C30 C 0.7728(3) -0.10860(17) 0.36437(13)
H46 H 0.7070 -0.1423 0.3279
H47 H 0.7880 -0.1553 0.4022
H48 H 0.8386 -0.0953 0.3424
C31 C 1.16467(17) 0.29156(18) 0.45905(11)
H49 H 1.1302 0.2859 0.5009
H50 H 1.2465 0.3131 0.4749
H51 H 1.1489 0.2228 0.4303
C32 C 1.14571(18) 0.51908(19) 0.46483(13)
C33 C 1.17204(18) 0.4067(2) 0.32467(12)
C34 C 0.92810(18) 0.64055(14) 0.32263(12)
H52 H 0.9162 0.6218 0.3696
H53 H 0.9180 0.7142 0.3178
H54 H 1.0048 0.6321 0.3182
C35 C 0.8376(2) 0.59649(16) 0.16187(12)
H55 H 0.9128 0.5895 0.1536
H56 H 0.8271 0.6706 0.1611
H57 H 0.7801 0.5528 0.1242
C36 C 0.67963(18) 0.57165(17) 0.26390(16)
H58 H 0.6219 0.5270 0.2269
H59 H 0.6715 0.6460 0.2605
H60 H 0.6704 0.5522 0.3112
Li1 Li 0.5600(2) 0.1310(3) 0.26294(17)
Li2 Li 0.8875(2) 0.1978(2) 0.32867(15)
Li3 Li 0.7522(2) 0.0681(2) 0.22847(14)
Li4 Li 0.7097(3) 0.0969(2) 0.06720(15)
Li5 Li 0.7499(2) 0.3033(2) 0.15931(16)
Li6 Li 0.6756(2) 0.3381(2) 0.27410(15)
Li7 Li 0.8190(2) 0.3547(2) 0.42890(16)
Li8 Li 0.9731(3) 0.3213(2) 0.23069(18)
Si1 Si 1.00982(4) 0.03947(3) 0.22787(2)
Si2 Si 0.93802(4) 0.28835(4) 0.05023(3)
Si3 Si 0.47304(4) 0.29676(4) 0.11656(3)
Si4 Si 0.50618(4) -0.07234(3) 0.14099(2)
Si5 Si 0.52305(4) 0.30516(4) 0.40296(3)
Si6 Si 0.74421(4) 0.01899(4) 0.40357(3)
Si7 Si 1.10454(4) 0.39221(4) 0.40386(2)
Si8 Si 0.82374(4) 0.55192(3) 0.25074(3)
H61 H 0.349(2) -0.1619(19) 0.0554(12)
H62 H 0.3533(19) -0.0438(18) 0.0513(11)
H63 H 0.4355(19) -0.1079(17) 0.0163(12)
H64 H 0.4774(19) -0.0473(16) 0.2593(12)
H65 H 0.3701(19) -0.1134(18) 0.2133(11)
H66 H 0.3935(19) 0.0100(18) 0.2099(12)
H67 H 1.227(2) 0.5294(17) 0.4814(12)
H68 H 1.127(2) 0.5753(19) 0.4420(12)
H69 H 1.105(2) 0.5106(18) 0.5041(13)
H70 H 1.1367(19) 0.4536(18) 0.2972(12)
H71 H 1.1629(19) 0.3385(19) 0.2951(13)
H72 H 1.246(2) 0.4301(19) 0.3371(13)
C37 C 0.71220(17) 0.23498(12) 0.67593(8)
H73 H 0.7081 0.1922 0.6327
C38 C 0.62271(13) 0.28648(13) 0.68464(7)
H74 H 0.5574 0.2789 0.6473
C39 C 0.62878(11) 0.34902(11) 0.74795(8)
H75 H 0.5676 0.3842 0.7539
C40 C 0.72434(14) 0.36006(11) 0.80256(7)
H76 H 0.7285 0.4028 0.8458
C41 C 0.81383(11) 0.30856(14) 0.79386(10)
H77 H 0.8791 0.3161 0.8312
C42 C 0.80777(13) 0.24602(13) 0.73054(11)
H78 H 0.8689 0.2108 0.7246
loop_
_geom_bond_atom_site_label_1
_geom_bond_atom_site_label_2
_geom_bond_site_symmetry_1
_geom_bond_site_symmetry_2
C1 C2 1_555 1_555
C2 C3 1_555 1_555
C3 Li4 1_555 1_555
C4 C5 1_555 1_555
C5 C6 1_555 1_555
C6 Li3 1_555 1_555
C7 C8 1_555 1_555
C8 C9 1_555 1_555
C9 Li6 1_555 1_555
C10 C11 1_555 1_555
C11 C12 1_555 1_555
C12 Li5 1_555 1_555
C13 H1 1_555 1_555
H2 C13 1_555 1_555
H3 C13 1_555 1_555
C14 H4 1_555 1_555
H5 C14 1_555 1_555
H6 C14 1_555 1_555
C15 H7 1_555 1_555
H8 C15 1_555 1_555
H9 C15 1_555 1_555
C16 H10 1_555 1_555
H11 C16 1_555 1_555
H12 C16 1_555 1_555
C17 H13 1_555 1_555
H14 C17 1_555 1_555
H15 C17 1_555 1_555
C18 H16 1_555 1_555
H17 C18 1_555 1_555
H18 C18 1_555 1_555
C19 H19 1_555 1_555
H20 C19 1_555 1_555
H21 C19 1_555 1_555
C20 H22 1_555 1_555
H23 C20 1_555 1_555
H24 C20 1_555 1_555
C21 H25 1_555 1_555
H26 C21 1_555 1_555
H27 C21 1_555 1_555
C22 H28 1_555 1_555
H29 C22 1_555 1_555
H30 C22 1_555 1_555
C23 Si4 1_555 1_555
C24 Si4 1_555 1_555
C25 H31 1_555 1_555
H32 C25 1_555 1_555
H33 C25 1_555 1_555
C26 H34 1_555 1_555
H35 C26 1_555 1_555
H36 C26 1_555 1_555
C27 H37 1_555 1_555
H38 C27 1_555 1_555
H39 C27 1_555 1_555
C28 H40 1_555 1_555
H41 C28 1_555 1_555
H42 C28 1_555 1_555
C29 H43 1_555 1_555
H44 C29 1_555 1_555
H45 C29 1_555 1_555
C30 H46 1_555 1_555
H47 C30 1_555 1_555
H48 C30 1_555 1_555
C31 H49 1_555 1_555
H50 C31 1_555 1_555
H51 C31 1_555 1_555
C32 Si7 1_555 1_555
C33 Si7 1_555 1_555
C34 H52 1_555 1_555
H53 C34 1_555 1_555
H54 C34 1_555 1_555
C35 H55 1_555 1_555
H56 C35 1_555 1_555
H57 C35 1_555 1_555
C36 H58 1_555 1_555
H59 C36 1_555 1_555
H60 C36 1_555 1_555
Li1 C4 1_555 1_555
Li2 C1 1_555 1_555
Li3 C1 1_555 1_555
Li4 C5 1_555 1_555
Li5 C2 1_555 1_555
Li6 C4 1_555 1_555
Li7 C8 1_555 1_555
Li8 C1 1_555 1_555
Si1 C1 1_555 1_555
Si2 C3 1_555 1_555
Si3 C4 1_555 1_555
Si4 C6 1_555 1_555
Si5 C9 1_555 1_555
Si6 C7 1_555 1_555
Si7 C10 1_555 1_555
Si8 C12 1_555 1_555
H61 C23 1_555 1_555
H62 C23 1_555 1_555
H63 C23 1_555 1_555
H64 C24 1_555 1_555
H65 C24 1_555 1_555
H66 C24 1_555 1_555
H67 C32 1_555 1_555
H68 C32 1_555 1_555
H69 C32 1_555 1_555
H70 C33 1_555 1_555
H71 C33 1_555 1_555
H72 C33 1_555 1_555
C37 H73 1_555 1_555
C38 C37 1_555 1_555
H74 C38 1_555 1_555
C39 C38 1_555 1_555
H75 C39 1_555 1_555
C40 C39 1_555 1_555
H76 C40 1_555 1_555
C41 C40 1_555 1_555
H77 C41 1_555 1_555
C42 C37 1_555 1_555
H78 C42 1_555 1_555
C2 Li8 1_555 1_555
C3 Li5 1_555 1_555
C4 Li5 1_555 1_555
C5 Li1 1_555 1_555
C5 Li3 1_555 1_555
C6 Li4 1_555 1_555
C7 Li1 1_555 1_555
C7 Li2 1_555 1_555
C7 Li3 1_555 1_555
C8 Li1 1_555 1_555
C8 Li6 1_555 1_555
C9 Li7 1_555 1_555
C10 Li2 1_555 1_555
C10 Li7 1_555 1_555
C11 Li2 1_555 1_555
C11 Li8 1_555 1_555
C12 Li6 1_555 1_555
C12 Li8 1_555 1_555
C13 Si1 1_555 1_555
C14 Si1 1_555 1_555
C15 Si1 1_555 1_555
C16 Si2 1_555 1_555
C17 Si2 1_555 1_555
C18 Si2 1_555 1_555
C19 Si3 1_555 1_555
C20 Si3 1_555 1_555
C21 Si3 1_555 1_555
C22 Si4 1_555 1_555
C25 Si5 1_555 1_555
C26 Si5 1_555 1_555
C27 Si5 1_555 1_555
C28 Si6 1_555 1_555
C29 Si6 1_555 1_555
C30 Si6 1_555 1_555
C31 Si7 1_555 1_555
C34 Si8 1_555 1_555
C35 Si8 1_555 1_555
C36 Si8 1_555 1_555
C41 C42 1_555 1_555

#END
