
#######################################################################
#
#                 Cambridge Crystallographic Data Centre
#                                CCDC 
#
#######################################################################
#
# If this CIF has been generated from an entry in the Cambridge 
# Structural Database, then it will include bibliographic, chemical, 
# crystal, experimental, refinement or atomic coordinate data resulting 
# from the CCDC's data processing and validation procedures.
#
#######################################################################

data_YIJSAM
_chemical_formula_moiety         'C46 H52 N2'
_chemical_name_systematic        
3,9-Diphenyl-5,11-dioctylindolo(3,2-b)carbazole
_symmetry_cell_setting           triclinic
_symmetry_space_group_name_H-M   'P -1'
_symmetry_Int_Tables_number      2
_space_group_name_Hall           '-P 1'
loop_
_symmetry_equiv_pos_site_id
_symmetry_equiv_pos_as_xyz
1 x,y,z
2 -x,-y,-z
_cell_length_a                   10.3511(2)
_cell_length_b                   17.6271(3)
_cell_length_c                   21.9274(4)
_cell_angle_alpha                108.129(2)
_cell_angle_beta                 103.6370(10)
_cell_angle_gamma                90.2190(10)
_cell_volume                     3682.15
_exptl_crystal_colour            orange-yellow
_exptl_crystal_description       plate
_cell_formula_units_Z            4
_exptl_crystal_recrystallization_method dichloromethane/hexanes
loop_
_atom_site_label
_atom_site_type_symbol
_atom_site_fract_x
_atom_site_fract_y
_atom_site_fract_z
N1 N 0.35312(18) 0.38532(11) 0.05370(9)
N2 N 0.14143(18) 0.61679(11) -0.05156(9)
C1 C 0.3349(2) 0.45214(13) -0.03290(10)
H1 H 0.3940 0.4201 -0.0551
C2 C 0.3058(2) 0.44085(12) 0.02207(10)
C3 C 0.2171(2) 0.48755(12) 0.05610(10)
C4 C 0.2111(2) 0.45768(12) 0.10987(10)
C5 C 0.1414(2) 0.47602(13) 0.15946(11)
H2 H 0.0849 0.5187 0.1635
C6 C 0.1547(2) 0.43246(13) 0.20212(11)
H3 H 0.1073 0.4457 0.2357
C7 C 0.2374(2) 0.36794(13) 0.19746(10)
C8 C 0.3082(2) 0.34966(13) 0.14870(10)
H4 H 0.3650 0.3071 0.1449
C9 C 0.2952(2) 0.39408(12) 0.10579(10)
C10 C 0.2466(2) 0.31987(13) 0.24272(11)
C11 C 0.2421(2) 0.35368(14) 0.30872(11)
H5 H 0.2311 0.4092 0.3252
C12 C 0.2533(2) 0.30823(15) 0.35054(12)
H6 H 0.2518 0.3329 0.3955
C13 C 0.2668(3) 0.22709(16) 0.32739(13)
H7 H 0.2739 0.1957 0.3561
C14 C 0.2698(3) 0.19225(16) 0.26222(13)
H8 H 0.2782 0.1364 0.2459
C15 C 0.2607(3) 0.23728(14) 0.22069(12)
H9 H 0.2640 0.2121 0.1760
C16 C 0.4431(2) 0.32497(13) 0.03337(11)
H10 H 0.5007 0.3165 0.0733
H11 H 0.5016 0.3450 0.0109
C17 C 0.3717(3) 0.24560(15) -0.01271(12)
H12 H 0.3239 0.2523 -0.0553
H13 H 0.3046 0.2287 0.0071
C18 C 0.4679(3) 0.18022(17) -0.02599(14)
H14 H 0.4199 0.1338 -0.0636
H15 H 0.5416 0.2008 -0.0398
C19 C 0.5275(3) 0.15144(18) 0.03170(16)
H16 H 0.5707 0.1984 0.0701
H17 H 0.5981 0.1161 0.0201
C20 C 0.4305(3) 0.10666(19) 0.05258(16)
H18 H 0.3604 0.1420 0.0650
H19 H 0.3867 0.0597 0.0143
C21 C 0.4940(4) 0.0782(2) 0.10987(17)
H20 H 0.5330 0.1255 0.1488
H21 H 0.5680 0.0458 0.0985
C22 C 0.4008(4) 0.0289(2) 0.1290(2)
H22 H 0.3246 0.0602 0.1387
H23 H 0.3649 -0.0198 0.0908
C23 C 0.4656(6) 0.0045(3) 0.1880(2)
H24 H 0.5453 -0.0228 0.1803
H25 H 0.4027 -0.0318 0.1950
H26 H 0.4910 0.0522 0.2274
C24 C 0.1555(2) 0.54855(12) 0.03474(10)
H27 H 0.0958 0.5802 0.0568
C25 C 0.1857(2) 0.56070(12) -0.02017(10)
C26 C 0.2737(2) 0.51261(13) -0.05431(10)
C27 C 0.2810(2) 0.54206(13) -0.10780(11)
C28 C 0.3514(2) 0.52161(14) -0.15694(11)
H28 H 0.4066 0.4783 -0.1603
C29 C 0.3403(2) 0.56463(14) -0.20041(11)
H29 H 0.3888 0.5507 -0.2336
C30 C 0.2587(2) 0.62879(14) -0.19689(11)
C31 C 0.1870(2) 0.64955(13) -0.14809(11)
H30 H 0.1311 0.6925 -0.1452
C32 C 0.1991(2) 0.60655(13) -0.10426(11)
C33 C 0.2505(2) 0.67383(15) -0.24435(11)
C34 C 0.3616(3) 0.68702(17) -0.26662(12)
H31 H 0.4430 0.6663 -0.2513
C35 C 0.3558(3) 0.7294(2) -0.31021(15)
H32 H 0.4332 0.7381 -0.3242
C36 C 0.2378(3) 0.7594(2) -0.33373(16)
H33 H 0.2339 0.7895 -0.3632
C37 C 0.1265(3) 0.7450(2) -0.31390(17)
H34 H 0.0444 0.7641 -0.3308
C38 C 0.1324(3) 0.70294(18) -0.26944(14)
H35 H 0.0544 0.6940 -0.2560
C39 C 0.0458(13) 0.6734(6) -0.0314(9)
H36 H -0.0080 0.6517 -0.0078
H37 H -0.0155 0.6794 -0.0714
C40 C 0.1119(14) 0.7553(6) 0.0135(8)
H38 H 0.1629 0.7509 0.0564
H39 H 0.1752 0.7742 -0.0072
C41 C 0.0099(9) 0.8148(4) 0.0254(5)
H40 H -0.0393 0.8028 0.0554
H41 H -0.0551 0.8091 -0.0172
C42 C 0.0743(7) 0.9035(4) 0.0567(4)
H42 H 0.1414 0.9091 0.0986
H43 H 0.1203 0.9165 0.0260
C43 C -0.0327(8) 0.9626(4) 0.0705(4)
H44 H -0.0913 0.9620 0.0275
H45 H -0.0884 0.9431 0.0945
C44 C 0.0208(11) 1.0489(5) 0.1106(6)
H46 H 0.0684 1.0699 0.0843
H47 H 0.0872 1.0485 0.1512
C45 C -0.0827(15) 1.1075(8) 0.1314(6)
H48 H -0.0399 1.1629 0.1516
H49 H -0.1551 1.1055 0.0922
C46 C -0.1391(15) 1.0833(9) 0.1811(7)
H50 H -0.2060 1.1196 0.1946
H51 H -0.0670 1.0862 0.2200
H52 H -0.1808 1.0283 0.1607
N3 N 0.19299(17) 0.38082(10) 0.55320(8)
N4 N 0.30045(18) 0.61387(11) 0.44921(9)
C71 C 0.1213(2) 0.45068(12) 0.46858(10)
H104 H 0.0393 0.4189 0.4466
C72 C 0.2063(2) 0.43859(12) 0.52292(10)
C73 C 0.3285(2) 0.48630(12) 0.55738(10)
C74 C 0.3894(2) 0.45546(12) 0.61044(10)
C75 C 0.5081(2) 0.47486(13) 0.66005(11)
H105 H 0.5668 0.5191 0.6649
C76 C 0.5403(2) 0.43005(13) 0.70200(11)
H106 H 0.6217 0.4437 0.7354
C77 C 0.4545(2) 0.36389(13) 0.69645(10)
C78 C 0.3347(2) 0.34488(12) 0.64752(10)
H107 H 0.2751 0.3014 0.6434
C79 C 0.3035(2) 0.38975(12) 0.60513(10)
C80 C 0.4919(2) 0.31576(13) 0.74146(11)
C81 C 0.5643(2) 0.34955(15) 0.80723(12)
H108 H 0.5922 0.4051 0.8237
C82 C 0.5965(3) 0.30385(16) 0.84898(13)
H109 H 0.6449 0.3285 0.8937
C83 C 0.5592(3) 0.22333(17) 0.82641(13)
H110 H 0.5821 0.1921 0.8551
C84 C 0.4876(3) 0.18780(16) 0.76105(14)
H111 H 0.4612 0.1320 0.7450
C85 C 0.4548(3) 0.23302(15) 0.71951(12)
H112 H 0.4060 0.2078 0.6750
C86 C 0.0834(2) 0.31920(12) 0.53242(11)
H113 H 0.0028 0.3376 0.5084
H114 H 0.0639 0.3112 0.5722
C87 C 0.1138(3) 0.23975(14) 0.48791(12)
H115 H 0.1226 0.2463 0.4458
H116 H 0.2003 0.2247 0.5097
C88 C 0.0083(3) 0.17343(17) 0.47284(15)
H117 H 0.0233 0.1273 0.4363
H118 H -0.0797 0.1918 0.4570
C89 C 0.0042(4) 0.14519(19) 0.53112(18)
H119 H -0.0777 0.1089 0.5186
H120 H -0.0041 0.1924 0.5685
C90 C 0.1225(4) 0.1020(2) 0.55600(18)
H121 H 0.1335 0.0559 0.5185
H122 H 0.2042 0.1390 0.5709
C91 C 0.1109(5) 0.0718(2) 0.6122(2)
H123 H 0.1081 0.1187 0.6509
H124 H 0.0245 0.0393 0.5986
C92 C 0.2169(5) 0.0235(3) 0.6334(3)
H125 H 0.3041 0.0548 0.6456
H126 H 0.2172 -0.0251 0.5957
C93 C 0.2018(8) -0.0013(4) 0.6916(3)
H127 H 0.2009 0.0465 0.7292
H128 H 0.2768 -0.0318 0.7042
H129 H 0.1180 -0.0348 0.6792
C94 C 0.3693(2) 0.54747(13) 0.53652(11)
H130 H 0.4509 0.5795 0.5589
C95 C 0.2849(2) 0.55928(12) 0.48146(10)
C96 C 0.1616(2) 0.51186(12) 0.44750(10)
C97 C 0.1018(2) 0.54111(12) 0.39374(10)
C98 C -0.0178(2) 0.52124(13) 0.34455(11)
H131 H -0.0785 0.4789 0.3416
C99 C -0.0468(2) 0.56338(13) 0.30052(11)
H132 H -0.1283 0.5496 0.2672
C100 C 0.0412(2) 0.62666(14) 0.30350(11)
C101 C 0.1614(2) 0.64664(13) 0.35204(11)
H133 H 0.2222 0.6887 0.3547
C102 C 0.1905(2) 0.60392(13) 0.39644(11)
C103 C 0.0041(2) 0.67216(15) 0.25616(11)
C104 C -0.1287(3) 0.68518(18) 0.23337(13)
H134 H -0.1961 0.6638 0.2477
C105 C -0.1636(3) 0.7286(2) 0.19026(16)
H135 H -0.2547 0.7368 0.1751
C106 C -0.0673(3) 0.7604(2) 0.16888(17)
H136 H -0.0908 0.7924 0.1408
C107 C 0.0628(4) 0.7449(2) 0.18884(18)
H137 H 0.1290 0.7639 0.1724
C108 C 0.0993(3) 0.70199(19) 0.23249(15)
H138 H 0.1904 0.6929 0.2464
C109 C 0.4094(11) 0.6788(6) 0.4721(8)
H139 H 0.4331 0.6851 0.4327
H140 H 0.4887 0.6617 0.4982
C110 C 0.3797(13) 0.7586(6) 0.5131(7)
H141 H 0.3686 0.7546 0.5557
H142 H 0.2941 0.7730 0.4898
C111 C 0.4869(8) 0.8249(4) 0.5275(4)
H143 H 0.5750 0.8058 0.5421
H144 H 0.4743 0.8712 0.5645
C112 C 0.4871(7) 0.8530(4) 0.4680(3)
H145 H 0.5680 0.8897 0.4793
H146 H 0.4932 0.8059 0.4302
C113 C 0.3664(7) 0.8953(5) 0.4464(4)
H147 H 0.3582 0.9413 0.4847
H148 H 0.2857 0.8579 0.4335
C114 C 0.3700(10) 0.9257(6) 0.3891(5)
H149 H 0.4534 0.9606 0.4014
H150 H 0.3739 0.8792 0.3503
C115 C 0.2545(9) 0.9715(6) 0.3687(5)
H151 H 0.1705 0.9378 0.3584
H152 H 0.2533 1.0198 0.4066
C116 C 0.2584(12) 0.9969(7) 0.3097(5)
H153 H 0.1806 1.0265 0.2995
H154 H 0.2568 0.9494 0.2715
H155 H 0.3402 1.0314 0.3197
C47? C 0.0463(16) 0.6752(8) -0.0406(8)
H53? H -0.0176 0.6580 -0.0192
H54? H -0.0046 0.6792 -0.0836
C48? C 0.1149(19) 0.7566(9) 0.0032(9)
H55? H 0.1819 0.7728 -0.0171
H56? H 0.1622 0.7533 0.0470
C49? C 0.0129(13) 0.8199(6) 0.0121(5)
H57? H -0.0056 0.8398 -0.0264
H58? H -0.0717 0.7947 0.0133
C50? C 0.0633(10) 0.8908(6) 0.0759(5)
H59? H 0.1406 0.9203 0.0718
H60? H 0.0946 0.8699 0.1134
C51? C -0.0428(11) 0.9496(6) 0.0920(5)
H61? H -0.0783 0.9684 0.0537
H62? H -0.1177 0.9214 0.0994
C52? C 0.0139(13) 1.0213(7) 0.1530(6)
H63? H 0.0479 1.0017 0.1910
H64? H 0.0908 1.0477 0.1457
C53? C -0.0821(16) 1.0828(9) 0.1713(7)
H65? H -0.1607 1.0566 0.1773
H66? H -0.0387 1.1237 0.2141
C54? C -0.1279(19) 1.1235(11) 0.1203(9)
H67? H -0.1933 1.1611 0.1337
H68? H -0.1690 1.0833 0.0775
H69? H -0.0513 1.1528 0.1163
C55? C 0.0608(19) 0.6836(10) -0.027(2)
H70? H 0.0132 0.6690 0.0029
H71? H -0.0076 0.6887 -0.0648
C56? C 0.1360(19) 0.7642(9) 0.0105(13)
H72? H 0.1870 0.7784 -0.0178
H73? H 0.2009 0.7606 0.0505
C57? C 0.0472(14) 0.8302(7) 0.0315(6)
H74? H 0.1003 0.8756 0.0684
H75? H -0.0240 0.8101 0.0472
C58? C -0.0158(10) 0.8588(6) -0.0282(5)
H76? H -0.0653 0.8120 -0.0649
H77? H -0.0817 0.8972 -0.0152
C59? C 0.0795(11) 0.8983(7) -0.0545(5)
H78? H 0.1406 0.8585 -0.0713
H79? H 0.1343 0.9425 -0.0172
C60? C 0.0136(15) 0.9321(10) -0.1099(8)
H80? H -0.0345 0.8869 -0.1486
H81? H -0.0539 0.9677 -0.0945
C61? C 0.1042(15) 0.9786(10) -0.1336(8)
H82? H 0.1479 1.0267 -0.0964
H83? H 0.1748 0.9448 -0.1476
C62? C 0.027(2) 1.0043(12) -0.1908(9)
H84? H 0.0892 1.0330 -0.2054
H85? H -0.0402 1.0395 -0.1765
H86? H -0.0161 0.9568 -0.2277
C63? C 0.067(6) 0.686(3) -0.028(8)
H87? H -0.0003 0.6689 -0.0079
H88? H 0.0168 0.6999 -0.0667
C64? C 0.145(7) 0.761(3) 0.022(3)
H89? H 0.2270 0.7701 0.0088
H90? H 0.1723 0.7525 0.0658
C65? C 0.069(5) 0.835(2) 0.0295(18)
H91? H -0.0275 0.8192 0.0172
H92? H 0.0869 0.8621 -0.0016
C66? C 0.108(4) 0.895(2) 0.1004(18)
H93? H 0.1254 0.8650 0.1325
H94? H 0.1914 0.9273 0.1066
C67? C -0.002(4) 0.951(2) 0.114(2)
H95? H -0.0709 0.9425 0.0721
H96? H -0.0453 0.9361 0.1451
C68? C 0.048(4) 1.0393(19) 0.143(3)
H97? H 0.1068 1.0492 0.1885
H98? H 0.1028 1.0522 0.1159
C69? C -0.064(6) 1.095(3) 0.148(2)
H99? H -0.1341 1.0728 0.1631
H100? H -0.0296 1.1483 0.1796
C70? C -0.123(5) 1.102(4) 0.079(3)
H101? H -0.1992 1.1345 0.0809
H102? H -0.1535 1.0480 0.0474
H103? H -0.0552 1.1264 0.0655
C117? C 0.406(2) 0.6732(13) 0.4604(16)
H156? H 0.4159 0.6749 0.4171
H157? H 0.4901 0.6573 0.4834
C118? C 0.382(3) 0.7567(14) 0.5014(14)
H158? H 0.3773 0.7562 0.5458
H159? H 0.2953 0.7718 0.4798
C119? C 0.493(2) 0.8192(9) 0.5089(13)
H160? H 0.4958 0.8211 0.4646
H161? H 0.5800 0.8035 0.5293
C120? C 0.4689(17) 0.9031(9) 0.5524(11)
H162? H 0.3880 0.9223 0.5294
H163? H 0.4552 0.9002 0.5948
C121? C 0.5905(17) 0.9609(9) 0.5656(10)
H164? H 0.6693 0.9421 0.5905
H165? H 0.6073 0.9591 0.5226
C122? C 0.5769(19) 1.0471(10) 0.6039(11)
H166? H 0.5386 1.0469 0.6412
H167? H 0.5115 1.0691 0.5744
C123? C 0.703(2) 1.1039(12) 0.6319(12)
H168? H 0.7358 1.1091 0.5945
H169? H 0.6789 1.1574 0.6559
C124? C 0.815(2) 1.0798(16) 0.6784(13)
H170? H 0.8923 1.1192 0.6926
H171? H 0.8401 1.0269 0.6555
H172? H 0.7858 1.0777 0.7172
C125? C 0.417(4) 0.6696(19) 0.468(3)
H173? H 0.4306 0.6785 0.4273
H174? H 0.4956 0.6444 0.4860
C126? C 0.412(2) 0.7511(14) 0.5185(12)
H175? H 0.4337 0.7468 0.5637
H176? H 0.3208 0.7691 0.5094
C127? C 0.512(3) 0.8118(10) 0.5139(14)
H177? H 0.6040 0.7963 0.5272
H178? H 0.4962 0.8115 0.4675
C128? C 0.5005(18) 0.8962(9) 0.5588(11)
H179? H 0.4248 0.9194 0.5358
H180? H 0.4798 0.8922 0.5996
C129? C 0.625(2) 0.9524(10) 0.5780(11)
H181? H 0.6441 0.9594 0.5379
H182? H 0.7021 0.9295 0.6003
C130? C 0.6035(17) 1.0339(10) 0.6250(10)
H183? H 0.5353 1.0600 0.6004
H184? H 0.5697 1.0253 0.6612
C131? C 0.733(2) 1.0890(13) 0.6548(12)
H185? H 0.7124 1.1440 0.6773
H186? H 0.7748 1.0908 0.6191
C132? C 0.829(2) 1.0580(16) 0.7047(11)
H187? H 0.9127 1.0921 0.7221
H188? H 0.8459 1.0029 0.6827
H189? H 0.7886 1.0594 0.7413
C133? C 0.419(3) 0.6650(14) 0.463(3)
H190? H 0.4354 0.6691 0.4212
H191? H 0.4974 0.6442 0.4862
C134? C 0.392(3) 0.7463(14) 0.507(2)
H192? H 0.3732 0.7409 0.5473
H193? H 0.3128 0.7660 0.4827
C135? C 0.513(2) 0.8067(9) 0.5252(10)
H194? H 0.5237 0.8172 0.4848
H195? H 0.5944 0.7826 0.5425
C136? C 0.5034(18) 0.8870(9) 0.5775(8)
H196? H 0.4212 0.9106 0.5609
H197? H 0.4963 0.8770 0.6186
C137? C 0.623(2) 0.9465(10) 0.5934(9)
H198? H 0.7057 0.9184 0.5995
H199? H 0.6186 0.9654 0.5549
C138? C 0.634(2) 1.0185(10) 0.6543(10)
H200? H 0.6398 0.9993 0.6927
H201? H 0.5507 1.0458 0.6483
C139? C 0.752(3) 1.0799(15) 0.6711(12)
H202? H 0.8349 1.0524 0.6742
H203? H 0.7566 1.1196 0.7152
C140? C 0.744(3) 1.1242(14) 0.6209(12)
H204? H 0.8234 1.1614 0.6341
H205? H 0.6641 1.1543 0.6193
H206? H 0.7383 1.0855 0.5770
loop_
_geom_bond_atom_site_label_1
_geom_bond_atom_site_label_2
_geom_bond_site_symmetry_1
_geom_bond_site_symmetry_2
N1 C2 1_555 1_555
N2 C25 1_555 1_555
N3 C72 1_555 1_555
N4 C95 1_555 1_555
C1 H1 1_555 1_555
C2 C1 1_555 1_555
C3 C2 1_555 1_555
C4 C3 1_555 1_555
C5 C4 1_555 1_555
H2 C5 1_555 1_555
C6 C5 1_555 1_555
H3 C6 1_555 1_555
C7 C6 1_555 1_555
C8 C7 1_555 1_555
H4 C8 1_555 1_555
C9 N1 1_555 1_555
C10 C7 1_555 1_555
C11 C10 1_555 1_555
H5 C11 1_555 1_555
C12 C11 1_555 1_555
H6 C12 1_555 1_555
C13 C12 1_555 1_555
H7 C13 1_555 1_555
C14 C13 1_555 1_555
H8 C14 1_555 1_555
C15 C10 1_555 1_555
H9 C15 1_555 1_555
C16 N1 1_555 1_555
H10 C16 1_555 1_555
H11 C16 1_555 1_555
C17 C16 1_555 1_555
H12 C17 1_555 1_555
H13 C17 1_555 1_555
C18 C17 1_555 1_555
H14 C18 1_555 1_555
H15 C18 1_555 1_555
C19 C18 1_555 1_555
H16 C19 1_555 1_555
H17 C19 1_555 1_555
C20 C19 1_555 1_555
H18 C20 1_555 1_555
H19 C20 1_555 1_555
C21 C20 1_555 1_555
H20 C21 1_555 1_555
H21 C21 1_555 1_555
C22 C21 1_555 1_555
H22 C22 1_555 1_555
H23 C22 1_555 1_555
C23 C22 1_555 1_555
H24 C23 1_555 1_555
H25 C23 1_555 1_555
H26 C23 1_555 1_555
C24 C3 1_555 1_555
H27 C24 1_555 1_555
C25 C24 1_555 1_555
C26 C1 1_555 1_555
C27 C26 1_555 1_555
C28 C27 1_555 1_555
H28 C28 1_555 1_555
C29 C28 1_555 1_555
H29 C29 1_555 1_555
C30 C29 1_555 1_555
C31 C30 1_555 1_555
H30 C31 1_555 1_555
C32 N2 1_555 1_555
C33 C30 1_555 1_555
C34 C33 1_555 1_555
H31 C34 1_555 1_555
C35 C34 1_555 1_555
H32 C35 1_555 1_555
C36 C35 1_555 1_555
H33 C36 1_555 1_555
C37 C36 1_555 1_555
H34 C37 1_555 1_555
C38 C33 1_555 1_555
H35 C38 1_555 1_555
C39 N2 1_555 1_555
H36 C39 1_555 1_555
H37 C39 1_555 1_555
C40 C39 1_555 1_555
H38 C40 1_555 1_555
H39 C40 1_555 1_555
C41 C40 1_555 1_555
H40 C41 1_555 1_555
H41 C41 1_555 1_555
C42 C41 1_555 1_555
H42 C42 1_555 1_555
H43 C42 1_555 1_555
C43 C42 1_555 1_555
H44 C43 1_555 1_555
H45 C43 1_555 1_555
C44 C43 1_555 1_555
H46 C44 1_555 1_555
H47 C44 1_555 1_555
C45 C44 1_555 1_555
H48 C45 1_555 1_555
H49 C45 1_555 1_555
C46 C45 1_555 1_555
H50 C46 1_555 1_555
H51 C46 1_555 1_555
H52 C46 1_555 1_555
C71 H104 1_555 1_555
C72 C71 1_555 1_555
C73 C72 1_555 1_555
C74 C73 1_555 1_555
C75 C74 1_555 1_555
H105 C75 1_555 1_555
C76 C75 1_555 1_555
H106 C76 1_555 1_555
C77 C76 1_555 1_555
C78 C77 1_555 1_555
H107 C78 1_555 1_555
C79 N3 1_555 1_555
C80 C77 1_555 1_555
C81 C80 1_555 1_555
H108 C81 1_555 1_555
C82 C81 1_555 1_555
H109 C82 1_555 1_555
C83 C82 1_555 1_555
H110 C83 1_555 1_555
C84 C83 1_555 1_555
H111 C84 1_555 1_555
C85 C80 1_555 1_555
H112 C85 1_555 1_555
C86 N3 1_555 1_555
H113 C86 1_555 1_555
H114 C86 1_555 1_555
C87 C86 1_555 1_555
H115 C87 1_555 1_555
H116 C87 1_555 1_555
C88 C87 1_555 1_555
H117 C88 1_555 1_555
H118 C88 1_555 1_555
C89 C88 1_555 1_555
H119 C89 1_555 1_555
H120 C89 1_555 1_555
C90 C89 1_555 1_555
H121 C90 1_555 1_555
H122 C90 1_555 1_555
C91 C90 1_555 1_555
H123 C91 1_555 1_555
H124 C91 1_555 1_555
C92 C91 1_555 1_555
H125 C92 1_555 1_555
H126 C92 1_555 1_555
C93 C92 1_555 1_555
H127 C93 1_555 1_555
H128 C93 1_555 1_555
H129 C93 1_555 1_555
C94 C73 1_555 1_555
H130 C94 1_555 1_555
C95 C94 1_555 1_555
C96 C71 1_555 1_555
C97 C96 1_555 1_555
C98 C97 1_555 1_555
H131 C98 1_555 1_555
C99 C98 1_555 1_555
H132 C99 1_555 1_555
C100 C99 1_555 1_555
C101 C100 1_555 1_555
H133 C101 1_555 1_555
C102 N4 1_555 1_555
C103 C100 1_555 1_555
C104 C103 1_555 1_555
H134 C104 1_555 1_555
C105 C104 1_555 1_555
H135 C105 1_555 1_555
C106 C105 1_555 1_555
H136 C106 1_555 1_555
C107 C106 1_555 1_555
H137 C107 1_555 1_555
C108 C103 1_555 1_555
H138 C108 1_555 1_555
C109 N4 1_555 1_555
H139 C109 1_555 1_555
H140 C109 1_555 1_555
C110 C109 1_555 1_555
H141 C110 1_555 1_555
H142 C110 1_555 1_555
C111 C110 1_555 1_555
H143 C111 1_555 1_555
H144 C111 1_555 1_555
C112 C111 1_555 1_555
H145 C112 1_555 1_555
H146 C112 1_555 1_555
C113 C112 1_555 1_555
H147 C113 1_555 1_555
H148 C113 1_555 1_555
C114 C113 1_555 1_555
H149 C114 1_555 1_555
H150 C114 1_555 1_555
C115 C114 1_555 1_555
H151 C115 1_555 1_555
H152 C115 1_555 1_555
C116 C115 1_555 1_555
H153 C116 1_555 1_555
H154 C116 1_555 1_555
H155 C116 1_555 1_555
C4 C9 1_555 1_555
C8 C9 1_555 1_555
C14 C15 1_555 1_555
C25 C26 1_555 1_555
C27 C32 1_555 1_555
C31 C32 1_555 1_555
C37 C38 1_555 1_555
C74 C79 1_555 1_555
C78 C79 1_555 1_555
C84 C85 1_555 1_555
C95 C96 1_555 1_555
C97 C102 1_555 1_555
C101 C102 1_555 1_555
C107 C108 1_555 1_555

#END
