
#######################################################################
#
#                 Cambridge Crystallographic Data Centre
#                                CCDC 
#
#######################################################################
#
# If this CIF has been generated from an entry in the Cambridge 
# Structural Database, then it will include bibliographic, chemical, 
# crystal, experimental, refinement or atomic coordinate data resulting 
# from the CCDC's data processing and validation procedures.
#
#######################################################################

data_YIJVOC
_chemical_formula_moiety         'C9 H14 N1 1+,C6 H2 N3 O7 1-'
_chemical_name_systematic        'Benzyldimethylammonium picrate'
_symmetry_cell_setting           triclinic
_symmetry_space_group_name_H-M   'P -1'
_symmetry_Int_Tables_number      2
_space_group_name_Hall           '-P 1'
loop_
_symmetry_equiv_pos_site_id
_symmetry_equiv_pos_as_xyz
1 x,y,z
2 -x,-y,-z
_cell_length_a                   8.399(2)
_cell_length_b                   13.711(3)
_cell_length_c                   14.238(3)
_cell_angle_alpha                85.53(3)
_cell_angle_beta                 87.45(3)
_cell_angle_gamma                83.53(3)
_cell_volume                     1623.18
_chemical_melting_point          92-93deg.C
_cell_formula_units_Z            4
loop_
_atom_site_label
_atom_site_type_symbol
_atom_site_fract_x
_atom_site_fract_y
_atom_site_fract_z
O1 O 0.1970(2) 1.0540(1) 0.2317(1)
O2 O 0.4788(2) 1.0466(1) 0.1363(1)
O3 O 0.4897(2) 1.1297(1) 0.0052(1)
O4 O 0.0251(2) 1.2127(1) -0.1732(1)
O5 O -0.2015(2) 1.1659(1) -0.1218(1)
O6 O -0.1976(2) 0.9899(1) 0.2062(1)
O7 O -0.1322(3) 1.1056(1) 0.2862(1)
N1 N 0.4131(2) 1.0929(1) 0.0704(1)
N2 N -0.0602(2) 1.1758(1) -0.1120(1)
N3 N -0.1259(2) 1.0606(1) 0.2147(1)
C1 C 0.1454(2) 1.0805(1) 0.1520(1)
C2 C 0.2401(2) 1.1040(1) 0.0689(1)
C3 C 0.1723(2) 1.1375(1) -0.0152(1)
C4 C 0.0099(2) 1.1432(1) -0.0231(1)
C5 C -0.0921(2) 1.1163(1) 0.0514(1)
C6 C -0.0229(2) 1.0896(1) 0.1351(1)
H1 H 0.243(3) 1.154(2) -0.067(2)
H2 H -0.204(3) 1.119(2) 0.047(2)
N4 N 0.4048(2) 0.9140(1) 0.3033(1)
C7 C 0.3061(2) 0.7882(1) 0.4213(1)
C8 C 0.3191(3) 0.8071(2) 0.5158(1)
C9 C 0.3538(3) 0.7303(2) 0.5815(2)
C10 C 0.3745(3) 0.6346(2) 0.5532(2)
C11 C 0.3601(3) 0.6151(2) 0.4601(2)
C12 C 0.3251(3) 0.6913(2) 0.3942(2)
C13 C 0.2626(2) 0.8702(2) 0.3503(1)
C14 C 0.4935(3) 0.9664(2) 0.3696(1)
C15 C 0.5140(2) 0.8417(2) 0.2495(1)
H3 H 0.355(3) 0.960(2) 0.264(2)
H4 H 0.302(3) 0.873(2) 0.536(2)
H5 H 0.365(3) 0.746(2) 0.646(2)
H6 H 0.390(3) 0.581(2) 0.599(2)
H7 H 0.372(3) 0.550(2) 0.440(2)
H8 H 0.312(3) 0.679(2) 0.330(2)
H9 H 0.192(3) 0.929(2) 0.381(2)
H10 H 0.205(3) 0.848(2) 0.300(2)
H11 H 0.575(3) 0.999(2) 0.332(2)
H12 H 0.412(3) 1.016(2) 0.399(2)
H13 H 0.541(3) 0.921(2) 0.413(2)
H14 H 0.568(3) 0.792(2) 0.294(2)
H15 H 0.454(3) 0.812(2) 0.204(2)
H16 H 0.599(3) 0.873(2) 0.219(2)
O8 O 0.7163(2) 0.4731(1) -0.2243(1)
O9 O 0.9949(2) 0.4812(1) -0.1386(1)
O10 O 1.0418(2) 0.3784(1) -0.0220(1)
O11 O 0.6215(2) 0.2664(1) 0.1710(1)
O12 O 0.3737(2) 0.3029(1) 0.1323(1)
O13 O 0.3222(2) 0.3778(1) -0.2208(1)
O14 O 0.3793(2) 0.5270(1) -0.2259(1)
N5 N 0.9492(2) 0.4237(1) -0.0774(1)
N6 N 0.5193(2) 0.3031(1) 0.1167(1)
N7 N 0.3977(2) 0.4418(1) -0.1958(1)
C16 C 0.6761(2) 0.4380(1) -0.1453(1)
C17 C 0.7810(2) 0.4092(1) -0.0682(1)
C18 C 0.7297(2) 0.3650(1) 0.0151(1)
C19 C 0.5723(2) 0.3485(1) 0.0286(1)
C20 C 0.4612(2) 0.3732(1) -0.0410(1)
C21 C 0.5145(2) 0.4163(1) -0.1230(1)
H18 H 0.803(3) 0.348(2) 0.063(2)
H19 H 0.354(3) 0.361(2) -0.034(2)
N8 N 0.8982(2) 0.6068(1) -0.2988(1)
C22 C 0.8018(2) 0.7198(1) -0.4350(1)
C23 C 0.8370(2) 0.8161(1) -0.4294(1)
C24 C 0.8762(3) 0.8698(2) -0.5106(1)
C25 C 0.8811(2) 0.8278(2) -0.5976(1)
C26 C 0.8465(3) 0.7325(2) -0.6041(1)
C27 C 0.8058(2) 0.6788(2) -0.5234(1)
C28 C 0.7565(2) 0.6609(2) -0.3485(1)
C29 C 0.9946(3) 0.6741(2) -0.2523(2)
C30 C 1.0008(3) 0.5387(2) -0.3603(1)
H17 H 0.857(3) 0.570(2) -0.257(2)
H20 H 0.837(3) 0.843(2) -0.369(2)
H21 H 0.905(3) 0.938(2) -0.505(2)
H22 H 0.906(3) 0.865(2) -0.653(2)
H23 H 0.850(3) 0.703(2) -0.662(2)
H24 H 0.777(3) 0.608(2) -0.527(2)
H25 H 0.693(3) 0.610(2) -0.365(2)
H26 H 0.698(3) 0.703(2) -0.305(2)
H27 H 0.923(3) 0.711(2) -0.206(2)
H28 H 1.084(3) 0.635(2) -0.222(2)
H29 H 1.039(3) 0.718(2) -0.300(2)
H30 H 0.929(3) 0.491(2) -0.384(2)
H31 H 1.084(3) 0.501(2) -0.322(2)
H32 H 1.047(3) 0.575(2) -0.409(2)
loop_
_geom_bond_atom_site_label_1
_geom_bond_atom_site_label_2
_geom_bond_site_symmetry_1
_geom_bond_site_symmetry_2
O1 C1 1_555 1_555
O2 N1 1_555 1_555
O3 N1 1_555 1_555
O4 N2 1_555 1_555
O5 N2 1_555 1_555
O6 N3 1_555 1_555
O7 N3 1_555 1_555
N1 C2 1_555 1_555
N2 C4 1_555 1_555
N3 C6 1_555 1_555
C1 C2 1_555 1_555
C2 C3 1_555 1_555
C3 C4 1_555 1_555
C4 C5 1_555 1_555
C5 C6 1_555 1_555
C6 C1 1_555 1_555
N4 C13 1_555 1_555
C7 C8 1_555 1_555
C8 C9 1_555 1_555
C9 C10 1_555 1_555
C10 C11 1_555 1_555
C11 C12 1_555 1_555
C12 C7 1_555 1_555
C13 C7 1_555 1_555
C14 N4 1_555 1_555
C15 N4 1_555 1_555
H1 C3 1_555 1_555
H2 C5 1_555 1_555
H3 N4 1_555 1_555
H4 C8 1_555 1_555
H5 C9 1_555 1_555
H6 C10 1_555 1_555
H7 C11 1_555 1_555
H8 C12 1_555 1_555
H9 C13 1_555 1_555
H10 C13 1_555 1_555
H11 C14 1_555 1_555
H12 C14 1_555 1_555
H13 C14 1_555 1_555
H14 C15 1_555 1_555
H15 C15 1_555 1_555
H16 C15 1_555 1_555
O8 C16 1_555 1_555
O9 N5 1_555 1_555
O10 N5 1_555 1_555
O11 N6 1_555 1_555
O12 N6 1_555 1_555
O13 N7 1_555 1_555
O14 N7 1_555 1_555
N5 C17 1_555 1_555
N6 C19 1_555 1_555
N7 C21 1_555 1_555
C16 C17 1_555 1_555
C17 C18 1_555 1_555
C18 C19 1_555 1_555
C19 C20 1_555 1_555
C20 C21 1_555 1_555
C21 C16 1_555 1_555
N8 C28 1_555 1_555
C22 C23 1_555 1_555
C23 C24 1_555 1_555
C24 C25 1_555 1_555
C25 C26 1_555 1_555
C26 C27 1_555 1_555
C27 C22 1_555 1_555
C28 C22 1_555 1_555
C29 N8 1_555 1_555
C30 N8 1_555 1_555
H17 N8 1_555 1_555
H18 C18 1_555 1_555
H19 C20 1_555 1_555
H20 C23 1_555 1_555
H21 C24 1_555 1_555
H22 C25 1_555 1_555
H23 C26 1_555 1_555
H24 C27 1_555 1_555
H25 C28 1_555 1_555
H26 C28 1_555 1_555
H27 C29 1_555 1_555
H28 C29 1_555 1_555
H29 C29 1_555 1_555
H30 C30 1_555 1_555
H31 C30 1_555 1_555
H32 C30 1_555 1_555

#END
