
#######################################################################
#
#                 Cambridge Crystallographic Data Centre
#                                CCDC 
#
#######################################################################
#
# If this CIF has been generated from an entry in the Cambridge 
# Structural Database, then it will include bibliographic, chemical, 
# crystal, experimental, refinement or atomic coordinate data resulting 
# from the CCDC's data processing and validation procedures.
#
#######################################################################

data_YIJWEU
_chemical_formula_moiety         'C22 H17 N5 O1'
_chemical_name_systematic        
3,4-Dicyanophenoxy-4'-(dimethylamino)azobenzene
_symmetry_cell_setting           orthorhombic
_symmetry_space_group_name_H-M   'P b c a'
_symmetry_Int_Tables_number      61
_space_group_name_Hall           '-P 2ac 2ab'
loop_
_symmetry_equiv_pos_site_id
_symmetry_equiv_pos_as_xyz
1 x,y,z
2 1/2-x,-y,1/2+z
3 -x,1/2+y,1/2-z
4 1/2+x,1/2-y,-z
5 -x,-y,-z
6 1/2+x,y,1/2-z
7 x,1/2-y,1/2+z
8 1/2-x,1/2+y,z
_cell_length_a                   7.5300(15)
_cell_length_b                   12.173(2)
_cell_length_c                   40.996(8)
_cell_angle_alpha                90
_cell_angle_beta                 90
_cell_angle_gamma                90
_cell_volume                     3757.8
_exptl_crystal_colour            red
_exptl_crystal_description       Block
_chemical_melting_point          '471-473 K'
_cell_formula_units_Z            8
_exptl_crystal_recrystallization_method toluene/dichloromethane
loop_
_atom_site_label
_atom_site_type_symbol
_atom_site_fract_x
_atom_site_fract_y
_atom_site_fract_z
O1 O 0.5819(3) 0.62049(14) 0.07760(4)
N1 N 0.6966(3) 0.59954(18) -0.05671(4)
N2 N 0.7941(3) 0.52016(19) -0.06556(5)
N3 N 0.8655(3) 0.4167(2) -0.19758(5)
N4 N 0.8135(4) 1.0006(2) 0.18817(6)
N5 N 0.4914(4) 0.7566(2) 0.21152(5)
C1 C 0.6272(3) 0.7046(2) 0.09794(5)
C2 C 0.7360(3) 0.7915(2) 0.08928(5)
H1 H 0.7784 0.7976 0.0681
C3 C 0.7812(3) 0.8691(2) 0.11245(5)
H2 H 0.8538 0.9279 0.1067
C4 C 0.7190(3) 0.8601(2) 0.14422(5)
C5 C 0.6087(3) 0.7725(2) 0.15253(5)
C6 C 0.5621(3) 0.6944(2) 0.12940(5)
H3 H 0.4883 0.6360 0.1349
C7 C 0.6246(4) 0.6242(2) 0.04430(6)
C8 C 0.7355(4) 0.5438(2) 0.03264(6)
H4 H 0.7928 0.4963 0.0470
C9 C 0.7609(4) 0.5342(2) -0.00045(6)
H5 H 0.8326 0.4782 -0.0085
C10 C 0.6813(3) 0.6064(2) -0.02187(5)
C11 C 0.5764(4) 0.6894(2) -0.00950(6)
H6 H 0.5251 0.7402 -0.0236
C12 C 0.5470(4) 0.6976(2) 0.02366(6)
H7 H 0.4746 0.7530 0.0319
C13 C 0.8110(3) 0.5032(2) -0.09932(6)
C14 C 0.9031(4) 0.4100(2) -0.10864(6)
H8 H 0.9532 0.3656 -0.0926
C15 C 0.9227(4) 0.3808(2) -0.14080(6)
H9 H 0.9854 0.3174 -0.1461
C16 C 0.8498(3) 0.4450(2) -0.16574(6)
C17 C 0.7590(4) 0.5416(2) -0.15610(6)
H10 H 0.7099 0.5869 -0.1720
C18 C 0.7419(3) 0.5699(2) -0.12381(6)
H11 H 0.6834 0.6346 -0.1182
C19 C 0.7703(4) 0.9390(2) 0.16860(6)
C20 C 0.5431(4) 0.7622(2) 0.18548(6)
C21 C 0.7822(4) 0.4802(3) -0.22339(6)
H12 H 0.8086 0.4472 -0.2441
H13 H 0.8271 0.5540 -0.2230
H14 H 0.6560 0.4812 -0.2201
C22 C 0.9637(5) 0.3193(3) -0.20733(6)
H15 H 0.9609 0.3124 -0.2307
H16 H 0.9105 0.2555 -0.1976
H17 H 1.0846 0.3256 -0.2002
loop_
_geom_bond_atom_site_label_1
_geom_bond_atom_site_label_2
_geom_bond_site_symmetry_1
_geom_bond_site_symmetry_2
O1 C1 1_555 1_555
N1 N2 1_555 1_555
N2 C13 1_555 1_555
N3 C16 1_555 1_555
N4 C19 1_555 1_555
N5 C20 1_555 1_555
C1 C2 1_555 1_555
C2 H1 1_555 1_555
C3 C2 1_555 1_555
H2 C3 1_555 1_555
C4 C3 1_555 1_555
C5 C4 1_555 1_555
C6 C1 1_555 1_555
H3 C6 1_555 1_555
C7 O1 1_555 1_555
C8 C7 1_555 1_555
H4 C8 1_555 1_555
C9 C8 1_555 1_555
H5 C9 1_555 1_555
C10 N1 1_555 1_555
C11 C10 1_555 1_555
H6 C11 1_555 1_555
C12 C7 1_555 1_555
H7 C12 1_555 1_555
C13 C14 1_555 1_555
C14 H8 1_555 1_555
C15 C14 1_555 1_555
H9 C15 1_555 1_555
C16 C15 1_555 1_555
C17 C16 1_555 1_555
H10 C17 1_555 1_555
C18 C13 1_555 1_555
H11 C18 1_555 1_555
C19 C4 1_555 1_555
C20 C5 1_555 1_555
C21 N3 1_555 1_555
H12 C21 1_555 1_555
H13 C21 1_555 1_555
H14 C21 1_555 1_555
C22 N3 1_555 1_555
H15 C22 1_555 1_555
H16 C22 1_555 1_555
H17 C22 1_555 1_555
C5 C6 1_555 1_555
C9 C10 1_555 1_555
C11 C12 1_555 1_555
C17 C18 1_555 1_555

#END
