
#######################################################################
#
#                 Cambridge Crystallographic Data Centre
#                                CCDC 
#
#######################################################################
#
# If this CIF has been generated from an entry in the Cambridge 
# Structural Database, then it will include bibliographic, chemical, 
# crystal, experimental, refinement or atomic coordinate data resulting 
# from the CCDC's data processing and validation procedures.
#
#######################################################################

data_YIKGUW
_chemical_formula_moiety         'C14 H14 F3 N1 O4'
_chemical_name_systematic        
6-Methoxy-2,4-dimethyl-4-(2,2,2-trifluoroethyl)-2-azaspiro[4.5]deca-6,9-diene-1,3,8-trione
_symmetry_cell_setting           monoclinic
_symmetry_space_group_name_H-M   'P 21/c'
_symmetry_Int_Tables_number      14
_space_group_name_Hall           '-P 2ybc'
loop_
_symmetry_equiv_pos_site_id
_symmetry_equiv_pos_as_xyz
1 x,y,z
2 -x,1/2+y,1/2-z
3 -x,-y,-z
4 x,1/2-y,1/2+z
_cell_length_a                   13.0963(2)
_cell_length_b                   10.9012(2)
_cell_length_c                   9.9216(2)
_cell_angle_alpha                90
_cell_angle_beta                 101.1091(13)
_cell_angle_gamma                90
_cell_volume                     1389.92
_exptl_crystal_colour            colorless
_exptl_crystal_description       prism
_cell_formula_units_Z            4
loop_
_atom_site_label
_atom_site_type_symbol
_atom_site_fract_x
_atom_site_fract_y
_atom_site_fract_z
F1 F 0.87959(9) 0.81844(9) 0.23805(11)
F2 F 0.90857(9) 0.83648(10) 0.45864(11)
F3 F 1.01504(7) 0.91514(10) 0.34390(11)
O1 O 0.63311(9) 1.18897(11) -0.07984(12)
O2 O 0.84735(9) 1.27611(11) 0.32630(12)
O3 O 0.61772(8) 1.06714(10) 0.22389(11)
O4 O 0.63660(13) 0.68890(13) -0.00683(17)
N1 N 0.73783(10) 1.26162(12) 0.11659(13)
C1 C 0.69628(12) 1.17223(15) 0.02431(16)
C2 C 0.73971(12) 1.04605(15) 0.08014(16)
C3 C 0.83551(12) 1.08431(15) 0.19581(16)
C4 C 0.80847(12) 1.21701(16) 0.22610(16)
C5 C 0.65326(12) 0.98742(16) 0.13928(16)
C6 C 0.61860(14) 0.87302(16) 0.11042(18)
H1 H 0.5663 0.8404 0.1546
C7 C 0.66004(15) 0.79814(17) 0.01233(19)
C8 C 0.73039(14) 0.85905(17) -0.06567(18)
H2 H 0.7497 0.8170 -0.1408
C9 C 0.76767(13) 0.97058(16) -0.03454(16)
H3 H 0.8142 1.0045 -0.0870
C10 C 0.85103(13) 1.01236(16) 0.33210(16)
H4 H 0.8848 1.0678 0.4065
H5 H 0.7814 0.9918 0.3506
C11 C 0.91312(13) 0.89684(17) 0.34189(17)
C12 C 0.93715(12) 1.09381(16) 0.13968(17)
H6 H 0.9260 1.1470 0.0586
H7 H 0.9579 1.0119 0.1143
H8 H 0.9922 1.1285 0.2105
C13 C 0.70185(15) 1.38829(16) 0.10779(19)
H9 H 0.6598 1.4035 0.0164
H10 H 0.7620 1.4436 0.1234
H11 H 0.6596 1.4030 0.1776
C14 C 0.52734(13) 1.03174(17) 0.27726(18)
H12 H 0.4710 1.0094 0.2011
H13 H 0.5050 1.1005 0.3282
H14 H 0.5445 0.9613 0.3388
loop_
_geom_bond_atom_site_label_1
_geom_bond_atom_site_label_2
_geom_bond_site_symmetry_1
_geom_bond_site_symmetry_2
F1 C11 1_555 1_555
F2 C11 1_555 1_555
F3 C11 1_555 1_555
O1 C1 1_555 1_555
O2 C4 1_555 1_555
O3 C5 1_555 1_555
O4 C7 1_555 1_555
N1 C1 1_555 1_555
C1 C2 1_555 1_555
C2 C3 1_555 1_555
C3 C4 1_555 1_555
C4 N1 1_555 1_555
C5 C2 1_555 1_555
C6 C5 1_555 1_555
H1 C6 1_555 1_555
C7 C6 1_555 1_555
C8 C7 1_555 1_555
H2 C8 1_555 1_555
C9 C2 1_555 1_555
H3 C9 1_555 1_555
C10 C3 1_555 1_555
H4 C10 1_555 1_555
H5 C10 1_555 1_555
C11 C10 1_555 1_555
C12 C3 1_555 1_555
H6 C12 1_555 1_555
H7 C12 1_555 1_555
H8 C12 1_555 1_555
C13 N1 1_555 1_555
H9 C13 1_555 1_555
H10 C13 1_555 1_555
H11 C13 1_555 1_555
C14 O3 1_555 1_555
H12 C14 1_555 1_555
H13 C14 1_555 1_555
H14 C14 1_555 1_555
C8 C9 1_555 1_555

#END
