
#######################################################################
#
#                 Cambridge Crystallographic Data Centre
#                                CCDC 
#
#######################################################################
#
# If this CIF has been generated from an entry in the Cambridge 
# Structural Database, then it will include bibliographic, chemical, 
# crystal, experimental, refinement or atomic coordinate data resulting 
# from the CCDC's data processing and validation procedures.
#
#######################################################################

data_YIKVUL
_chemical_formula_moiety         'C29 H38 N2 O2'
_chemical_name_systematic        
'Ethyl 5,9,13-trimethyl-15-phenyl-15,16-diazapentacyclo[11.5.1.0^1,10^.0^4,9^.0^14,18^]nonadeca-14(18),16-diene-5-carboxylate'
_chemical_properties_biological  'cytotoxic activity'
_symmetry_cell_setting           orthorhombic
_symmetry_space_group_name_H-M   'P 21 21 21'
_symmetry_Int_Tables_number      19
_space_group_name_Hall           'P 2ac 2ab'
loop_
_symmetry_equiv_pos_site_id
_symmetry_equiv_pos_as_xyz
1 x,y,z
2 1/2-x,-y,1/2+z
3 -x,1/2+y,1/2-z
4 1/2+x,1/2-y,-z
_cell_length_a                   7.0203(14)
_cell_length_b                   16.816(3)
_cell_length_c                   21.249(4)
_cell_angle_alpha                90
_cell_angle_beta                 90
_cell_angle_gamma                90
_cell_volume                     2508.52
_exptl_crystal_colour            colorless
_exptl_crystal_description       prismatic
_cell_formula_units_Z            4
loop_
_atom_site_label
_atom_site_type_symbol
_atom_site_fract_x
_atom_site_fract_y
_atom_site_fract_z
O1 O 0.8544(4) 1.00556(13) -0.08992(12)
N1 N 0.7045(4) 1.25822(16) 0.10863(13)
N2 N 0.7806(4) 1.25179(15) 0.16824(11)
C1 C 0.9462(5) 0.89087(17) 0.10275(16)
H1 H 1.0672 0.8765 0.1216
H2 H 0.8507 0.8899 0.1357
C2 C 0.8947(6) 0.8288(2) 0.05356(18)
H3 H 0.8977 0.7764 0.0726
H4 H 0.7664 0.8385 0.0385
C3 C 1.0323(6) 0.83127(19) -0.00147(18)
H5 H 0.9916 0.7928 -0.0327
H6 H 1.1575 0.8155 0.0132
C4 C 1.0476(5) 0.91343(18) -0.03293(16)
C5 C 1.0986(4) 0.97683(17) 0.01899(14)
H7 H 1.2201 0.9583 0.0362
C6 C 1.1412(5) 1.06155(17) -0.00398(14)
H8 H 1.2226 1.0593 -0.0408
H9 H 1.0232 1.0875 -0.0159
C7 C 1.2386(4) 1.10925(18) 0.04719(14)
H10 H 1.2622 1.1627 0.0318
H11 H 1.3608 1.0851 0.0566
C8 C 1.1209(4) 1.11413(16) 0.10788(14)
C9 C 1.0555(4) 1.02939(17) 0.12900(13)
H12 H 1.1729 1.0014 0.1406
C10 C 0.9614(4) 0.97680(17) 0.07658(14)
C11 C 0.9379(5) 1.03432(18) 0.19042(14)
H13 H 0.8102 1.0520 0.1801
H14 H 0.9277 0.9813 0.2081
C12 C 1.0203(6) 1.09017(19) 0.24085(15)
H15 H 1.1285 1.0646 0.2608
H16 H 0.9246 1.0994 0.2729
C13 C 1.0842(4) 1.17065(19) 0.21324(14)
C14 C 1.2354(4) 1.14994(18) 0.16320(14)
H17 H 1.3261 1.1117 0.1795
H18 H 1.3036 1.1972 0.1499
C15 C 0.9553(4) 1.17271(16) 0.10881(13)
C16 C 0.9344(4) 1.20142(17) 0.16811(13)
C17 C 1.1580(6) 1.2275(2) 0.26388(16)
H19 H 1.1952 1.2768 0.2447
H20 H 1.2660 1.2041 0.2845
H21 H 1.0593 1.2372 0.2942
C18 C 1.2092(6) 0.9099(2) -0.08257(19)
H22 H 1.1780 0.8710 -0.1140
H23 H 1.3265 0.8953 -0.0624
H24 H 1.2231 0.9611 -0.1020
C19 C 0.8666(6) 0.9295(2) -0.07062(17)
C20 C 0.7613(4) 1.00627(17) 0.05895(14)
H25 H 0.7095 0.9729 0.0265
H26 H 0.7690 1.0600 0.0440
H27 H 0.6804 1.0043 0.0953
C21 C 0.6872(6) 1.0305(3) -0.1244(2)
H28 H 0.5779 0.9995 -0.1111
H29 H 0.7064 1.0216 -0.1691
C22 C 0.6516(7) 1.1148(3) -0.1129(3)
H30 H 0.5409 1.1313 -0.1360
H31 H 0.7598 1.1453 -0.1263
H32 H 0.6306 1.1232 -0.0687
C23 C 0.8110(5) 1.20953(18) 0.07385(14)
H33 H 0.7916 1.2009 0.0311
C24 C 0.6988(4) 1.2966(2) 0.21816(16)
C25 C 0.6346(5) 1.3727(2) 0.2065(2)
H34 H 0.6426 1.3949 0.1665
C26 C 0.5572(6) 1.4153(3) 0.2569(3)
H35 H 0.5132 1.4668 0.2502
C27 C 0.5445(6) 1.3832(4) 0.3156(3)
H36 H 0.4947 1.4129 0.3486
C28 C 0.6051(6) 1.3072(4) 0.3259(2)
H37 H 0.5943 1.2851 0.3658
C29 C 0.6825(5) 1.2626(3) 0.27739(18)
H38 H 0.7228 1.2107 0.2844
O2 O 0.7499(5) 0.88081(17) -0.08470(16)
loop_
_geom_bond_atom_site_label_1
_geom_bond_atom_site_label_2
_geom_bond_site_symmetry_1
_geom_bond_site_symmetry_2
O1 C19 1_555 1_555
N1 N2 1_555 1_555
N2 C16 1_555 1_555
C1 H1 1_555 1_555
H2 C1 1_555 1_555
C2 C1 1_555 1_555
H3 C2 1_555 1_555
H4 C2 1_555 1_555
C3 C2 1_555 1_555
H5 C3 1_555 1_555
H6 C3 1_555 1_555
C4 C3 1_555 1_555
C5 C4 1_555 1_555
H7 C5 1_555 1_555
C6 C5 1_555 1_555
H8 C6 1_555 1_555
H9 C6 1_555 1_555
C7 C6 1_555 1_555
H10 C7 1_555 1_555
H11 C7 1_555 1_555
C8 C7 1_555 1_555
C9 C8 1_555 1_555
H12 C9 1_555 1_555
C10 C1 1_555 1_555
C11 C9 1_555 1_555
H13 C11 1_555 1_555
H14 C11 1_555 1_555
C12 C11 1_555 1_555
H15 C12 1_555 1_555
H16 C12 1_555 1_555
C13 C12 1_555 1_555
C14 C8 1_555 1_555
H17 C14 1_555 1_555
H18 C14 1_555 1_555
C15 C8 1_555 1_555
C16 C13 1_555 1_555
C17 C13 1_555 1_555
H19 C17 1_555 1_555
H20 C17 1_555 1_555
H21 C17 1_555 1_555
C18 C4 1_555 1_555
H22 C18 1_555 1_555
H23 C18 1_555 1_555
H24 C18 1_555 1_555
C19 C4 1_555 1_555
C20 C10 1_555 1_555
H25 C20 1_555 1_555
H26 C20 1_555 1_555
H27 C20 1_555 1_555
C21 O1 1_555 1_555
H28 C21 1_555 1_555
H29 C21 1_555 1_555
C22 C21 1_555 1_555
H30 C22 1_555 1_555
H31 C22 1_555 1_555
H32 C22 1_555 1_555
C23 N1 1_555 1_555
H33 C23 1_555 1_555
C24 N2 1_555 1_555
C25 C24 1_555 1_555
H34 C25 1_555 1_555
C26 C25 1_555 1_555
H35 C26 1_555 1_555
C27 C26 1_555 1_555
H36 C27 1_555 1_555
C28 C27 1_555 1_555
H37 C28 1_555 1_555
C29 C24 1_555 1_555
H38 C29 1_555 1_555
O2 C19 1_555 1_555
C5 C10 1_555 1_555
C9 C10 1_555 1_555
C13 C14 1_555 1_555
C15 C16 1_555 1_555
C15 C23 1_555 1_555
C28 C29 1_555 1_555

#END
