
#######################################################################
#
#                 Cambridge Crystallographic Data Centre
#                                CCDC 
#
#######################################################################
#
# If this CIF has been generated from an entry in the Cambridge 
# Structural Database, then it will include bibliographic, chemical, 
# crystal, experimental, refinement or atomic coordinate data resulting 
# from the CCDC's data processing and validation procedures.
#
#######################################################################

data_YILFAC
_chemical_formula_moiety         'C15 H20 O4'
_chemical_name_systematic        
4-Hydroxy-6-(hydroxymethyl)-10-methyl-3-methylene-3a,4,5,8,9,11a-hexahydrocyclodeca[b]furan-2(3H)-one
_symmetry_cell_setting           orthorhombic
_symmetry_space_group_name_H-M   'P 21 21 21'
_symmetry_Int_Tables_number      19
_space_group_name_Hall           'P 2ac 2ab'
loop_
_symmetry_equiv_pos_site_id
_symmetry_equiv_pos_as_xyz
1 x,y,z
2 1/2-x,-y,1/2+z
3 -x,1/2+y,1/2-z
4 1/2+x,1/2-y,-z
_cell_length_a                   9.5551(8)
_cell_length_b                   10.1351(8)
_cell_length_c                   13.9185(11)
_cell_angle_alpha                90
_cell_angle_beta                 90
_cell_angle_gamma                90
_cell_volume                     1347.89
_exptl_crystal_colour            colorless
_exptl_crystal_description       prismatic
_cell_formula_units_Z            4
loop_
_atom_site_label
_atom_site_type_symbol
_atom_site_fract_x
_atom_site_fract_y
_atom_site_fract_z
O1 O 0.14866(15) 0.69023(14) 1.22651(10)
O2 O 0.17990(12) 0.77940(12) 1.08290(9)
O3 O -0.03703(15) 1.12319(13) 1.09591(9)
H1 H -0.0648 1.1328 1.1512
O4 O -0.0098(2) 1.31416(15) 0.95150(11)
H2 H -0.0305 1.2916 1.0063
C1 C -0.0341(2) 1.02732(18) 0.79729(13)
H3 H -0.1079 0.9716 0.7814
C2 C 0.0867(2) 1.02820(19) 0.73052(13)
H4 H 0.1366 1.1112 0.7364
H5 H 0.0535 1.0203 0.6649
C3 C 0.1882(2) 0.91100(18) 0.75386(12)
H6 H 0.1445 0.8280 0.7366
H7 H 0.2738 0.9201 0.7169
C4 C 0.22151(18) 0.91192(16) 0.85916(12)
C5 C 0.13310(17) 0.85347(15) 0.91951(11)
H8 H 0.0769 0.7870 0.8944
C6 C 0.11560(16) 0.88399(15) 1.02287(11)
H9 H 0.1609 0.9685 1.0371
C7 C -0.03785(16) 0.88919(16) 1.05666(11)
H10 H -0.0907 0.8240 1.0194
C8 C -0.11617(18) 1.02145(17) 1.05013(12)
H11 H -0.2022 1.0111 1.0878
C9 C -0.16179(18) 1.06636(18) 0.94880(13)
H12 H -0.2199 0.9975 0.9214
H13 H -0.2201 1.1441 0.9559
C10 C -0.04845(18) 1.09796(17) 0.87793(12)
C11 C -0.02452(17) 0.83793(16) 1.15815(12)
C12 C 0.10609(19) 0.76113(16) 1.16334(12)
C13 C -0.1068(2) 0.85352(19) 1.23341(13)
H14 H -0.0829 0.8155 1.2920
H15 H -0.1886 0.9026 1.2279
C14 C 0.0524(2) 1.20807(18) 0.90338(14)
H16 H 0.1262 1.1723 0.9435
H17 H 0.0952 1.2405 0.8448
C15 C 0.3431(2) 0.9949(2) 0.88966(14)
H18 H 0.3512 0.9930 0.9584
H19 H 0.3289 1.0842 0.8687
H20 H 0.4274 0.9609 0.8614
loop_
_geom_bond_atom_site_label_1
_geom_bond_atom_site_label_2
_geom_bond_site_symmetry_1
_geom_bond_site_symmetry_2
O1 C12 1_555 1_555
O2 C6 1_555 1_555
O3 H1 1_555 1_555
O4 H2 1_555 1_555
C1 H3 1_555 1_555
C2 C1 1_555 1_555
H4 C2 1_555 1_555
H5 C2 1_555 1_555
C3 C2 1_555 1_555
H6 C3 1_555 1_555
H7 C3 1_555 1_555
C4 C3 1_555 1_555
C5 C4 1_555 1_555
H8 C5 1_555 1_555
C6 C5 1_555 1_555
H9 C6 1_555 1_555
C7 C6 1_555 1_555
H10 C7 1_555 1_555
C8 O3 1_555 1_555
H11 C8 1_555 1_555
C9 C8 1_555 1_555
H12 C9 1_555 1_555
H13 C9 1_555 1_555
C10 C1 1_555 1_555
C11 C7 1_555 1_555
C12 O2 1_555 1_555
C13 C11 1_555 1_555
H14 C13 1_555 1_555
H15 C13 1_555 1_555
C14 O4 1_555 1_555
H16 C14 1_555 1_555
H17 C14 1_555 1_555
C15 C4 1_555 1_555
H18 C15 1_555 1_555
H19 C15 1_555 1_555
H20 C15 1_555 1_555
C7 C8 1_555 1_555
C9 C10 1_555 1_555
C10 C14 1_555 1_555
C11 C12 1_555 1_555

#END
