
#######################################################################
#
#                 Cambridge Crystallographic Data Centre
#                                CCDC 
#
#######################################################################
#
# If this CIF has been generated from an entry in the Cambridge 
# Structural Database, then it will include bibliographic, chemical, 
# crystal, experimental, refinement or atomic coordinate data resulting 
# from the CCDC's data processing and validation procedures.
#
#######################################################################

data_YILJEL
_chemical_formula_moiety         'C25 H21 F1 O3'
_chemical_name_systematic        
3-(benzoyl)-3-[(4-fluorophenyl)methyl]-2-hydroxy-2-methyl-3,4-dihydronaphthalen-1(2H)-one
_symmetry_cell_setting           monoclinic
_symmetry_space_group_name_H-M   'P 21/c'
_symmetry_Int_Tables_number      14
_space_group_name_Hall           '-P 2ybc'
loop_
_symmetry_equiv_pos_site_id
_symmetry_equiv_pos_as_xyz
1 x,y,z
2 -x,1/2+y,1/2-z
3 -x,-y,-z
4 x,1/2-y,1/2+z
_cell_length_a                   9.8733(7)
_cell_length_b                   10.3877(7)
_cell_length_c                   37.781(2)
_cell_angle_alpha                90
_cell_angle_beta                 96.893(6)
_cell_angle_gamma                90
_cell_volume                     3846.85
_exptl_crystal_colour            colorless
_exptl_crystal_description       Prism
_cell_formula_units_Z            8
loop_
_atom_site_label
_atom_site_type_symbol
_atom_site_fract_x
_atom_site_fract_y
_atom_site_fract_z
F1 F 0.5371(2) 0.1039(2) 0.55059(6)
O1 O 0.1744(3) 0.5877(3) 0.45034(8)
O2 O 0.1800(3) 0.4319(2) 0.35887(7)
H1 H 0.190010 0.430893 0.337635
O3 O 0.3953(3) 0.5026(3) 0.32643(7)
C1 C 0.4940(4) 0.1529(4) 0.51739(10)
C2 C 0.3607(4) 0.1325(4) 0.50253(10)
H2 H 0.301457 0.084461 0.514643
C3 C 0.5862(4) 0.2173(4) 0.50008(10)
H3 H 0.676574 0.226353 0.509988
C4 C 0.5395(4) 0.2690(4) 0.46691(10)
H4 H 0.600701 0.313877 0.454608
C5 C 0.3163(4) 0.1849(4) 0.46924(10)
H5 H 0.226932 0.171648 0.459053
C6 C 0.4041(4) 0.2564(3) 0.45121(10)
C7 C 0.3550(4) 0.3188(4) 0.41525(10)
H6 H 0.277524 0.270118 0.404123
H7 H 0.427229 0.311154 0.400085
C8 C 0.3129(4) 0.4623(3) 0.41635(9)
C9 C 0.4292(4) 0.5462(4) 0.43550(10)
H8 H 0.395445 0.633234 0.437657
H9 H 0.453494 0.512957 0.459408
C10 C 0.5540(4) 0.5509(3) 0.41709(10)
C11 C 0.6830(4) 0.5736(4) 0.43630(10)
H10 H 0.689817 0.585811 0.460830
C12 C 0.7990(4) 0.5781(4) 0.41964(11)
H11 H 0.883393 0.594039 0.432653
C13 C 0.7885(4) 0.5583(4) 0.38275(11)
H12 H 0.866481 0.558906 0.371183
C14 C 0.6611(4) 0.5376(4) 0.36335(11)
H13 H 0.654750 0.524723 0.338846
C15 C 0.5440(4) 0.5360(3) 0.38015(10)
C16 C 0.4085(4) 0.5143(4) 0.35913(10)
C17 C 0.2794(4) 0.5140(3) 0.37742(10)
C18 C 0.2258(4) 0.6523(3) 0.37505(10)
H14 H 0.140757 0.656571 0.384929
H15 H 0.212156 0.678788 0.350544
H16 H 0.290924 0.708244 0.388208
C19 C 0.1868(4) 0.4834(4) 0.43617(10)
C20 C 0.0833(4) 0.3823(4) 0.44030(10)
C21 C 0.0236(4) 0.3023(4) 0.41257(10)
H17 H 0.047769 0.311671 0.389661
C22 C -0.0701(4) 0.2105(4) 0.41933(11)
H18 H -0.109533 0.157971 0.400986
C23 C -0.1056(4) 0.1963(4) 0.45319(11)
H19 H -0.167851 0.133140 0.457822
C24 C -0.0486(4) 0.2762(4) 0.48054(11)
H20 H -0.073396 0.266578 0.503372
C25 C 0.0446(4) 0.3698(4) 0.47399(10)
H21 H 0.081099 0.424214 0.492245
F2 F 1.1259(2) -0.0891(2) 0.45354(6)
O4 O 0.9411(3) 0.0180(3) 0.20655(7)
O5 O 0.7343(3) 0.0252(3) 0.24563(7)
H22 H 0.736770 -0.003322 0.225478
O6 O 0.7556(3) 0.2777(3) 0.31780(8)
C26 C 0.4912(4) -0.0775(4) 0.36234(12)
H23 H 0.436042 -0.130084 0.374461
C27 C 0.5402(4) 0.0383(4) 0.37727(11)
H24 H 0.514772 0.064199 0.399090
C28 C 0.5252(4) -0.1139(4) 0.32937(12)
H25 H 0.489689 -0.189215 0.318657
C29 C 0.6124(4) -0.0378(4) 0.31238(11)
H26 H 0.635533 -0.062215 0.290199
C30 C 0.6254(4) 0.1150(4) 0.36036(10)
H27 H 0.655808 0.193164 0.370371
C31 C 0.6657(4) 0.0751(4) 0.32821(10)
C32 C 0.7665(4) 0.1616(4) 0.31363(10)
C33 C 0.8871(4) 0.1106(4) 0.29511(10)
C34 C 0.9344(4) -0.0272(3) 0.30663(9)
H28 H 0.858687 -0.085648 0.300278
H29 H 1.006935 -0.052072 0.292841
C35 C 0.9852(4) -0.0468(3) 0.34609(10)
C36 C 1.1179(4) -0.0111(4) 0.36032(10)
H30 H 1.175722 0.023632 0.345135
C37 C 1.1665(4) -0.0258(4) 0.39651(10)
H31 H 1.254413 -0.001089 0.405538
C38 C 1.0795(4) -0.0778(4) 0.41774(10)
C39 C 0.9512(4) -0.1194(4) 0.40506(10)
H32 H 0.895998 -0.157498 0.420392
C40 C 0.9036(4) -0.1043(4) 0.36881(11)
H33 H 0.816860 -0.133023 0.360044
C41 C 1.0059(4) 0.2075(4) 0.30356(10)
H34 H 0.971841 0.293992 0.298518
H35 H 1.038603 0.202947 0.328791
C42 C 1.1229(4) 0.1829(3) 0.28255(10)
C43 C 1.2558(4) 0.2214(4) 0.29618(11)
H36 H 1.271030 0.260308 0.318481
C44 C 1.3630(4) 0.2021(4) 0.27678(11)
H37 H 1.450325 0.228951 0.285720
C45 C 1.3403(4) 0.1416(4) 0.24340(11)
H38 H 1.412823 0.127485 0.230284
C46 C 1.2088(4) 0.1024(4) 0.22982(11)
H39 H 1.193924 0.062033 0.207723
C47 C 1.1011(4) 0.1237(4) 0.24923(10)
C48 C 0.9626(4) 0.0794(4) 0.23443(10)
C49 C 0.8412(4) 0.1151(4) 0.25366(10)
C50 C 0.7936(4) 0.2475(4) 0.23948(11)
H40 H 0.714682 0.273298 0.250287
H41 H 0.770767 0.243165 0.214080
H42 H 0.865346 0.309109 0.245170
loop_
_geom_bond_atom_site_label_1
_geom_bond_atom_site_label_2
_geom_bond_site_symmetry_1
_geom_bond_site_symmetry_2
F1 C1 1_555 1_555
O1 C19 1_555 1_555
O2 H1 1_555 1_555
O3 C16 1_555 1_555
C1 C2 1_555 1_555
C2 H2 1_555 1_555
C3 C1 1_555 1_555
H3 C3 1_555 1_555
C4 C3 1_555 1_555
H4 C4 1_555 1_555
C5 C2 1_555 1_555
H5 C5 1_555 1_555
C6 C4 1_555 1_555
C7 C6 1_555 1_555
H6 C7 1_555 1_555
H7 C7 1_555 1_555
C8 C7 1_555 1_555
C9 C8 1_555 1_555
H8 C9 1_555 1_555
H9 C9 1_555 1_555
C10 C9 1_555 1_555
C11 C10 1_555 1_555
H10 C11 1_555 1_555
C12 C11 1_555 1_555
H11 C12 1_555 1_555
C13 C12 1_555 1_555
H12 C13 1_555 1_555
C14 C13 1_555 1_555
H13 C14 1_555 1_555
C15 C10 1_555 1_555
C16 C15 1_555 1_555
C17 O2 1_555 1_555
C18 C17 1_555 1_555
H14 C18 1_555 1_555
H15 C18 1_555 1_555
H16 C18 1_555 1_555
C19 C8 1_555 1_555
C20 C19 1_555 1_555
C21 C20 1_555 1_555
H17 C21 1_555 1_555
C22 C21 1_555 1_555
H18 C22 1_555 1_555
C23 C22 1_555 1_555
H19 C23 1_555 1_555
C24 C23 1_555 1_555
H20 C24 1_555 1_555
C25 C20 1_555 1_555
H21 C25 1_555 1_555
F2 C38 1_555 1_555
O4 C48 1_555 1_555
O5 H22 1_555 1_555
O6 C32 1_555 1_555
C26 H23 1_555 1_555
C27 C26 1_555 1_555
H24 C27 1_555 1_555
C28 C26 1_555 1_555
H25 C28 1_555 1_555
C29 C28 1_555 1_555
H26 C29 1_555 1_555
C30 C27 1_555 1_555
H27 C30 1_555 1_555
C31 C29 1_555 1_555
C32 C31 1_555 1_555
C33 C32 1_555 1_555
C34 C33 1_555 1_555
H28 C34 1_555 1_555
H29 C34 1_555 1_555
C35 C34 1_555 1_555
C36 C35 1_555 1_555
H30 C36 1_555 1_555
C37 C36 1_555 1_555
H31 C37 1_555 1_555
C38 C37 1_555 1_555
C39 C38 1_555 1_555
H32 C39 1_555 1_555
C40 C35 1_555 1_555
H33 C40 1_555 1_555
C41 C33 1_555 1_555
H34 C41 1_555 1_555
H35 C41 1_555 1_555
C42 C41 1_555 1_555
C43 C42 1_555 1_555
H36 C43 1_555 1_555
C44 C43 1_555 1_555
H37 C44 1_555 1_555
C45 C44 1_555 1_555
H38 C45 1_555 1_555
C46 C45 1_555 1_555
H39 C46 1_555 1_555
C47 C42 1_555 1_555
C48 C47 1_555 1_555
C49 O5 1_555 1_555
C50 C49 1_555 1_555
H40 C50 1_555 1_555
H41 C50 1_555 1_555
H42 C50 1_555 1_555
C5 C6 1_555 1_555
C8 C17 1_555 1_555
C14 C15 1_555 1_555
C16 C17 1_555 1_555
C24 C25 1_555 1_555
C30 C31 1_555 1_555
C33 C49 1_555 1_555
C39 C40 1_555 1_555
C46 C47 1_555 1_555
C48 C49 1_555 1_555

#END
