
#######################################################################
#
#                 Cambridge Crystallographic Data Centre
#                                CCDC 
#
#######################################################################
#
# If this CIF has been generated from an entry in the Cambridge 
# Structural Database, then it will include bibliographic, chemical, 
# crystal, experimental, refinement or atomic coordinate data resulting 
# from the CCDC's data processing and validation procedures.
#
#######################################################################

data_YILZEB
_chemical_formula_moiety         'C17 H17 F3 N1 O2 S1 1+,Cl1 1-'
_chemical_name_systematic        
'2-[benzoyloxy]-2-phenyl-3-[(trifluoromethyl)sulfanyl]propylammonium chloride'
_symmetry_cell_setting           orthorhombic
_symmetry_space_group_name_H-M   'P 21 21 21'
_symmetry_Int_Tables_number      19
_space_group_name_Hall           'P 2ac 2ab'
loop_
_symmetry_equiv_pos_site_id
_symmetry_equiv_pos_as_xyz
1 x,y,z
2 1/2-x,-y,1/2+z
3 -x,1/2+y,1/2-z
4 1/2+x,1/2-y,-z
_cell_length_a                   15.1112(4)
_cell_length_b                   15.5876(5)
_cell_length_c                   31.4003(9)
_cell_angle_alpha                90
_cell_angle_beta                 90
_cell_angle_gamma                90
_cell_volume                     7396.26
_exptl_crystal_colour            colorless
_exptl_crystal_description       needle
_cell_formula_units_Z            16
loop_
_atom_site_label
_atom_site_type_symbol
_atom_site_fract_x
_atom_site_fract_y
_atom_site_fract_z
N1 N 0.7545(3) 0.8287(4) 0.42457(14)
H1 H 0.7654 0.8231 0.4529
H2 H 0.7279 0.7802 0.4147
H3 H 0.7182 0.8744 0.4202
O1 O 0.8244(2) 0.9425(3) 0.34107(13)
O2 O 0.7017(4) 0.9690(4) 0.37834(17)
C1 C 0.8318(3) 0.8528(3) 0.35298(17)
C2 C 0.9309(6) 0.8512(9) 0.3392(3)
H4 H 0.9513 0.7909 0.3385
H5 H 0.9663 0.8817 0.3610
S1 S 0.9521(2) 0.8997(2) 0.28776(10)
C3 C 0.9749(6) 0.8092(5) 0.2554(3)
F1 F 0.9875(5) 0.8364(6) 0.2159(2)
F2 F 1.0446(4) 0.7643(6) 0.2662(3)
F3 F 0.9087(4) 0.7534(5) 0.2534(3)
C4 C 0.8380(3) 0.8421(4) 0.40187(16)
H6 H 0.8773 0.7929 0.4080
H7 H 0.8667 0.8940 0.4137
C5 C 0.7614(4) 0.8014(4) 0.33074(18)
C6 C 0.7493(8) 0.7157(4) 0.3425(2)
H8 H 0.7837 0.6917 0.3648
C7 C 0.6872(10) 0.6658(6) 0.3216(3)
H9 H 0.6764 0.6087 0.3309
C8 C 0.6408(10) 0.6986(7) 0.2874(3)
H10 H 0.5987 0.6643 0.2728
C9 C 0.6564(7) 0.7810(5) 0.2748(2)
H11 H 0.6266 0.8031 0.2506
C10 C 0.7139(4) 0.8320(5) 0.29652(18)
H12 H 0.7215 0.8900 0.2879
C11 C 0.7549(5) 0.9903(4) 0.3515(2)
C12 C 0.7726(5) 1.0716(4) 0.3234(2)
C13 C 0.8241(5) 1.0781(4) 0.2868(2)
H13 H 0.8585 1.0306 0.2776
C14 C 0.8253(5) 1.1542(5) 0.2637(2)
H14 H 0.8605 1.1586 0.2388
C15 C 0.7750(5) 1.2238(4) 0.2772(2)
H15 H 0.7759 1.2758 0.2614
C16 C 0.7235(5) 1.2173(4) 0.3137(2)
H16 H 0.6891 1.2648 0.3229
C17 C 0.7223(5) 1.1412(4) 0.33680(19)
H17 H 0.6870 1.1367 0.3618
N2 N 0.4934(3) 0.6327(3) 0.44480(16)
H25 H 0.5080 0.6871 0.4526
H26 H 0.4593 0.6084 0.4654
H27 H 0.4627 0.6341 0.4199
O3 O 0.5593(2) 0.4773(2) 0.37964(12)
O4 O 0.4457(2) 0.5680(2) 0.36781(13)
C26 C 0.6452(3) 0.4385(3) 0.4379(2)
H28 H 0.6589 0.4487 0.4683
H29 H 0.6950 0.4608 0.4207
C27 C 0.7451(5) 0.2973(7) 0.4305(3)
F7 F 0.7537(13) 0.2135(6) 0.4255(4)
F8 F 0.7964(5) 0.3331(4) 0.4015(3)
F9 F 0.7815(5) 0.3175(4) 0.4671(2)
S3 S 0.6328(2) 0.3250(2) 0.4286(2)
C28 C 0.5595(3) 0.4865(3) 0.42580(17)
C29 C 0.5747(3) 0.5816(3) 0.43913(19)
H30 H 0.6083 0.5824 0.4662
H31 H 0.6118 0.6097 0.4172
C30 C 0.4792(3) 0.4454(3) 0.44548(19)
C31 C 0.4653(4) 0.4550(4) 0.4885(2)
H32 H 0.5055 0.4880 0.5051
C32 C 0.3921(5) 0.4164(5) 0.5081(2)
H33 H 0.3813 0.4251 0.5376
C33 C 0.3358(5) 0.3658(5) 0.4844(3)
H34 H 0.2867 0.3387 0.4976
C34 C 0.3508(4) 0.3547(4) 0.4419(3)
H35 H 0.3115 0.3201 0.4257
C35 C 0.4221(3) 0.3930(4) 0.4223(2)
H36 H 0.4324 0.3836 0.3928
C36 C 0.4981(3) 0.5149(3) 0.35475(18)
C37 C 0.5034(6) 0.4757(5) 0.31353(19)
C38 C 0.5468(5) 0.3988(5) 0.3052(2)
H37 H 0.5754 0.3688 0.3276
C39 C 0.5483(4) 0.3660(5) 0.2641(2)
H38 H 0.5779 0.3135 0.2584
C40 C 0.5065(5) 0.4100(5) 0.23123(18)
H39 H 0.5075 0.3876 0.2031
C41 C 0.4632(5) 0.4868(5) 0.2396(2)
H40 H 0.4346 0.5169 0.2171
C42 C 0.4616(6) 0.5197(4) 0.2807(3)
H41 H 0.4320 0.5722 0.2864
N3 N 0.2569(2) -0.1459(3) 0.46819(13)
H49 H 0.2697 -0.1621 0.4953
H50 H 0.2588 -0.1926 0.4508
H51 H 0.2017 -0.1225 0.4674
O5 O 0.2199(2) -0.0115(2) 0.40264(11)
O6 O 0.2311(3) 0.0818(3) 0.45707(15)
C50 C 0.3850(9) 0.0081(11) 0.3983(4)
H52 H 0.4407 -0.0230 0.4043
H53 H 0.3827 0.0590 0.4171
S5 S 0.3847(4) 0.0427(3) 0.34361(12)
F13 F 0.4395(6) 0.1899(10) 0.3746(4)
F14 F 0.3008(5) 0.1790(5) 0.3693(3)
F15 F 0.3772(7) 0.1958(8) 0.3142(3)
C51 C 0.3756(7) 0.1553(5) 0.3513(3)
C52 C 0.3062(3) -0.0507(3) 0.40829(15)
C53 C 0.3224(3) -0.0817(3) 0.45363(15)
H54 H 0.3824 -0.1071 0.4553
H55 H 0.3208 -0.0318 0.4731
C54 C 0.3045(3) -0.1286(3) 0.37797(15)
C55 C 0.2260(3) -0.1639(4) 0.36437(17)
H56 H 0.1715 -0.1371 0.3714
C56 C 0.2263(4) -0.2384(4) 0.34046(19)
H57 H 0.1719 -0.2622 0.3309
C57 C 0.3049(4) -0.2785(4) 0.33033(19)
H58 H 0.3044 -0.3300 0.3141
C58 C 0.3833(4) -0.2441(4) 0.34362(19)
H59 H 0.4375 -0.2716 0.3367
C59 C 0.3837(3) -0.1684(4) 0.36742(17)
H60 H 0.4382 -0.1442 0.3764
C60 C 0.1935(4) 0.0583(4) 0.42518(18)
C61 C 0.1160(3) 0.0995(4) 0.40672(19)
C62 C 0.0770(4) 0.0698(5) 0.3694(2)
H61 H 0.0987 0.0196 0.3558
C63 C 0.0062(5) 0.1144(6) 0.3525(3)
H62 H -0.0203 0.0946 0.3269
C64 C -0.0270(5) 0.1871(5) 0.3718(3)
H63 H -0.0748 0.2177 0.3594
C65 C 0.0099(5) 0.2139(5) 0.4088(3)
H64 H -0.0137 0.2627 0.4229
C66 C 0.0807(4) 0.1718(4) 0.4263(2)
H65 H 0.1059 0.1922 0.4521
N4 N -0.0114(3) 0.1723(3) 0.04183(14)
H68 H -0.0193 0.2286 0.0352
H69 H -0.0098 0.1407 0.0175
H70 H 0.0406 0.1659 0.0562
O7 O 0.00095(19) 0.0363(2) 0.10870(11)
O8 O -0.0447(3) 0.1261(3) 0.16063(14)
S7 S -0.14810(10) -0.08968(10) 0.12284(6)
C69 C -0.0768(3) 0.0477(3) 0.08147(16)
C70 C -0.0858(3) 0.1425(3) 0.06908(18)
H71 H -0.1422 0.1509 0.0536
H72 H -0.0879 0.1779 0.0953
C71 C -0.1607(3) 0.0199(4) 0.10518(19)
H73 H -0.2125 0.0246 0.0861
H74 H -0.1706 0.0579 0.1300
C72 C -0.0610(3) -0.0088(3) 0.04302(16)
C73 C -0.1262(3) -0.0122(4) 0.01162(18)
H75 H -0.1786 0.0208 0.0148
C74 C -0.1154(4) -0.0629(4) -0.0238(2)
H76 H -0.1605 -0.0647 -0.0449
C75 C -0.0406(3) -0.1108(3) -0.02900(18)
H77 H -0.0344 -0.1470 -0.0532
C76 C 0.0264(4) -0.1064(4) 0.00115(18)
H78 H 0.0791 -0.1387 -0.0026
C77 C 0.0162(3) -0.0549(4) 0.03682(18)
H79 H 0.0626 -0.0512 0.0572
C78 C -0.2130(5) -0.0843(7) 0.1699(2)
C79 C 0.0054(4) 0.0724(4) 0.14795(18)
C80 C 0.0802(4) 0.0391(4) 0.1728(2)
C81 C 0.1403(5) -0.0187(5) 0.1573(3)
H80 H 0.1372 -0.0363 0.1284
C82 C 0.2058(6) -0.0517(7) 0.1836(3)
H81 H 0.2434 -0.0964 0.1738
C83 C 0.2155(6) -0.0185(7) 0.2244(3)
H82 H 0.2644 -0.0354 0.2415
C84 C 0.1554(6) 0.0380(6) 0.2399(3)
H83 H 0.1594 0.0561 0.2687
C85 C 0.0887(5) 0.0694(5) 0.2145(2)
H84 H 0.0488 0.1112 0.2253
F19 F -0.1812(4) -0.0321(4) 0.19886(14)
F20 F -0.2127(3) -0.1625(4) 0.18770(15)
F21 F -0.2955(3) -0.0635(5) 0.16244(17)
Cl1 Cl 0.19112(7) 0.12246(8) 0.06166(4)
Cl2 Cl 0.44655(7) 0.32214(8) 0.05478(4)
Cl3 Cl 0.69657(7) 0.15981(9) 0.02069(4)
Cl4 Cl 0.94892(7) 0.36710(8) 0.05067(4)
C18? C 0.9155(7) 0.8113(8) 0.3335(3)
H18? H 0.9199 0.7515 0.3438
H19? H 0.9682 0.8427 0.3440
S2? S 0.91756(19) 0.8108(2) 0.27616(10)
C19? C 1.0125(5) 0.8749(6) 0.2682(3)
F4? F 1.0058(5) 0.9543(4) 0.2822(3)
F5? F 1.0852(4) 0.8435(5) 0.2850(2)
F6? F 1.0282(5) 0.8808(6) 0.2268(2)
C20? C 0.7247(5) 1.0677(4) 0.3314(3)
C21? C 0.6523(5) 1.1183(5) 0.3421(2)
H20? H 0.6146 1.1017 0.3649
C22? C 0.6351(5) 1.1932(5) 0.3196(3)
H21? H 0.5857 1.2278 0.3269
C23? C 0.6902(6) 1.2174(4) 0.2862(3)
H22? H 0.6785 1.2686 0.2708
C24? C 0.7626(5) 1.1668(5) 0.2755(2)
H23? H 0.8003 1.1834 0.2527
C25? C 0.7798(5) 1.0919(5) 0.2980(3)
H24? H 0.8293 1.0574 0.2907
H42? H 0.6450 0.4242 0.4686
H43? H 0.6975 0.4748 0.4318
C43? C 0.7336(7) 0.2902(9) 0.4352(4)
F10? F 0.8084(6) 0.3323(6) 0.4345(5)
F11? F 0.7136(9) 0.2812(7) 0.4756(3)
F12? F 0.749(2) 0.2126(11) 0.4206(7)
S4? S 0.6492(4) 0.3389(4) 0.4054(2)
C44? C 0.5015(6) 0.4968(6) 0.30748(19)
C45? C 0.4402(5) 0.5364(5) 0.2810(3)
H44? H 0.3985 0.5757 0.2925
C46? C 0.4399(5) 0.5185(5) 0.2376(2)
H45? H 0.3980 0.5456 0.2195
C47? C 0.5009(5) 0.4610(6) 0.22075(19)
H46? H 0.5006 0.4488 0.1911
C48? C 0.5622(5) 0.4214(6) 0.2473(2)
H47? H 0.6038 0.3821 0.2358
C49? C 0.5625(5) 0.4393(6) 0.2906(2)
H48? H 0.6044 0.4123 0.3088
C67? C 0.4264(6) 0.1519(7) 0.3479(3)
S6? S 0.3443(3) 0.0708(3) 0.34606(13)
F16? F 0.5077(4) 0.1241(5) 0.3543(3)
F17? F 0.4277(7) 0.1922(7) 0.3114(3)
F18? F 0.4107(10) 0.2072(10) 0.3781(4)
C68? C 0.3715(11) 0.0211(12) 0.3962(5)
H66? H 0.4319 -0.0032 0.3945
H67? H 0.3714 0.0653 0.4188
loop_
_geom_bond_atom_site_label_1
_geom_bond_atom_site_label_2
_geom_bond_site_symmetry_1
_geom_bond_site_symmetry_2
N1 H1 1_555 1_555
H2 N1 1_555 1_555
H3 N1 1_555 1_555
O1 C1 1_555 1_555
O2 C11 1_555 1_555
C1 C2 1_555 1_555
C2 H4 1_555 1_555
H5 C2 1_555 1_555
S1 C2 1_555 1_555
C3 S1 1_555 1_555
F1 C3 1_555 1_555
F2 C3 1_555 1_555
F3 C3 1_555 1_555
C4 N1 1_555 1_555
H6 C4 1_555 1_555
H7 C4 1_555 1_555
C5 C1 1_555 1_555
C6 C5 1_555 1_555
H8 C6 1_555 1_555
C7 C6 1_555 1_555
H9 C7 1_555 1_555
C8 C7 1_555 1_555
H10 C8 1_555 1_555
C9 C8 1_555 1_555
H11 C9 1_555 1_555
C10 C5 1_555 1_555
H12 C10 1_555 1_555
C11 O1 1_555 1_555
C12 C11 1_555 1_555
C13 C12 1_555 1_555
H13 C13 1_555 1_555
C14 C13 1_555 1_555
H14 C14 1_555 1_555
C15 C14 1_555 1_555
H15 C15 1_555 1_555
C16 C15 1_555 1_555
H16 C16 1_555 1_555
C17 C12 1_555 1_555
H17 C17 1_555 1_555
N2 H25 1_555 1_555
H26 N2 1_555 1_555
H27 N2 1_555 1_555
O3 C28 1_555 1_555
O4 C36 1_555 1_555
C26 H28 1_555 1_555
H29 C26 1_555 1_555
C27 F7 1_555 1_555
F8 C27 1_555 1_555
F9 C27 1_555 1_555
S3 C26 1_555 1_555
C28 C26 1_555 1_555
C29 N2 1_555 1_555
H30 C29 1_555 1_555
H31 C29 1_555 1_555
C30 C28 1_555 1_555
C31 C30 1_555 1_555
H32 C31 1_555 1_555
C32 C31 1_555 1_555
H33 C32 1_555 1_555
C33 C32 1_555 1_555
H34 C33 1_555 1_555
C34 C33 1_555 1_555
H35 C34 1_555 1_555
C35 C30 1_555 1_555
H36 C35 1_555 1_555
C36 O3 1_555 1_555
C37 C36 1_555 1_555
C38 C37 1_555 1_555
H37 C38 1_555 1_555
C39 C38 1_555 1_555
H38 C39 1_555 1_555
C40 C39 1_555 1_555
H39 C40 1_555 1_555
C41 C40 1_555 1_555
H40 C41 1_555 1_555
C42 C37 1_555 1_555
H41 C42 1_555 1_555
N3 H49 1_555 1_555
H50 N3 1_555 1_555
H51 N3 1_555 1_555
O5 C52 1_555 1_555
O6 C60 1_555 1_555
C50 H52 1_555 1_555
H53 C50 1_555 1_555
S5 C50 1_555 1_555
F13 C51 1_555 1_555
F14 C51 1_555 1_555
F15 C51 1_555 1_555
C51 S5 1_555 1_555
C52 C50 1_555 1_555
C53 N3 1_555 1_555
H54 C53 1_555 1_555
H55 C53 1_555 1_555
C54 C52 1_555 1_555
C55 C54 1_555 1_555
H56 C55 1_555 1_555
C56 C55 1_555 1_555
H57 C56 1_555 1_555
C57 C56 1_555 1_555
H58 C57 1_555 1_555
C58 C57 1_555 1_555
H59 C58 1_555 1_555
C59 C54 1_555 1_555
H60 C59 1_555 1_555
C60 O5 1_555 1_555
C61 C60 1_555 1_555
C62 C61 1_555 1_555
H61 C62 1_555 1_555
C63 C62 1_555 1_555
H62 C63 1_555 1_555
C64 C63 1_555 1_555
H63 C64 1_555 1_555
C65 C64 1_555 1_555
H64 C65 1_555 1_555
C66 C61 1_555 1_555
H65 C66 1_555 1_555
N4 H68 1_555 1_555
H69 N4 1_555 1_555
H70 N4 1_555 1_555
O7 C69 1_555 1_555
O8 C79 1_555 1_555
S7 C71 1_555 1_555
C69 C70 1_555 1_555
C70 N4 1_555 1_555
H71 C70 1_555 1_555
H72 C70 1_555 1_555
C71 C69 1_555 1_555
H73 C71 1_555 1_555
H74 C71 1_555 1_555
C72 C69 1_555 1_555
C73 C72 1_555 1_555
H75 C73 1_555 1_555
C74 C73 1_555 1_555
H76 C74 1_555 1_555
C75 C74 1_555 1_555
H77 C75 1_555 1_555
C76 C75 1_555 1_555
H78 C76 1_555 1_555
C77 C72 1_555 1_555
H79 C77 1_555 1_555
C78 S7 1_555 1_555
C79 O7 1_555 1_555
C80 C79 1_555 1_555
C81 C80 1_555 1_555
H80 C81 1_555 1_555
C82 C81 1_555 1_555
H81 C82 1_555 1_555
C83 C82 1_555 1_555
H82 C83 1_555 1_555
C84 C83 1_555 1_555
H83 C84 1_555 1_555
C85 C80 1_555 1_555
H84 C85 1_555 1_555
F19 C78 1_555 1_555
F20 C78 1_555 1_555
F21 C78 1_555 1_555
C1 C4 1_555 1_555
C9 C10 1_555 1_555
C16 C17 1_555 1_555
C27 S3 1_555 1_555
C28 C29 1_555 1_555
C34 C35 1_555 1_555
C41 C42 1_555 1_555
C52 C53 1_555 1_555
C58 C59 1_555 1_555
C65 C66 1_555 1_555
C76 C77 1_555 1_555
C84 C85 1_555 1_555

#END
