
#######################################################################
#
#                 Cambridge Crystallographic Data Centre
#                                CCDC 
#
#######################################################################
#
# If this CIF has been generated from an entry in the Cambridge 
# Structural Database, then it will include bibliographic, chemical, 
# crystal, experimental, refinement or atomic coordinate data resulting 
# from the CCDC's data processing and validation procedures.
#
#######################################################################

data_YIMRET
_chemical_formula_moiety         'C15 H12 Cl2 N2 O1,H2 O1'
_chemical_name_systematic        
"N'-(2,4-Dichlorobenzylidene)-4-methylbenzohydrazide monohydrate"
_symmetry_cell_setting           orthorhombic
_symmetry_space_group_name_H-M   'P 21 21 21'
_symmetry_Int_Tables_number      19
_space_group_name_Hall           'P 2ac 2ab'
loop_
_symmetry_equiv_pos_site_id
_symmetry_equiv_pos_as_xyz
1 x,y,z
2 1/2-x,-y,1/2+z
3 -x,1/2+y,1/2-z
4 1/2+x,1/2-y,-z
_cell_length_a                   4.714(2)
_cell_length_b                   13.093(3)
_cell_length_c                   24.754(3)
_cell_angle_alpha                90
_cell_angle_beta                 90
_cell_angle_gamma                90
_cell_volume                     1527.83
_exptl_crystal_colour            colorless
_exptl_crystal_description       block
_cell_formula_units_Z            4
loop_
_atom_site_label
_atom_site_type_symbol
_atom_site_fract_x
_atom_site_fract_y
_atom_site_fract_z
Cl1 Cl 1.2844(6) 0.20218(14) 0.90373(10)
Cl2 Cl 1.9327(5) 0.49109(18) 0.99311(8)
O1 O 0.6698(12) 0.5469(3) 0.7268(2)
N1 N 0.7903(13) 0.3907(4) 0.7566(2)
N2 N 0.9751(12) 0.4306(4) 0.7939(2)
C1 C -0.1323(17) 0.2756(6) 0.5689(3)
H1 H -0.3190 0.3040 0.5727
H2 H -0.1405 0.2030 0.5741
H3 H -0.0609 0.2903 0.5335
C2 C 0.0593(16) 0.3216(5) 0.6101(3)
C3 C 0.1516(17) 0.4220(5) 0.6063(3)
H4 H 0.0868 0.4627 0.5780
C4 C 0.3375(15) 0.4625(5) 0.6434(3)
H5 H 0.3942 0.5303 0.6400
C5 C 0.4415(15) 0.4048(5) 0.6857(3)
C6 C 0.3541(16) 0.3037(5) 0.6900(3)
H6 H 0.4234 0.2631 0.7179
C7 C 0.1644(17) 0.2630(5) 0.6531(3)
H7 H 0.1057 0.1955 0.6568
C8 C 0.6395(14) 0.4545(5) 0.7244(3)
C9 C 1.0982(16) 0.3653(5) 0.8242(3)
H8 H 1.0593 0.2962 0.8195
C10 C 1.2977(15) 0.3963(5) 0.8657(3)
C11 C 1.4090(19) 0.3280(5) 0.9034(3)
C12 C 1.6009(19) 0.3544(6) 0.9423(3)
H9 H 1.6705 0.3062 0.9665
C13 C 1.6877(17) 0.4542(6) 0.9446(3)
C14 C 1.5923(15) 0.5252(5) 0.9085(3)
H10 H 1.6587 0.5920 0.9100
C15 C 1.3957(14) 0.4971(5) 0.8695(3)
H11 H 1.3280 0.5459 0.8454
H12 H 0.762(17) 0.3229(13) 0.754(3)
O2 O 0.1774(11) 0.6660(3) 0.7375(3)
H13 H 0.020(7) 0.636(5) 0.744(3)
H14 H 0.294(11) 0.621(4) 0.727(3)
loop_
_geom_bond_atom_site_label_1
_geom_bond_atom_site_label_2
_geom_bond_site_symmetry_1
_geom_bond_site_symmetry_2
Cl1 C11 1_555 1_555
Cl2 C13 1_555 1_555
O1 C8 1_555 1_555
N1 N2 1_555 1_555
N2 C9 1_555 1_555
C1 H1 1_555 1_555
H2 C1 1_555 1_555
H3 C1 1_555 1_555
C2 C1 1_555 1_555
C3 C2 1_555 1_555
H4 C3 1_555 1_555
C4 C3 1_555 1_555
H5 C4 1_555 1_555
C5 C4 1_555 1_555
C6 C5 1_555 1_555
H6 C6 1_555 1_555
C7 C2 1_555 1_555
H7 C7 1_555 1_555
C8 N1 1_555 1_555
C9 H8 1_555 1_555
C10 C9 1_555 1_555
C11 C10 1_555 1_555
C12 C11 1_555 1_555
H9 C12 1_555 1_555
C13 C12 1_555 1_555
C14 C13 1_555 1_555
H10 C14 1_555 1_555
C15 C10 1_555 1_555
H11 C15 1_555 1_555
H12 N1 1_555 1_555
O2 H13 1_555 1_555
H14 O2 1_555 1_555
C5 C8 1_555 1_555
C6 C7 1_555 1_555
C14 C15 1_555 1_555

#END
