
#######################################################################
#
#                 Cambridge Crystallographic Data Centre
#                                CCDC 
#
#######################################################################
#
# If this CIF has been generated from an entry in the Cambridge 
# Structural Database, then it will include bibliographic, chemical, 
# crystal, experimental, refinement or atomic coordinate data resulting 
# from the CCDC's data processing and validation procedures.
#
#######################################################################

data_YIMZAY
_chemical_formula_moiety         '2(C23 H16 O1),C10 H2 N4'
_chemical_name_systematic        
'benzene-1,2,4,5-tetracarbonitrile bis(3-(anthracen-9-yl)-1-phenylprop-2-en-1-one)'
_symmetry_cell_setting           triclinic
_symmetry_space_group_name_H-M   'P -1'
_symmetry_Int_Tables_number      2
_space_group_name_Hall           '-P 1'
loop_
_symmetry_equiv_pos_site_id
_symmetry_equiv_pos_as_xyz
1 x,y,z
2 -x,-y,-z
_cell_length_a                   9.5237(8)
_cell_length_b                   10.3421(7)
_cell_length_c                   13.0991(11)
_cell_angle_alpha                103.698(6)
_cell_angle_beta                 99.624(7)
_cell_angle_gamma                117.292(7)
_cell_volume                     1055.62
_exptl_crystal_colour            orange
_exptl_crystal_description       rod
_cell_formula_units_Z            1
loop_
_atom_site_label
_atom_site_type_symbol
_atom_site_fract_x
_atom_site_fract_y
_atom_site_fract_z
O1 O 0.85116(19) 0.80982(19) 0.69883(12)
C1 C 0.4440(2) 0.8810(2) 0.63152(15)
C2 C 0.3548(2) 0.8353(2) 0.51938(15)
C3 C 0.4107(2) 0.9647(2) 0.71649(15)
C4 C 0.5757(2) 0.8452(2) 0.65585(17)
C5 C 0.7531(3) 0.7708(2) 0.75094(16)
C6 C 0.2278(2) 0.8710(2) 0.49167(16)
C7 C 0.2793(2) 0.9942(2) 0.68736(16)
C8 C 0.7794(3) 0.7016(2) 0.83486(16)
C9 C 0.6108(3) 0.7946(2) 0.73495(18)
C10 C 0.1931(3) 0.9475(2) 0.57666(18)
C11 C 0.6490(3) 0.5967(3) 0.86043(18)
C12 C 0.3821(3) 0.7510(2) 0.42940(17)
C13 C 0.5039(3) 1.0279(2) 0.83137(17)
C14 C 0.1401(3) 0.8253(3) 0.37818(19)
C15 C 0.2413(3) 1.0735(3) 0.7734(2)
C16 C 0.6795(4) 0.5317(3) 0.9362(2)
C17 C 0.8390(4) 0.5735(3) 0.9880(2)
C18 C 0.4650(4) 1.1049(3) 0.9100(2)
C19 C 0.3290(4) 1.1243(3) 0.8802(2)
C20 C 0.2958(3) 0.7112(3) 0.32280(19)
C21 C 0.1733(3) 0.7492(3) 0.2970(2)
C22 C 0.9406(3) 0.7411(3) 0.8862(2)
C23 C 0.9692(4) 0.6777(4) 0.9634(2)
H1 H 0.104(2) 0.969(2) 0.5589(15)
H2 H 0.053(3) 0.851(2) 0.3639(16)
H3 H 0.468(3) 0.724(2) 0.4447(16)
H4 H 0.605(2) 1.019(2) 0.8538(15)
H5 H 0.534(3) 0.565(2) 0.8232(17)
H6 H 0.546(2) 0.772(2) 0.7842(16)
H7 H 0.644(2) 0.858(2) 0.6078(16)
H8 H 0.326(3) 0.661(2) 0.2663(18)
H9 H 0.111(3) 0.720(3) 0.219(2)
H10 H 0.531(3) 1.146(2) 0.9877(19)
H11 H 0.148(3) 1.093(3) 0.750(2)
H12 H 1.029(3) 0.813(3) 0.866(2)
H13 H 0.296(3) 1.172(3) 0.936(2)
H14 H 0.859(3) 0.526(3) 1.045(2)
H15 H 0.585(3) 0.456(3) 0.948(2)
H16 H 1.085(4) 0.707(3) 0.998(2)
C24 C 0.1132(2) 0.4555(2) 0.52802(15)
C25 C 0.0833(2) 0.5432(2) 0.61081(15)
N1 N 0.2411(2) 0.6214(2) 0.81622(16)
C26 C 0.1707(3) 0.5867(2) 0.72537(18)
N2 N 0.3190(3) 0.3690(3) 0.58534(19)
C27 C -0.0302(2) 0.5876(2) 0.58290(16)
C28 C 0.2287(3) 0.4071(3) 0.55869(17)
H17 H -0.053(2) 0.648(2) 0.6393(15)
C24A C -0.1132(2) 0.5445(2) 0.47198(15)
C25A C -0.0833(2) 0.4568(2) 0.38919(15)
N1A N -0.2411(2) 0.3786(2) 0.18378(16)
C26A C -0.1707(3) 0.4133(2) 0.27463(18)
N2A N -0.3190(3) 0.6310(3) 0.41466(19)
C27A C 0.0302(2) 0.4124(2) 0.41710(16)
C28A C -0.2287(3) 0.5929(3) 0.44131(17)
H17A H 0.053(2) 0.352(2) 0.3607(15)
loop_
_geom_bond_atom_site_label_1
_geom_bond_atom_site_label_2
_geom_bond_site_symmetry_1
_geom_bond_site_symmetry_2
O1 C5 1_555 1_555
C1 C2 1_555 1_555
C2 C6 1_555 1_555
C3 C1 1_555 1_555
C4 C1 1_555 1_555
C5 C8 1_555 1_555
C6 C10 1_555 1_555
C7 C3 1_555 1_555
C8 C11 1_555 1_555
C9 C4 1_555 1_555
C10 C7 1_555 1_555
C11 C16 1_555 1_555
C12 C2 1_555 1_555
C13 C3 1_555 1_555
C14 C6 1_555 1_555
C15 C7 1_555 1_555
C16 C17 1_555 1_555
C17 C23 1_555 1_555
C18 C13 1_555 1_555
C19 C15 1_555 1_555
C20 C12 1_555 1_555
C21 C14 1_555 1_555
C22 C8 1_555 1_555
C23 C22 1_555 1_555
H1 C10 1_555 1_555
H2 C14 1_555 1_555
H3 C12 1_555 1_555
H4 C13 1_555 1_555
H5 C11 1_555 1_555
H6 C9 1_555 1_555
H7 C4 1_555 1_555
H8 C20 1_555 1_555
H9 C21 1_555 1_555
H10 C18 1_555 1_555
H11 C15 1_555 1_555
H12 C22 1_555 1_555
H13 C19 1_555 1_555
H14 C17 1_555 1_555
H15 C16 1_555 1_555
H16 C23 1_555 1_555
C24 C25 1_555 1_555
C25 C26 1_555 1_555
N1 C26 1_555 1_555
N2 C28 1_555 1_555
C27 C25 1_555 1_555
C28 C24 1_555 1_555
H17 C27 1_555 1_555
C24A C27 1_555 1_555
C25A C24A 1_555 1_555
N1A C26A 1_555 1_555
C26A C25A 1_555 1_555
N2A C28A 1_555 1_555
C27A C24 1_555 1_555
C28A C24A 1_555 1_555
H17A C27A 1_555 1_555
C5 C9 1_555 1_555
C18 C19 1_555 1_555
C20 C21 1_555 1_555
C25A C27A 1_555 1_555

#END
