
#######################################################################
#
#                 Cambridge Crystallographic Data Centre
#                                CCDC 
#
#######################################################################
#
# If this CIF has been generated from an entry in the Cambridge 
# Structural Database, then it will include bibliographic, chemical, 
# crystal, experimental, refinement or atomic coordinate data resulting 
# from the CCDC's data processing and validation procedures.
#
#######################################################################

data_YINJOU
_chemical_formula_moiety         'C20 H16 N4 O4 Si1,4(C3 H6 O2)'
_chemical_name_systematic        
'tetrakis(1,2-Dihydro-2-oxo-5-pyridinyl)silane tetrapropionic acid clathrate'
_symmetry_cell_setting           tetragonal
_symmetry_space_group_name_H-M   'P 42/n'
_symmetry_Int_Tables_number      86
_space_group_name_Hall           '-P 4bc'
loop_
_symmetry_equiv_pos_site_id
_symmetry_equiv_pos_as_xyz
1 x,y,z
2 -y,1/2+x,1/2+z
3 1/2-x,1/2-y,z
4 1/2+y,-x,1/2+z
5 -x,-y,-z
6 y,1/2-x,1/2-z
7 1/2+x,1/2+y,-z
8 1/2-y,x,1/2-z
_cell_length_a                   15.645(3)
_cell_length_b                   15.645(3)
_cell_length_c                   7.6603(17)
_cell_angle_alpha                90
_cell_angle_beta                 90
_cell_angle_gamma                90
_cell_volume                     1874.98
_cell_formula_units_Z            2
loop_
_atom_site_label
_atom_site_type_symbol
_atom_site_fract_x
_atom_site_fract_y
_atom_site_fract_z
Si1 Si 0.7500 0.7500 0.2500
O1 O 0.5726(2) 0.4873(2) -0.1740(4)
N1 N 0.5787(2) 0.5803(2) 0.0498(5)
C1 C 0.6963(2) 0.6711(2) 0.1087(5)
C2 C 0.6176(3) 0.6405(3) 0.1473(6)
C3 C 0.6130(3) 0.5448(3) -0.0951(6)
C4 C 0.6938(3) 0.5754(3) -0.1437(6)
C5 C 0.7341(3) 0.6354(3) -0.0446(5)
H1 H 0.589 0.664 0.246
H2 H 0.525 0.561 0.089
H3 H 0.720 0.556 -0.248
H4 H 0.790 0.654 -0.077
C1E C 0.6711(2) 0.8037(2) 0.3913(5)
C1B C 0.8037(2) 0.8289(2) 0.1087(5)
C1G C 0.8289(2) 0.6963(2) 0.3913(5)
C2E C 0.6405(3) 0.8824(3) 0.3527(6)
C5E C 0.6354(3) 0.7659(3) 0.5446(5)
C2B C 0.8824(3) 0.8595(3) 0.1473(6)
C5B C 0.7659(3) 0.8646(3) -0.0446(5)
C2G C 0.8595(3) 0.6176(3) 0.3527(6)
C5G C 0.8646(3) 0.7341(3) 0.5446(5)
N1E N 0.5803(2) 0.9213(2) 0.4502(5)
H1E H 0.664 0.911 0.254
C4E C 0.5754(3) 0.8062(3) 0.6437(6)
H4E H 0.654 0.710 0.577
N1B N 0.9213(2) 0.9197(2) 0.0498(5)
H1B H 0.911 0.836 0.246
C4B C 0.8062(3) 0.9246(3) -0.1437(6)
H4B H 0.710 0.846 -0.077
N1G N 0.9197(2) 0.5787(2) 0.4502(5)
H1G H 0.836 0.589 0.254
C4G C 0.9246(3) 0.6938(3) 0.6437(6)
H4G H 0.846 0.790 0.577
C3E C 0.5448(3) 0.8870(3) 0.5951(6)
H2E H 0.561 0.975 0.411
H3E H 0.556 0.780 0.748
C3B C 0.8870(3) 0.9552(3) -0.0951(6)
H2B H 0.975 0.939 0.089
H3B H 0.780 0.944 -0.248
C3G C 0.9552(3) 0.6130(3) 0.5951(6)
H2G H 0.939 0.525 0.411
H3G H 0.944 0.720 0.748
O1E O 0.4873(2) 0.9274(2) 0.6740(4)
O1B O 0.9274(2) 1.0127(2) -0.1740(4)
O1G O 1.0127(2) 0.5726(2) 0.6740(4)
O2 O 0.5732(6) 0.4044(5) -0.4912(9)
O3 O 0.6846(4) 0.4793(5) -0.5526(6)
C6 C 0.6245(5) 0.4239(5) -0.5497(12)
C7 C 0.6340(6) 0.3631(6) -0.7416(11)
C8 C 0.7091(7) 0.3762(7) -0.8114(14)
H5 H 0.567 0.433 -0.383
H6 H 0.592 0.371 -0.831
H7 H 0.621 0.303 -0.727
H8 H 0.726 0.344 -0.902
H9 H 0.717 0.437 -0.828
H10 H 0.746 0.361 -0.718
loop_
_geom_bond_atom_site_label_1
_geom_bond_atom_site_label_2
_geom_bond_site_symmetry_1
_geom_bond_site_symmetry_2
Si1 C1 1_555 1_555
O1 C3 1_555 1_555
O2 C6 1_555 1_555
O3 C6 1_555 1_555
N1 C2 1_555 1_555
C1 C2 1_555 1_555
C2 H1 1_555 1_555
C3 N1 1_555 1_555
C4 C3 1_555 1_555
C5 C1 1_555 1_555
C6 C7 1_555 1_555
C7 C8 1_555 1_555
C8 H8 1_555 1_555
H2 N1 1_555 1_555
H3 C4 1_555 1_555
H4 C5 1_555 1_555
H5 O2 1_555 1_555
H6 C7 1_555 1_555
H7 C7 1_555 1_555
H9 C8 1_555 1_555
H10 C8 1_555 1_555
C1E Si1 1_555 1_555
C1B Si1 1_555 1_555
C1G Si1 1_555 1_555
C2E C1E 1_555 1_555
C5E C1E 1_555 1_555
C2B C1B 1_555 1_555
C5B C1B 1_555 1_555
C2G C1G 1_555 1_555
C5G C1G 1_555 1_555
N1E C2E 1_555 1_555
H1E C2E 1_555 1_555
C4E C5E 1_555 1_555
H4E C5E 1_555 1_555
N1B C2B 1_555 1_555
H1B C2B 1_555 1_555
C4B C5B 1_555 1_555
H4B C5B 1_555 1_555
N1G C2G 1_555 1_555
H1G C2G 1_555 1_555
C4G C5G 1_555 1_555
H4G C5G 1_555 1_555
C3E N1E 1_555 1_555
H2E N1E 1_555 1_555
H3E C4E 1_555 1_555
C3B N1B 1_555 1_555
H2B N1B 1_555 1_555
H3B C4B 1_555 1_555
C3G N1G 1_555 1_555
H2G N1G 1_555 1_555
H3G C4G 1_555 1_555
O1E C3E 1_555 1_555
O1B C3B 1_555 1_555
O1G C3G 1_555 1_555
C4 C5 1_555 1_555
C4E C3E 1_555 1_555
C4B C3B 1_555 1_555
C4G C3G 1_555 1_555

#END
