
#######################################################################
#
#                 Cambridge Crystallographic Data Centre
#                                CCDC 
#
#######################################################################
#
# If this CIF has been generated from an entry in the Cambridge 
# Structural Database, then it will include bibliographic, chemical, 
# crystal, experimental, refinement or atomic coordinate data resulting 
# from the CCDC's data processing and validation procedures.
#
#######################################################################

data_YINMIU
_chemical_compound_source        'Aspergillus terreus'
_chemical_formula_moiety         'C27 H38 O9'
_chemical_name_systematic        'terreusterpene A'
_chemical_properties_biological  
'potentially significant BACE1 inhibitory activity'
_symmetry_cell_setting           orthorhombic
_symmetry_space_group_name_H-M   'P 21 21 21'
_symmetry_Int_Tables_number      19
_space_group_name_Hall           'P 2ac 2ab'
loop_
_symmetry_equiv_pos_site_id
_symmetry_equiv_pos_as_xyz
1 x,y,z
2 1/2+x,1/2-y,-z
3 -x,1/2+y,1/2-z
4 1/2-x,-y,1/2+z
_cell_length_a                   11.4298(6)
_cell_length_b                   14.3863(8)
_cell_length_c                   15.3115(8)
_cell_angle_alpha                90
_cell_angle_beta                 90
_cell_angle_gamma                90
_cell_volume                     2517.71
_exptl_crystal_colour            colorless
_exptl_crystal_description       block
_cell_formula_units_Z            4
loop_
_atom_site_label
_atom_site_type_symbol
_atom_site_fract_x
_atom_site_fract_y
_atom_site_fract_z
O1 O 0.35988(16) 0.07747(12) 0.64056(11)
O2 O 0.32689(14) 0.47723(11) 0.33066(10)
O3 O 0.35716(17) 0.65704(12) 0.33639(11)
O4 O 0.44269(16) 0.66676(12) 0.20453(11)
O5 O 0.36936(16) 0.27644(13) 0.09288(10)
O6 O 0.17745(16) 0.28215(13) 0.06527(11)
O7 O 0.17936(16) 0.02465(12) 0.32530(10)
O8 O 0.23477(16) 0.11662(12) 0.18389(10)
H1 H 0.196(3) 0.069(3) 0.193(2)
O9 O 0.32871(17) 0.50487(13) 0.10356(11)
C1 C 0.2942(2) 0.11306(17) 0.58768(14)
C2 C 0.2392(2) 0.20617(17) 0.60570(15)
H2 H 0.2834 0.2365 0.6535
H3 H 0.1584 0.1958 0.6269
C3 C 0.2344(2) 0.27301(16) 0.52803(14)
H4 H 0.3142 0.2967 0.5164
H5 H 0.1846 0.3268 0.5438
C4 C 0.18609(19) 0.22849(15) 0.44390(14)
C5 C 0.21494(18) 0.29415(15) 0.36563(14)
H6 H 0.3014 0.3044 0.3683
C6 C 0.1601(2) 0.39063(16) 0.37580(15)
H7 H 0.0742 0.3849 0.3698
H8 H 0.1766 0.4137 0.4354
C7 C 0.2038(2) 0.46199(16) 0.31012(15)
C8 C 0.3847(2) 0.51594(17) 0.25741(15)
C9 C 0.39791(19) 0.62267(17) 0.26177(15)
C10 C 0.3633(2) 0.75691(18) 0.34594(16)
H9 H 0.4421 0.7783 0.3308
H10 H 0.3457 0.7739 0.4065
H11 H 0.3062 0.7862 0.3069
C11 C 0.2055(2) 0.42937(16) 0.21364(15)
C12 C 0.2518(2) 0.32631(15) 0.20892(14)
H12 H 0.3350 0.3295 0.2291
C13 C 0.2581(2) 0.29219(16) 0.11459(15)
C14 C 0.3880(3) 0.2443(2) 0.00433(17)
H13 H 0.3427 0.1874 -0.0056
H14 H 0.4714 0.2313 -0.0045
H15 H 0.3626 0.2924 -0.0369
C15 C 0.19076(19) 0.25609(16) 0.27234(14)
C16 C 0.05374(19) 0.21245(17) 0.45508(15)
H16 H 0.0366 0.1987 0.5164
H17 H 0.0292 0.1600 0.4186
H18 H 0.0112 0.2685 0.4373
C17 C 0.2587(2) 0.06312(16) 0.50349(14)
C18 C 0.2570(2) 0.13655(15) 0.42900(14)
H19 H 0.3402 0.1572 0.4233
C19 C 0.22579(19) 0.09840(16) 0.33988(15)
C20 C 0.2571(2) 0.16185(16) 0.26402(14)
H20 H 0.3428 0.1751 0.2672
C21 C 0.3500(2) -0.01204(17) 0.48240(15)
H21 H 0.4268 0.0170 0.4745
H22 H 0.3276 -0.0444 0.4286
H23 H 0.3538 -0.0567 0.5306
C22 C 0.1404(2) 0.01490(17) 0.52284(15)
H24 H 0.1524 -0.0348 0.5657
H25 H 0.1089 -0.0116 0.4688
H26 H 0.0851 0.0606 0.5463
C23 C 0.06091(19) 0.24036(17) 0.24980(15)
H27 H 0.0333 0.1835 0.2783
H28 H 0.0522 0.2342 0.1864
H29 H 0.0147 0.2934 0.2703
C24 C 0.3080(2) 0.48726(16) 0.17894(15)
C25 C 0.0945(2) 0.45000(18) 0.16139(17)
H30 H 0.0824 0.5174 0.1584
H31 H 0.0272 0.4209 0.1901
H32 H 0.1027 0.4250 0.1022
C26 C 0.1344(2) 0.55131(17) 0.32327(17)
H33 H 0.1487 0.5754 0.3822
H34 H 0.0507 0.5384 0.3160
H35 H 0.1591 0.5976 0.2800
C27 C 0.5081(2) 0.47593(18) 0.24971(16)
H36 H 0.5580 0.5028 0.2953
H37 H 0.5405 0.4911 0.1922
H38 H 0.5052 0.4083 0.2567
loop_
_geom_bond_atom_site_label_1
_geom_bond_atom_site_label_2
_geom_bond_site_symmetry_1
_geom_bond_site_symmetry_2
O1 C1 1_555 1_555
O2 C7 1_555 1_555
O3 C9 1_555 1_555
O4 C9 1_555 1_555
O5 C13 1_555 1_555
O6 C13 1_555 1_555
O7 C19 1_555 1_555
O8 H1 1_555 1_555
O9 C24 1_555 1_555
C1 C2 1_555 1_555
C2 H2 1_555 1_555
H3 C2 1_555 1_555
C3 C2 1_555 1_555
H4 C3 1_555 1_555
H5 C3 1_555 1_555
C4 C3 1_555 1_555
C5 C4 1_555 1_555
H6 C5 1_555 1_555
C6 C5 1_555 1_555
H7 C6 1_555 1_555
H8 C6 1_555 1_555
C7 C6 1_555 1_555
C8 O2 1_555 1_555
C9 C8 1_555 1_555
C10 O3 1_555 1_555
H9 C10 1_555 1_555
H10 C10 1_555 1_555
H11 C10 1_555 1_555
C11 C7 1_555 1_555
C12 C11 1_555 1_555
H12 C12 1_555 1_555
C13 C12 1_555 1_555
C14 O5 1_555 1_555
H13 C14 1_555 1_555
H14 C14 1_555 1_555
H15 C14 1_555 1_555
C15 C5 1_555 1_555
C16 C4 1_555 1_555
H16 C16 1_555 1_555
H17 C16 1_555 1_555
H18 C16 1_555 1_555
C17 C1 1_555 1_555
C18 C4 1_555 1_555
H19 C18 1_555 1_555
C19 C18 1_555 1_555
C20 O8 1_555 1_555
H20 C20 1_555 1_555
C21 C17 1_555 1_555
H21 C21 1_555 1_555
H22 C21 1_555 1_555
H23 C21 1_555 1_555
C22 C17 1_555 1_555
H24 C22 1_555 1_555
H25 C22 1_555 1_555
H26 C22 1_555 1_555
C23 C15 1_555 1_555
H27 C23 1_555 1_555
H28 C23 1_555 1_555
H29 C23 1_555 1_555
C24 C8 1_555 1_555
C25 C11 1_555 1_555
H30 C25 1_555 1_555
H31 C25 1_555 1_555
H32 C25 1_555 1_555
C26 C7 1_555 1_555
H33 C26 1_555 1_555
H34 C26 1_555 1_555
H35 C26 1_555 1_555
C27 C8 1_555 1_555
H36 C27 1_555 1_555
H37 C27 1_555 1_555
H38 C27 1_555 1_555
C11 C24 1_555 1_555
C12 C15 1_555 1_555
C15 C20 1_555 1_555
C17 C18 1_555 1_555
C19 C20 1_555 1_555

#END
