
#######################################################################
#
#                 Cambridge Crystallographic Data Centre
#                                CCDC 
#
#######################################################################
#
# If this CIF has been generated from an entry in the Cambridge 
# Structural Database, then it will include bibliographic, chemical, 
# crystal, experimental, refinement or atomic coordinate data resulting 
# from the CCDC's data processing and validation procedures.
#
#######################################################################

data_YIPVEA
_chemical_formula_moiety         'C20 H22 N8 S2'
_chemical_name_systematic        
2,2'-(Butane-1,4-diylbis(1H-1,2,3-triazole-1,4-diylmethylenesulfanediyl))dipyridine
_symmetry_cell_setting           monoclinic
_symmetry_space_group_name_H-M   'P 21/c'
_symmetry_Int_Tables_number      14
_space_group_name_Hall           '-P 2ybc'
loop_
_symmetry_equiv_pos_site_id
_symmetry_equiv_pos_as_xyz
1 x,y,z
2 -x,1/2+y,1/2-z
3 -x,-y,-z
4 x,1/2-y,1/2+z
_cell_length_a                   5.512(2)
_cell_length_b                   25.524(10)
_cell_length_c                   7.743(3)
_cell_angle_alpha                90
_cell_angle_beta                 109.287(9)
_cell_angle_gamma                90
_cell_volume                     1028.21
_exptl_crystal_colour            colorless
_exptl_crystal_description       'thin plate'
_cell_formula_units_Z            2
loop_
_atom_site_label
_atom_site_type_symbol
_atom_site_fract_x
_atom_site_fract_y
_atom_site_fract_z
S1 S 0.25447(11) 0.29700(2) 0.74990(8)
N1 N -0.1774(4) 0.41843(8) 0.6798(3)
N2 N -0.0887(4) 0.46657(7) 0.7094(3)
N3 N 0.1492(3) 0.46598(7) 0.6988(2)
N4 N 0.3785(4) 0.19959(8) 0.7869(3)
C1 C 0.3415(6) 0.14841(11) 0.7632(4)
H1 H 0.4816 0.1262 0.8186
C2 C 0.1118(5) 0.12566(10) 0.6628(4)
H2 H 0.0958 0.0891 0.6498
C3 C -0.0934(5) 0.15808(10) 0.5823(4)
H3 H -0.2531 0.1438 0.5127
C4 C -0.0647(5) 0.21137(9) 0.6037(3)
H4 H -0.2032 0.2342 0.5508
C5 C 0.1774(5) 0.23054(9) 0.7068(3)
C6 C -0.0383(4) 0.33017(9) 0.6174(3)
H5 H -0.0785 0.3224 0.4869
H6 H -0.1823 0.3184 0.6553
C7 C 0.0040(4) 0.38740(9) 0.6507(3)
C8 C 0.2146(4) 0.41776(8) 0.6621(3)
H7 H 0.3698 0.4071 0.6474
C9 C 0.3093(4) 0.51300(9) 0.7430(3)
H8 H 0.2071 0.5434 0.6836
H9 H 0.4524 0.5093 0.6953
C10 C 0.4146(4) 0.52204(8) 0.9482(3)
H10 H 0.5132 0.5548 0.9722
H11 H 0.2704 0.5262 0.9946
S1B S 0.74553(11) 0.70300(2) 1.25010(8)
N1B N 1.1774(4) 0.58157(8) 1.3202(3)
N2B N 1.0887(4) 0.53343(7) 1.2906(3)
N3B N 0.8508(3) 0.53402(7) 1.3012(2)
N4B N 0.6215(4) 0.80041(8) 1.2131(3)
C1B C 0.6585(6) 0.85159(11) 1.2368(4)
H1B H 0.5184 0.8738 1.1814
C2B C 0.8882(5) 0.87434(10) 1.3372(4)
H2B H 0.9042 0.9109 1.3502
C3B C 1.0934(5) 0.84192(10) 1.4177(4)
H3B H 1.2531 0.8562 1.4873
C4B C 1.0647(5) 0.78863(9) 1.3963(3)
H4B H 1.2032 0.7658 1.4492
C5B C 0.8226(5) 0.76946(9) 1.2932(3)
C6B C 1.0383(4) 0.66983(9) 1.3826(3)
H5B H 1.0785 0.6776 1.5131
H6B H 1.1823 0.6816 1.3447
C7B C 0.9960(4) 0.61260(9) 1.3493(3)
C8B C 0.7854(4) 0.58224(8) 1.3379(3)
H7B H 0.6302 0.5929 1.3526
C9B C 0.6907(4) 0.48700(9) 1.2570(3)
H8B H 0.7929 0.4566 1.3164
H9B H 0.5476 0.4907 1.3047
C10B C 0.5854(4) 0.47796(8) 1.0518(3)
H10B H 0.4868 0.4452 1.0278
H11B H 0.7296 0.4738 1.0054
loop_
_geom_bond_atom_site_label_1
_geom_bond_atom_site_label_2
_geom_bond_site_symmetry_1
_geom_bond_site_symmetry_2
S1 C5 1_555 1_555
N1 N2 1_555 1_555
N2 N3 1_555 1_555
N3 C8 1_555 1_555
N4 C1 1_555 1_555
C1 H1 1_555 1_555
C2 C1 1_555 1_555
H2 C2 1_555 1_555
C3 C2 1_555 1_555
H3 C3 1_555 1_555
C4 C3 1_555 1_555
H4 C4 1_555 1_555
C5 N4 1_555 1_555
C6 S1 1_555 1_555
H5 C6 1_555 1_555
H6 C6 1_555 1_555
C7 N1 1_555 1_555
C8 C7 1_555 1_555
H7 C8 1_555 1_555
C9 N3 1_555 1_555
H8 C9 1_555 1_555
H9 C9 1_555 1_555
C10 C9 1_555 1_555
H10 C10 1_555 1_555
H11 C10 1_555 1_555
S1B C5B 1_555 1_555
N1B N2B 1_555 1_555
N2B N3B 1_555 1_555
N3B C8B 1_555 1_555
N4B C1B 1_555 1_555
C1B H1B 1_555 1_555
C2B C1B 1_555 1_555
H2B C2B 1_555 1_555
C3B C2B 1_555 1_555
H3B C3B 1_555 1_555
C4B C3B 1_555 1_555
H4B C4B 1_555 1_555
C5B N4B 1_555 1_555
C6B S1B 1_555 1_555
H5B C6B 1_555 1_555
H6B C6B 1_555 1_555
C7B N1B 1_555 1_555
C8B C7B 1_555 1_555
H7B C8B 1_555 1_555
C9B N3B 1_555 1_555
H8B C9B 1_555 1_555
H9B C9B 1_555 1_555
C10B C10 1_555 1_555
H10B C10B 1_555 1_555
H11B C10B 1_555 1_555
C4 C5 1_555 1_555
C6 C7 1_555 1_555
C4B C5B 1_555 1_555
C6B C7B 1_555 1_555
C9B C10B 1_555 1_555

#END
