
#######################################################################
#
#                 Cambridge Crystallographic Data Centre
#                                CCDC 
#
#######################################################################
#
# If this CIF has been generated from an entry in the Cambridge 
# Structural Database, then it will include bibliographic, chemical, 
# crystal, experimental, refinement or atomic coordinate data resulting 
# from the CCDC's data processing and validation procedures.
#
#######################################################################

data_YIQDOT
_chemical_formula_moiety         'C59 O6,C1 H4 O1'
_chemical_name_systematic        
'epoxy-(open-cage)-C59fullerene-pentaone methanol solvate'
_symmetry_cell_setting           orthorhombic
_symmetry_space_group_name_H-M   'P b c a'
_symmetry_Int_Tables_number      61
_space_group_name_Hall           '-P 2ac 2ab'
loop_
_symmetry_equiv_pos_site_id
_symmetry_equiv_pos_as_xyz
1 x,y,z
2 1/2-x,-y,1/2+z
3 1/2+x,1/2-y,-z
4 -x,1/2+y,1/2-z
5 -x,-y,-z
6 1/2+x,y,1/2-z
7 1/2-x,1/2+y,z
8 x,1/2-y,1/2+z
_cell_length_a                   17.9848(16)
_cell_length_b                   17.9794(12)
_cell_length_c                   19.8623(13)
_cell_angle_alpha                90
_cell_angle_beta                 90
_cell_angle_gamma                90
_cell_volume                     6422.59
_cell_formula_units_Z            8
loop_
_atom_site_label
_atom_site_type_symbol
_atom_site_fract_x
_atom_site_fract_y
_atom_site_fract_z
C1 C 0.1812(3) -0.0030(3) 0.1111(2)
C2 C 0.2727(3) 0.0827(3) 0.1292(2)
C3 C 0.1494(3) 0.0575(3) 0.1534(2)
C4 C 0.2068(3) 0.1095(3) 0.1634(2)
C5 C 0.0792(3) 0.0658(2) 0.1838(2)
C6 C 0.0802(3) 0.1097(3) 0.2415(2)
C7 C 0.1374(3) 0.1624(3) 0.2524(2)
C8 C 0.1950(3) 0.1709(3) 0.2055(2)
C9 C 0.2067(3) 0.2531(3) 0.1992(2)
C10 C 0.2156(3) 0.2937(3) 0.1413(2)
C11 C 0.2213(3) 0.2611(3) 0.0709(2)
C12 C 0.1740(3) 0.3113(3) 0.0282(2)
C13 C 0.1246(3) 0.2862(3) -0.0209(2)
C14 C 0.1122(3) 0.2074(3) -0.0436(2)
C15 C 0.0295(3) 0.1974(3) -0.0391(2)
C16 C -0.0100(3) 0.1427(3) -0.0082(2)
C17 C 0.0226(3) 0.0791(3) 0.0321(3)
C18 C -0.0242(3) 0.0736(3) 0.0949(2)
C19 C 0.0010(3) 0.0643(3) 0.1604(3)
C20 C -0.0439(3) 0.0985(3) 0.2133(2)
C21 C 0.0063(3) 0.1266(3) 0.2644(2)
C22 C -0.0097(3) 0.1910(3) 0.2982(2)
C23 C 0.0501(3) 0.2454(3) 0.3094(2)
C24 C 0.1201(3) 0.2306(3) 0.2856(2)
C25 C 0.1636(3) 0.2886(3) 0.2533(2)
C26 C 0.1328(3) 0.3576(3) 0.2465(2)
C27 C 0.1423(3) 0.3993(3) 0.1864(3)
C28 C 0.1814(3) 0.3663(3) 0.1343(2)
C29 C 0.1556(3) 0.3754(3) 0.0661(2)
C30 C 0.0927(3) 0.4167(3) 0.0531(2)
C31 C 0.0404(3) 0.3907(3) 0.0038(2)
C32 C 0.0560(3) 0.3256(3) -0.0302(2)
C33 C -0.0030(3) 0.2707(3) -0.0403(2)
C34 C -0.0737(3) 0.2862(3) -0.0172(2)
C35 C -0.1149(3) 0.2273(3) 0.0140(2)
C36 C -0.0813(3) 0.1581(3) 0.0208(2)
C37 C -0.0903(3) 0.1166(3) 0.0818(3)
C38 C -0.1331(3) 0.1453(3) 0.1338(3)
C39 C -0.1077(3) 0.1371(3) 0.2013(3)
C40 C -0.1258(3) 0.2043(3) 0.2373(3)
C41 C -0.0767(3) 0.2317(3) 0.2851(2)
C42 C -0.0607(3) 0.3100(3) 0.2877(2)
C43 C 0.0179(3) 0.3193(3) 0.3029(2)
C44 C 0.0594(3) 0.3746(3) 0.2727(2)
C45 C 0.0237(3) 0.4251(3) 0.2269(2)
C46 C 0.0765(3) 0.4409(2) 0.1734(3)
C47 C 0.0516(3) 0.4506(3) 0.1078(3)
C48 C -0.0272(3) 0.4426(3) 0.0920(2)
C49 C -0.0337(3) 0.4059(3) 0.0286(2)
C50 C -0.0896(3) 0.3543(3) 0.0178(2)
C51 C -0.1409(3) 0.3374(3) 0.0706(2)
C52 C -0.1577(3) 0.2587(3) 0.0678(3)
C53 C -0.1675(3) 0.2187(3) 0.1263(3)
C54 C -0.1613(3) 0.2548(3) 0.1907(3)
C55 C -0.1456(3) 0.3309(3) 0.1927(3)
C56 C -0.1347(3) 0.3726(3) 0.1326(3)
C57 C -0.0776(3) 0.4265(3) 0.1438(2)
C58 C -0.0506(3) 0.4177(3) 0.2123(2)
C59 C -0.0946(3) 0.3584(3) 0.2433(3)
O1 O 0.24866(18) 0.2020(2) 0.05481(17)
O2 O 0.1574(2) 0.1621(2) -0.06087(18)
O3 O 0.0798(2) 0.04573(19) 0.01947(17)
O4 O 0.1571(2) -0.0621(2) 0.0974(2)
O5 O 0.2534(2) 0.0167(2) 0.09557(19)
O6 O 0.3359(2) 0.1028(2) 0.13064(17)
C60 C 0.0514(3) 0.2310(3) 0.1207(2)
O7 O 0.0114(3) 0.2701(3) 0.1400(2)
loop_
_geom_bond_atom_site_label_1
_geom_bond_atom_site_label_2
_geom_bond_site_symmetry_1
_geom_bond_site_symmetry_2
C1 C3 1_555 1_555
C2 C4 1_555 1_555
C3 C4 1_555 1_555
C4 C8 1_555 1_555
C5 C3 1_555 1_555
C6 C5 1_555 1_555
C7 C6 1_555 1_555
C8 C7 1_555 1_555
C9 C8 1_555 1_555
C10 C9 1_555 1_555
C11 C10 1_555 1_555
C12 C11 1_555 1_555
C13 C12 1_555 1_555
C14 C13 1_555 1_555
C15 C14 1_555 1_555
C16 C15 1_555 1_555
C17 C16 1_555 1_555
C18 C17 1_555 1_555
C19 C5 1_555 1_555
C20 C19 1_555 1_555
C21 C6 1_555 1_555
C22 C21 1_555 1_555
C23 C22 1_555 1_555
C24 C7 1_555 1_555
C25 C9 1_555 1_555
C26 C25 1_555 1_555
C27 C26 1_555 1_555
C28 C10 1_555 1_555
C29 C12 1_555 1_555
C30 C29 1_555 1_555
C31 C30 1_555 1_555
C32 C13 1_555 1_555
C33 C15 1_555 1_555
C34 C33 1_555 1_555
C35 C34 1_555 1_555
C36 C16 1_555 1_555
C37 C18 1_555 1_555
C38 C37 1_555 1_555
C39 C20 1_555 1_555
C40 C39 1_555 1_555
C41 C22 1_555 1_555
C42 C41 1_555 1_555
C43 C23 1_555 1_555
C44 C26 1_555 1_555
C45 C44 1_555 1_555
C46 C27 1_555 1_555
C47 C30 1_555 1_555
C48 C47 1_555 1_555
C49 C31 1_555 1_555
C50 C34 1_555 1_555
C51 C50 1_555 1_555
C52 C35 1_555 1_555
C53 C38 1_555 1_555
C54 C40 1_555 1_555
C55 C54 1_555 1_555
C56 C51 1_555 1_555
C57 C48 1_555 1_555
C58 C45 1_555 1_555
C59 C42 1_555 1_555
O1 C11 1_555 1_555
O2 C14 1_555 1_555
O3 C17 1_555 1_555
O4 C1 1_555 1_555
O5 C1 1_555 1_555
O6 C2 1_555 1_555
C60 O7 1_555 1_555
C2 O5 1_555 1_555
C18 C19 1_555 1_555
C20 C21 1_555 1_555
C23 C24 1_555 1_555
C24 C25 1_555 1_555
C27 C28 1_555 1_555
C28 C29 1_555 1_555
C31 C32 1_555 1_555
C32 C33 1_555 1_555
C35 C36 1_555 1_555
C36 C37 1_555 1_555
C38 C39 1_555 1_555
C40 C41 1_555 1_555
C42 C43 1_555 1_555
C43 C44 1_555 1_555
C45 C46 1_555 1_555
C46 C47 1_555 1_555
C48 C49 1_555 1_555
C49 C50 1_555 1_555
C51 C52 1_555 1_555
C52 C53 1_555 1_555
C53 C54 1_555 1_555
C55 C56 1_555 1_555
C55 C59 1_555 1_555
C56 C57 1_555 1_555
C57 C58 1_555 1_555
C58 C59 1_555 1_555

#END
