
#######################################################################
#
#                 Cambridge Crystallographic Data Centre
#                                CCDC 
#
#######################################################################
#
# If this CIF has been generated from an entry in the Cambridge 
# Structural Database, then it will include bibliographic, chemical, 
# crystal, experimental, refinement or atomic coordinate data resulting 
# from the CCDC's data processing and validation procedures.
#
#######################################################################

data_YIQRIC
_chemical_formula_moiety         'C16 H20 Br1 N1 O1'
_chemical_name_systematic        
1-(4-bromophenyl)-3-(hex-3-en-3-yl)pyrrolidin-2-one
_symmetry_cell_setting           orthorhombic
_symmetry_space_group_name_H-M   'P 21 21 21'
_symmetry_Int_Tables_number      19
_space_group_name_Hall           'P 2ac 2ab'
loop_
_symmetry_equiv_pos_site_id
_symmetry_equiv_pos_as_xyz
1 x,y,z
2 1/2-x,-y,1/2+z
3 -x,1/2+y,1/2-z
4 1/2+x,1/2-y,-z
_cell_length_a                   8.3158(4)
_cell_length_b                   10.5058(4)
_cell_length_c                   34.6465(16)
_cell_angle_alpha                90
_cell_angle_beta                 90
_cell_angle_gamma                90
_cell_volume                     3026.86
_exptl_crystal_colour            colorless
_exptl_crystal_description       plate
_cell_formula_units_Z            8
loop_
_atom_site_label
_atom_site_type_symbol
_atom_site_fract_x
_atom_site_fract_y
_atom_site_fract_z
Br1 Br 0.01153(10) 0.74782(8) 0.13610(2)
O1 O 0.2607(5) 0.6069(4) 0.32368(14)
N1 N 0.1213(6) 0.7908(5) 0.30980(16)
C1 C 0.1548(7) 0.6773(6) 0.2081(2)
H1 H 0.2062 0.6147 0.1937
C2 C -0.0199(7) 0.8606(5) 0.2105(2)
H2 H -0.0858 0.9193 0.1982
C3 C 0.0590(8) 0.9002(5) 0.3311(2)
H3 H -0.0558 0.9093 0.3269
H4 H 0.1121 0.9778 0.3228
C4 C 0.1798(7) 0.6840(5) 0.24732(19)
H5 H 0.2481 0.6261 0.2593
C5 C 0.0533(7) 0.7633(6) 0.18996(19)
C6 C 0.2270(8) 0.7712(6) 0.37245(18)
H6 H 0.3306 0.8157 0.3726
C7 C 0.0940(9) 0.8733(8) 0.3729(2)
H7 H -0.0013 0.8419 0.3859
H8 H 0.1307 0.9497 0.3859
C8 C 0.2272(10) 0.6800(8) 0.4060(2)
C9 C 0.0920(11) 0.5859(8) 0.4086(3)
H9 H 0.1367 0.5018 0.4129
H10 H 0.0356 0.5843 0.3841
C10 C -0.0294(17) 0.6154(14) 0.4409(3)
H11 H -0.0975 0.6845 0.4330
H12 H 0.0275 0.6387 0.4639
H13 H -0.0939 0.5414 0.4458
C11 C 0.3485(14) 0.6874(11) 0.4316(3)
H14 H 0.4222 0.7528 0.4277
C12 C 0.1024(7) 0.7785(5) 0.26930(18)
C13 C 0.2078(8) 0.7099(6) 0.33325(18)
C14 C 0.378(2) 0.6047(16) 0.4645(4)
H15 H 0.2945 0.5611 0.4767
C15 C 0.0073(8) 0.8685(5) 0.2497(2)
H16 H -0.0385 0.9351 0.2635
C16 C 0.532(3) 0.595(3) 0.4765(8)
H17 H 0.5909 0.5430 0.4587
H18 H 0.5341 0.5560 0.5016
H19 H 0.5791 0.6779 0.4778
Br2 Br 0.30341(10) 0.20583(8) 0.14280(3)
O2 O 0.3932(6) 0.0615(4) 0.33657(15)
N2 N 0.4439(6) 0.2630(5) 0.31432(18)
C18 C 0.4433(8) 0.1704(5) 0.3416(2)
C19 C 0.4077(7) 0.2504(6) 0.2751(2)
C20 C 0.4585(7) 0.3393(6) 0.2483(3)
H24 H 0.5156 0.4096 0.2571
C21 C 0.4295(8) 0.3302(7) 0.2093(3)
H25 H 0.4681 0.3913 0.1922
C22 C 0.3409(7) 0.2267(6) 0.1961(2)
C23 C 0.3126(8) 0.1484(6) 0.2608(2)
H26 H 0.2700 0.0887 0.2779
C24 C 0.2835(8) 0.1377(6) 0.2220(2)
H27 H 0.2238 0.0691 0.2129
C25 C 0.5206(10) 0.3809(6) 0.3297(3)
H28 H 0.4654 0.4567 0.3208
H29 H 0.6332 0.3859 0.3224
C26 C 0.5161(11) 0.2203(6) 0.3781(2)
H30 H 0.6310 0.1995 0.3775
C27 C 0.5010(12) 0.3628(7) 0.3726(3)
H31 H 0.3968 0.3929 0.3812
H32 H 0.5844 0.4076 0.3867
C28 C 0.4465(14) 0.1625(8) 0.4150(3)
C29 C 0.4954(14) 0.0310(9) 0.4224(3)
H33 H 0.4931 -0.0166 0.3984
H34 H 0.4197 -0.0083 0.4400
C30 C 0.3404(13) 0.2216(15) 0.4370(3)
H35 H 0.3128 0.3036 0.4293
C31 C 0.6651(16) 0.0249(15) 0.4397(4)
H36 H 0.7382 -0.0095 0.4210
H37 H 0.6641 -0.0286 0.4622
H38 H 0.6991 0.1090 0.4468
C32 C 0.2584(18) 0.1733(18) 0.4729(4)
H39 H 0.2832 0.0838 0.4765
H40 H 0.2980 0.2195 0.4952
C33 C 0.086(2) 0.190(2) 0.4699(4)
H41 H 0.0502 0.1580 0.4453
H42 H 0.0602 0.2784 0.4720
H43 H 0.0340 0.1434 0.4902
H20? H 0.3482 0.5194 0.4642
C17? C 0.447(5) 0.656(4) 0.4946(8)
H21? H 0.5029 0.7317 0.4870
H22? H 0.5221 0.5965 0.5055
H23? H 0.3669 0.6769 0.5136
loop_
_geom_bond_atom_site_label_1
_geom_bond_atom_site_label_2
_geom_bond_site_symmetry_1
_geom_bond_site_symmetry_2
Br1 C5 1_555 1_555
O1 C13 1_555 1_555
N1 C3 1_555 1_555
C1 H1 1_555 1_555
C2 H2 1_555 1_555
C3 H3 1_555 1_555
H4 C3 1_555 1_555
C4 C1 1_555 1_555
H5 C4 1_555 1_555
C5 C1 1_555 1_555
C6 H6 1_555 1_555
C7 C3 1_555 1_555
H7 C7 1_555 1_555
H8 C7 1_555 1_555
C8 C6 1_555 1_555
C9 C8 1_555 1_555
H9 C9 1_555 1_555
H10 C9 1_555 1_555
C10 C9 1_555 1_555
H11 C10 1_555 1_555
H12 C10 1_555 1_555
H13 C10 1_555 1_555
C11 C8 1_555 1_555
H14 C11 1_555 1_555
C12 N1 1_555 1_555
C13 N1 1_555 1_555
C14 C11 1_555 1_555
H15 C14 1_555 1_555
C15 C2 1_555 1_555
H16 C15 1_555 1_555
C16 C14 1_555 1_555
H17 C16 1_555 1_555
H18 C16 1_555 1_555
H19 C16 1_555 1_555
Br2 C22 1_555 1_555
O2 C18 1_555 1_555
N2 C18 1_555 1_555
C18 C26 1_555 1_555
C19 N2 1_555 1_555
C20 C19 1_555 1_555
H24 C20 1_555 1_555
C21 C20 1_555 1_555
H25 C21 1_555 1_555
C22 C21 1_555 1_555
C23 C19 1_555 1_555
H26 C23 1_555 1_555
C24 C22 1_555 1_555
H27 C24 1_555 1_555
C25 N2 1_555 1_555
H28 C25 1_555 1_555
H29 C25 1_555 1_555
C26 H30 1_555 1_555
C27 C25 1_555 1_555
H31 C27 1_555 1_555
H32 C27 1_555 1_555
C28 C26 1_555 1_555
C29 C28 1_555 1_555
H33 C29 1_555 1_555
H34 C29 1_555 1_555
C30 C28 1_555 1_555
H35 C30 1_555 1_555
C31 C29 1_555 1_555
H36 C31 1_555 1_555
H37 C31 1_555 1_555
H38 C31 1_555 1_555
C32 C30 1_555 1_555
H39 C32 1_555 1_555
H40 C32 1_555 1_555
C33 C32 1_555 1_555
H41 C33 1_555 1_555
H42 C33 1_555 1_555
H43 C33 1_555 1_555
C2 C5 1_555 1_555
C4 C12 1_555 1_555
C6 C7 1_555 1_555
C6 C13 1_555 1_555
C12 C15 1_555 1_555
C23 C24 1_555 1_555
C26 C27 1_555 1_555

#END
