
#######################################################################
#
#                 Cambridge Crystallographic Data Centre
#                                CCDC 
#
#######################################################################
#
# If this CIF has been generated from an entry in the Cambridge 
# Structural Database, then it will include bibliographic, chemical, 
# crystal, experimental, refinement or atomic coordinate data resulting 
# from the CCDC's data processing and validation procedures.
#
#######################################################################

data_YIQWAZ
_chemical_formula_moiety         'C26 H19 N1 O1 S1'
_chemical_name_systematic        
'[4-(1-methyl-10H-phenothiazin-10-yl)phenyl](phenyl)methanone'
_symmetry_cell_setting           monoclinic
_symmetry_space_group_name_H-M   'P 21/c'
_symmetry_Int_Tables_number      14
_space_group_name_Hall           '-P 2ybc'
loop_
_symmetry_equiv_pos_site_id
_symmetry_equiv_pos_as_xyz
1 x,y,z
2 -x,1/2+y,1/2-z
3 -x,-y,-z
4 x,1/2-y,1/2+z
_cell_length_a                   12.5139(5)
_cell_length_b                   11.0535(4)
_cell_length_c                   15.2291(6)
_cell_angle_alpha                90
_cell_angle_beta                 107.8012(15)
_cell_angle_gamma                90
_cell_volume                     2005.67
_exptl_crystal_colour            colorless
_exptl_crystal_description       irregular
_cell_formula_units_Z            4
_exptl_crystal_recrystallization_method dichloromethane/hexane/ethylacetate
_exptl_crystal_preparation       Luminescent
loop_
_atom_site_label
_atom_site_type_symbol
_atom_site_fract_x
_atom_site_fract_y
_atom_site_fract_z
O1 O 0.36447(17) 0.73124(15) 0.69177(10)
N1 N 0.17751(13) 0.19123(13) 0.65143(10)
C1 C 0.36536(18) 0.65957(17) 0.75326(12)
C2 C 0.31713(15) 0.53731(16) 0.73058(11)
C3 C 0.33921(15) 0.44112(15) 0.79272(11)
H1 H 0.3874 0.4534 0.8537
C4 C 0.29240(15) 0.32809(15) 0.76744(12)
H2 H 0.3079 0.2644 0.8114
C5 C 0.22216(14) 0.30666(15) 0.67736(11)
C6 C 0.20073(15) 0.40250(16) 0.61421(11)
H3 H 0.1539 0.3901 0.5528
C7 C 0.24751(16) 0.51488(16) 0.64097(11)
H4 H 0.2320 0.5789 0.5972
C8 C 0.41514(15) 0.70001(16) 0.85108(11)
C9 C 0.37054(15) 0.66629(16) 0.92042(11)
H5 H 0.3113 0.6089 0.9081
C10 C 0.41245(17) 0.71636(19) 1.00772(12)
H6 H 0.3818 0.6930 1.0551
C11 C 0.49823(17) 0.7998(2) 1.02610(13)
H7 H 0.5257 0.8348 1.0858
C12 C 0.54425(18) 0.8326(2) 0.95843(15)
H8 H 0.6043 0.8891 0.9716
C13 C 0.50305(17) 0.78330(19) 0.87108(14)
H9 H 0.5349 0.8063 0.8244
S1 S -0.0522(3) 0.1767(5) 0.66231(16)
C14 C 0.1608(2) 0.1105(3) 0.7251(2)
C15 C 0.0598(2) 0.0997(3) 0.7435(2)
C16 C 0.0534(13) 0.027(2) 0.8151(15)
H10 H -0.0161 0.0186 0.8276
C17 C 0.1462(11) -0.0328(16) 0.8685(12)
H11 H 0.1406 -0.0776 0.9201
C18 C 0.2484(11) -0.0309(11) 0.8504(9)
H12 H 0.3110 -0.0764 0.8862
C19 C 0.2546(2) 0.0409(3) 0.7769(2)
C20 C 0.3720(3) 0.0396(3) 0.7408(2)
H13 H 0.4360 0.0076 0.7900
H14 H 0.3887 0.1221 0.7255
H15 H 0.3581 -0.0119 0.6860
C21 C 0.0999(2) 0.1778(3) 0.56141(18)
C22 C -0.0115(3) 0.1728(3) 0.5600(2)
C23 C -0.0974(7) 0.1634(9) 0.4742(6)
H16 H -0.1740 0.1582 0.4718
C24 C -0.0666(5) 0.1618(7) 0.3934(5)
H17 H -0.1226 0.1601 0.3349
C25 C 0.0454(4) 0.1627(7) 0.3990(5)
H18 H 0.0651 0.1587 0.3435
C26 C 0.1298(3) 0.1692(3) 0.4814(2)
H19 H 0.2064 0.1678 0.4834
S2? S -0.0506(6) 0.1804(9) 0.6805(3)
C27? C 0.0751(4) 0.1755(4) 0.5715(3)
C28? C -0.0339(4) 0.1752(5) 0.5700(3)
C29? C -0.1176(12) 0.1732(18) 0.4884(10)
H20? H -0.1934 0.1772 0.4884
C30? C -0.0953(11) 0.1656(13) 0.4068(9)
H21? H -0.1562 0.1647 0.3513
C31? C 0.0115(9) 0.1592(14) 0.4016(9)
H22? H 0.0262 0.1526 0.3442
C32? C 0.1001(5) 0.1627(5) 0.4871(4)
C33? C 0.2249(4) 0.1460(5) 0.4868(4)
H23? H 0.2256 0.1017 0.4313
H24? H 0.2669 0.1003 0.5416
H25? H 0.2598 0.2255 0.4873
C34? C 0.1826(4) 0.1098(5) 0.7169(3)
C35? C 0.0790(4) 0.1038(5) 0.7331(4)
C36? C 0.063(2) 0.038(4) 0.809(3)
H26? H -0.0068 0.0353 0.8216
C37? C 0.161(2) -0.023(3) 0.865(2)
H27? H 0.1602 -0.0664 0.9188
C38? C 0.257(2) -0.016(2) 0.8393(16)
H28? H 0.3206 -0.0568 0.8787
C39? C 0.2753(4) 0.0429(5) 0.7630(3)
H29? H 0.3420 0.0371 0.7458
loop_
_geom_bond_atom_site_label_1
_geom_bond_atom_site_label_2
_geom_bond_site_symmetry_1
_geom_bond_site_symmetry_2
O1 C1 1_555 1_555
N1 C5 1_555 1_555
C1 C2 1_555 1_555
C2 C3 1_555 1_555
C3 H1 1_555 1_555
C4 C3 1_555 1_555
H2 C4 1_555 1_555
C5 C4 1_555 1_555
C6 C5 1_555 1_555
H3 C6 1_555 1_555
C7 C2 1_555 1_555
H4 C7 1_555 1_555
C8 C1 1_555 1_555
C9 C8 1_555 1_555
H5 C9 1_555 1_555
C10 C9 1_555 1_555
H6 C10 1_555 1_555
C11 C10 1_555 1_555
H7 C11 1_555 1_555
C12 C11 1_555 1_555
H8 C12 1_555 1_555
C13 C8 1_555 1_555
H9 C13 1_555 1_555
S1 C15 1_555 1_555
C14 N1 1_555 1_555
C15 C14 1_555 1_555
C16 C15 1_555 1_555
H10 C16 1_555 1_555
C17 C16 1_555 1_555
H11 C17 1_555 1_555
C18 C17 1_555 1_555
H12 C18 1_555 1_555
C19 C14 1_555 1_555
C20 C19 1_555 1_555
H13 C20 1_555 1_555
H14 C20 1_555 1_555
H15 C20 1_555 1_555
C21 N1 1_555 1_555
C22 S1 1_555 1_555
C23 C22 1_555 1_555
H16 C23 1_555 1_555
C24 C23 1_555 1_555
H17 C24 1_555 1_555
C25 C24 1_555 1_555
H18 C25 1_555 1_555
C26 C21 1_555 1_555
H19 C26 1_555 1_555
C6 C7 1_555 1_555
C12 C13 1_555 1_555
C18 C19 1_555 1_555
C21 C22 1_555 1_555
C25 C26 1_555 1_555

#END
