
#######################################################################
#
#                 Cambridge Crystallographic Data Centre
#                                CCDC 
#
#######################################################################
#
# If this CIF has been generated from an entry in the Cambridge 
# Structural Database, then it will include bibliographic, chemical, 
# crystal, experimental, refinement or atomic coordinate data resulting 
# from the CCDC's data processing and validation procedures.
#
#######################################################################

data_YIQXUU01
_chemical_formula_moiety         'C25 H17 N1 O1 S1'
_chemical_name_systematic        
'[4-(10H-phenothiazin-10-yl)phenyl](phenyl)methanone'
_symmetry_cell_setting           monoclinic
_symmetry_space_group_name_H-M   'P 21/n'
_symmetry_Int_Tables_number      14
_space_group_name_Hall           '-P 2yn'
loop_
_symmetry_equiv_pos_site_id
_symmetry_equiv_pos_as_xyz
1 x,y,z
2 1/2-x,1/2+y,1/2-z
3 -x,-y,-z
4 1/2+x,1/2-y,1/2+z
_cell_length_a                   10.5306(5)
_cell_length_b                   10.6118(5)
_cell_length_c                   16.7078(8)
_cell_angle_alpha                90
_cell_angle_beta                 99.9386(18)
_cell_angle_gamma                90
_cell_volume                     1839.05
_exptl_crystal_colour            colorless
_exptl_crystal_description       block
_cell_formula_units_Z            4
_exptl_crystal_recrystallization_method dichloromethane
_exptl_crystal_preparation       Luminescent
loop_
_atom_site_label
_atom_site_type_symbol
_atom_site_fract_x
_atom_site_fract_y
_atom_site_fract_z
S1 S 0.45042(3) 0.51500(3) 0.19823(2)
O1 O -0.15277(9) 1.06036(8) 0.09614(6)
N1 N 0.21466(9) 0.58648(8) 0.08500(6)
C1 C -0.16553(10) 0.95458(10) 0.12337(7)
C2 C -0.06710(10) 0.85598(10) 0.11945(6)
C3 C -0.08289(10) 0.72842(10) 0.13658(6)
H1 H -0.1591 0.7021 0.1550
C4 C 0.00988(10) 0.63934(10) 0.12732(6)
H2 H -0.0028 0.5537 0.1405
C5 C 0.12256(10) 0.67496(10) 0.09854(6)
C6 C 0.14008(10) 0.80354(10) 0.08281(7)
H3 H 0.2166 0.8304 0.0650
C7 C 0.04708(10) 0.89091(10) 0.09302(7)
H4 H 0.0609 0.9771 0.0818
C8 C 0.33020(10) 0.62255(10) 0.05683(7)
C9 C 0.44837(10) 0.59344(10) 0.10487(7)
C10 C 0.56317(11) 0.62331(11) 0.07863(7)
H5 H 0.6435 0.6018 0.1110
C11 C 0.55988(12) 0.68472(11) 0.00490(8)
H6 H 0.6380 0.7085 -0.0121
C12 C 0.44235(13) 0.71129(11) -0.04388(8)
H7 H 0.4404 0.7517 -0.0948
C13 C 0.32731(12) 0.67913(11) -0.01865(7)
H8 H 0.2472 0.6957 -0.0528
C14 C 0.21246(10) 0.45871(9) 0.11155(6)
C15 C 0.31905(10) 0.41309(10) 0.16564(6)
C16 C 0.32277(11) 0.28753(11) 0.19056(7)
H9 H 0.3954 0.2565 0.2269
C17 C 0.22031(11) 0.20808(11) 0.16217(7)
H10 H 0.2217 0.1233 0.1805
C18 C 0.11538(11) 0.25216(10) 0.10693(7)
H11 H 0.0460 0.1971 0.0869
C19 C 0.11236(10) 0.37710(10) 0.08107(7)
H12 H 0.0417 0.4067 0.0425
C20 C -0.28534(10) 0.92556(10) 0.15702(7)
C21 C -0.28563(11) 0.85817(11) 0.22875(7)
H13 H -0.2069 0.8275 0.2589
C22 C -0.40116(12) 0.83584(12) 0.25614(8)
H14 H -0.4012 0.7897 0.3049
C23 C -0.51662(12) 0.88093(12) 0.21236(8)
H15 H -0.5955 0.8646 0.2308
C24 C -0.51662(11) 0.94999(12) 0.14156(8)
H16 H -0.5953 0.9818 0.1120
C25 C -0.40141(11) 0.97229(11) 0.11418(8)
H17 H -0.4016 1.0197 0.0659
loop_
_geom_bond_atom_site_label_1
_geom_bond_atom_site_label_2
_geom_bond_site_symmetry_1
_geom_bond_site_symmetry_2
S1 C9 1_555 1_555
O1 C1 1_555 1_555
N1 C5 1_555 1_555
C1 C2 1_555 1_555
C2 C3 1_555 1_555
C3 H1 1_555 1_555
C4 C3 1_555 1_555
H2 C4 1_555 1_555
C5 C4 1_555 1_555
C6 C5 1_555 1_555
H3 C6 1_555 1_555
C7 C2 1_555 1_555
H4 C7 1_555 1_555
C8 N1 1_555 1_555
C9 C8 1_555 1_555
C10 C9 1_555 1_555
H5 C10 1_555 1_555
C11 C10 1_555 1_555
H6 C11 1_555 1_555
C12 C11 1_555 1_555
H7 C12 1_555 1_555
C13 C8 1_555 1_555
H8 C13 1_555 1_555
C14 N1 1_555 1_555
C15 S1 1_555 1_555
C16 C15 1_555 1_555
H9 C16 1_555 1_555
C17 C16 1_555 1_555
H10 C17 1_555 1_555
C18 C17 1_555 1_555
H11 C18 1_555 1_555
C19 C14 1_555 1_555
H12 C19 1_555 1_555
C20 C1 1_555 1_555
C21 C20 1_555 1_555
H13 C21 1_555 1_555
C22 C21 1_555 1_555
H14 C22 1_555 1_555
C23 C22 1_555 1_555
H15 C23 1_555 1_555
C24 C23 1_555 1_555
H16 C24 1_555 1_555
C25 C20 1_555 1_555
H17 C25 1_555 1_555
C6 C7 1_555 1_555
C12 C13 1_555 1_555
C14 C15 1_555 1_555
C18 C19 1_555 1_555
C24 C25 1_555 1_555

#END
