
#######################################################################
#
#                 Cambridge Crystallographic Data Centre
#                                CCDC 
#
#######################################################################
#
# If this CIF has been generated from an entry in the Cambridge 
# Structural Database, then it will include bibliographic, chemical, 
# crystal, experimental, refinement or atomic coordinate data resulting 
# from the CCDC's data processing and validation procedures.
#
#######################################################################

data_YIQZOP
_chemical_formula_moiety         'C51 H47 N3 O14 S6,C4 H8 O1'
_chemical_name_systematic        
'4-(bis((4-(bis((4-methylphenyl)sulfonyl)amino)phenyl)sulfonyl)amino)benzyl 2-methylacrylate tetrahydrofuran solvate'
_symmetry_cell_setting           triclinic
_symmetry_space_group_name_H-M   'P -1'
_symmetry_Int_Tables_number      2
_space_group_name_Hall           '-P 1'
loop_
_symmetry_equiv_pos_site_id
_symmetry_equiv_pos_as_xyz
1 x,y,z
2 -x,-y,-z
_cell_length_a                   9.5883(2)
_cell_length_b                   16.1752(4)
_cell_length_c                   19.9460(5)
_cell_angle_alpha                83.8125(9)
_cell_angle_beta                 84.7979(9)
_cell_angle_gamma                84.7323(10)
_cell_volume                     3052.26
_exptl_crystal_colour            colorless
_exptl_crystal_description       Cube
_cell_formula_units_Z            2
loop_
_atom_site_label
_atom_site_type_symbol
_atom_site_fract_x
_atom_site_fract_y
_atom_site_fract_z
S1 S 0.39171(14) 0.17088(9) 0.56592(6)
S2 S 0.04464(11) 0.28983(7) 0.85883(6)
S3 S 0.32294(11) 0.35033(6) 0.86930(5)
S4 S 0.12393(15) 0.15715(9) 0.50596(6)
S5 S 0.46523(12) 0.05940(7) 0.19706(6)
S6 S 0.20223(11) 0.15623(6) 0.16188(5)
O1 O -0.0462(3) 0.3040(2) 0.80597(17)
O2 O 0.0174(3) 0.33489(19) 0.91763(16)
O3 O 0.4466(3) 0.35085(19) 0.82400(16)
O4 O 0.3231(3) 0.30219(18) 0.93277(15)
O5 O 0.4037(5) 0.2347(3) 0.51180(17)
O6 O 0.5069(4) 0.1103(2) 0.57883(18)
O7 O 0.5382(4) 0.1158(2) 0.1487(2)
O8 O 0.5192(4) 0.0323(2) 0.2603(2)
O9 O 0.0622(3) 0.1491(2) 0.19152(17)
O10 O 0.2485(4) 0.12205(19) 0.10015(14)
O11 O 0.0118(4) 0.1067(3) 0.52668(18)
O12 O 0.1069(5) 0.2445(3) 0.5115(2)
N1 N 0.2016(3) 0.31666(19) 0.82320(17)
N2 N 0.3051(4) 0.1061(2) 0.21929(16)
N3 N 0.2572(4) 0.1155(3) 0.55296(18)
C1 C 0.3382(5) 0.2153(3) 0.6417(2)
C2 C 0.2634(6) 0.2922(3) 0.6397(2)
C3 C 0.2200(6) 0.3261(3) 0.7008(2)
C4 C 0.2507(4) 0.2822(2) 0.76042(19)
C5 C 0.3293(4) 0.2055(3) 0.7620(2)
C6 C 0.3740(4) 0.1720(3) 0.7018(2)
C7 C 0.0690(4) 0.1823(3) 0.8825(2)
C8 C 0.1287(5) 0.1539(3) 0.9423(2)
C9 C 0.1511(5) 0.0689(3) 0.9584(2)
C10 C 0.1187(5) 0.0107(3) 0.9166(2)
C11 C 0.0570(5) 0.0423(3) 0.8581(3)
C12 C 0.0346(5) 0.1279(3) 0.8394(2)
C13 C 0.1468(5) -0.0785(3) 0.9345(3)
C14 C 0.2630(5) 0.4538(2) 0.8813(2)
C15 C 0.2066(6) 0.4736(3) 0.9437(2)
C16 C 0.1677(6) 0.5567(3) 0.9534(3)
C17 C 0.1871(6) 0.6186(3) 0.9023(3)
C18 C 0.2412(9) 0.5958(3) 0.8413(3)
C19 C 0.2832(8) 0.5145(3) 0.8290(3)
C20 C 0.1528(9) 0.7093(3) 0.9133(4)
C21 C 0.1830(5) 0.1407(3) 0.4214(2)
C22 C 0.1445(5) 0.0708(3) 0.3960(2)
C23 C 0.1853(5) 0.0593(3) 0.3285(2)
C24 C 0.2652(5) 0.1176(3) 0.2900(2)
C25 C 0.3081(6) 0.1853(3) 0.3163(2)
C26 C 0.2655(7) 0.1967(3) 0.3838(2)
C27 C 0.4310(4) -0.0276(3) 0.1568(2)
C28 C 0.3483(5) -0.0872(3) 0.1939(3)
C29 C 0.3249(5) -0.1556(3) 0.1615(3)
C30 C 0.3792(5) -0.1667(3) 0.0961(2)
C31 C 0.4652(6) -0.1081(3) 0.0627(3)
C32 C 0.4893(5) -0.0392(3) 0.0943(3)
C33 C 0.3447(6) -0.2409(3) 0.0609(3)
C34 C 0.2365(5) 0.2610(3) 0.1538(2)
C35 C 0.3481(6) 0.2880(3) 0.1111(3)
C36 C 0.3703(7) 0.3727(4) 0.1058(4)
C37 C 0.2874(7) 0.4287(3) 0.1387(4)
C38 C 0.1762(8) 0.4011(4) 0.1798(4)
C39 C 0.1484(6) 0.3179(3) 0.1893(3)
C40 C 0.3169(9) 0.5203(4) 0.1298(5)
C41 C 0.2501(5) 0.0345(3) 0.5859(2)
C42 C 0.1781(5) 0.0227(4) 0.6497(2)
C43 C 0.1752(6) -0.0559(4) 0.6838(3)
C44 C 0.2486(6) -0.1233(4) 0.6566(3)
C45 C 0.3162(7) -0.1124(4) 0.5918(4)
C46 C 0.3209(6) -0.0328(4) 0.5574(3)
C47 C 0.2556(13) -0.2059(5) 0.7019(5)
O13 O 0.2416(17) -0.2779(6) 0.6622(4)
C48 C 0.327(2) -0.3508(11) 0.6626(11)
O14 O 0.440(2) -0.3388(14) 0.6798(14)
C49 C 0.306(2) -0.4241(12) 0.6322(9)
C50 C 0.420(3) -0.4851(16) 0.622(2)
C51 C 0.181(3) -0.4353(19) 0.6140(17)
H1 H 0.2407 0.3214 0.5971
H2 H 0.1684 0.3799 0.7001
H3 H 0.3514 0.1765 0.8048
H4 H 0.4288 0.1193 0.7016
H5 H 0.1512 0.1937 0.9713
H6 H 0.1923 0.0474 0.9995
H7 H 0.0293 0.0051 0.8282
H8 H -0.0053 0.1495 0.7980
H9 H 0.1171 -0.1082 0.8999
H10 H 0.0963 -0.0948 0.9769
H11 H 0.2457 -0.0914 0.9382
H12 H 0.1953 0.4301 0.9800
H13 H 0.1252 0.5716 0.9963
H14 H 0.2559 0.6383 0.8046
H15 H 0.3219 0.4993 0.7855
H16 H 0.1736 0.7440 0.8721
H17 H 0.2066 0.7239 0.9479
H18 H 0.0544 0.7176 0.9272
H19 H 0.0901 0.0318 0.4244
H20 H 0.1594 0.0112 0.3097
H21 H 0.3654 0.2232 0.2883
H22 H 0.2920 0.2437 0.4038
H23 H 0.3132 -0.0790 0.2396
H24 H 0.2676 -0.1974 0.1843
H25 H 0.5078 -0.1166 0.0183
H26 H 0.5477 0.0016 0.0710
H27 H 0.3917 -0.2385 0.0162
H28 H 0.2451 -0.2392 0.0580
H29 H 0.3762 -0.2918 0.0865
H30 H 0.4080 0.2488 0.0866
H31 H 0.4491 0.3925 0.0774
H32 H 0.1140 0.4405 0.2031
H33 H 0.0721 0.2984 0.2195
H34 H 0.2464 0.5509 0.1568
H35 H 0.3141 0.5420 0.0831
H36 H 0.4079 0.5260 0.1444
H37 H 0.1287 0.0699 0.6691
H38 H 0.1237 -0.0639 0.7272
H39 H 0.3656 -0.1596 0.5723
H40 H 0.3693 -0.0245 0.5132
H41 H 0.3453 -0.2139 0.7226
H42 H 0.1799 -0.2039 0.7383
H43 H 0.3885 -0.5307 0.6007
H44 H 0.4558 -0.5063 0.6647
H45 H 0.4945 -0.4600 0.5923
H46 H 0.1673 -0.4837 0.5940
H47 H 0.1055 -0.3950 0.6210
O15 O 0.1339(7) 0.8495(4) 0.3097(3)
C52 C 0.2047(15) 0.8347(8) 0.3692(7)
C53 C 0.241(3) 0.7471(12) 0.3946(11)
C54 C 0.177(2) 0.6971(8) 0.3451(10)
C55 C 0.0689(18) 0.7718(10) 0.3214(10)
H48 H 0.2917 0.8603 0.3600
H49 H 0.1497 0.8597 0.4056
H50 H 0.3404 0.7345 0.3950
H51 H 0.1964 0.7333 0.4390
H52 H 0.2508 0.6836 0.3110
H53 H 0.1447 0.6466 0.3684
H54 H -0.0080 0.7735 0.3557
H55 H 0.0356 0.7604 0.2797
loop_
_geom_bond_atom_site_label_1
_geom_bond_atom_site_label_2
_geom_bond_site_symmetry_1
_geom_bond_site_symmetry_2
S1 O5 1_555 1_555
S2 O1 1_555 1_555
S3 O3 1_555 1_555
S4 O11 1_555 1_555
S5 O7 1_555 1_555
S6 O9 1_555 1_555
O2 S2 1_555 1_555
O4 S3 1_555 1_555
O6 S1 1_555 1_555
O8 S5 1_555 1_555
O10 S6 1_555 1_555
O12 S4 1_555 1_555
N1 S2 1_555 1_555
N2 S5 1_555 1_555
N3 S1 1_555 1_555
C1 S1 1_555 1_555
C2 C1 1_555 1_555
C3 C2 1_555 1_555
C4 N1 1_555 1_555
C5 C4 1_555 1_555
C6 C1 1_555 1_555
C7 S2 1_555 1_555
C8 C7 1_555 1_555
C9 C8 1_555 1_555
C10 C9 1_555 1_555
C11 C10 1_555 1_555
C12 C7 1_555 1_555
C13 C10 1_555 1_555
C14 S3 1_555 1_555
C15 C14 1_555 1_555
C16 C15 1_555 1_555
C17 C16 1_555 1_555
C18 C17 1_555 1_555
C19 C14 1_555 1_555
C20 C17 1_555 1_555
C21 S4 1_555 1_555
C22 C21 1_555 1_555
C23 C22 1_555 1_555
C24 N2 1_555 1_555
C25 C24 1_555 1_555
C26 C21 1_555 1_555
C27 S5 1_555 1_555
C28 C27 1_555 1_555
C29 C28 1_555 1_555
C30 C29 1_555 1_555
C31 C30 1_555 1_555
C32 C27 1_555 1_555
C33 C30 1_555 1_555
C34 S6 1_555 1_555
C35 C34 1_555 1_555
C36 C35 1_555 1_555
C37 C36 1_555 1_555
C38 C37 1_555 1_555
C39 C34 1_555 1_555
C40 C37 1_555 1_555
C41 N3 1_555 1_555
C42 C41 1_555 1_555
C43 C42 1_555 1_555
C44 C43 1_555 1_555
C45 C44 1_555 1_555
C46 C41 1_555 1_555
C47 C44 1_555 1_555
O13 C47 1_555 1_555
C48 O13 1_555 1_555
O14 C48 1_555 1_555
C49 C48 1_555 1_555
C50 C49 1_555 1_555
C51 C49 1_555 1_555
H1 C2 1_555 1_555
H2 C3 1_555 1_555
H3 C5 1_555 1_555
H4 C6 1_555 1_555
H5 C8 1_555 1_555
H6 C9 1_555 1_555
H7 C11 1_555 1_555
H8 C12 1_555 1_555
H9 C13 1_555 1_555
H10 C13 1_555 1_555
H11 C13 1_555 1_555
H12 C15 1_555 1_555
H13 C16 1_555 1_555
H14 C18 1_555 1_555
H15 C19 1_555 1_555
H16 C20 1_555 1_555
H17 C20 1_555 1_555
H18 C20 1_555 1_555
H19 C22 1_555 1_555
H20 C23 1_555 1_555
H21 C25 1_555 1_555
H22 C26 1_555 1_555
H23 C28 1_555 1_555
H24 C29 1_555 1_555
H25 C31 1_555 1_555
H26 C32 1_555 1_555
H27 C33 1_555 1_555
H28 C33 1_555 1_555
H29 C33 1_555 1_555
H30 C35 1_555 1_555
H31 C36 1_555 1_555
H32 C38 1_555 1_555
H33 C39 1_555 1_555
H34 C40 1_555 1_555
H35 C40 1_555 1_555
H36 C40 1_555 1_555
H37 C42 1_555 1_555
H38 C43 1_555 1_555
H39 C45 1_555 1_555
H40 C46 1_555 1_555
H41 C47 1_555 1_555
H42 C47 1_555 1_555
H43 C50 1_555 1_555
H44 C50 1_555 1_555
H45 C50 1_555 1_555
H46 C51 1_555 1_555
H47 C51 1_555 1_555
O15 C52 1_555 1_555
C52 C53 1_555 1_555
C53 C54 1_555 1_555
C54 C55 1_555 1_555
C55 O15 1_555 1_555
H48 C52 1_555 1_555
H49 C52 1_555 1_555
H50 C53 1_555 1_555
H51 C53 1_555 1_555
H52 C54 1_555 1_555
H53 C54 1_555 1_555
H54 C55 1_555 1_555
H55 C55 1_555 1_555
S3 N1 1_555 1_555
S4 N3 1_555 1_555
S6 N2 1_555 1_555
C3 C4 1_555 1_555
C5 C6 1_555 1_555
C11 C12 1_555 1_555
C18 C19 1_555 1_555
C23 C24 1_555 1_555
C25 C26 1_555 1_555
C31 C32 1_555 1_555
C38 C39 1_555 1_555
C45 C46 1_555 1_555

#END
