
#######################################################################
#
#                 Cambridge Crystallographic Data Centre
#                                CCDC 
#
#######################################################################
#
# If this CIF has been generated from an entry in the Cambridge 
# Structural Database, then it will include bibliographic, chemical, 
# crystal, experimental, refinement or atomic coordinate data resulting 
# from the CCDC's data processing and validation procedures.
#
#######################################################################

data_YIRCEI
_chemical_formula_moiety         'C9 H9 N3 O2 S2'
_chemical_name_systematic        
'(E)-Methyl 3-(2-nitrobenzylidene)dithiocarbazate'
_symmetry_cell_setting           triclinic
_symmetry_space_group_name_H-M   'P -1'
_symmetry_Int_Tables_number      2
_space_group_name_Hall           '-P 1'
loop_
_symmetry_equiv_pos_site_id
_symmetry_equiv_pos_as_xyz
1 x,y,z
2 -x,-y,-z
_cell_length_a                   7.5261(12)
_cell_length_b                   10.7128(16)
_cell_length_c                   14.5343(17)
_cell_angle_alpha                78.588(6)
_cell_angle_beta                 87.095(5)
_cell_angle_gamma                84.612(6)
_cell_volume                     1142.98
_exptl_crystal_colour            yellow
_exptl_crystal_description       prism
_cell_formula_units_Z            4
_exptl_crystal_recrystallization_method ethanol
loop_
_atom_site_label
_atom_site_type_symbol
_atom_site_fract_x
_atom_site_fract_y
_atom_site_fract_z
S1 S -0.10244(10) 0.28477(6) 0.50066(5)
S2 S -0.04064(8) 0.25046(5) 0.29873(4)
N1 N 0.1634(3) 0.88846(18) 0.18824(14)
N2 N 0.0369(2) 0.50343(16) 0.26593(12)
N3 N -0.0124(3) 0.46023(17) 0.35805(13)
H1 H -0.0185 0.5114 0.3970
O1 O 0.1188(3) 1.00252(16) 0.16247(14)
O2 O 0.2133(3) 0.84171(18) 0.26726(13)
C1 C 0.1201(3) 0.67717(18) 0.14835(14)
C2 C 0.1581(3) 0.80514(18) 0.12003(14)
C3 C 0.1920(3) 0.8603(2) 0.02687(15)
H3 H 0.2125 0.9463 0.0103
C4 C 0.1951(3) 0.7869(2) -0.04046(16)
H4 H 0.2187 0.8226 -0.1031
C5 C 0.1629(3) 0.6593(2) -0.01493(16)
H5 H 0.1668 0.6091 -0.0605
C6 C 0.1251(3) 0.6061(2) 0.07770(16)
H6 H 0.1025 0.5205 0.0933
C7 C 0.0663(3) 0.6209(2) 0.24519(15)
H7 H 0.0539 0.6708 0.2911
C8 C -0.0516(3) 0.3381(2) 0.38814(16)
C9 C -0.0977(4) 0.0963(2) 0.3612(2)
H8 H -0.0182 0.0664 0.4121
H9 H -0.0869 0.0369 0.3193
H10 H -0.2183 0.1032 0.3857
S3 S 0.67348(9) 0.86939(5) 0.15976(5)
S4 S 0.62739(8) 0.64462(5) 0.06773(4)
N4 N 0.3762(3) 0.30552(17) 0.50958(12)
N5 N 0.5421(2) 0.52269(15) 0.24812(12)
N6 N 0.5836(3) 0.64538(16) 0.24503(12)
H2 H 0.5823 0.6745 0.2961
O3 O 0.4082(3) 0.23524(18) 0.58419(12)
O4 O 0.3194(3) 0.41716(15) 0.50380(12)
C10 C 0.4580(3) 0.32678(17) 0.33941(13)
C11 C 0.4033(3) 0.25252(18) 0.42419(13)
C12 C 0.3699(3) 0.12543(18) 0.43353(15)
H11 H 0.3341 0.0789 0.4914
C13 C 0.3904(3) 0.06946(19) 0.35602(16)
H12 H 0.3677 -0.0155 0.3608
C14 C 0.4450(3) 0.1400(2) 0.27100(16)
H13 H 0.4585 0.1020 0.2185
C15 C 0.4798(3) 0.2658(2) 0.26259(15)
H14 H 0.5186 0.3109 0.2048
C16 C 0.5029(3) 0.45918(19) 0.32906(14)
H15 H 0.5028 0.4967 0.3816
C17 C 0.6263(3) 0.72055(18) 0.16279(14)
C18 C 0.6919(4) 0.7682(3) -0.02735(17)
H16 H 0.5985 0.8366 -0.0368
H17 H 0.7119 0.7340 -0.0836
H18 H 0.7996 0.8002 -0.0124
loop_
_geom_bond_atom_site_label_1
_geom_bond_atom_site_label_2
_geom_bond_site_symmetry_1
_geom_bond_site_symmetry_2
S1 C8 1_555 1_555
S2 C8 1_555 1_555
S3 C17 1_555 1_555
S4 C17 1_555 1_555
N1 O1 1_555 1_555
N2 N3 1_555 1_555
N3 H1 1_555 1_555
N4 O3 1_555 1_555
N5 N6 1_555 1_555
N6 H2 1_555 1_555
O2 N1 1_555 1_555
O4 N4 1_555 1_555
C1 C2 1_555 1_555
C2 N1 1_555 1_555
C3 C2 1_555 1_555
H3 C3 1_555 1_555
C4 C3 1_555 1_555
H4 C4 1_555 1_555
C5 C4 1_555 1_555
H5 C5 1_555 1_555
C6 C1 1_555 1_555
H6 C6 1_555 1_555
C7 N2 1_555 1_555
H7 C7 1_555 1_555
C8 N3 1_555 1_555
C9 S2 1_555 1_555
H8 C9 1_555 1_555
H9 C9 1_555 1_555
H10 C9 1_555 1_555
C10 C11 1_555 1_555
C11 N4 1_555 1_555
C12 C11 1_555 1_555
H11 C12 1_555 1_555
C13 C12 1_555 1_555
H12 C13 1_555 1_555
C14 C13 1_555 1_555
H13 C14 1_555 1_555
C15 C10 1_555 1_555
H14 C15 1_555 1_555
C16 N5 1_555 1_555
H15 C16 1_555 1_555
C17 N6 1_555 1_555
C18 S4 1_555 1_555
H16 C18 1_555 1_555
H17 C18 1_555 1_555
H18 C18 1_555 1_555
C1 C7 1_555 1_555
C5 C6 1_555 1_555
C10 C16 1_555 1_555
C14 C15 1_555 1_555

#END
