
#######################################################################
#
#                 Cambridge Crystallographic Data Centre
#                                CCDC 
#
#######################################################################
#
# If this CIF has been generated from an entry in the Cambridge 
# Structural Database, then it will include bibliographic, chemical, 
# crystal, experimental, refinement or atomic coordinate data resulting 
# from the CCDC's data processing and validation procedures.
#
#######################################################################

data_YIRFIP
_chemical_formula_moiety         'C35 H27 P1'
_chemical_name_systematic        
(2,5-Diphenylpent-4-yn-1-en-3-ylidene)triphenylphosphorane
_symmetry_cell_setting           triclinic
_symmetry_space_group_name_H-M   'P -1'
_symmetry_Int_Tables_number      2
_space_group_name_Hall           '-P 1'
loop_
_symmetry_equiv_pos_site_id
_symmetry_equiv_pos_as_xyz
1 x,y,z
2 -x,-y,-z
_cell_length_a                   11.439(2)
_cell_length_b                   11.609(2)
_cell_length_c                   11.913(2)
_cell_angle_alpha                116.00(3)
_cell_angle_beta                 97.24(3)
_cell_angle_gamma                108.47(3)
_cell_volume                     1281.88
_exptl_crystal_colour            'purple red'
_exptl_crystal_description       cubic
_chemical_melting_point          '87 deg.C (dec.)'
_cell_formula_units_Z            2
loop_
_atom_site_label
_atom_site_type_symbol
_atom_site_fract_x
_atom_site_fract_y
_atom_site_fract_z
P1 P 0.68533(3) 0.36252(4) 0.11133(3)
C1 C 0.56521(14) 0.24722(17) -0.05062(14)
C2 C 0.47129(15) 0.11909(18) -0.07668(15)
C3 C 0.38692(16) 0.02065(19) -0.20295(16)
C4 C 0.39421(15) 0.04989(18) -0.30372(15)
C5 C 0.48380(16) 0.1796(2) -0.27692(16)
C6 C 0.56947(15) 0.27875(19) -0.15066(15)
C7 C 0.76840(14) 0.52987(17) 0.12146(14)
C8 C 0.74427(15) 0.64557(19) 0.19848(16)
C9 C 0.80051(17) 0.7702(2) 0.19820(18)
C10 C 0.88218(17) 0.7816(2) 0.12299(18)
C11 C 0.90960(16) 0.6678(2) 0.04955(16)
C12 C 0.85367(15) 0.54293(18) 0.04849(15)
C13 C 0.80689(14) 0.29439(18) 0.11596(14)
C14 C 0.92794(15) 0.38344(19) 0.21428(15)
C15 C 1.01613(16) 0.3280(2) 0.22863(16)
C16 C 0.98606(16) 0.1863(2) 0.14545(17)
C17 C 0.86805(17) 0.0994(2) 0.04615(17)
C18 C 0.77842(16) 0.15322(18) 0.03089(16)
C19 C 0.61694(14) 0.36449(17) 0.23325(14)
C20 C 0.68991(14) 0.36051(16) 0.33433(14)
C21 C 0.75197(14) 0.35583(17) 0.42069(14)
C22 C 0.80550(14) 0.30986(17) 0.49926(14)
C23 C 0.90307(15) 0.26281(19) 0.47269(16)
C24 C 0.94525(16) 0.2043(2) 0.53938(17)
C25 C 0.89336(17) 0.1928(2) 0.63495(16)
C26 C 0.80095(17) 0.24431(19) 0.66597(16)
C27 C 0.75698(15) 0.30231(18) 0.59963(15)
C28 C 0.48816(14) 0.36477(17) 0.22947(14)
C29 C 0.42860(16) 0.4080(2) 0.16165(16)
C30 C 0.41673(14) 0.30236(17) 0.30066(14)
C31 C 0.34931(15) 0.36725(18) 0.37822(15)
C32 C 0.27977(15) 0.30599(19) 0.44037(16)
C33 C 0.27776(17) 0.1813(2) 0.42805(17)
C34 C 0.34548(17) 0.1160(2) 0.35238(18)
C35 C 0.41519(15) 0.17774(18) 0.29087(15)
H1 H 0.3514(19) 0.457(2) 0.3947(19)
H2 H 0.630(2) 0.366(2) -0.1330(17)
H3 H 0.4642(19) 0.099(2) -0.0043(18)
H4 H 0.844(2) 0.003(3) -0.013(2)
H5 H 0.328(2) -0.064(2) -0.2167(19)
H6 H 0.691(2) 0.639(2) 0.2514(19)
H7 H 0.229(2) 0.134(2) 0.4727(19)
H8 H 0.9484(19) 0.480(2) 0.2726(19)
H9 H 0.338(2) -0.017(2) -0.390(2)
H10 H 0.871(2) 0.462(3) -0.004(2)
H11 H 0.9390(19) 0.268(2) 0.4059(19)
H12 H 0.348(2) 0.034(3) 0.343(2)
H13 H 0.768(2) 0.240(2) 0.735(2)
H14 H 0.475(2) 0.451(2) 0.1141(19)
H15 H 0.487(2) 0.202(2) -0.345(2)
H16 H 0.698(2) 0.092(2) -0.0382(19)
H17 H 0.921(2) 0.153(2) 0.682(2)
H18 H 1.050(2) 0.147(2) 0.1566(19)
H19 H 1.095(2) 0.388(2) 0.295(2)
H20 H 0.234(2) 0.355(2) 0.496(2)
H21 H 0.461(2) 0.133(3) 0.238(2)
H22 H 0.787(2) 0.853(3) 0.255(2)
H23 H 0.693(2) 0.338(2) 0.621(2)
H24 H 1.009(2) 0.167(2) 0.513(2)
H25 H 0.924(2) 0.870(3) 0.125(2)
H26 H 0.966(2) 0.670(3) 0.001(2)
H27 H 0.339(2) 0.390(2) 0.1535(18)
loop_
_geom_bond_atom_site_label_1
_geom_bond_atom_site_label_2
_geom_bond_site_symmetry_1
_geom_bond_site_symmetry_2
P1 C1 1_555 1_555
C1 C2 1_555 1_555
C2 C3 1_555 1_555
C3 C4 1_555 1_555
C4 C5 1_555 1_555
C5 C6 1_555 1_555
C6 C1 1_555 1_555
C7 P1 1_555 1_555
C8 C7 1_555 1_555
C9 C8 1_555 1_555
C10 C9 1_555 1_555
C11 C10 1_555 1_555
C12 C7 1_555 1_555
C13 P1 1_555 1_555
C14 C13 1_555 1_555
C15 C14 1_555 1_555
C16 C15 1_555 1_555
C17 C16 1_555 1_555
C18 C13 1_555 1_555
C19 P1 1_555 1_555
C20 C19 1_555 1_555
C21 C20 1_555 1_555
C22 C21 1_555 1_555
C23 C22 1_555 1_555
C24 C23 1_555 1_555
C25 C24 1_555 1_555
C26 C25 1_555 1_555
C27 C22 1_555 1_555
C28 C19 1_555 1_555
C29 C28 1_555 1_555
C30 C28 1_555 1_555
C31 C30 1_555 1_555
C32 C31 1_555 1_555
C33 C32 1_555 1_555
C34 C33 1_555 1_555
C35 C30 1_555 1_555
H1 C31 1_555 1_555
H2 C6 1_555 1_555
H3 C2 1_555 1_555
H4 C17 1_555 1_555
H5 C3 1_555 1_555
H6 C8 1_555 1_555
H7 C33 1_555 1_555
H8 C14 1_555 1_555
H9 C4 1_555 1_555
H10 C12 1_555 1_555
H11 C23 1_555 1_555
H12 C34 1_555 1_555
H13 C26 1_555 1_555
H14 C29 1_555 1_555
H15 C5 1_555 1_555
H16 C18 1_555 1_555
H17 C25 1_555 1_555
H18 C16 1_555 1_555
H19 C15 1_555 1_555
H20 C32 1_555 1_555
H21 C35 1_555 1_555
H22 C9 1_555 1_555
H23 C27 1_555 1_555
H24 C24 1_555 1_555
H25 C10 1_555 1_555
H26 C11 1_555 1_555
H27 C29 1_555 1_555
C11 C12 1_555 1_555
C17 C18 1_555 1_555
C26 C27 1_555 1_555
C34 C35 1_555 1_555

#END
