
#######################################################################
#
#                 Cambridge Crystallographic Data Centre
#                                CCDC 
#
#######################################################################
#
# If this CIF has been generated from an entry in the Cambridge 
# Structural Database, then it will include bibliographic, chemical, 
# crystal, experimental, refinement or atomic coordinate data resulting 
# from the CCDC's data processing and validation procedures.
#
#######################################################################

data_YIRKUG
_chemical_formula_moiety         'C34 H28 Cl2 N2 O2'
_chemical_name_systematic        
5''-(4-Chlorobenzylidene)-4'-(4-chlorophenyl)-1',1''-dimethyl-2H,4''H-dispiro[acenaphthylene-1,2'-pyrrolidine-3',3''-piperidine]-2,4''-dione
_symmetry_cell_setting           monoclinic
_symmetry_space_group_name_H-M   'P 21/c'
_symmetry_Int_Tables_number      14
_space_group_name_Hall           '-P 2ybc'
loop_
_symmetry_equiv_pos_site_id
_symmetry_equiv_pos_as_xyz
1 x,y,z
2 -x,1/2+y,1/2-z
3 -x,-y,-z
4 x,1/2-y,1/2+z
_cell_length_a                   8.6561(5)
_cell_length_b                   13.4732(8)
_cell_length_c                   24.3962(14)
_cell_angle_alpha                90
_cell_angle_beta                 95.765(12)
_cell_angle_gamma                90
_cell_volume                     2830.83
_exptl_crystal_colour            yellow
_exptl_crystal_description       block
_chemical_melting_point          188deg.C
_cell_formula_units_Z            4
loop_
_atom_site_label
_atom_site_type_symbol
_atom_site_fract_x
_atom_site_fract_y
_atom_site_fract_z
Cl1 Cl 0.79695(10) 0.00677(7) 1.03985(4)
Cl2 Cl 0.16195(12) -0.09337(8) 0.47557(3)
O1 O 0.59114(19) 0.19348(15) 0.77239(7)
O2 O 0.01134(19) 0.30256(13) 0.83128(7)
N1 N 0.1503(2) 0.11928(13) 0.79730(7)
N2 N 0.3200(2) 0.40244(14) 0.83147(8)
C1 C 0.3686(2) 0.22873(16) 0.82027(8)
C2 C 0.4534(3) 0.17972(17) 0.77550(9)
C3 C 0.2670(2) 0.32052(16) 0.79520(9)
C4 C 0.1497(3) 0.31854(16) 0.70216(9)
C5 C 0.4792(3) 0.27742(17) 0.86653(9)
H1 H 0.5639 0.3075 0.8485
C6 C 0.5539(3) 0.20976(17) 0.91073(9)
C7 C 0.2867(3) 0.34333(16) 0.73527(9)
C8 C 0.2658(3) 0.14841(17) 0.84174(9)
H2 H 0.3283 0.0915 0.8543
H3 H 0.2150 0.1737 0.8726
C9 C 0.2157(3) 0.06607(18) 0.75306(9)
H4 H 0.1378 0.0615 0.7217
H5 H 0.2418 -0.0009 0.7653
C10 C 0.3586(3) 0.11524(16) 0.73517(8)
C11 C 0.3385(3) 0.05882(18) 0.63499(9)
C12 C 0.4090(3) 0.3797(2) 0.71080(10)
H6 H 0.4994 0.3992 0.7318
C13 C 0.0276(3) 0.29142(17) 0.73259(9)
C14 C -0.0111(4) 0.2950(2) 0.61790(11)
H7 H -0.0268 0.2946 0.5796
C15 C 0.3811(3) 0.36211(18) 0.88423(9)
H8 H 0.2987 0.3386 0.9051
H9 H 0.4434 0.4106 0.9060
C16 C 0.4055(3) 0.10997(18) 0.68459(9)
H10 H 0.4962 0.1448 0.6803
C17 C 0.2430(3) -0.02498(18) 0.63447(10)
H11 H 0.2161 -0.0503 0.6677
C18 C 0.0865(3) 0.29821(17) 0.79197(10)
C19 C 0.1876(3) -0.0710(2) 0.58587(10)
H12 H 0.1237 -0.1264 0.5863
C20 C 0.2659(4) 0.3587(2) 0.62012(11)
H13 H 0.2638 0.3622 0.5820
C21 C 0.4931(3) 0.1922(2) 0.95991(10)
H14 H 0.4002 0.2223 0.9666
C22 C 0.3761(3) 0.0938(2) 0.58421(10)
H15 H 0.4396 0.1493 0.5832
C23 C 0.3216(4) 0.0480(2) 0.53541(10)
H16 H 0.3479 0.0726 0.5020
C24 C -0.1289(4) 0.2677(2) 0.64769(12)
H17 H -0.2232 0.2490 0.6289
C25 C -0.1144(3) 0.2666(2) 0.70582(12)
H18 H -0.1977 0.2497 0.7252
C26 C 0.0192(3) 0.0667(2) 0.81641(10)
H19 H -0.0529 0.0493 0.7854
H20 H -0.0314 0.1086 0.8409
H21 H 0.0554 0.0075 0.8355
C27 C 0.7050(3) 0.0867(2) 0.99047(11)
C28 C 0.2282(3) -0.0340(2) 0.53678(10)
C29 C 0.6941(3) 0.1650(2) 0.90364(11)
H22 H 0.7397 0.1770 0.8713
C30 C 0.7690(3) 0.1030(2) 0.94300(11)
H23 H 0.8623 0.0728 0.9368
C31 C 0.5681(4) 0.1303(3) 0.99969(11)
H24 H 0.5248 0.1187 1.0325
C32 C 0.1345(3) 0.32391(18) 0.64422(10)
C33 C 0.2206(3) 0.48950(19) 0.83214(12)
H25 H 0.1872 0.5091 0.7950
H26 H 0.2775 0.5429 0.8508
H27 H 0.1316 0.4740 0.8511
C34 C 0.3962(4) 0.3872(2) 0.65256(11)
H28 H 0.4796 0.4126 0.6358
loop_
_geom_bond_atom_site_label_1
_geom_bond_atom_site_label_2
_geom_bond_site_symmetry_1
_geom_bond_site_symmetry_2
Cl1 C27 1_555 1_555
Cl2 C28 1_555 1_555
O1 C2 1_555 1_555
O2 C18 1_555 1_555
N1 C8 1_555 1_555
N2 C3 1_555 1_555
C1 C2 1_555 1_555
C2 C10 1_555 1_555
C3 C1 1_555 1_555
C4 C7 1_555 1_555
C5 C1 1_555 1_555
H1 C5 1_555 1_555
C6 C5 1_555 1_555
C7 C3 1_555 1_555
C8 C1 1_555 1_555
H2 C8 1_555 1_555
H3 C8 1_555 1_555
C9 N1 1_555 1_555
H4 C9 1_555 1_555
H5 C9 1_555 1_555
C10 C9 1_555 1_555
C11 C16 1_555 1_555
C12 C7 1_555 1_555
H6 C12 1_555 1_555
C13 C4 1_555 1_555
C14 H7 1_555 1_555
C15 N2 1_555 1_555
H8 C15 1_555 1_555
H9 C15 1_555 1_555
C16 C10 1_555 1_555
H10 C16 1_555 1_555
C17 C11 1_555 1_555
H11 C17 1_555 1_555
C18 C3 1_555 1_555
C19 C17 1_555 1_555
H12 C19 1_555 1_555
C20 H13 1_555 1_555
C21 C6 1_555 1_555
H14 C21 1_555 1_555
C22 C11 1_555 1_555
H15 C22 1_555 1_555
C23 C22 1_555 1_555
H16 C23 1_555 1_555
C24 C14 1_555 1_555
H17 C24 1_555 1_555
C25 C13 1_555 1_555
H18 C25 1_555 1_555
C26 N1 1_555 1_555
H19 C26 1_555 1_555
H20 C26 1_555 1_555
H21 C26 1_555 1_555
C27 C30 1_555 1_555
C28 C19 1_555 1_555
C29 C6 1_555 1_555
H22 C29 1_555 1_555
C30 C29 1_555 1_555
H23 C30 1_555 1_555
C31 C21 1_555 1_555
H24 C31 1_555 1_555
C32 C4 1_555 1_555
C33 N2 1_555 1_555
H25 C33 1_555 1_555
H26 C33 1_555 1_555
H27 C33 1_555 1_555
C34 C12 1_555 1_555
H28 C34 1_555 1_555
C5 C15 1_555 1_555
C13 C18 1_555 1_555
C14 C32 1_555 1_555
C20 C32 1_555 1_555
C20 C34 1_555 1_555
C23 C28 1_555 1_555
C24 C25 1_555 1_555
C27 C31 1_555 1_555

#END
