
#######################################################################
#
#                 Cambridge Crystallographic Data Centre
#                                CCDC 
#
#######################################################################
#
# If this CIF has been generated from an entry in the Cambridge 
# Structural Database, then it will include bibliographic, chemical, 
# crystal, experimental, refinement or atomic coordinate data resulting 
# from the CCDC's data processing and validation procedures.
#
#######################################################################

data_YIRMOD
_chemical_formula_moiety         'C18 H18 N2 O2 S1,C1 H2 Cl2'
_chemical_name_systematic        
'4-Hydroxy-1,8-diphenyltetrahydro-6H-pyrazolo[1,2-c][1,3,4]thiadiazin-6-one dichloromethane solvate'
_symmetry_cell_setting           monoclinic
_symmetry_space_group_name_H-M   'P 21/c'
_symmetry_Int_Tables_number      14
_space_group_name_Hall           '-P 2ybc'
loop_
_symmetry_equiv_pos_site_id
_symmetry_equiv_pos_as_xyz
1 x,y,z
2 -x,1/2+y,1/2-z
3 -x,-y,-z
4 x,1/2-y,1/2+z
_cell_length_a                   14.1850(13)
_cell_length_b                   5.9527(6)
_cell_length_c                   23.417(2)
_cell_angle_alpha                90
_cell_angle_beta                 98.608(2)
_cell_angle_gamma                90
_cell_volume                     1955.04
_exptl_crystal_colour            colorless
_exptl_crystal_description       block
_cell_formula_units_Z            4
loop_
_atom_site_label
_atom_site_type_symbol
_atom_site_fract_x
_atom_site_fract_y
_atom_site_fract_z
C1 C 0.3681(3) 0.6870(8) 0.11182(17)
H1 H 0.3594 0.5491 0.1290
C2 C 0.4579(3) 0.7487(10) 0.1016(2)
H2 H 0.5092 0.6520 0.1117
C3 C 0.4719(3) 0.9512(10) 0.07656(19)
H3 H 0.5323 0.9916 0.0693
C4 C 0.3964(3) 1.0945(8) 0.0623(2)
H4 H 0.4058 1.2332 0.0458
C5 C 0.3058(3) 1.0330(7) 0.07230(17)
H5 H 0.2548 1.1307 0.0624
C6 C 0.2912(2) 0.8273(6) 0.09690(13)
C7 C 0.1918(2) 0.7519(5) 0.10328(13)
H6 H 0.1952 0.6157 0.1270
C8 C 0.1299(2) 0.7079(6) 0.04512(14)
H7 H 0.1551 0.7857 0.0143
H8 H 0.1270 0.5484 0.0365
C9 C 0.0335(2) 0.7958(5) 0.05149(13)
C10 C -0.0255(2) 1.0880(6) 0.11150(13)
H9 H -0.0875 1.0529 0.0887
C11 C -0.0373(2) 1.0909(6) 0.17486(14)
H10 H -0.0692 0.9541 0.1838
H11 H -0.0777 1.2166 0.1818
C12 C 0.1362(2) 0.8844(6) 0.19217(12)
H12 H 0.1020 0.7434 0.1958
C13 C 0.2351(2) 0.8682(6) 0.22598(13)
C14 C 0.2626(3) 0.6744(7) 0.25624(15)
H13 H 0.2204 0.5542 0.2550
C15 C 0.3527(3) 0.6572(8) 0.28855(19)
H14 H 0.3709 0.5254 0.3085
C16 C 0.4143(3) 0.8325(9) 0.29099(19)
H15 H 0.4744 0.8212 0.3130
C17 C 0.3881(3) 1.0268(9) 0.26097(19)
H16 H 0.4308 1.1460 0.2626
C18 C 0.2984(3) 1.0462(7) 0.22831(16)
H17 H 0.2809 1.1779 0.2081
N1 N 0.04200(18) 0.9146(4) 0.10075(10)
N2 N 0.13900(17) 0.9315(4) 0.13042(10)
O1 O -0.04026(16) 0.7754(4) 0.01695(9)
O2 O 0.0022(2) 1.3019(4) 0.09560(10)
H18 H 0.0141 1.2982 0.0624
S1 S 0.07447(6) 1.11370(16) 0.22250(3)
C19 C 0.7747(5) 0.9623(17) 0.6052(5)
H19 H 0.8377 0.9658 0.5938
H20 H 0.7793 1.0277 0.6434
Cl1 Cl 0.69378(17) 1.1306(4) 0.55465(10)
Cl2 Cl 0.73998(12) 0.7046(4) 0.60756(13)
loop_
_geom_bond_atom_site_label_1
_geom_bond_atom_site_label_2
_geom_bond_site_symmetry_1
_geom_bond_site_symmetry_2
C1 H1 1_555 1_555
C2 C1 1_555 1_555
H2 C2 1_555 1_555
C3 C2 1_555 1_555
H3 C3 1_555 1_555
C4 C3 1_555 1_555
H4 C4 1_555 1_555
C5 C4 1_555 1_555
H5 C5 1_555 1_555
C6 C1 1_555 1_555
C7 C6 1_555 1_555
H6 C7 1_555 1_555
C8 C7 1_555 1_555
H7 C8 1_555 1_555
H8 C8 1_555 1_555
C9 C8 1_555 1_555
C10 H9 1_555 1_555
C11 C10 1_555 1_555
H10 C11 1_555 1_555
H11 C11 1_555 1_555
C12 H12 1_555 1_555
C13 C12 1_555 1_555
C14 C13 1_555 1_555
H13 C14 1_555 1_555
C15 C14 1_555 1_555
H14 C15 1_555 1_555
C16 C15 1_555 1_555
H15 C16 1_555 1_555
C17 C16 1_555 1_555
H16 C17 1_555 1_555
C18 C13 1_555 1_555
H17 C18 1_555 1_555
N1 C9 1_555 1_555
N2 C7 1_555 1_555
O1 C9 1_555 1_555
O2 C10 1_555 1_555
H18 O2 1_555 1_555
S1 C11 1_555 1_555
C19 H19 1_555 1_555
H20 C19 1_555 1_555
Cl1 C19 1_555 1_555
Cl2 C19 1_555 1_555
C5 C6 1_555 1_555
C10 N1 1_555 1_555
C12 N2 1_555 1_555
C12 S1 1_555 1_555
C17 C18 1_555 1_555
N1 N2 1_555 1_555

#END
