
#######################################################################
#
#                 Cambridge Crystallographic Data Centre
#                                CCDC 
#
#######################################################################
#
# If this CIF has been generated from an entry in the Cambridge 
# Structural Database, then it will include bibliographic, chemical, 
# crystal, experimental, refinement or atomic coordinate data resulting 
# from the CCDC's data processing and validation procedures.
#
#######################################################################

data_YIRMET
_chemical_formula_moiety         'C21 H17 N3 O4'
_chemical_name_systematic        
2-Amino-5-hydroxy-1'-methyl-2'-oxo-6-propionyl-1',2'-dihydrospiro[chromene-4,3'-indole]-3-carbonitrile
_symmetry_cell_setting           monoclinic
_symmetry_space_group_name_H-M   'C 2/c'
_symmetry_Int_Tables_number      15
_space_group_name_Hall           '-C 2yn'
loop_
_symmetry_equiv_pos_site_id
_symmetry_equiv_pos_as_xyz
1 x,y,z
2 -x,y,1/2-z
3 1/2+x,1/2+y,z
4 1/2-x,1/2+y,1/2-z
5 -x,-y,-z
6 x,-y,1/2+z
7 1/2-x,1/2-y,-z
8 1/2+x,1/2-y,1/2+z
_cell_length_a                   23.100(4)
_cell_length_b                   11.989(2)
_cell_length_c                   15.523(2)
_cell_angle_alpha                90
_cell_angle_beta                 122.149(3)
_cell_angle_gamma                90
_cell_volume                     3639.85
_exptl_crystal_colour            colorless
_exptl_crystal_description       block
_cell_formula_units_Z            8
loop_
_atom_site_label
_atom_site_type_symbol
_atom_site_fract_x
_atom_site_fract_y
_atom_site_fract_z
O1 O 0.06882(9) 0.79600(17) 0.44590(14)
H1 H 0.0561 0.8133 0.3859
C1 C 0.12296(13) 0.7275(2) 0.4839(2)
C2 C 0.14955(13) 0.6898(2) 0.4267(2)
C3 C 0.20318(14) 0.6132(2) 0.4700(2)
H2 H 0.2216 0.5878 0.4315
C4 C 0.22991(14) 0.5740(2) 0.5668(2)
H3 H 0.2656 0.5202 0.5951
C5 C 0.20341(13) 0.6150(2) 0.62191(19)
C6 C 0.15133(13) 0.6920(2) 0.5852(2)
O2 O 0.23286(9) 0.57046(16) 0.71848(14)
C7 C 0.22837(14) 0.6306(2) 0.7894(2)
N1 N 0.27330(11) 0.58953(19) 0.88313(17)
H4 H 0.2840 0.6362 0.9229
H5 H 0.3110 0.5640 0.8848
C8 C 0.18306(12) 0.7150(2) 0.76172(19)
C9 C 0.12549(13) 0.7318(2) 0.65093(19)
C10 C 0.12086(14) 0.7316(2) 0.3216(2)
O3 O 0.07343(11) 0.79891(18) 0.28447(15)
C11 C 0.15046(15) 0.6902(3) 0.2620(2)
H6 H 0.1479 0.6078 0.2592
H7 H 0.1994 0.7113 0.2984
C12 C 0.11478(16) 0.7354(3) 0.1538(2)
H8 H 0.0663 0.7145 0.1169
H9 H 0.1362 0.7039 0.1192
H10 H 0.1188 0.8169 0.1558
C13 C 0.18515(13) 0.7775(2) 0.8409(2)
N2 N 0.18787(12) 0.8280(2) 0.90582(19)
C14 C 0.06036(13) 0.6767(2) 0.63038(19)
C15 C 0.04267(15) 0.5668(2) 0.6236(2)
H11 H 0.0725 0.5099 0.6273
C16 C -0.01987(17) 0.5401(3) 0.6110(2)
H12 H -0.0332 0.4642 0.6059
C17 C -0.06257(17) 0.6234(3) 0.6061(2)
H13 H -0.1047 0.6036 0.5991
C18 C -0.04619(15) 0.7341(3) 0.6108(2)
H14 H -0.0763 0.7911 0.6063
C19 C 0.01555(13) 0.7590(2) 0.6223(2)
N3 N 0.04365(11) 0.86463(19) 0.62754(17)
C20 C 0.00980(16) 0.9699(3) 0.6201(2)
H15 H 0.0393 1.0320 0.6260
H16 H 0.0009 0.9746 0.6750
H17 H -0.0335 0.9740 0.5543
C21 C 0.10530(14) 0.8565(2) 0.6371(2)
O4 O 0.13958(10) 0.93480(16) 0.63899(15)
loop_
_geom_bond_atom_site_label_1
_geom_bond_atom_site_label_2
_geom_bond_site_symmetry_1
_geom_bond_site_symmetry_2
O1 H1 1_555 1_555
C1 O1 1_555 1_555
C2 C1 1_555 1_555
C3 C2 1_555 1_555
H2 C3 1_555 1_555
C4 C3 1_555 1_555
H3 C4 1_555 1_555
C5 C4 1_555 1_555
C6 C1 1_555 1_555
O2 C5 1_555 1_555
C7 O2 1_555 1_555
N1 C7 1_555 1_555
H4 N1 1_555 1_555
H5 N1 1_555 1_555
C8 C7 1_555 1_555
C9 C6 1_555 1_555
C10 C2 1_555 1_555
O3 C10 1_555 1_555
C11 C10 1_555 1_555
H6 C11 1_555 1_555
H7 C11 1_555 1_555
C12 C11 1_555 1_555
H8 C12 1_555 1_555
H9 C12 1_555 1_555
H10 C12 1_555 1_555
C13 C8 1_555 1_555
N2 C13 1_555 1_555
C14 C9 1_555 1_555
C15 C14 1_555 1_555
H11 C15 1_555 1_555
C16 C15 1_555 1_555
H12 C16 1_555 1_555
C17 C16 1_555 1_555
H13 C17 1_555 1_555
C18 C17 1_555 1_555
H14 C18 1_555 1_555
C19 C14 1_555 1_555
N3 C19 1_555 1_555
C20 N3 1_555 1_555
H15 C20 1_555 1_555
H16 C20 1_555 1_555
H17 C20 1_555 1_555
C21 C9 1_555 1_555
O4 C21 1_555 1_555
C5 C6 1_555 1_555
C8 C9 1_555 1_555
C18 C19 1_555 1_555
N3 C21 1_555 1_555

#END
