
#######################################################################
#
#                 Cambridge Crystallographic Data Centre
#                                CCDC 
#
#######################################################################
#
# If this CIF has been generated from an entry in the Cambridge 
# Structural Database, then it will include bibliographic, chemical, 
# crystal, experimental, refinement or atomic coordinate data resulting 
# from the CCDC's data processing and validation procedures.
#
#######################################################################

data_YISDUB02
_chemical_formula_moiety         'C20 H13 N3 O1'
_chemical_name_systematic        5-phenylindazolo[3,2-b]quinazolin-7(5H)-one
_symmetry_cell_setting           monoclinic
_symmetry_space_group_name_H-M   'P 21/c'
_symmetry_Int_Tables_number      14
_space_group_name_Hall           '-P 2ybc'
loop_
_symmetry_equiv_pos_site_id
_symmetry_equiv_pos_as_xyz
1 x,y,z
2 -x,1/2+y,1/2-z
3 -x,-y,-z
4 x,1/2-y,1/2+z
_cell_length_a                   10.5528(10)
_cell_length_b                   18.8340(17)
_cell_length_c                   8.0510(8)
_cell_angle_alpha                90
_cell_angle_beta                 110.027(2)
_cell_angle_gamma                90
_cell_volume                     1503.39
_exptl_crystal_colour            colorless
_exptl_crystal_description       Block
_cell_formula_units_Z            4
loop_
_atom_site_label
_atom_site_type_symbol
_atom_site_fract_x
_atom_site_fract_y
_atom_site_fract_z
O1 O 0.46684(8) 0.30161(4) 0.68469(11)
N1 N 0.17234(9) 0.21485(5) 0.85434(13)
N2 N 0.36869(9) 0.20727(5) 0.77263(12)
N3 N 0.44348(10) 0.15410(5) 0.72435(13)
C1 C 0.28134(12) 0.39508(7) 0.76877(16)
H1 H 0.3447 0.4165 0.7283
C2 C 0.18880(13) 0.43624(7) 0.81076(17)
H2 H 0.1896 0.4853 0.7989
C3 C 0.09353(13) 0.40370(7) 0.87138(17)
H3 H 0.0320 0.4316 0.9017
C4 C 0.08963(12) 0.33116(7) 0.88678(16)
H4 H 0.0253 0.3104 0.9265
C5 C 0.18256(11) 0.28794(6) 0.84268(15)
C6 C 0.28073(11) 0.32092(6) 0.78667(15)
C7 C 0.38073(11) 0.27918(6) 0.74139(15)
C8 C 0.26411(11) 0.17823(6) 0.81874(14)
C9 C 0.27938(11) 0.10234(6) 0.81196(15)
C10 C 0.20661(12) 0.04586(7) 0.84761(16)
H5 H 0.1311 0.0539 0.8795
C11 C 0.25051(13) -0.02237(7) 0.83397(17)
H6 H 0.2041 -0.0608 0.8577
C12 C 0.36375(13) -0.03434(7) 0.78488(17)
H7 H 0.3920 -0.0807 0.7785
C13 C 0.43477(12) 0.02117(6) 0.74560(16)
H8 H 0.5091 0.0130 0.7112
C14 C 0.39024(11) 0.08982(6) 0.75965(15)
C15 C 0.58776(12) 0.16250(6) 0.77620(16)
C16 C 0.64859(14) 0.13628(7) 0.66105(19)
H9 H 0.5968 0.1170 0.5527
C17 C 0.78808(15) 0.13923(7) 0.7102(2)
H10 H 0.8302 0.1209 0.6351
C18 C 0.86499(13) 0.16920(7) 0.8697(2)
H11 H 0.9584 0.1706 0.9023
C19 C 0.80211(12) 0.19713(7) 0.9809(2)
H12 H 0.8537 0.2185 1.0866
C20 C 0.66290(12) 0.19349(6) 0.93579(16)
H13 H 0.6209 0.2115 1.0112
loop_
_geom_bond_atom_site_label_1
_geom_bond_atom_site_label_2
_geom_bond_site_symmetry_1
_geom_bond_site_symmetry_2
O1 C7 1_555 1_555
N1 C5 1_555 1_555
N2 N3 1_555 1_555
N3 C14 1_555 1_555
C1 H1 1_555 1_555
C2 C1 1_555 1_555
H2 C2 1_555 1_555
C3 C2 1_555 1_555
H3 C3 1_555 1_555
C4 C3 1_555 1_555
H4 C4 1_555 1_555
C5 C4 1_555 1_555
C6 C1 1_555 1_555
C7 N2 1_555 1_555
C8 N1 1_555 1_555
C9 C8 1_555 1_555
C10 C9 1_555 1_555
H5 C10 1_555 1_555
C11 C10 1_555 1_555
H6 C11 1_555 1_555
C12 C11 1_555 1_555
H7 C12 1_555 1_555
C13 C12 1_555 1_555
H8 C13 1_555 1_555
C14 C9 1_555 1_555
C15 N3 1_555 1_555
C16 C15 1_555 1_555
H9 C16 1_555 1_555
C17 C16 1_555 1_555
H10 C17 1_555 1_555
C18 C17 1_555 1_555
H11 C18 1_555 1_555
C19 C18 1_555 1_555
H12 C19 1_555 1_555
C20 C15 1_555 1_555
H13 C20 1_555 1_555
N2 C8 1_555 1_555
C5 C6 1_555 1_555
C6 C7 1_555 1_555
C13 C14 1_555 1_555
C19 C20 1_555 1_555

#END
