
#######################################################################
#
#                 Cambridge Crystallographic Data Centre
#                                CCDC 
#
#######################################################################
#
# If this CIF has been generated from an entry in the Cambridge 
# Structural Database, then it will include bibliographic, chemical, 
# crystal, experimental, refinement or atomic coordinate data resulting 
# from the CCDC's data processing and validation procedures.
#
#######################################################################

data_YISJUG
_chemical_formula_moiety         'C11 H15 N1 O3'
_chemical_name_systematic        N-Phenyl-2-deoxy-D-ribopyranosylamine
_symmetry_cell_setting           monoclinic
_symmetry_space_group_name_H-M   'P 21'
_symmetry_Int_Tables_number      4
_space_group_name_Hall           'P 2yb'
loop_
_symmetry_equiv_pos_site_id
_symmetry_equiv_pos_as_xyz
1 x,y,z
2 -x,1/2+y,-z
_cell_length_a                   6.5375(9)
_cell_length_b                   7.7140(9)
_cell_length_c                   10.7865(16)
_cell_angle_alpha                90
_cell_angle_beta                 97.578(11)
_cell_angle_gamma                90
_cell_volume                     539.215
_exptl_crystal_colour            yellow
_exptl_crystal_description       block
_cell_formula_units_Z            2
loop_
_atom_site_label
_atom_site_type_symbol
_atom_site_fract_x
_atom_site_fract_y
_atom_site_fract_z
O1 O 0.5559(2) 0.5515(2) 0.81829(14)
O2 O 0.4736(3) 0.7817(2) 1.01375(15)
H1 H 0.4787 0.8647 1.0616
O3 O 0.7893(2) 1.0132(2) 0.96827(17)
H2 H 0.7172 1.1003 0.9666
N1 N 0.8891(3) 0.4483(3) 0.81023(19)
H3 H 0.9946 0.4528 0.8791
C1 C 0.8855(4) 0.3145(3) 0.7234(2)
C2 C 0.7119(5) 0.2808(4) 0.6378(2)
H4 H 0.5944 0.3489 0.6372
C3 C 0.7138(6) 0.1459(5) 0.5533(3)
H5 H 0.5969 0.1238 0.4966
C4 C 0.8857(7) 0.0443(5) 0.5522(3)
H6 H 0.8863 -0.0455 0.4947
C5 C 1.0563(6) 0.0770(5) 0.6368(3)
H7 H 1.1730 0.0081 0.6367
C6 C 1.0584(5) 0.2107(4) 0.7226(3)
H8 H 1.1757 0.2309 0.7795
C7 C 0.7623(3) 0.5969(3) 0.7934(2)
H9 H 0.7560 0.6368 0.7067
C8 C 0.8459(4) 0.7413(3) 0.8807(2)
H10 H 0.8664 0.6978 0.9658
H11 H 0.9790 0.7776 0.8595
C9 C 0.7031(3) 0.8961(3) 0.8738(2)
H12 H 0.7017 0.9518 0.7920
C10 C 0.4856(4) 0.8420(3) 0.8893(2)
H13 H 0.3924 0.9409 0.8710
C11 C 0.4195(4) 0.6961(3) 0.7991(2)
H14 H 0.2810 0.6595 0.8100
H15 H 0.4166 0.7378 0.7140
loop_
_geom_bond_atom_site_label_1
_geom_bond_atom_site_label_2
_geom_bond_site_symmetry_1
_geom_bond_site_symmetry_2
O1 C7 1_555 1_555
O2 H1 1_555 1_555
O3 H2 1_555 1_555
N1 H3 1_555 1_555
C1 N1 1_555 1_555
C2 C1 1_555 1_555
H4 C2 1_555 1_555
C3 C2 1_555 1_555
H5 C3 1_555 1_555
C4 C3 1_555 1_555
H6 C4 1_555 1_555
C5 C4 1_555 1_555
H7 C5 1_555 1_555
C6 C1 1_555 1_555
H8 C6 1_555 1_555
C7 N1 1_555 1_555
H9 C7 1_555 1_555
C8 C7 1_555 1_555
H10 C8 1_555 1_555
H11 C8 1_555 1_555
C9 O3 1_555 1_555
H12 C9 1_555 1_555
C10 O2 1_555 1_555
H13 C10 1_555 1_555
C11 O1 1_555 1_555
H14 C11 1_555 1_555
H15 C11 1_555 1_555
C5 C6 1_555 1_555
C8 C9 1_555 1_555
C9 C10 1_555 1_555
C10 C11 1_555 1_555

#END
