
#######################################################################
#
#                 Cambridge Crystallographic Data Centre
#                                CCDC 
#
#######################################################################
#
# If this CIF has been generated from an entry in the Cambridge 
# Structural Database, then it will include bibliographic, chemical, 
# crystal, experimental, refinement or atomic coordinate data resulting 
# from the CCDC's data processing and validation procedures.
#
#######################################################################

data_YISNAS
_chemical_formula_moiety         'C27 H17 O9 1-,C12 H13 N2 1+,2(C1 H4 O1),H2 O1'
_chemical_name_systematic        
'4-[2-(pyridin-4-yl)ethyl]pyridin-1-ium 4-[3,5-bis(4-carboxyphenoxy)phenoxy]benzoate methanol solvate monohydrate'
_symmetry_cell_setting           triclinic
_symmetry_space_group_name_H-M   'P -1'
_symmetry_Int_Tables_number      2
_space_group_name_Hall           '-P 1'
loop_
_symmetry_equiv_pos_site_id
_symmetry_equiv_pos_as_xyz
1 x,y,z
2 -x,-y,-z
_cell_length_a                   7.014(3)
_cell_length_b                   15.896(6)
_cell_length_c                   17.428(7)
_cell_angle_alpha                82.570(19)
_cell_angle_beta                 87.049(12)
_cell_angle_gamma                79.316(13)
_cell_volume                     1892.65
_exptl_crystal_colour            white
_exptl_crystal_description       block
_cell_formula_units_Z            2
loop_
_atom_site_label
_atom_site_type_symbol
_atom_site_fract_x
_atom_site_fract_y
_atom_site_fract_z
N1 N -0.5354(8) 0.3143(4) 0.3056(4)
H1 H -0.6509 0.3417 0.2957
C1 C -0.4560(10) 0.3194(5) 0.3722(5)
H2 H -0.5273 0.3528 0.4075
C2 C -0.2744(10) 0.2773(5) 0.3901(5)
H3 H -0.2211 0.2825 0.4367
C3 C -0.1695(9) 0.2265(5) 0.3383(5)
C4 C -0.2538(9) 0.2237(5) 0.2694(4)
H4 H -0.1855 0.1916 0.2325
C5 C -0.4373(9) 0.2677(4) 0.2549(5)
H5 H -0.4936 0.2646 0.2085
C6 C 0.0358(10) 0.1785(6) 0.3605(5)
H6 H 0.1106 0.2202 0.3731
H7 H 0.0250 0.1385 0.4068
N2 N 0.7269(8) -0.0015(4) 0.3502(4)
C7 C 0.6202(10) 0.0374(5) 0.4046(5)
H8 H 0.6758 0.0371 0.4520
C8 C 0.4284(10) 0.0790(5) 0.3945(5)
H9 H 0.3558 0.1027 0.4351
C9 C 0.3488(10) 0.0844(5) 0.3234(5)
C10 C 0.4613(11) 0.0451(5) 0.2672(5)
H10 H 0.4125 0.0467 0.2183
C11 C 0.6455(10) 0.0036(5) 0.2833(5)
H11 H 0.7185 -0.0230 0.2441
C12 C 0.1422(11) 0.1310(6) 0.3009(5)
H12 H 0.1517 0.1708 0.2544
H13 H 0.0687 0.0886 0.2889
O1 O 0.3148(6) 0.5543(3) 0.1162(3)
O2 O -0.0893(7) 0.6764(3) 0.3162(3)
O3 O 0.1675(6) 0.8582(3) 0.1087(3)
C13 C 0.2196(10) 0.6277(5) 0.1513(5)
C14 C 0.1117(10) 0.6159(5) 0.2173(5)
H14 H 0.1063 0.5610 0.2423
C15 C 0.0088(9) 0.6898(5) 0.2465(5)
C16 C 0.0252(9) 0.7706(5) 0.2100(4)
H15 H -0.0394 0.8198 0.2303
C17 C 0.1371(9) 0.7775(5) 0.1441(5)
C18 C 0.2362(9) 0.7069(5) 0.1124(4)
H16 H 0.3108 0.7124 0.0670
O4 O 1.1158(6) 0.3992(3) 0.2779(3)
O5 O 1.1432(7) 0.3247(3) 0.1773(3)
C19 C 0.4912(8) 0.5136(4) 0.1458(4)
C20 C 0.5914(10) 0.4483(4) 0.1055(4)
H17 H 0.5366 0.4342 0.0625
C21 C 0.7672(9) 0.4054(4) 0.1282(5)
H18 H 0.8314 0.3614 0.1009
C22 C 0.8544(8) 0.4254(4) 0.1912(4)
C23 C 0.7518(9) 0.4896(4) 0.2320(4)
H19 H 0.8057 0.5019 0.2760
C24 C 0.5718(9) 0.5360(4) 0.2094(4)
H20 H 0.5076 0.5806 0.2360
C25 C 1.0520(10) 0.3802(5) 0.2174(5)
O6 O -0.8531(8) 0.8900(5) 0.4574(4)
O7 O -0.9173(6) 0.9099(3) 0.3336(3)
H21 H -1.0198 0.9369 0.3493
C26 C -0.2627(9) 0.7320(5) 0.3297(5)
C27 C -0.3031(10) 0.7469(5) 0.4040(5)
H22 H -0.2133 0.7242 0.4421
C28 C -0.4794(11) 0.7962(5) 0.4227(5)
H23 H -0.5064 0.8068 0.4738
C29 C -0.6143(9) 0.8295(5) 0.3681(4)
C30 C -0.5709(9) 0.8140(5) 0.2942(4)
H24 H -0.6609 0.8373 0.2563
C31 C -0.3946(9) 0.7638(5) 0.2728(4)
H25 H -0.3680 0.7525 0.2219
C32 C -0.8047(10) 0.8791(5) 0.3920(5)
O8 O -0.5879(8) 1.1382(3) 0.0535(4)
H26 H -0.6600 1.1843 0.0409
O9 O -0.3806(8) 1.2228(4) 0.0736(3)
C33 C 0.0157(10) 0.9272(5) 0.1023(4)
C34 C -0.1684(9) 0.9185(4) 0.0891(4)
H27 H -0.1993 0.8643 0.0875
C35 C -0.3115(10) 0.9934(5) 0.0780(4)
H28 H -0.4378 0.9888 0.0679
C36 C -0.2672(10) 1.0732(5) 0.0818(4)
C37 C -0.0822(11) 1.0780(5) 0.0946(4)
H29 H -0.0508 1.1321 0.0962
C38 C 0.0640(10) 1.0059(5) 0.1055(4)
H30 H 0.1905 1.0111 0.1147
C39 C -0.4192(12) 1.1525(6) 0.0685(4)
O10 O 0.8419(7) 0.7196(4) 0.9654(4)
H31 H 0.8445 0.7041 0.9222
C40 C 0.8022(15) 0.6530(6) 1.0215(6)
H32 H 0.9099 0.6057 1.0236
H33 H 0.6876 0.6338 1.0082
H34 H 0.7819 0.6738 1.0711
O11 O 0.371(4) 0.5719(13) 0.4234(13)
H35 H 0.3299 0.5515 0.3881
C41 C 0.306(2) 0.5321(11) 0.4879(12)
H36 H 0.2889 0.5698 0.5275
H37 H 0.3974 0.4809 0.5043
H38 H 0.1835 0.5168 0.4788
O12 O 0.9569(18) 0.5879(10) 0.5589(8)
loop_
_geom_bond_atom_site_label_1
_geom_bond_atom_site_label_2
_geom_bond_site_symmetry_1
_geom_bond_site_symmetry_2
N1 H1 1_555 1_555
C1 N1 1_555 1_555
H2 C1 1_555 1_555
C2 C1 1_555 1_555
H3 C2 1_555 1_555
C3 C2 1_555 1_555
C4 C3 1_555 1_555
H4 C4 1_555 1_555
C5 N1 1_555 1_555
H5 C5 1_555 1_555
C6 C3 1_555 1_555
H6 C6 1_555 1_555
H7 C6 1_555 1_555
N2 C7 1_555 1_555
C7 H8 1_555 1_555
C8 C7 1_555 1_555
H9 C8 1_555 1_555
C9 C8 1_555 1_555
C10 C9 1_555 1_555
H10 C10 1_555 1_555
C11 N2 1_555 1_555
H11 C11 1_555 1_555
C12 C6 1_555 1_555
H12 C12 1_555 1_555
H13 C12 1_555 1_555
O1 C13 1_555 1_555
O2 C15 1_555 1_555
O3 C17 1_555 1_555
C13 C14 1_555 1_555
C14 H14 1_555 1_555
C15 C14 1_555 1_555
C16 C15 1_555 1_555
H15 C16 1_555 1_555
C17 C16 1_555 1_555
C18 C13 1_555 1_555
H16 C18 1_555 1_555
O4 C25 1_555 1_555
O5 C25 1_555 1_555
C19 O1 1_555 1_555
C20 C19 1_555 1_555
H17 C20 1_555 1_555
C21 C20 1_555 1_555
H18 C21 1_555 1_555
C22 C21 1_555 1_555
C23 C22 1_555 1_555
H19 C23 1_555 1_555
C24 C19 1_555 1_555
H20 C24 1_555 1_555
C25 C22 1_555 1_555
O6 C32 1_555 1_555
O7 H21 1_555 1_555
C26 O2 1_555 1_555
C27 C26 1_555 1_555
H22 C27 1_555 1_555
C28 C27 1_555 1_555
H23 C28 1_555 1_555
C29 C28 1_555 1_555
C30 C29 1_555 1_555
H24 C30 1_555 1_555
C31 C26 1_555 1_555
H25 C31 1_555 1_555
C32 O7 1_555 1_555
O8 H26 1_555 1_555
O9 C39 1_555 1_555
C33 O3 1_555 1_555
C34 C33 1_555 1_555
H27 C34 1_555 1_555
C35 C34 1_555 1_555
H28 C35 1_555 1_555
C36 C35 1_555 1_555
C37 C36 1_555 1_555
H29 C37 1_555 1_555
C38 C33 1_555 1_555
H30 C38 1_555 1_555
C39 O8 1_555 1_555
O10 H31 1_555 1_555
C40 O10 1_555 1_555
H32 C40 1_555 1_555
H33 C40 1_555 1_555
H34 C40 1_555 1_555
O11 H35 1_555 1_555
C41 O11 1_555 1_555
H36 C41 1_555 1_555
H37 C41 1_555 1_555
H38 C41 1_555 1_555
C4 C5 1_555 1_555
C9 C12 1_555 1_555
C10 C11 1_555 1_555
C17 C18 1_555 1_555
C23 C24 1_555 1_555
C29 C32 1_555 1_555
C30 C31 1_555 1_555
C36 C39 1_555 1_555
C37 C38 1_555 1_555

#END
