
#######################################################################
#
#                 Cambridge Crystallographic Data Centre
#                                CCDC 
#
#######################################################################
#
# If this CIF has been generated from an entry in the Cambridge 
# Structural Database, then it will include bibliographic, chemical, 
# crystal, experimental, refinement or atomic coordinate data resulting 
# from the CCDC's data processing and validation procedures.
#
#######################################################################

data_YISNEW
_chemical_formula_moiety         'C27 H20 N3 O6 1-,C12 H11 N2 1+,C12 H10 N2'
_chemical_name_systematic        
"4-[2-(pyridin-4-yl)ethenyl]pyridin-1-ium 4,4'-(ethene-1,2-diyl)dipyridine 4-({3,5-bis[(4-carboxyphenyl)amino]phenyl}amino)benzoate"
_symmetry_cell_setting           triclinic
_symmetry_space_group_name_H-M   'P -1'
_symmetry_Int_Tables_number      2
_space_group_name_Hall           '-P 1'
loop_
_symmetry_equiv_pos_site_id
_symmetry_equiv_pos_as_xyz
1 x,y,z
2 -x,-y,-z
_cell_length_a                   9.1920(10)
_cell_length_b                   13.0507(16)
_cell_length_c                   19.469(2)
_cell_angle_alpha                76.186(5)
_cell_angle_beta                 83.285(3)
_cell_angle_gamma                69.384(3)
_cell_volume                     2121.36
_exptl_crystal_colour            white
_exptl_crystal_description       block
_cell_formula_units_Z            2
loop_
_atom_site_label
_atom_site_type_symbol
_atom_site_fract_x
_atom_site_fract_y
_atom_site_fract_z
C1 C 0.5285(6) 0.3095(4) 0.4669(3)
C2 C 0.6112(6) 0.2253(4) 0.4312(3)
H1 H 0.6220 0.2414 0.3821
C3 C 0.6786(6) 0.1156(4) 0.4696(3)
C4 C 0.6632(6) 0.0923(4) 0.5427(3)
H2 H 0.7101 0.0199 0.5683
C5 C 0.5790(6) 0.1759(4) 0.5775(3)
C6 C 0.5095(6) 0.2858(4) 0.5404(3)
H3 H 0.4519 0.3419 0.5643
N1 N 0.4516(6) 0.4198(3) 0.4309(2)
H4 H 0.3792 0.4500 0.4568
O1 O 0.7397(6) 0.6451(4) 0.1487(2)
H5 H 0.7700 0.6849 0.1136
O2 O 0.4919(5) 0.7557(4) 0.1364(2)
C7 C 0.4909(7) 0.4768(4) 0.3657(3)
C8 C 0.6385(6) 0.4485(4) 0.3353(3)
H6 H 0.7167 0.3860 0.3578
C9 C 0.6720(7) 0.5112(5) 0.2723(3)
H7 H 0.7727 0.4901 0.2528
C10 C 0.5598(7) 0.6050(4) 0.2369(3)
C11 C 0.4108(7) 0.6338(4) 0.2675(3)
H8 H 0.3329 0.6962 0.2447
C12 C 0.3755(6) 0.5710(4) 0.3318(3)
H9 H 0.2753 0.5921 0.3518
C13 C 0.5909(9) 0.6763(5) 0.1687(3)
N2 N 0.7690(6) 0.0351(4) 0.4306(2)
H10 H 0.821(6) 0.059(4) 0.399(3)
O3 O 1.1861(5) -0.4817(3) 0.5242(2)
O4 O 0.9865(5) -0.4661(3) 0.6012(2)
H11 H 1.0347 -0.5305 0.6173
C14 C 0.8365(6) -0.0793(4) 0.4590(3)
C15 C 0.7520(6) -0.1411(4) 0.5023(3)
H12 H 0.6475 -0.1067 0.5133
C16 C 0.8249(6) -0.2553(4) 0.5290(3)
H13 H 0.7683 -0.2962 0.5584
C17 C 0.9796(6) -0.3088(4) 0.5126(3)
C18 C 1.0594(6) -0.2469(4) 0.4667(3)
H14 H 1.1620 -0.2824 0.4534
C19 C 0.9914(6) -0.1349(4) 0.4404(3)
H15 H 1.0482 -0.0953 0.4098
C20 C 1.0601(8) -0.4272(5) 0.5451(3)
N3 N 0.5708(6) 0.1533(4) 0.6522(2)
H16 H 0.5446 0.2119 0.6702
O5 O 0.4255(6) -0.2766(5) 0.8323(3)
O6 O 0.4627(7) -0.2049(4) 0.9170(3)
C21 C 0.5539(7) 0.0597(5) 0.6978(3)
C22 C 0.5729(8) 0.0463(5) 0.7698(3)
H17 H 0.6059 0.0969 0.7847
C23 C 0.5446(9) -0.0388(6) 0.8188(3)
H18 H 0.5538 -0.0434 0.8665
C24 C 0.5029(8) -0.1175(6) 0.7987(4)
C25 C 0.4881(7) -0.1073(5) 0.7275(4)
H19 H 0.4600 -0.1602 0.7127
C26 C 0.5142(7) -0.0205(5) 0.6782(3)
H20 H 0.5048 -0.0161 0.6304
C27 C 0.4601(10) -0.2081(8) 0.8552(5)
N4 N 0.1900(7) 1.2007(4) -0.0419(3)
C28 C 0.2918(8) 1.0967(6) -0.0292(3)
H21 H 0.3882 1.0835 -0.0531
C29 C 0.2624(7) 1.0071(5) 0.0175(3)
H22 H 0.3362 0.9356 0.0235
C30 C 0.1200(7) 1.0260(5) 0.0553(3)
C31 C 0.0130(8) 1.1327(5) 0.0398(3)
H23 H -0.0853 1.1485 0.0619
C32 C 0.0519(8) 1.2152(5) -0.0082(3)
H24 H -0.0230 1.2861 -0.0179
C33 C 0.0913(8) 0.9324(5) 0.1082(3)
H25 H 0.1690 0.8627 0.1118
N5 N -0.0840(6) 0.6659(4) 0.3131(3)
C34 C 0.0007(9) 0.6494(5) 0.2538(4)
H26 H 0.0499 0.5759 0.2485
C35 C 0.0203(8) 0.7336(5) 0.1999(3)
H27 H 0.0830 0.7167 0.1602
C36 C -0.0538(7) 0.8434(5) 0.2053(3)
C37 C -0.1446(8) 0.8609(5) 0.2647(4)
H28 H -0.1987 0.9336 0.2705
C38 C -0.1562(8) 0.7711(5) 0.3163(3)
H29 H -0.2195 0.7861 0.3561
C39 C -0.0321(8) 0.9368(5) 0.1506(3)
H30 H -0.1128 1.0051 0.1455
N6 N -0.0583(8) 0.1385(5) 0.3162(3)
C40 C -0.0861(10) 0.1675(7) 0.2491(5)
H31 H -0.1559 0.1426 0.2326
C41 C -0.0123(11) 0.2370(7) 0.1992(5)
H32 H -0.0277 0.2529 0.1509
C42 C 0.0813(8) 0.2787(5) 0.2259(4)
C43 C 0.0882(9) 0.2566(6) 0.2945(4)
H33 H 0.1414 0.2899 0.3150
C44 C 0.0197(9) 0.1861(6) 0.3367(4)
H34 H 0.0320 0.1721 0.3852
C45 C 0.1550(9) 0.3569(7) 0.1807(5)
H35 H 0.2049 0.3865 0.2058
N7 N 0.3427(7) 0.6183(5) -0.0182(3)
H36 H 0.3790 0.6658 -0.0465
C46 C 0.3501(9) 0.6105(7) 0.0484(5)
H37 H 0.3899 0.6567 0.0643
C47 C 0.2975(9) 0.5316(6) 0.0967(4)
H38 H 0.3074 0.5224 0.1449
C48 C 0.2327(8) 0.4693(6) 0.0735(4)
C49 C 0.2252(8) 0.4813(6) 0.0006(4)
H39 H 0.1823 0.4389 -0.0174
C50 C 0.2867(8) 0.5623(6) -0.0460(4)
H40 H 0.2852 0.5729 -0.0949
C51 C 0.1624(10) 0.3888(6) 0.1187(4)
H41 H 0.1152 0.3575 0.0935
loop_
_geom_bond_atom_site_label_1
_geom_bond_atom_site_label_2
_geom_bond_site_symmetry_1
_geom_bond_site_symmetry_2
C1 C2 1_555 1_555
C2 H1 1_555 1_555
C3 C2 1_555 1_555
C4 C3 1_555 1_555
H2 C4 1_555 1_555
C5 C4 1_555 1_555
C6 C1 1_555 1_555
H3 C6 1_555 1_555
N1 C1 1_555 1_555
H4 N1 1_555 1_555
O1 H5 1_555 1_555
O2 C13 1_555 1_555
C7 N1 1_555 1_555
C8 C7 1_555 1_555
H6 C8 1_555 1_555
C9 C8 1_555 1_555
H7 C9 1_555 1_555
C10 C9 1_555 1_555
C11 C10 1_555 1_555
H8 C11 1_555 1_555
C12 C7 1_555 1_555
H9 C12 1_555 1_555
C13 O1 1_555 1_555
N2 C3 1_555 1_555
H10 N2 1_555 1_555
O3 C20 1_555 1_555
O4 H11 1_555 1_555
C14 N2 1_555 1_555
C15 C14 1_555 1_555
H12 C15 1_555 1_555
C16 C15 1_555 1_555
H13 C16 1_555 1_555
C17 C16 1_555 1_555
C18 C17 1_555 1_555
H14 C18 1_555 1_555
C19 C14 1_555 1_555
H15 C19 1_555 1_555
C20 O4 1_555 1_555
N3 C5 1_555 1_555
H16 N3 1_555 1_555
O5 C27 1_555 1_555
O6 C27 1_555 1_555
C21 N3 1_555 1_555
C22 C21 1_555 1_555
H17 C22 1_555 1_555
C23 C22 1_555 1_555
H18 C23 1_555 1_555
C24 C23 1_555 1_555
C25 C24 1_555 1_555
H19 C25 1_555 1_555
C26 C21 1_555 1_555
H20 C26 1_555 1_555
C27 C24 1_555 1_555
N4 C28 1_555 1_555
C28 H21 1_555 1_555
C29 C28 1_555 1_555
H22 C29 1_555 1_555
C30 C29 1_555 1_555
C31 C30 1_555 1_555
H23 C31 1_555 1_555
C32 N4 1_555 1_555
H24 C32 1_555 1_555
C33 C30 1_555 1_555
H25 C33 1_555 1_555
N5 C34 1_555 1_555
C34 H26 1_555 1_555
C35 C34 1_555 1_555
H27 C35 1_555 1_555
C36 C35 1_555 1_555
C37 C36 1_555 1_555
H28 C37 1_555 1_555
C38 N5 1_555 1_555
H29 C38 1_555 1_555
C39 C33 1_555 1_555
H30 C39 1_555 1_555
N6 C40 1_555 1_555
C40 H31 1_555 1_555
C41 C40 1_555 1_555
H32 C41 1_555 1_555
C42 C41 1_555 1_555
C43 C42 1_555 1_555
H33 C43 1_555 1_555
C44 N6 1_555 1_555
H34 C44 1_555 1_555
C45 C42 1_555 1_555
H35 C45 1_555 1_555
N7 H36 1_555 1_555
C46 N7 1_555 1_555
H37 C46 1_555 1_555
C47 C46 1_555 1_555
H38 C47 1_555 1_555
C48 C47 1_555 1_555
C49 C48 1_555 1_555
H39 C49 1_555 1_555
C50 N7 1_555 1_555
H40 C50 1_555 1_555
C51 C45 1_555 1_555
H41 C51 1_555 1_555
C5 C6 1_555 1_555
C10 C13 1_555 1_555
C11 C12 1_555 1_555
C17 C20 1_555 1_555
C18 C19 1_555 1_555
C25 C26 1_555 1_555
C31 C32 1_555 1_555
C36 C39 1_555 1_555
C37 C38 1_555 1_555
C43 C44 1_555 1_555
C48 C51 1_555 1_555
C49 C50 1_555 1_555

#END
