
#######################################################################
#
#                 Cambridge Crystallographic Data Centre
#                                CCDC 
#
#######################################################################
#
# If this CIF has been generated from an entry in the Cambridge 
# Structural Database, then it will include bibliographic, chemical, 
# crystal, experimental, refinement or atomic coordinate data resulting 
# from the CCDC's data processing and validation procedures.
#
#######################################################################

data_YISTOL
_chemical_formula_moiety         'C31 H31 N1 O6 S1,C1 H4 O1'
_chemical_name_systematic        
'Dimethyl 2-((4-methylphenyl)sulfonyl)-3,5-diphenyl-2,3,4,5-tetrahydro-1H-isoindole-3a,7a-dicarboxylate methanol solvate'
_symmetry_cell_setting           monoclinic
_symmetry_space_group_name_H-M   'P 21'
_symmetry_Int_Tables_number      4
_space_group_name_Hall           'P 2yb'
loop_
_symmetry_equiv_pos_site_id
_symmetry_equiv_pos_as_xyz
1 x,y,z
2 -x,1/2+y,-z
_cell_length_a                   9.7366(3)
_cell_length_b                   20.2854(6)
_cell_length_c                   14.3940(4)
_cell_angle_alpha                90
_cell_angle_beta                 90.097(2)
_cell_angle_gamma                90
_cell_volume                     2842.97
_cell_formula_units_Z            4
loop_
_atom_site_label
_atom_site_type_symbol
_atom_site_fract_x
_atom_site_fract_y
_atom_site_fract_z
S1 S 0.70444(7) 0.53477(3) 0.33815(4)
O1 O 0.6884(2) 0.58181(10) 0.41152(13)
O2 O 0.6336(2) 0.47301(10) 0.34144(13)
O3 O 0.9483(2) 0.69101(11) 0.13906(14)
O4 O 0.9398(2) 0.58540(10) 0.09252(14)
O5 O 0.7251(2) 0.49540(10) -0.01723(14)
O6 O 0.7517(2) 0.59755(10) -0.07404(14)
C1 C 0.8810(3) 0.51834(14) 0.32385(19)
C2 C 0.9766(3) 0.56649(15) 0.34697(19)
H1 H 0.9483 0.6054 0.3751
C3 C 1.1141(3) 0.55619(15) 0.3279(2)
H2 H 1.1779 0.5884 0.3441
C4 C 1.1588(3) 0.49845(15) 0.28502(19)
C5 C 1.0608(3) 0.45009(15) 0.26354(19)
H3 H 1.0889 0.4109 0.2360
C6 C 0.9230(3) 0.45961(15) 0.2826(2)
H4 H 0.8591 0.4271 0.2680
C7 C 1.3070(3) 0.48926(17) 0.2609(2)
H5 H 1.3335 0.5215 0.2155
H6 H 1.3204 0.4458 0.2359
H7 H 1.3621 0.4945 0.3157
C8 C 0.6942(3) 0.64155(13) 0.22817(18)
H8 H 0.7803 0.6488 0.2620
C9 C 0.7268(3) 0.64494(13) 0.12027(18)
C10 C 0.6860(3) 0.70926(14) 0.06986(18)
H9 H 0.7225 0.7461 0.1050
H10 H 0.7301 0.7096 0.0095
C11 C 0.5321(3) 0.72070(14) 0.05539(18)
H11 H 0.4964 0.7414 0.1119
C12 C 0.4536(3) 0.65672(15) 0.04109(19)
H12 H 0.3625 0.6595 0.0219
C13 C 0.5066(3) 0.59738(14) 0.05419(19)
H13 H 0.4483 0.5614 0.0472
C14 C 0.6546(3) 0.58346(13) 0.07958(19)
C15 C 0.6637(3) 0.53158(14) 0.15672(18)
H14 H 0.5892 0.5000 0.1521
H15 H 0.7506 0.5082 0.1545
C16 C 0.5899(3) 0.69061(15) 0.26387(18)
C17 C 0.6337(3) 0.75520(15) 0.27731(19)
H16 H 0.7257 0.7658 0.2687
C18 C 0.5414(4) 0.80405(16) 0.3034(2)
H17 H 0.5712 0.8473 0.3105
C19 C 0.4041(4) 0.78792(17) 0.3188(2)
H18 H 0.3411 0.8204 0.3349
C20 C 0.3624(4) 0.72262(18) 0.3099(2)
H19 H 0.2719 0.7112 0.3225
C21 C 0.4544(3) 0.67431(15) 0.28220(19)
H20 H 0.4252 0.6309 0.2759
C22 C 0.8828(3) 0.63600(14) 0.11354(18)
C23 C 1.0967(3) 0.68823(17) 0.1351(2)
H21 H 1.1256 0.6859 0.0714
H22 H 1.1285 0.6499 0.1678
H23 H 1.1345 0.7271 0.1633
C24 C 0.5019(3) 0.76707(14) -0.02530(19)
C25 C 0.3968(3) 0.81358(14) -0.0177(2)
H24 H 0.3470 0.8164 0.0373
C26 C 0.3655(3) 0.85551(14) -0.0905(2)
H25 H 0.2942 0.8857 -0.0843
C27 C 0.4396(3) 0.85287(15) -0.1723(2)
H26 H 0.4196 0.8817 -0.2207
C28 C 0.5440(3) 0.80676(15) -0.1814(2)
H27 H 0.5942 0.8044 -0.2362
C29 C 0.5735(3) 0.76386(15) -0.10811(19)
H28 H 0.6426 0.7326 -0.1151
C30 C 0.7199(3) 0.56068(14) -0.01178(19)
C31 C 0.7766(4) 0.46947(17) -0.1042(2)
H29 H 0.8700 0.4833 -0.1127
H30 H 0.7214 0.4858 -0.1545
H31 H 0.7724 0.4222 -0.1031
N1 N 0.6524(2) 0.57161(12) 0.24246(16)
S2 S 0.02963(7) 0.75936(3) 0.50539(5)
N2 N 0.0863(3) 0.72383(12) 0.60003(16)
O7 O 0.0468(2) 0.71344(11) 0.43119(13)
O8 O 0.0957(2) 0.82275(10) 0.50268(14)
O9 O -0.2123(2) 0.61102(10) 0.70928(14)
O10 O -0.1918(2) 0.71662(11) 0.75279(15)
O11 O 0.0352(2) 0.80445(11) 0.86006(14)
O12 O -0.0043(2) 0.70337(11) 0.91810(14)
C32 C -0.1470(3) 0.77371(14) 0.52182(19)
C33 C -0.2415(3) 0.72512(14) 0.49577(19)
H32 H -0.2121 0.6863 0.4678
C34 C -0.3790(3) 0.73596(15) 0.51245(19)
H33 H -0.4424 0.7041 0.4946
C35 C -0.4260(3) 0.79345(15) 0.55541(19)
C36 C -0.3291(3) 0.84116(15) 0.5798(2)
H34 H -0.3582 0.8800 0.6079
C37 C -0.1903(3) 0.83171(14) 0.56297(19)
H35 H -0.1270 0.8641 0.5792
C38 C -0.5757(3) 0.80406(17) 0.5749(2)
H36 H -0.6020 0.7788 0.6283
H37 H -0.6289 0.7902 0.5221
H38 H -0.5921 0.8500 0.5866
C39 C 0.0440(3) 0.65435(13) 0.61704(19)
H39 H -0.0432 0.6470 0.5845
C40 C 0.0141(3) 0.65248(13) 0.72477(18)
C41 C 0.0509(3) 0.58845(14) 0.77606(19)
H40 H 0.0096 0.5517 0.7431
H41 H 0.0105 0.5899 0.8376
C42 C 0.2059(3) 0.57527(14) 0.78618(19)
H42 H 0.2367 0.5558 0.7275
C43 C 0.2878(3) 0.63719(15) 0.8001(2)
H43 H 0.3788 0.6328 0.8189
C44 C 0.2397(3) 0.69771(14) 0.78762(18)
H44 H 0.3007 0.7327 0.7938
C45 C 0.0912(3) 0.71343(14) 0.76387(18)
C46 C 0.0820(3) 0.76429(14) 0.68582(18)
H45 H -0.0029 0.7891 0.6896
H46 H 0.1589 0.7947 0.6882
C47 C 0.1467(3) 0.60497(14) 0.58033(18)
C48 C 0.2823(3) 0.62110(16) 0.5586(2)
H47 H 0.3111 0.6647 0.5622
C49 C 0.3742(3) 0.57278(17) 0.5317(2)
H48 H 0.4642 0.5841 0.5169
C50 C 0.3324(4) 0.50741(17) 0.5268(2)
H49 H 0.3948 0.4747 0.5103
C51 C 0.1984(4) 0.49114(16) 0.5463(2)
H50 H 0.1705 0.4474 0.5425
C52 C 0.1040(3) 0.53947(15) 0.57157(19)
H51 H 0.0129 0.5282 0.5826
C53 C -0.1405(3) 0.66433(14) 0.73228(18)
C54 C -0.3604(3) 0.61791(16) 0.7165(2)
H52 H -0.3900 0.6550 0.6801
H53 H -0.3852 0.6248 0.7803
H54 H -0.4039 0.5786 0.6938
C55 C 0.2379(3) 0.52515(14) 0.8623(2)
C56 C 0.1787(3) 0.52858(16) 0.9497(2)
H55 H 0.1166 0.5621 0.9630
C57 C 0.2108(3) 0.48278(17) 1.0171(2)
H56 H 0.1689 0.4850 1.0750
C58 C 0.3064(4) 0.43295(17) 0.9987(3)
H57 H 0.3291 0.4025 1.0445
C59 C 0.3663(4) 0.42923(17) 0.9131(3)
H58 H 0.4296 0.3961 0.9005
C60 C 0.3325(3) 0.47539(16) 0.8443(2)
H59 H 0.3736 0.4727 0.7862
C61 C 0.0310(3) 0.73796(14) 0.8556(2)
C62 C -0.0082(4) 0.83131(17) 0.9488(2)
H60 H 0.0484 0.8137 0.9974
H61 H -0.1023 0.8196 0.9599
H62 H 0.0004 0.8784 0.9477
O13 O 0.1596(3) 0.92112(13) 0.37460(19)
H63 H 0.1348 0.8948 0.4144
C63 C 0.2763(5) 0.9561(2) 0.4070(3)
H64 H 0.3382 0.9636 0.3563
H65 H 0.3219 0.9307 0.4542
H66 H 0.2479 0.9976 0.4326
O14 O -0.0939(3) 0.34937(15) 0.7875(2)
H67 H -0.1301 0.3726 0.7477
C64 C 0.0479(5) 0.3634(3) 0.7916(5)
H68 H 0.0883 0.3562 0.7317
H69 H 0.0910 0.3351 0.8364
H70 H 0.0610 0.4086 0.8095
loop_
_geom_bond_atom_site_label_1
_geom_bond_atom_site_label_2
_geom_bond_site_symmetry_1
_geom_bond_site_symmetry_2
S1 O1 1_555 1_555
O2 S1 1_555 1_555
O3 C22 1_555 1_555
O4 C22 1_555 1_555
O5 C30 1_555 1_555
O6 C30 1_555 1_555
C1 S1 1_555 1_555
C2 C1 1_555 1_555
H1 C2 1_555 1_555
C3 C2 1_555 1_555
H2 C3 1_555 1_555
C4 C3 1_555 1_555
C5 C4 1_555 1_555
H3 C5 1_555 1_555
C6 C1 1_555 1_555
H4 C6 1_555 1_555
C7 C4 1_555 1_555
H5 C7 1_555 1_555
H6 C7 1_555 1_555
H7 C7 1_555 1_555
C8 H8 1_555 1_555
C9 C8 1_555 1_555
C10 C9 1_555 1_555
H9 C10 1_555 1_555
H10 C10 1_555 1_555
C11 C10 1_555 1_555
H11 C11 1_555 1_555
C12 C11 1_555 1_555
H12 C12 1_555 1_555
C13 C12 1_555 1_555
H13 C13 1_555 1_555
C14 C9 1_555 1_555
C15 C14 1_555 1_555
H14 C15 1_555 1_555
H15 C15 1_555 1_555
C16 C8 1_555 1_555
C17 C16 1_555 1_555
H16 C17 1_555 1_555
C18 C17 1_555 1_555
H17 C18 1_555 1_555
C19 C18 1_555 1_555
H18 C19 1_555 1_555
C20 C19 1_555 1_555
H19 C20 1_555 1_555
C21 C16 1_555 1_555
H20 C21 1_555 1_555
C22 C9 1_555 1_555
C23 O3 1_555 1_555
H21 C23 1_555 1_555
H22 C23 1_555 1_555
H23 C23 1_555 1_555
C24 C11 1_555 1_555
C25 C24 1_555 1_555
H24 C25 1_555 1_555
C26 C25 1_555 1_555
H25 C26 1_555 1_555
C27 C26 1_555 1_555
H26 C27 1_555 1_555
C28 C27 1_555 1_555
H27 C28 1_555 1_555
C29 C24 1_555 1_555
H28 C29 1_555 1_555
C30 C14 1_555 1_555
C31 O5 1_555 1_555
H29 C31 1_555 1_555
H30 C31 1_555 1_555
H31 C31 1_555 1_555
N1 S1 1_555 1_555
S2 N2 1_555 1_555
N2 C39 1_555 1_555
O7 S2 1_555 1_555
O8 S2 1_555 1_555
O9 C53 1_555 1_555
O10 C53 1_555 1_555
O11 C61 1_555 1_555
O12 C61 1_555 1_555
C32 S2 1_555 1_555
C33 C32 1_555 1_555
H32 C33 1_555 1_555
C34 C33 1_555 1_555
H33 C34 1_555 1_555
C35 C34 1_555 1_555
C36 C35 1_555 1_555
H34 C36 1_555 1_555
C37 C32 1_555 1_555
H35 C37 1_555 1_555
C38 C35 1_555 1_555
H36 C38 1_555 1_555
H37 C38 1_555 1_555
H38 C38 1_555 1_555
C39 H39 1_555 1_555
C40 C39 1_555 1_555
C41 C40 1_555 1_555
H40 C41 1_555 1_555
H41 C41 1_555 1_555
C42 C41 1_555 1_555
H42 C42 1_555 1_555
C43 C42 1_555 1_555
H43 C43 1_555 1_555
C44 C43 1_555 1_555
H44 C44 1_555 1_555
C45 C40 1_555 1_555
C46 N2 1_555 1_555
H45 C46 1_555 1_555
H46 C46 1_555 1_555
C47 C39 1_555 1_555
C48 C47 1_555 1_555
H47 C48 1_555 1_555
C49 C48 1_555 1_555
H48 C49 1_555 1_555
C50 C49 1_555 1_555
H49 C50 1_555 1_555
C51 C50 1_555 1_555
H50 C51 1_555 1_555
C52 C47 1_555 1_555
H51 C52 1_555 1_555
C53 C40 1_555 1_555
C54 O9 1_555 1_555
H52 C54 1_555 1_555
H53 C54 1_555 1_555
H54 C54 1_555 1_555
C55 C42 1_555 1_555
C56 C55 1_555 1_555
H55 C56 1_555 1_555
C57 C56 1_555 1_555
H56 C57 1_555 1_555
C58 C57 1_555 1_555
H57 C58 1_555 1_555
C59 C58 1_555 1_555
H58 C59 1_555 1_555
C60 C55 1_555 1_555
H59 C60 1_555 1_555
C61 C45 1_555 1_555
C62 O11 1_555 1_555
H60 C62 1_555 1_555
H61 C62 1_555 1_555
H62 C62 1_555 1_555
O13 H63 1_555 1_555
C63 O13 1_555 1_555
H64 C63 1_555 1_555
H65 C63 1_555 1_555
H66 C63 1_555 1_555
O14 H67 1_555 1_555
C64 O14 1_555 1_555
H68 C64 1_555 1_555
H69 C64 1_555 1_555
H70 C64 1_555 1_555
C5 C6 1_555 1_555
C8 N1 1_555 1_555
C13 C14 1_555 1_555
C15 N1 1_555 1_555
C20 C21 1_555 1_555
C28 C29 1_555 1_555
C36 C37 1_555 1_555
C44 C45 1_555 1_555
C45 C46 1_555 1_555
C51 C52 1_555 1_555
C59 C60 1_555 1_555

#END
