
#######################################################################
#
#                 Cambridge Crystallographic Data Centre
#                                CCDC 
#
#######################################################################
#
# If this CIF has been generated from an entry in the Cambridge 
# Structural Database, then it will include bibliographic, chemical, 
# crystal, experimental, refinement or atomic coordinate data resulting 
# from the CCDC's data processing and validation procedures.
#
#######################################################################

data_YIVVIJ
_chemical_formula_moiety         'C19 H21 N1 O2'
_chemical_name_systematic        'N-(Diphenylmethylene)glycine t-butyl ester'
_symmetry_cell_setting           orthorhombic
_symmetry_space_group_name_H-M   'P 21 21 21'
_symmetry_Int_Tables_number      19
_space_group_name_Hall           'P 2ac 2ab'
loop_
_symmetry_equiv_pos_site_id
_symmetry_equiv_pos_as_xyz
1 x,y,z
2 1/2+x,1/2-y,-z
3 -x,1/2+y,1/2-z
4 1/2-x,-y,1/2+z
_cell_length_a                   5.890(3)
_cell_length_b                   13.277(6)
_cell_length_c                   20.849(10)
_cell_angle_alpha                90
_cell_angle_beta                 90
_cell_angle_gamma                90
_cell_volume                     1630.42
_exptl_crystal_colour            colorless
_exptl_crystal_description       block
_cell_formula_units_Z            4
loop_
_atom_site_label
_atom_site_type_symbol
_atom_site_fract_x
_atom_site_fract_y
_atom_site_fract_z
O1 O 0.2048(3) 0.16291(11) 0.09965(6)
O2 O 0.4083(2) 0.05576(9) 0.03847(5)
N1 N 0.5272(3) 0.15469(10) 0.19582(6)
C1 C 0.6148(3) 0.12438(11) 0.24859(7)
C2 C 0.7710(3) 0.03679(11) 0.25722(8)
C3 C 0.9787(3) 0.03169(14) 0.22562(9)
H1 H 1.0201 0.0826 0.1973
C4 C 1.1236(3) -0.04829(15) 0.23597(11)
H2 H 1.2621 -0.0510 0.2146
C5 C 1.0640(4) -0.12425(15) 0.27782(10)
H3 H 1.1626 -0.1779 0.2848
C6 C 0.8583(4) -0.12085(14) 0.30942(10)
H4 H 0.8177 -0.1725 0.3373
C7 C 0.7123(3) -0.04036(12) 0.29960(8)
H5 H 0.5746 -0.0378 0.3214
C8 C 0.5565(3) 0.18367(11) 0.30765(7)
C9 C 0.7083(4) 0.19131(14) 0.35845(8)
H6 H 0.8448 0.1562 0.3574
C10 C 0.6552(4) 0.25165(16) 0.41091(9)
H7 H 0.7574 0.2572 0.4447
C11 C 0.4531(4) 0.30308(14) 0.41320(9)
H8 H 0.4199 0.3439 0.4482
C12 C 0.2994(4) 0.29434(14) 0.36373(9)
H9 H 0.1616 0.3284 0.3656
C13 C 0.3511(3) 0.23456(13) 0.31120(8)
H10 H 0.2469 0.2285 0.2779
C14 C 0.5695(3) 0.10044(13) 0.13644(8)
H11 H 0.5936 0.0297 0.1457
H12 H 0.7058 0.1265 0.1163
C15 C 0.3699(3) 0.11186(13) 0.09096(8)
C16 C 0.2436(3) 0.05211(14) -0.01518(8)
C17 C 0.2264(5) 0.15491(16) -0.04568(10)
H13 H 0.1560 0.2008 -0.0162
H14 H 0.1365 0.1506 -0.0840
H15 H 0.3756 0.1787 -0.0563
C18 C 0.3533(4) -0.02240(16) -0.06092(9)
H16 H 0.4967 0.0037 -0.0751
H17 H 0.2559 -0.0326 -0.0972
H18 H 0.3767 -0.0854 -0.0393
C19 C 0.0182(4) 0.0119(2) 0.00807(14)
H19 H -0.0498 0.0597 0.0368
H20 H 0.0416 -0.0507 0.0301
H21 H -0.0805 0.0012 -0.0279
loop_
_geom_bond_atom_site_label_1
_geom_bond_atom_site_label_2
_geom_bond_site_symmetry_1
_geom_bond_site_symmetry_2
O1 C15 1_555 1_555
O2 C15 1_555 1_555
N1 C1 1_555 1_555
C1 C2 1_555 1_555
C2 C3 1_555 1_555
C3 H1 1_555 1_555
C4 C3 1_555 1_555
H2 C4 1_555 1_555
C5 C4 1_555 1_555
H3 C5 1_555 1_555
C6 C5 1_555 1_555
H4 C6 1_555 1_555
C7 C2 1_555 1_555
H5 C7 1_555 1_555
C8 C1 1_555 1_555
C9 C8 1_555 1_555
H6 C9 1_555 1_555
C10 C9 1_555 1_555
H7 C10 1_555 1_555
C11 C10 1_555 1_555
H8 C11 1_555 1_555
C12 C11 1_555 1_555
H9 C12 1_555 1_555
C13 C8 1_555 1_555
H10 C13 1_555 1_555
C14 N1 1_555 1_555
H11 C14 1_555 1_555
H12 C14 1_555 1_555
C15 C14 1_555 1_555
C16 O2 1_555 1_555
C17 C16 1_555 1_555
H13 C17 1_555 1_555
H14 C17 1_555 1_555
H15 C17 1_555 1_555
C18 C16 1_555 1_555
H16 C18 1_555 1_555
H17 C18 1_555 1_555
H18 C18 1_555 1_555
C19 C16 1_555 1_555
H19 C19 1_555 1_555
H20 C19 1_555 1_555
H21 C19 1_555 1_555
C6 C7 1_555 1_555
C12 C13 1_555 1_555

#END
