
#######################################################################
#
#                 Cambridge Crystallographic Data Centre
#                                CCDC 
#
#######################################################################
#
# If this CIF has been generated from an entry in the Cambridge 
# Structural Database, then it will include bibliographic, chemical, 
# crystal, experimental, refinement or atomic coordinate data resulting 
# from the CCDC's data processing and validation procedures.
#
#######################################################################

data_YIWLIB
_chemical_formula_moiety         'C24 Br4 Cl4 O6,1.5(C1 H2 Cl2)'
_chemical_name_systematic        
"4,7,11,14-tetrabromo-5,6,12,13-tetrachloroisochromeno[4',5',6':6,5,10]anthra[2,1,9-def]isochromene-1,3,8,10-tetrone dichloromethane solvate"
_symmetry_cell_setting           monoclinic
_symmetry_space_group_name_H-M   'P 21/c'
_symmetry_Int_Tables_number      14
_space_group_name_Hall           '-P 2ybc'
loop_
_symmetry_equiv_pos_site_id
_symmetry_equiv_pos_as_xyz
1 x,y,z
2 -x,1/2+y,1/2-z
3 -x,-y,-z
4 x,1/2-y,1/2+z
_cell_length_a                   11.597(2)
_cell_length_b                   23.944(5)
_cell_length_c                   10.822(2)
_cell_angle_alpha                90
_cell_angle_beta                 113.86(3)
_cell_angle_gamma                90
_cell_volume                     2748.22
_exptl_crystal_colour            red
_exptl_crystal_description       block
_cell_formula_units_Z            4
loop_
_atom_site_label
_atom_site_type_symbol
_atom_site_fract_x
_atom_site_fract_y
_atom_site_fract_z
Br1 Br 1.03850(5) 0.67383(2) 0.33742(5)
Br2 Br 0.63502(5) 0.84692(2) 0.68669(5)
Br3 Br 1.03289(5) 0.45373(2) 0.88524(5)
Br4 Br 0.28681(5) 0.55075(2) 0.57784(5)
Cl1 Cl 0.95737(12) 0.56743(5) 0.45065(12)
Cl2 Cl 1.08015(11) 0.56569(5) 0.76699(13)
Cl3 Cl 0.54392(11) 0.72992(5) 0.73839(12)
Cl4 Cl 0.38259(11) 0.66019(5) 0.49205(12)
O1 O 0.9894(4) 0.79180(16) 0.3506(4)
O2 O 0.8679(4) 0.83225(14) 0.4330(4)
O3 O 0.7347(4) 0.87971(15) 0.4870(4)
O4 O 0.8040(4) 0.39753(18) 0.8650(5)
O5 O 0.6084(4) 0.42462(15) 0.7619(4)
O6 O 0.4081(4) 0.44419(16) 0.6682(4)
C1 C 0.9240(5) 0.7848(2) 0.4103(4)
C2 C 0.8940(4) 0.73163(19) 0.4593(4)
C3 C 0.9385(4) 0.6808(2) 0.4374(4)
C4 C 0.9136(4) 0.63094(18) 0.4932(4)
C5 C 0.8438(4) 0.63258(18) 0.5721(4)
C6 C 0.8298(4) 0.58584(18) 0.6540(4)
C7 C 0.9254(4) 0.54958(18) 0.7305(4)
C8 C 0.8970(4) 0.50050(18) 0.7851(4)
C9 C 0.7732(5) 0.48794(18) 0.7620(4)
C10 C 0.7363(5) 0.4340(2) 0.8039(6)
C11 C 0.5124(5) 0.4615(2) 0.7002(5)
C12 C 0.5480(4) 0.51833(19) 0.6730(4)
C13 C 0.4595(4) 0.5598(2) 0.6156(4)
C14 C 0.4965(4) 0.61268(19) 0.5844(4)
C15 C 0.6231(4) 0.62440(18) 0.6175(4)
C16 C 0.6746(4) 0.68013(18) 0.6111(4)
C17 C 0.6365(4) 0.72999(19) 0.6482(4)
C18 C 0.6809(4) 0.78210(18) 0.6201(4)
C19 C 0.7573(4) 0.78304(19) 0.5493(4)
C20 C 0.7823(5) 0.8351(2) 0.4925(5)
C21 C 0.8087(4) 0.73267(18) 0.5242(4)
C22 C 0.7764(4) 0.68177(18) 0.5696(4)
C23 C 0.7099(4) 0.57952(18) 0.6574(4)
C24 C 0.6764(4) 0.52805(19) 0.6975(4)
Cl5 Cl 0.22462(13) 0.76433(6) 0.68255(15)
Cl6 Cl 0.34787(18) 0.67957(9) 0.88684(19)
C25 C 0.2155(6) 0.6968(3) 0.7410(6)
H1 H 0.1392 0.6941 0.7603
H2 H 0.2067 0.6695 0.6691
Cl7? Cl 0.63475(18) 0.49920(10) 1.0359(2)
C26? C 0.4905(14) 0.5351(5) 0.9753(11)
H3? H 0.4996 0.5668 1.0328
H4? H 0.4755 0.5491 0.8870
loop_
_geom_bond_atom_site_label_1
_geom_bond_atom_site_label_2
_geom_bond_site_symmetry_1
_geom_bond_site_symmetry_2
Br1 C3 1_555 1_555
Br2 C18 1_555 1_555
Br3 C8 1_555 1_555
Br4 C13 1_555 1_555
Cl1 C4 1_555 1_555
Cl2 C7 1_555 1_555
Cl3 C17 1_555 1_555
Cl4 C14 1_555 1_555
O1 C1 1_555 1_555
O2 C1 1_555 1_555
O3 C20 1_555 1_555
O4 C10 1_555 1_555
O5 C10 1_555 1_555
O6 C11 1_555 1_555
C1 C2 1_555 1_555
C2 C3 1_555 1_555
C3 C4 1_555 1_555
C4 C5 1_555 1_555
C5 C6 1_555 1_555
C6 C7 1_555 1_555
C7 C8 1_555 1_555
C8 C9 1_555 1_555
C9 C10 1_555 1_555
C11 O5 1_555 1_555
C12 C11 1_555 1_555
C13 C12 1_555 1_555
C14 C13 1_555 1_555
C15 C14 1_555 1_555
C16 C15 1_555 1_555
C17 C16 1_555 1_555
C18 C17 1_555 1_555
C19 C18 1_555 1_555
C20 O2 1_555 1_555
C21 C2 1_555 1_555
C22 C5 1_555 1_555
C23 C6 1_555 1_555
C24 C9 1_555 1_555
Cl5 C25 1_555 1_555
Cl6 C25 1_555 1_555
C25 H1 1_555 1_555
H2 C25 1_555 1_555
C12 C24 1_555 1_555
C15 C23 1_555 1_555
C16 C22 1_555 1_555
C19 C20 1_555 1_555
C19 C21 1_555 1_555
C21 C22 1_555 1_555
C23 C24 1_555 1_555

#END
