
#######################################################################
#
#                 Cambridge Crystallographic Data Centre
#                                CCDC 
#
#######################################################################
#
# If this CIF has been generated from an entry in the Cambridge 
# Structural Database, then it will include bibliographic, chemical, 
# crystal, experimental, refinement or atomic coordinate data resulting 
# from the CCDC's data processing and validation procedures.
#
#######################################################################

data_YIWMEY
_chemical_formula_moiety         'C38 H37 Br1 N2 O4'
_chemical_name_systematic        
5-Bromo-2,9-bis(2,4-dimethylpentan-3-yl)isoquinolino[4',5',6':6,5,10]anthra[2,1,9-def]isoquinoline-1,3,8,10(2H,9H)-tetrone
_symmetry_cell_setting           monoclinic
_symmetry_space_group_name_H-M   'P 21/c'
_symmetry_Int_Tables_number      14
_space_group_name_Hall           '-P 2ybc'
loop_
_symmetry_equiv_pos_site_id
_symmetry_equiv_pos_as_xyz
1 x,y,z
2 -x,1/2+y,1/2-z
3 -x,-y,-z
4 x,1/2-y,1/2+z
_cell_length_a                   11.8684(16)
_cell_length_b                   10.4779(12)
_cell_length_c                   12.9729(16)
_cell_angle_alpha                90
_cell_angle_beta                 100.502(4)
_cell_angle_gamma                90
_cell_volume                     1586.23
_cell_formula_units_Z            2
loop_
_atom_site_label
_atom_site_type_symbol
_atom_site_fract_x
_atom_site_fract_y
_atom_site_fract_z
Br1 Br 0.2445(2) 0.1999(3) 0.1210(3)
N1 N 0.7411(5) 0.1198(5) 0.4104(5)
O1 O 0.8732(5) -0.0240(6) 0.3887(5)
O2 O 0.6044(5) 0.2655(6) 0.4227(5)
C1 C 0.8037(7) 0.1511(7) 0.5192(6)
H1 H 0.8735 0.1016 0.5178
C2 C 0.8534(12) 0.2739(14) 0.5285(8)
H2 H 0.7902 0.3318 0.5348
C3 C 0.891(3) 0.3123(16) 0.4241(13)
H3 H 0.8481 0.2636 0.3675
H4 H 0.9712 0.2955 0.4290
H5 H 0.8765 0.4016 0.4113
C4 C 0.9377(19) 0.284(2) 0.6368(12)
H6 H 0.8970 0.2644 0.6925
H7 H 0.9681 0.3687 0.6458
H8 H 0.9993 0.2240 0.6383
C5 C 0.7625(9) 0.0798(10) 0.6068(10)
H9 H 0.7475 0.1475 0.6546
C6 C 0.8464(11) -0.0004(14) 0.6715(13)
H10 H 0.8763 -0.0611 0.6280
H11 H 0.8107 -0.0448 0.7217
H12 H 0.9077 0.0516 0.7076
C7 C 0.6453(11) 0.0089(16) 0.5779(14)
H13 H 0.5914 0.0623 0.5333
H14 H 0.6166 -0.0102 0.6408
H15 H 0.6557 -0.0691 0.5419
C8 C 0.7860(6) 0.0258(7) 0.3524(6)
C9 C 0.6377(6) 0.1848(6) 0.3714(6)
C10 C 0.5746(5) 0.1483(6) 0.2684(5)
C11 C 0.6178(4) 0.0592(5) 0.2048(5)
C12 C 0.7248(4) 0.0009(5) 0.2451(5)
C13 C 0.7687(5) -0.0823(6) 0.1835(6)
H16 H 0.8378 -0.1226 0.2097
C14 C 0.6082(4) -0.0581(4) 0.0408(5)
C15 C 0.5599(4) 0.0306(4) 0.1036(4)
C16 C 0.4521(4) 0.0890(4) 0.0658(5)
C17 C 0.7143(5) -0.1090(6) 0.0832(6)
C18 C 0.4127(6) 0.1750(7) 0.1314(6)
H17 H 0.7498 -0.1632 0.0422
C19 C 0.4718(6) 0.2056(7) 0.2291(6)
H18 H 0.4419 0.2659 0.2693
Br1B Br 0.7555(2) -0.1999(3) -0.1210(3)
N1B N 0.2589(5) -0.1198(5) -0.4104(5)
O1B O 0.1268(5) 0.0240(6) -0.3887(5)
O2B O 0.3956(5) -0.2655(6) -0.4227(5)
C1B C 0.1963(7) -0.1511(7) -0.5192(6)
H1B H 0.1265 -0.1016 -0.5178
C2B C 0.1466(12) -0.2739(14) -0.5285(8)
H2B H 0.2098 -0.3318 -0.5348
C3B C 0.109(3) -0.3123(16) -0.4241(13)
H3B H 0.1519 -0.2636 -0.3675
H4B H 0.0288 -0.2955 -0.4290
H5B H 0.1235 -0.4016 -0.4113
C4B C 0.0623(19) -0.284(2) -0.6368(12)
H6B H 0.1030 -0.2644 -0.6925
H7B H 0.0319 -0.3687 -0.6458
H8B H 0.0007 -0.2240 -0.6383
C5B C 0.2375(9) -0.0798(10) -0.6068(10)
H9B H 0.2525 -0.1475 -0.6546
C6B C 0.1536(11) 0.0004(14) -0.6715(13)
H10B H 0.1237 0.0611 -0.6280
H11B H 0.1893 0.0448 -0.7217
H12B H 0.0923 -0.0516 -0.7076
C7B C 0.3547(11) -0.0089(16) -0.5779(14)
H13B H 0.4086 -0.0623 -0.5333
H14B H 0.3834 0.0102 -0.6408
H15B H 0.3443 0.0691 -0.5419
C8B C 0.2140(6) -0.0258(7) -0.3524(6)
C9B C 0.3623(6) -0.1848(6) -0.3714(6)
C10B C 0.4254(5) -0.1483(6) -0.2684(5)
C11B C 0.3822(4) -0.0592(5) -0.2048(5)
C12B C 0.2752(4) -0.0009(5) -0.2451(5)
C13B C 0.2313(5) 0.0823(6) -0.1835(6)
H16B H 0.1622 0.1226 -0.2097
C14B C 0.3918(4) 0.0581(4) -0.0408(5)
C15B C 0.4401(4) -0.0306(4) -0.1036(4)
C16B C 0.5479(4) -0.0890(4) -0.0658(5)
C17B C 0.2857(5) 0.1090(6) -0.0832(6)
C18B C 0.5873(6) -0.1750(7) -0.1314(6)
H17B H 0.2502 0.1632 -0.0422
C19B C 0.5282(6) -0.2056(7) -0.2291(6)
H18B H 0.5581 -0.2659 -0.2693
Br2? Br 0.8133(2) -0.1784(4) -0.0065(3)
C20? C 0.907(2) 0.2177(19) 0.5249(9)
H19? H 0.9654 0.1510 0.5272
C21? C 0.938(3) 0.3167(19) 0.448(2)
H20? H 1.0020 0.3665 0.4825
H21? H 0.8736 0.3718 0.4259
H22? H 0.9580 0.2743 0.3887
C22? C 0.955(2) 0.308(2) 0.6207(17)
H23? H 0.9212 0.2833 0.6800
H24? H 0.9347 0.3945 0.6023
H25? H 1.0363 0.2995 0.6382
C23? C 0.788(3) -0.0596(18) 0.600(3)
H26? H 0.7199 -0.1041 0.5683
H27? H 0.8147 -0.0927 0.6693
H28? H 0.8464 -0.0715 0.5584
C24? C 0.650(2) 0.109(3) 0.631(2)
H29? H 0.5912 0.0775 0.5760
H30? H 0.6417 0.2002 0.6365
H31? H 0.6422 0.0701 0.6962
H32? H 0.3424 0.2144 0.1081
loop_
_geom_bond_atom_site_label_1
_geom_bond_atom_site_label_2
_geom_bond_site_symmetry_1
_geom_bond_site_symmetry_2
Br1 C18 1_555 1_555
N1 C1 1_555 1_555
O1 C8 1_555 1_555
O2 C9 1_555 1_555
C1 H1 1_555 1_555
C2 C1 1_555 1_555
H2 C2 1_555 1_555
C3 C2 1_555 1_555
H3 C3 1_555 1_555
H4 C3 1_555 1_555
H5 C3 1_555 1_555
C4 C2 1_555 1_555
H6 C4 1_555 1_555
H7 C4 1_555 1_555
H8 C4 1_555 1_555
C5 C1 1_555 1_555
H9 C5 1_555 1_555
C6 C5 1_555 1_555
H10 C6 1_555 1_555
H11 C6 1_555 1_555
H12 C6 1_555 1_555
C7 C5 1_555 1_555
H13 C7 1_555 1_555
H14 C7 1_555 1_555
H15 C7 1_555 1_555
C8 N1 1_555 1_555
C9 N1 1_555 1_555
C10 C9 1_555 1_555
C11 C10 1_555 1_555
C12 C8 1_555 1_555
C13 C12 1_555 1_555
H16 C13 1_555 1_555
C14 C15 1_555 1_555
C15 C11 1_555 1_555
C16 C15 1_555 1_555
C17 C13 1_555 1_555
C18 C16 1_555 1_555
H17 C17 1_555 1_555
C19 C10 1_555 1_555
H18 C19 1_555 1_555
Br1B C18B 1_555 1_555
N1B C1B 1_555 1_555
O1B C8B 1_555 1_555
O2B C9B 1_555 1_555
C1B H1B 1_555 1_555
C2B C1B 1_555 1_555
H2B C2B 1_555 1_555
C3B C2B 1_555 1_555
H3B C3B 1_555 1_555
H4B C3B 1_555 1_555
H5B C3B 1_555 1_555
C4B C2B 1_555 1_555
H6B C4B 1_555 1_555
H7B C4B 1_555 1_555
H8B C4B 1_555 1_555
C5B C1B 1_555 1_555
H9B C5B 1_555 1_555
C6B C5B 1_555 1_555
H10B C6B 1_555 1_555
H11B C6B 1_555 1_555
H12B C6B 1_555 1_555
C7B C5B 1_555 1_555
H13B C7B 1_555 1_555
H14B C7B 1_555 1_555
H15B C7B 1_555 1_555
C8B N1B 1_555 1_555
C9B N1B 1_555 1_555
C10B C9B 1_555 1_555
C11B C10B 1_555 1_555
C12B C8B 1_555 1_555
C13B C12B 1_555 1_555
H16B C13B 1_555 1_555
C14B C16 1_555 1_555
C15B C11B 1_555 1_555
C16B C14 1_555 1_555
C17B C13B 1_555 1_555
C18B C16B 1_555 1_555
H17B C17B 1_555 1_555
C19B C10B 1_555 1_555
H18B C19B 1_555 1_555
C11 C12 1_555 1_555
C14 C17 1_555 1_555
C18 C19 1_555 1_555
C11B C12B 1_555 1_555
C14B C15B 1_555 1_555
C14B C17B 1_555 1_555
C15B C16B 1_555 1_555
C18B C19B 1_555 1_555

#END
