
#######################################################################
#
#                 Cambridge Crystallographic Data Centre
#                                CCDC 
#
#######################################################################
#
# If this CIF has been generated from an entry in the Cambridge 
# Structural Database, then it will include bibliographic, chemical, 
# crystal, experimental, refinement or atomic coordinate data resulting 
# from the CCDC's data processing and validation procedures.
#
#######################################################################

data_YIWYOS
_chemical_formula_moiety         'C34 H33 N1 O4'
_chemical_name_systematic        
Fluorene-9-spiro-1'-(6,7-benzo-1,8a-dihydroindolizine)
_symmetry_cell_setting           monoclinic
_symmetry_space_group_name_H-M   'P 21/a'
_symmetry_Int_Tables_number      14
_space_group_name_Hall           '-P 2yab'
loop_
_symmetry_equiv_pos_site_id
_symmetry_equiv_pos_as_xyz
1 x,y,z
2 1/2-x,1/2+y,-z
3 -x,-y,-z
4 1/2+x,1/2-y,z
_cell_length_a                   19.27(1)
_cell_length_b                   12.837(9)
_cell_length_c                   11.913(5)
_cell_angle_alpha                90
_cell_angle_beta                 104.00(5)
_cell_angle_gamma                90
_cell_volume                     2859.37
_cell_formula_units_Z            4
loop_
_atom_site_label
_atom_site_type_symbol
_atom_site_fract_x
_atom_site_fract_y
_atom_site_fract_z
O1 O 0.2666(2) 0.4121(2) 0.3353(2)
N1 N 0.2065(2) 0.2196(3) 0.1817(3)
C1 C 0.0956(3) 0.1332(4) 0.0151(4)
C2 C 0.3036(3) 0.1430(4) 0.1169(4)
O2 O 0.4099(2) 0.2588(3) 0.3944(3)
C3 C 0.2636(3) 0.3127(3) 0.3619(4)
O3 O 0.2534(2) 0.2768(3) 0.4489(3)
C4 C 0.1780(3) 0.0415(4) -0.0731(4)
C5 C 0.0828(3) 0.2041(4) 0.1026(4)
C6 C 0.3447(3) 0.1532(4) 0.0242(4)
C7 C 0.3594(3) -0.0183(4) 0.0899(4)
C8 C 0.1655(3) 0.1124(3) 0.0066(4)
C9 C 0.3542(3) -0.1756(4) 0.1933(5)
C10 C 0.3144(2) 0.0282(4) 0.1508(4)
C11 C 0.1219(3) -0.0069(4) -0.1495(4)
C12 C 0.2546(3) 0.4974(4) 0.4135(4)
C13 C 0.0400(3) 0.0841(4) -0.0633(5)
C14 C 0.3802(3) -0.1212(4) 0.1107(4)
C15 C 0.3110(3) 0.4928(4) 0.5253(4)
C16 C 0.3274(3) 0.2108(4) 0.2258(4)
C17 C 0.4797(3) 0.2532(4) 0.4813(4)
C18 C 0.1802(3) 0.4890(5) 0.4317(5)
C19 C 0.3086(3) -0.1280(4) 0.2518(4)
C20 C 0.4026(3) 0.2134(4) 0.2910(4)
C21 C 0.2693(3) 0.2473(3) 0.2591(4)
C22 C 0.3760(3) 0.0593(4) 0.0094(4)
C23 C 0.2893(3) -0.0260(4) 0.2317(4)
C24 C 0.1369(3) 0.2432(4) 0.1837(4)
C25 C 0.4225(3) 0.1327(6) -0.1400(5)
C26 C 0.3915(3) 0.2257(5) -0.1259(4)
C27 C 0.2255(3) 0.1823(4) 0.0744(4)
C28 C 0.4628(4) 0.2997(7) 0.5866(5)
C29 C 0.3519(3) 0.2404(4) -0.0449(4)
C30 C 0.0533(3) 0.0152(4) -0.1443(5)
C31 C 0.4153(3) 0.0495(5) -0.0728(4)
C32 C 0.2631(4) 0.5941(4) 0.3455(5)
O4 O 0.4505(2) 0.1793(4) 0.2535(3)
C33 C 0.5332(4) 0.3160(7) 0.4413(7)
C34 C 0.5002(4) 0.1421(6) 0.5030(6)
H1 H 0.2279 0.0275 -0.0752
H2 H 0.0329 0.2257 0.1009
H3 H 0.3683 -0.2480 0.2117
H4 H 0.1314 -0.0578 -0.2066
H5 H -0.0098 0.1012 -0.0618
H6 H 0.4137 -0.1536 0.0691
H7 H 0.3040 0.5484 0.5775
H8 H 0.3583 0.5016 0.5121
H9 H 0.3096 0.4274 0.5644
H10 H 0.1714 0.5445 0.4836
H11 H 0.1737 0.4233 0.4689
H12 H 0.1440 0.4942 0.3609
H13 H 0.2906 -0.1697 0.3073
H14 H 0.2572 0.0080 0.2751
H15 H 0.1274 0.2871 0.2452
H16 H 0.4508 0.1279 -0.1960
H17 H 0.3985 0.2845 -0.1764
H18 H 0.2270 0.2358 0.0160
H19 H 0.5036 0.2994 0.6519
H20 H 0.4254 0.2568 0.6093
H21 H 0.4444 0.3687 0.5730
H22 H 0.3290 0.3078 -0.0357
H23 H 0.0132 -0.0200 -0.1985
H24 H 0.4378 -0.0208 -0.0860
H25 H 0.2564 0.6569 0.3871
H26 H 0.2287 0.5956 0.2711
H27 H 0.3106 0.5973 0.3312
H28 H 0.5797 0.3126 0.4963
H29 H 0.5191 0.3874 0.4306
H30 H 0.5398 0.2890 0.3678
H31 H 0.5456 0.1351 0.5608
H32 H 0.5040 0.1065 0.4346
H33 H 0.4644 0.1056 0.5350
loop_
_geom_bond_atom_site_label_1
_geom_bond_atom_site_label_2
_geom_bond_site_symmetry_1
_geom_bond_site_symmetry_2
O1 C3 1_555 1_555
N1 C21 1_555 1_555
C1 C5 1_555 1_555
C2 C6 1_555 1_555
O2 C17 1_555 1_555
C3 O3 1_555 1_555
C4 C8 1_555 1_555
C5 C24 1_555 1_555
C6 C22 1_555 1_555
C7 C10 1_555 1_555
C8 C1 1_555 1_555
C9 C14 1_555 1_555
C10 C2 1_555 1_555
C11 C4 1_555 1_555
C12 O1 1_555 1_555
C13 C1 1_555 1_555
C14 C7 1_555 1_555
C15 C12 1_555 1_555
C16 C2 1_555 1_555
C17 C28 1_555 1_555
C18 C12 1_555 1_555
C19 C9 1_555 1_555
C20 O2 1_555 1_555
C21 C3 1_555 1_555
C22 C7 1_555 1_555
C23 C10 1_555 1_555
C24 N1 1_555 1_555
C25 C26 1_555 1_555
C26 C29 1_555 1_555
C27 N1 1_555 1_555
C28 H19 1_555 1_555
C29 C6 1_555 1_555
C30 C11 1_555 1_555
C31 C22 1_555 1_555
C32 C12 1_555 1_555
O4 C20 1_555 1_555
C33 C17 1_555 1_555
C34 C17 1_555 1_555
H1 C4 1_555 1_555
H2 C5 1_555 1_555
H3 C9 1_555 1_555
H4 C11 1_555 1_555
H5 C13 1_555 1_555
H6 C14 1_555 1_555
H7 C15 1_555 1_555
H8 C15 1_555 1_555
H9 C15 1_555 1_555
H10 C18 1_555 1_555
H11 C18 1_555 1_555
H12 C18 1_555 1_555
H13 C19 1_555 1_555
H14 C23 1_555 1_555
H15 C24 1_555 1_555
H16 C25 1_555 1_555
H17 C26 1_555 1_555
H18 C27 1_555 1_555
H20 C28 1_555 1_555
H21 C28 1_555 1_555
H22 C29 1_555 1_555
H23 C30 1_555 1_555
H24 C31 1_555 1_555
H25 C32 1_555 1_555
H26 C32 1_555 1_555
H27 C32 1_555 1_555
H28 C33 1_555 1_555
H29 C33 1_555 1_555
H30 C33 1_555 1_555
H31 C34 1_555 1_555
H32 C34 1_555 1_555
H33 C34 1_555 1_555
C2 C27 1_555 1_555
C8 C27 1_555 1_555
C13 C30 1_555 1_555
C16 C20 1_555 1_555
C16 C21 1_555 1_555
C19 C23 1_555 1_555
C25 C31 1_555 1_555

#END
