
#######################################################################
#
#                 Cambridge Crystallographic Data Centre
#                                CCDC 
#
#######################################################################
#
# If this CIF has been generated from an entry in the Cambridge 
# Structural Database, then it will include bibliographic, chemical, 
# crystal, experimental, refinement or atomic coordinate data resulting 
# from the CCDC's data processing and validation procedures.
#
#######################################################################

data_YIXMOI
_chemical_formula_moiety         'C16 H14 O2'
_chemical_name_systematic        
9,10-Dimethyl-9,10-peroxy-9,10-dihydroanthracene
_symmetry_cell_setting           orthorhombic
_symmetry_space_group_name_H-M   'C m c 21'
_symmetry_Int_Tables_number      36
_space_group_name_Hall           'C 2n -2'
loop_
_symmetry_equiv_pos_site_id
_symmetry_equiv_pos_as_xyz
1 x,y,z
2 -x,y,z
3 x,-y,1/2+z
4 -x,-y,1/2+z
5 1/2+x,1/2+y,z
6 1/2-x,1/2+y,z
7 1/2+x,1/2-y,1/2+z
8 1/2-x,1/2-y,1/2+z
_cell_length_a                   12.9873(7)
_cell_length_b                   11.0810(8)
_cell_length_c                   8.8368(8)
_cell_angle_alpha                90
_cell_angle_beta                 90
_cell_angle_gamma                90
_cell_volume                     1271.72
_exptl_crystal_colour            yellow
_exptl_crystal_description       chunk
_cell_formula_units_Z            4
_exptl_crystal_recrystallization_method ethanol
loop_
_atom_site_label
_atom_site_type_symbol
_atom_site_fract_x
_atom_site_fract_y
_atom_site_fract_z
O1 O 0.5000 0.1212(2) 0.7053(3)
O2 O 0.5000 0.1937(2) 0.8453(2)
C1 C 0.5000 0.1992(2) 0.5707(4)
C2 C 0.59500(13) 0.27732(18) 0.5847(2)
C3 C 0.67877(17) 0.2829(2) 0.4883(3)
C4 C 0.76037(19) 0.3580(2) 0.5212(3)
C5 C 0.75816(19) 0.4289(3) 0.6492(3)
C6 C 0.67600(18) 0.4228(2) 0.7475(3)
C7 C 0.59468(14) 0.3466(2) 0.7153(2)
C8 C 0.5000 0.3253(3) 0.8122(4)
C9 C 0.500000(10) 0.1104(4) 0.4404(5)
C10 C 0.500000(10) 0.3808(4) 0.9660(5)
H1 H 0.6800 0.2359 0.4011
H2 H 0.8170 0.3608 0.4569
H3 H 0.8125 0.4811 0.6693
H4 H 0.6753 0.4696 0.8349
H5 H 0.5603 0.3555 1.0201
H6 H 0.5000 0.4671 0.9567
H7 H 0.5604 0.0606 0.4462
H8 H 0.5000 0.1538 0.3464
C2A C 0.40500(13) 0.27732(18) 0.5847(2)
C3A C 0.32123(17) 0.2829(2) 0.4883(3)
C4A C 0.23963(19) 0.3580(2) 0.5212(3)
C5A C 0.24184(19) 0.4289(3) 0.6492(3)
C6A C 0.32400(18) 0.4228(2) 0.7475(3)
C7A C 0.40532(14) 0.3466(2) 0.7153(2)
H1A H 0.3200 0.2359 0.4011
H2A H 0.1830 0.3608 0.4569
H3A H 0.1875 0.4811 0.6693
H4A H 0.3247 0.4696 0.8349
H5A H 0.4397 0.3555 1.0201
H7A H 0.4396 0.0606 0.4462
loop_
_geom_bond_atom_site_label_1
_geom_bond_atom_site_label_2
_geom_bond_site_symmetry_1
_geom_bond_site_symmetry_2
O1 O2 1_555 1_555
O2 C8 1_555 1_555
C1 O1 1_555 1_555
C2 C1 1_555 1_555
C3 C2 1_555 1_555
C4 C3 1_555 1_555
C5 C4 1_555 1_555
C6 C5 1_555 1_555
C7 C2 1_555 1_555
C8 C7 1_555 1_555
C9 C1 1_555 1_555
C10 C8 1_555 1_555
H1 C3 1_555 1_555
H2 C4 1_555 1_555
H3 C5 1_555 1_555
H4 C6 1_555 1_555
H5 C10 1_555 1_555
H6 C10 1_555 1_555
H7 C9 1_555 1_555
H8 C9 1_555 1_555
C2A C1 1_555 1_555
C3A C2A 1_555 1_555
C4A C3A 1_555 1_555
C5A C4A 1_555 1_555
C6A C5A 1_555 1_555
C7A C8 1_555 1_555
H1A C3A 1_555 1_555
H2A C4A 1_555 1_555
H3A C5A 1_555 1_555
H4A C6A 1_555 1_555
H5A C10 1_555 1_555
H7A C9 1_555 1_555
C6 C7 1_555 1_555
C2A C7A 1_555 1_555
C6A C7A 1_555 1_555

#END
