
#######################################################################
#
#                 Cambridge Crystallographic Data Centre
#                                CCDC 
#
#######################################################################
#
# If this CIF has been generated from an entry in the Cambridge 
# Structural Database, then it will include bibliographic, chemical, 
# crystal, experimental, refinement or atomic coordinate data resulting 
# from the CCDC's data processing and validation procedures.
#
#######################################################################

data_YIXTAC
_chemical_formula_moiety         'C19 H24 N2 O8 S2'
_chemical_name_systematic        
N-(3-Methoxy-6-(((2-(2,4,6-trimethoxyphenyl)vinyl)sulfonyl)methyl)pyridin-2-yl)methanesulfonamide
_symmetry_cell_setting           monoclinic
_symmetry_space_group_name_H-M   'P 21/c'
_symmetry_Int_Tables_number      14
_space_group_name_Hall           '-P 2ybc'
loop_
_symmetry_equiv_pos_site_id
_symmetry_equiv_pos_as_xyz
1 x,y,z
2 -x,1/2+y,1/2-z
3 -x,-y,-z
4 x,1/2-y,1/2+z
_cell_length_a                   10.4524(2)
_cell_length_b                   9.0323(2)
_cell_length_c                   22.6631(5)
_cell_angle_alpha                90
_cell_angle_beta                 94.690(2)
_cell_angle_gamma                90
_cell_volume                     2132.44
_exptl_crystal_colour            colorless
_exptl_crystal_description       plate
_cell_formula_units_Z            4
loop_
_atom_site_label
_atom_site_type_symbol
_atom_site_fract_x
_atom_site_fract_y
_atom_site_fract_z
N1 N 0.12678(12) 1.21763(15) 0.30349(6)
C1 C 0.14984(14) 1.35722(17) 0.28997(7)
C2 C 0.23701(15) 1.39996(18) 0.24888(7)
C3 C 0.30286(16) 1.28987(19) 0.22201(7)
H1 H 0.3651 1.3138 0.1952
C4 C 0.27617(16) 1.14248(19) 0.23493(7)
H2 H 0.3183 1.0647 0.2160
C5 C 0.18858(15) 1.11047(17) 0.27525(7)
N2 N 0.08510(13) 1.47020(15) 0.31865(6)
H3 H 0.0961 1.5620 0.3071
S1 S -0.00875(4) 1.44227(5) 0.371694(18)
O1 O -0.10755(12) 1.34090(15) 0.35206(6)
O2 O -0.04354(13) 1.58698(15) 0.39034(6)
C6 C 0.0888(2) 1.3602(3) 0.42965(8)
H4 H 0.0376 1.3411 0.4632
H5 H 0.1597 1.4271 0.4421
H6 H 0.1234 1.2665 0.4159
O3 O 0.24800(11) 1.54881(13) 0.24057(5)
C7 C 0.34600(19) 1.5990(2) 0.20467(9)
H7 H 0.4298 1.5634 0.2214
H8 H 0.3463 1.7075 0.2036
H9 H 0.3290 1.5605 0.1644
C8 C 0.15645(15) 0.95436(17) 0.29149(7)
H10 H 0.1517 0.8926 0.2553
H11 H 0.0707 0.9533 0.3070
S2 S 0.27010(4) 0.87384(4) 0.345471(17)
O4 O 0.39515(11) 0.87662(13) 0.32328(5)
O5 O 0.21687(12) 0.73145(13) 0.36029(5)
C9 C 0.26743(15) 0.98469(17) 0.40804(7)
H12 H 0.1900 0.9947 0.4269
C10 C 0.37269(15) 1.05598(17) 0.43002(7)
H13 H 0.4465 1.0443 0.4086
C11 C 0.38914(14) 1.14932(17) 0.48248(7)
C12 C 0.29602(14) 1.16889(17) 0.52394(7)
C13 C 0.31306(15) 1.26946(18) 0.56982(7)
H14 H 0.2477 1.2840 0.5960
C14 C 0.42745(15) 1.34944(17) 0.57719(7)
C15 C 0.52491(15) 1.32882(17) 0.54015(7)
H15 H 0.6035 1.3814 0.5465
C16 C 0.50525(15) 1.22953(17) 0.49347(7)
O6 O 0.18829(10) 1.08274(13) 0.51558(5)
C17 C 0.10440(16) 1.0769(2) 0.56256(8)
H16 H 0.1545 1.0546 0.5999
H17 H 0.0399 0.9994 0.5541
H18 H 0.0615 1.1727 0.5657
O7 O 0.43301(11) 1.44798(13) 0.62271(5)
C18 C 0.54797(17) 1.53183(19) 0.63500(8)
H19 H 0.6198 1.4645 0.6455
H20 H 0.5374 1.5994 0.6681
H21 H 0.5657 1.5892 0.5999
O8 O 0.59547(11) 1.20288(13) 0.45465(5)
C19 C 0.71645(16) 1.2775(2) 0.46413(8)
H22 H 0.7028 1.3847 0.4614
H23 H 0.7728 1.2463 0.4339
H24 H 0.7564 1.2525 0.5035
loop_
_geom_bond_atom_site_label_1
_geom_bond_atom_site_label_2
_geom_bond_site_symmetry_1
_geom_bond_site_symmetry_2
N1 C1 1_555 1_555
C1 C2 1_555 1_555
C2 C3 1_555 1_555
C3 H1 1_555 1_555
C4 C3 1_555 1_555
H2 C4 1_555 1_555
C5 N1 1_555 1_555
N2 C1 1_555 1_555
H3 N2 1_555 1_555
S1 N2 1_555 1_555
O1 S1 1_555 1_555
O2 S1 1_555 1_555
C6 S1 1_555 1_555
H4 C6 1_555 1_555
H5 C6 1_555 1_555
H6 C6 1_555 1_555
O3 C2 1_555 1_555
C7 O3 1_555 1_555
H7 C7 1_555 1_555
H8 C7 1_555 1_555
H9 C7 1_555 1_555
C8 C5 1_555 1_555
H10 C8 1_555 1_555
H11 C8 1_555 1_555
S2 C8 1_555 1_555
O4 S2 1_555 1_555
O5 S2 1_555 1_555
C9 S2 1_555 1_555
H12 C9 1_555 1_555
C10 C9 1_555 1_555
H13 C10 1_555 1_555
C11 C10 1_555 1_555
C12 C11 1_555 1_555
C13 C12 1_555 1_555
H14 C13 1_555 1_555
C14 C13 1_555 1_555
C15 C14 1_555 1_555
H15 C15 1_555 1_555
C16 C11 1_555 1_555
O6 C12 1_555 1_555
C17 O6 1_555 1_555
H16 C17 1_555 1_555
H17 C17 1_555 1_555
H18 C17 1_555 1_555
O7 C14 1_555 1_555
C18 O7 1_555 1_555
H19 C18 1_555 1_555
H20 C18 1_555 1_555
H21 C18 1_555 1_555
O8 C16 1_555 1_555
C19 O8 1_555 1_555
H22 C19 1_555 1_555
H23 C19 1_555 1_555
H24 C19 1_555 1_555
C4 C5 1_555 1_555
C15 C16 1_555 1_555

#END
