
#######################################################################
#
#                 Cambridge Crystallographic Data Centre
#                                CCDC 
#
#######################################################################
#
# If this CIF has been generated from an entry in the Cambridge 
# Structural Database, then it will include bibliographic, chemical, 
# crystal, experimental, refinement or atomic coordinate data resulting 
# from the CCDC's data processing and validation procedures.
#
#######################################################################

data_YIZBIU
_chemical_name_common            anti-atropisomer-amine
_chemical_formula_moiety         'C33 H48 N2 O1 Si2'
_chemical_name_systematic        
2-(anilino(phenyl)methyl)-6-(bis(trimethylsilyl)methyl)-N,N-diisopropylbenzamide
_symmetry_cell_setting           monoclinic
_symmetry_space_group_name_H-M   'P 21/c'
_symmetry_Int_Tables_number      14
_space_group_name_Hall           '-P 2ybc'
loop_
_symmetry_equiv_pos_site_id
_symmetry_equiv_pos_as_xyz
1 x,y,z
2 -x,1/2+y,1/2-z
3 -x,-y,-z
4 x,1/2-y,1/2+z
_cell_length_a                   8.599(5)
_cell_length_b                   16.276(9)
_cell_length_c                   24.328(14)
_cell_angle_alpha                90
_cell_angle_beta                 95.037(7)
_cell_angle_gamma                90
_cell_volume                     3391.73
_exptl_crystal_colour            colorless
_exptl_crystal_description       block
_cell_formula_units_Z            4
_chemical_properties_physical    Heat-sensitive
loop_
_atom_site_label
_atom_site_type_symbol
_atom_site_fract_x
_atom_site_fract_y
_atom_site_fract_z
Si1 Si 0.06127(7) 0.70007(4) 0.99948(3)
Si2 Si 0.29799(7) 0.85238(4) 1.02827(2)
O1 O 0.17732(15) 0.70401(8) 0.85076(6)
N1 N 0.67651(18) 0.58506(11) 0.83462(6)
H1 H 0.7470 0.5779 0.8615
N2 N 0.37676(18) 0.79289(9) 0.84477(6)
C1 C 0.4289(2) 0.50704(11) 0.83757(7)
C2 C 0.5053(3) 0.43251(13) 0.84004(8)
H2 H 0.6137 0.4310 0.8452
C3 C 0.4213(4) 0.35985(14) 0.83483(10)
H3 H 0.4742 0.3099 0.8369
C4 C 0.2622(4) 0.36031(17) 0.82666(11)
H4 H 0.2068 0.3112 0.8231
C5 C 0.1860(3) 0.43345(18) 0.82380(13)
H5 H 0.0777 0.4345 0.8182
C6 C 0.2682(3) 0.50631(15) 0.82921(11)
H6 H 0.2141 0.5558 0.8272
C7 C 0.5136(2) 0.58895(11) 0.84586(7)
H7 H 0.4612 0.6288 0.8204
C8 C 0.7211(2) 0.59276(12) 0.78112(7)
C9 C 0.6146(2) 0.58708(13) 0.73496(8)
H8 H 0.5101 0.5761 0.7390
C10 C 0.6646(3) 0.59792(14) 0.68285(9)
H9 H 0.5921 0.5953 0.6522
C11 C 0.8174(3) 0.61224(16) 0.67538(10)
H10 H 0.8492 0.6189 0.6401
C12 C 0.9233(3) 0.61669(18) 0.72077(11)
H11 H 1.0281 0.6260 0.7161
C13 C 0.8766(2) 0.60756(15) 0.77328(9)
H12 H 0.9498 0.6114 0.8036
C14 C 0.49907(19) 0.61933(10) 0.90472(7)
C15 C 0.5804(2) 0.57928(10) 0.94871(7)
H13 H 0.6481 0.5366 0.9421
C16 C 0.5611(2) 0.60262(11) 1.00233(7)
H14 H 0.6203 0.5778 1.0316
C17 C 0.4542(2) 0.66268(11) 1.01249(7)
H15 H 0.4399 0.6765 1.0488
C18 C 0.36707(19) 0.70319(10) 0.96963(7)
C19 C 0.39730(18) 0.68344(9) 0.91517(6)
C20 C 0.3083(2) 0.72796(10) 0.86747(7)
C21 C 0.2580(4) 0.7809(2) 0.74779(10)
H16 H 0.3525 0.7535 0.7400
H17 H 0.2197 0.8131 0.7164
H18 H 0.1810 0.7407 0.7555
C22 C 0.1461(4) 0.8790(2) 0.81469(15)
H19 H 0.0689 0.8386 0.8215
H20 H 0.1053 0.9151 0.7857
H21 H 0.1722 0.9103 0.8477
C23 C 0.2909(3) 0.83666(15) 0.79761(9)
H22 H 0.3605 0.8801 0.7864
C24 C 0.5352(2) 0.82218(12) 0.86308(8)
H23 H 0.5721 0.7901 0.8957
C25 C 0.5352(3) 0.91204(14) 0.88021(11)
H24 H 0.5148 0.9459 0.8481
H25 H 0.6353 0.9260 0.8985
H26 H 0.4557 0.9209 0.9049
C26 C 0.6485(3) 0.80805(18) 0.82008(12)
H27 H 0.6435 0.7516 0.8085
H28 H 0.7524 0.8206 0.8355
H29 H 0.6217 0.8430 0.7889
C27 C 0.2384(2) 0.76176(11) 0.98209(7)
H30 H 0.2056 0.7869 0.9463
C28 C 0.5113(3) 0.86995(15) 1.03062(9)
H31 H 0.5436 0.8682 0.9939
H32 H 0.5650 0.8280 1.0526
H33 H 0.5360 0.9228 1.0466
C29 C 0.1942(4) 0.94392(16) 0.99681(16)
H34 H 0.2288 0.9924 1.0167
H35 H 0.0837 0.9374 0.9985
H36 H 0.2166 0.9491 0.9590
C30 C 0.2492(4) 0.8435(2) 1.10136(12)
H37 H 0.3022 0.7969 1.1184
H38 H 0.1385 0.8366 1.1021
H39 H 0.2818 0.8925 1.1211
C31 C -0.1099(3) 0.7686(2) 0.9941(2)
H40 H -0.2000 0.7388 1.0036
H41 H -0.1277 0.7887 0.9569
H42 H -0.0911 0.8142 1.0189
C32 C 0.0846(4) 0.6525(2) 1.06962(13)
H43 H 0.0770 0.6943 1.0971
H44 H 0.1847 0.6263 1.0751
H45 H 0.0039 0.6124 1.0727
C33 C 0.0291(4) 0.61170(19) 0.95207(12)
H46 H -0.0611 0.5816 0.9612
H47 H 0.1189 0.5764 0.9557
H48 H 0.0128 0.6312 0.9148
loop_
_geom_bond_atom_site_label_1
_geom_bond_atom_site_label_2
_geom_bond_site_symmetry_1
_geom_bond_site_symmetry_2
Si1 C27 1_555 1_555
Si2 C27 1_555 1_555
O1 C20 1_555 1_555
N1 H1 1_555 1_555
N2 C20 1_555 1_555
C1 C2 1_555 1_555
C2 H2 1_555 1_555
C3 C2 1_555 1_555
H3 C3 1_555 1_555
C4 C3 1_555 1_555
H4 C4 1_555 1_555
C5 C4 1_555 1_555
H5 C5 1_555 1_555
C6 C1 1_555 1_555
H6 C6 1_555 1_555
C7 N1 1_555 1_555
H7 C7 1_555 1_555
C8 N1 1_555 1_555
C9 C8 1_555 1_555
H8 C9 1_555 1_555
C10 C9 1_555 1_555
H9 C10 1_555 1_555
C11 C10 1_555 1_555
H10 C11 1_555 1_555
C12 C11 1_555 1_555
H11 C12 1_555 1_555
C13 C8 1_555 1_555
H12 C13 1_555 1_555
C14 C7 1_555 1_555
C15 C14 1_555 1_555
H13 C15 1_555 1_555
C16 C15 1_555 1_555
H14 C16 1_555 1_555
C17 C16 1_555 1_555
H15 C17 1_555 1_555
C18 C17 1_555 1_555
C19 C14 1_555 1_555
C20 C19 1_555 1_555
C21 H16 1_555 1_555
H17 C21 1_555 1_555
H18 C21 1_555 1_555
C22 H19 1_555 1_555
H20 C22 1_555 1_555
H21 C22 1_555 1_555
C23 N2 1_555 1_555
H22 C23 1_555 1_555
C24 N2 1_555 1_555
H23 C24 1_555 1_555
C25 C24 1_555 1_555
H24 C25 1_555 1_555
H25 C25 1_555 1_555
H26 C25 1_555 1_555
C26 C24 1_555 1_555
H27 C26 1_555 1_555
H28 C26 1_555 1_555
H29 C26 1_555 1_555
C27 C18 1_555 1_555
H30 C27 1_555 1_555
C28 Si2 1_555 1_555
H31 C28 1_555 1_555
H32 C28 1_555 1_555
H33 C28 1_555 1_555
C29 Si2 1_555 1_555
H34 C29 1_555 1_555
H35 C29 1_555 1_555
H36 C29 1_555 1_555
C30 Si2 1_555 1_555
H37 C30 1_555 1_555
H38 C30 1_555 1_555
H39 C30 1_555 1_555
C31 Si1 1_555 1_555
H40 C31 1_555 1_555
H41 C31 1_555 1_555
H42 C31 1_555 1_555
C32 Si1 1_555 1_555
H43 C32 1_555 1_555
H44 C32 1_555 1_555
H45 C32 1_555 1_555
C33 Si1 1_555 1_555
H46 C33 1_555 1_555
H47 C33 1_555 1_555
H48 C33 1_555 1_555
C1 C7 1_555 1_555
C5 C6 1_555 1_555
C12 C13 1_555 1_555
C18 C19 1_555 1_555
C21 C23 1_555 1_555
C22 C23 1_555 1_555

#END
