
#######################################################################
#
#                 Cambridge Crystallographic Data Centre
#                                CCDC 
#
#######################################################################
#
# If this CIF has been generated from an entry in the Cambridge 
# Structural Database, then it will include bibliographic, chemical, 
# crystal, experimental, refinement or atomic coordinate data resulting 
# from the CCDC's data processing and validation procedures.
#
#######################################################################

data_YIZYOX
_chemical_formula_moiety         'C20 H18 N2 O6 S1'
_chemical_name_systematic        
'2-acetoxyethyl 3-(1-(pyridin-2-ylsulfonyl)-1H-indol-2-yl)acrylate'
_symmetry_cell_setting           triclinic
_symmetry_space_group_name_H-M   'P -1'
_symmetry_Int_Tables_number      2
_space_group_name_Hall           '-P 1'
loop_
_symmetry_equiv_pos_site_id
_symmetry_equiv_pos_as_xyz
1 x,y,z
2 -x,-y,-z
_cell_length_a                   8.2180(19)
_cell_length_b                   10.176(2)
_cell_length_c                   11.912(3)
_cell_angle_alpha                96.704(5)
_cell_angle_beta                 102.147(5)
_cell_angle_gamma                90.193(5)
_cell_volume                     966.795
_cell_formula_units_Z            2
loop_
_atom_site_label
_atom_site_type_symbol
_atom_site_fract_x
_atom_site_fract_y
_atom_site_fract_z
S1 S 0.3805(2) 0.6811(1) -0.0348(1)
N1 N 0.0567(5) 0.6459(4) -0.0914(4)
N2 N 0.3412(5) 0.8304(4) -0.0735(3)
O1 O 0.5139(4) 0.6298(3) -0.0856(3)
O2 O 0.3971(4) 0.6927(3) 0.0879(3)
O3 O 0.0929(5) 0.9255(4) 0.3008(3)
O4 O 0.0945(5) 1.1453(4) 0.3129(3)
O5 O 0.2466(5) 1.2965(4) 0.5327(3)
O6 O 0.2496(6) 1.5140(5) 0.5636(5)
C1 C -0.0815(7) 0.5723(7) -0.1354(6)
H1 H -0.1832 0.6104 -0.1316
C2 C -0.0833(8) 0.4439(6) -0.1859(5)
H2 H -0.1835 0.3966 -0.2137
C3 C 0.0648(7) 0.3863(6) -0.1946(5)
H3 H 0.0677 0.3000 -0.2299
C4 C 0.2071(7) 0.4594(5) -0.1502(4)
H4 H 0.3103 0.4235 -0.1530
C5 C 0.1962(5) 0.5863(5) -0.1014(4)
C6 C 0.3741(6) 0.8713(5) -0.1773(4)
C7 C 0.4347(7) 0.8031(5) -0.2675(5)
H5 H 0.4621 0.7145 -0.2669
C8 C 0.4527(7) 0.8711(6) -0.3575(5)
H6 H 0.4945 0.8281 -0.4182
C9 C 0.4097(7) 1.0023(6) -0.3595(5)
H7 H 0.4231 1.0456 -0.4217
C10 C 0.3480(7) 1.0694(5) -0.2720(5)
H8 H 0.3204 1.1578 -0.2743
C11 C 0.3268(6) 1.0037(5) -0.1789(4)
C12 C 0.2688(6) 1.0416(5) -0.0780(4)
H9 H 0.2317 1.1253 -0.0571
C13 C 0.2747(5) 0.9379(5) -0.0151(4)
C14 C 0.2167(6) 0.9317(5) 0.0917(4)
H10 H 0.2077 0.8490 0.1162
C15 C 0.1766(7) 1.0349(5) 0.1552(4)
H11 H 0.1847 1.1181 0.1314
C16 C 0.1190(6) 1.0248(6) 0.2630(5)
C17 C 0.0340(7) 1.1539(6) 0.4178(5)
H12 H 0.0887 1.0903 0.4668
H13 H -0.0849 1.1348 0.4006
C18 C 0.0707(7) 1.2912(6) 0.4780(5)
H14 H 0.0472 1.3554 0.4229
H15 H 0.0035 1.3101 0.5355
C19 C 0.3215(8) 1.4134(7) 0.5707(5)
C20 C 0.4946(8) 1.4047(6) 0.6287(5)
H16 H 0.5568 1.3645 0.5746
H17 H 0.5014 1.3518 0.6912
H18 H 0.5399 1.4919 0.6587
loop_
_geom_bond_atom_site_label_1
_geom_bond_atom_site_label_2
_geom_bond_site_symmetry_1
_geom_bond_site_symmetry_2
S1 N2 1_555 1_555
N1 C1 1_555 1_555
N2 C6 1_555 1_555
O1 S1 1_555 1_555
O2 S1 1_555 1_555
O3 C16 1_555 1_555
O4 C16 1_555 1_555
O5 C18 1_555 1_555
O6 C19 1_555 1_555
C1 H1 1_555 1_555
C2 C1 1_555 1_555
H2 C2 1_555 1_555
C3 C2 1_555 1_555
H3 C3 1_555 1_555
C4 C3 1_555 1_555
H4 C4 1_555 1_555
C5 S1 1_555 1_555
C6 C7 1_555 1_555
C7 H5 1_555 1_555
C8 C7 1_555 1_555
H6 C8 1_555 1_555
C9 C8 1_555 1_555
H7 C9 1_555 1_555
C10 C9 1_555 1_555
H8 C10 1_555 1_555
C11 C6 1_555 1_555
C12 C11 1_555 1_555
H9 C12 1_555 1_555
C13 N2 1_555 1_555
C14 C13 1_555 1_555
H10 C14 1_555 1_555
C15 C14 1_555 1_555
H11 C15 1_555 1_555
C16 C15 1_555 1_555
C17 O4 1_555 1_555
H12 C17 1_555 1_555
H13 C17 1_555 1_555
C18 C17 1_555 1_555
H14 C18 1_555 1_555
H15 C18 1_555 1_555
C19 O5 1_555 1_555
C20 C19 1_555 1_555
H16 C20 1_555 1_555
H17 C20 1_555 1_555
H18 C20 1_555 1_555
N1 C5 1_555 1_555
C4 C5 1_555 1_555
C10 C11 1_555 1_555
C12 C13 1_555 1_555

#END
