
#######################################################################
#
#                 Cambridge Crystallographic Data Centre
#                                CCDC 
#
#######################################################################
#
# If this CIF has been generated from an entry in the Cambridge 
# Structural Database, then it will include bibliographic, chemical, 
# crystal, experimental, refinement or atomic coordinate data resulting 
# from the CCDC's data processing and validation procedures.
#
#######################################################################

data_YIZZAK
_chemical_formula_moiety         'C17 H14 N2 O4 S2'
_chemical_name_systematic        
2-(1,1-dioxido-2,3-dihydrothiophen-3-yl)-1-(pyridin-2-ylsulfonyl)-1H-indole
_symmetry_cell_setting           monoclinic
_symmetry_space_group_name_H-M   'P 21/n'
_symmetry_Int_Tables_number      14
_space_group_name_Hall           '-P 2yn'
loop_
_symmetry_equiv_pos_site_id
_symmetry_equiv_pos_as_xyz
1 x,y,z
2 1/2-x,1/2+y,1/2-z
3 -x,-y,-z
4 1/2+x,1/2-y,1/2+z
_cell_length_a                   10.7917(16)
_cell_length_b                   13.980(2)
_cell_length_c                   12.0030(17)
_cell_angle_alpha                90
_cell_angle_beta                 113.137(2)
_cell_angle_gamma                90
_cell_volume                     1665.22
_cell_formula_units_Z            4
loop_
_atom_site_label
_atom_site_type_symbol
_atom_site_fract_x
_atom_site_fract_y
_atom_site_fract_z
S1 S 0.73528(5) 0.23474(4) 1.00084(4)
S2 S 0.24397(5) 0.11279(4) 0.99770(4)
N1 N 0.28454(15) 0.21983(11) 0.96131(14)
N2 N 0.13751(19) 0.07568(14) 0.76743(18)
O1 O 0.75182(18) 0.33173(12) 1.04173(16)
O2 O 0.85330(14) 0.17555(14) 1.04524(14)
O3 O 0.35515(14) 0.05101(10) 1.01668(16)
O4 O 0.19682(16) 0.12641(11) 1.09139(13)
C1 C 0.6574(2) 0.23099(17) 0.84357(19)
H1 H 0.6990 0.2484 0.7918
C2 C 0.5329(2) 0.20060(16) 0.80712(18)
H2 H 0.4781 0.1962 0.7251
C3 C 0.48148(18) 0.17314(14) 0.90192(17)
H3 H 0.4492 0.1069 0.8876
C4 C 0.60059(18) 0.17856(15) 1.02588(17)
H4 H 0.6267 0.1149 1.0590
H5 H 0.5760 0.2156 1.0824
C5 C 0.36597(17) 0.23703(13) 0.89433(16)
C6 C 0.32921(18) 0.32020(14) 0.83525(17)
H6 H 0.3701 0.3486 0.7883
C7 C 0.21621(18) 0.35860(13) 0.85598(17)
C8 C 0.1385(2) 0.44023(15) 0.8154(2)
H7 H 0.1579 0.4842 0.7663
C9 C 0.0319(2) 0.45481(16) 0.8493(2)
H8 H -0.0221 0.5086 0.8215
C10 C 0.0040(2) 0.39056(16) 0.9242(2)
H9 H -0.0688 0.4020 0.9453
C11 C 0.0816(2) 0.30996(15) 0.9683(2)
H10 H 0.0636 0.2673 1.0195
C12 C 0.18823(17) 0.29549(13) 0.93251(16)
C13 C 0.10548(19) 0.08066(13) 0.86282(18)
C14 C -0.0204(2) 0.06693(16) 0.8621(2)
H11 H -0.0372 0.0733 0.9321
C15 C -0.1211(2) 0.04312(19) 0.7522(2)
H12 H -0.2081 0.0315 0.7468
C16 C -0.0923(3) 0.03678(18) 0.6513(2)
H13 H -0.1589 0.0206 0.5766
C17 C 0.0373(3) 0.05480(18) 0.6627(2)
H14 H 0.0559 0.0523 0.5934
loop_
_geom_bond_atom_site_label_1
_geom_bond_atom_site_label_2
_geom_bond_site_symmetry_1
_geom_bond_site_symmetry_2
S1 O1 1_555 1_555
S2 N1 1_555 1_555
N1 C5 1_555 1_555
N2 C13 1_555 1_555
O2 S1 1_555 1_555
O3 S2 1_555 1_555
O4 S2 1_555 1_555
C1 S1 1_555 1_555
H1 C1 1_555 1_555
C2 C1 1_555 1_555
H2 C2 1_555 1_555
C3 C2 1_555 1_555
H3 C3 1_555 1_555
C4 S1 1_555 1_555
H4 C4 1_555 1_555
H5 C4 1_555 1_555
C5 C3 1_555 1_555
C6 C5 1_555 1_555
H6 C6 1_555 1_555
C7 C6 1_555 1_555
C8 C7 1_555 1_555
H7 C8 1_555 1_555
C9 C8 1_555 1_555
H8 C9 1_555 1_555
C10 C9 1_555 1_555
H9 C10 1_555 1_555
C11 C10 1_555 1_555
H10 C11 1_555 1_555
C12 N1 1_555 1_555
C13 S2 1_555 1_555
C14 C13 1_555 1_555
H11 C14 1_555 1_555
C15 C14 1_555 1_555
H12 C15 1_555 1_555
C16 C15 1_555 1_555
H13 C16 1_555 1_555
C17 N2 1_555 1_555
H14 C17 1_555 1_555
C3 C4 1_555 1_555
C7 C12 1_555 1_555
C11 C12 1_555 1_555
C16 C17 1_555 1_555

#END
