
#######################################################################
#
#                 Cambridge Crystallographic Data Centre
#                                CCDC 
#
#######################################################################
#
# If this CIF has been generated from an entry in the Cambridge 
# Structural Database, then it will include bibliographic, chemical, 
# crystal, experimental, refinement or atomic coordinate data resulting 
# from the CCDC's data processing and validation procedures.
#
#######################################################################

data_YOCJEH
_chemical_formula_moiety         'C17 H14 Cl5 O4 P1 S1,C1 H1 Cl3'
_chemical_name_systematic        
'2,4,9,14,16-Pentachloro-6,7,11,12-tetrahydro-18H-dibenzo[g,j][1,3,6,12,2]tetraoxaphosphacyclotetradecine 9-sulfide chloroform solvate'
_symmetry_cell_setting           monoclinic
_symmetry_space_group_name_H-M   'P 21/n'
_symmetry_Int_Tables_number      14
_space_group_name_Hall           '-P 2yn'
loop_
_symmetry_equiv_pos_site_id
_symmetry_equiv_pos_as_xyz
1 x,y,z
2 1/2-x,1/2+y,1/2-z
3 -x,-y,-z
4 1/2+x,1/2-y,1/2+z
_cell_length_a                   14.9760(5)
_cell_length_b                   9.1188(4)
_cell_length_c                   18.0492(9)
_cell_angle_alpha                90
_cell_angle_beta                 91.609(2)
_cell_angle_gamma                90
_cell_volume                     2463.88
_cell_formula_units_Z            4
loop_
_atom_site_label
_atom_site_type_symbol
_atom_site_fract_x
_atom_site_fract_y
_atom_site_fract_z
S1 S 0.38948(3) 0.52393(5) 0.12806(3)
P1 P 0.35844(3) 0.32943(5) 0.15654(3)
Cl1 Cl 0.44120(3) 0.24201(5) 0.23444(2)
Cl2 Cl -0.06360(3) 0.39490(5) 0.32179(3)
Cl3 Cl -0.18190(3) -0.12623(5) 0.22059(3)
Cl4 Cl -0.16695(3) 0.30303(6) -0.08496(3)
Cl5 Cl 0.16877(3) 0.49680(5) -0.11379(3)
O1 O 0.26415(8) 0.30764(12) 0.19105(6)
O2 O 0.36048(8) 0.20438(12) 0.09679(6)
O3 O 0.20801(8) 0.31748(12) 0.01861(6)
O4 O 0.07612(8) 0.35924(12) 0.20652(6)
C1 C 0.22763(12) 0.41964(19) 0.23935(10)
H1 H 0.2182 0.5101 0.2120
H2 H 0.2690 0.4390 0.2805
C2 C 0.14088(11) 0.3648(2) 0.26756(9)
H3 H 0.1489 0.2678 0.2888
H4 H 0.1199 0.4299 0.3059
C3 C 0.01420(12) 0.24628(18) 0.21053(10)
C4 C -0.05312(12) 0.24786(19) 0.26171(9)
C5 C -0.11440(12) 0.1342(2) 0.26536(9)
H5 H -0.1591 0.1352 0.3001
C6 C -0.10719(12) 0.01965(19) 0.21598(10)
C7 C -0.04254(12) 0.01793(19) 0.16282(10)
H6 H -0.0402 -0.0595 0.1294
C8 C 0.01931(11) 0.13222(19) 0.15922(9)
C9 C 0.08808(11) 0.13538(19) 0.10007(9)
H7 H 0.1003 0.0358 0.0844
H8 H 0.1432 0.1762 0.1207
C10 C 0.05827(12) 0.22537(18) 0.03282(9)
C11 C -0.03016(12) 0.22542(19) 0.00771(9)
H9 H -0.0723 0.1704 0.0324
C12 C -0.05567(12) 0.30682(19) -0.05371(9)
C13 C 0.00402(12) 0.39145(19) -0.09193(9)
H10 H -0.0143 0.4468 -0.1329
C14 C 0.09214(12) 0.39082(18) -0.06702(9)
C15 C 0.12033(12) 0.30914(19) -0.00562(9)
C16 C 0.26417(12) 0.2065(2) -0.01250(9)
H11 H 0.2625 0.2129 -0.0662
H12 H 0.2440 0.1096 0.0016
C17 C 0.35659(12) 0.2332(2) 0.01729(9)
H13 H 0.3982 0.1696 -0.0075
H14 H 0.3735 0.3341 0.0080
C18 C 0.33716(12) 0.73574(19) -0.03781(10)
H15 H 0.2952 0.6715 -0.0127
Cl6 Cl 0.38979(4) 0.85080(5) 0.02908(3)
Cl7 Cl 0.27679(3) 0.84293(5) -0.10321(3)
Cl8 Cl 0.41676(3) 0.62641(5) -0.08089(3)
loop_
_geom_bond_atom_site_label_1
_geom_bond_atom_site_label_2
_geom_bond_site_symmetry_1
_geom_bond_site_symmetry_2
S1 P1 1_555 1_555
P1 Cl1 1_555 1_555
Cl2 C4 1_555 1_555
Cl3 C6 1_555 1_555
Cl4 C12 1_555 1_555
Cl5 C14 1_555 1_555
O1 P1 1_555 1_555
O2 P1 1_555 1_555
O3 C15 1_555 1_555
O4 C2 1_555 1_555
C1 O1 1_555 1_555
H1 C1 1_555 1_555
H2 C1 1_555 1_555
C2 C1 1_555 1_555
H3 C2 1_555 1_555
H4 C2 1_555 1_555
C3 O4 1_555 1_555
C4 C3 1_555 1_555
C5 C4 1_555 1_555
H5 C5 1_555 1_555
C6 C5 1_555 1_555
C7 C6 1_555 1_555
H6 C7 1_555 1_555
C8 C3 1_555 1_555
C9 C8 1_555 1_555
H7 C9 1_555 1_555
H8 C9 1_555 1_555
C10 C9 1_555 1_555
C11 C10 1_555 1_555
H9 C11 1_555 1_555
C12 C11 1_555 1_555
C13 C12 1_555 1_555
H10 C13 1_555 1_555
C14 C13 1_555 1_555
C15 C10 1_555 1_555
C16 O3 1_555 1_555
H11 C16 1_555 1_555
H12 C16 1_555 1_555
C17 O2 1_555 1_555
H13 C17 1_555 1_555
H14 C17 1_555 1_555
C18 H15 1_555 1_555
Cl6 C18 1_555 1_555
Cl7 C18 1_555 1_555
Cl8 C18 1_555 1_555
C7 C8 1_555 1_555
C14 C15 1_555 1_555
C16 C17 1_555 1_555

#END
