
#######################################################################
#
#                 Cambridge Crystallographic Data Centre
#                                CCDC 
#
#######################################################################
#
# If this CIF has been generated from an entry in the Cambridge 
# Structural Database, then it will include bibliographic, chemical, 
# crystal, experimental, refinement or atomic coordinate data resulting 
# from the CCDC's data processing and validation procedures.
#
#######################################################################

data_YOCQUD
_chemical_formula_moiety         'C22 H17 N1'
_chemical_name_systematic        6-Methyl-2,4-diphenylquinoline
_symmetry_cell_setting           orthorhombic
_symmetry_space_group_name_H-M   'P 21 21 21'
_symmetry_Int_Tables_number      19
_space_group_name_Hall           'P 2ac 2ab'
loop_
_symmetry_equiv_pos_site_id
_symmetry_equiv_pos_as_xyz
1 x,y,z
2 1/2-x,-y,1/2+z
3 -x,1/2+y,1/2-z
4 1/2+x,1/2-y,-z
_cell_length_a                   7.7660(10)
_cell_length_b                   9.8510(10)
_cell_length_c                   20.756(2)
_cell_angle_alpha                90
_cell_angle_beta                 90
_cell_angle_gamma                90
_cell_volume                     1587.89
_exptl_crystal_colour            colorless
_exptl_crystal_description       block
_cell_formula_units_Z            4
_exptl_crystal_recrystallization_method deuterochloroform
loop_
_atom_site_label
_atom_site_type_symbol
_atom_site_fract_x
_atom_site_fract_y
_atom_site_fract_z
N1 N 0.8369(3) 0.4866(3) 0.14992(11)
C1 C 0.6966(4) 0.5970(3) 0.34443(12)
C2 C 0.7800(4) 0.5422(3) 0.39763(13)
H1 H 0.8605 0.4733 0.3920
C3 C 0.7440(5) 0.5893(4) 0.45891(14)
H2 H 0.7997 0.5513 0.4942
C4 C 0.6258(5) 0.6926(4) 0.46804(14)
H3 H 0.6016 0.7238 0.5093
C5 C 0.5439(5) 0.7489(3) 0.41549(13)
H4 H 0.4649 0.8188 0.4214
C6 C 0.5788(4) 0.7021(3) 0.35440(13)
H5 H 0.5232 0.7409 0.3193
C7 C 0.8147(4) 0.7190(3) 0.11564(12)
C8 C 0.9118(4) 0.6959(3) 0.06060(13)
H6 H 0.9718 0.6147 0.0562
C9 C 0.9206(5) 0.7918(3) 0.01228(14)
H7 H 0.9870 0.7750 -0.0242
C10 C 0.8318(5) 0.9124(3) 0.01757(15)
H8 H 0.8375 0.9767 -0.0152
C11 C 0.7347(4) 0.9371(3) 0.07175(14)
H9 H 0.6745 1.0182 0.0758
C12 C 0.7268(4) 0.8410(3) 0.12009(13)
H10 H 0.6608 0.8586 0.1565
C13 C 0.7370(3) 0.5530(3) 0.27752(13)
C14 C 0.7596(3) 0.4139(3) 0.25973(13)
C15 C 0.7277(4) 0.3018(3) 0.30025(13)
H11 H 0.6855 0.3175 0.3415
C16 C 0.7564(4) 0.1704(3) 0.28110(15)
C17 C 0.8282(4) 0.1481(3) 0.22001(14)
H12 H 0.8570 0.0602 0.2077
C18 C 0.8566(4) 0.2523(3) 0.17834(14)
H13 H 0.9014 0.2342 0.1377
C19 C 0.8189(4) 0.3880(3) 0.19587(13)
C20 C 0.8015(4) 0.6132(3) 0.16636(13)
C21 C 0.7571(4) 0.6497(3) 0.23033(12)
H14 H 0.7413 0.7407 0.2406
C22 C 0.7120(5) 0.0522(3) 0.32401(16)
H15 H 0.6644 0.0853 0.3637
H16 H 0.8141 0.0007 0.3329
H17 H 0.6291 -0.0046 0.3028
loop_
_geom_bond_atom_site_label_1
_geom_bond_atom_site_label_2
_geom_bond_site_symmetry_1
_geom_bond_site_symmetry_2
N1 C19 1_555 1_555
C1 C2 1_555 1_555
C2 H1 1_555 1_555
C3 C2 1_555 1_555
H2 C3 1_555 1_555
C4 C3 1_555 1_555
H3 C4 1_555 1_555
C5 C4 1_555 1_555
H4 C5 1_555 1_555
C6 C1 1_555 1_555
H5 C6 1_555 1_555
C7 C8 1_555 1_555
C8 H6 1_555 1_555
C9 C8 1_555 1_555
H7 C9 1_555 1_555
C10 C9 1_555 1_555
H8 C10 1_555 1_555
C11 C10 1_555 1_555
H9 C11 1_555 1_555
C12 C7 1_555 1_555
H10 C12 1_555 1_555
C13 C1 1_555 1_555
C14 C13 1_555 1_555
C15 C14 1_555 1_555
H11 C15 1_555 1_555
C16 C15 1_555 1_555
C17 C16 1_555 1_555
H12 C17 1_555 1_555
C18 C17 1_555 1_555
H13 C18 1_555 1_555
C19 C14 1_555 1_555
C20 N1 1_555 1_555
C21 C13 1_555 1_555
H14 C21 1_555 1_555
C22 C16 1_555 1_555
H15 C22 1_555 1_555
H16 C22 1_555 1_555
H17 C22 1_555 1_555
C5 C6 1_555 1_555
C7 C20 1_555 1_555
C11 C12 1_555 1_555
C18 C19 1_555 1_555
C20 C21 1_555 1_555

#END
