
#######################################################################
#
#                 Cambridge Crystallographic Data Centre
#                                CCDC 
#
#######################################################################
#
# If this CIF has been generated from an entry in the Cambridge 
# Structural Database, then it will include bibliographic, chemical, 
# crystal, experimental, refinement or atomic coordinate data resulting 
# from the CCDC's data processing and validation procedures.
#
#######################################################################

data_YODBEA
_chemical_formula_moiety         'C6 H8 N2,C8 H2 F4 O4'
_chemical_name_systematic        
'2,3-Dimethylpyrazine 2,3,5,6-tetrafluoroterephthalic acid'
_symmetry_cell_setting           triclinic
_symmetry_space_group_name_H-M   'P -1'
_symmetry_Int_Tables_number      2
_space_group_name_Hall           '-P 1'
loop_
_symmetry_equiv_pos_site_id
_symmetry_equiv_pos_as_xyz
1 x,y,z
2 -x,-y,-z
_cell_length_a                   8.1577(6)
_cell_length_b                   10.1407(8)
_cell_length_c                   18.2913(14)
_cell_angle_alpha                95.2070(10)
_cell_angle_beta                 94.8800(10)
_cell_angle_gamma                98.6630(10)
_cell_volume                     1482.2
_exptl_crystal_colour            colorless
_exptl_crystal_description       block
_cell_formula_units_Z            4
loop_
_atom_site_label
_atom_site_type_symbol
_atom_site_fract_x
_atom_site_fract_y
_atom_site_fract_z
F1 F 0.43014(19) 0.70571(13) 0.19653(8)
F2 F 0.5069(2) 0.55995(15) 0.08079(7)
F3 F 0.6128(2) 0.22378(13) 0.23099(8)
F4 F 0.5470(2) 0.37242(15) 0.34732(8)
O1 O 0.5487(2) 0.6395(2) 0.39875(9)
H1 H 0.5179 0.6848 0.4328
O2 O 0.7288(2) 0.36592(15) 0.05510(9)
H2 H 0.7498 0.3169 0.0201
C1 C 0.4879(2) 0.5449(2) 0.27633(11)
C2 C 0.6098(3) 0.3033(2) 0.08712(12)
C3 C 0.5711(3) 0.3442(2) 0.22094(12)
O3 O 0.5410(2) 0.19071(17) 0.06992(11)
C4 C 0.5362(3) 0.4214(2) 0.28230(11)
O4 O 0.3150(2) 0.6744(2) 0.33838(10)
C5 C 0.5653(2) 0.3887(2) 0.15266(11)
C6 C 0.5179(3) 0.5122(2) 0.14649(11)
C7 C 0.4402(3) 0.6268(2) 0.34181(12)
C8 C 0.4773(3) 0.5877(2) 0.20717(12)
F5 F 0.89689(19) 0.57113(15) 0.43076(7)
F6 F 1.0552(2) 0.52619(15) 0.14989(7)
F7 F 0.9711(2) 0.34137(15) 0.37234(9)
O5 O 0.7665(2) 0.84115(16) 0.31120(9)
H3 H 0.7465 0.9120 0.3310
F8 F 0.9708(2) 0.75365(14) 0.20644(8)
O6 O 0.9497(2) 0.85425(17) 0.41046(10)
C9 C 0.8823(3) 0.7993(2) 0.35205(12)
C10 C 0.9721(3) 0.4425(2) 0.33072(13)
O7 O 0.9504(2) 0.23286(19) 0.17727(12)
H4 H 0.9811 0.1632 0.1617
C11 C 1.0112(2) 0.42653(19) 0.25916(12)
C12 C 0.9656(3) 0.6513(2) 0.24801(12)
C13 C 0.9248(2) 0.66822(19) 0.31943(11)
C14 C 0.9319(2) 0.5617(2) 0.36093(11)
C15 C 1.0086(3) 0.5337(2) 0.21827(11)
C16 C 1.0593(3) 0.2968(2) 0.22693(13)
O8 O 1.1847(3) 0.2603(2) 0.24842(16)
N1 N 0.5407(2) 0.20529(18) 0.49254(10)
N2 N 0.6530(2) 0.03910(17) 0.38786(10)
C17 C 0.4385(3) 0.1457(2) 0.43485(11)
C18 C 0.4963(3) 0.0616(2) 0.38078(11)
C19 C 0.7533(3) 0.1005(2) 0.44633(13)
H5 H 0.8633 0.0859 0.4519
C20 C 0.6985(3) 0.1838(2) 0.49811(13)
H6 H 0.7720 0.2263 0.5379
C21 C 0.3846(3) -0.0055(3) 0.31447(14)
H7 H 0.4458 -0.0583 0.2839
H8 H 0.3444 0.0614 0.2869
H9 H 0.2920 -0.0625 0.3300
C22 C 0.2630(3) 0.1720(3) 0.43014(15)
H10 H 0.2484 0.2314 0.4722
H11 H 0.1884 0.0890 0.4293
H12 H 0.2392 0.2127 0.3859
N3 N 0.1507(2) 0.80726(18) 0.03648(10)
N4 N 0.0377(2) 1.01105(17) 0.11600(10)
C23 C -0.0695(3) 0.90734(19) 0.08264(11)
C24 C -0.0116(3) 0.80331(19) 0.04130(11)
C25 C 0.1994(3) 1.0135(2) 0.11088(13)
H13 H 0.2753 1.0856 0.1345
C26 C 0.2560(3) 0.9115(2) 0.07131(14)
H14 H 0.3699 0.9150 0.0687
C27 C -0.1274(3) 0.6852(2) 0.00199(15)
H15 H -0.0642 0.6255 -0.0228
H16 H -0.2032 0.7153 -0.0335
H17 H -0.1891 0.6390 0.0370
C28 C -0.2506(3) 0.9060(3) 0.09267(15)
H18 H -0.2634 0.9861 0.1224
H19 H -0.2913 0.8290 0.1166
H20 H -0.3128 0.9022 0.0453
loop_
_geom_bond_atom_site_label_1
_geom_bond_atom_site_label_2
_geom_bond_site_symmetry_1
_geom_bond_site_symmetry_2
F1 C8 1_555 1_555
F2 C6 1_555 1_555
F3 C3 1_555 1_555
F4 C4 1_555 1_555
O1 H1 1_555 1_555
O2 H2 1_555 1_555
C1 C4 1_555 1_555
C2 O2 1_555 1_555
C3 C4 1_555 1_555
O3 C2 1_555 1_555
O4 C7 1_555 1_555
C5 C2 1_555 1_555
C6 C5 1_555 1_555
C7 O1 1_555 1_555
C8 C1 1_555 1_555
F5 C14 1_555 1_555
F6 C15 1_555 1_555
F7 C10 1_555 1_555
O5 H3 1_555 1_555
F8 C12 1_555 1_555
O6 C9 1_555 1_555
C9 O5 1_555 1_555
C10 C11 1_555 1_555
O7 H4 1_555 1_555
C11 C15 1_555 1_555
C12 C13 1_555 1_555
C13 C9 1_555 1_555
C14 C10 1_555 1_555
C15 C12 1_555 1_555
C16 O7 1_555 1_555
O8 C16 1_555 1_555
N1 C17 1_555 1_555
N2 C18 1_555 1_555
C17 C18 1_555 1_555
C18 C21 1_555 1_555
C19 N2 1_555 1_555
H5 C19 1_555 1_555
C20 N1 1_555 1_555
H6 C20 1_555 1_555
C21 H7 1_555 1_555
H8 C21 1_555 1_555
H9 C21 1_555 1_555
C22 C17 1_555 1_555
H10 C22 1_555 1_555
H11 C22 1_555 1_555
H12 C22 1_555 1_555
N3 C24 1_555 1_555
N4 C23 1_555 1_555
C23 C24 1_555 1_555
C24 C27 1_555 1_555
C25 N4 1_555 1_555
H13 C25 1_555 1_555
C26 N3 1_555 1_555
H14 C26 1_555 1_555
C27 H15 1_555 1_555
H16 C27 1_555 1_555
H17 C27 1_555 1_555
C28 C23 1_555 1_555
H18 C28 1_555 1_555
H19 C28 1_555 1_555
H20 C28 1_555 1_555
C1 C7 1_555 1_555
C3 C5 1_555 1_555
C6 C8 1_555 1_555
C11 C16 1_555 1_555
C13 C14 1_555 1_555
C19 C20 1_555 1_555
C25 C26 1_555 1_555

#END
