
#######################################################################
#
#                 Cambridge Crystallographic Data Centre
#                                CCDC 
#
#######################################################################
#
# If this CIF has been generated from an entry in the Cambridge 
# Structural Database, then it will include bibliographic, chemical, 
# crystal, experimental, refinement or atomic coordinate data resulting 
# from the CCDC's data processing and validation procedures.
#
#######################################################################

data_YODLOS
_chemical_name_common            '13-Keto gibberellin A(56) methyl ester'
_chemical_formula_moiety         'C20 H26 O7'
_chemical_name_systematic        
'Methyl 3,4-dihydro-3-hydroxy-7-dehydroxy-7-methyl-8-demethylene-8-oxogibberellate'
_chemical_properties_biological  
'parent compound exhibits plant growth hormone activity'
_symmetry_cell_setting           orthorhombic
_symmetry_space_group_name_H-M   'P 21 21 21'
_symmetry_Int_Tables_number      19
_space_group_name_Hall           'P 2ac 2ab'
loop_
_symmetry_equiv_pos_site_id
_symmetry_equiv_pos_as_xyz
1 x,y,z
2 1/2-x,-y,1/2+z
3 1/2+x,1/2-y,-z
4 -x,1/2+y,1/2-z
_cell_length_a                   7.041
_cell_length_b                   12.365
_cell_length_c                   21.459
_cell_angle_alpha                90
_cell_angle_beta                 90
_cell_angle_gamma                90
_cell_volume                     1868.26
_chemical_melting_point          219-220deg.C
_cell_formula_units_Z            4
loop_
_atom_site_label
_atom_site_type_symbol
_atom_site_fract_x
_atom_site_fract_y
_atom_site_fract_z
C1 C 0.5084(7) 0.3631(4) 0.6394(2)
C2 C 0.5697(7) 0.3312(4) 0.5744(2)
C3 C 0.5881(7) 0.4284(4) 0.5295(2)
C4 C 0.4234(6) 0.5105(3) 0.5362(2)
C5 C 0.4353(5) 0.5539(3) 0.6037
C6 C 0.3009(6) 0.6455(3) 0.6227(2)
C7 C 0.4072(6) 0.7519(3) 0.6300(2)
C8 C 0.1973(6) 0.6070(3) 0.6833(2)
C9 C 0.2933(6) 0.4996(3) 0.7003(2)
C10 C 0.3629(6) 0.4535(3) 0.6388(1)
C11 C 0.1767(8) 0.4329(3) 0.7448(2)
C12 C 0.1295(7) 0.5033(3) 0.8021(2)
C13 C 0.0579(7) 0.6173(3) 0.7851(2)
C14 C 0.2037(7) 0.6772(3) 0.7433(2)
C15 C -0.0195(6) 0.5990(3) 0.6733(2)
C16 C -0.1024(6) 0.5984(3) 0.7384(2)
C17 C -0.0001(9) 0.6779(4) 0.8436(2)
C18 C 0.4236(7) 0.5955(4) 0.4841(2)
C19 C 0.2387(5) 0.4489(3) 0.5399(2)
C20 C 0.3866(9) 0.9410(3) 0.6195(2)
O1 O 0.7570(5) 0.4869(4) 0.5397(2)
O2 O 0.4348(6) 0.2546(2) 0.5481(2)
O3 O 0.2012(4) 0.4190(2) 0.5991(1)
O4 O 0.1286(4) 0.4285(2) 0.4978(1)
O5 O -0.2662(5) 0.5839(4) 0.7520(1)
O6 O 0.5672(5) 0.7613(3) 0.6473(2)
O7 O 0.2975(5) 0.8351(2) 0.6159(1)
loop_
_geom_bond_atom_site_label_1
_geom_bond_atom_site_label_2
_geom_bond_site_symmetry_1
_geom_bond_site_symmetry_2
C1 C2 1_555 1_555
C2 C3 1_555 1_555
C3 C4 1_555 1_555
C4 C5 1_555 1_555
C5 C6 1_555 1_555
C6 C7 1_555 1_555
C7 O6 1_555 1_555
C8 C6 1_555 1_555
C9 C8 1_555 1_555
C10 C1 1_555 1_555
C11 C9 1_555 1_555
C12 C11 1_555 1_555
C13 C12 1_555 1_555
C14 C8 1_555 1_555
C15 C8 1_555 1_555
C16 C13 1_555 1_555
C17 C13 1_555 1_555
C18 C4 1_555 1_555
C19 C4 1_555 1_555
C20 O7 1_555 1_555
O1 C3 1_555 1_555
O2 C2 1_555 1_555
O3 C10 1_555 1_555
O4 C19 1_555 1_555
O5 C16 1_555 1_555
O7 C7 1_555 1_555
C5 C10 1_555 1_555
C9 C10 1_555 1_555
C13 C14 1_555 1_555
C15 C16 1_555 1_555
C19 O3 1_555 1_555

#END
