
#######################################################################
#
#                 Cambridge Crystallographic Data Centre
#                                CCDC 
#
#######################################################################
#
# If this CIF has been generated from an entry in the Cambridge 
# Structural Database, then it will include bibliographic, chemical, 
# crystal, experimental, refinement or atomic coordinate data resulting 
# from the CCDC's data processing and validation procedures.
#
#######################################################################

data_YOFFEE
_chemical_formula_moiety         'C17 H20 O6'
_chemical_name_systematic        
\a-1-Deoxy-1-allyl-4,6-O-(2,3-dihydro-2-benzofurano-1,1-ylidene)glucopyranose
_symmetry_cell_setting           orthorhombic
_symmetry_space_group_name_H-M   'C 2 2 21'
_symmetry_Int_Tables_number      20
_space_group_name_Hall           'C 2n 2'
loop_
_symmetry_equiv_pos_site_id
_symmetry_equiv_pos_as_xyz
1 x,y,z
2 -x,-y,1/2+z
3 x,-y,-z
4 -x,y,1/2-z
5 1/2+x,1/2+y,z
6 1/2-x,1/2-y,1/2+z
7 1/2+x,1/2-y,-z
8 1/2-x,1/2+y,1/2-z
_cell_length_a                   12.358(1)
_cell_length_b                   13.286(1)
_cell_length_c                   19.352(1)
_cell_angle_alpha                90
_cell_angle_beta                 90
_cell_angle_gamma                90
_cell_volume                     3177.37
_exptl_crystal_colour            colorless
_chemical_melting_point          187-188deg.C
_cell_formula_units_Z            8
loop_
_atom_site_label
_atom_site_type_symbol
_atom_site_fract_x
_atom_site_fract_y
_atom_site_fract_z
O1 O 0.1164(2) 0.1513(2) 0.1772(1)
O2 O 0.1928(1) 0.1676(1) 0.06932(9)
O3 O -0.0516(1) 0.2527(1) -0.0178(1)
O4 O 0.0571(1) 0.0507(1) 0.0881(1)
O5 O 0.2459(2) 0.3757(1) 0.0301(1)
O6 O 0.1320(2) 0.4412(2) -0.0893(1)
C1 C 0.2772(2) -0.0491(2) 0.0986(2)
C2 C 0.3511(3) -0.1108(3) 0.1293(2)
C3 C 0.3762(3) -0.0992(3) 0.1979(2)
C4 C 0.3302(3) -0.0249(3) 0.2372(2)
C5 C 0.1833(3) 0.1198(3) 0.2342(2)
C6 C 0.1467(2) 0.0997(2) 0.1169(1)
C7 C 0.1728(2) 0.3109(2) -0.0050(2)
C8 C 0.0875(2) 0.3784(2) -0.0375(1)
C9 C -0.0061(3) 0.3202(2) -0.0689(2)
C10 C -0.0257(2) 0.1157(2) 0.0607(2)
C11 C 0.2526(3) 0.0376(2) 0.2064(2)
C12 C 0.1167(2) 0.2396(2) 0.0435(1)
C13 C 0.0180(3) 0.2673(3) -0.1369(2)
C14 C -0.0796(3) 0.2156(3) -0.1636(2)
C15 C -0.0882(4) 0.1232(4) -0.1757(3)
C16 C 0.0265(2) 0.1835(2) 0.0080(2)
C17 C 0.2288(2) 0.0241(2) 0.1379(1)
H1 H 0.293(3) 0.346(3) 0.045(2)
H2 H 0.179(3) 0.490(3) -0.070(2)
H3 H 0.261 -0.055 0.050
H4 H 0.390 -0.163 0.104
H5 H 0.427 -0.147 0.218
H6 H 0.355 -0.015 0.283
H7 H 0.139 0.093 0.272
H8 H 0.225 0.173 0.251
H9 H 0.212 0.270 -0.037
H10 H 0.058 0.419 0.000
H11 H -0.062 0.368 -0.082
H12 H -0.059 0.154 0.096
H13 H -0.081 0.075 0.038
H14 H 0.087 0.282 0.079
H15 H 0.075 0.217 -0.131
H16 H 0.044 0.314 -0.171
H17 H -0.143 0.256 -0.172
H18 H -0.153 0.096 -0.193
H19 H -0.026 0.082 -0.170
H20 H 0.055 0.144 -0.029
loop_
_geom_bond_atom_site_label_1
_geom_bond_atom_site_label_2
_geom_bond_site_symmetry_1
_geom_bond_site_symmetry_2
O1 C5 1_555 1_555
O2 C6 1_555 1_555
O3 C9 1_555 1_555
O4 C6 1_555 1_555
O5 C7 1_555 1_555
O6 C8 1_555 1_555
C1 C2 1_555 1_555
C2 C3 1_555 1_555
C3 C4 1_555 1_555
C4 C11 1_555 1_555
C5 C11 1_555 1_555
C6 O1 1_555 1_555
C7 C8 1_555 1_555
C8 C9 1_555 1_555
C9 C13 1_555 1_555
C10 O4 1_555 1_555
C11 C17 1_555 1_555
C12 O2 1_555 1_555
C13 C14 1_555 1_555
C14 C15 1_555 1_555
C15 H18 1_555 1_555
C16 O3 1_555 1_555
C17 C1 1_555 1_555
H1 O5 1_555 1_555
H2 O6 1_555 1_555
H3 C1 1_555 1_555
H4 C2 1_555 1_555
H5 C3 1_555 1_555
H6 C4 1_555 1_555
H7 C5 1_555 1_555
H8 C5 1_555 1_555
H9 C7 1_555 1_555
H10 C8 1_555 1_555
H11 C9 1_555 1_555
H12 C10 1_555 1_555
H13 C10 1_555 1_555
H14 C12 1_555 1_555
H15 C13 1_555 1_555
H16 C13 1_555 1_555
H17 C14 1_555 1_555
H19 C15 1_555 1_555
H20 C16 1_555 1_555
C6 C17 1_555 1_555
C7 C12 1_555 1_555
C10 C16 1_555 1_555
C12 C16 1_555 1_555

#END
