
#######################################################################
#
#                 Cambridge Crystallographic Data Centre
#                                CCDC 
#
#######################################################################
#
# If this CIF has been generated from an entry in the Cambridge 
# Structural Database, then it will include bibliographic, chemical, 
# crystal, experimental, refinement or atomic coordinate data resulting 
# from the CCDC's data processing and validation procedures.
#
#######################################################################

data_YOFFAA
_chemical_formula_moiety         'C12 H16 S2'
_chemical_name_systematic        8,12-Dimethyl-2,5-dithia(6)metacyclophane
_symmetry_cell_setting           triclinic
_symmetry_space_group_name_H-M   'P -1'
_symmetry_Int_Tables_number      2
_space_group_name_Hall           '-P 1'
loop_
_symmetry_equiv_pos_site_id
_symmetry_equiv_pos_as_xyz
1 x,y,z
2 -x,-y,-z
_cell_length_a                   7.831(2)
_cell_length_b                   8.453(1)
_cell_length_c                   8.598(3)
_cell_angle_alpha                85.85(2)
_cell_angle_beta                 87.97(2)
_cell_angle_gamma                84.84(2)
_cell_volume                     565.116
_exptl_crystal_colour            colorless
_chemical_melting_point          74-75deg.C
_cell_formula_units_Z            2
loop_
_atom_site_label
_atom_site_type_symbol
_atom_site_fract_x
_atom_site_fract_y
_atom_site_fract_z
C1 C 0.3983(3) 0.2423(3) 0.4900(3)
S1 S 0.2151(1) 0.1206(1) 0.5106(1)
C2 C 0.1984(4) 0.0482(3) 0.3195(4)
C3 C 0.0918(4) 0.1539(3) 0.1997(4)
S2 S 0.1604(1) 0.1360(1) -0.0065(1)
C4 C 0.2962(5) 0.3006(4) -0.0584(4)
C5 C 0.3180(4) 0.3935(3) 0.0798(3)
C6 C 0.4136(3) 0.3200(3) 0.2051(3)
C7 C 0.3673(3) 0.3636(3) 0.3548(3)
C8 C 0.2600(3) 0.5044(3) 0.3771(3)
C9 C 0.1919(3) 0.5908(3) 0.2470(4)
C10 C 0.2116(4) 0.5306(3) 0.1013(4)
C11 C 0.5542(4) 0.1906(4) 0.1715(4)
C12 C 0.2101(4) 0.5560(4) 0.5374(4)
H1 H 0.4103(3) 0.2964(3) 0.5868(3)
H2 H 0.5054(3) 0.1740(3) 0.4708(3)
H3 H 0.3160(4) 0.0288(3) 0.2746(4)
H4 H 0.1493(4) -0.0560(3) 0.3331(4)
H5 H 0.0951(4) 0.2663(3) 0.2241(4)
H6 H -0.0290(4) 0.1280(3) 0.2123(4)
H7 H 0.4099(5) 0.2569(4) -0.0973(4)
H8 H 0.2426(5) 0.3719(4) -0.1429(4)
H9 H 0.1312(3) 0.6921(3) 0.2580(4)
H10 H 0.1518(4) 0.5836(3) 0.0156(4)
H11 H 0.6393(15) 0.2342(8) 0.0979(21)
H12 H 0.5043(5) 0.1028(12) 0.1260(24)
H13 H 0.6098(19) 0.1511(19) 0.2688(6)
H14 H 0.3133(5) 0.5563(28) 0.5987(10)
H15 H 0.1333(25) 0.4820(16) 0.5893(11)
H16 H 0.1512(27) 0.6635(12) 0.5288(4)
loop_
_geom_bond_atom_site_label_1
_geom_bond_atom_site_label_2
_geom_bond_site_symmetry_1
_geom_bond_site_symmetry_2
C1 S1 1_555 1_555
S1 C2 1_555 1_555
C2 C3 1_555 1_555
C3 S2 1_555 1_555
S2 C4 1_555 1_555
C4 C5 1_555 1_555
C5 C6 1_555 1_555
C6 C7 1_555 1_555
C7 C1 1_555 1_555
C8 C7 1_555 1_555
C9 C8 1_555 1_555
C10 C5 1_555 1_555
C11 C6 1_555 1_555
C12 C8 1_555 1_555
H1 C1 1_555 1_555
H2 C1 1_555 1_555
H3 C2 1_555 1_555
H4 C2 1_555 1_555
H5 C3 1_555 1_555
H6 C3 1_555 1_555
H7 C4 1_555 1_555
H8 C4 1_555 1_555
H9 C9 1_555 1_555
H10 C10 1_555 1_555
H11 C11 1_555 1_555
H12 C11 1_555 1_555
H13 C11 1_555 1_555
H14 C12 1_555 1_555
H15 C12 1_555 1_555
H16 C12 1_555 1_555
C9 C10 1_555 1_555

#END
