
#######################################################################
#
#                 Cambridge Crystallographic Data Centre
#                                CCDC 
#
#######################################################################
#
# If this CIF has been generated from an entry in the Cambridge 
# Structural Database, then it will include bibliographic, chemical, 
# crystal, experimental, refinement or atomic coordinate data resulting 
# from the CCDC's data processing and validation procedures.
#
#######################################################################

data_YOFGUX
_chemical_formula_moiety         'C10 H14 N5 1+,2(H2 O1),Br1 1-'
_chemical_name_systematic        
'2-(2-(1-(pyridin-2-yl)ethylidene)hydrazino)-4,5-dihydro-1H-imidazol-3-ium bromide dihydrate'
_symmetry_cell_setting           monoclinic
_symmetry_space_group_name_H-M   'P 21/n'
_symmetry_Int_Tables_number      14
_space_group_name_Hall           '-P 2yn'
loop_
_symmetry_equiv_pos_site_id
_symmetry_equiv_pos_as_xyz
1 x,y,z
2 1/2-x,1/2+y,1/2-z
3 -x,-y,-z
4 1/2+x,1/2-y,1/2+z
_cell_length_a                   7.0816(5)
_cell_length_b                   11.8367(8)
_cell_length_c                   16.7559(10)
_cell_angle_alpha                90
_cell_angle_beta                 100.741(8)
_cell_angle_gamma                90
_cell_volume                     1379.92
_exptl_crystal_description       rod
_cell_formula_units_Z            4
loop_
_atom_site_label
_atom_site_type_symbol
_atom_site_fract_x
_atom_site_fract_y
_atom_site_fract_z
N1 N 0.6180(3) 0.70516(15) -0.07239(11)
N2 N 0.7776(3) 0.44360(14) 0.01477(11)
N3 N 0.8048(3) 0.33357(15) -0.00633(11)
H1 H 0.782(4) 0.3095(19) -0.0554(11)
N4 N 0.9064(3) 0.28662(16) 0.13075(12)
H2 H 0.887(4) 0.3523(16) 0.1488(15)
N5 N 0.8982(3) 0.15380(16) 0.04040(13)
H3 H 0.894(4) 0.127(2) -0.0057(11)
C1 C 0.5890(4) 0.81044(19) -0.04866(14)
H4 H 0.5406 0.8632 -0.0883
C2 C 0.6264(4) 0.84520(19) 0.03057(14)
H5 H 0.6010 0.9190 0.0443
C3 C 0.7021(4) 0.76864(19) 0.08920(14)
H6 H 0.7312 0.7900 0.1435
C4 C 0.7342(4) 0.66038(18) 0.06666(13)
H7 H 0.7857 0.6073 0.1056
C5 C 0.6892(3) 0.63015(17) -0.01519(13)
C6 C 0.7152(3) 0.51318(17) -0.04241(13)
C7 C 0.8682(3) 0.26138(17) 0.05368(14)
C8 C 0.9675(4) 0.18684(19) 0.17974(16)
H8 H 0.8758 0.1676 0.2139
H9 H 1.0930 0.1980 0.2136
C9 C 0.9742(4) 0.0965(2) 0.11611(16)
H10 H 1.1049 0.0710 0.1173
H11 H 0.8951 0.0322 0.1242
C10 C 0.6670(5) 0.4856(2) -0.13102(14)
H12 H 0.6556 0.4052 -0.1378
H13 H 0.7670 0.5130 -0.1575
H14 H 0.5474 0.5208 -0.1545
O1 O 0.2842(3) 0.32759(17) 0.36674(11)
H15 H 0.342(5) 0.317(3) 0.3292(17)
H16 H 0.198(4) 0.372(2) 0.348(2)
O2 O 0.4668(4) 0.26119(17) 0.24593(11)
H17 H 0.495(6) 0.1930(17) 0.247(2)
H18 H 0.459(6) 0.290(3) 0.2001(14)
Br1 Br 0.93170(5) 0.49036(2) 0.26863(2)
loop_
_geom_bond_atom_site_label_1
_geom_bond_atom_site_label_2
_geom_bond_site_symmetry_1
_geom_bond_site_symmetry_2
N1 C1 1_555 1_555
N2 N3 1_555 1_555
N3 H1 1_555 1_555
N4 H2 1_555 1_555
N5 H3 1_555 1_555
C1 H4 1_555 1_555
C2 C1 1_555 1_555
H5 C2 1_555 1_555
C3 C2 1_555 1_555
H6 C3 1_555 1_555
C4 C3 1_555 1_555
H7 C4 1_555 1_555
C5 N1 1_555 1_555
C6 N2 1_555 1_555
C7 N3 1_555 1_555
C8 N4 1_555 1_555
H8 C8 1_555 1_555
H9 C8 1_555 1_555
C9 N5 1_555 1_555
H10 C9 1_555 1_555
H11 C9 1_555 1_555
C10 C6 1_555 1_555
H12 C10 1_555 1_555
H13 C10 1_555 1_555
H14 C10 1_555 1_555
O1 H15 1_555 1_555
H16 O1 1_555 1_555
O2 H17 1_555 1_555
H18 O2 1_555 1_555
N4 C7 1_555 1_555
N5 C7 1_555 1_555
C4 C5 1_555 1_555
C5 C6 1_555 1_555
C8 C9 1_555 1_555

#END
