
#######################################################################
#
#                 Cambridge Crystallographic Data Centre
#                                CCDC 
#
#######################################################################
#
# If this CIF has been generated from an entry in the Cambridge 
# Structural Database, then it will include bibliographic, chemical, 
# crystal, experimental, refinement or atomic coordinate data resulting 
# from the CCDC's data processing and validation procedures.
#
#######################################################################

data_YOFPOZ
_chemical_formula_moiety         'C85 H60 N2'
_chemical_name_systematic        
2,7-Dipyrenyl-9,9-di(4-(di-p-tolylamino)phenyl)fluorene
_symmetry_cell_setting           triclinic
_symmetry_space_group_name_H-M   'P -1'
_symmetry_Int_Tables_number      2
_space_group_name_Hall           '-P 1'
loop_
_symmetry_equiv_pos_site_id
_symmetry_equiv_pos_as_xyz
1 x,y,z
2 -x,-y,-z
_cell_length_a                   12.759(4)
_cell_length_b                   13.614(4)
_cell_length_c                   19.739(8)
_cell_angle_alpha                82.434(18)
_cell_angle_beta                 87.306(18)
_cell_angle_gamma                61.099(11)
_cell_volume                     2974.98
_exptl_crystal_colour            colorless
_exptl_crystal_description       prism
_cell_formula_units_Z            2
_exptl_crystal_preparation       luminescent
loop_
_atom_site_label
_atom_site_type_symbol
_atom_site_fract_x
_atom_site_fract_y
_atom_site_fract_z
N1 N 0.5341(2) 1.13388(19) 0.33050(11)
N2 N 0.4252(2) 0.8178(2) -0.02416(11)
C1 C 0.3555(2) 0.7409(2) 0.32558(12)
H1 H 0.3043 0.8123 0.3007
C2 C 0.3087(2) 0.6913(2) 0.37589(13)
C3 C 0.3848(3) 0.5853(2) 0.41088(13)
H2 H 0.3530 0.5514 0.4449
C4 C 0.5063(2) 0.5282(2) 0.39691(13)
H3 H 0.5567 0.4553 0.4203
C5 C 0.5532(2) 0.5800(2) 0.34774(13)
C6 C 0.6766(2) 0.5459(2) 0.32717(12)
C7 C 0.7843(3) 0.4520(2) 0.34945(13)
H4 H 0.7851 0.3920 0.3804
C8 C 0.8914(3) 0.4470(2) 0.32566(13)
H5 H 0.9652 0.3824 0.3404
C9 C 0.8923(3) 0.5351(2) 0.28050(13)
C10 C 0.7826(2) 0.6284(2) 0.25731(13)
H6 H 0.7815 0.6886 0.2264
C11 C 0.6757(2) 0.6328(2) 0.27956(12)
C12 C 0.5480(2) 0.7272(2) 0.26315(13)
C13 C 0.4772(2) 0.6853(2) 0.31204(12)
C14 C 0.5384(2) 0.8384(2) 0.28051(13)
C15 C 0.5496(3) 0.9148(2) 0.23024(13)
H7 H 0.5591 0.8997 0.1841
C16 C 0.5474(3) 1.0117(2) 0.24584(13)
H8 H 0.5539 1.0628 0.2104
C17 C 0.5356(2) 1.0349(2) 0.31329(13)
C18 C 0.5259(2) 0.9583(2) 0.36404(13)
H9 H 0.5186 0.9723 0.4104
C19 C 0.5265(2) 0.8625(2) 0.34771(13)
H10 H 0.5188 0.8120 0.3831
C20 C 0.4487(3) 0.7896(2) 0.04690(13)
C21 C 0.3683(3) 0.8522(2) 0.09452(13)
H11 H 0.2913 0.9118 0.0797
C22 C 0.3996(3) 0.8282(2) 0.16371(13)
H12 H 0.3436 0.8726 0.1952
C23 C 0.5105(2) 0.7411(2) 0.18802(13)
C24 C 0.5877(3) 0.6746(2) 0.14057(13)
H13 H 0.6630 0.6124 0.1557
C25 C 0.5566(3) 0.6975(2) 0.07136(14)
H14 H 0.6100 0.6495 0.0403
C26 C 0.5248(3) 0.8004(3) -0.06763(14)
C27 C 0.5440(3) 0.7429(2) -0.12357(14)
H15 H 0.4920 0.7145 -0.1330
C28 C 0.6400(3) 0.7267(2) -0.16602(15)
H16 H 0.6526 0.6870 -0.2043
C29 C 0.7174(3) 0.7669(3) -0.15389(15)
C30 C 0.6965(3) 0.8247(3) -0.09718(16)
H17 H 0.7487 0.8526 -0.0874
C31 C 0.6004(3) 0.8421(3) -0.05473(15)
H18 H 0.5868 0.8828 -0.0168
C32 C 0.8199(3) 0.7511(3) -0.20061(17)
H19 H 0.8301 0.6975 -0.2323
H20 H 0.8936 0.7214 -0.1733
H21 H 0.8027 0.8239 -0.2266
C33 C 0.3076(3) 0.8983(2) -0.05036(13)
C34 C 0.2130(3) 0.8751(3) -0.03832(14)
H22 H 0.2260 0.8069 -0.0114
C35 C 0.1002(3) 0.9508(3) -0.06525(14)
H23 H 0.0368 0.9333 -0.0567
C36 C 0.0771(3) 1.0522(3) -0.10462(15)
C37 C 0.1722(3) 1.0742(3) -0.11550(15)
H24 H 0.1590 1.1427 -0.1421
C38 C 0.2865(3) 0.9993(3) -0.08866(14)
H25 H 0.3497 1.0173 -0.0966
C39 C -0.0456(3) 1.1325(3) -0.13570(18)
H26 H -0.0457 1.2004 -0.1595
H27 H -0.1050 1.1538 -0.0995
H28 H -0.0658 1.0954 -0.1683
C40 C 0.4512(3) 1.1949(2) 0.37986(13)
C41 C 0.3347(3) 1.2118(2) 0.37898(14)
H29 H 0.3100 1.1842 0.3447
C42 C 0.2548(3) 1.2688(2) 0.42787(14)
H30 H 0.1761 1.2779 0.4272
C43 C 0.2864(3) 1.3134(2) 0.47828(14)
C44 C 0.4019(3) 1.2976(2) 0.47740(13)
H31 H 0.4254 1.3287 0.5102
C45 C 0.4846(3) 1.2376(2) 0.43021(13)
H32 H 0.5643 1.2255 0.4322
C46 C 0.1973(3) 1.3758(3) 0.53108(17)
H33 H 0.2342 1.3456 0.5768
H34 H 0.1267 1.3656 0.5285
H35 H 0.1732 1.4565 0.5222
C47 C 0.6071(3) 1.1764(2) 0.29457(13)
C48 C 0.5715(3) 1.2915(2) 0.28736(13)
H36 H 0.4972 1.3427 0.3051
C49 C 0.6446(3) 1.3314(3) 0.25426(13)
H37 H 0.6194 1.4100 0.2504
C50 C 0.7522(3) 1.2609(3) 0.22693(13)
C51 C 0.7841(3) 1.1470(3) 0.23176(14)
H38 H 0.8560 1.0970 0.2112
C52 C 0.7144(3) 1.1041(2) 0.26557(14)
H39 H 0.7397 1.0255 0.2690
C53 C 0.8373(3) 1.3020(3) 0.19555(15)
H40 H 0.7932 1.3842 0.1832
H41 H 0.8723 1.2655 0.1545
H42 H 0.9012 1.2828 0.2287
C54 C 0.1782(3) 0.7521(2) 0.39035(13)
C55 C 0.0963(3) 0.7733(2) 0.33857(14)
H43 H 0.1251 0.7511 0.2949
C56 C -0.0259(3) 0.8258(2) 0.34938(15)
H44 H -0.0792 0.8375 0.3134
C57 C -0.0716(3) 0.8618(2) 0.41253(14)
C58 C -0.1970(3) 0.9152(3) 0.42568(15)
H45 H -0.2513 0.9248 0.3909
C59 C -0.2404(3) 0.9527(3) 0.48655(15)
H46 H -0.3244 0.9890 0.4934
C60 C -0.1614(3) 0.9385(2) 0.54085(14)
C61 C -0.2033(3) 0.9752(3) 0.60437(15)
H47 H -0.2869 1.0110 0.6125
C62 C -0.1245(3) 0.9600(3) 0.65551(15)
H48 H -0.1544 0.9844 0.6986
C63 C -0.0032(3) 0.9100(2) 0.64466(14)
H49 H 0.0494 0.9017 0.6801
C64 C 0.0438(3) 0.8713(2) 0.58200(13)
C65 C 0.1698(3) 0.8196(2) 0.56822(14)
H50 H 0.2240 0.8126 0.6023
C66 C 0.2127(3) 0.7809(2) 0.50796(13)
H51 H 0.2966 0.7464 0.5009
C67 C 0.1351(2) 0.7901(2) 0.45377(13)
C68 C 0.0093(3) 0.8452(2) 0.46520(13)
C69 C -0.0360(3) 0.8848(2) 0.52937(13)
C70 C 1.0075(3) 0.5330(2) 0.26199(14)
C71 C 1.0870(3) 0.5129(2) 0.31459(14)
H52 H 1.0673 0.4971 0.3603
C72 C 1.1933(3) 0.5151(2) 0.30287(14)
H53 H 1.2448 0.5014 0.3403
C73 C 1.2256(3) 0.5374(2) 0.23649(14)
C74 C 1.3325(3) 0.5463(2) 0.22150(15)
H54 H 1.3808 0.5414 0.2584
C75 C 1.3663(3) 0.5613(2) 0.15715(15)
H55 H 1.4375 0.5668 0.1495
C76 C 1.2962(3) 0.5691(2) 0.09974(15)
C77 C 1.3330(3) 0.5783(2) 0.03312(15)
H56 H 1.4073 0.5777 0.0248
C78 C 1.2627(3) 0.5885(3) -0.02138(16)
H57 H 1.2888 0.5951 -0.0668
C79 C 1.1540(3) 0.5891(3) -0.01003(14)
H58 H 1.1064 0.5966 -0.0479
C80 C 1.1139(3) 0.5788(3) 0.05613(14)
C81 C 1.0028(3) 0.5784(3) 0.07024(15)
H59 H 0.9523 0.5882 0.0332
C82 C 0.9681(3) 0.5643(2) 0.13514(14)
H60 H 0.8946 0.5631 0.1424
C83 C 1.0396(3) 0.5511(2) 0.19342(13)
C84 C 1.1502(3) 0.5522(2) 0.18091(14)
C85 C 1.1865(3) 0.5673(2) 0.11218(14)
loop_
_geom_bond_atom_site_label_1
_geom_bond_atom_site_label_2
_geom_bond_site_symmetry_1
_geom_bond_site_symmetry_2
N1 C17 1_555 1_555
N2 C20 1_555 1_555
C1 H1 1_555 1_555
C2 C1 1_555 1_555
C3 C2 1_555 1_555
H2 C3 1_555 1_555
C4 C3 1_555 1_555
H3 C4 1_555 1_555
C5 C4 1_555 1_555
C6 C5 1_555 1_555
C7 C6 1_555 1_555
H4 C7 1_555 1_555
C8 C7 1_555 1_555
H5 C8 1_555 1_555
C9 C8 1_555 1_555
C10 C9 1_555 1_555
H6 C10 1_555 1_555
C11 C6 1_555 1_555
C12 C11 1_555 1_555
C13 C1 1_555 1_555
C14 C12 1_555 1_555
C15 C14 1_555 1_555
H7 C15 1_555 1_555
C16 C15 1_555 1_555
H8 C16 1_555 1_555
C17 C16 1_555 1_555
C18 C17 1_555 1_555
H9 C18 1_555 1_555
C19 C14 1_555 1_555
H10 C19 1_555 1_555
C20 C21 1_555 1_555
C21 H11 1_555 1_555
C22 C21 1_555 1_555
H12 C22 1_555 1_555
C23 C12 1_555 1_555
C24 C23 1_555 1_555
H13 C24 1_555 1_555
C25 C20 1_555 1_555
H14 C25 1_555 1_555
C26 N2 1_555 1_555
C27 C26 1_555 1_555
H15 C27 1_555 1_555
C28 C27 1_555 1_555
H16 C28 1_555 1_555
C29 C28 1_555 1_555
C30 C29 1_555 1_555
H17 C30 1_555 1_555
C31 C26 1_555 1_555
H18 C31 1_555 1_555
C32 C29 1_555 1_555
H19 C32 1_555 1_555
H20 C32 1_555 1_555
H21 C32 1_555 1_555
C33 N2 1_555 1_555
C34 C33 1_555 1_555
H22 C34 1_555 1_555
C35 C34 1_555 1_555
H23 C35 1_555 1_555
C36 C35 1_555 1_555
C37 C36 1_555 1_555
H24 C37 1_555 1_555
C38 C33 1_555 1_555
H25 C38 1_555 1_555
C39 C36 1_555 1_555
H26 C39 1_555 1_555
H27 C39 1_555 1_555
H28 C39 1_555 1_555
C40 N1 1_555 1_555
C41 C40 1_555 1_555
H29 C41 1_555 1_555
C42 C41 1_555 1_555
H30 C42 1_555 1_555
C43 C42 1_555 1_555
C44 C43 1_555 1_555
H31 C44 1_555 1_555
C45 C40 1_555 1_555
H32 C45 1_555 1_555
C46 C43 1_555 1_555
H33 C46 1_555 1_555
H34 C46 1_555 1_555
H35 C46 1_555 1_555
C47 N1 1_555 1_555
C48 C47 1_555 1_555
H36 C48 1_555 1_555
C49 C48 1_555 1_555
H37 C49 1_555 1_555
C50 C49 1_555 1_555
C51 C50 1_555 1_555
H38 C51 1_555 1_555
C52 C47 1_555 1_555
H39 C52 1_555 1_555
C53 C50 1_555 1_555
H40 C53 1_555 1_555
H41 C53 1_555 1_555
H42 C53 1_555 1_555
C54 C2 1_555 1_555
C55 C54 1_555 1_555
H43 C55 1_555 1_555
C56 C55 1_555 1_555
H44 C56 1_555 1_555
C57 C56 1_555 1_555
C58 C57 1_555 1_555
H45 C58 1_555 1_555
C59 C58 1_555 1_555
H46 C59 1_555 1_555
C60 C59 1_555 1_555
C61 C60 1_555 1_555
H47 C61 1_555 1_555
C62 C61 1_555 1_555
H48 C62 1_555 1_555
C63 C62 1_555 1_555
H49 C63 1_555 1_555
C64 C63 1_555 1_555
C65 C64 1_555 1_555
H50 C65 1_555 1_555
C66 C65 1_555 1_555
H51 C66 1_555 1_555
C67 C54 1_555 1_555
C68 C57 1_555 1_555
C69 C60 1_555 1_555
C70 C9 1_555 1_555
C71 C70 1_555 1_555
H52 C71 1_555 1_555
C72 C71 1_555 1_555
H53 C72 1_555 1_555
C73 C72 1_555 1_555
C74 C73 1_555 1_555
H54 C74 1_555 1_555
C75 C74 1_555 1_555
H55 C75 1_555 1_555
C76 C75 1_555 1_555
C77 C76 1_555 1_555
H56 C77 1_555 1_555
C78 C77 1_555 1_555
H57 C78 1_555 1_555
C79 C78 1_555 1_555
H58 C79 1_555 1_555
C80 C79 1_555 1_555
C81 C80 1_555 1_555
H59 C81 1_555 1_555
C82 C81 1_555 1_555
H60 C82 1_555 1_555
C83 C70 1_555 1_555
C84 C73 1_555 1_555
C85 C76 1_555 1_555
C5 C13 1_555 1_555
C10 C11 1_555 1_555
C12 C13 1_555 1_555
C18 C19 1_555 1_555
C22 C23 1_555 1_555
C24 C25 1_555 1_555
C30 C31 1_555 1_555
C37 C38 1_555 1_555
C44 C45 1_555 1_555
C51 C52 1_555 1_555
C64 C69 1_555 1_555
C66 C67 1_555 1_555
C67 C68 1_555 1_555
C68 C69 1_555 1_555
C80 C85 1_555 1_555
C82 C83 1_555 1_555
C83 C84 1_555 1_555
C84 C85 1_555 1_555

#END
