
#######################################################################
#
#                 Cambridge Crystallographic Data Centre
#                                CCDC 
#
#######################################################################
#
# If this CIF has been generated from an entry in the Cambridge 
# Structural Database, then it will include bibliographic, chemical, 
# crystal, experimental, refinement or atomic coordinate data resulting 
# from the CCDC's data processing and validation procedures.
#
#######################################################################

data_YOFWIB
_chemical_formula_moiety         'C21 H23 N5 O5'
_chemical_name_systematic        
N-(9-(6-(1-hydroxyethyl)-2,2-dimethyltetrahydrofuro[3,4-d][1,3]dioxol-4-yl)-9H-purin-6-yl)benzamide
_symmetry_cell_setting           monoclinic
_symmetry_space_group_name_H-M   'P 21'
_symmetry_Int_Tables_number      4
_space_group_name_Hall           'P 2yb'
loop_
_symmetry_equiv_pos_site_id
_symmetry_equiv_pos_as_xyz
1 x,y,z
2 -x,1/2+y,-z
_cell_length_a                   8.9140(1)
_cell_length_b                   8.3961(1)
_cell_length_c                   14.3759(2)
_cell_angle_alpha                90
_cell_angle_beta                 91.907(1)
_cell_angle_gamma                90
_cell_volume                     1075.34
_exptl_crystal_colour            colorless
_exptl_crystal_description       Prism
_cell_formula_units_Z            2
loop_
_atom_site_label
_atom_site_type_symbol
_atom_site_fract_x
_atom_site_fract_y
_atom_site_fract_z
O1 O 0.75747(18) 0.8953(2) 0.30679(12)
N1 N 0.5010(3) 0.8446(3) 0.33685(14)
O2 O 0.7736(2) 1.1867(3) 0.38460(13)
H1 H 0.7296 1.2489 0.4182
O3 O 0.1997(2) 1.0741(3) 0.57665(13)
C1 C 0.6325(3) 0.8017(4) 0.28197(19)
H2 H 0.6575 0.6896 0.2938
N2 N 0.0453(3) 1.0259(4) 0.45174(16)
H3 H -0.0468 1.0169 0.4328
C2 C -0.0593(3) 1.0352(4) 0.60434(19)
N3 N 0.1148(3) 1.0859(4) 0.30424(18)
N4 N 0.3602(3) 0.8459(3) 0.46383(16)
O4 O 0.6970(3) 0.7149(3) 0.13113(14)
C3 C 0.2916(3) 0.9390(4) 0.39441(19)
C4 C 0.0732(3) 1.0467(4) 0.54543(19)
C5 C 0.7593(3) 1.0351(4) 0.24775(17)
H4 H 0.8639 1.0574 0.2333
C6 C 0.3775(3) 0.9377(4) 0.31565(19)
N5 N 0.3436(3) 1.0077(4) 0.23408(16)
O5 O 0.7796(3) 0.9526(3) 0.08649(15)
C7 C 0.1535(3) 1.0183(4) 0.38562(19)
C8 C 0.6762(3) 0.9857(4) 0.15738(18)
H5 H 0.6009 1.0647 0.1373
C9 C 0.2098(3) 1.0779(5) 0.2352(2)
H6 H 0.1787 1.1282 0.1803
C10 C -0.1876(3) 0.9515(4) 0.5770(2)
H7 H -0.1932 0.9027 0.5189
C11 C 0.6055(3) 0.8246(4) 0.17811(19)
H8 H 0.4992 0.8182 0.1586
C12 C 0.4820(3) 0.7935(4) 0.42590(19)
H9 H 0.5501 0.7268 0.4570
C13 C 0.6977(3) 1.1789(4) 0.29605(19)
H10 H 0.5897 1.1659 0.3041
C14 C -0.0529(4) 1.1063(4) 0.6917(2)
H11 H 0.0327 1.1618 0.7113
C15 C -0.2997(4) 1.0110(5) 0.7216(2)
H12 H -0.3800 1.0023 0.7609
C16 C -0.1736(4) 1.0948(5) 0.7498(2)
H13 H -0.1693 1.1439 0.8078
C17 C -0.3071(4) 0.9400(5) 0.6354(2)
H14 H -0.3928 0.8841 0.6163
C18 C 0.7266(5) 1.3282(4) 0.2400(3)
H15 H 0.6920 1.4196 0.2732
H16 H 0.6737 1.3212 0.1809
H17 H 0.8322 1.3382 0.2305
C19 C 0.7542(4) 0.7959(5) 0.0538(2)
C20 C 0.6433(5) 0.7963(6) -0.0274(2)
H18 H 0.5537 0.8509 -0.0103
H19 H 0.6190 0.6886 -0.0445
H20 H 0.6863 0.8496 -0.0792
C21 C 0.9037(5) 0.7231(9) 0.0299(3)
H21 H 0.9407 0.7740 -0.0245
H22 H 0.8908 0.6113 0.0181
H23 H 0.9742 0.7379 0.0811
loop_
_geom_bond_atom_site_label_1
_geom_bond_atom_site_label_2
_geom_bond_site_symmetry_1
_geom_bond_site_symmetry_2
O1 C1 1_555 1_555
N1 C1 1_555 1_555
O2 H1 1_555 1_555
O3 C4 1_555 1_555
C1 H2 1_555 1_555
N2 H3 1_555 1_555
C2 C4 1_555 1_555
N3 C7 1_555 1_555
N4 C3 1_555 1_555
O4 C11 1_555 1_555
C3 C6 1_555 1_555
C4 N2 1_555 1_555
C5 O1 1_555 1_555
H4 C5 1_555 1_555
C6 N1 1_555 1_555
N5 C6 1_555 1_555
O5 C8 1_555 1_555
C7 N2 1_555 1_555
C8 C5 1_555 1_555
H5 C8 1_555 1_555
C9 N3 1_555 1_555
H6 C9 1_555 1_555
C10 C2 1_555 1_555
H7 C10 1_555 1_555
C11 C1 1_555 1_555
H8 C11 1_555 1_555
C12 N1 1_555 1_555
H9 C12 1_555 1_555
C13 O2 1_555 1_555
H10 C13 1_555 1_555
C14 C2 1_555 1_555
H11 C14 1_555 1_555
C15 H12 1_555 1_555
C16 C14 1_555 1_555
H13 C16 1_555 1_555
C17 C10 1_555 1_555
H14 C17 1_555 1_555
C18 C13 1_555 1_555
H15 C18 1_555 1_555
H16 C18 1_555 1_555
H17 C18 1_555 1_555
C19 O4 1_555 1_555
C20 C19 1_555 1_555
H18 C20 1_555 1_555
H19 C20 1_555 1_555
H20 C20 1_555 1_555
C21 C19 1_555 1_555
H21 C21 1_555 1_555
H22 C21 1_555 1_555
H23 C21 1_555 1_555
N4 C12 1_555 1_555
C3 C7 1_555 1_555
C5 C13 1_555 1_555
N5 C9 1_555 1_555
O5 C19 1_555 1_555
C8 C11 1_555 1_555
C15 C16 1_555 1_555
C15 C17 1_555 1_555

#END
