
#######################################################################
#
#                 Cambridge Crystallographic Data Centre
#                                CCDC 
#
#######################################################################
#
# If this CIF has been generated from an entry in the Cambridge 
# Structural Database, then it will include bibliographic, chemical, 
# crystal, experimental, refinement or atomic coordinate data resulting 
# from the CCDC's data processing and validation procedures.
#
#######################################################################

data_YOHKAJ
_chemical_formula_moiety         'C15 H13 Br1 Cl1 N1 O1'
_chemical_name_systematic        
N-(4-bromo-3-methylphenyl)-2-(2-chlorophenyl)acetamide
_symmetry_cell_setting           monoclinic
_symmetry_space_group_name_H-M   'P 21/c'
_symmetry_Int_Tables_number      14
_space_group_name_Hall           '-P 2ybc'
loop_
_symmetry_equiv_pos_site_id
_symmetry_equiv_pos_as_xyz
1 x,y,z
2 -x,1/2+y,1/2-z
3 -x,-y,-z
4 x,1/2-y,1/2+z
_cell_length_a                   11.8458(8)
_cell_length_b                   4.7282(3)
_cell_length_c                   25.0757(15)
_cell_angle_alpha                90
_cell_angle_beta                 98.133(5)
_cell_angle_gamma                90
_cell_volume                     1390.35
_exptl_crystal_colour            colorless
_exptl_crystal_description       needle
_cell_formula_units_Z            4
loop_
_atom_site_label
_atom_site_type_symbol
_atom_site_fract_x
_atom_site_fract_y
_atom_site_fract_z
C1 C 0.2579(3) 0.6288(9) 0.29380(16)
O1 O 0.2592(3) 0.8859(6) 0.28824(12)
N1 N 0.2915(3) 0.4470(7) 0.25784(13)
H1 H 0.2877 0.2651 0.2648
C2 C 0.2236(4) 0.4897(9) 0.34319(17)
H2 H 0.2910 0.3969 0.3638
H3 H 0.1660 0.3417 0.3320
C3 C 0.3328(3) 0.5284(8) 0.20926(16)
C4 C 0.2722(4) 0.7259(8) 0.17483(17)
H4 H 0.2036 0.8044 0.1839
C5 C 0.3114(4) 0.8082(8) 0.12760(17)
C6 C 0.4118(4) 0.6899(9) 0.11661(16)
Br1 Br 0.47195(4) 0.79352(12) 0.05281(2)
C7 C 0.4720(4) 0.4935(10) 0.14980(17)
H5 H 0.5409 0.4160 0.1409
C8 C 0.4307(4) 0.4104(9) 0.19651(17)
H6 H 0.4704 0.2722 0.2195
C9 C 0.2426(4) 1.0184(9) 0.09054(18)
H7 H 0.2168 0.9282 0.0558
H8 H 0.2904 1.1822 0.0851
H9 H 0.1763 1.0805 0.1068
C10 C 0.1750(4) 0.7001(8) 0.37901(17)
C11 C 0.0654(4) 0.8118(10) 0.36675(18)
Cl1 Cl -0.01863(11) 0.7074(3) 0.30764(5)
C12 C 0.0216(4) 1.0041(10) 0.4003(2)
H10 H -0.0539 1.0738 0.3914
C13 C 0.0888(5) 1.0927(10) 0.4464(2)
H11 H 0.0598 1.2268 0.4693
C14 C 0.1984(4) 0.9884(11) 0.4600(2)
H12 H 0.2444 1.0488 0.4921
C15 C 0.2400(4) 0.7939(9) 0.42601(18)
H13 H 0.3153 0.7232 0.4353
loop_
_geom_bond_atom_site_label_1
_geom_bond_atom_site_label_2
_geom_bond_site_symmetry_1
_geom_bond_site_symmetry_2
C1 O1 1_555 1_555
N1 C1 1_555 1_555
H1 N1 1_555 1_555
C2 C1 1_555 1_555
H2 C2 1_555 1_555
H3 C2 1_555 1_555
C3 N1 1_555 1_555
C4 C3 1_555 1_555
H4 C4 1_555 1_555
C5 C4 1_555 1_555
C6 C5 1_555 1_555
Br1 C6 1_555 1_555
C7 C6 1_555 1_555
H5 C7 1_555 1_555
C8 C3 1_555 1_555
H6 C8 1_555 1_555
C9 C5 1_555 1_555
H7 C9 1_555 1_555
H8 C9 1_555 1_555
H9 C9 1_555 1_555
C10 C2 1_555 1_555
C11 C10 1_555 1_555
Cl1 C11 1_555 1_555
C12 C11 1_555 1_555
H10 C12 1_555 1_555
C13 C12 1_555 1_555
H11 C13 1_555 1_555
C14 C13 1_555 1_555
H12 C14 1_555 1_555
C15 C10 1_555 1_555
H13 C15 1_555 1_555
C7 C8 1_555 1_555
C14 C15 1_555 1_555

#END
