
#######################################################################
#
#                 Cambridge Crystallographic Data Centre
#                                CCDC 
#
#######################################################################
#
# If this CIF has been generated from an entry in the Cambridge 
# Structural Database, then it will include bibliographic, chemical, 
# crystal, experimental, refinement or atomic coordinate data resulting 
# from the CCDC's data processing and validation procedures.
#
#######################################################################

data_YOJCUX
_chemical_formula_moiety         'C13 H10 N4 O1'
_chemical_name_systematic        
1-(Pyridin-2-yl)-3-(pyridin-4-yl)-1H-pyrazol-5-ol
_symmetry_cell_setting           orthorhombic
_symmetry_space_group_name_H-M   'P 21 21 21'
_symmetry_Int_Tables_number      19
_space_group_name_Hall           'P 2ac 2ab'
loop_
_symmetry_equiv_pos_site_id
_symmetry_equiv_pos_as_xyz
1 x,y,z
2 1/2-x,-y,1/2+z
3 -x,1/2+y,1/2-z
4 1/2+x,1/2-y,-z
_cell_length_a                   3.8570(15)
_cell_length_b                   11.159(4)
_cell_length_c                   25.576(10)
_cell_angle_alpha                90
_cell_angle_beta                 90
_cell_angle_gamma                90
_cell_volume                     1100.8
_cell_formula_units_Z            4
loop_
_atom_site_label
_atom_site_type_symbol
_atom_site_fract_x
_atom_site_fract_y
_atom_site_fract_z
N1 N 0.4957(3) -0.03017(10) 0.07624(4)
C1 C 0.6080(4) -0.01342(12) -0.01644(5)
N2 N 0.5395(3) 0.04184(9) 0.11936(4)
C2 C 0.4585(4) -0.12434(12) -0.02664(5)
H1 H 0.3647 -0.1695 0.0004
N3 N 0.4714(4) 0.08250(11) 0.20728(4)
N4 N 0.5810(4) -0.10807(12) -0.11853(5)
C3 C 0.4288(4) 0.00291(11) 0.16890(5)
C4 C 0.7429(4) 0.04875(12) -0.05875(5)
H2 H 0.8453 0.1234 -0.0541
C5 C 0.7231(5) -0.00176(14) -0.10787(6)
H3 H 0.8156 0.0415 -0.1356
C6 C 0.2238(5) -0.05945(15) 0.26605(6)
H4 H 0.1536 -0.0788 0.2998
C7 C 0.6197(4) 0.03502(11) 0.03715(5)
O1 O 0.7569(4) 0.23340(9) 0.14181(4)
H5 H 0.6946 0.2099 0.1707
C8 C 0.7443(4) 0.14744(12) 0.05372(5)
H6 H 0.8429 0.2073 0.0332
C9 C 0.4507(4) -0.16673(14) -0.07730(6)
H7 H 0.3483 -0.2409 -0.0832
C10 C 0.2886(4) -0.11005(12) 0.17611(6)
H8 H 0.2663 -0.1635 0.1484
C11 C 0.6888(4) 0.14926(12) 0.10614(5)
C12 C 0.3686(5) 0.04976(15) 0.25547(6)
H9 H 0.3973 0.1038 0.2828
C13 C 0.1836(4) -0.14041(15) 0.22576(6)
H10 H 0.0860 -0.2152 0.2321
loop_
_geom_bond_atom_site_label_1
_geom_bond_atom_site_label_2
_geom_bond_site_symmetry_1
_geom_bond_site_symmetry_2
N1 N2 1_555 1_555
C1 C2 1_555 1_555
N2 C3 1_555 1_555
C2 H1 1_555 1_555
N3 C3 1_555 1_555
N4 C5 1_555 1_555
C3 C10 1_555 1_555
C4 C1 1_555 1_555
H2 C4 1_555 1_555
C5 C4 1_555 1_555
H3 C5 1_555 1_555
C6 H4 1_555 1_555
C7 N1 1_555 1_555
O1 H5 1_555 1_555
C8 C7 1_555 1_555
H6 C8 1_555 1_555
C9 C2 1_555 1_555
H7 C9 1_555 1_555
C10 H8 1_555 1_555
C11 N2 1_555 1_555
C12 N3 1_555 1_555
H9 C12 1_555 1_555
C13 C6 1_555 1_555
H10 C13 1_555 1_555
C1 C7 1_555 1_555
N4 C9 1_555 1_555
C6 C12 1_555 1_555
O1 C11 1_555 1_555
C8 C11 1_555 1_555
C10 C13 1_555 1_555

#END
