
#######################################################################
#
#                 Cambridge Crystallographic Data Centre
#                                CCDC 
#
#######################################################################
#
# If this CIF has been generated from an entry in the Cambridge 
# Structural Database, then it will include bibliographic, chemical, 
# crystal, experimental, refinement or atomic coordinate data resulting 
# from the CCDC's data processing and validation procedures.
#
#######################################################################

data_YOKYOO
_chemical_formula_moiety         'C14 H10 F6 N2 O4'
_chemical_name_systematic        
3-((1,1,1,3,3,3-Hexafluoropropan-2-yl)oxy)-2-methyl-3,3a-dihydro-5H-imidazo[1,5-a][3,1]benzoxazine-1,5(2H)-dione
_symmetry_cell_setting           monoclinic
_symmetry_space_group_name_H-M   'P 21/c'
_symmetry_Int_Tables_number      14
_space_group_name_Hall           '-P 2ybc'
loop_
_symmetry_equiv_pos_site_id
_symmetry_equiv_pos_as_xyz
1 x,y,z
2 -x,1/2+y,1/2-z
3 -x,-y,-z
4 x,1/2-y,1/2+z
_cell_length_a                   7.0844(3)
_cell_length_b                   29.4897(11)
_cell_length_c                   7.2945(3)
_cell_angle_alpha                90
_cell_angle_beta                 90.5280(10)
_cell_angle_gamma                90
_cell_volume                     1523.88
_exptl_crystal_colour            colorless
_exptl_crystal_description       plate
_cell_formula_units_Z            4
loop_
_atom_site_label
_atom_site_type_symbol
_atom_site_fract_x
_atom_site_fract_y
_atom_site_fract_z
N1 N 0.66198(17) 0.39326(4) 0.38502(18)
N2 N 0.69561(15) 0.32592(4) 0.25240(16)
O1 O 0.44324(14) 0.41145(3) 0.15995(14)
O2 O 0.96352(14) 0.36420(4) 0.35741(15)
O3 O 0.40497(13) 0.30551(3) 0.39479(13)
O4 O 0.34365(13) 0.23420(3) 0.46426(14)
C1 C 0.47846(19) 0.38293(5) 0.31719(19)
H1 H 0.3803 0.3871 0.4134
C2 C 0.79391(19) 0.36168(5) 0.33500(18)
C3 C 0.49529(18) 0.33321(4) 0.25863(19)
H2 H 0.4363 0.3284 0.1351
C4 C 0.44708(18) 0.26034(4) 0.38793(18)
C5 C 0.62667(18) 0.24750(4) 0.29986(17)
C6 C 0.67396(19) 0.20156(5) 0.28784(18)
H3 H 0.5850 0.1790 0.3216
C7 C 0.8507(2) 0.18905(5) 0.22668(19)
H4 H 0.8835 0.1579 0.2188
C8 C 0.98091(19) 0.22229(5) 0.17655(19)
H5 H 1.1026 0.2135 0.1362
C9 C 0.93508(19) 0.26793(5) 0.18489(18)
H6 H 1.0240 0.2903 0.1494
C10 C 0.75727(18) 0.28047(4) 0.24586(17)
C11 C 0.2517(2) 0.41857(5) 0.1172(2)
H7 H 0.1747 0.3943 0.1764
C12 C 0.2296(2) 0.41487(5) -0.0901(2)
C13 C 0.1924(2) 0.46456(5) 0.1930(2)
C14 C 0.7094(2) 0.43692(5) 0.4651(2)
H8 H 0.8402 0.4363 0.5099
H9 H 0.6247 0.4432 0.5675
H10 H 0.6953 0.4607 0.3720
F1 F 0.33843(18) 0.44382(4) -0.18050(15)
F2 F 0.27472(17) 0.37319(4) -0.14478(15)
F3 F 0.05225(16) 0.42245(4) -0.14377(16)
F4 F 0.00933(15) 0.47236(4) 0.16505(16)
F5 F 0.28787(17) 0.49886(3) 0.12086(17)
F6 F 0.22349(17) 0.46526(4) 0.37431(15)
loop_
_geom_bond_atom_site_label_1
_geom_bond_atom_site_label_2
_geom_bond_site_symmetry_1
_geom_bond_site_symmetry_2
N1 C1 1_555 1_555
N2 C2 1_555 1_555
O1 C1 1_555 1_555
O2 C2 1_555 1_555
O3 C3 1_555 1_555
O4 C4 1_555 1_555
C1 H1 1_555 1_555
C2 N1 1_555 1_555
C3 N2 1_555 1_555
H2 C3 1_555 1_555
C4 O3 1_555 1_555
C5 C4 1_555 1_555
C6 C5 1_555 1_555
H3 C6 1_555 1_555
C7 C6 1_555 1_555
H4 C7 1_555 1_555
C8 C7 1_555 1_555
H5 C8 1_555 1_555
C9 C8 1_555 1_555
H6 C9 1_555 1_555
C10 N2 1_555 1_555
C11 O1 1_555 1_555
H7 C11 1_555 1_555
C12 C11 1_555 1_555
C13 C11 1_555 1_555
C14 N1 1_555 1_555
H8 C14 1_555 1_555
H9 C14 1_555 1_555
H10 C14 1_555 1_555
F1 C12 1_555 1_555
F2 C12 1_555 1_555
F3 C12 1_555 1_555
F4 C13 1_555 1_555
F5 C13 1_555 1_555
F6 C13 1_555 1_555
C1 C3 1_555 1_555
C5 C10 1_555 1_555
C9 C10 1_555 1_555

#END
