
#######################################################################
#
#                 Cambridge Crystallographic Data Centre
#                                CCDC 
#
#######################################################################
#
# If this CIF has been generated from an entry in the Cambridge 
# Structural Database, then it will include bibliographic, chemical, 
# crystal, experimental, refinement or atomic coordinate data resulting 
# from the CCDC's data processing and validation procedures.
#
#######################################################################

data_YOLPOG
_chemical_formula_moiety         'C30 H40 O13'
_chemical_name_systematic        
(2R,3R,4S,5R,7S,8R,13R,15R)-3,5,7,8,15-Penta-acetoxy-2-hydroxy-9,14-dioxojatropha-6(17),11E-diene
_symmetry_cell_setting           orthorhombic
_symmetry_space_group_name_H-M   'P 21 21 21'
_symmetry_Int_Tables_number      19
_space_group_name_Hall           'P 2ac 2ab'
loop_
_symmetry_equiv_pos_site_id
_symmetry_equiv_pos_as_xyz
1 x,y,z
2 1/2+x,1/2-y,-z
3 -x,1/2+y,1/2-z
4 1/2-x,-y,1/2+z
_cell_length_a                   12.868(2)
_cell_length_b                   14.089(3)
_cell_length_c                   17.366(3)
_cell_angle_alpha                90
_cell_angle_beta                 90
_cell_angle_gamma                90
_cell_volume                     3148.41
_exptl_crystal_colour            colorless
_exptl_crystal_description       tabular
_cell_formula_units_Z            4
loop_
_atom_site_label
_atom_site_type_symbol
_atom_site_fract_x
_atom_site_fract_y
_atom_site_fract_z
O1 O 0.9644(5) 0.8332(4) 0.4338(3)
H1 H 1.0258 0.8448 0.4472
O2 O 0.8048(5) 0.6259(4) 0.4127(3)
O3 O 0.7021(7) 0.6674(6) 0.5117(4)
O4 O 0.7444(5) 0.6048(4) 0.2676(3)
O5 O 0.7082(6) 0.5984(5) 0.1413(4)
O6 O 0.5594(5) 0.9061(4) 0.2920(4)
O7 O 0.6983(7) 0.9509(5) 0.3620(4)
O8 O 0.4821(5) 0.8111(4) 0.1696(4)
O9 O 0.4886(6) 0.7796(6) 0.0424(4)
O10 O 0.5161(5) 0.9846(5) 0.1141(5)
O11 O 1.0440(6) 0.8716(5) 0.2785(4)
O12 O 0.9412(5) 0.6514(4) 0.2257(3)
O13 O 1.1130(6) 0.6736(5) 0.1996(4)
C1 C 1.0129(7) 0.6984(6) 0.3526(5)
H2 H 1.0823 0.7286 0.3516
H3 H 1.0221 0.6287 0.3536
C2 C 0.9514(8) 0.7316(6) 0.4237(5)
C3 C 0.8383(7) 0.7233(6) 0.4000(5)
H4 H 0.7941 0.7688 0.4296
C4 C 0.8344(6) 0.7455(6) 0.3121(5)
H5 H 0.8258 0.8160 0.3097
C5 C 0.7479(7) 0.7080(6) 0.2630(5)
H6 H 0.7637 0.7254 0.2084
C6 C 0.6432(7) 0.7489(6) 0.2824(5)
C7 C 0.6297(7) 0.8469(6) 0.2481(5)
H7 H 0.6992 0.8786 0.2463
C8 C 0.5859(7) 0.8432(7) 0.1673(5)
H8 H 0.6278 0.7970 0.1365
C9 C 0.5943(8) 0.9422(7) 0.1289(5)
C10 C 0.7017(6) 0.9853(7) 0.1133(6)
C11 C 0.7877(7) 0.9121(7) 0.1191(5)
H9 H 0.7808 0.8579 0.0868
C12 C 0.8718(8) 0.9142(7) 0.1637(5)
H10 H 0.8767 0.9640 0.2004
C13 C 0.9604(7) 0.8434(6) 0.1605(5)
H11 H 0.9356 0.7850 0.1335
C14 C 0.9915(8) 0.8167(7) 0.2419(6)
C15 C 0.9495(7) 0.7281(6) 0.2821(5)
C16 C 0.9817(8) 0.6804(8) 0.4975(5)
H12 H 1.0559 0.6903 0.5076
H13 H 0.9679 0.6124 0.4919
H14 H 0.9410 0.7057 0.5405
C17 C 0.5691(8) 0.7056(7) 0.3210(5)
H15 H 0.5795 0.6427 0.3392
H16 H 0.5051 0.7372 0.3306
C18 C 0.7142(8) 1.0674(7) 0.1722(7)
H17 H 0.7214 1.0410 0.2241
H18 H 0.6528 1.1085 0.1702
H19 H 0.7762 1.1045 0.1595
C19 C 0.7018(10) 1.0231(9) 0.0308(6)
H20 H 0.7645 1.0611 0.0223
H21 H 0.6402 1.0627 0.0227
H22 H 0.7007 0.9697 -0.0053
C20 C 1.0528(7) 0.8839(7) 0.1160(6)
H23 H 1.0301 0.9029 0.0644
H24 H 1.1071 0.8354 0.1117
H25 H 1.0804 0.9392 0.1433
C21 C 1.0311(10) 0.6327(7) 0.1875(6)
C22 C 1.0156(9) 0.5597(7) 0.1257(6)
H26 H 1.0069 0.5915 0.0759
H27 H 0.9534 0.5221 0.1371
H28 H 1.0764 0.5178 0.1235
C23 C 0.7373(9) 0.6088(9) 0.4707(6)
C24 C 0.7096(8) 0.5049(7) 0.4730(6)
H29 H 0.7701 0.4681 0.4898
H30 H 0.6885 0.4840 0.4215
H31 H 0.6521 0.4950 0.5091
C25 C 0.7222(8) 0.5606(7) 0.2023(6)
C26 C 0.7173(9) 0.4537(6) 0.2168(6)
H32 H 0.6496 0.4373 0.2388
H33 H 0.7725 0.4355 0.2528
H34 H 0.7268 0.4198 0.1680
C27 C 0.4399(9) 0.7817(7) 0.1016(8)
C28 C 0.3287(8) 0.7545(8) 0.1108(8)
H35 H 0.3068 0.7163 0.0665
H36 H 0.2858 0.8118 0.1139
H37 H 0.3203 0.7173 0.1581
C29 C 0.6069(9) 0.9589(8) 0.3484(6)
C30 C 0.5313(8) 1.0259(7) 0.3864(6)
H38 H 0.5631 1.0530 0.4327
H39 H 0.4681 0.9912 0.4007
H40 H 0.5134 1.0771 0.3506
loop_
_geom_bond_atom_site_label_1
_geom_bond_atom_site_label_2
_geom_bond_site_symmetry_1
_geom_bond_site_symmetry_2
O1 H1 1_555 1_555
O2 C3 1_555 1_555
O3 C23 1_555 1_555
O4 C5 1_555 1_555
O5 C25 1_555 1_555
O6 C7 1_555 1_555
O7 C29 1_555 1_555
O8 C8 1_555 1_555
O9 C27 1_555 1_555
O10 C9 1_555 1_555
O11 C14 1_555 1_555
O12 C15 1_555 1_555
O13 C21 1_555 1_555
C1 H2 1_555 1_555
H3 C1 1_555 1_555
C2 O1 1_555 1_555
C3 C2 1_555 1_555
H4 C3 1_555 1_555
C4 C3 1_555 1_555
H5 C4 1_555 1_555
C5 C4 1_555 1_555
H6 C5 1_555 1_555
C6 C5 1_555 1_555
C7 C6 1_555 1_555
H7 C7 1_555 1_555
C8 C7 1_555 1_555
H8 C8 1_555 1_555
C9 C8 1_555 1_555
C10 C9 1_555 1_555
C11 C10 1_555 1_555
H9 C11 1_555 1_555
C12 C11 1_555 1_555
H10 C12 1_555 1_555
C13 C12 1_555 1_555
H11 C13 1_555 1_555
C14 C13 1_555 1_555
C15 C1 1_555 1_555
C16 C2 1_555 1_555
H12 C16 1_555 1_555
H13 C16 1_555 1_555
H14 C16 1_555 1_555
C17 C6 1_555 1_555
H15 C17 1_555 1_555
H16 C17 1_555 1_555
C18 C10 1_555 1_555
H17 C18 1_555 1_555
H18 C18 1_555 1_555
H19 C18 1_555 1_555
C19 C10 1_555 1_555
H20 C19 1_555 1_555
H21 C19 1_555 1_555
H22 C19 1_555 1_555
C20 C13 1_555 1_555
H23 C20 1_555 1_555
H24 C20 1_555 1_555
H25 C20 1_555 1_555
C21 O12 1_555 1_555
C22 C21 1_555 1_555
H26 C22 1_555 1_555
H27 C22 1_555 1_555
H28 C22 1_555 1_555
C23 O2 1_555 1_555
C24 C23 1_555 1_555
H29 C24 1_555 1_555
H30 C24 1_555 1_555
H31 C24 1_555 1_555
C25 O4 1_555 1_555
C26 C25 1_555 1_555
H32 C26 1_555 1_555
H33 C26 1_555 1_555
H34 C26 1_555 1_555
C27 O8 1_555 1_555
C28 C27 1_555 1_555
H35 C28 1_555 1_555
H36 C28 1_555 1_555
H37 C28 1_555 1_555
C29 O6 1_555 1_555
C30 C29 1_555 1_555
H38 C30 1_555 1_555
H39 C30 1_555 1_555
H40 C30 1_555 1_555
C1 C2 1_555 1_555
C4 C15 1_555 1_555
C14 C15 1_555 1_555

#END
