
#######################################################################
#
#                 Cambridge Crystallographic Data Centre
#                                CCDC 
#
#######################################################################
#
# If this CIF has been generated from an entry in the Cambridge 
# Structural Database, then it will include bibliographic, chemical, 
# crystal, experimental, refinement or atomic coordinate data resulting 
# from the CCDC's data processing and validation procedures.
#
#######################################################################

data_YOLPAS
_chemical_compound_source        
'Paraconiothyrium hawaiiense, a fungus entomogenous to the Septobasidium-infected insect Diaspidiotus sp'
_chemical_name_common            'Hawaiinolide C monohydrate'
_chemical_formula_moiety         'C20 H28 O4,H2 O1'
_chemical_name_systematic        
'3,5-dihydroxy-13-methylene-14-vinyl-6,15-epoxypodocarpan-15-one monohydrate'
_chemical_properties_biological  'cytotoxic activity'
_symmetry_cell_setting           orthorhombic
_symmetry_space_group_name_H-M   'P 21 21 21'
_symmetry_Int_Tables_number      19
_space_group_name_Hall           'P 2ac 2ab'
loop_
_symmetry_equiv_pos_site_id
_symmetry_equiv_pos_as_xyz
1 x,y,z
2 1/2-x,-y,1/2+z
3 1/2+x,1/2-y,-z
4 -x,1/2+y,1/2-z
_cell_length_a                   7.2054(3)
_cell_length_b                   8.0628(3)
_cell_length_c                   31.8423(11)
_cell_angle_alpha                90
_cell_angle_beta                 90
_cell_angle_gamma                90
_cell_volume                     1849.9
_cell_formula_units_Z            4
loop_
_atom_site_label
_atom_site_type_symbol
_atom_site_fract_x
_atom_site_fract_y
_atom_site_fract_z
H1 H -0.3933 0.2535 0.2253
H2 H -0.3180 0.2983 0.1608
H3 H 0.2618 0.3495 0.2031
H4 H -0.1855 0.0334 0.1530
H5 H -0.0169 0.0853 0.1810
H6 H 0.1193 0.1222 0.1194
H7 H -0.0690 0.1516 0.0960
H8 H 0.1891 0.6237 0.1972
H9 H 0.3818 0.6689 0.1461
H10 H 0.2283 0.7979 0.1346
H11 H 0.1330 0.6539 0.0782
H12 H 0.3261 0.3700 0.1083
H13 H 0.2085 0.2240 0.0503
H14 H 0.1126 0.3858 0.0335
H15 H 0.5031 0.3414 0.0399
H16 H 0.3934 0.3475 -0.0027
H17 H 0.5260 0.6230 0.0826
H18 H 0.4442 0.5984 -0.0369
H19 H 0.4590 0.7710 -0.0117
H20 H 0.3313 0.9000 0.0495
H21 H 0.6527 0.8910 0.0958
H22 H 0.5514 1.0544 0.0778
H23 H 0.0080 0.2996 0.2469
H24 H -0.1574 0.4202 0.2565
H25 H 0.0398 0.4920 0.2464
H26 H -0.2388 0.4220 0.1138
H27 H -0.1364 0.4283 0.0704
H28 H -0.1154 0.5754 0.1022
C1 C -0.1823(2) 0.5778(2) 0.18500(5)
C2 C -0.0959(2) 0.4091(2) 0.19300(5)
C3 C -0.2237(2) 0.2605(2) 0.18083(5)
C4 C -0.1055(2) 0.1255(2) 0.16048(5)
C5 C 0.0024(2) 0.1817(2) 0.12066(5)
C6 C 0.0426(2) 0.3709(2) 0.11937(5)
C7 C 0.0824(2) 0.4223(2) 0.16572(5)
C8 C 0.1291(2) 0.6071(2) 0.16988(5)
C9 C 0.2546(2) 0.6802(2) 0.13653(5)
C10 C 0.2423(2) 0.6066(2) 0.09200(5)
C11 C 0.2185(2) 0.4159(2) 0.09344(5)
C12 C 0.2189(2) 0.3438(2) 0.04887(5)
C13 C 0.3977(2) 0.3910(2) 0.02571(5)
C14 C 0.4224(2) 0.5761(2) 0.02414(5)
C15 C 0.4168(2) 0.6602(2) 0.06680(5)
C16 C 0.4440(3) 0.6564(3) -0.01170(6)
C17 C 0.4256(3) 0.8465(2) 0.06416(5)
C18 C 0.5560(3) 0.9398(3) 0.08088(7)
C19 C -0.0468(2) 0.4048(2) 0.24014(5)
C20 C -0.1282(2) 0.4574(2) 0.09955(5)
O1 O -0.34247(16) 0.61761(15) 0.19019(4)
O2 O -0.05480(16) 0.68761(14) 0.17150(3)
O3 O -0.31318(17) 0.18974(14) 0.21674(4)
O4 O 0.23211(15) 0.32281(15) 0.17922(3)
H29 H 0.3910 0.3041 0.2791
H30 H 0.3888 0.4857 0.2671
O5 O 0.42118(16) 0.37828(14) 0.25664(3)
loop_
_geom_bond_atom_site_label_1
_geom_bond_atom_site_label_2
_geom_bond_site_symmetry_1
_geom_bond_site_symmetry_2
H1 O3 1_555 1_555
H2 C3 1_555 1_555
H3 O4 1_555 1_555
H4 C4 1_555 1_555
H5 C4 1_555 1_555
H6 C5 1_555 1_555
H7 C5 1_555 1_555
H8 C8 1_555 1_555
H9 C9 1_555 1_555
H10 C9 1_555 1_555
H11 C10 1_555 1_555
H12 C11 1_555 1_555
H13 C12 1_555 1_555
H14 C12 1_555 1_555
H15 C13 1_555 1_555
H16 C13 1_555 1_555
H17 C15 1_555 1_555
H18 C16 1_555 1_555
H19 C16 1_555 1_555
H20 C17 1_555 1_555
H21 C18 1_555 1_555
H22 C18 1_555 1_555
H23 C19 1_555 1_555
H24 C19 1_555 1_555
H25 C19 1_555 1_555
H26 C20 1_555 1_555
H27 C20 1_555 1_555
H28 C20 1_555 1_555
C1 C2 1_555 1_555
C2 C3 1_555 1_555
C3 C4 1_555 1_555
C4 C5 1_555 1_555
C5 C6 1_555 1_555
C6 C7 1_555 1_555
C7 C2 1_555 1_555
C8 C7 1_555 1_555
C9 C8 1_555 1_555
C10 C9 1_555 1_555
C11 C6 1_555 1_555
C12 C11 1_555 1_555
C13 C12 1_555 1_555
C14 C13 1_555 1_555
C15 C10 1_555 1_555
C16 C14 1_555 1_555
C17 C15 1_555 1_555
C18 C17 1_555 1_555
C19 C2 1_555 1_555
C20 C6 1_555 1_555
O1 C1 1_555 1_555
O2 C1 1_555 1_555
O3 C3 1_555 1_555
O4 C7 1_555 1_555
H29 O5 1_555 1_555
H30 O5 1_555 1_555
C8 O2 1_555 1_555
C10 C11 1_555 1_555
C14 C15 1_555 1_555

#END
