
#######################################################################
#
#                 Cambridge Crystallographic Data Centre
#                                CCDC 
#
#######################################################################
#
# If this CIF has been generated from an entry in the Cambridge 
# Structural Database, then it will include bibliographic, chemical, 
# crystal, experimental, refinement or atomic coordinate data resulting 
# from the CCDC's data processing and validation procedures.
#
#######################################################################

data_YOLTID
_chemical_formula_moiety         'C32 H64 Ca1 N4 O1 Si3'
_chemical_name_systematic        
(\h^5^-1-(1,3-Diisopropyl-4,5-dimethylimidazolin-2-ylimino(dimethyl)silyl)-2,3,4,5-tetramethylcyclopentadienyl)-(bis(trimethylsilyl)amido)-(tetrahydrofuran)-calcium
_symmetry_cell_setting           monoclinic
_symmetry_space_group_name_H-M   'C c'
_symmetry_Int_Tables_number      9
_space_group_name_Hall           'C -2yc'
loop_
_symmetry_equiv_pos_site_id
_symmetry_equiv_pos_as_xyz
1 x,y,z
2 x,-y,1/2+z
3 1/2+x,1/2+y,z
4 1/2+x,1/2-y,1/2+z
_cell_length_a                   13.4917(6)
_cell_length_b                   17.2912(8)
_cell_length_c                   16.7587(8)
_cell_angle_alpha                90
_cell_angle_beta                 96.642(4)
_cell_angle_gamma                90
_cell_volume                     3883.36
_exptl_crystal_colour            colorless
_exptl_crystal_description       prism
_cell_formula_units_Z            4
_exptl_crystal_recrystallization_method tetrahydrofuran/pentane
loop_
_atom_site_label
_atom_site_type_symbol
_atom_site_fract_x
_atom_site_fract_y
_atom_site_fract_z
Ca1 Ca 0.30542(3) 0.19737(2) 0.62389(3)
Si1 Si 0.38917(7) 0.12306(4) 0.46814(6)
Si2 Si 0.34806(5) 0.37410(4) 0.72279(4)
Si3 Si 0.13562(5) 0.32461(4) 0.69250(4)
N1 N 0.42506(14) 0.20441(10) 0.52454(12)
N2 N 0.46250(14) 0.32667(10) 0.46718(12)
N3 N 0.58814(14) 0.26280(11) 0.52876(12)
N4 N 0.25784(15) 0.31343(11) 0.68202(12)
C1 C 0.48780(16) 0.25954(12) 0.50705(13)
C2 C 0.5479(2) 0.37269(13) 0.46577(15)
C3 C 0.62525(19) 0.33332(15) 0.50389(17)
C4 C 0.35948(19) 0.34454(15) 0.43414(15)
H1 H 0.3197 0.2965 0.4397
C5 C 0.3130(2) 0.40709(17) 0.48141(18)
H2 H 0.3505 0.4554 0.4784
H3 H 0.3151 0.3911 0.5377
H4 H 0.2436 0.4152 0.4587
C6 C 0.3503(3) 0.3632(2) 0.34448(18)
H5 H 0.3867 0.3244 0.3168
H6 H 0.3786 0.4145 0.3367
H7 H 0.2798 0.3628 0.3225
C7 C 0.5493(3) 0.45089(16) 0.4270(2)
H8 H 0.6124 0.4770 0.4453
H9 H 0.4935 0.4819 0.4419
H10 H 0.5431 0.4449 0.3685
C8 C 0.7315(2) 0.3575(2) 0.5190(3)
H11 H 0.7400 0.4077 0.4936
H12 H 0.7736 0.3189 0.4965
H13 H 0.7510 0.3618 0.5770
C9 C 0.6447(2) 0.19854(17) 0.56972(17)
H14 H 0.5946 0.1584 0.5809
C10 C 0.7138(2) 0.1606(2) 0.5148(2)
H15 H 0.7697 0.1953 0.5083
H16 H 0.6765 0.1502 0.4622
H17 H 0.7395 0.1118 0.5388
C11 C 0.7005(2) 0.2206(3) 0.6500(2)
H18 H 0.6567 0.2509 0.6807
H19 H 0.7593 0.2515 0.6413
H20 H 0.7218 0.1736 0.6800
C12 C 0.4918(3) 0.0494(2) 0.4695(4)
H21 H 0.5387 0.0652 0.4320
H22 H 0.4631 -0.0011 0.4532
H23 H 0.5271 0.0457 0.5238
C13 C 0.3578(4) 0.1471(3) 0.3585(2)
H24 H 0.3028 0.1844 0.3522
H25 H 0.3379 0.0998 0.3286
H26 H 0.4165 0.1695 0.3378
C14 C 0.2815(2) 0.08782(13) 0.51723(17)
C15 C 0.28954(19) 0.04605(13) 0.5916(2)
C16 C 0.20031(19) 0.05455(15) 0.62570(17)
C17 C 0.13521(18) 0.10096(14) 0.57314(16)
C18 C 0.18502(19) 0.12180(14) 0.50788(15)
C19 C 0.3777(2) -0.00068(18) 0.6273(3)
H27 H 0.3647 -0.0208 0.6798
H28 H 0.4372 0.0322 0.6339
H29 H 0.3885 -0.0439 0.5915
C20 C 0.1700(3) 0.0140(2) 0.6990(2)
H30 H 0.2298 -0.0047 0.7322
H31 H 0.1267 -0.0299 0.6821
H32 H 0.1341 0.0502 0.7301
C21 C 0.0251(2) 0.1124(2) 0.5799(2)
H33 H -0.0031 0.1486 0.5382
H34 H 0.0167 0.1335 0.6330
H35 H -0.0096 0.0627 0.5728
C22 C 0.1399(3) 0.16731(18) 0.43578(18)
H36 H 0.0701 0.1792 0.4416
H37 H 0.1432 0.1367 0.3870
H38 H 0.1771 0.2156 0.4320
C23 C 0.3336(3) 0.47874(16) 0.69204(19)
H39 H 0.2782 0.5017 0.7167
H40 H 0.3199 0.4822 0.6334
H41 H 0.3953 0.5068 0.7100
C24 C 0.4721(2) 0.3439(2) 0.6934(2)
H42 H 0.4767 0.3590 0.6376
H43 H 0.4791 0.2876 0.6986
H44 H 0.5255 0.3691 0.7287
C25 C 0.3627(2) 0.37706(16) 0.83574(16)
H45 H 0.3673 0.3242 0.8569
H46 H 0.3049 0.4030 0.8541
H47 H 0.4236 0.4055 0.8551
C26 C 0.1002(2) 0.41740(18) 0.74127(19)
H48 H 0.1138 0.4613 0.7073
H49 H 0.1393 0.4227 0.7940
H50 H 0.0290 0.4163 0.7479
C27 C 0.0905(2) 0.24525(19) 0.7555(2)
H51 H 0.1171 0.2532 0.8118
H52 H 0.1135 0.1953 0.7370
H53 H 0.0174 0.2458 0.7505
C28 C 0.0584(2) 0.32271(19) 0.59151(18)
H54 H 0.0737 0.2758 0.5626
H55 H 0.0739 0.3683 0.5605
H56 H -0.0126 0.3231 0.5989
O1 O 0.39898(14) 0.15594(12) 0.74632(11)
C29 C 0.4887(5) 0.1132(4) 0.7659(3)
H57 H 0.5352 0.1203 0.7249
H58 H 0.4752 0.0574 0.7720
C30 C 0.5288(6) 0.1501(5) 0.8456(5)
H59 H 0.5654 0.1984 0.8370
H60 H 0.5740 0.1142 0.8783
C31 C 0.4354(8) 0.1665(6) 0.8861(6)
H61 H 0.4283 0.1287 0.9293
H62 H 0.4376 0.2193 0.9092
C32 C 0.3504(8) 0.1588(11) 0.8187(6)
H63 H 0.3117 0.1110 0.8250
H64 H 0.3049 0.2038 0.8178
C33? C 0.5131(5) 0.1575(7) 0.7703(5)
H65? H 0.5488 0.1300 0.7304
H66? H 0.5384 0.2112 0.7762
C34? C 0.5239(10) 0.1164(8) 0.8488(7)
H67? H 0.5867 0.1311 0.8818
H68? H 0.5226 0.0597 0.8412
C35? C 0.4334(12) 0.1439(9) 0.8871(8)
H69? H 0.4175 0.1082 0.9300
H70? H 0.4437 0.1966 0.9096
C36? C 0.3546(11) 0.1431(14) 0.8186(8)
H71? H 0.3198 0.0926 0.8159
H72? H 0.3050 0.1841 0.8254
loop_
_geom_bond_atom_site_label_1
_geom_bond_atom_site_label_2
_geom_bond_site_symmetry_1
_geom_bond_site_symmetry_2
Ca1 N1 1_555 1_555
Si1 N1 1_555 1_555
Si2 N4 1_555 1_555
Si3 N4 1_555 1_555
N1 C1 1_555 1_555
N2 C1 1_555 1_555
N3 C1 1_555 1_555
N4 Ca1 1_555 1_555
C2 N2 1_555 1_555
C3 N3 1_555 1_555
C4 N2 1_555 1_555
H1 C4 1_555 1_555
C5 C4 1_555 1_555
H2 C5 1_555 1_555
H3 C5 1_555 1_555
H4 C5 1_555 1_555
C6 C4 1_555 1_555
H5 C6 1_555 1_555
H6 C6 1_555 1_555
H7 C6 1_555 1_555
C7 C2 1_555 1_555
H8 C7 1_555 1_555
H9 C7 1_555 1_555
H10 C7 1_555 1_555
C8 C3 1_555 1_555
H11 C8 1_555 1_555
H12 C8 1_555 1_555
H13 C8 1_555 1_555
C9 N3 1_555 1_555
H14 C9 1_555 1_555
C10 C9 1_555 1_555
H15 C10 1_555 1_555
H16 C10 1_555 1_555
H17 C10 1_555 1_555
C11 C9 1_555 1_555
H18 C11 1_555 1_555
H19 C11 1_555 1_555
H20 C11 1_555 1_555
C12 Si1 1_555 1_555
H21 C12 1_555 1_555
H22 C12 1_555 1_555
H23 C12 1_555 1_555
C13 Si1 1_555 1_555
H24 C13 1_555 1_555
H25 C13 1_555 1_555
H26 C13 1_555 1_555
C14 Ca1 1_555 1_555
C15 Ca1 1_555 1_555
C16 Ca1 1_555 1_555
C17 Ca1 1_555 1_555
C18 Ca1 1_555 1_555
C19 C15 1_555 1_555
H27 C19 1_555 1_555
H28 C19 1_555 1_555
H29 C19 1_555 1_555
C20 C16 1_555 1_555
H30 C20 1_555 1_555
H31 C20 1_555 1_555
H32 C20 1_555 1_555
C21 C17 1_555 1_555
H33 C21 1_555 1_555
H34 C21 1_555 1_555
H35 C21 1_555 1_555
C22 C18 1_555 1_555
H36 C22 1_555 1_555
H37 C22 1_555 1_555
H38 C22 1_555 1_555
C23 Si2 1_555 1_555
H39 C23 1_555 1_555
H40 C23 1_555 1_555
H41 C23 1_555 1_555
C24 Si2 1_555 1_555
H42 C24 1_555 1_555
H43 C24 1_555 1_555
H44 C24 1_555 1_555
C25 Si2 1_555 1_555
H45 C25 1_555 1_555
H46 C25 1_555 1_555
H47 C25 1_555 1_555
C26 Si3 1_555 1_555
H48 C26 1_555 1_555
H49 C26 1_555 1_555
H50 C26 1_555 1_555
C27 Si3 1_555 1_555
H51 C27 1_555 1_555
H52 C27 1_555 1_555
H53 C27 1_555 1_555
C28 Si3 1_555 1_555
H54 C28 1_555 1_555
H55 C28 1_555 1_555
H56 C28 1_555 1_555
O1 Ca1 1_555 1_555
C29 O1 1_555 1_555
H57 C29 1_555 1_555
H58 C29 1_555 1_555
C30 C29 1_555 1_555
H59 C30 1_555 1_555
H60 C30 1_555 1_555
C31 C30 1_555 1_555
H61 C31 1_555 1_555
H62 C31 1_555 1_555
C32 O1 1_555 1_555
H63 C32 1_555 1_555
H64 C32 1_555 1_555
Si1 C14 1_555 1_555
C2 C3 1_555 1_555
C14 C15 1_555 1_555
C14 C18 1_555 1_555
C15 C16 1_555 1_555
C16 C17 1_555 1_555
C17 C18 1_555 1_555
C31 C32 1_555 1_555

#END
