
#######################################################################
#
#                 Cambridge Crystallographic Data Centre
#                                CCDC 
#
#######################################################################
#
# If this CIF has been generated from an entry in the Cambridge 
# Structural Database, then it will include bibliographic, chemical, 
# crystal, experimental, refinement or atomic coordinate data resulting 
# from the CCDC's data processing and validation procedures.
#
#######################################################################

data_YOLXUU
_chemical_formula_moiety         'C27 H30 B1 O2 P1'
_chemical_name_systematic        
diphenyl(2-(2-(4,4,5,5-tetramethyl-1,3,2-dioxaborolan-2-yl)phenyl)prop-1-en-1-yl)phosphine
_symmetry_cell_setting           monoclinic
_symmetry_space_group_name_H-M   'P 21/c'
_symmetry_Int_Tables_number      14
_space_group_name_Hall           '-P 2ybc'
loop_
_symmetry_equiv_pos_site_id
_symmetry_equiv_pos_as_xyz
1 x,y,z
2 -x,1/2+y,1/2-z
3 -x,-y,-z
4 x,1/2-y,1/2+z
_cell_length_a                   6.9068(5)
_cell_length_b                   34.826(2)
_cell_length_c                   20.4959(11)
_cell_angle_alpha                90
_cell_angle_beta                 96.227(6)
_cell_angle_gamma                90
_cell_volume                     4900.92
_exptl_crystal_colour            colorless
_exptl_crystal_description       block
_cell_formula_units_Z            8
loop_
_atom_site_label
_atom_site_type_symbol
_atom_site_fract_x
_atom_site_fract_y
_atom_site_fract_z
P1 P 0.0926(3) 0.42350(6) 0.68806(9)
O1 O 0.5189(7) 0.45738(14) 0.9186(2)
O2 O 0.5941(7) 0.44430(14) 0.8155(2)
C1 C 0.3011(9) 0.37609(18) 0.8076(3)
C2 C 0.1569(10) 0.3481(2) 0.8086(3)
H1 H 0.1202 0.3339 0.7708
C3 C 0.0668(10) 0.3409(2) 0.8649(3)
H2 H -0.0322 0.3227 0.8643
C4 C 0.1253(10) 0.3607(2) 0.9212(3)
H3 H 0.0718 0.3547 0.9597
C5 C 0.2639(9) 0.3896(2) 0.9213(3)
H4 H 0.2976 0.4037 0.9594
C6 C 0.3546(9) 0.3979(2) 0.8643(3)
C7 C 0.4011(9) 0.37989(19) 0.7467(3)
C8 C 0.3203(10) 0.3969(2) 0.6929(3)
H5 H 0.3836 0.3951 0.6553
C9 C 0.5979(10) 0.3613(2) 0.7503(3)
H6 H 0.6872 0.3750 0.7812
H7 H 0.6441 0.3620 0.7078
H8 H 0.5885 0.3352 0.7643
C10 C -0.0581(10) 0.3973(2) 0.6244(3)
C11 C -0.0243(12) 0.3584(2) 0.6128(4)
H9 H 0.0860 0.3467 0.6340
C12 C -0.1531(12) 0.3369(3) 0.5699(4)
H10 H -0.1304 0.3109 0.5640
C13 C -0.3130(14) 0.3541(3) 0.5365(4)
H11 H -0.3952 0.3403 0.5062
C14 C -0.3506(13) 0.3924(3) 0.5483(4)
H12 H -0.4609 0.4039 0.5266
C15 C -0.2271(10) 0.4140(3) 0.5921(3)
H13 H -0.2564 0.4396 0.6000
C16 C 0.1668(10) 0.4656(2) 0.6414(3)
C17 C 0.1939(13) 0.4659(3) 0.5767(4)
H14 H 0.1710 0.4437 0.5518
C18 C 0.2550(17) 0.4989(4) 0.5475(5)
H15 H 0.2645 0.4987 0.5026
C19 C 0.3012(15) 0.5311(3) 0.5815(5)
H16 H 0.3484 0.5526 0.5614
C20 C 0.2762(14) 0.5312(3) 0.6471(6)
H17 H 0.3072 0.5532 0.6719
C21 C 0.2051(13) 0.4989(2) 0.6771(5)
H18 H 0.1835 0.4999 0.7211
C22 C 0.7285(10) 0.4752(2) 0.8409(3)
C23 C 0.6252(11) 0.4914(2) 0.8990(4)
C24 C 0.9239(11) 0.4562(3) 0.8638(4)
H19 H 0.9084 0.4392 0.8998
H20 H 1.0181 0.4756 0.8777
H21 H 0.9678 0.4418 0.8282
C25 C 0.7473(11) 0.5026(2) 0.7850(4)
H22 H 0.8056 0.4896 0.7508
H23 H 0.8277 0.5239 0.8005
H24 H 0.6206 0.5118 0.7682
C26 C 0.4704(12) 0.5214(2) 0.8750(4)
H25 H 0.3972 0.5124 0.8355
H26 H 0.5330 0.5452 0.8666
H27 H 0.3841 0.5252 0.9082
C27 C 0.7570(11) 0.5051(2) 0.9554(4)
H28 H 0.6819 0.5131 0.9898
H29 H 0.8315 0.5265 0.9421
H30 H 0.8436 0.4848 0.9711
B1 B 0.4919(10) 0.4333(2) 0.8667(3)
loop_
_geom_bond_atom_site_label_1
_geom_bond_atom_site_label_2
_geom_bond_site_symmetry_1
_geom_bond_site_symmetry_2
P1 C8 1_555 1_555
O1 C23 1_555 1_555
O2 C22 1_555 1_555
C1 C2 1_555 1_555
C2 H1 1_555 1_555
C3 C2 1_555 1_555
H2 C3 1_555 1_555
C4 C3 1_555 1_555
H3 C4 1_555 1_555
C5 C4 1_555 1_555
H4 C5 1_555 1_555
C6 C1 1_555 1_555
C7 C1 1_555 1_555
C8 C7 1_555 1_555
H5 C8 1_555 1_555
C9 C7 1_555 1_555
H6 C9 1_555 1_555
H7 C9 1_555 1_555
H8 C9 1_555 1_555
C10 P1 1_555 1_555
C11 C10 1_555 1_555
H9 C11 1_555 1_555
C12 C11 1_555 1_555
H10 C12 1_555 1_555
C13 C12 1_555 1_555
H11 C13 1_555 1_555
C14 C13 1_555 1_555
H12 C14 1_555 1_555
C15 C10 1_555 1_555
H13 C15 1_555 1_555
C16 P1 1_555 1_555
C17 C16 1_555 1_555
H14 C17 1_555 1_555
C18 C17 1_555 1_555
H15 C18 1_555 1_555
C19 C18 1_555 1_555
H16 C19 1_555 1_555
C20 C19 1_555 1_555
H17 C20 1_555 1_555
C21 C16 1_555 1_555
H18 C21 1_555 1_555
C22 C23 1_555 1_555
C23 C26 1_555 1_555
C24 C22 1_555 1_555
H19 C24 1_555 1_555
H20 C24 1_555 1_555
H21 C24 1_555 1_555
C25 C22 1_555 1_555
H22 C25 1_555 1_555
H23 C25 1_555 1_555
H24 C25 1_555 1_555
C26 H25 1_555 1_555
H26 C26 1_555 1_555
H27 C26 1_555 1_555
C27 C23 1_555 1_555
H28 C27 1_555 1_555
H29 C27 1_555 1_555
H30 C27 1_555 1_555
B1 O1 1_555 1_555
O2 B1 1_555 1_555
C5 C6 1_555 1_555
C6 B1 1_555 1_555
C14 C15 1_555 1_555
C20 C21 1_555 1_555

#END
