
#######################################################################
#
#                 Cambridge Crystallographic Data Centre
#                                CCDC 
#
#######################################################################
#
# If this CIF has been generated from an entry in the Cambridge 
# Structural Database, then it will include bibliographic, chemical, 
# crystal, experimental, refinement or atomic coordinate data resulting 
# from the CCDC's data processing and validation procedures.
#
#######################################################################

data_YOMMET
_chemical_name_common            'cdelta$6!-Cortisone acetate'
_chemical_formula_moiety         'C23 H28 O6'
_chemical_name_systematic        
21-Acetoxy-17a-hydroxy-pregn-4,6-diene-3,11,20-trione
_symmetry_cell_setting           orthorhombic
_symmetry_space_group_name_H-M   'P 21 21 21'
_symmetry_Int_Tables_number      19
_space_group_name_Hall           'P 2ac 2ab'
loop_
_symmetry_equiv_pos_site_id
_symmetry_equiv_pos_as_xyz
1 x,y,z
2 1/2-x,-y,1/2+z
3 -x,1/2+y,1/2-z
4 1/2+x,1/2-y,-z
_cell_length_a                   6.8970(15)
_cell_length_b                   10.925(3)
_cell_length_c                   26.974(8)
_cell_angle_alpha                90
_cell_angle_beta                 90
_cell_angle_gamma                90
_cell_volume                     2032.48
_exptl_crystal_colour            colorless
_exptl_crystal_description       prism
_chemical_melting_point          226-227deg.C
_cell_formula_units_Z            4
loop_
_atom_site_label
_atom_site_type_symbol
_atom_site_fract_x
_atom_site_fract_y
_atom_site_fract_z
C1 C 0.5088(2) 0.10952(12) 0.38879(5)
H1 H 0.3818 0.1134 0.3718
H2 H 0.5751 0.0338 0.3778
C2 C 0.4754(3) 0.10302(14) 0.44470(6)
H3 H 0.3897 0.1713 0.4548
H4 H 0.4085 0.0254 0.4528
C3 C 0.6614(3) 0.11010(13) 0.47369(6)
O1 O 0.6745(2) 0.06808(11) 0.51570(4)
C4 C 0.8227(2) 0.17418(13) 0.45062(6)
H5 H 0.9412 0.1796 0.4685
C5 C 0.8137(2) 0.22658(12) 0.40511(6)
C6 C 0.9773(2) 0.29528(13) 0.38558(6)
H6 H 1.0855 0.3094 0.4066
C7 C 0.9827(2) 0.33934(12) 0.33955(6)
H7 H 1.0912 0.3874 0.3300
C8 C 0.8266(2) 0.31699(11) 0.30224(5)
H8 H 0.7426 0.3915 0.3006
C9 C 0.6991(2) 0.20685(10) 0.31909(5)
H9 H 0.7863 0.1337 0.3186
C10 C 0.6310(2) 0.22067(11) 0.37332(5)
C11 C 0.5441(2) 0.18248(10) 0.27998(5)
C12 C 0.6239(2) 0.15497(11) 0.22852(5)
H10 H 0.5163 0.1402 0.2050
H11 H 0.7069 0.0811 0.2295
C13 C 0.74318(18) 0.26699(11) 0.21219(5)
C14 C 0.90575(19) 0.29131(11) 0.25041(5)
H12 H 0.9854 0.2150 0.2526
C15 C 1.0318(2) 0.38912(12) 0.22535(6)
H13 H 1.1685 0.3823 0.2362
H14 H 0.9838 0.4724 0.2331
C16 C 1.0124(2) 0.36129(12) 0.16915(5)
H15 H 0.9610 0.4335 0.1513
H16 H 1.1401 0.3396 0.1549
O2 O 0.96693(15) 0.13691(8) 0.16834(4)
H17 H 1.0744 0.1409 0.1538
C17 C 0.8704(2) 0.25241(10) 0.16473(5)
C18 C 0.5182(2) 0.34113(11) 0.38094(6)
H18 H 0.4768 0.3474 0.4156
H19 H 0.4041 0.3419 0.3593
H20 H 0.6022 0.4106 0.3728
O3 O 0.37210(15) 0.18940(8) 0.28763(4)
C19 C 0.6059(2) 0.37648(11) 0.20652(6)
H21 H 0.5265 0.3846 0.2365
H22 H 0.5214 0.3635 0.1778
H23 H 0.6819 0.4513 0.2017
O4 O 0.70043(17) 0.34529(9) 0.09663(4)
C20 C 0.7514(2) 0.25273(12) 0.11728(5)
C21 C 0.6951(2) 0.12736(12) 0.09717(5)
H24 H 0.8113 0.0861 0.0836
H25 H 0.6432 0.0763 0.1244
O5 O 0.55159(15) 0.13914(9) 0.05901(4)
O6 O 0.32705(16) 0.16000(9) 0.11815(4)
C22 C 0.3699(2) 0.15750(13) 0.07465(6)
C23 C 0.2317(3) 0.1733(2) 0.03265(7)
H26 H 0.1214 0.1178 0.0370
H27 H 0.2974 0.1547 0.0013
H28 H 0.1854 0.2581 0.0321
H29? H 0.1007 0.1862 0.0457
H30? H 0.2333 0.0998 0.0118
H31? H 0.2704 0.2443 0.0128
loop_
_geom_bond_atom_site_label_1
_geom_bond_atom_site_label_2
_geom_bond_site_symmetry_1
_geom_bond_site_symmetry_2
C1 H1 1_555 1_555
H2 C1 1_555 1_555
C2 C1 1_555 1_555
H3 C2 1_555 1_555
H4 C2 1_555 1_555
C3 C2 1_555 1_555
O1 C3 1_555 1_555
C4 C3 1_555 1_555
H5 C4 1_555 1_555
C5 C4 1_555 1_555
C6 C5 1_555 1_555
H6 C6 1_555 1_555
C7 C6 1_555 1_555
H7 C7 1_555 1_555
C8 C7 1_555 1_555
H8 C8 1_555 1_555
C9 C8 1_555 1_555
H9 C9 1_555 1_555
C10 C1 1_555 1_555
C11 C9 1_555 1_555
C12 C11 1_555 1_555
H10 C12 1_555 1_555
H11 C12 1_555 1_555
C13 C12 1_555 1_555
C14 C8 1_555 1_555
H12 C14 1_555 1_555
C15 C14 1_555 1_555
H13 C15 1_555 1_555
H14 C15 1_555 1_555
C16 C15 1_555 1_555
H15 C16 1_555 1_555
H16 C16 1_555 1_555
O2 H17 1_555 1_555
C17 C13 1_555 1_555
C18 C10 1_555 1_555
H18 C18 1_555 1_555
H19 C18 1_555 1_555
H20 C18 1_555 1_555
O3 C11 1_555 1_555
C19 C13 1_555 1_555
H21 C19 1_555 1_555
H22 C19 1_555 1_555
H23 C19 1_555 1_555
O4 C20 1_555 1_555
C20 C17 1_555 1_555
C21 C20 1_555 1_555
H24 C21 1_555 1_555
H25 C21 1_555 1_555
O5 C21 1_555 1_555
O6 C22 1_555 1_555
C22 O5 1_555 1_555
C23 C22 1_555 1_555
H26 C23 1_555 1_555
H27 C23 1_555 1_555
H28 C23 1_555 1_555
C5 C10 1_555 1_555
C9 C10 1_555 1_555
C13 C14 1_555 1_555
C16 C17 1_555 1_555
O2 C17 1_555 1_555

#END
