
#######################################################################
#
#                 Cambridge Crystallographic Data Centre
#                                CCDC 
#
#######################################################################
#
# If this CIF has been generated from an entry in the Cambridge 
# Structural Database, then it will include bibliographic, chemical, 
# crystal, experimental, refinement or atomic coordinate data resulting 
# from the CCDC's data processing and validation procedures.
#
#######################################################################

data_YONSOL
_chemical_formula_moiety         'C54 H40 F4 O2 S6'
_chemical_name_systematic        
1',8'-bis(4'-Butoxy-2,3-difluorobiphenyl-4-yl)dispiro[1,3-benzodithiole-2,4'-thieno[3,2-e][1]benzothiophene-5',2''-[1,3]benzodithiole]
_symmetry_cell_setting           triclinic
_symmetry_space_group_name_H-M   'P -1'
_symmetry_Int_Tables_number      2
_space_group_name_Hall           '-P 1'
loop_
_symmetry_equiv_pos_site_id
_symmetry_equiv_pos_as_xyz
1 x,y,z
2 -x,-y,-z
_cell_length_a                   7.2094(9)
_cell_length_b                   16.0529(17)
_cell_length_c                   20.751(2)
_cell_angle_alpha                72.471(3)
_cell_angle_beta                 89.382(3)
_cell_angle_gamma                79.536(3)
_cell_volume                     2249.48
_exptl_crystal_colour            colorless
_exptl_crystal_description       platelet
_cell_formula_units_Z            2
loop_
_atom_site_label
_atom_site_type_symbol
_atom_site_fract_x
_atom_site_fract_y
_atom_site_fract_z
C1 C 0.5012(3) 0.62306(16) 0.18124(13)
C2 C 0.4431(4) 0.66807(16) 0.11499(13)
C3 C 0.4706(4) 0.75866(16) 0.09637(13)
C4 C 0.5575(4) 0.77553(17) 0.14834(14)
H1 H 0.5911 0.8312 0.1449
C5 C 0.4745(4) 0.52922(16) 0.21545(12)
C6 C 0.5912(4) 0.39286(17) 0.32539(14)
C7 C 0.6839(4) 0.36713(17) 0.27324(14)
C8 C 0.7797(4) 0.28004(18) 0.28534(15)
H2 H 0.8475 0.2624 0.2506
C9 C 0.7748(4) 0.21932(19) 0.34895(17)
H3 H 0.8401 0.1598 0.3576
C10 C 0.6757(4) 0.24414(19) 0.40025(15)
H4 H 0.6721 0.2015 0.4432
C11 C 0.5820(4) 0.33162(19) 0.38851(14)
H5 H 0.5129 0.3491 0.423
C12 C 0.2763(4) 0.55002(16) 0.11272(13)
C13 C 0.3595(4) 0.62007(16) 0.07614(13)
C14 C 0.3474(4) 0.63179(17) 0.00486(13)
C15 C 0.2488(4) 0.57316(18) -0.00922(14)
H6 H 0.2241 0.5718 -0.0537
C16 C 0.2777(4) 0.52021(16) 0.18847(13)
C17 C 0.1195(4) 0.42496(17) 0.29418(13)
C18 C 0.0472(4) 0.51326(17) 0.29067(13)
C19 C -0.0373(4) 0.53327(18) 0.34613(14)
H7 H -0.0875 0.5931 0.3438
C20 C -0.0471(4) 0.46434(19) 0.40504(14)
H8 H -0.1032 0.4772 0.4434
C21 C 0.0249(4) 0.37657(19) 0.40815(14)
H9 H 0.0167 0.3301 0.4486
C22 C 0.1084(4) 0.35621(18) 0.35298(15)
H10 H 0.1573 0.2962 0.3553
C23 C 0.3996(4) 0.82960(16) 0.03286(13)
C24 C 0.5181(4) 0.88242(17) -0.00566(14)
C25 C 0.4521(4) 0.94938(17) -0.06451(14)
C26 C 0.2646(4) 0.96872(16) -0.08829(13)
C27 C 0.1440(4) 0.91641(17) -0.04816(13)
H11 H 0.0138 0.928 -0.0614
C28 C 0.2110(4) 0.84842(17) 0.01024(14)
H12 H 0.1261 0.8137 0.0355
C29 C 0.1969(4) 1.04025(17) -0.15197(13)
C30 C 0.3091(4) 1.05600(17) -0.20848(13)
H13 H 0.4299 1.0196 -0.2063
C31 C 0.2459(4) 1.12388(17) -0.26729(14)
H14 H 0.3244 1.1342 -0.3049
C32 C 0.0679(4) 1.17723(17) -0.27177(14)
C33 C -0.0464(4) 1.16265(18) -0.21625(14)
H15 H -0.1678 1.1986 -0.2186
C34 C 0.0203(4) 1.09455(18) -0.15738(14)
H16 H -0.0574 1.0848 -0.1196
C35 C -0.1760(4) 1.28245(19) -0.34717(14)
H17 H -0.2093 1.3271 -0.3228
H18 H -0.2594 1.2381 -0.3331
C36 C -0.1974(4) 1.32701(18) -0.42294(14)
H19 H -0.1827 1.2805 -0.4459
H20 H -0.0947 1.3611 -0.437
C37 C -0.3866(5) 1.38955(19) -0.44630(15)
H21 H -0.3992 1.4371 -0.4244
H22 H -0.3869 1.4181 -0.4958
C38 C -0.5557(5) 1.3448(3) -0.43074(19)
H23 H -0.5401 1.2945 -0.4491
H24 H -0.6702 1.3875 -0.4514
H25 H -0.5666 1.3232 -0.3816
C39 C 0.4390(4) 0.69141(17) -0.04958(13)
C40 C 0.3407(4) 0.74161(19) -0.11027(14)
H26 H 0.2109 0.7397 -0.1155
C41 C 0.4254(4) 0.79378(18) -0.16284(14)
H27 H 0.3513 0.8283 -0.2027
C42 C 0.6156(4) 0.79771(17) -0.15970(14)
C43 C 0.7142(4) 0.74896(18) -0.09835(14)
C44 C 0.6284(4) 0.69765(17) -0.04482(13)
C45 C 0.7040(4) 0.84954(17) -0.21962(14)
C46 C 0.6604(4) 0.84425(18) -0.28362(14)
H28 H 0.5775 0.8062 -0.2876
C47 C 0.7354(4) 0.89329(18) -0.34117(14)
H29 H 0.7041 0.8886 -0.3841
C48 C 0.8572(4) 0.94973(17) -0.33603(14)
C49 C 0.9043(4) 0.95546(19) -0.27279(15)
H30 H 0.9878 0.9934 -0.2689
C50 C 0.8283(4) 0.90524(19) -0.21523(15)
H31 H 0.8617 0.9089 -0.1722
C51 C 1.0576(4) 1.04961(19) -0.39338(14)
H32 H 1.17 1.0138 -0.3645
H33 H 1.0001 1.0972 -0.3741
C52 C 1.1141(5) 1.0899(2) -0.46493(15)
H34 H 1.0008 1.1264 -0.4929
H35 H 1.165 1.0415 -0.4843
C53 C 1.2626(4) 1.14781(19) -0.46789(15)
H36 H 1.2728 1.183 -0.5156
H37 H 1.2196 1.1901 -0.4421
C54 C 1.4568(5) 1.0949(2) -0.43961(18)
H38 H 1.4473 1.0583 -0.3929
H39 H 1.543 1.1359 -0.4405
H40 H 1.5052 1.0565 -0.4672
O1 O 0.0185(3) 1.23981(13) -0.33279(10)
O2 O 0.9243(3) 0.99443(13) -0.39573(10)
F1 F 0.7022(3) 0.86822(14) 0.01337(11)
F2 F 0.5811(3) 0.99661(13) -0.09816(10)
F3 F 0.7316(5) 0.6528(2) 0.01227(17)
F4 F 0.8980(5) 0.7493(3) -0.08941(19)
S1 S 0.59914(9) 0.68630(4) 0.21993(3)
S2 S 0.22787(9) 0.40804(4) 0.22134(3)
S3 S 0.08382(9) 0.59373(4) 0.21507(3)
S4 S 0.17519(10) 0.50274(4) 0.06192(3)
S5 S 0.49176(9) 0.50626(4) 0.30662(3)
S6 S 0.66981(9) 0.45027(4) 0.19458(3)
H41? H 0.6471 0.8723 0.0087
H42? H 0.5381 0.9836 -0.0897
H43? H 0.8439 0.7511 -0.0933
H44? H 0.7003 0.6659 -0.0039
F5? F 0.0919(12) 0.7991(6) 0.0449(5)
F6? F -0.0414(13) 0.9309(6) -0.0650(5)
F7? F 0.1537(5) 0.7464(3) -0.11651(19)
F8? F 0.3116(5) 0.8515(2) -0.21491(17)
loop_
_geom_bond_atom_site_label_1
_geom_bond_atom_site_label_2
_geom_bond_site_symmetry_1
_geom_bond_site_symmetry_2
C1 C2 1_555 1_555
C2 C3 1_555 1_555
C3 C4 1_555 1_555
C4 H1 1_555 1_555
C5 C1 1_555 1_555
C6 C7 1_555 1_555
C7 C8 1_555 1_555
C8 H2 1_555 1_555
C9 C8 1_555 1_555
H3 C9 1_555 1_555
C10 C9 1_555 1_555
H4 C10 1_555 1_555
C11 C6 1_555 1_555
H5 C11 1_555 1_555
C12 C13 1_555 1_555
C13 C2 1_555 1_555
C14 C13 1_555 1_555
C15 C14 1_555 1_555
H6 C15 1_555 1_555
C16 C5 1_555 1_555
C17 C18 1_555 1_555
C18 C19 1_555 1_555
C19 H7 1_555 1_555
C20 C19 1_555 1_555
H8 C20 1_555 1_555
C21 C20 1_555 1_555
H9 C21 1_555 1_555
C22 C17 1_555 1_555
H10 C22 1_555 1_555
C23 C3 1_555 1_555
C24 C23 1_555 1_555
C25 C24 1_555 1_555
C26 C25 1_555 1_555
C27 C26 1_555 1_555
H11 C27 1_555 1_555
C28 C23 1_555 1_555
H12 C28 1_555 1_555
C29 C26 1_555 1_555
C30 C29 1_555 1_555
H13 C30 1_555 1_555
C31 C30 1_555 1_555
H14 C31 1_555 1_555
C32 C31 1_555 1_555
C33 C32 1_555 1_555
H15 C33 1_555 1_555
C34 C29 1_555 1_555
H16 C34 1_555 1_555
C35 H17 1_555 1_555
H18 C35 1_555 1_555
C36 C35 1_555 1_555
H19 C36 1_555 1_555
H20 C36 1_555 1_555
C37 C36 1_555 1_555
H21 C37 1_555 1_555
H22 C37 1_555 1_555
C38 C37 1_555 1_555
H23 C38 1_555 1_555
H24 C38 1_555 1_555
H25 C38 1_555 1_555
C39 C14 1_555 1_555
C40 C39 1_555 1_555
H26 C40 1_555 1_555
C41 C40 1_555 1_555
H27 C41 1_555 1_555
C42 C41 1_555 1_555
C43 C42 1_555 1_555
C44 C39 1_555 1_555
C45 C42 1_555 1_555
C46 C45 1_555 1_555
H28 C46 1_555 1_555
C47 C46 1_555 1_555
H29 C47 1_555 1_555
C48 C47 1_555 1_555
C49 C48 1_555 1_555
H30 C49 1_555 1_555
C50 C45 1_555 1_555
H31 C50 1_555 1_555
C51 H32 1_555 1_555
H33 C51 1_555 1_555
C52 C51 1_555 1_555
H34 C52 1_555 1_555
H35 C52 1_555 1_555
C53 C52 1_555 1_555
H36 C53 1_555 1_555
H37 C53 1_555 1_555
C54 C53 1_555 1_555
H38 C54 1_555 1_555
H39 C54 1_555 1_555
H40 C54 1_555 1_555
O1 C32 1_555 1_555
O2 C48 1_555 1_555
F1 C24 1_555 1_555
F2 C25 1_555 1_555
F3 C44 1_555 1_555
F4 C43 1_555 1_555
S1 C1 1_555 1_555
S2 C16 1_555 1_555
S3 C16 1_555 1_555
S4 C12 1_555 1_555
S5 C5 1_555 1_555
S6 C5 1_555 1_555
C4 S1 1_555 1_555
C6 S5 1_555 1_555
C7 S6 1_555 1_555
C10 C11 1_555 1_555
C12 C16 1_555 1_555
C15 S4 1_555 1_555
C17 S2 1_555 1_555
C18 S3 1_555 1_555
C21 C22 1_555 1_555
C27 C28 1_555 1_555
C33 C34 1_555 1_555
C35 O1 1_555 1_555
C43 C44 1_555 1_555
C49 C50 1_555 1_555
C51 O2 1_555 1_555

#END
