
#######################################################################
#
#                 Cambridge Crystallographic Data Centre
#                                CCDC 
#
#######################################################################
#
# If this CIF has been generated from an entry in the Cambridge 
# Structural Database, then it will include bibliographic, chemical, 
# crystal, experimental, refinement or atomic coordinate data resulting 
# from the CCDC's data processing and validation procedures.
#
#######################################################################

data_YOPDIR
_chemical_name_common            
'5-Amino-1,2,4-triazol-1-aminomethylene-carboximidamide dinitroamide'
_chemical_formula_moiety         'C4 H9 N8 1+,N3 O4 1-'
_chemical_name_systematic        
'5-Amino-N-amidino-1-guanyl-1,2,4-triazole dinitramide'
_symmetry_cell_setting           monoclinic
_symmetry_space_group_name_H-M   'P 21/n'
_symmetry_Int_Tables_number      14
_space_group_name_Hall           '-P 2yn'
loop_
_symmetry_equiv_pos_site_id
_symmetry_equiv_pos_as_xyz
1 x,y,z
2 1/2-x,1/2+y,1/2-z
3 -x,-y,-z
4 1/2+x,1/2-y,1/2+z
_cell_length_a                   6.1940(2)
_cell_length_b                   9.4341(3)
_cell_length_c                   18.8610(5)
_cell_angle_alpha                90
_cell_angle_beta                 93.548(1)
_cell_angle_gamma                90
_cell_volume                     1100.03
_exptl_crystal_colour            colorless
_exptl_crystal_description       prism
_chemical_melting_point          '175 deg.C (dec.)'
_cell_formula_units_Z            4
_chemical_properties_physical    'impact-sensitive (greater than 60J)'
_exptl_crystal_recrystallization_method water
loop_
_atom_site_label
_atom_site_type_symbol
_atom_site_fract_x
_atom_site_fract_y
_atom_site_fract_z
N1 N 1.09331(16) 0.73201(9) 0.03184(6)
N2 N 1.22642(17) 0.49589(10) 0.05277(6)
H1 H 1.3188 0.4293 0.0424
H2 H 1.1304 0.4794 0.0843
C1 C 1.23193(18) 0.62091(11) 0.02104(7)
N3 N 1.36886(18) 0.65901(10) -0.02737(7)
C2 C 1.3067(2) 0.79435(13) -0.04429(8)
H3 H 1.3780 0.8486 -0.0782
N4 N 1.14420(18) 0.84534(10) -0.01145(6)
N5 N 0.81687(18) 0.86336(10) 0.07336(6)
H4 H 0.7041 0.8758 0.0989
H5 H 0.8580 0.9315 0.0454
C3 C 0.92484(19) 0.74187(11) 0.07713(7)
N6 N 0.88999(18) 0.62969(10) 0.11485(6)
C4 C 0.75696(19) 0.63511(11) 0.16974(7)
N7 N 0.7775(2) 0.73505(11) 0.21862(7)
H6 H 0.6955 0.7337 0.2551
H7 H 0.8733 0.8031 0.2148
N8 N 0.61481(19) 0.53237(11) 0.17442(6)
H8 H 0.5316 0.5296 0.2106
H9 H 0.6029 0.4664 0.1414
N9 N 0.3237(5) 0.7122(3) 0.33323(14)
O1 O 0.1441(3) 0.74712(13) 0.34984(13)
O2 O 0.4835(8) 0.7921(4) 0.3318(3)
N10 N 0.3761(8) 0.5772(4) 0.3108(3)
N11 N 0.2330(9) 0.4727(5) 0.3253(3)
O3 O 0.0693(7) 0.4860(4) 0.3567(3)
O4 O 0.2837(9) 0.3565(5) 0.3002(4)
N12? N 0.358(2) 0.6824(15) 0.3465(9)
O5? O 0.2242(17) 0.7064(11) 0.3909(7)
O6? O 0.468(3) 0.7949(11) 0.3308(8)
N13? N 0.396(4) 0.560(2) 0.3110(18)
N14? N 0.240(3) 0.460(2) 0.3262(13)
O7? O 0.1170(18) 0.4838(13) 0.3738(5)
O8? O 0.280(5) 0.340(2) 0.307(2)
loop_
_geom_bond_atom_site_label_1
_geom_bond_atom_site_label_2
_geom_bond_site_symmetry_1
_geom_bond_site_symmetry_2
N1 C1 1_555 1_555
N2 H1 1_555 1_555
H2 N2 1_555 1_555
C1 N2 1_555 1_555
N3 C1 1_555 1_555
C2 N3 1_555 1_555
H3 C2 1_555 1_555
N4 N1 1_555 1_555
N5 H4 1_555 1_555
H5 N5 1_555 1_555
C3 N1 1_555 1_555
N6 C3 1_555 1_555
C4 N6 1_555 1_555
N7 C4 1_555 1_555
H6 N7 1_555 1_555
H7 N7 1_555 1_555
N8 C4 1_555 1_555
H8 N8 1_555 1_555
H9 N8 1_555 1_555
N9 O1 1_555 1_555
O2 N9 1_555 1_555
N10 N9 1_555 1_555
N11 N10 1_555 1_555
O3 N11 1_555 1_555
O4 N11 1_555 1_555
C2 N4 1_555 1_555
N5 C3 1_555 1_555

#END
