
#######################################################################
#
#                 Cambridge Crystallographic Data Centre
#                                CCDC 
#
#######################################################################
#
# If this CIF has been generated from an entry in the Cambridge 
# Structural Database, then it will include bibliographic, chemical, 
# crystal, experimental, refinement or atomic coordinate data resulting 
# from the CCDC's data processing and validation procedures.
#
#######################################################################

data_YORQIH
_chemical_formula_moiety         'C58 H58 B1 F2 N5'
_chemical_name_systematic        
"3,11-bis(3,6-di-t-butyl-9H-carbazol-9-yl)-15,15-difluoro-15H-14,15-quinolino[1',2':3,4][1,3,5,2]triazaborinino[1,6-a]quinoline unknown solvate"
_symmetry_cell_setting           monoclinic
_symmetry_space_group_name_H-M   'P 21/c'
_symmetry_Int_Tables_number      14
_space_group_name_Hall           '-P 2ybc'
loop_
_symmetry_equiv_pos_site_id
_symmetry_equiv_pos_as_xyz
1 x,y,z
2 -x,1/2+y,1/2-z
3 -x,-y,-z
4 x,1/2-y,1/2+z
_cell_length_a                   22.4457(17)
_cell_length_b                   11.3035(7)
_cell_length_c                   20.0181(14)
_cell_angle_alpha                90
_cell_angle_beta                 92.623(5)
_cell_angle_gamma                90
_cell_volume                     5073.57
_exptl_crystal_colour            yellow
_exptl_crystal_description       sheet
_cell_formula_units_Z            4
loop_
_atom_site_label
_atom_site_type_symbol
_atom_site_fract_x
_atom_site_fract_y
_atom_site_fract_z
B1 B 0.15300(12) 0.4995(2) 0.50458(15)
C1 C -0.08577(11) 0.1767(2) 0.69626(12)
C2 C -0.08853(12) 0.0816(2) 0.65332(12)
H1 H -0.0633 0.0773 0.6179
C3 C -0.12855(12) -0.0059(2) 0.66333(12)
H2 H -0.1304 -0.0688 0.6334
C4 C -0.16728(12) -0.0067(2) 0.71642(13)
C5 C -0.16206(11) 0.0891(2) 0.76210(12)
H3 H -0.1862 0.0920 0.7986
C6 C -0.12065(11) 0.1790(2) 0.75212(11)
C7 C -0.10630(10) 0.28610(19) 0.78841(11)
C8 C -0.12957(11) 0.3369(2) 0.84649(11)
H4 H -0.1573 0.2960 0.8707
C9 C -0.11058(11) 0.4477(2) 0.86650(11)
C10 C -0.06942(11) 0.5077(2) 0.82817(11)
H5 H -0.0578 0.5836 0.8411
C11 C -0.04537(12) 0.4588(2) 0.77191(13)
H6 H -0.0175 0.4999 0.7479
C12 C -0.21552(18) -0.0986(3) 0.72273(19)
C13 C -0.2630(2) -0.0781(5) 0.6710(3)
H7 H -0.2540 -0.0081 0.6461
H8 H -0.3003 -0.0679 0.6917
H9 H -0.2655 -0.1447 0.6412
C14 C -0.1865(3) -0.2252(5) 0.7271(3)
H10 H -0.1454 -0.2183 0.7421
H11 H -0.1890 -0.2617 0.6838
H12 H -0.2074 -0.2728 0.7581
C15 C -0.24280(19) -0.1024(4) 0.7904(2)
H13 H -0.2121 -0.0919 0.8249
H14 H -0.2619 -0.1774 0.7961
H15 H -0.2717 -0.0401 0.7931
C16 C -0.13417(12) 0.5079(2) 0.92905(13)
C17 C -0.16990(12) 0.4229(3) 0.96994(13)
H16 H -0.1464 0.3537 0.9802
H17 H -0.2056 0.4006 0.9448
H18 H -0.1803 0.4607 1.0107
C18 C -0.17168(18) 0.6120(3) 0.90868(19)
H19 H -0.2065 0.5855 0.8833
H20 H -0.1491 0.6643 0.8818
H21 H -0.1836 0.6531 0.9478
C19 C -0.08214(15) 0.5495(3) 0.97315(15)
H22 H -0.0965 0.5804 1.0141
H23 H -0.0610 0.6103 0.9506
H24 H -0.0558 0.4842 0.9829
C20 C -0.06423(11) 0.3466(2) 0.75271(11)
C21 C -0.01389(11) 0.3175(2) 0.64445(11)
C22 C -0.03164(10) 0.2998(2) 0.57842(11)
H25 H -0.0685 0.2651 0.5681
C23 C 0.00506(10) 0.33316(19) 0.52600(11)
C24 C 0.05922(10) 0.3908(2) 0.54039(12)
C25 C 0.07673(11) 0.4109(2) 0.60927(11)
H26 H 0.1123 0.4501 0.6203
C26 C 0.04120(11) 0.3726(2) 0.65898(12)
H27 H 0.0540 0.3835 0.7034
C27 C -0.01149(11) 0.3072(2) 0.45935(11)
H28 H -0.0476 0.2699 0.4485
C28 C 0.02566(11) 0.3369(2) 0.41112(12)
H29 H 0.0158 0.3150 0.3672
C29 C 0.07897(11) 0.4003(2) 0.42488(12)
C30 C 0.15743(10) 0.4989(2) 0.37898(11)
C31 C 0.18494(12) 0.5329(2) 0.31909(13)
H30 H 0.1700 0.5021 0.2786
C32 C 0.23089(12) 0.6066(3) 0.31877(13)
H31 H 0.2472 0.6277 0.2786
C33 C 0.25475(11) 0.6525(2) 0.37934(13)
C34 C 0.23021(11) 0.6160(2) 0.44063(12)
C35 C 0.25627(11) 0.6572(2) 0.49940(14)
H32 H 0.2405 0.6348 0.5396
C36 C 0.30589(13) 0.7319(3) 0.50053(15)
H33 H 0.3238 0.7561 0.5411
C37 C 0.32839(12) 0.7700(2) 0.44012(14)
C38 C 0.30409(13) 0.7308(3) 0.38255(14)
H34 H 0.3201 0.7556 0.3429
C39 C 0.42785(14) 0.8434(3) 0.40093(17)
C40 C 0.44972(15) 0.7492(3) 0.36906(19)
H35 H 0.4326 0.6747 0.3726
C41 C 0.49930(17) 0.7678(3) 0.33034(19)
H36 H 0.5132 0.7039 0.3063
C42 C 0.52833(15) 0.8714(3) 0.32539(18)
C43 C 0.50750(15) 0.9664(3) 0.36142(18)
H37 H 0.5269 1.0390 0.3605
C44 C 0.45545(13) 0.9519(3) 0.40037(17)
C45 C 0.42125(13) 1.0328(3) 0.44013(17)
C46 C 0.37377(13) 0.9689(3) 0.46446(16)
C47 C 0.32944(13) 1.0260(3) 0.49386(16)
H38 H 0.2962 0.9846 0.5070
C48 C 0.33348(13) 1.1459(3) 0.50441(17)
H39 H 0.3022 1.1832 0.5248
C49 C 0.38033(13) 1.2132(3) 0.48692(17)
C50 C 0.42617(15) 1.1563(3) 0.45116(18)
H40 H 0.4581 1.1991 0.4357
C51 C 0.38055(14) 1.3471(3) 0.49395(17)
C52 C 0.33834(19) 1.4002(3) 0.4417(2)
H41 H 0.2987 1.3716 0.4480
H42 H 0.3504 1.3780 0.3981
H43 H 0.3389 1.4848 0.4458
C53 C 0.44329(19) 1.3959(3) 0.4878(3)
H44 H 0.4429 1.4800 0.4943
H45 H 0.4569 1.3784 0.4441
H46 H 0.4696 1.3600 0.5210
C54 C 0.3579(2) 1.3825(3) 0.5617(2)
H47 H 0.3180 1.3536 0.5656
H48 H 0.3581 1.4672 0.5655
H49 H 0.3834 1.3491 0.5966
C55 C 0.58222(19) 0.8870(4) 0.2830(2)
C56 C 0.5975(2) 0.7770(4) 0.2470(2)
H50 H 0.5633 0.7499 0.2209
H51 H 0.6097 0.7171 0.2789
H52 H 0.6296 0.7927 0.2181
C57 C 0.6373(2) 0.9273(7) 0.3257(3)
H53 H 0.6722 0.8888 0.3103
H54 H 0.6322 0.9068 0.3716
H55 H 0.6418 1.0115 0.3219
C58 C 0.5664(2) 0.9767(5) 0.2305(2)
H56 H 0.5281 0.9580 0.2098
H57 H 0.5959 0.9762 0.1973
H58 H 0.5649 1.0537 0.2505
F1 F 0.14003(6) 0.59817(13) 0.54342(7)
F2 F 0.19419(6) 0.42944(14) 0.54086(7)
N1 N 0.11056(9) 0.43173(18) 0.37327(9)
N2 N 0.18044(8) 0.54102(15) 0.43864(10)
N3 N 0.09589(8) 0.42755(16) 0.48992(9)
N4 N -0.04971(9) 0.27930(17) 0.69653(9)
N5 N 0.37743(10) 0.8507(2) 0.44176(14)
loop_
_geom_bond_atom_site_label_1
_geom_bond_atom_site_label_2
_geom_bond_site_symmetry_1
_geom_bond_site_symmetry_2
B1 F1 1_555 1_555
C1 C2 1_555 1_555
C2 H1 1_555 1_555
C3 C2 1_555 1_555
H2 C3 1_555 1_555
C4 C3 1_555 1_555
C5 C4 1_555 1_555
H3 C5 1_555 1_555
C6 C1 1_555 1_555
C7 C6 1_555 1_555
C8 C7 1_555 1_555
H4 C8 1_555 1_555
C9 C8 1_555 1_555
C10 C9 1_555 1_555
H5 C10 1_555 1_555
C11 C10 1_555 1_555
H6 C11 1_555 1_555
C12 C4 1_555 1_555
C13 C12 1_555 1_555
H7 C13 1_555 1_555
H8 C13 1_555 1_555
H9 C13 1_555 1_555
C14 C12 1_555 1_555
H10 C14 1_555 1_555
H11 C14 1_555 1_555
H12 C14 1_555 1_555
C15 C12 1_555 1_555
H13 C15 1_555 1_555
H14 C15 1_555 1_555
H15 C15 1_555 1_555
C16 C9 1_555 1_555
C17 C16 1_555 1_555
H16 C17 1_555 1_555
H17 C17 1_555 1_555
H18 C17 1_555 1_555
C18 C16 1_555 1_555
H19 C18 1_555 1_555
H20 C18 1_555 1_555
H21 C18 1_555 1_555
C19 C16 1_555 1_555
H22 C19 1_555 1_555
H23 C19 1_555 1_555
H24 C19 1_555 1_555
C20 C7 1_555 1_555
C21 C22 1_555 1_555
C22 H25 1_555 1_555
C23 C22 1_555 1_555
C24 C23 1_555 1_555
C25 C24 1_555 1_555
H26 C25 1_555 1_555
C26 C21 1_555 1_555
H27 C26 1_555 1_555
C27 C23 1_555 1_555
H28 C27 1_555 1_555
C28 C27 1_555 1_555
H29 C28 1_555 1_555
C29 C28 1_555 1_555
C30 C31 1_555 1_555
C31 H30 1_555 1_555
C32 C31 1_555 1_555
H31 C32 1_555 1_555
C33 C32 1_555 1_555
C34 C33 1_555 1_555
C35 C34 1_555 1_555
H32 C35 1_555 1_555
C36 C35 1_555 1_555
H33 C36 1_555 1_555
C37 C36 1_555 1_555
C38 C33 1_555 1_555
H34 C38 1_555 1_555
C39 C40 1_555 1_555
C40 H35 1_555 1_555
C41 C40 1_555 1_555
H36 C41 1_555 1_555
C42 C41 1_555 1_555
C43 C42 1_555 1_555
H37 C43 1_555 1_555
C44 C39 1_555 1_555
C45 C44 1_555 1_555
C46 C45 1_555 1_555
C47 C46 1_555 1_555
H38 C47 1_555 1_555
C48 C47 1_555 1_555
H39 C48 1_555 1_555
C49 C48 1_555 1_555
C50 C45 1_555 1_555
H40 C50 1_555 1_555
C51 C49 1_555 1_555
C52 C51 1_555 1_555
H41 C52 1_555 1_555
H42 C52 1_555 1_555
H43 C52 1_555 1_555
C53 C51 1_555 1_555
H44 C53 1_555 1_555
H45 C53 1_555 1_555
H46 C53 1_555 1_555
C54 C51 1_555 1_555
H47 C54 1_555 1_555
H48 C54 1_555 1_555
H49 C54 1_555 1_555
C55 C42 1_555 1_555
C56 C55 1_555 1_555
H50 C56 1_555 1_555
H51 C56 1_555 1_555
H52 C56 1_555 1_555
C57 C55 1_555 1_555
H53 C57 1_555 1_555
H54 C57 1_555 1_555
H55 C57 1_555 1_555
C58 C55 1_555 1_555
H56 C58 1_555 1_555
H57 C58 1_555 1_555
H58 C58 1_555 1_555
F2 B1 1_555 1_555
N1 C29 1_555 1_555
N2 B1 1_555 1_555
N3 B1 1_555 1_555
N4 C1 1_555 1_555
N5 C37 1_555 1_555
C5 C6 1_555 1_555
C11 C20 1_555 1_555
C20 N4 1_555 1_555
C21 N4 1_555 1_555
C24 N3 1_555 1_555
C25 C26 1_555 1_555
C29 N3 1_555 1_555
C30 N1 1_555 1_555
C30 N2 1_555 1_555
C34 N2 1_555 1_555
C37 C38 1_555 1_555
C39 N5 1_555 1_555
C43 C44 1_555 1_555
C46 N5 1_555 1_555
C49 C50 1_555 1_555

#END
