
#######################################################################
#
#                 Cambridge Crystallographic Data Centre
#                                CCDC 
#
#######################################################################
#
# If this CIF has been generated from an entry in the Cambridge 
# Structural Database, then it will include bibliographic, chemical, 
# crystal, experimental, refinement or atomic coordinate data resulting 
# from the CCDC's data processing and validation procedures.
#
#######################################################################

data_YORREE
_chemical_formula_moiety         'C24 H23 Br1 O2'
_chemical_name_systematic        
(6-bromo-10-methyl-2-oxatetracyclo[7.7.1.0^1,12^.0^3,8^]heptadeca-3,5,7,11-tetraen-17-yl)(phenyl)methanone
_symmetry_cell_setting           orthorhombic
_symmetry_space_group_name_H-M   'P 21 21 21'
_symmetry_Int_Tables_number      19
_space_group_name_Hall           'P 2ac 2ab'
loop_
_symmetry_equiv_pos_site_id
_symmetry_equiv_pos_as_xyz
1 x,y,z
2 1/2-x,-y,1/2+z
3 1/2+x,1/2-y,-z
4 -x,1/2+y,1/2-z
_cell_length_a                   6.8792(7)
_cell_length_b                   10.2161(11)
_cell_length_c                   27.732(3)
_cell_angle_alpha                90
_cell_angle_beta                 90
_cell_angle_gamma                90
_cell_volume                     1948.97
_exptl_crystal_colour            colorless
_exptl_crystal_description       block
_cell_formula_units_Z            4
loop_
_atom_site_label
_atom_site_type_symbol
_atom_site_fract_x
_atom_site_fract_y
_atom_site_fract_z
Br1 Br 1.36406(9) 0.08998(5) 0.05174(2)
O1 O 0.6613(5) 0.2043(3) 0.17374(11)
C1 C 0.5915(7) 0.3392(4) 0.17863(15)
O2 O 0.4263(5) 0.5919(3) 0.15538(12)
C2 C 0.3896(7) 0.3218(5) 0.20070(18)
H1 H 0.3192 0.4037 0.1978
H2 H 0.3195 0.2565 0.1822
C3 C 0.3907(11) 0.2809(7) 0.2531(2)
H3 H 0.2588 0.2796 0.2654
H4 H 0.4443 0.1935 0.2561
C4 C 0.5115(8) 0.3760(5) 0.28174(18)
H5 H 0.5092 0.3512 0.3155
H6 H 0.4561 0.4630 0.2790
C5 C 0.7198(9) 0.3782(7) 0.26407(19)
H7 H 0.7790 0.2936 0.2700
H8 H 0.7922 0.4432 0.2822
C6 C 0.7331(7) 0.4097(5) 0.21057(16)
C7 C 0.8711(8) 0.4871(5) 0.19322(17)
H9 H 0.9520 0.5284 0.2154
C8 C 0.9074(7) 0.5133(4) 0.14071(17)
H10 H 1.0455 0.4943 0.1355
C9 C 0.7964(6) 0.4136(4) 0.10982(15)
H11 H 0.7967 0.4421 0.0761
C10 C 0.5835(6) 0.3962(4) 0.12732(15)
H12 H 0.5228 0.3301 0.1066
C11 C 0.8919(7) 0.2786(4) 0.11377(15)
C12 C 1.0542(7) 0.2504(5) 0.08638(18)
H13 H 1.1031 0.3124 0.0650
C13 C 1.1441(6) 0.1297(4) 0.09070(14)
C14 C 1.0762(8) 0.0361(5) 0.12186(18)
H14 H 1.1368 -0.0451 0.1240
C15 C 0.9162(8) 0.0644(5) 0.15007(18)
H15 H 0.8701 0.0029 0.1720
C16 C 0.8241(7) 0.1853(5) 0.14563(17)
C17 C 0.8810(11) 0.6562(6) 0.1267(2)
H16 H 0.9522 0.7108 0.1487
H17 H 0.7456 0.6785 0.1280
H18 H 0.9287 0.6696 0.0945
C18 C 0.4688(8) 0.5227(5) 0.1212(2)
C19 C 0.4035(8) 0.5592(4) 0.07165(18)
C20 C 0.4043(10) 0.4733(6) 0.0328(2)
H19 H 0.4588 0.3905 0.0363
C21 C 0.3251(8) 0.5096(5) -0.01076(18)
H20 H 0.3232 0.4508 -0.0364
C22 C 0.2489(8) 0.6327(6) -0.01634(19)
H21 H 0.1945 0.6563 -0.0458
C23 C 0.2513(8) 0.7214(5) 0.0205(2)
H22 H 0.2031 0.8055 0.0158
C24 C 0.3263(7) 0.6849(5) 0.06477(19)
H23 H 0.3255 0.7442 0.0902
loop_
_geom_bond_atom_site_label_1
_geom_bond_atom_site_label_2
_geom_bond_site_symmetry_1
_geom_bond_site_symmetry_2
Br1 C13 1_555 1_555
O1 C1 1_555 1_555
C1 C2 1_555 1_555
O2 C18 1_555 1_555
C2 H1 1_555 1_555
H2 C2 1_555 1_555
C3 C2 1_555 1_555
H3 C3 1_555 1_555
H4 C3 1_555 1_555
C4 C3 1_555 1_555
H5 C4 1_555 1_555
H6 C4 1_555 1_555
C5 C4 1_555 1_555
H7 C5 1_555 1_555
H8 C5 1_555 1_555
C6 C1 1_555 1_555
C7 C6 1_555 1_555
H9 C7 1_555 1_555
C8 C7 1_555 1_555
H10 C8 1_555 1_555
C9 C8 1_555 1_555
H11 C9 1_555 1_555
C10 C1 1_555 1_555
H12 C10 1_555 1_555
C11 C9 1_555 1_555
C12 C11 1_555 1_555
H13 C12 1_555 1_555
C13 C12 1_555 1_555
C14 C13 1_555 1_555
H14 C14 1_555 1_555
C15 C14 1_555 1_555
H15 C15 1_555 1_555
C16 O1 1_555 1_555
C17 C8 1_555 1_555
H16 C17 1_555 1_555
H17 C17 1_555 1_555
H18 C17 1_555 1_555
C18 C10 1_555 1_555
C19 C18 1_555 1_555
C20 C19 1_555 1_555
H19 C20 1_555 1_555
C21 C20 1_555 1_555
H20 C21 1_555 1_555
C22 C21 1_555 1_555
H21 C22 1_555 1_555
C23 C22 1_555 1_555
H22 C23 1_555 1_555
C24 C19 1_555 1_555
H23 C24 1_555 1_555
C5 C6 1_555 1_555
C9 C10 1_555 1_555
C11 C16 1_555 1_555
C15 C16 1_555 1_555
C23 C24 1_555 1_555

#END
