
#######################################################################
#
#                 Cambridge Crystallographic Data Centre
#                                CCDC 
#
#######################################################################
#
# If this CIF has been generated from an entry in the Cambridge 
# Structural Database, then it will include bibliographic, chemical, 
# crystal, experimental, refinement or atomic coordinate data resulting 
# from the CCDC's data processing and validation procedures.
#
#######################################################################

data_YORXAG
_chemical_formula_moiety         'C23 H19 B1 F2 N2 S1'
_chemical_name_systematic        
2-(2,6-Dimethylphenyl)-1,1-difluoro-3-phenyl-1,2-dihydro-10\l^5^,1\l^5^-[1,3,2]diazaborinino[6,1-b][1,3]benzothiazole
_symmetry_cell_setting           monoclinic
_symmetry_space_group_name_H-M   'P 21/c'
_symmetry_Int_Tables_number      14
_space_group_name_Hall           '-P 2ybc'
loop_
_symmetry_equiv_pos_site_id
_symmetry_equiv_pos_as_xyz
1 x,y,z
2 -x,1/2+y,1/2-z
3 -x,-y,-z
4 x,1/2-y,1/2+z
_cell_length_a                   11.3993(10)
_cell_length_b                   12.7664(9)
_cell_length_c                   15.0074(17)
_cell_angle_alpha                90
_cell_angle_beta                 117.220(7)
_cell_angle_gamma                90
_cell_volume                     1942.13
_exptl_crystal_colour            yellow
_exptl_crystal_description       block
_cell_formula_units_Z            4
loop_
_atom_site_label
_atom_site_type_symbol
_atom_site_fract_x
_atom_site_fract_y
_atom_site_fract_z
S1 S 0.82592(9) 0.60961(7) 0.10596(6)
F1 F 0.75496(19) 0.72248(14) 0.39387(13)
F2 F 0.94283(17) 0.78864(14) 0.40286(12)
N1 N 0.8134(2) 0.67947(18) 0.26253(17)
N2 N 0.7363(2) 0.85895(18) 0.27650(17)
C1 C 0.8521(3) 0.5220(2) 0.2017(2)
C2 C 0.8802(3) 0.4161(3) 0.2064(3)
H1 H 0.8874 0.3830 0.1539
C3 C 0.8971(3) 0.3607(3) 0.2899(3)
H2 H 0.9154 0.2894 0.2937
C4 C 0.8874(3) 0.4098(3) 0.3688(3)
H3 H 0.8998 0.3710 0.4248
C5 C 0.8594(3) 0.5157(3) 0.3654(2)
H4 H 0.8527 0.5483 0.4183
C6 C 0.8417(3) 0.5718(2) 0.2811(2)
C7 C 0.8034(3) 0.7103(2) 0.1739(2)
C8 C 0.7736(3) 0.8123(2) 0.1387(2)
H5 H 0.7799 0.8323 0.0815
C9 C 0.7346(3) 0.8846(2) 0.1890(2)
C10 C 0.6924(3) 0.9904(2) 0.1428(2)
C11 C 0.7783(3) 1.0445(3) 0.1176(2)
H6 H 0.8570 1.0133 0.1276
C12 C 0.7484(4) 1.1447(3) 0.0778(3)
H7 H 0.8075 1.1810 0.0624
C13 C 0.6303(4) 1.1900(3) 0.0612(3)
H8 H 0.6100 1.2574 0.0349
C14 C 0.5435(4) 1.1365(3) 0.0832(2)
H9 H 0.4634 1.1673 0.0705
C15 C 0.5729(3) 1.0369(3) 0.1243(2)
H10 H 0.5131 1.0012 0.1395
C16 C 0.6712(3) 0.9251(2) 0.3195(2)
C17 C 0.5461(3) 0.8948(2) 0.3047(2)
C18 C 0.4849(3) 0.9552(3) 0.3475(2)
H11 H 0.4026 0.9353 0.3404
C19 C 0.5436(4) 1.0440(3) 0.4004(3)
H12 H 0.5006 1.0842 0.4282
C20 C 0.6656(4) 1.0739(3) 0.4126(2)
H13 H 0.7039 1.1347 0.4483
C21 C 0.7333(3) 1.0154(2) 0.3728(2)
C22 C 0.8635(3) 1.0512(3) 0.3841(2)
H14 H 0.8518 1.0858 0.3238
H15 H 0.9206 0.9919 0.3964
H16 H 0.9021 1.0991 0.4394
C23 C 0.4746(3) 0.8033(3) 0.2368(3)
H17 H 0.5313 0.7431 0.2561
H18 H 0.4511 0.8213 0.1686
H19 H 0.3962 0.7877 0.2429
B1 B 0.8124(4) 0.7632(3) 0.3382(3)
loop_
_geom_bond_atom_site_label_1
_geom_bond_atom_site_label_2
_geom_bond_site_symmetry_1
_geom_bond_site_symmetry_2
S1 C1 1_555 1_555
F1 B1 1_555 1_555
F2 B1 1_555 1_555
N1 C6 1_555 1_555
N2 C9 1_555 1_555
C1 C2 1_555 1_555
C2 H1 1_555 1_555
C3 C2 1_555 1_555
H2 C3 1_555 1_555
C4 C3 1_555 1_555
H3 C4 1_555 1_555
C5 C4 1_555 1_555
H4 C5 1_555 1_555
C6 C1 1_555 1_555
C7 S1 1_555 1_555
C8 C7 1_555 1_555
H5 C8 1_555 1_555
C9 C8 1_555 1_555
C10 C9 1_555 1_555
C11 C10 1_555 1_555
H6 C11 1_555 1_555
C12 C11 1_555 1_555
H7 C12 1_555 1_555
C13 C12 1_555 1_555
H8 C13 1_555 1_555
C14 C13 1_555 1_555
H9 C14 1_555 1_555
C15 C10 1_555 1_555
H10 C15 1_555 1_555
C16 N2 1_555 1_555
C17 C16 1_555 1_555
C18 C17 1_555 1_555
H11 C18 1_555 1_555
C19 C18 1_555 1_555
H12 C19 1_555 1_555
C20 C19 1_555 1_555
H13 C20 1_555 1_555
C21 C16 1_555 1_555
C22 C21 1_555 1_555
H14 C22 1_555 1_555
H15 C22 1_555 1_555
H16 C22 1_555 1_555
C23 C17 1_555 1_555
H17 C23 1_555 1_555
H18 C23 1_555 1_555
H19 C23 1_555 1_555
B1 N1 1_555 1_555
N1 C7 1_555 1_555
N2 B1 1_555 1_555
C5 C6 1_555 1_555
C14 C15 1_555 1_555
C20 C21 1_555 1_555

#END
