
#######################################################################
#
#                 Cambridge Crystallographic Data Centre
#                                CCDC 
#
#######################################################################
#
# If this CIF has been generated from an entry in the Cambridge 
# Structural Database, then it will include bibliographic, chemical, 
# crystal, experimental, refinement or atomic coordinate data resulting 
# from the CCDC's data processing and validation procedures.
#
#######################################################################

data_YOSBUF
_chemical_formula_moiety         'C20 H19 N1 O3'
_chemical_name_systematic        
"3-Phenyl-1'-propyl-3H-spiro[furan-2,3'-indole]-2',5(1'H,4H)-dione unknown solvate"
_symmetry_cell_setting           tetragonal
_symmetry_space_group_name_H-M   'P 42 21 2'
_symmetry_Int_Tables_number      94
_space_group_name_Hall           'P 4n 2n'
loop_
_symmetry_equiv_pos_site_id
_symmetry_equiv_pos_as_xyz
1 x,y,z
2 1/2-y,1/2+x,1/2+z
3 -x,-y,z
4 1/2+y,1/2-x,1/2+z
5 1/2+x,1/2-y,1/2-z
6 1/2-x,1/2+y,1/2-z
7 y,x,-z
8 -y,-x,-z
_cell_length_a                   15.41590(12)
_cell_length_b                   15.41590(12)
_cell_length_c                   15.6014(2)
_cell_angle_alpha                90
_cell_angle_beta                 90
_cell_angle_gamma                90
_cell_volume                     3707.67
_exptl_crystal_colour            colorless
_exptl_crystal_description       block
_cell_formula_units_Z            8
loop_
_atom_site_label
_atom_site_type_symbol
_atom_site_fract_x
_atom_site_fract_y
_atom_site_fract_z
O1 O 0.34962(15) 0.65128(13) 0.70150(13)
O2 O 0.35300(15) 0.51365(11) 0.92142(14)
O3 O 0.31561(10) 0.64761(9) 0.88553(11)
N1 N 0.29881(14) 0.79077(14) 0.72016(12)
C1 C 0.52646(19) 0.85032(19) 0.8288(2)
H1 H 0.5004 0.8735 0.8775
C2 C 0.5789(2) 0.9031(2) 0.7783(4)
H2 H 0.5869 0.9611 0.7927
C3 C 0.6187(2) 0.8694(3) 0.7078(3)
H3 H 0.6537 0.9042 0.6735
C4 C 0.60675(18) 0.7850(3) 0.6882(2)
H4 H 0.6352 0.7617 0.6409
C5 C 0.55303(16) 0.73215(19) 0.73689(17)
H5 H 0.5446 0.6746 0.7212
C6 C 0.51230(13) 0.76504(14) 0.80843(15)
C7 C 0.45261(13) 0.71168(13) 0.86414(15)
H6 H 0.4605 0.7317 0.9232
C8 C 0.46270(16) 0.61358(14) 0.86480(18)
H7 H 0.4766 0.5918 0.8081
H8 H 0.5076 0.5956 0.9046
C9 C 0.37448(16) 0.58273(14) 0.89365(17)
C10 C 0.35503(13) 0.72133(13) 0.84264(14)
C11 C 0.31457(14) 0.80579(13) 0.86571(14)
C12 C 0.30701(18) 0.84719(16) 0.94282(17)
H9 H 0.3273 0.8215 0.9929
C13 C 0.2684(2) 0.92841(18) 0.9448(2)
H10 H 0.2618 0.9568 0.9970
C14 C 0.2400(2) 0.96715(19) 0.8720(2)
H11 H 0.2156 1.0222 0.8749
C15 C 0.24675(19) 0.92631(17) 0.7939(2)
H12 H 0.2260 0.9525 0.7443
C16 C 0.28512(14) 0.84525(15) 0.79096(16)
C17 C 0.33539(15) 0.71408(15) 0.74588(15)
C18 C 0.2680(3) 0.8056(3) 0.6329(2)
H13 H 0.2244 0.8510 0.6338
H14 H 0.2408 0.7531 0.6118
C19 C 0.3403(5) 0.8318(4) 0.5716(3)
H15 H 0.3812 0.7841 0.5685
H16 H 0.3151 0.8385 0.5150
C20 C 0.3855(5) 0.9048(5) 0.5897(4)
H17 H 0.4256 0.9166 0.5441
H18 H 0.4169 0.8970 0.6423
H19 H 0.3461 0.9526 0.5957
loop_
_geom_bond_atom_site_label_1
_geom_bond_atom_site_label_2
_geom_bond_site_symmetry_1
_geom_bond_site_symmetry_2
O1 C17 1_555 1_555
O2 C9 1_555 1_555
O3 C9 1_555 1_555
N1 C16 1_555 1_555
C1 H1 1_555 1_555
C2 C1 1_555 1_555
H2 C2 1_555 1_555
C3 C2 1_555 1_555
H3 C3 1_555 1_555
C4 C3 1_555 1_555
H4 C4 1_555 1_555
C5 C4 1_555 1_555
H5 C5 1_555 1_555
C6 C1 1_555 1_555
C7 C6 1_555 1_555
H6 C7 1_555 1_555
C8 C7 1_555 1_555
H7 C8 1_555 1_555
H8 C8 1_555 1_555
C9 C8 1_555 1_555
C10 O3 1_555 1_555
C11 C10 1_555 1_555
C12 C11 1_555 1_555
H9 C12 1_555 1_555
C13 C12 1_555 1_555
H10 C13 1_555 1_555
C14 C13 1_555 1_555
H11 C14 1_555 1_555
C15 C14 1_555 1_555
H12 C15 1_555 1_555
C16 C11 1_555 1_555
C17 N1 1_555 1_555
C18 N1 1_555 1_555
H13 C18 1_555 1_555
H14 C18 1_555 1_555
C19 C18 1_555 1_555
H15 C19 1_555 1_555
H16 C19 1_555 1_555
C20 C19 1_555 1_555
H17 C20 1_555 1_555
H18 C20 1_555 1_555
H19 C20 1_555 1_555
C5 C6 1_555 1_555
C7 C10 1_555 1_555
C10 C17 1_555 1_555
C15 C16 1_555 1_555

#END
