
#######################################################################
#
#                 Cambridge Crystallographic Data Centre
#                                CCDC 
#
#######################################################################
#
# If this CIF has been generated from an entry in the Cambridge 
# Structural Database, then it will include bibliographic, chemical, 
# crystal, experimental, refinement or atomic coordinate data resulting 
# from the CCDC's data processing and validation procedures.
#
#######################################################################

data_YOVBUH
_chemical_formula_moiety         'C22 H26 N2 O1'
_chemical_name_systematic        
(E)-2-[(3,5-Di-t-butyl-2-hydroxybenzylidene)amino]benzonitrile
_symmetry_cell_setting           monoclinic
_symmetry_space_group_name_H-M   'P 21/c'
_symmetry_Int_Tables_number      14
_space_group_name_Hall           '-P 2ybc'
loop_
_symmetry_equiv_pos_site_id
_symmetry_equiv_pos_as_xyz
1 x,y,z
2 -x,1/2+y,1/2-z
3 -x,-y,-z
4 x,1/2-y,1/2+z
_cell_length_a                   27.9710(4)
_cell_length_b                   7.32780(11)
_cell_length_c                   29.7840(4)
_cell_angle_alpha                90
_cell_angle_beta                 104.5330(2)
_cell_angle_gamma                90
_cell_volume                     5909.37
_exptl_crystal_colour            yellow
_exptl_crystal_description       block
_cell_formula_units_Z            12
loop_
_atom_site_label
_atom_site_type_symbol
_atom_site_fract_x
_atom_site_fract_y
_atom_site_fract_z
O1 O 0.15087(5) 0.3744(2) 0.18806(5)
H1 H 0.1686(9) 0.398(4) 0.1684(8)
N1 N 0.16759(6) 0.4172(2) 0.10588(6)
N2 N 0.27218(8) 0.5702(4) 0.18410(8)
C1 C 0.08638(7) 0.4080(3) 0.11845(7)
C2 C 0.10180(7) 0.3837(3) 0.16714(7)
C3 C 0.06760(7) 0.3746(3) 0.19363(7)
C4 C 0.01780(7) 0.3800(3) 0.17000(7)
H4 H -0.0056 0.3731 0.1873
C5 C 0.00084(7) 0.3952(3) 0.12154(7)
C6 C 0.03561(7) 0.4134(3) 0.09736(7)
H5 H 0.0254 0.4301 0.0654
C7 C -0.05489(8) 0.3915(4) 0.09889(8)
C8 C -0.07643(9) 0.2160(5) 0.11300(10)
H6 H -0.0712 0.2130 0.1461
H7 H -0.0605 0.1129 0.1031
H8 H -0.1112 0.2115 0.0987
C9 C -0.07904(9) 0.5588(5) 0.11231(11)
H9 H -0.0643 0.6657 0.1028
H10 H -0.0745 0.5608 0.1453
H11 H -0.1137 0.5567 0.0974
C10 C -0.06546(8) 0.3877(4) 0.04606(8)
H12 H -0.0528 0.4968 0.0354
H13 H -0.1005 0.3808 0.0330
H14 H -0.0498 0.2832 0.0366
C11 C 0.08366(8) 0.3572(3) 0.24710(7)
C12 C 0.11144(8) 0.1771(4) 0.26034(8)
H15 H 0.0905 0.0771 0.2470
H16 H 0.1207 0.1650 0.2935
H17 H 0.1405 0.1764 0.2488
C13 C 0.11663(9) 0.5200(4) 0.26765(8)
H18 H 0.0988 0.6316 0.2589
H19 H 0.1457 0.5198 0.2561
H20 H 0.1260 0.5101 0.3008
C14 C 0.03994(8) 0.3589(3) 0.26913(7)
H21 H 0.0184 0.2586 0.2573
H22 H 0.0222 0.4715 0.2618
H23 H 0.0518 0.3475 0.3022
C15 C 0.12062(8) 0.4301(3) 0.09044(7)
H24 H 0.1081 0.4553 0.0591
C16 C 0.19925(8) 0.4445(3) 0.07622(8)
C17 C 0.24714(8) 0.5059(3) 0.09644(8)
C18 C 0.28038(9) 0.5363(3) 0.07005(10)
H25 H 0.3121 0.5777 0.0840
C19 C 0.26641(10) 0.5051(4) 0.02291(10)
H26 H 0.2886 0.5258 0.0048
C20 C 0.21944(9) 0.4430(4) 0.00270(9)
H27 H 0.2101 0.4226 -0.0291
C21 C 0.18616(8) 0.4108(3) 0.02871(8)
H28 H 0.1549 0.3664 0.0146
C22 C 0.26084(8) 0.5404(4) 0.14511(10)
O2 O 0.18374(5) 0.9439(2) -0.02043(5)
H2 H 0.1652(9) 0.925(4) 0.0006(9)
N3 N 0.16614(6) 0.9441(2) 0.06174(6)
N4 N 0.05724(8) 1.1104(3) -0.00802(8)
C23 C 0.24659(7) 0.9944(3) 0.04970(7)
C24 C 0.23205(7) 0.9758(3) 0.00082(7)
C25 C 0.26610(7) 0.9935(3) -0.02562(7)
C26 C 0.31490(7) 1.0267(3) -0.00171(7)
H29 H 0.3383 1.0369 -0.0189
C27 C 0.33121(7) 1.0459(3) 0.04689(7)
C28 C 0.29620(7) 1.0291(3) 0.07106(7)
H30 H 0.3057 1.0411 0.1032
C29 C 0.25076(8) 0.9747(3) -0.07914(7)
C30 C 0.29447(8) 1.0043(4) -0.10075(8)
H31 H 0.3198 0.9165 -0.0884
H32 H 0.3074 1.1252 -0.0936
H33 H 0.2836 0.9898 -0.1338
C31 C 0.23030(8) 0.7842(4) -0.09238(8)
H34 H 0.2549 0.6950 -0.0790
H35 H 0.2216 0.7721 -0.1255
H36 H 0.2015 0.7655 -0.0809
C32 C 0.21179(8) 1.1207(4) -0.10026(7)
H37 H 0.1837 1.1074 -0.0875
H38 H 0.2017 1.1055 -0.1333
H39 H 0.2258 1.2400 -0.0931
C33 C 0.38584(7) 1.0851(3) 0.06904(8)
C34 C 0.40101(8) 1.2618(4) 0.04893(9)
H40 H 0.3957 1.2494 0.0160
H41 H 0.4353 1.2857 0.0626
H42 H 0.3815 1.3612 0.0556
C35 C 0.39540(8) 1.1110(4) 0.12172(8)
H43 H 0.3764 1.2125 0.1280
H44 H 0.4299 1.1342 0.1347
H45 H 0.3859 1.0025 0.1353
C36 C 0.41687(8) 0.9228(4) 0.06066(9)
H46 H 0.4118 0.9037 0.0279
H47 H 0.4072 0.8154 0.0746
H48 H 0.4512 0.9474 0.0742
C37 C 0.21240(7) 0.9782(3) 0.07787(7)
H49 H 0.2242 0.9931 0.1097
C38 C 0.13442(7) 0.9239(3) 0.09128(7)
C39 C 0.14876(8) 0.8607(3) 0.13675(8)
H50 H 0.1817 0.8311 0.1496
C40 C 0.08411(8) 0.9640(3) 0.07310(8)
C41 C 0.05055(8) 0.9410(3) 0.09933(9)
H51 H 0.0174 0.9668 0.0866
C42 C 0.06576(9) 0.8799(3) 0.14438(9)
H52 H 0.0431 0.8648 0.1622
C43 C 0.11512(9) 0.8414(3) 0.16280(8)
H53 H 0.1257 0.8017 0.1934
C44 C 0.06939(8) 1.0420(4) 0.02734(9)
O3 O 0.48619(5) 0.9288(2) 0.35466(5)
H3 H 0.5055(9) 0.923(3) 0.3328(8)
N5 N 0.50291(6) 0.9533(2) 0.27211(6)
N6 N 0.60959(8) 1.1213(4) 0.34472(8)
C45 C 0.42247(7) 0.9779(3) 0.28519(7)
C46 C 0.37210(7) 1.0054(3) 0.26459(7)
H54 H 0.3621 1.0202 0.2326
C47 C 0.33720(7) 1.0114(3) 0.28913(7)
C48 C 0.35431(7) 0.9892(3) 0.33760(7)
H55 H 0.3311 0.9926 0.3551
C49 C 0.40353(7) 0.9625(3) 0.36098(7)
C50 C 0.43758(7) 0.9546(3) 0.33395(7)
C51 C 0.28202(7) 1.0428(3) 0.26768(8)
C52 C 0.27148(8) 1.0677(4) 0.21492(7)
H56 H 0.2810 0.9593 0.2013
H57 H 0.2900 1.1698 0.2081
H58 H 0.2369 1.0895 0.2024
C53 C 0.26556(8) 1.2169(4) 0.28790(9)
H59 H 0.2715 1.2047 0.3209
H60 H 0.2309 1.2363 0.2746
H61 H 0.2839 1.3191 0.2808
C54 C 0.25289(8) 0.8771(4) 0.27695(9)
H62 H 0.2591 0.8579 0.3098
H63 H 0.2630 0.7712 0.2627
H64 H 0.2183 0.8979 0.2641
C55 C 0.41951(8) 0.9427(3) 0.41447(7)
C56 C 0.37603(8) 0.9617(4) 0.43647(7)
H65 H 0.3520 0.8692 0.4243
H66 H 0.3613 1.0800 0.4294
H67 H 0.3875 0.9478 0.4695
C57 C 0.45652(8) 1.0928(4) 0.43532(7)
H68 H 0.4663 1.0794 0.4684
H69 H 0.4414 1.2101 0.4276
H70 H 0.4850 1.0830 0.4230
C58 C 0.44251(8) 0.7541(4) 0.42697(8)
H71 H 0.4189 0.6616 0.4136
H72 H 0.4518 0.7405 0.4601
H73 H 0.4712 0.7419 0.4150
C59 C 0.45650(7) 0.9795(3) 0.25691(7)
H74 H 0.4442 1.0009 0.2253
C60 C 0.53436(7) 0.9589(3) 0.24184(7)
C61 C 0.58307(8) 1.0150(3) 0.25981(8)
C62 C 0.61611(8) 1.0212(3) 0.23255(9)
H75 H 0.6485 1.0578 0.2453
C63 C 0.60124(9) 0.9730(3) 0.18625(9)
H76 H 0.6233 0.9785 0.1675
C64 C 0.55325(9) 0.9169(3) 0.16834(8)
H77 H 0.5430 0.8843 0.1372
C65 C 0.52018(8) 0.9078(3) 0.19529(7)
H78 H 0.4881 0.8674 0.1825
C66 C 0.59803(8) 1.0731(4) 0.30739(9)
loop_
_geom_bond_atom_site_label_1
_geom_bond_atom_site_label_2
_geom_bond_site_symmetry_1
_geom_bond_site_symmetry_2
O1 H1 1_555 1_555
O2 H2 1_555 1_555
O3 H3 1_555 1_555
N1 C15 1_555 1_555
N2 C22 1_555 1_555
N3 C37 1_555 1_555
N4 C44 1_555 1_555
N5 C59 1_555 1_555
N6 C66 1_555 1_555
C1 C2 1_555 1_555
C2 O1 1_555 1_555
C3 C2 1_555 1_555
C4 C3 1_555 1_555
H4 C4 1_555 1_555
C5 C4 1_555 1_555
C6 C1 1_555 1_555
H5 C6 1_555 1_555
C7 C5 1_555 1_555
C8 C7 1_555 1_555
H6 C8 1_555 1_555
H7 C8 1_555 1_555
H8 C8 1_555 1_555
C9 C7 1_555 1_555
H9 C9 1_555 1_555
H10 C9 1_555 1_555
H11 C9 1_555 1_555
C10 C7 1_555 1_555
H12 C10 1_555 1_555
H13 C10 1_555 1_555
H14 C10 1_555 1_555
C11 C3 1_555 1_555
C12 C11 1_555 1_555
H15 C12 1_555 1_555
H16 C12 1_555 1_555
H17 C12 1_555 1_555
C13 C11 1_555 1_555
H18 C13 1_555 1_555
H19 C13 1_555 1_555
H20 C13 1_555 1_555
C14 C11 1_555 1_555
H21 C14 1_555 1_555
H22 C14 1_555 1_555
H23 C14 1_555 1_555
C15 C1 1_555 1_555
H24 C15 1_555 1_555
C16 N1 1_555 1_555
C17 C16 1_555 1_555
C18 C17 1_555 1_555
H25 C18 1_555 1_555
C19 C18 1_555 1_555
H26 C19 1_555 1_555
C20 C19 1_555 1_555
H27 C20 1_555 1_555
C21 C16 1_555 1_555
H28 C21 1_555 1_555
C22 C17 1_555 1_555
C23 C24 1_555 1_555
C24 O2 1_555 1_555
C25 C24 1_555 1_555
C26 C25 1_555 1_555
H29 C26 1_555 1_555
C27 C26 1_555 1_555
C28 C23 1_555 1_555
H30 C28 1_555 1_555
C29 C25 1_555 1_555
C30 C29 1_555 1_555
H31 C30 1_555 1_555
H32 C30 1_555 1_555
H33 C30 1_555 1_555
C31 C29 1_555 1_555
H34 C31 1_555 1_555
H35 C31 1_555 1_555
H36 C31 1_555 1_555
C32 C29 1_555 1_555
H37 C32 1_555 1_555
H38 C32 1_555 1_555
H39 C32 1_555 1_555
C33 C27 1_555 1_555
C34 C33 1_555 1_555
H40 C34 1_555 1_555
H41 C34 1_555 1_555
H42 C34 1_555 1_555
C35 C33 1_555 1_555
H43 C35 1_555 1_555
H44 C35 1_555 1_555
H45 C35 1_555 1_555
C36 C33 1_555 1_555
H46 C36 1_555 1_555
H47 C36 1_555 1_555
H48 C36 1_555 1_555
C37 C23 1_555 1_555
H49 C37 1_555 1_555
C38 N3 1_555 1_555
C39 C38 1_555 1_555
H50 C39 1_555 1_555
C40 C38 1_555 1_555
C41 C40 1_555 1_555
H51 C41 1_555 1_555
C42 C41 1_555 1_555
H52 C42 1_555 1_555
C43 C39 1_555 1_555
H53 C43 1_555 1_555
C44 C40 1_555 1_555
C45 C46 1_555 1_555
C46 H54 1_555 1_555
C47 C46 1_555 1_555
C48 C47 1_555 1_555
H55 C48 1_555 1_555
C49 C48 1_555 1_555
C50 O3 1_555 1_555
C51 C47 1_555 1_555
C52 C51 1_555 1_555
H56 C52 1_555 1_555
H57 C52 1_555 1_555
H58 C52 1_555 1_555
C53 C51 1_555 1_555
H59 C53 1_555 1_555
H60 C53 1_555 1_555
H61 C53 1_555 1_555
C54 C51 1_555 1_555
H62 C54 1_555 1_555
H63 C54 1_555 1_555
H64 C54 1_555 1_555
C55 C49 1_555 1_555
C56 C55 1_555 1_555
H65 C56 1_555 1_555
H66 C56 1_555 1_555
H67 C56 1_555 1_555
C57 C55 1_555 1_555
H68 C57 1_555 1_555
H69 C57 1_555 1_555
H70 C57 1_555 1_555
C58 C55 1_555 1_555
H71 C58 1_555 1_555
H72 C58 1_555 1_555
H73 C58 1_555 1_555
C59 C45 1_555 1_555
H74 C59 1_555 1_555
C60 N5 1_555 1_555
C61 C60 1_555 1_555
C62 C61 1_555 1_555
H75 C62 1_555 1_555
C63 C62 1_555 1_555
H76 C63 1_555 1_555
C64 C63 1_555 1_555
H77 C64 1_555 1_555
C65 C60 1_555 1_555
H78 C65 1_555 1_555
C66 C61 1_555 1_555
C5 C6 1_555 1_555
C20 C21 1_555 1_555
C27 C28 1_555 1_555
C42 C43 1_555 1_555
C45 C50 1_555 1_555
C49 C50 1_555 1_555
C64 C65 1_555 1_555

#END
