
#######################################################################
#
#                 Cambridge Crystallographic Data Centre
#                                CCDC 
#
#######################################################################
#
# If this CIF has been generated from an entry in the Cambridge 
# Structural Database, then it will include bibliographic, chemical, 
# crystal, experimental, refinement or atomic coordinate data resulting 
# from the CCDC's data processing and validation procedures.
#
#######################################################################

data_YOVFAR
_chemical_name_common            
2,2'-Disulfanediylbis(4-(4-pyridinyl)pyrimidine)
_chemical_formula_moiety         'C18 H12 N6 S2'
_chemical_name_systematic        4,4'-Di-4-pyridyl-2,2'-dithiodipyrimidine
_symmetry_cell_setting           triclinic
_symmetry_space_group_name_H-M   'P -1'
_symmetry_Int_Tables_number      2
_space_group_name_Hall           '-P 1'
loop_
_symmetry_equiv_pos_site_id
_symmetry_equiv_pos_as_xyz
1 x,y,z
2 -x,-y,-z
_cell_length_a                   9.1060(8)
_cell_length_b                   9.3861(9)
_cell_length_c                   10.9176(10)
_cell_angle_alpha                84.228(1)
_cell_angle_beta                 74.926(1)
_cell_angle_gamma                72.983(1)
_cell_volume                     861.266
_exptl_crystal_colour            yellow
_exptl_crystal_description       block
_cell_formula_units_Z            2
_exptl_crystal_recrystallization_method dichloromethane
loop_
_atom_site_label
_atom_site_type_symbol
_atom_site_fract_x
_atom_site_fract_y
_atom_site_fract_z
S1 S 0.17317(7) 0.15307(5) 0.45673(4)
S2 S 0.04746(6) 0.10746(6) 0.34511(5)
N1 N 0.33888(18) -0.04716(16) 0.21420(13)
N2 N 0.23093(18) 0.39811(16) 0.49060(14)
C1 C 0.4305(2) -0.12822(18) 0.11230(16)
C2 C 0.1865(2) 0.00258(19) 0.21737(17)
C3 C 0.6028(2) -0.18393(19) 0.10565(16)
N3 N 0.1100(2) -0.01902(19) 0.13474(17)
N4 N 0.1638(2) 0.39133(19) 0.29373(16)
C4 C 0.7094(2) -0.2658(2) 0.00391(19)
H1 H 0.6733 -0.2889 -0.0618
C5 C 0.1901(2) 0.3355(2) 0.40474(17)
C6 C 0.6663(2) -0.1528(2) 0.19982(18)
H2 H 0.6009 -0.0976 0.2695
C7 C 0.2505(2) 0.53454(19) 0.45950(17)
C8 C 0.2986(2) 0.6052(2) 0.55342(17)
N5 N 0.9295(2) -0.2845(2) 0.09198(18)
C9 C 0.3575(2) 0.7282(2) 0.5210(2)
H3 H 0.3689 0.7692 0.4391
C10 C 0.8683(3) -0.3123(3) 0.0009(2)
H4 H 0.9372 -0.3662 -0.0684
C11 C 0.2021(2) -0.0998(2) 0.03537(19)
H5 H 0.1556 -0.1189 -0.0254
C12 C 0.2231(3) 0.6050(2) 0.3465(2)
H6 H 0.2337 0.7005 0.3253
C13 C 0.3641(2) -0.1563(2) 0.01909(19)
H7 H 0.4265 -0.2112 -0.0517
C14 C 0.8274(3) -0.2050(3) 0.1883(2)
H8 H 0.8673 -0.1831 0.2522
C15 C 0.2837(3) 0.5510(3) 0.6763(2)
H9 H 0.2450 0.4686 0.7018
N6 N 0.3860(3) 0.7375(2) 0.7322(2)
C16 C 0.1796(3) 0.5286(2) 0.2664(2)
H10 H 0.1605 0.5747 0.1904
C17 C 0.3989(3) 0.7884(3) 0.6135(2)
H11 H 0.4387 0.8704 0.5905
C18 C 0.3270(4) 0.6206(3) 0.7623(2)
H12 H 0.3142 0.5837 0.8455
loop_
_geom_bond_atom_site_label_1
_geom_bond_atom_site_label_2
_geom_bond_site_symmetry_1
_geom_bond_site_symmetry_2
S1 S2 1_555 1_555
S2 C2 1_555 1_555
N1 C1 1_555 1_555
N2 C5 1_555 1_555
C1 C3 1_555 1_555
C2 N1 1_555 1_555
C3 C4 1_555 1_555
N3 C2 1_555 1_555
N4 C5 1_555 1_555
C4 H1 1_555 1_555
C5 S1 1_555 1_555
C6 C3 1_555 1_555
H2 C6 1_555 1_555
C7 N2 1_555 1_555
C8 C7 1_555 1_555
N5 C10 1_555 1_555
C9 C8 1_555 1_555
H3 C9 1_555 1_555
C10 C4 1_555 1_555
H4 C10 1_555 1_555
C11 N3 1_555 1_555
H5 C11 1_555 1_555
C12 C7 1_555 1_555
H6 C12 1_555 1_555
C13 C1 1_555 1_555
H7 C13 1_555 1_555
C14 C6 1_555 1_555
H8 C14 1_555 1_555
C15 C8 1_555 1_555
H9 C15 1_555 1_555
N6 C17 1_555 1_555
C16 N4 1_555 1_555
H10 C16 1_555 1_555
C17 C9 1_555 1_555
H11 C17 1_555 1_555
C18 C15 1_555 1_555
H12 C18 1_555 1_555
N5 C14 1_555 1_555
C11 C13 1_555 1_555
C12 C16 1_555 1_555
N6 C18 1_555 1_555

#END
