
#######################################################################
#
#                 Cambridge Crystallographic Data Centre
#                                CCDC 
#
#######################################################################
#
# If this CIF has been generated from an entry in the Cambridge 
# Structural Database, then it will include bibliographic, chemical, 
# crystal, experimental, refinement or atomic coordinate data resulting 
# from the CCDC's data processing and validation procedures.
#
#######################################################################

data_YOVGIA
_chemical_formula_moiety         'C18 H18 F1 N3 O2'
_chemical_name_systematic        
(E)-2-(2-(4-Fluorobenzylidene)hydrazinocarbonyl)-N-isopropylbenzamide
_symmetry_cell_setting           monoclinic
_symmetry_space_group_name_H-M   'P 21/n'
_symmetry_Int_Tables_number      14
_space_group_name_Hall           '-P 2yn'
loop_
_symmetry_equiv_pos_site_id
_symmetry_equiv_pos_as_xyz
1 x,y,z
2 1/2-x,1/2+y,1/2-z
3 -x,-y,-z
4 1/2+x,1/2-y,1/2+z
_cell_length_a                   13.316(3)
_cell_length_b                   8.8904(18)
_cell_length_c                   14.102(3)
_cell_angle_alpha                90
_cell_angle_beta                 91.10(3)
_cell_angle_gamma                90
_cell_volume                     1669.15
_exptl_crystal_colour            colorless
_exptl_crystal_description       block
_cell_formula_units_Z            4
_exptl_crystal_recrystallization_method ethanol
loop_
_atom_site_label
_atom_site_type_symbol
_atom_site_fract_x
_atom_site_fract_y
_atom_site_fract_z
C1 C 0.62786(10) 0.87434(17) 0.48465(10)
C2 C 0.70864(10) 0.80962(16) 0.29308(10)
C3 C 0.72241(10) 0.78555(15) 0.47071(10)
C4 C 0.76143(10) 0.75512(15) 0.38154(10)
C5 C 0.85500(10) 0.68578(15) 0.37629(10)
H1 H 0.8819 0.6634 0.3160
C6 C 0.90921(11) 0.64909(16) 0.45774(11)
H2 H 0.9739 0.6050 0.4531
C7 C 0.86928(10) 0.67651(16) 0.54567(11)
H3 H 0.9057 0.6494 0.6017
C8 C 0.77595(10) 0.74366(16) 0.55190(10)
H4 H 0.7482 0.7613 0.6124
C9 C 0.44987(11) 0.65483(17) 0.36494(10)
H5 H 0.3990 0.7297 0.3628
C10 C 0.43139(10) 0.50842(17) 0.32041(10)
C11 C 0.35688(11) 0.49509(19) 0.24980(11)
H6 H 0.3173 0.5803 0.2331
C12 C 0.33975(12) 0.3594(2) 0.20378(12)
H7 H 0.2904 0.3510 0.1545
C13 C 0.39601(13) 0.2385(2) 0.23155(12)
C14 C 0.46863(12) 0.24391(18) 0.30209(11)
H8 H 0.5053 0.1565 0.3202
C15 C 0.48647(11) 0.38099(17) 0.34587(11)
H9 H 0.5371 0.3882 0.3940
C16 C 0.66213(10) 0.75633(16) 0.12683(10)
H10 H 0.6111 0.8369 0.1373
C17 C 0.60856(12) 0.61917(18) 0.08583(11)
H11 H 0.6574 0.5385 0.0758
H12 H 0.5762 0.6458 0.0251
H13 H 0.5576 0.5848 0.1301
C18 C 0.74105(11) 0.81707(18) 0.05991(11)
H14 H 0.7736 0.9053 0.0886
H15 H 0.7087 0.8457 -0.0004
H16 H 0.7915 0.7392 0.0486
F1 F 0.37958(8) 0.10376(12) 0.18747(7)
N1 N 0.53997(9) 0.82179(14) 0.44990(9)
N2 N 0.53387(8) 0.68275(13) 0.40673(8)
N3 N 0.70850(9) 0.71718(14) 0.21866(9)
O1 O 0.63114(7) 0.99350(11) 0.53105(7)
O2 O 0.66866(7) 0.93655(11) 0.29200(7)
H17 H 0.7381(11) 0.6294(17) 0.2210(11)
H18 H 0.4879(11) 0.8765(18) 0.4542(10)
loop_
_geom_bond_atom_site_label_1
_geom_bond_atom_site_label_2
_geom_bond_site_symmetry_1
_geom_bond_site_symmetry_2
C1 C3 1_555 1_555
C2 C4 1_555 1_555
C3 C4 1_555 1_555
C4 C5 1_555 1_555
C5 H1 1_555 1_555
C6 C5 1_555 1_555
H2 C6 1_555 1_555
C7 C6 1_555 1_555
H3 C7 1_555 1_555
C8 C3 1_555 1_555
H4 C8 1_555 1_555
C9 H5 1_555 1_555
C10 C9 1_555 1_555
C11 C10 1_555 1_555
H6 C11 1_555 1_555
C12 C11 1_555 1_555
H7 C12 1_555 1_555
C13 C12 1_555 1_555
C14 C13 1_555 1_555
H8 C14 1_555 1_555
C15 C10 1_555 1_555
H9 C15 1_555 1_555
C16 H10 1_555 1_555
C17 C16 1_555 1_555
H11 C17 1_555 1_555
H12 C17 1_555 1_555
H13 C17 1_555 1_555
C18 C16 1_555 1_555
H14 C18 1_555 1_555
H15 C18 1_555 1_555
H16 C18 1_555 1_555
F1 C13 1_555 1_555
N1 C1 1_555 1_555
N2 C9 1_555 1_555
N3 C2 1_555 1_555
O1 C1 1_555 1_555
O2 C2 1_555 1_555
H17 N3 1_555 1_555
H18 N1 1_555 1_555
C7 C8 1_555 1_555
C14 C15 1_555 1_555
C16 N3 1_555 1_555
N1 N2 1_555 1_555

#END
