
#######################################################################
#
#                 Cambridge Crystallographic Data Centre
#                                CCDC 
#
#######################################################################
#
# If this CIF has been generated from an entry in the Cambridge 
# Structural Database, then it will include bibliographic, chemical, 
# crystal, experimental, refinement or atomic coordinate data resulting 
# from the CCDC's data processing and validation procedures.
#
#######################################################################

data_YOVHOH
_chemical_name_common            'Phenyl N-(p-tolyl)carbamate'
_chemical_formula_moiety         'C14 H13 N1 O2'
_chemical_name_systematic        'Phenyl (4-methylphenyl)carbamate'
_symmetry_cell_setting           triclinic
_symmetry_space_group_name_H-M   'P -1'
_symmetry_Int_Tables_number      2
_space_group_name_Hall           '-P 1'
loop_
_symmetry_equiv_pos_site_id
_symmetry_equiv_pos_as_xyz
1 x,y,z
2 -x,-y,-z
_cell_length_a                   8.7790(18)
_cell_length_b                   9.7470(19)
_cell_length_c                   15.121(3)
_cell_angle_alpha                87.30(3)
_cell_angle_beta                 77.07(3)
_cell_angle_gamma                75.00(3)
_cell_volume                     1218.03
_exptl_crystal_colour            colorless
_exptl_crystal_description       block
_cell_formula_units_Z            4
_exptl_crystal_recrystallization_method 'petroleum ether'
loop_
_atom_site_label
_atom_site_type_symbol
_atom_site_fract_x
_atom_site_fract_y
_atom_site_fract_z
O1 O 0.2677(3) 0.48473(18) 0.79602(12)
O2 O 0.2281(2) 0.27924(16) 0.86169(11)
N1 N 0.2453(3) 0.4652(2) 0.94342(13)
H1 H 0.2456 0.5534 0.9383
C1 C 0.2787(4) 0.2204(4) 1.2922(2)
H3 H 0.3382 0.2673 1.3213
H4 H 0.3329 0.1212 1.2845
H5 H 0.1718 0.2311 1.3290
C2 C 0.2677(4) 0.2855(3) 1.20065(18)
C3 C 0.3342(3) 0.3980(3) 1.16953(19)
H6 H 0.3871 0.4341 1.2061
C4 C 0.3240(3) 0.4578(3) 1.08582(17)
H7 H 0.3684 0.5340 1.0670
C5 C 0.2476(3) 0.4040(2) 1.02999(16)
C6 C 0.1754(3) 0.2940(3) 1.06131(17)
H8 H 0.1191 0.2597 1.0259
C7 C 0.1882(4) 0.2367(3) 1.14483(18)
H9 H 0.1413 0.1622 1.1645
C8 C 0.2428(3) 0.3982(2) 0.86860(16)
C9 C 0.2452(4) 0.4455(2) 0.71360(17)
C10 C 0.0941(4) 0.4490(3) 0.7028(2)
H10 H 0.0059 0.4701 0.7518
C11 C 0.0741(5) 0.4207(3) 0.6182(3)
H11 H -0.0279 0.4216 0.6098
C12 C 0.2045(6) 0.3912(3) 0.5469(2)
H12 H 0.1902 0.3734 0.4899
C13 C 0.3554(5) 0.3876(3) 0.5580(2)
H13 H 0.4439 0.3659 0.5092
C14 C 0.3751(4) 0.4166(3) 0.6428(2)
H14 H 0.4769 0.4164 0.6513
O3 O 0.2572(2) 0.76205(16) 0.89540(11)
O4 O 0.2965(2) 0.94932(16) 0.96266(10)
N2 N 0.2903(2) 0.96349(19) 0.81800(12)
H2 H 0.3101 1.0436 0.8255
C15 C 0.2199(4) 0.8740(3) 0.45921(18)
H15 H 0.1840 0.7895 0.4568
H16 H 0.3217 0.8649 0.4171
H17 H 0.1416 0.9544 0.4434
C16 C 0.2396(3) 0.8946(3) 0.55416(17)
C17 C 0.2895(4) 1.0104(3) 0.57645(18)
H18 H 0.3120 1.0758 0.5318
C18 C 0.3062(3) 1.0305(3) 0.66276(17)
H19 H 0.3396 1.1090 0.6756
C19 C 0.2739(3) 0.9354(2) 0.73064(15)
C20 C 0.2257(4) 0.8183(3) 0.70921(17)
H20 H 0.2045 0.7521 0.7535
C21 C 0.2095(4) 0.8008(3) 0.62212(18)
H21 H 0.1769 0.7220 0.6090
C22 C 0.2787(3) 0.8796(2) 0.89110(15)
C23 C 0.2708(3) 0.8880(2) 1.04888(15)
C24 C 0.3933(3) 0.8655(3) 1.09414(17)
H22 H 0.4928 0.8812 1.0660
C25 C 0.3663(3) 0.8190(3) 1.18239(17)
H23 H 0.4482 0.8031 1.2143
C26 C 0.2183(3) 0.7959(3) 1.22356(17)
H24 H 0.2004 0.7656 1.2834
C27 C 0.0979(3) 0.8173(3) 1.17687(17)
H25 H -0.0010 0.7998 1.2046
C28 C 0.1224(3) 0.8648(2) 1.08853(16)
H26 H 0.0405 0.8808 1.0566
loop_
_geom_bond_atom_site_label_1
_geom_bond_atom_site_label_2
_geom_bond_site_symmetry_1
_geom_bond_site_symmetry_2
O1 C8 1_555 1_555
O2 C8 1_555 1_555
O3 C22 1_555 1_555
O4 C22 1_555 1_555
N1 H1 1_555 1_555
N2 H2 1_555 1_555
C1 H3 1_555 1_555
H4 C1 1_555 1_555
H5 C1 1_555 1_555
C2 C1 1_555 1_555
C3 C2 1_555 1_555
H6 C3 1_555 1_555
C4 C3 1_555 1_555
H7 C4 1_555 1_555
C5 N1 1_555 1_555
C6 C5 1_555 1_555
H8 C6 1_555 1_555
C7 C2 1_555 1_555
H9 C7 1_555 1_555
C8 N1 1_555 1_555
C9 O1 1_555 1_555
C10 C9 1_555 1_555
H10 C10 1_555 1_555
C11 C10 1_555 1_555
H11 C11 1_555 1_555
C12 C11 1_555 1_555
H12 C12 1_555 1_555
C13 C12 1_555 1_555
H13 C13 1_555 1_555
C14 C9 1_555 1_555
H14 C14 1_555 1_555
C15 H15 1_555 1_555
H16 C15 1_555 1_555
H17 C15 1_555 1_555
C16 C15 1_555 1_555
C17 C16 1_555 1_555
H18 C17 1_555 1_555
C18 C17 1_555 1_555
H19 C18 1_555 1_555
C19 N2 1_555 1_555
C20 C19 1_555 1_555
H20 C20 1_555 1_555
C21 C16 1_555 1_555
H21 C21 1_555 1_555
C22 N2 1_555 1_555
C23 O4 1_555 1_555
C24 C23 1_555 1_555
H22 C24 1_555 1_555
C25 C24 1_555 1_555
H23 C25 1_555 1_555
C26 C25 1_555 1_555
H24 C26 1_555 1_555
C27 C26 1_555 1_555
H25 C27 1_555 1_555
C28 C23 1_555 1_555
H26 C28 1_555 1_555
C4 C5 1_555 1_555
C6 C7 1_555 1_555
C13 C14 1_555 1_555
C18 C19 1_555 1_555
C20 C21 1_555 1_555
C27 C28 1_555 1_555

#END
