
#######################################################################
#
#                 Cambridge Crystallographic Data Centre
#                                CCDC 
#
#######################################################################
#
# If this CIF has been generated from an entry in the Cambridge 
# Structural Database, then it will include bibliographic, chemical, 
# crystal, experimental, refinement or atomic coordinate data resulting 
# from the CCDC's data processing and validation procedures.
#
#######################################################################

data_YOVKEB
_chemical_formula_moiety         'C16 H17 Cl1 O4 S1'
_chemical_name_systematic        
1-(4-chlorophenyl)-2-((2-hydroxy-2-phenylethyl)sulfonyl)ethanol
_symmetry_cell_setting           monoclinic
_symmetry_space_group_name_H-M   'P 21'
_symmetry_Int_Tables_number      4
_space_group_name_Hall           'P 2yb'
loop_
_symmetry_equiv_pos_site_id
_symmetry_equiv_pos_as_xyz
1 x,y,z
2 -x,1/2+y,-z
_cell_length_a                   11.4195(8)
_cell_length_b                   5.8351(4)
_cell_length_c                   12.0919(6)
_cell_angle_alpha                90
_cell_angle_beta                 97.216(6)
_cell_angle_gamma                90
_cell_volume                     799.349
_exptl_crystal_colour            colorless
_exptl_crystal_description       block
_cell_formula_units_Z            2
loop_
_atom_site_label
_atom_site_type_symbol
_atom_site_fract_x
_atom_site_fract_y
_atom_site_fract_z
Cl1 Cl 0.15533(11) 1.0458(2) 1.15202(8)
S1 S 0.16704(8) 0.93963(16) 0.45775(7)
O1 O 0.1628(2) 0.5660(5) 0.6494(2)
H1 H 0.099(3) 0.502(10) 0.618(4)
O2 O 0.4562(7) 0.7873(16) 0.4928(6)
O3 O 0.1966(3) 1.1567(5) 0.4137(2)
O4 O 0.0464(2) 0.8616(5) 0.4333(2)
C1 C 0.2045(3) 0.9535(8) 0.6054(3)
H2 H 0.2868 0.9115 0.6243
H3 H 0.1951 1.1099 0.6300
C2 C 0.1282(3) 0.7953(6) 0.6670(3)
H4 H 0.0457 0.8141 0.6347
C3 C 0.1388(3) 0.8565(6) 0.7896(3)
C4 C 0.1912(3) 0.7114(7) 0.8710(3)
H5 H 0.2220 0.5721 0.8508
C5 C 0.1988(4) 0.7708(8) 0.9834(3)
H6 H 0.2357 0.6734 1.0379
C6 C 0.1517(3) 0.9719(8) 1.0122(3)
C7 C 0.0997(3) 1.1214(7) 0.9337(3)
H7 H 0.0696 1.2608 0.9546
C8 C 0.0929(3) 1.0596(7) 0.8221(3)
H8 H 0.0563 1.1583 0.7680
C9 C 0.2538(3) 0.7231(6) 0.4029(3)
H9 H 0.2555 0.5893 0.4507
H10 H 0.2155 0.6790 0.3298
C10 C 0.3794(3) 0.7925(7) 0.3923(3)
H11 H 0.3745 0.9544 0.3708
C11 C 0.4294(3) 0.6733(7) 0.2984(3)
C12 C 0.3897(4) 0.4640(8) 0.2539(3)
H12 H 0.3303 0.3864 0.2845
C13 C 0.4373(4) 0.3699(9) 0.1651(4)
H13 H 0.4076 0.2317 0.1352
C14 C 0.5258(4) 0.4734(12) 0.1206(5)
H14 H 0.5566 0.4079 0.0603
C15 C 0.5686(4) 0.6697(13) 0.1636(5)
H15 H 0.6312 0.7383 0.1338
C16 C 0.5229(4) 0.7765(9) 0.2518(4)
H16 H 0.5542 0.9150 0.2797
O5? O 0.4458(8) 0.7161(17) 0.4984(6)
loop_
_geom_bond_atom_site_label_1
_geom_bond_atom_site_label_2
_geom_bond_site_symmetry_1
_geom_bond_site_symmetry_2
Cl1 C6 1_555 1_555
S1 O3 1_555 1_555
O1 H1 1_555 1_555
O2 C10 1_555 1_555
O4 S1 1_555 1_555
C1 S1 1_555 1_555
H2 C1 1_555 1_555
H3 C1 1_555 1_555
C2 O1 1_555 1_555
H4 C2 1_555 1_555
C3 C2 1_555 1_555
C4 C3 1_555 1_555
H5 C4 1_555 1_555
C5 C4 1_555 1_555
H6 C5 1_555 1_555
C6 C5 1_555 1_555
C7 C6 1_555 1_555
H7 C7 1_555 1_555
C8 C3 1_555 1_555
H8 C8 1_555 1_555
C9 S1 1_555 1_555
H9 C9 1_555 1_555
H10 C9 1_555 1_555
C10 C9 1_555 1_555
H11 C10 1_555 1_555
C11 C10 1_555 1_555
C12 C11 1_555 1_555
H12 C12 1_555 1_555
C13 C12 1_555 1_555
H13 C13 1_555 1_555
C14 C13 1_555 1_555
H14 C14 1_555 1_555
C15 C14 1_555 1_555
H15 C15 1_555 1_555
C16 C11 1_555 1_555
H16 C16 1_555 1_555
C1 C2 1_555 1_555
C7 C8 1_555 1_555
C15 C16 1_555 1_555

#END
