
#######################################################################
#
#                 Cambridge Crystallographic Data Centre
#                                CCDC 
#
#######################################################################
#
# If this CIF has been generated from an entry in the Cambridge 
# Structural Database, then it will include bibliographic, chemical, 
# crystal, experimental, refinement or atomic coordinate data resulting 
# from the CCDC's data processing and validation procedures.
#
#######################################################################

data_YOVNON
_chemical_formula_moiety         'C15 H12 N2 O2'
_chemical_name_systematic        
(E)-3-(2-Hydroxy-4-methoxybenzylideneamino)benzonitrile
_symmetry_cell_setting           monoclinic
_symmetry_space_group_name_H-M   'C 2/c'
_symmetry_Int_Tables_number      15
_space_group_name_Hall           '-C 2yn'
loop_
_symmetry_equiv_pos_site_id
_symmetry_equiv_pos_as_xyz
1 x,y,z
2 -x,y,1/2-z
3 1/2+x,1/2+y,z
4 1/2-x,1/2+y,1/2-z
5 -x,-y,-z
6 x,-y,1/2+z
7 1/2-x,1/2-y,-z
8 1/2+x,1/2-y,1/2+z
_cell_length_a                   14.484(3)
_cell_length_b                   6.6587(13)
_cell_length_c                   26.461(5)
_cell_angle_alpha                90
_cell_angle_beta                 102.14(3)
_cell_angle_gamma                90
_cell_volume                     2494.95
_exptl_crystal_colour            yellow
_exptl_crystal_description       prism
_cell_formula_units_Z            8
loop_
_atom_site_label
_atom_site_type_symbol
_atom_site_fract_x
_atom_site_fract_y
_atom_site_fract_z
O1 O 0.60788(11) -0.3053(2) 0.21473(6)
H1 H 0.602(2) -0.228(4) 0.2426(12)
O2 O 0.70583(11) -0.2132(2) 0.05513(6)
N1 N 0.61594(10) 0.0051(2) 0.27458(6)
N2 N 0.56309(17) -0.2127(4) 0.47862(8)
C1 C 0.66562(12) 0.0183(3) 0.19441(7)
C2 C 0.64330(13) -0.1851(3) 0.18223(7)
C3 C 0.65629(13) -0.2662(3) 0.13598(7)
H2 H 0.6414 -0.4001 0.1282
C4 C 0.69136(13) -0.1477(3) 0.10142(7)
C5 C 0.71476(14) 0.0530(3) 0.11294(8)
H3 H 0.7387 0.1320 0.0897
C6 C 0.70216(14) 0.1324(3) 0.15864(8)
H4 H 0.7183 0.2658 0.1662
C7 C 0.67817(16) -0.4139(4) 0.03934(8)
H5 H 0.6926 -0.4398 0.0062
H6 H 0.6115 -0.4292 0.0371
H7 H 0.7118 -0.5072 0.0642
C8 C 0.64973(12) 0.1077(3) 0.24112(7)
H8 H 0.6641 0.2427 0.2475
C9 C 0.59329(12) 0.0935(3) 0.31897(7)
C10 C 0.59023(13) -0.0336(3) 0.35993(7)
H9 H 0.6050 -0.1687 0.3575
C11 C 0.56549(13) 0.0373(3) 0.40448(7)
C12 C 0.54203(14) 0.2386(3) 0.40845(8)
H10 H 0.5251 0.2869 0.4382
C13 C 0.54431(14) 0.3653(3) 0.36748(8)
H11 H 0.5288 0.5001 0.3697
C14 C 0.56938(14) 0.2945(3) 0.32322(8)
H12 H 0.5703 0.3820 0.2959
C15 C 0.56360(16) -0.1001(4) 0.44628(9)
loop_
_geom_bond_atom_site_label_1
_geom_bond_atom_site_label_2
_geom_bond_site_symmetry_1
_geom_bond_site_symmetry_2
O1 H1 1_555 1_555
O2 C4 1_555 1_555
N1 C8 1_555 1_555
N2 C15 1_555 1_555
C1 C2 1_555 1_555
C2 O1 1_555 1_555
C3 C2 1_555 1_555
H2 C3 1_555 1_555
C4 C3 1_555 1_555
C5 C4 1_555 1_555
H3 C5 1_555 1_555
C6 C1 1_555 1_555
H4 C6 1_555 1_555
C7 O2 1_555 1_555
H5 C7 1_555 1_555
H6 C7 1_555 1_555
H7 C7 1_555 1_555
C8 C1 1_555 1_555
H8 C8 1_555 1_555
C9 N1 1_555 1_555
C10 C9 1_555 1_555
H9 C10 1_555 1_555
C11 C10 1_555 1_555
C12 C11 1_555 1_555
H10 C12 1_555 1_555
C13 C12 1_555 1_555
H11 C13 1_555 1_555
C14 C9 1_555 1_555
H12 C14 1_555 1_555
C15 C11 1_555 1_555
C5 C6 1_555 1_555
C13 C14 1_555 1_555

#END
