
#######################################################################
#
#                 Cambridge Crystallographic Data Centre
#                                CCDC 
#
#######################################################################
#
# If this CIF has been generated from an entry in the Cambridge 
# Structural Database, then it will include bibliographic, chemical, 
# crystal, experimental, refinement or atomic coordinate data resulting 
# from the CCDC's data processing and validation procedures.
#
#######################################################################

data_YOVYUF
_chemical_formula_moiety         'C20 H18 N4 O2'
_chemical_name_systematic        
N,N'-1,3-phenylenebis(1-(6-methoxypyridin-2-yl)methanimine)
_symmetry_cell_setting           monoclinic
_symmetry_space_group_name_H-M   'P 21/c'
_symmetry_Int_Tables_number      14
_space_group_name_Hall           '-P 2ybc'
loop_
_symmetry_equiv_pos_site_id
_symmetry_equiv_pos_as_xyz
1 x,y,z
2 -x,1/2+y,1/2-z
3 -x,-y,-z
4 x,1/2-y,1/2+z
_cell_length_a                   17.335(4)
_cell_length_b                   13.207(3)
_cell_length_c                   7.7439(15)
_cell_angle_alpha                90
_cell_angle_beta                 94.11(3)
_cell_angle_gamma                90
_cell_volume                     1768.35
_exptl_crystal_colour            yellow
_exptl_crystal_description       block
_cell_formula_units_Z            4
loop_
_atom_site_label
_atom_site_type_symbol
_atom_site_fract_x
_atom_site_fract_y
_atom_site_fract_z
C1 C -0.10436(17) 1.50169(19) 0.0794(4)
H1 H -0.1328 1.5635 0.0888
H2 H -0.0911 1.4929 -0.0379
H3 H -0.0579 1.5046 0.1547
C2 C -0.11902(13) 1.32425(18) 0.1221(3)
C3 C -0.16628(14) 1.24396(19) 0.1636(3)
H4 H -0.2159 1.2550 0.1977
C4 C -0.13689(14) 1.14772(19) 0.1522(3)
H5 H -0.1667 1.0921 0.1787
C5 C -0.06250(13) 1.13403(18) 0.1009(3)
H6 H -0.0420 1.0694 0.0905
C6 C -0.01969(13) 1.21863(16) 0.0658(3)
C7 C 0.06080(13) 1.21405(17) 0.0212(3)
H7 H 0.0858 1.2744 -0.0012
C8 C 0.17731(12) 1.13662(16) -0.0274(3)
C9 C 0.20634(14) 1.20858(17) -0.1372(3)
H8 H 0.1734 1.2563 -0.1913
C10 C 0.28408(14) 1.20906(17) -0.1655(3)
H9 H 0.3033 1.2575 -0.2384
C11 C 0.33379(13) 1.13811(16) -0.0864(3)
H10 H 0.3863 1.1399 -0.1043
C12 C 0.30517(12) 1.06439(15) 0.0193(3)
C13 C 0.22674(12) 1.06324(15) 0.0483(3)
H11 H 0.2073 1.0135 0.1183
C14 C 0.34080(13) 0.90016(17) 0.0966(3)
H12 H 0.2929 0.8806 0.0454
C15 C 0.39293(12) 0.82200(16) 0.1728(3)
C16 C 0.46176(13) 0.84499(17) 0.2660(3)
H13 H 0.4763 0.9119 0.2872
C17 C 0.50845(14) 0.76570(18) 0.3268(3)
H14 H 0.5549 0.7788 0.3904
C18 C 0.48588(14) 0.66781(19) 0.2927(3)
H15 H 0.5167 0.6136 0.3314
C19 C 0.41542(13) 0.65202(16) 0.1982(3)
C20 C 0.32221(17) 0.5365(2) 0.0708(4)
H16 H 0.3142 0.4650 0.0574
H17 H 0.3227 0.5676 -0.0412
H18 H 0.2812 0.5651 0.1321
O1 O -0.15083(10) 1.41817(12) 0.1281(3)
O2 O 0.39487(11) 0.55441(11) 0.1668(2)
N1 N -0.04753(11) 1.31442(14) 0.0763(3)
N2 N 0.09833(11) 1.13168(14) 0.0115(3)
N3 N 0.35865(10) 0.99369(14) 0.0979(2)
N4 N 0.36840(11) 0.72560(13) 0.1418(2)
loop_
_geom_bond_atom_site_label_1
_geom_bond_atom_site_label_2
_geom_bond_site_symmetry_1
_geom_bond_site_symmetry_2
C1 H1 1_555 1_555
H2 C1 1_555 1_555
H3 C1 1_555 1_555
C2 C3 1_555 1_555
C3 H4 1_555 1_555
C4 C3 1_555 1_555
H5 C4 1_555 1_555
C5 C4 1_555 1_555
H6 C5 1_555 1_555
C6 C5 1_555 1_555
C7 C6 1_555 1_555
H7 C7 1_555 1_555
C8 C9 1_555 1_555
C9 H8 1_555 1_555
C10 C9 1_555 1_555
H9 C10 1_555 1_555
C11 C10 1_555 1_555
H10 C11 1_555 1_555
C12 C11 1_555 1_555
C13 C8 1_555 1_555
H11 C13 1_555 1_555
C14 H12 1_555 1_555
C15 C14 1_555 1_555
C16 C15 1_555 1_555
H13 C16 1_555 1_555
C17 C16 1_555 1_555
H14 C17 1_555 1_555
C18 C17 1_555 1_555
H15 C18 1_555 1_555
C19 C18 1_555 1_555
C20 H16 1_555 1_555
H17 C20 1_555 1_555
H18 C20 1_555 1_555
O1 C1 1_555 1_555
O2 C19 1_555 1_555
N1 C2 1_555 1_555
N2 C7 1_555 1_555
N3 C12 1_555 1_555
N4 C15 1_555 1_555
C2 O1 1_555 1_555
C6 N1 1_555 1_555
C8 N2 1_555 1_555
C12 C13 1_555 1_555
C14 N3 1_555 1_555
C19 N4 1_555 1_555
C20 O2 1_555 1_555

#END
