
#######################################################################
#
#                 Cambridge Crystallographic Data Centre
#                                CCDC 
#
#######################################################################
#
# If this CIF has been generated from an entry in the Cambridge 
# Structural Database, then it will include bibliographic, chemical, 
# crystal, experimental, refinement or atomic coordinate data resulting 
# from the CCDC's data processing and validation procedures.
#
#######################################################################

data_YOWGIC
_chemical_formula_moiety         'C30 H26 Cl2 N2 O4'
_chemical_name_systematic        
"t-butyl 1-benzyl-3',5-dichloro-2,6'-dioxo-4'-phenyl-1,2,3',6'-tetrahydro-1'H-spiro[indole-3,2'-pyridine]-1'-carboxylate"
_symmetry_cell_setting           monoclinic
_symmetry_space_group_name_H-M   'P 21'
_symmetry_Int_Tables_number      4
_space_group_name_Hall           'P 2yb'
loop_
_symmetry_equiv_pos_site_id
_symmetry_equiv_pos_as_xyz
1 x,y,z
2 -x,1/2+y,-z
_cell_length_a                   10.3992(11)
_cell_length_b                   9.4767(8)
_cell_length_c                   14.0147(13)
_cell_angle_alpha                90
_cell_angle_beta                 108.955(5)
_cell_angle_gamma                90
_cell_volume                     1306.26
_exptl_crystal_colour            colorless
_exptl_crystal_description       plate
_cell_formula_units_Z            2
loop_
_atom_site_label
_atom_site_type_symbol
_atom_site_fract_x
_atom_site_fract_y
_atom_site_fract_z
C1 C 0.8732(14) 0.3088(14) 0.0490(9)
C2 C 0.7995(17) 0.4363(14) -0.0064(9)
H1 H 0.7015 0.4245 -0.0203
H2 H 0.8183 0.4468 -0.0702
H3 H 0.8307 0.5206 0.0351
C3 C 1.0255(10) 0.3216(16) 0.0730(8)
H4 H 1.0578 0.4072 0.1128
H5 H 1.0472 0.3269 0.0101
H6 H 1.0702 0.2389 0.1118
C4 C 0.8164(13) 0.1767(13) -0.0093(8)
H7 H 0.8736 0.096 0.0218
H8 H 0.8149 0.1873 -0.0792
H9 H 0.7237 0.161 -0.0083
C5 C 0.7665(5) 0.1633(5) 0.3346(4)
C6 C 0.7264(5) 0.2125(5) 0.4199(3)
H10 H 0.663 0.1569 0.4393
C7 C 0.7730(4) 0.3309(5) 0.4727(3)
C8 C 0.8848(5) 0.4087(5) 0.4482(3)
H11 H 0.8805 0.5105 0.4657
C9 C 0.8702(5) 0.3980(5) 0.3362(3)
C10 C 0.7446(4) 0.4923(5) 0.2820(3)
C11 C 0.9325(5) 0.6076(5) 0.2717(3)
C12 C 1.0140(5) 0.7070(5) 0.2472(3)
H12 H 0.9792 0.7962 0.2199
C13 C 1.1497(5) 0.6705(5) 0.2646(3)
H13 H 1.2093 0.7367 0.2499
C14 C 1.1985(5) 0.5397(5) 0.3027(3)
C15 C 1.1172(5) 0.4415(5) 0.3301(3)
H14 H 1.1525 0.3532 0.3592
C16 C 0.9830(4) 0.4778(5) 0.3133(3)
C17 C 0.8780(5) 0.2120(5) 0.2122(4)
C18 C 0.7172(5) 0.3887(5) 0.5485(3)
C19 C 0.5883(5) 0.3487(6) 0.5483(4)
H15 H 0.5366 0.2838 0.499
C20 C 0.5347(6) 0.4020(6) 0.6188(4)
H16 H 0.4466 0.3737 0.6178
C21 C 0.6085(6) 0.4963(7) 0.6911(4)
H17 H 0.5718 0.5317 0.7402
C22 C 0.7348(6) 0.5387(6) 0.6917(4)
H18 H 0.7851 0.6042 0.7411
C23 C 0.7903(5) 0.4868(6) 0.6207(3)
H19 H 0.8774 0.5177 0.6211
C24 C 0.7035(5) 0.7364(5) 0.2136(3)
H20 H 0.7535 0.8252 0.2381
H21 H 0.6236 0.7343 0.2373
C25 C 0.6549(5) 0.7363(5) 0.1000(3)
C26 C 0.5599(5) 0.6382(6) 0.0462(4)
H22 H 0.5275 0.568 0.0811
C27 C 0.5121(6) 0.6424(7) -0.0586(4)
H23 H 0.4472 0.5748 -0.095
C28 C 0.5576(5) 0.7427(6) -0.1098(4)
H24 H 0.5237 0.7455 -0.1814
C29 C 0.6527(5) 0.8396(6) -0.0575(4)
H25 H 0.6858 0.9081 -0.0933
C30 C 0.7007(5) 0.8381(6) 0.0470(3)
H26 H 0.7651 0.9067 0.0826
Cl1 Cl 1.04610(12) 0.33714(13) 0.52687(8)
Cl2 Cl 1.36563(12) 0.49729(15) 0.31689(10)
N1 N 0.8521(4) 0.2518(4) 0.3027(3)
N2 N 0.7921(4) 0.6165(4) 0.2576(3)
O1 O 0.7232(4) 0.0534(3) 0.2917(3)
O2 O 0.6265(3) 0.4629(3) 0.2685(2)
O3 O 0.9243(5) 0.1000(4) 0.2015(3)
O4 O 0.8446(3) 0.3167(3) 0.1465(2)
C31? C 0.880(2) 0.315(2) 0.0514(14)
C32? C 0.876(2) 0.4671(15) 0.0201(12)
H27? H 0.7865 0.5068 0.0126
H28? H 0.8937 0.4736 -0.0444
H29? H 0.946 0.5201 0.0716
C33? C 1.017(2) 0.247(3) 0.0658(16)
H30? H 1.0868 0.2957 0.1196
H31? H 1.038 0.2528 0.0028
H32? H 1.0132 0.1473 0.0843
C34? C 0.767(2) 0.232(2) -0.0221(15)
H33? H 0.7679 0.1352 0.0021
H34? H 0.7799 0.2318 -0.0883
H35? H 0.6795 0.2764 -0.0279
loop_
_geom_bond_atom_site_label_1
_geom_bond_atom_site_label_2
_geom_bond_site_symmetry_1
_geom_bond_site_symmetry_2
C1 C2 1_555 1_555
C2 H1 1_555 1_555
H2 C2 1_555 1_555
H3 C2 1_555 1_555
C3 C1 1_555 1_555
H4 C3 1_555 1_555
H5 C3 1_555 1_555
H6 C3 1_555 1_555
C4 C1 1_555 1_555
H7 C4 1_555 1_555
H8 C4 1_555 1_555
H9 C4 1_555 1_555
C5 C6 1_555 1_555
C6 H10 1_555 1_555
C7 C6 1_555 1_555
C8 C7 1_555 1_555
H11 C8 1_555 1_555
C9 C8 1_555 1_555
C10 C9 1_555 1_555
C11 C12 1_555 1_555
C12 H12 1_555 1_555
C13 C12 1_555 1_555
H13 C13 1_555 1_555
C14 C13 1_555 1_555
C15 C14 1_555 1_555
H14 C15 1_555 1_555
C16 C9 1_555 1_555
C17 N1 1_555 1_555
C18 C7 1_555 1_555
C19 C18 1_555 1_555
H15 C19 1_555 1_555
C20 C19 1_555 1_555
H16 C20 1_555 1_555
C21 C20 1_555 1_555
H17 C21 1_555 1_555
C22 C21 1_555 1_555
H18 C22 1_555 1_555
C23 C18 1_555 1_555
H19 C23 1_555 1_555
C24 H20 1_555 1_555
H21 C24 1_555 1_555
C25 C24 1_555 1_555
C26 C25 1_555 1_555
H22 C26 1_555 1_555
C27 C26 1_555 1_555
H23 C27 1_555 1_555
C28 C27 1_555 1_555
H24 C28 1_555 1_555
C29 C28 1_555 1_555
H25 C29 1_555 1_555
C30 C25 1_555 1_555
H26 C30 1_555 1_555
Cl1 C8 1_555 1_555
Cl2 C14 1_555 1_555
N1 C5 1_555 1_555
N2 C10 1_555 1_555
O1 C5 1_555 1_555
O2 C10 1_555 1_555
O3 C17 1_555 1_555
O4 C1 1_555 1_555
C9 N1 1_555 1_555
C11 C16 1_555 1_555
C11 N2 1_555 1_555
C15 C16 1_555 1_555
C17 O4 1_555 1_555
C22 C23 1_555 1_555
C24 N2 1_555 1_555
C29 C30 1_555 1_555

#END
