
#######################################################################
#
#                 Cambridge Crystallographic Data Centre
#                                CCDC 
#
#######################################################################
#
# If this CIF has been generated from an entry in the Cambridge 
# Structural Database, then it will include bibliographic, chemical, 
# crystal, experimental, refinement or atomic coordinate data resulting 
# from the CCDC's data processing and validation procedures.
#
#######################################################################

data_YOXREI
_chemical_formula_moiety         'C14 H15 N1 O4'
_chemical_name_systematic        
6,7-Benzo-5-hydroxy-2-methyl-4-methoxycarbonyl-1-aza-bicyclo(3.3.0)octan-8-one
_symmetry_cell_setting           monoclinic
_symmetry_space_group_name_H-M   'P 21'
_symmetry_Int_Tables_number      4
_space_group_name_Hall           'P 2yb'
loop_
_symmetry_equiv_pos_site_id
_symmetry_equiv_pos_as_xyz
1 x,y,z
2 -x,1/2+y,-z
_cell_length_a                   7.8131(6)
_cell_length_b                   18.219(1)
_cell_length_c                   10.0092(8)
_cell_angle_alpha                90
_cell_angle_beta                 110.041(6)
_cell_angle_gamma                90
_cell_volume                     1338.5
_chemical_melting_point          132-134deg.C
_cell_formula_units_Z            4
loop_
_atom_site_label
_atom_site_type_symbol
_atom_site_fract_x
_atom_site_fract_y
_atom_site_fract_z
O1 O -0.0392(6) 0.2805 -0.1801(5)
O2 O -0.1896(5) 0.0953(3) 0.0533(4)
O3 O 0.1110(6) -0.0356(3) 0.1691(5)
O4 O 0.1491(6) 0.0547(3) 0.3263(4)
N1 N -0.0534(6) 0.1700(3) -0.0768(5)
C1 C 0.030(1) 0.1219(4) -0.1565(7)
C2 C 0.108(1) 0.0600(5) -0.0531(8)
C3 C 0.1256(8) 0.0884(4) 0.0944(7)
C4 C -0.0416(8) 0.1402(4) 0.0633(6)
C5 C -0.0339(7) 0.2096(4) 0.1480(6)
C6 C -0.0271(9) 0.2185(4) 0.2854(7)
C7 C -0.028(1) 0.2897(4) 0.3362(8)
C8 C -0.036(1) 0.3493(4) 0.250(1)
C9 C -0.043(1) 0.3409(4) 0.112(1)
C10 C -0.0420(8) 0.2700(4) 0.0617(7)
C11 C -0.0444(7) 0.2440(4) -0.0769(7)
C12 C -0.107(1) 0.1011(6) -0.299(1)
C13 C 0.1263(8) 0.0289(4) 0.1966(7)
C14 C 0.147(1) 0.0004(6) 0.4323(9)
H1 H 0.15(1) 0.149(3) -0.159(6)
H2 H 0.24(1) 0.045(4) -0.056(7)
H3 H 0.029(8) 0.021(3) -0.065(6)
H4 H 0.231(6) 0.115(3) 0.143(5)
H5 H -0.030(7) 0.175(3) 0.352(5)
H6 H -0.012(8) 0.298(3) 0.434(6)
H7 H -0.020(8) 0.403(4) 0.284(6)
H8 H -0.05(1) 0.374(4) 0.052(7)
H9 H -0.13(1) 0.151(4) -0.359(7)
H10 H -0.06(1) 0.066(4) -0.339(7)
H11 H -0.19(1) 0.071(4) -0.277(8)
H12 H 0.06(1) -0.045(6) 0.40(1)
H13 H 0.21(1) -0.043(5) 0.408(7)
H14 H 0.13(1) 0.029(4) 0.505(8)
H15 H -0.30(1) 0.120(4) 0.031(7)
H16 H -0.393(6) 0.372(3) -0.193(5)
O5 O -0.4943(5) 0.1767(3) 0.0012(4)
O6 O -0.8120(6) 0.3571(3) -0.2836(4)
O7 O -0.6109(7) 0.4484(3) -0.4668(4)
O8 O -0.5521(5) 0.4954(3) -0.2522(4)
N2 N -0.5955(6) 0.2633(3) -0.1750(4)
C15 C -0.5220(9) 0.2346(4) -0.2815(6)
C16 C -0.507(1) 0.3037(4) -0.3637(6)
C17 C -0.5064(8) 0.3687(4) -0.2655(6)
C18 C -0.6353(7) 0.3420(4) -0.1895(5)
C19 C -0.6073(7) 0.3637(4) -0.0372(5)
C20 C -0.6285(8) 0.4310(4) 0.0178(6)
C21 C -0.598(1) 0.4329(5) 0.1626(7)
C22 C -0.549(1) 0.3736(5) 0.2501(7)
C23 C -0.5344(9) 0.3059(5) 0.1918(6)
C24 C -0.5613(7) 0.3029(4) 0.0480(5)
C25 C -0.5468(7) 0.2397(4) -0.0394(6)
C26 C -0.639(1) 0.1744(5) -0.372(1)
C27 C -0.5618(8) 0.4400(4) -0.3425(6)
C28 C -0.613(1) 0.5663(5) -0.316(1)
H17 H -0.405(7) 0.213(3) -0.223(5)
H18 H -0.614(6) 0.308(2) -0.453(4)
H19 H -0.41(1) 0.306(4) -0.400(7)
H20 H -0.673(6) 0.476(3) -0.055(5)
H21 H -0.614(7) 0.477(3) 0.196(5)
H22 H -0.528(9) 0.375(4) 0.363(7)
H23 H -0.487(8) 0.268(3) 0.255(6)
H24 H -0.76(1) 0.194(5) -0.423(8)
H25 H -0.59(1) 0.166(4) -0.457(7)
H26 H -0.64(1) 0.130(4) -0.311(7)
H27 H -0.60(1) 0.601(4) -0.234(7)
H28 H -0.552(8) 0.576(3) -0.401(7)
H29 H -0.72(1) 0.562(4) -0.362(8)
H30 H -0.88(1) 0.353(6) -0.25(1)
loop_
_geom_bond_atom_site_label_1
_geom_bond_atom_site_label_2
_geom_bond_site_symmetry_1
_geom_bond_site_symmetry_2
O1 C11 1_555 1_555
O2 C4 1_555 1_555
O3 C13 1_555 1_555
O4 C13 1_555 1_555
N1 C1 1_555 1_555
C1 C2 1_555 1_555
C2 C3 1_555 1_555
C3 C4 1_555 1_555
C4 N1 1_555 1_555
C5 C4 1_555 1_555
C6 C5 1_555 1_555
C7 C6 1_555 1_555
C8 C7 1_555 1_555
C9 C8 1_555 1_555
C10 C5 1_555 1_555
C11 N1 1_555 1_555
C12 C1 1_555 1_555
C13 C3 1_555 1_555
C14 O4 1_555 1_555
H1 C1 1_555 1_555
H2 C2 1_555 1_555
H3 C2 1_555 1_555
H4 C3 1_555 1_555
H5 C6 1_555 1_555
H6 C7 1_555 1_555
H7 C8 1_555 1_555
H8 C9 1_555 1_555
H9 C12 1_555 1_555
H10 C12 1_555 1_555
H11 C12 1_555 1_555
H12 C14 1_555 1_555
H13 C14 1_555 1_555
H14 C14 1_555 1_555
H15 O2 1_555 1_555
H16 C17 1_555 1_555
O5 C25 1_555 1_555
O6 C18 1_555 1_555
O7 C27 1_555 1_555
O8 C27 1_555 1_555
N2 C15 1_555 1_555
C15 C16 1_555 1_555
C16 C17 1_555 1_555
C17 C18 1_555 1_555
C18 N2 1_555 1_555
C19 C18 1_555 1_555
C20 C19 1_555 1_555
C21 C20 1_555 1_555
C22 C21 1_555 1_555
C23 C22 1_555 1_555
C24 C19 1_555 1_555
C25 N2 1_555 1_555
C26 C15 1_555 1_555
C27 C17 1_555 1_555
C28 O8 1_555 1_555
H17 C15 1_555 1_555
H18 C16 1_555 1_555
H19 C16 1_555 1_555
H20 C20 1_555 1_555
H21 C21 1_555 1_555
H22 C22 1_555 1_555
H23 C23 1_555 1_555
H24 C26 1_555 1_555
H25 C26 1_555 1_555
H26 C26 1_555 1_555
H27 C28 1_555 1_555
H28 C28 1_555 1_555
H29 C28 1_555 1_555
H30 O6 1_555 1_555
C9 C10 1_555 1_555
C10 C11 1_555 1_555
C23 C24 1_555 1_555
C24 C25 1_555 1_555

#END
