
#######################################################################
#
#                 Cambridge Crystallographic Data Centre
#                                CCDC 
#
#######################################################################
#
# If this CIF has been generated from an entry in the Cambridge 
# Structural Database, then it will include bibliographic, chemical, 
# crystal, experimental, refinement or atomic coordinate data resulting 
# from the CCDC's data processing and validation procedures.
#
#######################################################################

data_YOXRUY
_chemical_formula_moiety         'C20 H19 N1 O4'
_chemical_name_systematic        
2-Benzyl-5-hydroxy-4-methoxycarbonyl-benzo(f)bicyclo(3.3.0)octan-8-one
_symmetry_cell_setting           monoclinic
_symmetry_space_group_name_H-M   'P 21/a'
_symmetry_Int_Tables_number      14
_space_group_name_Hall           '-P 2yab'
loop_
_symmetry_equiv_pos_site_id
_symmetry_equiv_pos_as_xyz
1 x,y,z
2 1/2-x,1/2+y,-z
3 -x,-y,-z
4 1/2+x,1/2-y,z
_cell_length_a                   9.464(6)
_cell_length_b                   17.176(4)
_cell_length_c                   10.362(4)
_cell_angle_alpha                90
_cell_angle_beta                 92.82(4)
_cell_angle_gamma                90
_cell_volume                     1682.34
_chemical_melting_point          192-194deg.C
_cell_formula_units_Z            4
loop_
_atom_site_label
_atom_site_type_symbol
_atom_site_fract_x
_atom_site_fract_y
_atom_site_fract_z
O1 O 0.5353(1) 0.26567(8) -0.1393(1)
O2 O 0.1707(1) 0.12772(8) 0.0249(1)
O3 O 0.2793(2) 0.02125(8) 0.2763(1)
O4 O 0.2959(2) -0.04083(8) 0.0882(1)
N1 N 0.3811(2) 0.19997(9) -0.0116(1)
C1 C 0.4289(2) 0.2263(1) 0.1185(2)
C2 C 0.4366(3) 0.1506(1) 0.1977(2)
C3 C 0.3984(2) 0.0837(1) 0.1045(2)
C4 C 0.3125(2) 0.1230(1) -0.0095(2)
C5 C 0.3310(2) 0.0941(1) -0.1450(2)
C6 C 0.2763(2) 0.0288(1) -0.2077(2)
C7 C 0.3084(2) 0.0169(1) -0.3354(2)
C8 C 0.3928(2) 0.0694(1) -0.3994(2)
C9 C 0.4468(2) 0.1353(1) -0.3374(2)
C10 C 0.4131(2) 0.1468(1) -0.2103(2)
C11 C 0.4531(2) 0.2119(1) -0.1211(2)
C12 C 0.3182(2) 0.0196(1) 0.1681(2)
C13 C 0.2114(4) -0.1031(2) 0.1400(3)
C14 C 0.3278(3) 0.2862(2) 0.1727(2)
C15 C 0.3763(2) 0.3152(1) 0.3049(2)
C16 C 0.4890(2) 0.3666(1) 0.3192(2)
C17 C 0.5349(3) 0.3930(1) 0.4396(2)
C18 C 0.4708(3) 0.3676(2) 0.5482(2)
C19 C 0.3573(3) 0.3170(1) 0.5357(2)
C20 C 0.3099(3) 0.2910(1) 0.4148(2)
H1 H 0.522(2) 0.252(1) 0.112(2)
H2 H 0.528(3) 0.143(1) 0.242(2)
H3 H 0.374(3) 0.152(1) 0.267(3)
H4 H 0.486(2) 0.061(1) 0.067(2)
H5 H 0.221(2) -0.008(1) -0.164(2)
H6 H 0.267(2) -0.029(1) -0.382(2)
H7 H 0.419(2) 0.061(1) -0.486(2)
H8 H 0.504(2) 0.172(1) -0.383(2)
H9 H 0.119(4) -0.086(2) 0.137(3)
H10 H 0.238(3) -0.151(2) 0.095(3)
H11 H 0.241(3) -0.109(2) 0.243(3)
H12 H 0.305(3) 0.329(2) 0.109(3)
H13 H 0.234(3) 0.261(1) 0.175(2)
H14 H 0.529(2) 0.386(1) 0.244(2)
H15 H 0.608(3) 0.427(1) 0.445(2)
H16 H 0.508(2) 0.386(1) 0.629(2)
H17 H 0.302(2) 0.299(1) 0.608(2)
H18 H 0.234(2) 0.255(1) 0.406(2)
H19 H 0.122(3) 0.158(2) -0.029(3)
loop_
_geom_bond_atom_site_label_1
_geom_bond_atom_site_label_2
_geom_bond_site_symmetry_1
_geom_bond_site_symmetry_2
O1 C11 1_555 1_555
O2 C4 1_555 1_555
O3 C12 1_555 1_555
O4 C12 1_555 1_555
N1 C1 1_555 1_555
C1 C2 1_555 1_555
C2 C3 1_555 1_555
C3 C4 1_555 1_555
C4 N1 1_555 1_555
C5 C4 1_555 1_555
C6 C5 1_555 1_555
C7 C6 1_555 1_555
C8 C7 1_555 1_555
C9 C8 1_555 1_555
C10 C5 1_555 1_555
C11 N1 1_555 1_555
C12 C3 1_555 1_555
C13 O4 1_555 1_555
C14 C1 1_555 1_555
C15 C14 1_555 1_555
C16 C15 1_555 1_555
C17 C16 1_555 1_555
C18 C17 1_555 1_555
C19 C18 1_555 1_555
C20 C15 1_555 1_555
H1 C1 1_555 1_555
H2 C2 1_555 1_555
H3 C2 1_555 1_555
H4 C3 1_555 1_555
H5 C6 1_555 1_555
H6 C7 1_555 1_555
H7 C8 1_555 1_555
H8 C9 1_555 1_555
H9 C13 1_555 1_555
H10 C13 1_555 1_555
H11 C13 1_555 1_555
H12 C14 1_555 1_555
H13 C14 1_555 1_555
H14 C16 1_555 1_555
H15 C17 1_555 1_555
H16 C18 1_555 1_555
H17 C19 1_555 1_555
H18 C20 1_555 1_555
H19 O2 1_555 1_555
C9 C10 1_555 1_555
C10 C11 1_555 1_555
C19 C20 1_555 1_555

#END
