
#######################################################################
#
#                 Cambridge Crystallographic Data Centre
#                                CCDC 
#
#######################################################################
#
# If this CIF has been generated from an entry in the Cambridge 
# Structural Database, then it will include bibliographic, chemical, 
# crystal, experimental, refinement or atomic coordinate data resulting 
# from the CCDC's data processing and validation procedures.
#
#######################################################################

data_YOXTUC
_chemical_formula_moiety         'C22 H18 N2 O1'
_chemical_name_systematic        N-(2,3-diphenyl-1H-indol-1-yl)acetamide
_symmetry_cell_setting           monoclinic
_symmetry_space_group_name_H-M   'P 21/c'
_symmetry_Int_Tables_number      14
_space_group_name_Hall           '-P 2ybc'
loop_
_symmetry_equiv_pos_site_id
_symmetry_equiv_pos_as_xyz
1 x,y,z
2 -x,1/2+y,1/2-z
3 -x,-y,-z
4 x,1/2-y,1/2+z
_cell_length_a                   13.4742(12)
_cell_length_b                   9.3259(8)
_cell_length_c                   14.3879(12)
_cell_angle_alpha                90
_cell_angle_beta                 96.755(2)
_cell_angle_gamma                90
_cell_volume                     1795.42
_exptl_crystal_colour            colorless
_exptl_crystal_description       prismatic
_cell_formula_units_Z            4
loop_
_atom_site_label
_atom_site_type_symbol
_atom_site_fract_x
_atom_site_fract_y
_atom_site_fract_z
N1 N 0.53329(9) 0.94269(14) 0.22989(9)
N2 N 0.62474(9) 1.00382(13) 0.22059(9)
O1 O 0.47463(9) 1.14189(11) 0.29200(8)
C1 C 0.64284(11) 1.08179(14) 0.14322(10)
C2 C 0.57658(12) 1.13200(17) 0.06964(11)
H1 H 0.5082 1.1152 0.0666
C3 C 0.61685(14) 1.2078(2) 0.00141(12)
H2 H 0.5750 1.2423 -0.0497
C4 C 0.71851(15) 1.2339(2) 0.00705(13)
H3 H 0.7431 1.2866 -0.0401
C5 C 0.78384(13) 1.18429(18) 0.08007(12)
H4 H 0.8519 1.2030 0.0828
C6 C 0.74608(11) 1.10505(15) 0.15041(10)
C7 C 0.79025(11) 1.03455(16) 0.23401(10)
C8 C 0.71435(10) 0.97229(15) 0.27513(10)
C9 C 0.71700(11) 0.88223(16) 0.35896(10)
C10 C 0.78473(14) 0.76964(19) 0.37194(14)
H5 H 0.8272 0.7505 0.3269
C11 C 0.78914(19) 0.6863(2) 0.45126(18)
H6 H 0.8343 0.6107 0.4594
C12 C 0.7276(2) 0.7140(3) 0.51809(17)
H7 H 0.7317 0.6581 0.5719
C13 C 0.66023(17) 0.8233(3) 0.50611(14)
H8 H 0.6180 0.8413 0.5515
C14 C 0.65447(13) 0.90770(19) 0.42652(11)
H9 H 0.6082 0.9820 0.4185
C15 C 0.89765(11) 1.03214(17) 0.26938(11)
C16 C 0.96689(14) 0.9794(3) 0.21535(16)
H10 H 0.9459 0.9460 0.1553
C17 C 1.06723(16) 0.9751(3) 0.2488(2)
H11 H 1.1128 0.9372 0.2116
C18 C 1.09988(15) 1.0257(3) 0.33537(18)
H12 H 1.1676 1.0239 0.3574
C19 C 1.03305(15) 1.0784(3) 0.38899(16)
H13 H 1.0548 1.1132 0.4485
C20 C 0.93249(14) 1.0813(2) 0.35644(14)
H14 H 0.8875 1.1176 0.3947
C21 C 0.46118(11) 1.01898(15) 0.26413(10)
C22 C 0.36471(12) 0.9416(2) 0.26446(14)
H15 H 0.3507 0.9287 0.3278
H16 H 0.3691 0.8497 0.2352
H17 H 0.3121 0.9966 0.2306
H18 H 0.5261(12) 0.850(2) 0.2168(11)
loop_
_geom_bond_atom_site_label_1
_geom_bond_atom_site_label_2
_geom_bond_site_symmetry_1
_geom_bond_site_symmetry_2
N1 N2 1_555 1_555
N2 C1 1_555 1_555
O1 C21 1_555 1_555
C1 C2 1_555 1_555
C2 H1 1_555 1_555
C3 C2 1_555 1_555
H2 C3 1_555 1_555
C4 C3 1_555 1_555
H3 C4 1_555 1_555
C5 C4 1_555 1_555
H4 C5 1_555 1_555
C6 C1 1_555 1_555
C7 C6 1_555 1_555
C8 N2 1_555 1_555
C9 C8 1_555 1_555
C10 C9 1_555 1_555
H5 C10 1_555 1_555
C11 C10 1_555 1_555
H6 C11 1_555 1_555
C12 C11 1_555 1_555
H7 C12 1_555 1_555
C13 C12 1_555 1_555
H8 C13 1_555 1_555
C14 C9 1_555 1_555
H9 C14 1_555 1_555
C15 C7 1_555 1_555
C16 C15 1_555 1_555
H10 C16 1_555 1_555
C17 C16 1_555 1_555
H11 C17 1_555 1_555
C18 C17 1_555 1_555
H12 C18 1_555 1_555
C19 C18 1_555 1_555
H13 C19 1_555 1_555
C20 C15 1_555 1_555
H14 C20 1_555 1_555
C21 N1 1_555 1_555
C22 C21 1_555 1_555
H15 C22 1_555 1_555
H16 C22 1_555 1_555
H17 C22 1_555 1_555
H18 N1 1_555 1_555
C5 C6 1_555 1_555
C7 C8 1_555 1_555
C13 C14 1_555 1_555
C19 C20 1_555 1_555

#END
