
#######################################################################
#
#                 Cambridge Crystallographic Data Centre
#                                CCDC 
#
#######################################################################
#
# If this CIF has been generated from an entry in the Cambridge 
# Structural Database, then it will include bibliographic, chemical, 
# crystal, experimental, refinement or atomic coordinate data resulting 
# from the CCDC's data processing and validation procedures.
#
#######################################################################

data_YOZCAT
_chemical_name_common            
'C-propyl((benzylammonio)methyl)calix(4)resorcinarene tetrabromide chloroform ethanol solvate'
_chemical_formula_moiety         
'C72 H88 N4 O8 4+,C2 H6 O1,2(C1 H1 Cl3),4(Br1 1-)'
_chemical_name_systematic        
'(4,6,10,12,16,18,22,24-octahydroxy-2,8,14,20-tetrapropylpentacyclo[19.3.1.1^3,7^.1^9,13^.1^15,19^]octacosa-1(25),3(28),4,6,9(27),10,12,15(26),16,18,21,23-dodecaene-5,11,17,23-tetrayl)tetrakis(N-benzylmethanaminium) tetrabromide chloroform ethanol solvate'
_symmetry_cell_setting           triclinic
_symmetry_space_group_name_H-M   'P -1'
_symmetry_Int_Tables_number      2
_space_group_name_Hall           '-P 1'
loop_
_symmetry_equiv_pos_site_id
_symmetry_equiv_pos_as_xyz
1 x,y,z
2 -x,-y,-z
_cell_length_a                   13.3944(3)
_cell_length_b                   15.7651(4)
_cell_length_c                   20.8205(4)
_cell_angle_alpha                81.3104(19)
_cell_angle_beta                 77.788(2)
_cell_angle_gamma                66.947(2)
_cell_volume                     3942.5
_exptl_crystal_colour            colorless
_exptl_crystal_description       pillar
_cell_formula_units_Z            2
loop_
_atom_site_label
_atom_site_type_symbol
_atom_site_fract_x
_atom_site_fract_y
_atom_site_fract_z
Br1 Br -0.16033(2) 0.93419(2) 0.586673(14)
Br2 Br 0.00496(2) 0.59939(2) 0.604149(15)
O1 O -0.01846(15) 1.04097(13) 0.66592(9)
H1 H 0.0282 1.0176 0.6332
O2 O -0.08861(15) 0.99000(13) 0.89875(9)
H2 H -0.1428 0.9788 0.8938
O3 O -0.05023(16) 0.86556(14) 1.00301(10)
H3 H -0.0618 0.9135 0.9772
O4 O 0.09874(18) 0.54323(13) 0.97531(10)
H4 H 0.1132 0.5204 1.0130
O5 O 0.14973(17) 0.46767(14) 0.85921(10)
H5 H 0.1374 0.4951 0.8933
O6 O 0.24867(16) 0.51904(13) 0.62817(9)
H6 H 0.1825 0.5320 0.6255
O7 O 0.26274(16) 0.65191(13) 0.52724(9)
H7 H 0.2761 0.6026 0.5517
O8 O 0.11121(16) 0.97498(12) 0.55307(9)
H8 H 0.1311 0.9884 0.5131
N1 N -0.20936(18) 1.01209(16) 0.73592(12)
H9 H -0.1861 0.9509 0.7516
H10 H -0.1756 1.0149 0.6927
N2 N -0.17164(19) 0.73930(16) 1.00099(11)
H11 H -0.1553 0.7064 0.9647
H12 H -0.1814 0.7995 0.9859
N3 N 0.0079(2) 0.50196(16) 0.75568(12)
H13 H -0.0061 0.5571 0.7303
H14 H -0.0070 0.5149 0.7991
N4 N 0.04700(18) 0.77616(15) 0.50495(11)
H15 H 0.0791 0.7196 0.5268
H16 H -0.0098 0.8123 0.5343
C1 C 0.1385(2) 0.96648(17) 0.72375(13)
C2 C 0.0260(2) 1.00590(17) 0.72232(13)
C3 C -0.0522(2) 1.01500(17) 0.78025(13)
C4 C -0.0153(2) 0.98063(17) 0.84022(13)
C5 C 0.0972(2) 0.93885(17) 0.84381(13)
C6 C 0.1711(2) 0.93376(17) 0.78503(13)
H17 H 0.2476 0.9066 0.7867
C7 C -0.1723(2) 1.06373(18) 0.77511(14)
H18 H -0.2167 1.0697 0.8199
H19 H -0.1849 1.1267 0.7537
C8 C -0.3320(2) 1.0479(2) 0.73793(15)
H20 H -0.3684 1.0440 0.7843
H21 H -0.3491 1.0077 0.7133
C9 C -0.3790(2) 1.1466(2) 0.70918(15)
C10 C -0.4397(3) 1.2180(2) 0.75022(17)
H22 H -0.4478 1.2054 0.7967
C11 C -0.4885(3) 1.3078(2) 0.72339(19)
H23 H -0.5299 1.3562 0.7517
C12 C -0.4773(3) 1.3270(2) 0.65588(19)
H24 H -0.5103 1.3885 0.6377
C13 C -0.4176(3) 1.2562(3) 0.61489(18)
H25 H -0.4102 1.2692 0.5684
C14 C -0.3686(3) 1.1666(2) 0.64103(16)
H26 H -0.3277 1.1185 0.6124
C15 C 0.1344(2) 0.89797(18) 0.90992(13)
H27 H 0.0823 0.9403 0.9438
C16 C 0.2509(2) 0.89276(19) 0.91304(14)
H28 H 0.3048 0.8509 0.8801
H29 H 0.2540 0.9550 0.9009
C17 C 0.2841(3) 0.8584(2) 0.98068(15)
H30 H 0.2308 0.9007 1.0135
H31 H 0.2801 0.7965 0.9931
C18 C 0.3994(3) 0.8522(2) 0.98340(17)
H32 H 0.4529 0.8096 0.9516
H33 H 0.4161 0.8294 1.0279
H34 H 0.4034 0.9136 0.9725
C19 C 0.1231(2) 0.80387(18) 0.92854(13)
C20 C 0.0342(2) 0.79300(19) 0.97286(13)
C21 C 0.0259(2) 0.70652(19) 0.98980(13)
C22 C 0.1098(2) 0.62902(19) 0.96290(13)
C23 C 0.2013(2) 0.63602(19) 0.91872(13)
C24 C 0.2040(2) 0.72406(19) 0.90171(13)
H35 H 0.2640 0.7303 0.8703
C25 C -0.0743(2) 0.7009(2) 1.03628(13)
H36 H -0.0614 0.6357 1.0524
H37 H -0.0890 0.7366 1.0747
C26 C -0.2790(2) 0.7378(2) 1.04098(14)
H38 H -0.3347 0.7571 1.0117
H39 H -0.2686 0.6738 1.0594
C27 C -0.3207(2) 0.8004(2) 1.09634(14)
C28 C -0.3926(2) 0.8910(2) 1.08756(15)
H40 H -0.4173 0.9136 1.0465
C29 C -0.4284(3) 0.9487(2) 1.13847(17)
H41 H -0.4782 1.0107 1.1322
C30 C -0.3929(3) 0.9174(3) 1.19779(18)
H42 H -0.4162 0.9578 1.2322
C31 C -0.3225(3) 0.8262(3) 1.20737(18)
H43 H -0.2983 0.8037 1.2486
C32 C -0.2875(3) 0.7679(3) 1.15662(17)
H44 H -0.2403 0.7052 1.1635
C33 C 0.2934(2) 0.55073(18) 0.88930(13)
H45 H 0.2832 0.4957 0.9164
C34 C 0.4073(2) 0.5473(2) 0.89623(15)
H46 H 0.4178 0.6028 0.8716
H47 H 0.4068 0.5513 0.9433
C35 C 0.5061(3) 0.4626(2) 0.8724(2)
H48 H 0.5127 0.4625 0.8242
H49 H 0.5734 0.4677 0.8810
C36 C 0.5003(4) 0.3711(3) 0.9048(2)
H50 H 0.4418 0.3601 0.8902
H51 H 0.4844 0.3733 0.9528
H52 H 0.5709 0.3209 0.8922
C37 C 0.2812(2) 0.54351(17) 0.81956(13)
C38 C 0.2109(2) 0.50299(18) 0.80885(14)
C39 C 0.1993(2) 0.49281(18) 0.74583(14)
C40 C 0.2562(2) 0.52842(18) 0.69153(13)
C41 C 0.3257(2) 0.57160(17) 0.69962(13)
C42 C 0.3372(2) 0.57743(17) 0.76345(13)
H53 H 0.3852 0.6057 0.7693
C43 C 0.1271(2) 0.44337(19) 0.73880(14)
H54 H 0.1430 0.4262 0.6929
H55 H 0.1440 0.3857 0.7682
C44 C -0.0691(2) 0.4581(2) 0.74545(15)
H56 H -0.1453 0.5043 0.7521
H57 H -0.0508 0.4416 0.6992
C45 C -0.0656(2) 0.3729(2) 0.79032(14)
C46 C -0.1449(3) 0.3801(2) 0.84674(15)
H58 H -0.1963 0.4392 0.8591
C47 C -0.1491(3) 0.3010(2) 0.88493(15)
H59 H -0.2041 0.3061 0.9230
C48 C -0.0732(3) 0.2146(2) 0.86777(16)
H60 H -0.0763 0.1606 0.8941
C49 C 0.0069(3) 0.2069(2) 0.81227(17)
H61 H 0.0596 0.1479 0.8008
C50 C 0.0098(3) 0.2860(2) 0.77350(16)
H62 H 0.0640 0.2806 0.7350
C51 C 0.3831(2) 0.61086(17) 0.63836(13)
H63 H 0.3964 0.5702 0.6025
C52 C 0.4963(2) 0.60939(19) 0.64423(14)
H64 H 0.4865 0.6532 0.6766
H65 H 0.5417 0.5467 0.6608
C53 C 0.5564(2) 0.6356(2) 0.57800(15)
H66 H 0.5114 0.6988 0.5621
H67 H 0.6271 0.6366 0.5845
C54 C 0.5794(3) 0.5694(2) 0.52540(16)
H68 H 0.6282 0.5834 0.4867
H69 H 0.5100 0.5767 0.5126
H70 H 0.6149 0.5056 0.5431
C55 C 0.3085(2) 0.70759(17) 0.61556(13)
C56 C 0.2552(2) 0.72234(18) 0.56208(13)
C57 C 0.1899(2) 0.81113(18) 0.53938(13)
C58 C 0.1799(2) 0.88671(18) 0.57128(13)
C59 C 0.2320(2) 0.87475(18) 0.62505(13)
C60 C 0.2937(2) 0.78493(18) 0.64676(12)
H71 H 0.3270 0.7760 0.6845
C61 C 0.1305(2) 0.82052(18) 0.48364(13)
H72 H 0.0933 0.8868 0.4702
H73 H 0.1838 0.7904 0.4453
C62 C 0.0005(2) 0.76229(19) 0.44981(14)
H74 H -0.0324 0.8225 0.4252
H75 H -0.0587 0.7384 0.4683
C63 C 0.0870(2) 0.69570(19) 0.40322(14)
C64 C 0.1173(3) 0.6006(2) 0.41824(16)
H76 H 0.0825 0.5776 0.4576
C65 C 0.1985(3) 0.5395(2) 0.37540(18)
H77 H 0.2188 0.4748 0.3855
C66 C 0.2502(3) 0.5729(2) 0.31790(17)
H78 H 0.3064 0.5310 0.2891
C67 C 0.2200(3) 0.6665(3) 0.30271(17)
H79 H 0.2549 0.6893 0.2632
C68 C 0.1385(3) 0.7278(2) 0.34508(15)
H80 H 0.1177 0.7925 0.3342
C69 C 0.2206(2) 0.95787(18) 0.65954(13)
H81 H 0.1877 1.0141 0.6301
C70 C 0.3326(2) 0.95669(19) 0.66743(13)
H82 H 0.3205 1.0097 0.6923
H83 H 0.3703 0.8993 0.6936
C71 C 0.4072(2) 0.9620(2) 0.60136(15)
H84 H 0.4312 0.9033 0.5803
H85 H 0.3646 1.0125 0.5719
C72 C 0.5083(3) 0.9790(3) 0.60899(18)
H86 H 0.5536 0.9814 0.5656
H87 H 0.5514 0.9287 0.6376
H88 H 0.4851 1.0379 0.6287
Br3 Br -0.28803(3) 0.92941(2) 0.910444(16)
Br4 Br -0.14716(3) 0.59533(2) 0.895920(15)
Cl1 Cl -0.44658(11) 0.83465(8) 0.78420(7)
Cl2 Cl -0.39352(9) 0.63719(8) 0.80475(6)
Cl3 Cl -0.26498(13) 0.70936(9) 0.70087(6)
C75 C -0.3405(3) 0.7257(2) 0.77989(17)
H96 H -0.2899 0.7210 0.8105
Cl4 Cl 0.24718(11) 0.20395(7) 0.62546(5)
Cl5 Cl 0.29008(8) 0.20461(6) 0.48423(5)
Cl6 Cl 0.17436(7) 0.37683(5) 0.54853(5)
C76 C 0.2784(3) 0.2661(2) 0.55106(19)
H97 H 0.3502 0.2724 0.5500
O9 O -0.1525(2) 0.82953(17) 0.77945(16)
H98 H -0.1908 0.7967 0.7884
C77 C -0.0317(8) 0.7694(5) 0.7914(4)
H99 H -0.0054 0.8012 0.8178
H100 H -0.0265 0.7082 0.8139
C78 C 0.0315(6) 0.7606(4) 0.7228(4)
H101 H 0.0071 0.7253 0.6988
H102 H 0.1102 0.7283 0.7243
H103 H 0.0187 0.8222 0.7003
H89? H 0.4656 0.5011 0.8678
H90? H 0.4126 0.6084 0.8819
C73? C 0.4230(18) 0.5218(13) 0.9662(8)
H91? H 0.3604 0.5658 0.9941
H92? H 0.4906 0.5297 0.9712
C74? C 0.432(2) 0.4244(15) 0.9924(12)
H93? H 0.4975 0.3798 0.9679
H94? H 0.3663 0.4149 0.9869
H95? H 0.4378 0.4157 1.0392
Cl7? Cl 0.3843(9) 0.2461(10) 0.5937(6)
H104? H -0.1829 0.8041 0.8116
C79? C -0.0559(6) 0.7596(5) 0.7457(4)
H105? H -0.0445 0.7779 0.6979
H106? H -0.0653 0.6995 0.7518
C80? C 0.0424(7) 0.7517(5) 0.7755(5)
H107? H 0.1077 0.7004 0.7574
H108? H 0.0268 0.7402 0.8235
H109? H 0.0559 0.8094 0.7649
loop_
_geom_bond_atom_site_label_1
_geom_bond_atom_site_label_2
_geom_bond_site_symmetry_1
_geom_bond_site_symmetry_2
O1 H1 1_555 1_555
O2 H2 1_555 1_555
O3 H3 1_555 1_555
O4 H4 1_555 1_555
O5 H5 1_555 1_555
O6 H6 1_555 1_555
O7 H7 1_555 1_555
O8 H8 1_555 1_555
N1 H9 1_555 1_555
H10 N1 1_555 1_555
N2 H11 1_555 1_555
H12 N2 1_555 1_555
N3 H13 1_555 1_555
H14 N3 1_555 1_555
N4 H15 1_555 1_555
H16 N4 1_555 1_555
C1 C2 1_555 1_555
C2 O1 1_555 1_555
C3 C2 1_555 1_555
C4 O2 1_555 1_555
C5 C4 1_555 1_555
C6 C1 1_555 1_555
H17 C6 1_555 1_555
C7 N1 1_555 1_555
H18 C7 1_555 1_555
H19 C7 1_555 1_555
C8 N1 1_555 1_555
H20 C8 1_555 1_555
H21 C8 1_555 1_555
C9 C8 1_555 1_555
C10 C9 1_555 1_555
H22 C10 1_555 1_555
C11 C10 1_555 1_555
H23 C11 1_555 1_555
C12 C11 1_555 1_555
H24 C12 1_555 1_555
C13 C12 1_555 1_555
H25 C13 1_555 1_555
C14 C9 1_555 1_555
H26 C14 1_555 1_555
C15 C5 1_555 1_555
H27 C15 1_555 1_555
C16 C15 1_555 1_555
H28 C16 1_555 1_555
H29 C16 1_555 1_555
C17 C16 1_555 1_555
H30 C17 1_555 1_555
H31 C17 1_555 1_555
C18 C17 1_555 1_555
H32 C18 1_555 1_555
H33 C18 1_555 1_555
H34 C18 1_555 1_555
C19 C15 1_555 1_555
C20 O3 1_555 1_555
C21 C20 1_555 1_555
C22 O4 1_555 1_555
C23 C22 1_555 1_555
C24 C19 1_555 1_555
H35 C24 1_555 1_555
C25 N2 1_555 1_555
H36 C25 1_555 1_555
H37 C25 1_555 1_555
C26 N2 1_555 1_555
H38 C26 1_555 1_555
H39 C26 1_555 1_555
C27 C26 1_555 1_555
C28 C27 1_555 1_555
H40 C28 1_555 1_555
C29 C28 1_555 1_555
H41 C29 1_555 1_555
C30 C29 1_555 1_555
H42 C30 1_555 1_555
C31 C30 1_555 1_555
H43 C31 1_555 1_555
C32 C27 1_555 1_555
H44 C32 1_555 1_555
C33 C23 1_555 1_555
H45 C33 1_555 1_555
C34 C33 1_555 1_555
H46 C34 1_555 1_555
H47 C34 1_555 1_555
C35 C34 1_555 1_555
H48 C35 1_555 1_555
H49 C35 1_555 1_555
C36 C35 1_555 1_555
H50 C36 1_555 1_555
H51 C36 1_555 1_555
H52 C36 1_555 1_555
C37 C33 1_555 1_555
C38 O5 1_555 1_555
C39 C38 1_555 1_555
C40 O6 1_555 1_555
C41 C40 1_555 1_555
C42 C37 1_555 1_555
H53 C42 1_555 1_555
C43 N3 1_555 1_555
H54 C43 1_555 1_555
H55 C43 1_555 1_555
C44 N3 1_555 1_555
H56 C44 1_555 1_555
H57 C44 1_555 1_555
C45 C44 1_555 1_555
C46 C45 1_555 1_555
H58 C46 1_555 1_555
C47 C46 1_555 1_555
H59 C47 1_555 1_555
C48 C47 1_555 1_555
H60 C48 1_555 1_555
C49 C48 1_555 1_555
H61 C49 1_555 1_555
C50 C45 1_555 1_555
H62 C50 1_555 1_555
C51 C41 1_555 1_555
H63 C51 1_555 1_555
C52 C51 1_555 1_555
H64 C52 1_555 1_555
H65 C52 1_555 1_555
C53 C52 1_555 1_555
H66 C53 1_555 1_555
H67 C53 1_555 1_555
C54 C53 1_555 1_555
H68 C54 1_555 1_555
H69 C54 1_555 1_555
H70 C54 1_555 1_555
C55 C51 1_555 1_555
C56 O7 1_555 1_555
C57 C56 1_555 1_555
C58 O8 1_555 1_555
C59 C58 1_555 1_555
C60 C55 1_555 1_555
H71 C60 1_555 1_555
C61 N4 1_555 1_555
H72 C61 1_555 1_555
H73 C61 1_555 1_555
C62 N4 1_555 1_555
H74 C62 1_555 1_555
H75 C62 1_555 1_555
C63 C62 1_555 1_555
C64 C63 1_555 1_555
H76 C64 1_555 1_555
C65 C64 1_555 1_555
H77 C65 1_555 1_555
C66 C65 1_555 1_555
H78 C66 1_555 1_555
C67 C66 1_555 1_555
H79 C67 1_555 1_555
C68 C63 1_555 1_555
H80 C68 1_555 1_555
C69 C1 1_555 1_555
H81 C69 1_555 1_555
C70 C69 1_555 1_555
H82 C70 1_555 1_555
H83 C70 1_555 1_555
C71 C70 1_555 1_555
H84 C71 1_555 1_555
H85 C71 1_555 1_555
C72 C71 1_555 1_555
H86 C72 1_555 1_555
H87 C72 1_555 1_555
H88 C72 1_555 1_555
Cl1 C75 1_555 1_555
Cl2 C75 1_555 1_555
Cl3 C75 1_555 1_555
C75 H96 1_555 1_555
Cl4 C76 1_555 1_555
Cl5 C76 1_555 1_555
Cl6 C76 1_555 1_555
C76 H97 1_555 1_555
O9 H98 1_555 1_555
C77 O9 1_555 1_555
H99 C77 1_555 1_555
H100 C77 1_555 1_555
C78 C77 1_555 1_555
H101 C78 1_555 1_555
H102 C78 1_555 1_555
H103 C78 1_555 1_555
C3 C4 1_555 1_555
C3 C7 1_555 1_555
C5 C6 1_555 1_555
C13 C14 1_555 1_555
C19 C20 1_555 1_555
C21 C22 1_555 1_555
C21 C25 1_555 1_555
C23 C24 1_555 1_555
C31 C32 1_555 1_555
C37 C38 1_555 1_555
C39 C40 1_555 1_555
C39 C43 1_555 1_555
C41 C42 1_555 1_555
C49 C50 1_555 1_555
C55 C56 1_555 1_555
C57 C58 1_555 1_555
C57 C61 1_555 1_555
C59 C60 1_555 1_555
C59 C69 1_555 1_555
C67 C68 1_555 1_555

#END
