
#######################################################################
#
#                 Cambridge Crystallographic Data Centre
#                                CCDC 
#
#######################################################################
#
# If this CIF has been generated from an entry in the Cambridge 
# Structural Database, then it will include bibliographic, chemical, 
# crystal, experimental, refinement or atomic coordinate data resulting 
# from the CCDC's data processing and validation procedures.
#
#######################################################################

data_YOZLIK
_chemical_formula_moiety         'C12 H6 Br4'
_chemical_name_systematic        3,3',5,5'-tetrabromobiphenyl
_symmetry_cell_setting           monoclinic
_symmetry_space_group_name_H-M   'C 2/c'
_symmetry_Int_Tables_number      15
_space_group_name_Hall           '-C 2yn'
loop_
_symmetry_equiv_pos_site_id
_symmetry_equiv_pos_as_xyz
1 x,y,z
2 -x,y,1/2-z
3 1/2+x,1/2+y,z
4 1/2-x,1/2+y,1/2-z
5 -x,-y,-z
6 x,-y,1/2+z
7 1/2-x,1/2-y,-z
8 1/2+x,1/2-y,1/2+z
_cell_length_a                   16.691(11)
_cell_length_b                   7.314(5)
_cell_length_c                   11.161(7)
_cell_angle_alpha                90
_cell_angle_beta                 111.110(6)
_cell_angle_gamma                90
_cell_volume                     1271.08
_cell_formula_units_Z            4
loop_
_atom_site_label
_atom_site_type_symbol
_atom_site_fract_x
_atom_site_fract_y
_atom_site_fract_z
Br1 Br 0.135199(13) 0.15458(3) 0.954876(19)
Br2 Br -0.206333(13) 0.39549(3) 0.83626(2)
C1 C -0.00685(13) 0.2823(3) 1.18109(19)
C2 C 0.05808(13) 0.2272(3) 1.13855(19)
H1 H 0.1123 0.1911 1.1989
C3 C 0.04399(13) 0.2248(3) 1.0086(2)
C4 C -0.03419(12) 0.2738(3) 0.91705(19)
H2 H -0.0432 0.2706 0.8280
C5 C -0.09899(13) 0.3277(3) 0.9601(2)
C6 C -0.08706(13) 0.3332(3) 1.0900(2)
H3 H -0.1324 0.3708 1.1170
Br1A Br -0.135199(13) 0.15458(3) 1.545124(19)
Br2A Br 0.206333(13) 0.39549(3) 1.66374(2)
C1A C 0.00685(13) 0.2823(3) 1.31891(19)
C2A C -0.05808(13) 0.2272(3) 1.36145(19)
H1A H -0.1123 0.1911 1.3011
C3A C -0.04399(13) 0.2248(3) 1.4914(2)
C4A C 0.03419(12) 0.2738(3) 1.58295(19)
H2A H 0.0432 0.2706 1.6720
C5A C 0.09899(13) 0.3277(3) 1.5399(2)
C6A C 0.08706(13) 0.3332(3) 1.4100(2)
H3A H 0.1324 0.3708 1.3830
loop_
_geom_bond_atom_site_label_1
_geom_bond_atom_site_label_2
_geom_bond_site_symmetry_1
_geom_bond_site_symmetry_2
Br1 C3 1_555 1_555
Br2 C5 1_555 1_555
C1 C2 1_555 1_555
C2 H1 1_555 1_555
C3 C2 1_555 1_555
C4 C3 1_555 1_555
H2 C4 1_555 1_555
C5 C4 1_555 1_555
C6 C1 1_555 1_555
H3 C6 1_555 1_555
Br1A C3A 1_555 1_555
Br2A C5A 1_555 1_555
C1A C1 1_555 1_555
C2A C1A 1_555 1_555
H1A C2A 1_555 1_555
C3A C2A 1_555 1_555
C4A C3A 1_555 1_555
H2A C4A 1_555 1_555
C5A C4A 1_555 1_555
C6A C1A 1_555 1_555
H3A C6A 1_555 1_555
C5 C6 1_555 1_555
C5A C6A 1_555 1_555

#END
