
#######################################################################
#
#                 Cambridge Crystallographic Data Centre
#                                CCDC 
#
#######################################################################
#
# If this CIF has been generated from an entry in the Cambridge 
# Structural Database, then it will include bibliographic, chemical, 
# crystal, experimental, refinement or atomic coordinate data resulting 
# from the CCDC's data processing and validation procedures.
#
#######################################################################

data_YOZPIO
_chemical_formula_moiety         'C33 H42 O6'
_chemical_name_systematic        
9-benzoyl-15-(2-hydroxypropan-2-yl)-4,4,10,10,14,14-hexamethyl-3,19-dioxahexacyclo[7.7.1.1^2,5^.1^7,11^.0^1,13^.0^2,7^]nonadecane-8,17-dione
_symmetry_cell_setting           monoclinic
_symmetry_space_group_name_H-M   'P 21'
_symmetry_Int_Tables_number      4
_space_group_name_Hall           'P 2yb'
loop_
_symmetry_equiv_pos_site_id
_symmetry_equiv_pos_as_xyz
1 x,y,z
2 -x,1/2+y,-z
_cell_length_a                   7.6950(2)
_cell_length_b                   20.3926(4)
_cell_length_c                   9.0759(2)
_cell_angle_alpha                90
_cell_angle_beta                 103.862(2)
_cell_angle_gamma                90
_cell_volume                     1382.72
_exptl_crystal_colour            colorless
_exptl_crystal_description       block
_cell_formula_units_Z            2
loop_
_atom_site_label
_atom_site_type_symbol
_atom_site_fract_x
_atom_site_fract_y
_atom_site_fract_z
C1 C 0.2390(2) 0.43049(8) -0.28708(18)
C2 C 0.0468(2) 0.42467(9) -0.40607(18)
C3 C 0.4408(2) 0.30925(9) 0.13674(19)
C4 C 0.0643(2) 0.42651(10) -0.57094(19)
H1 H -0.0546 0.4227 -0.6398
H2 H 0.1396 0.3900 -0.5885
H3 H 0.1191 0.4681 -0.5898
C5 C 0.4842(2) 0.25741(8) -0.26313(18)
H4 H 0.5442 0.2679 -0.3453
H5 H 0.5721 0.2617 -0.1642
C6 C 0.1156(2) 0.34373(9) 0.0629(2)
H6 H 0.1540 0.3814 0.1317
H7 H -0.0079 0.3311 0.0655
C7 C -0.0721(2) 0.48248(9) -0.3814(2)
H8 H -0.1891 0.4792 -0.4534
H9 H -0.0148 0.5239 -0.3977
H10 H -0.0879 0.4811 -0.2775
C8 C 0.1975(2) 0.42628(8) -0.12918(18)
C9 C 0.6070(2) 0.46656(8) -0.08410(19)
H11 H 0.5607 0.4237 -0.0791
C10 C 0.1302(2) 0.35919(8) -0.10048(18)
C11 C 0.2106(2) 0.17323(9) -0.5637(2)
H12 H 0.2290 0.1257 -0.5650
H13 H 0.3046 0.1955 -0.6010
H14 H 0.0933 0.1842 -0.6292
C12 C 0.2182(2) 0.19554(8) -0.40128(18)
C13 C 0.4042(2) 0.18798(8) -0.28316(18)
H15 H 0.3751 0.1770 -0.1844
C14 C 0.2776(2) 0.30942(8) -0.11616(18)
C15 C -0.0532(2) 0.36017(9) -0.37963(19)
H16 H -0.1816 0.3686 -0.4303
C16 C 0.5397(2) 0.13538(8) -0.3060(2)
C17 C 0.5118(2) 0.51134(8) -0.18884(19)
C18 C -0.0075(2) 0.29581(9) -0.4511(2)
H17 H -0.0827 0.2606 -0.4237
H18 H -0.0437 0.3009 -0.5627
C19 C 0.7682(2) 0.48384(9) 0.0126(2)
H19 H 0.8326 0.4526 0.0823
C20 C -0.0516(2) 0.34946(8) -0.2127(2)
H20 H -0.0933 0.3043 -0.2008
H21 H -0.1387 0.3800 -0.1851
C21 C 0.3222(2) 0.30286(8) -0.27046(18)
C22 C 0.4919(3) 0.36585(12) 0.2477(2)
H22 H 0.4047 0.4014 0.2188
H23 H 0.6113 0.3818 0.2453
H24 H 0.4926 0.3508 0.3503
C23 C 0.2456(2) 0.28579(10) 0.10366(19)
H25 H 0.2192 0.2563 0.1837
C24 C 0.5805(3) 0.57441(9) -0.1914(2)
H26 H 0.5170 0.6058 -0.2614
C25 C 0.3402(2) 0.49539(9) -0.30126(18)
C26 C 0.7024(2) 0.13607(10) -0.1700(2)
H27 H 0.7884 0.1027 -0.1844
H28 H 0.6637 0.1266 -0.0769
H29 H 0.7593 0.1794 -0.1617
C27 C 0.3579(2) 0.37337(8) -0.31715(16)
C28 C 0.4619(3) 0.06623(9) -0.3199(3)
H30 H 0.5532 0.0350 -0.3343
H31 H 0.3586 0.0642 -0.4073
H32 H 0.4241 0.0552 -0.2273
C29 C 0.8362(3) 0.54648(10) 0.0083(2)
H33 H 0.9475 0.5583 0.0741
C30 C 0.0762(2) 0.15803(9) -0.3424(2)
H34 H 0.1030 0.1110 -0.3399
H35 H -0.0420 0.1659 -0.4098
H36 H 0.0768 0.1732 -0.2398
C31 C 0.7404(3) 0.59168(10) -0.0928(3)
H37 H 0.7848 0.6351 -0.0945
C32 C 0.1881(2) 0.27198(8) -0.40917(18)
H38 H 0.2357 0.2858 -0.4977
C33 C 0.5732(3) 0.25300(11) 0.1777(2)
H39 H 0.6955 0.2702 0.1979
H40 H 0.5544 0.2218 0.0932
H41 H 0.5550 0.2307 0.2685
O1 O 0.59831(16) 0.15230(6) -0.44080(15)
H42 H 0.6300 0.1182 -0.4791
O2 O 0.23159(15) 0.25343(6) -0.04221(13)
O3 O 0.21003(16) 0.47312(6) -0.04541(13)
O4 O 0.28058(17) 0.53411(6) -0.40313(15)
O5 O 0.46856(16) 0.38459(6) -0.38882(13)
O6 O 0.44160(15) 0.33287(5) -0.01512(12)
loop_
_geom_bond_atom_site_label_1
_geom_bond_atom_site_label_2
_geom_bond_site_symmetry_1
_geom_bond_site_symmetry_2
C1 C2 1_555 1_555
C2 C4 1_555 1_555
C3 C22 1_555 1_555
C4 H1 1_555 1_555
H2 C4 1_555 1_555
H3 C4 1_555 1_555
C5 H4 1_555 1_555
H5 C5 1_555 1_555
C6 H6 1_555 1_555
H7 C6 1_555 1_555
C7 C2 1_555 1_555
H8 C7 1_555 1_555
H9 C7 1_555 1_555
H10 C7 1_555 1_555
C8 C1 1_555 1_555
C9 H11 1_555 1_555
C10 C6 1_555 1_555
C11 H12 1_555 1_555
H13 C11 1_555 1_555
H14 C11 1_555 1_555
C12 C11 1_555 1_555
C13 C5 1_555 1_555
H15 C13 1_555 1_555
C14 C10 1_555 1_555
C15 C2 1_555 1_555
H16 C15 1_555 1_555
C16 C13 1_555 1_555
C17 C9 1_555 1_555
C18 C15 1_555 1_555
H17 C18 1_555 1_555
H18 C18 1_555 1_555
C19 C9 1_555 1_555
H19 C19 1_555 1_555
C20 C10 1_555 1_555
H20 C20 1_555 1_555
H21 C20 1_555 1_555
C21 C5 1_555 1_555
C22 H22 1_555 1_555
H23 C22 1_555 1_555
H24 C22 1_555 1_555
C23 C3 1_555 1_555
H25 C23 1_555 1_555
C24 C17 1_555 1_555
H26 C24 1_555 1_555
C25 C1 1_555 1_555
C26 C16 1_555 1_555
H27 C26 1_555 1_555
H28 C26 1_555 1_555
H29 C26 1_555 1_555
C27 C1 1_555 1_555
C28 C16 1_555 1_555
H30 C28 1_555 1_555
H31 C28 1_555 1_555
H32 C28 1_555 1_555
C29 C19 1_555 1_555
H33 C29 1_555 1_555
C30 C12 1_555 1_555
H34 C30 1_555 1_555
H35 C30 1_555 1_555
H36 C30 1_555 1_555
C31 C24 1_555 1_555
H37 C31 1_555 1_555
C32 C12 1_555 1_555
H38 C32 1_555 1_555
C33 C3 1_555 1_555
H39 C33 1_555 1_555
H40 C33 1_555 1_555
H41 C33 1_555 1_555
O1 C16 1_555 1_555
H42 O1 1_555 1_555
O2 C14 1_555 1_555
O3 C8 1_555 1_555
O4 C25 1_555 1_555
O5 C27 1_555 1_555
O6 C3 1_555 1_555
C6 C23 1_555 1_555
C8 C10 1_555 1_555
C12 C13 1_555 1_555
C14 C21 1_555 1_555
C14 O6 1_555 1_555
C15 C20 1_555 1_555
C17 C25 1_555 1_555
C18 C32 1_555 1_555
C21 C27 1_555 1_555
C21 C32 1_555 1_555
C23 O2 1_555 1_555
C29 C31 1_555 1_555

#END
