
#######################################################################
#
#                 Cambridge Crystallographic Data Centre
#                                CCDC 
#
#######################################################################
#
# If this CIF has been generated from an entry in the Cambridge 
# Structural Database, then it will include bibliographic, chemical, 
# crystal, experimental, refinement or atomic coordinate data resulting 
# from the CCDC's data processing and validation procedures.
#
#######################################################################

data_YOZZAQ02
_chemical_formula_moiety         'C6 H4 Cl1 N1 O2'
_chemical_name_systematic        '3-chloroisonicotinic acid'
_symmetry_cell_setting           monoclinic
_symmetry_space_group_name_H-M   'P 21/n'
_symmetry_Int_Tables_number      14
_space_group_name_Hall           '-P 2yn'
loop_
_symmetry_equiv_pos_site_id
_symmetry_equiv_pos_as_xyz
1 x,y,z
2 1/2-x,1/2+y,1/2-z
3 -x,-y,-z
4 1/2+x,1/2-y,1/2+z
_cell_length_a                   7.3267(2)
_cell_length_b                   6.6413(2)
_cell_length_c                   12.6512(4)
_cell_angle_alpha                90
_cell_angle_beta                 92.2254(15)
_cell_angle_gamma                90
_cell_volume                     615.128
_exptl_crystal_colour            colorless
_exptl_crystal_description       plate
_cell_formula_units_Z            4
loop_
_atom_site_label
_atom_site_type_symbol
_atom_site_fract_x
_atom_site_fract_y
_atom_site_fract_z
Cl1 Cl 0.82621(4) 0.34399(5) 0.94515(2)
O1 O 0.60059(13) 0.34192(14) 0.62026(7)
H1 H 0.6723 0.3404 0.5700
O2 O 0.84612(13) 0.22877(16) 0.71514(7)
N1 N 0.30977(15) 0.18841(17) 0.95583(8)
C1 C 0.37546(18) 0.1955(2) 0.77275(10)
H2 H 0.3334 0.1795 0.7013
C2 C 0.25654(18) 0.16495(19) 0.85371(10)
H3 H 0.1341 0.1264 0.8366
C3 C 0.48221(18) 0.24268(19) 0.97893(10)
H4 H 0.5195 0.2611 1.0510
C4 C 0.55667(17) 0.24973(18) 0.79562(10)
C5 C 0.68555(17) 0.27421(19) 0.70641(10)
C6 C 0.60942(17) 0.27331(19) 0.90191(9)
loop_
_geom_bond_atom_site_label_1
_geom_bond_atom_site_label_2
_geom_bond_site_symmetry_1
_geom_bond_site_symmetry_2
Cl1 C6 1_555 1_555
O1 H1 1_555 1_555
O2 C5 1_555 1_555
N1 C2 1_555 1_555
C1 H2 1_555 1_555
C2 C1 1_555 1_555
H3 C2 1_555 1_555
C3 N1 1_555 1_555
H4 C3 1_555 1_555
C4 C1 1_555 1_555
C5 O1 1_555 1_555
C6 C3 1_555 1_555
C4 C5 1_555 1_555
C4 C6 1_555 1_555

#END
