
#######################################################################
#
#                 Cambridge Crystallographic Data Centre
#                                CCDC 
#
#######################################################################
#
# If this CIF has been generated from an entry in the Cambridge 
# Structural Database, then it will include bibliographic, chemical, 
# crystal, experimental, refinement or atomic coordinate data resulting 
# from the CCDC's data processing and validation procedures.
#
#######################################################################

data_YUBROC
_chemical_formula_moiety         'C36 H54 Si6'
_chemical_name_systematic        hexakis(Trimethylsilylethynyl)-(3)-radialene
_symmetry_cell_setting           monoclinic
_symmetry_space_group_name_H-M   'P 21/n'
_symmetry_Int_Tables_number      14
_space_group_name_Hall           '-P 2yn'
loop_
_symmetry_equiv_pos_site_id
_symmetry_equiv_pos_as_xyz
1 x,y,z
2 1/2-x,1/2+y,1/2-z
3 -x,-y,-z
4 1/2+x,1/2-y,1/2+z
_cell_length_a                   15.909(5)
_cell_length_b                   9.440(3)
_cell_length_c                   28.410(11)
_cell_angle_alpha                90
_cell_angle_beta                 90.39(3)
_cell_angle_gamma                90
_cell_volume                     4266.54
_exptl_crystal_colour            red
_chemical_melting_point          '183 deg.C (dec.)'
_cell_formula_units_Z            4
loop_
_atom_site_label
_atom_site_type_symbol
_atom_site_fract_x
_atom_site_fract_y
_atom_site_fract_z
C1 C 0.5104(1) 0.7914(2) 0.3065(1)
C2 C 0.4401(1) 0.7985(2) 0.3375(1)
C3 C 0.5235(2) 0.7841(2) 0.3559(1)
C4 C 0.5395(2) 0.7915(2) 0.2618(1)
C5 C 0.3560(1) 0.8109(2) 0.3442(1)
C6 C 0.5766(2) 0.7697(2) 0.3929(1)
C7 C 0.4839(2) 0.8035(2) 0.2223(1)
C8 C 0.4428(2) 0.8148(3) 0.1865(1)
C9 C 0.6264(2) 0.7815(2) 0.2488(1)
C10 C 0.6949(2) 0.7765(3) 0.2307(1)
C11 C 0.3195(1) 0.8161(2) 0.3900(1)
C12 C 0.2813(2) 0.8245(3) 0.4264(1)
C13 C 0.2965(2) 0.8184(2) 0.3063(1)
C14 C 0.2382(2) 0.8222(2) 0.2789(1)
C15 C 0.6659(2) 0.7607(2) 0.3855(1)
C16 C 0.7411(2) 0.7560(3) 0.3819(1)
C17 C 0.5505(2) 0.7605(2) 0.4408(1)
C18 C 0.5379(2) 0.7460(3) 0.4825(1)
Si1 Si 0.3841(1) 0.8354(1) 0.1314(1)
C19 C 0.4598(3) 0.8071(4) 0.0824(2)
C20 C 0.3426(2) 1.0191(3) 0.1295(2)
C21 C 0.2984(2) 0.7013(4) 0.1304(2)
Si2 Si 0.7846(1) 0.7807(1) 0.1900(1)
C22 C 0.8566(2) 0.9262(3) 0.2072(2)
C23 C 0.8391(2) 0.6077(3) 0.1893(1)
C24 C 0.7363(2) 0.8166(4) 0.1318(1)
Si3 Si 0.2219(1) 0.8444(1) 0.4813(1)
C25 C 0.1217(2) 0.9360(5) 0.4677(2)
C26 C 0.1985(2) 0.6667(3) 0.5049(1)
C27 C 0.2873(3) 0.9529(4) 0.5217(2)
Si4 Si 0.1336(1) 0.8306(1) 0.2505(1)
C28 C 0.1347(2) 0.9516(3) 0.1995(1)
C29 C 0.1002(2) 0.6505(3) 0.2325(1)
C30 C 0.0644(2) 0.9043(4) 0.2969(1)
Si5 Si 0.8568(1) 0.7597(1) 0.3796(1)
C31 C 0.8970(3) 0.6833(5) 0.4349(2)
C32 C 0.8892(2) 0.9475(4) 0.3749(2)
C33 C 0.8906(2) 0.6547(4) 0.3280(2)
Si6 Si 0.5373(1) 0.7089(1) 0.5462(1)
C34 C 0.4351(2) 0.6279(4) 0.5627(1)
C35 C 0.5528(3) 0.8759(4) 0.5789(2)
C36 C 0.6245(2) 0.5814(4) 0.5567(2)
H1 H 0.4831(26) 0.7062(44) 0.0850(15)
H2 H 0.4346(30) 0.8197(45) 0.0553(17)
H3 H 0.5127(22) 0.8831(37) 0.0871(12)
H4 H 0.3124(22) 1.0509(39) 0.1616(14)
H5 H 0.3880(21) 1.0806(36) 0.1276(11)
H6 H 0.3065(23) 1.0282(37) 0.1044(14)
H7 H 0.2678(24) 0.7056(36) 0.1599(14)
H8 H 0.2680(31) 0.7143(47) 0.1030(18)
H9 H 0.3186(20) 0.6163(38) 0.1298(11)
H10 H 0.8762(23) 0.9165(43) 0.2382(16)
H11 H 0.9013(26) 0.9317(42) 0.1881(14)
H12 H 0.8253(22) 1.0212(40) 0.2062(12)
H13 H 0.8651(24) 0.5826(39) 0.2211(15)
H14 H 0.7993(25) 0.5373(45) 0.1823(14)
H15 H 0.8835(22) 0.6165(34) 0.1665(12)
H16 H 0.6856(41) 0.7557(62) 0.1248(21)
H17 H 0.7388(26) 0.9159(51) 0.1276(15)
H18 H 0.7721(26) 0.7873(42) 0.1120(15)
H19 H 0.0942(25) 0.8868(46) 0.4419(16)
H20 H 0.0873(26) 0.9462(42) 0.4955(15)
H21 H 0.1396(22) 1.0432(41) 0.4621(13)
H22 H 0.1677(19) 0.6208(31) 0.4821(11)
H23 H 0.2471(23) 0.5997(39) 0.5089(12)
H24 H 0.1631(21) 0.6796(31) 0.5305(13)
H25 H 0.3430(26) 0.9175(40) 0.5199(14)
H26 H 0.2860(22) 1.0447(43) 0.5077(13)
H27 H 0.2642(24) 0.9532(39) 0.5501(15)
H28 H 0.1705(19) 0.9125(33) 0.1749(11)
H29 H 0.0835(21) 0.9593(32) 0.1862(12)
H30 H 0.1575(25) 1.0461(47) 0.2111(14)
H31 H 0.1025(23) 0.5817(45) 0.2596(15)
H32 H 0.0445(25) 0.6536(35) 0.2218(13)
H33 H 0.1335(22) 0.6184(37) 0.2101(13)
H34 H 0.0738(21) 0.8525(36) 0.3262(13)
H35 H 0.0833(21) 1.0000(40) 0.3006(12)
H36 H 0.0087(23) 0.9003(37) 0.2849(12)
H37 H 0.8816(21) 0.5811(40) 0.4388(12)
H38 H 0.9612(35) 0.6794(52) 0.4354(18)
H39 H 0.8738(23) 0.7331(38) 0.4578(14)
H40 H 0.8687(19) 0.9822(33) 0.3502(13)
H41 H 0.8666(25) 1.0006(43) 0.4016(15)
H42 H 0.9483(23) 0.9532(34) 0.3767(11)
H43 H 0.8700(34) 0.6951(58) 0.2992(20)
H44 H 0.9524(30) 0.6580(42) 0.3271(15)
H45 H 0.8752(24) 0.5606(46) 0.3304(14)
H46 H 0.3911(24) 0.7003(41) 0.5596(13)
H47 H 0.4227(22) 0.5444(42) 0.5490(13)
H48 H 0.4438(27) 0.6121(45) 0.5990(18)
H49 H 0.6037(24) 0.9174(41) 0.5719(13)
H50 H 0.5140(21) 0.9434(37) 0.5708(11)
H51 H 0.5494(21) 0.8613(36) 0.6093(15)
H52 H 0.6748(23) 0.6252(36) 0.5436(13)
H53 H 0.6291(22) 0.5672(37) 0.5879(15)
H54 H 0.6090(20) 0.4882(38) 0.5406(13)
loop_
_geom_bond_atom_site_label_1
_geom_bond_atom_site_label_2
_geom_bond_site_symmetry_1
_geom_bond_site_symmetry_2
C1 C2 1_555 1_555
C2 C3 1_555 1_555
C3 C1 1_555 1_555
C4 C1 1_555 1_555
C5 C2 1_555 1_555
C6 C3 1_555 1_555
C7 C4 1_555 1_555
C8 C7 1_555 1_555
C9 C4 1_555 1_555
C10 C9 1_555 1_555
C11 C5 1_555 1_555
C12 C11 1_555 1_555
C13 C5 1_555 1_555
C14 C13 1_555 1_555
C15 C6 1_555 1_555
C16 C15 1_555 1_555
C17 C6 1_555 1_555
C18 C17 1_555 1_555
Si1 C8 1_555 1_555
C19 Si1 1_555 1_555
C20 Si1 1_555 1_555
C21 Si1 1_555 1_555
Si2 C10 1_555 1_555
C22 Si2 1_555 1_555
C23 Si2 1_555 1_555
C24 Si2 1_555 1_555
Si3 C12 1_555 1_555
C25 Si3 1_555 1_555
C26 Si3 1_555 1_555
C27 Si3 1_555 1_555
Si4 C14 1_555 1_555
C28 Si4 1_555 1_555
C29 Si4 1_555 1_555
C30 Si4 1_555 1_555
Si5 C16 1_555 1_555
C31 Si5 1_555 1_555
C32 Si5 1_555 1_555
C33 Si5 1_555 1_555
Si6 C18 1_555 1_555
C34 Si6 1_555 1_555
C35 Si6 1_555 1_555
C36 Si6 1_555 1_555
H1 C19 1_555 1_555
H2 C19 1_555 1_555
H3 C19 1_555 1_555
H4 C20 1_555 1_555
H5 C20 1_555 1_555
H6 C20 1_555 1_555
H7 C21 1_555 1_555
H8 C21 1_555 1_555
H9 C21 1_555 1_555
H10 C22 1_555 1_555
H11 C22 1_555 1_555
H12 C22 1_555 1_555
H13 C23 1_555 1_555
H14 C23 1_555 1_555
H15 C23 1_555 1_555
H16 C24 1_555 1_555
H17 C24 1_555 1_555
H18 C24 1_555 1_555
H19 C25 1_555 1_555
H20 C25 1_555 1_555
H21 C25 1_555 1_555
H22 C26 1_555 1_555
H23 C26 1_555 1_555
H24 C26 1_555 1_555
H25 C27 1_555 1_555
H26 C27 1_555 1_555
H27 C27 1_555 1_555
H28 C28 1_555 1_555
H29 C28 1_555 1_555
H30 C28 1_555 1_555
H31 C29 1_555 1_555
H32 C29 1_555 1_555
H33 C29 1_555 1_555
H34 C30 1_555 1_555
H35 C30 1_555 1_555
H36 C30 1_555 1_555
H37 C31 1_555 1_555
H38 C31 1_555 1_555
H39 C31 1_555 1_555
H40 C32 1_555 1_555
H41 C32 1_555 1_555
H42 C32 1_555 1_555
H43 C33 1_555 1_555
H44 C33 1_555 1_555
H45 C33 1_555 1_555
H46 C34 1_555 1_555
H47 C34 1_555 1_555
H48 C34 1_555 1_555
H49 C35 1_555 1_555
H50 C35 1_555 1_555
H51 C35 1_555 1_555
H52 C36 1_555 1_555
H53 C36 1_555 1_555
H54 C36 1_555 1_555

#END
