
#######################################################################
#
#                 Cambridge Crystallographic Data Centre
#                                CCDC 
#
#######################################################################
#
# If this CIF has been generated from an entry in the Cambridge 
# Structural Database, then it will include bibliographic, chemical, 
# crystal, experimental, refinement or atomic coordinate data resulting 
# from the CCDC's data processing and validation procedures.
#
#######################################################################

data_YUCDIJ
_chemical_formula_moiety         'C15 H20 O3'
_chemical_name_systematic        'Isoalantolactone epoxide'
_symmetry_cell_setting           orthorhombic
_symmetry_space_group_name_H-M   'P 21 21 21'
_symmetry_Int_Tables_number      19
_space_group_name_Hall           'P 2ac 2ab'
loop_
_symmetry_equiv_pos_site_id
_symmetry_equiv_pos_as_xyz
1 x,y,z
2 1/2-x,-y,1/2+z
3 1/2+x,1/2-y,-z
4 -x,1/2+y,1/2-z
_cell_length_a                   12.030(1)
_cell_length_b                   12.518(1)
_cell_length_c                   8.767(1)
_cell_angle_alpha                90
_cell_angle_beta                 90
_cell_angle_gamma                90
_cell_volume                     1320.24
_chemical_melting_point          '113-114 deg.C'
_cell_formula_units_Z            4
loop_
_atom_site_label
_atom_site_type_symbol
_atom_site_fract_x
_atom_site_fract_y
_atom_site_fract_z
C1 C 0.3274(2) 0.4174(1) 0.1530(2)
C2 C 0.3601(2) 0.4306(2) 0.3199(3)
C3 C 0.3271(2) 0.3324(2) 0.4129(2)
C4 C 0.3730(2) 0.2322(1) 0.3405(2)
C5 C 0.3382(1) 0.2183(1) 0.1750(2)
C6 C 0.3759(2) 0.1137(1) 0.1037(2)
C7 C 0.3270(1) 0.0969(1) -0.0569(2)
C8 C 0.3392(2) 0.1965(1) -0.1576(2)
C9 C 0.3245(2) 0.3037(1) -0.0806(2)
C10 C 0.3753(1) 0.3160(1) 0.0792(2)
C11 C 0.3967(1) 0.0182(1) -0.1432(2)
C12 C 0.4798(2) 0.0817(2) -0.2303(2)
C13 C 0.3948(2) -0.0876(2) -0.1433(2)
C14 C 0.4740(2) 0.1833(2) 0.4023(2)
C15 C 0.5026(2) 0.3273(1) 0.0684(2)
O1 O 0.3666(1) 0.1377(1) 0.4358(2)
O2 O 0.4516(1) 0.1864(1) -0.2220(1)
O3 O 0.5615(1) 0.0523(1) -0.2971(2)
H1 H 0.351(2) 0.476(1) 0.097(2)
H2 H 0.247(2) 0.416(2) 0.143(3)
H3 H 0.324(2) 0.500(2) 0.359(3)
H4 H 0.443(2) 0.446(2) 0.329(3)
H5 H 0.243(2) 0.327(1) 0.418(3)
H6 H 0.355(2) 0.341(1) 0.523(3)
H7 H 0.257(2) 0.219(2) 0.171(3)
H8 H 0.358(2) 0.055(2) 0.165(3)
H9 H 0.453(2) 0.109(1) 0.098(3)
H10 H 0.248(2) 0.075(2) -0.049(3)
H11 H 0.288(2) 0.194(2) -0.246(3)
H12 H 0.243(2) 0.315(1) -0.072(3)
H13 H 0.356(2) 0.359(1) -0.147(2)
H14 H 0.346(2) -0.124(1) -0.087(3)
H15 H 0.454(2) -0.128(1) -0.205(3)
H16 H 0.506(2) 0.213(1) 0.493(2)
H17 H 0.521(2) 0.140(1) 0.328(3)
H18 H 0.524(2) 0.396(2) 0.014(3)
H19 H 0.540(2) 0.327(2) 0.164(3)
H20 H 0.533(2) 0.267(2) 0.009(3)
loop_
_geom_bond_atom_site_label_1
_geom_bond_atom_site_label_2
_geom_bond_site_symmetry_1
_geom_bond_site_symmetry_2
C1 C2 1_555 1_555
C2 C3 1_555 1_555
C3 C4 1_555 1_555
C4 C5 1_555 1_555
C5 C6 1_555 1_555
C6 C7 1_555 1_555
C7 C8 1_555 1_555
C8 C9 1_555 1_555
C9 C10 1_555 1_555
C10 C1 1_555 1_555
C11 C7 1_555 1_555
C12 C11 1_555 1_555
C13 C11 1_555 1_555
C14 C4 1_555 1_555
C15 C10 1_555 1_555
O1 C4 1_555 1_555
O2 C8 1_555 1_555
O3 C12 1_555 1_555
H1 C1 1_555 1_555
H2 C1 1_555 1_555
H3 C2 1_555 1_555
H4 C2 1_555 1_555
H5 C3 1_555 1_555
H6 C3 1_555 1_555
H7 C5 1_555 1_555
H8 C6 1_555 1_555
H9 C6 1_555 1_555
H10 C7 1_555 1_555
H11 C8 1_555 1_555
H12 C9 1_555 1_555
H13 C9 1_555 1_555
H14 C13 1_555 1_555
H15 C13 1_555 1_555
H16 C14 1_555 1_555
H17 C14 1_555 1_555
H18 C15 1_555 1_555
H19 C15 1_555 1_555
H20 C15 1_555 1_555
C5 C10 1_555 1_555
C12 O2 1_555 1_555
C14 O1 1_555 1_555

#END
