
#######################################################################
#
#                 Cambridge Crystallographic Data Centre
#                                CCDC 
#
#######################################################################
#
# If this CIF has been generated from an entry in the Cambridge 
# Structural Database, then it will include bibliographic, chemical, 
# crystal, experimental, refinement or atomic coordinate data resulting 
# from the CCDC's data processing and validation procedures.
#
#######################################################################

data_YUCVEX
_chemical_formula_moiety         'C24 H29 N2 O5 S1 1+,Cl1 1-,C2 H3 N1'
_chemical_name_systematic        
'3-Acetoxy-4-(4-methoxyphenyl)-N-(2-pyrrolidinylmethyl)-1,3,4,5-tetrahydro-7-methoxy-5-thia-2H-benzazepin-2-one hydrochloride acetonitrile solvate'
_symmetry_cell_setting           orthorhombic
_symmetry_space_group_name_H-M   'P 21 21 21'
_symmetry_Int_Tables_number      19
_space_group_name_Hall           'P 2ac 2ab'
loop_
_symmetry_equiv_pos_site_id
_symmetry_equiv_pos_as_xyz
1 x,y,z
2 1/2-x,-y,1/2+z
3 1/2+x,1/2-y,-z
4 -x,1/2+y,1/2-z
_cell_length_a                   8.619(1)
_cell_length_b                   43.186(6)
_cell_length_c                   7.402(1)
_cell_angle_alpha                90
_cell_angle_beta                 90
_cell_angle_gamma                90
_cell_volume                     2755.17
_cell_formula_units_Z            4
loop_
_atom_site_label
_atom_site_type_symbol
_atom_site_fract_x
_atom_site_fract_y
_atom_site_fract_z
N1 N 0.7699(5) 0.09443(8) 0.4471(6)
C1 C 0.8546(6) 0.1198(1) 0.3959(7)
O1 O 0.9536(4) 0.11862(8) 0.2801(5)
C2 C 0.8097(5) 0.1501(1) 0.4866(8)
C3 C 0.8964(6) 0.1564(1) 0.6621(7)
S1 S 0.8986(2) 0.12194(3) 0.8031(2)
C4 C 0.6139(6) 0.1044(1) 0.9116(8)
C5 C 0.4685(6) 0.0902(1) 0.8977(8)
C6 C 0.4226(5) 0.0794(1) 0.7323(9)
C7 C 0.5192(6) 0.0813(1) 0.5843(8)
C8 C 0.6683(5) 0.0945(1) 0.5987(7)
C9 C 0.7118(6) 0.1059(1) 0.7683(7)
C10 C 1.0639(5) 0.1674(1) 0.6438(7)
C11 C 1.0993(6) 0.1980(1) 0.6726(8)
C12 C 1.2512(6) 0.2090(1) 0.6603(9)
C13 C 1.3682(6) 0.1886(1) 0.6198(8)
C14 C 1.3345(6) 0.1578(1) 0.5909(9)
C15 C 1.1841(6) 0.1474(1) 0.5990(9)
O2 O 1.5235(4) 0.19648(8) 0.6091(7)
C16 C 1.5629(7) 0.2277(1) 0.632(1)
O3 O 0.8398(4) 0.17557(7) 0.3684(5)
C17 C 0.7414(7) 0.1777(1) 0.2267(8)
O4 O 0.6362(5) 0.15977(9) 0.2025(6)
C18 C 0.781(1) 0.2044(2) 0.109(1)
C19 C 0.7975(6) 0.0650(1) 0.3546(7)
C20 C 0.8824(6) 0.0423(1) 0.4743(7)
N2 N 0.8869(5) 0.01083(9) 0.3884(6)
C21 C 1.0252(9) -0.0049(1) 0.466(1)
C22 C 1.1347(8) 0.0198(2) 0.512(1)
C23 C 1.0526(7) 0.0494(1) 0.515(1)
O5 O 0.3833(5) 0.0893(1) 1.0536(7)
C24 C 0.2262(8) 0.0818(2) 1.041(1)
H1 H 0.7022 0.1483 0.5117
H2 H 0.8396 0.1730 0.7135
H3 H 0.6454 0.1129 1.0244
H4 H 0.3224 0.0702 0.7174
H5 H 0.4846 0.0735 0.4707
H6 H 1.0188 0.2119 0.7023
H7 H 1.2732 0.2302 0.6795
H8 H 1.4153 0.1437 0.5643
H9 H 1.1624 0.1264 0.5729
H10 H 1.6731 0.2296 0.6200
H11 H 1.5146 0.2395 0.5390
H12 H 1.5311 0.2344 0.7457
H13 H 0.7104 0.2052 0.0117
H14 H 0.7759 0.2229 0.1777
H15 H 0.8837 0.2016 0.0644
H16 H 0.7003 0.0562 0.3205
H17 H 0.8579 0.0685 0.2498
H18 H 0.8237 0.0436 0.5840
H19 H 0.8750 0.0156 0.2363
H20 H 1.0693 -0.0182 0.3780
H21 H 0.9968 -0.0163 0.5695
H22 H 1.1800 0.0170 0.6291
H23 H 1.2167 0.0219 0.4259
H24 H 1.0929 0.0630 0.4276
H25 H 1.0608 0.0587 0.6322
H26 H 0.1834 0.0825 1.1604
H27 H 0.1760 0.0968 0.9684
H28 H 0.2156 0.0620 0.9923
Cl1 Cl 0.9379(2) 0.01400(4) -0.0231(2)
N3 N 0.362(1) 0.2295(2) 0.159(1)
C25 C 0.3186(9) 0.2056(2) 0.145(1)
C26 C 0.262(1) 0.1734(2) 0.124(1)
H29 H 0.1660 0.1757 0.0488
H30 H 0.3318 0.1612 0.0599
H31 H 0.2335 0.1649 0.2342
loop_
_geom_bond_atom_site_label_1
_geom_bond_atom_site_label_2
_geom_bond_site_symmetry_1
_geom_bond_site_symmetry_2
N1 C1 1_555 1_555
C1 O1 1_555 1_555
C2 C1 1_555 1_555
C3 C2 1_555 1_555
S1 C3 1_555 1_555
C4 C5 1_555 1_555
C5 C6 1_555 1_555
C6 C7 1_555 1_555
C7 C8 1_555 1_555
C8 N1 1_555 1_555
C9 S1 1_555 1_555
C10 C3 1_555 1_555
C11 C10 1_555 1_555
C12 C11 1_555 1_555
C13 C12 1_555 1_555
C14 C13 1_555 1_555
C15 C10 1_555 1_555
O2 C13 1_555 1_555
C16 O2 1_555 1_555
O3 C2 1_555 1_555
C17 O3 1_555 1_555
O4 C17 1_555 1_555
C18 C17 1_555 1_555
C19 N1 1_555 1_555
C20 C19 1_555 1_555
N2 C20 1_555 1_555
C21 N2 1_555 1_555
C22 C21 1_555 1_555
C23 C20 1_555 1_555
O5 C5 1_555 1_555
C24 O5 1_555 1_555
H1 C2 1_555 1_555
H2 C3 1_555 1_555
H3 C4 1_555 1_555
H4 C6 1_555 1_555
H5 C7 1_555 1_555
H6 C11 1_555 1_555
H7 C12 1_555 1_555
H8 C14 1_555 1_555
H9 C15 1_555 1_555
H10 C16 1_555 1_555
H11 C16 1_555 1_555
H12 C16 1_555 1_555
H13 C18 1_555 1_555
H14 C18 1_555 1_555
H15 C18 1_555 1_555
H16 C19 1_555 1_555
H17 C19 1_555 1_555
H18 C20 1_555 1_555
H19 N2 1_555 1_555
H20 C21 1_555 1_555
H21 C21 1_555 1_555
H22 C22 1_555 1_555
H23 C22 1_555 1_555
H24 C23 1_555 1_555
H25 C23 1_555 1_555
H26 C24 1_555 1_555
H27 C24 1_555 1_555
H28 C24 1_555 1_555
N3 C25 1_555 1_555
C25 C26 1_555 1_555
C26 H29 1_555 1_555
H30 C26 1_555 1_555
H31 C26 1_555 1_555
C4 C9 1_555 1_555
C8 C9 1_555 1_555
C14 C15 1_555 1_555
C22 C23 1_555 1_555

#END
