
#######################################################################
#
#                 Cambridge Crystallographic Data Centre
#                                CCDC 
#
#######################################################################
#
# If this CIF has been generated from an entry in the Cambridge 
# Structural Database, then it will include bibliographic, chemical, 
# crystal, experimental, refinement or atomic coordinate data resulting 
# from the CCDC's data processing and validation procedures.
#
#######################################################################

data_YUDHEL
_chemical_formula_moiety         'C22 H22 N2 O4'
_chemical_name_systematic        
N-(2-Methoxyphenyl)-4-((2-methoxyphenyl)imino)-2,6-dimethyl-4H-pyran-3-carboxamide
_symmetry_cell_setting           triclinic
_symmetry_space_group_name_H-M   'P -1'
_symmetry_Int_Tables_number      2
_space_group_name_Hall           '-P 1'
loop_
_symmetry_equiv_pos_site_id
_symmetry_equiv_pos_as_xyz
1 x,y,z
2 -x,-y,-z
_cell_length_a                   10.334(3)
_cell_length_b                   10.420(3)
_cell_length_c                   11.131(3)
_cell_angle_alpha                64.783(4)
_cell_angle_beta                 71.969(4)
_cell_angle_gamma                65.832(4)
_cell_volume                     975.976
_exptl_crystal_colour            white
_exptl_crystal_description       block
_chemical_melting_point          154-156deg.C
_cell_formula_units_Z            2
loop_
_atom_site_label
_atom_site_type_symbol
_atom_site_fract_x
_atom_site_fract_y
_atom_site_fract_z
O1 O 1.2861(2) 0.4976(2) 0.34937(18)
O2 O 0.84333(17) 0.07113(19) 0.68132(16)
O3 O 1.38983(18) -0.03609(19) 0.66027(17)
N1 N 1.17603(19) 0.2314(2) 0.58783(18)
N2 N 1.1123(2) 0.3809(2) 0.34382(18)
H1 H 1.1393 0.3733 0.4129
O4 O 0.9779(2) 0.3027(2) 0.28159(18)
C1 C 1.3761(2) 0.0661(3) 0.7132(2)
C2 C 1.2596(2) 0.1994(2) 0.6820(2)
C3 C 1.1636(2) 0.4754(3) 0.2192(2)
C4 C 1.0761(2) 0.1733(2) 0.6175(2)
C5 C 1.0353(2) 0.0741(3) 0.7490(2)
H2 H 1.0886 0.0418 0.8162
C6 C 0.8799(2) 0.1578(3) 0.5526(2)
C7 C 1.2569(3) 0.5389(3) 0.2235(2)
C8 C 0.9245(3) 0.0274(3) 0.7771(2)
C9 C 0.9923(2) 0.2095(2) 0.5150(2)
C10 C 1.0268(2) 0.3009(3) 0.3690(2)
C11 C 1.2389(3) 0.3071(3) 0.7334(2)
H3 H 1.1631 0.3963 0.7125
C12 C 1.4667(3) 0.0460(3) 0.7932(2)
H4 H 1.5445 -0.0416 0.8130
C13 C 1.1850(3) 0.6060(3) -0.0195(3)
H5 H 1.1612 0.6286 -0.1018
C14 C 1.3989(3) 0.5320(4) 0.3612(3)
H6 H 1.4068 0.4965 0.4545
H7 H 1.3794 0.6386 0.3241
H8 H 1.4875 0.4843 0.3131
C15 C 1.5217(3) -0.1560(3) 0.6621(3)
H9 H 1.5173 -0.2197 0.6226
H10 H 1.5376 -0.2130 0.7534
H11 H 1.5991 -0.1164 0.6116
C16 C 1.2755(3) 0.6671(4) -0.0135(3)
H12 H 1.3121 0.7323 -0.0917
C17 C 1.1281(3) 0.5102(3) 0.0964(2)
H13 H 1.0659 0.4692 0.0915
C18 C 1.4424(3) 0.1548(4) 0.8437(3)
H14 H 1.5037 0.1401 0.8977
C19 C 0.7739(3) 0.1841(3) 0.4711(3)
H15 H 0.7975 0.2455 0.3798
H16 H 0.6788 0.2338 0.5086
H17 H 0.7777 0.0897 0.4728
C20 C 0.8679(3) -0.0714(3) 0.9081(3)
H18 H 0.9258 -0.1000 0.9739
H19 H 0.8711 -0.1594 0.8974
H20 H 0.7704 -0.0184 0.9374
C21 C 1.3137(3) 0.6333(3) 0.1079(3)
H21 H 1.3771 0.6739 0.1114
C22 C 1.3286(3) 0.2849(3) 0.8152(3)
H22 H 1.3119 0.3576 0.8506
loop_
_geom_bond_atom_site_label_1
_geom_bond_atom_site_label_2
_geom_bond_site_symmetry_1
_geom_bond_site_symmetry_2
O1 C7 1_555 1_555
O2 C6 1_555 1_555
O3 C1 1_555 1_555
N1 C2 1_555 1_555
N2 H1 1_555 1_555
O4 C10 1_555 1_555
C1 C2 1_555 1_555
C2 C11 1_555 1_555
C3 N2 1_555 1_555
C4 N1 1_555 1_555
C5 C4 1_555 1_555
H2 C5 1_555 1_555
C6 C9 1_555 1_555
C7 C3 1_555 1_555
C8 O2 1_555 1_555
C9 C4 1_555 1_555
C10 N2 1_555 1_555
C11 H3 1_555 1_555
C12 C1 1_555 1_555
H4 C12 1_555 1_555
C13 H5 1_555 1_555
C14 O1 1_555 1_555
H6 C14 1_555 1_555
H7 C14 1_555 1_555
H8 C14 1_555 1_555
C15 O3 1_555 1_555
H9 C15 1_555 1_555
H10 C15 1_555 1_555
H11 C15 1_555 1_555
C16 C13 1_555 1_555
H12 C16 1_555 1_555
C17 C3 1_555 1_555
H13 C17 1_555 1_555
C18 C12 1_555 1_555
H14 C18 1_555 1_555
C19 C6 1_555 1_555
H15 C19 1_555 1_555
H16 C19 1_555 1_555
H17 C19 1_555 1_555
C20 C8 1_555 1_555
H18 C20 1_555 1_555
H19 C20 1_555 1_555
H20 C20 1_555 1_555
C21 C7 1_555 1_555
H21 C21 1_555 1_555
C22 C11 1_555 1_555
H22 C22 1_555 1_555
C5 C8 1_555 1_555
C9 C10 1_555 1_555
C13 C17 1_555 1_555
C16 C21 1_555 1_555
C18 C22 1_555 1_555

#END
