
#######################################################################
#
#                 Cambridge Crystallographic Data Centre
#                                CCDC 
#
#######################################################################
#
# If this CIF has been generated from an entry in the Cambridge 
# Structural Database, then it will include bibliographic, chemical, 
# crystal, experimental, refinement or atomic coordinate data resulting 
# from the CCDC's data processing and validation procedures.
#
#######################################################################

data_YUDJOX
_chemical_formula_moiety         'C18 H20 N2 O1 S1'
_chemical_name_systematic        
(Z)-N-(3-Hexyl-1H-isochromen-1-ylidene)-1,3-thiazol-2-amine
_symmetry_cell_setting           monoclinic
_symmetry_space_group_name_H-M   'C 2/c'
_symmetry_Int_Tables_number      15
_space_group_name_Hall           '-C 2yn'
loop_
_symmetry_equiv_pos_site_id
_symmetry_equiv_pos_as_xyz
1 x,y,z
2 -x,y,1/2-z
3 1/2+x,1/2+y,z
4 1/2-x,1/2+y,1/2-z
5 -x,-y,-z
6 x,-y,1/2+z
7 1/2-x,1/2-y,-z
8 1/2+x,1/2-y,1/2+z
_cell_length_a                   24.629(7)
_cell_length_b                   10.096(3)
_cell_length_c                   14.199(4)
_cell_angle_alpha                90
_cell_angle_beta                 111.536(5)
_cell_angle_gamma                90
_cell_volume                     3284.16
_exptl_crystal_colour            green
_exptl_crystal_description       prismatic
_cell_formula_units_Z            8
loop_
_atom_site_label
_atom_site_type_symbol
_atom_site_fract_x
_atom_site_fract_y
_atom_site_fract_z
S1 S 1.12909(3) 0.29409(6) 0.16875(5)
N1 N 1.21961(8) 0.1496(2) 0.24919(16)
N2 N 1.13575(8) 0.01957(17) 0.20133(14)
O1 O 1.04439(6) 0.11077(13) 0.14838(11)
C1 C 1.19552(11) 0.3677(3) 0.20698(19)
H1 H 1.2020 0.4575 0.2008
C2 C 1.23673(11) 0.2777(3) 0.2471(2)
H2 H 1.2760 0.3011 0.2729
C3 C 1.16297(10) 0.1411(2) 0.21025(17)
C4 C 1.08069(10) 0.0034(2) 0.17158(16)
C5 C 1.05385(10) -0.1276(2) 0.16039(17)
C6 C 1.08806(11) -0.2404(2) 0.18636(19)
H3 H 1.1285 -0.2328 0.2144
C7 C 1.06246(12) -0.3638(2) 0.1708(2)
H4 H 1.0856 -0.4395 0.1872
C8 C 1.00239(12) -0.3751(2) 0.1307(2)
H5 H 0.9852 -0.4586 0.1199
C9 C 0.96801(11) -0.2643(2) 0.10678(18)
H6 H 0.9276 -0.2733 0.0807
C10 C 0.99266(10) -0.1384(2) 0.12090(17)
C11 C 0.95859(9) -0.0189(2) 0.09913(17)
H7 H 0.9181 -0.0247 0.0748
C12 C 0.98364(9) 0.0996(2) 0.11298(16)
C13 C 0.95784(9) 0.2358(2) 0.09765(18)
H8 H 0.9695 0.2810 0.0478
H9 H 0.9745 0.2841 0.1608
C14 C 0.89167(9) 0.2425(2) 0.06327(18)
H10 H 0.8743 0.2027 -0.0033
H11 H 0.8790 0.1923 0.1098
C15 C 0.87080(9) 0.3854(2) 0.05916(18)
H12 H 0.8894 0.4251 0.1255
H13 H 0.8833 0.4344 0.0120
C16 C 0.80527(9) 0.3998(2) 0.02757(18)
H14 H 0.7868 0.3714 -0.0422
H15 H 0.7919 0.3418 0.0691
C17 C 0.78619(10) 0.5407(2) 0.0373(2)
H16 H 0.8021 0.5996 0.0000
H17 H 0.8023 0.5666 0.1080
C18 C 0.71987(10) 0.5575(3) -0.0021(2)
H18 H 0.7037 0.5337 -0.0724
H19 H 0.7105 0.6481 0.0058
H20 H 0.7038 0.5011 0.0356
loop_
_geom_bond_atom_site_label_1
_geom_bond_atom_site_label_2
_geom_bond_site_symmetry_1
_geom_bond_site_symmetry_2
S1 C1 1_555 1_555
N1 C2 1_555 1_555
N2 C3 1_555 1_555
O1 C4 1_555 1_555
C1 H1 1_555 1_555
C2 C1 1_555 1_555
H2 C2 1_555 1_555
C3 S1 1_555 1_555
C4 N2 1_555 1_555
C5 C4 1_555 1_555
C6 C5 1_555 1_555
H3 C6 1_555 1_555
C7 C6 1_555 1_555
H4 C7 1_555 1_555
C8 C7 1_555 1_555
H5 C8 1_555 1_555
C9 C8 1_555 1_555
H6 C9 1_555 1_555
C10 C5 1_555 1_555
C11 C10 1_555 1_555
H7 C11 1_555 1_555
C12 O1 1_555 1_555
C13 C12 1_555 1_555
H8 C13 1_555 1_555
H9 C13 1_555 1_555
C14 C13 1_555 1_555
H10 C14 1_555 1_555
H11 C14 1_555 1_555
C15 C14 1_555 1_555
H12 C15 1_555 1_555
H13 C15 1_555 1_555
C16 C15 1_555 1_555
H14 C16 1_555 1_555
H15 C16 1_555 1_555
C17 C16 1_555 1_555
H16 C17 1_555 1_555
H17 C17 1_555 1_555
C18 C17 1_555 1_555
H18 C18 1_555 1_555
H19 C18 1_555 1_555
H20 C18 1_555 1_555
N1 C3 1_555 1_555
C9 C10 1_555 1_555
C11 C12 1_555 1_555

#END
