
#######################################################################
#
#                 Cambridge Crystallographic Data Centre
#                                CCDC 
#
#######################################################################
#
# If this CIF has been generated from an entry in the Cambridge 
# Structural Database, then it will include bibliographic, chemical, 
# crystal, experimental, refinement or atomic coordinate data resulting 
# from the CCDC's data processing and validation procedures.
#
#######################################################################

data_YUDJAJ
_chemical_formula_moiety         'C29 H26 N2 O3 S1'
_chemical_name_systematic        
4-Methyl-N-(1-(2-(4-methylphenyl)-1,3-benzoxazol-3(2H)-yl)-2-phenylethylidene)benzenesulfonamide
_symmetry_cell_setting           triclinic
_symmetry_space_group_name_H-M   'P -1'
_symmetry_Int_Tables_number      2
_space_group_name_Hall           '-P 1'
loop_
_symmetry_equiv_pos_site_id
_symmetry_equiv_pos_as_xyz
1 x,y,z
2 -x,-y,-z
_cell_length_a                   8.8304(7)
_cell_length_b                   11.8409(10)
_cell_length_c                   12.9085(11)
_cell_angle_alpha                66.1610(10)
_cell_angle_beta                 84.2010(10)
_cell_angle_gamma                83.5160(10)
_cell_volume                     1224.38
_exptl_crystal_colour            colorless
_exptl_crystal_description       block
_cell_formula_units_Z            2
loop_
_atom_site_label
_atom_site_type_symbol
_atom_site_fract_x
_atom_site_fract_y
_atom_site_fract_z
S1 S 0.15531(5) 0.83435(4) 0.41683(4)
O1 O 0.10985(17) 0.95484(13) 0.33584(11)
O2 O 0.03863(15) 0.75173(15) 0.47076(12)
O3 O 0.58147(13) 0.60353(13) 0.14009(11)
N1 N 0.29461(16) 0.76500(13) 0.36649(11)
N2 N 0.41231(14) 0.68408(12) 0.24559(11)
C1 C 0.5098(3) 0.8904(3) 0.7673(3)
H1 H 0.4925 0.8259 0.8410
H2 H 0.4825 0.9696 0.7711
H3 H 0.6158 0.8852 0.7428
C2 C 0.4136(2) 0.8758(2) 0.68409(19)
C3 C 0.3385(3) 0.9767(2) 0.6047(2)
H4 H 0.3423 1.0544 0.6058
C4 C 0.2576(3) 0.96603(19) 0.52329(18)
H5 H 0.2075 1.0356 0.4703
C5 C 0.25221(19) 0.85121(16) 0.52170(14)
C6 C 0.3231(2) 0.74806(18) 0.60266(15)
H6 H 0.3176 0.6700 0.6028
C7 C 0.4020(2) 0.7613(2) 0.68311(17)
H7 H 0.4485 0.6914 0.7381
C8 C 0.28711(17) 0.74458(14) 0.27591(12)
C9 C 0.15524(18) 0.78298(15) 0.19971(13)
H8 H 0.0675 0.8113 0.2370
H9 H 0.1285 0.7112 0.1893
C10 C 0.18874(17) 0.88443(15) 0.08438(13)
C11 C 0.1339(2) 0.88121(17) -0.01111(14)
H10 H 0.0823 0.8141 -0.0043
C12 C 0.1548(2) 0.97606(19) -0.11607(15)
H11 H 0.1168 0.9728 -0.1794
C13 C 0.2312(2) 1.07495(19) -0.12722(17)
H12 H 0.2444 1.1395 -0.1979
C14 C 0.2883(2) 1.0783(2) -0.03329(18)
H13 H 0.3421 1.1447 -0.0410
C15 C 0.2667(2) 0.98417(17) 0.07220(16)
H14 H 0.3047 0.9879 0.1353
C16 C 0.55432(18) 0.64989(14) 0.29661(13)
C17 C 0.6062(2) 0.65951(18) 0.39010(14)
H15 H 0.5421 0.6907 0.4357
C18 C 0.7581(2) 0.6205(2) 0.41290(16)
H16 H 0.7966 0.6270 0.4745
C19 C 0.8532(2) 0.57252(19) 0.34682(17)
H17 H 0.9539 0.5463 0.3653
C20 C 0.8014(2) 0.56261(17) 0.25339(17)
H18 H 0.8650 0.5304 0.2083
C21 C 0.65196(19) 0.60262(15) 0.23060(14)
C22 C 0.42388(18) 0.64655(16) 0.14845(13)
H19 H 0.4001 0.7193 0.0792
C23 C 0.32370(18) 0.54624(15) 0.16215(13)
C24 C 0.2840(2) 0.53429(19) 0.06666(15)
H20 H 0.3179 0.5887 -0.0049
C25 C 0.1939(3) 0.4418(2) 0.07686(18)
H21 H 0.1693 0.4345 0.0116
C26 C 0.1394(2) 0.35987(17) 0.18155(17)
C27 C 0.1799(2) 0.37261(17) 0.27609(16)
H22 H 0.1453 0.3186 0.3476
C28 C 0.2712(2) 0.46413(16) 0.26689(14)
H23 H 0.2976 0.4704 0.3322
C29 C 0.0384(3) 0.2614(2) 0.1910(2)
H24 H -0.0507 0.2996 0.1493
H25 H 0.0081 0.2159 0.2693
H26 H 0.0933 0.2059 0.1604
loop_
_geom_bond_atom_site_label_1
_geom_bond_atom_site_label_2
_geom_bond_site_symmetry_1
_geom_bond_site_symmetry_2
S1 O1 1_555 1_555
O2 S1 1_555 1_555
O3 C21 1_555 1_555
N1 S1 1_555 1_555
N2 C8 1_555 1_555
C1 H1 1_555 1_555
H2 C1 1_555 1_555
H3 C1 1_555 1_555
C2 C1 1_555 1_555
C3 C2 1_555 1_555
H4 C3 1_555 1_555
C4 C3 1_555 1_555
H5 C4 1_555 1_555
C5 S1 1_555 1_555
C6 C5 1_555 1_555
H6 C6 1_555 1_555
C7 C2 1_555 1_555
H7 C7 1_555 1_555
C8 N1 1_555 1_555
C9 C8 1_555 1_555
H8 C9 1_555 1_555
H9 C9 1_555 1_555
C10 C9 1_555 1_555
C11 C10 1_555 1_555
H10 C11 1_555 1_555
C12 C11 1_555 1_555
H11 C12 1_555 1_555
C13 C12 1_555 1_555
H12 C13 1_555 1_555
C14 C13 1_555 1_555
H13 C14 1_555 1_555
C15 C10 1_555 1_555
H14 C15 1_555 1_555
C16 N2 1_555 1_555
C17 C16 1_555 1_555
H15 C17 1_555 1_555
C18 C17 1_555 1_555
H16 C18 1_555 1_555
C19 C18 1_555 1_555
H17 C19 1_555 1_555
C20 C19 1_555 1_555
H18 C20 1_555 1_555
C21 C16 1_555 1_555
C22 O3 1_555 1_555
H19 C22 1_555 1_555
C23 C22 1_555 1_555
C24 C23 1_555 1_555
H20 C24 1_555 1_555
C25 C24 1_555 1_555
H21 C25 1_555 1_555
C26 C25 1_555 1_555
C27 C26 1_555 1_555
H22 C27 1_555 1_555
C28 C23 1_555 1_555
H23 C28 1_555 1_555
C29 C26 1_555 1_555
H24 C29 1_555 1_555
H25 C29 1_555 1_555
H26 C29 1_555 1_555
N2 C22 1_555 1_555
C4 C5 1_555 1_555
C6 C7 1_555 1_555
C14 C15 1_555 1_555
C20 C21 1_555 1_555
C27 C28 1_555 1_555

#END
