
#######################################################################
#
#                 Cambridge Crystallographic Data Centre
#                                CCDC 
#
#######################################################################
#
# If this CIF has been generated from an entry in the Cambridge 
# Structural Database, then it will include bibliographic, chemical, 
# crystal, experimental, refinement or atomic coordinate data resulting 
# from the CCDC's data processing and validation procedures.
#
#######################################################################

data_YUDVEA
_chemical_formula_moiety         'C17 H24 N2 O2'
_chemical_name_systematic        
4-benzyl-3-(2-isopropylpyrrolidin-1-yl)-1,3-oxazolidin-2-one
_symmetry_cell_setting           orthorhombic
_symmetry_space_group_name_H-M   'P 21 21 21'
_symmetry_Int_Tables_number      19
_space_group_name_Hall           'P 2ac 2ab'
loop_
_symmetry_equiv_pos_site_id
_symmetry_equiv_pos_as_xyz
1 x,y,z
2 1/2-x,-y,1/2+z
3 -x,1/2+y,1/2-z
4 1/2+x,1/2-y,-z
_cell_length_a                   11.2911(14)
_cell_length_b                   11.5932(13)
_cell_length_c                   12.2066(14)
_cell_angle_alpha                90
_cell_angle_beta                 90
_cell_angle_gamma                90
_cell_volume                     1597.84
_exptl_crystal_colour            colorless
_exptl_crystal_description       plate
_cell_formula_units_Z            4
loop_
_atom_site_label
_atom_site_type_symbol
_atom_site_fract_x
_atom_site_fract_y
_atom_site_fract_z
N1 N 0.14442(13) 0.96894(12) 0.51644(11)
C1 C 0.23460(16) 1.05758(15) 0.48586(14)
H1 H 0.2769 1.0299 0.4189
C2 C 0.3224(4) 1.0549(3) 0.5818(3)
H2 H 0.3986 1.0204 0.5589
H3 H 0.3373 1.1338 0.6097
C3 C 0.2629(3) 0.9810(3) 0.6692(2)
H4 H 0.3225 0.9424 0.7160
H5 H 0.2100 1.0281 0.7160
C4 C 0.1930(5) 0.8939(5) 0.6034(5)
H6 H 0.2447 0.8329 0.5729
H7 H 0.1294 0.8581 0.6477
N2 N 0.09954(12) 0.90887(11) 0.42527(11)
O1 O 0.26616(12) 0.80304(11) 0.37767(11)
C5 C 0.16182(17) 0.82461(15) 0.37203(14)
O2 O 0.08644(12) 0.76514(11) 0.30577(10)
C6 C -0.02803(17) 0.82130(17) 0.30812(16)
H8 H -0.0926 0.7636 0.3089
H9 H -0.0382 0.8718 0.2434
C7 C -0.02832(15) 0.89216(14) 0.41347(15)
H10 H -0.0598 0.8452 0.4757
C8 C 0.17593(17) 1.17255(16) 0.45850(16)
H11 H 0.1155 1.1575 0.4004
C9 C 0.2676(2) 1.25544(19) 0.4103(2)
H12 H 0.2289 1.3281 0.3905
H13 H 0.3032 1.2208 0.3449
H14 H 0.3295 1.2705 0.4648
C10 C 0.1118(2) 1.22591(19) 0.5554(2)
H15 H 0.0675 1.2939 0.5310
H16 H 0.1697 1.2489 0.6111
H17 H 0.0569 1.1694 0.5868
C11 C -0.09658(16) 1.00491(14) 0.40357(16)
H18 H -0.0881 1.0493 0.4724
H19 H -0.0625 1.0515 0.3434
C12 C -0.22687(16) 0.98401(14) 0.38111(14)
C13 C -0.29772(18) 0.92755(17) 0.45688(17)
H20 H -0.2653 0.9047 0.5253
C14 C -0.41551(19) 0.90427(18) 0.4334(2)
H21 H -0.4631 0.8652 0.4858
C15 C -0.46380(19) 0.9371(2) 0.3352(2)
H22 H -0.5442 0.9199 0.3192
C16 C -0.39566(19) 0.9948(2) 0.26048(18)
H23 H -0.4293 1.0188 0.1929
C17 C -0.27724(18) 1.01839(18) 0.28311(15)
H24 H -0.2306 1.0585 0.2307
C18? C 0.3040(17) 1.0712(10) 0.5948(12)
H25? H 0.3846 1.1019 0.5818
H26? H 0.2617 1.1225 0.6465
C19? C 0.3081(10) 0.9474(10) 0.6369(11)
H27? H 0.3684 0.9016 0.5971
H28? H 0.3259 0.9452 0.7163
C20? C 0.185(2) 0.903(2) 0.614(2)
H29? H 0.1861 0.8192 0.5981
H30? H 0.1317 0.9170 0.6771
loop_
_geom_bond_atom_site_label_1
_geom_bond_atom_site_label_2
_geom_bond_site_symmetry_1
_geom_bond_site_symmetry_2
N1 C1 1_555 1_555
C1 H1 1_555 1_555
C2 C1 1_555 1_555
H2 C2 1_555 1_555
H3 C2 1_555 1_555
C3 C2 1_555 1_555
H4 C3 1_555 1_555
H5 C3 1_555 1_555
C4 N1 1_555 1_555
H6 C4 1_555 1_555
H7 C4 1_555 1_555
N2 N1 1_555 1_555
O1 C5 1_555 1_555
C5 N2 1_555 1_555
O2 C5 1_555 1_555
C6 O2 1_555 1_555
H8 C6 1_555 1_555
H9 C6 1_555 1_555
C7 N2 1_555 1_555
H10 C7 1_555 1_555
C8 C1 1_555 1_555
H11 C8 1_555 1_555
C9 C8 1_555 1_555
H12 C9 1_555 1_555
H13 C9 1_555 1_555
H14 C9 1_555 1_555
C10 C8 1_555 1_555
H15 C10 1_555 1_555
H16 C10 1_555 1_555
H17 C10 1_555 1_555
C11 C7 1_555 1_555
H18 C11 1_555 1_555
H19 C11 1_555 1_555
C12 C11 1_555 1_555
C13 C12 1_555 1_555
H20 C13 1_555 1_555
C14 C13 1_555 1_555
H21 C14 1_555 1_555
C15 C14 1_555 1_555
H22 C15 1_555 1_555
C16 C15 1_555 1_555
H23 C16 1_555 1_555
C17 C12 1_555 1_555
H24 C17 1_555 1_555
C3 C4 1_555 1_555
C6 C7 1_555 1_555
C16 C17 1_555 1_555

#END
