
#######################################################################
#
#                 Cambridge Crystallographic Data Centre
#                                CCDC 
#
#######################################################################
#
# If this CIF has been generated from an entry in the Cambridge 
# Structural Database, then it will include bibliographic, chemical, 
# crystal, experimental, refinement or atomic coordinate data resulting 
# from the CCDC's data processing and validation procedures.
#
#######################################################################

data_YUFTEZ
_chemical_formula_moiety         'C29 H31 F2 N1 O2'
_chemical_name_systematic        
N-((3,3-difluoro-4-oxocyclopentyl)methyl)-2-(naphthalen-2-yl)-N-(4-pentylphenyl)acetamide
_symmetry_cell_setting           monoclinic
_symmetry_space_group_name_H-M   'P 21/c'
_symmetry_Int_Tables_number      14
_space_group_name_Hall           '-P 2ybc'
loop_
_symmetry_equiv_pos_site_id
_symmetry_equiv_pos_as_xyz
1 x,y,z
2 -x,1/2+y,1/2-z
3 -x,-y,-z
4 x,1/2-y,1/2+z
_cell_length_a                   6.1172(2)
_cell_length_b                   26.1410(10)
_cell_length_c                   15.5575(6)
_cell_angle_alpha                90
_cell_angle_beta                 99.276(2)
_cell_angle_gamma                90
_cell_volume                     2455.26
_exptl_crystal_colour            colorless
_exptl_crystal_description       needle
_cell_formula_units_Z            4
loop_
_atom_site_label
_atom_site_type_symbol
_atom_site_fract_x
_atom_site_fract_y
_atom_site_fract_z
F1 F 0.0968(15) 0.02563(18) 0.2792(5)
F2 F 0.2696(7) -0.05162(12) 0.2729(2)
N1 N 0.4301(6) 0.11283(14) 0.0247(3)
O1 O -0.0775(7) -0.03437(16) 0.1346(3)
O2 O 0.6149(7) 0.06972(14) -0.0670(2)
C1 C 0.3759(8) 0.13631(18) -0.1324(3)
H1 H 0.3510 0.1152 -0.1852
H2 H 0.2313 0.1483 -0.1213
C2 C 0.4837(8) 0.10325(19) -0.0551(3)
C3 C 0.5246(8) 0.07947(19) 0.0975(3)
H3 H 0.6400 0.0982 0.1360
H4 H 0.5939 0.0497 0.0745
C4 C 0.3514(8) 0.06135(18) 0.1494(3)
H5 H 0.2972 0.0909 0.1797
C5 C 0.1536(8) 0.03455(19) 0.0941(4)
H6 H 0.0365 0.0592 0.0730
H7 H 0.1994 0.0173 0.0439
C6 C 0.0747(11) -0.0036(2) 0.1544(5)
C7 C 0.2425(13) -0.0082(2) 0.2318(4)
C8 C 0.4452(10) 0.02068(18) 0.2171(3)
H8 H 0.5506 -0.0018 0.1943
H9 H 0.5189 0.0367 0.2711
C9 C 0.3175(7) 0.15830(18) 0.0455(3)
C10 C 0.4350(9) 0.1960(2) 0.0957(3)
H10 H 0.5845 0.1907 0.1195
C11 C 0.3326(11) 0.2413(2) 0.1106(3)
H11 H 0.4123 0.2669 0.1448
C12 C 0.1105(11) 0.2495(2) 0.0751(4)
C13 C -0.0057(10) 0.2105(2) 0.0293(4)
H12 H -0.1566 0.2150 0.0068
C14 C 0.0955(8) 0.1650(2) 0.0158(3)
H13 H 0.0124 0.1383 -0.0139
C15 C 0.5159(8) 0.18189(18) -0.1479(3)
C16 C 0.7066(8) 0.1753(2) -0.1863(3)
H14 H 0.7483 0.1421 -0.2006
C17 C 0.8325(8) 0.2159(2) -0.2031(3)
H15 H 0.9607 0.2104 -0.2280
C18 C 0.8970(10) 0.3097(3) -0.2016(4)
H16 H 1.0235 0.3055 -0.2281
C19 C 0.8353(16) 0.3577(3) -0.1806(5)
H17 H 0.9185 0.3861 -0.1931
C20 C 0.6520(15) 0.3644(3) -0.1414(5)
H18 H 0.6135 0.3975 -0.1252
C21 C 0.5256(11) 0.3238(2) -0.1257(4)
H19 H 0.3977 0.3296 -0.1007
C22 C 0.4553(8) 0.23048(19) -0.1289(3)
H20 H 0.3266 0.2352 -0.1040
C23 C 0.7731(9) 0.2660(2) -0.1839(3)
C24 C 0.5795(8) 0.27374(18) -0.1455(3)
C25 C -0.0104(16) 0.2996(3) 0.0826(5)
H21 H -0.1458 0.2911 0.1057
H22 H -0.0577 0.3118 0.0230
C26 C 0.093(3) 0.3454(6) 0.1351(9)
H23 H 0.2059 0.3364 0.1849
H24 H -0.0149 0.3697 0.1517
C27 C 0.185(3) 0.3600(6) 0.0528(9)
H25 H 0.0808 0.3550 -0.0013
H26 H 0.3297 0.3448 0.0489
C28 C 0.198(3) 0.4151(5) 0.0864(14)
H27 H 0.0491 0.4302 0.0754
H28 H 0.2473 0.4149 0.1495
C29 C 0.355(3) 0.4485(7) 0.0435(13)
H29 H 0.2996 0.4514 -0.0183
H30 H 0.5010 0.4329 0.0518
H31 H 0.3646 0.4822 0.0698
C30? C 0.148(2) 0.3452(4) 0.0893(16)
C31? C 0.019(2) 0.3957(5) 0.0830(10)
C32? C 0.165(4) 0.4427(8) 0.1082(15)
C33? C 0.204(5) 0.4494(11) 0.0142(16)
H32? H 0.2364 0.3435 0.0423
H33? H 0.2487 0.3438 0.1449
H34? H -0.0935 0.3938 0.1211
H35? H -0.0576 0.4000 0.0231
H36? H 0.0848 0.4713 0.1294
H37? H 0.3002 0.4350 0.1491
H38? H 0.3503 0.4369 0.0088
H39? H 0.1921 0.4853 -0.0014
H40? H 0.0933 0.4301 -0.0244
loop_
_geom_bond_atom_site_label_1
_geom_bond_atom_site_label_2
_geom_bond_site_symmetry_1
_geom_bond_site_symmetry_2
F1 C7 1_555 1_555
F2 C7 1_555 1_555
N1 C2 1_555 1_555
O1 C6 1_555 1_555
O2 C2 1_555 1_555
C1 H1 1_555 1_555
H2 C1 1_555 1_555
C2 C1 1_555 1_555
C3 N1 1_555 1_555
H3 C3 1_555 1_555
H4 C3 1_555 1_555
C4 C3 1_555 1_555
H5 C4 1_555 1_555
C5 C4 1_555 1_555
H6 C5 1_555 1_555
H7 C5 1_555 1_555
C6 C5 1_555 1_555
C7 C6 1_555 1_555
C8 C4 1_555 1_555
H8 C8 1_555 1_555
H9 C8 1_555 1_555
C9 N1 1_555 1_555
C10 C9 1_555 1_555
H10 C10 1_555 1_555
C11 C10 1_555 1_555
H11 C11 1_555 1_555
C12 C11 1_555 1_555
C13 C12 1_555 1_555
H12 C13 1_555 1_555
C14 C9 1_555 1_555
H13 C14 1_555 1_555
C15 C1 1_555 1_555
C16 C15 1_555 1_555
H14 C16 1_555 1_555
C17 C16 1_555 1_555
H15 C17 1_555 1_555
C18 H16 1_555 1_555
C19 C18 1_555 1_555
H17 C19 1_555 1_555
C20 C19 1_555 1_555
H18 C20 1_555 1_555
C21 C20 1_555 1_555
H19 C21 1_555 1_555
C22 C15 1_555 1_555
H20 C22 1_555 1_555
C23 C17 1_555 1_555
C24 C21 1_555 1_555
C25 C12 1_555 1_555
H21 C25 1_555 1_555
H22 C25 1_555 1_555
C26 C25 1_555 1_555
H23 C26 1_555 1_555
H24 C26 1_555 1_555
C27 C26 1_555 1_555
H25 C27 1_555 1_555
H26 C27 1_555 1_555
C28 C27 1_555 1_555
H27 C28 1_555 1_555
H28 C28 1_555 1_555
C29 C28 1_555 1_555
H29 C29 1_555 1_555
H30 C29 1_555 1_555
H31 C29 1_555 1_555
C7 C8 1_555 1_555
C13 C14 1_555 1_555
C18 C23 1_555 1_555
C22 C24 1_555 1_555
C23 C24 1_555 1_555

#END
