
#######################################################################
#
#                 Cambridge Crystallographic Data Centre
#                                CCDC 
#
#######################################################################
#
# If this CIF has been generated from an entry in the Cambridge 
# Structural Database, then it will include bibliographic, chemical, 
# crystal, experimental, refinement or atomic coordinate data resulting 
# from the CCDC's data processing and validation procedures.
#
#######################################################################

data_YUGTEB
_chemical_formula_moiety         'C6 H10 O2'
_chemical_name_systematic        Cyclohex-4-ene-1,2-diol
_symmetry_cell_setting           tetragonal
_symmetry_space_group_name_H-M   'P 43 21 2'
_symmetry_Int_Tables_number      96
_space_group_name_Hall           'P 4nw 2abw'
loop_
_symmetry_equiv_pos_site_id
_symmetry_equiv_pos_as_xyz
1 x,y,z
2 -x,-y,1/2+z
3 1/2-y,1/2+x,3/4+z
4 1/2+y,1/2-x,1/4+z
5 1/2-x,1/2+y,3/4-z
6 1/2+x,1/2-y,1/4-z
7 y,x,-z
8 -y,-x,1/2-z
_cell_length_a                   7.971(3)
_cell_length_b                   7.971(3)
_cell_length_c                   18.459(11)
_cell_angle_alpha                90
_cell_angle_beta                 90
_cell_angle_gamma                90
_cell_volume                     1172.83
_cell_formula_units_Z            8
loop_
_atom_site_label
_atom_site_type_symbol
_atom_site_fract_x
_atom_site_fract_y
_atom_site_fract_z
O1 O 0.44267(15) 0.74333(16) 0.06013(7)
O2 O 0.61122(14) 0.77587(15) -0.07268(7)
C1 C 0.3613(2) 0.7112(2) -0.00761(10)
H1 H 0.3734 0.5906 -0.0193
C2 C 0.3454(2) 0.7731(2) -0.14031(10)
H2 H 0.3782 0.8554 -0.1772
H3 H 0.3803 0.6619 -0.1572
C3 C 0.1752(2) 0.7505(2) 0.00211(11)
H4 H 0.1237 0.6618 0.0314
H5 H 0.1641 0.8562 0.0288
C4 C 0.0820(2) 0.7650(2) -0.06794(12)
H6 H -0.0359 0.7664 -0.0668
C5 C 0.4349(2) 0.81347(19) -0.06923(10)
H7 H 0.4205 0.9342 -0.0583
C6 C 0.1580(2) 0.7760(2) -0.13142(12)
H8 H 0.0914 0.7861 -0.1732
H9 H 0.653(3) 0.833(3) -0.1122(10)
H10 H 0.552(2) 0.708(3) 0.0582(14)
loop_
_geom_bond_atom_site_label_1
_geom_bond_atom_site_label_2
_geom_bond_site_symmetry_1
_geom_bond_site_symmetry_2
O1 C1 1_555 1_555
O2 C5 1_555 1_555
C1 H1 1_555 1_555
C2 H2 1_555 1_555
H3 C2 1_555 1_555
C3 C1 1_555 1_555
H4 C3 1_555 1_555
H5 C3 1_555 1_555
C4 C3 1_555 1_555
H6 C4 1_555 1_555
C5 C1 1_555 1_555
H7 C5 1_555 1_555
C6 C2 1_555 1_555
H8 C6 1_555 1_555
H9 O2 1_555 1_555
H10 O1 1_555 1_555
C2 C5 1_555 1_555
C4 C6 1_555 1_555

#END
