
#######################################################################
#
#                 Cambridge Crystallographic Data Centre
#                                CCDC 
#
#######################################################################
#
# If this CIF has been generated from an entry in the Cambridge 
# Structural Database, then it will include bibliographic, chemical, 
# crystal, experimental, refinement or atomic coordinate data resulting 
# from the CCDC's data processing and validation procedures.
#
#######################################################################

data_YUGXIJ
_chemical_formula_moiety         'C26 H24 Br1 N1 O4 S1'
_chemical_name_systematic        
5-benzyl-4-(2-bromo-5-methoxyphenyl)-1-((4-methylphenyl)sulfonyl)-3,4-dihydropyridin-2(1H)-one
_symmetry_cell_setting           monoclinic
_symmetry_space_group_name_H-M   'P 21'
_symmetry_Int_Tables_number      4
_space_group_name_Hall           'P 2yb'
loop_
_symmetry_equiv_pos_site_id
_symmetry_equiv_pos_as_xyz
1 x,y,z
2 -x,1/2+y,-z
_cell_length_a                   17.678(4)
_cell_length_b                   9.8560(19)
_cell_length_c                   20.882(4)
_cell_angle_alpha                90
_cell_angle_beta                 103.673(3)
_cell_angle_gamma                90
_cell_volume                     3535.25
_exptl_crystal_colour            colorless
_exptl_crystal_description       block
_cell_formula_units_Z            6
loop_
_atom_site_label
_atom_site_type_symbol
_atom_site_fract_x
_atom_site_fract_y
_atom_site_fract_z
Br1 Br 0.40067(4) 0.46174(8) 0.17334(3)
S1 S 0.08531(9) 0.52196(18) -0.14724(7)
O1 O 0.1295(3) 0.2624(4) -0.0870(2)
O2 O 0.0916(3) 0.6658(5) -0.1563(2)
O3 O 0.0742(2) 0.4329(5) -0.2025(2)
O4 O 0.0506(3) 0.4723(7) 0.1017(2)
N1 N 0.1704(3) 0.4789(6) -0.0940(2)
C1 C 0.2881(3) 0.4355(6) 0.0247(3)
H1 H 0.3435 0.4176 0.0432
C2 C 0.2820(3) 0.5685(7) -0.0140(3)
C3 C 0.2259(3) 0.5835(7) -0.0681(3)
H2 H 0.2221 0.6657 -0.0904
C4 C 0.1799(4) 0.3465(7) -0.0698(3)
C5 C 0.2567(3) 0.3213(7) -0.0219(3)
H3 H 0.2950 0.3001 -0.0469
H4 H 0.2514 0.2418 0.0040
C6 C 0.2493(3) 0.4512(7) 0.0823(3)
C7 C 0.2896(3) 0.4658(7) 0.1473(3)
C8 C 0.2517(4) 0.4837(7) 0.1980(3)
H5 H 0.2808 0.4938 0.2411
C9 C 0.1714(4) 0.4867(7) 0.1853(3)
H6 H 0.1461 0.4983 0.2192
C10 C 0.1298(4) 0.4721(7) 0.1210(3)
C11 C 0.1688(4) 0.4558(8) 0.0709(3)
H7 H 0.1395 0.4477 0.0278
C12 C 0.0087(4) 0.4813(9) 0.1517(4)
H8 H -0.0461 0.4856 0.1317
H9 H 0.0243 0.5616 0.1775
H10 H 0.0194 0.4029 0.1796
C13 C 0.3408(3) 0.6786(7) 0.0098(3)
H11 H 0.3504 0.6837 0.0575
H12 H 0.3185 0.7646 -0.0078
C14 C 0.4182(4) 0.6600(7) -0.0087(3)
C15 C 0.4802(4) 0.5896(9) 0.0298(4)
H13 H 0.4749 0.5503 0.0690
C16 C 0.5501(4) 0.5766(10) 0.0112(4)
H14 H 0.5912 0.5291 0.0378
C17 C 0.5586(4) 0.6337(8) -0.0464(4)
H15 H 0.6059 0.6271 -0.0584
C18 C 0.4973(4) 0.7006(9) -0.0867(4)
H16 H 0.5023 0.7364 -0.1267
C19 C 0.4272(4) 0.7148(8) -0.0671(4)
H17 H 0.3861 0.7619 -0.0940
C20 C 0.0122(4) 0.4932(6) -0.1042(3)
C21 C -0.0044(4) 0.5959(7) -0.0634(3)
H18 H 0.0237 0.6766 -0.0577
C22 C -0.0640(4) 0.5736(8) -0.0318(3)
H19 H -0.0756 0.6408 -0.0043
C23 C -0.1065(4) 0.4550(8) -0.0397(3)
C24 C -0.0887(4) 0.3556(7) -0.0809(4)
H20 H -0.1169 0.2751 -0.0864
C25 C -0.0301(4) 0.3730(7) -0.1138(3)
H21 H -0.0193 0.3059 -0.1416
C26 C -0.1713(4) 0.4347(9) -0.0046(4)
H22 H -0.1685 0.5042 0.0280
H23 H -0.1658 0.3474 0.0163
H24 H -0.2206 0.4396 -0.0360
Br2 Br 1.02570(5) 0.21931(12) 0.45123(5)
S2 S 0.74101(9) 0.52858(18) 0.17751(8)
O5 O 0.7906(2) 0.2692(4) 0.2379(2)
O6 O 0.7479(2) 0.6688(5) 0.1614(2)
O7 O 0.7214(2) 0.4309(5) 0.1259(2)
O8 O 0.7425(3) 0.5594(5) 0.4498(2)
N2 N 0.8297(3) 0.4859(5) 0.2247(2)
C27 C 0.9489(3) 0.4378(7) 0.3410(3)
H25 H 1.0050 0.4258 0.3587
C28 C 0.9371(3) 0.5750(6) 0.3080(3)
C29 C 0.8824(3) 0.5921(7) 0.2536(3)
H26 H 0.8777 0.6764 0.2330
C30 C 0.8411(4) 0.3524(6) 0.2490(3)
C31 C 0.9223(3) 0.3283(7) 0.2891(3)
H27 H 0.9576 0.3257 0.2600
H28 H 0.9244 0.2408 0.3106
C32 C 0.9097(4) 0.4245(6) 0.3985(3)
C33 C 0.9348(4) 0.3288(9) 0.4480(3)
C34 C 0.8973(4) 0.3084(10) 0.4979(4)
H29 H 0.9157 0.2430 0.5299
C35 C 0.8328(4) 0.3838(9) 0.5009(3)
H30 H 0.8080 0.3709 0.5350
C36 C 0.8053(4) 0.4791(7) 0.4524(3)
C37 C 0.8444(4) 0.4971(7) 0.4018(3)
H31 H 0.8253 0.5607 0.3691
C38 C 0.6972(5) 0.5364(8) 0.4971(4)
H32 H 0.6526 0.5953 0.4879
H33 H 0.7282 0.5547 0.5405
H34 H 0.6801 0.4436 0.4946
C39 C 0.9874(3) 0.6920(7) 0.3391(3)
H35 H 0.9850 0.6974 0.3849
H36 H 0.9646 0.7748 0.3178
C40 C 1.0726(3) 0.6893(6) 0.3367(3)
C41 C 1.1263(4) 0.5971(7) 0.3732(3)
H37 H 1.1097 0.5328 0.3995
C42 C 1.2035(4) 0.6009(7) 0.3706(3)
H38 H 1.2383 0.5379 0.3944
C43 C 1.2298(4) 0.6970(8) 0.3330(4)
H39 H 1.2820 0.6997 0.3315
C44 C 1.1779(4) 0.7883(8) 0.2979(4)
H40 H 1.1952 0.8542 0.2728
C45 C 1.1001(4) 0.7840(7) 0.2992(3)
H41 H 1.0657 0.8460 0.2743
C46 C 0.6776(3) 0.5170(7) 0.2305(3)
C47 C 0.6685(4) 0.6293(7) 0.2677(3)
H42 H 0.6955 0.7089 0.2645
C48 C 0.6188(4) 0.6220(7) 0.3095(3)
H43 H 0.6127 0.6973 0.3346
C49 C 0.5780(4) 0.5041(7) 0.3147(3)
C50 C 0.5873(4) 0.3927(7) 0.2770(3)
H44 H 0.5599 0.3133 0.2801
C51 C 0.6373(4) 0.3980(7) 0.2344(3)
H45 H 0.6435 0.3230 0.2092
C52 C 0.5228(4) 0.4956(8) 0.3597(3)
H46 H 0.5323 0.5701 0.3902
H47 H 0.5310 0.4116 0.3836
H48 H 0.4702 0.4997 0.3339
Br3 Br 0.68251(4) 0.32078(9) 0.81452(4)
S3 S 0.40133(9) 0.57354(19) 0.50412(8)
O9 O 0.4468(2) 0.3066(5) 0.5576(2)
O10 O 0.4077(2) 0.7175(5) 0.4979(2)
O11 O 0.3922(2) 0.4879(6) 0.4477(2)
O12 O 0.3504(3) 0.5153(6) 0.7557(2)
N3 N 0.4850(3) 0.5283(5) 0.5584(2)
C53 C 0.5909(3) 0.4725(6) 0.6825(3)
H49 H 0.6462 0.4611 0.7037
C54 C 0.5821(4) 0.6117(6) 0.6519(3)
C55 C 0.5344(4) 0.6317(7) 0.5934(3)
H50 H 0.5331 0.7172 0.5743
C56 C 0.4950(4) 0.3915(7) 0.5787(3)
C57 C 0.5708(4) 0.3654(6) 0.6277(3)
H51 H 0.6123 0.3626 0.6045
H52 H 0.5684 0.2771 0.6476
C58 C 0.5464(3) 0.4516(6) 0.7357(3)
C59 C 0.5770(4) 0.3828(7) 0.7938(3)
C60 C 0.5345(4) 0.3564(8) 0.8399(3)
H53 H 0.5574 0.3108 0.8786
C61 C 0.4580(4) 0.3977(8) 0.8286(3)
H54 H 0.4288 0.3783 0.8590
C62 C 0.4252(4) 0.4681(8) 0.7715(3)
C63 C 0.4690(4) 0.4937(7) 0.7257(3)
H55 H 0.4462 0.5403 0.6873
C64 C 0.3050(4) 0.4945(8) 0.8026(4)
H56 H 0.2540 0.5321 0.7862
H57 H 0.3295 0.5384 0.8433
H58 H 0.3007 0.3990 0.8102
C65 C 0.6304(4) 0.7257(7) 0.6888(3)
H59 H 0.6188 0.8081 0.6630
H60 H 0.6150 0.7403 0.7299
C66 C 0.7167(4) 0.7018(6) 0.7040(3)
C67 C 0.7559(4) 0.6550(7) 0.7653(4)
H61 H 0.7282 0.6372 0.7970
C68 C 0.8352(5) 0.6343(8) 0.7802(5)
H62 H 0.8606 0.6035 0.8218
C69 C 0.8757(5) 0.6589(9) 0.7343(6)
H63 H 0.9289 0.6416 0.7439
C70 C 0.8398(6) 0.7088(10) 0.6739(6)
H64 H 0.8687 0.7280 0.6431
C71 C 0.7592(5) 0.7312(8) 0.6585(4)
H65 H 0.7345 0.7660 0.6174
C72 C 0.3271(3) 0.5410(7) 0.5445(3)
C73 C 0.3088(4) 0.6400(7) 0.5860(3)
H66 H 0.3359 0.7217 0.5922
C74 C 0.2500(4) 0.6154(7) 0.6179(4)
H67 H 0.2374 0.6808 0.6458
C75 C 0.2095(4) 0.4929(7) 0.6085(4)
C76 C 0.2276(4) 0.3981(7) 0.5667(4)
H68 H 0.1995 0.3175 0.5594
C77 C 0.2869(4) 0.4197(7) 0.5349(3)
H69 H 0.2996 0.3535 0.5075
C78 C 0.1464(5) 0.4654(10) 0.6445(5)
H70 H 0.1530 0.5246 0.6820
H71 H 0.1495 0.3728 0.6591
H72 H 0.0964 0.4815 0.6154
loop_
_geom_bond_atom_site_label_1
_geom_bond_atom_site_label_2
_geom_bond_site_symmetry_1
_geom_bond_site_symmetry_2
Br1 C7 1_555 1_555
S1 O2 1_555 1_555
O1 C4 1_555 1_555
O3 S1 1_555 1_555
O4 C10 1_555 1_555
N1 S1 1_555 1_555
C1 H1 1_555 1_555
C2 C1 1_555 1_555
C3 N1 1_555 1_555
H2 C3 1_555 1_555
C4 N1 1_555 1_555
C5 C1 1_555 1_555
H3 C5 1_555 1_555
H4 C5 1_555 1_555
C6 C1 1_555 1_555
C7 C6 1_555 1_555
C8 C7 1_555 1_555
H5 C8 1_555 1_555
C9 C8 1_555 1_555
H6 C9 1_555 1_555
C10 C9 1_555 1_555
C11 C6 1_555 1_555
H7 C11 1_555 1_555
C12 O4 1_555 1_555
H8 C12 1_555 1_555
H9 C12 1_555 1_555
H10 C12 1_555 1_555
C13 C2 1_555 1_555
H11 C13 1_555 1_555
H12 C13 1_555 1_555
C14 C13 1_555 1_555
C15 C14 1_555 1_555
H13 C15 1_555 1_555
C16 C15 1_555 1_555
H14 C16 1_555 1_555
C17 C16 1_555 1_555
H15 C17 1_555 1_555
C18 C17 1_555 1_555
H16 C18 1_555 1_555
C19 C14 1_555 1_555
H17 C19 1_555 1_555
C20 S1 1_555 1_555
C21 C20 1_555 1_555
H18 C21 1_555 1_555
C22 C21 1_555 1_555
H19 C22 1_555 1_555
C23 C22 1_555 1_555
C24 C23 1_555 1_555
H20 C24 1_555 1_555
C25 C20 1_555 1_555
H21 C25 1_555 1_555
C26 C23 1_555 1_555
H22 C26 1_555 1_555
H23 C26 1_555 1_555
H24 C26 1_555 1_555
Br2 C33 1_555 1_555
S2 O6 1_555 1_555
O5 C30 1_555 1_555
O7 S2 1_555 1_555
O8 C36 1_555 1_555
N2 S2 1_555 1_555
C27 H25 1_555 1_555
C28 C27 1_555 1_555
C29 N2 1_555 1_555
H26 C29 1_555 1_555
C30 N2 1_555 1_555
C31 C27 1_555 1_555
H27 C31 1_555 1_555
H28 C31 1_555 1_555
C32 C27 1_555 1_555
C33 C32 1_555 1_555
C34 C33 1_555 1_555
H29 C34 1_555 1_555
C35 C34 1_555 1_555
H30 C35 1_555 1_555
C36 C35 1_555 1_555
C37 C32 1_555 1_555
H31 C37 1_555 1_555
C38 O8 1_555 1_555
H32 C38 1_555 1_555
H33 C38 1_555 1_555
H34 C38 1_555 1_555
C39 C28 1_555 1_555
H35 C39 1_555 1_555
H36 C39 1_555 1_555
C40 C39 1_555 1_555
C41 C40 1_555 1_555
H37 C41 1_555 1_555
C42 C41 1_555 1_555
H38 C42 1_555 1_555
C43 C42 1_555 1_555
H39 C43 1_555 1_555
C44 C43 1_555 1_555
H40 C44 1_555 1_555
C45 C40 1_555 1_555
H41 C45 1_555 1_555
C46 S2 1_555 1_555
C47 C46 1_555 1_555
H42 C47 1_555 1_555
C48 C47 1_555 1_555
H43 C48 1_555 1_555
C49 C48 1_555 1_555
C50 C49 1_555 1_555
H44 C50 1_555 1_555
C51 C46 1_555 1_555
H45 C51 1_555 1_555
C52 C49 1_555 1_555
H46 C52 1_555 1_555
H47 C52 1_555 1_555
H48 C52 1_555 1_555
Br3 C59 1_555 1_555
S3 O10 1_555 1_555
O9 C56 1_555 1_555
O11 S3 1_555 1_555
O12 C62 1_555 1_555
N3 S3 1_555 1_555
C53 H49 1_555 1_555
C54 C53 1_555 1_555
C55 N3 1_555 1_555
H50 C55 1_555 1_555
C56 N3 1_555 1_555
C57 C53 1_555 1_555
H51 C57 1_555 1_555
H52 C57 1_555 1_555
C58 C53 1_555 1_555
C59 C58 1_555 1_555
C60 C59 1_555 1_555
H53 C60 1_555 1_555
C61 C60 1_555 1_555
H54 C61 1_555 1_555
C62 C61 1_555 1_555
C63 C58 1_555 1_555
H55 C63 1_555 1_555
C64 O12 1_555 1_555
H56 C64 1_555 1_555
H57 C64 1_555 1_555
H58 C64 1_555 1_555
C65 C54 1_555 1_555
H59 C65 1_555 1_555
H60 C65 1_555 1_555
C66 C65 1_555 1_555
C67 C66 1_555 1_555
H61 C67 1_555 1_555
C68 C67 1_555 1_555
H62 C68 1_555 1_555
C69 C68 1_555 1_555
H63 C69 1_555 1_555
C70 C69 1_555 1_555
H64 C70 1_555 1_555
C71 C66 1_555 1_555
H65 C71 1_555 1_555
C72 S3 1_555 1_555
C73 C72 1_555 1_555
H66 C73 1_555 1_555
C74 C73 1_555 1_555
H67 C74 1_555 1_555
C75 C74 1_555 1_555
C76 C75 1_555 1_555
H68 C76 1_555 1_555
C77 C72 1_555 1_555
H69 C77 1_555 1_555
C78 C75 1_555 1_555
H70 C78 1_555 1_555
H71 C78 1_555 1_555
H72 C78 1_555 1_555
C2 C3 1_555 1_555
C4 C5 1_555 1_555
C10 C11 1_555 1_555
C18 C19 1_555 1_555
C24 C25 1_555 1_555
C28 C29 1_555 1_555
C30 C31 1_555 1_555
C36 C37 1_555 1_555
C44 C45 1_555 1_555
C50 C51 1_555 1_555
C54 C55 1_555 1_555
C56 C57 1_555 1_555
C62 C63 1_555 1_555
C70 C71 1_555 1_555
C76 C77 1_555 1_555

#END
