
#######################################################################
#
#                 Cambridge Crystallographic Data Centre
#                                CCDC 
#
#######################################################################
#
# If this CIF has been generated from an entry in the Cambridge 
# Structural Database, then it will include bibliographic, chemical, 
# crystal, experimental, refinement or atomic coordinate data resulting 
# from the CCDC's data processing and validation procedures.
#
#######################################################################

data_YUKGUG02
_chemical_formula_moiety         'C34 H40 N4'
_chemical_name_systematic        
4,4',4'',4'''-ethene-1,1,2,2-tetrayltetrakis(N,N-dimethylaniline)
_symmetry_cell_setting           monoclinic
_symmetry_space_group_name_H-M   'P 21/c'
_symmetry_Int_Tables_number      14
_space_group_name_Hall           '-P 2ybc'
loop_
_symmetry_equiv_pos_site_id
_symmetry_equiv_pos_as_xyz
1 x,y,z
2 -x,1/2+y,1/2-z
3 -x,-y,-z
4 x,1/2-y,1/2+z
_cell_length_a                   11.810(2)
_cell_length_b                   11.257(2)
_cell_length_c                   23.291(7)
_cell_angle_alpha                90
_cell_angle_beta                 108.84(3)
_cell_angle_gamma                90
_cell_volume                     2930.53
_exptl_crystal_colour            colorless
_exptl_crystal_description       block
_cell_formula_units_Z            4
loop_
_atom_site_label
_atom_site_type_symbol
_atom_site_fract_x
_atom_site_fract_y
_atom_site_fract_z
C1 C 0.2640(4) 1.0131(4) 1.0301(2)
C2 C 0.2280(4) 0.9690(4) 0.9744(2)
C3 C 0.1701(4) 0.8518(4) 0.96133(18)
C4 C 0.0662(4) 0.8217(4) 0.97199(19)
H1 H 0.0308 0.8764 0.9908
C5 C 0.0122(4) 0.7112(5) 0.9554(2)
H2 H -0.0587 0.6951 0.9632
C6 C 0.0590(6) 0.6259(4) 0.9282(2)
C7 C 0.1623(6) 0.6554(4) 0.9163(2)
H3 H 0.1966 0.6000 0.8973
C8 C 0.2172(5) 0.7656(4) 0.9318(2)
H4 H 0.2863 0.7824 0.9225
C9 C 0.2394(4) 1.0331(4) 0.92022(19)
C10 C 0.1396(4) 1.0526(4) 0.8706(2)
H5 H 0.0657 1.0273 0.8722
C11 C 0.1444(5) 1.1075(5) 0.8192(2)
H6 H 0.0738 1.1192 0.7873
C12 C 0.2488(5) 1.1454(4) 0.8132(2)
C13 C 0.3538(4) 1.1249(4) 0.8622(2)
H7 H 0.4277 1.1484 0.8598
C14 C 0.3467(4) 1.0693(4) 0.91443(19)
H8 H 0.4167 1.0561 0.9465
C15 C 0.3181(4) 1.1365(4) 1.04516(19)
C16 C 0.2728(5) 1.2359(4) 1.0103(2)
H9 H 0.2057 1.2284 0.9760
C17 C 0.3259(6) 1.3465(4) 1.0255(3)
H10 H 0.2932 1.4117 1.0013
C18 C 0.4271(5) 1.3624(4) 1.0763(2)
C19 C 0.4716(4) 1.2631(4) 1.1118(2)
H11 H 0.5379 1.2700 1.1465
C20 C 0.4173(4) 1.1543(4) 1.0955(2)
H12 H 0.4494 1.0891 1.1198
C21 C 0.2619(4) 0.9421(3) 1.08340(17)
C22 C 0.2088(4) 0.9830(4) 1.1246(2)
H13 H 0.1726 1.0574 1.1191
C23 C 0.2090(4) 0.9125(5) 1.1753(2)
H14 H 0.1714 0.9405 1.2021
C24 C 0.2638(4) 0.8041(4) 1.1851(2)
C25 C 0.3204(4) 0.7649(4) 1.1456(2)
H15 H 0.3600 0.6923 1.1522
C26 C 0.3186(4) 0.8329(4) 1.09648(19)
H16 H 0.3577 0.8042 1.0705
C27 C -0.1111(7) 0.4942(6) 0.9191(3)
H17 H -0.1670 0.5491 0.8934
H18 H -0.1079 0.5058 0.9604
H19 H -0.1363 0.4144 0.9069
C28 C 0.0507(7) 0.4353(5) 0.8777(3)
H20 H 0.1328 0.4165 0.8990
H21 H 0.0449 0.4733 0.8399
H22 H 0.0042 0.3636 0.8699
C29 C 0.1458(7) 1.2368(7) 0.7151(3)
H23 H 0.1008 1.2868 0.7332
H24 H 0.0991 1.1681 0.6978
H25 H 0.1649 1.2800 0.6839
C30 C 0.3629(7) 1.2185(6) 0.7503(3)
H26 H 0.4138 1.1510 0.7647
H27 H 0.4007 1.2883 0.7717
H28 H 0.3490 1.2287 0.7077
C31 C 0.4331(6) 1.5728(4) 1.0505(3)
H29 H 0.3547 1.5907 1.0521
H30 H 0.4279 1.5538 1.0095
H31 H 0.4842 1.6405 1.0640
C32 C 0.5705(6) 1.4910(5) 1.1469(4)
H32 H 0.6301 1.4298 1.1545
H33 H 0.5337 1.4898 1.1781
H34 H 0.6073 1.5670 1.1467
C33 C 0.1782(6) 0.7538(6) 1.2641(3)
H35 H 0.1014 0.7364 1.2351
H36 H 0.1798 0.8348 1.2772
H37 H 0.1924 0.7019 1.2985
C34 C 0.3271(6) 0.6190(5) 1.2451(3)
H38 H 0.2857 0.5681 1.2119
H39 H 0.3253 0.5844 1.2825
H40 H 0.4087 0.6282 1.2464
N1 N 0.0060(6) 0.5139(4) 0.9140(2)
N2 N 0.2537(5) 1.2003(5) 0.7604(2)
N3 N 0.4826(5) 1.4712(4) 1.0900(3)
N4 N 0.2683(4) 0.7362(4) 1.2369(2)
loop_
_geom_bond_atom_site_label_1
_geom_bond_atom_site_label_2
_geom_bond_site_symmetry_1
_geom_bond_site_symmetry_2
C1 C2 1_555 1_555
C2 C3 1_555 1_555
C3 C4 1_555 1_555
C4 H1 1_555 1_555
C5 C4 1_555 1_555
H2 C5 1_555 1_555
C6 C5 1_555 1_555
C7 C6 1_555 1_555
H3 C7 1_555 1_555
C8 C3 1_555 1_555
H4 C8 1_555 1_555
C9 C2 1_555 1_555
C10 C9 1_555 1_555
H5 C10 1_555 1_555
C11 C10 1_555 1_555
H6 C11 1_555 1_555
C12 C11 1_555 1_555
C13 C12 1_555 1_555
H7 C13 1_555 1_555
C14 C9 1_555 1_555
H8 C14 1_555 1_555
C15 C1 1_555 1_555
C16 C15 1_555 1_555
H9 C16 1_555 1_555
C17 C16 1_555 1_555
H10 C17 1_555 1_555
C18 C17 1_555 1_555
C19 C18 1_555 1_555
H11 C19 1_555 1_555
C20 C15 1_555 1_555
H12 C20 1_555 1_555
C21 C1 1_555 1_555
C22 C21 1_555 1_555
H13 C22 1_555 1_555
C23 C22 1_555 1_555
H14 C23 1_555 1_555
C24 C23 1_555 1_555
C25 C24 1_555 1_555
H15 C25 1_555 1_555
C26 C21 1_555 1_555
H16 C26 1_555 1_555
C27 H17 1_555 1_555
H18 C27 1_555 1_555
H19 C27 1_555 1_555
C28 H20 1_555 1_555
H21 C28 1_555 1_555
H22 C28 1_555 1_555
C29 H23 1_555 1_555
H24 C29 1_555 1_555
H25 C29 1_555 1_555
C30 H26 1_555 1_555
H27 C30 1_555 1_555
H28 C30 1_555 1_555
C31 H29 1_555 1_555
H30 C31 1_555 1_555
H31 C31 1_555 1_555
C32 H32 1_555 1_555
H33 C32 1_555 1_555
H34 C32 1_555 1_555
C33 H35 1_555 1_555
H36 C33 1_555 1_555
H37 C33 1_555 1_555
C34 H38 1_555 1_555
H39 C34 1_555 1_555
H40 C34 1_555 1_555
N1 C6 1_555 1_555
N2 C12 1_555 1_555
N3 C18 1_555 1_555
N4 C24 1_555 1_555
C7 C8 1_555 1_555
C13 C14 1_555 1_555
C19 C20 1_555 1_555
C25 C26 1_555 1_555
C27 N1 1_555 1_555
C28 N1 1_555 1_555
C29 N2 1_555 1_555
C30 N2 1_555 1_555
C31 N3 1_555 1_555
C32 N3 1_555 1_555
C33 N4 1_555 1_555
C34 N4 1_555 1_555

#END
