
#######################################################################
#
#                 Cambridge Crystallographic Data Centre
#                                CCDC 
#
#######################################################################
#
# If this CIF has been generated from an entry in the Cambridge 
# Structural Database, then it will include bibliographic, chemical, 
# crystal, experimental, refinement or atomic coordinate data resulting 
# from the CCDC's data processing and validation procedures.
#
#######################################################################

data_YUKGUG01
_chemical_formula_moiety         'C34 H40 N4'
_chemical_name_systematic        
4,4',4'',4'''-ethene-1,1,2,2-tetrayltetrakis(N,N-dimethylaniline)
_symmetry_cell_setting           monoclinic
_symmetry_space_group_name_H-M   'C 2/c'
_symmetry_Int_Tables_number      15
_space_group_name_Hall           '-C 2yn'
loop_
_symmetry_equiv_pos_site_id
_symmetry_equiv_pos_as_xyz
1 x,y,z
2 -x,y,1/2-z
3 1/2+x,1/2+y,z
4 1/2-x,1/2+y,1/2-z
5 -x,-y,-z
6 x,-y,1/2+z
7 1/2-x,1/2-y,-z
8 1/2+x,1/2-y,1/2+z
_cell_length_a                   21.767(14)
_cell_length_b                   5.973(3)
_cell_length_c                   23.372(15)
_cell_angle_alpha                90
_cell_angle_beta                 96.26(3)
_cell_angle_gamma                90
_cell_volume                     3020.58
_exptl_crystal_colour            colorless
_exptl_crystal_description       block
_cell_formula_units_Z            4
loop_
_atom_site_label
_atom_site_type_symbol
_atom_site_fract_x
_atom_site_fract_y
_atom_site_fract_z
C1 C 0.02894(7) 0.3786(2) 0.26369(6)
C2 C 0.08463(7) 0.3458(2) 0.23274(6)
C3 C 0.09135(7) 0.1557(3) 0.20038(7)
H1 H 0.0593 0.0522 0.1962
C4 C 0.14394(8) 0.1138(3) 0.17401(8)
H2 H 0.1467 -0.0180 0.1533
C5 C 0.19285(7) 0.2651(3) 0.17788(7)
C6 C 0.18651(8) 0.4569(3) 0.21067(7)
H3 H 0.2181 0.5624 0.2144
C7 C 0.13420(8) 0.4930(3) 0.23769(7)
H4 H 0.1320 0.6209 0.2601
C8 C 0.04193(7) 0.4138(3) 0.32678(6)
C9 C 0.07933(7) 0.2722(3) 0.36226(7)
H5 H 0.0947 0.1432 0.3467
C10 C 0.09457(8) 0.3168(3) 0.42028(7)
H6 H 0.1193 0.2158 0.4426
C11 C 0.07389(8) 0.5085(3) 0.44588(7)
C12 C 0.03702(10) 0.6526(3) 0.41018(8)
H7 H 0.0226 0.7841 0.4253
C13 C 0.02149(9) 0.6044(3) 0.35293(7)
H8 H -0.0038 0.7039 0.3307
C14 C 0.29252(9) 0.3939(4) 0.15072(11)
H9 H 0.2781 0.5111 0.1245
H10 H 0.3293 0.3287 0.1386
H11 H 0.3015 0.4549 0.1887
C15 C 0.24942(12) 0.0372(5) 0.11470(14)
H12 H 0.2383 -0.0957 0.1343
H13 H 0.2909 0.0230 0.1048
H14 H 0.2216 0.0571 0.0803
C16 C 0.13148(15) 0.4172(5) 0.53844(10)
H15 H 0.1168 0.2655 0.5381
H16 H 0.1360 0.4727 0.5772
H17 H 0.1707 0.4220 0.5233
C17 C 0.06647(13) 0.7570(4) 0.52837(9)
H18 H 0.0867 0.8833 0.5133
H19 H 0.0757 0.7529 0.5695
H20 H 0.0226 0.7701 0.5186
N1 N 0.24557(7) 0.2250(3) 0.15117(7)
N2 N 0.08819(10) 0.5528(4) 0.50380(7)
C1A C -0.02894(7) 0.3786(2) 0.23631(6)
C2A C -0.08463(7) 0.3458(2) 0.26726(6)
C3A C -0.09135(7) 0.1557(3) 0.29962(7)
H1A H -0.0593 0.0522 0.3038
C4A C -0.14394(8) 0.1138(3) 0.32599(8)
H2A H -0.1467 -0.0180 0.3467
C5A C -0.19285(7) 0.2651(3) 0.32212(7)
C6A C -0.18651(8) 0.4569(3) 0.28933(7)
H3A H -0.2181 0.5624 0.2856
C7A C -0.13420(8) 0.4930(3) 0.26231(7)
H4A H -0.1320 0.6209 0.2399
C8A C -0.04193(7) 0.4138(3) 0.17322(6)
C9A C -0.07933(7) 0.2722(3) 0.13774(7)
H5A H -0.0947 0.1432 0.1533
C10A C -0.09457(8) 0.3168(3) 0.07972(7)
H6A H -0.1193 0.2158 0.0574
C11A C -0.07389(8) 0.5085(3) 0.05412(7)
C12A C -0.03702(10) 0.6526(3) 0.08982(8)
H7A H -0.0226 0.7841 0.0747
C13A C -0.02149(9) 0.6044(3) 0.14707(7)
H8A H 0.0038 0.7039 0.1693
C14A C -0.29252(9) 0.3939(4) 0.34928(11)
H9A H -0.2781 0.5111 0.3755
H10A H -0.3293 0.3287 0.3614
H11A H -0.3015 0.4549 0.3113
C15A C -0.24942(12) 0.0372(5) 0.38530(14)
H12A H -0.2383 -0.0957 0.3657
H13A H -0.2909 0.0230 0.3952
H14A H -0.2216 0.0571 0.4197
C16A C -0.13148(15) 0.4172(5) -0.03844(10)
H15A H -0.1168 0.2655 -0.0381
H16A H -0.1360 0.4727 -0.0772
H17A H -0.1707 0.4220 -0.0233
C17A C -0.06647(13) 0.7570(4) -0.02837(9)
H18A H -0.0867 0.8833 -0.0133
H19A H -0.0757 0.7529 -0.0695
H20A H -0.0226 0.7701 -0.0186
N1A N -0.24557(7) 0.2250(3) 0.34883(7)
N2A N -0.08819(10) 0.5528(4) -0.00380(7)
loop_
_geom_bond_atom_site_label_1
_geom_bond_atom_site_label_2
_geom_bond_site_symmetry_1
_geom_bond_site_symmetry_2
C1 C2 1_555 1_555
C2 C3 1_555 1_555
C3 H1 1_555 1_555
C4 C3 1_555 1_555
H2 C4 1_555 1_555
C5 C4 1_555 1_555
C6 C5 1_555 1_555
H3 C6 1_555 1_555
C7 C2 1_555 1_555
H4 C7 1_555 1_555
C8 C1 1_555 1_555
C9 C8 1_555 1_555
H5 C9 1_555 1_555
C10 C9 1_555 1_555
H6 C10 1_555 1_555
C11 C10 1_555 1_555
C12 C11 1_555 1_555
H7 C12 1_555 1_555
C13 C8 1_555 1_555
H8 C13 1_555 1_555
C14 H9 1_555 1_555
H10 C14 1_555 1_555
H11 C14 1_555 1_555
C15 H12 1_555 1_555
H13 C15 1_555 1_555
H14 C15 1_555 1_555
C16 H15 1_555 1_555
H16 C16 1_555 1_555
H17 C16 1_555 1_555
C17 H18 1_555 1_555
H19 C17 1_555 1_555
H20 C17 1_555 1_555
N1 C5 1_555 1_555
N2 C11 1_555 1_555
C1A C1 1_555 1_555
C2A C1A 1_555 1_555
C3A C2A 1_555 1_555
H1A C3A 1_555 1_555
C4A C3A 1_555 1_555
H2A C4A 1_555 1_555
C5A C4A 1_555 1_555
C6A C5A 1_555 1_555
H3A C6A 1_555 1_555
C7A C2A 1_555 1_555
H4A C7A 1_555 1_555
C8A C1A 1_555 1_555
C9A C8A 1_555 1_555
H5A C9A 1_555 1_555
C10A C9A 1_555 1_555
H6A C10A 1_555 1_555
C11A C10A 1_555 1_555
C12A C11A 1_555 1_555
H7A C12A 1_555 1_555
C13A C8A 1_555 1_555
H8A C13A 1_555 1_555
C14A H9A 1_555 1_555
H10A C14A 1_555 1_555
H11A C14A 1_555 1_555
C15A H12A 1_555 1_555
H13A C15A 1_555 1_555
H14A C15A 1_555 1_555
C16A H15A 1_555 1_555
H16A C16A 1_555 1_555
H17A C16A 1_555 1_555
C17A H18A 1_555 1_555
H19A C17A 1_555 1_555
H20A C17A 1_555 1_555
N1A C5A 1_555 1_555
N2A C11A 1_555 1_555
C6 C7 1_555 1_555
C12 C13 1_555 1_555
C14 N1 1_555 1_555
C15 N1 1_555 1_555
C16 N2 1_555 1_555
C17 N2 1_555 1_555
C6A C7A 1_555 1_555
C12A C13A 1_555 1_555
C14A N1A 1_555 1_555
C15A N1A 1_555 1_555
C16A N2A 1_555 1_555
C17A N2A 1_555 1_555

#END
