
#######################################################################
#
#                 Cambridge Crystallographic Data Centre
#                                CCDC 
#
#######################################################################
#
# If this CIF has been generated from an entry in the Cambridge 
# Structural Database, then it will include bibliographic, chemical, 
# crystal, experimental, refinement or atomic coordinate data resulting 
# from the CCDC's data processing and validation procedures.
#
#######################################################################

data_YUKZEL
_chemical_formula_moiety         'C18 H16 N2 O8'
_chemical_name_systematic        
"tetramethyl 2,2'-bipyridine-3,3',4,4'-tetracarboxylate"
_symmetry_cell_setting           triclinic
_symmetry_space_group_name_H-M   'P -1'
_symmetry_Int_Tables_number      2
_space_group_name_Hall           '-P 1'
loop_
_symmetry_equiv_pos_site_id
_symmetry_equiv_pos_as_xyz
1 x,y,z
2 -x,-y,-z
_cell_length_a                   7.699(3)
_cell_length_b                   8.123(3)
_cell_length_c                   16.632(6)
_cell_angle_alpha                99.928(11)
_cell_angle_beta                 90.596(11)
_cell_angle_gamma                117.481(9)
_cell_volume                     904.134
_exptl_crystal_colour            colorless
_exptl_crystal_description       plate
_chemical_melting_point          '413 K'
_cell_formula_units_Z            2
_exptl_crystal_recrystallization_method 'diethyl ether/methanol'
loop_
_atom_site_label
_atom_site_type_symbol
_atom_site_fract_x
_atom_site_fract_y
_atom_site_fract_z
O1 O -0.2147(2) -0.34620(18) 0.02410(8)
O2 O 0.73114(18) 0.82706(17) 0.49779(8)
O3 O 0.0885(2) -0.1384(2) 0.00556(9)
N1 N 0.4568(2) 0.1867(2) 0.31901(9)
O4 O 0.19404(18) 0.52762(17) 0.26733(7)
O5 O 0.13768(18) 0.54138(19) 0.40010(7)
O6 O 0.5435(2) 0.84274(18) 0.39881(9)
O7 O 0.37041(18) -0.09267(17) 0.13767(8)
O8 O 0.44462(17) 0.20692(17) 0.13486(8)
N2 N -0.0218(2) 0.1090(2) 0.28881(9)
C1 C 0.6223(3) 0.2968(3) 0.36855(11)
H1 H 0.7109 0.2479 0.3758
C2 C -0.2380(4) -0.4491(3) -0.05959(13)
H2 H -0.2029 -0.3611 -0.0974
H3 H -0.3751 -0.5474 -0.0741
H4 H -0.1516 -0.5081 -0.0636
C3 C -0.0432(3) -0.1941(2) 0.04801(10)
C4 C -0.0364(2) -0.0967(2) 0.13416(10)
C5 C 0.1437(2) 0.0218(2) 0.18079(10)
C6 C 0.1437(2) 0.1237(2) 0.25776(10)
C7 C 0.3298(2) 0.2547(2) 0.31133(9)
C8 C 0.3661(2) 0.4354(2) 0.35055(9)
C9 C 0.5451(2) 0.5507(2) 0.39908(9)
C10 C 0.6030(2) 0.7545(2) 0.43139(10)
C11 C 0.8008(3) 1.0275(3) 0.52998(14)
H5 H 0.8560 1.0989 0.4866
H6 H 0.9028 1.0712 0.5758
H7 H 0.6908 1.0474 0.5492
C12 C -0.1926(2) -0.0082(3) 0.24379(11)
H8 H -0.3105 -0.0208 0.2658
C13 C -0.2067(2) -0.1122(2) 0.16682(11)
H9 H -0.3317 -0.1933 0.1366
C14 C 0.6723(2) 0.4775(2) 0.40983(10)
H10 H 0.7916 0.5503 0.4449
C15 C 0.2190(2) 0.5068(2) 0.34377(10)
C16 C 0.0676(3) 0.6100(3) 0.25599(13)
H11 H -0.0641 0.5288 0.2701
H12 H 0.0594 0.6216 0.1986
H13 H 0.1215 0.7357 0.2915
C17 C 0.3313(2) 0.0355(2) 0.14911(10)
C18 C 0.6276(3) 0.2347(4) 0.10197(17)
H14 H 0.7022 0.2022 0.1387
H15 H 0.7053 0.3674 0.0974
H16 H 0.5990 0.1531 0.0476
loop_
_geom_bond_atom_site_label_1
_geom_bond_atom_site_label_2
_geom_bond_site_symmetry_1
_geom_bond_site_symmetry_2
O1 C2 1_555 1_555
O2 C10 1_555 1_555
O3 C3 1_555 1_555
N1 C1 1_555 1_555
O4 C15 1_555 1_555
O5 C15 1_555 1_555
O6 C10 1_555 1_555
O7 C17 1_555 1_555
O8 C17 1_555 1_555
N2 C6 1_555 1_555
C1 H1 1_555 1_555
C2 H2 1_555 1_555
H3 C2 1_555 1_555
H4 C2 1_555 1_555
C3 O1 1_555 1_555
C4 C3 1_555 1_555
C5 C4 1_555 1_555
C6 C5 1_555 1_555
C7 N1 1_555 1_555
C8 C7 1_555 1_555
C9 C8 1_555 1_555
C10 C9 1_555 1_555
C11 O2 1_555 1_555
H5 C11 1_555 1_555
H6 C11 1_555 1_555
H7 C11 1_555 1_555
C12 N2 1_555 1_555
H8 C12 1_555 1_555
C13 C4 1_555 1_555
H9 C13 1_555 1_555
C14 C1 1_555 1_555
H10 C14 1_555 1_555
C15 C8 1_555 1_555
C16 O4 1_555 1_555
H11 C16 1_555 1_555
H12 C16 1_555 1_555
H13 C16 1_555 1_555
C17 C5 1_555 1_555
C18 O8 1_555 1_555
H14 C18 1_555 1_555
H15 C18 1_555 1_555
H16 C18 1_555 1_555
C6 C7 1_555 1_555
C9 C14 1_555 1_555
C12 C13 1_555 1_555

#END
