
#######################################################################
#
#                 Cambridge Crystallographic Data Centre
#                                CCDC 
#
#######################################################################
#
# If this CIF has been generated from an entry in the Cambridge 
# Structural Database, then it will include bibliographic, chemical, 
# crystal, experimental, refinement or atomic coordinate data resulting 
# from the CCDC's data processing and validation procedures.
#
#######################################################################

data_YULTIJ
_chemical_formula_moiety         'C28 H24 N4 O4 S1'
_chemical_name_systematic        
4-((4-Methylphenyl)sulfonyl)-3-(3-nitrophenyl)-1,6-diphenyl-1,4,5,6-tetrahydro-1,2,4-triazine
_symmetry_cell_setting           monoclinic
_symmetry_space_group_name_H-M   'P 21/n'
_symmetry_Int_Tables_number      14
_space_group_name_Hall           '-P 2yn'
loop_
_symmetry_equiv_pos_site_id
_symmetry_equiv_pos_as_xyz
1 x,y,z
2 1/2-x,1/2+y,1/2-z
3 -x,-y,-z
4 1/2+x,1/2-y,1/2+z
_cell_length_a                   9.0058(8)
_cell_length_b                   13.1391(12)
_cell_length_c                   21.485(2)
_cell_angle_alpha                90
_cell_angle_beta                 93.277(2)
_cell_angle_gamma                90
_cell_volume                     2538.12
_exptl_crystal_colour            yellow
_exptl_crystal_description       prismatic
_cell_formula_units_Z            4
loop_
_atom_site_label
_atom_site_type_symbol
_atom_site_fract_x
_atom_site_fract_y
_atom_site_fract_z
S1 S 0.20536(7) 0.18959(5) 0.00042(3)
N1 N 0.13625(19) 0.25246(13) 0.05945(8)
N2 N 0.2579(2) 0.29320(13) 0.15752(9)
N3 N 0.2004(2) 0.21038(14) 0.18481(9)
N4 N 0.2282(3) 0.60429(17) -0.04755(11)
O1 O 0.1239(2) 0.56482(14) -0.07714(9)
O2 O 0.2832(2) 0.68377(16) -0.06298(12)
O3 O 0.3061(2) 0.25750(12) -0.02703(8)
O4 O 0.0798(2) 0.15031(13) -0.03517(8)
C1 C 0.2326(2) 0.31248(16) 0.09939(10)
C2 C 0.0272(2) 0.19772(17) 0.09568(10)
H1 H -0.0274 0.1500 0.0686
H2 H -0.0436 0.2462 0.1109
C3 C 0.1002(2) 0.14011(17) 0.15080(10)
H3 H 0.1577 0.0830 0.1354
C4 C -0.0191(3) 0.09957(18) 0.19142(11)
C5 C -0.1021(3) 0.1633(2) 0.22594(13)
H4 H -0.0837 0.2329 0.2252
C6 C -0.2112(3) 0.1268(3) 0.26138(15)
H5 H -0.2684 0.1713 0.2837
C7 C -0.2358(3) 0.0234(3) 0.26386(15)
H6 H -0.3078 -0.0021 0.2890
C8 C -0.1550(3) -0.0422(2) 0.22951(16)
H7 H -0.1722 -0.1119 0.2310
C9 C -0.0470(3) -0.0034(2) 0.19233(13)
H8 H 0.0065 -0.0471 0.1680
C10 C 0.2941(2) 0.40839(17) 0.07656(10)
C11 C 0.2315(2) 0.45949(17) 0.02506(11)
H9 H 0.1510 0.4318 0.0019
C12 C 0.2908(3) 0.55281(17) 0.00850(11)
C13 C 0.4077(3) 0.59812(18) 0.04098(12)
H10 H 0.4440 0.6610 0.0290
C14 C 0.4698(3) 0.5475(2) 0.09200(12)
H11 H 0.5498 0.5763 0.1150
C15 C 0.4146(3) 0.45389(19) 0.10970(11)
H12 H 0.4586 0.4208 0.1443
C16 C 0.2788(2) 0.18193(17) 0.24152(10)
C17 C 0.3386(3) 0.25578(19) 0.28094(12)
H13 H 0.3268 0.3242 0.2706
C18 C 0.4155(3) 0.2288(2) 0.33525(12)
H14 H 0.4556 0.2794 0.3613
C19 C 0.4343(3) 0.1302(2) 0.35180(12)
H15 H 0.4853 0.1129 0.3892
C20 C 0.3767(3) 0.0557(2) 0.31230(13)
H16 H 0.3906 -0.0125 0.3228
C21 C 0.2984(3) 0.08117(18) 0.25718(11)
H17 H 0.2593 0.0304 0.2309
C22 C 0.3040(3) 0.08806(18) 0.03412(10)
C23 C 0.4377(3) 0.1061(2) 0.06750(12)
H18 H 0.4822 0.1699 0.0671
C24 C 0.5037(3) 0.0266(2) 0.10151(13)
H19 H 0.5931 0.0385 0.1242
C25 C 0.4406(3) -0.0708(2) 0.10296(13)
C26 C 0.3104(3) -0.0876(2) 0.06717(13)
H20 H 0.2683 -0.1522 0.0657
C27 C 0.2420(3) -0.0089(2) 0.03347(12)
H21 H 0.1536 -0.0211 0.0101
C28 C 0.5101(4) -0.1551(2) 0.14296(16)
H22 H 0.4608 -0.2183 0.1329
H23 H 0.4999 -0.1395 0.1862
H24 H 0.6137 -0.1609 0.1352
loop_
_geom_bond_atom_site_label_1
_geom_bond_atom_site_label_2
_geom_bond_site_symmetry_1
_geom_bond_site_symmetry_2
S1 N1 1_555 1_555
N1 C1 1_555 1_555
N2 N3 1_555 1_555
N3 C3 1_555 1_555
N4 O1 1_555 1_555
O2 N4 1_555 1_555
O3 S1 1_555 1_555
O4 S1 1_555 1_555
C1 N2 1_555 1_555
C2 N1 1_555 1_555
H1 C2 1_555 1_555
H2 C2 1_555 1_555
C3 C2 1_555 1_555
H3 C3 1_555 1_555
C4 C3 1_555 1_555
C5 C4 1_555 1_555
H4 C5 1_555 1_555
C6 C5 1_555 1_555
H5 C6 1_555 1_555
C7 C6 1_555 1_555
H6 C7 1_555 1_555
C8 C7 1_555 1_555
H7 C8 1_555 1_555
C9 C4 1_555 1_555
H8 C9 1_555 1_555
C10 C1 1_555 1_555
C11 C10 1_555 1_555
H9 C11 1_555 1_555
C12 N4 1_555 1_555
C13 C12 1_555 1_555
H10 C13 1_555 1_555
C14 C13 1_555 1_555
H11 C14 1_555 1_555
C15 C10 1_555 1_555
H12 C15 1_555 1_555
C16 N3 1_555 1_555
C17 C16 1_555 1_555
H13 C17 1_555 1_555
C18 C17 1_555 1_555
H14 C18 1_555 1_555
C19 C18 1_555 1_555
H15 C19 1_555 1_555
C20 C19 1_555 1_555
H16 C20 1_555 1_555
C21 C16 1_555 1_555
H17 C21 1_555 1_555
C22 S1 1_555 1_555
C23 C22 1_555 1_555
H18 C23 1_555 1_555
C24 C23 1_555 1_555
H19 C24 1_555 1_555
C25 C24 1_555 1_555
C26 C25 1_555 1_555
H20 C26 1_555 1_555
C27 C22 1_555 1_555
H21 C27 1_555 1_555
C28 C25 1_555 1_555
H22 C28 1_555 1_555
H23 C28 1_555 1_555
H24 C28 1_555 1_555
C8 C9 1_555 1_555
C11 C12 1_555 1_555
C14 C15 1_555 1_555
C20 C21 1_555 1_555
C26 C27 1_555 1_555

#END
