
#######################################################################
#
#                 Cambridge Crystallographic Data Centre
#                                CCDC 
#
#######################################################################
#
# If this CIF has been generated from an entry in the Cambridge 
# Structural Database, then it will include bibliographic, chemical, 
# crystal, experimental, refinement or atomic coordinate data resulting 
# from the CCDC's data processing and validation procedures.
#
#######################################################################

data_YUMLEZ
_chemical_compound_source        'dried mycelia of fungus Xylaria nigripes'
_chemical_name_common            'Xylapyrroside A'
_chemical_formula_moiety         'C12 H15 N1 O5'
_chemical_name_systematic        
(2S,4S,5R)-4,5-Dihydroxy-3,4,5,6-tetrahydro-1'H-spiro[pyran-2,3'-pyrrolo[2,1-c][1,4]oxazine]-6'-carbaldehyde
_chemical_properties_biological  'antioxidant activity'
_symmetry_cell_setting           orthorhombic
_symmetry_space_group_name_H-M   'P 21 21 21'
_symmetry_Int_Tables_number      19
_space_group_name_Hall           'P 2ac 2ab'
loop_
_symmetry_equiv_pos_site_id
_symmetry_equiv_pos_as_xyz
1 x,y,z
2 1/2+x,1/2-y,-z
3 -x,1/2+y,1/2-z
4 1/2-x,-y,1/2+z
_cell_length_a                   7.03200(10)
_cell_length_b                   8.45490(10)
_cell_length_c                   19.6634(4)
_cell_angle_alpha                90
_cell_angle_beta                 90
_cell_angle_gamma                90
_cell_volume                     1169.08
_exptl_crystal_colour            colorless
_exptl_crystal_description       block
_cell_formula_units_Z            4
_exptl_crystal_recrystallization_method acetone
loop_
_atom_site_label
_atom_site_type_symbol
_atom_site_fract_x
_atom_site_fract_y
_atom_site_fract_z
O1 O 0.74917(19) 1.15270(17) 0.05628(8)
O2 O 0.94858(15) 0.58173(12) 0.14463(5)
O3 O 0.91099(15) 0.78024(13) 0.22723(5)
O4 O 0.44489(17) 0.50114(14) 0.26803(6)
H1 H 0.3974 0.4352 0.2410
O5 O 0.61677(16) 0.75490(12) 0.32827(5)
H2 H 0.5090 0.7239 0.3410
N1 N 0.99158(17) 0.87364(15) 0.08505(6)
C1 C 1.0279(2) 0.99774(19) 0.04066(7)
C2 C 1.2092(2) 0.9739(2) 0.01456(8)
H3 H 1.2731 1.0404 -0.0170
C3 C 1.2809(2) 0.8346(2) 0.04302(8)
H4 H 1.4023 0.7895 0.0345
C4 C 1.1427(2) 0.77472(18) 0.08570(8)
C5 C 1.1388(2) 0.63143(19) 0.13066(8)
H5 H 1.2087 0.5441 0.1082
H6 H 1.2042 0.6558 0.1740
C6 C 0.9024(3) 1.1289(2) 0.02837(9)
H7 H 0.9420 1.2043 -0.0045
C7 C 0.8089(2) 0.83788(18) 0.11678(7)
H8 H 0.7168 0.8049 0.0814
H9 H 0.7587 0.9340 0.1392
C8 C 0.8306(2) 0.70636(17) 0.16910(7)
C9 C 0.6375(2) 0.63307(17) 0.18386(7)
H10 H 0.6000 0.5656 0.1450
H11 H 0.5419 0.7185 0.1881
C10 C 0.6355(2) 0.53382(17) 0.24850(7)
H12 H 0.7042 0.4321 0.2402
C11 C 0.7289(2) 0.62112(18) 0.30752(8)
H13 H 0.7430 0.5470 0.3468
C12 C 0.9230(2) 0.67908(19) 0.28617(7)
H14 H 0.9819 0.7382 0.3242
H15 H 1.0053 0.5873 0.2757
loop_
_geom_bond_atom_site_label_1
_geom_bond_atom_site_label_2
_geom_bond_site_symmetry_1
_geom_bond_site_symmetry_2
O1 C6 1_555 1_555
O2 C5 1_555 1_555
O3 C8 1_555 1_555
O4 H1 1_555 1_555
O5 H2 1_555 1_555
N1 C1 1_555 1_555
C1 C2 1_555 1_555
C2 H3 1_555 1_555
C3 C2 1_555 1_555
H4 C3 1_555 1_555
C4 N1 1_555 1_555
C5 C4 1_555 1_555
H5 C5 1_555 1_555
H6 C5 1_555 1_555
C6 C1 1_555 1_555
H7 C6 1_555 1_555
C7 N1 1_555 1_555
H8 C7 1_555 1_555
H9 C7 1_555 1_555
C8 O2 1_555 1_555
C9 C8 1_555 1_555
H10 C9 1_555 1_555
H11 C9 1_555 1_555
C10 O4 1_555 1_555
H12 C10 1_555 1_555
C11 O5 1_555 1_555
H13 C11 1_555 1_555
C12 O3 1_555 1_555
H14 C12 1_555 1_555
H15 C12 1_555 1_555
C3 C4 1_555 1_555
C7 C8 1_555 1_555
C9 C10 1_555 1_555
C10 C11 1_555 1_555
C11 C12 1_555 1_555

#END
