
#######################################################################
#
#                 Cambridge Crystallographic Data Centre
#                                CCDC 
#
#######################################################################
#
# If this CIF has been generated from an entry in the Cambridge 
# Structural Database, then it will include bibliographic, chemical, 
# crystal, experimental, refinement or atomic coordinate data resulting 
# from the CCDC's data processing and validation procedures.
#
#######################################################################

data_YUMTEF
_chemical_formula_moiety         'C11 H20 Cl1 N1 O5 Si1'
_chemical_name_systematic        
'(3R,4S)-1-(3-Chloropropyl)-3-methylsilatrane-4-carboxylic acid'
_symmetry_cell_setting           monoclinic
_symmetry_space_group_name_H-M   'P 21'
_symmetry_Int_Tables_number      4
_space_group_name_Hall           'P 2yb'
loop_
_symmetry_equiv_pos_site_id
_symmetry_equiv_pos_as_xyz
1 x,y,z
2 -x,1/2+y,-z
_cell_length_a                   10.7514(6)
_cell_length_b                   15.0253(38)
_cell_length_c                   9.1813(9)
_cell_angle_alpha                90
_cell_angle_beta                 92.25(6)
_cell_angle_gamma                90
_cell_volume                     1482.03
_exptl_crystal_colour            colorless
_chemical_melting_point          100-102deg.C
_cell_formula_units_Z            4
loop_
_atom_site_label
_atom_site_type_symbol
_atom_site_fract_x
_atom_site_fract_y
_atom_site_fract_z
Cl1 Cl 0.5542(2) -0.068 0.1318(2)
Si1 Si 0.78565(9) 0.24603(7) -0.0479(1)
O1 O 0.7942(3) 0.2872(2) -0.2148(3)
O2 O 0.6784(2) 0.2814(2) 0.0632(3)
O3 O 0.9191(2) 0.2054(2) 0.0276(3)
O4 O 0.8710(3) 0.5592(2) -0.1873(5)
O5 O 1.0335(3) 0.5318(2) -0.0409(4)
N1 N 0.8733(3) 0.3737(2) 0.0126(3)
C1 C 0.8320(4) 0.3753(3) -0.2497(4)
C2 C 0.9200(3) 0.4075(2) -0.1253(4)
C3 C 0.6892(4) 0.3596(3) 0.1496(5)
C4 C 0.7707(4) 0.4257(3) 0.0708(5)
C5 C 1.0211(3) 0.2595(3) 0.0799(4)
C6 C 0.9713(4) 0.3497(3) 0.1229(4)
C7 C 0.7108(4) 0.1364(3) -0.0983(5)
C8 C 0.6618(4) 0.0827(3) 0.0297(5)
C9 C 0.6180(7) -0.0070(3) -0.0155(6)
C10 C 0.9378(4) 0.5082(3) -0.1232(5)
C11 C 0.8936(4) 0.3762(3) -0.3937(5)
Cl2 Cl 0.8738(2) 0.16179(9) 0.3671(2)
Si2 Si 0.69530(9) -0.16508(7) 0.5838(1)
O6 O 0.7777(2) -0.2117(2) 0.4568(3)
O7 O 0.5556(2) -0.1216(2) 0.5353(3)
O8 O 0.7117(3) -0.2004(2) 0.7542(3)
O9 O 0.6965(3) -0.4841(2) 0.3981(4)
O10 O 0.4982(3) -0.4529(2) 0.4283(4)
N2 N 0.5868(3) -0.2920(2) 0.5568(3)
C12 C 0.7695(4) -0.3025(3) 0.4130(5)
C13 C 0.6344(4) -0.3306(2) 0.4226(4)
C14 C 0.4554(4) -0.1728(3) 0.4724(5)
C15 C 0.4554(3) -0.2632(3) 0.5450(5)
C16 C 0.6426(4) -0.2725(3) 0.8103(4)
C17 C 0.6218(4) -0.3409(3) 0.6917(4)
C18 C 0.7845(4) -0.0587(3) 0.6049(5)
C19 C 0.7948(4) 0.0017(3) 0.4734(5)
C20 C 0.8664(5) 0.0856(3) 0.5161(5)
C21 C 0.6150(4) -0.4320(2) 0.4142(5)
C22 C 0.8161(5) -0.3093(4) 0.2609(6)
loop_
_geom_bond_atom_site_label_1
_geom_bond_atom_site_label_2
_geom_bond_site_symmetry_1
_geom_bond_site_symmetry_2
Cl1 C9 1_555 1_555
Si1 O1 1_555 1_555
O1 C1 1_555 1_555
O2 Si1 1_555 1_555
O3 Si1 1_555 1_555
O4 C10 1_555 1_555
O5 C10 1_555 1_555
N1 Si1 1_555 1_555
C1 C2 1_555 1_555
C2 N1 1_555 1_555
C3 O2 1_555 1_555
C4 N1 1_555 1_555
C5 O3 1_555 1_555
C6 N1 1_555 1_555
C7 Si1 1_555 1_555
C8 C7 1_555 1_555
C9 C8 1_555 1_555
C10 C2 1_555 1_555
C11 C1 1_555 1_555
Cl2 C20 1_555 1_555
Si2 O6 1_555 1_555
O6 C12 1_555 1_555
O7 Si2 1_555 1_555
O8 Si2 1_555 1_555
O9 C21 1_555 1_555
O10 C21 1_555 1_555
N2 Si2 1_555 1_555
C12 C13 1_555 1_555
C13 N2 1_555 1_555
C14 O7 1_555 1_555
C15 N2 1_555 1_555
C16 O8 1_555 1_555
C17 N2 1_555 1_555
C18 Si2 1_555 1_555
C19 C18 1_555 1_555
C20 C19 1_555 1_555
C21 C13 1_555 1_555
C22 C12 1_555 1_555
C3 C4 1_555 1_555
C5 C6 1_555 1_555
C14 C15 1_555 1_555
C16 C17 1_555 1_555

#END
