
#######################################################################
#
#                 Cambridge Crystallographic Data Centre
#                                CCDC 
#
#######################################################################
#
# If this CIF has been generated from an entry in the Cambridge 
# Structural Database, then it will include bibliographic, chemical, 
# crystal, experimental, refinement or atomic coordinate data resulting 
# from the CCDC's data processing and validation procedures.
#
#######################################################################

data_YUNZAK
_chemical_name_common            
'5,11,17,23-tetrakis((cyclohexylammonio)methyl)-C-methylcalix(4)resorcinarene tetrakis(trifluoromethanesulfonate) methanol solvate'
_chemical_formula_moiety         
'C60 H88 N4 O8 4+,4(C1 F3 O3 S1 1-),2(C1 H4 O1)'
_chemical_name_systematic        
'5,11,17,23-tetrakis((cyclohexylammonio)methyl)-2,8,14,20-tetramethyl-4,6,10,12,16,18,22,24-octahydroxycalix(4)arene tetrakis(trifluoromethanesulfonate) methanol solvate'
_symmetry_cell_setting           monoclinic
_symmetry_space_group_name_H-M   'P 21/n'
_symmetry_Int_Tables_number      14
_space_group_name_Hall           '-P 2yn'
loop_
_symmetry_equiv_pos_site_id
_symmetry_equiv_pos_as_xyz
1 x,y,z
2 1/2-x,1/2+y,1/2-z
3 -x,-y,-z
4 1/2+x,1/2-y,1/2+z
_cell_length_a                   15.4805(7)
_cell_length_b                   31.8766(7)
_cell_length_c                   15.9510(5)
_cell_angle_alpha                90
_cell_angle_beta                 104.209(4)
_cell_angle_gamma                90
_cell_volume                     7630.46
_exptl_crystal_colour            colorless
_exptl_crystal_description       plate
_cell_formula_units_Z            4
loop_
_atom_site_label
_atom_site_type_symbol
_atom_site_fract_x
_atom_site_fract_y
_atom_site_fract_z
C1 C 0.6172(4) 0.37583(16) -0.0156(3)
C2 C 0.5337(4) 0.37783(17) 0.0028(3)
C3 C 0.4897(4) 0.34197(17) 0.0206(3)
C4 C 0.5333(4) 0.30344(17) 0.0235(3)
C5 C 0.6181(4) 0.30010(16) 0.0082(3)
C6 C 0.6572(4) 0.33656(16) -0.0122(3)
H1 H 0.7141 0.3347 -0.0245
C7 C 0.3995(4) 0.34325(18) 0.0393(4)
H2 H 0.3591 0.3234 0.0008
H3 H 0.3741 0.3718 0.0280
C8 C 0.3304(4) 0.34527(17) 0.1684(4)
H4 H 0.3217 0.3761 0.1578
C9 C 0.2440(4) 0.3233(2) 0.1233(4)
H5 H 0.2287 0.3303 0.0610
H6 H 0.2520 0.2925 0.1291
C10 C 0.1695(4) 0.3369(2) 0.1630(4)
H7 H 0.1158 0.3200 0.1376
H8 H 0.1551 0.3667 0.1480
C11 C 0.1926(4) 0.3321(2) 0.2617(4)
H9 H 0.1441 0.3443 0.2845
H10 H 0.1971 0.3019 0.2767
C12 C 0.2786(5) 0.3533(2) 0.3034(4)
H11 H 0.2938 0.3476 0.3663
H12 H 0.2715 0.3840 0.2951
C13 C 0.3542(4) 0.3382(2) 0.2655(4)
H13 H 0.4095 0.3537 0.2924
H14 H 0.3651 0.3080 0.2780
C14 C 0.6659(4) 0.25739(16) 0.0180(3)
H15 H 0.6194 0.2357 -0.0045
C15 C 0.7355(4) 0.25373(19) -0.0358(4)
H16 H 0.7077 0.2608 -0.0961
H17 H 0.7582 0.2249 -0.0325
H18 H 0.7848 0.2731 -0.0129
C16 C 0.7059(4) 0.24717(16) 0.1138(3)
C17 C 0.6645(4) 0.21973(16) 0.1590(4)
C18 C 0.7013(4) 0.20989(16) 0.2459(4)
C19 C 0.7809(4) 0.22881(17) 0.2885(3)
C20 C 0.8254(3) 0.25699(15) 0.2456(3)
C21 C 0.7853(4) 0.26571(15) 0.1596(3)
H19 H 0.8134 0.2854 0.1302
C22 C 0.6563(4) 0.17935(17) 0.2933(4)
H20 H 0.7010 0.1688 0.3445
H21 H 0.6353 0.1551 0.2550
C23 C 0.5977(4) 0.22931(19) 0.3940(4)
H22 H 0.6561 0.2226 0.4350
C24 C 0.5245(5) 0.2274(2) 0.4425(4)
H23 H 0.5231 0.1990 0.4674
H24 H 0.4661 0.2326 0.4017
C25 C 0.5403(6) 0.2601(2) 0.5149(4)
H25 H 0.4910 0.2590 0.5443
H26 H 0.5965 0.2535 0.5582
C26 C 0.5460(5) 0.3039(2) 0.4790(4)
H27 H 0.4881 0.3115 0.4396
H28 H 0.5594 0.3245 0.5269
C27 C 0.6187(5) 0.30531(19) 0.4300(4)
H29 H 0.6209 0.3337 0.4054
H30 H 0.6771 0.2997 0.4706
C28 C 0.6023(4) 0.27321(18) 0.3577(4)
H31 H 0.6511 0.2745 0.3276
H32 H 0.5457 0.2797 0.3152
C29 C 0.9142(4) 0.27704(16) 0.2913(4)
H33 H 0.9363 0.2615 0.3469
C30 C 0.9842(4) 0.27114(18) 0.2390(4)
H34 H 0.9881 0.2414 0.2250
H35 H 1.0423 0.2808 0.2731
H36 H 0.9671 0.2874 0.1854
C31 C 0.9014(3) 0.32224(16) 0.3150(3)
C32 C 0.8722(4) 0.33178(17) 0.3891(3)
C33 C 0.8571(4) 0.37310(17) 0.4105(3)
C34 C 0.8732(4) 0.40549(16) 0.3570(4)
C35 C 0.9049(3) 0.39764(16) 0.2837(3)
C36 C 0.9173(3) 0.35571(16) 0.2645(3)
H37 H 0.9377 0.3496 0.2144
C37 C 0.8205(4) 0.38523(18) 0.4859(4)
H38 H 0.7653 0.4018 0.4650
H39 H 0.8050 0.3596 0.5141
C38 C 0.8521(5) 0.4348(2) 0.6151(5)
H40 H 0.8134 0.4158 0.6401
C39 C 0.7990(8) 0.4714(4) 0.5772(7)
H41 H 0.7468 0.4621 0.5317
H42 H 0.8355 0.4901 0.5501
C40 C 0.7675(8) 0.4954(4) 0.6462(10)
H43 H 0.7344 0.5206 0.6200
H44 H 0.7260 0.4775 0.6688
C41 C 0.8416(9) 0.5082(4) 0.7185(9)
H45 H 0.8176 0.5226 0.7629
H46 H 0.8801 0.5283 0.6972
C42 C 0.8959(8) 0.4713(3) 0.7581(6)
H47 H 0.8589 0.4520 0.7833
H48 H 0.9468 0.4807 0.8050
C43 C 0.9301(6) 0.4486(3) 0.6877(6)
H49 H 0.9691 0.4677 0.6645
H50 H 0.9658 0.4239 0.7129
C44 C 0.9211(4) 0.43371(16) 0.2263(4)
H51 H 0.9484 0.4572 0.2654
C45 C 0.9856(4) 0.42273(18) 0.1713(4)
H52 H 1.0425 0.4136 0.2090
H53 H 0.9954 0.4475 0.1383
H54 H 0.9605 0.4000 0.1313
C46 C 0.8321(4) 0.44934(16) 0.1717(3)
C47 C 0.7945(4) 0.48672(16) 0.1897(3)
C48 C 0.7130(4) 0.50070(16) 0.1416(4)
C49 C 0.6678(4) 0.47701(17) 0.0712(4)
C50 C 0.7050(4) 0.43983(16) 0.0475(4)
C51 C 0.7845(4) 0.42647(16) 0.1007(3)
H55 H 0.8080 0.4003 0.0884
C52 C 0.6743(4) 0.54210(17) 0.1603(4)
H56 H 0.7165 0.5649 0.1558
H57 H 0.6181 0.5473 0.1160
C53 C 0.5833(8) 0.5784(3) 0.2474(9)
H58 H 0.5265 0.5699 0.2057
C54 C 0.6120(7) 0.6212(2) 0.2200(7)
H59 H 0.6189 0.6198 0.1600
H60 H 0.6699 0.6295 0.2586
C55 C 0.5401(7) 0.6533(3) 0.2262(6)
H61 H 0.5597 0.6815 0.2125
H62 H 0.4845 0.6464 0.1824
C56 C 0.5206(13) 0.6543(5) 0.3148(9)
H63 H 0.5737 0.6648 0.3578
H64 H 0.4708 0.6740 0.3138
C57 C 0.4964(11) 0.6114(4) 0.3414(10)
H65 H 0.4390 0.6025 0.3028
H66 H 0.4889 0.6126 0.4012
C58 C 0.5685(8) 0.5792(3) 0.3367(7)
H67 H 0.6248 0.5867 0.3788
H68 H 0.5499 0.5511 0.3517
C59 C 0.6622(4) 0.41588(17) -0.0349(4)
H69 H 0.6140 0.4343 -0.0692
C60 C 0.7290(5) 0.4090(2) -0.0903(4)
H70 H 0.7772 0.3907 -0.0594
H71 H 0.7538 0.4361 -0.1017
H72 H 0.6986 0.3959 -0.1452
N1 N 0.4067(3) 0.33158(15) 0.1324(3)
H73 H 0.4123 0.3007 0.1379
H74 H 0.4622 0.3440 0.1684
N2 N 0.5783(3) 0.19677(15) 0.3232(3)
H75 H 0.5474 0.1730 0.3432
H76 H 0.5361 0.2092 0.2724
N3 N 0.8865(3) 0.41047(17) 0.5506(3)
H77 H 0.9332 0.3912 0.5824
H78 H 0.9156 0.4304 0.5185
N4 N 0.6559(4) 0.54347(15) 0.2480(4)
H79 H 0.7113 0.5501 0.2922
H80 H 0.6338 0.5159 0.2621
O1 O 0.4946(3) 0.41707(12) 0.0009(3)
O2 O 0.4850(3) 0.27029(12) 0.0424(3)
H81 H 0.5191 0.2498 0.0585
O3 O 0.5815(3) 0.20425(13) 0.1185(3)
H82 H 0.5831 0.1779 0.1185
O4 O 0.8138(3) 0.21854(12) 0.3740(3)
H83 H 0.8363 0.2399 0.4017
O5 O 0.8569(3) 0.29796(12) 0.4360(3)
H84 H 0.8537 0.3059 0.4853
O6 O 0.8571(3) 0.44491(12) 0.3838(3)
H85 H 0.8684 0.4627 0.3492
O7 O 0.8387(3) 0.51000(12) 0.2615(3)
H86 H 0.8614 0.5314 0.2449
O8 O 0.5874(3) 0.49196(12) 0.0244(3)
H87 H 0.5526 0.4718 0.0076
H88 H 0.467(4) 0.420(2) 0.040(3)
C70 C 0.0997(5) 0.4497(2) -0.0142(5)
F1 F 0.1271(3) 0.44009(14) 0.0694(3)
F2 F 0.1367(5) 0.48582(15) -0.0253(4)
F3 F 0.0116(4) 0.45438(16) -0.0325(3)
O9 O 0.1105(4) 0.42586(18) -0.1672(4)
O10 O 0.0778(5) 0.37324(16) -0.0684(4)
O11 O 0.2249(4) 0.40340(17) -0.0423(4)
S1 S 0.13192(16) 0.40850(5) -0.08039(16)
C72 C 0.8419(5) 0.6135(3) 0.5153(5)
F7 F 0.7983(15) 0.6482(5) 0.4862(15)
F8 F 0.9027(8) 0.6115(6) 0.5851(6)
F9 F 0.7766(7) 0.5853(3) 0.5294(7)
O15 O 0.9356(17) 0.6228(7) 0.4143(12)
O16 O 0.9240(10) 0.5509(3) 0.4525(10)
O17 O 0.8008(5) 0.5879(3) 0.3540(5)
S3 S 0.87966(11) 0.58925(5) 0.42943(12)
C73 C 0.7823(5) 0.3109(2) 0.7330(5)
F13 F 0.7270(3) 0.27894(15) 0.7325(3)
F14 F 0.8206(4) 0.32039(17) 0.8141(3)
F15 F 0.7330(3) 0.34390(16) 0.6992(4)
O21 O 0.8101(3) 0.28995(16) 0.5881(3)
O22 O 0.9112(3) 0.26331(13) 0.7161(3)
O23 O 0.9170(3) 0.33685(14) 0.6786(3)
S4 S 0.86411(10) 0.29887(5) 0.67185(9)
C74 C 0.4813(7) 0.4570(3) 0.3969(6)
F16 F 0.4190(4) 0.4325(2) 0.3459(4)
F17 F 0.4899(6) 0.4463(2) 0.4770(4)
F18 F 0.4470(4) 0.4959(2) 0.3878(5)
O24 O 0.5582(3) 0.46750(14) 0.2734(3)
O25 O 0.6094(4) 0.41232(16) 0.3781(4)
O26 O 0.6410(4) 0.48532(17) 0.4167(4)
S5 S 0.58448(12) 0.45542(5) 0.36375(11)
C75 C 0.3576(5) 0.4615(2) 0.1324(5)
H111 H 0.3115 0.4565 0.0791
H112 H 0.3788 0.4905 0.1329
H113 H 0.3326 0.4569 0.1824
O27 O 0.4309(3) 0.43306(14) 0.1365(3)
H114 H 0.477(3) 0.435(2) 0.179(3)
C76 C 0.6548(4) 0.3593(3) 0.2176(4)
H115 H 0.6534 0.3414 0.1672
H116 H 0.6958 0.3473 0.2687
H117 H 0.6751 0.3875 0.2069
O28 O 0.5684(3) 0.36176(14) 0.2318(3)
H118 H 0.5704 0.3753 0.2775
H89? H 0.8376 0.4619 0.5832
C61? C 0.7671(19) 0.4270(11) 0.639(3)
H90? H 0.7189 0.4234 0.5861
H91? H 0.7720 0.4007 0.6729
C62? C 0.743(2) 0.4611(11) 0.690(2)
H92? H 0.7078 0.4490 0.7285
H93? H 0.7040 0.4807 0.6504
C63? C 0.819(3) 0.4865(18) 0.747(3)
H94? H 0.8194 0.5147 0.7207
H95? H 0.8066 0.4904 0.8043
H96? H 0.9030 0.4513 0.8069
H97? H 0.9380 0.4946 0.7789
C64? C 0.6137(17) 0.5758(7) 0.2924(19)
H98? H 0.6264 0.5700 0.3559
C65? C 0.6514(17) 0.6194(6) 0.275(2)
H99? H 0.6417 0.6246 0.2125
H100? H 0.7159 0.6213 0.3029
C66? C 0.5967(17) 0.6513(6) 0.3174(17)
H101? H 0.6075 0.6455 0.3801
H102? H 0.6169 0.6802 0.3102
C67? C 0.501(3) 0.6476(10) 0.277(3)
H103? H 0.4911 0.6527 0.2137
H104? H 0.4684 0.6692 0.3006
C68? C 0.4651(16) 0.6033(7) 0.292(2)
H105? H 0.4744 0.5979 0.3544
H106? H 0.4005 0.6016 0.2643
C69? C 0.5164(15) 0.5706(6) 0.2510(13)
H107? H 0.4968 0.5419 0.2612
H108? H 0.5048 0.5751 0.1878
H109? H 0.6208 0.5177 0.2504
H110? H 0.7148 0.5385 0.2882
C71? C 0.065(4) 0.450(3) -0.047(5)
F4? F -0.024(4) 0.454(2) -0.080(4)
F5? F 0.081(4) 0.438(2) 0.035(4)
F6? F 0.104(5) 0.488(3) -0.051(5)
O12? O 0.043(3) 0.3773(14) -0.107(3)
O13? O 0.061(5) 0.434(2) -0.208(4)
O14? O 0.183(4) 0.4073(19) -0.093(4)
S2? S 0.090(2) 0.4130(7) -0.128(2)
F10? F 0.9096(8) 0.6418(5) 0.5607(8)
F11? F 0.8288(18) 0.5960(4) 0.5851(11)
F12? F 0.7813(17) 0.6431(7) 0.4935(14)
O18? O 0.919(3) 0.6205(10) 0.3864(16)
O19? O 0.8023(8) 0.5637(6) 0.4038(14)
O20? O 0.9483(10) 0.5631(5) 0.4864(11)
loop_
_geom_bond_atom_site_label_1
_geom_bond_atom_site_label_2
_geom_bond_site_symmetry_1
_geom_bond_site_symmetry_2
C1 C2 1_555 1_555
C2 C3 1_555 1_555
C3 C4 1_555 1_555
C4 C5 1_555 1_555
C5 C6 1_555 1_555
C6 C1 1_555 1_555
H1 C6 1_555 1_555
C7 C3 1_555 1_555
H2 C7 1_555 1_555
H3 C7 1_555 1_555
C8 H4 1_555 1_555
C9 C8 1_555 1_555
H5 C9 1_555 1_555
H6 C9 1_555 1_555
C10 C9 1_555 1_555
H7 C10 1_555 1_555
H8 C10 1_555 1_555
C11 C10 1_555 1_555
H9 C11 1_555 1_555
H10 C11 1_555 1_555
C12 C11 1_555 1_555
H11 C12 1_555 1_555
H12 C12 1_555 1_555
C13 C8 1_555 1_555
H13 C13 1_555 1_555
H14 C13 1_555 1_555
C14 C5 1_555 1_555
H15 C14 1_555 1_555
C15 C14 1_555 1_555
H16 C15 1_555 1_555
H17 C15 1_555 1_555
H18 C15 1_555 1_555
C16 C14 1_555 1_555
C17 C16 1_555 1_555
C18 C17 1_555 1_555
C19 C18 1_555 1_555
C20 C19 1_555 1_555
C21 C16 1_555 1_555
H19 C21 1_555 1_555
C22 C18 1_555 1_555
H20 C22 1_555 1_555
H21 C22 1_555 1_555
C23 H22 1_555 1_555
C24 C23 1_555 1_555
H23 C24 1_555 1_555
H24 C24 1_555 1_555
C25 C24 1_555 1_555
H25 C25 1_555 1_555
H26 C25 1_555 1_555
C26 C25 1_555 1_555
H27 C26 1_555 1_555
H28 C26 1_555 1_555
C27 C26 1_555 1_555
H29 C27 1_555 1_555
H30 C27 1_555 1_555
C28 C23 1_555 1_555
H31 C28 1_555 1_555
H32 C28 1_555 1_555
C29 C20 1_555 1_555
H33 C29 1_555 1_555
C30 C29 1_555 1_555
H34 C30 1_555 1_555
H35 C30 1_555 1_555
H36 C30 1_555 1_555
C31 C29 1_555 1_555
C32 C31 1_555 1_555
C33 C32 1_555 1_555
C34 C33 1_555 1_555
C35 C34 1_555 1_555
C36 C31 1_555 1_555
H37 C36 1_555 1_555
C37 C33 1_555 1_555
H38 C37 1_555 1_555
H39 C37 1_555 1_555
C38 H40 1_555 1_555
C39 C38 1_555 1_555
H41 C39 1_555 1_555
H42 C39 1_555 1_555
C40 C39 1_555 1_555
H43 C40 1_555 1_555
H44 C40 1_555 1_555
C41 C40 1_555 1_555
H45 C41 1_555 1_555
H46 C41 1_555 1_555
C42 C41 1_555 1_555
H47 C42 1_555 1_555
H48 C42 1_555 1_555
C43 C38 1_555 1_555
H49 C43 1_555 1_555
H50 C43 1_555 1_555
C44 C35 1_555 1_555
H51 C44 1_555 1_555
C45 C44 1_555 1_555
H52 C45 1_555 1_555
H53 C45 1_555 1_555
H54 C45 1_555 1_555
C46 C44 1_555 1_555
C47 C46 1_555 1_555
C48 C47 1_555 1_555
C49 C48 1_555 1_555
C50 C49 1_555 1_555
C51 C46 1_555 1_555
H55 C51 1_555 1_555
C52 C48 1_555 1_555
H56 C52 1_555 1_555
H57 C52 1_555 1_555
C53 H58 1_555 1_555
C54 C53 1_555 1_555
H59 C54 1_555 1_555
H60 C54 1_555 1_555
C55 C54 1_555 1_555
H61 C55 1_555 1_555
H62 C55 1_555 1_555
C56 C55 1_555 1_555
H63 C56 1_555 1_555
H64 C56 1_555 1_555
C57 C56 1_555 1_555
H65 C57 1_555 1_555
H66 C57 1_555 1_555
C58 C53 1_555 1_555
H67 C58 1_555 1_555
H68 C58 1_555 1_555
C59 C1 1_555 1_555
H69 C59 1_555 1_555
C60 C59 1_555 1_555
H70 C60 1_555 1_555
H71 C60 1_555 1_555
H72 C60 1_555 1_555
N1 C7 1_555 1_555
H73 N1 1_555 1_555
H74 N1 1_555 1_555
N2 C22 1_555 1_555
H75 N2 1_555 1_555
H76 N2 1_555 1_555
N3 C37 1_555 1_555
H77 N3 1_555 1_555
H78 N3 1_555 1_555
N4 C52 1_555 1_555
H79 N4 1_555 1_555
H80 N4 1_555 1_555
O1 C2 1_555 1_555
O2 C4 1_555 1_555
H81 O2 1_555 1_555
O3 C17 1_555 1_555
H82 O3 1_555 1_555
O4 C19 1_555 1_555
H83 O4 1_555 1_555
O5 C32 1_555 1_555
H84 O5 1_555 1_555
O6 C34 1_555 1_555
H85 O6 1_555 1_555
O7 C47 1_555 1_555
H86 O7 1_555 1_555
O8 C49 1_555 1_555
H87 O8 1_555 1_555
H88 O1 1_555 1_555
C70 F1 1_555 1_555
F2 C70 1_555 1_555
F3 C70 1_555 1_555
O9 S1 1_555 1_555
O10 S1 1_555 1_555
O11 S1 1_555 1_555
S1 C70 1_555 1_555
C72 F7 1_555 1_555
F8 C72 1_555 1_555
F9 C72 1_555 1_555
O15 S3 1_555 1_555
O16 S3 1_555 1_555
O17 S3 1_555 1_555
S3 C72 1_555 1_555
C73 F13 1_555 1_555
F14 C73 1_555 1_555
F15 C73 1_555 1_555
O21 S4 1_555 1_555
O22 S4 1_555 1_555
O23 S4 1_555 1_555
S4 C73 1_555 1_555
C74 F16 1_555 1_555
F17 C74 1_555 1_555
F18 C74 1_555 1_555
O24 S5 1_555 1_555
O25 S5 1_555 1_555
O26 S5 1_555 1_555
S5 C74 1_555 1_555
C75 H111 1_555 1_555
H112 C75 1_555 1_555
H113 C75 1_555 1_555
O27 C75 1_555 1_555
H114 O27 1_555 1_555
C76 H115 1_555 1_555
H116 C76 1_555 1_555
H117 C76 1_555 1_555
O28 C76 1_555 1_555
H118 O28 1_555 1_555
C8 N1 1_555 1_555
C12 C13 1_555 1_555
C20 C21 1_555 1_555
C23 N2 1_555 1_555
C27 C28 1_555 1_555
C35 C36 1_555 1_555
C38 N3 1_555 1_555
C42 C43 1_555 1_555
C50 C51 1_555 1_555
C50 C59 1_555 1_555
C53 N4 1_555 1_555
C57 C58 1_555 1_555

#END
