
#######################################################################
#
#                 Cambridge Crystallographic Data Centre
#                                CCDC 
#
#######################################################################
#
# If this CIF has been generated from an entry in the Cambridge 
# Structural Database, then it will include bibliographic, chemical, 
# crystal, experimental, refinement or atomic coordinate data resulting 
# from the CCDC's data processing and validation procedures.
#
#######################################################################

data_YUPHIB
_chemical_name_common            
1-(Dichloro(trifluorovinyl)-lambda$4!-tellanyl)-1,2,2-trifluoroethene
_chemical_formula_moiety         'C4 Cl2 F6 Te1'
_chemical_name_systematic        Dichloro-bis(trifluorovinyl)-tellurium
_symmetry_cell_setting           monoclinic
_symmetry_space_group_name_H-M   'C 2/c'
_symmetry_Int_Tables_number      15
_space_group_name_Hall           '-C 2yn'
loop_
_symmetry_equiv_pos_site_id
_symmetry_equiv_pos_as_xyz
1 x,y,z
2 1/2+x,1/2+y,z
3 -x,y,1/2-z
4 1/2-x,1/2+y,1/2-z
5 -x,-y,-z
6 1/2-x,1/2-y,-z
7 x,-y,1/2+z
8 1/2+x,1/2-y,1/2+z
_cell_length_a                   9.6389(14)
_cell_length_b                   10.7997(18)
_cell_length_c                   9.0481(13)
_cell_angle_alpha                90
_cell_angle_beta                 106.576(11)
_cell_angle_gamma                90
_cell_volume                     902.74
_exptl_crystal_colour            colorless
_chemical_melting_point          '81 deg.C (dec.)'
_cell_formula_units_Z            4
_exptl_crystal_recrystallization_method sublimation
loop_
_atom_site_label
_atom_site_type_symbol
_atom_site_fract_x
_atom_site_fract_y
_atom_site_fract_z
Te1 Te 0.5000 0.073498(15) 0.2500
Cl1 Cl 0.66207(6) 0.09015(5) 0.51806(6)
F1 F 0.15340(18) 0.27915(18) 0.34136(18)
F2 F 0.15621(16) 0.10286(17) 0.22651(19)
F3 F 0.44156(18) 0.30982(14) 0.38677(18)
C1 C 0.3725(2) 0.2094(2) 0.3151(2)
C2 C 0.2325(3) 0.1968(2) 0.2944(3)
Cl1B Cl 0.33793(6) 0.09015(5) -0.01806(6)
F1B F 0.84660(18) 0.27915(18) 0.15864(18)
F2B F 0.84379(16) 0.10286(17) 0.27349(19)
F3B F 0.55844(18) 0.30982(14) 0.11323(18)
C1B C 0.6275(2) 0.2094(2) 0.1849(2)
C2B C 0.7675(3) 0.1968(2) 0.2056(3)
loop_
_geom_bond_atom_site_label_1
_geom_bond_atom_site_label_2
_geom_bond_site_symmetry_1
_geom_bond_site_symmetry_2
Te1 Cl1 1_555 1_555
F1 C2 1_555 1_555
F2 C2 1_555 1_555
F3 C1 1_555 1_555
C1 Te1 1_555 1_555
C2 C1 1_555 1_555
Cl1B Te1 1_555 1_555
F1B C2B 1_555 1_555
F2B C2B 1_555 1_555
F3B C1B 1_555 1_555
C1B Te1 1_555 1_555
C2B C1B 1_555 1_555

#END
