
#######################################################################
#
#                 Cambridge Crystallographic Data Centre
#                                CCDC 
#
#######################################################################
#
# If this CIF has been generated from an entry in the Cambridge 
# Structural Database, then it will include bibliographic, chemical, 
# crystal, experimental, refinement or atomic coordinate data resulting 
# from the CCDC's data processing and validation procedures.
#
#######################################################################

data_YUPHAT
_chemical_name_common            
1-(Dibromo(trifluorovinyl)-lambda$4!-tellanyl)-1,2,2-trifluoroethene
_chemical_formula_moiety         'C4 Br2 F6 Te1'
_chemical_name_systematic        Dibromo-bis(trifluorovinyl)-tellurium
_symmetry_cell_setting           triclinic
_symmetry_space_group_name_H-M   'P -1'
_symmetry_Int_Tables_number      2
_space_group_name_Hall           '-P 1'
loop_
_symmetry_equiv_pos_site_id
_symmetry_equiv_pos_as_xyz
1 x,y,z
2 -x,-y,-z
_cell_length_a                   9.1040(14)
_cell_length_b                   10.7577(17)
_cell_length_c                   10.9092(17)
_cell_angle_alpha                62.765(11)
_cell_angle_beta                 88.067(12)
_cell_angle_gamma                87.399(13)
_cell_volume                     948.898
_exptl_crystal_colour            'bright yellow'
_chemical_melting_point          '77 deg.C (dec.)'
_cell_formula_units_Z            4
_exptl_crystal_recrystallization_method sublimation
loop_
_atom_site_label
_atom_site_type_symbol
_atom_site_fract_x
_atom_site_fract_y
_atom_site_fract_z
Te1 Te 0.91868(5) -0.88900(4) 0.63102(4)
Br1 Br 0.86069(10) -0.65697(8) 0.40714(8)
Br2 Br 0.97403(9) -1.12303(7) 0.86858(8)
F1 F 1.1976(6) -0.6966(5) 0.8000(5)
F2 F 1.2325(6) -0.8771(5) 0.7633(5)
F3 F 0.9161(6) -0.6613(5) 0.7153(6)
F4 F 0.5267(6) -0.8722(6) 0.8609(6)
F5 F 0.7555(6) -0.9024(6) 0.9197(5)
F6 F 0.5958(5) -0.8520(5) 0.6111(5)
C1 C 1.0048(9) -0.7646(7) 0.7158(8)
C2 C 1.1387(10) -0.7791(8) 0.7588(8)
C3 C 0.7014(8) -0.8733(8) 0.7017(8)
C4 C 0.6641(9) -0.8835(8) 0.8219(8)
Te2 Te 0.78995(5) -0.33382(5) 0.79052(5)
Br3 Br 0.75692(9) -0.10280(8) 0.53383(7)
Br4 Br 0.79669(11) -0.53867(9) 1.03545(11)
F7 F 0.3794(6) -0.1454(5) 0.8440(6)
F8 F 0.4435(6) -0.2095(5) 0.6879(5)
F9 F 0.6379(5) -0.2322(5) 0.9702(5)
F10 F 0.7534(8) -0.4110(6) 0.5413(6)
F11 F 0.5631(11) -0.5600(7) 0.6211(9)
F12 F 0.5297(7) -0.5229(6) 0.8383(6)
C5 C 0.6124(8) -0.2441(7) 0.8567(7)
C6 C 0.4840(9) -0.2022(8) 0.7985(9)
C7 C 0.6401(13) -0.4551(10) 0.7419(11)
C8 C 0.6533(13) -0.4723(11) 0.6404(11)
loop_
_geom_bond_atom_site_label_1
_geom_bond_atom_site_label_2
_geom_bond_site_symmetry_1
_geom_bond_site_symmetry_2
Te1 Br1 1_555 1_555
Br2 Te1 1_555 1_555
F1 C2 1_555 1_555
F2 C2 1_555 1_555
F3 C1 1_555 1_555
F4 C4 1_555 1_555
F5 C4 1_555 1_555
F6 C3 1_555 1_555
C1 Te1 1_555 1_555
C2 C1 1_555 1_555
C3 Te1 1_555 1_555
C4 C3 1_555 1_555
Te2 Br3 1_555 1_555
Br4 Te2 1_555 1_555
F7 C6 1_555 1_555
F8 C6 1_555 1_555
F9 C5 1_555 1_555
F10 C8 1_555 1_555
F11 C8 1_555 1_555
F12 C7 1_555 1_555
C5 Te2 1_555 1_555
C6 C5 1_555 1_555
C7 Te2 1_555 1_555
C8 C7 1_555 1_555

#END
