
#######################################################################
#
#                 Cambridge Crystallographic Data Centre
#                                CCDC 
#
#######################################################################
#
# If this CIF has been generated from an entry in the Cambridge 
# Structural Database, then it will include bibliographic, chemical, 
# crystal, experimental, refinement or atomic coordinate data resulting 
# from the CCDC's data processing and validation procedures.
#
#######################################################################

data_YUQDIY
_chemical_name_common            
'3-Methylquinoxaline-2-carboxylic acid 4-oxide monohydrate'
_chemical_formula_moiety         'C10 H8 N2 O3,H2 O1'
_chemical_name_systematic        
'4-Hydroxy-3-methyl-4\l^5^-quinoxaline-2-carboxylic acid monohydrate'
_symmetry_cell_setting           monoclinic
_symmetry_space_group_name_H-M   'P 21/c'
_symmetry_Int_Tables_number      14
_space_group_name_Hall           '-P 2ybc'
loop_
_symmetry_equiv_pos_site_id
_symmetry_equiv_pos_as_xyz
1 x,y,z
2 -x,1/2+y,1/2-z
3 -x,-y,-z
4 x,1/2-y,1/2+z
_cell_length_a                   6.0526(13)
_cell_length_b                   18.068(4)
_cell_length_c                   8.9195(19)
_cell_angle_alpha                90
_cell_angle_beta                 98.520(15)
_cell_angle_gamma                90
_cell_volume                     964.657
_exptl_crystal_colour            yellow
_exptl_crystal_description       plate
_cell_formula_units_Z            4
loop_
_atom_site_label
_atom_site_type_symbol
_atom_site_fract_x
_atom_site_fract_y
_atom_site_fract_z
O1 O 0.2035(6) 0.6094(2) 0.4980(5)
H9 H 0.261(8) 0.643(2) 0.450(6)
H10 H 0.080(5) 0.626(3) 0.522(6)
O2 O 0.6172(6) 0.2378(2) 0.1107(4)
O3 O 0.3088(6) 0.4949(2) 0.2089(5)
O4 O 0.2260(7) 0.4704(2) 0.4389(4)
H1 H 0.2018 0.5162 0.4401
N1 N 0.4745(7) 0.2663(3) 0.1891(5)
N2 N 0.1661(7) 0.3286(2) 0.3563(5)
C1 C 0.1772(8) 0.2529(3) 0.3378(6)
C2 C 0.0313(9) 0.2070(3) 0.4034(6)
H2 H -0.0732 0.2280 0.4609
C3 C 0.0398(9) 0.1315(3) 0.3845(6)
H3 H -0.0604 0.1004 0.4277
C4 C 0.1961(9) 0.1006(3) 0.3014(6)
H4 H 0.2012 0.0483 0.2900
C5 C 0.3405(9) 0.1436(3) 0.2369(6)
H5 H 0.4457 0.1219 0.1810
C6 C 0.3311(8) 0.2207(3) 0.2547(6)
C7 C 0.4655(9) 0.3408(3) 0.2072(6)
C8 C 0.3058(9) 0.3687(3) 0.2920(6)
C9 C 0.6295(9) 0.3835(3) 0.1352(6)
H6 H 0.7788 0.3625 0.1647
H7 H 0.6287 0.4352 0.1684
H8 H 0.5896 0.3812 0.0247
C10 C 0.2818(9) 0.4516(3) 0.3070(7)
loop_
_geom_bond_atom_site_label_1
_geom_bond_atom_site_label_2
_geom_bond_site_symmetry_1
_geom_bond_site_symmetry_2
O1 H9 1_555 1_555
O2 N1 1_555 1_555
O3 C10 1_555 1_555
O4 H1 1_555 1_555
N1 C6 1_555 1_555
N2 C1 1_555 1_555
C1 C2 1_555 1_555
C2 H2 1_555 1_555
C3 C2 1_555 1_555
H3 C3 1_555 1_555
C4 C3 1_555 1_555
H4 C4 1_555 1_555
C5 C4 1_555 1_555
H5 C5 1_555 1_555
C6 C1 1_555 1_555
C7 N1 1_555 1_555
C8 N2 1_555 1_555
C9 C7 1_555 1_555
H6 C9 1_555 1_555
H7 C9 1_555 1_555
H8 C9 1_555 1_555
C10 O4 1_555 1_555
H10 O1 1_555 1_555
C5 C6 1_555 1_555
C7 C8 1_555 1_555
C8 C10 1_555 1_555

#END
