
#######################################################################
#
#                 Cambridge Crystallographic Data Centre
#                                CCDC 
#
#######################################################################
#
# If this CIF has been generated from an entry in the Cambridge 
# Structural Database, then it will include bibliographic, chemical, 
# crystal, experimental, refinement or atomic coordinate data resulting 
# from the CCDC's data processing and validation procedures.
#
#######################################################################

data_YUQDUK
_chemical_formula_moiety         'C15 H13 Br1 N2 O3'
_chemical_name_systematic        
(E)-N'-(5-Bromo-2-hydroxybenzylidene)-3-methoxybenzohydrazide
_symmetry_cell_setting           monoclinic
_symmetry_space_group_name_H-M   'P 21/n'
_symmetry_Int_Tables_number      14
_space_group_name_Hall           '-P 2yn'
loop_
_symmetry_equiv_pos_site_id
_symmetry_equiv_pos_as_xyz
1 x,y,z
2 1/2-x,1/2+y,1/2-z
3 -x,-y,-z
4 1/2+x,1/2-y,1/2+z
_cell_length_a                   6.865(2)
_cell_length_b                   30.726(3)
_cell_length_c                   7.257(2)
_cell_angle_alpha                90
_cell_angle_beta                 104.437(15)
_cell_angle_gamma                90
_cell_volume                     1482.41
_exptl_crystal_colour            colorless
_exptl_crystal_description       block
_cell_formula_units_Z            4
loop_
_atom_site_label
_atom_site_type_symbol
_atom_site_fract_x
_atom_site_fract_y
_atom_site_fract_z
Br1 Br -0.14621(6) 0.006913(10) 0.72146(5)
N1 N -0.0463(3) 0.21192(6) 0.5786(3)
N2 N 0.1078(3) 0.24188(7) 0.6071(3)
O1 O -0.4272(3) 0.18973(6) 0.5066(3)
H1 H -0.3314 0.2060 0.5117
O2 O -0.0895(3) 0.29146(5) 0.4185(3)
O3 O 0.3228(3) 0.43040(6) 0.6485(3)
C1 C -0.1528(4) 0.14004(8) 0.6243(3)
C2 C -0.3592(4) 0.14938(8) 0.5621(4)
C3 C -0.4970(4) 0.11647(10) 0.5578(4)
H2 H -0.6336 0.1229 0.5227
C4 C -0.4370(5) 0.07446(9) 0.6041(4)
H3 H -0.5324 0.0526 0.5971
C5 C -0.2338(5) 0.06462(8) 0.6614(4)
C6 C -0.0948(4) 0.09725(8) 0.6719(4)
H4 H 0.0414 0.0906 0.7119
C7 C 0.0005(4) 0.17332(8) 0.6411(4)
H5 H 0.1341 0.1666 0.6979
C8 C 0.0728(4) 0.28138(8) 0.5248(4)
C9 C 0.2439(4) 0.31261(8) 0.5746(3)
C10 C 0.1979(4) 0.35642(8) 0.5838(3)
H6 H 0.0642 0.3652 0.5579
C11 C 0.3486(4) 0.38683(8) 0.6308(4)
C12 C 0.5471(5) 0.37320(10) 0.6659(4)
H7 H 0.6500 0.3936 0.6975
C13 C 0.5937(4) 0.33037(10) 0.6550(4)
H8 H 0.7276 0.3219 0.6773
C14 C 0.4423(4) 0.29916(9) 0.6106(4)
H9 H 0.4738 0.2698 0.6053
C15 C 0.1241(6) 0.44666(9) 0.6235(5)
H10 H 0.0484 0.4413 0.4953
H11 H 0.1290 0.4774 0.6477
H12 H 0.0605 0.4323 0.7106
H13 H 0.218(3) 0.2361(10) 0.700(3)
loop_
_geom_bond_atom_site_label_1
_geom_bond_atom_site_label_2
_geom_bond_site_symmetry_1
_geom_bond_site_symmetry_2
Br1 C5 1_555 1_555
N1 N2 1_555 1_555
N2 C8 1_555 1_555
O1 H1 1_555 1_555
O2 C8 1_555 1_555
O3 C11 1_555 1_555
C1 C2 1_555 1_555
C2 O1 1_555 1_555
C3 C2 1_555 1_555
H2 C3 1_555 1_555
C4 C3 1_555 1_555
H3 C4 1_555 1_555
C5 C4 1_555 1_555
C6 C1 1_555 1_555
H4 C6 1_555 1_555
C7 N1 1_555 1_555
H5 C7 1_555 1_555
C8 C9 1_555 1_555
C9 C10 1_555 1_555
C10 H6 1_555 1_555
C11 C10 1_555 1_555
C12 C11 1_555 1_555
H7 C12 1_555 1_555
C13 C12 1_555 1_555
H8 C13 1_555 1_555
C14 C9 1_555 1_555
H9 C14 1_555 1_555
C15 O3 1_555 1_555
H10 C15 1_555 1_555
H11 C15 1_555 1_555
H12 C15 1_555 1_555
H13 N2 1_555 1_555
C1 C7 1_555 1_555
C5 C6 1_555 1_555
C13 C14 1_555 1_555

#END
