
#######################################################################
#
#                 Cambridge Crystallographic Data Centre
#                                CCDC 
#
#######################################################################
#
# If this CIF has been generated from an entry in the Cambridge 
# Structural Database, then it will include bibliographic, chemical, 
# crystal, experimental, refinement or atomic coordinate data resulting 
# from the CCDC's data processing and validation procedures.
#
#######################################################################

data_YUQNEE
_chemical_name_common            N-(2,3,4-Trifluorophenyl)phthalimide
_chemical_formula_moiety         'C14 H6 F3 N1 O2'
_chemical_name_systematic        
2-(2,3,4-Trifluorophenyl)-1H-isoindole-1,3(2H)-dione
_symmetry_cell_setting           monoclinic
_symmetry_space_group_name_H-M   'P 21/n'
_symmetry_Int_Tables_number      14
_space_group_name_Hall           '-P 2yn'
loop_
_symmetry_equiv_pos_site_id
_symmetry_equiv_pos_as_xyz
1 x,y,z
2 1/2-x,1/2+y,1/2-z
3 -x,-y,-z
4 1/2+x,1/2-y,1/2+z
_cell_length_a                   6.8422(14)
_cell_length_b                   21.082(4)
_cell_length_c                   7.9727(16)
_cell_angle_alpha                90
_cell_angle_beta                 101.98(3)
_cell_angle_gamma                90
_cell_volume                     1124.99
_exptl_crystal_colour            colorless
_exptl_crystal_description       prism
_cell_formula_units_Z            4
_exptl_crystal_recrystallization_method 'ethyl acetate'
loop_
_atom_site_label
_atom_site_type_symbol
_atom_site_fract_x
_atom_site_fract_y
_atom_site_fract_z
F1 F 0.36805(13) 0.27803(5) 1.30697(12)
F2 F 0.04277(12) 0.20200(5) 1.25161(11)
F3 F 0.00346(11) 0.10870(4) 1.01757(10)
O1 O 0.29321(15) 0.14544(5) 0.58108(12)
O2 O 0.28164(15) 0.00092(5) 1.01024(12)
N1 N 0.28999(17) 0.08556(6) 0.82561(14)
C1 C 0.28328(19) 0.09456(7) 0.64828(17)
C2 C 0.26306(18) 0.02990(7) 0.57338(17)
C3 C 0.2489(2) 0.01067(7) 0.40531(18)
H1 H 0.2475 0.0406 0.3160
C4 C 0.23668(19) -0.05431(8) 0.37222(18)
H2 H 0.2272 -0.0690 0.2582
C5 C 0.2381(2) -0.09816(8) 0.50331(18)
H3 H 0.2302 -0.1422 0.4771
C6 C 0.2507(2) -0.07859(7) 0.67177(18)
H4 H 0.2510 -0.1083 0.7613
C7 C 0.26293(18) -0.01410(7) 0.70366(16)
C8 C 0.27847(19) 0.02073(7) 0.86743(17)
C9 C 0.31396(19) 0.13524(7) 0.94859(17)
C10 C 0.4794(2) 0.17526(7) 0.97522(18)
H5 H 0.5796 0.1693 0.9102
C11 C 0.4998(2) 0.22367(8) 1.09549(19)
H6 H 0.6125 0.2510 1.1129
C12 C 0.3538(2) 0.23125(7) 1.18896(18)
C13 C 0.1879(2) 0.19236(8) 1.16429(18)
C14 C 0.16934(19) 0.14500(7) 1.04425(17)
loop_
_geom_bond_atom_site_label_1
_geom_bond_atom_site_label_2
_geom_bond_site_symmetry_1
_geom_bond_site_symmetry_2
F1 C12 1_555 1_555
F2 C13 1_555 1_555
F3 C14 1_555 1_555
O1 C1 1_555 1_555
O2 C8 1_555 1_555
N1 C1 1_555 1_555
C1 C2 1_555 1_555
C2 C3 1_555 1_555
C3 H1 1_555 1_555
C4 C3 1_555 1_555
H2 C4 1_555 1_555
C5 C4 1_555 1_555
H3 C5 1_555 1_555
C6 C5 1_555 1_555
H4 C6 1_555 1_555
C7 C2 1_555 1_555
C8 N1 1_555 1_555
C9 N1 1_555 1_555
C10 C9 1_555 1_555
H5 C10 1_555 1_555
C11 C10 1_555 1_555
H6 C11 1_555 1_555
C12 C11 1_555 1_555
C13 C12 1_555 1_555
C14 C9 1_555 1_555
C6 C7 1_555 1_555
C7 C8 1_555 1_555
C13 C14 1_555 1_555

#END
