
#######################################################################
#
#                 Cambridge Crystallographic Data Centre
#                                CCDC 
#
#######################################################################
#
# If this CIF has been generated from an entry in the Cambridge 
# Structural Database, then it will include bibliographic, chemical, 
# crystal, experimental, refinement or atomic coordinate data resulting 
# from the CCDC's data processing and validation procedures.
#
#######################################################################

data_YUQVOW01
_chemical_formula_moiety         'C4 H12 N1 1+,C7 H5 O3 1-'
_chemical_name_systematic        '2-Methylpropan-2-aminium 4-hydroxybenzoate'
_symmetry_cell_setting           monoclinic
_symmetry_space_group_name_H-M   'P 21/c'
_symmetry_Int_Tables_number      14
_space_group_name_Hall           '-P 2ybc'
loop_
_symmetry_equiv_pos_site_id
_symmetry_equiv_pos_as_xyz
1 x,y,z
2 -x,1/2+y,1/2-z
3 -x,-y,-z
4 x,1/2-y,1/2+z
_cell_length_a                   6.8300(14)
_cell_length_b                   9.2790(19)
_cell_length_c                   19.831(4)
_cell_angle_alpha                90
_cell_angle_beta                 99.58(3)
_cell_angle_gamma                90
_cell_volume                     1239.27
_exptl_crystal_colour            colorless
_exptl_crystal_description       block
_cell_formula_units_Z            4
loop_
_atom_site_label
_atom_site_type_symbol
_atom_site_fract_x
_atom_site_fract_y
_atom_site_fract_z
O1 O -0.99941(19) -0.15131(15) -0.59355(6)
O2 O -0.6754(2) -0.14139(16) -0.55799(7)
O3 O -0.7078(2) -0.5623(2) -0.81320(9)
H1 H -0.8135 -0.5813 -0.8378
C1 C -0.8230(3) -0.18965(19) -0.59781(9)
C2 C -0.7946(2) -0.29301(18) -0.65302(8)
C3 C -0.6088(3) -0.3117(2) -0.67149(10)
H2 H -0.5000 -0.2628 -0.6477
C4 C -0.5831(3) -0.4023(3) -0.72490(12)
H3 H -0.4578 -0.4126 -0.7369
C5 C -0.7423(3) -0.4775(2) -0.76057(10)
C6 C -0.9278(3) -0.4632(2) -0.74153(10)
H4 H -1.0351 -0.5156 -0.7642
C7 C -0.9530(3) -0.3710(2) -0.68887(9)
H5 H -1.0785 -0.3607 -0.6771
N1 N -0.2653(2) -0.13006(18) -0.50107(9)
C8 C -0.2550(4) -0.3926(3) -0.49272(16)
H6 H -0.3912 -0.3987 -0.5146
H7 H -0.2232 -0.4740 -0.4630
H8 H -0.1704 -0.3923 -0.5268
C9 C -0.3687(5) -0.2396(4) -0.40047(17)
H9 H -0.3433 -0.1514 -0.3753
H10 H -0.3519 -0.3196 -0.3693
H11 H -0.5022 -0.2390 -0.4251
C10 C -0.0089(4) -0.2401(3) -0.41592(13)
H12 H 0.0073 -0.1527 -0.3897
H13 H 0.0763 -0.2380 -0.4498
H14 H 0.0253 -0.3211 -0.3861
C11 C -0.2236(3) -0.2538(2) -0.45088(11)
H15 H -0.266(3) -0.042(3) -0.4802(11)
H16 H -0.392(4) -0.140(2) -0.5287(12)
H17 H -0.183(4) -0.131(2) -0.5316(13)
loop_
_geom_bond_atom_site_label_1
_geom_bond_atom_site_label_2
_geom_bond_site_symmetry_1
_geom_bond_site_symmetry_2
O1 C1 1_555 1_555
O2 C1 1_555 1_555
O3 H1 1_555 1_555
C1 C2 1_555 1_555
C2 C3 1_555 1_555
C3 H2 1_555 1_555
C4 C3 1_555 1_555
H3 C4 1_555 1_555
C5 O3 1_555 1_555
C6 C5 1_555 1_555
H4 C6 1_555 1_555
C7 C2 1_555 1_555
H5 C7 1_555 1_555
N1 C11 1_555 1_555
C8 H6 1_555 1_555
H7 C8 1_555 1_555
H8 C8 1_555 1_555
C9 H9 1_555 1_555
H10 C9 1_555 1_555
H11 C9 1_555 1_555
C10 H12 1_555 1_555
H13 C10 1_555 1_555
H14 C10 1_555 1_555
C11 C8 1_555 1_555
H15 N1 1_555 1_555
H16 N1 1_555 1_555
H17 N1 1_555 1_555
C4 C5 1_555 1_555
C6 C7 1_555 1_555
C9 C11 1_555 1_555
C10 C11 1_555 1_555

#END
