
#######################################################################
#
#                 Cambridge Crystallographic Data Centre
#                                CCDC 
#
#######################################################################
#
# If this CIF has been generated from an entry in the Cambridge 
# Structural Database, then it will include bibliographic, chemical, 
# crystal, experimental, refinement or atomic coordinate data resulting 
# from the CCDC's data processing and validation procedures.
#
#######################################################################

data_YUSLAA
_chemical_name_common            
'7,12,24,29,36,37-HEXAKIS(PENTAFLUOROPHENYL)-2,17,19,34,35,38-hexaaza-1,18-diphosphaundecacyclo[23.9.1.1$3,33!.1$8,11!.1$16,20!.0$2,6!.0$10,18!.0$13,17!.0$19,23!.0$28,35!.0$30,34!]octatriaconta-3(36),4,6,8,10,12,14,16(37),20,22,24,26,28,30,32-pentadecaene 1,18-dioxide acetone solvate'
_chemical_formula_moiety         'C66 H12 F30 N6 O2 P2,6(C3 H6 O1)'
_chemical_name_systematic        
'(meso-hexakis(Pentafluorophenyl)-(28)-hexaphyrin(1.1.1.1.1.1))bis(phosphine oxide) acetone solvate'
_symmetry_cell_setting           monoclinic
_symmetry_space_group_name_H-M   'P 21/n'
_symmetry_Int_Tables_number      14
_space_group_name_Hall           '-P 2yn'
loop_
_symmetry_equiv_pos_site_id
_symmetry_equiv_pos_as_xyz
1 x,y,z
2 1/2-x,1/2+y,1/2-z
3 -x,-y,-z
4 1/2+x,1/2-y,1/2+z
_cell_length_a                   18.458(6)
_cell_length_b                   16.429(4)
_cell_length_c                   26.966(9)
_cell_angle_alpha                90
_cell_angle_beta                 91.314(11)
_cell_angle_gamma                90
_cell_volume                     8175.19
_exptl_crystal_colour            brown
_exptl_crystal_description       prism
_cell_formula_units_Z            4
loop_
_atom_site_label
_atom_site_type_symbol
_atom_site_fract_x
_atom_site_fract_y
_atom_site_fract_z
C1 C 0.9293(3) 0.3450(3) 0.94370(18)
C2 C 0.9985(3) 0.3140(3) 0.9460(2)
H1 H 1.0351 0.3285 0.9698
C3 C 1.0064(3) 0.2564(4) 0.9070(2)
H2 H 1.0493 0.2274 0.8996
C4 C 0.9404(3) 0.2503(3) 0.88171(18)
C5 C 0.9165(3) 0.1946(3) 0.84351(19)
C6 C 0.8442(3) 0.1815(3) 0.83431(18)
C7 C 0.8043(3) 0.1156(4) 0.81039(19)
H3 H 0.8232 0.0776 0.7876
C8 C 0.7357(4) 0.1180(4) 0.8263(2)
H4 H 0.6988 0.0803 0.8168
C9 C 0.7257(3) 0.1860(4) 0.8598(2)
C10 C 0.6716(3) 0.2067(4) 0.8912(2)
C11 C 0.6842(3) 0.2757(4) 0.9242(2)
C12 C 0.7421(3) 0.3298(3) 0.9216(2)
C13 C 0.7334(3) 0.3852(4) 0.9601(2)
H5 H 0.7631 0.4315 0.9661
C14 C 0.6749(3) 0.3628(3) 0.98830(19)
C15 C 0.6617(3) 0.3834(3) 1.0388(2)
C16 C 0.6979(3) 0.4360(3) 1.07043(19)
C17 C 0.6936(3) 0.4266(3) 1.12351(19)
H6 H 0.6680 0.3840 1.1392
C18 C 0.7297(3) 0.4843(3) 1.1475(2)
H7 H 0.7367 0.4871 1.1825
C19 C 0.7564(3) 0.5419(3) 1.11289(18)
C20 C 0.7730(3) 0.6209(3) 1.12286(19)
C21 C 0.7861(3) 0.6786(3) 1.08505(19)
C22 C 0.8023(3) 0.7607(4) 1.0845(2)
H8 H 0.8035 0.7960 1.1124
C23 C 0.8168(3) 0.7824(3) 1.03575(19)
H9 H 0.8291 0.8354 1.0247
C24 C 0.8103(3) 0.7145(3) 1.00621(19)
C25 C 0.8321(3) 0.6953(3) 0.95711(18)
C26 C 0.8466(3) 0.6162(3) 0.94421(19)
C27 C 0.8777(3) 0.5866(4) 0.90000(19)
H10 H 0.8842 0.6174 0.8706
C28 C 0.8966(3) 0.5079(3) 0.90619(19)
H11 H 0.9190 0.4750 0.8819
C29 C 0.8776(3) 0.4808(3) 0.95571(19)
C30 C 0.8968(3) 0.4079(3) 0.97524(18)
C31 C 0.9719(3) 0.1448(4) 0.81830(19)
C32 C 0.9847(4) 0.1529(4) 0.7677(2)
C33 C 1.0349(4) 0.1061(4) 0.7434(2)
C34 C 1.0746(4) 0.0483(4) 0.7696(2)
C35 C 1.0634(4) 0.0383(4) 0.8191(2)
C36 C 1.0121(3) 0.0855(4) 0.8426(2)
C37 C 0.6044(4) 0.1563(5) 0.8960(3)
C38 C 0.6045(4) 0.0845(5) 0.9204(3)
C39 C 0.5405(6) 0.0397(6) 0.9276(4)
C40 C 0.4777(6) 0.0688(7) 0.9113(5)
C41 C 0.4747(5) 0.1395(7) 0.8857(5)
C42 C 0.5377(4) 0.1847(5) 0.8780(4)
C43 C 0.6073(3) 0.3300(3) 1.0637(2)
C44 C 0.6229(4) 0.2512(4) 1.0782(2)
C45 C 0.5726(4) 0.2037(4) 1.1026(3)
C46 C 0.5047(4) 0.2339(4) 1.1114(3)
C47 C 0.4877(4) 0.3121(4) 1.0978(2)
C48 C 0.5388(3) 0.3589(4) 1.0744(2)
C49 C 0.7730(3) 0.6503(3) 1.17535(19)
C50 C 0.8351(4) 0.6745(4) 1.2005(2)
C51 C 0.8340(4) 0.7035(4) 1.2487(2)
C52 C 0.7708(4) 0.7094(4) 1.2729(2)
C53 C 0.7063(4) 0.6861(4) 1.2486(2)
C54 C 0.7090(4) 0.6590(4) 1.2006(2)
C55 C 0.8487(3) 0.7635(3) 0.92338(19)
C56 C 0.9183(3) 0.7796(4) 0.9093(2)
C57 C 0.9357(4) 0.8447(4) 0.8792(2)
C58 C 0.8818(4) 0.8962(4) 0.8637(2)
C59 C 0.8125(4) 0.8842(4) 0.8776(2)
C60 C 0.7967(4) 0.8180(4) 0.9071(2)
C61 C 0.8913(3) 0.3892(3) 1.02924(18)
C62 C 0.9144(3) 0.4428(3) 1.0661(2)
C63 C 0.9119(3) 0.4251(4) 1.1156(2)
C64 C 0.8853(4) 0.3508(4) 1.1305(2)
C65 C 0.8632(3) 0.2947(4) 1.0958(2)
C66 C 0.8652(3) 0.3141(3) 1.04603(19)
F1 F 0.9475(2) 0.2085(2) 0.74104(12)
F2 F 1.0451(3) 0.1153(3) 0.69466(13)
F3 F 1.1240(2) 0.0031(2) 0.74628(16)
F4 F 1.1008(2) -0.0192(2) 0.84445(15)
F5 F 1.0014(2) 0.0714(2) 0.89103(12)
F6 F 0.6661(3) 0.0539(3) 0.9386(2)
F7 F 0.5425(4) -0.0306(4) 0.9525(3)
F8 F 0.4144(3) 0.0303(4) 0.9184(3)
F9 F 0.4106(3) 0.1714(4) 0.8681(4)
F10 F 0.5338(3) 0.2564(3) 0.8542(3)
F11 F 0.6884(2) 0.2202(2) 1.06865(15)
F12 F 0.5899(3) 0.1286(3) 1.1171(2)
F13 F 0.4565(3) 0.1877(3) 1.13469(17)
F14 F 0.4218(2) 0.3410(3) 1.10693(17)
F15 F 0.5199(2) 0.4352(2) 1.06123(15)
F16 F 0.8989(2) 0.6684(3) 1.17806(13)
F17 F 0.8963(2) 0.7253(3) 1.27221(13)
F18 F 0.7698(3) 0.7374(3) 1.31930(15)
F19 F 0.6435(3) 0.6896(3) 1.27229(16)
F20 F 0.6457(2) 0.6386(2) 1.17778(14)
F21 F 0.9729(2) 0.7314(2) 0.92498(15)
F22 F 1.0031(2) 0.8569(3) 0.86562(17)
F23 F 0.8978(3) 0.9598(2) 0.83431(15)
F24 F 0.7603(3) 0.9354(3) 0.86305(18)
F25 F 0.7279(2) 0.8059(3) 0.91975(16)
F26 F 0.94214(19) 0.51555(19) 1.05353(12)
F27 F 0.9345(2) 0.4800(2) 1.14971(12)
F28 F 0.8832(3) 0.3335(3) 1.17923(12)
F29 F 0.8399(2) 0.2208(2) 1.11003(13)
F30 F 0.84225(19) 0.25800(19) 1.01323(11)
N1 N 0.8917(2) 0.3057(3) 0.90446(15)
N2 N 0.7929(3) 0.2277(3) 0.85984(15)
N3 N 0.6440(3) 0.2960(3) 0.96412(17)
H12 H 0.6044 0.2706 0.9732
N4 N 0.7457(2) 0.5059(3) 1.06349(15)
N5 N 0.7888(2) 0.6498(3) 1.03666(15)
N6 N 0.8397(2) 0.5477(3) 0.97841(14)
P1 P 0.80910(8) 0.32283(9) 0.87766(5)
O1 O 0.8131(2) 0.3847(2) 0.83907(13)
P2 P 0.76083(8) 0.56127(9) 1.01182(5)
O2 O 0.6973(2) 0.5631(2) 0.97878(13)
C67 C 0.7419(8) 0.9843(10) 0.1318(8)
H13 H 0.7377 0.9474 0.1033
H14 H 0.7893 1.0114 0.1317
H15 H 0.7034 1.0253 0.1296
C68 C 0.7351(8) 0.9379(7) 0.1776(6)
C69 C 0.6792(9) 0.9659(11) 0.2125(6)
H16 H 0.6925 1.0198 0.2255
H17 H 0.6762 0.9273 0.2401
H18 H 0.6322 0.9692 0.1951
O3 O 0.7717(5) 0.8807(4) 0.1854(3)
C70 C 0.5560(5) 0.6447(5) 0.0489(3)
H19 H 0.5083 0.6322 0.0622
H20 H 0.5922 0.6460 0.0760
H21 H 0.5692 0.6028 0.0249
C71 C 0.5534(4) 0.7264(4) 0.0236(3)
C72 C 0.6231(4) 0.7610(6) 0.0075(3)
H22 H 0.6162 0.8184 -0.0014
H23 H 0.6401 0.7308 -0.0213
H24 H 0.6591 0.7569 0.0347
O4 O 0.4969(2) 0.7620(3) 0.01583(17)
C73 C 0.4034(4) 0.5393(5) 0.1385(3)
H25 H 0.4497 0.5578 0.1529
H26 H 0.3731 0.5865 0.1301
H27 H 0.4123 0.5077 0.1083
C74 C 0.3650(4) 0.4863(4) 0.1756(2)
C75 C 0.2956(4) 0.4479(4) 0.1590(3)
H28 H 0.2808 0.4078 0.1838
H29 H 0.3023 0.4206 0.1271
H30 H 0.2581 0.4897 0.1553
O5 O 0.3911(3) 0.4773(4) 0.21713(18)
C76 C 0.1601(5) 0.9140(5) 0.0460(3)
H31 H 0.1966 0.8832 0.0279
H32 H 0.1260 0.8761 0.0610
H33 H 0.1840 0.9466 0.0720
C77 C 0.1210(5) 0.9674(5) 0.0117(3)
C78 C 0.0672(8) 0.9236(6) -0.0238(4)
H34 H 0.0405 0.9640 -0.0437
H35 H 0.0331 0.8916 -0.0045
H36 H 0.0939 0.8874 -0.0458
O6 O 0.1240(5) 1.0397(4) 0.0141(2)
C79 C 0.4703(9) 0.0841(7) 0.2487(5)
H37 H 0.5083 0.1004 0.2260
H38 H 0.4919 0.0729 0.2815
H39 H 0.4347 0.1281 0.2513
C80 C 0.4345(5) 0.0114(6) 0.2299(3)
C81 C 0.4074(9) -0.0391(10) 0.2697(4)
H40 H 0.3557 -0.0282 0.2739
H41 H 0.4340 -0.0266 0.3006
H42 H 0.4142 -0.0966 0.2613
O7 O 0.4240(7) -0.0055(6) 0.1888(3)
C82 C 0.2898(9) 0.2137(9) 0.2118(5)
H43 H 0.3155 0.2658 0.2148
H44 H 0.2972 0.1908 0.1787
H45 H 0.3086 0.1758 0.2370
C83 C 0.2036(7) 0.2283(7) 0.2198(4)
C84 C 0.1640(8) 0.1855(8) 0.2550(3)
H46 H 0.1789 0.2032 0.2884
H47 H 0.1732 0.1270 0.2515
H48 H 0.1122 0.1962 0.2497
O8 O 0.1669(6) 0.2861(4) 0.1957(2)
loop_
_geom_bond_atom_site_label_1
_geom_bond_atom_site_label_2
_geom_bond_site_symmetry_1
_geom_bond_site_symmetry_2
C1 C2 1_555 1_555
C2 H1 1_555 1_555
C3 C2 1_555 1_555
H2 C3 1_555 1_555
C4 C3 1_555 1_555
C5 C4 1_555 1_555
C6 C5 1_555 1_555
C7 C6 1_555 1_555
H3 C7 1_555 1_555
C8 C7 1_555 1_555
H4 C8 1_555 1_555
C9 C8 1_555 1_555
C10 C9 1_555 1_555
C11 C10 1_555 1_555
C12 C11 1_555 1_555
C13 C12 1_555 1_555
H5 C13 1_555 1_555
C14 C13 1_555 1_555
C15 C14 1_555 1_555
C16 C15 1_555 1_555
C17 C16 1_555 1_555
H6 C17 1_555 1_555
C18 C17 1_555 1_555
H7 C18 1_555 1_555
C19 C18 1_555 1_555
C20 C19 1_555 1_555
C21 C20 1_555 1_555
C22 C21 1_555 1_555
H8 C22 1_555 1_555
C23 C22 1_555 1_555
H9 C23 1_555 1_555
C24 C23 1_555 1_555
C25 C24 1_555 1_555
C26 C25 1_555 1_555
C27 C26 1_555 1_555
H10 C27 1_555 1_555
C28 C27 1_555 1_555
H11 C28 1_555 1_555
C29 C28 1_555 1_555
C30 C1 1_555 1_555
C31 C5 1_555 1_555
C32 C31 1_555 1_555
C33 C32 1_555 1_555
C34 C33 1_555 1_555
C35 C34 1_555 1_555
C36 C31 1_555 1_555
C37 C10 1_555 1_555
C38 C37 1_555 1_555
C39 C38 1_555 1_555
C40 C39 1_555 1_555
C41 C40 1_555 1_555
C42 C37 1_555 1_555
C43 C15 1_555 1_555
C44 C43 1_555 1_555
C45 C44 1_555 1_555
C46 C45 1_555 1_555
C47 C46 1_555 1_555
C48 C43 1_555 1_555
C49 C20 1_555 1_555
C50 C49 1_555 1_555
C51 C50 1_555 1_555
C52 C51 1_555 1_555
C53 C52 1_555 1_555
C54 C49 1_555 1_555
C55 C25 1_555 1_555
C56 C55 1_555 1_555
C57 C56 1_555 1_555
C58 C57 1_555 1_555
C59 C58 1_555 1_555
C60 C55 1_555 1_555
C61 C30 1_555 1_555
C62 C61 1_555 1_555
C63 C62 1_555 1_555
C64 C63 1_555 1_555
C65 C64 1_555 1_555
C66 C61 1_555 1_555
F1 C32 1_555 1_555
F2 C33 1_555 1_555
F3 C34 1_555 1_555
F4 C35 1_555 1_555
F5 C36 1_555 1_555
F6 C38 1_555 1_555
F7 C39 1_555 1_555
F8 C40 1_555 1_555
F9 C41 1_555 1_555
F10 C42 1_555 1_555
F11 C44 1_555 1_555
F12 C45 1_555 1_555
F13 C46 1_555 1_555
F14 C47 1_555 1_555
F15 C48 1_555 1_555
F16 C50 1_555 1_555
F17 C51 1_555 1_555
F18 C52 1_555 1_555
F19 C53 1_555 1_555
F20 C54 1_555 1_555
F21 C56 1_555 1_555
F22 C57 1_555 1_555
F23 C58 1_555 1_555
F24 C59 1_555 1_555
F25 C60 1_555 1_555
F26 C62 1_555 1_555
F27 C63 1_555 1_555
F28 C64 1_555 1_555
F29 C65 1_555 1_555
F30 C66 1_555 1_555
N1 C1 1_555 1_555
N2 C6 1_555 1_555
N3 C11 1_555 1_555
H12 N3 1_555 1_555
N4 C16 1_555 1_555
N5 C21 1_555 1_555
N6 C26 1_555 1_555
P1 C12 1_555 1_555
O1 P1 1_555 1_555
P2 N4 1_555 1_555
O2 P2 1_555 1_555
C67 H13 1_555 1_555
H14 C67 1_555 1_555
H15 C67 1_555 1_555
C68 C67 1_555 1_555
C69 C68 1_555 1_555
H16 C69 1_555 1_555
H17 C69 1_555 1_555
H18 C69 1_555 1_555
O3 C68 1_555 1_555
C70 H19 1_555 1_555
H20 C70 1_555 1_555
H21 C70 1_555 1_555
C71 C70 1_555 1_555
C72 C71 1_555 1_555
H22 C72 1_555 1_555
H23 C72 1_555 1_555
H24 C72 1_555 1_555
O4 C71 1_555 1_555
C73 H25 1_555 1_555
H26 C73 1_555 1_555
H27 C73 1_555 1_555
C74 C73 1_555 1_555
C75 C74 1_555 1_555
H28 C75 1_555 1_555
H29 C75 1_555 1_555
H30 C75 1_555 1_555
O5 C74 1_555 1_555
C76 H31 1_555 1_555
H32 C76 1_555 1_555
H33 C76 1_555 1_555
C77 C76 1_555 1_555
C78 C77 1_555 1_555
H34 C78 1_555 1_555
H35 C78 1_555 1_555
H36 C78 1_555 1_555
O6 C77 1_555 1_555
C79 H37 1_555 1_555
H38 C79 1_555 1_555
H39 C79 1_555 1_555
C80 C79 1_555 1_555
C81 C80 1_555 1_555
H40 C81 1_555 1_555
H41 C81 1_555 1_555
H42 C81 1_555 1_555
O7 C80 1_555 1_555
C82 H43 1_555 1_555
H44 C82 1_555 1_555
H45 C82 1_555 1_555
C83 C82 1_555 1_555
C84 C83 1_555 1_555
H46 C84 1_555 1_555
H47 C84 1_555 1_555
H48 C84 1_555 1_555
O8 C83 1_555 1_555
C4 N1 1_555 1_555
C9 N2 1_555 1_555
C14 N3 1_555 1_555
C19 N4 1_555 1_555
C24 N5 1_555 1_555
C29 C30 1_555 1_555
C29 N6 1_555 1_555
C35 C36 1_555 1_555
C41 C42 1_555 1_555
C47 C48 1_555 1_555
C53 C54 1_555 1_555
C59 C60 1_555 1_555
C65 C66 1_555 1_555
N1 P1 1_555 1_555
N2 P1 1_555 1_555
N5 P2 1_555 1_555
N6 P2 1_555 1_555

#END
