
#######################################################################
#
#                 Cambridge Crystallographic Data Centre
#                                CCDC 
#
#######################################################################
#
# If this CIF has been generated from an entry in the Cambridge 
# Structural Database, then it will include bibliographic, chemical, 
# crystal, experimental, refinement or atomic coordinate data resulting 
# from the CCDC's data processing and validation procedures.
#
#######################################################################

data_YUTHOM
_chemical_formula_moiety         'C12 H12 I2 O4'
_chemical_name_systematic        'dimethyl 3,6-diiodo-4,5-dimethylphthalate'
_symmetry_cell_setting           triclinic
_symmetry_space_group_name_H-M   'P -1'
_symmetry_Int_Tables_number      2
_space_group_name_Hall           '-P 1'
loop_
_symmetry_equiv_pos_site_id
_symmetry_equiv_pos_as_xyz
1 x,y,z
2 -x,-y,-z
_cell_length_a                   7.6238(10)
_cell_length_b                   9.4571(12)
_cell_length_c                   10.8221(14)
_cell_angle_alpha                66.611(10)
_cell_angle_beta                 88.511(12)
_cell_angle_gamma                77.604(11)
_cell_volume                     697.926
_exptl_crystal_colour            colorless
_exptl_crystal_description       block
_cell_formula_units_Z            2
loop_
_atom_site_label
_atom_site_type_symbol
_atom_site_fract_x
_atom_site_fract_y
_atom_site_fract_z
I1 I 0.27054(2) -0.32568(2) 1.041996(19)
I2 I 0.17915(2) 0.49079(2) 0.774725(19)
O1 O 0.0852(3) -0.1348(2) 0.7294(2)
O2 O 0.3268(2) -0.0443(2) 0.63586(19)
O3 O 0.0547(3) 0.2709(2) 0.5580(2)
O4 O 0.3316(3) 0.3171(2) 0.5688(2)
C1 C 0.2496(4) -0.0805(3) 0.9642(3)
C2 C 0.2635(4) -0.0077(3) 1.0526(3)
C3 C 0.2506(4) 0.1572(3) 0.9988(3)
C4 C 0.2264(4) 0.2421(3) 0.8590(3)
C5 C 0.2191(4) 0.1671(3) 0.7719(3)
C6 C 0.2281(4) 0.0049(3) 0.8252(3)
C7 C 0.2039(4) -0.0676(3) 0.7275(3)
C8 C 0.2938(4) -0.0826(4) 0.5220(3)
H1 H 0.2825 -0.1926 0.5553
H2 H 0.3945 -0.0682 0.4635
H3 H 0.1823 -0.0126 0.4707
C9 C 0.1900(4) 0.2579(3) 0.6214(3)
C10 C 0.3070(4) 0.4183(4) 0.4257(3)
H4 H 0.2826 0.3579 0.3751
H5 H 0.4165 0.4572 0.3956
H6 H 0.2053 0.5081 0.4099
C11 C 0.2617(4) 0.2388(3) 1.0925(3)
H7 H 0.2843 0.3440 1.0407
H8 H 0.3600 0.1763 1.1618
H9 H 0.1478 0.2489 1.1358
C12 C 0.2879(4) -0.1013(3) 1.2034(3)
H10 H 0.1702 -0.0957 1.2420
H11 H 0.3642 -0.0568 1.2431
H12 H 0.3451 -0.2118 1.2231
loop_
_geom_bond_atom_site_label_1
_geom_bond_atom_site_label_2
_geom_bond_site_symmetry_1
_geom_bond_site_symmetry_2
I1 C1 1_555 1_555
I2 C4 1_555 1_555
O1 C7 1_555 1_555
O2 C7 1_555 1_555
O3 C9 1_555 1_555
O4 C9 1_555 1_555
C1 C2 1_555 1_555
C2 C3 1_555 1_555
C3 C4 1_555 1_555
C4 C5 1_555 1_555
C5 C6 1_555 1_555
C6 C1 1_555 1_555
C7 C6 1_555 1_555
C8 O2 1_555 1_555
H1 C8 1_555 1_555
H2 C8 1_555 1_555
H3 C8 1_555 1_555
C9 C5 1_555 1_555
C10 O4 1_555 1_555
H4 C10 1_555 1_555
H5 C10 1_555 1_555
H6 C10 1_555 1_555
C11 C3 1_555 1_555
H7 C11 1_555 1_555
H8 C11 1_555 1_555
H9 C11 1_555 1_555
C12 C2 1_555 1_555
H10 C12 1_555 1_555
H11 C12 1_555 1_555
H12 C12 1_555 1_555

#END
