
#######################################################################
#
#                 Cambridge Crystallographic Data Centre
#                                CCDC 
#
#######################################################################
#
# If this CIF has been generated from an entry in the Cambridge 
# Structural Database, then it will include bibliographic, chemical, 
# crystal, experimental, refinement or atomic coordinate data resulting 
# from the CCDC's data processing and validation procedures.
#
#######################################################################

data_YUTJEE
_chemical_formula_moiety         'C16 H20 I2 O4'
_chemical_name_systematic        'dimethyl 3,6-diiodo-4,5-dipropylphthalate'
_symmetry_cell_setting           triclinic
_symmetry_space_group_name_H-M   'P -1'
_symmetry_Int_Tables_number      2
_space_group_name_Hall           '-P 1'
loop_
_symmetry_equiv_pos_site_id
_symmetry_equiv_pos_as_xyz
1 x,y,z
2 -x,-y,-z
_cell_length_a                   9.4122(19)
_cell_length_b                   10.626(2)
_cell_length_c                   11.353(2)
_cell_angle_alpha                97.90(3)
_cell_angle_beta                 113.83(3)
_cell_angle_gamma                110.22(3)
_cell_volume                     922.473
_exptl_crystal_colour            colorless
_exptl_crystal_description       prism
_cell_formula_units_Z            2
loop_
_atom_site_label
_atom_site_type_symbol
_atom_site_fract_x
_atom_site_fract_y
_atom_site_fract_z
I1 I 0.04253(5) 0.71445(4) 1.11243(3)
I2 I 0.21174(5) 1.09078(4) 0.68945(3)
O1 O -0.2733(5) 0.5985(4) 0.7885(4)
O2 O -0.1145(5) 0.5229(4) 0.7222(4)
O3 O -0.1856(5) 0.7362(5) 0.5381(4)
O4 O 0.0666(5) 0.7257(4) 0.5857(4)
C1 C -0.4153(8) 0.4535(6) 0.7200(7)
H1 H -0.4523 0.4262 0.6225
H2 H -0.5131 0.4502 0.7331
H3 H -0.3749 0.3877 0.7588
C2 C -0.1311(7) 0.6158(5) 0.7800(5)
C3 C 0.0031(6) 0.7662(5) 0.8481(5)
C4 C 0.0846(6) 0.8378(5) 0.9889(5)
C5 C 0.2016(6) 0.9820(5) 1.0479(5)
C6 C 0.2449(6) 1.0563(5) 0.9628(5)
C7 C 0.1671(6) 0.9837(5) 0.8238(5)
C8 C 0.0491(6) 0.8408(5) 0.7675(5)
C9 C -0.0387(7) 0.7632(5) 0.6178(5)
C10 C -0.0092(10) 0.6450(7) 0.4442(6)
H4 H -0.1182 0.5629 0.4170
H5 H 0.0712 0.6124 0.4323
H6 H -0.0317 0.7050 0.3876
C11 C 0.3768(6) 1.2097(5) 1.0200(5)
H7 H 0.3892 1.2525 1.1088
H8 H 0.3324 1.2603 0.9580
C12 C 0.5567(7) 1.2326(6) 1.0398(6)
H9 H 0.6086 1.1926 1.1103
H10 H 0.5445 1.1820 0.9537
C13 C 0.6752(8) 1.3887(7) 1.0825(7)
H11 H 0.6328 1.4251 1.0073
H12 H 0.7927 1.4014 1.1061
H13 H 0.6767 1.4405 1.1618
C14 C 0.2763(7) 1.0581(6) 1.1976(5)
H14 H 0.1919 1.0108 1.2271
H15 H 0.2906 1.1565 1.2089
C15 C 0.4501(8) 1.0627(6) 1.2910(5)
H16 H 0.4347 0.9651 1.2880
H17 H 0.5330 1.1028 1.2581
C16 C 0.5235(11) 1.1518(9) 1.4367(6)
H18 H 0.5443 1.2497 1.4407
H19 H 0.6329 1.1502 1.4946
H20 H 0.4408 1.1132 1.4690
loop_
_geom_bond_atom_site_label_1
_geom_bond_atom_site_label_2
_geom_bond_site_symmetry_1
_geom_bond_site_symmetry_2
I1 C4 1_555 1_555
I2 C7 1_555 1_555
O1 C1 1_555 1_555
O2 C2 1_555 1_555
O3 C9 1_555 1_555
O4 C9 1_555 1_555
C1 H1 1_555 1_555
H2 C1 1_555 1_555
H3 C1 1_555 1_555
C2 O1 1_555 1_555
C3 C2 1_555 1_555
C4 C3 1_555 1_555
C5 C4 1_555 1_555
C6 C5 1_555 1_555
C7 C6 1_555 1_555
C8 C3 1_555 1_555
C9 C8 1_555 1_555
C10 O4 1_555 1_555
H4 C10 1_555 1_555
H5 C10 1_555 1_555
H6 C10 1_555 1_555
C11 C6 1_555 1_555
H7 C11 1_555 1_555
H8 C11 1_555 1_555
C12 C11 1_555 1_555
H9 C12 1_555 1_555
H10 C12 1_555 1_555
C13 C12 1_555 1_555
H11 C13 1_555 1_555
H12 C13 1_555 1_555
H13 C13 1_555 1_555
C14 C5 1_555 1_555
H14 C14 1_555 1_555
H15 C14 1_555 1_555
C15 C14 1_555 1_555
H16 C15 1_555 1_555
H17 C15 1_555 1_555
C16 C15 1_555 1_555
H18 C16 1_555 1_555
H19 C16 1_555 1_555
H20 C16 1_555 1_555
C7 C8 1_555 1_555

#END
