
#######################################################################
#
#                 Cambridge Crystallographic Data Centre
#                                CCDC 
#
#######################################################################
#
# If this CIF has been generated from an entry in the Cambridge 
# Structural Database, then it will include bibliographic, chemical, 
# crystal, experimental, refinement or atomic coordinate data resulting 
# from the CCDC's data processing and validation procedures.
#
#######################################################################

data_YUTKOP
_chemical_formula_moiety         'C4 N10 O6 2-,2(C1 H5 N6 1+)'
_chemical_name_systematic        
'bis(1-amino-1,4-dihydro-5H-tetrazol-5-iminium) (diazene-1,2-diyldi-1,2,5-oxadiazole-4,3-diyl)bis(nitroazanide)'
_symmetry_cell_setting           monoclinic
_symmetry_space_group_name_H-M   'P 21/c'
_symmetry_Int_Tables_number      14
_space_group_name_Hall           '-P 2ybc'
loop_
_symmetry_equiv_pos_site_id
_symmetry_equiv_pos_as_xyz
1 x,y,z
2 -x,1/2+y,1/2-z
3 -x,-y,-z
4 x,1/2-y,1/2+z
_cell_length_a                   10.739(2)
_cell_length_b                   6.4765(12)
_cell_length_c                   14.138(3)
_cell_angle_alpha                90
_cell_angle_beta                 108.787(3)
_cell_angle_gamma                90
_cell_volume                     930.925
_cell_formula_units_Z            2
loop_
_atom_site_label
_atom_site_type_symbol
_atom_site_fract_x
_atom_site_fract_y
_atom_site_fract_z
C1 C -0.02920(13) 0.02679(19) 0.70407(10)
C2 C -0.06583(14) 0.0161(2) 0.59759(10)
N1 N 0.12765(11) 0.03520(18) 0.85884(8)
N2 N 0.10078(11) 0.02453(18) 0.76096(8)
N3 N 0.02545(11) 0.00057(19) 0.54582(8)
N4 N -0.13644(12) 0.03878(19) 0.72831(9)
N5 N -0.19255(12) 0.0204(2) 0.55850(10)
O1 O 0.04210(11) 0.0444(2) 0.89977(8)
O2 O 0.24731(10) 0.03483(19) 0.90860(8)
O3 O -0.23874(10) 0.03458(18) 0.63721(8)
C1B C 0.02920(13) -0.02679(19) 0.29593(10)
C2B C 0.06583(14) -0.0161(2) 0.40241(10)
N1B N -0.12765(11) -0.03520(18) 0.14116(8)
N2B N -0.10078(11) -0.02453(18) 0.23904(8)
N3B N -0.02545(11) -0.00057(19) 0.45418(8)
N4B N 0.13644(12) -0.03878(19) 0.27169(9)
N5B N 0.19255(12) -0.0204(2) 0.44150(10)
O1B O -0.04210(11) -0.0444(2) 0.10023(8)
O2B O -0.24731(10) -0.03483(19) 0.09140(8)
O3B O 0.23874(10) -0.03458(18) 0.36279(8)
C3 C 0.32622(11) 0.7718(2) 0.63849(8)
N6 N 0.31206(11) 0.9236(2) 0.69660(8)
H1 H 0.2541 0.9269 0.7267
N7 N 0.25817(12) 0.6039(2) 0.61152(9)
H2 H 0.1927 0.5793 0.6323
H3 H 0.2786 0.5172 0.5728
N8 N 0.42847(10) 0.8301(2) 0.61063(8)
N9 N 0.48092(13) 0.7145(3) 0.55097(11)
N10 N 0.40209(14) 1.0735(3) 0.70180(12)
N11 N 0.47239(14) 1.0186(2) 0.64930(12)
H4 H 0.566(2) 0.693(3) 0.5804(12)
H5 H 0.453(3) 0.767(4) 0.4888(18)
loop_
_geom_bond_atom_site_label_1
_geom_bond_atom_site_label_2
_geom_bond_site_symmetry_1
_geom_bond_site_symmetry_2
C1 C2 1_555 1_555
C2 N3 1_555 1_555
N1 N2 1_555 1_555
N2 C1 1_555 1_555
N3 N3B 1_555 1_555
N4 C1 1_555 1_555
N5 C2 1_555 1_555
O1 N1 1_555 1_555
O2 N1 1_555 1_555
O3 N4 1_555 1_555
C3 N6 1_555 1_555
N6 H1 1_555 1_555
N7 C3 1_555 1_555
H2 N7 1_555 1_555
H3 N7 1_555 1_555
N8 C3 1_555 1_555
N9 N8 1_555 1_555
N10 N6 1_555 1_555
N11 N8 1_555 1_555
H4 N9 1_555 1_555
H5 N9 1_555 1_555
C1B C2B 1_555 1_555
C2B N3B 1_555 1_555
N1B N2B 1_555 1_555
N2B C1B 1_555 1_555
N4B C1B 1_555 1_555
N5B C2B 1_555 1_555
O1B N1B 1_555 1_555
O2B N1B 1_555 1_555
O3B N4B 1_555 1_555
N5 O3 1_555 1_555
N10 N11 1_555 1_555
N5B O3B 1_555 1_555

#END
