
#######################################################################
#
#                 Cambridge Crystallographic Data Centre
#                                CCDC 
#
#######################################################################
#
# If this CIF has been generated from an entry in the Cambridge 
# Structural Database, then it will include bibliographic, chemical, 
# crystal, experimental, refinement or atomic coordinate data resulting 
# from the CCDC's data processing and validation procedures.
#
#######################################################################

data_YUVGIF01
_chemical_formula_moiety         'C48 H72 Si6'
_chemical_name_systematic        
2,2,4,5,7,7,9,9,11,12,14,14,16,16,18,19,21,21-Octadecamethyl-2,7,9,14,16,21-hexasila-1,8,15(1,4)-tribenzena-cyclohenicosaphane-3,5,10,12,17,19-hexaene
_symmetry_cell_setting           monoclinic
_symmetry_space_group_name_H-M   'P 21/c'
_symmetry_Int_Tables_number      14
_space_group_name_Hall           '-P 2ybc'
loop_
_symmetry_equiv_pos_site_id
_symmetry_equiv_pos_as_xyz
1 x,y,z
2 -x,1/2+y,1/2-z
3 -x,-y,-z
4 x,1/2-y,1/2+z
_cell_length_a                   7.3408(13)
_cell_length_b                   10.9142(23)
_cell_length_c                   31.789(6)
_cell_angle_alpha                90
_cell_angle_beta                 93.79(15)
_cell_angle_gamma                90
_cell_volume                     2541.33
_exptl_crystal_colour            colorless
_exptl_crystal_description       needles
_cell_formula_units_Z            2
_exptl_crystal_recrystallization_method acetonitrile
loop_
_atom_site_label
_atom_site_type_symbol
_atom_site_fract_x
_atom_site_fract_y
_atom_site_fract_z
Si1 Si 0.4899(5) -0.1057(3) 0.1972(1)
Si2 Si 0.7227(5) -0.2355(3) -0.0041(1)
Si3 Si 0.0131(5) -0.4092(4) -0.1429(1)
C1 C 0.568(2) -0.147(2) 0.1405(6)
C2 C 0.746(3) -0.132(2) 0.1302(7)
C3 C 0.808(2) -0.150(2) 0.0890(6)
C4 C 0.671(2) -0.194(2) 0.0576(5)
C5 C 0.487(3) -0.211(2) 0.0663(6)
C6 C 0.417(2) -0.190(2) 0.1062(5)
C7 C 0.578(2) -0.324(2) -0.0303(5)
C8 C 0.420(2) -0.279(2) -0.0504(5)
C9 C 0.303(2) -0.361(2) -0.0805(5)
C10 C 0.163(2) -0.320(2) -0.1017(6)
C11 C 0.361(2) -0.145(2) -0.0428(6)
C12 C 0.353(3) -0.493(2) -0.0817(7)
C13 C -0.142(2) -0.254(2) -0.1642(5)
C14 C -0.061(2) -0.160(2) -0.1875(6)
C15 C -0.175(3) -0.049(2) -0.1981(6)
C16 C 0.360(2) 0.042(2) 0.1885(6)
C17 C 0.435(2) 0.144(2) 0.1666(6)
C18 C -0.329(3) -0.251(2) -0.1551(6)
C19 C 0.639(3) -0.127(2) 0.1533(7)
C20 C 0.542(2) -0.156(2) 0.1139(6)
C21 C 0.668(2) -0.168(2) 0.0775(6)
C22 C 0.589(2) -0.206(2) 0.0390(6)
C23 C 0.330(3) -0.159(2) 0.1071(6)
C24 C 0.873(3) -0.143(2) 0.0801(7)
C25 C 0.500(2) -0.294(2) -0.0459(5)
C26 C 0.358(2) -0.211(2) -0.0610(6)
C27 C 0.208(2) -0.254(2) -0.0910(6)
C28 C 0.214(2) -0.383(2) -0.1053(6)
C29 C 0.350(2) -0.465(2) -0.0909(6)
C30 C 0.486(3) -0.419(2) -0.0602(7)
C31 C -0.162(2) -0.314(2) -0.1529(6)
C32 C -0.153(2) -0.200(2) -0.1732(6)
C33 C -0.316(2) -0.117(2) -0.1746(6)
C34 C 0.289(3) -0.003(2) 0.1909(6)
C35 C 0.035(3) -0.167(2) -0.1923(7)
C36 C 0.494(3) 0.163(2) 0.1591(6)
C37 C 0.365(2) -0.247(1) 0.2154(4)
C38 C 0.676(2) -0.066(1) 0.2385(4)
C39 C 0.931(2) -0.341(1) 0.0041(5)
C40 C 0.798(2) -0.092(1) -0.0314(4)
C41 C -0.119(2) -0.540(1) -0.1191(4)
C42 C 0.129(2) -0.473(1) -0.1899(4)
C16B C -0.360(2) -0.042(2) -0.1885(6)
Si1B Si -0.4899(5) 0.1057(3) -0.1972(1)
C1B C -0.568(2) 0.147(2) -0.1405(6)
C2B C -0.746(3) 0.132(2) -0.1302(7)
C3B C -0.808(2) 0.150(2) -0.0890(6)
C4B C -0.671(2) 0.194(2) -0.0576(5)
Si2B Si -0.7227(5) 0.2355(3) 0.0041(1)
C7B C -0.578(2) 0.324(2) 0.0303(5)
C8B C -0.420(2) 0.279(2) 0.0504(5)
C9B C -0.303(2) 0.361(2) 0.0805(5)
C10B C -0.163(2) 0.320(2) 0.1017(6)
Si3B Si -0.0131(5) 0.4092(4) 0.1429(1)
C13B C 0.142(2) 0.254(2) 0.1642(5)
C14B C 0.061(2) 0.160(2) 0.1875(6)
C15B C 0.175(3) 0.049(2) 0.1981(6)
C17B C -0.435(2) -0.144(2) -0.1666(6)
C34B C -0.289(3) 0.003(2) -0.1909(6)
C19B C -0.639(3) 0.127(2) -0.1533(7)
C6B C -0.417(2) 0.190(2) -0.1062(5)
C5B C -0.487(3) 0.211(2) -0.0663(6)
C21B C -0.668(2) 0.168(2) -0.0775(6)
C24B C -0.873(3) 0.143(2) -0.0801(7)
C22B C -0.589(2) 0.206(2) -0.0390(6)
C25B C -0.500(2) 0.294(2) 0.0459(5)
C30B C -0.486(3) 0.419(2) 0.0602(7)
C11B C -0.361(2) 0.145(2) 0.0428(6)
C26B C -0.358(2) 0.211(2) 0.0610(6)
C27B C -0.208(2) 0.254(2) 0.0910(6)
C12B C -0.353(3) 0.493(2) 0.0817(7)
C28B C -0.214(2) 0.383(2) 0.1053(6)
C31B C 0.162(2) 0.314(2) 0.1529(6)
C18B C 0.329(3) 0.251(2) 0.1551(6)
C33B C 0.316(2) 0.117(2) 0.1746(6)
C32B C 0.153(2) 0.200(2) 0.1732(6)
C35B C -0.035(3) 0.167(2) 0.1923(7)
C41B C 0.119(2) 0.540(1) 0.1191(4)
C42B C -0.129(2) 0.473(1) 0.1899(4)
C29B C -0.350(2) 0.465(2) 0.0909(6)
C39B C -0.931(2) 0.341(1) -0.0041(5)
C40B C -0.798(2) 0.092(1) 0.0314(4)
C20B C -0.542(2) 0.156(2) -0.1139(6)
C23B C -0.330(3) 0.159(2) -0.1071(6)
C37B C -0.365(2) 0.247(1) -0.2154(4)
C38B C -0.676(2) 0.066(1) -0.2385(4)
C36B C -0.494(3) -0.163(2) -0.1591(6)
loop_
_geom_bond_atom_site_label_1
_geom_bond_atom_site_label_2
_geom_bond_site_symmetry_1
_geom_bond_site_symmetry_2
Si1 C1 1_555 1_555
Si2 C4 1_555 1_555
Si3 C10 1_555 1_555
C1 C2 1_555 1_555
C2 C3 1_555 1_555
C3 C4 1_555 1_555
C4 C5 1_555 1_555
C5 C6 1_555 1_555
C6 C1 1_555 1_555
C7 Si2 1_555 1_555
C8 C7 1_555 1_555
C9 C8 1_555 1_555
C10 C9 1_555 1_555
C11 C8 1_555 1_555
C12 C9 1_555 1_555
C13 Si3 1_555 1_555
C14 C13 1_555 1_555
C15 C14 1_555 1_555
C16 Si1 1_555 1_555
C17 C16 1_555 1_555
C18 C13 1_555 1_555
C19 Si1 1_555 1_555
C20 C1 1_555 1_555
C21 C3 1_555 1_555
C22 Si2 1_555 1_555
C23 C6 1_555 1_555
C24 C3 1_555 1_555
C25 Si2 1_555 1_555
C26 C8 1_555 1_555
C27 C9 1_555 1_555
C28 Si3 1_555 1_555
C29 C9 1_555 1_555
C30 C7 1_555 1_555
C31 Si3 1_555 1_555
C32 C13 1_555 1_555
C33 C15 1_555 1_555
C34 Si1 1_555 1_555
C35 C14 1_555 1_555
C36 C17 1_555 1_555
C37 Si1 1_555 1_555
C38 Si1 1_555 1_555
C39 Si2 1_555 1_555
C40 Si2 1_555 1_555
C41 Si3 1_555 1_555
C42 Si3 1_555 1_555
C16B C15 1_555 1_555
Si1B C16B 1_555 1_555
C1B Si1B 1_555 1_555
C2B C1B 1_555 1_555
C3B C2B 1_555 1_555
C4B C3B 1_555 1_555
Si2B C4B 1_555 1_555
C7B Si2B 1_555 1_555
C8B C7B 1_555 1_555
C9B C8B 1_555 1_555
C10B C9B 1_555 1_555
Si3B C10B 1_555 1_555
C13B Si3B 1_555 1_555
C14B C13B 1_555 1_555
C15B C16 1_555 1_555
C17B C18 1_555 1_555
C34B C15 1_555 1_555
C19B Si1B 1_555 1_555
C6B C1B 1_555 1_555
C5B C4B 1_555 1_555
C21B C3B 1_555 1_555
C24B C3B 1_555 1_555
C22B C4B 1_555 1_555
C25B Si2B 1_555 1_555
C30B C7B 1_555 1_555
C11B C8B 1_555 1_555
C26B C8B 1_555 1_555
C27B C9B 1_555 1_555
C12B C9B 1_555 1_555
C28B C9B 1_555 1_555
C31B Si3B 1_555 1_555
C18B C17 1_555 1_555
C33B C16 1_555 1_555
C32B C13B 1_555 1_555
C35B C14B 1_555 1_555
C41B Si3B 1_555 1_555
C42B Si3B 1_555 1_555
C29B C9B 1_555 1_555
C39B Si2B 1_555 1_555
C40B Si2B 1_555 1_555
C20B C1B 1_555 1_555
C23B C6B 1_555 1_555
C37B Si1B 1_555 1_555
C38B Si1B 1_555 1_555
C36B C18 1_555 1_555
C1 C19 1_555 1_555
C2 C20 1_555 1_555
C2 C19 1_555 1_555
C4 C21 1_555 1_555
C4 C22 1_555 1_555
C4 C24 1_555 1_555
C5 C20 1_555 1_555
C5 C22 1_555 1_555
C5 C21 1_555 1_555
C6 C20 1_555 1_555
C7 C25 1_555 1_555
C8 C30 1_555 1_555
C8 C25 1_555 1_555
C9 C28 1_555 1_555
C9 C30 1_555 1_555
C10 C28 1_555 1_555
C10 C27 1_555 1_555
C11 C26 1_555 1_555
C12 C28 1_555 1_555
C12 C29 1_555 1_555
C12 C30 1_555 1_555
C13 C31 1_555 1_555
C14 C32 1_555 1_555
C16 C34 1_555 1_555
C17 C33B 1_555 1_555
C18 C31 1_555 1_555
C18 C32 1_555 1_555
C18 C33 1_555 1_555
C19 C20 1_555 1_555
C20 C23 1_555 1_555
C20 C21 1_555 1_555
C21 C22 1_555 1_555
C21 C24 1_555 1_555
C25 C26 1_555 1_555
C25 C30 1_555 1_555
C26 C27 1_555 1_555
C27 C28 1_555 1_555
C28 C29 1_555 1_555
C29 C30 1_555 1_555
C31 C32 1_555 1_555
C32 C35 1_555 1_555
C32 C33 1_555 1_555
C33 C16B 1_555 1_555
C33 C34B 1_555 1_555
C33 C17B 1_555 1_555
C33 C36B 1_555 1_555
C34 C15B 1_555 1_555
C34 C33B 1_555 1_555
C36 C18B 1_555 1_555
C36 C33B 1_555 1_555
C16B C17B 1_555 1_555
C16B C34B 1_555 1_555
Si1B C34B 1_555 1_555
C1B C19B 1_555 1_555
C2B C20B 1_555 1_555
C2B C19B 1_555 1_555
C4B C21B 1_555 1_555
C4B C24B 1_555 1_555
Si2B C22B 1_555 1_555
C7B C25B 1_555 1_555
C8B C30B 1_555 1_555
C8B C25B 1_555 1_555
C9B C30B 1_555 1_555
C10B C28B 1_555 1_555
C10B C27B 1_555 1_555
Si3B C28B 1_555 1_555
C13B C18B 1_555 1_555
C13B C31B 1_555 1_555
C14B C15B 1_555 1_555
C14B C32B 1_555 1_555
C15B C33B 1_555 1_555
C17B C36B 1_555 1_555
C19B C20B 1_555 1_555
C6B C5B 1_555 1_555
C6B C20B 1_555 1_555
C5B C20B 1_555 1_555
C5B C22B 1_555 1_555
C5B C21B 1_555 1_555
C21B C20B 1_555 1_555
C21B C22B 1_555 1_555
C21B C24B 1_555 1_555
C25B C26B 1_555 1_555
C25B C30B 1_555 1_555
C30B C12B 1_555 1_555
C30B C29B 1_555 1_555
C11B C26B 1_555 1_555
C26B C27B 1_555 1_555
C27B C28B 1_555 1_555
C12B C28B 1_555 1_555
C12B C29B 1_555 1_555
C28B C29B 1_555 1_555
C31B C32B 1_555 1_555
C31B C18B 1_555 1_555
C18B C32B 1_555 1_555
C18B C33B 1_555 1_555
C33B C32B 1_555 1_555
C32B C35B 1_555 1_555
C20B C23B 1_555 1_555

#END
