
#######################################################################
#
#                 Cambridge Crystallographic Data Centre
#                                CCDC 
#
#######################################################################
#
# If this CIF has been generated from an entry in the Cambridge 
# Structural Database, then it will include bibliographic, chemical, 
# crystal, experimental, refinement or atomic coordinate data resulting 
# from the CCDC's data processing and validation procedures.
#
#######################################################################

data_YUVJEF
_chemical_formula_moiety         'C15 H18 Br1 F3 O6 S1'
_chemical_name_systematic        
(5-Trifluoromethanesulfonato-O)-2-bromo-6,11,11-trimethyl-10,12,14-trioxatetracyclo-[6.5.1.0^1,6^.0^9,13^]tetradec-4-ene
_symmetry_cell_setting           orthorhombic
_symmetry_space_group_name_H-M   'P 21 21 21'
_symmetry_Int_Tables_number      19
_space_group_name_Hall           'P 2ac 2ab'
loop_
_symmetry_equiv_pos_site_id
_symmetry_equiv_pos_as_xyz
1 x,y,z
2 1/2-x,-y,1/2+z
3 1/2+x,1/2-y,-z
4 -x,1/2+y,1/2-z
_cell_length_a                   6.6611(8)
_cell_length_b                   10.6173(10)
_cell_length_c                   24.981(2)
_cell_angle_alpha                90
_cell_angle_beta                 90
_cell_angle_gamma                90
_cell_volume                     1766.73
_exptl_crystal_colour            colorless
_exptl_crystal_description       needles
_cell_formula_units_Z            4
loop_
_atom_site_label
_atom_site_type_symbol
_atom_site_fract_x
_atom_site_fract_y
_atom_site_fract_z
Br1 Br 0.37336(3) -0.03560(2) 0.268516(9)
S1 S 1.04737(9) -0.35204(6) 0.37958(2)
F1 F 1.0815(3) -0.24970(16) 0.47435(6)
F2 F 0.9010(3) -0.41730(16) 0.47280(6)
F3 F 1.2232(3) -0.43093(17) 0.46548(6)
O1 O 0.5086(2) 0.18995(15) 0.36556(6)
O2 O 0.7799(2) 0.24875(16) 0.41455(6)
O3 O 0.9549(2) 0.06823(15) 0.30457(6)
O4 O 0.8487(3) -0.27412(15) 0.37863(6)
O5 O 1.2142(3) -0.28174(18) 0.36129(7)
O6 O 1.0142(3) -0.47573(17) 0.36087(6)
C1 C 0.5722(4) 0.2772(2) 0.40649(9)
C2 C 0.6753(3) 0.1755(2) 0.33015(9)
H1 H 0.6555 0.2281 0.2974
C3 C 0.7443(3) 0.0407(2) 0.31424(8)
C4 C 0.6646(3) -0.0073(2) 0.26103(9)
H2 H 0.6858 0.0599 0.2335
C5 C 0.7732(4) -0.1265(2) 0.24233(9)
H3 H 0.6905 -0.1691 0.2148
H4 H 0.9021 -0.1024 0.2255
C6 C 0.8136(3) -0.2162(2) 0.28680(9)
H5 H 0.8426 -0.3016 0.2784
C7 C 0.8105(4) -0.1815(2) 0.33733(9)
C8 C 0.7582(3) -0.0556(2) 0.36139(9)
C9 C 0.9411(4) 0.0011(2) 0.39326(9)
H6 H 0.8999 0.0296 0.4294
H7 H 1.0512 -0.0610 0.3967
C10 C 1.0033(4) 0.1120(2) 0.35817(9)
H8 H 1.1473 0.1365 0.3626
C11 C 0.8578(4) 0.2236(2) 0.36227(8)
H9 H 0.9161 0.3012 0.3457
C12 C 0.4580(4) 0.2509(3) 0.45761(9)
H10 H 0.3137 0.2591 0.4509
H11 H 0.4988 0.3113 0.4852
H12 H 0.4877 0.1652 0.4698
C13 C 0.5428(4) 0.4118(2) 0.38723(10)
H13 H 0.6209 0.4253 0.3545
H14 H 0.5884 0.4704 0.4150
H15 H 0.4002 0.4264 0.3798
C14 C 0.5725(4) -0.0747(2) 0.39764(9)
H16 H 0.4558 -0.0955 0.3755
H17 H 0.5458 0.0030 0.4176
H18 H 0.5984 -0.1436 0.4228
C15 C 1.0629(4) -0.3624(3) 0.45321(10)
loop_
_geom_bond_atom_site_label_1
_geom_bond_atom_site_label_2
_geom_bond_site_symmetry_1
_geom_bond_site_symmetry_2
Br1 C4 1_555 1_555
S1 O4 1_555 1_555
F1 C15 1_555 1_555
F2 C15 1_555 1_555
F3 C15 1_555 1_555
O1 C1 1_555 1_555
O2 C1 1_555 1_555
O3 C3 1_555 1_555
O4 C7 1_555 1_555
O5 S1 1_555 1_555
O6 S1 1_555 1_555
C1 C12 1_555 1_555
C2 O1 1_555 1_555
H1 C2 1_555 1_555
C3 C2 1_555 1_555
C4 C3 1_555 1_555
H2 C4 1_555 1_555
C5 C4 1_555 1_555
H3 C5 1_555 1_555
H4 C5 1_555 1_555
C6 C5 1_555 1_555
H5 C6 1_555 1_555
C7 C6 1_555 1_555
C8 C3 1_555 1_555
C9 C8 1_555 1_555
H6 C9 1_555 1_555
H7 C9 1_555 1_555
C10 O3 1_555 1_555
H8 C10 1_555 1_555
C11 O2 1_555 1_555
H9 C11 1_555 1_555
C12 H10 1_555 1_555
H11 C12 1_555 1_555
H12 C12 1_555 1_555
C13 C1 1_555 1_555
H13 C13 1_555 1_555
H14 C13 1_555 1_555
H15 C13 1_555 1_555
C14 C8 1_555 1_555
H16 C14 1_555 1_555
H17 C14 1_555 1_555
H18 C14 1_555 1_555
C15 S1 1_555 1_555
C2 C11 1_555 1_555
C7 C8 1_555 1_555
C9 C10 1_555 1_555
C10 C11 1_555 1_555

#END
