
#######################################################################
#
#                 Cambridge Crystallographic Data Centre
#                                CCDC 
#
#######################################################################
#
# If this CIF has been generated from an entry in the Cambridge 
# Structural Database, then it will include bibliographic, chemical, 
# crystal, experimental, refinement or atomic coordinate data resulting 
# from the CCDC's data processing and validation procedures.
#
#######################################################################

data_YUVWER
_chemical_formula_moiety         'C18 H12 N2 O1'
_chemical_name_systematic        2-(2-Hydroxyphenyl)-1,10-phenanthroline
_symmetry_cell_setting           monoclinic
_symmetry_space_group_name_H-M   'P 21/c'
_symmetry_Int_Tables_number      14
_space_group_name_Hall           '-P 2ybc'
loop_
_symmetry_equiv_pos_site_id
_symmetry_equiv_pos_as_xyz
1 x,y,z
2 -x,1/2+y,1/2-z
3 -x,-y,-z
4 x,1/2-y,1/2+z
_cell_length_a                   12.245(3)
_cell_length_b                   18.990(5)
_cell_length_c                   11.907(3)
_cell_angle_alpha                90
_cell_angle_beta                 102.83(2)
_cell_angle_gamma                90
_cell_volume                     2699.64
_exptl_crystal_colour            orange
_cell_formula_units_Z            8
loop_
_atom_site_label
_atom_site_type_symbol
_atom_site_fract_x
_atom_site_fract_y
_atom_site_fract_z
N1 N -0.1009(3) 0.5058(2) 0.2227(3)
C1 C -0.1823(4) 0.5374(2) 0.2604(3)
C2 C -0.2954(4) 0.5347(2) 0.2054(4)
C3 C -0.3257(4) 0.4966(3) 0.1065(4)
C4 C -0.2439(4) 0.4620(2) 0.0632(4)
C5 C -0.1315(4) 0.4679(2) 0.1235(3)
N2 N 0.0642(3) 0.4393(2) 0.1401(3)
C6 C -0.0430(4) 0.4335(2) 0.0806(3)
C7 C -0.0736(5) 0.3953(2) -0.0238(4)
C8 C 0.0155(6) 0.3643(3) -0.0631(4)
C9 C 0.1222(5) 0.3703(3) -0.0026(4)
C10 C 0.1490(5) 0.4087(2) 0.1024(4)
C11 C 0.2809(5) 0.4603(2) 0.2728(4)
C12 C 0.2622(5) 0.4182(2) 0.1741(4)
C13 C 0.3546(5) 0.3855(3) 0.1434(4)
C14 C 0.4597(6) 0.3949(3) 0.2074(6)
C15 C 0.4774(5) 0.4366(3) 0.3046(6)
C16 C 0.3895(5) 0.4684(3) 0.3370(4)
C17 C -0.2696(5) 0.4219(3) -0.0418(4)
C18 C -0.1873(6) 0.3905(3) -0.0824(4)
O1 O 0.1992(3) 0.4941(2) 0.3103(3)
H1 H -0.1612 0.5641 0.3303
H2 H -0.3499 0.5591 0.2377
H3 H -0.4029 0.4934 0.0669
H4 H -0.0008 0.3378 -0.1335
H5 H 0.1813 0.3482 -0.0309
H6 H 0.3428 0.3565 0.0758
H7 H 0.5219 0.3725 0.1850
H8 H 0.5525 0.4420 0.3495
H9 H 0.4038 0.4977 0.4044
H10 H -0.3462 0.4161 -0.0820
H11 H -0.2055 0.3647 -0.1535
H23 H 0.1324(26) 0.4840(18) 0.2645(27)
N3 N 0.0217(3) 0.3826(2) 0.4851(3)
C19 C -0.0605(4) 0.4138(2) 0.5222(3)
C20 C -0.1736(4) 0.4085(2) 0.4685(4)
C21 C -0.2026(4) 0.3687(2) 0.3713(4)
C22 C -0.1187(4) 0.3357(2) 0.3271(3)
C23 C -0.0079(3) 0.3438(2) 0.3874(3)
N4 N 0.1865(3) 0.3137(2) 0.4070(3)
C24 C 0.0798(4) 0.3086(2) 0.3452(3)
C25 C 0.0534(4) 0.2686(2) 0.2428(3)
C26 C 0.1418(4) 0.2349(2) 0.2077(3)
C27 C 0.2480(4) 0.2402(2) 0.2706(4)
C28 C 0.2699(4) 0.2802(2) 0.3731(3)
C29 C 0.4027(4) 0.3352(2) 0.5412(4)
C30 C 0.3829(4) 0.2892(2) 0.4472(4)
C31 C 0.4767(5) 0.2535(2) 0.4253(4)
C32 C 0.5820(5) 0.2633(3) 0.4918(5)
C33 C 0.5990(4) 0.3093(3) 0.5819(5)
C34 C 0.5104(4) 0.3443(2) 0.6073(4)
C35 C -0.1434(4) 0.2949(2) 0.2219(4)
C36 C -0.0610(4) 0.2640(2) 0.1824(3)
O2 O 0.3209(3) 0.3729(2) 0.5720(2)
H12 H -0.0406 0.4418 0.5909
H13 H -0.2298 0.4319 0.4996
H14 H -0.2798 0.3636 0.3325
H15 H 0.1264 0.2073 0.1384
H16 H 0.3087 0.2164 0.2478
H17 H 0.4649 0.2209 0.3620
H18 H 0.6446 0.2388 0.4741
H19 H 0.6731 0.3164 0.6280
H20 H 0.5214 0.3762 0.6714
H21 H -0.2200 0.2905 0.1806
H22 H -0.0792 0.2375 0.1120
H24 H 0.2534(27) 0.3599(17) 0.5216(27)
loop_
_geom_bond_atom_site_label_1
_geom_bond_atom_site_label_2
_geom_bond_site_symmetry_1
_geom_bond_site_symmetry_2
N1 C1 1_555 1_555
C1 C2 1_555 1_555
C2 C3 1_555 1_555
C3 C4 1_555 1_555
C4 C5 1_555 1_555
C5 N1 1_555 1_555
N2 C6 1_555 1_555
C6 C5 1_555 1_555
C7 C6 1_555 1_555
C8 C7 1_555 1_555
C9 C8 1_555 1_555
C10 N2 1_555 1_555
C11 C12 1_555 1_555
C12 C10 1_555 1_555
C13 C12 1_555 1_555
C14 C13 1_555 1_555
C15 C14 1_555 1_555
C16 C11 1_555 1_555
C17 C4 1_555 1_555
C18 C7 1_555 1_555
O1 C11 1_555 1_555
N3 C19 1_555 1_555
C19 C20 1_555 1_555
C20 C21 1_555 1_555
C21 C22 1_555 1_555
C22 C23 1_555 1_555
C23 N3 1_555 1_555
N4 C24 1_555 1_555
C24 C23 1_555 1_555
C25 C24 1_555 1_555
C26 C25 1_555 1_555
C27 C26 1_555 1_555
C28 N4 1_555 1_555
C29 C30 1_555 1_555
C30 C28 1_555 1_555
C31 C30 1_555 1_555
C32 C31 1_555 1_555
C33 C32 1_555 1_555
C34 C29 1_555 1_555
C35 C22 1_555 1_555
C36 C25 1_555 1_555
O2 C29 1_555 1_555
H1 C1 1_555 1_555
H2 C2 1_555 1_555
H3 C3 1_555 1_555
H4 C8 1_555 1_555
H5 C9 1_555 1_555
H6 C13 1_555 1_555
H7 C14 1_555 1_555
H8 C15 1_555 1_555
H9 C16 1_555 1_555
H10 C17 1_555 1_555
H11 C18 1_555 1_555
H12 C19 1_555 1_555
H13 C20 1_555 1_555
H14 C21 1_555 1_555
H15 C26 1_555 1_555
H16 C27 1_555 1_555
H17 C31 1_555 1_555
H18 C32 1_555 1_555
H19 C33 1_555 1_555
H20 C34 1_555 1_555
H21 C35 1_555 1_555
H22 C36 1_555 1_555
H23 O1 1_555 1_555
H24 O2 1_555 1_555
C9 C10 1_555 1_555
C15 C16 1_555 1_555
C17 C18 1_555 1_555
C27 C28 1_555 1_555
C33 C34 1_555 1_555
C35 C36 1_555 1_555

#END
