
#######################################################################
#
#                 Cambridge Crystallographic Data Centre
#                                CCDC 
#
#######################################################################
#
# If this CIF has been generated from an entry in the Cambridge 
# Structural Database, then it will include bibliographic, chemical, 
# crystal, experimental, refinement or atomic coordinate data resulting 
# from the CCDC's data processing and validation procedures.
#
#######################################################################

data_YUVXAO
_chemical_formula_moiety         'C28 H30 N4 O2'
_chemical_name_systematic        
(N,N'-bis(2-Hydroxybenzyl)-N,N'-bis(2-methylpyridyl)ethylenediamine)
_symmetry_cell_setting           orthorhombic
_symmetry_space_group_name_H-M   'P b c a'
_symmetry_Int_Tables_number      61
_space_group_name_Hall           '-P 2ac 2ab'
loop_
_symmetry_equiv_pos_site_id
_symmetry_equiv_pos_as_xyz
1 x,y,z
2 1/2-x,-y,1/2+z
3 1/2+x,1/2-y,-z
4 -x,1/2+y,1/2-z
5 -x,-y,-z
6 1/2+x,y,1/2-z
7 1/2-x,1/2+y,z
8 x,1/2-y,1/2+z
_cell_length_a                   12.645(4)
_cell_length_b                   17.232(5)
_cell_length_c                   22.319(8)
_cell_angle_alpha                90
_cell_angle_beta                 90
_cell_angle_gamma                90
_cell_volume                     4863.28
_cell_formula_units_Z            8
loop_
_atom_site_label
_atom_site_type_symbol
_atom_site_fract_x
_atom_site_fract_y
_atom_site_fract_z
O1 O 0.2913(4) 0.1055(3) 0.0676(2)
O2 O 0.2059(6) 0.1443(4) 0.3668(3)
N1 N 0.0866(5) 0.0640(4) 0.1283(3)
N2 N 0.1061(5) 0.1725(3) 0.0402(2)
N3 N 0.1901(5) 0.1261(4) 0.2485(3)
N4 N 0.3970(5) 0.2345(4) 0.1761(3)
C1 C -0.0084(7) 0.1030(5) 0.1109(4)
C2 C 0.0048(5) 0.1613(3) 0.0633(2)
C3 C -0.0794(5) 0.2059(3) 0.0422(2)
C4 C -0.0622(5) 0.2618(3) -0.0019(2)
C5 C 0.0391(5) 0.2730(3) -0.0250(2)
C6 C 0.1233(5) 0.2284(3) -0.0039(2)
C7 C 0.1142(8) 0.0026(5) 0.0853(4)
C8 C 0.2265(4) -0.0224(4) 0.0910(3)
C9 C 0.2504(4) -0.0992(4) 0.1054(3)
C10 C 0.3555(4) -0.1222(4) 0.1119(3)
C11 C 0.4368(4) -0.0685(4) 0.1040(3)
C12 C 0.4129(4) 0.0084(4) 0.0896(3)
C13 C 0.3078(4) 0.0314(4) 0.0832(3)
C14 C 0.0738(7) 0.0312(5) 0.1889(4)
C15 C 0.0850(6) 0.0926(5) 0.2384(4)
C16 C 0.2193(7) 0.1824(5) 0.2015(4)
C17 C 0.3153(5) 0.2247(4) 0.2174(3)
C18 C 0.3212(5) 0.2602(4) 0.2734(3)
C19 C 0.4088(5) 0.3055(4) 0.2882(3)
C20 C 0.4905(5) 0.3153(4) 0.2469(3)
C21 C 0.4846(5) 0.2798(4) 0.1909(3)
C22 C 0.2736(6) 0.0701(5) 0.2601(4)
C23 C 0.2544(4) 0.0259(4) 0.3165(2)
C24 C 0.2225(4) 0.0654(4) 0.3680(2)
C25 C 0.2140(4) 0.0258(4) 0.4223(2)
C26 C 0.2374(4) -0.0532(4) 0.4251(2)
C27 C 0.2693(4) -0.0927(4) 0.3736(2)
C28 C 0.2778(4) -0.0531(4) 0.3193(2)
H1 H -0.0640 0.0599 0.0953
H2 H -0.0401 0.1318 0.1499
H3 H -0.1579 0.1973 0.0599
H4 H -0.1270 0.2965 -0.0184
H5 H 0.0530 0.3163 -0.0592
H6 H 0.2020 0.2370 -0.0216
H7 H 0.0635 -0.0469 0.0928
H8 H 0.1015 0.0242 0.0402
H9 H 0.1876 -0.1408 0.1116
H10 H 0.3741 -0.1816 0.1231
H11 H 0.5182 -0.0862 0.1090
H12 H 0.4758 0.0501 0.0835
H13 H -0.0039 0.0055 0.1923
H14 H 0.1332 -0.0128 0.1958
H15 H 0.0603 0.0664 0.2800
H16 H 0.0324 0.1400 0.2275
H17 H 0.1554 0.2233 0.1958
H18 H 0.2324 0.1516 0.1601
H19 H 0.2575 0.2518 0.3054
H20 H 0.4124 0.3325 0.3322
H21 H 0.5576 0.3507 0.2592
H22 H 0.5481 0.2883 0.1595
H23 H 0.2775 0.0297 0.2231
H24 H 0.3480 0.1005 0.2638
H25 H 0.1895 0.0558 0.4624
H26 H 0.2310 -0.0845 0.4668
H27 H 0.2874 -0.1539 0.3752
H28 H 0.3024 -0.0831 0.2790
loop_
_geom_bond_atom_site_label_1
_geom_bond_atom_site_label_2
_geom_bond_site_symmetry_1
_geom_bond_site_symmetry_2
O1 C13 1_555 1_555
O2 C24 1_555 1_555
N1 C1 1_555 1_555
N2 C2 1_555 1_555
N3 C15 1_555 1_555
N4 C17 1_555 1_555
C1 C2 1_555 1_555
C2 C3 1_555 1_555
C3 C4 1_555 1_555
C4 C5 1_555 1_555
C5 C6 1_555 1_555
C6 N2 1_555 1_555
C7 N1 1_555 1_555
C8 C7 1_555 1_555
C9 C8 1_555 1_555
C10 C9 1_555 1_555
C11 C10 1_555 1_555
C12 C11 1_555 1_555
C13 C8 1_555 1_555
C14 N1 1_555 1_555
C15 C14 1_555 1_555
C16 N3 1_555 1_555
C17 C16 1_555 1_555
C18 C17 1_555 1_555
C19 C18 1_555 1_555
C20 C19 1_555 1_555
C21 N4 1_555 1_555
C22 N3 1_555 1_555
C23 C22 1_555 1_555
C24 C23 1_555 1_555
C25 C24 1_555 1_555
C26 C25 1_555 1_555
C27 C26 1_555 1_555
C28 C23 1_555 1_555
H1 C1 1_555 1_555
H2 C1 1_555 1_555
H3 C3 1_555 1_555
H4 C4 1_555 1_555
H5 C5 1_555 1_555
H6 C6 1_555 1_555
H7 C7 1_555 1_555
H8 C7 1_555 1_555
H9 C9 1_555 1_555
H10 C10 1_555 1_555
H11 C11 1_555 1_555
H12 C12 1_555 1_555
H13 C14 1_555 1_555
H14 C14 1_555 1_555
H15 C15 1_555 1_555
H16 C15 1_555 1_555
H17 C16 1_555 1_555
H18 C16 1_555 1_555
H19 C18 1_555 1_555
H20 C19 1_555 1_555
H21 C20 1_555 1_555
H22 C21 1_555 1_555
H23 C22 1_555 1_555
H24 C22 1_555 1_555
H25 C25 1_555 1_555
H26 C26 1_555 1_555
H27 C27 1_555 1_555
H28 C28 1_555 1_555
C12 C13 1_555 1_555
C20 C21 1_555 1_555
C27 C28 1_555 1_555

#END
