
#######################################################################
#
#                 Cambridge Crystallographic Data Centre
#                                CCDC 
#
#######################################################################
#
# If this CIF has been generated from an entry in the Cambridge 
# Structural Database, then it will include bibliographic, chemical, 
# crystal, experimental, refinement or atomic coordinate data resulting 
# from the CCDC's data processing and validation procedures.
#
#######################################################################

data_YUWTUG
_chemical_formula_moiety         
'C76 H80 N4 O6,Cs1 1+,Cl1 1-,0.5(C1 H4 O1),0.25(C2 H3 N1),2.5(H2 O1)'
_chemical_name_systematic        
'25,27-dipropoxy-26,28-((5,10,10,15,20,20-hexamethylporphyrin-5,15-diyl)bis(2-(1,4-phenyleneoxy)ethoxy))calix(4)arene cesium chloride acetonitrile methanol solvate hydrate'
_symmetry_cell_setting           triclinic
_symmetry_space_group_name_H-M   'P -1'
_symmetry_Int_Tables_number      2
_space_group_name_Hall           '-P 1'
loop_
_symmetry_equiv_pos_site_id
_symmetry_equiv_pos_as_xyz
1 x,y,z
2 -x,-y,-z
_cell_length_a                   18.449(2)
_cell_length_b                   21.316(3)
_cell_length_c                   22.059(3)
_cell_angle_alpha                61.593(2)
_cell_angle_beta                 78.297(3)
_cell_angle_gamma                74.265(3)
_cell_volume                     7316.44
_exptl_crystal_colour            colorless
_exptl_crystal_description       needles
_cell_formula_units_Z            4
loop_
_atom_site_label
_atom_site_type_symbol
_atom_site_fract_x
_atom_site_fract_y
_atom_site_fract_z
Cs1 Cs 0.46861(6) 0.27907(6) 0.29894(4)
Cs2 Cs 0.92945(4) 0.29378(3) -0.00136(3)
Cl1 Cl 0.20637(12) 0.27387(12) 0.40482(9)
O1 O -0.0325(3) 0.2544(3) 0.3165(2)
O2 O -0.1170(3) 0.1807(3) 0.4528(2)
O3 O 0.1106(3) 0.2078(4) 0.6564(3)
O4 O -0.0365(3) 0.1592(3) 0.6881(2)
O5 O -0.2294(4) 0.3324(4) 0.5633(3)
O6 O -0.2072(3) 0.0419(3) 0.6890(2)
N1 N 0.3139(4) 0.2154(3) 0.2970(3)
H1 H 0.2783 0.2249 0.3264
N2 N 0.3764(4) 0.1819(4) 0.4430(3)
H2 H 0.3291 0.2039 0.4350
N3 N 0.3283(4) 0.3619(4) 0.3979(3)
H3 H 0.2894 0.3420 0.4050
N4 N 0.2648(3) 0.3939(3) 0.2540(3)
H4 H 0.2573 0.3589 0.2957
C1 C 0.3190(5) 0.2584(4) 0.2246(4)
C2 C 0.3823(5) 0.2262(5) 0.2005(4)
H5 H 0.4012 0.2440 0.1532
C3 C 0.4180(5) 0.1611(5) 0.2556(4)
H6 H 0.4632 0.1280 0.2522
C4 C 0.3721(5) 0.1573(5) 0.3140(4)
C5 C 0.3793(5) 0.0996(5) 0.3897(4)
C6 C 0.4154(5) 0.1277(5) 0.4264(4)
C7 C 0.4877(5) 0.1083(5) 0.4444(4)
H7 H 0.5276 0.0721 0.4384
C8 C 0.4903(5) 0.1544(5) 0.4743(4)
H8 H 0.5337 0.1542 0.4914
C9 C 0.4230(5) 0.1974(5) 0.4747(4)
C10 C 0.3935(5) 0.2559(5) 0.4997(4)
C11 C 0.3877(5) 0.3299(5) 0.4382(4)
C12 C 0.4377(5) 0.3768(6) 0.4075(4)
H9 H 0.4857 0.3681 0.4227
C13 C 0.4069(5) 0.4383(6) 0.3510(5)
H10 H 0.4292 0.4794 0.3217
C14 C 0.3366(5) 0.4287(6) 0.3453(4)
C15 C 0.2734(5) 0.4816(5) 0.2983(4)
C16 C 0.2758(5) 0.4608(5) 0.2399(4)
C17 C 0.2838(4) 0.5005(5) 0.1708(4)
H11 H 0.2918 0.5490 0.1468
C18 C 0.2783(4) 0.4566(5) 0.1406(4)
H12 H 0.2817 0.4710 0.0924
C19 C 0.2672(4) 0.3896(4) 0.1924(3)
C20 C 0.2568(4) 0.3236(4) 0.1912(3)
C21 C 0.4295(5) 0.0300(5) 0.3897(4)
H13 H 0.4353 -0.0075 0.4376
H14 H 0.4792 0.0396 0.3662
H15 H 0.4062 0.0131 0.3655
C22 C 0.3026(5) 0.0849(5) 0.4247(4)
H16 H 0.2763 0.0769 0.3954
H17 H 0.2732 0.1268 0.4322
H18 H 0.3085 0.0414 0.4693
C23 C 0.4520(5) 0.2479(6) 0.5483(4)
H19 H 0.4341 0.2857 0.5642
H20 H 0.5016 0.2533 0.5222
H21 H 0.4564 0.1998 0.5883
C24 C 0.2862(6) 0.5596(5) 0.2658(5)
H22 H 0.3346 0.5627 0.2375
H23 H 0.2868 0.5729 0.3025
H24 H 0.2452 0.5930 0.2367
C25 C 0.1973(5) 0.4776(5) 0.3405(4)
H25 H 0.1578 0.5143 0.3113
H26 H 0.1983 0.4870 0.3797
H27 H 0.1867 0.4290 0.3577
C26 C 0.2663(4) 0.3390(4) 0.1126(3)
H28 H 0.2278 0.3811 0.0874
H29 H 0.2603 0.2962 0.1098
H30 H 0.3167 0.3492 0.0922
C27 C 0.1774(5) 0.3056(4) 0.2230(3)
C28 C 0.1179(5) 0.3548(5) 0.2330(3)
H31 H 0.1244 0.4027 0.2190
C29 C 0.0485(5) 0.3373(4) 0.2628(3)
H32 H 0.0074 0.3733 0.2675
C30 C 0.0386(5) 0.2668(4) 0.2859(3)
C31 C 0.0971(5) 0.2178(4) 0.2750(3)
H33 H 0.0904 0.1700 0.2889
C32 C 0.1663(4) 0.2357(4) 0.2440(3)
H34 H 0.2065 0.2004 0.2369
C33 C -0.0409(5) 0.1802(5) 0.3503(4)
H35 H -0.0013 0.1497 0.3827
H36 H -0.0352 0.1618 0.3156
C34 C -0.1179(5) 0.1755(5) 0.3894(4)
H37 H -0.1566 0.2156 0.3606
H38 H -0.1307 0.1286 0.4008
C35 C -0.1899(5) 0.1855(5) 0.4864(4)
C36 C -0.2170(5) 0.1216(5) 0.5315(4)
C37 C -0.2906(6) 0.1292(6) 0.5577(4)
H39 H -0.3111 0.0868 0.5861
C38 C -0.3350(6) 0.1951(8) 0.5445(5)
H40 H -0.3862 0.1981 0.5633
C39 C -0.3078(6) 0.2590(7) 0.5041(5)
H41 H -0.3392 0.3049 0.4972
C40 C -0.2329(6) 0.2545(6) 0.4735(4)
C41 C -0.1990(5) 0.3212(5) 0.4340(4)
H42 H -0.2393 0.3648 0.4279
H43 H -0.1786 0.3253 0.3874
C42 C -0.1353(6) 0.3202(5) 0.4703(4)
C43 C -0.0604(6) 0.3126(5) 0.4449(4)
H44 H -0.0479 0.3114 0.4015
C44 C -0.0031(6) 0.3066(5) 0.4794(4)
H45 H 0.0476 0.3045 0.4590
C45 C -0.0211(6) 0.3035(5) 0.5463(4)
H46 H 0.0183 0.2958 0.5724
C46 C -0.0941(6) 0.3115(5) 0.5733(4)
C47 C -0.1539(6) 0.3235(5) 0.5364(4)
C48 C -0.1129(5) 0.3052(5) 0.6490(4)
H47 H -0.0657 0.3022 0.6659
H48 H -0.1484 0.3501 0.6469
C49 C -0.1466(5) 0.2411(5) 0.7000(4)
C50 C -0.2181(6) 0.2508(6) 0.7316(5)
H49 H -0.2457 0.2990 0.7204
C51 C -0.2514(6) 0.1937(8) 0.7788(6)
H50 H -0.2992 0.2026 0.8025
C52 C -0.2148(6) 0.1226(6) 0.7919(5)
H51 H -0.2388 0.0829 0.8223
C53 C -0.1417(5) 0.1101(5) 0.7593(4)
C54 C -0.1098(5) 0.1708(5) 0.7171(4)
C55 C -0.1037(5) 0.0328(5) 0.7739(3)
H52 H -0.1392 0.0001 0.8036
H53 H -0.0590 0.0181 0.7995
C56 C -0.0790(5) 0.0238(4) 0.7077(3)
C57 C -0.1322(5) 0.0311(4) 0.6672(4)
C58 C -0.1083(5) 0.0317(4) 0.6012(4)
C59 C -0.0323(5) 0.0225(5) 0.5818(4)
H54 H -0.0154 0.0240 0.5376
C60 C 0.0200(5) 0.0114(5) 0.6230(4)
H55 H 0.0723 0.0036 0.6083
C61 C -0.0033(5) 0.0115(5) 0.6869(4)
H56 H 0.0331 0.0030 0.7163
C62 C -0.1658(5) 0.0470(5) 0.5537(4)
H57 H -0.1973 0.0096 0.5774
H58 H -0.1389 0.0424 0.5119
C63 C 0.0184(5) 0.1396(5) 0.7343(4)
H59 H 0.0144 0.0918 0.7741
H60 H 0.0086 0.1761 0.7521
C64 C 0.0979(5) 0.1356(6) 0.6974(5)
H61 H 0.1358 0.1069 0.7317
H62 H 0.1026 0.1114 0.6675
C65 C 0.1822(5) 0.2150(6) 0.6226(4)
C66 C 0.2387(5) 0.1582(5) 0.6223(4)
H63 H 0.2315 0.1094 0.6485
C67 C 0.3067(5) 0.1727(5) 0.5830(4)
H64 H 0.3459 0.1331 0.5833
C68 C 0.3192(5) 0.2417(6) 0.5441(4)
C69 C 0.2634(5) 0.2992(5) 0.5475(4)
H65 H 0.2726 0.3473 0.5242
C70 C 0.1932(5) 0.2860(5) 0.5855(4)
H66 H 0.1539 0.3253 0.5856
C71 C -0.2549(7) 0.4100(6) 0.5409(7)
H67 H -0.2321 0.4359 0.4933
H68 H -0.2359 0.4233 0.5712
C72 C -0.3367(8) 0.4355(7) 0.5415(9)
H69 H -0.3530 0.4465 0.4968
H70 H -0.3503 0.4812 0.5464
C73 C -0.3768(8) 0.3817(11) 0.5979(9)
H71 H -0.4298 0.4048 0.6034
H72 H -0.3532 0.3632 0.6408
H73 H -0.3743 0.3412 0.5876
C74 C -0.2401(4) -0.0222(4) 0.7309(4)
H74 H -0.2095 -0.0573 0.7701
H75 H -0.2422 -0.0464 0.7027
C75 C -0.3203(5) 0.0045(6) 0.7576(5)
H76 H -0.3181 0.0308 0.7838
H77 H -0.3514 0.0380 0.7183
C76 C -0.3530(7) -0.0594(7) 0.8023(6)
H78 H -0.3528 -0.0863 0.7765
H79 H -0.4050 -0.0445 0.8190
H80 H -0.3227 -0.0907 0.8418
Cl2 Cl 0.75421(12) 0.25053(12) 0.09875(9)
O7 O 0.9184(4) 0.0785(4) -0.0146(3)
O8 O 0.9872(4) 0.2117(4) -0.0934(3)
O9 O 1.0804(3) 0.3461(3) 0.0036(2)
O10 O 0.9364(3) 0.4143(3) 0.0529(2)
O11 O 1.2061(4) 0.1436(4) -0.0004(3)
O12 O 1.1386(5) 0.3726(5) -0.2098(4)
N5 N 0.6824(3) 0.2504(3) 0.2523(3)
H81 H 0.6956 0.2509 0.2115
N6 N 0.6723(3) 0.1135(4) 0.2199(3)
H82 H 0.6921 0.1502 0.1874
N7 N 0.5845(4) 0.2285(4) 0.0840(3)
H83 H 0.6229 0.2343 0.0976
N8 N 0.5992(4) 0.3683(3) 0.1113(3)
H84 H 0.6437 0.3464 0.1000
C77 C 0.6534(4) 0.3113(4) 0.2627(4)
C78 C 0.6409(4) 0.2875(5) 0.3326(4)
H85 H 0.6203 0.3172 0.3556
C79 C 0.6641(4) 0.2109(5) 0.3646(4)
H86 H 0.6629 0.1808 0.4131
C80 C 0.6882(4) 0.1872(4) 0.3156(4)
C81 C 0.7248(4) 0.1140(4) 0.3185(3)
C82 C 0.6766(5) 0.0854(4) 0.2911(4)
C83 C 0.6376(5) 0.0325(5) 0.3230(4)
H87 H 0.6292 0.0044 0.3716
C84 C 0.6101(5) 0.0257(5) 0.2695(4)
H88 H 0.5811 -0.0083 0.2767
C85 C 0.6327(5) 0.0753(5) 0.2089(4)
C86 C 0.6242(5) 0.0905(5) 0.1346(4)
C87 C 0.5722(5) 0.1613(5) 0.0983(4)
C88 C 0.5047(5) 0.1780(6) 0.0692(4)
H89 H 0.4803 0.1434 0.0706
C89 C 0.4788(5) 0.2533(6) 0.0380(4)
H90 H 0.4340 0.2787 0.0149
C90 C 0.5307(5) 0.2844(5) 0.0468(4)
C91 C 0.5307(4) 0.3633(5) 0.0240(4)
C92 C 0.5318(5) 0.3805(5) 0.0846(4)
C93 C 0.4777(5) 0.4123(5) 0.1167(4)
H91 H 0.4254 0.4249 0.1102
C94 C 0.5105(5) 0.4245(5) 0.1625(4)
H92 H 0.4847 0.4480 0.1904
C95 C 0.5844(5) 0.3966(4) 0.1585(4)
C96 C 0.6446(4) 0.3861(4) 0.2012(4)
C97 C 0.8045(4) 0.1126(4) 0.2800(4)
H93 H 0.8015 0.1499 0.2318
H94 H 0.8247 0.0645 0.2812
H95 H 0.8378 0.1225 0.3024
C98 C 0.7326(4) 0.0586(4) 0.3961(3)
H96 H 0.7618 0.0748 0.4165
H97 H 0.7587 0.0105 0.3995
H98 H 0.6823 0.0556 0.4210
C99 C 0.5932(5) 0.0270(5) 0.1406(4)
H99 H 0.5427 0.0270 0.1654
H100 H 0.6270 -0.0193 0.1660
H101 H 0.5902 0.0331 0.0942
C100 C 0.4578(4) 0.4123(5) -0.0135(4)
H102 H 0.4539 0.4007 -0.0506
H103 H 0.4606 0.4637 -0.0332
H104 H 0.4132 0.4031 0.0198
C101 C 0.6009(4) 0.3842(5) -0.0287(4)
H105 H 0.6471 0.3516 -0.0073
H106 H 0.6031 0.4346 -0.0420
H107 H 0.5968 0.3795 -0.0699
C102 C 0.6192(5) 0.4447(5) 0.2297(4)
H108 H 0.5702 0.4393 0.2568
H109 H 0.6148 0.4936 0.1908
H110 H 0.6569 0.4375 0.2591
C103 C 0.7027(6) 0.0880(5) 0.0945(4)
C104 C 0.7099(5) 0.1264(5) 0.0215(4)
H111 H 0.6666 0.1549 -0.0032
C105 C 0.7828(6) 0.1215(6) -0.0140(5)
H112 H 0.7862 0.1465 -0.0631
C106 C 0.8458(7) 0.0852(6) 0.0155(6)
C107 C 0.8394(6) 0.0463(5) 0.0884(5)
H113 H 0.8832 0.0181 0.1125
C108 C 0.7684(6) 0.0497(5) 0.1247(5)
H114 H 0.7656 0.0237 0.1738
C109 C 0.9298(6) 0.1173(6) -0.0887(5)
H115 H 0.8917 0.1105 -0.1098
H116 H 0.9805 0.0967 -0.1046
C110 C 0.9233(6) 0.1982(6) -0.1131(4)
H117 H 0.9222 0.2242 -0.1640
H118 H 0.8753 0.2176 -0.0923
C111 C 1.0583(8) 0.1951(7) -0.1240(6)
C112 C 1.0810(8) 0.2469(7) -0.1968(6)
C113 C 1.1533(7) 0.2233(7) -0.2219(5)
H119 H 1.1687 0.2546 -0.2681
C114 C 1.2026(8) 0.1644(9) -0.1908(7)
H120 H 1.2505 0.1529 -0.2131
C115 C 1.1810(7) 0.1203(7) -0.1241(6)
H121 H 1.2156 0.0771 -0.0988
C116 C 1.1102(8) 0.1359(7) -0.0914(6)
C117 C 1.0920(6) 0.0841(6) -0.0146(5)
H122 H 1.0447 0.0684 -0.0106
H123 H 1.1329 0.0401 -0.0007
C118 C 1.0827(6) 0.1163(5) 0.0365(4)
C119 C 1.1387(7) 0.1456(6) 0.0399(5)
C120 C 1.1280(5) 0.1799(5) 0.0836(4)
C121 C 1.0627(6) 0.1734(5) 0.1273(4)
H124 H 1.0563 0.1931 0.1591
C122 C 1.0069(6) 0.1422(5) 0.1299(4)
H125 H 0.9640 0.1389 0.1627
C123 C 1.0158(6) 0.1137(5) 0.0799(4)
H126 H 0.9771 0.0938 0.0768
C124 C 1.1856(5) 0.2180(5) 0.0811(4)
H127 H 1.2318 0.1810 0.0995
H128 H 1.1665 0.2410 0.1126
C125 C 1.2080(6) 0.2761(5) 0.0102(4)
C126 C 1.1544(5) 0.3385(5) -0.0274(4)
C127 C 1.1729(6) 0.3913(5) -0.0922(4)
C128 C 1.2499(6) 0.3831(6) -0.1167(5)
H129 H 1.2656 0.4192 -0.1602
C129 C 1.3027(6) 0.3244(6) -0.0794(5)
H130 H 1.3545 0.3200 -0.0966
C130 C 1.2803(6) 0.2733(6) -0.0184(5)
H131 H 1.3175 0.2325 0.0063
C131 C 1.1129(5) 0.4560(5) -0.1333(4)
H132 H 1.0906 0.4840 -0.1064
H133 H 1.1381 0.4884 -0.1770
C132 C 1.0490(6) 0.4365(5) -0.1511(4)
C133 C 0.9756(6) 0.4600(5) -0.1322(5)
H134 H 0.9638 0.4878 -0.1070
C134 C 0.9168(7) 0.4425(7) -0.1506(6)
H135 H 0.8652 0.4615 -0.1414
C135 C 0.9370(7) 0.3973(6) -0.1821(5)
H136 H 0.8977 0.3834 -0.1919
C136 C 1.0060(7) 0.3723(6) -0.1994(5)
C137 C 1.0639(6) 0.3956(5) -0.1891(4)
C138 C 1.0261(7) 0.3156(7) -0.2289(5)
H137 H 0.9782 0.3026 -0.2283
H138 H 1.0449 0.3408 -0.2781
C139 C 1.0698(5) 0.3875(5) 0.0434(4)
H139 H 1.1146 0.3718 0.0692
H140 H 1.0650 0.4400 0.0113
C140 C 1.0018(4) 0.3758(5) 0.0922(4)
H141 H 1.0013 0.3231 0.1182
H142 H 1.0013 0.3944 0.1258
C141 C 0.8692(5) 0.4064(5) 0.0924(4)
C142 C 0.8035(5) 0.4455(4) 0.0566(4)
H143 H 0.8086 0.4767 0.0084
C143 C 0.7332(5) 0.4393(4) 0.0900(4)
H144 H 0.6903 0.4654 0.0641
C144 C 0.7223(5) 0.3957(4) 0.1612(4)
C145 C 0.7879(5) 0.3595(4) 0.1952(4)
H145 H 0.7830 0.3295 0.2437
C146 C 0.8585(5) 0.3645(4) 0.1631(4)
H146 H 0.9011 0.3390 0.1894
C147 C 1.2602(5) 0.0767(6) 0.0348(5)
H147 H 1.2400 0.0343 0.0439
H148 H 1.2681 0.0724 0.0799
C148 C 1.3335(6) 0.0768(7) -0.0081(6)
H149 H 1.3544 0.1188 -0.0170
H150 H 1.3262 0.0807 -0.0531
C149 C 1.3866(6) 0.0074(8) 0.0302(7)
H151 H 1.3961 0.0056 0.0732
H152 H 1.4344 0.0047 0.0016
H153 H 1.3639 -0.0338 0.0412
C150 C 1.1700(6) 0.4192(7) -0.2795(6)
H154 H 1.1666 0.4685 -0.2843
H155 H 1.1414 0.4238 -0.3153
C151 C 1.2521(7) 0.3832(9) -0.2879(7)
H156 H 1.2789 0.3722 -0.2483
H157 H 1.2552 0.3370 -0.2897
C152 C 1.2868(10) 0.4340(13) -0.3526(10)
H158 H 1.2535 0.4545 -0.3898
H159 H 1.3359 0.4097 -0.3661
H160 H 1.2938 0.4732 -0.3444
O13 O 0.1409(5) 0.1322(5) 0.5275(3)
H161 H 0.1654 0.1656 0.5104
C153 C 0.0949(5) 0.1412(5) 0.4738(4)
H162 H 0.0415 0.1590 0.4846
H163 H 0.1009 0.0941 0.4738
H164 H 0.1124 0.1762 0.4281
O14 O 0.7864(5) 0.2985(5) -0.0636(4)
N9 N -0.0010(9) 0.4689(11) 0.5919(9)
C154 C -0.0482(14) 0.5035(14) 0.5320(13)
C155 C -0.0912(11) 0.5189(11) 0.4827(10)
H165 H -0.0663 0.4907 0.4571
H166 H -0.0981 0.5710 0.4509
H167 H -0.1405 0.5064 0.5039
O15 O -0.3010(9) 0.1933(10) 0.6674(8)
O16 O -0.4278(11) 0.2090(13) 0.7467(10)
Cs3? Cs 0.4991(3) 0.2443(3) 0.2779(3)
loop_
_geom_bond_atom_site_label_1
_geom_bond_atom_site_label_2
_geom_bond_site_symmetry_1
_geom_bond_site_symmetry_2
O1 C30 1_555 1_555
O2 C34 1_555 1_555
O3 C64 1_555 1_555
O4 C54 1_555 1_555
O5 C47 1_555 1_555
O6 C57 1_555 1_555
N1 H1 1_555 1_555
N2 H2 1_555 1_555
N3 H3 1_555 1_555
N4 H4 1_555 1_555
C1 N1 1_555 1_555
C2 C1 1_555 1_555
H5 C2 1_555 1_555
C3 C2 1_555 1_555
H6 C3 1_555 1_555
C4 N1 1_555 1_555
C5 C4 1_555 1_555
C6 N2 1_555 1_555
C7 C6 1_555 1_555
H7 C7 1_555 1_555
C8 C7 1_555 1_555
H8 C8 1_555 1_555
C9 N2 1_555 1_555
C10 C9 1_555 1_555
C11 N3 1_555 1_555
C12 C11 1_555 1_555
H9 C12 1_555 1_555
C13 C12 1_555 1_555
H10 C13 1_555 1_555
C14 N3 1_555 1_555
C15 C14 1_555 1_555
C16 N4 1_555 1_555
C17 C16 1_555 1_555
H11 C17 1_555 1_555
C18 C17 1_555 1_555
H12 C18 1_555 1_555
C19 N4 1_555 1_555
C20 C1 1_555 1_555
C21 C5 1_555 1_555
H13 C21 1_555 1_555
H14 C21 1_555 1_555
H15 C21 1_555 1_555
C22 C5 1_555 1_555
H16 C22 1_555 1_555
H17 C22 1_555 1_555
H18 C22 1_555 1_555
C23 C10 1_555 1_555
H19 C23 1_555 1_555
H20 C23 1_555 1_555
H21 C23 1_555 1_555
C24 C15 1_555 1_555
H22 C24 1_555 1_555
H23 C24 1_555 1_555
H24 C24 1_555 1_555
C25 C15 1_555 1_555
H25 C25 1_555 1_555
H26 C25 1_555 1_555
H27 C25 1_555 1_555
C26 C20 1_555 1_555
H28 C26 1_555 1_555
H29 C26 1_555 1_555
H30 C26 1_555 1_555
C27 C20 1_555 1_555
C28 C27 1_555 1_555
H31 C28 1_555 1_555
C29 C28 1_555 1_555
H32 C29 1_555 1_555
C30 C29 1_555 1_555
C31 C30 1_555 1_555
H33 C31 1_555 1_555
C32 C27 1_555 1_555
H34 C32 1_555 1_555
C33 O1 1_555 1_555
H35 C33 1_555 1_555
H36 C33 1_555 1_555
C34 C33 1_555 1_555
H37 C34 1_555 1_555
H38 C34 1_555 1_555
C35 O2 1_555 1_555
C36 C35 1_555 1_555
C37 C36 1_555 1_555
H39 C37 1_555 1_555
C38 C37 1_555 1_555
H40 C38 1_555 1_555
C39 C38 1_555 1_555
H41 C39 1_555 1_555
C40 C35 1_555 1_555
C41 C40 1_555 1_555
H42 C41 1_555 1_555
H43 C41 1_555 1_555
C42 C41 1_555 1_555
C43 C42 1_555 1_555
H44 C43 1_555 1_555
C44 C43 1_555 1_555
H45 C44 1_555 1_555
C45 C44 1_555 1_555
H46 C45 1_555 1_555
C46 C45 1_555 1_555
C47 C42 1_555 1_555
C48 C46 1_555 1_555
H47 C48 1_555 1_555
H48 C48 1_555 1_555
C49 C48 1_555 1_555
C50 C49 1_555 1_555
H49 C50 1_555 1_555
C51 C50 1_555 1_555
H50 C51 1_555 1_555
C52 C51 1_555 1_555
H51 C52 1_555 1_555
C53 C52 1_555 1_555
C54 C49 1_555 1_555
C55 C53 1_555 1_555
H52 C55 1_555 1_555
H53 C55 1_555 1_555
C56 C55 1_555 1_555
C57 C56 1_555 1_555
C58 C57 1_555 1_555
C59 C58 1_555 1_555
H54 C59 1_555 1_555
C60 C59 1_555 1_555
H55 C60 1_555 1_555
C61 C56 1_555 1_555
H56 C61 1_555 1_555
C62 C36 1_555 1_555
H57 C62 1_555 1_555
H58 C62 1_555 1_555
C63 O4 1_555 1_555
H59 C63 1_555 1_555
H60 C63 1_555 1_555
C64 C63 1_555 1_555
H61 C64 1_555 1_555
H62 C64 1_555 1_555
C65 O3 1_555 1_555
C66 C65 1_555 1_555
H63 C66 1_555 1_555
C67 C66 1_555 1_555
H64 C67 1_555 1_555
C68 C10 1_555 1_555
C69 C68 1_555 1_555
H65 C69 1_555 1_555
C70 C65 1_555 1_555
H66 C70 1_555 1_555
C71 O5 1_555 1_555
H67 C71 1_555 1_555
H68 C71 1_555 1_555
C72 C71 1_555 1_555
H69 C72 1_555 1_555
H70 C72 1_555 1_555
C73 C72 1_555 1_555
H71 C73 1_555 1_555
H72 C73 1_555 1_555
H73 C73 1_555 1_555
C74 O6 1_555 1_555
H74 C74 1_555 1_555
H75 C74 1_555 1_555
C75 C74 1_555 1_555
H76 C75 1_555 1_555
H77 C75 1_555 1_555
C76 C75 1_555 1_555
H78 C76 1_555 1_555
H79 C76 1_555 1_555
H80 C76 1_555 1_555
O7 C106 1_555 1_555
O8 C110 1_555 1_555
O9 C126 1_555 1_555
O10 C140 1_555 1_555
O11 C119 1_555 1_555
O12 C137 1_555 1_555
N5 H81 1_555 1_555
N6 H82 1_555 1_555
N7 H83 1_555 1_555
N8 H84 1_555 1_555
C77 N5 1_555 1_555
C78 C77 1_555 1_555
H85 C78 1_555 1_555
C79 C78 1_555 1_555
H86 C79 1_555 1_555
C80 N5 1_555 1_555
C81 C80 1_555 1_555
C82 N6 1_555 1_555
C83 C82 1_555 1_555
H87 C83 1_555 1_555
C84 C83 1_555 1_555
H88 C84 1_555 1_555
C85 N6 1_555 1_555
C86 C85 1_555 1_555
C87 N7 1_555 1_555
C88 C87 1_555 1_555
H89 C88 1_555 1_555
C89 C88 1_555 1_555
H90 C89 1_555 1_555
C90 N7 1_555 1_555
C91 C90 1_555 1_555
C92 N8 1_555 1_555
C93 C92 1_555 1_555
H91 C93 1_555 1_555
C94 C93 1_555 1_555
H92 C94 1_555 1_555
C95 N8 1_555 1_555
C96 C77 1_555 1_555
C97 C81 1_555 1_555
H93 C97 1_555 1_555
H94 C97 1_555 1_555
H95 C97 1_555 1_555
C98 C81 1_555 1_555
H96 C98 1_555 1_555
H97 C98 1_555 1_555
H98 C98 1_555 1_555
C99 C86 1_555 1_555
H99 C99 1_555 1_555
H100 C99 1_555 1_555
H101 C99 1_555 1_555
C100 C91 1_555 1_555
H102 C100 1_555 1_555
H103 C100 1_555 1_555
H104 C100 1_555 1_555
C101 C91 1_555 1_555
H105 C101 1_555 1_555
H106 C101 1_555 1_555
H107 C101 1_555 1_555
C102 C96 1_555 1_555
H108 C102 1_555 1_555
H109 C102 1_555 1_555
H110 C102 1_555 1_555
C103 C86 1_555 1_555
C104 C103 1_555 1_555
H111 C104 1_555 1_555
C105 C104 1_555 1_555
H112 C105 1_555 1_555
C106 C105 1_555 1_555
C107 C106 1_555 1_555
H113 C107 1_555 1_555
C108 C103 1_555 1_555
H114 C108 1_555 1_555
C109 O7 1_555 1_555
H115 C109 1_555 1_555
H116 C109 1_555 1_555
C110 C109 1_555 1_555
H117 C110 1_555 1_555
H118 C110 1_555 1_555
C111 O8 1_555 1_555
C112 C111 1_555 1_555
C113 C112 1_555 1_555
H119 C113 1_555 1_555
C114 C113 1_555 1_555
H120 C114 1_555 1_555
C115 C114 1_555 1_555
H121 C115 1_555 1_555
C116 C111 1_555 1_555
C117 C116 1_555 1_555
H122 C117 1_555 1_555
H123 C117 1_555 1_555
C118 C117 1_555 1_555
C119 C118 1_555 1_555
C120 C119 1_555 1_555
C121 C120 1_555 1_555
H124 C121 1_555 1_555
C122 C121 1_555 1_555
H125 C122 1_555 1_555
C123 C118 1_555 1_555
H126 C123 1_555 1_555
C124 C120 1_555 1_555
H127 C124 1_555 1_555
H128 C124 1_555 1_555
C125 C124 1_555 1_555
C126 C125 1_555 1_555
C127 C126 1_555 1_555
C128 C127 1_555 1_555
H129 C128 1_555 1_555
C129 C128 1_555 1_555
H130 C129 1_555 1_555
C130 C125 1_555 1_555
H131 C130 1_555 1_555
C131 C127 1_555 1_555
H132 C131 1_555 1_555
H133 C131 1_555 1_555
C132 C131 1_555 1_555
C133 C132 1_555 1_555
H134 C133 1_555 1_555
C134 C133 1_555 1_555
H135 C134 1_555 1_555
C135 C134 1_555 1_555
H136 C135 1_555 1_555
C136 C135 1_555 1_555
C137 C132 1_555 1_555
C138 C112 1_555 1_555
H137 C138 1_555 1_555
H138 C138 1_555 1_555
C139 O9 1_555 1_555
H139 C139 1_555 1_555
H140 C139 1_555 1_555
C140 C139 1_555 1_555
H141 C140 1_555 1_555
H142 C140 1_555 1_555
C141 O10 1_555 1_555
C142 C141 1_555 1_555
H143 C142 1_555 1_555
C143 C142 1_555 1_555
H144 C143 1_555 1_555
C144 C96 1_555 1_555
C145 C144 1_555 1_555
H145 C145 1_555 1_555
C146 C141 1_555 1_555
H146 C146 1_555 1_555
C147 O11 1_555 1_555
H147 C147 1_555 1_555
H148 C147 1_555 1_555
C148 C147 1_555 1_555
H149 C148 1_555 1_555
H150 C148 1_555 1_555
C149 C148 1_555 1_555
H151 C149 1_555 1_555
H152 C149 1_555 1_555
H153 C149 1_555 1_555
C150 O12 1_555 1_555
H154 C150 1_555 1_555
H155 C150 1_555 1_555
C151 C150 1_555 1_555
H156 C151 1_555 1_555
H157 C151 1_555 1_555
C152 C151 1_555 1_555
H158 C152 1_555 1_555
H159 C152 1_555 1_555
H160 C152 1_555 1_555
O13 H161 1_555 1_555
C153 O13 1_555 1_555
H162 C153 1_555 1_555
H163 C153 1_555 1_555
H164 C153 1_555 1_555
N9 C154 1_555 1_555
C154 C155 1_555 1_555
C155 H165 1_555 1_555
H166 C155 1_555 1_555
H167 C155 1_555 1_555
C3 C4 1_555 1_555
C5 C6 1_555 1_555
C8 C9 1_555 1_555
C10 C11 1_555 1_555
C13 C14 1_555 1_555
C15 C16 1_555 1_555
C18 C19 1_555 1_555
C19 C20 1_555 1_555
C31 C32 1_555 1_555
C39 C40 1_555 1_555
C46 C47 1_555 1_555
C53 C54 1_555 1_555
C58 C62 1_555 1_555
C60 C61 1_555 1_555
C67 C68 1_555 1_555
C69 C70 1_555 1_555
C79 C80 1_555 1_555
C81 C82 1_555 1_555
C84 C85 1_555 1_555
C86 C87 1_555 1_555
C89 C90 1_555 1_555
C91 C92 1_555 1_555
C94 C95 1_555 1_555
C95 C96 1_555 1_555
C107 C108 1_555 1_555
C115 C116 1_555 1_555
C122 C123 1_555 1_555
C129 C130 1_555 1_555
C136 C137 1_555 1_555
C136 C138 1_555 1_555
C143 C144 1_555 1_555
C145 C146 1_555 1_555

#END
