
#######################################################################
#
#                 Cambridge Crystallographic Data Centre
#                                CCDC 
#
#######################################################################
#
# If this CIF has been generated from an entry in the Cambridge 
# Structural Database, then it will include bibliographic, chemical, 
# crystal, experimental, refinement or atomic coordinate data resulting 
# from the CCDC's data processing and validation procedures.
#
#######################################################################

data_YUWWIW10
_chemical_formula_moiety         'C4 H10 Cl2 N1 1+,Cl1 1-'
_chemical_name_systematic        'bis(2-chloroethyl)ammonium chloride'
_symmetry_cell_setting           monoclinic
_symmetry_space_group_name_H-M   'P 2/c'
_symmetry_Int_Tables_number      13
_space_group_name_Hall           '-P 2yc'
loop_
_symmetry_equiv_pos_site_id
_symmetry_equiv_pos_as_xyz
1 x,y,z
2 -x,y,1/2-z
3 -x,-y,-z
4 x,-y,1/2+z
_cell_length_a                   15.317(12)
_cell_length_b                   4.985(4)
_cell_length_c                   22.041(13)
_cell_angle_alpha                90
_cell_angle_beta                 131.43(3)
_cell_angle_gamma                90
_cell_volume                     1261.81
_exptl_crystal_colour            colorless
_exptl_crystal_description       block
_chemical_melting_point          '430 K'
_cell_formula_units_Z            6
loop_
_atom_site_label
_atom_site_type_symbol
_atom_site_fract_x
_atom_site_fract_y
_atom_site_fract_z
C1 C 0.2358(2) 0.7615(4) 0.30841(13)
H1 H 0.2524 0.6134 0.2889
H2 H 0.1956 0.6899 0.3251
C2 C 0.3490(2) 0.8867(5) 0.38059(14)
H3 H 0.3892 0.9580 0.3639
H4 H 0.3980 0.7492 0.4209
C3 C 0.06599(19) 0.8229(5) 0.16146(13)
H5 H 0.0193 0.7067 0.1656
H6 H 0.1023 0.7134 0.1470
C4 C -0.0110(2) 1.0311(5) 0.09670(13)
H7 H 0.0360 1.1554 0.0950
H8 H -0.0522 1.1318 0.1088
Cl1 Cl 0.32840(6) 1.14916(13) 0.42496(4)
Cl2 Cl -0.11321(6) 0.86655(16) 0.00100(4)
N1 N 0.15810(14) 0.9567(3) 0.24121(10)
H9 H 0.2015 1.0624 0.2370
H10 H 0.1237 1.0621 0.2533
C5 C 0.4353(2) 0.7962(4) 0.17572(14)
H11 H 0.4912 0.8891 0.1760
H12 H 0.3915 0.9308 0.1777
C6 C 0.3529(2) 0.6419(5) 0.09790(15)
H13 H 0.3091 0.7669 0.0529
H14 H 0.2981 0.5447 0.0979
Cl3 Cl 0.42784(6) 0.40881(13) 0.08392(4)
N2 N 0.5000 0.6253(5) 0.2500
H15 H 0.4494 0.5193 0.2467
H15A H 0.5506 0.5193 0.2533
C5A C 0.5647(2) 0.7962(4) 0.32428(14)
H11A H 0.5088 0.8891 0.3240
H12A H 0.6085 0.9308 0.3223
C6A C 0.6471(2) 0.6419(5) 0.40210(15)
H13A H 0.6909 0.7669 0.4471
H14A H 0.7019 0.5447 0.4021
Cl3A Cl 0.57216(6) 0.40881(13) 0.41608(4)
Cl4 Cl 0.0000 0.31424(15) 0.2500
Cl5 Cl 0.29213(5) 0.29530(11) 0.20832(3)
H16? H 0.4494 0.5193 0.2467
loop_
_geom_bond_atom_site_label_1
_geom_bond_atom_site_label_2
_geom_bond_site_symmetry_1
_geom_bond_site_symmetry_2
C1 H1 1_555 1_555
H2 C1 1_555 1_555
C2 C1 1_555 1_555
H3 C2 1_555 1_555
H4 C2 1_555 1_555
C3 H5 1_555 1_555
H6 C3 1_555 1_555
C4 C3 1_555 1_555
H7 C4 1_555 1_555
H8 C4 1_555 1_555
Cl1 C2 1_555 1_555
Cl2 C4 1_555 1_555
N1 C1 1_555 1_555
H9 N1 1_555 1_555
H10 N1 1_555 1_555
C5 H11 1_555 1_555
H12 C5 1_555 1_555
C6 C5 1_555 1_555
H13 C6 1_555 1_555
H14 C6 1_555 1_555
Cl3 C6 1_555 1_555
N2 C5 1_555 1_555
H15 N2 1_555 1_555
H15A N2 1_555 1_555
C5A N2 1_555 1_555
H11A C5A 1_555 1_555
H12A C5A 1_555 1_555
C6A C5A 1_555 1_555
H13A C6A 1_555 1_555
H14A C6A 1_555 1_555
Cl3A C6A 1_555 1_555
C3 N1 1_555 1_555

#END
