
#######################################################################
#
#                 Cambridge Crystallographic Data Centre
#                                CCDC 
#
#######################################################################
#
# If this CIF has been generated from an entry in the Cambridge 
# Structural Database, then it will include bibliographic, chemical, 
# crystal, experimental, refinement or atomic coordinate data resulting 
# from the CCDC's data processing and validation procedures.
#
#######################################################################

data_YUXNOV
_chemical_formula_moiety         'C28 H29 N3 O12'
_chemical_name_systematic        
'Methyl 3-((3-((2,5-dimethoxy-3-nitrobenzoyl)amino)-2,5-dimethoxybenzoyl)amino)-2,5-dimethoxybenzoate'
_symmetry_cell_setting           triclinic
_symmetry_space_group_name_H-M   'P -1'
_symmetry_Int_Tables_number      2
_space_group_name_Hall           '-P 1'
loop_
_symmetry_equiv_pos_site_id
_symmetry_equiv_pos_as_xyz
1 x,y,z
2 -x,-y,-z
_cell_length_a                   7.6819(6)
_cell_length_b                   12.8663(9)
_cell_length_c                   15.3441(11)
_cell_angle_alpha                70.1970(10)
_cell_angle_beta                 84.768(2)
_cell_angle_gamma                76.122(2)
_cell_volume                     1385.15
_exptl_crystal_colour            yellow
_exptl_crystal_description       block
_cell_formula_units_Z            2
loop_
_atom_site_label
_atom_site_type_symbol
_atom_site_fract_x
_atom_site_fract_y
_atom_site_fract_z
O1 O -0.03280(18) 0.59870(11) 0.28867(9)
O2 O -0.2262(2) 0.32877(12) 0.48872(11)
O3 O -0.0708(3) 0.37544(13) 0.35767(11)
O4 O -0.3904(2) 0.65422(12) 0.60385(9)
O5 O -0.1518(2) 0.93726(12) 0.37859(10)
O6 O 0.17373(18) 0.81821(10) 0.18510(9)
O7 O -0.0710(2) 1.27920(11) 0.10373(10)
O8 O 0.2809(2) 1.10404(11) -0.10328(9)
O9 O 0.46558(19) 0.75478(11) 0.02910(9)
O10 O 0.6288(2) 0.97304(12) -0.33683(9)
O11 O 0.7401(3) 0.56763(13) -0.11922(13)
O12 O 0.7659(3) 0.59764(14) 0.00760(12)
N1 N -0.0983(2) 0.79734(14) 0.31432(12)
H1 H -0.055(3) 0.7818(17) 0.2687(14)
N2 N 0.2672(2) 0.95671(14) 0.02701(11)
H2 H 0.302(3) 0.8882(19) 0.0476(14)
N3 N 0.7150(2) 0.62840(14) -0.07154(13)
C1 C -0.1318(2) 0.60604(16) 0.36662(12)
C2 C -0.1889(2) 0.51502(15) 0.43219(12)
C3 C -0.2768(3) 0.52937(16) 0.51300(13)
H3 H -0.3145 0.4689 0.5573
C4 C -0.3074(3) 0.63231(16) 0.52691(13)
C5 C -0.2534(3) 0.72376(17) 0.46109(13)
H4 H -0.2774 0.7936 0.4703
C6 C -0.1643(2) 0.71081(16) 0.38214(12)
C7 C -0.1332(3) 0.6085(2) 0.21069(14)
H5 H -0.2097 0.5554 0.2297
H6 H -0.0521 0.5924 0.1631
H7 H -0.2051 0.6840 0.1872
C8 C -0.1533(3) 0.40148(16) 0.41980(13)
C9 C -0.2075(4) 0.21687(18) 0.48256(18)
H8 H -0.2389 0.2234 0.4215
H9 H -0.2856 0.1776 0.5273
H10 H -0.0856 0.1754 0.4949
C10 C -0.4135(3) 0.56072(19) 0.68174(14)
H11 H -0.4929 0.5223 0.6664
H12 H -0.4638 0.5869 0.7322
H13 H -0.2994 0.5095 0.6995
C11 C -0.0921(3) 0.90070(16) 0.31583(13)
C12 C 0.1038(2) 0.93306(14) 0.16873(13)
C13 C -0.0135(3) 0.97353(16) 0.22969(13)
C14 C -0.0729(2) 1.09028(16) 0.21005(13)
H14 H -0.1470 1.1188 0.2519
C15 C -0.0213(3) 1.16341(15) 0.12834(13)
C16 C 0.0864(2) 1.12347(15) 0.06382(13)
H15 H 0.1145 1.1737 0.0075
C17 C 0.1518(2) 1.00795(15) 0.08412(12)
C18 C 0.3207(3) 0.77109(19) 0.24772(18)
H16 H 0.4268 0.7930 0.2164
H17 H 0.3401 0.6900 0.2695
H18 H 0.2941 0.7987 0.2994
C19 C -0.1754(4) 1.32647(18) 0.16789(16)
H19 H -0.2865 1.3022 0.1798
H20 H -0.1994 1.4076 0.1426
H21 H -0.1108 1.3016 0.2247
C20 C 0.3226(2) 1.00346(15) -0.06008(12)
C21 C 0.5091(2) 0.80563(15) -0.06144(12)
C22 C 0.4426(2) 0.92261(15) -0.10467(12)
C23 C 0.4891(2) 0.97272(15) -0.19614(12)
H22 H 0.4466 1.0503 -0.2238
C24 C 0.5957(3) 0.91214(16) -0.24787(12)
C25 C 0.6626(3) 0.79749(17) -0.20673(13)
H23 H 0.7333 0.7546 -0.2404
C26 C 0.6221(3) 0.74763(15) -0.11420(13)
C27 C 0.3839(3) 0.65884(18) 0.05173(16)
H24 H 0.2641 0.6781 0.0745
H25 H 0.4529 0.5959 0.0985
H26 H 0.3803 0.6386 -0.0027
C28 C 0.7318(5) 0.9135(2) -0.39333(18)
H27 H 0.8519 0.8833 -0.3703
H28 H 0.7343 0.9642 -0.4557
H29 H 0.6791 0.8526 -0.3924
loop_
_geom_bond_atom_site_label_1
_geom_bond_atom_site_label_2
_geom_bond_site_symmetry_1
_geom_bond_site_symmetry_2
O1 C1 1_555 1_555
O2 C8 1_555 1_555
O3 C8 1_555 1_555
O4 C4 1_555 1_555
O5 C11 1_555 1_555
O6 C12 1_555 1_555
O7 C15 1_555 1_555
O8 C20 1_555 1_555
O9 C21 1_555 1_555
O10 C24 1_555 1_555
O11 N3 1_555 1_555
O12 N3 1_555 1_555
N1 H1 1_555 1_555
N2 H2 1_555 1_555
N3 C26 1_555 1_555
C1 C2 1_555 1_555
C2 C3 1_555 1_555
C3 H3 1_555 1_555
C4 C3 1_555 1_555
C5 C4 1_555 1_555
H4 C5 1_555 1_555
C6 N1 1_555 1_555
C7 O1 1_555 1_555
H5 C7 1_555 1_555
H6 C7 1_555 1_555
H7 C7 1_555 1_555
C8 C2 1_555 1_555
C9 O2 1_555 1_555
H8 C9 1_555 1_555
H9 C9 1_555 1_555
H10 C9 1_555 1_555
C10 O4 1_555 1_555
H11 C10 1_555 1_555
H12 C10 1_555 1_555
H13 C10 1_555 1_555
C11 N1 1_555 1_555
C12 C13 1_555 1_555
C13 C11 1_555 1_555
C14 C13 1_555 1_555
H14 C14 1_555 1_555
C15 C14 1_555 1_555
C16 C15 1_555 1_555
H15 C16 1_555 1_555
C17 N2 1_555 1_555
C18 O6 1_555 1_555
H16 C18 1_555 1_555
H17 C18 1_555 1_555
H18 C18 1_555 1_555
C19 O7 1_555 1_555
H19 C19 1_555 1_555
H20 C19 1_555 1_555
H21 C19 1_555 1_555
C20 N2 1_555 1_555
C21 C22 1_555 1_555
C22 C20 1_555 1_555
C23 C22 1_555 1_555
H22 C23 1_555 1_555
C24 C23 1_555 1_555
C25 C24 1_555 1_555
H23 C25 1_555 1_555
C26 C21 1_555 1_555
C27 O9 1_555 1_555
H24 C27 1_555 1_555
H25 C27 1_555 1_555
H26 C27 1_555 1_555
C28 O10 1_555 1_555
H27 C28 1_555 1_555
H28 C28 1_555 1_555
H29 C28 1_555 1_555
C1 C6 1_555 1_555
C5 C6 1_555 1_555
C12 C17 1_555 1_555
C16 C17 1_555 1_555
C25 C26 1_555 1_555

#END
