
#######################################################################
#
#                 Cambridge Crystallographic Data Centre
#                                CCDC 
#
#######################################################################
#
# If this CIF has been generated from an entry in the Cambridge 
# Structural Database, then it will include bibliographic, chemical, 
# crystal, experimental, refinement or atomic coordinate data resulting 
# from the CCDC's data processing and validation procedures.
#
#######################################################################

data_YUYFEF
_chemical_formula_moiety         'C20 H20 N1 P1 S1 2+,2(Cl1 O4 1-)'
_chemical_name_systematic        
'2-ammonio-2-methyl-3,3-diphenyl-2,3-dihydro-1,3-benzothiaphosphol-3-ium diperchlorate'
_symmetry_cell_setting           monoclinic
_symmetry_space_group_name_H-M   'P 21/n'
_symmetry_Int_Tables_number      14
_space_group_name_Hall           '-P 2yn'
loop_
_symmetry_equiv_pos_site_id
_symmetry_equiv_pos_as_xyz
1 x,y,z
2 1/2-x,1/2+y,1/2-z
3 -x,-y,-z
4 1/2+x,1/2-y,1/2+z
_cell_length_a                   12.0439(7)
_cell_length_b                   11.1901(7)
_cell_length_c                   17.4924(15)
_cell_angle_alpha                90
_cell_angle_beta                 102.248(2)
_cell_angle_gamma                90
_cell_volume                     2303.83
_exptl_crystal_colour            colorless
_exptl_crystal_description       prism
_cell_formula_units_Z            4
loop_
_atom_site_label
_atom_site_type_symbol
_atom_site_fract_x
_atom_site_fract_y
_atom_site_fract_z
Cl1 Cl 0.21814(11) 0.21494(12) 0.40190(8)
O1 O 0.3143(5) 0.2814(8) 0.4359(13)
O2 O 0.2504(4) 0.1025(3) 0.3776(3)
O3 O 0.1458(4) 0.2727(3) 0.3376(3)
O4 O 0.1521(4) 0.1936(5) 0.4606(3)
Cl2 Cl 0.62235(10) 0.12286(10) 0.13657(7)
O6 O 0.5557(3) 0.2306(3) 0.11912(19)
O7 O 0.5942(3) 0.0457(3) 0.06805(19)
O8 O 0.7395(3) 0.1507(3) 0.1496(2)
O9 O 0.5990(4) 0.0641(3) 0.2028(2)
S1 S 0.87984(11) 0.07932(10) 0.43181(8)
P1 P 0.71630(10) 0.26901(10) 0.43584(7)
N1 N 0.9501(3) 0.3051(3) 0.4562(2)
H1 H 0.9413 0.3890 0.4453
H2 H 1.0209 0.2782 0.4453
H3 H 0.9498 0.2908 0.5102
C1 C 0.7472(4) 0.2935(4) 0.5387(3)
C2 C 0.7390(4) 0.1984(4) 0.5886(3)
H4 H 0.7125 0.1223 0.5668
C3 C 0.7683(4) 0.2143(5) 0.6683(3)
H5 H 0.7636 0.1483 0.7025
C4 C 0.8055(4) 0.3233(5) 0.6989(3)
H6 H 0.8240 0.3339 0.7547
C5 C 0.8159(4) 0.4187(4) 0.6508(3)
H7 H 0.8434 0.4943 0.6731
C6 C 0.7867(4) 0.4047(4) 0.5706(3)
H8 H 0.7923 0.4704 0.5364
C7 C 0.6290(4) 0.3836(4) 0.3826(3)
C8 C 0.5862(4) 0.4773(4) 0.4201(3)
H9 H 0.6093 0.4850 0.4759
C9 C 0.5117(4) 0.5571(5) 0.3772(3)
H10 H 0.4824 0.6213 0.4035
C10 C 0.4780(4) 0.5456(5) 0.2979(3)
H11 H 0.4275 0.6029 0.2678
C11 C 0.5182(4) 0.4529(5) 0.2598(3)
H12 H 0.4932 0.4459 0.2040
C12 C 0.5922(4) 0.3706(4) 0.3019(3)
H13 H 0.6190 0.3041 0.2763
C13 C 0.6547(4) 0.1267(4) 0.4103(3)
C14 C 0.5394(4) 0.1024(4) 0.3929(3)
H14 H 0.4869 0.1657 0.3964
C15 C 0.5049(5) -0.0124(5) 0.3724(3)
H15 H 0.4255 -0.0318 0.3586
C16 C 0.5850(5) -0.1009(5) 0.3701(3)
H16 H 0.5602 -0.1815 0.3576
C17 C 0.6996(5) -0.0765(4) 0.3866(3)
H17 H 0.7533 -0.1387 0.3835
C18 C 0.7346(4) 0.0394(4) 0.4068(3)
C19 C 0.8541(4) 0.2384(4) 0.4063(3)
C20 C 0.8505(4) 0.2604(4) 0.3205(3)
H18 H 0.8370 0.3436 0.3087
H19 H 0.7906 0.2137 0.2895
H20 H 0.9219 0.2374 0.3086
O5? O 0.311(3) 0.301(3) 0.389(4)
loop_
_geom_bond_atom_site_label_1
_geom_bond_atom_site_label_2
_geom_bond_site_symmetry_1
_geom_bond_site_symmetry_2
Cl1 O1 1_555 1_555
O2 Cl1 1_555 1_555
O3 Cl1 1_555 1_555
O4 Cl1 1_555 1_555
Cl2 O6 1_555 1_555
O7 Cl2 1_555 1_555
O8 Cl2 1_555 1_555
O9 Cl2 1_555 1_555
S1 C18 1_555 1_555
P1 C1 1_555 1_555
N1 H1 1_555 1_555
H2 N1 1_555 1_555
H3 N1 1_555 1_555
C1 C2 1_555 1_555
C2 H4 1_555 1_555
C3 C2 1_555 1_555
H5 C3 1_555 1_555
C4 C3 1_555 1_555
H6 C4 1_555 1_555
C5 C4 1_555 1_555
H7 C5 1_555 1_555
C6 C1 1_555 1_555
H8 C6 1_555 1_555
C7 P1 1_555 1_555
C8 C7 1_555 1_555
H9 C8 1_555 1_555
C9 C8 1_555 1_555
H10 C9 1_555 1_555
C10 C9 1_555 1_555
H11 C10 1_555 1_555
C11 C10 1_555 1_555
H12 C11 1_555 1_555
C12 C7 1_555 1_555
H13 C12 1_555 1_555
C13 P1 1_555 1_555
C14 C13 1_555 1_555
H14 C14 1_555 1_555
C15 C14 1_555 1_555
H15 C15 1_555 1_555
C16 C15 1_555 1_555
H16 C16 1_555 1_555
C17 C16 1_555 1_555
H17 C17 1_555 1_555
C18 C13 1_555 1_555
C19 S1 1_555 1_555
C20 C19 1_555 1_555
H18 C20 1_555 1_555
H19 C20 1_555 1_555
H20 C20 1_555 1_555
P1 C19 1_555 1_555
N1 C19 1_555 1_555
C5 C6 1_555 1_555
C11 C12 1_555 1_555
C17 C18 1_555 1_555

#END
