
#######################################################################
#
#                 Cambridge Crystallographic Data Centre
#                                CCDC 
#
#######################################################################
#
# If this CIF has been generated from an entry in the Cambridge 
# Structural Database, then it will include bibliographic, chemical, 
# crystal, experimental, refinement or atomic coordinate data resulting 
# from the CCDC's data processing and validation procedures.
#
#######################################################################

data_YUYQIT
_chemical_formula_moiety         'C17 H38 N3 1+,Cl1 1-'
_chemical_name_systematic        
"N,N-Diethyl-N',N',N'',N''-tetrapropylguanidinium chloride"
_symmetry_cell_setting           monoclinic
_symmetry_space_group_name_H-M   'P 21/n'
_symmetry_Int_Tables_number      14
_space_group_name_Hall           '-P 2yn'
loop_
_symmetry_equiv_pos_site_id
_symmetry_equiv_pos_as_xyz
1 x,y,z
2 1/2-x,1/2+y,1/2-z
3 -x,-y,-z
4 1/2+x,1/2-y,1/2+z
_cell_length_a                   13.0165(4)
_cell_length_b                   11.5451(3)
_cell_length_c                   13.3568(4)
_cell_angle_alpha                90
_cell_angle_beta                 93.952(2)
_cell_angle_gamma                90
_cell_volume                     2002.44
_exptl_crystal_colour            colorless
_exptl_crystal_description       block
_chemical_melting_point          '166-168 deg.C'
_cell_formula_units_Z            4
_chemical_properties_physical    hygroscopic
loop_
_atom_site_label
_atom_site_type_symbol
_atom_site_fract_x
_atom_site_fract_y
_atom_site_fract_z
Cl1 Cl 0.25394(3) 0.52041(4) 0.02209(3)
N1 N 0.01843(11) 0.34050(12) -0.19940(11)
N2 N 0.05247(11) 0.20185(12) -0.32074(11)
N3 N -0.11389(11) 0.27190(13) -0.31054(11)
C1 C -0.01396(13) 0.27103(14) -0.27615(12)
C2 C -0.03046(14) 0.45463(15) -0.18514(14)
H1 H -0.0617 0.4551 -0.1213
H2 H -0.0848 0.4662 -0.2376
C3 C 0.04641(15) 0.55454(15) -0.18742(14)
H3 H 0.0107 0.6267 -0.1765
H4 H 0.0987 0.5448 -0.1327
C4 C 0.09852(17) 0.56259(18) -0.28534(17)
H5 H 0.1408 0.4954 -0.2928
H6 H 0.1407 0.6309 -0.2848
H7 H 0.0471 0.5666 -0.3403
C5 C 0.09920(16) 0.30481(17) -0.12202(13)
H8 H 0.1478 0.3680 -0.1112
H9 H 0.1364 0.2395 -0.1474
C6 C 0.0597(2) 0.2716(2) -0.02295(16)
H10 H 0.1148 0.2800 0.0292
H11 H 0.0048 0.3243 -0.0077
C7 C 0.01989(19) 0.1496(2) -0.0221(2)
H12 H -0.0355 0.1411 -0.0728
H13 H -0.0046 0.1327 0.0425
H14 H 0.0744 0.0969 -0.0354
C8 C 0.15722(13) 0.23985(15) -0.33968(13)
H15 H 0.2029 0.1734 -0.3364
H16 H 0.1815 0.2938 -0.2877
C9 C 0.16128(13) 0.29773(15) -0.44164(13)
H17 H 0.1378 0.2440 -0.4942
H18 H 0.1162 0.3647 -0.4454
C10 C 0.27125(14) 0.33504(18) -0.45651(15)
H19 H 0.2943 0.3876 -0.4040
H20 H 0.2736 0.3729 -0.5203
H21 H 0.3152 0.2682 -0.4547
C11 C 0.02315(14) 0.08573(15) -0.35933(13)
H22 H 0.0556 0.0717 -0.4214
H23 H -0.0509 0.0825 -0.3737
C12 C 0.0557(2) -0.00747(17) -0.28378(16)
H24 H 0.0214 0.0049 -0.2225
H25 H 0.1294 -0.0027 -0.2677
C13 C 0.02842(19) -0.12718(12) -0.32570(18)
H26 H -0.0436 -0.1298 -0.3465
H27 H 0.0437 -0.1845 -0.2748
H28 H 0.0680 -0.1426 -0.3822
C14 C -0.14282(13) 0.26803(12) -0.41928(12)
H29 H -0.1924 0.2064 -0.4332
H30 H -0.0823 0.2511 -0.4552
C15 C -0.1890(2) 0.3823(2) -0.45607(18)
H31 H -0.2512 0.3968 -0.4235
H32 H -0.2042 0.3786 -0.5273
H33 H -0.1407 0.4436 -0.4406
C16 C -0.19762(14) 0.27816(17) -0.24173(15)
H34 H -0.2444 0.3403 -0.2627
H35 H -0.1689 0.2954 -0.1744
C17 C -0.25653(17) 0.1648(2) -0.24087(15)
H36 H -0.2830 0.1464 -0.3078
H37 H -0.3126 0.1722 -0.1983
H38 H -0.2113 0.1042 -0.2159
loop_
_geom_bond_atom_site_label_1
_geom_bond_atom_site_label_2
_geom_bond_site_symmetry_1
_geom_bond_site_symmetry_2
N1 C1 1_555 1_555
N2 C1 1_555 1_555
N3 C1 1_555 1_555
C2 N1 1_555 1_555
H1 C2 1_555 1_555
H2 C2 1_555 1_555
C3 C2 1_555 1_555
H3 C3 1_555 1_555
H4 C3 1_555 1_555
C4 C3 1_555 1_555
H5 C4 1_555 1_555
H6 C4 1_555 1_555
H7 C4 1_555 1_555
C5 N1 1_555 1_555
H8 C5 1_555 1_555
H9 C5 1_555 1_555
C6 C5 1_555 1_555
H10 C6 1_555 1_555
H11 C6 1_555 1_555
C7 C6 1_555 1_555
H12 C7 1_555 1_555
H13 C7 1_555 1_555
H14 C7 1_555 1_555
C8 N2 1_555 1_555
H15 C8 1_555 1_555
H16 C8 1_555 1_555
C9 C8 1_555 1_555
H17 C9 1_555 1_555
H18 C9 1_555 1_555
C10 C9 1_555 1_555
H19 C10 1_555 1_555
H20 C10 1_555 1_555
H21 C10 1_555 1_555
C11 N2 1_555 1_555
H22 C11 1_555 1_555
H23 C11 1_555 1_555
C12 C11 1_555 1_555
H24 C12 1_555 1_555
H25 C12 1_555 1_555
C13 C12 1_555 1_555
H26 C13 1_555 1_555
H27 C13 1_555 1_555
H28 C13 1_555 1_555
C14 N3 1_555 1_555
H29 C14 1_555 1_555
H30 C14 1_555 1_555
C15 C14 1_555 1_555
H31 C15 1_555 1_555
H32 C15 1_555 1_555
H33 C15 1_555 1_555
C16 N3 1_555 1_555
H34 C16 1_555 1_555
H35 C16 1_555 1_555
C17 C16 1_555 1_555
H36 C17 1_555 1_555
H37 C17 1_555 1_555
H38 C17 1_555 1_555

#END
