
#######################################################################
#
#                 Cambridge Crystallographic Data Centre
#                                CCDC 
#
#######################################################################
#
# If this CIF has been generated from an entry in the Cambridge 
# Structural Database, then it will include bibliographic, chemical, 
# crystal, experimental, refinement or atomic coordinate data resulting 
# from the CCDC's data processing and validation procedures.
#
#######################################################################

data_YUYYEY
_chemical_formula_moiety         'C14 H20 O4'
_chemical_name_systematic        
'ethyl (7-oxo-11-oxatricyclo[6.2.1.0^1,5^]undec-8-yl)acetate'
_symmetry_cell_setting           triclinic
_symmetry_space_group_name_H-M   'P -1'
_symmetry_Int_Tables_number      2
_space_group_name_Hall           '-P 1'
loop_
_symmetry_equiv_pos_site_id
_symmetry_equiv_pos_as_xyz
1 x,y,z
2 -x,-y,-z
_cell_length_a                   9.6767(2)
_cell_length_b                   15.9878(3)
_cell_length_c                   18.2358(13)
_cell_angle_alpha                104.367(7)
_cell_angle_beta                 100.946(7)
_cell_angle_gamma                93.844(7)
_cell_volume                     2663.89
_exptl_crystal_colour            colorless
_exptl_crystal_description       prism
_cell_formula_units_Z            8
loop_
_atom_site_label
_atom_site_type_symbol
_atom_site_fract_x
_atom_site_fract_y
_atom_site_fract_z
O1 O 0.35942(14) 0.87820(7) 0.24225(7)
O2 O 0.45494(15) 1.13128(8) 0.16717(8)
O3 O 0.23122(17) 1.10508(10) 0.17586(10)
O4 O 0.45675(18) 1.09228(9) 0.33947(9)
C1 C 0.2527(3) 0.74588(13) 0.36646(13)
H1 H 0.3150 0.7083 0.3871
H2 H 0.1553 0.7222 0.3613
C2 C 0.2793(3) 0.75199(12) 0.28749(13)
H3 H 0.3699 0.7329 0.2800
H4 H 0.2049 0.7170 0.2456
C3 C 0.27880(19) 0.84809(10) 0.29148(10)
C4 C 0.32469(18) 0.96565(10) 0.24752(9)
C5 C 0.3858(2) 0.99600(11) 0.18631(11)
H5 H 0.4883 0.9990 0.1996
H6 H 0.3528 0.9530 0.1369
C6 C 0.3472(2) 1.08282(11) 0.17732(10)
C7 C 0.4280(3) 1.21610(12) 0.15618(13)
H7 H 0.5155 1.2554 0.1747
H8 H 0.3606 1.2394 0.1867
C8 C 0.3715(3) 1.21179(14) 0.07431(14)
H9 H 0.4356 1.1860 0.0435
H10 H 0.3614 1.2694 0.0690
H11 H 0.2807 1.1771 0.0570
C9 C 0.2828(3) 0.83883(14) 0.42069(12)
H12 H 0.1957 0.8610 0.4312
H13 H 0.3459 0.8405 0.4694
C10 C 0.3528(2) 0.89068(12) 0.37539(11)
H14 H 0.4517 0.8787 0.3810
C11 C 0.3888(2) 1.02285(11) 0.32940(10)
C12 C 0.3543(3) 0.98892(12) 0.39498(11)
H15 H 0.2624 1.0041 0.4038
H16 H 0.4246 1.0157 0.4421
C13 C 0.16265(19) 0.95581(12) 0.23786(10)
H17 H 0.1156 0.9459 0.1840
H18 H 0.1318 1.0070 0.2686
C14 C 0.1329(2) 0.87572(12) 0.26763(11)
H19 H 0.0877 0.8907 0.3115
H20 H 0.0722 0.8296 0.2271
O5 O 0.15570(13) 0.35300(7) 0.49686(7)
O6 O 0.10688(17) 0.10401(9) 0.58548(8)
O7 O 0.09392(19) 0.14086(9) 0.40315(8)
O8 O 0.31280(18) 0.12804(10) 0.55162(9)
C15 C 0.2418(3) 0.49051(14) 0.37246(14)
H21 H 0.3347 0.5226 0.3811
H22 H 0.1717 0.5210 0.3476
C16 C 0.2092(3) 0.48202(12) 0.44961(14)
H23 H 0.2722 0.5235 0.4931
H24 H 0.1119 0.4912 0.4519
C17 C 0.2343(2) 0.38900(11) 0.44969(10)
C18 C 0.21152(18) 0.27119(10) 0.49665(9)
C19 C 0.1542(2) 0.23651(12) 0.55670(11)
H25 H 0.1844 0.2787 0.6068
H26 H 0.0514 0.2300 0.5433
C20 C 0.2017(2) 0.15120(12) 0.56326(10)
C21 C 0.1397(3) 0.01790(14) 0.59140(14)
H27 H 0.1944 -0.0052 0.5532
H28 H 0.0519 -0.0206 0.5795
C22 C 0.2193(3) 0.01896(15) 0.66831(14)
H29 H 0.3075 0.0558 0.6799
H30 H 0.2379 -0.0390 0.6693
H31 H 0.1649 0.0408 0.7063
C23 C 0.2375(3) 0.39764(14) 0.32142(12)
H32 H 0.1777 0.3899 0.2705
H33 H 0.3320 0.3847 0.3155
C24 C 0.1607(2) 0.21068(11) 0.41465(10)
C25 C 0.2000(3) 0.24500(12) 0.35025(10)
H34 H 0.1420 0.2119 0.3007
H35 H 0.2986 0.2392 0.3488
C26 C 0.1760(2) 0.34009(12) 0.36502(10)
H36 H 0.0733 0.3419 0.3548
C27 C 0.3718(2) 0.29648(13) 0.51258(11)
H37 H 0.4178 0.2494 0.4863
H38 H 0.4127 0.3115 0.5677
C28 C 0.3863(2) 0.37564(13) 0.48018(11)
H39 H 0.4349 0.4263 0.5205
H40 H 0.4382 0.3643 0.4389
O9 O 0.64197(17) 0.35661(9) 0.34113(9)
O10 O 0.64710(13) 0.61382(7) 0.26307(7)
O11 O 0.83989(19) 0.39079(11) 0.30303(10)
O12 O 0.5854(2) 0.40158(9) 0.16325(10)
C29 C 0.7644(3) 0.27510(17) 0.42266(15)
H41 H 0.8482 0.3160 0.4354
H42 H 0.7907 0.2185 0.4237
H43 H 0.7065 0.2929 0.4597
C30 C 0.6849(3) 0.27192(14) 0.34545(15)
H44 H 0.6013 0.2297 0.3322
H45 H 0.7431 0.2531 0.3080
C31 C 0.7286(2) 0.40888(12) 0.31811(10)
C32 C 0.6715(2) 0.49357(12) 0.31709(11)
H46 H 0.7092 0.5351 0.3669
H47 H 0.5693 0.4848 0.3105
C33 C 0.70668(18) 0.53223(10) 0.25365(9)
C34 C 0.70443(19) 0.65351(10) 0.21037(10)
C35 C 0.6246(2) 0.60866(11) 0.12831(10)
H48 H 0.5233 0.6104 0.1273
C36 C 0.6675(2) 0.66918(13) 0.08185(11)
H49 H 0.5944 0.6646 0.0361
H50 H 0.7556 0.6561 0.0661
C37 C 0.6855(3) 0.76063(13) 0.13868(13)
H51 H 0.7763 0.7920 0.1411
H52 H 0.6109 0.7937 0.1219
C38 C 0.6772(3) 0.74736(12) 0.21809(13)
H53 H 0.7487 0.7867 0.2588
H54 H 0.5844 0.7564 0.2293
C39 C 0.6491(3) 0.51345(11) 0.10595(10)
H55 H 0.5782 0.4821 0.0605
H56 H 0.7418 0.5087 0.0935
C40 C 0.6398(2) 0.47410(11) 0.17228(11)
C41 C 0.8606(2) 0.63937(12) 0.22642(11)
H57 H 0.9171 0.6894 0.2644
H58 H 0.8968 0.6292 0.1793
C42 C 0.86317(19) 0.55875(12) 0.25783(10)
H59 H 0.9034 0.5128 0.2259
H60 H 0.9173 0.5728 0.3107
O13 O 0.77089(16) 0.41661(9) -0.08332(10)
O14 O 0.71394(13) 0.16978(7) 0.00530(7)
O15 O 0.96258(17) 0.34866(10) -0.07249(10)
O16 O 0.88518(18) 0.37429(8) 0.09665(8)
C43 C 0.7565(4) 0.5360(3) -0.1340(3)
H61 H 0.6999 0.5026 -0.1830
H62 H 0.8093 0.5853 -0.1412
H63 H 0.6958 0.5556 -0.0989
C44 C 0.8490(3) 0.48498(16) -0.10392(18)
H64 H 0.9153 0.5206 -0.0583
H65 H 0.9026 0.4594 -0.1419
C45 C 0.8406(2) 0.35246(12) -0.06863(11)
C46 C 0.7457(2) 0.28466(12) -0.05245(12)
H66 H 0.7019 0.2427 -0.1011
H67 H 0.6706 0.3122 -0.0310
C47 C 0.81906(17) 0.23645(10) 0.00282(9)
C48 C 0.87521(19) 0.29590(10) 0.08475(10)
C49 C 0.9234(2) 0.25127(11) 0.14728(10)
H68 H 0.9209 0.2894 0.1974
H69 H 1.0204 0.2391 0.1477
C50 C 0.8284(2) 0.16699(11) 0.13334(10)
H70 H 0.7386 0.1828 0.1469
C51 C 0.8748(3) 0.09826(13) 0.17399(12)
H71 H 0.8536 0.1109 0.2252
H72 H 0.9758 0.0950 0.1788
C52 C 0.7885(3) 0.01259(14) 0.12140(14)
H73 H 0.8509 -0.0312 0.1083
H74 H 0.7211 -0.0093 0.1474
C53 C 0.7107(3) 0.03431(12) 0.04811(13)
H75 H 0.7113 -0.0117 0.0021
H76 H 0.6133 0.0430 0.0507
C54 C 0.79438(19) 0.11766(10) 0.04784(10)
C55 C 0.9406(2) 0.18644(11) -0.02052(10)
H77 H 1.0318 0.2210 0.0027
H78 H 0.9298 0.1689 -0.0764
C56 C 0.9243(2) 0.10685(11) 0.01207(11)
H79 H 0.9101 0.0532 -0.0290
H80 H 1.0078 0.1062 0.0509
loop_
_geom_bond_atom_site_label_1
_geom_bond_atom_site_label_2
_geom_bond_site_symmetry_1
_geom_bond_site_symmetry_2
O1 C3 1_555 1_555
O2 C6 1_555 1_555
O3 C6 1_555 1_555
O4 C11 1_555 1_555
C1 H1 1_555 1_555
H2 C1 1_555 1_555
C2 C1 1_555 1_555
H3 C2 1_555 1_555
H4 C2 1_555 1_555
C3 C2 1_555 1_555
C4 O1 1_555 1_555
C5 C4 1_555 1_555
H5 C5 1_555 1_555
H6 C5 1_555 1_555
C6 C5 1_555 1_555
C7 O2 1_555 1_555
H7 C7 1_555 1_555
H8 C7 1_555 1_555
C8 C7 1_555 1_555
H9 C8 1_555 1_555
H10 C8 1_555 1_555
H11 C8 1_555 1_555
C9 C1 1_555 1_555
H12 C9 1_555 1_555
H13 C9 1_555 1_555
C10 C3 1_555 1_555
H14 C10 1_555 1_555
C11 C4 1_555 1_555
C12 C10 1_555 1_555
H15 C12 1_555 1_555
H16 C12 1_555 1_555
C13 C4 1_555 1_555
H17 C13 1_555 1_555
H18 C13 1_555 1_555
C14 C3 1_555 1_555
H19 C14 1_555 1_555
H20 C14 1_555 1_555
O5 C17 1_555 1_555
O6 C20 1_555 1_555
O7 C24 1_555 1_555
O8 C20 1_555 1_555
C15 H21 1_555 1_555
H22 C15 1_555 1_555
C16 C15 1_555 1_555
H23 C16 1_555 1_555
H24 C16 1_555 1_555
C17 C16 1_555 1_555
C18 O5 1_555 1_555
C19 C18 1_555 1_555
H25 C19 1_555 1_555
H26 C19 1_555 1_555
C20 C19 1_555 1_555
C21 O6 1_555 1_555
H27 C21 1_555 1_555
H28 C21 1_555 1_555
C22 C21 1_555 1_555
H29 C22 1_555 1_555
H30 C22 1_555 1_555
H31 C22 1_555 1_555
C23 C15 1_555 1_555
H32 C23 1_555 1_555
H33 C23 1_555 1_555
C24 C18 1_555 1_555
C25 C24 1_555 1_555
H34 C25 1_555 1_555
H35 C25 1_555 1_555
C26 C17 1_555 1_555
H36 C26 1_555 1_555
C27 C18 1_555 1_555
H37 C27 1_555 1_555
H38 C27 1_555 1_555
C28 C17 1_555 1_555
H39 C28 1_555 1_555
H40 C28 1_555 1_555
O9 C30 1_555 1_555
O10 C33 1_555 1_555
O11 C31 1_555 1_555
O12 C40 1_555 1_555
C29 H41 1_555 1_555
H42 C29 1_555 1_555
H43 C29 1_555 1_555
C30 C29 1_555 1_555
H44 C30 1_555 1_555
H45 C30 1_555 1_555
C31 O9 1_555 1_555
C32 C31 1_555 1_555
H46 C32 1_555 1_555
H47 C32 1_555 1_555
C33 C32 1_555 1_555
C34 O10 1_555 1_555
C35 C34 1_555 1_555
H48 C35 1_555 1_555
C36 C35 1_555 1_555
H49 C36 1_555 1_555
H50 C36 1_555 1_555
C37 C36 1_555 1_555
H51 C37 1_555 1_555
H52 C37 1_555 1_555
C38 C34 1_555 1_555
H53 C38 1_555 1_555
H54 C38 1_555 1_555
C39 C35 1_555 1_555
H55 C39 1_555 1_555
H56 C39 1_555 1_555
C40 C33 1_555 1_555
C41 C34 1_555 1_555
H57 C41 1_555 1_555
H58 C41 1_555 1_555
C42 C33 1_555 1_555
H59 C42 1_555 1_555
H60 C42 1_555 1_555
O13 C44 1_555 1_555
O14 C47 1_555 1_555
O15 C45 1_555 1_555
O16 C48 1_555 1_555
C43 H61 1_555 1_555
H62 C43 1_555 1_555
H63 C43 1_555 1_555
C44 C43 1_555 1_555
H64 C44 1_555 1_555
H65 C44 1_555 1_555
C45 O13 1_555 1_555
C46 C45 1_555 1_555
H66 C46 1_555 1_555
H67 C46 1_555 1_555
C47 C46 1_555 1_555
C48 C47 1_555 1_555
C49 C48 1_555 1_555
H68 C49 1_555 1_555
H69 C49 1_555 1_555
C50 C49 1_555 1_555
H70 C50 1_555 1_555
C51 C50 1_555 1_555
H71 C51 1_555 1_555
H72 C51 1_555 1_555
C52 C51 1_555 1_555
H73 C52 1_555 1_555
H74 C52 1_555 1_555
C53 C52 1_555 1_555
H75 C53 1_555 1_555
H76 C53 1_555 1_555
C54 O14 1_555 1_555
C55 C47 1_555 1_555
H77 C55 1_555 1_555
H78 C55 1_555 1_555
C56 C54 1_555 1_555
H79 C56 1_555 1_555
H80 C56 1_555 1_555
C9 C10 1_555 1_555
C11 C12 1_555 1_555
C13 C14 1_555 1_555
C23 C26 1_555 1_555
C25 C26 1_555 1_555
C27 C28 1_555 1_555
C37 C38 1_555 1_555
C39 C40 1_555 1_555
C41 C42 1_555 1_555
C50 C54 1_555 1_555
C53 C54 1_555 1_555
C55 C56 1_555 1_555

#END
