
#######################################################################
#
#                 Cambridge Crystallographic Data Centre
#                                CCDC 
#
#######################################################################
#
# If this CIF has been generated from an entry in the Cambridge 
# Structural Database, then it will include bibliographic, chemical, 
# crystal, experimental, refinement or atomic coordinate data resulting 
# from the CCDC's data processing and validation procedures.
#
#######################################################################

data_YUZDII03
_chemical_formula_moiety         'C6 H13 N2 1+,F6 P1 1-,H2 O1'
_chemical_name_systematic        
'4-aza-1-azoniabicyclo[2.2.2]octane hexafluorophosphate monohydrate'
_symmetry_cell_setting           orthorhombic
_symmetry_space_group_name_H-M   'P n m a'
_symmetry_Int_Tables_number      62
_space_group_name_Hall           '-P 2ac 2n'
loop_
_symmetry_equiv_pos_site_id
_symmetry_equiv_pos_as_xyz
1 x,y,z
2 1/2-x,-y,1/2+z
3 1/2+x,1/2-y,1/2-z
4 -x,1/2+y,-z
5 -x,-y,-z
6 1/2+x,y,1/2-z
7 1/2-x,1/2+y,1/2+z
8 x,1/2-y,z
_cell_length_a                   11.840(7)
_cell_length_b                   8.999(6)
_cell_length_c                   10.167(6)
_cell_angle_alpha                90
_cell_angle_beta                 90
_cell_angle_gamma                90
_cell_volume                     1083.28
_exptl_crystal_colour            colorless
_exptl_crystal_description       Columnar
_cell_formula_units_Z            4
loop_
_atom_site_label
_atom_site_type_symbol
_atom_site_fract_x
_atom_site_fract_y
_atom_site_fract_z
C1 C 0.2566(3) 0.2500 0.4795(3)
H1 H 0.2445 0.3374 0.5335
C2 C 0.3919(2) 0.1166(3) 0.3455(3)
H2 H 0.3814 0.0279 0.3982
H3 H 0.4686 0.1164 0.3118
C3 C 0.3087(2) 0.1175(2) 0.2322(2)
H4 H 0.3496 0.1164 0.1496
H5 H 0.2624 0.0287 0.2361
C4 C 0.1743(2) 0.2500 0.3639(3)
H6 H 0.1264 0.1628 0.3689
N1 N 0.37330(18) 0.2500 0.4271(2)
H7 H 0.4307 0.2500 0.4932
N2 N 0.2355(2) 0.2500 0.2375(2)
H1G H 0.2445 0.1626 0.5335
H6G H 0.1264 0.3372 0.3689
C2G C 0.3919(2) 0.3834(3) 0.3455(3)
H2G H 0.3814 0.4721 0.3982
H3G H 0.4686 0.3836 0.3118
C3G C 0.3087(2) 0.3825(2) 0.2322(2)
H4G H 0.3496 0.3836 0.1496
H5G H 0.2624 0.4713 0.2361
F1 F 0.07873(13) 0.62691(16) 0.20562(15)
F2 F 0.19367(19) 0.7500 0.3427(3)
F3 F 0.0448(2) 0.6258(2) 0.42521(19)
F4 F -0.07002(16) 0.7500 0.2880(3)
P1 P 0.06138(6) 0.7500 0.31838(7)
F1G F 0.07873(13) 0.87309(16) 0.20562(15)
F3G F 0.0448(2) 0.8742(2) 0.42521(19)
O1 O 0.1026(2) 0.2500 0.0063(2)
H10 H 0.1422 0.2500 -0.0627
H11 H 0.1435 0.2500 0.0684
H8? H 0.2445 0.3374 0.5335
H9? H 0.1264 0.1628 0.3689
loop_
_geom_bond_atom_site_label_1
_geom_bond_atom_site_label_2
_geom_bond_site_symmetry_1
_geom_bond_site_symmetry_2
C1 H1 1_555 1_555
C2 H2 1_555 1_555
H3 C2 1_555 1_555
C3 C2 1_555 1_555
H4 C3 1_555 1_555
H5 C3 1_555 1_555
C4 C1 1_555 1_555
H6 C4 1_555 1_555
N1 C1 1_555 1_555
H7 N1 1_555 1_555
N2 C3 1_555 1_555
F1 P1 1_555 1_555
F2 P1 1_555 1_555
F3 P1 1_555 1_555
F4 P1 1_555 1_555
P1 F1G 1_555 1_555
O1 H10 1_555 1_555
H11 O1 1_555 1_555
H1G C1 1_555 1_555
H6G C4 1_555 1_555
C2G N1 1_555 1_555
H2G C2G 1_555 1_555
H3G C2G 1_555 1_555
C3G N2 1_555 1_555
H4G C3G 1_555 1_555
H5G C3G 1_555 1_555
F3G P1 1_555 1_555
C2 N1 1_555 1_555
C4 N2 1_555 1_555
C2G C3G 1_555 1_555

#END
