
#######################################################################
#
#                 Cambridge Crystallographic Data Centre
#                                CCDC 
#
#######################################################################
#
# If this CIF has been generated from an entry in the Cambridge 
# Structural Database, then it will include bibliographic, chemical, 
# crystal, experimental, refinement or atomic coordinate data resulting 
# from the CCDC's data processing and validation procedures.
#
#######################################################################

data_ZABPEA
_chemical_formula_moiety         'C24 H21 Br1 O2 S1'
_chemical_name_systematic        
4-(bromomethylene)-2-((4-methylphenyl)sulfonyl)-1-phenyl-1,2,3,4-tetrahydronaphthalene
_symmetry_cell_setting           triclinic
_symmetry_space_group_name_H-M   'P -1'
_symmetry_Int_Tables_number      2
_space_group_name_Hall           '-P 1'
loop_
_symmetry_equiv_pos_site_id
_symmetry_equiv_pos_as_xyz
1 x,y,z
2 -x,-y,-z
_cell_length_a                   9.8120(4)
_cell_length_b                   10.5329(5)
_cell_length_c                   11.5586(6)
_cell_angle_alpha                97.807(2)
_cell_angle_beta                 101.735(2)
_cell_angle_gamma                116.313(2)
_cell_volume                     1013.06
_exptl_crystal_colour            colorless
_cell_formula_units_Z            2
loop_
_atom_site_label
_atom_site_type_symbol
_atom_site_fract_x
_atom_site_fract_y
_atom_site_fract_z
Br1 Br 0.79197(4) 0.47054(4) 1.15371(3)
S1 S 0.81295(8) 0.70429(7) 0.81591(6)
O1 O 0.6882(2) 0.6887(2) 0.86898(19)
O2 O 0.8231(3) 0.7651(2) 0.71196(18)
C1 C 1.4430(4) 1.0788(4) 1.2077(3)
H1 H 1.4950 1.0223 1.2270
H2 H 1.4245 1.1168 1.2797
H3 H 1.5094 1.1585 1.1788
C2 C 1.2872(3) 0.9830(3) 1.1105(3)
C3 C 1.1476(3) 0.9118(3) 1.1402(3)
H4 H 1.1511 0.9219 1.2221
C4 C 1.0030(3) 0.8262(3) 1.0512(2)
H5 H 0.9102 0.7793 1.0731
C5 C 0.9971(3) 0.8107(3) 0.9304(2)
C6 C 0.8012(3) 0.5280(3) 0.7712(2)
H6 H 0.9000 0.5457 0.7522
C7 C 0.6637(3) 0.4340(3) 0.6530(2)
H7 H 0.6537 0.5010 0.6050
C8 C 0.7071(3) 0.3351(3) 0.5784(2)
C9 C 0.7830(4) 0.3832(3) 0.4918(3)
H8 H 0.8021 0.4733 0.4771
C10 C 0.8305(4) 0.2984(4) 0.4276(3)
H9 H 0.8828 0.3326 0.3707
C11 C 0.8015(4) 0.1648(4) 0.4464(3)
H10 H 0.8349 0.1088 0.4032
C12 C 0.2050(4) 0.1813(4) 0.6989(3)
H11 H 0.1047 0.1240 0.7068
C13 C 0.2199(4) 0.2080(4) 0.5874(3)
H12 H 0.1301 0.1709 0.5202
C14 C 0.3693(3) 0.2902(3) 0.5767(3)
H13 H 0.3798 0.3065 0.5011
C15 C 0.5050(3) 0.3494(3) 0.6763(2)
C16 C 1.2779(3) 0.9660(3) 0.9882(3)
H14 H 1.3704 1.0131 0.9662
C17 C 1.1352(3) 0.8811(3) 0.8981(3)
H15 H 1.1315 0.8710 0.8161
C18 C 0.7916(3) 0.4500(3) 0.8736(2)
H16 H 0.8131 0.3698 0.8524
H17 H 0.8737 0.5181 0.9480
C19 C 0.6326(3) 0.3905(3) 0.8980(2)
C20 C 0.4907(3) 0.3262(3) 0.7904(2)
C21 C 0.3374(3) 0.2390(3) 0.7984(3)
H18 H 0.3253 0.2198 0.8730
C22 C 0.6192(3) 0.3952(3) 1.0103(3)
H19 H 0.5174 0.3589 1.0189
C23 C 0.7235(4) 0.1141(3) 0.5288(3)
H20 H 0.7019 0.0224 0.5409
C24 C 0.6761(4) 0.1990(3) 0.5946(3)
H21 H 0.6225 0.1633 0.6506
loop_
_geom_bond_atom_site_label_1
_geom_bond_atom_site_label_2
_geom_bond_site_symmetry_1
_geom_bond_site_symmetry_2
Br1 C22 1_555 1_555
S1 O1 1_555 1_555
O2 S1 1_555 1_555
C1 H1 1_555 1_555
H2 C1 1_555 1_555
H3 C1 1_555 1_555
C2 C1 1_555 1_555
C3 C2 1_555 1_555
H4 C3 1_555 1_555
C4 C3 1_555 1_555
H5 C4 1_555 1_555
C5 S1 1_555 1_555
C6 S1 1_555 1_555
H6 C6 1_555 1_555
C7 C6 1_555 1_555
H7 C7 1_555 1_555
C8 C7 1_555 1_555
C9 C8 1_555 1_555
H8 C9 1_555 1_555
C10 C9 1_555 1_555
H9 C10 1_555 1_555
C11 C10 1_555 1_555
H10 C11 1_555 1_555
C12 H11 1_555 1_555
C13 C12 1_555 1_555
H12 C13 1_555 1_555
C14 C13 1_555 1_555
H13 C14 1_555 1_555
C15 C7 1_555 1_555
C16 C2 1_555 1_555
H14 C16 1_555 1_555
C17 C5 1_555 1_555
H15 C17 1_555 1_555
C18 C6 1_555 1_555
H16 C18 1_555 1_555
H17 C18 1_555 1_555
C19 C18 1_555 1_555
C20 C15 1_555 1_555
C21 C12 1_555 1_555
H18 C21 1_555 1_555
C22 C19 1_555 1_555
H19 C22 1_555 1_555
C23 C11 1_555 1_555
H20 C23 1_555 1_555
C24 C8 1_555 1_555
H21 C24 1_555 1_555
C4 C5 1_555 1_555
C14 C15 1_555 1_555
C16 C17 1_555 1_555
C19 C20 1_555 1_555
C20 C21 1_555 1_555
C23 C24 1_555 1_555

#END
