
#######################################################################
#
#                 Cambridge Crystallographic Data Centre
#                                CCDC 
#
#######################################################################
#
# If this CIF has been generated from an entry in the Cambridge 
# Structural Database, then it will include bibliographic, chemical, 
# crystal, experimental, refinement or atomic coordinate data resulting 
# from the CCDC's data processing and validation procedures.
#
#######################################################################

data_ZAFZEO
_chemical_formula_moiety         'C38 H56 N3 O2 P1 Si2'
_chemical_name_systematic        
(1,3-diisopropyl-4,5-dimethylimidazol-2-ylidene)-((diphenylphosphino)oxy)-((2,6-diisopropylphenyl)imido)-(trimethylsiloxy)-silicon
_symmetry_cell_setting           monoclinic
_symmetry_space_group_name_H-M   'P 21/c'
_symmetry_Int_Tables_number      14
_space_group_name_Hall           '-P 2ybc'
loop_
_symmetry_equiv_pos_site_id
_symmetry_equiv_pos_as_xyz
1 x,y,z
2 -x,1/2+y,1/2-z
3 -x,-y,-z
4 x,1/2-y,1/2+z
_cell_length_a                   20.049(9)
_cell_length_b                   10.006(4)
_cell_length_c                   19.544(9)
_cell_angle_alpha                90
_cell_angle_beta                 103.212(7)
_cell_angle_gamma                90
_cell_volume                     3816.95
_exptl_crystal_colour            colorless
_exptl_crystal_description       Prism
_cell_formula_units_Z            4
loop_
_atom_site_label
_atom_site_type_symbol
_atom_site_fract_x
_atom_site_fract_y
_atom_site_fract_z
P1 P 0.34830(4) 0.88666(8) 0.09957(4)
Si1 Si 0.26393(4) 0.91208(8) 0.20957(4)
Si2 Si 0.33754(4) 0.80294(8) 0.35085(4)
N1 N 0.21820(11) 0.7817(2) 0.18750(12)
N2 N 0.16346(12) 1.0911(2) 0.12982(12)
N3 N 0.20255(12) 1.1772(2) 0.23339(13)
O1 O 0.30583(10) 0.91800(19) 0.29227(11)
O2 O 0.32499(10) 0.9466(2) 0.16742(10)
C1 C 0.15474(14) 0.7281(3) 0.16100(15)
C2 C 0.14460(15) 0.6435(3) 0.10014(15)
C3 C 0.07886(17) 0.5987(3) 0.06940(16)
H1 H 0.0721 0.5475 0.0275
C4 C 0.02293(17) 0.6258(3) 0.09742(17)
H2 H -0.0214 0.5943 0.0751
C5 C 0.03295(16) 0.6995(3) 0.15863(18)
H3 H -0.0050 0.7169 0.1789
C6 C 0.09740(14) 0.7494(3) 0.19153(15)
C7 C 0.20627(17) 0.6083(3) 0.07151(17)
H4 H 0.2333 0.6921 0.0710
C8 C 0.1883(2) 0.5537(4) -0.0035(2)
H5 H 0.1636 0.4689 -0.0043
H6 H 0.2304 0.5390 -0.0198
H7 H 0.1592 0.6182 -0.0344
C9 C 0.25211(18) 0.5093(3) 0.1205(2)
H8 H 0.2641 0.5461 0.1682
H9 H 0.2940 0.4938 0.1039
H10 H 0.2276 0.4246 0.1208
C10 C 0.10353(15) 0.8263(3) 0.25953(16)
H11 H 0.1529 0.8495 0.2779
C11 C 0.08039(18) 0.7411(3) 0.31522(18)
H12 H 0.0320 0.7170 0.2983
H13 H 0.0862 0.7922 0.3589
H14 H 0.1082 0.6596 0.3239
C12 C 0.06270(17) 0.9560(3) 0.2486(2)
H15 H 0.0783 1.0114 0.2140
H16 H 0.0696 1.0043 0.2932
H17 H 0.0139 0.9356 0.2314
C13 C 0.21052(14) 1.0738(3) 0.19074(15)
C14 C 0.12396(14) 1.2053(3) 0.13456(16)
C15 C 0.14880(14) 1.2582(3) 0.19937(16)
C16 C 0.16153(15) 1.0137(3) 0.06562(15)
H18 H 0.1925 0.9353 0.0804
C17 C 0.19282(17) 1.0924(4) 0.01345(17)
H19 H 0.1623 1.1663 -0.0061
H20 H 0.1988 1.0331 -0.0246
H21 H 0.2375 1.1282 0.0377
C18 C 0.09170(15) 0.9554(3) 0.03158(17)
H22 H 0.0706 0.9186 0.0680
H23 H 0.0972 0.8843 -0.0011
H24 H 0.0623 1.0259 0.0059
C19 C 0.06450(16) 1.2493(3) 0.07918(18)
H25 H 0.0278 1.1828 0.0739
H26 H 0.0785 1.2589 0.0345
H27 H 0.0479 1.3355 0.0924
C20 C 0.12449(16) 1.3816(3) 0.22961(17)
H28 H 0.1579 1.4535 0.2309
H29 H 0.1194 1.3630 0.2774
H30 H 0.0802 1.4090 0.2003
C21 C 0.24697(16) 1.1968(3) 0.30412(16)
H31 H 0.2860 1.1327 0.3085
C22 C 0.2097(2) 1.1595(4) 0.36079(18)
H32 H 0.1683 1.2142 0.3556
H33 H 0.2397 1.1753 0.4072
H34 H 0.1969 1.0648 0.3562
C23 C 0.27805(18) 1.3363(3) 0.3134(2)
H35 H 0.2941 1.3608 0.2714
H36 H 0.3167 1.3373 0.3545
H37 H 0.2433 1.4005 0.3205
C24 C 0.26866(17) 0.6995(3) 0.37152(18)
H38 H 0.2387 0.7555 0.3926
H39 H 0.2888 0.6290 0.4047
H40 H 0.2419 0.6589 0.3283
C25 C 0.39898(18) 0.6958(4) 0.31821(18)
H41 H 0.3752 0.6500 0.2752
H42 H 0.4184 0.6293 0.3541
H43 H 0.4359 0.7512 0.3081
C26 C 0.38206(17) 0.8964(3) 0.43072(17)
H44 H 0.4193 0.9497 0.4198
H45 H 0.4009 0.8330 0.4684
H46 H 0.3494 0.9557 0.4460
C27 C 0.43019(15) 0.8082(3) 0.14145(15)
C28 C 0.43793(17) 0.6725(3) 0.13143(17)
H47 H 0.4017 0.6234 0.1023
C29 C 0.49813(19) 0.6077(3) 0.16354(19)
H48 H 0.5027 0.5145 0.1563
C30 C 0.55119(17) 0.6765(4) 0.20563(19)
H49 H 0.5924 0.6314 0.2271
C31 C 0.54432(16) 0.8127(3) 0.21662(18)
H50 H 0.5805 0.8611 0.2461
C32 C 0.48427(16) 0.8772(3) 0.18425(16)
H51 H 0.4799 0.9704 0.1914
C33 C 0.38187(14) 1.0400(3) 0.06773(16)
C34 C 0.37829(17) 1.1647(3) 0.09671(19)
H52 H 0.3591 1.1746 0.1366
C35 C 0.40268(18) 1.2757(4) 0.0676(2)
H53 H 0.4002 1.3614 0.0878
C36 C 0.43054(18) 1.2629(4) 0.0096(2)
H54 H 0.4471 1.3395 -0.0099
C37 C 0.43431(18) 1.1394(4) -0.01995(19)
H55 H 0.4536 1.1302 -0.0598
C38 C 0.40988(16) 1.0289(3) 0.00879(17)
H56 H 0.4122 0.9436 -0.0119
loop_
_geom_bond_atom_site_label_1
_geom_bond_atom_site_label_2
_geom_bond_site_symmetry_1
_geom_bond_site_symmetry_2
P1 O2 1_555 1_555
Si1 N1 1_555 1_555
Si2 O1 1_555 1_555
N1 C1 1_555 1_555
N2 C13 1_555 1_555
N3 C13 1_555 1_555
O1 Si1 1_555 1_555
O2 Si1 1_555 1_555
C1 C2 1_555 1_555
C2 C3 1_555 1_555
C3 H1 1_555 1_555
C4 C3 1_555 1_555
H2 C4 1_555 1_555
C5 C4 1_555 1_555
H3 C5 1_555 1_555
C6 C1 1_555 1_555
C7 C2 1_555 1_555
H4 C7 1_555 1_555
C8 C7 1_555 1_555
H5 C8 1_555 1_555
H6 C8 1_555 1_555
H7 C8 1_555 1_555
C9 C7 1_555 1_555
H8 C9 1_555 1_555
H9 C9 1_555 1_555
H10 C9 1_555 1_555
C10 C6 1_555 1_555
H11 C10 1_555 1_555
C11 C10 1_555 1_555
H12 C11 1_555 1_555
H13 C11 1_555 1_555
H14 C11 1_555 1_555
C12 C10 1_555 1_555
H15 C12 1_555 1_555
H16 C12 1_555 1_555
H17 C12 1_555 1_555
C13 Si1 1_555 1_555
C14 N2 1_555 1_555
C15 N3 1_555 1_555
C16 N2 1_555 1_555
H18 C16 1_555 1_555
C17 C16 1_555 1_555
H19 C17 1_555 1_555
H20 C17 1_555 1_555
H21 C17 1_555 1_555
C18 C16 1_555 1_555
H22 C18 1_555 1_555
H23 C18 1_555 1_555
H24 C18 1_555 1_555
C19 C14 1_555 1_555
H25 C19 1_555 1_555
H26 C19 1_555 1_555
H27 C19 1_555 1_555
C20 C15 1_555 1_555
H28 C20 1_555 1_555
H29 C20 1_555 1_555
H30 C20 1_555 1_555
C21 N3 1_555 1_555
H31 C21 1_555 1_555
C22 C21 1_555 1_555
H32 C22 1_555 1_555
H33 C22 1_555 1_555
H34 C22 1_555 1_555
C23 C21 1_555 1_555
H35 C23 1_555 1_555
H36 C23 1_555 1_555
H37 C23 1_555 1_555
C24 Si2 1_555 1_555
H38 C24 1_555 1_555
H39 C24 1_555 1_555
H40 C24 1_555 1_555
C25 Si2 1_555 1_555
H41 C25 1_555 1_555
H42 C25 1_555 1_555
H43 C25 1_555 1_555
C26 Si2 1_555 1_555
H44 C26 1_555 1_555
H45 C26 1_555 1_555
H46 C26 1_555 1_555
C27 P1 1_555 1_555
C28 C27 1_555 1_555
H47 C28 1_555 1_555
C29 C28 1_555 1_555
H48 C29 1_555 1_555
C30 C29 1_555 1_555
H49 C30 1_555 1_555
C31 C30 1_555 1_555
H50 C31 1_555 1_555
C32 C27 1_555 1_555
H51 C32 1_555 1_555
C33 P1 1_555 1_555
C34 C33 1_555 1_555
H52 C34 1_555 1_555
C35 C34 1_555 1_555
H53 C35 1_555 1_555
C36 C35 1_555 1_555
H54 C36 1_555 1_555
C37 C36 1_555 1_555
H55 C37 1_555 1_555
C38 C33 1_555 1_555
H56 C38 1_555 1_555
C5 C6 1_555 1_555
C14 C15 1_555 1_555
C31 C32 1_555 1_555
C37 C38 1_555 1_555

#END
