
#######################################################################
#
#                 Cambridge Crystallographic Data Centre
#                                CCDC 
#
#######################################################################
#
# If this CIF has been generated from an entry in the Cambridge 
# Structural Database, then it will include bibliographic, chemical, 
# crystal, experimental, refinement or atomic coordinate data resulting 
# from the CCDC's data processing and validation procedures.
#
#######################################################################

data_ZAGFUL
_chemical_formula_moiety         'C38 H27 N1 O7,2(H2 O1)'
_chemical_name_systematic        
"3'-(diethylamino)-11'-hydroxy-3H,3''H-dispiro[2-benzofuran-1,14'-chromeno[2,3-a]xanthene-8',1''-[2]benzofuran]-3,3''-dione dihydrate"
_symmetry_cell_setting           orthorhombic
_symmetry_space_group_name_H-M   'P 21 21 21'
_symmetry_Int_Tables_number      19
_space_group_name_Hall           'P 2ac 2ab'
loop_
_symmetry_equiv_pos_site_id
_symmetry_equiv_pos_as_xyz
1 x,y,z
2 1/2-x,-y,1/2+z
3 -x,1/2+y,1/2-z
4 1/2+x,1/2-y,-z
_cell_length_a                   8.3836(12)
_cell_length_b                   18.751(3)
_cell_length_c                   23.344(3)
_cell_angle_alpha                90
_cell_angle_beta                 90
_cell_angle_gamma                90
_cell_volume                     3669.7
_exptl_crystal_colour            'pale yellow'
_exptl_crystal_description       block
_cell_formula_units_Z            4
loop_
_atom_site_label
_atom_site_type_symbol
_atom_site_fract_x
_atom_site_fract_y
_atom_site_fract_z
O1 O 0.6405(4) 0.5692(2) 0.41431(15)
O2 O 0.4986(4) 0.65673(14) 0.37248(13)
O3 O 0.2394(5) 0.94174(15) 0.47160(13)
H1 H 0.2265 0.9374 0.5062
O4 O 0.3263(4) 0.81005(14) 0.30358(11)
O5 O 0.4960(4) 0.85202(14) 0.19362(13)
O6 O 0.6307(5) 0.94697(19) 0.22298(18)
O7 O 0.2682(5) 0.69704(14) 0.12248(11)
N1 N 0.2339(6) 0.81260(17) -0.05864(14)
C1 C 0.5070(7) 0.5921(2) 0.40076(19)
C2 C 0.3508(6) 0.5633(2) 0.40826(19)
C3 C 0.3120(8) 0.4978(3) 0.4339(2)
H2 H 0.3866 0.4652 0.4474
C4 C 0.1547(8) 0.4884(3) 0.4364(3)
H3 H 0.1200 0.4474 0.4550
C5 C 0.0357(8) 0.5327(3) 0.4144(3)
H4 H -0.0704 0.5182 0.4162
C6 C 0.0730(7) 0.5965(3) 0.3906(2)
H5 H -0.0040 0.6280 0.3772
C7 C 0.2425(5) 0.6117(2) 0.38761(17)
C8 C 0.3259(6) 0.6760(2) 0.3624(2)
C9 C 0.2902(6) 0.7454(2) 0.39166(18)
C10 C 0.2633(7) 0.7490(2) 0.45151(18)
H6 H 0.2568 0.7072 0.4728
C11 C 0.2468(7) 0.8137(2) 0.47845(18)
H7 H 0.2305 0.8154 0.5178
C12 C 0.2542(6) 0.8763(2) 0.44738(17)
C13 C 0.2798(7) 0.8731(2) 0.38828(19)
H8 H 0.2840 0.9148 0.3667
C14 C 0.2988(6) 0.8082(2) 0.36241(17)
C15 C 0.3111(5) 0.7493(2) 0.27232(18)
C16 C 0.3044(6) 0.6831(2) 0.29854(18)
C17 C 0.2807(7) 0.6248(2) 0.26394(18)
H9 H 0.2695 0.5802 0.2809
C18 C 0.2728(6) 0.6296(2) 0.20582(19)
H10 H 0.2650 0.5888 0.1834
C19 C 0.2767(7) 0.6979(2) 0.18031(17)
C20 C 0.3025(5) 0.75885(18) 0.21274(17)
C21 C 0.3235(5) 0.8312(2) 0.18474(17)
C22 C 0.2403(5) 0.89238(19) 0.21087(16)
C23 C 0.0702(6) 0.9044(2) 0.2157(2)
H11 H -0.0038 0.8706 0.2039
C24 C 0.0256(8) 0.9666(3) 0.2381(2)
H12 H -0.0822 0.9752 0.2443
C25 C 0.1362(7) 1.0193(3) 0.2525(2)
H13 H 0.0978 1.0625 0.2664
C26 C 0.2941(7) 1.0113(2) 0.2476(2)
H14 H 0.3661 1.0469 0.2576
C27 C 0.3431(6) 0.9441(2) 0.22592(19)
C28 C 0.5007(6) 0.9187(2) 0.2155(2)
C29 C 0.2910(6) 0.8254(2) 0.12153(16)
C30 C 0.2933(6) 0.8870(2) 0.08753(17)
H15 H 0.3084 0.9312 0.1047
C31 C 0.2736(6) 0.8830(2) 0.02907(18)
H16 H 0.2740 0.9248 0.0076
C32 C 0.2522(7) 0.8156(2) 0.00039(18)
C33 C 0.2522(6) 0.7552(2) 0.03513(18)
H17 H 0.2406 0.7103 0.0187
C34 C 0.2692(6) 0.7612(2) 0.09361(17)
C35 C 0.2673(6) 0.8768(2) -0.09425(19)
H18 H 0.3376 0.9094 -0.0742
H19 H 0.3167 0.8634 -0.1302
C36 C 0.1129(7) 0.9093(6) -0.1041(6)
H20 H 0.1264 0.9594 -0.1112
H21 H 0.0470 0.9028 -0.0708
H22 H 0.0630 0.8873 -0.1366
C37 C 0.1988(8) 0.7445(3) -0.0875(2)
H23 H 0.1364 0.7142 -0.0624
H24 H 0.1374 0.7533 -0.1220
C38 C 0.3475(8) 0.7096(4) -0.1019(3)
H25 H 0.4084 0.7398 -0.1269
H26 H 0.3256 0.6653 -0.1208
H27 H 0.4073 0.7007 -0.0676
O8 O 0.7696(16) 0.9139(15) 0.4047(4)
O9 O 0.7995(12) 0.7699(5) 0.3121(6)
loop_
_geom_bond_atom_site_label_1
_geom_bond_atom_site_label_2
_geom_bond_site_symmetry_1
_geom_bond_site_symmetry_2
O1 C1 1_555 1_555
O2 C1 1_555 1_555
O3 H1 1_555 1_555
O4 C14 1_555 1_555
O5 C21 1_555 1_555
O6 C28 1_555 1_555
O7 C19 1_555 1_555
N1 C32 1_555 1_555
C1 C2 1_555 1_555
C2 C3 1_555 1_555
C3 H2 1_555 1_555
C4 C3 1_555 1_555
H3 C4 1_555 1_555
C5 C4 1_555 1_555
H4 C5 1_555 1_555
C6 C5 1_555 1_555
H5 C6 1_555 1_555
C7 C2 1_555 1_555
C8 O2 1_555 1_555
C9 C8 1_555 1_555
C10 C9 1_555 1_555
H6 C10 1_555 1_555
C11 C10 1_555 1_555
H7 C11 1_555 1_555
C12 O3 1_555 1_555
C13 C12 1_555 1_555
H8 C13 1_555 1_555
C14 C9 1_555 1_555
C15 O4 1_555 1_555
C16 C8 1_555 1_555
C17 C16 1_555 1_555
H9 C17 1_555 1_555
C18 C17 1_555 1_555
H10 C18 1_555 1_555
C19 C18 1_555 1_555
C20 C15 1_555 1_555
C21 C20 1_555 1_555
C22 C21 1_555 1_555
C23 C22 1_555 1_555
H11 C23 1_555 1_555
C24 C23 1_555 1_555
H12 C24 1_555 1_555
C25 C24 1_555 1_555
H13 C25 1_555 1_555
C26 C25 1_555 1_555
H14 C26 1_555 1_555
C27 C22 1_555 1_555
C28 O5 1_555 1_555
C29 C21 1_555 1_555
C30 C29 1_555 1_555
H15 C30 1_555 1_555
C31 C30 1_555 1_555
H16 C31 1_555 1_555
C32 C31 1_555 1_555
C33 C32 1_555 1_555
H17 C33 1_555 1_555
C34 O7 1_555 1_555
C35 N1 1_555 1_555
H18 C35 1_555 1_555
H19 C35 1_555 1_555
C36 C35 1_555 1_555
H20 C36 1_555 1_555
H21 C36 1_555 1_555
H22 C36 1_555 1_555
C37 N1 1_555 1_555
H23 C37 1_555 1_555
H24 C37 1_555 1_555
C38 C37 1_555 1_555
H25 C38 1_555 1_555
H26 C38 1_555 1_555
H27 C38 1_555 1_555
C6 C7 1_555 1_555
C7 C8 1_555 1_555
C11 C12 1_555 1_555
C13 C14 1_555 1_555
C15 C16 1_555 1_555
C19 C20 1_555 1_555
C26 C27 1_555 1_555
C27 C28 1_555 1_555
C29 C34 1_555 1_555
C33 C34 1_555 1_555

#END
