
#######################################################################
#
#                 Cambridge Crystallographic Data Centre
#                                CCDC 
#
#######################################################################
#
# If this CIF has been generated from an entry in the Cambridge 
# Structural Database, then it will include bibliographic, chemical, 
# crystal, experimental, refinement or atomic coordinate data resulting 
# from the CCDC's data processing and validation procedures.
#
#######################################################################

data_ZAGVOV
_chemical_formula_moiety         'C17 H17 I1 N2'
_chemical_name_systematic        
1-Benzyl-2-(4-iodophenyl)-4-methyl-4,5-dihydro-1H-imidazole
_symmetry_cell_setting           monoclinic
_symmetry_space_group_name_H-M   'P 21'
_symmetry_Int_Tables_number      4
_space_group_name_Hall           'P 2yb'
loop_
_symmetry_equiv_pos_site_id
_symmetry_equiv_pos_as_xyz
1 x,y,z
2 -x,1/2+y,-z
_cell_length_a                   9.064(3)
_cell_length_b                   9.689(3)
_cell_length_c                   10.074(3)
_cell_angle_alpha                90
_cell_angle_beta                 114.841(4)
_cell_angle_gamma                90
_cell_volume                     802.854
_exptl_crystal_colour            colorless
_exptl_crystal_description       block
_cell_formula_units_Z            2
loop_
_atom_site_label
_atom_site_type_symbol
_atom_site_fract_x
_atom_site_fract_y
_atom_site_fract_z
C1 C 0.9534(7) 0.1440(6) 0.1138(6)
C2 C 0.6977(8) 0.1109(8) -0.0439(8)
H1 H 0.6648 0.1290 -0.1482
C3 C 0.7040(8) 0.2486(10) 0.0337(10)
H2 H 0.6679 0.3243 -0.0357
H3 H 0.6373 0.2455 0.0878
C4 C 1.1316(7) 0.1250(6) 0.1994(6)
C5 C 1.1981(8) -0.0031(7) 0.2532(8)
H4 H 1.1310 -0.0801 0.2334
C6 C 1.3625(9) -0.0168(7) 0.3356(7)
H5 H 1.4055 -0.1033 0.3708
C7 C 1.4629(6) 0.0936(9) 0.3662(5)
C8 C 1.4013(8) 0.2252(7) 0.3086(7)
H6 H 1.4708 0.3003 0.3258
C9 C 1.2361(7) 0.2401(6) 0.2263(7)
H7 H 1.1935 0.3261 0.1885
C10 C 0.9176(8) 0.3199(6) 0.2765(7)
H8 H 1.0333 0.3089 0.3356
H9 H 0.8610 0.2675 0.3228
C11 C 0.8751(7) 0.4687(6) 0.2760(7)
C12 C 0.8933(6) 0.5628(8) 0.1798(5)
H10 H 0.9297 0.5316 0.1114
C13 C 0.8594(9) 0.6994(7) 0.1828(9)
H11 H 0.8738 0.7605 0.1180
C14 C 0.8032(12) 0.7471(8) 0.2833(9)
H12 H 0.7795 0.8399 0.2875
C15 C 0.7834(16) 0.6509(11) 0.3777(11)
H13 H 0.7451 0.6818 0.4449
C16 C 0.8174(11) 0.5138(9) 0.3762(8)
H14 H 0.8024 0.4524 0.4405
C17 C 0.5862(10) 0.0082(9) -0.0284(13)
H15 H 0.5884 -0.0743 -0.0803
H16 H 0.4778 0.0449 -0.0681
H17 H 0.6198 -0.0130 0.0732
I1 I 1.71096(3) 0.07835(8) 0.50567(4)
N1 N 0.8783(6) 0.2626(5) 0.1335(5)
N2 N 0.8656(7) 0.0574(8) 0.0194(6)
loop_
_geom_bond_atom_site_label_1
_geom_bond_atom_site_label_2
_geom_bond_site_symmetry_1
_geom_bond_site_symmetry_2
C1 C4 1_555 1_555
C2 H1 1_555 1_555
C3 C2 1_555 1_555
H2 C3 1_555 1_555
H3 C3 1_555 1_555
C4 C5 1_555 1_555
C5 H4 1_555 1_555
C6 C5 1_555 1_555
H5 C6 1_555 1_555
C7 C6 1_555 1_555
C8 C7 1_555 1_555
H6 C8 1_555 1_555
C9 C4 1_555 1_555
H7 C9 1_555 1_555
C10 H8 1_555 1_555
H9 C10 1_555 1_555
C11 C10 1_555 1_555
C12 C11 1_555 1_555
H10 C12 1_555 1_555
C13 C12 1_555 1_555
H11 C13 1_555 1_555
C14 C13 1_555 1_555
H12 C14 1_555 1_555
C15 C14 1_555 1_555
H13 C15 1_555 1_555
C16 C11 1_555 1_555
H14 C16 1_555 1_555
C17 C2 1_555 1_555
H15 C17 1_555 1_555
H16 C17 1_555 1_555
H17 C17 1_555 1_555
I1 C7 1_555 1_555
N1 C1 1_555 1_555
N2 C1 1_555 1_555
C2 N2 1_555 1_555
C3 N1 1_555 1_555
C8 C9 1_555 1_555
C10 N1 1_555 1_555
C15 C16 1_555 1_555

#END
