
#######################################################################
#
#                 Cambridge Crystallographic Data Centre
#                                CCDC 
#
#######################################################################
#
# If this CIF has been generated from an entry in the Cambridge 
# Structural Database, then it will include bibliographic, chemical, 
# crystal, experimental, refinement or atomic coordinate data resulting 
# from the CCDC's data processing and validation procedures.
#
#######################################################################

data_ZAGWIQ
_chemical_name_common            
'N-Methyl-N-tetradecyl-N,N-bis(2-hydroxyethyl)ammonium bromide'
_chemical_formula_moiety         'C19 H42 N1 O2 1+,Br1 1-'
_chemical_name_systematic        
'N,N-bis(2-hydroxyethyl)-N-methyltetradecan-1-aminium bromide'
_chemical_properties_biological  'antibacterial activity'
_symmetry_cell_setting           monoclinic
_symmetry_space_group_name_H-M   'P 21/c'
_symmetry_Int_Tables_number      14
_space_group_name_Hall           '-P 2ybc'
loop_
_symmetry_equiv_pos_site_id
_symmetry_equiv_pos_as_xyz
1 x,y,z
2 -x,1/2+y,1/2-z
3 -x,-y,-z
4 x,1/2-y,1/2+z
_cell_length_a                   20.952(10)
_cell_length_b                   7.322(4)
_cell_length_c                   14.465(7)
_cell_angle_alpha                90
_cell_angle_beta                 90.413(8)
_cell_angle_gamma                90
_cell_volume                     2219.03
_exptl_crystal_colour            colorless
_exptl_crystal_description       block
_cell_formula_units_Z            4
loop_
_atom_site_label
_atom_site_type_symbol
_atom_site_fract_x
_atom_site_fract_y
_atom_site_fract_z
Br1 Br 0.398330(17) 0.32180(6) 0.15284(2)
C1 C 0.40433(17) 0.5979(5) 0.3784(2)
H1 H 0.4470 0.5890 0.3550
H2 H 0.3773 0.5123 0.3465
H3 H 0.4045 0.5707 0.4434
C2 C 0.42295(13) 0.9172(5) 0.41673(19)
H4 H 0.4193 0.8890 0.4820
H5 H 0.4667 0.8921 0.3991
C3 C 0.41104(17) 1.1190(5) 0.4044(2)
H6 H 0.4458 1.1854 0.4337
H7 H 0.4120 1.1468 0.3389
C4 C 0.37883(14) 0.8308(4) 0.26089(19)
H8 H 0.3518 0.7417 0.2301
H9 H 0.3591 0.9494 0.2525
C5 C 0.44275(16) 0.8330(5) 0.2127(2)
H10 H 0.4718 0.9150 0.2446
H11 H 0.4612 0.7115 0.2132
C6 C 0.31065(14) 0.8007(5) 0.3953(2)
H12 H 0.2960 0.9246 0.3845
H13 H 0.2850 0.7208 0.3566
C7 C 0.29781(15) 0.7532(5) 0.4951(2)
H14 H 0.3263 0.8220 0.5351
H15 H 0.3057 0.6242 0.5052
C8 C 0.22916(15) 0.7978(5) 0.5183(2)
H16 H 0.2227 0.9282 0.5112
H17 H 0.2013 0.7364 0.4744
C9 C 0.21009(16) 0.7431(6) 0.6148(2)
H18 H 0.2388 0.8017 0.6585
H19 H 0.2156 0.6122 0.6212
C10 C 0.14202(16) 0.7917(5) 0.6401(2)
H20 H 0.1371 0.9231 0.6353
H21 H 0.1135 0.7366 0.5950
C11 C 0.12139(16) 0.7327(6) 0.7355(2)
H22 H 0.1237 0.6006 0.7388
H23 H 0.1516 0.7812 0.7803
C12 C 0.05546(16) 0.7911(6) 0.7629(2)
H24 H 0.0532 0.9232 0.7593
H25 H 0.0253 0.7423 0.7181
C13 C 0.03474(16) 0.7339(6) 0.8573(2)
H26 H 0.0656 0.7795 0.9019
H27 H 0.0358 0.6016 0.8603
C14 C -0.03044(16) 0.7967(5) 0.8861(2)
H28 H -0.0613 0.7512 0.8414
H29 H -0.0315 0.9290 0.8830
C15 C -0.05170(16) 0.7395(6) 0.9809(2)
H30 H -0.0516 0.6072 0.9835
H31 H -0.0204 0.7827 1.0255
C16 C -0.11625(17) 0.8055(6) 1.0105(3)
H32 H -0.1164 0.9379 1.0076
H33 H -0.1476 0.7620 0.9660
C17 C -0.13764(16) 0.7499(6) 1.1049(2)
H34 H -0.1379 0.6175 1.1075
H35 H -0.1059 0.7920 1.1492
C18 C -0.20093(18) 0.8154(6) 1.1359(3)
H36 H -0.2008 0.9478 1.1333
H37 H -0.2327 0.7732 1.0917
C19 C -0.2218(2) 0.7602(7) 1.2292(3)
H38 H -0.2283 0.6305 1.2307
H39 H -0.2610 0.8212 1.2439
H40 H -0.1896 0.7931 1.2737
N1 N 0.37958(11) 0.7876(3) 0.36337(16)
O1 O 0.35327(12) 1.1830(3) 0.44039(17)
H41 H 0.3540 1.1738 0.4969
O2 O 0.43318(12) 0.8922(4) 0.12104(14)
H42 H 0.4514 0.8223 0.0856
loop_
_geom_bond_atom_site_label_1
_geom_bond_atom_site_label_2
_geom_bond_site_symmetry_1
_geom_bond_site_symmetry_2
C1 H1 1_555 1_555
H2 C1 1_555 1_555
H3 C1 1_555 1_555
C2 H4 1_555 1_555
H5 C2 1_555 1_555
C3 C2 1_555 1_555
H6 C3 1_555 1_555
H7 C3 1_555 1_555
C4 H8 1_555 1_555
H9 C4 1_555 1_555
C5 C4 1_555 1_555
H10 C5 1_555 1_555
H11 C5 1_555 1_555
C6 H12 1_555 1_555
H13 C6 1_555 1_555
C7 C6 1_555 1_555
H14 C7 1_555 1_555
H15 C7 1_555 1_555
C8 C7 1_555 1_555
H16 C8 1_555 1_555
H17 C8 1_555 1_555
C9 C8 1_555 1_555
H18 C9 1_555 1_555
H19 C9 1_555 1_555
C10 C9 1_555 1_555
H20 C10 1_555 1_555
H21 C10 1_555 1_555
C11 C10 1_555 1_555
H22 C11 1_555 1_555
H23 C11 1_555 1_555
C12 C11 1_555 1_555
H24 C12 1_555 1_555
H25 C12 1_555 1_555
C13 C12 1_555 1_555
H26 C13 1_555 1_555
H27 C13 1_555 1_555
C14 C13 1_555 1_555
H28 C14 1_555 1_555
H29 C14 1_555 1_555
C15 C14 1_555 1_555
H30 C15 1_555 1_555
H31 C15 1_555 1_555
C16 C15 1_555 1_555
H32 C16 1_555 1_555
H33 C16 1_555 1_555
C17 C16 1_555 1_555
H34 C17 1_555 1_555
H35 C17 1_555 1_555
C18 C17 1_555 1_555
H36 C18 1_555 1_555
H37 C18 1_555 1_555
C19 C18 1_555 1_555
H38 C19 1_555 1_555
H39 C19 1_555 1_555
H40 C19 1_555 1_555
N1 C1 1_555 1_555
O1 C3 1_555 1_555
H41 O1 1_555 1_555
O2 C5 1_555 1_555
H42 O2 1_555 1_555
C2 N1 1_555 1_555
C4 N1 1_555 1_555
C6 N1 1_555 1_555

#END
