
#######################################################################
#
#                 Cambridge Crystallographic Data Centre
#                                CCDC 
#
#######################################################################
#
# If this CIF has been generated from an entry in the Cambridge 
# Structural Database, then it will include bibliographic, chemical, 
# crystal, experimental, refinement or atomic coordinate data resulting 
# from the CCDC's data processing and validation procedures.
#
#######################################################################

data_ZAHCUJ
_chemical_formula_moiety         'C20 H14 O1 S2'
_chemical_name_systematic        'S-Methyl S-tetracen-5-yl carbonodithioate'
_symmetry_cell_setting           monoclinic
_symmetry_space_group_name_H-M   'P 21/n'
_symmetry_Int_Tables_number      14
_space_group_name_Hall           '-P 2yn'
loop_
_symmetry_equiv_pos_site_id
_symmetry_equiv_pos_as_xyz
1 x,y,z
2 1/2-x,1/2+y,1/2-z
3 -x,-y,-z
4 1/2+x,1/2-y,1/2+z
_cell_length_a                   10.5678(14)
_cell_length_b                   5.8418(3)
_cell_length_c                   25.561(2)
_cell_angle_alpha                90
_cell_angle_beta                 90.472(9)
_cell_angle_gamma                90
_cell_volume                     1577.95
_exptl_crystal_colour            red
_exptl_crystal_description       needle
_cell_formula_units_Z            4
loop_
_atom_site_label
_atom_site_type_symbol
_atom_site_fract_x
_atom_site_fract_y
_atom_site_fract_z
S1 S 0.0644(2) 0.4231(4) 0.61167(10)
S2 S -0.0628(3) 0.8467(4) 0.56728(10)
O1 O -0.1158(7) 0.4156(10) 0.5426(3)
C1 C -0.2221(10) 0.7526(17) 0.8301(4)
H1 H -0.2892 0.6801 0.8482
C2 C -0.1876(10) 0.8720(16) 0.5191(4)
H2 H -0.2591 0.7752 0.5292
H3 H -0.1562 0.8227 0.4849
H4 H -0.2154 1.0318 0.5169
C3 C -0.0519(8) 0.5448(13) 0.5686(4)
C4 C 0.4042(9) 1.0762(16) 0.6152(4)
H5 H 0.4364 1.2163 0.6287
C5 C -0.1730(10) 0.9685(17) 0.8482(4)
H6 H -0.2085 1.0377 0.8784
C6 C 0.0833(9) 0.7607(14) 0.6870(4)
C7 C -0.0169(8) 0.6610(14) 0.7139(4)
H7 H -0.0495 0.5195 0.7014
C8 C 0.2446(9) 0.7644(14) 0.6175(4)
C9 C -0.0723(9) 0.7588(14) 0.7586(4)
C10 C 0.3081(9) 0.6695(16) 0.5729(4)
H8 H 0.2760 0.5332 0.5574
C11 C 0.4617(10) 0.9800(17) 0.5737(4)
H9 H 0.5339 1.0502 0.5587
C12 C -0.0778(9) 1.0742(17) 0.8233(4)
H10 H -0.0481 1.2177 0.8358
C13 C 0.1377(8) 0.6687(14) 0.6408(3)
C14 C 0.1380(9) 0.9747(13) 0.7081(3)
C15 C -0.0205(8) 0.9749(14) 0.7781(4)
C16 C 0.2978(9) 0.9761(14) 0.6394(4)
C17 C 0.4121(10) 0.7684(19) 0.5524(4)
H11 H 0.4531 0.6982 0.5236
C18 C 0.2413(9) 1.0732(15) 0.6827(4)
H12 H 0.2741 1.2135 0.6957
C19 C -0.1720(9) 0.6529(16) 0.7870(4)
H13 H -0.2040 0.5093 0.7755
C20 C 0.0799(9) 1.0744(13) 0.7522(4)
H14 H 0.1115 1.2167 0.7647
loop_
_geom_bond_atom_site_label_1
_geom_bond_atom_site_label_2
_geom_bond_site_symmetry_1
_geom_bond_site_symmetry_2
S1 C3 1_555 1_555
S2 C2 1_555 1_555
O1 C3 1_555 1_555
C1 H1 1_555 1_555
C2 H2 1_555 1_555
H3 C2 1_555 1_555
H4 C2 1_555 1_555
C3 S2 1_555 1_555
C4 H5 1_555 1_555
C5 C1 1_555 1_555
H6 C5 1_555 1_555
C6 C7 1_555 1_555
C7 H7 1_555 1_555
C8 C10 1_555 1_555
C9 C7 1_555 1_555
C10 H8 1_555 1_555
C11 C4 1_555 1_555
H9 C11 1_555 1_555
C12 C5 1_555 1_555
H10 C12 1_555 1_555
C13 S1 1_555 1_555
C14 C6 1_555 1_555
C15 C9 1_555 1_555
C16 C4 1_555 1_555
C17 C10 1_555 1_555
H11 C17 1_555 1_555
C18 C14 1_555 1_555
H12 C18 1_555 1_555
C19 C1 1_555 1_555
H13 C19 1_555 1_555
C20 C14 1_555 1_555
H14 C20 1_555 1_555
C6 C13 1_555 1_555
C8 C13 1_555 1_555
C8 C16 1_555 1_555
C9 C19 1_555 1_555
C11 C17 1_555 1_555
C12 C15 1_555 1_555
C15 C20 1_555 1_555
C16 C18 1_555 1_555

#END
