
#######################################################################
#
#                 Cambridge Crystallographic Data Centre
#                                CCDC 
#
#######################################################################
#
# If this CIF has been generated from an entry in the Cambridge 
# Structural Database, then it will include bibliographic, chemical, 
# crystal, experimental, refinement or atomic coordinate data resulting 
# from the CCDC's data processing and validation procedures.
#
#######################################################################

data_ZAHCOD
_chemical_formula_moiety         'C34 H34 O1 S2'
_chemical_name_systematic        
'S-(2-t-Butyl-12-(4-t-butylphenyl)tetracen-5-yl) S-methyl carbonodithioate'
_symmetry_cell_setting           triclinic
_symmetry_space_group_name_H-M   'P -1'
_symmetry_Int_Tables_number      2
_space_group_name_Hall           '-P 1'
loop_
_symmetry_equiv_pos_site_id
_symmetry_equiv_pos_as_xyz
1 x,y,z
2 -x,-y,-z
_cell_length_a                   10.5282(7)
_cell_length_b                   11.0150(5)
_cell_length_c                   13.2076(8)
_cell_angle_alpha                73.022(5)
_cell_angle_beta                 81.567(5)
_cell_angle_gamma                79.587(5)
_cell_volume                     1433.59
_exptl_crystal_colour            orange
_exptl_crystal_description       needle
_cell_formula_units_Z            2
loop_
_atom_site_label
_atom_site_type_symbol
_atom_site_fract_x
_atom_site_fract_y
_atom_site_fract_z
S1 S 0.29924(3) 0.31215(3) 1.08815(3)
S2 S 0.28808(4) 0.04474(3) 1.20145(3)
O1 O 0.36699(14) 0.12030(11) 0.99630(9)
C1 C 0.16724(14) 0.49601(13) 0.89549(11)
H1 H 0.1210 0.4566 0.9607
C2 C 0.09978(14) 0.57190(14) 0.81374(12)
H2 H 0.0076 0.5842 0.8235
C3 C 0.16406(14) 0.63417(13) 0.71282(11)
C4 C 0.29661(14) 0.61954(13) 0.70271(11)
H3 H 0.3400 0.6634 0.6377
C5 C 0.50981(13) 0.52276(12) 0.77099(10)
C6 C 0.72173(13) 0.41320(12) 0.83506(11)
H4 H 0.7645 0.4573 0.7698
C7 C 0.93460(15) 0.29544(14) 0.89355(12)
H5 H 0.9784 0.3360 0.8275
C8 C 1.00414(16) 0.20829(16) 0.96933(14)
H6 H 1.0953 0.1874 0.9551
C9 C 0.94048(16) 0.14821(16) 1.07000(14)
H7 H 0.9897 0.0882 1.1226
C10 C 0.80889(16) 0.17651(14) 1.09112(12)
H8 H 0.7683 0.1373 1.1590
C11 C 0.59626(14) 0.28791(12) 1.02956(10)
H9 H 0.5547 0.2465 1.0964
C12 C 0.38048(13) 0.39171(12) 0.96533(10)
C13 C 0.30698(13) 0.47407(12) 0.88550(10)
C14 C 0.37345(13) 0.54054(12) 0.78635(10)
C15 C 0.58429(13) 0.43721(12) 0.85113(10)
C16 C 0.79607(14) 0.32709(12) 0.91189(11)
C17 C 0.73126(14) 0.26434(12) 1.01255(11)
C18 C 0.51907(13) 0.37088(12) 0.95124(10)
C19 C 0.08177(15) 0.70901(15) 0.62163(12)
C20 C -0.0151(2) 0.81615(18) 0.65559(16)
H10 H 0.0326 0.8755 0.6719
H11 H -0.0710 0.7782 0.7189
H12 H -0.0686 0.8628 0.5976
C21 C 0.0057(2) 0.61530(19) 0.59651(16)
H13 H -0.0485 0.6621 0.5390
H14 H -0.0496 0.5772 0.6602
H15 H 0.0669 0.5472 0.5744
C22 C 0.16416(18) 0.76981(18) 0.52013(13)
H16 H 0.2134 0.8293 0.5347
H17 H 0.1074 0.8167 0.4644
H18 H 0.2244 0.7024 0.4963
C23 C 0.57487(13) 0.59249(12) 0.66691(10)
C24 C 0.59232(15) 0.72035(13) 0.64760(11)
H19 H 0.5731 0.7605 0.7038
C25 C 0.63779(15) 0.78942(13) 0.54647(11)
H20 H 0.6501 0.8759 0.5352
C26 C 0.66588(13) 0.73463(13) 0.46098(10)
C27 C 0.65310(15) 0.60556(14) 0.48236(11)
H21 H 0.6751 0.5644 0.4269
C28 C 0.60852(15) 0.53548(13) 0.58397(11)
H22 H 0.6012 0.4475 0.5964
C29 C 0.70401(15) 0.81656(14) 0.34839(11)
C30 C 0.6033(2) 0.9381(2) 0.32245(16)
H23 H 0.5158 0.9143 0.3393
H24 H 0.6165 0.9827 0.2466
H25 H 0.6134 0.9948 0.3648
C31 C 0.7061(2) 0.7448(2) 0.26406(13)
H26 H 0.7739 0.6698 0.2761
H27 H 0.7241 0.8021 0.1930
H28 H 0.6216 0.7167 0.2694
C32 C 0.83909(18) 0.8537(2) 0.34190(14)
H29 H 0.8392 0.9006 0.3945
H30 H 0.8611 0.9083 0.2705
H31 H 0.9033 0.7759 0.3565
C33 C 0.32674(14) 0.15109(12) 1.07630(11)
C34 C 0.3199(3) -0.10347(17) 1.16512(18)
H32 H 0.2619 -0.1001 1.1124
H33 H 0.3050 -0.1745 1.2284
H34 H 0.4103 -0.1167 1.1347
loop_
_geom_bond_atom_site_label_1
_geom_bond_atom_site_label_2
_geom_bond_site_symmetry_1
_geom_bond_site_symmetry_2
S1 C12 1_555 1_555
S2 C33 1_555 1_555
O1 C33 1_555 1_555
C1 H1 1_555 1_555
C2 C1 1_555 1_555
H2 C2 1_555 1_555
C3 C2 1_555 1_555
C4 C3 1_555 1_555
H3 C4 1_555 1_555
C5 C14 1_555 1_555
C6 H4 1_555 1_555
C7 H5 1_555 1_555
C8 C7 1_555 1_555
H6 C8 1_555 1_555
C9 C8 1_555 1_555
H7 C9 1_555 1_555
C10 C9 1_555 1_555
H8 C10 1_555 1_555
C11 H9 1_555 1_555
C12 C13 1_555 1_555
C13 C1 1_555 1_555
C14 C4 1_555 1_555
C15 C5 1_555 1_555
C16 C6 1_555 1_555
C17 C10 1_555 1_555
C18 C11 1_555 1_555
C19 C3 1_555 1_555
C20 C19 1_555 1_555
H10 C20 1_555 1_555
H11 C20 1_555 1_555
H12 C20 1_555 1_555
C21 C19 1_555 1_555
H13 C21 1_555 1_555
H14 C21 1_555 1_555
H15 C21 1_555 1_555
C22 C19 1_555 1_555
H16 C22 1_555 1_555
H17 C22 1_555 1_555
H18 C22 1_555 1_555
C23 C5 1_555 1_555
C24 C23 1_555 1_555
H19 C24 1_555 1_555
C25 C24 1_555 1_555
H20 C25 1_555 1_555
C26 C25 1_555 1_555
C27 C26 1_555 1_555
H21 C27 1_555 1_555
C28 C23 1_555 1_555
H22 C28 1_555 1_555
C29 C26 1_555 1_555
C30 C29 1_555 1_555
H23 C30 1_555 1_555
H24 C30 1_555 1_555
H25 C30 1_555 1_555
C31 C29 1_555 1_555
H26 C31 1_555 1_555
H27 C31 1_555 1_555
H28 C31 1_555 1_555
C32 C29 1_555 1_555
H29 C32 1_555 1_555
H30 C32 1_555 1_555
H31 C32 1_555 1_555
C33 S1 1_555 1_555
C34 S2 1_555 1_555
H32 C34 1_555 1_555
H33 C34 1_555 1_555
H34 C34 1_555 1_555
C6 C15 1_555 1_555
C7 C16 1_555 1_555
C11 C17 1_555 1_555
C12 C18 1_555 1_555
C13 C14 1_555 1_555
C15 C18 1_555 1_555
C16 C17 1_555 1_555
C27 C28 1_555 1_555

#END
