
#######################################################################
#
#                 Cambridge Crystallographic Data Centre
#                                CCDC 
#
#######################################################################
#
# If this CIF has been generated from an entry in the Cambridge 
# Structural Database, then it will include bibliographic, chemical, 
# crystal, experimental, refinement or atomic coordinate data resulting 
# from the CCDC's data processing and validation procedures.
#
#######################################################################

data_ZAHWEN
_chemical_formula_moiety         'C19 H24 O4'
_chemical_name_systematic        
2-ethoxy-8-methoxy-6'-vinyl-2,3-dihydro-2'H-spiro[chromene-4,1'-cyclohexan]-2'-one
_symmetry_cell_setting           monoclinic
_symmetry_space_group_name_H-M   'P 21/c'
_symmetry_Int_Tables_number      14
_space_group_name_Hall           '-P 2ybc'
loop_
_symmetry_equiv_pos_site_id
_symmetry_equiv_pos_as_xyz
1 x,y,z
2 -x,1/2+y,1/2-z
3 -x,-y,-z
4 x,1/2-y,1/2+z
_cell_length_a                   8.9397(14)
_cell_length_b                   12.5153(19)
_cell_length_c                   16.005(3)
_cell_angle_alpha                90
_cell_angle_beta                 104.883(2)
_cell_angle_gamma                90
_cell_volume                     1730.61
_exptl_crystal_colour            colorless
_exptl_crystal_description       block
_cell_formula_units_Z            4
loop_
_atom_site_label
_atom_site_type_symbol
_atom_site_fract_x
_atom_site_fract_y
_atom_site_fract_z
O1 O 0.77410(14) 0.54189(10) 0.22683(8)
O2 O 0.9133(2) 0.33171(14) 0.06897(11)
O3 O 0.69772(16) 0.51548(12) 0.36828(9)
O4 O 0.69725(14) 0.61493(11) 0.09333(8)
C1 C 0.7780(2) 0.52924(16) 0.13855(12)
H1 H 0.7300 0.4615 0.1153
C2 C 0.9425(2) 0.53367(15) 0.13334(12)
H2 H 0.9861 0.6024 0.1549
H3 H 0.9447 0.5284 0.0732
C3 C 1.2165(2) 0.48693(16) 0.20649(14)
H4 H 1.2271 0.5244 0.1545
C4 C 1.3415(2) 0.3996(2) 0.22484(17)
H5 H 1.4413 0.4319 0.2276
H6 H 1.3463 0.3676 0.2807
C5 C 1.3099(3) 0.3130(2) 0.15611(18)
H7 H 1.3144 0.3437 0.1012
H8 H 1.3894 0.2585 0.1714
C6 C 1.1531(3) 0.26227(18) 0.14683(15)
H9 H 1.1342 0.2105 0.1002
H10 H 1.1527 0.2246 0.1997
C7 C 1.0269(3) 0.34311(17) 0.12858(14)
C8 C 1.0442(2) 0.44439(14) 0.18501(12)
C9 C 0.9913(2) 0.41800(14) 0.26646(11)
C10 C 1.0685(2) 0.34466(15) 0.32899(12)
H11 H 1.1522 0.3067 0.3196
C11 C 1.0236(3) 0.32759(16) 0.40356(13)
H12 H 1.0765 0.2777 0.4434
C12 C 0.9013(3) 0.38306(18) 0.42076(13)
H13 H 0.8733 0.3721 0.4722
C13 C 0.8215(2) 0.45499(16) 0.36039(13)
C14 C 0.8647(2) 0.47025(14) 0.28294(12)
C15 C 0.5359(2) 0.61636(19) 0.09109(16)
H14 H 0.5234 0.6208 0.1494
H15 H 0.4868 0.5512 0.0648
C16 C 0.4636(3) 0.7092(2) 0.04068(18)
H16 H 0.5166 0.7730 0.0651
H17 H 0.3569 0.7135 0.0419
H18 H 0.4698 0.7017 -0.0180
C17 C 1.2462(2) 0.5690(2) 0.27749(17)
H19 H 1.2469 0.5445 0.3324
C18 C 1.2711(3) 0.6700(2) 0.2702(2)
H20 H 1.2717 0.6986 0.2167
H21 H 1.2883 0.7141 0.3186
C19 C 0.6558(3) 0.51156(19) 0.44729(15)
H22 H 0.6197 0.4411 0.4556
H23 H 0.5750 0.5624 0.4462
H24 H 0.7442 0.5285 0.4938
loop_
_geom_bond_atom_site_label_1
_geom_bond_atom_site_label_2
_geom_bond_site_symmetry_1
_geom_bond_site_symmetry_2
O1 C1 1_555 1_555
O2 C7 1_555 1_555
O3 C13 1_555 1_555
O4 C1 1_555 1_555
C1 H1 1_555 1_555
C2 C1 1_555 1_555
H2 C2 1_555 1_555
H3 C2 1_555 1_555
C3 H4 1_555 1_555
C4 C3 1_555 1_555
H5 C4 1_555 1_555
H6 C4 1_555 1_555
C5 C4 1_555 1_555
H7 C5 1_555 1_555
H8 C5 1_555 1_555
C6 C5 1_555 1_555
H9 C6 1_555 1_555
H10 C6 1_555 1_555
C7 C6 1_555 1_555
C8 C2 1_555 1_555
C9 C8 1_555 1_555
C10 C9 1_555 1_555
H11 C10 1_555 1_555
C11 C10 1_555 1_555
H12 C11 1_555 1_555
C12 C11 1_555 1_555
H13 C12 1_555 1_555
C13 C12 1_555 1_555
C14 O1 1_555 1_555
C15 O4 1_555 1_555
H14 C15 1_555 1_555
H15 C15 1_555 1_555
C16 C15 1_555 1_555
H16 C16 1_555 1_555
H17 C16 1_555 1_555
H18 C16 1_555 1_555
C17 C3 1_555 1_555
H19 C17 1_555 1_555
C18 C17 1_555 1_555
H20 C18 1_555 1_555
H21 C18 1_555 1_555
C19 O3 1_555 1_555
H22 C19 1_555 1_555
H23 C19 1_555 1_555
H24 C19 1_555 1_555
C3 C8 1_555 1_555
C7 C8 1_555 1_555
C9 C14 1_555 1_555
C13 C14 1_555 1_555

#END
