
#######################################################################
#
#                 Cambridge Crystallographic Data Centre
#                                CCDC 
#
#######################################################################
#
# If this CIF has been generated from an entry in the Cambridge 
# Structural Database, then it will include bibliographic, chemical, 
# crystal, experimental, refinement or atomic coordinate data resulting 
# from the CCDC's data processing and validation procedures.
#
#######################################################################

data_ZAMREN
_chemical_formula_moiety         'C55 H9 F24 N5,3.5(C4 H8 O2)'
_chemical_name_systematic        
'6,7,8,9-tetrafluoro-16,21,26,31-tetrakis(pentafluorophenyl)-4,33,34,35,36-pentaazadecacyclo[25.5.1.1^12,15^.1^17,20^.1^22,25^.0^2,24^.0^3,11^.0^4,32^.0^5,10^.0^30,33^]hexatriaconta-1,3(11),5,7,9,12,14,16,18,20,22(34),23,25,27,29,31-hexadecaene 1,4-dioxane solvate'
_symmetry_cell_setting           monoclinic
_symmetry_space_group_name_H-M   'P 21/n'
_symmetry_Int_Tables_number      14
_space_group_name_Hall           '-P 2yn'
loop_
_symmetry_equiv_pos_site_id
_symmetry_equiv_pos_as_xyz
1 x,y,z
2 1/2-x,1/2+y,1/2-z
3 -x,-y,-z
4 1/2+x,1/2-y,1/2+z
_cell_length_a                   26.034(4)
_cell_length_b                   7.9613(10)
_cell_length_c                   28.990(4)
_cell_angle_alpha                90
_cell_angle_beta                 100.931(3)
_cell_angle_gamma                90
_cell_volume                     5899.58
_exptl_crystal_colour            brown
_exptl_crystal_description       prism
_cell_formula_units_Z            4
loop_
_atom_site_label
_atom_site_type_symbol
_atom_site_fract_x
_atom_site_fract_y
_atom_site_fract_z
C1 C 0.90960(8) 0.6961(3) 0.02462(7)
C2 C 0.94609(9) 0.7456(3) -0.00314(7)
H1 H 0.9822 0.7658 0.0082
C3 C 0.92064(8) 0.7601(3) -0.04998(7)
H2 H 0.9364 0.7911 -0.0757
C4 C 0.86758(8) 0.7207(3) -0.05231(7)
C5 C 0.81707(8) 0.6855(3) -0.08272(7)
C6 C 0.78461(8) 0.6349(3) -0.05247(7)
C7 C 0.81339(8) 0.6358(3) -0.00628(7)
C8 C 0.78911(8) 0.5710(3) 0.02720(7)
C9 C 0.73489(8) 0.5395(3) 0.00115(7)
C10 C 0.68380(8) 0.5175(3) 0.00690(7)
C11 C 0.65938(8) 0.5128(3) 0.04885(7)
C12 C 0.61748(8) 0.6076(3) 0.05615(7)
H3 H 0.5988 0.6868 0.0348
C13 C 0.60715(8) 0.5669(3) 0.10075(7)
H4 H 0.5801 0.6130 0.1147
C14 C 0.64319(8) 0.4482(3) 0.12053(7)
C15 C 0.65183(8) 0.3698(3) 0.16750(7)
C16 C 0.70177(8) 0.3462(3) 0.19272(7)
C17 C 0.72212(8) 0.2406(3) 0.23276(7)
H5 H 0.7017 0.1801 0.2510
C18 C 0.77496(8) 0.2426(3) 0.23979(7)
H6 H 0.7978 0.1837 0.2639
C19 C 0.79115(8) 0.3491(3) 0.20457(7)
C20 C 0.83951(8) 0.3755(3) 0.19286(7)
C21 C 0.84216(8) 0.4526(3) 0.14777(7)
C22 C 0.80327(6) 0.4526(3) 0.10820(7)
H7 H 0.7703 0.3993 0.1062
C23 C 0.81781(8) 0.5370(3) 0.07295(7)
C24 C 0.87368(8) 0.5822(3) 0.09279(7)
C25 C 0.91352(8) 0.6495(3) 0.07211(7)
C26 C 0.81029(8) 0.6941(3) -0.13445(7)
C27 C 0.79887(8) 0.5516(3) -0.16233(7)
C28 C 0.79769(9) 0.5552(3) -0.21016(7)
C29 C 0.80704(9) 0.7032(3) -0.23146(7)
C30 C 0.81755(9) 0.8480(3) -0.20523(8)
C31 C 0.81910(9) 0.8409(3) -0.15737(7)
C32 C 0.65177(8) 0.5311(3) -0.04022(7)
C33 C 0.68471(8) 0.5684(3) -0.07220(7)
C34 C 0.66515(9) 0.5925(3) -0.11967(7)
C35 C 0.61205(9) 0.5781(3) -0.13556(7)
C36 C 0.57914(8) 0.5365(3) -0.10480(8)
C37 C 0.59857(8) 0.5121(3) -0.05789(7)
C38 C 0.60613(8) 0.3233(3) 0.18796(7)
C39 C 0.56205(8) 0.2443(3) 0.16182(7)
C40 C 0.51928(9) 0.2007(3) 0.18063(8)
C41 C 0.51906(9) 0.2301(3) 0.22766(8)
C42 C 0.56168(9) 0.3072(3) 0.25493(7)
C43 C 0.60342(8) 0.3546(3) 0.23485(7)
C44 C 0.88863(8) 0.3219(3) 0.22302(7)
C45 C 0.90163(8) 0.3576(3) 0.27091(7)
C46 C 0.94920(9) 0.3140(3) 0.29842(7)
C47 C 0.98669(9) 0.2384(3) 0.27792(8)
C48 C 0.97539(9) 0.1980(3) 0.23076(8)
C49 C 0.92684(9) 0.2360(3) 0.20445(7)
C50 C 0.96689(8) 0.6639(3) 0.10209(7)
C51 C 0.99539(8) 0.5237(3) 0.12017(7)
C52 C 1.04445(9) 0.5366(3) 0.14825(7)
C53 C 1.06651(8) 0.6928(3) 0.15833(7)
C54 C 1.03994(9) 0.8346(3) 0.14002(7)
C55 C 0.99050(8) 0.8182(3) 0.11264(7)
F1 F 0.82882(6) 0.98388(17) -0.13273(4)
F2 F 0.82521(7) 0.99258(19) -0.22603(5)
F3 F 0.80568(6) 0.7076(2) -0.27774(4)
F4 F 0.78767(6) 0.41503(18) -0.23586(4)
F5 F 0.78968(5) 0.40557(17) -0.14242(4)
F6 F 0.69638(5) 0.63233(18) -0.14974(4)
F7 F 0.59198(5) 0.60424(18) -0.18109(4)
F8 F 0.52749(5) 0.51854(18) -0.12152(4)
F9 F 0.56469(5) 0.46612(17) -0.03062(4)
F10 F 0.56145(5) 0.20345(17) 0.11697(4)
F11 F 0.47785(5) 0.12667(18) 0.15397(5)
F12 F 0.47859(5) 0.18176(19) 0.24654(5)
F13 F 0.56188(5) 0.34020(18) 0.30014(4)
F14 F 0.64221(5) 0.43921(16) 0.26280(4)
F15 F 0.86781(5) 0.44299(16) 0.29187(4)
F16 F 0.95894(5) 0.34992(18) 0.34441(4)
F17 F 1.03385(5) 0.20349(19) 0.30349(5)
F18 F 1.01117(5) 0.11846(18) 0.21142(5)
F19 F 0.91606(5) 0.18267(16) 0.15995(4)
F20 F 0.97626(5) 0.36878(16) 0.11035(4)
F21 F 1.07071(5) 0.39802(18) 0.16542(5)
F22 F 1.11432(5) 0.70609(19) 0.18508(5)
F23 F 1.06213(5) 0.98569(17) 0.14815(4)
F24 F 0.96518(5) 0.95927(16) 0.09682(4)
N1 N 0.86261(7) 0.6872(2) -0.00714(6)
N2 N 0.73557(7) 0.5699(2) -0.04735(6)
N3 N 0.67369(6) 0.4140(2) 0.08803(6)
H8 H 0.6990 0.3390 0.0917
N4 N 0.74530(7) 0.4143(2) 0.17909(6)
H9 H 0.7440 0.4901 0.1568
N5 N 0.88501(7) 0.5315(2) 0.13872(6)
C56 C 0.70283(10) -0.1233(3) 0.13983(9)
H10 H 0.7080 -0.0448 0.1668
H11 H 0.6750 -0.2038 0.1438
C57 C 0.68611(10) -0.0264(3) 0.09490(9)
H12 H 0.6799 -0.1051 0.0680
H13 H 0.6530 0.0335 0.0958
C58 C 0.77425(9) 0.0069(3) 0.08952(8)
H14 H 0.8019 0.0901 0.0871
H15 H 0.7708 -0.0691 0.0621
C59 C 0.78983(10) -0.0935(3) 0.13406(8)
H16 H 0.8230 -0.1536 0.1334
H17 H 0.7958 -0.0165 0.1614
O1 O 0.72568(6) 0.0924(2) 0.08885(6)
O2 O 0.75014(7) -0.2121(2) 0.13925(5)
C60 C 0.36103(12) -0.0855(4) 0.12574(11)
H18 H 0.3784 0.0236 0.1345
H19 H 0.3733 -0.1664 0.1514
C61 C 0.30307(12) -0.0645(4) 0.11985(10)
H20 H 0.2858 -0.1750 0.1131
H21 H 0.2943 -0.0210 0.1494
C62 C 0.29843(12) -0.0064(4) 0.04045(10)
H22 H 0.2866 0.0768 0.0153
H23 H 0.2809 -0.1146 0.0307
C63 C 0.35626(14) -0.0282(5) 0.04662(12)
H24 H 0.3652 -0.0704 0.0170
H25 H 0.3737 0.0817 0.0539
O3 O 0.28414(7) 0.0485(2) 0.08257(6)
O4 O 0.37472(8) -0.1440(3) 0.08380(8)
C64 C 0.87834(9) 0.1600(3) 1.03363(8)
H26 H 0.8755 0.0361 1.0314
H27 H 0.8818 0.1917 1.0671
C65 C 0.92618(9) 0.2171(3) 1.01561(8)
H28 H 0.9303 0.3400 1.0199
H29 H 0.9576 0.1624 1.0341
C66 C 0.87616(9) 0.2525(3) 0.94110(8)
H30 H 0.8726 0.2235 0.9074
H31 H 0.8790 0.3762 0.9441
C67 C 0.82832(9) 0.1934(3) 0.95879(8)
H32 H 0.7967 0.2471 0.9402
H33 H 0.8247 0.0703 0.9546
O5 O 0.83234(6) 0.2345(2) 1.00712(5)
O6 O 0.92232(6) 0.1766(2) 0.96709(5)
O7? O 0.4992(3) -0.1267(10) 0.0327(3)
O8? O 0.5160(3) 0.0478(11) -0.0427(3)
C68? C 0.5283(6) 0.1235(14) 0.0081(3)
H34? H 0.5540 0.2162 0.0108
H35? H 0.4962 0.1627 0.0185
C69? C 0.4623(5) -0.1437(13) -0.0164(3)
H36? H 0.4782 -0.2155 -0.0379
H37? H 0.4278 -0.1901 -0.0136
C70? C 0.4582(3) 0.0283(18) -0.0321(4)
H38? H 0.4516 0.1061 -0.0072
H39? H 0.4309 0.0433 -0.0607
C71? C 0.5500(3) -0.0248(17) 0.0334(4)
H40? H 0.5679 0.0022 0.0658
H41? H 0.5746 -0.0843 0.0168
O9? O 0.5308(4) -0.0943(12) -0.0253(3)
C72? C 0.4984(4) 0.0672(14) -0.0425(3)
H42? H 0.5120 0.1223 -0.0683
H43? H 0.4611 0.0390 -0.0537
C73? C 0.5047(5) 0.1764(14) -0.0013(4)
H44? H 0.4896 0.2887 -0.0099
H45? H 0.5422 0.1897 0.0129
O10? O 0.4762(4) 0.0915(12) 0.0322(3)
C74? C 0.4895(5) -0.1745(15) -0.0044(4)
H46? H 0.4550 -0.1599 -0.0253
H47? H 0.4965 -0.2963 -0.0001
C75? C 0.4890(5) -0.0964(13) 0.0406(4)
H48? H 0.5236 -0.1096 0.0614
H49? H 0.4623 -0.1503 0.0558
loop_
_geom_bond_atom_site_label_1
_geom_bond_atom_site_label_2
_geom_bond_site_symmetry_1
_geom_bond_site_symmetry_2
C1 C2 1_555 1_555
C2 H1 1_555 1_555
C3 C2 1_555 1_555
H2 C3 1_555 1_555
C4 C3 1_555 1_555
C5 C4 1_555 1_555
C6 C5 1_555 1_555
C7 C6 1_555 1_555
C8 C7 1_555 1_555
C9 C8 1_555 1_555
C10 C9 1_555 1_555
C11 C10 1_555 1_555
C12 C11 1_555 1_555
H3 C12 1_555 1_555
C13 C12 1_555 1_555
H4 C13 1_555 1_555
C14 C13 1_555 1_555
C15 C14 1_555 1_555
C16 C15 1_555 1_555
C17 C16 1_555 1_555
H5 C17 1_555 1_555
C18 C17 1_555 1_555
H6 C18 1_555 1_555
C19 C18 1_555 1_555
C20 C19 1_555 1_555
C21 C20 1_555 1_555
C22 C21 1_555 1_555
H7 C22 1_555 1_555
C23 C8 1_555 1_555
C24 C23 1_555 1_555
C25 C1 1_555 1_555
C26 C5 1_555 1_555
C27 C26 1_555 1_555
C28 C27 1_555 1_555
C29 C28 1_555 1_555
C30 C29 1_555 1_555
C31 C26 1_555 1_555
C32 C10 1_555 1_555
C33 C32 1_555 1_555
C34 C33 1_555 1_555
C35 C34 1_555 1_555
C36 C35 1_555 1_555
C37 C32 1_555 1_555
C38 C15 1_555 1_555
C39 C38 1_555 1_555
C40 C39 1_555 1_555
C41 C40 1_555 1_555
C42 C41 1_555 1_555
C43 C38 1_555 1_555
C44 C20 1_555 1_555
C45 C44 1_555 1_555
C46 C45 1_555 1_555
C47 C46 1_555 1_555
C48 C47 1_555 1_555
C49 C44 1_555 1_555
C50 C25 1_555 1_555
C51 C50 1_555 1_555
C52 C51 1_555 1_555
C53 C52 1_555 1_555
C54 C53 1_555 1_555
C55 C50 1_555 1_555
F1 C31 1_555 1_555
F2 C30 1_555 1_555
F3 C29 1_555 1_555
F4 C28 1_555 1_555
F5 C27 1_555 1_555
F6 C34 1_555 1_555
F7 C35 1_555 1_555
F8 C36 1_555 1_555
F9 C37 1_555 1_555
F10 C39 1_555 1_555
F11 C40 1_555 1_555
F12 C41 1_555 1_555
F13 C42 1_555 1_555
F14 C43 1_555 1_555
F15 C45 1_555 1_555
F16 C46 1_555 1_555
F17 C47 1_555 1_555
F18 C48 1_555 1_555
F19 C49 1_555 1_555
F20 C51 1_555 1_555
F21 C52 1_555 1_555
F22 C53 1_555 1_555
F23 C54 1_555 1_555
F24 C55 1_555 1_555
N1 C1 1_555 1_555
N2 C6 1_555 1_555
N3 C11 1_555 1_555
H8 N3 1_555 1_555
N4 C16 1_555 1_555
H9 N4 1_555 1_555
N5 C21 1_555 1_555
C56 H10 1_555 1_555
H11 C56 1_555 1_555
C57 C56 1_555 1_555
H12 C57 1_555 1_555
H13 C57 1_555 1_555
C58 H14 1_555 1_555
H15 C58 1_555 1_555
C59 C58 1_555 1_555
H16 C59 1_555 1_555
H17 C59 1_555 1_555
O1 C57 1_555 1_555
O2 C56 1_555 1_555
C60 H18 1_555 1_555
H19 C60 1_555 1_555
C61 C60 1_555 1_555
H20 C61 1_555 1_555
H21 C61 1_555 1_555
C62 H22 1_555 1_555
H23 C62 1_555 1_555
C63 C62 1_555 1_555
H24 C63 1_555 1_555
H25 C63 1_555 1_555
O3 C61 1_555 1_555
O4 C60 1_555 1_555
C64 H26 1_555 1_555
H27 C64 1_555 1_555
C65 C64 1_555 1_555
H28 C65 1_555 1_555
H29 C65 1_555 1_555
C66 H30 1_555 1_555
H31 C66 1_555 1_555
C67 C66 1_555 1_555
H32 C67 1_555 1_555
H33 C67 1_555 1_555
O5 C64 1_555 1_555
O6 C65 1_555 1_555
C4 N1 1_555 1_555
C7 N1 1_555 1_555
C9 N2 1_555 1_555
C14 N3 1_555 1_555
C19 N4 1_555 1_555
C22 C23 1_555 1_555
C24 C25 1_555 1_555
C24 N5 1_555 1_555
C30 C31 1_555 1_555
C33 N2 1_555 1_555
C36 C37 1_555 1_555
C42 C43 1_555 1_555
C48 C49 1_555 1_555
C54 C55 1_555 1_555
C58 O1 1_555 1_555
C59 O2 1_555 1_555
C62 O3 1_555 1_555
C63 O4 1_555 1_555
C66 O6 1_555 1_555
C67 O5 1_555 1_555

#END
