
#######################################################################
#
#                 Cambridge Crystallographic Data Centre
#                                CCDC 
#
#######################################################################
#
# If this CIF has been generated from an entry in the Cambridge 
# Structural Database, then it will include bibliographic, chemical, 
# crystal, experimental, refinement or atomic coordinate data resulting 
# from the CCDC's data processing and validation procedures.
#
#######################################################################

data_ZAMSAH
_chemical_formula_moiety         'C18 H12 F3 N1 O1'
_chemical_name_systematic        
2-((2-Trifluoromethyl)phenyliminomethyl)-3-naphthol
_symmetry_cell_setting           orthorhombic
_symmetry_space_group_name_H-M   'P b c a'
_symmetry_Int_Tables_number      61
_space_group_name_Hall           '-P 2ac 2ab'
loop_
_symmetry_equiv_pos_site_id
_symmetry_equiv_pos_as_xyz
1 x,y,z
2 1/2-x,-y,1/2+z
3 1/2+x,1/2-y,-z
4 -x,1/2+y,1/2-z
5 -x,-y,-z
6 1/2+x,y,1/2-z
7 1/2-x,1/2+y,z
8 x,1/2-y,1/2+z
_cell_length_a                   6.988(2)
_cell_length_b                   14.110(3)
_cell_length_c                   30.133(6)
_cell_angle_alpha                90
_cell_angle_beta                 90
_cell_angle_gamma                90
_cell_volume                     2971.13
_exptl_crystal_colour            colorless
_cell_formula_units_Z            8
loop_
_atom_site_label
_atom_site_type_symbol
_atom_site_fract_x
_atom_site_fract_y
_atom_site_fract_z
C1 C 0.4225(4) 0.2256(2) 0.50484(8)
C2 C 0.3822(3) 0.2003(2) 0.54796(7)
C3 C 0.2963(4) 0.1105(2) 0.55631(9)
C4 C 0.2565(4) 0.0507(2) 0.52180(10)
C5 C 0.2647(5) 0.0135(3) 0.44139(13)
C6 C 0.3119(5) 0.0406(3) 0.39936(13)
C7 C 0.3924(5) 0.1294(4) 0.39057(12)
C8 C 0.4268(4) 0.1910(3) 0.42418(9)
C9 C 0.3839(3) 0.1654(2) 0.46881(8)
C10 C 0.3002(4) 0.0757(2) 0.47780(10)
C11 C 0.4296(3) 0.2651(2) 0.58377(8)
C12 C 0.4504(3) 0.3087(2) 0.65825(7)
C13 C 0.5523(4) 0.2790(2) 0.69547(7)
C14 C 0.5973(4) 0.3432(2) 0.72867(9)
C15 C 0.5370(4) 0.4364(2) 0.72528(10)
C16 C 0.4335(4) 0.4651(2) 0.68944(9)
C17 C 0.3885(4) 0.4021(2) 0.65606(9)
C18 C 0.6250(5) 0.1795(2) 0.69876(9)
N1 N 0.4062(3) 0.24228(13) 0.62454(6)
O1 O 0.2531(3) 0.08337(14) 0.59805(7)
F1 F 0.7587(3) 0.16109(13) 0.66833(8)
F2 F 0.4921(3) 0.11316(11) 0.69245(5)
F3 F 0.7014(4) 0.16016(13) 0.73804(7)
H1 H 0.4778(39) 0.2866(20) 0.4993(8)
H2 H 0.2046(44) -0.0123(25) 0.5284(9)
H3 H 0.2041(52) -0.0508(27) 0.4494(11)
H4 H 0.2903(52) -0.0033(29) 0.3783(12)
H5 H 0.4197(57) 0.1474(27) 0.3616(13)
H6 H 0.4794(52) 0.2528(26) 0.4192(11)
H7 H 0.4805(37) 0.3270(19) 0.5770(8)
H8 H 0.6795(42) 0.3233(18) 0.7528(10)
H9 H 0.5679(44) 0.4796(22) 0.7466(10)
H10 H 0.3966(52) 0.5324(27) 0.6859(10)
H11 H 0.3165(39) 0.4211(18) 0.6324(9)
H12 H 0.2999(53) 0.1315(26) 0.6158(12)
loop_
_geom_bond_atom_site_label_1
_geom_bond_atom_site_label_2
_geom_bond_site_symmetry_1
_geom_bond_site_symmetry_2
C1 C2 1_555 1_555
C2 C3 1_555 1_555
C3 C4 1_555 1_555
C4 C10 1_555 1_555
C5 C6 1_555 1_555
C6 C7 1_555 1_555
C7 C8 1_555 1_555
C8 C9 1_555 1_555
C9 C1 1_555 1_555
C10 C5 1_555 1_555
C11 C2 1_555 1_555
C12 C13 1_555 1_555
C13 C14 1_555 1_555
C14 C15 1_555 1_555
C15 C16 1_555 1_555
C16 C17 1_555 1_555
C17 C12 1_555 1_555
C18 C13 1_555 1_555
N1 C11 1_555 1_555
O1 C3 1_555 1_555
F1 C18 1_555 1_555
F2 C18 1_555 1_555
F3 C18 1_555 1_555
H1 C1 1_555 1_555
H2 C4 1_555 1_555
H3 C5 1_555 1_555
H4 C6 1_555 1_555
H5 C7 1_555 1_555
H6 C8 1_555 1_555
H7 C11 1_555 1_555
H8 C14 1_555 1_555
H9 C15 1_555 1_555
H10 C16 1_555 1_555
H11 C17 1_555 1_555
H12 O1 1_555 1_555
C9 C10 1_555 1_555
C12 N1 1_555 1_555

#END
