
#######################################################################
#
#                 Cambridge Crystallographic Data Centre
#                                CCDC 
#
#######################################################################
#
# If this CIF has been generated from an entry in the Cambridge 
# Structural Database, then it will include bibliographic, chemical, 
# crystal, experimental, refinement or atomic coordinate data resulting 
# from the CCDC's data processing and validation procedures.
#
#######################################################################

data_ZANXAQ
_chemical_formula_moiety         'C58 H40 N6,C6 H5 N1 O2'
_chemical_name_systematic        
"N,N'-((10,20-diphenylporphyrin-5,15-diyl)di-4,1-phenylene)bis(1-phenylmethanimine) nitrobenzene solvate"
_symmetry_cell_setting           triclinic
_symmetry_space_group_name_H-M   'P -1'
_symmetry_Int_Tables_number      2
_space_group_name_Hall           '-P 1'
loop_
_symmetry_equiv_pos_site_id
_symmetry_equiv_pos_as_xyz
1 x,y,z
2 -x,-y,-z
_cell_length_a                   10.9281(7)
_cell_length_b                   14.2420(9)
_cell_length_c                   17.5487(11)
_cell_angle_alpha                110.427(2)
_cell_angle_beta                 92.025(2)
_cell_angle_gamma                108.024(2)
_cell_volume                     2402.21
_exptl_crystal_colour            purple
_exptl_crystal_description       sheet
_cell_formula_units_Z            2
loop_
_atom_site_label
_atom_site_type_symbol
_atom_site_fract_x
_atom_site_fract_y
_atom_site_fract_z
C1 C 0.7442(4) -0.0033(3) 0.0345(2)
C2 C 0.6308(4) -0.0217(3) 0.0667(2)
H1 H 0.5487 -0.0601 0.0319
C3 C 0.6398(6) 0.0175(3) 0.1518(3)
H2 H 0.5632 0.0069 0.1763
C4 C 0.7613(9) 0.0721(4) 0.2008(3)
H3 H 0.7682 0.1005 0.2591
C5 C 0.8709(7) 0.0851(4) 0.1649(4)
H4 H 0.9539 0.1203 0.1990
C6 C 0.8647(4) 0.0489(3) 0.0818(4)
H5 H 0.9415 0.0597 0.0574
N1 N 0.7359(4) -0.0448(3) -0.0555(2)
O1 O 0.6273(4) -0.0943(3) -0.09769(19)
O2 O 0.8352(4) -0.0285(3) -0.0840(2)
C7 C 0.3672(3) 0.5621(2) 0.65470(16)
C8 C 0.3569(3) 0.6554(2) 0.71654(16)
H6 H 0.3025 0.6562 0.7576
C9 C 0.4383(3) 0.7423(2) 0.70643(17)
H7 H 0.4506 0.8145 0.7392
C10 C 0.5017(3) 0.7069(2) 0.63843(16)
C11 C 0.2931(3) 0.4559(2) 0.63959(15)
C12 C 0.3546(3) 0.2648(2) 0.46556(16)
C13 C 0.2639(3) 0.1947(2) 0.49630(16)
H8 H 0.2341 0.1189 0.4739
C14 C 0.2292(3) 0.2570(2) 0.56290(17)
H9 H 0.1700 0.2337 0.5963
C15 C 0.2995(3) 0.3666(2) 0.57387(16)
C16 C 0.4119(3) 0.2287(2) 0.39576(16)
C17 C 0.1977(3) 0.4362(2) 0.69591(16)
C18 C 0.0658(3) 0.3828(2) 0.66568(17)
H10 H 0.0360 0.3581 0.6083
C19 C -0.0229(3) 0.3649(2) 0.71748(18)
H11 H -0.1130 0.3294 0.6954
C20 C 0.0174(3) 0.3978(2) 0.80092(18)
C21 C 0.1480(3) 0.4525(2) 0.83272(17)
H12 H 0.1768 0.4771 0.8902
C22 C 0.2376(3) 0.4715(2) 0.78053(16)
H13 H 0.3272 0.5092 0.8030
C23 C -0.0623(3) 0.3512(2) 0.90766(19)
H14 H 0.0213 0.3488 0.9213
C24 C -0.1652(3) 0.3247(2) 0.95806(18)
C25 C -0.2862(3) 0.3344(3) 0.94391(19)
H15 H -0.3039 0.3592 0.9025
C26 C -0.3802(3) 0.3077(3) 0.9907(2)
H16 H -0.4625 0.3147 0.9814
C27 C -0.3562(4) 0.2711(3) 1.0503(2)
H17 H -0.4215 0.2534 1.0822
C28 C -0.2403(3) 0.2604(2) 1.06352(18)
H18 H -0.2239 0.2353 1.1050
C29 C -0.1441(3) 0.2857(2) 1.01686(19)
H19 H -0.0633 0.2760 1.0257
C30 C 0.3807(3) 0.1107(2) 0.35331(17)
C31 C 0.3059(3) 0.0541(2) 0.27574(19)
H20 H 0.2729 0.0906 0.2487
C32 C 0.2782(4) -0.0553(3) 0.2366(2)
H21 H 0.2262 -0.0930 0.1836
C33 C 0.3265(4) -0.1084(3) 0.2752(2)
H22 H 0.3085 -0.1829 0.2484
C34 C 0.4002(4) -0.0547(3) 0.3518(2)
H23 H 0.4331 -0.0920 0.3782
C35 C 0.4273(3) 0.0548(2) 0.3914(2)
H24 H 0.4780 0.0916 0.4449
N2 N 0.4587(2) 0.59754(18) 0.61031(13)
H25 H 0.482(3) 0.562(2) 0.5705(14)
N3 N 0.3760(2) 0.36975(16) 0.51353(12)
N4 N -0.0826(2) 0.37618(19) 0.84843(15)
C7A C 0.6328(3) 0.4379(2) 0.34530(16)
C8A C 0.6431(3) 0.3446(2) 0.28346(16)
H6A H 0.6975 0.3438 0.2424
C9A C 0.5617(3) 0.2577(2) 0.29357(17)
H7A H 0.5494 0.1855 0.2608
C10A C 0.4983(3) 0.2931(2) 0.36157(16)
C11A C 0.7069(3) 0.5441(2) 0.36041(15)
C12A C 0.6454(3) 0.7352(2) 0.53444(16)
C13A C 0.7361(3) 0.8053(2) 0.50370(16)
H8A H 0.7659 0.8811 0.5261
C14A C 0.7708(3) 0.7430(2) 0.43710(17)
H9A H 0.8300 0.7663 0.4037
C15A C 0.7005(3) 0.6334(2) 0.42613(16)
C16A C 0.5881(3) 0.7713(2) 0.60424(16)
C17A C 0.8023(3) 0.5638(2) 0.30409(16)
C18A C 0.9342(3) 0.6172(2) 0.33432(17)
H10A H 0.9640 0.6419 0.3917
C19A C 1.0229(3) 0.6351(2) 0.28252(18)
H11A H 1.1130 0.6706 0.3046
C20A C 0.9826(3) 0.6022(2) 0.19908(18)
C21A C 0.8520(3) 0.5475(2) 0.16728(17)
H12A H 0.8232 0.5229 0.1098
C22A C 0.7624(3) 0.5285(2) 0.21947(16)
H13A H 0.6728 0.4908 0.1970
C23A C 1.0623(3) 0.6488(2) 0.09234(19)
H14A H 0.9787 0.6512 0.0787
C24A C 1.1652(3) 0.6753(2) 0.04194(18)
C25A C 1.2862(3) 0.6656(3) 0.05609(19)
H15A H 1.3039 0.6408 0.0975
C26A C 1.3802(3) 0.6923(3) 0.0093(2)
H16A H 1.4625 0.6853 0.0186
C27A C 1.3562(4) 0.7289(3) -0.0503(2)
H17A H 1.4215 0.7466 -0.0822
C28A C 1.2403(3) 0.7396(2) -0.06352(18)
H18A H 1.2239 0.7647 -0.1050
C29A C 1.1441(3) 0.7143(2) -0.01686(19)
H19A H 1.0633 0.7240 -0.0257
C30A C 0.6193(3) 0.8893(2) 0.64669(17)
C31A C 0.6941(3) 0.9459(2) 0.72426(19)
H20A H 0.7271 0.9094 0.7513
C32A C 0.7218(4) 1.0553(3) 0.7634(2)
H21A H 0.7738 1.0930 0.8164
C33A C 0.6735(4) 1.1084(3) 0.7248(2)
H22A H 0.6915 1.1829 0.7516
C34A C 0.5998(4) 1.0547(3) 0.6482(2)
H23A H 0.5669 1.0920 0.6218
C35A C 0.5727(3) 0.9452(2) 0.6086(2)
H24A H 0.5220 0.9084 0.5551
N2A N 0.5413(2) 0.40246(18) 0.38969(13)
H25A H 0.518(3) 0.438(2) 0.4295(14)
N3A N 0.6240(2) 0.63025(16) 0.48647(12)
N4A N 1.0826(2) 0.62382(19) 0.15157(15)
C36 C 0.4085(3) 0.5086(2) 0.16262(16)
C37 C 0.4378(3) 0.5728(2) 0.24857(17)
H26 H 0.3918 0.5561 0.2897
C38 C 0.5418(3) 0.6614(2) 0.26194(17)
H27 H 0.5814 0.7174 0.3138
C39 C 0.5818(3) 0.6558(2) 0.18382(16)
C40 C 0.3077(3) 0.4106(2) 0.12549(16)
C41 C 0.2760(3) 0.2829(2) -0.09157(17)
C42 C 0.1748(3) 0.2040(2) -0.07394(17)
H28 H 0.1186 0.1372 -0.1128
C43 C 0.1749(3) 0.2424(2) 0.00768(17)
H29 H 0.1188 0.2080 0.0374
C44 C 0.2767(3) 0.3463(2) 0.04183(16)
C45 C 0.3116(3) 0.2706(2) -0.16993(16)
C46 C 0.2236(3) 0.3770(2) 0.18346(16)
C47 C 0.1101(3) 0.4010(2) 0.19216(18)
H30 H 0.0847 0.4336 0.1585
C48 C 0.0330(3) 0.3786(2) 0.24855(18)
H31 H -0.0452 0.3948 0.2527
C49 C 0.0695(3) 0.3328(2) 0.29893(17)
C50 C 0.1810(3) 0.3056(2) 0.28916(19)
H32 H 0.2047 0.2710 0.3217
C51 C 0.2585(3) 0.3283(2) 0.23236(18)
H33 H 0.3355 0.3104 0.2270
C52 C -0.0639(3) 0.3701(3) 0.39723(18)
H34 H -0.0528 0.4330 0.3866
C53 C -0.1480(3) 0.3495(3) 0.45869(18)
C54 C -0.2012(3) 0.4175(2) 0.49830(16)
H35 H -0.1844 0.4823 0.4898
C55 C -0.2857(3) 0.3950(3) 0.55510(18)
H36 H -0.3243 0.4452 0.5848
C56 C -0.3115(3) 0.2964(3) 0.56684(17)
H37 H -0.3701 0.2779 0.6022
C57 C -0.2504(3) 0.2328(3) 0.52652(19)
H38 H -0.2632 0.1686 0.5355
C58 C -0.1677(3) 0.2540(3) 0.47125(19)
H39 H -0.1260 0.2055 0.4430
C59 C 0.2321(3) 0.1759(2) -0.24314(16)
C60 C 0.1001(3) 0.1547(2) -0.26484(17)
H40 H 0.0586 0.1995 -0.2307
C61 C 0.0275(3) 0.0692(2) -0.33541(19)
H41 H -0.0629 0.0555 -0.3490
C62 C 0.0867(4) 0.0044(3) -0.3856(2)
H42 H 0.0375 -0.0540 -0.4341
C63 C 0.2178(4) 0.0246(2) -0.3654(2)
H43 H 0.2590 -0.0194 -0.4007
C64 C 0.2899(3) 0.1083(2) -0.29416(18)
H44 H 0.3794 0.1197 -0.2799
N5 N 0.4988(2) 0.56199(19) 0.12609(14)
H45 H 0.504(3) 0.543(2) 0.0772(14)
N6 N 0.3372(2) 0.36935(17) -0.01984(13)
N7 N -0.0052(2) 0.3061(2) 0.35768(15)
C36A C 0.5915(3) 0.4914(2) -0.16262(16)
C37A C 0.5622(3) 0.4272(2) -0.24857(17)
H26A H 0.6082 0.4439 -0.2897
C38A C 0.4582(3) 0.3386(2) -0.26194(17)
H27A H 0.4186 0.2826 -0.3138
C39A C 0.4182(3) 0.3442(2) -0.18382(16)
C40A C 0.6923(3) 0.5894(2) -0.12549(16)
C41A C 0.7240(3) 0.7171(2) 0.09157(17)
C42A C 0.8252(3) 0.7960(2) 0.07394(17)
H28A H 0.8814 0.8628 0.1128
C43A C 0.8251(3) 0.7576(2) -0.00768(17)
H29A H 0.8812 0.7920 -0.0374
C44A C 0.7233(3) 0.6537(2) -0.04183(16)
C45A C 0.6884(3) 0.7294(2) 0.16993(16)
C46A C 0.7764(3) 0.6230(2) -0.18346(16)
C47A C 0.8899(3) 0.5990(2) -0.19216(18)
H30A H 0.9153 0.5664 -0.1585
C48A C 0.9670(3) 0.6214(2) -0.24855(18)
H31A H 1.0452 0.6052 -0.2527
C49A C 0.9305(3) 0.6672(2) -0.29893(17)
C50A C 0.8190(3) 0.6944(2) -0.28916(19)
H32A H 0.7953 0.7290 -0.3217
C51A C 0.7415(3) 0.6717(2) -0.23236(18)
H33A H 0.6645 0.6896 -0.2270
C52A C 1.0639(3) 0.6299(3) -0.39723(18)
H34A H 1.0528 0.5670 -0.3866
C53A C 1.1480(3) 0.6505(3) -0.45869(18)
C54A C 1.2012(3) 0.5825(2) -0.49830(16)
H35A H 1.1844 0.5177 -0.4898
C55A C 1.2857(3) 0.6050(3) -0.55510(18)
H36A H 1.3243 0.5548 -0.5848
C56A C 1.3115(3) 0.7036(3) -0.56684(17)
H37A H 1.3701 0.7221 -0.6022
C57A C 1.2504(3) 0.7672(3) -0.52652(19)
H38A H 1.2632 0.8314 -0.5355
C58A C 1.1677(3) 0.7460(3) -0.47125(19)
H39A H 1.1260 0.7945 -0.4430
C59A C 0.7679(3) 0.8241(2) 0.24314(16)
C60A C 0.8999(3) 0.8453(2) 0.26484(17)
H40A H 0.9414 0.8005 0.2307
C61A C 0.9725(3) 0.9308(2) 0.33541(19)
H41A H 1.0629 0.9445 0.3490
C62A C 0.9133(4) 0.9956(3) 0.3856(2)
H42A H 0.9625 1.0540 0.4341
C63A C 0.7822(4) 0.9754(2) 0.3654(2)
H43A H 0.7410 1.0194 0.4007
C64A C 0.7101(3) 0.8917(2) 0.29416(18)
H44A H 0.6206 0.8803 0.2799
N5A N 0.5012(2) 0.43801(19) -0.12609(14)
H45A H 0.496(3) 0.457(2) -0.0772(14)
N6A N 0.6628(2) 0.63065(17) 0.01984(13)
N7A N 1.0052(2) 0.6939(2) -0.35768(15)
loop_
_geom_bond_atom_site_label_1
_geom_bond_atom_site_label_2
_geom_bond_site_symmetry_1
_geom_bond_site_symmetry_2
C1 C2 1_555 1_555
C2 H1 1_555 1_555
C3 C2 1_555 1_555
H2 C3 1_555 1_555
C4 C3 1_555 1_555
H3 C4 1_555 1_555
C5 C4 1_555 1_555
H4 C5 1_555 1_555
C6 C1 1_555 1_555
H5 C6 1_555 1_555
N1 C1 1_555 1_555
O1 N1 1_555 1_555
O2 N1 1_555 1_555
C7 C8 1_555 1_555
C8 H6 1_555 1_555
C9 C8 1_555 1_555
H7 C9 1_555 1_555
C10 C9 1_555 1_555
C11 C7 1_555 1_555
C12 C13 1_555 1_555
C13 H8 1_555 1_555
C14 C13 1_555 1_555
H9 C14 1_555 1_555
C15 C11 1_555 1_555
C16 C12 1_555 1_555
C17 C11 1_555 1_555
C18 C17 1_555 1_555
H10 C18 1_555 1_555
C19 C18 1_555 1_555
H11 C19 1_555 1_555
C20 C19 1_555 1_555
C21 C20 1_555 1_555
H12 C21 1_555 1_555
C22 C17 1_555 1_555
H13 C22 1_555 1_555
C23 H14 1_555 1_555
C24 C23 1_555 1_555
C25 C24 1_555 1_555
H15 C25 1_555 1_555
C26 C25 1_555 1_555
H16 C26 1_555 1_555
C27 C26 1_555 1_555
H17 C27 1_555 1_555
C28 C27 1_555 1_555
H18 C28 1_555 1_555
C29 C24 1_555 1_555
H19 C29 1_555 1_555
C30 C16 1_555 1_555
C31 C30 1_555 1_555
H20 C31 1_555 1_555
C32 C31 1_555 1_555
H21 C32 1_555 1_555
C33 C32 1_555 1_555
H22 C33 1_555 1_555
C34 C33 1_555 1_555
H23 C34 1_555 1_555
C35 C30 1_555 1_555
H24 C35 1_555 1_555
N2 C7 1_555 1_555
H25 N2 1_555 1_555
N3 C12 1_555 1_555
N4 C20 1_555 1_555
C36 C37 1_555 1_555
C37 H26 1_555 1_555
C38 C37 1_555 1_555
H27 C38 1_555 1_555
C39 C38 1_555 1_555
C40 C36 1_555 1_555
C41 C42 1_555 1_555
C42 H28 1_555 1_555
C43 C42 1_555 1_555
H29 C43 1_555 1_555
C44 C40 1_555 1_555
C45 C41 1_555 1_555
C46 C40 1_555 1_555
C47 C46 1_555 1_555
H30 C47 1_555 1_555
C48 C47 1_555 1_555
H31 C48 1_555 1_555
C49 C48 1_555 1_555
C50 C49 1_555 1_555
H32 C50 1_555 1_555
C51 C46 1_555 1_555
H33 C51 1_555 1_555
C52 H34 1_555 1_555
C53 C52 1_555 1_555
C54 C53 1_555 1_555
H35 C54 1_555 1_555
C55 C54 1_555 1_555
H36 C55 1_555 1_555
C56 C55 1_555 1_555
H37 C56 1_555 1_555
C57 C56 1_555 1_555
H38 C57 1_555 1_555
C58 C53 1_555 1_555
H39 C58 1_555 1_555
C59 C45 1_555 1_555
C60 C59 1_555 1_555
H40 C60 1_555 1_555
C61 C60 1_555 1_555
H41 C61 1_555 1_555
C62 C61 1_555 1_555
H42 C62 1_555 1_555
C63 C62 1_555 1_555
H43 C63 1_555 1_555
C64 C59 1_555 1_555
H44 C64 1_555 1_555
N5 C36 1_555 1_555
H45 N5 1_555 1_555
N6 C41 1_555 1_555
N7 C49 1_555 1_555
C7A C8A 1_555 1_555
C8A H6A 1_555 1_555
C9A C8A 1_555 1_555
H7A C9A 1_555 1_555
C10A C16 1_555 1_555
C11A C7A 1_555 1_555
C12A C13A 1_555 1_555
C13A H8A 1_555 1_555
C14A C13A 1_555 1_555
H9A C14A 1_555 1_555
C15A C11A 1_555 1_555
C16A C10 1_555 1_555
C17A C11A 1_555 1_555
C18A C17A 1_555 1_555
H10A C18A 1_555 1_555
C19A C18A 1_555 1_555
H11A C19A 1_555 1_555
C20A C19A 1_555 1_555
C21A C20A 1_555 1_555
H12A C21A 1_555 1_555
C22A C17A 1_555 1_555
H13A C22A 1_555 1_555
C23A H14A 1_555 1_555
C24A C23A 1_555 1_555
C25A C24A 1_555 1_555
H15A C25A 1_555 1_555
C26A C25A 1_555 1_555
H16A C26A 1_555 1_555
C27A C26A 1_555 1_555
H17A C27A 1_555 1_555
C28A C27A 1_555 1_555
H18A C28A 1_555 1_555
C29A C24A 1_555 1_555
H19A C29A 1_555 1_555
C30A C16A 1_555 1_555
C31A C30A 1_555 1_555
H20A C31A 1_555 1_555
C32A C31A 1_555 1_555
H21A C32A 1_555 1_555
C33A C32A 1_555 1_555
H22A C33A 1_555 1_555
C34A C33A 1_555 1_555
H23A C34A 1_555 1_555
C35A C30A 1_555 1_555
H24A C35A 1_555 1_555
N2A C7A 1_555 1_555
H25A N2A 1_555 1_555
N3A C12A 1_555 1_555
N4A C20A 1_555 1_555
C36A C37A 1_555 1_555
C37A H26A 1_555 1_555
C38A C37A 1_555 1_555
H27A C38A 1_555 1_555
C39A C45 1_555 1_555
C40A C36A 1_555 1_555
C41A C42A 1_555 1_555
C42A H28A 1_555 1_555
C43A C42A 1_555 1_555
H29A C43A 1_555 1_555
C44A C40A 1_555 1_555
C45A C39 1_555 1_555
C46A C40A 1_555 1_555
C47A C46A 1_555 1_555
H30A C47A 1_555 1_555
C48A C47A 1_555 1_555
H31A C48A 1_555 1_555
C49A C48A 1_555 1_555
C50A C49A 1_555 1_555
H32A C50A 1_555 1_555
C51A C46A 1_555 1_555
H33A C51A 1_555 1_555
C52A H34A 1_555 1_555
C53A C52A 1_555 1_555
C54A C53A 1_555 1_555
H35A C54A 1_555 1_555
C55A C54A 1_555 1_555
H36A C55A 1_555 1_555
C56A C55A 1_555 1_555
H37A C56A 1_555 1_555
C57A C56A 1_555 1_555
H38A C57A 1_555 1_555
C58A C53A 1_555 1_555
H39A C58A 1_555 1_555
C59A C45A 1_555 1_555
C60A C59A 1_555 1_555
H40A C60A 1_555 1_555
C61A C60A 1_555 1_555
H41A C61A 1_555 1_555
C62A C61A 1_555 1_555
H42A C62A 1_555 1_555
C63A C62A 1_555 1_555
H43A C63A 1_555 1_555
C64A C59A 1_555 1_555
H44A C64A 1_555 1_555
N5A C36A 1_555 1_555
H45A N5A 1_555 1_555
N6A C41A 1_555 1_555
N7A C49A 1_555 1_555
C5 C6 1_555 1_555
C10 N2 1_555 1_555
C14 C15 1_555 1_555
C15 N3 1_555 1_555
C21 C22 1_555 1_555
C23 N4 1_555 1_555
C28 C29 1_555 1_555
C34 C35 1_555 1_555
C39 N5 1_555 1_555
C43 C44 1_555 1_555
C44 N6 1_555 1_555
C50 C51 1_555 1_555
C52 N7 1_555 1_555
C57 C58 1_555 1_555
C63 C64 1_555 1_555
C9A C10A 1_555 1_555
C10A N2A 1_555 1_555
C12A C16A 1_555 1_555
C14A C15A 1_555 1_555
C15A N3A 1_555 1_555
C21A C22A 1_555 1_555
C23A N4A 1_555 1_555
C28A C29A 1_555 1_555
C34A C35A 1_555 1_555
C38A C39A 1_555 1_555
C39A N5A 1_555 1_555
C41A C45A 1_555 1_555
C43A C44A 1_555 1_555
C44A N6A 1_555 1_555
C50A C51A 1_555 1_555
C52A N7A 1_555 1_555
C57A C58A 1_555 1_555
C63A C64A 1_555 1_555

#END
