
#######################################################################
#
#                 Cambridge Crystallographic Data Centre
#                                CCDC 
#
#######################################################################
#
# If this CIF has been generated from an entry in the Cambridge 
# Structural Database, then it will include bibliographic, chemical, 
# crystal, experimental, refinement or atomic coordinate data resulting 
# from the CCDC's data processing and validation procedures.
#
#######################################################################

data_ZAPGOM
_chemical_formula_moiety         'C17 H31 N1 O3 S1'
_chemical_name_systematic        
'(2R,4R)-3-Acetyl-2-undecyl-4-thiazolidine carboxylic acid'
_chemical_properties_biological  'surfactant activity'
_symmetry_cell_setting           monoclinic
_symmetry_space_group_name_H-M   'P 21'
_symmetry_Int_Tables_number      4
_space_group_name_Hall           'P 2yb'
loop_
_symmetry_equiv_pos_site_id
_symmetry_equiv_pos_as_xyz
1 x,y,z
2 -x,1/2+y,-z
_cell_length_a                   9.905(2)
_cell_length_b                   8.117(2)
_cell_length_c                   24.041(5)
_cell_angle_alpha                90
_cell_angle_beta                 92.18(3)
_cell_angle_gamma                90
_cell_volume                     1931.47
_exptl_crystal_colour            colorless
_cell_formula_units_Z            4
loop_
_atom_site_label
_atom_site_type_symbol
_atom_site_fract_x
_atom_site_fract_y
_atom_site_fract_z
S1 S 0.3803(1) -0.1377(1) 0.1797(1)
O1 O 0.0685(3) -0.3311(3) 0.0335(1)
O2 O -0.0298(2) -0.1714(4) 0.0966(1)
O3 O 0.1415(2) 0.0575(4) 0.0193(1)
N1 N 0.2239(3) 0.0019(3) 0.1047(1)
C1 C 0.2618(4) -0.2701(4) 0.1424(1)
C2 C 0.2138(3) -0.1741(4) 0.0906(1)
C3 C 0.0684(3) -0.2223(4) 0.0738(1)
C4 C 0.2791(3) 0.0422(4) 0.1601(1)
C5 C 0.1672(3) 0.0763(5) 0.2007(1)
C6 C 0.2188(3) 0.1250(5) 0.2589(1)
C7 C 0.1036(4) 0.1450(6) 0.2991(1)
C8 C 0.1519(4) 0.1686(6) 0.3589(1)
C9 C 0.0370(4) 0.1761(6) 0.3997(1)
C10 C 0.0854(4) 0.1824(6) 0.4597(1)
C11 C -0.0286(4) 0.1814(6) 0.5011(2)
C12 C 0.0226(4) 0.1750(6) 0.5613(1)
C13 C -0.0889(4) 0.1685(6) 0.6037(2)
C14 C -0.0363(5) 0.1508(7) 0.6631(2)
C15 C -0.1454(6) 0.1418(9) 0.7056(2)
C16 C 0.1891(3) 0.1103(4) 0.0644(1)
C17 C 0.2081(4) 0.2906(5) 0.0745(2)
H1 H -0.0017(48) -0.3651(70) 0.0226(16)
H2 H 0.3056(4) -0.3731(4) 0.1319(1)
H3 H 0.1854(4) -0.2965(4) 0.1656(1)
H4 H 0.2736(3) -0.1988(4) 0.0597(1)
H5 H 0.3384(3) 0.1400(4) 0.1579(1)
H6 H 0.1095(3) 0.1648(5) 0.1856(1)
H7 H 0.1112(3) -0.0227(5) 0.2035(1)
H8 H 0.2686(3) 0.2290(5) 0.2569(1)
H9 H 0.2816(3) 0.0405(5) 0.2734(1)
H10 H 0.0485(4) 0.2401(6) 0.2875(1)
H11 H 0.0457(4) 0.0471(6) 0.2966(1)
H12 H 0.2041(4) 0.2709(6) 0.3619(1)
H13 H 0.2124(4) 0.0775(6) 0.3697(1)
H14 H -0.0182(4) 0.2739(6) 0.3914(1)
H15 H -0.0208(4) 0.0791(6) 0.3941(1)
H16 H 0.1395(4) 0.2823(6) 0.4657(1)
H17 H 0.1444(4) 0.0875(6) 0.4674(1)
H18 H -0.0836(4) 0.2807(6) 0.4955(2)
H19 H -0.0868(4) 0.0858(6) 0.4935(2)
H20 H 0.0788(4) 0.2723(6) 0.5690(1)
H21 H 0.0803(4) 0.0776(6) 0.5664(1)
H22 H -0.1428(4) 0.2694(6) 0.6004(2)
H23 H -0.1487(4) 0.0754(6) 0.5945(2)
H24 H 0.0227(5) 0.2446(7) 0.6722(2)
H25 H 0.0188(5) 0.0507(7) 0.6661(2)
H26 H -0.1037(6) 0.1337(55) 0.7427(2)
H27 H -0.2014(28) 0.0457(31) 0.6983(11)
H28 H -0.2007(28) 0.2403(26) 0.7031(12)
H29 H 0.3038(4) 0.3164(7) 0.0758(10)
H30 H 0.1697(23) 0.3203(7) 0.1097(5)
H31 H 0.1631(21) 0.3522(5) 0.0446(6)
S2 S -0.0923(1) 0.3869(1) 0.1681(1)
O4 O -0.3703(2) 0.0999(3) 0.0238(1)
O5 O -0.4761(3) 0.1911(4) 0.0988(1)
O6 O -0.4105(2) 0.4726(3) 0.0179(1)
N2 N -0.2855(2) 0.4570(3) 0.0966(1)
C18 C -0.1764(3) 0.2142(5) 0.1343(1)
C19 C -0.2515(3) 0.2864(4) 0.0832(1)
C20 C -0.3805(3) 0.1876(4) 0.0695(1)
C21 C -0.2376(3) 0.5170(4) 0.1514(1)
C22 C -0.3496(3) 0.5024(5) 0.1937(1)
C23 C -0.3060(4) 0.5559(6) 0.2525(1)
C24 C -0.4230(4) 0.5459(6) 0.2925(1)
C25 C -0.3771(4) 0.5631(6) 0.3531(1)
C26 C -0.4935(4) 0.5572(6) 0.3934(1)
C27 C -0.4442(4) 0.5619(6) 0.4540(1)
C28 C -0.5593(4) 0.5605(6) 0.4950(1)
C29 C -0.5089(4) 0.5588(6) 0.5554(1)
C30 C -0.6212(4) 0.5597(6) 0.5972(1)
C31 C -0.5697(4) 0.5550(6) 0.6573(1)
C32 C -0.6823(5) 0.5608(8) 0.6996(2)
C33 C -0.3610(3) 0.5437(4) 0.0594(1)
C34 C -0.3791(4) 0.7256(4) 0.0688(2)
H32 H -0.4559(50) 0.0532(73) 0.0167(18)
H33 H -0.1105(3) 0.1316(5) 0.1232(1)
H34 H -0.2399(3) 0.1624(5) 0.1592(1)
H35 H -0.1922(3) 0.2842(4) 0.0509(1)
H36 H -0.2085(3) 0.6332(4) 0.1485(1)
H37 H -0.4267(3) 0.5699(5) 0.1809(1)
H38 H -0.3801(3) 0.3876(5) 0.1948(1)
H39 H -0.2723(4) 0.6693(6) 0.2515(1)
H40 H -0.2319(4) 0.4851(6) 0.2663(1)
H41 H -0.4883(4) 0.6332(6) 0.2832(1)
H42 H -0.4691(4) 0.4399(6) 0.2873(1)
H43 H -0.3290(4) 0.6680(6) 0.3581(1)
H44 H -0.3133(4) 0.4743(6) 0.3626(1)
H45 H -0.5537(4) 0.6511(6) 0.3860(1)
H46 H -0.5457(4) 0.4562(6) 0.3867(1)
H47 H -0.3897(4) 0.6615(6) 0.4603(1)
H48 H -0.3856(4) 0.4665(6) 0.4616(1)
H49 H -0.6159(4) 0.6581(6) 0.4885(1)
H50 H -0.6157(4) 0.4630(6) 0.4879(1)
H51 H -0.4512(4) 0.6554(6) 0.5623(1)
H52 H -0.4531(4) 0.4605(6) 0.5619(1)
H53 H -0.6761(4) 0.6591(6) 0.5913(1)
H54 H -0.6799(4) 0.4642(6) 0.5900(1)
H55 H -0.5089(4) 0.6486(6) 0.6641(1)
H56 H -0.5170(4) 0.4540(6) 0.6634(1)
H57 H -0.6430(7) 0.5492(48) 0.7369(2)
H58 H -0.7455(22) 0.4716(30) 0.6920(10)
H59 H -0.7294(45) 0.6654(21) 0.6964(11)
H60 H -0.2928(6) 0.7809(6) 0.0662(10)
H61 H -0.4139(22) 0.7438(5) 0.1055(4)
H62 H -0.4424(18) 0.7694(7) 0.0408(6)
loop_
_geom_bond_atom_site_label_1
_geom_bond_atom_site_label_2
_geom_bond_site_symmetry_1
_geom_bond_site_symmetry_2
S1 C1 1_555 1_555
O1 C3 1_555 1_555
O2 C3 1_555 1_555
O3 C16 1_555 1_555
N1 C2 1_555 1_555
C1 C2 1_555 1_555
C2 C3 1_555 1_555
C4 S1 1_555 1_555
C5 C4 1_555 1_555
C6 C5 1_555 1_555
C7 C6 1_555 1_555
C8 C7 1_555 1_555
C9 C8 1_555 1_555
C10 C9 1_555 1_555
C11 C10 1_555 1_555
C12 C11 1_555 1_555
C13 C12 1_555 1_555
C14 C13 1_555 1_555
C15 C14 1_555 1_555
C16 N1 1_555 1_555
C17 C16 1_555 1_555
S2 C18 1_555 1_555
O4 C20 1_555 1_555
O5 C20 1_555 1_555
O6 C33 1_555 1_555
N2 C19 1_555 1_555
C18 C19 1_555 1_555
C19 C20 1_555 1_555
C21 S2 1_555 1_555
C22 C21 1_555 1_555
C23 C22 1_555 1_555
C24 C23 1_555 1_555
C25 C24 1_555 1_555
C26 C25 1_555 1_555
C27 C26 1_555 1_555
C28 C27 1_555 1_555
C29 C28 1_555 1_555
C30 C29 1_555 1_555
C31 C30 1_555 1_555
C32 C31 1_555 1_555
C33 N2 1_555 1_555
C34 C33 1_555 1_555
H1 O1 1_555 1_555
H2 C1 1_555 1_555
H3 C1 1_555 1_555
H4 C2 1_555 1_555
H5 C4 1_555 1_555
H6 C5 1_555 1_555
H7 C5 1_555 1_555
H8 C6 1_555 1_555
H9 C6 1_555 1_555
H10 C7 1_555 1_555
H11 C7 1_555 1_555
H12 C8 1_555 1_555
H13 C8 1_555 1_555
H14 C9 1_555 1_555
H15 C9 1_555 1_555
H16 C10 1_555 1_555
H17 C10 1_555 1_555
H18 C11 1_555 1_555
H19 C11 1_555 1_555
H20 C12 1_555 1_555
H21 C12 1_555 1_555
H22 C13 1_555 1_555
H23 C13 1_555 1_555
H24 C14 1_555 1_555
H25 C14 1_555 1_555
H26 C15 1_555 1_555
H27 C15 1_555 1_555
H28 C15 1_555 1_555
H29 C17 1_555 1_555
H30 C17 1_555 1_555
H31 C17 1_555 1_555
H32 O4 1_555 1_555
H33 C18 1_555 1_555
H34 C18 1_555 1_555
H35 C19 1_555 1_555
H36 C21 1_555 1_555
H37 C22 1_555 1_555
H38 C22 1_555 1_555
H39 C23 1_555 1_555
H40 C23 1_555 1_555
H41 C24 1_555 1_555
H42 C24 1_555 1_555
H43 C25 1_555 1_555
H44 C25 1_555 1_555
H45 C26 1_555 1_555
H46 C26 1_555 1_555
H47 C27 1_555 1_555
H48 C27 1_555 1_555
H49 C28 1_555 1_555
H50 C28 1_555 1_555
H51 C29 1_555 1_555
H52 C29 1_555 1_555
H53 C30 1_555 1_555
H54 C30 1_555 1_555
H55 C31 1_555 1_555
H56 C31 1_555 1_555
H57 C32 1_555 1_555
H58 C32 1_555 1_555
H59 C32 1_555 1_555
H60 C34 1_555 1_555
H61 C34 1_555 1_555
H62 C34 1_555 1_555
N1 C4 1_555 1_555
N2 C21 1_555 1_555

#END
