
#######################################################################
#
#                 Cambridge Crystallographic Data Centre
#                                CCDC 
#
#######################################################################
#
# If this CIF has been generated from an entry in the Cambridge 
# Structural Database, then it will include bibliographic, chemical, 
# crystal, experimental, refinement or atomic coordinate data resulting 
# from the CCDC's data processing and validation procedures.
#
#######################################################################

data_ZAPMIO
_chemical_formula_moiety         
'C18 H18 N6 2+,2(C8 H5 I1 O4),2(C8 H4 I1 O4 1-),2(H2 O1)'
_chemical_name_systematic        
"1-([4'-(1H-1,2,4-Triazol-2-ium-1-ylmethyl)biphenyl-4-yl]methyl)-1H-1,2,4-triazol-2-ium bis(3-carboxy-5-iodobenzoate) bis(5-iodobenzene-3,5-dicarboxylic acid) dihydrate"
_symmetry_cell_setting           triclinic
_symmetry_space_group_name_H-M   'P -1'
_symmetry_Int_Tables_number      2
_space_group_name_Hall           '-P 1'
loop_
_symmetry_equiv_pos_site_id
_symmetry_equiv_pos_as_xyz
1 x,y,z
2 -x,-y,-z
_cell_length_a                   8.2620(9)
_cell_length_b                   9.6859(10)
_cell_length_c                   18.661(2)
_cell_angle_alpha                85.4130(10)
_cell_angle_beta                 89.2620(10)
_cell_angle_gamma                65.0840(10)
_cell_volume                     1349.66
_exptl_crystal_colour            yellow
_exptl_crystal_description       prism
_cell_formula_units_Z            1
loop_
_atom_site_label
_atom_site_type_symbol
_atom_site_fract_x
_atom_site_fract_y
_atom_site_fract_z
I1 I 1.50742(6) 0.26356(5) -0.014572(19)
O1 O 1.7771(7) -0.2217(5) 0.1873(2)
H1 H 1.8440 -0.3039 0.2104
O2 O 1.6412(8) -0.1715(6) 0.2909(3)
O3 O 1.1179(6) 0.3175(5) 0.3034(2)
H2 H 1.0302 0.3831 0.3230
O4 O 1.0457(7) 0.5034(5) 0.2147(3)
C1 C 1.6570(8) -0.1375(7) 0.2290(3)
C2 C 1.5356(7) 0.0170(6) 0.1926(3)
C3 C 1.3960(7) 0.1186(6) 0.2312(3)
H7 H 1.3745 0.0900 0.2779
C4 C 1.2904(8) 0.2622(6) 0.1992(3)
C5 C 1.3195(7) 0.3059(6) 0.1289(3)
H8 H 1.2481 0.4030 0.1081
C6 C 1.4566(7) 0.2024(6) 0.0901(3)
C7 C 1.5642(7) 0.0595(7) 0.1226(3)
H9 H 1.6568 -0.0089 0.0970
C8 C 1.1387(8) 0.3744(7) 0.2392(3)
I2 I -0.01012(6) 0.73309(5) 1.025823(19)
O5 O -0.2756(7) 1.2072(6) 0.8193(3)
H3 H -0.3436 1.2867 0.7946
O6 O -0.1152(7) 1.1631(5) 0.7186(2)
O7 O 0.3845(7) 0.6420(6) 0.7091(3)
O8 O 0.4582(7) 0.4805(6) 0.8062(3)
C9 C -0.1449(8) 1.1247(7) 0.7801(3)
C10 C -0.0290(8) 0.9701(6) 0.8159(3)
C11 C 0.1075(7) 0.8649(6) 0.7795(3)
H10 H 0.1308 0.8900 0.7325
C12 C 0.2110(7) 0.7203(6) 0.8133(3)
C13 C 0.1764(7) 0.6829(6) 0.8832(3)
H11 H 0.2443 0.5861 0.9052
C14 C 0.0413(7) 0.7890(7) 0.9203(3)
C15 C -0.0623(7) 0.9314(7) 0.8872(3)
H12 H -0.1543 1.0022 0.9120
C16 C 0.3617(8) 0.6048(6) 0.7742(3)
O9 O 0.6642(8) 0.4440(6) 0.6460(3)
H4 H 0.7237 0.3629 0.6714
H5 H 0.5784 0.5002 0.6700
N1 N 0.7596(6) 0.6294(5) 0.4816(2)
N2 N 0.7346(6) 0.5001(5) 0.4964(2)
H6 H 0.6795 0.4775 0.5330
N3 N 0.8857(7) 0.4846(6) 0.3953(3)
C17 C 0.8114(8) 0.4178(7) 0.4436(4)
H13 H 0.8149 0.3215 0.4394
C18 C 0.8480(7) 0.6189(7) 0.4213(3)
H14 H 0.8793 0.6941 0.4001
C19 C 0.6785(8) 0.7581(7) 0.5267(3)
H15 H 0.7250 0.8332 0.5137
H16 H 0.7104 0.7219 0.5768
C20 C 0.4761(8) 0.8326(6) 0.5174(3)
C21 C 0.3719(8) 0.8896(7) 0.5758(3)
H17 H 0.4256 0.8836 0.6201
C22 C 0.1836(7) 0.9571(7) 0.5684(3)
H18 H 0.1152 0.9953 0.6082
C23 C 0.0993(6) 0.9677(6) 0.5040(3)
C24 C 0.2069(8) 0.9138(7) 0.4446(3)
H19 H 0.1531 0.9215 0.4000
C25 C 0.3932(7) 0.8488(7) 0.4509(3)
H20 H 0.4619 0.8162 0.4105
N1A N -0.7596(6) 1.3706(5) 0.5184(2)
N2A N -0.7346(6) 1.4999(5) 0.5036(2)
H6A H -0.6795 1.5225 0.4670
N3A N -0.8857(7) 1.5154(6) 0.6047(3)
C17A C -0.8114(8) 1.5822(7) 0.5564(4)
H13A H -0.8149 1.6785 0.5606
C18A C -0.8480(7) 1.3811(7) 0.5787(3)
H14A H -0.8793 1.3059 0.5999
C19A C -0.6785(8) 1.2419(7) 0.4733(3)
H15A H -0.7250 1.1668 0.4863
H16A H -0.7104 1.2781 0.4232
C20A C -0.4761(8) 1.1674(6) 0.4826(3)
C21A C -0.3719(8) 1.1104(7) 0.4242(3)
H17A H -0.4256 1.1164 0.3799
C22A C -0.1836(7) 1.0429(7) 0.4316(3)
H18A H -0.1152 1.0047 0.3918
C23A C -0.0993(6) 1.0323(6) 0.4960(3)
C24A C -0.2069(8) 1.0862(7) 0.5554(3)
H19A H -0.1531 1.0785 0.6000
C25A C -0.3932(7) 1.1512(7) 0.5491(3)
H20A H -0.4619 1.1838 0.5895
loop_
_geom_bond_atom_site_label_1
_geom_bond_atom_site_label_2
_geom_bond_site_symmetry_1
_geom_bond_site_symmetry_2
I1 C6 1_555 1_555
I2 C14 1_555 1_555
O1 H1 1_555 1_555
O2 C1 1_555 1_555
O3 H2 1_555 1_555
O4 C8 1_555 1_555
O5 H3 1_555 1_555
O6 C9 1_555 1_555
O7 C16 1_555 1_555
O8 C16 1_555 1_555
O9 H4 1_555 1_555
H5 O9 1_555 1_555
N1 N2 1_555 1_555
N2 H6 1_555 1_555
N3 C17 1_555 1_555
C1 O1 1_555 1_555
C2 C1 1_555 1_555
C3 C2 1_555 1_555
H7 C3 1_555 1_555
C4 C3 1_555 1_555
C5 C4 1_555 1_555
H8 C5 1_555 1_555
C6 C5 1_555 1_555
C7 C2 1_555 1_555
H9 C7 1_555 1_555
C8 O3 1_555 1_555
C9 O5 1_555 1_555
C10 C9 1_555 1_555
C11 C10 1_555 1_555
H10 C11 1_555 1_555
C12 C11 1_555 1_555
C13 C12 1_555 1_555
H11 C13 1_555 1_555
C14 C13 1_555 1_555
C15 C10 1_555 1_555
H12 C15 1_555 1_555
C16 C12 1_555 1_555
C17 N2 1_555 1_555
H13 C17 1_555 1_555
C18 N1 1_555 1_555
H14 C18 1_555 1_555
C19 N1 1_555 1_555
H15 C19 1_555 1_555
H16 C19 1_555 1_555
C20 C19 1_555 1_555
C21 C20 1_555 1_555
H17 C21 1_555 1_555
C22 C21 1_555 1_555
H18 C22 1_555 1_555
C23 C22 1_555 1_555
C24 C23 1_555 1_555
H19 C24 1_555 1_555
C25 C20 1_555 1_555
H20 C25 1_555 1_555
N1A N2A 1_555 1_555
N2A H6A 1_555 1_555
N3A C17A 1_555 1_555
C17A N2A 1_555 1_555
H13A C17A 1_555 1_555
C18A N1A 1_555 1_555
H14A C18A 1_555 1_555
C19A N1A 1_555 1_555
H15A C19A 1_555 1_555
H16A C19A 1_555 1_555
C20A C19A 1_555 1_555
C21A C20A 1_555 1_555
H17A C21A 1_555 1_555
C22A C21A 1_555 1_555
H18A C22A 1_555 1_555
C23A C23 1_555 1_555
C24A C23A 1_555 1_555
H19A C24A 1_555 1_555
C25A C20A 1_555 1_555
H20A C25A 1_555 1_555
N3 C18 1_555 1_555
C4 C8 1_555 1_555
C6 C7 1_555 1_555
C14 C15 1_555 1_555
C24 C25 1_555 1_555
N3A C18A 1_555 1_555
C22A C23A 1_555 1_555
C24A C25A 1_555 1_555

#END
