
#######################################################################
#
#                 Cambridge Crystallographic Data Centre
#                                CCDC 
#
#######################################################################
#
# If this CIF has been generated from an entry in the Cambridge 
# Structural Database, then it will include bibliographic, chemical, 
# crystal, experimental, refinement or atomic coordinate data resulting 
# from the CCDC's data processing and validation procedures.
#
#######################################################################

data_ZAPNIN
_chemical_formula_moiety         
'3(C7 H11 N2 1+),2(C7 H10 N2),3(C7 H5 O2 1-),10(H2 O1)'
_chemical_name_systematic        
'tris(4-dimethylaminopyridin-1-ium) bis(4-dimethylaminopyridine) tris(benzoate) decahydrate'
_symmetry_cell_setting           monoclinic
_symmetry_space_group_name_H-M   'P 21/c'
_symmetry_Int_Tables_number      14
_space_group_name_Hall           '-P 2ybc'
loop_
_symmetry_equiv_pos_site_id
_symmetry_equiv_pos_as_xyz
1 x,y,z
2 -x,1/2+y,1/2-z
3 -x,-y,-z
4 x,1/2-y,1/2+z
_cell_length_a                   18.055(8)
_cell_length_b                   19.964(5)
_cell_length_c                   17.198(2)
_cell_angle_alpha                90
_cell_angle_beta                 99.27(5)
_cell_angle_gamma                90
_cell_volume                     6118.06
_exptl_crystal_colour            colorless
_chemical_melting_point          86-87deg.C
_cell_formula_units_Z            4
loop_
_atom_site_label
_atom_site_type_symbol
_atom_site_fract_x
_atom_site_fract_y
_atom_site_fract_z
N1 N 0.7591(5) 0.7230(4) 0.0075(5)
N2 N 0.7769(4) 0.8998(4) -0.1121(5)
C1 C 0.8274(6) 0.7491(5) 0.0053(6)
C2 C 0.8359(6) 0.8073(5) -0.0344(6)
C3 C 0.7707(6) 0.8428(5) -0.0740(6)
C4 C 0.7005(6) 0.8117(5) -0.0682(6)
C5 C 0.6968(6) 0.7537(5) -0.0264(6)
C6 C 0.8489(6) 0.9314(5) -0.1175(7)
C7 C 0.7087(5) 0.9341(5) -0.1504(6)
H1 H 0.7556(5) 0.6847(4) 0.0319(5)
H2 H 0.8706(6) 0.7265(5) 0.0316(6)
H3 H 0.8850(6) 0.8241(5) -0.0355(6)
H4 H 0.6553(6) 0.8316(5) -0.0937(6)
H5 H 0.6492(6) 0.7355(5) -0.0215(6)
H6 H 0.8409(6) 0.9783(5) -0.1336(7)
H7 H 0.8730(6) 0.9075(5) -0.1564(7)
H8 H 0.8811(6) 0.9295(5) -0.0659(7)
H9 H 0.6864(5) 0.9083(5) -0.1968(6)
H10 H 0.7214(5) 0.9791(5) -0.1668(6)
H11 H 0.6728(5) 0.9375(5) -0.1135(6)
N3 N 0.7506(5) 0.6061(4) 0.0856(5)
N4 N 0.7328(5) 0.4283(4) 0.2121(5)
C8 C 0.6850(6) 0.5806(5) 0.0951(6)
C9 C 0.6750(5) 0.5234(5) 0.1356(5)
C10 C 0.7385(6) 0.4865(5) 0.1712(6)
C11 C 0.8090(6) 0.5133(5) 0.1613(6)
C12 C 0.8107(6) 0.5720(5) 0.1202(6)
C13 C 0.6603(6) 0.4046(5) 0.2250(6)
C14 C 0.7984(6) 0.3929(6) 0.2499(6)
H12 H 0.6414(6) 0.6044(5) 0.0720(6)
H13 H 0.6258(5) 0.5086(5) 0.1398(5)
H14 H 0.8542(6) 0.4913(5) 0.1830(6)
H15 H 0.8586(6) 0.5899(5) 0.1161(6)
H16 H 0.6422(6) 0.4319(5) 0.2654(6)
H17 H 0.6650(6) 0.3579(5) 0.2425(6)
H18 H 0.6246(6) 0.4075(5) 0.1757(6)
H19 H 0.7852(6) 0.3462(6) 0.2588(6)
H20 H 0.8177(6) 0.4141(6) 0.3005(6)
H21 H 0.8370(6) 0.3942(6) 0.2159(6)
N5 N 0.7469(5) 0.9380(5) 0.3932(5)
N6 N 0.7543(5) 0.7631(4) 0.2568(5)
C15 C 0.8120(6) 0.9112(5) 0.3810(6)
C16 C 0.8177(6) 0.8533(6) 0.3371(6)
C17 C 0.7531(6) 0.8203(5) 0.3007(6)
C18 C 0.6846(6) 0.8499(5) 0.3125(6)
C19 C 0.6867(6) 0.9065(5) 0.3587(6)
C20 C 0.8248(6) 0.7372(6) 0.2427(7)
C21 C 0.6863(6) 0.7315(6) 0.2194(6)
H22 H 0.8572(6) 0.9330(5) 0.4034(6)
H23 H 0.8657(6) 0.8362(6) 0.3319(6)
H24 H 0.6380(6) 0.8308(5) 0.2896(6)
H25 H 0.6396(6) 0.9247(5) 0.3658(6)
H26 H 0.8164(6) 0.6969(6) 0.2099(7)
H27 H 0.8559(6) 0.7258(6) 0.2931(7)
H28 H 0.8505(6) 0.7710(6) 0.2155(7)
H29 H 0.6985(6) 0.6904(6) 0.1930(6)
H30 H 0.6589(6) 0.7622(6) 0.1804(6)
H31 H 0.6550(6) 0.7206(6) 0.2592(6)
N7 N 0.7425(5) 1.0528(4) 0.4733(5)
N8 N 0.7385(5) 1.2333(4) 0.5897(5)
C22 C 0.6782(6) 1.0810(6) 0.4829(6)
C23 C 0.6736(6) 1.1394(5) 0.5203(6)
C24 C 0.7406(6) 1.1737(5) 0.5524(6)
C25 C 0.8082(6) 1.1434(5) 0.5394(6)
C26 C 0.8076(6) 1.0848(5) 0.5027(6)
C27 C 0.6695(6) 1.2653(5) 0.5988(6)
C28 C 0.8078(6) 1.2685(5) 0.6178(6)
H32 H 0.7488(42) 1.0059(43) 0.4450(45)
H33 H 0.6328(6) 1.0586(6) 0.4624(6)
H34 H 0.6259(6) 1.1574(5) 0.5253(6)
H35 H 0.8547(6) 1.1651(5) 0.5572(6)
H36 H 0.8542(6) 1.0650(5) 0.4966(6)
H37 H 0.6798(6) 1.3097(5) 0.6223(6)
H38 H 0.6432(6) 1.2380(5) 0.6331(6)
H39 H 0.6381(6) 1.2699(5) 0.5470(6)
H40 H 0.7972(6) 1.3101(5) 0.6441(6)
H41 H 0.8332(6) 1.2790(5) 0.5730(6)
H42 H 0.8403(6) 1.2399(5) 0.6551(6)
N9 N 0.7331(6) 1.2241(5) 0.8879(5)
N10 N 0.7686(5) 1.4002(4) 0.7723(5)
C29 C 0.8027(6) 1.2443(5) 0.8854(6)
C30 C 0.8176(6) 1.3022(5) 0.8465(6)
C31 C 0.7561(6) 1.3413(5) 0.8093(5)
C32 C 0.6839(6) 1.3188(5) 0.8142(6)
C33 C 0.6735(6) 1.2606(5) 0.8542(6)
C34 C 0.8433(5) 1.4232(5) 0.7692(6)
C35 C 0.7045(6) 1.4401(6) 0.7380(6)
H43 H 0.7219(63) 1.1893(62) 0.9225(70)
H44 H 0.8434(6) 1.2183(5) 0.9110(6)
H45 H 0.8679(6) 1.3152(5) 0.8449(6)
H46 H 0.6417(6) 1.3440(5) 0.7901(6)
H47 H 0.6239(6) 1.2463(5) 0.8574(6)
H48 H 0.8414(5) 1.4622(5) 0.7343(6)
H49 H 0.8721(5) 1.3874(5) 0.7491(6)
H50 H 0.8677(5) 1.4358(5) 0.8223(6)
H51 H 0.7217(6) 1.4789(6) 0.7109(6)
H52 H 0.6778(6) 1.4555(6) 0.7800(6)
H53 H 0.6707(6) 1.4130(6) 0.7003(6)
C36 C 0.8019(6) 0.9871(5) 1.0706(6)
C37 C 0.7931(6) 0.9287(5) 1.1132(6)
C38 C 0.7242(7) 0.9023(5) 1.1125(6)
C39 C 0.6613(6) 0.9337(5) 1.0741(6)
C40 C 0.6687(6) 0.9945(5) 1.0326(6)
C41 C 0.7401(6) 1.0198(5) 1.0319(6)
C42 C 0.7496(7) 1.0824(5) 0.9869(6)
O1 O 0.8146(4) 1.1019(3) 0.9801(4)
O2 O 0.6918(4) 1.1150(3) 0.9556(4)
H54 H 0.8507(6) 1.0041(5) 1.0688(6)
H55 H 0.8357(6) 0.9074(5) 1.1425(6)
H56 H 0.7191(7) 0.8612(5) 1.1390(6)
H57 H 0.6130(6) 0.9152(5) 1.0752(6)
H58 H 0.6256(6) 1.0171(5) 1.0061(6)
C43 C 1.0051(5) 0.8606(5) 1.2157(5)
C44 C 1.0040(5) 0.8793(5) 1.1376(6)
C45 C 1.0013(5) 0.9464(5) 1.1187(6)
C46 C 0.9965(5) 0.9948(5) 1.1759(6)
C47 C 0.9984(5) 0.9738(5) 1.2531(5)
C48 C 1.0034(5) 0.9068(5) 1.2747(5)
C49 C 1.0066(5) 0.8839(5) 1.3582(5)
O3 O 1.0084(3) 0.9290(3) 1.4097(4)
O4 O 1.0106(4) 0.8227(3) 1.3731(4)
H59 H 1.0074(5) 0.8144(5) 1.2289(5)
H60 H 1.0052(5) 0.8463(5) 1.0980(6)
H61 H 1.0025(5) 0.9596(5) 1.0658(6)
H62 H 0.9918(5) 1.0409(5) 1.1624(6)
H63 H 0.9966(5) 1.0066(5) 1.2929(5)
C50 C 0.4961(5) 0.9756(5) 0.7462(6)
C51 C 0.4945(6) 0.9957(5) 0.8217(6)
C52 C 0.4961(6) 0.9502(5) 0.8814(6)
C53 C 0.5041(5) 0.8827(5) 0.8660(6)
C54 C 0.5061(5) 0.8634(5) 0.7900(6)
C55 C 0.5028(5) 0.9071(5) 0.7280(5)
C56 C 0.5048(5) 0.8847(5) 0.6463(6)
O5 O 0.4985(3) 0.9279(3) 0.5910(4)
O6 O 0.5124(4) 0.8227(3) 0.6342(4)
H64 H 0.4927(5) 1.0080(5) 0.7053(6)
H65 H 0.4921(6) 1.0421(5) 0.8332(6)
H66 H 0.4924(6) 0.9645(5) 0.9333(6)
H67 H 0.5073(5) 0.8505(5) 0.9071(6)
H68 H 0.5105(5) 0.8169(5) 0.7794(6)
O7 O 0.9898(6) 1.0651(4) 1.4314(4)
H69 H 1.0004(64) 1.0661(49) 1.4750(15)
H70 H 1.0023(64) 1.0314(29) 1.4199(53)
O8 O 0.4814(5) 1.0643(4) 0.5650(4)
H71 H 0.4921(57) 1.0681(43) 0.5251(30)
H72 H 0.4947(58) 1.0301(25) 0.5779(49)
O9 O 0.9591(4) 1.1277(4) 1.0569(4)
H73 H 0.9712(44) 1.1543(39) 1.0314(46)
H74 H 0.9211(27) 1.1176(46) 1.0374(48)
O10 O 0.5361(4) 1.1295(3) 0.9371(5)
H75 H 0.5758(24) 1.1334(42) 0.9304(63)
H76 H 0.5256(45) 1.1634(23) 0.9499(62)
O11 O 1.0233(4) 1.1810(4) 1.3620(4)
H77 H 1.0010(39) 1.1725(54) 1.3230(27)
H78 H 0.9949(35) 1.1875(57) 1.3880(39)
O12 O 0.5012(5) 1.1858(3) 0.6372(5)
H79 H 0.4850(61) 1.1825(46) 0.6744(39)
H80 H 0.5078(64) 1.1506(20) 0.6257(56)
O13 O 0.9894(5) 1.1954(4) 1.1999(4)
H81 H 0.9846(64) 1.1739(35) 1.1639(33)
H82 H 0.9832(62) 1.2301(18) 1.1841(48)
O14 O 0.4935(5) 1.1991(4) 0.7948(4)
H83 H 0.5222(44) 1.1764(44) 0.8169(45)
H84 H 0.4738(50) 1.2139(48) 0.8256(39)
O15 O 0.9776(4) 1.2479(3) 1.4911(4)
H85 H 0.9979(47) 1.2354(48) 1.4594(32)
H86 H 0.9945(48) 1.2290(44) 1.5269(29)
O16 O 0.4850(5) 1.2536(3) 0.4967(4)
H87 H 0.4950(61) 1.2351(44) 0.5345(28)
H88 H 0.4975(59) 1.2315(42) 0.4666(37)
loop_
_geom_bond_atom_site_label_1
_geom_bond_atom_site_label_2
_geom_bond_site_symmetry_1
_geom_bond_site_symmetry_2
N1 C1 1_555 1_555
N2 C3 1_555 1_555
C1 C2 1_555 1_555
C2 C3 1_555 1_555
C3 C4 1_555 1_555
C4 C5 1_555 1_555
C5 N1 1_555 1_555
C6 N2 1_555 1_555
C7 N2 1_555 1_555
H1 N1 1_555 1_555
H2 C1 1_555 1_555
H3 C2 1_555 1_555
H4 C4 1_555 1_555
H5 C5 1_555 1_555
H6 C6 1_555 1_555
H7 C6 1_555 1_555
H8 C6 1_555 1_555
H9 C7 1_555 1_555
H10 C7 1_555 1_555
H11 C7 1_555 1_555
N3 C8 1_555 1_555
N4 C10 1_555 1_555
C8 C9 1_555 1_555
C9 C10 1_555 1_555
C10 C11 1_555 1_555
C11 C12 1_555 1_555
C12 N3 1_555 1_555
C13 N4 1_555 1_555
C14 N4 1_555 1_555
H12 C8 1_555 1_555
H13 C9 1_555 1_555
H14 C11 1_555 1_555
H15 C12 1_555 1_555
H16 C13 1_555 1_555
H17 C13 1_555 1_555
H18 C13 1_555 1_555
H19 C14 1_555 1_555
H20 C14 1_555 1_555
H21 C14 1_555 1_555
N5 C15 1_555 1_555
N6 C17 1_555 1_555
C15 C16 1_555 1_555
C16 C17 1_555 1_555
C17 C18 1_555 1_555
C18 C19 1_555 1_555
C19 N5 1_555 1_555
C20 N6 1_555 1_555
C21 N6 1_555 1_555
H22 C15 1_555 1_555
H23 C16 1_555 1_555
H24 C18 1_555 1_555
H25 C19 1_555 1_555
H26 C20 1_555 1_555
H27 C20 1_555 1_555
H28 C20 1_555 1_555
H29 C21 1_555 1_555
H30 C21 1_555 1_555
H31 C21 1_555 1_555
N7 C22 1_555 1_555
N8 C24 1_555 1_555
C22 C23 1_555 1_555
C23 C24 1_555 1_555
C24 C25 1_555 1_555
C25 C26 1_555 1_555
C26 N7 1_555 1_555
C27 N8 1_555 1_555
C28 N8 1_555 1_555
H32 N7 1_555 1_555
H33 C22 1_555 1_555
H34 C23 1_555 1_555
H35 C25 1_555 1_555
H36 C26 1_555 1_555
H37 C27 1_555 1_555
H38 C27 1_555 1_555
H39 C27 1_555 1_555
H40 C28 1_555 1_555
H41 C28 1_555 1_555
H42 C28 1_555 1_555
N9 C29 1_555 1_555
N10 C31 1_555 1_555
C29 C30 1_555 1_555
C30 C31 1_555 1_555
C31 C32 1_555 1_555
C32 C33 1_555 1_555
C33 N9 1_555 1_555
C34 N10 1_555 1_555
C35 N10 1_555 1_555
H43 N9 1_555 1_555
H44 C29 1_555 1_555
H45 C30 1_555 1_555
H46 C32 1_555 1_555
H47 C33 1_555 1_555
H48 C34 1_555 1_555
H49 C34 1_555 1_555
H50 C34 1_555 1_555
H51 C35 1_555 1_555
H52 C35 1_555 1_555
H53 C35 1_555 1_555
C36 C37 1_555 1_555
C37 C38 1_555 1_555
C38 C39 1_555 1_555
C39 C40 1_555 1_555
C40 C41 1_555 1_555
C41 C36 1_555 1_555
C42 C41 1_555 1_555
O1 C42 1_555 1_555
O2 C42 1_555 1_555
H54 C36 1_555 1_555
H55 C37 1_555 1_555
H56 C38 1_555 1_555
H57 C39 1_555 1_555
H58 C40 1_555 1_555
C43 C44 1_555 1_555
C44 C45 1_555 1_555
C45 C46 1_555 1_555
C46 C47 1_555 1_555
C47 C48 1_555 1_555
C48 C43 1_555 1_555
C49 C48 1_555 1_555
O3 C49 1_555 1_555
O4 C49 1_555 1_555
H59 C43 1_555 1_555
H60 C44 1_555 1_555
H61 C45 1_555 1_555
H62 C46 1_555 1_555
H63 C47 1_555 1_555
C50 C51 1_555 1_555
C51 C52 1_555 1_555
C52 C53 1_555 1_555
C53 C54 1_555 1_555
C54 C55 1_555 1_555
C55 C50 1_555 1_555
C56 C55 1_555 1_555
O5 C56 1_555 1_555
O6 C56 1_555 1_555
H64 C50 1_555 1_555
H65 C51 1_555 1_555
H66 C52 1_555 1_555
H67 C53 1_555 1_555
H68 C54 1_555 1_555
O7 H69 1_555 1_555
H70 O7 1_555 1_555
O8 H71 1_555 1_555
H72 O8 1_555 1_555
O9 H73 1_555 1_555
H74 O9 1_555 1_555
O10 H75 1_555 1_555
H76 O10 1_555 1_555
O11 H77 1_555 1_555
H78 O11 1_555 1_555
O12 H79 1_555 1_555
H80 O12 1_555 1_555
O13 H81 1_555 1_555
H82 O13 1_555 1_555
O14 H83 1_555 1_555
H84 O14 1_555 1_555
O15 H85 1_555 1_555
H86 O15 1_555 1_555
O16 H87 1_555 1_555
H88 O16 1_555 1_555

#END
