
#######################################################################
#
#                 Cambridge Crystallographic Data Centre
#                                CCDC 
#
#######################################################################
#
# If this CIF has been generated from an entry in the Cambridge 
# Structural Database, then it will include bibliographic, chemical, 
# crystal, experimental, refinement or atomic coordinate data resulting 
# from the CCDC's data processing and validation procedures.
#
#######################################################################

data_ZAPPEN
_chemical_formula_moiety         'C13 H15 N1 O2'
_chemical_name_systematic        1-(3,5-Dimethoxybenzyl)-1H-pyrrole
_symmetry_cell_setting           monoclinic
_symmetry_space_group_name_H-M   'P 21/n'
_symmetry_Int_Tables_number      14
_space_group_name_Hall           '-P 2yn'
loop_
_symmetry_equiv_pos_site_id
_symmetry_equiv_pos_as_xyz
1 x,y,z
2 1/2-x,1/2+y,1/2-z
3 -x,-y,-z
4 1/2+x,1/2-y,1/2+z
_cell_length_a                   9.7569(11)
_cell_length_b                   12.2303(10)
_cell_length_c                   10.4181(10)
_cell_angle_alpha                90
_cell_angle_beta                 113.720(7)
_cell_angle_gamma                90
_cell_volume                     1138.17
_exptl_crystal_colour            colorless
_exptl_crystal_description       needle
_cell_formula_units_Z            4
loop_
_atom_site_label
_atom_site_type_symbol
_atom_site_fract_x
_atom_site_fract_y
_atom_site_fract_z
N1 N 0.14877(13) 0.21993(9) 0.87889(11)
O1 O 0.13871(14) 0.44438(8) 0.47582(11)
O2 O 0.08702(13) 0.07035(8) 0.30839(10)
C1 C 0.13905(15) 0.11206(11) 0.54195(14)
H1 H 0.1407 0.0373 0.5591
C2 C 0.16360(16) 0.29689(11) 0.62375(14)
H2 H 0.1814 0.3469 0.6959
C3 C 0.10819(16) 0.26083(11) 0.37960(14)
H3 H 0.0884 0.2858 0.2895
C4 C 0.19169(18) 0.14323(12) 0.79460(15)
H4 H 0.1358 0.0759 0.7850
H5 H 0.2971 0.1261 0.8437
C5 C 0.13589(16) 0.33349(11) 0.48959(14)
C6 C 0.11093(15) 0.14936(10) 0.40823(14)
C7 C 0.24214(17) 0.29419(12) 0.96984(15)
H6 H 0.3453 0.2980 0.9977
C8 C 0.16472(15) 0.18558(11) 0.65030(14)
C9 C 0.0972(2) 0.48874(13) 0.33928(16)
H7 H 0.1015 0.5671 0.3448
H8 H -0.0028 0.4662 0.2808
H9 H 0.1650 0.4629 0.3000
C10 C 0.00631(16) 0.24161(13) 0.86324(15)
H10 H -0.0788 0.2035 0.8059
C11 C 0.15797(19) 0.36182(13) 1.01276(16)
H11 H 0.1932 0.4197 1.0754
C12 C 0.00937(18) 0.32851(14) 0.94572(16)
H12 H -0.0726 0.3599 0.9556
C13 C 0.0520(2) 0.10539(13) 0.16790(15)
H13 H 0.0360 0.0427 0.1082
H14 H 0.1336 0.1478 0.1651
H15 H -0.0370 0.1493 0.1359
loop_
_geom_bond_atom_site_label_1
_geom_bond_atom_site_label_2
_geom_bond_site_symmetry_1
_geom_bond_site_symmetry_2
N1 C4 1_555 1_555
O1 C5 1_555 1_555
O2 C6 1_555 1_555
C1 H1 1_555 1_555
C2 H2 1_555 1_555
C3 H3 1_555 1_555
C4 H4 1_555 1_555
H5 C4 1_555 1_555
C5 C2 1_555 1_555
C6 C1 1_555 1_555
C7 N1 1_555 1_555
H6 C7 1_555 1_555
C8 C1 1_555 1_555
C9 O1 1_555 1_555
H7 C9 1_555 1_555
H8 C9 1_555 1_555
H9 C9 1_555 1_555
C10 N1 1_555 1_555
H10 C10 1_555 1_555
C11 C7 1_555 1_555
H11 C11 1_555 1_555
C12 C10 1_555 1_555
H12 C12 1_555 1_555
C13 O2 1_555 1_555
H13 C13 1_555 1_555
H14 C13 1_555 1_555
H15 C13 1_555 1_555
C2 C8 1_555 1_555
C3 C5 1_555 1_555
C3 C6 1_555 1_555
C4 C8 1_555 1_555
C11 C12 1_555 1_555

#END
