
#######################################################################
#
#                 Cambridge Crystallographic Data Centre
#                                CCDC 
#
#######################################################################
#
# If this CIF has been generated from an entry in the Cambridge 
# Structural Database, then it will include bibliographic, chemical, 
# crystal, experimental, refinement or atomic coordinate data resulting 
# from the CCDC's data processing and validation procedures.
#
#######################################################################

data_ZAPQUE
_chemical_formula_moiety         'C18 H19 N2 O1 1+,F6 P1 1-'
_chemical_name_systematic        
"4-((2'-Cyanobiphenyl-4-yl)methyl)morpholin-4-ium hexafluorophosphate"
_symmetry_cell_setting           monoclinic
_symmetry_space_group_name_H-M   'C 2/c'
_symmetry_Int_Tables_number      15
_space_group_name_Hall           '-C 2yn'
loop_
_symmetry_equiv_pos_site_id
_symmetry_equiv_pos_as_xyz
1 x,y,z
2 -x,y,1/2-z
3 1/2+x,1/2+y,z
4 1/2-x,1/2+y,1/2-z
5 -x,-y,-z
6 x,-y,1/2+z
7 1/2-x,1/2-y,-z
8 1/2+x,1/2-y,1/2+z
_cell_length_a                   24.912(11)
_cell_length_b                   10.757(5)
_cell_length_c                   14.925(7)
_cell_angle_alpha                90
_cell_angle_beta                 91.07(3)
_cell_angle_gamma                90
_cell_volume                     3998.88
_exptl_crystal_colour            colorless
_exptl_crystal_description       prism
_cell_formula_units_Z            8
loop_
_atom_site_label
_atom_site_type_symbol
_atom_site_fract_x
_atom_site_fract_y
_atom_site_fract_z
N1 N 0.32167(9) 0.0538(2) 0.37953(14)
H1 H 0.3533 0.0143 0.3918
C1 C 0.36122(12) 0.1175(3) 0.23215(17)
C2 C 0.49042(11) 0.2243(3) -0.01594(18)
C3 C 0.44407(11) 0.2199(3) 0.13211(17)
N2 N 0.42775(12) 0.0475(3) -0.07023(19)
C4 C 0.48586(12) 0.2708(3) 0.07186(18)
C5 C 0.52800(13) 0.2724(3) -0.0749(2)
H2 H 0.5302 0.2411 -0.1328
C6 C 0.27767(13) -0.0213(3) 0.4206(2)
H3 H 0.2431 0.0145 0.4041
H4 H 0.2787 -0.1056 0.3977
C7 C 0.45498(12) 0.1267(3) -0.04641(19)
C8 C 0.40494(13) 0.0482(3) 0.21080(19)
H5 H 0.4072 -0.0341 0.2296
C9 C 0.44606(13) 0.0986(3) 0.16145(19)
H6 H 0.4756 0.0497 0.1478
C10 C 0.31444(13) 0.0585(3) 0.27939(19)
H7 H 0.2821 0.1050 0.2649
H8 H 0.3095 -0.0255 0.2570
C11 C 0.35927(15) 0.2401(3) 0.2056(3)
H9 H 0.3301 0.2892 0.2210
O1 O 0.28375(13) 0.0972(4) 0.55657(19)
C12 C 0.40029(15) 0.2908(3) 0.1561(3)
H10 H 0.3984 0.3738 0.1388
C13 C 0.52083(15) 0.3653(3) 0.0969(2)
H11 H 0.5191 0.3980 0.1545
C14 C 0.56173(15) 0.3664(3) -0.0467(3)
H12 H 0.5869 0.3986 -0.0856
C15 C 0.32429(16) 0.1780(4) 0.4223(3)
H13 H 0.2924 0.2252 0.4062
H14 H 0.3553 0.2229 0.4009
C16 C 0.28390(18) -0.0235(5) 0.5209(2)
H15 H 0.2547 -0.0710 0.5462
H16 H 0.3174 -0.0644 0.5373
C17 C 0.55830(15) 0.4125(4) 0.0386(3)
H17 H 0.5813 0.4759 0.0574
C18 C 0.3284(2) 0.1644(5) 0.5233(3)
H18 H 0.3613 0.1211 0.5394
H19 H 0.3296 0.2461 0.5507
P1 P 0.15365(4) 0.14226(9) 0.20740(6)
F1 F 0.1241(5) 0.2534(10) 0.2540(7)
F2 F 0.1364(4) 0.1889(13) 0.1147(8)
F3 F 0.2064(5) 0.2159(11) 0.2041(10)
F4 F 0.0987(4) 0.0652(11) 0.2203(5)
F5 F 0.1803(6) 0.0238(11) 0.1705(8)
F6 F 0.1702(3) 0.0918(8) 0.3061(6)
F7? F 0.1419(7) 0.2894(14) 0.208(3)
F8? F 0.1432(9) 0.147(2) 0.1016(11)
F9? F 0.2163(6) 0.186(2) 0.1825(12)
F10? F 0.0981(6) 0.116(3) 0.2162(15)
F11? F 0.1754(15) 0.0133(19) 0.192(2)
F12? F 0.1687(9) 0.147(4) 0.3025(11)
loop_
_geom_bond_atom_site_label_1
_geom_bond_atom_site_label_2
_geom_bond_site_symmetry_1
_geom_bond_site_symmetry_2
N1 H1 1_555 1_555
C1 C8 1_555 1_555
C2 C4 1_555 1_555
C3 C4 1_555 1_555
N2 C7 1_555 1_555
C4 C13 1_555 1_555
C5 C2 1_555 1_555
H2 C5 1_555 1_555
C6 N1 1_555 1_555
H3 C6 1_555 1_555
H4 C6 1_555 1_555
C7 C2 1_555 1_555
C8 H5 1_555 1_555
C9 C3 1_555 1_555
H6 C9 1_555 1_555
C10 N1 1_555 1_555
H7 C10 1_555 1_555
H8 C10 1_555 1_555
C11 C1 1_555 1_555
H9 C11 1_555 1_555
O1 C16 1_555 1_555
C12 C3 1_555 1_555
H10 C12 1_555 1_555
C13 H11 1_555 1_555
C14 C5 1_555 1_555
H12 C14 1_555 1_555
C15 N1 1_555 1_555
H13 C15 1_555 1_555
H14 C15 1_555 1_555
C16 C6 1_555 1_555
H15 C16 1_555 1_555
H16 C16 1_555 1_555
C17 C13 1_555 1_555
H17 C17 1_555 1_555
C18 O1 1_555 1_555
H18 C18 1_555 1_555
H19 C18 1_555 1_555
P1 F1 1_555 1_555
F2 P1 1_555 1_555
F3 P1 1_555 1_555
F4 P1 1_555 1_555
F5 P1 1_555 1_555
F6 P1 1_555 1_555
C1 C10 1_555 1_555
C8 C9 1_555 1_555
C11 C12 1_555 1_555
C14 C17 1_555 1_555
C15 C18 1_555 1_555

#END
