
#######################################################################
#
#                 Cambridge Crystallographic Data Centre
#                                CCDC 
#
#######################################################################
#
# If this CIF has been generated from an entry in the Cambridge 
# Structural Database, then it will include bibliographic, chemical, 
# crystal, experimental, refinement or atomic coordinate data resulting 
# from the CCDC's data processing and validation procedures.
#
#######################################################################

data_ZAPTER
_chemical_formula_moiety         'C17 H22 N4 O3'
_chemical_name_systematic        
1-(Ethoxymethyl)-5-methyl-9-phenyl-6,7,8,9-tetrahydro-1H-pyrimido[4,5-b][1,4]diazepine-2,4(3H,5H)-dione
_symmetry_cell_setting           monoclinic
_symmetry_space_group_name_H-M   'P 21/n'
_symmetry_Int_Tables_number      14
_space_group_name_Hall           '-P 2yn'
loop_
_symmetry_equiv_pos_site_id
_symmetry_equiv_pos_as_xyz
1 x,y,z
2 1/2-x,1/2+y,1/2-z
3 -x,-y,-z
4 1/2+x,1/2-y,1/2+z
_cell_length_a                   13.831(3)
_cell_length_b                   8.9904(18)
_cell_length_c                   14.978(3)
_cell_angle_alpha                90
_cell_angle_beta                 112.79(3)
_cell_angle_gamma                90
_cell_volume                     1717.06
_exptl_crystal_colour            colorless
_exptl_crystal_description       block
_cell_formula_units_Z            4
_exptl_crystal_recrystallization_method 'methanol/ethyl acetate/petroleum ether'
loop_
_atom_site_label
_atom_site_type_symbol
_atom_site_fract_x
_atom_site_fract_y
_atom_site_fract_z
C1 C 0.3598(3) 0.0927(4) 0.1226(2)
C2 C 0.3869(3) 0.1940(4) 0.2044(2)
C3 C 0.2088(3) 0.2532(6) 0.1902(3)
H1 H 0.2026 0.2844 0.1269
H2 H 0.1855 0.3317 0.2205
H3 H 0.1665 0.1664 0.1847
C4 C 0.3437(4) 0.1949(5) 0.3481(3)
H4 H 0.3072 0.1067 0.3558
H5 H 0.3181 0.2784 0.3738
C5 C 0.4578(4) 0.1761(5) 0.4074(3)
H6 H 0.4665 0.1515 0.4731
H7 H 0.4834 0.0925 0.3820
C6 C 0.5239(4) 0.3082(5) 0.4105(3)
H8 H 0.5043 0.3886 0.4433
H9 H 0.5966 0.2836 0.4485
C7 C 0.4813(3) 0.2614(3) 0.2368(2)
C8 C 0.5306(3) 0.1445(4) 0.1140(2)
C9 C 0.6648(3) 0.2706(4) 0.2460(2)
H10 H 0.7025 0.2656 0.2034
H11 H 0.6723 0.3699 0.2732
C10 C 0.7968(4) 0.1714(8) 0.3765(4)
H12 H 0.8076 0.2688 0.4067
H13 H 0.8390 0.1673 0.3377
C11 C 0.8383(4) 0.0601(7) 0.4539(4)
H14 H 0.7953 0.0577 0.4911
H15 H 0.9088 0.0860 0.4954
H16 H 0.8379 -0.0360 0.4259
C12 C 0.5293(2) 0.5115(4) 0.3007(2)
C13 C 0.5958(3) 0.5994(4) 0.3752(3)
H17 H 0.6339 0.5586 0.4358
C14 C 0.6045(3) 0.7501(4) 0.3579(3)
H18 H 0.6477 0.8101 0.4081
C15 C 0.5513(3) 0.8117(4) 0.2692(3)
H19 H 0.5590 0.9121 0.2586
C16 C 0.4866(3) 0.7244(4) 0.1964(3)
H20 H 0.4497 0.7662 0.1359
C17 C 0.4749(3) 0.5758(4) 0.2106(2)
H21 H 0.4305 0.5179 0.1598
H22 H 0.420(3) 0.018(4) 0.027(3)
N1 N 0.4323(2) 0.0844(3) 0.07953(19)
N2 N 0.55515(19) 0.2347(3) 0.19371(18)
N3 N 0.5151(2) 0.3599(3) 0.31555(17)
N4 N 0.3169(2) 0.2189(4) 0.2482(2)
O1 O 0.2790(2) 0.0204(3) 0.08886(18)
O2 O 0.59235(19) 0.1200(3) 0.07421(17)
O3 O 0.7038(2) 0.1625(4) 0.3210(2)
loop_
_geom_bond_atom_site_label_1
_geom_bond_atom_site_label_2
_geom_bond_site_symmetry_1
_geom_bond_site_symmetry_2
C1 C2 1_555 1_555
C2 C7 1_555 1_555
C3 H1 1_555 1_555
H2 C3 1_555 1_555
H3 C3 1_555 1_555
C4 H4 1_555 1_555
H5 C4 1_555 1_555
C5 C4 1_555 1_555
H6 C5 1_555 1_555
H7 C5 1_555 1_555
C6 C5 1_555 1_555
H8 C6 1_555 1_555
H9 C6 1_555 1_555
C7 N2 1_555 1_555
C8 N1 1_555 1_555
C9 H10 1_555 1_555
H11 C9 1_555 1_555
C10 H12 1_555 1_555
H13 C10 1_555 1_555
C11 C10 1_555 1_555
H14 C11 1_555 1_555
H15 C11 1_555 1_555
H16 C11 1_555 1_555
C12 C13 1_555 1_555
C13 H17 1_555 1_555
C14 C13 1_555 1_555
H18 C14 1_555 1_555
C15 C14 1_555 1_555
H19 C15 1_555 1_555
C16 C15 1_555 1_555
H20 C16 1_555 1_555
C17 C12 1_555 1_555
H21 C17 1_555 1_555
H22 N1 1_555 1_555
N1 C1 1_555 1_555
N2 C8 1_555 1_555
N3 C6 1_555 1_555
N4 C2 1_555 1_555
O1 C1 1_555 1_555
O2 C8 1_555 1_555
O3 C9 1_555 1_555
C3 N4 1_555 1_555
C4 N4 1_555 1_555
C7 N3 1_555 1_555
C9 N2 1_555 1_555
C10 O3 1_555 1_555
C12 N3 1_555 1_555
C16 C17 1_555 1_555

#END
