
#######################################################################
#
#                 Cambridge Crystallographic Data Centre
#                                CCDC 
#
#######################################################################
#
# If this CIF has been generated from an entry in the Cambridge 
# Structural Database, then it will include bibliographic, chemical, 
# crystal, experimental, refinement or atomic coordinate data resulting 
# from the CCDC's data processing and validation procedures.
#
#######################################################################

data_ZAPXOG
_chemical_formula_moiety         'C14 H19 Br1 N4 O2'
_chemical_name_systematic        
2-(1-(4-bromophenyl)ethylidene)-N^1^,N^1^,N'^1^,N'^1^-tetramethylhydrazine-1,1-dicarboxamide
_symmetry_cell_setting           orthorhombic
_symmetry_space_group_name_H-M   'P 21 21 21'
_symmetry_Int_Tables_number      19
_space_group_name_Hall           'P 2ac 2ab'
loop_
_symmetry_equiv_pos_site_id
_symmetry_equiv_pos_as_xyz
1 x,y,z
2 1/2-x,-y,1/2+z
3 -x,1/2+y,1/2-z
4 1/2+x,1/2-y,-z
_cell_length_a                   5.1666(10)
_cell_length_b                   12.446(3)
_cell_length_c                   25.390(5)
_cell_angle_alpha                90
_cell_angle_beta                 90
_cell_angle_gamma                90
_cell_volume                     1632.67
_exptl_crystal_colour            colorless
_exptl_crystal_description       Block
_cell_formula_units_Z            4
loop_
_atom_site_label
_atom_site_type_symbol
_atom_site_fract_x
_atom_site_fract_y
_atom_site_fract_z
Br1 Br 0.42728(16) 1.04496(5) 0.22329(3)
O1 O 0.5962(8) 0.5524(3) 0.00513(14)
N1 N 0.8847(9) 0.4206(3) -0.00996(17)
O2 O 0.6734(8) 0.3225(3) 0.08778(15)
C1 C 0.8562(9) 0.6715(4) 0.09193(19)
N2 N 0.7675(8) 0.5794(3) 0.10569(16)
C2 C 0.7605(12) 0.4911(4) 0.0206(2)
C3 C 0.5646(14) 0.9300(4) 0.1842(2)
C4 C 0.7566(10) 0.7619(4) 0.1236(2)
C5 C 0.4744(16) 0.8303(5) 0.1911(2)
H1 H 0.3446 0.8174 0.2157
C6 C 0.7488(12) 0.9475(5) 0.1474(3)
H2 H 0.8151 1.0164 0.1426
C7 C 0.7943(12) 0.4097(4) -0.0641(2)
H3 H 0.6431 0.4533 -0.0692
H4 H 0.7525 0.3359 -0.0710
H5 H 0.9280 0.4328 -0.0878
C8 C 1.0475(11) 0.6923(4) 0.04925(18)
H6 H 1.0929 0.6257 0.0325
H7 H 1.1998 0.7246 0.0640
H8 H 0.9729 0.7400 0.0237
C9 C 0.8382(12) 0.8648(4) 0.1170(3)
H9 H 0.9594 0.8794 0.0909
N3 N 0.8494(7) 0.4909(3) 0.07415(17)
N4 N 0.9678(10) 0.3854(3) 0.14526(19)
C10 C 1.1139(11) 0.3616(4) 0.0043(2)
H10 H 1.1550 0.3752 0.0405
H11 H 1.2555 0.3842 -0.0176
H12 H 1.0840 0.2862 -0.0007
C11 C 0.9373(15) 0.2904(4) 0.1784(2)
H13 H 0.7923 0.2491 0.1662
H14 H 0.9080 0.3123 0.2142
H15 H 1.0914 0.2475 0.1766
C12 C 1.1788(11) 0.4582(5) 0.1583(2)
H16 H 1.1773 0.5180 0.1344
H17 H 1.3407 0.4208 0.1553
H18 H 1.1576 0.4838 0.1937
C13 C 0.5736(15) 0.7466(4) 0.1618(2)
H19 H 0.5142 0.6773 0.1683
C14 C 0.8185(12) 0.3929(4) 0.1024(2)
loop_
_geom_bond_atom_site_label_1
_geom_bond_atom_site_label_2
_geom_bond_site_symmetry_1
_geom_bond_site_symmetry_2
Br1 C3 1_555 1_555
O1 C2 1_555 1_555
N1 C2 1_555 1_555
O2 C14 1_555 1_555
C1 N2 1_555 1_555
N2 N3 1_555 1_555
C2 N3 1_555 1_555
C3 C5 1_555 1_555
C4 C1 1_555 1_555
C5 H1 1_555 1_555
C6 C3 1_555 1_555
H2 C6 1_555 1_555
C7 N1 1_555 1_555
H3 C7 1_555 1_555
H4 C7 1_555 1_555
H5 C7 1_555 1_555
C8 C1 1_555 1_555
H6 C8 1_555 1_555
H7 C8 1_555 1_555
H8 C8 1_555 1_555
C9 C4 1_555 1_555
H9 C9 1_555 1_555
N3 C14 1_555 1_555
N4 C11 1_555 1_555
C10 N1 1_555 1_555
H10 C10 1_555 1_555
H11 C10 1_555 1_555
H12 C10 1_555 1_555
C11 H13 1_555 1_555
H14 C11 1_555 1_555
H15 C11 1_555 1_555
C12 N4 1_555 1_555
H16 C12 1_555 1_555
H17 C12 1_555 1_555
H18 C12 1_555 1_555
C13 C4 1_555 1_555
H19 C13 1_555 1_555
C14 N4 1_555 1_555
C5 C13 1_555 1_555
C6 C9 1_555 1_555

#END
