
#######################################################################
#
#                 Cambridge Crystallographic Data Centre
#                                CCDC 
#
#######################################################################
#
# If this CIF has been generated from an entry in the Cambridge 
# Structural Database, then it will include bibliographic, chemical, 
# crystal, experimental, refinement or atomic coordinate data resulting 
# from the CCDC's data processing and validation procedures.
#
#######################################################################

data_ZAPYAT
_chemical_formula_moiety         'C26 H26 O3'
_chemical_name_systematic        
3-(3-isopropoxyphenyl)-4,5-diphenyl-3,6-dihydro-2H-pyran-3-ol
_symmetry_cell_setting           monoclinic
_symmetry_space_group_name_H-M   'P 21'
_symmetry_Int_Tables_number      4
_space_group_name_Hall           'P 2yb'
loop_
_symmetry_equiv_pos_site_id
_symmetry_equiv_pos_as_xyz
1 x,y,z
2 -x,1/2+y,-z
_cell_length_a                   12.8937(2)
_cell_length_b                   6.05140(10)
_cell_length_c                   14.0680(2)
_cell_angle_alpha                90
_cell_angle_beta                 107.5170(10)
_cell_angle_gamma                90
_cell_volume                     1046.75
_exptl_crystal_colour            colorless
_exptl_crystal_description       block
_cell_formula_units_Z            2
loop_
_atom_site_label
_atom_site_type_symbol
_atom_site_fract_x
_atom_site_fract_y
_atom_site_fract_z
O1 O 0.17595(10) 0.2698(3) 0.11212(10)
H1 H 0.1103 0.2435 0.0821
O2 O 0.00927(11) 0.5937(3) 0.03776(10)
O3 O 0.55881(11) 0.3142(3) 0.15862(12)
C1 C 0.18741(15) 0.4946(4) 0.14479(14)
C2 C 0.14319(15) 0.5177(3) 0.23469(13)
C3 C 0.04081(15) 0.5840(4) 0.21982(14)
C4 C -0.02992(16) 0.6593(4) 0.11808(14)
H2 H -0.1040 0.5988 0.1065
H3 H -0.0354 0.8225 0.1182
C5 C 0.12238(15) 0.6444(4) 0.06069(14)
H4 H 0.1350 0.8010 0.0813
H5 H 0.1464 0.6221 0.0009
C6 C 0.30708(15) 0.5588(4) 0.16941(13)
C7 C 0.38239(15) 0.4125(4) 0.15308(13)
H6 H 0.3602 0.2689 0.1278
C8 C 0.49121(16) 0.4761(4) 0.17384(13)
C9 C 0.52371(17) 0.6864(4) 0.20929(15)
H7 H 0.5975 0.7302 0.2230
C10 C 0.44732(16) 0.8324(4) 0.22454(14)
H8 H 0.4691 0.9770 0.2486
C11 C 0.33965(16) 0.7698(4) 0.20506(14)
H9 H 0.2881 0.8710 0.2161
C12 C 0.66148(15) 0.3785(4) 0.14519(15)
H10 H 0.7015 0.4788 0.2006
C13 C 0.64160(18) 0.4952(5) 0.04605(17)
H11 H 0.6028 0.3959 -0.0080
H12 H 0.7114 0.5373 0.0370
H13 H 0.5978 0.6280 0.0450
C14 C 0.72334(19) 0.1658(5) 0.1506(2)
H14 H 0.7304 0.0927 0.2144
H15 H 0.7958 0.1974 0.1450
H16 H 0.6841 0.0687 0.0958
C15 C 0.21989(15) 0.4605(4) 0.33438(13)
C16 C 0.27587(17) 0.2611(4) 0.34934(15)
H17 H 0.2608 0.1548 0.2972
C17 C 0.35378(18) 0.2153(5) 0.43986(17)
H18 H 0.3913 0.0781 0.4495
C18 C 0.37645(17) 0.3698(5) 0.51568(15)
H19 H 0.4306 0.3401 0.5771
C19 C 0.32064(19) 0.5668(5) 0.50219(16)
H20 H 0.3354 0.6716 0.5548
C20 C 0.24263(17) 0.6133(4) 0.41176(15)
H21 H 0.2048 0.7501 0.4029
C21 C -0.01827(15) 0.5841(4) 0.29647(14)
C22 C -0.01820(16) 0.3979(4) 0.35423(15)
H22 H 0.0252 0.2741 0.3493
C23 C -0.08104(17) 0.3905(5) 0.41943(16)
H23 H -0.0803 0.2622 0.4586
C24 C -0.14432(17) 0.5697(5) 0.42706(16)
H24 H -0.1878 0.5642 0.4708
C25 C -0.14429(17) 0.7569(4) 0.37089(16)
H25 H -0.1871 0.8810 0.3768
C26 C -0.08178(16) 0.7646(4) 0.30567(15)
H26 H -0.0824 0.8937 0.2671
loop_
_geom_bond_atom_site_label_1
_geom_bond_atom_site_label_2
_geom_bond_site_symmetry_1
_geom_bond_site_symmetry_2
O1 H1 1_555 1_555
O2 C4 1_555 1_555
O3 C8 1_555 1_555
C1 O1 1_555 1_555
C2 C1 1_555 1_555
C3 C2 1_555 1_555
C4 C3 1_555 1_555
H2 C4 1_555 1_555
H3 C4 1_555 1_555
C5 O2 1_555 1_555
H4 C5 1_555 1_555
H5 C5 1_555 1_555
C6 C1 1_555 1_555
C7 C6 1_555 1_555
H6 C7 1_555 1_555
C8 C7 1_555 1_555
C9 C8 1_555 1_555
H7 C9 1_555 1_555
C10 C9 1_555 1_555
H8 C10 1_555 1_555
C11 C6 1_555 1_555
H9 C11 1_555 1_555
C12 O3 1_555 1_555
H10 C12 1_555 1_555
C13 C12 1_555 1_555
H11 C13 1_555 1_555
H12 C13 1_555 1_555
H13 C13 1_555 1_555
C14 C12 1_555 1_555
H14 C14 1_555 1_555
H15 C14 1_555 1_555
H16 C14 1_555 1_555
C15 C2 1_555 1_555
C16 C15 1_555 1_555
H17 C16 1_555 1_555
C17 C16 1_555 1_555
H18 C17 1_555 1_555
C18 C17 1_555 1_555
H19 C18 1_555 1_555
C19 C18 1_555 1_555
H20 C19 1_555 1_555
C20 C15 1_555 1_555
H21 C20 1_555 1_555
C21 C3 1_555 1_555
C22 C21 1_555 1_555
H22 C22 1_555 1_555
C23 C22 1_555 1_555
H23 C23 1_555 1_555
C24 C23 1_555 1_555
H24 C24 1_555 1_555
C25 C24 1_555 1_555
H25 C25 1_555 1_555
C26 C21 1_555 1_555
H26 C26 1_555 1_555
C1 C5 1_555 1_555
C10 C11 1_555 1_555
C19 C20 1_555 1_555
C25 C26 1_555 1_555

#END
