
#######################################################################
#
#                 Cambridge Crystallographic Data Centre
#                                CCDC 
#
#######################################################################
#
# If this CIF has been generated from an entry in the Cambridge 
# Structural Database, then it will include bibliographic, chemical, 
# crystal, experimental, refinement or atomic coordinate data resulting 
# from the CCDC's data processing and validation procedures.
#
#######################################################################

data_ZAPYUM
_chemical_formula_moiety         'C15 H16 N2'
_chemical_name_systematic        
(E)-2,4,6-Trimethyl-N-(pyridin-2-ylmethylidene)aniline
_symmetry_cell_setting           monoclinic
_symmetry_space_group_name_H-M   'P 21/c'
_symmetry_Int_Tables_number      14
_space_group_name_Hall           '-P 2ybc'
loop_
_symmetry_equiv_pos_site_id
_symmetry_equiv_pos_as_xyz
1 x,y,z
2 -x,1/2+y,1/2-z
3 -x,-y,-z
4 x,1/2-y,1/2+z
_cell_length_a                   8.2490(16)
_cell_length_b                   16.136(3)
_cell_length_c                   10.150(2)
_cell_angle_alpha                90
_cell_angle_beta                 104.76(3)
_cell_angle_gamma                90
_cell_volume                     1306.44
_exptl_crystal_colour            colorless
_exptl_crystal_description       block
_cell_formula_units_Z            4
_exptl_crystal_recrystallization_method n-hexane
loop_
_atom_site_label
_atom_site_type_symbol
_atom_site_fract_x
_atom_site_fract_y
_atom_site_fract_z
N1 N -0.08242(19) -0.04738(10) 0.77519(15)
N2 N 0.20612(16) 0.11712(9) 0.82639(12)
C1 C -0.02245(18) 0.02378(10) 0.74182(15)
C2 C -0.0893(2) 0.06280(13) 0.61937(16)
H1 H -0.0460 0.1131 0.5993
C3 C -0.2097(2) -0.08143(14) 0.6828(2)
H2 H -0.2515 -0.1318 0.7042
C4 C -0.2827(2) -0.04703(15) 0.55889(18)
H3 H -0.3718 -0.0731 0.4983
C5 C -0.2218(3) 0.02585(16) 0.52670(19)
H4 H -0.2686 0.0509 0.4431
C6 C 0.12079(18) 0.05750(10) 0.84678(15)
H5 H 0.1483 0.0328 0.9324
C7 C 0.34417(17) 0.14354(9) 0.93500(15)
C8 C 0.50580(18) 0.11695(10) 0.93612(15)
C9 C 0.63854(18) 0.14503(10) 1.04089(16)
H6 H 0.7465 0.1274 1.0430
C10 C 0.61645(18) 0.19772(10) 1.14131(17)
C11 C 0.45476(19) 0.22368(11) 1.13626(16)
H7 H 0.4379 0.2595 1.2033
C12 C 0.31661(18) 0.19793(10) 1.03427(15)
C13 C 0.5355(2) 0.05931(13) 0.82917(18)
H8 H 0.6532 0.0479 0.8462
H9 H 0.4964 0.0846 0.7411
H10 H 0.4758 0.0085 0.8316
C14 C 0.7641(2) 0.22552(14) 1.2553(2)
H11 H 0.8654 0.2017 1.2422
H12 H 0.7479 0.2076 1.3413
H13 H 0.7723 0.2849 1.2546
C15 C 0.1431(2) 0.22807(13) 1.0332(2)
H14 H 0.1494 0.2642 1.1094
H15 H 0.0730 0.1815 1.0393
H16 H 0.0965 0.2577 0.9501
loop_
_geom_bond_atom_site_label_1
_geom_bond_atom_site_label_2
_geom_bond_site_symmetry_1
_geom_bond_site_symmetry_2
N1 C1 1_555 1_555
N2 C6 1_555 1_555
C1 C2 1_555 1_555
C2 H1 1_555 1_555
C3 N1 1_555 1_555
H2 C3 1_555 1_555
C4 C3 1_555 1_555
H3 C4 1_555 1_555
C5 C2 1_555 1_555
H4 C5 1_555 1_555
C6 C1 1_555 1_555
H5 C6 1_555 1_555
C7 N2 1_555 1_555
C8 C7 1_555 1_555
C9 C8 1_555 1_555
H6 C9 1_555 1_555
C10 C9 1_555 1_555
C11 C10 1_555 1_555
H7 C11 1_555 1_555
C12 C7 1_555 1_555
C13 C8 1_555 1_555
H8 C13 1_555 1_555
H9 C13 1_555 1_555
H10 C13 1_555 1_555
C14 C10 1_555 1_555
H11 C14 1_555 1_555
H12 C14 1_555 1_555
H13 C14 1_555 1_555
C15 C12 1_555 1_555
H14 C15 1_555 1_555
H15 C15 1_555 1_555
H16 C15 1_555 1_555
C4 C5 1_555 1_555
C11 C12 1_555 1_555

#END
