
#######################################################################
#
#                 Cambridge Crystallographic Data Centre
#                                CCDC 
#
#######################################################################
#
# If this CIF has been generated from an entry in the Cambridge 
# Structural Database, then it will include bibliographic, chemical, 
# crystal, experimental, refinement or atomic coordinate data resulting 
# from the CCDC's data processing and validation procedures.
#
#######################################################################

data_ZAQBIE
_chemical_formula_moiety         'C11 H24 N1 1+,C1 F1 O2 1-,C2 H3 N1'
_chemical_name_systematic        
'1,1,3,3,5,5-Hexamethylpiperidinium fluorocarbonate acetonitrile solvate'
_symmetry_cell_setting           monoclinic
_symmetry_space_group_name_H-M   'P 21/c'
_symmetry_Int_Tables_number      14
_space_group_name_Hall           '-P 2ybc'
loop_
_symmetry_equiv_pos_site_id
_symmetry_equiv_pos_as_xyz
1 x,y,z
2 -x,1/2+y,1/2-z
3 -x,-y,-z
4 x,1/2-y,1/2+z
_cell_length_a                   12.106(2)
_cell_length_b                   8.307(2)
_cell_length_c                   17.158(2)
_cell_angle_alpha                90
_cell_angle_beta                 109.98(1)
_cell_angle_gamma                90
_cell_volume                     1621.63
_exptl_crystal_colour            colorless
_cell_formula_units_Z            4
loop_
_atom_site_label
_atom_site_type_symbol
_atom_site_fract_x
_atom_site_fract_y
_atom_site_fract_z
F1 F -0.0627(2) -0.1827(2) 0.0175(1)
C1 C 0.0141(2) -0.1423(3) 0.0941(2)
O1 O 0.0699(2) -0.0123(2) 0.0991(1)
O2 O 0.0219(2) -0.2372(2) 0.1512(1)
N1 N 0.8929(2) 0.1226(2) 0.6381(1)
C2 C 0.8472(2) 0.2910(3) 0.6442(2)
C3 C 0.7190(2) 0.3250(3) 0.5912(2)
C4 C 0.6960(2) 0.2664(3) 0.5017(2)
C5 C 0.7384(2) 0.0956(3) 0.4907(2)
C6 C 0.8657(2) 0.0753(4) 0.5482(2)
C7 C 1.0247(2) 0.1270(4) 0.6777(2)
C8 C 0.8496(2) -0.0002(4) 0.6857(2)
C9 C 0.7092(3) 0.5104(4) 0.5896(2)
C10 C 0.6298(3) 0.2645(4) 0.6293(2)
C11 C 0.7423(3) 0.0821(4) 0.4024(2)
C12 C 0.6559(3) -0.0391(4) 0.4989(2)
H1 H 0.8591 0.3144 0.7033
H2 H 0.9027 0.3596 0.6269
H3 H 0.7393 0.3429 0.4727
H4 H 0.6126 0.2843 0.4728
H5 H 0.9121 0.1426 0.5273
H6 H 0.8935 -0.0314 0.5467
H7 H 1.0447 0.1503 0.7370
H8 H 1.0577 0.2162 0.6496
H9 H 1.0580 0.0177 0.6711
H10 H 0.7628 -0.0082 0.6644
H11 H 0.8741 0.0352 0.7478
H12 H 0.8833 -0.1016 0.6781
H13 H 0.6272 0.5404 0.5566
H14 H 0.7638 0.5580 0.5606
H15 H 0.7223 0.5538 0.6445
H16 H 0.6244 0.1532 0.6308
H17 H 0.5507 0.3041 0.5972
H18 H 0.6497 0.3020 0.6879
H19 H 0.6653 0.1009 0.3619
H20 H 0.7712 -0.0283 0.3949
H21 H 0.7933 0.1654 0.3885
H22 H 0.6357 -0.0386 0.5515
H23 H 0.6925 -0.1459 0.4941
H24 H 0.5820 -0.0346 0.4541
C13 C 0.3932(3) 0.1546(4) 0.2430(2)
C14 C 0.3510(3) 0.0568(5) 0.1688(2)
N2 N 0.4273(3) 0.2276(4) 0.3017(2)
H25 H 0.3504 0.1210 0.1216
H26 H 0.2698 0.0199 0.1613
H27 H 0.4058 -0.0346 0.1804
loop_
_geom_bond_atom_site_label_1
_geom_bond_atom_site_label_2
_geom_bond_site_symmetry_1
_geom_bond_site_symmetry_2
F1 C1 1_555 1_555
C1 O1 1_555 1_555
O2 C1 1_555 1_555
N1 C2 1_555 1_555
C2 C3 1_555 1_555
C3 C4 1_555 1_555
C4 C5 1_555 1_555
C5 C6 1_555 1_555
C6 N1 1_555 1_555
C7 N1 1_555 1_555
C8 N1 1_555 1_555
C9 C3 1_555 1_555
C10 C3 1_555 1_555
C11 C5 1_555 1_555
C12 C5 1_555 1_555
H1 C2 1_555 1_555
H2 C2 1_555 1_555
H3 C4 1_555 1_555
H4 C4 1_555 1_555
H5 C6 1_555 1_555
H6 C6 1_555 1_555
H7 C7 1_555 1_555
H8 C7 1_555 1_555
H9 C7 1_555 1_555
H10 C8 1_555 1_555
H11 C8 1_555 1_555
H12 C8 1_555 1_555
H13 C9 1_555 1_555
H14 C9 1_555 1_555
H15 C9 1_555 1_555
H16 C10 1_555 1_555
H17 C10 1_555 1_555
H18 C10 1_555 1_555
H19 C11 1_555 1_555
H20 C11 1_555 1_555
H21 C11 1_555 1_555
H22 C12 1_555 1_555
H23 C12 1_555 1_555
H24 C12 1_555 1_555
C13 C14 1_555 1_555
C14 H25 1_555 1_555
N2 C13 1_555 1_555
H26 C14 1_555 1_555
H27 C14 1_555 1_555

#END
