
#######################################################################
#
#                 Cambridge Crystallographic Data Centre
#                                CCDC 
#
#######################################################################
#
# If this CIF has been generated from an entry in the Cambridge 
# Structural Database, then it will include bibliographic, chemical, 
# crystal, experimental, refinement or atomic coordinate data resulting 
# from the CCDC's data processing and validation procedures.
#
#######################################################################

data_ZAQJIN
_chemical_formula_moiety         'C15 H24 N2 O1'
_chemical_name_systematic        
11a-ethyldecahydro-1H,5H,10H-azeto[2,1-f]pyrido[3,2,1-ij][1,6]naphthyridin-10-one
_symmetry_cell_setting           monoclinic
_symmetry_space_group_name_H-M   'P 21'
_symmetry_Int_Tables_number      4
_space_group_name_Hall           'P 2yb'
loop_
_symmetry_equiv_pos_site_id
_symmetry_equiv_pos_as_xyz
1 x,y,z
2 -x,1/2+y,-z
_cell_length_a                   8.0445(2)
_cell_length_b                   6.30670(10)
_cell_length_c                   13.2918(3)
_cell_angle_alpha                90
_cell_angle_beta                 94.770(2)
_cell_angle_gamma                90
_cell_volume                     672.014
_exptl_crystal_colour            'light colorless'
_exptl_crystal_description       block
_cell_formula_units_Z            2
loop_
_atom_site_label
_atom_site_type_symbol
_atom_site_fract_x
_atom_site_fract_y
_atom_site_fract_z
N1 N 0.5563(2) 0.2406(3) 0.30837(12)
N2 N 0.8871(2) 0.5798(3) 0.22353(13)
O1 O 1.0387(2) 0.8982(3) 0.23690(14)
C1 C 0.9231(2) 0.4466(4) 0.31105(15)
H1 H 1.0308 0.4845 0.3445
H2 H 0.9277 0.2994 0.2903
C2 C 0.7030(2) 0.4048(4) 0.08691(15)
H3 H 0.6766 0.2753 0.1216
H4 H 0.6090 0.4376 0.0390
C3 C 0.6094(2) 0.4604(3) 0.33137(14)
H5 H 0.5343 0.5146 0.3798
C4 C 0.7237(2) 0.5841(3) 0.16426(15)
C5 C 0.5868(3) 0.6064(3) 0.23820(15)
H6 H 0.5989 0.7508 0.2650
C6 C 0.5747(3) 0.1117(4) 0.40018(16)
H7 H 0.5350 -0.0308 0.3847
H8 H 0.5062 0.1712 0.4499
C7 C 0.7874(3) 0.4750(3) 0.38397(14)
H9 H 0.8000 0.6188 0.4115
C8 C 0.7530(3) 0.1016(4) 0.44418(17)
H10 H 0.8226 0.0427 0.3949
H11 H 0.7614 0.0103 0.5031
C9 C 0.9275(3) 0.7832(3) 0.20274(17)
C10 C 0.3783(3) 0.2402(4) 0.27222(17)
H12 H 0.3141 0.2977 0.3245
H13 H 0.3422 0.0952 0.2596
C11 C 0.8129(3) 0.3227(4) 0.47362(16)
H14 H 0.9303 0.3178 0.4970
H15 H 0.7518 0.3742 0.5286
C12 C 0.4078(3) 0.5942(5) 0.19003(19)
H16 H 0.3355 0.6719 0.2318
H17 H 0.4024 0.6627 0.1245
C13 C 0.8548(3) 0.3652(4) 0.02918(18)
H18 H 0.8340 0.2463 -0.0152
H19 H 0.9494 0.3354 0.0759
H20 H 0.8770 0.4886 -0.0097
C14 C 0.3430(3) 0.3686(5) 0.17675(17)
H21 H 0.2236 0.3719 0.1588
H22 H 0.3955 0.3010 0.1220
C15 C 0.7775(3) 0.8041(4) 0.12483(18)
H23 H 0.8055 0.8040 0.0552
H24 H 0.7024 0.9194 0.1378
loop_
_geom_bond_atom_site_label_1
_geom_bond_atom_site_label_2
_geom_bond_site_symmetry_1
_geom_bond_site_symmetry_2
N1 C3 1_555 1_555
N2 C1 1_555 1_555
O1 C9 1_555 1_555
C1 H1 1_555 1_555
H2 C1 1_555 1_555
C2 H3 1_555 1_555
H4 C2 1_555 1_555
C3 H5 1_555 1_555
C4 N2 1_555 1_555
C5 C3 1_555 1_555
H6 C5 1_555 1_555
C6 N1 1_555 1_555
H7 C6 1_555 1_555
H8 C6 1_555 1_555
C7 C1 1_555 1_555
H9 C7 1_555 1_555
C8 C6 1_555 1_555
H10 C8 1_555 1_555
H11 C8 1_555 1_555
C9 N2 1_555 1_555
C10 N1 1_555 1_555
H12 C10 1_555 1_555
H13 C10 1_555 1_555
C11 C7 1_555 1_555
H14 C11 1_555 1_555
H15 C11 1_555 1_555
C12 C5 1_555 1_555
H16 C12 1_555 1_555
H17 C12 1_555 1_555
C13 C2 1_555 1_555
H18 C13 1_555 1_555
H19 C13 1_555 1_555
H20 C13 1_555 1_555
C14 C10 1_555 1_555
H21 C14 1_555 1_555
H22 C14 1_555 1_555
C15 C4 1_555 1_555
H23 C15 1_555 1_555
H24 C15 1_555 1_555
C2 C4 1_555 1_555
C3 C7 1_555 1_555
C4 C5 1_555 1_555
C8 C11 1_555 1_555
C9 C15 1_555 1_555
C12 C14 1_555 1_555

#END
