
#######################################################################
#
#                 Cambridge Crystallographic Data Centre
#                                CCDC 
#
#######################################################################
#
# If this CIF has been generated from an entry in the Cambridge 
# Structural Database, then it will include bibliographic, chemical, 
# crystal, experimental, refinement or atomic coordinate data resulting 
# from the CCDC's data processing and validation procedures.
#
#######################################################################

data_ZAQJAF
_chemical_formula_moiety         'C21 H26 N2 O2'
_chemical_name_systematic        
3-acetyl-1-methyl-7,8,8a,8b,9,12,13,14,14a,14b-decahydro-6H,11H-indolo[3,2,1-ij]pyrido[1,2-g][1,6]naphthyridin-11-one
_symmetry_cell_setting           orthorhombic
_symmetry_space_group_name_H-M   'P 21 21 21'
_symmetry_Int_Tables_number      19
_space_group_name_Hall           'P 2ac 2ab'
loop_
_symmetry_equiv_pos_site_id
_symmetry_equiv_pos_as_xyz
1 x,y,z
2 1/2-x,-y,1/2+z
3 1/2+x,1/2-y,-z
4 -x,1/2+y,1/2-z
_cell_length_a                   8.71084(15)
_cell_length_b                   10.8675(2)
_cell_length_c                   18.4105(3)
_cell_angle_alpha                90
_cell_angle_beta                 90
_cell_angle_gamma                90
_cell_volume                     1742.83
_exptl_crystal_colour            'light colorless'
_exptl_crystal_description       needle
_cell_formula_units_Z            4
loop_
_atom_site_label
_atom_site_type_symbol
_atom_site_fract_x
_atom_site_fract_y
_atom_site_fract_z
N1 N 0.08918(18) 0.92328(15) 0.52292(8)
C1 C 0.1902(2) 0.81360(17) 0.37846(10)
H1 H 0.2728 0.8235 0.4141
N2 N 0.18556(19) 0.92668(16) 0.33388(9)
O1 O 0.1886(2) 1.03165(16) 0.22762(9)
C2 C 0.0928(2) 0.80105(17) 0.54626(10)
C3 C -0.0079(2) 0.92270(18) 0.45705(10)
H2 H -0.1157 0.9175 0.4720
C4 C 0.0373(2) 0.80081(18) 0.42117(10)
H3 H -0.0452 0.7692 0.3902
C5 C 0.1858(3) 0.8127(2) 0.21895(12)
H4 H 0.2883 0.7977 0.2003
H5 H 0.1177 0.8211 0.1776
C6 C 0.1869(2) 0.9325(2) 0.26023(11)
C7 C 0.2279(2) 0.7020(2) 0.33281(11)
H6 H 0.2048 0.6279 0.3601
H7 H 0.3367 0.7017 0.3216
C8 C 0.0584(2) 0.72197(18) 0.48832(10)
C9 C 0.1190(2) 0.5775(2) 0.70199(13)
C10 C 0.1704(3) 1.03906(19) 0.37607(12)
H8 H 0.1796 1.1100 0.3444
H9 H 0.2514 1.0433 0.4122
C11 C 0.0559(3) 1.02299(19) 0.57310(11)
H10 H 0.1237 1.0181 0.6148
H11 H -0.0492 1.0167 0.5901
C12 C 0.1201(2) 0.75770(18) 0.61572(11)
H12 H 0.1473 0.8107 0.6532
C13 C 0.0139(2) 1.03983(19) 0.41349(11)
H13 H -0.0650 1.0414 0.3755
C14 C -0.0132(3) 1.1509(2) 0.46324(13)
H14 H 0.0142 1.2254 0.4373
H15 H -0.1215 1.1556 0.4750
C15 C 0.0448(2) 0.59556(18) 0.49970(11)
O2 O 0.0805(2) 0.47167(18) 0.71373(11)
C16 C 0.1052(2) 0.6306(2) 0.62745(12)
C17 C 0.1363(2) 0.7021(2) 0.26258(11)
H16 H 0.1557 0.6272 0.2355
H17 H 0.0273 0.7068 0.2731
C18 C 0.0794(3) 1.1448(2) 0.53383(12)
H18 H 0.1876 1.1551 0.5229
H19 H 0.0485 1.2117 0.5654
C19 C -0.0007(3) 0.5075(2) 0.44063(14)
H20 H -0.0489 0.5521 0.4018
H21 H -0.0713 0.4479 0.4598
H22 H 0.0889 0.4663 0.4226
C20 C 0.0682(2) 0.55283(19) 0.57039(12)
H23 H 0.0587 0.4690 0.5795
C21 C 0.1786(4) 0.6569(3) 0.76208(15)
H24 H 0.1107 0.7255 0.7691
H25 H 0.2791 0.6865 0.7497
H26 H 0.1843 0.6097 0.8061
loop_
_geom_bond_atom_site_label_1
_geom_bond_atom_site_label_2
_geom_bond_site_symmetry_1
_geom_bond_site_symmetry_2
N1 C2 1_555 1_555
C1 H1 1_555 1_555
N2 C1 1_555 1_555
O1 C6 1_555 1_555
C2 C8 1_555 1_555
C3 N1 1_555 1_555
H2 C3 1_555 1_555
C4 C1 1_555 1_555
H3 C4 1_555 1_555
C5 H4 1_555 1_555
H5 C5 1_555 1_555
C6 N2 1_555 1_555
C7 C1 1_555 1_555
H6 C7 1_555 1_555
H7 C7 1_555 1_555
C8 C4 1_555 1_555
C9 O2 1_555 1_555
C10 N2 1_555 1_555
H8 C10 1_555 1_555
H9 C10 1_555 1_555
C11 N1 1_555 1_555
H10 C11 1_555 1_555
H11 C11 1_555 1_555
C12 C2 1_555 1_555
H12 C12 1_555 1_555
C13 C3 1_555 1_555
H13 C13 1_555 1_555
C14 C13 1_555 1_555
H14 C14 1_555 1_555
H15 C14 1_555 1_555
C15 C8 1_555 1_555
C16 C9 1_555 1_555
C17 C5 1_555 1_555
H16 C17 1_555 1_555
H17 C17 1_555 1_555
C18 C11 1_555 1_555
H18 C18 1_555 1_555
H19 C18 1_555 1_555
C19 C15 1_555 1_555
H20 C19 1_555 1_555
H21 C19 1_555 1_555
H22 C19 1_555 1_555
C20 C15 1_555 1_555
H23 C20 1_555 1_555
C21 C9 1_555 1_555
H24 C21 1_555 1_555
H25 C21 1_555 1_555
H26 C21 1_555 1_555
C3 C4 1_555 1_555
C5 C6 1_555 1_555
C7 C17 1_555 1_555
C10 C13 1_555 1_555
C12 C16 1_555 1_555
C14 C18 1_555 1_555
C16 C20 1_555 1_555

#END
