
#######################################################################
#
#                 Cambridge Crystallographic Data Centre
#                                CCDC 
#
#######################################################################
#
# If this CIF has been generated from an entry in the Cambridge 
# Structural Database, then it will include bibliographic, chemical, 
# crystal, experimental, refinement or atomic coordinate data resulting 
# from the CCDC's data processing and validation procedures.
#
#######################################################################

data_ZAQPOY
_chemical_name_common            3-Benzylchromen-2-one
_chemical_formula_moiety         'C16 H12 O2'
_chemical_name_systematic        3-Benzyl-2H-chromen-2-one
_symmetry_cell_setting           monoclinic
_symmetry_space_group_name_H-M   'P 21/c'
_symmetry_Int_Tables_number      14
_space_group_name_Hall           '-P 2ybc'
loop_
_symmetry_equiv_pos_site_id
_symmetry_equiv_pos_as_xyz
1 x,y,z
2 -x,1/2+y,1/2-z
3 -x,-y,-z
4 x,1/2-y,1/2+z
_cell_length_a                   11.7704(4)
_cell_length_b                   8.2809(4)
_cell_length_c                   12.4652(6)
_cell_angle_alpha                90
_cell_angle_beta                 108.151(2)
_cell_angle_gamma                90
_cell_volume                     1154.52
_exptl_crystal_colour            colorless
_exptl_crystal_description       prism
_cell_formula_units_Z            4
loop_
_atom_site_label
_atom_site_type_symbol
_atom_site_fract_x
_atom_site_fract_y
_atom_site_fract_z
C1 C 0.38027(9) 0.35804(12) 0.36947(9)
C2 C 0.35856(9) 0.38688(11) 0.47770(9)
C3 C 0.43498(9) 0.32578(12) 0.57355(9)
H1 H 0.4219 0.3477 0.6436
C4 C 0.53617(9) 0.22788(12) 0.57215(9)
C5 C 0.61806(10) 0.16006(13) 0.66886(10)
H2 H 0.6099 0.1803 0.7411
C6 C 0.71066(10) 0.06388(13) 0.65934(10)
H3 H 0.7660 0.0191 0.7252
C7 C 0.72314(10) 0.03238(12) 0.55376(11)
H4 H 0.7868 -0.0342 0.5482
C8 C 0.64344(9) 0.09730(12) 0.45677(10)
H5 H 0.6511 0.0752 0.3846
C9 C 0.55206(9) 0.19552(12) 0.46798(9)
C10 C 0.24760(9) 0.48264(12) 0.47378(10)
H6 H 0.2366 0.5706 0.4177
H7 H 0.2586 0.5325 0.5485
C11 C 0.13605(9) 0.37716(12) 0.44253(9)
C12 C 0.09172(10) 0.31780(13) 0.52614(10)
H8 H 0.1305 0.3453 0.6029
C13 C -0.00877(11) 0.21854(14) 0.49858(11)
H9 H -0.0383 0.1794 0.5565
C14 C -0.06579(10) 0.17677(13) 0.38743(11)
H10 H -0.1344 0.1092 0.3687
C15 C -0.02205(10) 0.23422(14) 0.30374(11)
H11 H -0.0604 0.2051 0.2273
C16 C 0.07789(9) 0.33453(13) 0.33096(10)
H12 H 0.1066 0.3742 0.2727
O1 O 0.47592(6) 0.26132(9) 0.36983(6)
O2 O 0.32169(7) 0.41253(10) 0.27881(7)
loop_
_geom_bond_atom_site_label_1
_geom_bond_atom_site_label_2
_geom_bond_site_symmetry_1
_geom_bond_site_symmetry_2
C1 C2 1_555 1_555
C2 C3 1_555 1_555
C3 H1 1_555 1_555
C4 C3 1_555 1_555
C5 C4 1_555 1_555
H2 C5 1_555 1_555
C6 C5 1_555 1_555
H3 C6 1_555 1_555
C7 C6 1_555 1_555
H4 C7 1_555 1_555
C8 C7 1_555 1_555
H5 C8 1_555 1_555
C9 C4 1_555 1_555
C10 C2 1_555 1_555
H6 C10 1_555 1_555
H7 C10 1_555 1_555
C11 C10 1_555 1_555
C12 C11 1_555 1_555
H8 C12 1_555 1_555
C13 C12 1_555 1_555
H9 C13 1_555 1_555
C14 C13 1_555 1_555
H10 C14 1_555 1_555
C15 C14 1_555 1_555
H11 C15 1_555 1_555
C16 C11 1_555 1_555
H12 C16 1_555 1_555
O1 C1 1_555 1_555
O2 C1 1_555 1_555
C8 C9 1_555 1_555
C9 O1 1_555 1_555
C15 C16 1_555 1_555

#END
