
#######################################################################
#
#                 Cambridge Crystallographic Data Centre
#                                CCDC 
#
#######################################################################
#
# If this CIF has been generated from an entry in the Cambridge 
# Structural Database, then it will include bibliographic, chemical, 
# crystal, experimental, refinement or atomic coordinate data resulting 
# from the CCDC's data processing and validation procedures.
#
#######################################################################

data_ZAQPUF
_chemical_formula_moiety         'C21 H20 O2'
_chemical_name_systematic        
6',6'-dimethyl-4,5-dihydro-3H,6'H-spiro[furan-2,11'-indeno[1,2-c]chromene]
_symmetry_cell_setting           orthorhombic
_symmetry_space_group_name_H-M   'P c a 21'
_symmetry_Int_Tables_number      29
_space_group_name_Hall           'P 2c -2ac'
loop_
_symmetry_equiv_pos_site_id
_symmetry_equiv_pos_as_xyz
1 x,y,z
2 -x,-y,1/2+z
3 1/2+x,-y,z
4 1/2-x,y,1/2+z
_cell_length_a                   13.6012(16)
_cell_length_b                   13.9898(14)
_cell_length_c                   8.3935(9)
_cell_angle_alpha                90
_cell_angle_beta                 90
_cell_angle_gamma                90
_cell_volume                     1597.1
_exptl_crystal_colour            colorless
_exptl_crystal_description       parallelepiped
_cell_formula_units_Z            4
loop_
_atom_site_label
_atom_site_type_symbol
_atom_site_fract_x
_atom_site_fract_y
_atom_site_fract_z
O1 O 1.1475(2) 0.1923(2) 0.2449(3)
O2 O 0.9096(7) 0.3434(5) -0.1616(8)
C1 C 1.1982(4) 0.2157(4) 0.3890(6)
H1 H 1.2499 0.2617 0.3677
H2 H 1.2277 0.1588 0.4345
C2 C 1.1247(4) 0.2571(4) 0.5024(6)
H3 H 1.1014 0.2090 0.5765
H4 H 1.1529 0.3098 0.5620
C3 C 1.0424(3) 0.2914(3) 0.3959(5)
H5 H 1.0534 0.3569 0.3622
H6 H 0.9795 0.2875 0.4500
C4 C 1.0462(3) 0.2226(3) 0.2531(5)
C5 C 0.9763(3) 0.1370(3) 0.2688(5)
C6 C 0.9721(4) 0.0663(3) 0.3823(5)
H7 H 1.0176 0.0652 0.4650
C7 C 0.9000(4) -0.0034(3) 0.3731(6)
H8 H 0.8965 -0.0507 0.4508
C8 C 0.8335(4) -0.0029(3) 0.2498(7)
H9 H 0.7856 -0.0502 0.2442
C9 C 0.8372(3) 0.0677(3) 0.1333(5)
H10 H 0.7922 0.0677 0.0500
C10 C 0.9087(3) 0.1380(3) 0.1425(4)
C11 C 0.9324(4) 0.2205(3) 0.0414(5)
C12 C 0.8818(3) 0.2483(3) -0.1114(5)
C13 C 1.0043(4) 0.3766(3) -0.1248(5)
C14 C 1.0409(5) 0.4509(3) -0.2168(6)
H11 H 1.0073 0.4705 -0.3077
C15 C 1.1265(5) 0.4954(4) -0.1735(7)
H12 H 1.1506 0.5454 -0.2352
C16 C 1.1772(5) 0.4672(4) -0.0404(8)
H13 H 1.2353 0.4978 -0.0118
C17 C 1.1413(4) 0.3929(3) 0.0508(6)
H14 H 1.1757 0.3740 0.1412
C18 C 1.0551(4) 0.3459(3) 0.0108(5)
C19 C 1.0123(3) 0.2651(3) 0.0967(5)
C20 C 0.7714(4) 0.2632(4) -0.0928(6)
H15 H 0.7413 0.2046 -0.0588
H16 H 0.7595 0.3120 -0.0147
H17 H 0.7438 0.2824 -0.1931
C21 C 0.9027(4) 0.1759(4) -0.2402(6)
H18 H 0.8837 0.1135 -0.2039
H19 H 0.8660 0.1920 -0.3341
H20 H 0.9717 0.1761 -0.2644
O3? O 0.959(3) 0.311(2) -0.205(4)
loop_
_geom_bond_atom_site_label_1
_geom_bond_atom_site_label_2
_geom_bond_site_symmetry_1
_geom_bond_site_symmetry_2
O1 C1 1_555 1_555
O2 C12 1_555 1_555
C1 H1 1_555 1_555
H2 C1 1_555 1_555
C2 C1 1_555 1_555
H3 C2 1_555 1_555
H4 C2 1_555 1_555
C3 C2 1_555 1_555
H5 C3 1_555 1_555
H6 C3 1_555 1_555
C4 O1 1_555 1_555
C5 C4 1_555 1_555
C6 C5 1_555 1_555
H7 C6 1_555 1_555
C7 C6 1_555 1_555
H8 C7 1_555 1_555
C8 C7 1_555 1_555
H9 C8 1_555 1_555
C9 C8 1_555 1_555
H10 C9 1_555 1_555
C10 C5 1_555 1_555
C11 C10 1_555 1_555
C12 C11 1_555 1_555
C13 O2 1_555 1_555
C14 C13 1_555 1_555
H11 C14 1_555 1_555
C15 C14 1_555 1_555
H12 C15 1_555 1_555
C16 C15 1_555 1_555
H13 C16 1_555 1_555
C17 C16 1_555 1_555
H14 C17 1_555 1_555
C18 C13 1_555 1_555
C19 C4 1_555 1_555
C20 C12 1_555 1_555
H15 C20 1_555 1_555
H16 C20 1_555 1_555
H17 C20 1_555 1_555
C21 C12 1_555 1_555
H18 C21 1_555 1_555
H19 C21 1_555 1_555
H20 C21 1_555 1_555
C3 C4 1_555 1_555
C9 C10 1_555 1_555
C11 C19 1_555 1_555
C17 C18 1_555 1_555
C18 C19 1_555 1_555

#END
