
#######################################################################
#
#                 Cambridge Crystallographic Data Centre
#                                CCDC 
#
#######################################################################
#
# If this CIF has been generated from an entry in the Cambridge 
# Structural Database, then it will include bibliographic, chemical, 
# crystal, experimental, refinement or atomic coordinate data resulting 
# from the CCDC's data processing and validation procedures.
#
#######################################################################

data_ZAQTET
_chemical_compound_source        'Seeds of Taxodium ascendens'
_chemical_name_common            'taxodikaloid A'
_chemical_formula_moiety         'C40 H49 N1 O6'
_chemical_name_systematic        
7'-hydroxy-5',7-diisopropyl-1,1,4a,7b',11',11'-hexamethyl-3,4,4a,8',9',10',10a,11',11a',11b'-decahydro-1H,3'H-spiro[phenanthrene-9,2'-phenanthro[9,10-d][1,3]oxazole]-5,6,6',10(2H,7b'H)-tetrone
_symmetry_cell_setting           orthorhombic
_symmetry_space_group_name_H-M   'P 21 21 2'
_symmetry_Int_Tables_number      18
_space_group_name_Hall           'P 2 2ab'
loop_
_symmetry_equiv_pos_site_id
_symmetry_equiv_pos_as_xyz
1 x,y,z
2 -x,-y,z
3 1/2+x,1/2-y,-z
4 1/2-x,1/2+y,-z
_cell_length_a                   12.0745(3)
_cell_length_b                   23.3538(7)
_cell_length_c                   5.9816(2)
_cell_angle_alpha                90
_cell_angle_beta                 90
_cell_angle_gamma                90
_cell_volume                     1686.72
_exptl_crystal_colour            colorless
_exptl_crystal_description       Prism
_chemical_melting_point          '453 K'
_cell_formula_units_Z            2
_exptl_crystal_recrystallization_method Methanol
loop_
_atom_site_label
_atom_site_type_symbol
_atom_site_fract_x
_atom_site_fract_y
_atom_site_fract_z
O1 O 0.5625(3) 0.24812(13) 0.6714(8)
O2 O 0.4031(4) 0.25445(19) 0.9776(9)
O3 O 0.5855(4) -0.0240(2) 0.4483(10)
O4 O 0.6027(6) 0.0311(3) 0.1907(12)
N1 N 0.4453(5) 0.0026(3) 0.6937(12)
C1 C 0.7568(4) 0.1739(2) 0.6173(10)
H1 H 0.7430 0.2148 0.6064
H2 H 0.7584 0.1641 0.7749
C2 C 0.8684(5) 0.1615(3) 0.5189(14)
H3 H 0.8708 0.1765 0.3678
H4 H 0.9243 0.1813 0.6056
C3 C 0.8954(5) 0.1010(3) 0.5127(14)
H5 H 0.9038 0.0875 0.6650
H6 H 0.9663 0.0965 0.4386
C4 C 0.8067(7) 0.0616(4) 0.3891(13)
C5 C 0.6935(4) 0.0764(2) 0.4969(10)
H7 H 0.708(10) 0.063(5) 0.65(2)
C6 C 0.5803(10) 0.0384(5) 0.445(2)
C7 C 0.4953(14) 0.0463(8) 0.630(2)
C8 C 0.4850(4) 0.10223(18) 0.6927(9)
C9 C 0.5549(3) 0.14642(17) 0.6468(8)
C10 C 0.6597(4) 0.1417(2) 0.5059(9)
C11 C 0.5204(4) 0.20331(19) 0.7291(8)
C12 C 0.4202(4) 0.2081(2) 0.8885(9)
C13 C 0.3502(4) 0.1588(3) 0.9204(10)
C14 C 0.3849(4) 0.1085(3) 0.8315(12)
H8 H 0.3429 0.0759 0.8599
C15 C 0.2479(5) 0.1668(4) 1.0638(11)
H9 H 0.2268 0.2072 1.0493
C16 C 0.2746(6) 0.1575(3) 1.3071(11)
H10 H 0.3070 0.1203 1.3263
H11 H 0.2078 0.1601 1.3938
H12 H 0.3259 0.1863 1.3563
C17 C 0.1518(5) 0.1334(5) 0.9903(16)
H13 H 0.1337 0.1435 0.8390
H14 H 0.0898 0.1416 1.0856
H15 H 0.1690 0.0933 0.9982
C18 C 0.8342(5) 0.0003(3) 0.4551(13)
H16 H 0.8396 -0.0023 0.6149
H17 H 0.9035 -0.0106 0.3890
H18 H 0.7768 -0.0248 0.4030
C19 C 0.8139(10) 0.0676(5) 0.1439(19)
H19 H 0.7491 0.0513 0.0762
H20 H 0.8785 0.0480 0.0904
H21 H 0.8187 0.1074 0.1055
C20 C 0.6327(5) 0.1681(3) 0.2748(10)
H22 H 0.5730 0.1472 0.2071
H23 H 0.6969 0.1660 0.1807
H24 H 0.6114 0.2074 0.2934
O1A O 0.4375(3) -0.24812(13) 0.6714(8)
O2A O 0.5969(4) -0.25445(19) 0.9776(9)
O3A O 0.4145(4) 0.0240(2) 0.4483(10)
O4A O 0.3973(6) -0.0311(3) 0.1907(12)
N1A N 0.5547(5) -0.0026(3) 0.6937(12)
C1A C 0.2432(4) -0.1739(2) 0.6173(10)
H1A H 0.2570 -0.2148 0.6064
H2A H 0.2416 -0.1641 0.7749
C2A C 0.1316(5) -0.1615(3) 0.5189(14)
H3A H 0.1292 -0.1765 0.3678
H4A H 0.0757 -0.1813 0.6056
C3A C 0.1046(5) -0.1010(3) 0.5127(14)
H5A H 0.0962 -0.0875 0.6650
H6A H 0.0337 -0.0965 0.4386
C4A C 0.1933(7) -0.0616(4) 0.3891(13)
C5A C 0.3065(4) -0.0764(2) 0.4969(10)
H7A H 0.292(10) -0.063(5) 0.65(2)
C6A C 0.4197(10) -0.0384(5) 0.445(2)
C7A C 0.5047(14) -0.0463(8) 0.630(2)
C8A C 0.5150(4) -0.10223(18) 0.6927(9)
C9A C 0.4451(3) -0.14642(17) 0.6468(8)
C10A C 0.3403(4) -0.1417(2) 0.5059(9)
C11A C 0.4796(4) -0.20331(19) 0.7291(8)
C12A C 0.5798(4) -0.2081(2) 0.8885(9)
C13A C 0.6498(4) -0.1588(3) 0.9204(10)
C14A C 0.6151(4) -0.1085(3) 0.8315(12)
H8A H 0.6571 -0.0759 0.8599
C15A C 0.7521(5) -0.1668(4) 1.0638(11)
H9A H 0.7732 -0.2072 1.0493
C16A C 0.7254(6) -0.1575(3) 1.3071(11)
H10A H 0.6930 -0.1203 1.3263
H11A H 0.7922 -0.1601 1.3938
H12A H 0.6741 -0.1863 1.3563
C17A C 0.8482(5) -0.1334(5) 0.9903(16)
H13A H 0.8663 -0.1435 0.8390
H14A H 0.9102 -0.1416 1.0856
H15A H 0.8310 -0.0933 0.9982
C18A C 0.1658(5) -0.0003(3) 0.4551(13)
H16A H 0.1604 0.0023 0.6149
H17A H 0.0965 0.0106 0.3890
H18A H 0.2232 0.0248 0.4030
C19A C 0.1861(10) -0.0676(5) 0.1439(19)
H19A H 0.2509 -0.0513 0.0762
H20A H 0.1215 -0.0480 0.0904
H21A H 0.1813 -0.1074 0.1055
C20A C 0.3673(5) -0.1681(3) 0.2748(10)
H22A H 0.4270 -0.1472 0.2071
H23A H 0.3031 -0.1660 0.1807
H24A H 0.3886 -0.2074 0.2934
C21? C 0.6118(12) 0.0508(5) 0.374(2)
C22? C 0.5153(12) 0.0451(7) 0.545(3)
H25? H 0.5482 0.0509 0.3033
H26? H 0.5049 0.0199 0.7556
loop_
_geom_bond_atom_site_label_1
_geom_bond_atom_site_label_2
_geom_bond_site_symmetry_1
_geom_bond_site_symmetry_2
O1 C11 1_555 1_555
O2 C12 1_555 1_555
O3 C6 1_555 1_555
O4 C6 1_555 1_555
N1 C7 1_555 1_555
C1 H1 1_555 1_555
H2 C1 1_555 1_555
C2 C1 1_555 1_555
H3 C2 1_555 1_555
H4 C2 1_555 1_555
C3 C2 1_555 1_555
H5 C3 1_555 1_555
H6 C3 1_555 1_555
C4 C3 1_555 1_555
C5 C4 1_555 1_555
H7 C5 1_555 1_555
C6 C5 1_555 1_555
C7 C6 1_555 1_555
C8 C7 1_555 1_555
C9 C8 1_555 1_555
C10 C1 1_555 1_555
C11 C9 1_555 1_555
C12 C11 1_555 1_555
C13 C12 1_555 1_555
C14 C8 1_555 1_555
H8 C14 1_555 1_555
C15 C13 1_555 1_555
H9 C15 1_555 1_555
C16 C15 1_555 1_555
H10 C16 1_555 1_555
H11 C16 1_555 1_555
H12 C16 1_555 1_555
C17 C15 1_555 1_555
H13 C17 1_555 1_555
H14 C17 1_555 1_555
H15 C17 1_555 1_555
C18 C4 1_555 1_555
H16 C18 1_555 1_555
H17 C18 1_555 1_555
H18 C18 1_555 1_555
C19 C4 1_555 1_555
H19 C19 1_555 1_555
H20 C19 1_555 1_555
H21 C19 1_555 1_555
C20 C10 1_555 1_555
H22 C20 1_555 1_555
H23 C20 1_555 1_555
H24 C20 1_555 1_555
O1A C11A 1_555 1_555
O2A C12A 1_555 1_555
O3A C7 1_555 1_555
O4A C6A 1_555 1_555
N1A C7 1_555 1_555
C1A H1A 1_555 1_555
H2A C1A 1_555 1_555
C2A C1A 1_555 1_555
H3A C2A 1_555 1_555
H4A C2A 1_555 1_555
C3A C2A 1_555 1_555
H5A C3A 1_555 1_555
H6A C3A 1_555 1_555
C4A C3A 1_555 1_555
C5A C4A 1_555 1_555
H7A C5A 1_555 1_555
C6A O3A 1_555 1_555
C7A O3 1_555 1_555
C8A C7A 1_555 1_555
C9A C8A 1_555 1_555
C10A C1A 1_555 1_555
C11A C9A 1_555 1_555
C12A C11A 1_555 1_555
C13A C12A 1_555 1_555
C14A C8A 1_555 1_555
H8A C14A 1_555 1_555
C15A C13A 1_555 1_555
H9A C15A 1_555 1_555
C16A C15A 1_555 1_555
H10A C16A 1_555 1_555
H11A C16A 1_555 1_555
H12A C16A 1_555 1_555
C17A C15A 1_555 1_555
H13A C17A 1_555 1_555
H14A C17A 1_555 1_555
H15A C17A 1_555 1_555
C18A C4A 1_555 1_555
H16A C18A 1_555 1_555
H17A C18A 1_555 1_555
H18A C18A 1_555 1_555
C19A C4A 1_555 1_555
H19A C19A 1_555 1_555
H20A C19A 1_555 1_555
H21A C19A 1_555 1_555
C20A C10A 1_555 1_555
H22A C20A 1_555 1_555
H23A C20A 1_555 1_555
H24A C20A 1_555 1_555
N1 C7A 1_555 1_555
C5 C10 1_555 1_555
C9 C10 1_555 1_555
C13 C14 1_555 1_555
N1A C7A 1_555 1_555
C5A C6A 1_555 1_555
C5A C10A 1_555 1_555
C6A C7A 1_555 1_555
C9A C10A 1_555 1_555
C13A C14A 1_555 1_555

#END
