
#######################################################################
#
#                 Cambridge Crystallographic Data Centre
#                                CCDC 
#
#######################################################################
#
# If this CIF has been generated from an entry in the Cambridge 
# Structural Database, then it will include bibliographic, chemical, 
# crystal, experimental, refinement or atomic coordinate data resulting 
# from the CCDC's data processing and validation procedures.
#
#######################################################################

data_ZARGUW
_chemical_formula_moiety         'C20 H25 Cl1 N6 2+,2(Cl1 O4 1-)'
_chemical_name_systematic        
'(E)-2-[2-(4-Chlorobenzylidene)hydrazin-1-yl]-4-([3-(dimethylazaniumyl)propyl]amino)quinazolin-1-ium bis(perchlorate)'
_symmetry_cell_setting           triclinic
_symmetry_space_group_name_H-M   'P -1'
_symmetry_Int_Tables_number      2
_space_group_name_Hall           '-P 1'
loop_
_symmetry_equiv_pos_site_id
_symmetry_equiv_pos_as_xyz
1 x,y,z
2 -x,-y,-z
_cell_length_a                   10.4533(18)
_cell_length_b                   10.5018(18)
_cell_length_c                   12.626(2)
_cell_angle_alpha                104.745(9)
_cell_angle_beta                 91.146(10)
_cell_angle_gamma                96.210(10)
_cell_volume                     1330.92
_exptl_crystal_colour            colorless
_exptl_crystal_description       block
_cell_formula_units_Z            2
loop_
_atom_site_label
_atom_site_type_symbol
_atom_site_fract_x
_atom_site_fract_y
_atom_site_fract_z
Cl1 Cl 0.32941(8) 0.74253(8) 0.10002(7)
O1 O 0.3001(3) 0.6543(3) -0.0088(2)
O2 O 0.2245(3) 0.8192(3) 0.1395(3)
O3 O 0.3692(3) 0.6777(3) 0.1811(2)
O4 O 0.4611(4) 0.8581(4) 0.0865(4)
Cl2 Cl 0.26374(10) 0.25136(12) 0.61278(8)
O5 O 0.1324(4) 0.2708(10) 0.6082(4)
O6 O 0.2930(6) 0.1273(4) 0.6352(4)
O7 O 0.3248(4) 0.2711(4) 0.5170(3)
O8 O 0.3333(5) 0.3762(5) 0.7247(4)
Cl3 Cl -0.49702(12) 0.78162(13) -0.25924(10)
N1 N 0.2182(3) 0.4226(3) 0.3840(3)
H1 H 0.2213 0.3602 0.4166
N2 N 0.1121(3) 0.5197(3) 0.2718(2)
N3 N -0.0771(3) 0.4117(3) 0.1697(2)
H2 H -0.1379 0.4135 0.1234
N4 N 0.0158(3) 0.6172(3) 0.1555(2)
H3 H 0.0781 0.6806 0.1710
N5 N -0.0855(3) 0.6209(3) 0.0851(2)
C1 C 0.3790(6) 0.9314(8) 0.3904(6)
H4 H 0.3551 0.9663 0.3306
H5 H 0.4612 0.8987 0.3783
H6 H 0.3842 1.0001 0.4576
C2 C 0.1534(15) 0.8623(13) 0.3983(9)
H7 H 0.0894 0.7915 0.4033
H8 H 0.1373 0.8877 0.3318
H9 H 0.1493 0.9370 0.4601
N6 N 0.2784(4) 0.8189(4) 0.3980(3)
H10 H 0.2818 0.7500 0.3379
C3 C 0.3380(7) 0.7866(6) 0.4925(5)
H11 H 0.3252 0.8526 0.5596
H12 H 0.4297 0.7839 0.4841
C4 C 0.2729(9) 0.6522(6) 0.4957(5)
H13 H 0.1807 0.6504 0.4836
H14 H 0.2881 0.6397 0.5683
C5 C 0.3222(4) 0.5303(4) 0.4057(4)
H15 H 0.3423 0.5563 0.3390
H16 H 0.3990 0.5033 0.4340
C6 C 0.1190(3) 0.4168(3) 0.3162(3)
C7 C 0.0215(3) 0.3013(3) 0.2901(3)
C8 C 0.0235(4) 0.1903(4) 0.3319(3)
H17 H 0.0881 0.1891 0.3833
C9 C -0.0688(4) 0.0830(4) 0.2980(3)
H18 H -0.0663 0.0093 0.3258
C10 C -0.1655(4) 0.0850(4) 0.2224(3)
H19 H -0.2279 0.0121 0.1998
C11 C -0.1714(4) 0.1935(4) 0.1798(3)
H20 H -0.2375 0.1940 0.1297
C12 C -0.0763(3) 0.3026(3) 0.2132(3)
C13 C 0.0161(3) 0.5139(3) 0.1994(3)
C14 C -0.0831(3) 0.7243(3) 0.0498(3)
H21 H -0.0154 0.7918 0.0722
C15 C -0.1847(3) 0.7380(3) -0.0249(3)
C16 C -0.2904(3) 0.6397(3) -0.0569(3)
H22 H -0.2963 0.5654 -0.0292
C17 C -0.3850(4) 0.6532(4) -0.1289(3)
H23 H -0.4547 0.5880 -0.1506
C18 C -0.3756(3) 0.7649(4) -0.1690(3)
C19 C -0.2739(4) 0.8635(4) -0.1393(3)
H24 H -0.2689 0.9374 -0.1676
C20 C -0.1798(3) 0.8500(3) -0.0664(3)
H25 H -0.1113 0.9168 -0.0442
C21? C 0.4014(16) 0.885(3) 0.438(2)
C22? C 0.156(4) 0.896(4) 0.397(4)
C23? C 0.2400(10) 0.7379(10) 0.4811(8)
C24? C 0.3425(12) 0.6497(11) 0.4986(10)
C25? C 0.3222(4) 0.5303(4) 0.4057(4)
H26? H 0.2844 0.7628 0.3307
H27? H 0.4612 0.8206 0.4339
H28? H 0.3972 0.9346 0.5124
H29? H 0.4297 0.9437 0.3936
H30? H 0.1676 0.9518 0.3478
H31? H 0.1452 0.9492 0.4697
H32? H 0.0805 0.8331 0.3734
H33? H 0.2259 0.7983 0.5508
H34? H 0.1594 0.6825 0.4552
H35? H 0.4283 0.6954 0.4992
H36? H 0.3320 0.6261 0.5676
H37? H 0.3229 0.5634 0.3407
H38? H 0.4003 0.4881 0.4056
N7? N 0.2784(4) 0.8189(4) 0.3980(3)
loop_
_geom_bond_atom_site_label_1
_geom_bond_atom_site_label_2
_geom_bond_site_symmetry_1
_geom_bond_site_symmetry_2
Cl1 O1 1_555 1_555
Cl2 O5 1_555 1_555
Cl3 C18 1_555 1_555
N1 H1 1_555 1_555
N2 C6 1_555 1_555
N3 H2 1_555 1_555
N4 H3 1_555 1_555
N5 N4 1_555 1_555
O2 Cl1 1_555 1_555
O3 Cl1 1_555 1_555
O4 Cl1 1_555 1_555
O6 Cl2 1_555 1_555
O7 Cl2 1_555 1_555
O8 Cl2 1_555 1_555
C1 H4 1_555 1_555
H5 C1 1_555 1_555
H6 C1 1_555 1_555
C2 H7 1_555 1_555
H8 C2 1_555 1_555
H9 C2 1_555 1_555
N6 C1 1_555 1_555
H10 N6 1_555 1_555
C3 N6 1_555 1_555
H11 C3 1_555 1_555
H12 C3 1_555 1_555
C4 C3 1_555 1_555
H13 C4 1_555 1_555
H14 C4 1_555 1_555
C5 N1 1_555 1_555
H15 C5 1_555 1_555
H16 C5 1_555 1_555
C6 N1 1_555 1_555
C7 C6 1_555 1_555
C8 C7 1_555 1_555
H17 C8 1_555 1_555
C9 C8 1_555 1_555
H18 C9 1_555 1_555
C10 C9 1_555 1_555
H19 C10 1_555 1_555
C11 C10 1_555 1_555
H20 C11 1_555 1_555
C12 N3 1_555 1_555
C13 N2 1_555 1_555
C14 N5 1_555 1_555
H21 C14 1_555 1_555
C15 C14 1_555 1_555
C16 C15 1_555 1_555
H22 C16 1_555 1_555
C17 C16 1_555 1_555
H23 C17 1_555 1_555
C18 C17 1_555 1_555
C19 C18 1_555 1_555
H24 C19 1_555 1_555
C20 C15 1_555 1_555
H25 C20 1_555 1_555
N3 C13 1_555 1_555
N4 C13 1_555 1_555
C2 N6 1_555 1_555
C4 C5 1_555 1_555
C7 C12 1_555 1_555
C11 C12 1_555 1_555
C19 C20 1_555 1_555

#END
