
#######################################################################
#
#                 Cambridge Crystallographic Data Centre
#                                CCDC 
#
#######################################################################
#
# If this CIF has been generated from an entry in the Cambridge 
# Structural Database, then it will include bibliographic, chemical, 
# crystal, experimental, refinement or atomic coordinate data resulting 
# from the CCDC's data processing and validation procedures.
#
#######################################################################

data_ZARHAD
_chemical_name_common            'bis(Guanidinium bromide) 18-crown-6'
_chemical_formula_moiety         'C12 H24 O6,2(C1 H6 N3 1+),2(Br1 1-)'
_chemical_name_systematic        
'bis(Diaminomethaniminium bromide) 1,4,7,10,13,16-hexaoxacyclooctadecane'
_symmetry_cell_setting           monoclinic
_symmetry_space_group_name_H-M   'P 21/n'
_symmetry_Int_Tables_number      14
_space_group_name_Hall           '-P 2yn'
loop_
_symmetry_equiv_pos_site_id
_symmetry_equiv_pos_as_xyz
1 x,y,z
2 1/2-x,1/2+y,1/2-z
3 -x,-y,-z
4 1/2+x,1/2-y,1/2+z
_cell_length_a                   8.9354(18)
_cell_length_b                   9.860(2)
_cell_length_c                   14.306(3)
_cell_angle_alpha                90
_cell_angle_beta                 101.39(3)
_cell_angle_gamma                90
_cell_volume                     1235.58
_exptl_crystal_colour            colorless
_exptl_crystal_description       block
_chemical_melting_point          '395-396 K'
_cell_formula_units_Z            2
loop_
_atom_site_label
_atom_site_type_symbol
_atom_site_fract_x
_atom_site_fract_y
_atom_site_fract_z
O1 O 1.1811(3) -0.2005(3) 0.62582(18)
O2 O 1.2804(3) 0.0677(3) 0.6025(2)
O3 O 0.8672(3) -0.2293(3) 0.5560(2)
C1 C 1.3789(5) -0.0401(5) 0.6413(4)
H1 H 1.4677 -0.0043 0.6844
H2 H 1.4135 -0.0887 0.5905
C2 C 0.9606(6) -0.3369(5) 0.5989(4)
H3 H 1.0024 -0.3854 0.5509
H4 H 0.9004 -0.4000 0.6282
C3 C 1.0855(6) -0.2815(5) 0.6716(3)
H5 H 1.0439 -0.2269 0.7168
H6 H 1.1441 -0.3549 0.7061
C4 C 1.2942(5) -0.1325(4) 0.6931(3)
H7 H 1.3635 -0.1980 0.7292
H8 H 1.2465 -0.0814 0.7372
C5 C 0.7498(6) -0.2745(5) 0.4820(4)
H9 H 0.6934 -0.3471 0.5050
H10 H 0.7932 -0.3093 0.4298
C6 C 1.3526(5) 0.1611(6) 0.5511(4)
H11 H 1.3809 0.1160 0.4969
H12 H 1.4450 0.1949 0.5917
O1B O 0.8189(3) 0.2005(3) 0.37418(18)
O2B O 0.7196(3) -0.0677(3) 0.3975(2)
O3B O 1.1328(3) 0.2293(3) 0.4440(2)
C1B C 0.6211(5) 0.0401(5) 0.3587(4)
H1B H 0.5323 0.0043 0.3156
H2B H 0.5865 0.0887 0.4095
C2B C 1.0394(6) 0.3369(5) 0.4011(4)
H3B H 0.9976 0.3854 0.4491
H4B H 1.0996 0.4000 0.3718
C3B C 0.9145(6) 0.2815(5) 0.3284(3)
H5B H 0.9561 0.2269 0.2832
H6B H 0.8559 0.3549 0.2939
C4B C 0.7058(5) 0.1325(4) 0.3069(3)
H7B H 0.6365 0.1980 0.2708
H8B H 0.7535 0.0814 0.2628
C5B C 1.2502(6) 0.2745(5) 0.5180(4)
H9B H 1.3066 0.3471 0.4950
H10B H 1.2068 0.3093 0.5702
C6B C 0.6474(5) -0.1611(6) 0.4489(4)
H11B H 0.6191 -0.1160 0.5031
H12B H 0.5550 -0.1949 0.4083
N1 N 1.1162(4) -0.1452(4) 0.4063(3)
H13 H 1.1030 -0.1300 0.4633
H14 H 1.0709 -0.0954 0.3599
N2 N 1.2257(4) -0.2677(4) 0.3022(2)
H15 H 1.2841 -0.3325 0.2911
H16 H 1.1801 -0.2174 0.2562
C7 C 1.2061(4) -0.2453(4) 0.3900(3)
N3 N 1.2761(4) -0.3225(3) 0.4595(2)
H17 H 1.3344 -0.3871 0.4478
H18 H 1.2638 -0.3085 0.5168
Br1 Br 1.01901(4) -0.03281(4) 0.16380(3)
loop_
_geom_bond_atom_site_label_1
_geom_bond_atom_site_label_2
_geom_bond_site_symmetry_1
_geom_bond_site_symmetry_2
O1 C3 1_555 1_555
O2 C1 1_555 1_555
O3 C2 1_555 1_555
C1 H1 1_555 1_555
H2 C1 1_555 1_555
C2 H3 1_555 1_555
H4 C2 1_555 1_555
C3 C2 1_555 1_555
H5 C3 1_555 1_555
H6 C3 1_555 1_555
C4 O1 1_555 1_555
H7 C4 1_555 1_555
H8 C4 1_555 1_555
C5 O3 1_555 1_555
H9 C5 1_555 1_555
H10 C5 1_555 1_555
C6 O2 1_555 1_555
H11 C6 1_555 1_555
H12 C6 1_555 1_555
N1 H13 1_555 1_555
H14 N1 1_555 1_555
N2 H15 1_555 1_555
H16 N2 1_555 1_555
C7 N1 1_555 1_555
N3 C7 1_555 1_555
H17 N3 1_555 1_555
H18 N3 1_555 1_555
O1B C3B 1_555 1_555
O2B C1B 1_555 1_555
O3B C2B 1_555 1_555
C1B H1B 1_555 1_555
H2B C1B 1_555 1_555
C2B H3B 1_555 1_555
H4B C2B 1_555 1_555
C3B C2B 1_555 1_555
H5B C3B 1_555 1_555
H6B C3B 1_555 1_555
C4B O1B 1_555 1_555
H7B C4B 1_555 1_555
H8B C4B 1_555 1_555
C5B C6 1_555 1_555
H9B C5B 1_555 1_555
H10B C5B 1_555 1_555
C6B C5 1_555 1_555
H11B C6B 1_555 1_555
H12B C6B 1_555 1_555
C1 C4 1_555 1_555
N2 C7 1_555 1_555
O2B C6B 1_555 1_555
O3B C5B 1_555 1_555
C1B C4B 1_555 1_555

#END
