
#######################################################################
#
#                 Cambridge Crystallographic Data Centre
#                                CCDC 
#
#######################################################################
#
# If this CIF has been generated from an entry in the Cambridge 
# Structural Database, then it will include bibliographic, chemical, 
# crystal, experimental, refinement or atomic coordinate data resulting 
# from the CCDC's data processing and validation procedures.
#
#######################################################################

data_ZARLIQ
_chemical_formula_moiety         'C11 H10 N2 O4'
_chemical_name_systematic        
1,1'-(propane-1,3-diyl)bis(1H-pyrrole-2,5-dione)
_symmetry_cell_setting           monoclinic
_symmetry_space_group_name_H-M   'C 2/c'
_symmetry_Int_Tables_number      15
_space_group_name_Hall           '-C 2yn'
loop_
_symmetry_equiv_pos_site_id
_symmetry_equiv_pos_as_xyz
1 x,y,z
2 -x,y,1/2-z
3 1/2+x,1/2+y,z
4 1/2-x,1/2+y,1/2-z
5 -x,-y,-z
6 x,-y,1/2+z
7 1/2-x,1/2-y,-z
8 1/2+x,1/2-y,1/2+z
_cell_length_a                   19.395(7)
_cell_length_b                   6.714(2)
_cell_length_c                   9.132(3)
_cell_angle_alpha                90
_cell_angle_beta                 116.930(4)
_cell_angle_gamma                90
_cell_volume                     1060.2
_exptl_crystal_colour            colorless
_exptl_crystal_description       block
_cell_formula_units_Z            4
loop_
_atom_site_label
_atom_site_type_symbol
_atom_site_fract_x
_atom_site_fract_y
_atom_site_fract_z
C1 C 0.10012(8) 0.5559(2) 0.31212(17)
C2 C 0.15793(9) 0.6433(2) 0.4699(2)
C3 C 0.19188(9) 0.4986(3) 0.5737(2)
C4 C 0.15897(8) 0.3042(2) 0.49284(17)
C5 C 0.05623(8) 0.2055(2) 0.21135(17)
C6 C 0.0000 0.0863(3) 0.2500
N1 N 0.10207(6) 0.35002(16) 0.33756(13)
O1 O 0.06006(8) 0.63928(17) 0.18474(15)
O2 O 0.17779(6) 0.13719(16) 0.54675(13)
H1 H 0.1673(10) 0.781(3) 0.487(2)
H2 H 0.2293(12) 0.500(3) 0.676(3)
H3 H 0.0926(10) 0.117(3) 0.199(2)
H4 H 0.0297(9) 0.280(3) 0.115(2)
H5 H 0.0292(9) -0.003(3) 0.3453(18)
C1A C -0.10012(8) 0.5559(2) 0.18788(17)
C2A C -0.15793(9) 0.6433(2) 0.0301(2)
C3A C -0.19188(9) 0.4986(3) -0.0737(2)
C4A C -0.15897(8) 0.3042(2) 0.00716(17)
C5A C -0.05623(8) 0.2055(2) 0.28865(17)
N1A N -0.10207(6) 0.35002(16) 0.16244(13)
O1A O -0.06006(8) 0.63928(17) 0.31526(15)
O2A O -0.17779(6) 0.13719(16) -0.04675(13)
H1A H -0.1673(10) 0.781(3) 0.013(2)
H2A H -0.2293(12) 0.500(3) -0.176(3)
H3A H -0.0926(10) 0.117(3) 0.301(2)
H4A H -0.0297(9) 0.280(3) 0.385(2)
H5A H -0.0292(9) -0.003(3) 0.1547(18)
loop_
_geom_bond_atom_site_label_1
_geom_bond_atom_site_label_2
_geom_bond_site_symmetry_1
_geom_bond_site_symmetry_2
C1 C2 1_555 1_555
C2 C3 1_555 1_555
C3 C4 1_555 1_555
C4 N1 1_555 1_555
C5 C6 1_555 1_555
C6 H5 1_555 1_555
N1 C1 1_555 1_555
O1 C1 1_555 1_555
O2 C4 1_555 1_555
H1 C2 1_555 1_555
H2 C3 1_555 1_555
H3 C5 1_555 1_555
H4 C5 1_555 1_555
C1A C2A 1_555 1_555
C2A C3A 1_555 1_555
C3A C4A 1_555 1_555
C4A N1A 1_555 1_555
C5A C6 1_555 1_555
N1A C1A 1_555 1_555
O1A C1A 1_555 1_555
O2A C4A 1_555 1_555
H1A C2A 1_555 1_555
H2A C3A 1_555 1_555
H3A C5A 1_555 1_555
H4A C5A 1_555 1_555
H5A C6 1_555 1_555
C5 N1 1_555 1_555
C5A N1A 1_555 1_555

#END
