
#######################################################################
#
#                 Cambridge Crystallographic Data Centre
#                                CCDC 
#
#######################################################################
#
# If this CIF has been generated from an entry in the Cambridge 
# Structural Database, then it will include bibliographic, chemical, 
# crystal, experimental, refinement or atomic coordinate data resulting 
# from the CCDC's data processing and validation procedures.
#
#######################################################################

data_ZASDIJ
_chemical_formula_moiety         'C8 H15 N2 1+,H2 O4 P1 1-'
_chemical_name_systematic        
'1,2,3,4,5-pentamethyl-1H-imidazol-3-ium dihydrogen phosphate'
_symmetry_cell_setting           triclinic
_symmetry_space_group_name_H-M   'P -1'
_symmetry_Int_Tables_number      2
_space_group_name_Hall           '-P 1'
loop_
_symmetry_equiv_pos_site_id
_symmetry_equiv_pos_as_xyz
1 x,y,z
2 -x,-y,-z
_cell_length_a                   8.0764(16)
_cell_length_b                   8.5780(17)
_cell_length_c                   9.3073(19)
_cell_angle_alpha                85.67(3)
_cell_angle_beta                 70.95(3)
_cell_angle_gamma                63.79(3)
_cell_volume                     545.029
_exptl_crystal_colour            colorless
_exptl_crystal_description       plate
_cell_formula_units_Z            2
loop_
_atom_site_label
_atom_site_type_symbol
_atom_site_fract_x
_atom_site_fract_y
_atom_site_fract_z
N1 N 0.2287(3) 0.4882(3) 0.6151(2)
C1 C 0.2530(4) 0.5814(3) 0.4870(3)
C2 C 0.2715(4) 0.4850(3) 0.3686(3)
N2 N 0.2577(3) 0.3356(3) 0.4273(2)
C3 C 0.2319(3) 0.3400(3) 0.5766(3)
C4 C 0.2123(4) 0.5403(4) 0.7694(3)
H1 H 0.0742 0.5979 0.8322
H2 H 0.2705 0.6208 0.7612
H3 H 0.2812 0.4365 0.8169
C5 C 0.2551(4) 0.7537(3) 0.4911(3)
H4 H 0.2667 0.7982 0.3900
H5 H 0.3664 0.7404 0.5204
H6 H 0.1334 0.8358 0.5657
C6 C 0.3050(4) 0.5135(4) 0.2028(3)
H7 H 0.3107 0.6253 0.1836
H8 H 0.1977 0.5150 0.1745
H9 H 0.4286 0.4191 0.1418
C7 C 0.2743(4) 0.1932(3) 0.3370(3)
H10 H 0.2417 0.1109 0.4054
H11 H 0.4084 0.1327 0.2670
H12 H 0.1840 0.2409 0.2784
C8 C 0.2156(4) 0.2012(4) 0.6762(3)
H13 H 0.1990 0.2343 0.7803
H14 H 0.3345 0.0918 0.6380
H15 H 0.1025 0.1856 0.6762
P1 P 0.24279(10) 0.97167(9) 0.05190(8)
O1 O 0.0492(3) 1.0070(2) 0.1707(2)
O2 O 0.4179(3) 0.8543(2) 0.0993(2)
O3 O 0.2648(3) 0.8817(2) -0.0996(2)
H16 H 0.168(5) 0.922(4) -0.124(4)
O4 O 0.2477(3) 1.1502(2) 0.0114(2)
H17 H 0.355(5) 1.147(4) -0.025(4)
loop_
_geom_bond_atom_site_label_1
_geom_bond_atom_site_label_2
_geom_bond_site_symmetry_1
_geom_bond_site_symmetry_2
N1 C1 1_555 1_555
C1 C2 1_555 1_555
C2 N2 1_555 1_555
N2 C3 1_555 1_555
C3 N1 1_555 1_555
C4 N1 1_555 1_555
H1 C4 1_555 1_555
H2 C4 1_555 1_555
H3 C4 1_555 1_555
C5 C1 1_555 1_555
H4 C5 1_555 1_555
H5 C5 1_555 1_555
H6 C5 1_555 1_555
C6 C2 1_555 1_555
H7 C6 1_555 1_555
H8 C6 1_555 1_555
H9 C6 1_555 1_555
C7 N2 1_555 1_555
H10 C7 1_555 1_555
H11 C7 1_555 1_555
H12 C7 1_555 1_555
C8 C3 1_555 1_555
H13 C8 1_555 1_555
H14 C8 1_555 1_555
H15 C8 1_555 1_555
P1 O1 1_555 1_555
O2 P1 1_555 1_555
O3 P1 1_555 1_555
H16 O3 1_555 1_555
O4 P1 1_555 1_555
H17 O4 1_555 1_555

#END
