
#######################################################################
#
#                 Cambridge Crystallographic Data Centre
#                                CCDC 
#
#######################################################################
#
# If this CIF has been generated from an entry in the Cambridge 
# Structural Database, then it will include bibliographic, chemical, 
# crystal, experimental, refinement or atomic coordinate data resulting 
# from the CCDC's data processing and validation procedures.
#
#######################################################################

data_ZASFOR
_chemical_formula_moiety         'C24 H21 Cl3 N4 O3'
_chemical_name_systematic        
"2,2',2''-nitrilotris(N-(2-chlorophenyl)acetamide) unknown solvate"
_symmetry_cell_setting           monoclinic
_symmetry_space_group_name_H-M   'P 21/n'
_symmetry_Int_Tables_number      14
_space_group_name_Hall           '-P 2yn'
loop_
_symmetry_equiv_pos_site_id
_symmetry_equiv_pos_as_xyz
1 x,y,z
2 1/2-x,1/2+y,1/2-z
3 -x,-y,-z
4 1/2+x,1/2-y,1/2+z
_cell_length_a                   7.9673(5)
_cell_length_b                   9.9546(7)
_cell_length_c                   35.652(3)
_cell_angle_alpha                90
_cell_angle_beta                 93.700(2)
_cell_angle_gamma                90
_cell_volume                     2821.71
_exptl_crystal_colour            colorless
_exptl_crystal_description       block
_cell_formula_units_Z            4
loop_
_atom_site_label
_atom_site_type_symbol
_atom_site_fract_x
_atom_site_fract_y
_atom_site_fract_z
Cl1 Cl 0.97144(19) 0.26425(15) 0.80084(4)
Cl2 Cl 0.57387(15) 0.04958(15) 0.56467(3)
Cl3 Cl 0.97935(11) 0.75047(9) 0.69854(2)
O1 O 0.7627(3) 0.0594(3) 0.75382(6)
O2 O 0.2130(3) 0.0872(3) 0.67113(7)
O3 O 0.7528(4) 0.3351(3) 0.62561(7)
N1 N 1.0303(3) 0.0866(3) 0.73678(8)
H1 H 1.0886 0.1186 0.7186
N2 N 0.4032(3) 0.1508(3) 0.62964(7)
H2 H 0.5083 0.1759 0.6278
N3 N 0.7947(3) 0.5179(3) 0.66367(7)
H3 H 0.7933 0.5440 0.6872
N4 N 0.6525(3) 0.1754(3) 0.68212(7)
C1 C 1.2328(4) -0.0582(3) 0.77165(8)
H4 H 1.2547 -0.1057 0.7494
C2 C 1.3121(4) -0.0962(3) 0.80588(10)
H5 H 1.3883 -0.1698 0.8070
C3 C 1.2799(5) -0.0267(4) 0.83845(8)
H6 H 1.3341 -0.0527 0.8618
C4 C 1.1684(5) 0.0809(4) 0.83681(8)
H7 H 1.1465 0.1284 0.8591
C5 C 1.0891(4) 0.1189(3) 0.80258(9)
C6 C 1.1213(4) 0.0493(4) 0.77000(7)
C7 C 0.8619(4) 0.0785(3) 0.72970(9)
C8 C 0.8009(4) 0.0918(3) 0.68828(8)
H8 H 0.8927 0.1303 0.6742
H9 H 0.7757 0.0011 0.6780
C9 C 0.4967(4) 0.1223(3) 0.69488(8)
H10 H 0.4614 0.1780 0.7160
H11 H 0.5166 0.0299 0.7044
C10 C 0.3557(4) 0.1195(3) 0.66421(9)
C11 C 0.2992(4) 0.1466(3) 0.59622(9)
C12 C 0.1314(4) 0.1861(4) 0.59452(10)
H12 H 0.0825 0.2152 0.6167
C13 C 0.0350(5) 0.1834(4) 0.56080(11)
H13 H -0.0792 0.2113 0.5600
C14 C 0.1035(6) 0.1407(5) 0.52839(11)
H14 H 0.0364 0.1387 0.5054
C15 C 0.2696(6) 0.1005(5) 0.52934(11)
H15 H 0.3175 0.0718 0.5070
C16 C 0.3668(5) 0.1024(4) 0.56332(10)
C17 C 0.6822(4) 0.3163(3) 0.68994(9)
H16 H 0.7653 0.3252 0.7117
H17 H 0.5761 0.3589 0.6968
C18 C 0.7477(4) 0.3891(3) 0.65603(8)
C19 C 0.8456(4) 0.6142(3) 0.63759(9)
C20 C 0.8100(5) 0.6024(4) 0.59899(10)
H18 H 0.7512 0.5257 0.5892
C21 C 0.8589(6) 0.7006(4) 0.57472(11)
H19 H 0.8348 0.6904 0.5484
C22 C 0.9430(6) 0.8140(4) 0.58834(11)
H20 H 0.9754 0.8816 0.5714
C23 C 0.9795(5) 0.8286(4) 0.62636(11)
H21 H 1.0375 0.9060 0.6359
C24 C 0.9307(4) 0.7290(3) 0.65052(9)
Cl4? Cl 1.2932(4) -0.1037(3) 0.76094(11)
H22? H 1.1016 0.0875 0.7189
C25? C 1.0234(10) 0.1841(8) 0.8050(2)
H23? H 0.9414 0.2485 0.7965
C26? C 1.0796(11) 0.1797(9) 0.8427(2)
H24? H 1.0361 0.2411 0.8600
C27? C 1.1995(12) 0.0855(11) 0.85504(16)
H25? H 1.2379 0.0825 0.8808
C28? C 1.2632(10) -0.0043(9) 0.8297(2)
H26? H 1.3451 -0.0687 0.8382
C29? C 1.2070(9) 0.0000(8) 0.7920(2)
C30? C 1.0871(9) 0.0942(8) 0.77962(16)
loop_
_geom_bond_atom_site_label_1
_geom_bond_atom_site_label_2
_geom_bond_site_symmetry_1
_geom_bond_site_symmetry_2
Cl1 C5 1_555 1_555
Cl2 C16 1_555 1_555
Cl3 C24 1_555 1_555
O1 C7 1_555 1_555
O2 C10 1_555 1_555
O3 C18 1_555 1_555
N1 H1 1_555 1_555
N2 H2 1_555 1_555
N3 H3 1_555 1_555
N4 C8 1_555 1_555
C1 H4 1_555 1_555
C2 C1 1_555 1_555
H5 C2 1_555 1_555
C3 C2 1_555 1_555
H6 C3 1_555 1_555
C4 C3 1_555 1_555
H7 C4 1_555 1_555
C5 C4 1_555 1_555
C6 N1 1_555 1_555
C7 N1 1_555 1_555
C8 C7 1_555 1_555
H8 C8 1_555 1_555
H9 C8 1_555 1_555
C9 N4 1_555 1_555
H10 C9 1_555 1_555
H11 C9 1_555 1_555
C10 N2 1_555 1_555
C11 N2 1_555 1_555
C12 C11 1_555 1_555
H12 C12 1_555 1_555
C13 C12 1_555 1_555
H13 C13 1_555 1_555
C14 C13 1_555 1_555
H14 C14 1_555 1_555
C15 C14 1_555 1_555
H15 C15 1_555 1_555
C16 C11 1_555 1_555
C17 N4 1_555 1_555
H16 C17 1_555 1_555
H17 C17 1_555 1_555
C18 N3 1_555 1_555
C19 N3 1_555 1_555
C20 C19 1_555 1_555
H18 C20 1_555 1_555
C21 C20 1_555 1_555
H19 C21 1_555 1_555
C22 C21 1_555 1_555
H20 C22 1_555 1_555
C23 C22 1_555 1_555
H21 C23 1_555 1_555
C24 C19 1_555 1_555
C1 C6 1_555 1_555
C5 C6 1_555 1_555
C9 C10 1_555 1_555
C15 C16 1_555 1_555
C17 C18 1_555 1_555
C23 C24 1_555 1_555

#END
