
#######################################################################
#
#                 Cambridge Crystallographic Data Centre
#                                CCDC 
#
#######################################################################
#
# If this CIF has been generated from an entry in the Cambridge 
# Structural Database, then it will include bibliographic, chemical, 
# crystal, experimental, refinement or atomic coordinate data resulting 
# from the CCDC's data processing and validation procedures.
#
#######################################################################

data_ZASRIX
_chemical_formula_moiety         'C5 H6 N2 O2,2(H2 O1)'
_chemical_name_systematic        
'1-Methyl-1H-imidazol-3-ium-4-carboxylate dihydrate'
_symmetry_cell_setting           monoclinic
_symmetry_space_group_name_H-M   'P 21/c'
_symmetry_Int_Tables_number      14
_space_group_name_Hall           '-P 2ybc'
loop_
_symmetry_equiv_pos_site_id
_symmetry_equiv_pos_as_xyz
1 x,y,z
2 -x,1/2+y,1/2-z
3 -x,-y,-z
4 x,1/2-y,1/2+z
_cell_length_a                   4.5843(18)
_cell_length_b                   23.437(8)
_cell_length_c                   8.626(3)
_cell_angle_alpha                90
_cell_angle_beta                 118.668(16)
_cell_angle_gamma                90
_cell_volume                     813.185
_cell_formula_units_Z            4
loop_
_atom_site_label
_atom_site_type_symbol
_atom_site_fract_x
_atom_site_fract_y
_atom_site_fract_z
O1 O -0.0792(11) 0.48846(15) 0.8467(6)
O2 O 0.2173(10) 0.40920(16) 0.9436(5)
N1 N -0.0702(10) 0.39543(16) 0.3975(6)
N2 N -0.2946(9) 0.45842(16) 0.4960(6)
H1 H -0.4176 0.4855 0.4996
C1 C -0.2985(11) 0.43736(19) 0.3535(7)
H2 H -0.4386 0.4496 0.2387
C2 C 0.0332(12) 0.4422(2) 0.8230(7)
C3 C -0.0536(11) 0.42840(19) 0.6395(7)
C4 C -0.0039(15) 0.3627(2) 0.2740(9)
H3 H -0.1485 0.3754 0.1557
H4 H -0.0429 0.3229 0.2839
H5 H 0.2233 0.3681 0.3012
C5 C 0.0842(12) 0.3895(2) 0.5760(7)
H6 H 0.2526 0.3638 0.6426
O3 O 0.5131(14) 0.2389(3) 0.2608(8)
H7 H 0.304(8) 0.243(2) 0.259(8)
H8 H 0.716(8) 0.250(2) 0.262(9)
O4 O 0.1733(10) 0.20806(18) 0.4399(6)
H9 H 0.155(10) 0.1673(3) 0.441(7)
H10 H -0.051(8) 0.220(3) 0.402(15)
loop_
_geom_bond_atom_site_label_1
_geom_bond_atom_site_label_2
_geom_bond_site_symmetry_1
_geom_bond_site_symmetry_2
O1 C2 1_555 1_555
O2 C2 1_555 1_555
N1 C1 1_555 1_555
N2 H1 1_555 1_555
C1 N2 1_555 1_555
H2 C1 1_555 1_555
C2 C3 1_555 1_555
C3 N2 1_555 1_555
C4 N1 1_555 1_555
H3 C4 1_555 1_555
H4 C4 1_555 1_555
H5 C4 1_555 1_555
C5 N1 1_555 1_555
H6 C5 1_555 1_555
O3 H7 1_555 1_555
H8 O3 1_555 1_555
O4 H9 1_555 1_555
H10 O4 1_555 1_555
C3 C5 1_555 1_555

#END
