
#######################################################################
#
#                 Cambridge Crystallographic Data Centre
#                                CCDC 
#
#######################################################################
#
# If this CIF has been generated from an entry in the Cambridge 
# Structural Database, then it will include bibliographic, chemical, 
# crystal, experimental, refinement or atomic coordinate data resulting 
# from the CCDC's data processing and validation procedures.
#
#######################################################################

data_ZATBIH
_chemical_formula_moiety         'C24 H19 N1 O1'
_chemical_name_systematic        
2-(5,6-Dihydroindolo[2,1-a]isoquinolin-12-yl)-1-phenylethanone
_symmetry_cell_setting           monoclinic
_symmetry_space_group_name_H-M   'P 21/c'
_symmetry_Int_Tables_number      14
_space_group_name_Hall           '-P 2ybc'
loop_
_symmetry_equiv_pos_site_id
_symmetry_equiv_pos_as_xyz
1 x,y,z
2 -x,1/2+y,1/2-z
3 -x,-y,-z
4 x,1/2-y,1/2+z
_cell_length_a                   9.1545(5)
_cell_length_b                   21.6152(10)
_cell_length_c                   8.6185(3)
_cell_angle_alpha                90
_cell_angle_beta                 98.632(4)
_cell_angle_gamma                90
_cell_volume                     1686.08
_exptl_crystal_colour            colorless
_exptl_crystal_description       rod
_cell_formula_units_Z            4
loop_
_atom_site_label
_atom_site_type_symbol
_atom_site_fract_x
_atom_site_fract_y
_atom_site_fract_z
O1 O 1.04243(17) 0.28104(7) 0.82812(16)
N1 N 0.5895(2) 0.19589(8) 0.73657(19)
C1 C 0.9933(2) 0.31450(10) 0.9216(2)
C2 C 0.8536(3) 0.29841(10) 0.9863(2)
C3 C 0.7643(3) 0.24908(9) 0.8944(2)
C4 C 0.6396(3) 0.25462(9) 0.7840(2)
C5 C 0.6862(2) 0.15271(10) 0.8101(2)
C6 C 0.7964(2) 0.18419(10) 0.9108(2)
C7 C 0.9093(3) 0.15074(11) 0.9994(2)
C8 C 0.9091(3) 0.08692(11) 0.9853(2)
C9 C 0.7990(3) 0.05645(11) 0.8839(2)
C10 C 0.6859(3) 0.08846(10) 0.7953(2)
C11 C 0.4617(3) 0.18340(10) 0.6201(2)
C12 C 0.3484(3) 0.23426(11) 0.6233(3)
C13 C 0.4170(3) 0.29755(10) 0.6216(2)
C14 C 0.5582(2) 0.30743(10) 0.7071(2)
C15 C 0.6179(3) 0.36722(10) 0.7095(2)
C16 C 0.5385(3) 0.41516(10) 0.6300(2)
C17 C 0.4014(3) 0.40474(11) 0.5442(2)
C18 C 0.3416(3) 0.34601(11) 0.5389(2)
C19 C 1.0746(2) 0.37301(10) 0.9751(2)
C20 C 1.0465(3) 0.40529(11) 1.1077(2)
C21 C 1.1263(3) 0.45866(11) 1.1535(3)
C22 C 1.2322(3) 0.47963(11) 1.0677(3)
C23 C 1.2615(3) 0.44762(11) 0.9370(3)
C24 C 1.1824(3) 0.39439(10) 0.8911(2)
H1 H 0.88010 0.28440 1.09630
H2 H 0.79230 0.33610 0.98700
H3 H 0.98490 0.17120 1.06810
H4 H 0.98510 0.06350 1.04550
H5 H 0.80220 0.01270 0.87580
H6 H 0.61060 0.06760 0.72690
H7 H 0.41790 0.14310 0.64250
H8 H 0.49180 0.18120 0.51470
H9 H 0.27040 0.22990 0.53100
H10 H 0.30130 0.22980 0.71890
H11 H 0.71340 0.37490 0.76600
H12 H 0.57910 0.45570 0.63480
H13 H 0.34830 0.43770 0.48900
H14 H 0.24790 0.33860 0.47790
H15 H 0.97330 0.39090 1.16630
H16 H 1.10800 0.48070 1.24400
H17 H 1.28550 0.51640 1.09880
H18 H 1.33520 0.46200 0.87910
H19 H 1.20210 0.37230 0.80120
loop_
_geom_bond_atom_site_label_1
_geom_bond_atom_site_label_2
_geom_bond_site_symmetry_1
_geom_bond_site_symmetry_2
O1 C1 1_555 1_555
N1 C4 1_555 1_555
C1 C2 1_555 1_555
C2 C3 1_555 1_555
C3 C4 1_555 1_555
C4 C14 1_555 1_555
C5 N1 1_555 1_555
C6 C3 1_555 1_555
C7 C6 1_555 1_555
C8 C7 1_555 1_555
C9 C8 1_555 1_555
C10 C5 1_555 1_555
C11 N1 1_555 1_555
C12 C11 1_555 1_555
C13 C12 1_555 1_555
C14 C13 1_555 1_555
C15 C14 1_555 1_555
C16 C15 1_555 1_555
C17 C16 1_555 1_555
C18 C13 1_555 1_555
C19 C1 1_555 1_555
C20 C19 1_555 1_555
C21 C20 1_555 1_555
C22 C21 1_555 1_555
C23 C22 1_555 1_555
C24 C19 1_555 1_555
H1 C2 1_555 1_555
H2 C2 1_555 1_555
H3 C7 1_555 1_555
H4 C8 1_555 1_555
H5 C9 1_555 1_555
H6 C10 1_555 1_555
H7 C11 1_555 1_555
H8 C11 1_555 1_555
H9 C12 1_555 1_555
H10 C12 1_555 1_555
H11 C15 1_555 1_555
H12 C16 1_555 1_555
H13 C17 1_555 1_555
H14 C18 1_555 1_555
H15 C20 1_555 1_555
H16 C21 1_555 1_555
H17 C22 1_555 1_555
H18 C23 1_555 1_555
H19 C24 1_555 1_555
C5 C6 1_555 1_555
C9 C10 1_555 1_555
C17 C18 1_555 1_555
C23 C24 1_555 1_555

#END
