
#######################################################################
#
#                 Cambridge Crystallographic Data Centre
#                                CCDC 
#
#######################################################################
#
# If this CIF has been generated from an entry in the Cambridge 
# Structural Database, then it will include bibliographic, chemical, 
# crystal, experimental, refinement or atomic coordinate data resulting 
# from the CCDC's data processing and validation procedures.
#
#######################################################################

data_ZATBIH01
_chemical_formula_moiety         'C24 H19 N1 O1'
_chemical_name_systematic        
2-(5,6-dihydroindolo[2,1-a]isoquinolin-12-yl)-1-phenylethanone
_symmetry_cell_setting           monoclinic
_symmetry_space_group_name_H-M   'P 21/c'
_symmetry_Int_Tables_number      14
_space_group_name_Hall           '-P 2ybc'
loop_
_symmetry_equiv_pos_site_id
_symmetry_equiv_pos_as_xyz
1 x,y,z
2 -x,1/2+y,1/2-z
3 -x,-y,-z
4 x,1/2-y,1/2+z
_cell_length_a                   9.246(4)
_cell_length_b                   21.733(10)
_cell_length_c                   8.690(4)
_cell_angle_alpha                90
_cell_angle_beta                 99.084(6)
_cell_angle_gamma                90
_cell_volume                     1724.3
_exptl_crystal_colour            colorless
_exptl_crystal_description       stick
_cell_formula_units_Z            4
loop_
_atom_site_label
_atom_site_type_symbol
_atom_site_fract_x
_atom_site_fract_y
_atom_site_fract_z
O1 O 0.45590(12) 0.28070(5) 0.16903(14)
N1 N 0.90534(14) 0.19607(6) 0.26259(15)
C1 C 0.81018(17) 0.15298(7) 0.18988(18)
C2 C 0.8102(2) 0.08927(8) 0.2036(2)
H1 H 0.8833 0.0689 0.2703
C3 C 0.6987(2) 0.05754(9) 0.1152(2)
H2 H 0.6960 0.0149 0.1226
C4 C 0.5900(2) 0.08757(9) 0.0153(2)
H3 H 0.5162 0.0647 -0.0437
C5 C 0.58910(18) 0.15039(8) 0.00169(19)
H4 H 0.5154 0.1701 -0.0658
C6 C 0.70002(17) 0.18434(8) 0.09026(17)
C7 C 0.73148(17) 0.24861(7) 0.10597(18)
C8 C 0.85559(16) 0.25431(7) 0.21625(17)
C9 C 0.93718(17) 0.30723(7) 0.29069(17)
C10 C 0.87783(19) 0.36636(7) 0.29044(19)
H5 H 0.7838 0.3737 0.2378
C11 C 0.9566(2) 0.41371(8) 0.3668(2)
H6 H 0.9170 0.4531 0.3626
C12 C 1.0940(2) 0.40333(9) 0.4496(2)
H7 H 1.1462 0.4354 0.5033
C13 C 1.1534(2) 0.34562(10) 0.4525(2)
H8 H 1.2462 0.3388 0.5088
C14 C 1.07803(18) 0.29716(8) 0.37333(19)
C15 C 1.14441(19) 0.23448(9) 0.3704(2)
H9 H 1.2231 0.2304 0.4579
H10 H 1.1861 0.2298 0.2755
C16 C 1.03371(18) 0.18429(8) 0.3786(2)
H11 H 1.0757 0.1447 0.3590
H12 H 1.0061 0.1833 0.4818
C17 C 0.64205(17) 0.29757(7) 0.01471(18)
H13 H 0.6159 0.2838 -0.0922
H14 H 0.7016 0.3343 0.0139
C18 C 0.50431(16) 0.31398(7) 0.07713(17)
C19 C 0.42495(17) 0.37188(7) 0.02316(18)
C20 C 0.31795(19) 0.39355(8) 0.1045(2)
H15 H 0.2978 0.3720 0.1911
C21 C 0.2417(2) 0.44605(9) 0.0597(3)
H16 H 0.1709 0.4603 0.1160
C22 C 0.2703(3) 0.47763(10) -0.0688(3)
H17 H 0.2191 0.5136 -0.0989
C23 C 0.3736(3) 0.45656(10) -0.1532(3)
H18 H 0.3910 0.4779 -0.2411
C24 C 0.4519(2) 0.40370(9) -0.1080(2)
H19 H 0.5222 0.3895 -0.1651
loop_
_geom_bond_atom_site_label_1
_geom_bond_atom_site_label_2
_geom_bond_site_symmetry_1
_geom_bond_site_symmetry_2
O1 C18 1_555 1_555
N1 C1 1_555 1_555
C1 C2 1_555 1_555
C2 H1 1_555 1_555
C3 C2 1_555 1_555
H2 C3 1_555 1_555
C4 C3 1_555 1_555
H3 C4 1_555 1_555
C5 C4 1_555 1_555
H4 C5 1_555 1_555
C6 C1 1_555 1_555
C7 C6 1_555 1_555
C8 N1 1_555 1_555
C9 C8 1_555 1_555
C10 C9 1_555 1_555
H5 C10 1_555 1_555
C11 C10 1_555 1_555
H6 C11 1_555 1_555
C12 C11 1_555 1_555
H7 C12 1_555 1_555
C13 C12 1_555 1_555
H8 C13 1_555 1_555
C14 C9 1_555 1_555
C15 C14 1_555 1_555
H9 C15 1_555 1_555
H10 C15 1_555 1_555
C16 N1 1_555 1_555
H11 C16 1_555 1_555
H12 C16 1_555 1_555
C17 C7 1_555 1_555
H13 C17 1_555 1_555
H14 C17 1_555 1_555
C18 C17 1_555 1_555
C19 C18 1_555 1_555
C20 C19 1_555 1_555
H15 C20 1_555 1_555
C21 C20 1_555 1_555
H16 C21 1_555 1_555
C22 C21 1_555 1_555
H17 C22 1_555 1_555
C23 C22 1_555 1_555
H18 C23 1_555 1_555
C24 C19 1_555 1_555
H19 C24 1_555 1_555
C5 C6 1_555 1_555
C7 C8 1_555 1_555
C13 C14 1_555 1_555
C15 C16 1_555 1_555
C23 C24 1_555 1_555

#END
