
#######################################################################
#
#                 Cambridge Crystallographic Data Centre
#                                CCDC 
#
#######################################################################
#
# If this CIF has been generated from an entry in the Cambridge 
# Structural Database, then it will include bibliographic, chemical, 
# crystal, experimental, refinement or atomic coordinate data resulting 
# from the CCDC's data processing and validation procedures.
#
#######################################################################

data_ZATCEF
_chemical_formula_moiety         'C25 H20 Cl1 N3 O4'
_chemical_name_systematic        
'3-methyl-4-(2-nitro-1-phenylethyl)-1-phenyl-1H-pyrazol-5-yl 4-chlorobenzoate'
_symmetry_cell_setting           monoclinic
_symmetry_space_group_name_H-M   'P 21'
_symmetry_Int_Tables_number      4
_space_group_name_Hall           'P 2yb'
loop_
_symmetry_equiv_pos_site_id
_symmetry_equiv_pos_as_xyz
1 x,y,z
2 -x,1/2+y,-z
_cell_length_a                   9.2043(12)
_cell_length_b                   19.510(3)
_cell_length_c                   12.5785(17)
_cell_angle_alpha                90
_cell_angle_beta                 101.112(13)
_cell_angle_gamma                90
_cell_volume                     2216.45
_exptl_crystal_colour            colorless
_exptl_crystal_description       block
_cell_formula_units_Z            4
loop_
_atom_site_label
_atom_site_type_symbol
_atom_site_fract_x
_atom_site_fract_y
_atom_site_fract_z
Cl1 Cl 0.7890(2) 0.21274(12) -0.18927(17)
O1 O 0.3656(4) 0.3209(2) 0.1517(3)
O2 O 0.5292(5) 0.2611(3) 0.2724(3)
N1 N 0.1909(5) 0.2891(3) 0.2636(4)
C1 C 0.2881(6) 0.3348(3) 0.2331(5)
C2 C 0.4933(6) 0.2821(3) 0.1817(5)
N2 N 0.1615(7) 0.5124(3) 0.1532(5)
N3 N 0.1260(5) 0.3175(3) 0.3423(4)
C3 C 0.5662(6) 0.2686(3) 0.0869(4)
C4 C 0.7051(7) 0.2343(4) -0.0799(6)
C5 C 0.6902(6) 0.2263(4) 0.1054(6)
H1 H 0.7267 0.2095 0.1745
C6 C 0.5410(8) 0.5338(4) 0.4173(5)
H2 H 0.4835 0.5716 0.3912
C7 C 0.1826(7) 0.3802(4) 0.3578(5)
O3 O 0.1858(7) 0.4895(4) 0.0692(5)
O4 O 0.0414(6) 0.5309(4) 0.1648(6)
C8 C 0.1811(7) 0.1929(4) 0.1352(5)
H3 H 0.2357 0.2179 0.0936
C9 C 0.5158(6) 0.2961(4) -0.0140(5)
H4 H 0.4353 0.3258 -0.0260
C10 C 0.1473(6) 0.2207(3) 0.2290(5)
C11 C 0.2848(6) 0.3934(4) 0.2888(5)
C12 C 0.7468(8) 0.4886(4) 0.5388(6)
H5 H 0.8285 0.4951 0.5942
C13 C 0.5012(6) 0.4694(4) 0.3750(5)
C14 C 0.0673(7) 0.1825(4) 0.2920(5)
H6 H 0.0485 0.2007 0.3563
C15 C 0.0165(8) 0.1185(4) 0.2598(6)
H7 H -0.0397 0.0940 0.3009
C16 C 0.5880(6) 0.2786(4) -0.0980(5)
H8 H 0.5562 0.2971 -0.1667
C17 C 0.0492(8) 0.0896(4) 0.1649(7)
H9 H 0.0157 0.0459 0.1431
C18 C 0.3741(6) 0.4572(3) 0.2759(5)
H10 H 0.4213 0.4491 0.2135
C19 C 0.7590(6) 0.2094(4) 0.0203(6)
H11 H 0.8418 0.1811 0.0319
C20 C 0.6647(8) 0.5427(4) 0.4977(5)
H12 H 0.6913 0.5865 0.5235
C21 C 0.1318(7) 0.1267(4) 0.1041(5)
H13 H 0.1548 0.1075 0.0418
C22 C 0.5878(8) 0.4147(4) 0.4192(6)
H14 H 0.5620 0.3707 0.3940
C23 C 0.2828(7) 0.5220(4) 0.2513(6)
H15 H 0.2394 0.5338 0.3133
H16 H 0.3465 0.5594 0.2384
C24 C 0.1345(8) 0.4260(4) 0.4402(5)
H17 H 0.0693 0.4607 0.4040
H18 H 0.2198 0.4472 0.4837
H19 H 0.0838 0.3993 0.4858
C25 C 0.7113(8) 0.4236(5) 0.4996(7)
H20 H 0.7696 0.3863 0.5269
Cl2 Cl -0.2767(2) 0.43841(13) 1.16005(18)
N4 N 0.3288(5) 0.3694(3) 0.7182(4)
O5 O 0.1505(4) 0.3304(2) 0.8211(3)
N5 N 0.4024(5) 0.3442(3) 0.6399(4)
O6 O -0.0082(5) 0.3946(3) 0.7028(4)
C26 C 0.3652(5) 0.4366(3) 0.7565(5)
C27 C 0.2365(6) 0.3200(3) 0.7421(5)
C28 C 0.2469(6) 0.2623(3) 0.6814(5)
N6 N 0.3328(6) 0.1451(3) 0.8431(5)
C29 C 0.0215(6) 0.1868(3) 0.6027(4)
C30 C 0.3541(7) 0.2814(4) 0.6185(5)
C31 C -0.0506(6) 0.3831(3) 0.8836(5)
C32 C -0.0559(7) 0.2439(4) 0.5569(5)
H21 H -0.0203 0.2878 0.5751
C33 C 0.0239(6) 0.3721(3) 0.7937(5)
C34 C -0.1909(7) 0.4153(4) 1.0544(6)
O7 O 0.4280(6) 0.1277(4) 0.7979(6)
O8 O 0.3506(7) 0.1507(5) 0.9395(5)
C35 C -0.1644(8) 0.1143(4) 0.4992(6)
H22 H -0.2002 0.0706 0.4798
C36 C 0.3758(7) 0.5260(5) 0.8896(7)
H23 H 0.3528 0.5425 0.9537
C37 C 0.4426(7) 0.4775(4) 0.6985(5)
H24 H 0.4664 0.4617 0.6343
C38 C -0.1865(7) 0.2344(4) 0.4836(6)
H25 H -0.2376 0.2728 0.4525
C39 C -0.0316(7) 0.1225(4) 0.5722(5)
H26 H 0.0219 0.0840 0.6007
C40 C 0.3307(7) 0.4606(4) 0.8534(6)
H27 H 0.2784 0.4331 0.8933
C41 C -0.1756(6) 0.4245(4) 0.8639(5)
H28 H -0.2119 0.4410 0.7945
C42 C -0.0726(7) 0.3723(4) 1.0720(6)
H29 H -0.0394 0.3537 1.1404
C43 C 0.1762(7) 0.1933(4) 0.6769(5)
H30 H 0.2405 0.1637 0.6431
C44 C -0.0017(7) 0.3564(4) 0.9873(6)
H31 H 0.0801 0.3275 0.9999
C45 C 0.4142(9) 0.2394(5) 0.5373(6)
H32 H 0.4846 0.2661 0.5077
H33 H 0.3346 0.2259 0.4801
H34 H 0.4620 0.1993 0.5720
C46 C 0.1787(7) 0.1621(4) 0.7847(6)
H35 H 0.1196 0.1206 0.7758
H36 H 0.1339 0.1937 0.8285
C47 C 0.4532(8) 0.5659(4) 0.8316(6)
H37 H 0.4845 0.6092 0.8571
C48 C -0.2470(7) 0.4412(4) 0.9504(6)
H38 H -0.3304 0.4691 0.9385
C49 C 0.4855(7) 0.5431(4) 0.7363(6)
H39 H 0.5363 0.5713 0.6963
C50 C -0.2435(7) 0.1717(4) 0.4551(6)
H40 H -0.3335 0.1671 0.4071
loop_
_geom_bond_atom_site_label_1
_geom_bond_atom_site_label_2
_geom_bond_site_symmetry_1
_geom_bond_site_symmetry_2
Cl1 C4 1_555 1_555
O1 C1 1_555 1_555
O2 C2 1_555 1_555
N1 C1 1_555 1_555
C1 C11 1_555 1_555
C2 O1 1_555 1_555
N2 O3 1_555 1_555
N3 N1 1_555 1_555
C3 C2 1_555 1_555
C4 C16 1_555 1_555
C5 C3 1_555 1_555
H1 C5 1_555 1_555
C6 H2 1_555 1_555
C7 N3 1_555 1_555
O4 N2 1_555 1_555
C8 H3 1_555 1_555
C9 C3 1_555 1_555
H4 C9 1_555 1_555
C10 N1 1_555 1_555
C11 C7 1_555 1_555
C12 H5 1_555 1_555
C13 C6 1_555 1_555
C14 C10 1_555 1_555
H6 C14 1_555 1_555
C15 C14 1_555 1_555
H7 C15 1_555 1_555
C16 C9 1_555 1_555
H8 C16 1_555 1_555
C17 C15 1_555 1_555
H9 C17 1_555 1_555
C18 C11 1_555 1_555
H10 C18 1_555 1_555
C19 C4 1_555 1_555
H11 C19 1_555 1_555
C20 C6 1_555 1_555
H12 C20 1_555 1_555
C21 C8 1_555 1_555
H13 C21 1_555 1_555
C22 C13 1_555 1_555
H14 C22 1_555 1_555
C23 N2 1_555 1_555
H15 C23 1_555 1_555
H16 C23 1_555 1_555
C24 C7 1_555 1_555
H17 C24 1_555 1_555
H18 C24 1_555 1_555
H19 C24 1_555 1_555
C25 C12 1_555 1_555
H20 C25 1_555 1_555
Cl2 C34 1_555 1_555
N4 N5 1_555 1_555
O5 C27 1_555 1_555
N5 C30 1_555 1_555
O6 C33 1_555 1_555
C26 N4 1_555 1_555
C27 N4 1_555 1_555
C28 C27 1_555 1_555
N6 O7 1_555 1_555
C29 C32 1_555 1_555
C30 C28 1_555 1_555
C31 C33 1_555 1_555
C32 H21 1_555 1_555
C33 O5 1_555 1_555
C34 C42 1_555 1_555
O8 N6 1_555 1_555
C35 H22 1_555 1_555
C36 H23 1_555 1_555
C37 C26 1_555 1_555
H24 C37 1_555 1_555
C38 C32 1_555 1_555
H25 C38 1_555 1_555
C39 C29 1_555 1_555
H26 C39 1_555 1_555
C40 C26 1_555 1_555
H27 C40 1_555 1_555
C41 C31 1_555 1_555
H28 C41 1_555 1_555
C42 H29 1_555 1_555
C43 C28 1_555 1_555
H30 C43 1_555 1_555
C44 C31 1_555 1_555
H31 C44 1_555 1_555
C45 C30 1_555 1_555
H32 C45 1_555 1_555
H33 C45 1_555 1_555
H34 C45 1_555 1_555
C46 N6 1_555 1_555
H35 C46 1_555 1_555
H36 C46 1_555 1_555
C47 C36 1_555 1_555
H37 C47 1_555 1_555
C48 C34 1_555 1_555
H38 C48 1_555 1_555
C49 C37 1_555 1_555
H39 C49 1_555 1_555
C50 C35 1_555 1_555
H40 C50 1_555 1_555
C5 C19 1_555 1_555
C8 C10 1_555 1_555
C12 C20 1_555 1_555
C13 C18 1_555 1_555
C17 C21 1_555 1_555
C18 C23 1_555 1_555
C22 C25 1_555 1_555
C29 C43 1_555 1_555
C35 C39 1_555 1_555
C36 C40 1_555 1_555
C38 C50 1_555 1_555
C41 C48 1_555 1_555
C42 C44 1_555 1_555
C43 C46 1_555 1_555
C47 C49 1_555 1_555

#END
