
#######################################################################
#
#                 Cambridge Crystallographic Data Centre
#                                CCDC 
#
#######################################################################
#
# If this CIF has been generated from an entry in the Cambridge 
# Structural Database, then it will include bibliographic, chemical, 
# crystal, experimental, refinement or atomic coordinate data resulting 
# from the CCDC's data processing and validation procedures.
#
#######################################################################

data_ZAVCEG
_chemical_formula_moiety         'C16 H6 Cl2 F12 Si1'
_chemical_name_systematic        
bis(2,5-bis(trifluoromethyl)phenyl)(dichloro)silane
_symmetry_cell_setting           monoclinic
_symmetry_space_group_name_H-M   'C c'
_symmetry_Int_Tables_number      9
_space_group_name_Hall           'C -2yc'
loop_
_symmetry_equiv_pos_site_id
_symmetry_equiv_pos_as_xyz
1 x,y,z
2 x,-y,1/2+z
3 1/2+x,1/2+y,z
4 1/2+x,1/2-y,1/2+z
_cell_length_a                   19.4317(8)
_cell_length_b                   17.0627(7)
_cell_length_c                   22.8784(9)
_cell_angle_alpha                90
_cell_angle_beta                 102.0130(10)
_cell_angle_gamma                90
_cell_volume                     7419.38
_exptl_crystal_colour            'light colorless'
_exptl_crystal_description       block
_cell_formula_units_Z            16
loop_
_atom_site_label
_atom_site_type_symbol
_atom_site_fract_x
_atom_site_fract_y
_atom_site_fract_z
Si1 Si 0.11721(4) 0.30408(4) 0.63654(3)
Cl1 Cl 0.04507(3) 0.38371(4) 0.65387(3)
Cl2 Cl 0.19410(3) 0.30312(4) 0.71225(3)
F1 F 0.19875(9) 0.06171(10) 0.59177(8)
F2 F 0.21954(9) 0.17765(10) 0.62910(8)
F3 F 0.16768(9) 0.16364(11) 0.53682(8)
F4 F -0.11372(9) 0.15604(11) 0.69402(7)
F5 F -0.14148(10) 0.06553(12) 0.62782(10)
F6 F -0.14702(9) 0.18715(13) 0.60153(8)
F7 F 0.01130(8) 0.29683(10) 0.52624(7)
F8 F 0.00299(8) 0.42303(10) 0.51804(7)
F9 F 0.00990(9) 0.35281(10) 0.44126(7)
F10 F 0.36967(9) 0.39102(11) 0.60442(8)
F11 F 0.36449(9) 0.32877(12) 0.52151(9)
F12 F 0.35820(9) 0.45475(11) 0.52157(8)
C1 C 0.07275(14) 0.20507(16) 0.62669(12)
C2 C 0.10117(14) 0.13472(17) 0.60974(12)
C3 C 0.06384(14) 0.06484(17) 0.60528(12)
H1 H 0.0849 0.0180 0.5949
C4 C -0.00442(15) 0.06256(17) 0.61588(12)
H2 H -0.0298 0.0147 0.6130
C5 C -0.03433(14) 0.13159(17) 0.63072(12)
C6 C 0.00386(14) 0.20141(16) 0.63709(12)
H3 H -0.0171 0.2476 0.6487
C7 C 0.17154(14) 0.13357(17) 0.59212(12)
C8 C -0.10909(14) 0.13455(18) 0.63866(12)
C9 C 0.15367(14) 0.34355(16) 0.57217(12)
C10 C 0.11402(15) 0.36657(16) 0.51585(12)
C11 C 0.14548(15) 0.39881(17) 0.47235(12)
H4 H 0.1171 0.4153 0.4354
C12 C 0.21803(15) 0.40724(17) 0.48224(12)
H5 H 0.2396 0.4283 0.4520
C13 C 0.25880(14) 0.38434(16) 0.53708(13)
C14 C 0.22716(14) 0.35300(16) 0.58176(12)
H6 H 0.2557 0.3379 0.6190
C15 C 0.03470(14) 0.35980(16) 0.50033(12)
C16 C 0.33765(15) 0.38995(17) 0.54640(13)
Si2 Si 0.36569(4) 0.05534(4) 0.27674(3)
Cl3 Cl 0.27598(3) 0.02260(4) 0.21820(3)
Cl4 Cl 0.40810(3) 0.14273(4) 0.23374(3)
F13 F 0.31025(9) -0.06661(10) 0.34008(7)
F14 F 0.29469(9) -0.15370(10) 0.26949(8)
F15 F 0.34631(10) -0.18509(11) 0.35926(8)
F16 F 0.66400(9) -0.07128(13) 0.33015(8)
F17 F 0.64013(10) -0.11874(13) 0.24154(9)
F18 F 0.62881(10) 0.00495(12) 0.25562(10)
F19 F 0.50296(9) 0.13217(11) 0.45828(7)
F20 F 0.47723(9) 0.01919(9) 0.41700(8)
F21 F 0.49214(8) 0.11929(10) 0.36282(7)
F22 F 0.15650(9) 0.23140(11) 0.41120(8)
F23 F 0.13872(9) 0.10683(11) 0.41094(9)
F24 F 0.13260(9) 0.16797(12) 0.32787(7)
C17 C 0.42808(14) -0.03035(16) 0.28818(11)
C18 C 0.41090(14) -0.10687(16) 0.30401(12)
C19 C 0.45857(15) -0.16868(17) 0.30737(12)
H7 H 0.4451 -0.2200 0.3167
C20 C 0.52593(15) -0.15553(17) 0.29713(12)
H8 H 0.5586 -0.1974 0.2994
C21 C 0.54450(14) -0.08005(16) 0.28352(12)
C22 C 0.49608(14) -0.01882(16) 0.27804(11)
H9 H 0.5094 0.0318 0.2672
C23 C 0.34047(15) -0.12806(17) 0.31810(13)
C24 C 0.61876(15) -0.06604(17) 0.27694(12)
C25 C 0.34103(14) 0.09877(16) 0.34532(12)
C26 C 0.38742(14) 0.11535(16) 0.40053(12)
C27 C 0.36299(14) 0.14791(17) 0.44831(12)
H10 H 0.3952 0.1589 0.4847
C28 C 0.29224(15) 0.16438(17) 0.44308(12)
H11 H 0.2755 0.1860 0.4758
C29 C 0.24566(14) 0.14883(16) 0.38894(12)
C30 C 0.26960(14) 0.11665(16) 0.34100(12)
H12 H 0.2370 0.1066 0.3046
C31 C 0.46459(14) 0.09641(16) 0.40996(12)
C32 C 0.16838(15) 0.16395(17) 0.38475(12)
Si3 Si 0.38200(4) 0.54351(4) 0.29962(3)
Cl5 Cl 0.29618(3) 0.51617(4) 0.23502(3)
Cl6 Cl 0.43773(3) 0.62432(4) 0.26165(3)
F25 F 0.65404(9) 0.46668(11) 0.32641(8)
F26 F 0.66659(9) 0.34148(11) 0.32625(10)
F27 F 0.62766(10) 0.40322(13) 0.24370(8)
F28 F 0.31633(8) 0.43272(10) 0.36229(7)
F29 F 0.34541(10) 0.31430(11) 0.38944(9)
F30 F 0.29736(9) 0.33831(11) 0.29788(8)
F31 F 0.50299(9) 0.62467(11) 0.48236(7)
F32 F 0.49631(9) 0.56489(10) 0.39838(7)
F33 F 0.49865(9) 0.69151(10) 0.40182(8)
F34 F 0.14542(9) 0.57235(11) 0.40886(8)
F35 F 0.13743(9) 0.65459(11) 0.33638(7)
F36 F 0.14830(9) 0.69692(10) 0.42691(8)
C33 C 0.43773(14) 0.45193(16) 0.31370(11)
C34 C 0.41538(14) 0.37871(16) 0.33117(12)
C35 C 0.45913(15) 0.31259(17) 0.33646(12)
H13 H 0.4423 0.2635 0.3472
C36 C 0.52701(15) 0.31822(17) 0.32604(12)
H14 H 0.5567 0.2735 0.3294
C37 C 0.55029(14) 0.39054(17) 0.31059(12)
C38 C 0.50636(14) 0.45606(17) 0.30382(11)
H15 H 0.5234 0.5046 0.2922
C39 C 0.34371(15) 0.36570(17) 0.34502(12)
C40 C 0.62469(15) 0.40021(17) 0.30154(12)
C41 C 0.35067(14) 0.59481(16) 0.36252(12)
C42 C 0.39315(14) 0.62908(16) 0.41354(12)
C43 C 0.36468(15) 0.66797(17) 0.45654(12)
H16 H 0.3949 0.6906 0.4903
C44 C 0.29185(15) 0.67375(17) 0.45024(12)
H17 H 0.2720 0.7002 0.4794
C45 C 0.24909(14) 0.64005(16) 0.40047(12)
C46 C 0.47278(14) 0.62785(16) 0.42419(12)
C47 C 0.17021(15) 0.64111(17) 0.39323(12)
C48 C 0.27776(14) 0.60151(16) 0.35728(12)
H18 H 0.2471 0.5793 0.3235
Si4 Si 0.63674(4) 0.69541(4) 0.13659(3)
Cl7 Cl 0.59346(3) 0.61657(4) 0.18645(3)
Cl8 Cl 0.72709(3) 0.73154(4) 0.19257(3)
F37 F 0.51864(9) 0.70542(10) -0.01107(7)
F38 F 0.51135(8) 0.62448(10) 0.06014(7)
F39 F 0.49718(9) 0.58288(11) -0.03074(8)
F40 F 0.8572(2) 0.6437(2) -0.00261(19)
F41 F 0.8499(2) 0.5164(3) 0.00700(19)
F42 F 0.8734(2) 0.5907(3) 0.08464(18)
F43 F 0.66019(9) 0.92494(10) 0.04015(8)
F44 F 0.71159(9) 0.90180(10) 0.13132(8)
F45 F 0.69444(8) 0.80740(10) 0.06648(7)
F46 F 0.36552(9) 0.89378(10) 0.15877(8)
F47 F 0.34340(9) 0.81624(13) 0.08307(8)
F48 F 0.38179(9) 0.76937(11) 0.17130(8)
C49 C 0.66002(14) 0.64347(16) 0.07071(12)
C50 C 0.61323(14) 0.61681(16) 0.01867(12)
C51 C 0.63700(15) 0.57902(18) -0.02741(12)
H19 H 0.6041 0.5612 -0.0615
C52 C 0.70846(15) 0.56723(18) -0.02379(12)
H20 H 0.7247 0.5413 -0.0551
C53 C 0.75576(14) 0.59389(16) 0.02626(12)
C54 C 0.73208(14) 0.63082(16) 0.07302(12)
H21 H 0.7655 0.6478 0.1071
C55 C 0.53509(15) 0.63247(17) 0.00882(12)
C56 C 0.83362(15) 0.58630(17) 0.02959(13)
C57 C 0.57628(14) 0.78269(16) 0.12047(11)
C58 C 0.59488(14) 0.85617(17) 0.10013(12)
C59 C 0.54917(15) 0.92003(17) 0.09475(12)
H22 H 0.5636 0.9693 0.0822
C60 C 0.48275(15) 0.91213(17) 0.10764(12)
H23 H 0.4517 0.9557 0.1041
C61 C 0.46247(14) 0.83950(17) 0.12588(11)
C62 C 0.50843(14) 0.77591(17) 0.13281(11)
H24 H 0.4938 0.7271 0.1461
C63 C 0.66542(15) 0.87252(16) 0.08458(12)
C64 C 0.38844(14) 0.82981(17) 0.13535(12)
F49? F 0.8612(2) 0.6546(2) 0.0157(2)
F50? F 0.8498(2) 0.5316(3) -0.00733(19)
F51? F 0.8676(2) 0.5674(3) 0.08603(18)
loop_
_geom_bond_atom_site_label_1
_geom_bond_atom_site_label_2
_geom_bond_site_symmetry_1
_geom_bond_site_symmetry_2
Si1 Cl1 1_555 1_555
Cl2 Si1 1_555 1_555
F1 C7 1_555 1_555
F2 C7 1_555 1_555
F3 C7 1_555 1_555
F4 C8 1_555 1_555
F5 C8 1_555 1_555
F6 C8 1_555 1_555
F7 C15 1_555 1_555
F8 C15 1_555 1_555
F9 C15 1_555 1_555
F10 C16 1_555 1_555
F11 C16 1_555 1_555
F12 C16 1_555 1_555
C1 Si1 1_555 1_555
C2 C1 1_555 1_555
C3 C2 1_555 1_555
H1 C3 1_555 1_555
C4 C3 1_555 1_555
H2 C4 1_555 1_555
C5 C4 1_555 1_555
C6 C1 1_555 1_555
H3 C6 1_555 1_555
C7 C2 1_555 1_555
C8 C5 1_555 1_555
C9 Si1 1_555 1_555
C10 C9 1_555 1_555
C11 C10 1_555 1_555
H4 C11 1_555 1_555
C12 C11 1_555 1_555
H5 C12 1_555 1_555
C13 C12 1_555 1_555
C14 C9 1_555 1_555
H6 C14 1_555 1_555
C15 C10 1_555 1_555
C16 C13 1_555 1_555
Si2 Cl3 1_555 1_555
Cl4 Si2 1_555 1_555
F13 C23 1_555 1_555
F14 C23 1_555 1_555
F15 C23 1_555 1_555
F16 C24 1_555 1_555
F17 C24 1_555 1_555
F18 C24 1_555 1_555
F19 C31 1_555 1_555
F20 C31 1_555 1_555
F21 C31 1_555 1_555
F22 C32 1_555 1_555
F23 C32 1_555 1_555
F24 C32 1_555 1_555
C17 Si2 1_555 1_555
C18 C17 1_555 1_555
C19 C18 1_555 1_555
H7 C19 1_555 1_555
C20 C19 1_555 1_555
H8 C20 1_555 1_555
C21 C20 1_555 1_555
C22 C17 1_555 1_555
H9 C22 1_555 1_555
C23 C18 1_555 1_555
C24 C21 1_555 1_555
C25 Si2 1_555 1_555
C26 C25 1_555 1_555
C27 C26 1_555 1_555
H10 C27 1_555 1_555
C28 C27 1_555 1_555
H11 C28 1_555 1_555
C29 C28 1_555 1_555
C30 C25 1_555 1_555
H12 C30 1_555 1_555
C31 C26 1_555 1_555
C32 C29 1_555 1_555
Si3 Cl5 1_555 1_555
Cl6 Si3 1_555 1_555
F25 C40 1_555 1_555
F26 C40 1_555 1_555
F27 C40 1_555 1_555
F28 C39 1_555 1_555
F29 C39 1_555 1_555
F30 C39 1_555 1_555
F31 C46 1_555 1_555
F32 C46 1_555 1_555
F33 C46 1_555 1_555
F34 C47 1_555 1_555
F35 C47 1_555 1_555
F36 C47 1_555 1_555
C33 Si3 1_555 1_555
C34 C33 1_555 1_555
C35 C34 1_555 1_555
H13 C35 1_555 1_555
C36 C35 1_555 1_555
H14 C36 1_555 1_555
C37 C36 1_555 1_555
C38 C33 1_555 1_555
H15 C38 1_555 1_555
C39 C34 1_555 1_555
C40 C37 1_555 1_555
C41 Si3 1_555 1_555
C42 C41 1_555 1_555
C43 C42 1_555 1_555
H16 C43 1_555 1_555
C44 C43 1_555 1_555
H17 C44 1_555 1_555
C45 C44 1_555 1_555
C46 C42 1_555 1_555
C47 C45 1_555 1_555
C48 C41 1_555 1_555
H18 C48 1_555 1_555
Si4 Cl7 1_555 1_555
Cl8 Si4 1_555 1_555
F37 C55 1_555 1_555
F38 C55 1_555 1_555
F39 C55 1_555 1_555
F40 C56 1_555 1_555
F41 C56 1_555 1_555
F42 C56 1_555 1_555
F43 C63 1_555 1_555
F44 C63 1_555 1_555
F45 C63 1_555 1_555
F46 C64 1_555 1_555
F47 C64 1_555 1_555
F48 C64 1_555 1_555
C49 Si4 1_555 1_555
C50 C49 1_555 1_555
C51 C50 1_555 1_555
H19 C51 1_555 1_555
C52 C51 1_555 1_555
H20 C52 1_555 1_555
C53 C52 1_555 1_555
C54 C49 1_555 1_555
H21 C54 1_555 1_555
C55 C50 1_555 1_555
C56 C53 1_555 1_555
C57 Si4 1_555 1_555
C58 C57 1_555 1_555
C59 C58 1_555 1_555
H22 C59 1_555 1_555
C60 C59 1_555 1_555
H23 C60 1_555 1_555
C61 C60 1_555 1_555
C62 C57 1_555 1_555
H24 C62 1_555 1_555
C63 C58 1_555 1_555
C64 C61 1_555 1_555
C5 C6 1_555 1_555
C13 C14 1_555 1_555
C21 C22 1_555 1_555
C29 C30 1_555 1_555
C37 C38 1_555 1_555
C45 C48 1_555 1_555
C53 C54 1_555 1_555
C61 C62 1_555 1_555

#END
