
#######################################################################
#
#                 Cambridge Crystallographic Data Centre
#                                CCDC 
#
#######################################################################
#
# If this CIF has been generated from an entry in the Cambridge 
# Structural Database, then it will include bibliographic, chemical, 
# crystal, experimental, refinement or atomic coordinate data resulting 
# from the CCDC's data processing and validation procedures.
#
#######################################################################

data_ZAWLUE
_chemical_formula_moiety         'C102 H192 N6 Na6 S6 Si12,C4 H10 O1'
_chemical_name_systematic        
'hexakis((\m~3~-3,6-bis(t-Butyldimethylsilyl)pyridine-2-thiolato)-sodium) diethylether solvate'
_symmetry_cell_setting           triclinic
_symmetry_space_group_name_H-M   'P -1'
_symmetry_Int_Tables_number      2
_space_group_name_Hall           '-P 1'
loop_
_symmetry_equiv_pos_site_id
_symmetry_equiv_pos_as_xyz
1 x,y,z
2 -x,-y,-z
_cell_length_a                   16.156(3)
_cell_length_b                   17.299(3)
_cell_length_c                   17.665(4)
_cell_angle_alpha                118.47(3)
_cell_angle_beta                 92.40(3)
_cell_angle_gamma                114.75(3)
_cell_volume                     3756.76
_exptl_crystal_colour            yellow
_cell_formula_units_Z            1
loop_
_atom_site_label
_atom_site_type_symbol
_atom_site_fract_x
_atom_site_fract_y
_atom_site_fract_z
S1 S 0.2190(1) 0.6126(2) 0.0064(1)
S2 S 0.0203(2) 0.7176(2) 0.1033(1)
S3 S 0.0709(2) 0.5205(2) 0.1643(1)
Si1 Si 0.4506(2) 0.6538(2) 0.0124(2)
Si2 Si 0.2508(2) 0.8420(2) -0.1314(2)
Si3 Si -0.0828(2) 0.8714(2) 0.1725(2)
Si4 Si 0.3103(2) 0.9721(2) 0.4176(2)
Si5 Si 0.1595(2) 0.4659(2) 0.3052(2)
Si6 Si 0.1111(2) 0.3223(2) -0.3886(2)
Na1 Na 0.1714(2) 0.7036(2) 0.1681(2)
Na2 Na 0.0940(2) 0.6675(2) -0.0420(2)
Na3 Na 0.0705(2) 0.4293(2) -0.1433(2)
N1 N 0.1552(4) 0.8577(5) 0.2624(4)
N2 N 0.2538(4) 0.7258(4) -0.0624(4)
N3 N 0.0170(4) 0.4148(4) -0.2845(4)
C1 C 0.0743(6) 0.8338(5) 0.2100(5)
C2 C 0.0314(6) 0.8966(6) 0.2369(5)
C3 C 0.0821(7) 0.9872(7) 0.3204(6)
C4 C 0.1656(7) 1.0112(7) 0.3734(6)
C5 C 0.2014(5) 0.9459(6) 0.3437(5)
C6 C -0.1766(6) 0.7381(7) 0.0965(7)
C7 C -0.1342(7) 0.9334(8) 0.2601(7)
C8 C -0.0503(7) 0.9378(7) 0.1096(7)
C9 C -0.1446(8) 0.9105(10) 0.0516(9)
C10 C 0.0033(8) 0.8987(9) 0.0458(7)
C11 C 0.0088(8) 1.0534(8) 0.1745(7)
C12 C 0.3979(8) 1.1079(8) 0.4814(8)
C13 C 0.3608(7) 0.8957(9) 0.3438(7)
C14 C 0.2726(6) 0.9289(7) 0.4959(6)
C15 C 0.2343(9) 0.9920(10) 0.5619(7)
C16 C 0.1921(8) 0.8209(9) 0.4432(8)
C17 C 0.3553(7) 0.9376(9) 0.5510(7)
C18 C 0.3884(5) 0.7080(5) -0.0257(5)
C19 C 0.4398(6) 0.7715(6) -0.0516(5)
C20 C 0.4032(5) 0.8146(6) -0.0813(6)
C21 C 0.3083(6) 0.7891(6) -0.0880(5)
C22 C 0.2930(5) 0.6880(5) -0.0299(5)
C23 C 0.5439(6) 0.6524(7) -0.0473(6)
C24 C 0.3752(7) 0.5222(7) -0.0217(7)
C25 C 0.5112(6) 0.7395(6) 0.1379(5)
C26 C 0.4404(8) 0.7427(10) 0.1902(7)
C27 C 0.5693(7) 0.7023(8) 0.1690(6)
C28 C 0.5828(8) 0.8472(7) 0.1638(7)
C29 C 0.1304(7) 0.8070(8) -0.1142(7)
C30 C 0.3304(7) 0.9833(6) -0.0631(6)
C31 C 0.2391(6) 0.7921(6) -0.2542(6)
C32 C 0.1771(9) 0.6757(8) -0.3098(7)
C33 C 0.3338(9) 0.8214(10) -0.2721(7)
C34 C 0.1903(8) 0.8332(8) -0.2882(8)
C35 C 0.0425(5) 0.5447(5) 0.2652(5)
C36 C 0.0781(5) 0.5238(6) 0.3235(5)
C37 C 0.0531(6) 0.5496(6) 0.4028(6)
C38 C -0.0026(7) 0.5953(7) 0.4241(6)
C39 C 0.0380(6) 0.3894(6) -0.3624(5)
C40 C 0.0726(8) 0.2293(7) -0.5116(7)
C41 C 0.0885(10) 0.2528(10) -0.3313(9)
C42 C 0.2425(7) 0.4166(7) -0.3505(6)
C43 C 0.2636(7) 0.4657(8) -0.4054(8)
C44 C 0.2752(8) 0.5035(9) -0.2505(7)
C45 C 0.2995(9) 0.3619(10) -0.3606(9)
C46 C 0.1272(8) 0.3891(8) 0.3571(7)
C47 C 0.1455(7) 0.3738(7) 0.1857(6)
C48 C 0.2891(6) 0.5706(7) 0.3629(7)
C49 C 0.3180(7) 0.6320(9) 0.3207(8)
C50 C 0.3540(8) 0.5247(9) 0.3580(9)
C51 C 0.3046(8) 0.6430(8) 0.4650(7)
H1 H 0.0565 1.0321 0.3420
H2 H 0.1995 1.0755 0.4301
H3 H -0.1914 0.7064 0.1301
H4 H -0.2331 0.7337 0.0706
H5 H -0.1536 0.7041 0.0491
H6 H -0.1499 0.9012 0.2932
H7 H -0.0883 1.0041 0.3009
H8 H -0.1910 0.9262 0.2312
H9 H -0.1306 0.9425 0.0182
H10 H -0.1830 0.8383 0.0104
H11 H -0.1789 0.9347 0.0914
H12 H 0.0195 0.9306 0.0124
H13 H 0.0608 0.9136 0.0815
H14 H -0.0359 0.8266 0.0045
H15 H 0.0239 1.0853 0.1412
H16 H -0.0259 1.0779 0.2136
H17 H 0.0668 1.0692 0.2101
H18 H 0.4146 1.1276 0.4394
H19 H 0.3708 1.1458 0.5197
H20 H 0.4541 1.1214 0.5177
H21 H 0.3813 0.9144 0.3020
H22 H 0.4141 0.9054 0.3808
H23 H 0.3116 0.8256 0.3111
H24 H 0.2148 0.9711 0.6028
H25 H 0.2849 1.0615 0.5957
H26 H 0.1809 0.9855 0.5283
H27 H 0.1730 0.7974 0.4824
H28 H 0.1381 0.8139 0.4100
H29 H 0.2161 0.7813 0.4017
H30 H 0.3340 0.9139 0.5897
H31 H 0.3809 0.8986 0.5115
H32 H 0.4040 1.0079 0.5872
H33 H 0.5042 0.7857 -0.0501
H34 H 0.4426 0.8618 -0.0961
H35 H 0.5784 0.6259 -0.0316
H36 H 0.5138 0.6112 -0.1115
H37 H 0.5874 0.7208 -0.0294
H38 H 0.4117 0.5012 0.0000
H39 H 0.3240 0.5188 0.0047
H40 H 0.3492 0.4782 -0.0863
H41 H 0.4727 0.7870 0.2540
H42 H 0.4051 0.7678 0.1730
H43 H 0.3972 0.6758 0.1759
H44 H 0.5994 0.7467 0.2331
H45 H 0.5267 0.6349 0.1540
H46 H 0.6173 0.7015 0.1388
H47 H 0.6134 0.8913 0.2279
H48 H 0.6301 0.8434 0.1332
H49 H 0.5502 0.8734 0.1451
H50 H 0.0908 0.7345 -0.1501
H51 H 0.1377 0.8313 -0.0515
H52 H 0.1011 0.8368 -0.1314
H53 H 0.3917 1.0007 -0.0734
H54 H 0.3018 1.0135 -0.0802
H55 H 0.3384 1.0080 -0.0003
H56 H 0.1712 0.6501 -0.3725
H57 H 0.2050 0.6463 -0.2905
H58 H 0.1150 0.6583 -0.3013
H59 H 0.3249 0.7950 -0.3353
H60 H 0.3720 0.8941 -0.2381
H61 H 0.3657 0.7944 -0.2536
H62 H 0.1852 0.8078 -0.3508
H63 H 0.1275 0.8118 -0.2811
H64 H 0.2269 0.9060 -0.2534
H65 H 0.0744 0.5343 0.4429
H66 H -0.0158 0.6168 0.4809
H67 H 0.1084 0.1944 -0.5263
H68 H 0.0841 0.2661 -0.5405
H69 H 0.0057 0.1808 -0.5323
H70 H 0.1088 0.3011 -0.2674
H71 H 0.1248 0.2185 -0.3449
H72 H 0.0218 0.2041 -0.3509
H73 H 0.3309 0.5133 -0.3839
H74 H 0.2285 0.5004 -0.3991
H75 H 0.2463 0.4138 -0.4679
H76 H 0.3421 0.5513 -0.2316
H77 H 0.2639 0.4737 -0.2153
H78 H 0.2393 0.5379 -0.2418
H79 H 0.3667 0.4088 -0.3413
H80 H 0.2803 0.3079 -0.4225
H81 H 0.2863 0.3344 -0.3236
H82 H 0.1661 0.3581 0.3498
H83 H 0.1363 0.4319 0.4202
H84 H 0.0612 0.3372 0.3272
H85 H 0.1894 0.3496 0.1848
H86 H 0.0812 0.3176 0.1576
H87 H 0.1585 0.4070 0.1534
H88 H 0.3836 0.6848 0.3516
H89 H 0.3108 0.5886 0.2582
H90 H 0.2782 0.6615 0.3253
H91 H 0.4195 0.5783 0.3873
H92 H 0.3374 0.4884 0.3875
H93 H 0.3458 0.4790 0.2958
H94 H 0.3703 0.6961 0.4930
H95 H 0.2642 0.6722 0.4716
H96 H 0.2897 0.6055 0.4935
Na3A Na -0.0705(2) 0.5707(2) 0.1433(2)
Na2A Na -0.0940(2) 0.3325(2) 0.0420(2)
S3A S -0.0709(2) 0.4795(2) -0.1643(1)
S2A S -0.0203(2) 0.2824(2) -0.1033(1)
C35A C -0.0425(5) 0.4553(5) -0.2652(5)
N3A N -0.0170(4) 0.5852(4) 0.2845(4)
C39A C -0.0380(6) 0.6106(6) 0.3624(5)
C38A C 0.0026(7) 0.4047(7) -0.4241(6)
S1A S -0.2190(1) 0.3874(2) -0.0064(1)
N2A N -0.2538(4) 0.2742(4) 0.0624(4)
Na1A Na -0.1714(2) 0.2964(2) -0.1681(2)
C1A C -0.0743(6) 0.1662(5) -0.2100(5)
C36A C -0.0781(5) 0.4762(6) -0.3235(5)
Si6A Si -0.1111(2) 0.6777(2) 0.3886(2)
C37A C -0.0531(6) 0.4504(6) -0.4028(6)
H66A H 0.0158 0.3832 -0.4809
C22A C -0.2930(5) 0.3120(5) 0.0299(5)
C21A C -0.3083(6) 0.2109(6) 0.0880(5)
N1A N -0.1552(4) 0.1423(5) -0.2624(4)
C2A C -0.0314(6) 0.1034(6) -0.2369(5)
Si5A Si -0.1595(2) 0.5341(2) -0.3052(2)
C40A C -0.0726(8) 0.7707(7) 0.5116(7)
C41A C -0.0885(10) 0.7472(10) 0.3313(9)
C42A C -0.2425(7) 0.5834(7) 0.3505(6)
H65A H -0.0744 0.4657 -0.4429
C18A C -0.3884(5) 0.2920(5) 0.0257(5)
Si2A Si -0.2508(2) 0.1580(2) 0.1314(2)
C20A C -0.4032(5) 0.1854(6) 0.0813(6)
C5A C -0.2014(5) 0.0541(6) -0.3437(5)
Si3A Si 0.0828(2) 0.1286(2) -0.1725(2)
C3A C -0.0821(7) 0.0128(7) -0.3204(6)
C46A C -0.1272(8) 0.6109(8) -0.3571(7)
C47A C -0.1455(7) 0.6262(7) -0.1857(6)
C48A C -0.2891(6) 0.4294(7) -0.3629(7)
H67A H -0.1084 0.8056 0.5263
H68A H -0.0841 0.7339 0.5405
H69A H -0.0057 0.8192 0.5323
H70A H -0.1088 0.6989 0.2674
H71A H -0.1248 0.7815 0.3449
H72A H -0.0218 0.7959 0.3509
C43A C -0.2636(7) 0.5343(8) 0.4054(8)
C44A C -0.2752(8) 0.4965(9) 0.2505(7)
C45A C -0.2995(9) 0.6381(10) 0.3606(9)
Si1A Si -0.4506(2) 0.3462(2) -0.0124(2)
C19A C -0.4398(6) 0.2285(6) 0.0516(5)
C29A C -0.1304(7) 0.1930(8) 0.1142(7)
C30A C -0.3304(7) 0.0167(6) 0.0631(6)
C31A C -0.2391(6) 0.2079(6) 0.2542(6)
H34A H -0.4426 0.1382 0.0961
Si4A Si -0.3103(2) 0.0279(2) -0.4176(2)
C4A C -0.1656(7) -0.0112(7) -0.3734(6)
C6A C 0.1766(6) 0.2619(7) -0.0965(7)
C7A C 0.1342(7) 0.0666(8) -0.2601(7)
C8A C 0.0503(7) 0.0622(7) -0.1096(7)
H1A H -0.0565 -0.0321 -0.3420
H82A H -0.1661 0.6419 -0.3498
H83A H -0.1363 0.5681 -0.4202
H84A H -0.0612 0.6628 -0.3272
H85A H -0.1894 0.6504 -0.1848
H86A H -0.0812 0.6824 -0.1576
H87A H -0.1585 0.5930 -0.1534
C49A C -0.3180(7) 0.3680(9) -0.3207(8)
C50A C -0.3540(8) 0.4753(9) -0.3580(9)
C51A C -0.3046(8) 0.3570(8) -0.4650(7)
H73A H -0.3309 0.4867 0.3839
H74A H -0.2285 0.4996 0.3991
H75A H -0.2463 0.5862 0.4679
H76A H -0.3421 0.4487 0.2316
H77A H -0.2639 0.5263 0.2153
H78A H -0.2393 0.4621 0.2418
H79A H -0.3667 0.5912 0.3413
H80A H -0.2803 0.6921 0.4225
H81A H -0.2863 0.6656 0.3236
C23A C -0.5439(6) 0.3476(7) 0.0473(6)
C24A C -0.3752(7) 0.4778(7) 0.0217(7)
C25A C -0.5112(6) 0.2605(6) -0.1379(5)
H33A H -0.5042 0.2143 0.0501
H50A H -0.0908 0.2655 0.1501
H51A H -0.1377 0.1687 0.0515
H52A H -0.1011 0.1632 0.1314
H53A H -0.3917 -0.0007 0.0734
H54A H -0.3018 -0.0135 0.0802
H55A H -0.3384 -0.0080 0.0003
C32A C -0.1771(9) 0.3243(8) 0.3098(7)
C33A C -0.3338(9) 0.1786(10) 0.2721(7)
C34A C -0.1903(8) 0.1668(8) 0.2882(8)
C12A C -0.3979(8) -0.1079(8) -0.4814(8)
C13A C -0.3608(7) 0.1043(9) -0.3438(7)
C14A C -0.2726(6) 0.0711(7) -0.4959(6)
H2A H -0.1995 -0.0755 -0.4301
H3A H 0.1914 0.2936 -0.1301
H4A H 0.2331 0.2663 -0.0706
H5A H 0.1536 0.2959 -0.0491
H6A H 0.1499 0.0988 -0.2932
H7A H 0.0883 -0.0041 -0.3009
H8A H 0.1910 0.0738 -0.2312
C9A C 0.1446(8) 0.0895(10) -0.0516(9)
C10A C -0.0033(8) 0.1013(9) -0.0458(7)
C11A C -0.0088(8) -0.0534(8) -0.1745(7)
H88A H -0.3836 0.3152 -0.3516
H89A H -0.3108 0.4114 -0.2582
H90A H -0.2782 0.3385 -0.3253
H91A H -0.4195 0.4217 -0.3873
H92A H -0.3374 0.5116 -0.3875
H93A H -0.3458 0.5210 -0.2958
H94A H -0.3703 0.3039 -0.4930
H95A H -0.2642 0.3278 -0.4716
H96A H -0.2897 0.3945 -0.4935
H35A H -0.5784 0.3741 0.0316
H36A H -0.5138 0.3888 0.1115
H37A H -0.5874 0.2792 0.0294
H38A H -0.4117 0.4988 0.0000
H39A H -0.3240 0.4812 -0.0047
H40A H -0.3492 0.5218 0.0863
C26A C -0.4404(8) 0.2573(10) -0.1902(7)
C27A C -0.5693(7) 0.2977(8) -0.1690(6)
C28A C -0.5828(8) 0.1528(7) -0.1638(7)
H56A H -0.1712 0.3499 0.3725
H57A H -0.2050 0.3537 0.2905
H58A H -0.1150 0.3417 0.3013
H59A H -0.3249 0.2050 0.3353
H60A H -0.3720 0.1059 0.2381
H61A H -0.3657 0.2056 0.2536
H62A H -0.1852 0.1922 0.3508
H63A H -0.1275 0.1882 0.2811
H64A H -0.2269 0.0940 0.2534
H18A H -0.4146 -0.1276 -0.4394
H19A H -0.3708 -0.1458 -0.5197
H20A H -0.4541 -0.1214 -0.5177
H21A H -0.3813 0.0856 -0.3020
H22A H -0.4141 0.0946 -0.3808
H23A H -0.3116 0.1744 -0.3111
C15A C -0.2343(9) 0.0080(10) -0.5619(7)
C16A C -0.1921(8) 0.1791(9) -0.4432(8)
C17A C -0.3553(7) 0.0624(9) -0.5510(7)
H9A H 0.1306 0.0575 -0.0182
H10A H 0.1830 0.1617 -0.0104
H11A H 0.1789 0.0653 -0.0914
H12A H -0.0195 0.0694 -0.0124
H13A H -0.0608 0.0864 -0.0815
H14A H 0.0359 0.1734 -0.0045
H15A H -0.0239 -0.0853 -0.1412
H16A H 0.0259 -0.0779 -0.2136
H17A H -0.0668 -0.0692 -0.2101
H41A H -0.4727 0.2130 -0.2540
H42A H -0.4051 0.2322 -0.1730
H43A H -0.3972 0.3242 -0.1759
H44A H -0.5994 0.2533 -0.2331
H45A H -0.5267 0.3651 -0.1540
H46A H -0.6173 0.2985 -0.1388
H47A H -0.6134 0.1087 -0.2279
H48A H -0.6301 0.1566 -0.1332
H49A H -0.5502 0.1266 -0.1451
H24A H -0.2148 0.0289 -0.6028
H25A H -0.2849 -0.0615 -0.5957
H26A H -0.1809 0.0145 -0.5283
H27A H -0.1730 0.2026 -0.4824
H28A H -0.1381 0.1861 -0.4100
H29A H -0.2161 0.2187 -0.4017
H30A H -0.3340 0.0861 -0.5897
H31A H -0.3809 0.1014 -0.5115
H32A H -0.4040 -0.0079 -0.5872
O1 O 0.3764(24) 0.1328(29) 0.2328(22)
C52 C 0.3319(22) 0.0390(24) 0.1934(23)
C53 C 0.3453(18) -0.0309(18) 0.1583(16)
C54 C 0.3579(33) 0.2119(32) 0.2659(31)
C55 C 0.4004(28) 0.2750(29) 0.3244(26)
H97 H 0.2791 0.0190 0.1480
H98 H 0.3099 0.0327 0.2409
H99 H 0.2875 -0.0923 0.1398
H100 H 0.3950 -0.0216 0.1990
H101 H 0.3641 -0.0354 0.1061
H102 H 0.2965 0.1930 0.2759
H103 H 0.3573 0.2236 0.2180
H104 H 0.3854 0.3278 0.3399
H105 H 0.4620 0.2946 0.3147
H106 H 0.4012 0.2640 0.3727
loop_
_geom_bond_atom_site_label_1
_geom_bond_atom_site_label_2
_geom_bond_site_symmetry_1
_geom_bond_site_symmetry_2
S1 Na1 1_555 1_555
S2 Na1 1_555 1_555
S3 Na1 1_555 1_555
Si1 C18 1_555 1_555
Si2 C21 1_555 1_555
Si3 C2 1_555 1_555
Si4 C5 1_555 1_555
Si5 C36 1_555 1_555
Si6 C39 1_555 1_555
Na1 N1 1_555 1_555
Na2 S1 1_555 1_555
Na3 S1 1_555 1_555
N1 C1 1_555 1_555
N2 Na2 1_555 1_555
N3 Na3 1_555 1_555
C1 S2 1_555 1_555
C2 C1 1_555 1_555
C3 C2 1_555 1_555
C4 C3 1_555 1_555
C5 N1 1_555 1_555
C6 Si3 1_555 1_555
C7 Si3 1_555 1_555
C8 Si3 1_555 1_555
C9 C8 1_555 1_555
C10 C8 1_555 1_555
C11 C8 1_555 1_555
C12 Si4 1_555 1_555
C13 Si4 1_555 1_555
C14 Si4 1_555 1_555
C15 C14 1_555 1_555
C16 C14 1_555 1_555
C17 C14 1_555 1_555
C18 C19 1_555 1_555
C19 C20 1_555 1_555
C20 C21 1_555 1_555
C21 N2 1_555 1_555
C22 S1 1_555 1_555
C23 Si1 1_555 1_555
C24 Si1 1_555 1_555
C25 Si1 1_555 1_555
C26 C25 1_555 1_555
C27 C25 1_555 1_555
C28 C25 1_555 1_555
C29 Si2 1_555 1_555
C30 Si2 1_555 1_555
C31 Si2 1_555 1_555
C32 C31 1_555 1_555
C33 C31 1_555 1_555
C34 C31 1_555 1_555
C35 S3 1_555 1_555
C36 C35 1_555 1_555
C37 C36 1_555 1_555
C38 C37 1_555 1_555
C39 N3 1_555 1_555
C40 Si6 1_555 1_555
C41 Si6 1_555 1_555
C42 Si6 1_555 1_555
C43 C42 1_555 1_555
C44 C42 1_555 1_555
C45 C42 1_555 1_555
C46 Si5 1_555 1_555
C47 Si5 1_555 1_555
C48 Si5 1_555 1_555
C49 C48 1_555 1_555
C50 C48 1_555 1_555
C51 C48 1_555 1_555
O1 C52 1_555 1_555
C52 C53 1_555 1_555
C53 H99 1_555 1_555
C54 O1 1_555 1_555
C55 C54 1_555 1_555
H1 C3 1_555 1_555
H2 C4 1_555 1_555
H3 C6 1_555 1_555
H4 C6 1_555 1_555
H5 C6 1_555 1_555
H6 C7 1_555 1_555
H7 C7 1_555 1_555
H8 C7 1_555 1_555
H9 C9 1_555 1_555
H10 C9 1_555 1_555
H11 C9 1_555 1_555
H12 C10 1_555 1_555
H13 C10 1_555 1_555
H14 C10 1_555 1_555
H15 C11 1_555 1_555
H16 C11 1_555 1_555
H17 C11 1_555 1_555
H18 C12 1_555 1_555
H19 C12 1_555 1_555
H20 C12 1_555 1_555
H21 C13 1_555 1_555
H22 C13 1_555 1_555
H23 C13 1_555 1_555
H24 C15 1_555 1_555
H25 C15 1_555 1_555
H26 C15 1_555 1_555
H27 C16 1_555 1_555
H28 C16 1_555 1_555
H29 C16 1_555 1_555
H30 C17 1_555 1_555
H31 C17 1_555 1_555
H32 C17 1_555 1_555
H33 C19 1_555 1_555
H34 C20 1_555 1_555
H35 C23 1_555 1_555
H36 C23 1_555 1_555
H37 C23 1_555 1_555
H38 C24 1_555 1_555
H39 C24 1_555 1_555
H40 C24 1_555 1_555
H41 C26 1_555 1_555
H42 C26 1_555 1_555
H43 C26 1_555 1_555
H44 C27 1_555 1_555
H45 C27 1_555 1_555
H46 C27 1_555 1_555
H47 C28 1_555 1_555
H48 C28 1_555 1_555
H49 C28 1_555 1_555
H50 C29 1_555 1_555
H51 C29 1_555 1_555
H52 C29 1_555 1_555
H53 C30 1_555 1_555
H54 C30 1_555 1_555
H55 C30 1_555 1_555
H56 C32 1_555 1_555
H57 C32 1_555 1_555
H58 C32 1_555 1_555
H59 C33 1_555 1_555
H60 C33 1_555 1_555
H61 C33 1_555 1_555
H62 C34 1_555 1_555
H63 C34 1_555 1_555
H64 C34 1_555 1_555
H65 C37 1_555 1_555
H66 C38 1_555 1_555
H67 C40 1_555 1_555
H68 C40 1_555 1_555
H69 C40 1_555 1_555
H70 C41 1_555 1_555
H71 C41 1_555 1_555
H72 C41 1_555 1_555
H73 C43 1_555 1_555
H74 C43 1_555 1_555
H75 C43 1_555 1_555
H76 C44 1_555 1_555
H77 C44 1_555 1_555
H78 C44 1_555 1_555
H79 C45 1_555 1_555
H80 C45 1_555 1_555
H81 C45 1_555 1_555
H82 C46 1_555 1_555
H83 C46 1_555 1_555
H84 C46 1_555 1_555
H85 C47 1_555 1_555
H86 C47 1_555 1_555
H87 C47 1_555 1_555
H88 C49 1_555 1_555
H89 C49 1_555 1_555
H90 C49 1_555 1_555
H91 C50 1_555 1_555
H92 C50 1_555 1_555
H93 C50 1_555 1_555
H94 C51 1_555 1_555
H95 C51 1_555 1_555
H96 C51 1_555 1_555
H97 C52 1_555 1_555
H98 C52 1_555 1_555
H100 C53 1_555 1_555
H101 C53 1_555 1_555
H102 C54 1_555 1_555
H103 C54 1_555 1_555
H104 C55 1_555 1_555
H105 C55 1_555 1_555
H106 C55 1_555 1_555
Na3A S2 1_555 1_555
Na2A S3 1_555 1_555
S3A Na2 1_555 1_555
S2A Na3 1_555 1_555
C35A N3 1_555 1_555
N3A C35 1_555 1_555
C39A C38 1_555 1_555
C38A C39 1_555 1_555
S1A Na3A 1_555 1_555
N2A Na2A 1_555 1_555
Na1A S3A 1_555 1_555
C1A S2A 1_555 1_555
C36A C35A 1_555 1_555
Si6A C39A 1_555 1_555
C37A C38A 1_555 1_555
H66A C38A 1_555 1_555
C22A S1A 1_555 1_555
C21A N2A 1_555 1_555
N1A Na1A 1_555 1_555
C2A C1A 1_555 1_555
Si5A C36A 1_555 1_555
C40A Si6A 1_555 1_555
C41A Si6A 1_555 1_555
C42A Si6A 1_555 1_555
H65A C37A 1_555 1_555
C18A C22A 1_555 1_555
Si2A C21A 1_555 1_555
C20A C21A 1_555 1_555
C5A N1A 1_555 1_555
Si3A C2A 1_555 1_555
C3A C2A 1_555 1_555
C46A Si5A 1_555 1_555
C47A Si5A 1_555 1_555
C48A Si5A 1_555 1_555
H67A C40A 1_555 1_555
H68A C40A 1_555 1_555
H69A C40A 1_555 1_555
H70A C41A 1_555 1_555
H71A C41A 1_555 1_555
H72A C41A 1_555 1_555
C43A C42A 1_555 1_555
C44A C42A 1_555 1_555
C45A C42A 1_555 1_555
Si1A C18A 1_555 1_555
C19A C18A 1_555 1_555
C29A Si2A 1_555 1_555
C30A Si2A 1_555 1_555
C31A Si2A 1_555 1_555
H34A C20A 1_555 1_555
Si4A C5A 1_555 1_555
C4A C5A 1_555 1_555
C6A Si3A 1_555 1_555
C7A Si3A 1_555 1_555
C8A Si3A 1_555 1_555
H1A C3A 1_555 1_555
H82A C46A 1_555 1_555
H83A C46A 1_555 1_555
H84A C46A 1_555 1_555
H85A C47A 1_555 1_555
H86A C47A 1_555 1_555
H87A C47A 1_555 1_555
C49A C48A 1_555 1_555
C50A C48A 1_555 1_555
C51A C48A 1_555 1_555
H73A C43A 1_555 1_555
H74A C43A 1_555 1_555
H75A C43A 1_555 1_555
H76A C44A 1_555 1_555
H77A C44A 1_555 1_555
H78A C44A 1_555 1_555
H79A C45A 1_555 1_555
H80A C45A 1_555 1_555
H81A C45A 1_555 1_555
C23A Si1A 1_555 1_555
C24A Si1A 1_555 1_555
C25A Si1A 1_555 1_555
H33A C19A 1_555 1_555
H50A C29A 1_555 1_555
H51A C29A 1_555 1_555
H52A C29A 1_555 1_555
H53A C30A 1_555 1_555
H54A C30A 1_555 1_555
H55A C30A 1_555 1_555
C32A C31A 1_555 1_555
C33A C31A 1_555 1_555
C34A C31A 1_555 1_555
C12A Si4A 1_555 1_555
C13A Si4A 1_555 1_555
C14A Si4A 1_555 1_555
H2A C4A 1_555 1_555
H3A C6A 1_555 1_555
H4A C6A 1_555 1_555
H5A C6A 1_555 1_555
H6A C7A 1_555 1_555
H7A C7A 1_555 1_555
H8A C7A 1_555 1_555
C9A C8A 1_555 1_555
C10A C8A 1_555 1_555
C11A C8A 1_555 1_555
H88A C49A 1_555 1_555
H89A C49A 1_555 1_555
H90A C49A 1_555 1_555
H91A C50A 1_555 1_555
H92A C50A 1_555 1_555
H93A C50A 1_555 1_555
H94A C51A 1_555 1_555
H95A C51A 1_555 1_555
H96A C51A 1_555 1_555
H35A C23A 1_555 1_555
H36A C23A 1_555 1_555
H37A C23A 1_555 1_555
H38A C24A 1_555 1_555
H39A C24A 1_555 1_555
H40A C24A 1_555 1_555
C26A C25A 1_555 1_555
C27A C25A 1_555 1_555
C28A C25A 1_555 1_555
H56A C32A 1_555 1_555
H57A C32A 1_555 1_555
H58A C32A 1_555 1_555
H59A C33A 1_555 1_555
H60A C33A 1_555 1_555
H61A C33A 1_555 1_555
H62A C34A 1_555 1_555
H63A C34A 1_555 1_555
H64A C34A 1_555 1_555
H18A C12A 1_555 1_555
H19A C12A 1_555 1_555
H20A C12A 1_555 1_555
H21A C13A 1_555 1_555
H22A C13A 1_555 1_555
H23A C13A 1_555 1_555
C15A C14A 1_555 1_555
C16A C14A 1_555 1_555
C17A C14A 1_555 1_555
H9A C9A 1_555 1_555
H10A C9A 1_555 1_555
H11A C9A 1_555 1_555
H12A C10A 1_555 1_555
H13A C10A 1_555 1_555
H14A C10A 1_555 1_555
H15A C11A 1_555 1_555
H16A C11A 1_555 1_555
H17A C11A 1_555 1_555
H41A C26A 1_555 1_555
H42A C26A 1_555 1_555
H43A C26A 1_555 1_555
H44A C27A 1_555 1_555
H45A C27A 1_555 1_555
H46A C27A 1_555 1_555
H47A C28A 1_555 1_555
H48A C28A 1_555 1_555
H49A C28A 1_555 1_555
H24A C15A 1_555 1_555
H25A C15A 1_555 1_555
H26A C15A 1_555 1_555
H27A C16A 1_555 1_555
H28A C16A 1_555 1_555
H29A C16A 1_555 1_555
H30A C17A 1_555 1_555
H31A C17A 1_555 1_555
H32A C17A 1_555 1_555
S2 Na2 1_555 1_555
S3 Na3A 1_555 1_555
Na3 S3A 1_555 1_555
N2 C22 1_555 1_555
C4 C5 1_555 1_555
C18 C22 1_555 1_555
Na3A N3A 1_555 1_555
Na2A S1A 1_555 1_555
Na2A S2A 1_555 1_555
S3A C35A 1_555 1_555
S2A Na1A 1_555 1_555
N3A C39A 1_555 1_555
S1A Na1A 1_555 1_555
N2A C22A 1_555 1_555
C1A N1A 1_555 1_555
C36A C37A 1_555 1_555
C20A C19A 1_555 1_555
C3A C4A 1_555 1_555

#END
