
#######################################################################
#
#                 Cambridge Crystallographic Data Centre
#                                CCDC 
#
#######################################################################
#
# If this CIF has been generated from an entry in the Cambridge 
# Structural Database, then it will include bibliographic, chemical, 
# crystal, experimental, refinement or atomic coordinate data resulting 
# from the CCDC's data processing and validation procedures.
#
#######################################################################

data_ZAWNAP
_chemical_formula_moiety         'C64 H22 F20 N6 2+,2(C2 F3 O2 1-),2(C1 H1 Cl3)'
_chemical_name_systematic        
'12,17,32,37-tetrakis(pentafluorophenyl)-10,19,30,39-tetra-aza-42,45-diazoniaundecacyclo[36.2.1.1^8,11^.1^13,16^.1^18,21^.1^28,31^.1^33,36^.0^2,7^.0^9,40^.0^20,29^.0^22,27^]hexatetraconta-1(41),2,4,6,8(46),9(40),11,13(45),14,16,18(44),20,22(27),23,25,28,31(43),32,34,36(42),37-henicosaene bis(trifluoroacetate) chloroform solvate'
_symmetry_cell_setting           monoclinic
_symmetry_space_group_name_H-M   'C 2/c'
_symmetry_Int_Tables_number      15
_space_group_name_Hall           '-C 2yn'
loop_
_symmetry_equiv_pos_site_id
_symmetry_equiv_pos_as_xyz
1 x,y,z
2 -x,y,1/2-z
3 1/2+x,1/2+y,z
4 1/2-x,1/2+y,1/2-z
5 -x,-y,-z
6 x,-y,1/2+z
7 1/2-x,1/2-y,-z
8 1/2+x,1/2-y,1/2+z
_cell_length_a                   17.275(2)
_cell_length_b                   22.187(3)
_cell_length_c                   20.034(2)
_cell_angle_alpha                90
_cell_angle_beta                 98.030(3)
_cell_angle_gamma                90
_cell_volume                     7603.35
_exptl_crystal_colour            'dark red'
_exptl_crystal_description       prism
_cell_formula_units_Z            4
loop_
_atom_site_label
_atom_site_type_symbol
_atom_site_fract_x
_atom_site_fract_y
_atom_site_fract_z
C1 C 0.5113(3) 0.6835(2) 0.9442(3)
C2 C 0.4781(3) 0.7126(3) 0.8838(3)
H1 H 0.477852 0.754987 0.876858
C3 C 0.4463(4) 0.6713(2) 0.8367(3)
C4 C 0.4589(3) 0.6125(3) 0.8683(3)
C5 C 0.4320(3) 0.5624(2) 0.8323(3)
C6 C 0.3943(4) 0.5683(3) 0.7644(3)
C7 C 0.3705(4) 0.5118(3) 0.7415(3)
H2 H 0.345389 0.502198 0.697492
C8 C 0.3904(3) 0.4703(3) 0.7955(3)
C9 C 0.3707(3) 0.4085(3) 0.7913(3)
C10 C 0.3830(3) 0.3619(3) 0.8386(3)
C11 C 0.3719(4) 0.2994(3) 0.8229(3)
H3 H 0.351250 0.283774 0.779921
C12 C 0.3953(4) 0.2661(3) 0.8783(3)
H4 H 0.394199 0.223415 0.880991
C13 C 0.4220(3) 0.3065(3) 0.9323(3)
C14 C 0.5465(3) 0.7132(2) 1.0015(3)
C15 C 0.4045(3) 0.6790(3) 0.7692(3)
C16 C 0.3809(3) 0.6271(3) 0.7309(3)
C17 C 0.3418(4) 0.6323(3) 0.6654(3)
H5 H 0.327789 0.597114 0.639611
C18 C 0.3234(4) 0.6882(3) 0.6380(3)
H6 H 0.296011 0.691531 0.593638
C19 C 0.3454(4) 0.7408(3) 0.6759(3)
H7 H 0.332424 0.779451 0.657168
C20 C 0.3861(4) 0.7357(3) 0.7408(3)
H8 H 0.401504 0.771086 0.765912
C21 C 0.3334(4) 0.3883(2) 0.7225(3)
C22 C 0.2558(4) 0.3740(3) 0.7068(3)
C23 C 0.2229(4) 0.3522(3) 0.6465(3)
C24 C 0.2688(4) 0.3438(3) 0.5956(3)
C25 C 0.3467(4) 0.3564(3) 0.6085(3)
C26 C 0.3793(4) 0.3788(3) 0.6707(3)
C27 C 0.5497(4) 0.7803(3) 0.9939(3)
C28 C 0.4826(4) 0.8156(3) 0.9963(3)
C29 C 0.4864(5) 0.8781(3) 0.9850(4)
C30 C 0.5527(6) 0.9054(3) 0.9749(4)
C31 C 0.6193(5) 0.8717(3) 0.9756(4)
C32 C 0.6165(4) 0.8098(3) 0.9843(3)
N1 N 0.4986(3) 0.6222(2) 0.9326(2)
H9 H 0.513602 0.593497 0.961983
N2 N 0.4287(3) 0.5025(2) 0.8496(2)
H10 H 0.447878 0.487018 0.888876
N3 N 0.4133(3) 0.3643(2) 0.9062(2)
H11 H 0.425319 0.397572 0.929183
F1 F 0.2086(2) 0.38038(19) 0.75589(18)
F2 F 0.1462(2) 0.3383(2) 0.63492(19)
F3 F 0.2384(2) 0.32195(19) 0.53535(18)
F4 F 0.3934(2) 0.3485(2) 0.55950(19)
F5 F 0.4555(2) 0.39148(19) 0.68095(18)
F6 F 0.4163(2) 0.78979(17) 1.0064(2)
F7 F 0.4182(3) 0.91017(19) 0.9869(3)
F8 F 0.5546(3) 0.96455(18) 0.9646(3)
F9 F 0.6865(3) 0.89844(19) 0.9654(3)
F10 F 0.6832(2) 0.77952(16) 0.98448(19)
C1D C 0.4887(3) 0.3165(2) 1.0558(3)
C2D C 0.5219(3) 0.2874(3) 1.1162(3)
H1D H 0.522148 0.245013 1.123142
C3D C 0.5537(4) 0.3287(2) 1.1633(3)
C4D C 0.5411(3) 0.3875(3) 1.1317(3)
C5D C 0.5680(3) 0.4376(2) 1.1677(3)
C6D C 0.6057(4) 0.4317(3) 1.2356(3)
C7D C 0.6295(4) 0.4882(3) 1.2585(3)
H2D H 0.654611 0.497802 1.302508
C8D C 0.6096(3) 0.5297(3) 1.2045(3)
C9D C 0.6293(3) 0.5915(3) 1.2087(3)
C10D C 0.6170(3) 0.6381(3) 1.1614(3)
C11D C 0.6281(4) 0.7006(3) 1.1771(3)
H3D H 0.648750 0.716226 1.220079
C12D C 0.6047(4) 0.7339(3) 1.1217(3)
H4D H 0.605801 0.776585 1.119009
C13D C 0.5780(3) 0.6935(3) 1.0677(3)
C14D C 0.4535(3) 0.2868(2) 0.9985(3)
C15D C 0.5955(3) 0.3210(3) 1.2308(3)
C16D C 0.6191(3) 0.3729(3) 1.2691(3)
C17D C 0.6582(4) 0.3677(3) 1.3346(3)
H5D H 0.672211 0.402886 1.360389
C18D C 0.6766(4) 0.3118(3) 1.3620(3)
H6D H 0.703989 0.308469 1.406362
C19D C 0.6546(4) 0.2592(3) 1.3241(3)
H7D H 0.667576 0.220549 1.342832
C20D C 0.6139(4) 0.2643(3) 1.2592(3)
H8D H 0.598496 0.228914 1.234088
C21D C 0.6666(4) 0.6117(2) 1.2775(3)
C22D C 0.7442(4) 0.6260(3) 1.2932(3)
C23D C 0.7771(4) 0.6478(3) 1.3535(3)
C24D C 0.7312(4) 0.6562(3) 1.4044(3)
C25D C 0.6533(4) 0.6436(3) 1.3915(3)
C26D C 0.6207(4) 0.6212(3) 1.3293(3)
C27D C 0.4503(4) 0.2197(3) 1.0061(3)
C28D C 0.5174(4) 0.1844(3) 1.0037(3)
C29D C 0.5136(5) 0.1219(3) 1.0150(4)
C30D C 0.4473(6) 0.0946(3) 1.0251(4)
C31D C 0.3807(5) 0.1283(3) 1.0244(4)
C32D C 0.3835(4) 0.1902(3) 1.0157(3)
N1D N 0.5014(3) 0.3778(2) 1.0674(2)
H9D H 0.486398 0.406503 1.038017
N2D N 0.5713(3) 0.4975(2) 1.1504(2)
H10D H 0.552122 0.512982 1.111124
N3D N 0.5867(3) 0.6357(2) 1.0938(2)
H11D H 0.574681 0.602428 1.070817
F1D F 0.7914(2) 0.61962(19) 1.24411(18)
F2D F 0.8538(2) 0.6617(2) 1.36508(19)
F3D F 0.7616(2) 0.67805(19) 1.46465(18)
F4D F 0.6066(2) 0.6515(2) 1.44050(19)
F5D F 0.5445(2) 0.60852(19) 1.31905(18)
F6D F 0.5837(2) 0.21021(17) 0.9936(2)
F7D F 0.5818(3) 0.08983(19) 1.0131(3)
F8D F 0.4454(3) 0.03545(18) 1.0354(3)
F9D F 0.3135(3) 0.10156(19) 1.0346(3)
F10D F 0.3168(2) 0.22048(16) 1.01552(19)
C33 C 0.6239(4) 0.5067(3) 0.9813(3)
C34 C 0.6964(5) 0.4798(3) 1.0263(4)
F11 F 0.7574(3) 0.4723(2) 0.9938(3)
F12 F 0.7211(2) 0.51306(19) 1.0804(2)
F13 F 0.6782(3) 0.42572(19) 1.0494(2)
O1 O 0.5774(3) 0.53539(18) 1.0134(2)
O2 O 0.6199(4) 0.4986(3) 0.9212(3)
Cl1 Cl 0.4286(2) 0.2105(2) 0.6691(2)
Cl2 Cl 0.3711(3) 0.0924(3) 0.6392(3)
C35 C 0.3423(8) 0.1655(6) 0.6410(7)
H12 H 0.326693 0.176780 0.592659
Cl3 Cl 0.2697(2) 0.1827(2) 0.6771(2)
loop_
_geom_bond_atom_site_label_1
_geom_bond_atom_site_label_2
_geom_bond_site_symmetry_1
_geom_bond_site_symmetry_2
C1 C2 1_555 1_555
C2 H1 1_555 1_555
C3 C2 1_555 1_555
C4 C3 1_555 1_555
C5 C4 1_555 1_555
C6 C5 1_555 1_555
C7 C6 1_555 1_555
H2 C7 1_555 1_555
C8 C7 1_555 1_555
C9 C8 1_555 1_555
C10 C9 1_555 1_555
C11 C10 1_555 1_555
H3 C11 1_555 1_555
C12 C11 1_555 1_555
H4 C12 1_555 1_555
C13 C12 1_555 1_555
C14 C1 1_555 1_555
C15 C3 1_555 1_555
C16 C6 1_555 1_555
C17 C16 1_555 1_555
H5 C17 1_555 1_555
C18 C17 1_555 1_555
H6 C18 1_555 1_555
C19 C18 1_555 1_555
H7 C19 1_555 1_555
C20 C15 1_555 1_555
H8 C20 1_555 1_555
C21 C9 1_555 1_555
C22 C21 1_555 1_555
C23 C22 1_555 1_555
C24 C23 1_555 1_555
C25 C24 1_555 1_555
C26 C21 1_555 1_555
C27 C14 1_555 1_555
C28 C27 1_555 1_555
C29 C28 1_555 1_555
C30 C29 1_555 1_555
C31 C30 1_555 1_555
C32 C27 1_555 1_555
N1 C1 1_555 1_555
H9 N1 1_555 1_555
N2 C5 1_555 1_555
H10 N2 1_555 1_555
N3 C10 1_555 1_555
H11 N3 1_555 1_555
F1 C22 1_555 1_555
F2 C23 1_555 1_555
F3 C24 1_555 1_555
F4 C25 1_555 1_555
F5 C26 1_555 1_555
F6 C28 1_555 1_555
F7 C29 1_555 1_555
F8 C30 1_555 1_555
F9 C31 1_555 1_555
F10 C32 1_555 1_555
C33 C34 1_555 1_555
C34 F11 1_555 1_555
F12 C34 1_555 1_555
F13 C34 1_555 1_555
O1 C33 1_555 1_555
O2 C33 1_555 1_555
Cl1 C35 1_555 1_555
Cl2 C35 1_555 1_555
C35 H12 1_555 1_555
Cl3 C35 1_555 1_555
C1D C2D 1_555 1_555
C2D H1D 1_555 1_555
C3D C2D 1_555 1_555
C4D C3D 1_555 1_555
C5D C4D 1_555 1_555
C6D C5D 1_555 1_555
C7D C6D 1_555 1_555
H2D C7D 1_555 1_555
C8D C7D 1_555 1_555
C9D C8D 1_555 1_555
C10D C9D 1_555 1_555
C11D C10D 1_555 1_555
H3D C11D 1_555 1_555
C12D C11D 1_555 1_555
H4D C12D 1_555 1_555
C13D C14 1_555 1_555
C14D C13 1_555 1_555
C15D C3D 1_555 1_555
C16D C6D 1_555 1_555
C17D C16D 1_555 1_555
H5D C17D 1_555 1_555
C18D C17D 1_555 1_555
H6D C18D 1_555 1_555
C19D C18D 1_555 1_555
H7D C19D 1_555 1_555
C20D C15D 1_555 1_555
H8D C20D 1_555 1_555
C21D C9D 1_555 1_555
C22D C21D 1_555 1_555
C23D C22D 1_555 1_555
C24D C23D 1_555 1_555
C25D C24D 1_555 1_555
C26D C21D 1_555 1_555
C27D C14D 1_555 1_555
C28D C27D 1_555 1_555
C29D C28D 1_555 1_555
C30D C29D 1_555 1_555
C31D C30D 1_555 1_555
C32D C27D 1_555 1_555
N1D C1D 1_555 1_555
H9D N1D 1_555 1_555
N2D C5D 1_555 1_555
H10D N2D 1_555 1_555
N3D C10D 1_555 1_555
H11D N3D 1_555 1_555
F1D C22D 1_555 1_555
F2D C23D 1_555 1_555
F3D C24D 1_555 1_555
F4D C25D 1_555 1_555
F5D C26D 1_555 1_555
F6D C28D 1_555 1_555
F7D C29D 1_555 1_555
F8D C30D 1_555 1_555
F9D C31D 1_555 1_555
F10D C32D 1_555 1_555
C4 N1 1_555 1_555
C8 N2 1_555 1_555
C13 N3 1_555 1_555
C15 C16 1_555 1_555
C19 C20 1_555 1_555
C25 C26 1_555 1_555
C31 C32 1_555 1_555
C1D C14D 1_555 1_555
C4D N1D 1_555 1_555
C8D N2D 1_555 1_555
C12D C13D 1_555 1_555
C13D N3D 1_555 1_555
C15D C16D 1_555 1_555
C19D C20D 1_555 1_555
C25D C26D 1_555 1_555
C31D C32D 1_555 1_555

#END
