
#######################################################################
#
#                 Cambridge Crystallographic Data Centre
#                                CCDC 
#
#######################################################################
#
# If this CIF has been generated from an entry in the Cambridge 
# Structural Database, then it will include bibliographic, chemical, 
# crystal, experimental, refinement or atomic coordinate data resulting 
# from the CCDC's data processing and validation procedures.
#
#######################################################################

data_ZAXNUJ
_chemical_formula_moiety         'C13 H18 N2 O2,H3 O1 1+,Cl1 1-'
_chemical_name_systematic        
'Oxonium chloride N-methoxy-1-(2-(morpholin-4-yl)phenyl)ethanimine'
_symmetry_cell_setting           triclinic
_symmetry_space_group_name_H-M   'P -1'
_symmetry_Int_Tables_number      2
_space_group_name_Hall           '-P 1'
loop_
_symmetry_equiv_pos_site_id
_symmetry_equiv_pos_as_xyz
1 x,y,z
2 -x,-y,-z
_cell_length_a                   8.3927(4)
_cell_length_b                   9.5793(5)
_cell_length_c                   10.0117(5)
_cell_angle_alpha                82.796(2)
_cell_angle_beta                 68.217(2)
_cell_angle_gamma                89.920(2)
_cell_volume                     740.638
_exptl_crystal_colour            colorless
_exptl_crystal_description       block
_cell_formula_units_Z            2
loop_
_atom_site_label
_atom_site_type_symbol
_atom_site_fract_x
_atom_site_fract_y
_atom_site_fract_z
Cl1 Cl 0.21402(4) 0.31450(4) 0.95689(4)
O1 O 0.84265(13) 0.10158(13) 1.43675(12)
O2 O 0.73348(16) 0.14632(14) 0.91003(12)
N1 N 0.70075(14) 0.14001(13) 1.40117(12)
N2 N 0.58108(12) 0.23915(10) 1.19004(10)
C1 C 0.43585(15) 0.27483(13) 1.31767(13)
C2 C 0.28473(16) 0.31170(16) 1.29975(15)
H1 H 0.2765 0.3126 1.2095
C3 C 0.14569(19) 0.3473(2) 1.41599(18)
H2 H 0.0437 0.3710 1.4043
C4 C 0.1595(2) 0.3472(2) 1.54779(18)
H3 H 0.0672 0.3729 1.6254
C5 C 0.3101(2) 0.30889(18) 1.56665(15)
H4 H 0.3169 0.3094 1.6572
C6 C 0.45162(16) 0.26973(14) 1.45316(13)
C7 C 0.60640(16) 0.22379(14) 1.48326(13)
C8 C 0.6419(2) 0.2773(2) 1.60451(16)
H5 H 0.7452 0.2386 1.6100
H6 H 0.5476 0.2492 1.6945
H7 H 0.6557 0.3782 1.5866
C9 C 0.9593(2) 0.03232(19) 1.3226(2)
H8 H 1.0571 0.0055 1.3460
H9 H 0.9965 0.0953 1.2331
H10 H 0.9023 -0.0502 1.3124
C10 C 0.5669(2) 0.08861(15) 1.16615(17)
H11 H 0.4628 0.0724 1.1485
H12 H 0.5610 0.0260 1.2521
C11 C 0.7209(3) 0.05838(19) 1.0379(2)
H13 H 0.8241 0.0723 1.0576
H14 H 0.7126 -0.0393 1.0238
C12 C 0.7556(2) 0.2877(2) 0.92832(16)
H15 H 0.7702 0.3482 0.8389
H16 H 0.8591 0.2986 0.9485
C13 C 0.60461(16) 0.33293(14) 1.05045(13)
H17 H 0.5015 0.3267 1.0289
H18 H 0.6242 0.4301 1.0608
O3 O 0.12755(13) 0.59891(12) 0.80285(11)
H19 H 0.1362 0.5219 0.8451
H20 H 0.0328 0.6222 0.8710
H21 H 0.0010 0.5191 0.7950
loop_
_geom_bond_atom_site_label_1
_geom_bond_atom_site_label_2
_geom_bond_site_symmetry_1
_geom_bond_site_symmetry_2
O1 N1 1_555 1_555
O2 C11 1_555 1_555
N1 C7 1_555 1_555
N2 C1 1_555 1_555
C1 C2 1_555 1_555
C2 H1 1_555 1_555
C3 C2 1_555 1_555
H2 C3 1_555 1_555
C4 C3 1_555 1_555
H3 C4 1_555 1_555
C5 C4 1_555 1_555
H4 C5 1_555 1_555
C6 C1 1_555 1_555
C7 C6 1_555 1_555
C8 C7 1_555 1_555
H5 C8 1_555 1_555
H6 C8 1_555 1_555
H7 C8 1_555 1_555
C9 O1 1_555 1_555
H8 C9 1_555 1_555
H9 C9 1_555 1_555
H10 C9 1_555 1_555
C10 N2 1_555 1_555
H11 C10 1_555 1_555
H12 C10 1_555 1_555
C11 C10 1_555 1_555
H13 C11 1_555 1_555
H14 C11 1_555 1_555
C12 O2 1_555 1_555
H15 C12 1_555 1_555
H16 C12 1_555 1_555
C13 N2 1_555 1_555
H17 C13 1_555 1_555
H18 C13 1_555 1_555
O3 H19 1_555 1_555
H20 O3 1_555 1_555
H21 O3 1_555 1_555
C5 C6 1_555 1_555
C12 C13 1_555 1_555

#END
