
#######################################################################
#
#                 Cambridge Crystallographic Data Centre
#                                CCDC 
#
#######################################################################
#
# If this CIF has been generated from an entry in the Cambridge 
# Structural Database, then it will include bibliographic, chemical, 
# crystal, experimental, refinement or atomic coordinate data resulting 
# from the CCDC's data processing and validation procedures.
#
#######################################################################

data_ZAXPEW
_chemical_formula_moiety         'C34 H48 Ba2 Cl4 O30'
_chemical_name_systematic        
bis(\m-2,3,5,6,8,9,11,12,14,15-decahydro-1,4,7,10,13,16-benzohexaoxacyclooctadecine-18-carbaldehyde)-bis(perchlorato-O,O')-bis(perchlorato-O)-di-barium
_symmetry_cell_setting           triclinic
_symmetry_space_group_name_H-M   'P -1'
_symmetry_Int_Tables_number      2
_space_group_name_Hall           '-P 1'
loop_
_symmetry_equiv_pos_site_id
_symmetry_equiv_pos_as_xyz
1 x,y,z
2 -x,-y,-z
_cell_length_a                   8.4422(5)
_cell_length_b                   10.0832(6)
_cell_length_c                   14.1314(8)
_cell_angle_alpha                87.2320(10)
_cell_angle_beta                 81.3950(10)
_cell_angle_gamma                82.6530(10)
_cell_volume                     1179.1
_exptl_crystal_colour            colorless
_exptl_crystal_description       block
_cell_formula_units_Z            1
_exptl_crystal_recrystallization_method acetonitrile/benzene
loop_
_atom_site_label
_atom_site_type_symbol
_atom_site_fract_x
_atom_site_fract_y
_atom_site_fract_z
Ba1 Ba 0.78849(2) 0.70997(2) 0.25918(2)
Cl1 Cl 0.96708(9) 0.40083(7) 0.32783(7)
O1 O 0.9693(4) 0.5269(3) 0.3723(2)
O2 O 0.8921(4) 0.4313(3) 0.2423(3)
O3 O 0.8778(5) 0.3154(3) 0.3910(4)
O4 O 1.1266(3) 0.3374(3) 0.3023(3)
Cl2 Cl 0.41294(7) 1.00196(6) 0.24853(4)
O5 O 0.5220(2) 0.8798(2) 0.22869(16)
O6 O 0.3676(3) 1.0559(2) 0.15917(16)
O7 O 0.4937(3) 1.0970(3) 0.28932(18)
O8 O 0.2734(3) 0.9688(3) 0.31163(17)
O9 O 0.5554(2) 0.55132(18) 0.19995(13)
O10 O 0.5351(3) 0.6224(2) 0.39053(14)
O11 O 0.8747(3) 0.9505(2) 0.29300(15)
O12 O 0.8735(2) 0.89433(18) 0.10204(14)
O13 O 0.7479(2) 0.65864(19) 0.06967(13)
O14 O 0.8868(3) 0.3073(2) -0.19671(16)
C1 C 0.7143(3) 0.5334(3) 0.04989(19)
C2 C 0.7748(3) 0.4669(3) -0.03317(19)
H1 H 0.8483 0.5049 -0.0813
C3 C 0.7254(3) 0.3412(3) -0.0452(2)
C4 C 0.6202(3) 0.2846(3) 0.0249(2)
H2 H 0.5868 0.2006 0.0149
C5 C 0.5628(3) 0.3501(3) 0.1101(2)
H3 H 0.4935 0.3099 0.1593
C6 C 0.6083(3) 0.4750(3) 0.12191(18)
C7 C 0.4457(3) 0.4953(3) 0.2761(2)
H4 H 0.5003 0.4131 0.3040
H5 H 0.3500 0.4721 0.2506
C8 C 0.3955(4) 0.5983(3) 0.3507(2)
H6 H 0.3466 0.6822 0.3218
H7 H 0.3142 0.5662 0.4016
C9 C 0.4915(5) 0.6987(4) 0.4760(2)
H8 H 0.4300 0.6468 0.5267
H9 H 0.4232 0.7829 0.4627
C10 C 0.6449(5) 0.7292(4) 0.5080(2)
H10 H 0.6233 0.7698 0.5717
H11 H 0.7233 0.6476 0.5102
O15 O 0.7020(8) 0.8233(5) 0.4342(2)
C11 C 0.8362(9) 0.8821(7) 0.4576(3)
H12 H 0.9324 0.8143 0.4548
H13 H 0.8110 0.9164 0.5233
C12 C 0.8688(4) 0.9940(3) 0.3871(2)
H14 H 0.7827 1.0700 0.3997
H15 H 0.9729 1.0250 0.3942
C13 C 0.9319(3) 1.0411(3) 0.2182(2)
H16 H 1.0497 1.0191 0.1994
H17 H 0.9106 1.1339 0.2409
C14 C 0.8463(3) 1.0295(3) 0.1337(2)
H18 H 0.7291 1.0562 0.1519
H19 H 0.8864 1.0903 0.0810
C15 C 0.7889(3) 0.8812(3) 0.02266(18)
H20 H 0.8267 0.9416 -0.0310
H21 H 0.6718 0.9070 0.0419
C16 C 0.8186(3) 0.7392(3) -0.00908(18)
H22 H 0.7677 0.7304 -0.0668
H23 H 0.9359 0.7104 -0.0244
C17 C 0.7865(3) 0.2693(3) -0.1334(2)
H24 H 0.7454 0.1879 -0.1419
Ba1A Ba 1.21151(2) 0.29003(2) -0.25918(2)
Cl1A Cl 1.03292(9) 0.59917(7) -0.32783(7)
O1A O 1.0307(4) 0.4731(3) -0.3723(2)
O2A O 1.1079(4) 0.5687(3) -0.2423(3)
O3A O 1.1222(5) 0.6846(3) -0.3910(4)
O4A O 0.8734(3) 0.6626(3) -0.3023(3)
Cl2A Cl 1.58706(7) -0.00196(6) -0.24853(4)
O5A O 1.4780(2) 0.1202(2) -0.22869(16)
O6A O 1.6324(3) -0.0559(2) -0.15917(16)
O7A O 1.5063(3) -0.0970(3) -0.28932(18)
O8A O 1.7266(3) 0.0312(3) -0.31163(17)
O9A O 1.4446(2) 0.44868(18) -0.19995(13)
O10A O 1.4649(3) 0.3776(2) -0.39053(14)
O11A O 1.1253(3) 0.0495(2) -0.29300(15)
O12A O 1.1265(2) 0.10567(18) -0.10204(14)
O13A O 1.2521(2) 0.34136(19) -0.06967(13)
O14A O 1.1132(3) 0.6927(2) 0.19671(16)
C1A C 1.2857(3) 0.4666(3) -0.04989(19)
C2A C 1.2252(3) 0.5331(3) 0.03317(19)
H1A H 1.1517 0.4951 0.0813
C3A C 1.2746(3) 0.6588(3) 0.0452(2)
C4A C 1.3798(3) 0.7154(3) -0.0249(2)
H2A H 1.4132 0.7994 -0.0149
C5A C 1.4372(3) 0.6499(3) -0.1101(2)
H3A H 1.5065 0.6901 -0.1593
C6A C 1.3917(3) 0.5250(3) -0.12191(18)
C7A C 1.5543(3) 0.5047(3) -0.2761(2)
H4A H 1.4997 0.5869 -0.3040
H5A H 1.6500 0.5279 -0.2506
C8A C 1.6045(4) 0.4017(3) -0.3507(2)
H6A H 1.6534 0.3178 -0.3218
H7A H 1.6858 0.4338 -0.4016
C9A C 1.5085(5) 0.3013(4) -0.4760(2)
H8A H 1.5700 0.3532 -0.5267
H9A H 1.5768 0.2171 -0.4627
C10A C 1.3551(5) 0.2708(4) -0.5080(2)
H10A H 1.3767 0.2302 -0.5717
H11A H 1.2767 0.3524 -0.5102
O15A O 1.2980(8) 0.1767(5) -0.4342(2)
C11A C 1.1638(9) 0.1179(7) -0.4576(3)
H12A H 1.0676 0.1857 -0.4548
H13A H 1.1890 0.0836 -0.5233
C12A C 1.1312(4) 0.0060(3) -0.3871(2)
H14A H 1.2173 -0.0700 -0.3997
H15A H 1.0271 -0.0250 -0.3942
C13A C 1.0681(3) -0.0411(3) -0.2182(2)
H16A H 0.9503 -0.0191 -0.1994
H17A H 1.0894 -0.1339 -0.2409
C14A C 1.1537(3) -0.0295(3) -0.1337(2)
H18A H 1.2709 -0.0562 -0.1519
H19A H 1.1136 -0.0903 -0.0810
C15A C 1.2111(3) 0.1188(3) -0.02266(18)
H20A H 1.1733 0.0584 0.0310
H21A H 1.3282 0.0930 -0.0419
C16A C 1.1814(3) 0.2608(3) 0.00908(18)
H22A H 1.2323 0.2696 0.0668
H23A H 1.0641 0.2896 0.0244
C17A C 1.2135(3) 0.7307(3) 0.1334(2)
H24A H 1.2546 0.8121 0.1419
H25? H 0.6119 0.7902 0.5621
H26? H 0.6948 0.6442 0.5349
O16? O 0.778(2) 0.7878(13) 0.4435(8)
C18? C 0.763(2) 0.9315(16) 0.4580(10)
H27? H 0.6507 0.9716 0.4554
H28? H 0.7899 0.9471 0.5222
H29? H 0.8352 1.0917 0.3878
H30? H 0.9791 0.9780 0.4046
loop_
_geom_bond_atom_site_label_1
_geom_bond_atom_site_label_2
_geom_bond_site_symmetry_1
_geom_bond_site_symmetry_2
Ba1 O1 1_555 1_555
Cl1 O1 1_555 1_555
O2 Ba1 1_555 1_555
O3 Cl1 1_555 1_555
O4 Cl1 1_555 1_555
Cl2 O5 1_555 1_555
O5 Ba1 1_555 1_555
O6 Cl2 1_555 1_555
O7 Cl2 1_555 1_555
O8 Cl2 1_555 1_555
O9 Ba1 1_555 1_555
O10 Ba1 1_555 1_555
O11 Ba1 1_555 1_555
O12 Ba1 1_555 1_555
O13 Ba1 1_555 1_555
O14 C17 1_555 1_555
C1 O13 1_555 1_555
C2 C1 1_555 1_555
H1 C2 1_555 1_555
C3 C2 1_555 1_555
C4 C3 1_555 1_555
H2 C4 1_555 1_555
C5 C4 1_555 1_555
H3 C5 1_555 1_555
C6 O9 1_555 1_555
C7 O9 1_555 1_555
H4 C7 1_555 1_555
H5 C7 1_555 1_555
C8 O10 1_555 1_555
H6 C8 1_555 1_555
H7 C8 1_555 1_555
C9 O10 1_555 1_555
H8 C9 1_555 1_555
H9 C9 1_555 1_555
C10 C9 1_555 1_555
H10 C10 1_555 1_555
H11 C10 1_555 1_555
O15 Ba1 1_555 1_555
C11 O15 1_555 1_555
H12 C11 1_555 1_555
H13 C11 1_555 1_555
C12 O11 1_555 1_555
H14 C12 1_555 1_555
H15 C12 1_555 1_555
C13 O11 1_555 1_555
H16 C13 1_555 1_555
H17 C13 1_555 1_555
C14 O12 1_555 1_555
H18 C14 1_555 1_555
H19 C14 1_555 1_555
C15 O12 1_555 1_555
H20 C15 1_555 1_555
H21 C15 1_555 1_555
C16 O13 1_555 1_555
H22 C16 1_555 1_555
H23 C16 1_555 1_555
C17 C3 1_555 1_555
H24 C17 1_555 1_555
Ba1A O14 1_555 1_555
Cl1A O1A 1_555 1_555
O1A Ba1A 1_555 1_555
O2A Ba1A 1_555 1_555
O3A Cl1A 1_555 1_555
O4A Cl1A 1_555 1_555
Cl2A O5A 1_555 1_555
O5A Ba1A 1_555 1_555
O6A Cl2A 1_555 1_555
O7A Cl2A 1_555 1_555
O8A Cl2A 1_555 1_555
O9A Ba1A 1_555 1_555
O10A Ba1A 1_555 1_555
O11A Ba1A 1_555 1_555
O12A Ba1A 1_555 1_555
O13A Ba1A 1_555 1_555
O14A Ba1 1_555 1_555
C1A O13A 1_555 1_555
C2A C1A 1_555 1_555
H1A C2A 1_555 1_555
C3A C2A 1_555 1_555
C4A C3A 1_555 1_555
H2A C4A 1_555 1_555
C5A C4A 1_555 1_555
H3A C5A 1_555 1_555
C6A O9A 1_555 1_555
C7A O9A 1_555 1_555
H4A C7A 1_555 1_555
H5A C7A 1_555 1_555
C8A O10A 1_555 1_555
H6A C8A 1_555 1_555
H7A C8A 1_555 1_555
C9A O10A 1_555 1_555
H8A C9A 1_555 1_555
H9A C9A 1_555 1_555
C10A C9A 1_555 1_555
H10A C10A 1_555 1_555
H11A C10A 1_555 1_555
O15A Ba1A 1_555 1_555
C11A O15A 1_555 1_555
H12A C11A 1_555 1_555
H13A C11A 1_555 1_555
C12A O11A 1_555 1_555
H14A C12A 1_555 1_555
H15A C12A 1_555 1_555
C13A O11A 1_555 1_555
H16A C13A 1_555 1_555
H17A C13A 1_555 1_555
C14A O12A 1_555 1_555
H18A C14A 1_555 1_555
H19A C14A 1_555 1_555
C15A O12A 1_555 1_555
H20A C15A 1_555 1_555
H21A C15A 1_555 1_555
C16A O13A 1_555 1_555
H22A C16A 1_555 1_555
H23A C16A 1_555 1_555
C17A O14A 1_555 1_555
H24A C17A 1_555 1_555
Cl1 O2 1_555 1_555
C1 C6 1_555 1_555
C5 C6 1_555 1_555
C7 C8 1_555 1_555
C10 O15 1_555 1_555
C11 C12 1_555 1_555
C13 C14 1_555 1_555
C15 C16 1_555 1_555
Cl1A O2A 1_555 1_555
C1A C6A 1_555 1_555
C3A C17A 1_555 1_555
C5A C6A 1_555 1_555
C7A C8A 1_555 1_555
C10A O15A 1_555 1_555
C11A C12A 1_555 1_555
C13A C14A 1_555 1_555
C15A C16A 1_555 1_555

#END
