
#######################################################################
#
#                 Cambridge Crystallographic Data Centre
#                                CCDC 
#
#######################################################################
#
# If this CIF has been generated from an entry in the Cambridge 
# Structural Database, then it will include bibliographic, chemical, 
# crystal, experimental, refinement or atomic coordinate data resulting 
# from the CCDC's data processing and validation procedures.
#
#######################################################################

data_ZEBTOP
_chemical_formula_moiety         'C22 H21 N3 O2'
_chemical_name_systematic        
(1RS,3SR,3aRS,6aSR)-4-(5-Benzyl-2,3-dimethyl-4,6-dioxo-octahydropyrrolo(3,4-c)pyrrol-1-yl)benzonitrile
_symmetry_cell_setting           triclinic
_symmetry_space_group_name_H-M   'P -1'
_symmetry_Int_Tables_number      2
_space_group_name_Hall           '-P 1'
loop_
_symmetry_equiv_pos_site_id
_symmetry_equiv_pos_as_xyz
1 x,y,z
2 -x,-y,-z
_cell_length_a                   9.352(8)
_cell_length_b                   10.004(7)
_cell_length_c                   10.882(9)
_cell_angle_alpha                95.55(6)
_cell_angle_beta                 94.39(7)
_cell_angle_gamma                110.73(7)
_cell_volume                     940.981
_exptl_crystal_colour            colorless
_chemical_melting_point          188-190deg.C
_cell_formula_units_Z            2
loop_
_atom_site_label
_atom_site_type_symbol
_atom_site_fract_x
_atom_site_fract_y
_atom_site_fract_z
N1 N 0.0345(5) 0.3928(4) 0.3449(3)
O1 O 0.1485(4) 0.5451(4) 0.2055(3)
C1 C -0.3354(5) 0.2779(4) 0.2267(4)
O2 O -0.1230(4) 0.2777(3) 0.4838(3)
C2 C -0.3673(5) 0.1249(5) 0.2553(4)
C3 C -0.4917(5) 0.0555(6) 0.3165(4)
N2 N -0.2654(4) 0.3046(4) 0.1115(3)
C4 C -0.2974(5) -0.0837(5) 0.2548(4)
C5 C -0.4216(6) -0.1512(5) 0.3164(4)
C6 C 0.0376(6) 0.4889(5) 0.2590(5)
C7 C 0.1238(5) 0.0889(6) 0.3724(5)
C8 C -0.1929(5) 0.4611(5) 0.1117(4)
C9 C -0.2141(5) 0.3973(5) 0.3264(4)
C10 C 0.1546(5) 0.2094(5) 0.3140(5)
C11 C -0.1143(5) 0.5070(5) 0.2491(4)
C12 C -0.2703(5) 0.0533(5) 0.2231(4)
C13 C 0.1660(5) 0.3517(5) 0.3812(4)
C14 C -0.4441(5) -0.2927(6) 0.3481(5)
C15 C -0.1027(6) 0.3464(5) 0.3965(5)
C16 C -0.5193(5) -0.0813(6) 0.3465(4)
N3 N -0.4580(5) -0.4045(5) 0.3709(4)
C17 C -0.3706(5) 0.2298(5) -0.0002(4)
C18 C 0.1733(5) 0.1963(6) 0.1888(5)
C19 C -0.2994(6) 0.5388(5) 0.0806(4)
C20 C 0.1094(5) -0.0418(6) 0.3102(7)
C21 C 0.1253(6) -0.0542(7) 0.1860(7)
C22 C 0.1575(6) 0.0648(8) 0.1269(5)
H1 H -0.4309 0.2938 0.2195
H2 H -0.5593 0.1050 0.3380
H3 H -0.2302 -0.1333 0.2325
H4 H 0.1125 0.0974 0.4595
H5 H -0.1147 0.4809 0.0565
H6 H -0.2643 0.4401 0.3833
H7 H -0.1036 0.6040 0.2785
H8 H -0.1842 0.0997 0.1798
H9 H 0.1720 0.3459 0.4689
H10 H 0.2592 0.4250 0.3654
H11 H -0.6067 -0.1287 0.3881
H12 H -0.4145 0.1290 0.0073
H13 H -0.4513 0.2677 -0.0098
H14 H -0.3152 0.2428 -0.0716
H15 H 0.1958 0.2793 0.1456
H16 H -0.3451 0.5101 -0.0044
H17 H -0.3789 0.5150 0.1345
H18 H -0.2430 0.6410 0.0939
H19 H 0.0875 -0.1246 0.3536
H20 H 0.1137 -0.1459 0.1417
H21 H 0.1709 0.0561 0.0402
loop_
_geom_bond_atom_site_label_1
_geom_bond_atom_site_label_2
_geom_bond_site_symmetry_1
_geom_bond_site_symmetry_2
N1 C6 1_555 1_555
O1 C6 1_555 1_555
C1 C2 1_555 1_555
O2 C15 1_555 1_555
C2 C3 1_555 1_555
C3 C16 1_555 1_555
N2 C1 1_555 1_555
C4 C5 1_555 1_555
C5 C14 1_555 1_555
C6 C11 1_555 1_555
C7 C10 1_555 1_555
C8 N2 1_555 1_555
C9 C1 1_555 1_555
C10 C13 1_555 1_555
C11 C8 1_555 1_555
C12 C2 1_555 1_555
C13 N1 1_555 1_555
C14 N3 1_555 1_555
C15 N1 1_555 1_555
C16 C5 1_555 1_555
C17 N2 1_555 1_555
C18 C10 1_555 1_555
C19 C8 1_555 1_555
C20 C7 1_555 1_555
C21 C20 1_555 1_555
C22 C18 1_555 1_555
H1 C1 1_555 1_555
H2 C3 1_555 1_555
H3 C4 1_555 1_555
H4 C7 1_555 1_555
H5 C8 1_555 1_555
H6 C9 1_555 1_555
H7 C11 1_555 1_555
H8 C12 1_555 1_555
H9 C13 1_555 1_555
H10 C13 1_555 1_555
H11 C16 1_555 1_555
H12 C17 1_555 1_555
H13 C17 1_555 1_555
H14 C17 1_555 1_555
H15 C18 1_555 1_555
H16 C19 1_555 1_555
H17 C19 1_555 1_555
H18 C19 1_555 1_555
H19 C20 1_555 1_555
H20 C21 1_555 1_555
H21 C22 1_555 1_555
C4 C12 1_555 1_555
C9 C11 1_555 1_555
C9 C15 1_555 1_555
C21 C22 1_555 1_555

#END
