
#######################################################################
#
#                 Cambridge Crystallographic Data Centre
#                                CCDC 
#
#######################################################################
#
# If this CIF has been generated from an entry in the Cambridge 
# Structural Database, then it will include bibliographic, chemical, 
# crystal, experimental, refinement or atomic coordinate data resulting 
# from the CCDC's data processing and validation procedures.
#
#######################################################################

data_ZEBXIP
_chemical_name_common            'rac-Oxiracetam gallic acid'
_chemical_formula_moiety         'C6 H10 N2 O3,C7 H6 O5'
_chemical_name_systematic        
'(RS)-2-(4-Hydroxy-2-oxopyrrolidin-1-yl)acetamide 3,4,5-trihydroxybenzoic acid'
_chemical_properties_biological  'Oxiracetam is a nootropic drug'
_symmetry_cell_setting           monoclinic
_symmetry_space_group_name_H-M   'P 21/c'
_symmetry_Int_Tables_number      14
_space_group_name_Hall           '-P 2ybc'
loop_
_symmetry_equiv_pos_site_id
_symmetry_equiv_pos_as_xyz
1 x,y,z
2 -x,1/2+y,1/2-z
3 -x,-y,-z
4 x,1/2-y,1/2+z
_cell_length_a                   12.6137(10)
_cell_length_b                   8.9398(7)
_cell_length_c                   12.5452(8)
_cell_angle_alpha                90
_cell_angle_beta                 103.580(7)
_cell_angle_gamma                90
_cell_volume                     1375.1
_exptl_crystal_colour            colorless
_exptl_crystal_description       prism
_cell_formula_units_Z            4
loop_
_atom_site_label
_atom_site_type_symbol
_atom_site_fract_x
_atom_site_fract_y
_atom_site_fract_z
C1 C -0.0442(2) 0.1748(3) 0.60344(19)
C2 C 0.03751(19) 0.2809(3) 0.57986(19)
C3 C 0.0429(2) 0.3125(3) 0.47224(19)
H1 H -0.0076 0.2681 0.4124
C4 C 0.1220(2) 0.4086(3) 0.45325(19)
C5 C 0.1979(2) 0.4738(3) 0.54038(19)
C6 C 0.19210(19) 0.4391(3) 0.64857(19)
C7 C 0.1112(2) 0.3458(3) 0.66757(19)
H2 H 0.1060 0.3259 0.7406
O1 O -0.04694(15) 0.1336(2) 0.69585(14)
O2 O -0.11490(15) 0.1261(2) 0.51551(14)
H3 H -0.1566 0.0631 0.5341
O3 O 0.13145(14) 0.4465(2) 0.35034(13)
H4 H 0.0756 0.4181 0.3040
O4 O 0.27590(15) 0.5640(2) 0.51724(14)
H5 H 0.2999 0.6209 0.5707
O5 O 0.27021(14) 0.5032(2) 0.72997(13)
H6 H 0.2623 0.4739 0.7912
O6 O 0.35484(14) 0.8183(2) 0.62904(14)
C8 C 0.30341(19) 0.8916(3) 0.68413(19)
C9 C 0.2845(2) 1.0582(3) 0.6669(2)
H7 H 0.2074 1.0750 0.6286
H8 H 0.2968 1.1076 0.7395
C10 C 0.3298(2) 1.1367(3) 0.4952(2)
C11 C 0.4122(2) 1.2331(3) 0.4597(2)
H9 H 0.3801 1.3313 0.4334
H10 H 0.4387 1.1843 0.4001
C12 C 0.4501(3) 1.2135(4) 0.6563(2)
H11 H 0.4983 1.1534 0.7142
H12 H 0.4290 1.3056 0.6900
N1 N 0.2582(2) 0.8323(3) 0.7590(2)
H13 H 0.2636 0.7355 0.7721
H14 H 0.2225 0.8894 0.7958
N2 N 0.35385(18) 1.1281(2) 0.60444(16)
O7 O 0.24969(14) 1.0760(2) 0.43333(14)
C13 C 0.5088(13) 1.253(2) 0.5654(11)
H15 H 0.5426 1.3550 0.5730
O8 O 0.5806(2) 1.1400(3) 0.5643(2)
H16 H 0.6060 1.1477 0.5084
C14? C 0.489(3) 1.260(4) 0.558(3)
H17? H 0.5710 1.4397 0.5758
H18? H 0.5582 1.2068 0.5575
O9? O 0.5119(9) 1.4140(9) 0.5903(7)
loop_
_geom_bond_atom_site_label_1
_geom_bond_atom_site_label_2
_geom_bond_site_symmetry_1
_geom_bond_site_symmetry_2
C1 C2 1_555 1_555
C2 C3 1_555 1_555
C3 H1 1_555 1_555
C4 C3 1_555 1_555
C5 C4 1_555 1_555
C6 C5 1_555 1_555
C7 C2 1_555 1_555
H2 C7 1_555 1_555
O1 C1 1_555 1_555
O2 C1 1_555 1_555
H3 O2 1_555 1_555
O3 C4 1_555 1_555
H4 O3 1_555 1_555
O4 C5 1_555 1_555
H5 O4 1_555 1_555
O5 C6 1_555 1_555
H6 O5 1_555 1_555
O6 C8 1_555 1_555
C8 C9 1_555 1_555
C9 H7 1_555 1_555
H8 C9 1_555 1_555
C10 C11 1_555 1_555
C11 H9 1_555 1_555
H10 C11 1_555 1_555
C12 H11 1_555 1_555
H12 C12 1_555 1_555
N1 C8 1_555 1_555
H13 N1 1_555 1_555
H14 N1 1_555 1_555
N2 C9 1_555 1_555
O7 C10 1_555 1_555
C13 C11 1_555 1_555
H15 C13 1_555 1_555
O8 C13 1_555 1_555
H16 O8 1_555 1_555
C6 C7 1_555 1_555
C10 N2 1_555 1_555
C12 N2 1_555 1_555
C12 C13 1_555 1_555

#END
