
#######################################################################
#
#                 Cambridge Crystallographic Data Centre
#                                CCDC 
#
#######################################################################
#
# If this CIF has been generated from an entry in the Cambridge 
# Structural Database, then it will include bibliographic, chemical, 
# crystal, experimental, refinement or atomic coordinate data resulting 
# from the CCDC's data processing and validation procedures.
#
#######################################################################

data_ZECMUP
_chemical_formula_moiety         'C28 H32 S16,C1 S2'
_chemical_name_systematic        
'2,7,9,14,15,20,21,26-Octathia-1(2,7,3,6),8(2,3,7,6)ditetrathiafulvalena-tricyclo(6.6.6.6)hexacosaphane carbon disulfide'
_symmetry_cell_setting           monoclinic
_symmetry_space_group_name_H-M   'P 21/n'
_symmetry_Int_Tables_number      14
_space_group_name_Hall           '-P 2yn'
loop_
_symmetry_equiv_pos_site_id
_symmetry_equiv_pos_as_xyz
1 x,y,z
2 1/2-x,1/2+y,1/2-z
3 -x,-y,-z
4 1/2+x,1/2-y,1/2+z
_cell_length_a                   20.343(7)
_cell_length_b                   11.634(1)
_cell_length_c                   18.425(3)
_cell_angle_alpha                90
_cell_angle_beta                 105.93(2)
_cell_angle_gamma                90
_cell_volume                     4193.19
_exptl_crystal_colour            'pale yellow'
_chemical_melting_point          295deg.C(dec)
_cell_formula_units_Z            4
loop_
_atom_site_label
_atom_site_type_symbol
_atom_site_fract_x
_atom_site_fract_y
_atom_site_fract_z
S1 S 0.34523(6) 0.2088(1) 0.63161(6)
C1 C 0.40767(22) 0.2825(4) 0.60023(25)
S2 S 0.47433(6) 0.3513(1) 0.66559(6)
C2 C 0.43066(31) 0.4395(6) 0.71959(32)
C3 C 0.37220(31) 0.5135(5) 0.67368(37)
C4 C 0.39106(31) 0.5991(5) 0.62031(29)
C5 C 0.43053(28) 0.7031(5) 0.65616(32)
S3 S 0.38384(6) 0.8026(1) 0.70001(6)
C6 C 0.31604(23) 0.8429(4) 0.62338(25)
S4 S 0.33450(6) 0.8897(1) 0.54037(6)
C7 C 0.24878(23) 0.8900(4) 0.48688(26)
S5 S 0.19155(6) 0.8984(1) 0.54194(6)
C8 C 0.25071(23) 0.8482(4) 0.62460(25)
S6 S 0.21992(6) 0.8152(1) 0.70160(6)
C9 C 0.15752(26) 0.7045(5) 0.65912(31)
C10 C 0.19048(31) 0.6029(5) 0.62804(37)
C11 C 0.13649(32) 0.5238(5) 0.57518(32)
C12 C 0.09990(32) 0.4522(5) 0.61739(35)
S7 S 0.04610(6) 0.34455(1) 0.55673(9)
C13 C 0.10665(23) 0.2721(4) 0.52362(28)
S8 S 0.17763(6) 0.2125(1) 0.59144(6)
C14 C 0.22336(23) 0.1911(4) 0.52467(23)
S9 S 0.16957(6) 0.1710(1) 0.43320(6)
C15 C 0.10298(22) 0.2536(4) 0.45077(25)
S10 S 0.03574(6) 0.2947(1) 0.37431(7)
C16 C 0.07982(28) 0.3517(5) 0.30887(29)
C17 C 0.13163(23) 0.4458(4) 0.33982(29)
C18 C 0.10393(26) 0.5537(4) 0.36625(26)
C19 C 0.05924(25) 0.6278(5) 0.30484(29)
S11 S 0.10192(6) 0.6856(1) 0.23789(6)
C20 C 0.16584(23) 0.7683(4) 0.29614(23)
S12 S 0.14393(6) 0.8692(1) 0.35782(7)
C21 C 0.22944(23) 0.8831(4) 0.41108(28)
S13 S 0.28586(6) 0.8678(1) 0.35562(6)
C22 C 0.23155(23) 0.7696(4) 0.29512(23)
S14 S 0.26508(6) 0.6867(1) 0.23486(6)
C23 C 0.33320(25) 0.6122(5) 0.30399(28)
C24 C 0.30603(25) 0.5418(5) 0.35888(29)
C25 C 0.36204(26) 0.4951(4) 0.42544(25)
C26 C 0.40547(25) 0.4049(5) 0.40305(25)
S15 S 0.46177(6) 0.3302(1) 0.48261(6)
C27 C 0.40324(22) 0.2732(4) 0.52610(25)
S16 S 0.33576(6) 0.1879(1) 0.47146(6)
C28 C 0.29082(23) 0.1934(4) 0.54016(23)
H1 H 0.461(3) 0.498(6) 0.741(4)
H2 H 0.413(3) 0.386(6) 0.747(4)
H3 H 0.339(3) 0.453(6) 0.643(4)
H4 H 0.361(3) 0.566(6) 0.709(4)
H5 H 0.422(3) 0.552(5) 0.594(3)
H6 H 0.345(3) 0.629(5) 0.587(3)
H7 H 0.447(3) 0.743(5) 0.621(3)
H8 H 0.471(3) 0.673(5) 0.696(4)
H9 H 0.135(3) 0.688(5) 0.698(3)
H10 H 0.125(3) 0.736(5) 0.620(4)
H11 H 0.204(3) 0.585(6) 0.682(4)
H12 H 0.225(3) 0.631(5) 0.605(4)
H13 H 0.166(3) 0.472(5) 0.552(3)
H14 H 0.102(3) 0.576(5) 0.537(4)
H15 H 0.067(3) 0.493(5) 0.635(4)
H16 H 0.141(3) 0.434(5) 0.661(4)
H17 H 0.108(3) 0.285(5) 0.295(3)
H18 H 0.043(3) 0.381(5) 0.270(3)
H19 H 0.155(3) 0.463(5) 0.301(3)
H20 H 0.166(3) 0.414(5) 0.379(3)
H21 H 0.144(3) 0.601(5) 0.395(3)
H22 H 0.071(3) 0.528(5) 0.404(3)
H23 H 0.026(3) 0.581(5) 0.274(3)
H24 H 0.041(3) 0.693(5) 0.331(3)
H25 H 0.353(3) 0.568(5) 0.273(3)
H26 H 0.368(3) 0.672(5) 0.335(3)
H27 H 0.280(3) 0.595(5) 0.382(3)
H28 H 0.277(3) 0.481(5) 0.330(3)
H29 H 0.389(3) 0.561(5) 0.451(3)
H30 H 0.337(3) 0.459(5) 0.462(3)
H31 H 0.376(3) 0.347(5) 0.372(3)
H32 H 0.440(3) 0.436(5) 0.379(3)
S17 S 0.52467(13) 0.0272(2) 0.58348(14)
C29 C 0.50000 0.0000 0.50000
S17B S 0.47533(13) -0.0272(2) 0.41652(14)
S18 S 0.51709(16) 0.4860(3) 0.08374(14)
C30 C 0.50000 0.5000 0.00000
S18B S 0.48291(16) 0.5140(3) -0.08374(14)
loop_
_geom_bond_atom_site_label_1
_geom_bond_atom_site_label_2
_geom_bond_site_symmetry_1
_geom_bond_site_symmetry_2
S1 C1 1_555 1_555
C1 S2 1_555 1_555
S2 C2 1_555 1_555
C2 C3 1_555 1_555
C3 C4 1_555 1_555
C4 C5 1_555 1_555
C5 S3 1_555 1_555
S3 C6 1_555 1_555
C6 S4 1_555 1_555
S4 C7 1_555 1_555
C7 S5 1_555 1_555
S5 C8 1_555 1_555
C8 C6 1_555 1_555
S6 C8 1_555 1_555
C9 S6 1_555 1_555
C10 C9 1_555 1_555
C11 C10 1_555 1_555
C12 C11 1_555 1_555
S7 C12 1_555 1_555
C13 S7 1_555 1_555
S8 C13 1_555 1_555
C14 S8 1_555 1_555
S9 C14 1_555 1_555
C15 C13 1_555 1_555
S10 C15 1_555 1_555
C16 S10 1_555 1_555
C17 C16 1_555 1_555
C18 C17 1_555 1_555
C19 C18 1_555 1_555
S11 C19 1_555 1_555
C20 S11 1_555 1_555
S12 C20 1_555 1_555
C21 C7 1_555 1_555
S13 C21 1_555 1_555
C22 C20 1_555 1_555
S14 C22 1_555 1_555
C23 S14 1_555 1_555
C24 C23 1_555 1_555
C25 C24 1_555 1_555
C26 C25 1_555 1_555
S15 C26 1_555 1_555
C27 C1 1_555 1_555
S16 C27 1_555 1_555
C28 S1 1_555 1_555
H1 C2 1_555 1_555
H2 C2 1_555 1_555
H3 C3 1_555 1_555
H4 C3 1_555 1_555
H5 C4 1_555 1_555
H6 C4 1_555 1_555
H7 C5 1_555 1_555
H8 C5 1_555 1_555
H9 C9 1_555 1_555
H10 C9 1_555 1_555
H11 C10 1_555 1_555
H12 C10 1_555 1_555
H13 C11 1_555 1_555
H14 C11 1_555 1_555
H15 C12 1_555 1_555
H16 C12 1_555 1_555
H17 C16 1_555 1_555
H18 C16 1_555 1_555
H19 C17 1_555 1_555
H20 C17 1_555 1_555
H21 C18 1_555 1_555
H22 C18 1_555 1_555
H23 C19 1_555 1_555
H24 C19 1_555 1_555
H25 C23 1_555 1_555
H26 C23 1_555 1_555
H27 C24 1_555 1_555
H28 C24 1_555 1_555
H29 C25 1_555 1_555
H30 C25 1_555 1_555
H31 C26 1_555 1_555
H32 C26 1_555 1_555
S17 C29 1_555 1_555
C29 S17B 1_555 1_555
S18 C30 1_555 1_555
C30 S18B 1_555 1_555
C14 C28 1_555 1_555
S9 C15 1_555 1_555
S12 C21 1_555 1_555
S13 C22 1_555 1_555
S15 C27 1_555 1_555
S16 C28 1_555 1_555

#END
