
#######################################################################
#
#                 Cambridge Crystallographic Data Centre
#                                CCDC 
#
#######################################################################
#
# If this CIF has been generated from an entry in the Cambridge 
# Structural Database, then it will include bibliographic, chemical, 
# crystal, experimental, refinement or atomic coordinate data resulting 
# from the CCDC's data processing and validation procedures.
#
#######################################################################

data_ZEDDAQ
_chemical_formula_moiety         'C17 H21 N1 O3 S1'
_chemical_name_systematic        
1-(4-(but-2-en-1-yl)-1-((4-methylphenyl)sulfonyl)-4,5-dihydro-1H-pyrrol-3-yl)ethanone
_symmetry_cell_setting           orthorhombic
_symmetry_space_group_name_H-M   'P 21 21 21'
_symmetry_Int_Tables_number      19
_space_group_name_Hall           'P 2ac 2ab'
loop_
_symmetry_equiv_pos_site_id
_symmetry_equiv_pos_as_xyz
1 x,y,z
2 1/2-x,-y,1/2+z
3 -x,1/2+y,1/2-z
4 1/2+x,1/2-y,-z
_cell_length_a                   8.1166(5)
_cell_length_b                   13.7700(8)
_cell_length_c                   15.4267(9)
_cell_angle_alpha                90
_cell_angle_beta                 90
_cell_angle_gamma                90
_cell_volume                     1724.17
_exptl_crystal_colour            colorless
_exptl_crystal_description       block
_cell_formula_units_Z            4
loop_
_atom_site_label
_atom_site_type_symbol
_atom_site_fract_x
_atom_site_fract_y
_atom_site_fract_z
S1 S 1.00009(7) 0.13178(4) 0.49102(4)
O1 O 0.9491(3) 0.21487(12) 0.44304(11)
O2 O 1.14431(19) 0.07901(16) 0.46655(13)
O3 O 0.9238(3) 0.30354(18) 0.85493(14)
N1 N 1.0352(2) 0.17088(14) 0.58971(13)
C1 C 0.8358(2) 0.05027(15) 0.49817(15)
C2 C 0.8635(3) -0.04750(17) 0.51126(18)
H1 H 0.9703 -0.0713 0.5164
C3 C 0.7312(3) -0.10905(17) 0.51662(18)
H2 H 0.7497 -0.1750 0.5251
C4 C 0.5713(3) -0.07589(18) 0.50982(19)
C5 C 0.5473(3) 0.02197(19) 0.4985(2)
H3 H 0.4404 0.0460 0.4950
C6 C 0.6777(3) 0.08507(17) 0.49218(19)
H4 H 0.6590 0.1511 0.4839
C7 C 0.4268(4) -0.1453(2) 0.5137(2)
H5 H 0.3259 -0.1097 0.5074
H6 H 0.4269 -0.1784 0.5685
H7 H 0.4359 -0.1920 0.4677
C8 C 0.9380(3) 0.23951(16) 0.63125(17)
H8 H 0.8633 0.2797 0.6030
C9 C 0.9644(3) 0.24097(17) 0.71634(16)
C10 C 1.0971(3) 0.16782(19) 0.74001(16)
H9 H 1.0599 0.1271 0.7883
C11 C 1.1080(3) 0.10702(19) 0.65641(17)
H10 H 1.2216 0.0915 0.6426
H11 H 1.0459 0.0472 0.6619
C12 C 0.8847(4) 0.3055(2) 0.7787(2)
C13 C 0.7534(5) 0.3732(2) 0.7478(2)
H12 H 0.7128 0.4106 0.7958
H13 H 0.6647 0.3364 0.7230
H14 H 0.7983 0.4161 0.7049
C14 C 1.2634(3) 0.2150(2) 0.76206(18)
H15 H 1.3018 0.2519 0.7125
H16 H 1.2488 0.2597 0.8100
C15 C 1.3905(3) 0.1409(2) 0.78587(19)
H17 H 1.3748 0.1071 0.8374
C16 C 1.5206(4) 0.1198(2) 0.74105(19)
H18 H 1.5387 0.1563 0.6912
C17 C 1.6446(4) 0.0426(3) 0.7612(2)
H19 H 1.7291 0.0428 0.7177
H20 H 1.5913 -0.0196 0.7620
H21 H 1.6930 0.0551 0.8169
loop_
_geom_bond_atom_site_label_1
_geom_bond_atom_site_label_2
_geom_bond_site_symmetry_1
_geom_bond_site_symmetry_2
S1 O1 1_555 1_555
O2 S1 1_555 1_555
O3 C12 1_555 1_555
N1 S1 1_555 1_555
C1 S1 1_555 1_555
C2 C1 1_555 1_555
H1 C2 1_555 1_555
C3 C2 1_555 1_555
H2 C3 1_555 1_555
C4 C3 1_555 1_555
C5 C4 1_555 1_555
H3 C5 1_555 1_555
C6 C1 1_555 1_555
H4 C6 1_555 1_555
C7 C4 1_555 1_555
H5 C7 1_555 1_555
H6 C7 1_555 1_555
H7 C7 1_555 1_555
C8 N1 1_555 1_555
H8 C8 1_555 1_555
C9 C8 1_555 1_555
C10 C9 1_555 1_555
H9 C10 1_555 1_555
C11 N1 1_555 1_555
H10 C11 1_555 1_555
H11 C11 1_555 1_555
C12 C9 1_555 1_555
C13 C12 1_555 1_555
H12 C13 1_555 1_555
H13 C13 1_555 1_555
H14 C13 1_555 1_555
C14 C10 1_555 1_555
H15 C14 1_555 1_555
H16 C14 1_555 1_555
C15 C14 1_555 1_555
H17 C15 1_555 1_555
C16 C15 1_555 1_555
H18 C16 1_555 1_555
C17 C16 1_555 1_555
H19 C17 1_555 1_555
H20 C17 1_555 1_555
H21 C17 1_555 1_555
C5 C6 1_555 1_555
C10 C11 1_555 1_555

#END
