
#######################################################################
#
#                 Cambridge Crystallographic Data Centre
#                                CCDC 
#
#######################################################################
#
# If this CIF has been generated from an entry in the Cambridge 
# Structural Database, then it will include bibliographic, chemical, 
# crystal, experimental, refinement or atomic coordinate data resulting 
# from the CCDC's data processing and validation procedures.
#
#######################################################################

data_ZEDWIQ
_chemical_formula_moiety         'C33 H8 B1 Cl1 F18,0.5(C6 H14)'
_chemical_name_systematic        
'(2-(4-Chlorophenyl)-1-(pentafluorophenyl)-2-(4-(trifluoromethyl)phenyl)vinyl)(bis(pentafluorophenyl))borane hexane solvate'
_symmetry_cell_setting           monoclinic
_symmetry_space_group_name_H-M   'P 21/c'
_symmetry_Int_Tables_number      14
_space_group_name_Hall           '-P 2ybc'
loop_
_symmetry_equiv_pos_site_id
_symmetry_equiv_pos_as_xyz
1 x,y,z
2 -x,1/2+y,1/2-z
3 -x,-y,-z
4 x,1/2-y,1/2+z
_cell_length_a                   10.7455(5)
_cell_length_b                   16.6985(7)
_cell_length_c                   18.4110(9)
_cell_angle_alpha                90
_cell_angle_beta                 92.803(2)
_cell_angle_gamma                90
_cell_volume                     3299.6
_cell_formula_units_Z            4
loop_
_atom_site_label
_atom_site_type_symbol
_atom_site_fract_x
_atom_site_fract_y
_atom_site_fract_z
B1 B 0.6242(2) 0.72387(15) 0.96873(13)
Cl1 Cl 1.19713(7) 0.76294(5) 1.05362(5)
F1 F 0.74525(15) 0.85554(9) 1.04448(9)
F2 F 0.85570(17) 0.85006(12) 1.17746(9)
F3 F 0.85524(18) 0.71187(15) 1.25544(9)
F4 F 0.7429(2) 0.57942(12) 1.19819(9)
F5 F 0.63277(16) 0.58263(9) 1.06564(8)
F6 F 0.62228(15) 0.79340(9) 0.82376(7)
F7 F 0.51002(18) 0.92946(10) 0.78328(9)
F8 F 0.36956(19) 1.01063(11) 0.87777(13)
F9 F 0.35031(16) 0.95599(11) 1.01560(11)
F10 F 0.46842(14) 0.82208(10) 1.05868(8)
F11 F 0.40754(14) 0.62755(10) 0.97876(7)
F12 F 0.19251(15) 0.59083(12) 0.90399(9)
F13 F 0.18724(15) 0.57989(11) 0.75705(9)
F14 F 0.39959(16) 0.59897(11) 0.68554(8)
F15 F 0.61529(14) 0.63214(9) 0.75899(7)
F16 F 0.8838(2) 0.27271(14) 0.77097(15)
F17 F 0.8192(4) 0.33733(17) 0.67609(14)
F18 F 0.6927(2) 0.27818(14) 0.74047(17)
C1 C 0.6833(2) 0.71993(13) 1.04881(12)
C2 C 0.7415(2) 0.78627(15) 1.08144(13)
C3 C 0.7993(2) 0.78490(18) 1.14975(14)
C4 C 0.7990(2) 0.7150(2) 1.18901(13)
C5 C 0.7418(3) 0.64773(18) 1.15993(13)
C6 C 0.6859(2) 0.65066(15) 1.09112(12)
C7 C 0.5500(2) 0.80088(13) 0.94331(12)
C8 C 0.5551(2) 0.83137(14) 0.87331(13)
C9 C 0.4982(3) 0.90197(15) 0.85105(15)
C10 C 0.4273(3) 0.94322(16) 0.89874(18)
C11 C 0.4177(2) 0.91505(16) 0.96820(17)
C12 C 0.4794(2) 0.84605(15) 0.98976(14)
C13 C 0.5196(2) 0.62932(12) 0.87201(11)
C14 C 0.4080(2) 0.61977(14) 0.90598(12)
C15 C 0.2973(2) 0.60185(16) 0.86881(14)
C16 C 0.2945(2) 0.59517(15) 0.79409(14)
C17 C 0.4026(2) 0.60466(15) 0.75804(12)
C18 C 0.5129(2) 0.62147(13) 0.79655(12)
C19 C 0.8597(2) 0.64693(13) 0.94373(11)
C20 C 0.8922(2) 0.72508(14) 0.92709(12)
H1 H 0.8426 0.7544 0.8923
C21 C 0.9962(2) 0.76079(15) 0.96067(14)
H2 H 1.0189 0.8139 0.9485
C22 C 1.0664(2) 0.71816(15) 1.01204(14)
C23 C 1.0366(2) 0.64021(15) 1.02993(14)
H3 H 1.0854 0.6118 1.0658
C24 C 0.9338(2) 0.60426(13) 0.99449(13)
H4 H 0.9139 0.5502 1.0050
C25 C 0.7588(2) 0.53540(13) 0.86885(12)
C26 C 0.8582(2) 0.52595(15) 0.82337(13)
H5 H 0.9182 0.5674 0.8200
C27 C 0.8695(3) 0.45656(17) 0.78334(15)
H6 H 0.9365 0.4506 0.7519
C28 C 0.7832(3) 0.39574(16) 0.78905(15)
C29 C 0.6868(2) 0.40265(15) 0.83611(14)
H7 H 0.6297 0.3598 0.8413
C30 C 0.6748(2) 0.47284(14) 0.87555(12)
H8 H 0.6084 0.4782 0.9074
C31 C 0.6354(2) 0.65135(13) 0.91566(11)
C32 C 0.7444(2) 0.61139(13) 0.90971(11)
C33 C 0.7953(3) 0.31997(19) 0.7436(2)
C34 C 0.8616(8) -0.0479(4) 0.8824(4)
H9 H 0.8186 -0.0345 0.8358
H10 H 0.8002 -0.0545 0.9196
H11 H 0.9080 -0.0980 0.8774
C35 C 0.9373(6) 0.0085(4) 0.9012(3)
H12 H 0.8870 0.0582 0.9003
H13 H 0.9949 0.0134 0.8611
C36 C 1.0138(6) 0.0121(4) 0.9667(3)
H14 H 1.0911 -0.0169 0.9558
H15 H 1.0377 0.0691 0.9722
C34B C 1.1384(8) 0.0479(4) 1.1176(4)
H9B H 1.1814 0.0345 1.1642
H10B H 1.1998 0.0545 1.0804
H11B H 1.0920 0.0980 1.1226
C35B C 1.0627(6) -0.0085(4) 1.0988(3)
H12B H 1.1130 -0.0582 1.0997
H13B H 1.0051 -0.0134 1.1389
C36B C 0.9862(6) -0.0121(4) 1.0333(3)
H14B H 0.9089 0.0169 1.0442
H15B H 0.9623 -0.0691 1.0278
loop_
_geom_bond_atom_site_label_1
_geom_bond_atom_site_label_2
_geom_bond_site_symmetry_1
_geom_bond_site_symmetry_2
B1 C1 1_555 1_555
Cl1 C22 1_555 1_555
F1 C2 1_555 1_555
F2 C3 1_555 1_555
F3 C4 1_555 1_555
F4 C5 1_555 1_555
F5 C6 1_555 1_555
F6 C8 1_555 1_555
F7 C9 1_555 1_555
F8 C10 1_555 1_555
F9 C11 1_555 1_555
F10 C12 1_555 1_555
F11 C14 1_555 1_555
F12 C15 1_555 1_555
F13 C16 1_555 1_555
F14 C17 1_555 1_555
F15 C18 1_555 1_555
F16 C33 1_555 1_555
F17 C33 1_555 1_555
F18 C33 1_555 1_555
C1 C2 1_555 1_555
C2 C3 1_555 1_555
C3 C4 1_555 1_555
C4 C5 1_555 1_555
C5 C6 1_555 1_555
C6 C1 1_555 1_555
C7 B1 1_555 1_555
C8 C7 1_555 1_555
C9 C8 1_555 1_555
C10 C9 1_555 1_555
C11 C10 1_555 1_555
C12 C7 1_555 1_555
C13 C14 1_555 1_555
C14 C15 1_555 1_555
C15 C16 1_555 1_555
C16 C17 1_555 1_555
C17 C18 1_555 1_555
C18 C13 1_555 1_555
C19 C20 1_555 1_555
C20 H1 1_555 1_555
C21 C20 1_555 1_555
H2 C21 1_555 1_555
C22 C21 1_555 1_555
C23 C22 1_555 1_555
H3 C23 1_555 1_555
C24 C19 1_555 1_555
H4 C24 1_555 1_555
C25 C26 1_555 1_555
C26 H5 1_555 1_555
C27 C26 1_555 1_555
H6 C27 1_555 1_555
C28 C27 1_555 1_555
C29 C28 1_555 1_555
H7 C29 1_555 1_555
C30 C25 1_555 1_555
H8 C30 1_555 1_555
C31 B1 1_555 1_555
C32 C19 1_555 1_555
C33 C28 1_555 1_555
C34 H9 1_555 1_555
H10 C34 1_555 1_555
H11 C34 1_555 1_555
C35 C34 1_555 1_555
H12 C35 1_555 1_555
H13 C35 1_555 1_555
C36 C35 1_555 1_555
H14 C36 1_555 1_555
H15 C36 1_555 1_555
C34B H9B 1_555 1_555
H10B C34B 1_555 1_555
H11B C34B 1_555 1_555
C35B C34B 1_555 1_555
H12B C35B 1_555 1_555
H13B C35B 1_555 1_555
C36B C36 1_555 1_555
H14B C36B 1_555 1_555
H15B C36B 1_555 1_555
C11 C12 1_555 1_555
C13 C31 1_555 1_555
C23 C24 1_555 1_555
C25 C32 1_555 1_555
C29 C30 1_555 1_555
C31 C32 1_555 1_555
C35B C36B 1_555 1_555

#END
