
#######################################################################
#
#                 Cambridge Crystallographic Data Centre
#                                CCDC 
#
#######################################################################
#
# If this CIF has been generated from an entry in the Cambridge 
# Structural Database, then it will include bibliographic, chemical, 
# crystal, experimental, refinement or atomic coordinate data resulting 
# from the CCDC's data processing and validation procedures.
#
#######################################################################

data_ZEFBUJ
_chemical_formula_moiety         'C8 H12 N12'
_chemical_name_systematic        
5,5'-Diazene-1,2-diylbis(N-isopropylidene-1H-tetrazol-1-amine)
_symmetry_cell_setting           monoclinic
_symmetry_space_group_name_H-M   'P 21/c'
_symmetry_Int_Tables_number      14
_space_group_name_Hall           '-P 2ybc'
loop_
_symmetry_equiv_pos_site_id
_symmetry_equiv_pos_as_xyz
1 x,y,z
2 -x,1/2+y,1/2-z
3 -x,-y,-z
4 x,1/2-y,1/2+z
_cell_length_a                   8.661(3)
_cell_length_b                   8.102(2)
_cell_length_c                   10.043(3)
_cell_angle_alpha                90
_cell_angle_beta                 115.001(3)
_cell_angle_gamma                90
_cell_volume                     638.699
_exptl_crystal_colour            orange
_exptl_crystal_description       block
_cell_formula_units_Z            2
loop_
_atom_site_label
_atom_site_type_symbol
_atom_site_fract_x
_atom_site_fract_y
_atom_site_fract_z
N1 N 0.70483(12) 0.34639(13) 0.42140(11)
N2 N 0.72697(13) 0.20750(13) 0.35765(11)
N3 N 0.59814(12) 0.10506(13) 0.32574(11)
N4 N 0.48977(11) 0.18051(12) 0.36845(10)
N5 N 0.34804(12) 0.09634(13) 0.37075(11)
N6 N 0.46379(11) 0.43112(12) 0.47865(10)
C1 C 0.55611(13) 0.32765(14) 0.42756(11)
C2 C 0.20759(14) 0.12428(14) 0.25804(12)
C3 C 0.05658(16) 0.03561(17) 0.25789(15)
H1 H 0.0921 -0.0334 0.3460
H2 H 0.0065 -0.0341 0.1702
H3 H -0.0281 0.1161 0.2574
C4 C 0.18457(14) 0.23398(15) 0.13152(13)
H4 H 0.2216 0.3461 0.1674
H5 H 0.0641 0.2357 0.0620
H6 H 0.2529 0.1922 0.0821
N1B N 0.29517(12) 0.65361(13) 0.57860(11)
N2B N 0.27303(13) 0.79250(13) 0.64235(11)
N3B N 0.40186(12) 0.89494(13) 0.67426(11)
N4B N 0.51023(11) 0.81949(12) 0.63155(10)
N5B N 0.65196(12) 0.90366(13) 0.62925(11)
N6B N 0.53621(11) 0.56888(12) 0.52135(10)
C1B C 0.44389(13) 0.67235(14) 0.57244(11)
C2B C 0.79241(14) 0.87572(14) 0.74196(12)
C3B C 0.94342(16) 0.96439(17) 0.74211(15)
H1B H 0.9079 1.0334 0.6540
H2B H 0.9935 1.0341 0.8298
H3B H 1.0281 0.8839 0.7426
C4B C 0.81543(14) 0.76602(15) 0.86848(13)
H4B H 0.7784 0.6539 0.8326
H5B H 0.9359 0.7643 0.9380
H6B H 0.7471 0.8078 0.9179
loop_
_geom_bond_atom_site_label_1
_geom_bond_atom_site_label_2
_geom_bond_site_symmetry_1
_geom_bond_site_symmetry_2
N1 N2 1_555 1_555
N2 N3 1_555 1_555
N3 N4 1_555 1_555
N4 N5 1_555 1_555
N5 C2 1_555 1_555
N6 C1 1_555 1_555
C1 N1 1_555 1_555
C2 C3 1_555 1_555
C3 H1 1_555 1_555
H2 C3 1_555 1_555
H3 C3 1_555 1_555
C4 C2 1_555 1_555
H4 C4 1_555 1_555
H5 C4 1_555 1_555
H6 C4 1_555 1_555
N1B N2B 1_555 1_555
N2B N3B 1_555 1_555
N3B N4B 1_555 1_555
N4B N5B 1_555 1_555
N5B C2B 1_555 1_555
N6B N6 1_555 1_555
C1B N1B 1_555 1_555
C2B C3B 1_555 1_555
C3B H1B 1_555 1_555
H2B C3B 1_555 1_555
H3B C3B 1_555 1_555
C4B C2B 1_555 1_555
H4B C4B 1_555 1_555
H5B C4B 1_555 1_555
H6B C4B 1_555 1_555
N4 C1 1_555 1_555
N4B C1B 1_555 1_555
N6B C1B 1_555 1_555

#END
