
#######################################################################
#
#                 Cambridge Crystallographic Data Centre
#                                CCDC 
#
#######################################################################
#
# If this CIF has been generated from an entry in the Cambridge 
# Structural Database, then it will include bibliographic, chemical, 
# crystal, experimental, refinement or atomic coordinate data resulting 
# from the CCDC's data processing and validation procedures.
#
#######################################################################

data_ZEFNAB
_chemical_formula_moiety         'C43 H51 N3 O11,1.5(H2 O1)'
_chemical_name_systematic        'Rifaximin alpha sesquihydrate'
_chemical_properties_biological  
'broad spectrum locally acting antibiotic against Gram-positive and Gram-negative, aerobic and anaerobic organisms'
_symmetry_cell_setting           monoclinic
_symmetry_space_group_name_H-M   'P 21'
_symmetry_Int_Tables_number      4
_space_group_name_Hall           'P 2yb'
loop_
_symmetry_equiv_pos_site_id
_symmetry_equiv_pos_as_xyz
1 x,y,z
2 -x,1/2+y,-z
_cell_length_a                   14.492(4)
_cell_length_b                   20.098(4)
_cell_length_c                   16.215(4)
_cell_angle_alpha                90
_cell_angle_beta                 111.21(3)
_cell_angle_gamma                90
_cell_volume                     4402.87
_cell_formula_units_Z            4
loop_
_atom_site_label
_atom_site_type_symbol
_atom_site_fract_x
_atom_site_fract_y
_atom_site_fract_z
C1 C 0.2170(10) 0.6264(7) 0.8787(11)
C2 C 0.1200(12) 0.6034(6) 0.8444(10)
C3 C 0.0449(8) 0.6394(8) 0.8580(10)
C4 C 0.0667(9) 0.6985(7) 0.9058(11)
C5 C 0.1637(11) 0.7215(6) 0.9401(10)
C6 C 0.2388(8) 0.6854(8) 0.9266(10)
C7 C 0.3421(12) 0.6991(10) 0.9707(14)
C8 C 0.4157(17) 0.6613(12) 0.9598(17)
C9 C 0.3928(17) 0.6016(12) 0.9101(16)
C10 C 0.2954(17) 0.5883(12) 0.8656(17)
C11 C -0.2003(18) 0.5695(13) 1.0633(18)
H1 H -0.2294 0.5399 1.0954
C12 C -0.0493(15) 0.5793(12) 1.1903(15)
H2 H -0.0596 0.6274 1.1927
C13 C -0.0826(19) 0.7446(13) 0.9226(16)
H3 H -0.1221 0.7076 0.8996
C14 C -0.127(2) 0.7976(14) 0.9483(19)
H4 H -0.1944 0.7975 0.9397
C15 C -0.0647(19) 0.8518(13) 0.9886(18)
C16 C 0.0409(17) 0.8509(12) 1.0052(16)
H5 H 0.0851 0.8838 1.0360
C17 C 0.0670(17) 0.7951(12) 0.9697(16)
C18 C 0.3948(18) 0.7495(13) 1.0298(17)
C19 C 0.504(2) 0.7417(14) 1.058(2)
C20 C -0.1325(19) 0.6331(14) 0.7700(18)
C21 C -0.2256(15) 0.5904(10) 0.7461(14)
C22 C -0.2581(17) 0.5638(12) 0.8072(16)
H6 H -0.3152 0.5380 0.7861
C23 C -0.2499(19) 0.5554(13) 0.9612(18)
H7 H -0.3109 0.5340 0.9411
C24 C -0.0950(15) 0.5615(11) 1.0973(15)
H8 H -0.0662 0.5886 1.0624
C25 C 0.0647(14) 0.5695(10) 1.2265(15)
H9 H 0.0905 0.5875 1.2868
C26 C 0.1278(16) 0.5968(11) 1.1782(16)
H10 H 0.1093 0.5735 1.1214
C27 C 0.2391(17) 0.5870(13) 1.2270(18)
H11 H 0.2487 0.5402 1.2450
C28 C 0.2967(19) 0.5985(13) 1.1727(18)
H12 H 0.2758 0.6427 1.1473
C29 C 0.4053(19) 0.6076(13) 1.2312(19)
H13 H 0.4126 0.6382 1.2803
C30 C 0.4664(18) 0.6306(13) 1.1770(18)
H14 H 0.4794 0.6036 1.1359
C31 C 0.5009(13) 0.6962(9) 1.1950(13)
H15 H 0.4872 0.7204 1.2381
C32 C 0.4842(13) 0.5607(9) 0.9118(13)
H16 H 0.5436 0.5826 0.9488
H17 H 0.4844 0.5571 0.8528
H18 H 0.4813 0.5170 0.9347
C33 C -0.108(2) 0.9160(15) 1.004(2)
H19 H -0.0558 0.9467 1.0332
H20 H -0.1470 0.9082 1.0396
H21 H -0.1493 0.9344 0.9478
C34 C 0.5619(17) 0.7968(12) 1.0343(17)
H22 H 0.5574 0.8370 1.0648
H23 H 0.5347 0.8044 0.9716
H24 H 0.6300 0.7839 1.0513
C35 C -0.281(2) 0.5822(15) 0.648(2)
H25 H -0.2465 0.6058 0.6161
H26 H -0.3465 0.5997 0.6323
H27 H -0.2841 0.5358 0.6328
C36 C -0.2347(16) 0.6426(10) 1.0690(16)
H28 H -0.3057 0.6446 1.0454
H29 H -0.2087 0.6714 1.0354
H30 H -0.2108 0.6567 1.1297
C37 C -0.095(2) 0.5491(13) 1.2510(19)
H31 H -0.0588 0.5630 1.3106
H32 H -0.0927 0.5014 1.2475
H33 H -0.1625 0.5633 1.2338
C38 C 0.0989(18) 0.6701(13) 1.1587(17)
H34 H 0.1367 0.6895 1.1270
H35 H 0.1122 0.6936 1.2134
H36 H 0.0296 0.6732 1.1237
C39 C 0.301(3) 0.597(2) 1.380(3)
C40 C 0.349(2) 0.6433(16) 1.460(2)
H37 H 0.3529 0.6877 1.4399
H38 H 0.4138 0.6276 1.4946
H39 H 0.3086 0.6435 1.4961
C41 C 0.2830(17) 0.5546(12) 1.0932(17)
H40 H 0.3264 0.5692 1.0640
H41 H 0.2156 0.5573 1.0530
H42 H 0.2983 0.5093 1.1123
C42 C 0.539(3) 0.5416(18) 1.326(2)
H43 H 0.5611 0.4969 1.3430
H44 H 0.5399 0.5661 1.3772
H45 H 0.5825 0.5627 1.3011
N1 N 0.0090(13) 0.7412(9) 0.9273(12)
N2 N 0.1603(15) 0.7783(9) 0.9777(12)
H46 H 0.2115 0.8023 1.0044
N3 N -0.0517(10) 0.6062(8) 0.8260(12)
H47 H -0.0556 0.5667 0.8450
O1 O 0.5136(10) 0.6826(10) 1.0136(12)
O2 O 0.2735(13) 0.5347(9) 0.8178(13)
O3 O 0.0957(12) 0.5491(9) 0.7925(13)
H48 H 0.1422 0.5387 0.7777
O4 O 0.3689(10) 0.8012(9) 1.0581(11)
O5 O -0.1401(10) 0.6901(8) 0.7380(10)
O6 O -0.0782(12) 0.4932(8) 1.0858(13)
H49 H -0.0186 0.4866 1.1001
O7 O 0.0827(15) 0.4961(8) 1.2329(13)
H50 H 0.1070 0.4848 1.1966
O8 O 0.2667(13) 0.6243(9) 1.3040(12)
O9 O 0.4436(14) 0.5405(10) 1.2639(14)
O10 O 0.5556(11) 0.7259(10) 1.1491(12)
O11 O 0.296(2) 0.5356(14) 1.3900(13)
C43 C -0.2120(18) 0.5715(12) 0.9044(17)
H51 H -0.1489 0.5900 0.9261
C44 C -0.046(2) 0.6627(13) 0.5932(18)
H52 H -0.0972 0.6912 0.5919
C45 C 0.1048(19) 0.5774(13) 0.5740(17)
H53 H 0.1532 0.5515 0.5644
C46 C 0.130(2) 0.6414(13) 0.6238(18)
C47 C 0.011(2) 0.5591(13) 0.5443(17)
C48 C -0.0603(18) 0.5986(12) 0.5514(16)
H54 H -0.1250 0.5830 0.5270
C49 C 0.2054(8) 0.7266(5) 0.7022(8)
C50 C 0.1058(8) 0.7319(6) 0.6906(8)
C51 C 0.0724(6) 0.7864(6) 0.7246(9)
C52 C 0.1386(7) 0.8356(6) 0.7703(9)
C53 C 0.2382(7) 0.8303(4) 0.7820(6)
C54 C 0.2716(6) 0.7757(4) 0.7479(6)
C55 C 0.3712(7) 0.7704(6) 0.7596(9)
C56 C 0.4374(7) 0.8196(7) 0.8053(9)
C57 C 0.4040(8) 0.8741(6) 0.8393(8)
C58 C 0.3044(9) 0.8794(5) 0.8277(8)
C59 C 0.4301(16) 0.7232(12) 0.7302(15)
C60 C 0.5385(17) 0.7539(12) 0.7693(17)
C61 C -0.0917(19) 0.8538(14) 0.6649(17)
C62 C -0.1994(17) 0.8489(12) 0.6424(17)
C63 C -0.2555(18) 0.8254(11) 0.5607(16)
H55 H -0.3217 0.8159 0.5494
C64 C -0.2187(19) 0.8147(12) 0.4929(18)
H56 H -0.1509 0.8198 0.5079
C65 C -0.2707(17) 0.7979(11) 0.4090(16)
H57 H -0.3389 0.7980 0.3942
C66 C -0.2379(16) 0.7792(10) 0.3358(16)
H58 H -0.2859 0.7950 0.2794
C67 C -0.1348(18) 0.8135(13) 0.3541(18)
H59 H -0.0915 0.7995 0.4133
C68 C -0.0795(18) 0.7966(13) 0.2905(18)
H60 H -0.0680 0.7484 0.2937
C69 C 0.0185(16) 0.8300(11) 0.3073(16)
H61 H 0.0464 0.8146 0.2638
C70 C 0.0905(14) 0.8121(10) 0.4025(15)
H62 H 0.0655 0.8313 0.4459
C71 C 0.1895(17) 0.8427(12) 0.4141(17)
H63 H 0.1802 0.8895 0.3959
C72 C 0.2697(15) 0.8375(11) 0.5076(15)
H64 H 0.2688 0.7924 0.5304
C73 C 0.3758(17) 0.8538(13) 0.5129(17)
H65 H 0.3898 0.8286 0.4671
C74 C 0.4557(16) 0.8344(12) 0.6071(17)
H66 H 0.4619 0.8622 0.6546
C75 C 0.5102(18) 0.7847(13) 0.6213(19)
H67 H 0.5074 0.7619 0.5706
C76 C 0.4732(16) 0.9345(11) 0.8838(16)
H68 H 0.4371 0.9660 0.9049
H69 H 0.4953 0.9555 0.8411
H70 H 0.5294 0.9188 0.9325
C77 C -0.0176(14) 0.4988(10) 0.4965(14)
H71 H 0.0399 0.4770 0.4932
H72 H -0.0630 0.5082 0.4378
H73 H -0.0490 0.4703 0.5261
C78 C 0.6116(15) 0.7094(10) 0.8370(15)
H74 H 0.6138 0.6669 0.8109
H75 H 0.5914 0.7038 0.8868
H76 H 0.6761 0.7294 0.8562
C79 C -0.2277(17) 0.8615(12) 0.7216(17)
H77 H -0.1705 0.8755 0.7705
H78 H -0.2534 0.8213 0.7371
H79 H -0.2774 0.8956 0.7078
C80 C -0.225(2) 0.7037(13) 0.3321(19)
H80 H -0.2046 0.6930 0.2834
H81 H -0.2862 0.6819 0.3244
H82 H -0.1749 0.6890 0.3863
C81 C -0.1449(16) 0.8140(12) 0.1910(16)
H83 H -0.2086 0.7932 0.1756
H84 H -0.1126 0.7979 0.1526
H85 H -0.1530 0.8613 0.1846
C82 C 0.105(2) 0.7362(14) 0.4186(19)
H86 H 0.0432 0.7161 0.4136
H87 H 0.1528 0.7284 0.4769
H88 H 0.1284 0.7171 0.3755
C83 C 0.2583(18) 0.8402(14) 0.2999(19)
C84 C 0.3071(19) 0.7965(14) 0.2552(19)
H89 H 0.3151 0.7529 0.2810
H90 H 0.3709 0.8145 0.2621
H91 H 0.2672 0.7937 0.1935
C85 C 0.2459(17) 0.8875(13) 0.5685(17)
H92 H 0.1802 0.8795 0.5676
H93 H 0.2499 0.9319 0.5483
H94 H 0.2926 0.8824 0.6278
C86 C 0.475(2) 0.9366(14) 0.475(2)
H95 H 0.4789 0.9833 0.4642
H96 H 0.4735 0.9118 0.4240
H97 H 0.5326 0.9237 0.5250
N4 N 0.0543(12) 0.6765(9) 0.6360(10)
N5 N 0.2174(12) 0.6678(8) 0.6676(10)
H98 H 0.2734 0.6502 0.6731
N6 N -0.0374(12) 0.7977(9) 0.6981(12)
H99 H -0.0707 0.7640 0.7047
O12 O 0.5334(9) 0.8158(7) 0.8051(9)
O13 O 0.2783(11) 0.9257(8) 0.8720(13)
O14 O 0.1063(10) 0.8808(8) 0.8131(11)
H100 H 0.1533 0.8963 0.8540
O15 O 0.3790(13) 0.9218(9) 0.4956(14)
O16 O 0.4070(11) 0.6707(7) 0.6928(10)
O17 O -0.0485(10) 0.9004(8) 0.6452(10)
O18 O -0.1455(14) 0.8867(9) 0.3577(15)
H101 H -0.1185 0.9047 0.3269
O19 O 0.0078(12) 0.9003(9) 0.3021(12)
H102 H -0.0396 0.9102 0.2576
O20 O 0.2349(11) 0.8065(7) 0.3587(10)
O21 O 0.5702(10) 0.7591(8) 0.6942(10)
O22 O 0.2400(16) 0.8974(12) 0.2823(15)
O23 O -0.0725(13) 0.4670(9) 0.8172(14)
O24 O 0.3253(19) 0.4320(11) 0.740(3)
O25 O 0.292(3) 0.4858(17) 1.558(2)
loop_
_geom_bond_atom_site_label_1
_geom_bond_atom_site_label_2
_geom_bond_site_symmetry_1
_geom_bond_site_symmetry_2
C1 C2 1_555 1_555
C2 C3 1_555 1_555
C3 C4 1_555 1_555
C4 C5 1_555 1_555
C5 C6 1_555 1_555
C6 C1 1_555 1_555
C7 C6 1_555 1_555
C8 C7 1_555 1_555
C9 C8 1_555 1_555
C10 C1 1_555 1_555
C11 H1 1_555 1_555
C12 H2 1_555 1_555
C13 H3 1_555 1_555
C14 C13 1_555 1_555
H4 C14 1_555 1_555
C15 C14 1_555 1_555
C16 C15 1_555 1_555
H5 C16 1_555 1_555
C17 C16 1_555 1_555
C18 C7 1_555 1_555
C19 C18 1_555 1_555
C20 C21 1_555 1_555
C21 C22 1_555 1_555
C22 H6 1_555 1_555
C23 C11 1_555 1_555
H7 C23 1_555 1_555
C24 C11 1_555 1_555
H8 C24 1_555 1_555
C25 C12 1_555 1_555
H9 C25 1_555 1_555
C26 C25 1_555 1_555
H10 C26 1_555 1_555
C27 C26 1_555 1_555
H11 C27 1_555 1_555
C28 C27 1_555 1_555
H12 C28 1_555 1_555
C29 C28 1_555 1_555
H13 C29 1_555 1_555
C30 C29 1_555 1_555
H14 C30 1_555 1_555
C31 C30 1_555 1_555
H15 C31 1_555 1_555
C32 C9 1_555 1_555
H16 C32 1_555 1_555
H17 C32 1_555 1_555
H18 C32 1_555 1_555
C33 C15 1_555 1_555
H19 C33 1_555 1_555
H20 C33 1_555 1_555
H21 C33 1_555 1_555
C34 C19 1_555 1_555
H22 C34 1_555 1_555
H23 C34 1_555 1_555
H24 C34 1_555 1_555
C35 C21 1_555 1_555
H25 C35 1_555 1_555
H26 C35 1_555 1_555
H27 C35 1_555 1_555
C36 C11 1_555 1_555
H28 C36 1_555 1_555
H29 C36 1_555 1_555
H30 C36 1_555 1_555
C37 C12 1_555 1_555
H31 C37 1_555 1_555
H32 C37 1_555 1_555
H33 C37 1_555 1_555
C38 C26 1_555 1_555
H34 C38 1_555 1_555
H35 C38 1_555 1_555
H36 C38 1_555 1_555
C39 C40 1_555 1_555
C40 H37 1_555 1_555
H38 C40 1_555 1_555
H39 C40 1_555 1_555
C41 C28 1_555 1_555
H40 C41 1_555 1_555
H41 C41 1_555 1_555
H42 C41 1_555 1_555
C42 H43 1_555 1_555
H44 C42 1_555 1_555
H45 C42 1_555 1_555
N1 C4 1_555 1_555
N2 C5 1_555 1_555
H46 N2 1_555 1_555
N3 C3 1_555 1_555
H47 N3 1_555 1_555
O1 C8 1_555 1_555
O2 C10 1_555 1_555
O3 C2 1_555 1_555
H48 O3 1_555 1_555
O4 C18 1_555 1_555
O5 C20 1_555 1_555
O6 C24 1_555 1_555
H49 O6 1_555 1_555
O7 C25 1_555 1_555
H50 O7 1_555 1_555
O8 C27 1_555 1_555
O9 C29 1_555 1_555
O10 C19 1_555 1_555
O11 C39 1_555 1_555
C43 C22 1_555 1_555
H51 C43 1_555 1_555
C44 H52 1_555 1_555
C45 H53 1_555 1_555
C46 C45 1_555 1_555
C47 C45 1_555 1_555
C48 C44 1_555 1_555
H54 C48 1_555 1_555
C49 C50 1_555 1_555
C50 C51 1_555 1_555
C51 C52 1_555 1_555
C52 C53 1_555 1_555
C53 C54 1_555 1_555
C54 C49 1_555 1_555
C55 C54 1_555 1_555
C56 C55 1_555 1_555
C57 C56 1_555 1_555
C58 C53 1_555 1_555
C59 C55 1_555 1_555
C60 C59 1_555 1_555
C61 C62 1_555 1_555
C62 C63 1_555 1_555
C63 H55 1_555 1_555
C64 C63 1_555 1_555
H56 C64 1_555 1_555
C65 C64 1_555 1_555
H57 C65 1_555 1_555
C66 C65 1_555 1_555
H58 C66 1_555 1_555
C67 C66 1_555 1_555
H59 C67 1_555 1_555
C68 C67 1_555 1_555
H60 C68 1_555 1_555
C69 C68 1_555 1_555
H61 C69 1_555 1_555
C70 C69 1_555 1_555
H62 C70 1_555 1_555
C71 C70 1_555 1_555
H63 C71 1_555 1_555
C72 C71 1_555 1_555
H64 C72 1_555 1_555
C73 C72 1_555 1_555
H65 C73 1_555 1_555
C74 C73 1_555 1_555
H66 C74 1_555 1_555
C75 C74 1_555 1_555
H67 C75 1_555 1_555
C76 C57 1_555 1_555
H68 C76 1_555 1_555
H69 C76 1_555 1_555
H70 C76 1_555 1_555
C77 C47 1_555 1_555
H71 C77 1_555 1_555
H72 C77 1_555 1_555
H73 C77 1_555 1_555
C78 C60 1_555 1_555
H74 C78 1_555 1_555
H75 C78 1_555 1_555
H76 C78 1_555 1_555
C79 C62 1_555 1_555
H77 C79 1_555 1_555
H78 C79 1_555 1_555
H79 C79 1_555 1_555
C80 C66 1_555 1_555
H80 C80 1_555 1_555
H81 C80 1_555 1_555
H82 C80 1_555 1_555
C81 C68 1_555 1_555
H83 C81 1_555 1_555
H84 C81 1_555 1_555
H85 C81 1_555 1_555
C82 C70 1_555 1_555
H86 C82 1_555 1_555
H87 C82 1_555 1_555
H88 C82 1_555 1_555
C83 C84 1_555 1_555
C84 H89 1_555 1_555
H90 C84 1_555 1_555
H91 C84 1_555 1_555
C85 C72 1_555 1_555
H92 C85 1_555 1_555
H93 C85 1_555 1_555
H94 C85 1_555 1_555
C86 H95 1_555 1_555
H96 C86 1_555 1_555
H97 C86 1_555 1_555
N4 C44 1_555 1_555
N5 C46 1_555 1_555
H98 N5 1_555 1_555
N6 C51 1_555 1_555
H99 N6 1_555 1_555
O12 C56 1_555 1_555
O13 C58 1_555 1_555
O14 C52 1_555 1_555
H100 O14 1_555 1_555
O15 C73 1_555 1_555
O16 C59 1_555 1_555
O17 C61 1_555 1_555
O18 C67 1_555 1_555
H101 O18 1_555 1_555
O19 C69 1_555 1_555
H102 O19 1_555 1_555
O20 C71 1_555 1_555
O21 C60 1_555 1_555
O22 C83 1_555 1_555
C9 C10 1_555 1_555
C12 C24 1_555 1_555
C13 N1 1_555 1_555
C17 N1 1_555 1_555
C17 N2 1_555 1_555
C19 O1 1_555 1_555
C20 N3 1_555 1_555
C23 C43 1_555 1_555
C31 O10 1_555 1_555
C39 O8 1_555 1_555
C42 O9 1_555 1_555
C46 N4 1_555 1_555
C47 C48 1_555 1_555
C49 N5 1_555 1_555
C50 N4 1_555 1_555
C57 C58 1_555 1_555
C60 O12 1_555 1_555
C61 N6 1_555 1_555
C75 O21 1_555 1_555
C83 O20 1_555 1_555
C86 O15 1_555 1_555

#END
