
#######################################################################
#
#                 Cambridge Crystallographic Data Centre
#                                CCDC 
#
#######################################################################
#
# If this CIF has been generated from an entry in the Cambridge 
# Structural Database, then it will include bibliographic, chemical, 
# crystal, experimental, refinement or atomic coordinate data resulting 
# from the CCDC's data processing and validation procedures.
#
#######################################################################

data_ZEFVAJ
_chemical_formula_moiety         'C6 H8 N2,C7 H6 O3'
_chemical_name_systematic        '3-Hydroxybenzoic acid 2,3-dimethylpyrazine'
_symmetry_cell_setting           orthorhombic
_symmetry_space_group_name_H-M   'P n a 21'
_symmetry_Int_Tables_number      33
_space_group_name_Hall           'P 2c -2n'
loop_
_symmetry_equiv_pos_site_id
_symmetry_equiv_pos_as_xyz
1 x,y,z
2 -x,-y,1/2+z
3 1/2+x,1/2-y,z
4 1/2-x,1/2+y,1/2+z
_cell_length_a                   13.150(3)
_cell_length_b                   13.022(3)
_cell_length_c                   7.2410(14)
_cell_angle_alpha                90
_cell_angle_beta                 90
_cell_angle_gamma                90
_cell_volume                     1239.94
_exptl_crystal_colour            white
_exptl_crystal_description       clubbed
_cell_formula_units_Z            4
loop_
_atom_site_label
_atom_site_type_symbol
_atom_site_fract_x
_atom_site_fract_y
_atom_site_fract_z
N1 N 0.2363(2) 0.0319(3) 0.7016(5)
C1 C 0.2894(3) 0.1160(3) 0.7417(7)
N2 N 0.4461(2) 0.0343(3) 0.6697(5)
C3 C 0.3950(3) 0.1175(3) 0.7232(7)
C9 C 0.2885(3) -0.0505(3) 0.6460(7)
H6 H 0.2532 -0.1102 0.6165
C10 C 0.2292(3) 0.2067(3) 0.8057(8)
H7 H 0.1583 0.1893 0.8077
H8 H 0.2400 0.2632 0.7228
H9 H 0.2508 0.2257 0.9276
C11 C 0.3920(3) -0.0497(3) 0.6314(7)
H10 H 0.4255 -0.1090 0.5939
C12 C 0.4550(3) 0.2138(3) 0.7602(10)
H11 H 0.5262 0.1999 0.7447
H12 H 0.4426 0.2365 0.8844
H13 H 0.4346 0.2665 0.6752
O1 O 0.65809(19) 0.0531(2) 0.6163(5)
H1 H 0.5986 0.0435 0.6456
C2 C 0.6771(3) -0.1151(3) 0.7511(8)
H2 H 0.6071 -0.1251 0.7536
O2 O 1.02925(19) 0.0182(2) 0.7069(6)
H3 H 1.0914 0.0208 0.7149
C4 C 0.8458(3) -0.1780(3) 0.8105(6)
H4 H 0.8886 -0.2298 0.8525
C5 C 0.8215(3) -0.0102(3) 0.6772(6)
H5 H 0.8485 0.0503 0.6302
C6 C 0.9981(3) -0.0767(3) 0.7396(8)
C7 C 0.8860(3) -0.0879(3) 0.7429(7)
C8 C 0.7165(3) -0.0246(3) 0.6831(7)
O3 O 1.0559(2) -0.1469(2) 0.7619(7)
C13 C 0.7413(3) -0.1909(3) 0.8156(6)
H14 H 0.7141 -0.2513 0.8630
loop_
_geom_bond_atom_site_label_1
_geom_bond_atom_site_label_2
_geom_bond_site_symmetry_1
_geom_bond_site_symmetry_2
N1 C1 1_555 1_555
O1 H1 1_555 1_555
C1 C3 1_555 1_555
N2 C3 1_555 1_555
C2 H2 1_555 1_555
O2 H3 1_555 1_555
C3 C12 1_555 1_555
C4 H4 1_555 1_555
C5 H5 1_555 1_555
C6 O2 1_555 1_555
C7 C4 1_555 1_555
C8 O1 1_555 1_555
C9 N1 1_555 1_555
H6 C9 1_555 1_555
O3 C6 1_555 1_555
C10 C1 1_555 1_555
H7 C10 1_555 1_555
H8 C10 1_555 1_555
H9 C10 1_555 1_555
C11 N2 1_555 1_555
H10 C11 1_555 1_555
C12 H11 1_555 1_555
H12 C12 1_555 1_555
H13 C12 1_555 1_555
C13 C2 1_555 1_555
H14 C13 1_555 1_555
C2 C8 1_555 1_555
C4 C13 1_555 1_555
C5 C7 1_555 1_555
C5 C8 1_555 1_555
C6 C7 1_555 1_555
C9 C11 1_555 1_555

#END
