
#######################################################################
#
#                 Cambridge Crystallographic Data Centre
#                                CCDC 
#
#######################################################################
#
# If this CIF has been generated from an entry in the Cambridge 
# Structural Database, then it will include bibliographic, chemical, 
# crystal, experimental, refinement or atomic coordinate data resulting 
# from the CCDC's data processing and validation procedures.
#
#######################################################################

data_ZEFYER
_chemical_formula_moiety         'C24 H16'
_chemical_name_systematic        1,2-diphenylacenaphthylene
_symmetry_cell_setting           triclinic
_symmetry_space_group_name_H-M   'P -1'
_symmetry_Int_Tables_number      2
_space_group_name_Hall           '-P 1'
loop_
_symmetry_equiv_pos_site_id
_symmetry_equiv_pos_as_xyz
1 x,y,z
2 -x,-y,-z
_cell_length_a                   9.0537(6)
_cell_length_b                   10.6469(8)
_cell_length_c                   17.1815(12)
_cell_angle_alpha                90.307(2)
_cell_angle_beta                 98.9480(10)
_cell_angle_gamma                106.2880(10)
_cell_volume                     1568.27
_exptl_crystal_colour            orange
_exptl_crystal_description       block
_cell_formula_units_Z            4
loop_
_atom_site_label
_atom_site_type_symbol
_atom_site_fract_x
_atom_site_fract_y
_atom_site_fract_z
C1 C 0.7480(2) -0.03137(18) 0.83811(11)
H1 H 0.7565 -0.1115 0.8174
C2 C 0.8694(2) 0.04822(18) 0.89102(11)
H2 H 0.9612 0.0222 0.9070
C3 C 0.8581(2) 0.16538(18) 0.92091(11)
H3 H 0.9433 0.2200 0.9564
C4 C 0.7226(2) 0.20468(17) 0.89957(10)
C5 C 0.6010(2) 0.12305(17) 0.84637(11)
H4 H 0.5080 0.1476 0.8310
C6 C 0.6137(2) 0.00661(18) 0.81550(11)
H5 H 0.5302 -0.0472 0.7788
C7 C 0.7095(2) 0.32858(17) 0.93180(10)
C8 C 0.76444(19) 0.38260(17) 1.00721(10)
C9 C 0.8342(2) 0.32287(18) 1.07528(10)
C10 C 0.7650(2) 0.19347(18) 1.09228(11)
H6 H 0.6714 0.1439 1.0601
C11 C 0.8314(2) 0.1370(2) 1.15546(11)
H7 H 0.7832 0.0490 1.1664
C12 C 0.9677(2) 0.2077(2) 1.20285(12)
H8 H 1.0135 0.1684 1.2460
C13 C 1.0368(2) 0.3359(2) 1.18696(11)
H9 H 1.1305 0.3848 1.2194
C14 C 0.9702(2) 0.39360(19) 1.12379(11)
H10 H 1.0180 0.4821 1.1137
C15 C 0.73412(19) 0.51108(17) 1.01240(10)
C16 C 0.7573(2) 0.60581(17) 1.07110(11)
H11 H 0.8060 0.5963 1.1230
C17 C 0.7066(2) 0.71818(18) 1.05237(11)
H12 H 0.7243 0.7847 1.0926
C18 C 0.6333(2) 0.73507(17) 0.97882(11)
H13 H 0.6019 0.8122 0.9688
C19 C 0.6042(2) 0.63648(17) 0.91743(11)
C20 C 0.65730(19) 0.52894(17) 0.93721(10)
C21 C 0.6386(2) 0.42020(17) 0.88552(10)
C22 C 0.5643(2) 0.42114(18) 0.80971(10)
H14 H 0.5512 0.3508 0.7726
C23 C 0.5074(2) 0.52938(18) 0.78777(11)
H15 H 0.4549 0.5296 0.7354
C24 C 0.5251(2) 0.63364(18) 0.83908(11)
H16 H 0.4844 0.7039 0.8222
C25 C 0.7679(2) 0.67048(17) 0.54638(10)
C26 C 0.6570(2) 0.67670(18) 0.59319(10)
H17 H 0.5716 0.6016 0.5957
C27 C 0.6698(2) 0.79093(18) 0.63599(11)
H18 H 0.5936 0.7936 0.6677
C28 C 0.7931(2) 0.90115(18) 0.63273(11)
H19 H 0.8019 0.9794 0.6621
C29 C 0.9040(2) 0.89659(18) 0.58617(11)
H20 H 0.9884 0.9723 0.5834
C30 C 0.8924(2) 0.78252(17) 0.54386(10)
H21 H 0.9697 0.7802 0.5127
C31 C 0.75617(19) 0.54803(17) 0.50265(10)
C32 C 0.78543(19) 0.53208(16) 0.42778(10)
C33 C 0.8247(2) 0.63370(17) 0.37034(10)
C34 C 0.7458(2) 0.72923(17) 0.35935(10)
H22 H 0.6663 0.7294 0.3895
C35 C 0.7823(2) 0.82380(17) 0.30495(11)
H23 H 0.7274 0.8880 0.2977
C36 C 0.8990(2) 0.82492(18) 0.26106(11)
H24 H 0.9246 0.8904 0.2241
C37 C 0.9776(2) 0.73091(19) 0.27110(11)
H25 H 1.0576 0.7319 0.2411
C38 C 0.9404(2) 0.63496(17) 0.32485(11)
H26 H 0.9938 0.5696 0.3308
C39 C 0.76395(19) 0.39129(17) 0.41040(10)
C40 C 0.7710(2) 0.31634(17) 0.34656(11)
H27 H 0.7975 0.3557 0.2992
C41 C 0.7378(2) 0.17846(18) 0.35302(11)
H28 H 0.7443 0.1265 0.3092
C42 C 0.6969(2) 0.11713(18) 0.41975(11)
H29 H 0.6761 0.0247 0.4216
C43 C 0.6857(2) 0.19240(17) 0.48605(11)
C44 C 0.7207(2) 0.32658(17) 0.47825(11)
C45 C 0.71358(19) 0.41749(17) 0.53634(10)
C46 C 0.6737(2) 0.37089(18) 0.60693(11)
H30 H 0.6697 0.4291 0.6481
C47 C 0.6389(2) 0.23426(18) 0.61689(11)
H31 H 0.6112 0.2020 0.6657
C48 C 0.6433(2) 0.14667(18) 0.55928(11)
H32 H 0.6180 0.0557 0.5682
loop_
_geom_bond_atom_site_label_1
_geom_bond_atom_site_label_2
_geom_bond_site_symmetry_1
_geom_bond_site_symmetry_2
C1 H1 1_555 1_555
C2 C1 1_555 1_555
H2 C2 1_555 1_555
C3 C2 1_555 1_555
H3 C3 1_555 1_555
C4 C3 1_555 1_555
C5 C4 1_555 1_555
H4 C5 1_555 1_555
C6 C1 1_555 1_555
H5 C6 1_555 1_555
C7 C4 1_555 1_555
C8 C7 1_555 1_555
C9 C8 1_555 1_555
C10 C9 1_555 1_555
H6 C10 1_555 1_555
C11 C10 1_555 1_555
H7 C11 1_555 1_555
C12 C11 1_555 1_555
H8 C12 1_555 1_555
C13 C12 1_555 1_555
H9 C13 1_555 1_555
C14 C9 1_555 1_555
H10 C14 1_555 1_555
C15 C8 1_555 1_555
C16 C15 1_555 1_555
H11 C16 1_555 1_555
C17 C16 1_555 1_555
H12 C17 1_555 1_555
C18 C17 1_555 1_555
H13 C18 1_555 1_555
C19 C18 1_555 1_555
C20 C15 1_555 1_555
C21 C7 1_555 1_555
C22 C21 1_555 1_555
H14 C22 1_555 1_555
C23 C22 1_555 1_555
H15 C23 1_555 1_555
C24 C19 1_555 1_555
H16 C24 1_555 1_555
C25 C26 1_555 1_555
C26 H17 1_555 1_555
C27 C26 1_555 1_555
H18 C27 1_555 1_555
C28 C27 1_555 1_555
H19 C28 1_555 1_555
C29 C28 1_555 1_555
H20 C29 1_555 1_555
C30 C25 1_555 1_555
H21 C30 1_555 1_555
C31 C25 1_555 1_555
C32 C31 1_555 1_555
C33 C32 1_555 1_555
C34 C33 1_555 1_555
H22 C34 1_555 1_555
C35 C34 1_555 1_555
H23 C35 1_555 1_555
C36 C35 1_555 1_555
H24 C36 1_555 1_555
C37 C36 1_555 1_555
H25 C37 1_555 1_555
C38 C33 1_555 1_555
H26 C38 1_555 1_555
C39 C32 1_555 1_555
C40 C39 1_555 1_555
H27 C40 1_555 1_555
C41 C40 1_555 1_555
H28 C41 1_555 1_555
C42 C41 1_555 1_555
H29 C42 1_555 1_555
C43 C42 1_555 1_555
C44 C39 1_555 1_555
C45 C31 1_555 1_555
C46 C45 1_555 1_555
H30 C46 1_555 1_555
C47 C46 1_555 1_555
H31 C47 1_555 1_555
C48 C43 1_555 1_555
H32 C48 1_555 1_555
C5 C6 1_555 1_555
C13 C14 1_555 1_555
C19 C20 1_555 1_555
C20 C21 1_555 1_555
C23 C24 1_555 1_555
C29 C30 1_555 1_555
C37 C38 1_555 1_555
C43 C44 1_555 1_555
C44 C45 1_555 1_555
C47 C48 1_555 1_555

#END
