
#######################################################################
#
#                 Cambridge Crystallographic Data Centre
#                                CCDC 
#
#######################################################################
#
# If this CIF has been generated from an entry in the Cambridge 
# Structural Database, then it will include bibliographic, chemical, 
# crystal, experimental, refinement or atomic coordinate data resulting 
# from the CCDC's data processing and validation procedures.
#
#######################################################################

data_ZEFZOC
_chemical_formula_moiety         'C12 H18 O4'
_chemical_name_systematic        
'7,8-dihydroxy-1,8-dimethylbicyclo[2.2.2]oct-5-en-2-yl acetate'
_symmetry_cell_setting           orthorhombic
_symmetry_space_group_name_H-M   'P 21 21 21'
_symmetry_Int_Tables_number      19
_space_group_name_Hall           'P 2ac 2ab'
loop_
_symmetry_equiv_pos_site_id
_symmetry_equiv_pos_as_xyz
1 x,y,z
2 1/2+x,1/2-y,-z
3 -x,1/2+y,1/2-z
4 1/2-x,-y,1/2+z
_cell_length_a                   8.2169(1)
_cell_length_b                   10.8611(1)
_cell_length_c                   13.4792(1)
_cell_angle_alpha                90
_cell_angle_beta                 90
_cell_angle_gamma                90
_cell_volume                     1202.95
_exptl_crystal_colour            colorless
_exptl_crystal_description       block
_cell_formula_units_Z            4
_exptl_crystal_recrystallization_method 
'dichloromethane / petroleum spirits / ethyl acetate'
loop_
_atom_site_label
_atom_site_type_symbol
_atom_site_fract_x
_atom_site_fract_y
_atom_site_fract_z
O1 O 0.66791(11) 0.67544(7) 0.39476(6)
O2 O 0.74703(12) 0.47771(8) 0.39877(7)
O3 O 0.58332(10) 0.68379(8) 0.08875(6)
O4 O 0.87483(11) 0.74692(8) 0.05583(6)
C1 C 0.79433(14) 0.93324(10) 0.28177(8)
C2 C 0.63967(14) 0.90405(10) 0.29780(8)
C3 C 0.58421(13) 0.78532(10) 0.25010(7)
C4 C 0.61637(13) 0.79797(10) 0.13730(7)
C5 C 0.79716(13) 0.83771(10) 0.11706(7)
C6 C 0.88652(12) 0.84331(11) 0.21783(8)
C7 C 0.69748(14) 0.68281(10) 0.28802(7)
C8 C 0.87588(14) 0.71521(11) 0.26680(8)
C9 C 0.40534(14) 0.75603(12) 0.26955(10)
C10 C 0.80552(17) 0.96065(12) 0.06272(9)
C11 C 0.69565(14) 0.56787(10) 0.43984(8)
C12 C 0.6502(2) 0.57344(13) 0.54742(9)
H1 H 0.509(2) 0.7019(16) 0.0382(14)
H2 H 0.802(2) 0.6986(17) 0.0359(14)
H3 H 0.8452(19) 1.0063(14) 0.3055(11)
H4 H 0.5673(19) 0.9563(14) 0.3375(10)
H5 H 0.5429(18) 0.8618(13) 0.1114(10)
H6 H 1.0010(17) 0.8716(13) 0.2070(10)
H7 H 0.6654(17) 0.6032(13) 0.2624(10)
H8 H 0.942(2) 0.7145(14) 0.3315(11)
H9 H 0.9270(19) 0.6558(14) 0.2222(11)
H10 H 0.374(2) 0.6796(16) 0.2387(12)
H11 H 0.331(2) 0.8188(16) 0.2423(13)
H12 H 0.389(2) 0.7478(16) 0.3426(12)
H13 H 0.753(2) 1.0286(17) 0.1008(14)
H14 H 0.923(2) 0.9827(16) 0.0502(14)
H15 H 0.749(2) 0.9530(16) -0.0057(13)
H16 H 0.640(2) 0.651(2) 0.5694(14)
H17 H 0.729(2) 0.5302(18) 0.5881(15)
H18 H 0.548(3) 0.5332(18) 0.5551(15)
loop_
_geom_bond_atom_site_label_1
_geom_bond_atom_site_label_2
_geom_bond_site_symmetry_1
_geom_bond_site_symmetry_2
O1 C7 1_555 1_555
O2 C11 1_555 1_555
O3 C4 1_555 1_555
O4 C5 1_555 1_555
C1 C2 1_555 1_555
C2 C3 1_555 1_555
C3 C4 1_555 1_555
C4 C5 1_555 1_555
C5 C6 1_555 1_555
C6 C1 1_555 1_555
C7 C3 1_555 1_555
C8 C6 1_555 1_555
C9 C3 1_555 1_555
C10 C5 1_555 1_555
C11 O1 1_555 1_555
C12 C11 1_555 1_555
H1 O3 1_555 1_555
H2 O4 1_555 1_555
H3 C1 1_555 1_555
H4 C2 1_555 1_555
H5 C4 1_555 1_555
H6 C6 1_555 1_555
H7 C7 1_555 1_555
H8 C8 1_555 1_555
H9 C8 1_555 1_555
H10 C9 1_555 1_555
H11 C9 1_555 1_555
H12 C9 1_555 1_555
H13 C10 1_555 1_555
H14 C10 1_555 1_555
H15 C10 1_555 1_555
H16 C12 1_555 1_555
H17 C12 1_555 1_555
H18 C12 1_555 1_555
C7 C8 1_555 1_555

#END
