
#######################################################################
#
#                 Cambridge Crystallographic Data Centre
#                                CCDC 
#
#######################################################################
#
# If this CIF has been generated from an entry in the Cambridge 
# Structural Database, then it will include bibliographic, chemical, 
# crystal, experimental, refinement or atomic coordinate data resulting 
# from the CCDC's data processing and validation procedures.
#
#######################################################################

data_ZEFZUI
_chemical_formula_moiety         'C10 H16 O3'
_chemical_name_systematic        
2,4-dimethylbicyclo[2.2.2]oct-7-ene-2,3,5-triol
_symmetry_cell_setting           orthorhombic
_symmetry_space_group_name_H-M   'P 21 21 21'
_symmetry_Int_Tables_number      19
_space_group_name_Hall           'P 2ac 2ab'
loop_
_symmetry_equiv_pos_site_id
_symmetry_equiv_pos_as_xyz
1 x,y,z
2 1/2+x,1/2-y,-z
3 -x,1/2+y,1/2-z
4 1/2-x,-y,1/2+z
_cell_length_a                   6.4980(1)
_cell_length_b                   11.4064(1)
_cell_length_c                   12.4797(1)
_cell_angle_alpha                90
_cell_angle_beta                 90
_cell_angle_gamma                90
_cell_volume                     924.98
_exptl_crystal_colour            colorless
_exptl_crystal_description       plate
_cell_formula_units_Z            4
_exptl_crystal_recrystallization_method 
'petroleum spirits / methanol / ethyl acetate'
loop_
_atom_site_label
_atom_site_type_symbol
_atom_site_fract_x
_atom_site_fract_y
_atom_site_fract_z
O1 O 0.50589(14) 0.50639(8) 0.12422(7)
O2 O 0.59385(13) 0.49771(8) 0.32084(7)
O3 O -0.02751(13) 0.45280(8) 0.40161(7)
C1 C 0.20436(18) 0.25769(10) 0.31142(9)
C2 C 0.15183(19) 0.26696(10) 0.20892(10)
C3 C 0.20982(18) 0.38236(10) 0.15826(9)
C4 C 0.44665(18) 0.39452(10) 0.16687(9)
C5 C 0.50338(19) 0.38877(10) 0.28959(8)
C6 C 0.31002(17) 0.36362(10) 0.35880(9)
C7 C 0.16156(17) 0.46907(10) 0.34355(8)
C8 C 0.10907(19) 0.48163(10) 0.22385(9)
C9 C 0.3722(2) 0.34697(11) 0.47531(9)
C10 C 0.5580(2) 0.30098(12) 0.10256(10)
H1 H 0.561(3) 0.5417(15) 0.1751(15)
H2 H 0.708(3) 0.4849(15) 0.3445(13)
H3 H -0.008(3) 0.4654(15) 0.4650(15)
H4 H 0.1768 0.1888 0.3531
H5 H 0.0845 0.2053 0.1694
H6 H 0.1659 0.3863 0.0814
H7 H 0.6003 0.3241 0.3023
H8 H 0.2339 0.5398 0.3712
H9 H -0.0380 0.4774 0.2154
H10 H 0.1611 0.5585 0.1988
H11 H 0.4599 0.4121 0.4993
H12 H 0.4517 0.2748 0.4843
H13 H 0.2520 0.3434 0.5206
H14 H 0.5193 0.2236 0.1286
H15 H 0.5178 0.3081 0.0263
H16 H 0.7057 0.3127 0.1096
loop_
_geom_bond_atom_site_label_1
_geom_bond_atom_site_label_2
_geom_bond_site_symmetry_1
_geom_bond_site_symmetry_2
O1 C4 1_555 1_555
O2 C5 1_555 1_555
O3 C7 1_555 1_555
C1 C2 1_555 1_555
C2 C3 1_555 1_555
C3 C4 1_555 1_555
C4 C5 1_555 1_555
C5 C6 1_555 1_555
C6 C1 1_555 1_555
C7 C6 1_555 1_555
C8 C3 1_555 1_555
C9 C6 1_555 1_555
C10 C4 1_555 1_555
H1 O1 1_555 1_555
H2 O2 1_555 1_555
H3 O3 1_555 1_555
H4 C1 1_555 1_555
H5 C2 1_555 1_555
H6 C3 1_555 1_555
H7 C5 1_555 1_555
H8 C7 1_555 1_555
H9 C8 1_555 1_555
H10 C8 1_555 1_555
H11 C9 1_555 1_555
H12 C9 1_555 1_555
H13 C9 1_555 1_555
H14 C10 1_555 1_555
H15 C10 1_555 1_555
H16 C10 1_555 1_555
C7 C8 1_555 1_555

#END
