
#######################################################################
#
#                 Cambridge Crystallographic Data Centre
#                                CCDC 
#
#######################################################################
#
# If this CIF has been generated from an entry in the Cambridge 
# Structural Database, then it will include bibliographic, chemical, 
# crystal, experimental, refinement or atomic coordinate data resulting 
# from the CCDC's data processing and validation procedures.
#
#######################################################################

data_ZEGBIY
_chemical_formula_moiety         'C8 H3 N1 O6 2-,C4 H12 N2 2+,H2 O1'
_chemical_name_systematic        
'Piperazinediium 5-nitroisophthalate monohydrate'
_symmetry_cell_setting           orthorhombic
_symmetry_space_group_name_H-M   'P n a 21'
_symmetry_Int_Tables_number      33
_space_group_name_Hall           'P 2c -2n'
loop_
_symmetry_equiv_pos_site_id
_symmetry_equiv_pos_as_xyz
1 x,y,z
2 -x,-y,1/2+z
3 1/2+x,1/2-y,z
4 1/2-x,1/2+y,1/2+z
_cell_length_a                   6.5078(11)
_cell_length_b                   19.897(2)
_cell_length_c                   10.9177(18)
_cell_angle_alpha                90
_cell_angle_beta                 90
_cell_angle_gamma                90
_cell_volume                     1413.69
_exptl_crystal_colour            colorless
_exptl_crystal_description       block
_cell_formula_units_Z            4
loop_
_atom_site_label
_atom_site_type_symbol
_atom_site_fract_x
_atom_site_fract_y
_atom_site_fract_z
N1 N 0.6239(3) 0.13663(9) 0.28094(18)
C1 C 0.6292(3) 0.21044(10) 0.2711(2)
O1 O 0.5930(3) 0.39842(8) 0.00538(14)
C2 C 0.6242(3) 0.36078(12) 0.48108(19)
C3 C 0.6243(3) 0.31778(11) 0.36730(19)
O2 O 0.6087(3) 0.33104(9) 0.58166(14)
C4 C 0.6232(3) 0.24861(11) 0.37689(18)
H1 H 0.6186 0.2280 0.4533
C5 C 0.6401(3) 0.23891(10) 0.15662(18)
H2 H 0.6476 0.2119 0.0872
O3 O 0.6421(3) 0.42278(8) 0.46859(17)
C6 C 0.6286(3) 0.34741(10) 0.25120(18)
H3 H 0.6237 0.3940 0.2445
O4 O 0.6117(3) 0.10379(8) 0.18701(17)
C7 C 0.6400(3) 0.30863(10) 0.14591(18)
O5 O 0.6316(3) 0.11129(9) 0.38253(18)
C8 C 0.6556(3) 0.33938(11) 0.01960(18)
O6 O 0.7339(3) 0.30378(8) -0.06227(15)
N2 N 0.3851(3) 0.12513(9) 0.74827(17)
H4 H 0.3390 0.1475 0.8144
H5 H 0.2890 0.1282 0.6892
N3 N 0.7728(3) 0.07920(9) 0.83709(18)
H6 H 0.8219 0.0559 0.7727
H7 H 0.8663 0.0769 0.8977
C9 C 0.4173(3) 0.05368(11) 0.7804(2)
H8 H 0.4612 0.0289 0.7085
H9 H 0.2892 0.0343 0.8091
C10 C 0.7432(3) 0.15092(12) 0.8008(2)
H10 H 0.8712 0.1689 0.7692
H11 H 0.7042 0.1772 0.8720
C11 C 0.5778(4) 0.04818(11) 0.8790(2)
H12 H 0.5301 0.0707 0.9525
H13 H 0.6009 0.0012 0.8986
C12 C 0.5791(4) 0.15632(12) 0.7047(2)
H14 H 0.5551 0.2033 0.6855
H15 H 0.6245 0.1340 0.6305
O7 O 0.9143(4) 0.01566(10) 0.63812(18)
H16 H 0.904(6) -0.0250(10) 0.615(3)
H17 H 0.979(5) 0.0399(12) 0.588(2)
loop_
_geom_bond_atom_site_label_1
_geom_bond_atom_site_label_2
_geom_bond_site_symmetry_1
_geom_bond_site_symmetry_2
N1 C1 1_555 1_555
C1 C4 1_555 1_555
O1 C8 1_555 1_555
C2 C3 1_555 1_555
C3 C4 1_555 1_555
O2 C2 1_555 1_555
C4 H1 1_555 1_555
C5 C1 1_555 1_555
H2 C5 1_555 1_555
O3 C2 1_555 1_555
C6 C3 1_555 1_555
H3 C6 1_555 1_555
O4 N1 1_555 1_555
C7 C5 1_555 1_555
O5 N1 1_555 1_555
C8 C7 1_555 1_555
O6 C8 1_555 1_555
N2 H4 1_555 1_555
H5 N2 1_555 1_555
N3 H6 1_555 1_555
H7 N3 1_555 1_555
C9 N2 1_555 1_555
H8 C9 1_555 1_555
H9 C9 1_555 1_555
C10 N3 1_555 1_555
H10 C10 1_555 1_555
H11 C10 1_555 1_555
C11 N3 1_555 1_555
H12 C11 1_555 1_555
H13 C11 1_555 1_555
C12 N2 1_555 1_555
H14 C12 1_555 1_555
H15 C12 1_555 1_555
O7 H16 1_555 1_555
H17 O7 1_555 1_555
C6 C7 1_555 1_555
C9 C11 1_555 1_555
C10 C12 1_555 1_555

#END
