
#######################################################################
#
#                 Cambridge Crystallographic Data Centre
#                                CCDC 
#
#######################################################################
#
# If this CIF has been generated from an entry in the Cambridge 
# Structural Database, then it will include bibliographic, chemical, 
# crystal, experimental, refinement or atomic coordinate data resulting 
# from the CCDC's data processing and validation procedures.
#
#######################################################################

data_ZEGCIZ
_chemical_formula_moiety         'C6 H16 N2 2+,2(C8 H8 O3),2(C8 H7 O3 1-)'
_chemical_name_systematic        
'1,4-Dimethylpiperazinediium bis(2-hydroxy-3-methylbenzoic acid) bis(2-hydroxy-3-methylbenzoate)'
_symmetry_cell_setting           monoclinic
_symmetry_space_group_name_H-M   'P 21/c'
_symmetry_Int_Tables_number      14
_space_group_name_Hall           '-P 2ybc'
loop_
_symmetry_equiv_pos_site_id
_symmetry_equiv_pos_as_xyz
1 x,y,z
2 -x,1/2+y,1/2-z
3 -x,-y,-z
4 x,1/2-y,1/2+z
_cell_length_a                   14.950(2)
_cell_length_b                   7.5242(15)
_cell_length_c                   16.563(3)
_cell_angle_alpha                90
_cell_angle_beta                 92.834(2)
_cell_angle_gamma                90
_cell_volume                     1860.84
_exptl_crystal_colour            colorless
_exptl_crystal_description       block
_cell_formula_units_Z            2
loop_
_atom_site_label
_atom_site_type_symbol
_atom_site_fract_x
_atom_site_fract_y
_atom_site_fract_z
O1 O 0.16639(13) 0.1705(2) 0.61720(11)
C1 C 0.14115(18) 0.3204(3) 0.64129(16)
O3 O 0.07383(15) 0.3942(3) 0.60777(13)
H1 H 0.0654 0.4904 0.6295
O4 O 0.08575(15) 0.6570(3) 0.70080(12)
H2 H 0.0627 0.5894 0.6670
C2 C 0.16020(17) 0.5818(3) 0.73441(15)
C3 C 0.19021(16) 0.4143(3) 0.70938(14)
C4 C 0.26697(17) 0.3430(4) 0.74786(17)
H3 H 0.2881 0.2330 0.7317
C7 C 0.20704(19) 0.6769(3) 0.79563(16)
C9 C 0.2819(2) 0.5984(4) 0.83220(18)
H5 H 0.3132 0.6588 0.8736
C12 C 0.1753(3) 0.8582(4) 0.8188(2)
H8 H 0.1227 0.8885 0.7862
H9 H 0.2215 0.9437 0.8102
H10 H 0.1616 0.8583 0.8748
C14 C 0.31177(19) 0.4332(5) 0.80930(18)
H11 H 0.3622 0.3832 0.8355
O2 O 0.29855(13) -0.0546(3) 0.64534(12)
O5 O 0.23368(14) -0.2165(3) 0.54695(14)
C5 C 0.36729(16) -0.3259(3) 0.61163(15)
O6 O 0.30097(15) -0.5205(3) 0.51023(13)
H4 H 0.2641 -0.4398 0.5088
C6 C 0.29443(18) -0.1953(4) 0.59830(16)
C8 C 0.36668(17) -0.4838(4) 0.56672(15)
C10 C 0.43635(19) -0.2962(4) 0.66940(17)
H6 H 0.4370 -0.1925 0.7000
C11 C 0.5010(2) -0.5721(5) 0.6357(2)
H7 H 0.5471 -0.6541 0.6443
C13 C 0.4343(2) -0.6092(4) 0.57850(18)
C15 C 0.5029(2) -0.4176(5) 0.6815(2)
H12 H 0.5492 -0.3974 0.7200
C16 C 0.4350(3) -0.7760(5) 0.5301(2)
H13 H 0.3833 -0.7789 0.4934
H14 H 0.4338 -0.8766 0.5657
H15 H 0.4883 -0.7801 0.5001
N1 N 0.06310(13) 0.1302(2) 0.47461(11)
H16 H 0.0924 0.1467 0.5235
C17 C -0.03207(16) 0.1747(3) 0.48309(15)
H17 H -0.0651 0.1559 0.4319
H18 H -0.0375 0.2990 0.4975
C18 C 0.07115(16) -0.0605(3) 0.45266(15)
H19 H 0.1337 -0.0906 0.4475
H20 H 0.0396 -0.0823 0.4010
C19 C 0.1055(2) 0.2478(4) 0.41484(19)
H21 H 0.0988 0.3697 0.4305
H22 H 0.0770 0.2297 0.3623
H23 H 0.1680 0.2196 0.4133
N1B N -0.06310(13) -0.1302(2) 0.52539(11)
H16B H -0.0924 -0.1467 0.4765
C17B C 0.03207(16) -0.1747(3) 0.51691(15)
H17B H 0.0651 -0.1559 0.5681
H18B H 0.0375 -0.2990 0.5025
C18B C -0.07115(16) 0.0605(3) 0.54734(15)
H19B H -0.1337 0.0906 0.5525
H20B H -0.0396 0.0823 0.5990
C19B C -0.1055(2) -0.2478(4) 0.58516(19)
H21B H -0.0988 -0.3697 0.5695
H22B H -0.0770 -0.2297 0.6377
H23B H -0.1680 -0.2196 0.5867
loop_
_geom_bond_atom_site_label_1
_geom_bond_atom_site_label_2
_geom_bond_site_symmetry_1
_geom_bond_site_symmetry_2
O1 C1 1_555 1_555
O2 C6 1_555 1_555
C1 O3 1_555 1_555
O3 H1 1_555 1_555
O4 H2 1_555 1_555
C2 O4 1_555 1_555
O5 C6 1_555 1_555
C3 C1 1_555 1_555
C4 C3 1_555 1_555
H3 C4 1_555 1_555
C5 C6 1_555 1_555
O6 H4 1_555 1_555
C7 C2 1_555 1_555
C8 C5 1_555 1_555
C9 C7 1_555 1_555
H5 C9 1_555 1_555
C10 C5 1_555 1_555
H6 C10 1_555 1_555
C11 H7 1_555 1_555
C12 C7 1_555 1_555
H8 C12 1_555 1_555
H9 C12 1_555 1_555
H10 C12 1_555 1_555
C13 C8 1_555 1_555
C14 C4 1_555 1_555
H11 C14 1_555 1_555
C15 C10 1_555 1_555
H12 C15 1_555 1_555
C16 C13 1_555 1_555
H13 C16 1_555 1_555
H14 C16 1_555 1_555
H15 C16 1_555 1_555
N1 H16 1_555 1_555
C17 N1 1_555 1_555
H17 C17 1_555 1_555
H18 C17 1_555 1_555
C18 N1 1_555 1_555
H19 C18 1_555 1_555
H20 C18 1_555 1_555
C19 N1 1_555 1_555
H21 C19 1_555 1_555
H22 C19 1_555 1_555
H23 C19 1_555 1_555
N1B H16B 1_555 1_555
C17B C18 1_555 1_555
H17B C17B 1_555 1_555
H18B C17B 1_555 1_555
C18B C17 1_555 1_555
H19B C18B 1_555 1_555
H20B C18B 1_555 1_555
C19B N1B 1_555 1_555
H21B C19B 1_555 1_555
H22B C19B 1_555 1_555
H23B C19B 1_555 1_555
C2 C3 1_555 1_555
O6 C8 1_555 1_555
C9 C14 1_555 1_555
C11 C13 1_555 1_555
C11 C15 1_555 1_555
N1B C17B 1_555 1_555
N1B C18B 1_555 1_555

#END
