
#######################################################################
#
#                 Cambridge Crystallographic Data Centre
#                                CCDC 
#
#######################################################################
#
# If this CIF has been generated from an entry in the Cambridge 
# Structural Database, then it will include bibliographic, chemical, 
# crystal, experimental, refinement or atomic coordinate data resulting 
# from the CCDC's data processing and validation procedures.
#
#######################################################################

data_ZEGLUS
_chemical_formula_moiety         'C8 H10 B2 O6'
_chemical_name_systematic        
2,6-Diethyl-1,3,5,7-tetraoxa-2,6-dibora-4,8-octalindione
_symmetry_cell_setting           monoclinic
_symmetry_space_group_name_H-M   'P 21/c'
_symmetry_Int_Tables_number      14
_space_group_name_Hall           '-P 2ybc'
loop_
_symmetry_equiv_pos_site_id
_symmetry_equiv_pos_as_xyz
1 x,y,z
2 -x,1/2+y,1/2-z
3 -x,-y,-z
4 x,1/2-y,1/2+z
_cell_length_a                   11.070(11)
_cell_length_b                   5.206(4)
_cell_length_c                   9.241(6)
_cell_angle_alpha                90
_cell_angle_beta                 90.00(3)
_cell_angle_gamma                90
_cell_volume                     532.563
_exptl_crystal_colour            colorless
_cell_formula_units_Z            2
loop_
_atom_site_label
_atom_site_type_symbol
_atom_site_fract_x
_atom_site_fract_y
_atom_site_fract_z
C1 C 0.05040 -0.28070 -0.11670
O1 O -0.06270 -0.36360 -0.15280
B1 B -0.16980 -0.24310 -0.10890
O2 O -0.16300 -0.03160 -0.01660
C2 C 0.05180 -0.05770 -0.02310
O3 O 0.13710 -0.39520 -0.16020
C3 C -0.29340 -0.34950 -0.15470
C4 C -0.39960 -0.19790 -0.12330
H1 H -0.30300 -0.51900 -0.11550
H2 H -0.29420 -0.35800 -0.25840
H3 H -0.47670 -0.25170 -0.16010
H4 H -0.40390 -0.02090 -0.09500
H5 H -0.37850 -0.30100 -0.04100
C2B C -0.05180 0.05770 0.02310
O2B O 0.16300 0.03160 0.01660
C1B C -0.05040 0.28070 0.11670
B1B B 0.16980 0.24310 0.10890
O1B O 0.06270 0.36360 0.15280
O3B O -0.13710 0.39520 0.16020
C3B C 0.29340 0.34950 0.15470
C4B C 0.39960 0.19790 0.12330
H1B H 0.30300 0.51900 0.11550
H2B H 0.29420 0.35800 0.25840
H3B H 0.47670 0.25170 0.16010
H4B H 0.40390 0.02090 0.09500
H5B H 0.37850 0.30100 0.04100
loop_
_geom_bond_atom_site_label_1
_geom_bond_atom_site_label_2
_geom_bond_site_symmetry_1
_geom_bond_site_symmetry_2
C1 O1 1_555 1_555
O1 B1 1_555 1_555
B1 O2 1_555 1_555
O2 C2B 1_555 1_555
C2 C1 1_555 1_555
O3 C1 1_555 1_555
C3 B1 1_555 1_555
C4 C3 1_555 1_555
H1 C3 1_555 1_555
H2 C3 1_555 1_555
H3 C4 1_555 1_555
H4 C4 1_555 1_555
H5 C4 1_555 1_555
C2B C2 1_555 1_555
O2B C2 1_555 1_555
C1B C2B 1_555 1_555
B1B O2B 1_555 1_555
O1B C1B 1_555 1_555
O3B C1B 1_555 1_555
C3B B1B 1_555 1_555
C4B C3B 1_555 1_555
H1B C3B 1_555 1_555
H2B C3B 1_555 1_555
H3B C4B 1_555 1_555
H4B C4B 1_555 1_555
H5B C4B 1_555 1_555
B1B O1B 1_555 1_555

#END
