
#######################################################################
#
#                 Cambridge Crystallographic Data Centre
#                                CCDC 
#
#######################################################################
#
# If this CIF has been generated from an entry in the Cambridge 
# Structural Database, then it will include bibliographic, chemical, 
# crystal, experimental, refinement or atomic coordinate data resulting 
# from the CCDC's data processing and validation procedures.
#
#######################################################################

data_ZEGPOT
_chemical_formula_moiety         'C19 H21 N1 O3 S1'
_chemical_name_systematic        
N-[2-(benzenecarbonyl)-2,3-dihydro-1-benzofuran-3-yl]-2-methylpropane-2-sulfinamide
_symmetry_cell_setting           orthorhombic
_symmetry_space_group_name_H-M   'P 21 21 21'
_symmetry_Int_Tables_number      19
_space_group_name_Hall           'P 2ac 2ab'
loop_
_symmetry_equiv_pos_site_id
_symmetry_equiv_pos_as_xyz
1 x,y,z
2 1/2-x,-y,1/2+z
3 -x,1/2+y,1/2-z
4 1/2+x,1/2-y,-z
_cell_length_a                   9.1621(2)
_cell_length_b                   11.5165(2)
_cell_length_c                   17.1645(4)
_cell_angle_alpha                90
_cell_angle_beta                 90
_cell_angle_gamma                90
_cell_volume                     1811.12
_cell_formula_units_Z            4
loop_
_atom_site_label
_atom_site_type_symbol
_atom_site_fract_x
_atom_site_fract_y
_atom_site_fract_z
S1 S 0.92712(3) 1.08884(2) -0.041440(16)
N1 N 0.86083(11) 0.95770(8) -0.02018(5)
H1 H 0.7870(12) 0.9313(12) -0.0494(7)
O1 O 1.12694(10) 0.67304(7) 0.10390(5)
O2 O 0.89711(10) 0.66720(7) 0.00982(5)
O3 O 0.96444(10) 1.09993(8) -0.12542(5)
C1 C 1.18084(14) 0.82982(11) 0.22480(7)
H2 H 1.2461 0.7663 0.2187
C2 C 1.20284(15) 0.90928(12) 0.28404(7)
H3 H 1.2826 0.9002 0.3188
C3 C 1.10817(16) 1.00224(12) 0.29251(8)
H4 H 1.1232 1.0565 0.3334
C4 C 0.99191(17) 1.01678(12) 0.24188(8)
H5 H 0.9279 1.0811 0.2478
C5 C 0.96912(15) 0.93721(11) 0.18241(7)
H6 H 0.8896 0.9471 0.1475
C6 C 1.06303(13) 0.84258(9) 0.17383(6)
C7 C 1.04417(13) 0.75525(9) 0.11056(6)
C8 C 0.92156(14) 0.77380(9) 0.05164(6)
H7 H 0.8302 0.7993 0.0786
C9 C 0.97239(13) 0.86773(9) -0.00864(6)
H8 H 1.0645 0.9047 0.0103
C10 C 1.00619(13) 0.79142(9) -0.07813(6)
C11 C 1.06863(15) 0.81773(10) -0.14943(7)
H9 H 1.0975 0.8949 -0.1616
C12 C 1.08801(17) 0.72760(12) -0.20316(7)
H10 H 1.1318 0.7435 -0.2522
C13 C 1.04404(15) 0.61561(12) -0.18565(7)
H11 H 1.0588 0.5556 -0.2228
C14 C 0.97881(15) 0.58917(11) -0.11477(7)
H12 H 0.9472 0.5126 -0.1030
C15 C 0.96182(13) 0.67916(10) -0.06194(6)
C16 C 0.75807(13) 1.17276(9) -0.02701(7)
C17 C 0.72181(14) 1.16753(11) 0.05972(7)
H13 H 0.6929 1.0883 0.0736
H14 H 0.6414 1.2210 0.0711
H15 H 0.8079 1.1900 0.0901
C18 C 0.79761(15) 1.29724(10) -0.05132(8)
H16 H 0.7130 1.3480 -0.0437
H17 H 0.8260 1.2981 -0.1064
H18 H 0.8792 1.3251 -0.0194
C19 C 0.63772(15) 1.12622(11) -0.07971(8)
H19 H 0.5558 1.1809 -0.0802
H20 H 0.6043 1.0509 -0.0601
H21 H 0.6756 1.1169 -0.1327
loop_
_geom_bond_atom_site_label_1
_geom_bond_atom_site_label_2
_geom_bond_site_symmetry_1
_geom_bond_site_symmetry_2
S1 N1 1_555 1_555
N1 H1 1_555 1_555
O1 C7 1_555 1_555
O2 C8 1_555 1_555
O3 S1 1_555 1_555
C1 H2 1_555 1_555
C2 C1 1_555 1_555
H3 C2 1_555 1_555
C3 C2 1_555 1_555
H4 C3 1_555 1_555
C4 C3 1_555 1_555
H5 C4 1_555 1_555
C5 C4 1_555 1_555
H6 C5 1_555 1_555
C6 C1 1_555 1_555
C7 C6 1_555 1_555
C8 C7 1_555 1_555
H7 C8 1_555 1_555
C9 N1 1_555 1_555
H8 C9 1_555 1_555
C10 C9 1_555 1_555
C11 C10 1_555 1_555
H9 C11 1_555 1_555
C12 C11 1_555 1_555
H10 C12 1_555 1_555
C13 C12 1_555 1_555
H11 C13 1_555 1_555
C14 C13 1_555 1_555
H12 C14 1_555 1_555
C15 O2 1_555 1_555
C16 S1 1_555 1_555
C17 C16 1_555 1_555
H13 C17 1_555 1_555
H14 C17 1_555 1_555
H15 C17 1_555 1_555
C18 C16 1_555 1_555
H16 C18 1_555 1_555
H17 C18 1_555 1_555
H18 C18 1_555 1_555
C19 C16 1_555 1_555
H19 C19 1_555 1_555
H20 C19 1_555 1_555
H21 C19 1_555 1_555
C5 C6 1_555 1_555
C8 C9 1_555 1_555
C10 C15 1_555 1_555
C14 C15 1_555 1_555

#END
