
#######################################################################
#
#                 Cambridge Crystallographic Data Centre
#                                CCDC 
#
#######################################################################
#
# If this CIF has been generated from an entry in the Cambridge 
# Structural Database, then it will include bibliographic, chemical, 
# crystal, experimental, refinement or atomic coordinate data resulting 
# from the CCDC's data processing and validation procedures.
#
#######################################################################

data_ZEJCOJ
_chemical_formula_moiety         'C19 H19 N2 S2 1+,Cl1 O4 1-'
_chemical_name_systematic        
'3-ethyl-2-[(Z)-(3-ethyl-1,3-benzothiazol-2(3H)-ylidene)methyl]-1,3-benzothiazol-3-ium perchlorate'
_symmetry_cell_setting           monoclinic
_symmetry_space_group_name_H-M   'P 21/n'
_symmetry_Int_Tables_number      14
_space_group_name_Hall           '-P 2yn'
loop_
_symmetry_equiv_pos_site_id
_symmetry_equiv_pos_as_xyz
1 x,y,z
2 1/2-x,1/2+y,1/2-z
3 -x,-y,-z
4 1/2+x,1/2-y,1/2+z
_cell_length_a                   7.3755(8)
_cell_length_b                   25.420(3)
_cell_length_c                   10.3164(11)
_cell_angle_alpha                90
_cell_angle_beta                 92.492(7)
_cell_angle_gamma                90
_cell_volume                     1932.34
_exptl_crystal_colour            yellow
_exptl_crystal_description       needle
_cell_formula_units_Z            4
_exptl_crystal_recrystallization_method 
chloroform/dichloromethane/acetonitrile
loop_
_atom_site_label
_atom_site_type_symbol
_atom_site_fract_x
_atom_site_fract_y
_atom_site_fract_z
Cl1 Cl 0.3033(2) 0.37468(5) 0.86201(13)
O1 O 0.4390(6) 0.37012(15) 0.7691(4)
O2 O 0.361(2) 0.4210(4) 0.9374(10)
O3 O 0.287(3) 0.3337(3) 0.9480(10)
O4 O 0.1271(15) 0.3836(7) 0.7935(11)
S1 S 0.7849(2) 0.53627(5) 0.44006(14)
S2 S 0.8163(2) 0.43497(5) 0.29292(14)
N1 N 0.6772(6) 0.51948(14) 0.6701(4)
N2 N 0.7247(6) 0.35654(15) 0.4317(4)
C1 C 0.7619(7) 0.59068(18) 0.5427(5)
C2 C 0.8002(7) 0.64252(19) 0.5173(5)
H1 H 0.8433 0.6530 0.4358
C3 C 0.7738(7) 0.67871(18) 0.6144(5)
H2 H 0.7996 0.7148 0.5994
C4 C 0.7104(7) 0.66355(18) 0.7332(6)
H3 H 0.6916 0.6895 0.7975
C5 C 0.6736(7) 0.61093(19) 0.7601(5)
H4 H 0.6317 0.6004 0.8419
C6 C 0.7011(7) 0.57439(18) 0.6617(5)
C7 C 0.7179(8) 0.49291(18) 0.5603(6)
C8 C 0.7054(7) 0.43861(18) 0.5485(5)
H5 H 0.6674 0.4197 0.6219
C9 C 0.7436(7) 0.40960(18) 0.4394(5)
C10 C 0.7746(7) 0.33442(19) 0.3144(6)
C11 C 0.7775(8) 0.28112(19) 0.2825(6)
H6 H 0.7430 0.2550 0.3426
C12 C 0.8328(8) 0.2674(2) 0.1591(6)
H7 H 0.8364 0.2313 0.1355
C13 C 0.8825(8) 0.3051(2) 0.0704(6)
H8 H 0.9172 0.2944 -0.0132
C14 C 0.8823(8) 0.3581(2) 0.1016(6)
H9 H 0.9188 0.3840 0.0416
C15 C 0.8267(7) 0.37194(19) 0.2239(5)
C16 C 0.6245(8) 0.49355(19) 0.7901(5)
H10 H 0.5552 0.4612 0.7679
H11 H 0.5444 0.5173 0.8378
C17 C 0.7902(9) 0.4793(2) 0.8775(6)
H12 H 0.7504 0.4615 0.9556
H13 H 0.8564 0.5114 0.9024
H14 H 0.8699 0.4559 0.8305
C18 C 0.6557(7) 0.32364(19) 0.5374(5)
H15 H 0.5958 0.2921 0.4990
H16 H 0.5629 0.3438 0.5830
C19 C 0.8017(8) 0.3063(2) 0.6347(6)
H17 H 0.7482 0.2843 0.7009
H18 H 0.8583 0.3373 0.6759
H19 H 0.8938 0.2861 0.5904
O5? O 0.1367(19) 0.3623(9) 0.8094(14)
O6? O 0.365(3) 0.3312(4) 0.9597(12)
O7? O 0.296(3) 0.4251(4) 0.9271(11)
loop_
_geom_bond_atom_site_label_1
_geom_bond_atom_site_label_2
_geom_bond_site_symmetry_1
_geom_bond_site_symmetry_2
Cl1 O1 1_555 1_555
O2 Cl1 1_555 1_555
O3 Cl1 1_555 1_555
O4 Cl1 1_555 1_555
S1 C1 1_555 1_555
S2 C9 1_555 1_555
N1 C6 1_555 1_555
N2 C9 1_555 1_555
C1 C2 1_555 1_555
C2 H1 1_555 1_555
C3 C2 1_555 1_555
H2 C3 1_555 1_555
C4 C3 1_555 1_555
H3 C4 1_555 1_555
C5 C4 1_555 1_555
H4 C5 1_555 1_555
C6 C1 1_555 1_555
C7 S1 1_555 1_555
C8 C7 1_555 1_555
H5 C8 1_555 1_555
C9 C8 1_555 1_555
C10 N2 1_555 1_555
C11 C10 1_555 1_555
H6 C11 1_555 1_555
C12 C11 1_555 1_555
H7 C12 1_555 1_555
C13 C12 1_555 1_555
H8 C13 1_555 1_555
C14 C13 1_555 1_555
H9 C14 1_555 1_555
C15 S2 1_555 1_555
C16 N1 1_555 1_555
H10 C16 1_555 1_555
H11 C16 1_555 1_555
C17 C16 1_555 1_555
H12 C17 1_555 1_555
H13 C17 1_555 1_555
H14 C17 1_555 1_555
C18 N2 1_555 1_555
H15 C18 1_555 1_555
H16 C18 1_555 1_555
C19 C18 1_555 1_555
H17 C19 1_555 1_555
H18 C19 1_555 1_555
H19 C19 1_555 1_555
N1 C7 1_555 1_555
C5 C6 1_555 1_555
C10 C15 1_555 1_555
C14 C15 1_555 1_555

#END
