
#######################################################################
#
#                 Cambridge Crystallographic Data Centre
#                                CCDC 
#
#######################################################################
#
# If this CIF has been generated from an entry in the Cambridge 
# Structural Database, then it will include bibliographic, chemical, 
# crystal, experimental, refinement or atomic coordinate data resulting 
# from the CCDC's data processing and validation procedures.
#
#######################################################################

data_ZEJFIG
_chemical_formula_moiety         'C12 H14 O4 S1'
_chemical_name_systematic        
'dimethyl 2-(2-thienyl)cyclobutane-1,1-dicarboxylate'
_symmetry_cell_setting           monoclinic
_symmetry_space_group_name_H-M   'P 21'
_symmetry_Int_Tables_number      4
_space_group_name_Hall           'P 2yb'
loop_
_symmetry_equiv_pos_site_id
_symmetry_equiv_pos_as_xyz
1 x,y,z
2 -x,1/2+y,-z
_cell_length_a                   8.198(4)
_cell_length_b                   9.110(5)
_cell_length_c                   8.427(4)
_cell_angle_alpha                90
_cell_angle_beta                 92.976(10)
_cell_angle_gamma                90
_cell_volume                     628.511
_exptl_crystal_colour            colorless
_exptl_crystal_description       block
_cell_formula_units_Z            2
loop_
_atom_site_label
_atom_site_type_symbol
_atom_site_fract_x
_atom_site_fract_y
_atom_site_fract_z
S1 S 0.1751(3) -1.7556(3) 0.1712(2)
O1 O -0.4037(6) -1.6882(7) 0.2419(7)
O2 O -0.2202(7) -1.5578(6) 0.1181(6)
O3 O -0.1072(7) -1.7421(9) -0.1974(7)
O4 O -0.3678(6) -1.6779(8) -0.1984(6)
C1 C -0.1215(9) -1.8944(8) 0.1085(9)
H1 H -0.0598 -1.9416 0.0260
C2 C -0.2626(8) -1.7975(7) 0.0273(8)
C3 C -0.3746(10) -1.9324(9) 0.0362(11)
H2 H -0.4809 -1.9107 0.0760
H3 H -0.3853 -1.9880 -0.0619
C4 C -0.2538(11) -1.9996(10) 0.1613(11)
H4 H -0.2839 -1.9841 0.2698
H5 H -0.2296 -2.1022 0.1425
C5 C -0.0059(8) -1.8259(8) 0.2283(8)
C6 C -0.0302(9) -1.7989(8) 0.3880(9)
H6 H -0.1209 -1.8280 0.4419
C7 C 0.1078(11) -1.7186(9) 0.4564(9)
H7 H 0.1158 -1.6900 0.5624
C8 C 0.2224(10) -1.6890(11) 0.3553(11)
H8 H 0.3177 -1.6376 0.3827
C9 C -0.3077(8) -1.6767(8) 0.1399(8)
C10 C -0.2334(12) -1.4433(10) 0.2339(11)
H9 H -0.1528 -1.3692 0.2171
H10 H -0.2159 -1.4836 0.3387
H11 H -0.3404 -1.4004 0.2234
C11 C -0.2331(9) -1.7373(9) -0.1330(8)
C12 C -0.3567(14) -1.6116(15) -0.3523(11)
H12 H -0.3578 -1.6869 -0.4321
H13 H -0.2570 -1.5567 -0.3549
H14 H -0.4480 -1.5471 -0.3726
loop_
_geom_bond_atom_site_label_1
_geom_bond_atom_site_label_2
_geom_bond_site_symmetry_1
_geom_bond_site_symmetry_2
S1 C5 1_555 1_555
O1 C9 1_555 1_555
O2 C9 1_555 1_555
O3 C11 1_555 1_555
O4 C11 1_555 1_555
C1 H1 1_555 1_555
C2 C1 1_555 1_555
C3 C2 1_555 1_555
H2 C3 1_555 1_555
H3 C3 1_555 1_555
C4 C1 1_555 1_555
H4 C4 1_555 1_555
H5 C4 1_555 1_555
C5 C1 1_555 1_555
C6 C5 1_555 1_555
H6 C6 1_555 1_555
C7 C6 1_555 1_555
H7 C7 1_555 1_555
C8 S1 1_555 1_555
H8 C8 1_555 1_555
C9 C2 1_555 1_555
C10 O2 1_555 1_555
H9 C10 1_555 1_555
H10 C10 1_555 1_555
H11 C10 1_555 1_555
C11 C2 1_555 1_555
C12 O4 1_555 1_555
H12 C12 1_555 1_555
H13 C12 1_555 1_555
H14 C12 1_555 1_555
C3 C4 1_555 1_555
C7 C8 1_555 1_555

#END
