
#######################################################################
#
#                 Cambridge Crystallographic Data Centre
#                                CCDC 
#
#######################################################################
#
# If this CIF has been generated from an entry in the Cambridge 
# Structural Database, then it will include bibliographic, chemical, 
# crystal, experimental, refinement or atomic coordinate data resulting 
# from the CCDC's data processing and validation procedures.
#
#######################################################################

data_ZEJKIL
_chemical_formula_moiety         'C25 H25 N3 O4'
_chemical_name_systematic        
"t-butyl (7a-methyl-10-oxo-9-phenyl-7a,8,9,10-tetrahydro-10aH-naphtho[1',2':4,5]furo[2,3-c]pyrazol-10a-yl)carbamate"
_symmetry_cell_setting           orthorhombic
_symmetry_space_group_name_H-M   'P 21 21 21'
_symmetry_Int_Tables_number      19
_space_group_name_Hall           'P 2ac 2ab'
loop_
_symmetry_equiv_pos_site_id
_symmetry_equiv_pos_as_xyz
1 x,y,z
2 1/2-x,-y,1/2+z
3 1/2+x,1/2-y,-z
4 -x,1/2+y,1/2-z
_cell_length_a                   9.97900(10)
_cell_length_b                   12.71630(10)
_cell_length_c                   17.40760(10)
_cell_angle_alpha                90
_cell_angle_beta                 90
_cell_angle_gamma                90
_cell_volume                     2208.95
_exptl_crystal_colour            colorless
_exptl_crystal_description       prism
_cell_formula_units_Z            4
loop_
_atom_site_label
_atom_site_type_symbol
_atom_site_fract_x
_atom_site_fract_y
_atom_site_fract_z
O1 O 0.53829(10) 0.81396(8) 0.00811(6)
O2 O 0.70191(11) 0.88217(8) -0.15101(6)
O3 O 0.83288(11) 1.05556(8) 0.06627(6)
O4 O 0.85731(11) 0.75006(8) -0.16128(6)
N1 N 0.56333(12) 0.99451(9) -0.00198(7)
N2 N 0.66512(13) 1.06545(10) -0.02852(8)
H1 H 0.662(2) 1.0645(15) -0.0801(9)
N3 N 0.82167(12) 0.82297(10) -0.04886(7)
H2 H 0.8882(18) 0.7842(14) -0.0327(11)
C1 C 0.60609(13) 0.89266(11) 0.00118(8)
C2 C 0.79177(14) 1.01507(11) -0.00844(8)
C3 C 0.76039(13) 0.89530(11) 0.00375(8)
C4 C 0.84147(14) 0.97236(12) 0.11610(8)
C5 C 0.88673(16) 0.98388(13) 0.19206(9)
H3 H 0.915620 1.049967 0.211381
C6 C 0.88728(17) 0.89565(14) 0.23688(9)
H4 H 0.917257 0.901346 0.288513
C7 C 0.84495(16) 0.79584(13) 0.20956(9)
C8 C 0.84289(19) 0.70612(15) 0.25751(10)
H5 H 0.871230 0.712110 0.309425
C9 C 0.80078(19) 0.61102(15) 0.23031(10)
H6 H 0.800194 0.551571 0.263364
C10 C 0.75808(17) 0.60042(14) 0.15338(10)
H7 H 0.729753 0.533782 0.134817
C11 C 0.75731(16) 0.68587(12) 0.10531(9)
H8 H 0.727298 0.678113 0.053833
C12 C 0.80083(15) 0.78559(12) 0.13166(8)
C13 C 0.80297(14) 0.87787(11) 0.08593(8)
C14 C 0.43336(14) 1.03467(11) 0.01167(8)
C15 C 0.39913(16) 1.13403(12) -0.01629(9)
H9 H 0.462019 1.173847 -0.045143
C16 C 0.27203(16) 1.17412(13) -0.00148(10)
H10 H 0.248525 1.241923 -0.020008
C17 C 0.17985(16) 1.11648(14) 0.03979(10)
H11 H 0.092965 1.144151 0.049215
C18 C 0.21463(16) 1.01760(14) 0.06758(10)
H12 H 0.151117 0.977760 0.095971
C19 C 0.34160(15) 0.97669(12) 0.05412(9)
H13 H 0.365448 0.909568 0.073804
C20 C 0.89917(16) 1.04331(12) -0.06591(9)
H14 H 0.873784 1.016860 -0.116746
H15 H 0.909123 1.119920 -0.068029
H16 H 0.984340 1.011464 -0.050266
C21 C 0.78608(14) 0.82335(11) -0.12391(8)
C22 C 0.85389(17) 0.74120(13) -0.24561(8)
C23 C 0.71333(19) 0.71266(15) -0.27154(11)
H17 H 0.711340 0.706814 -0.327661
H18 H 0.687301 0.645262 -0.248667
H19 H 0.650574 0.767457 -0.255027
C24 C 0.9504(2) 0.65105(16) -0.25990(11)
H20 H 0.956558 0.637549 -0.315208
H21 H 1.039114 0.669612 -0.239952
H22 H 0.917752 0.587785 -0.233750
C25 C 0.90524(19) 0.84275(16) -0.28130(10)
H23 H 0.902932 0.836790 -0.337416
H24 H 0.848311 0.901469 -0.265036
H25 H 0.997543 0.855395 -0.264440
loop_
_geom_bond_atom_site_label_1
_geom_bond_atom_site_label_2
_geom_bond_site_symmetry_1
_geom_bond_site_symmetry_2
O1 C1 1_555 1_555
O2 C21 1_555 1_555
O3 C2 1_555 1_555
O4 C21 1_555 1_555
N1 N2 1_555 1_555
N2 H1 1_555 1_555
N3 H2 1_555 1_555
C1 N1 1_555 1_555
C2 N2 1_555 1_555
C3 N3 1_555 1_555
C4 O3 1_555 1_555
C5 C4 1_555 1_555
H3 C5 1_555 1_555
C6 C5 1_555 1_555
H4 C6 1_555 1_555
C7 C6 1_555 1_555
C8 C7 1_555 1_555
H5 C8 1_555 1_555
C9 C8 1_555 1_555
H6 C9 1_555 1_555
C10 C9 1_555 1_555
H7 C10 1_555 1_555
C11 C10 1_555 1_555
H8 C11 1_555 1_555
C12 C7 1_555 1_555
C13 C3 1_555 1_555
C14 N1 1_555 1_555
C15 C14 1_555 1_555
H9 C15 1_555 1_555
C16 C15 1_555 1_555
H10 C16 1_555 1_555
C17 C16 1_555 1_555
H11 C17 1_555 1_555
C18 C17 1_555 1_555
H12 C18 1_555 1_555
C19 C14 1_555 1_555
H13 C19 1_555 1_555
C20 C2 1_555 1_555
H14 C20 1_555 1_555
H15 C20 1_555 1_555
H16 C20 1_555 1_555
C21 N3 1_555 1_555
C22 O4 1_555 1_555
C23 C22 1_555 1_555
H17 C23 1_555 1_555
H18 C23 1_555 1_555
H19 C23 1_555 1_555
C24 C22 1_555 1_555
H20 C24 1_555 1_555
H21 C24 1_555 1_555
H22 C24 1_555 1_555
C25 C22 1_555 1_555
H23 C25 1_555 1_555
H24 C25 1_555 1_555
H25 C25 1_555 1_555
C1 C3 1_555 1_555
C2 C3 1_555 1_555
C4 C13 1_555 1_555
C11 C12 1_555 1_555
C12 C13 1_555 1_555
C18 C19 1_555 1_555

#END
