
#######################################################################
#
#                 Cambridge Crystallographic Data Centre
#                                CCDC 
#
#######################################################################
#
# If this CIF has been generated from an entry in the Cambridge 
# Structural Database, then it will include bibliographic, chemical, 
# crystal, experimental, refinement or atomic coordinate data resulting 
# from the CCDC's data processing and validation procedures.
#
#######################################################################

data_ZEJRAK
_chemical_formula_moiety         'C9 H13 N1 O3'
_chemical_name_systematic        
(4aR*,7aS*)-4a-(Prop-2-en-1-yl)-hexahydro-2H-furo[3,4-e][1,3]oxazin-2-one
_symmetry_cell_setting           monoclinic
_symmetry_space_group_name_H-M   'P 21/c'
_symmetry_Int_Tables_number      14
_space_group_name_Hall           '-P 2ybc'
loop_
_symmetry_equiv_pos_site_id
_symmetry_equiv_pos_as_xyz
1 x,y,z
2 -x,1/2+y,1/2-z
3 -x,-y,-z
4 x,1/2-y,1/2+z
_cell_length_a                   7.65800(10)
_cell_length_b                   9.53160(10)
_cell_length_c                   12.1849(2)
_cell_angle_alpha                90
_cell_angle_beta                 94.8050(10)
_cell_angle_gamma                90
_cell_volume                     886.287
_exptl_crystal_colour            colorless
_exptl_crystal_description       block
_cell_formula_units_Z            4
loop_
_atom_site_label
_atom_site_type_symbol
_atom_site_fract_x
_atom_site_fract_y
_atom_site_fract_z
O1 O 0.02620(11) 0.64325(9) 0.09303(6)
N1 N 0.13613(11) 0.42438(10) 0.12413(7)
H1 H 0.1033 0.4021 0.0572
C1 C 0.09278(13) 0.55344(12) 0.15530(8)
O2 O 0.12564(10) 0.58993(8) 0.26346(6)
C2 C 0.17252(14) 0.47420(12) 0.33494(8)
H2 H 0.0695 0.4143 0.3400
O3 O 0.33830(12) 0.39012(9) 0.48708(6)
C3 C 0.31928(13) 0.38699(11) 0.29209(8)
C4 C 0.23331(14) 0.31535(11) 0.19021(8)
H3 H 0.3215 0.2728 0.1481
H4 H 0.1539 0.2426 0.2110
C5 C 0.24527(15) 0.51442(13) 0.44995(9)
H5 H 0.3235 0.5943 0.4485
H6 H 0.1520 0.5362 0.4964
C6 C 0.36350(15) 0.29823(12) 0.39473(9)
H7 H 0.2865 0.2175 0.3953
H8 H 0.4838 0.2656 0.3976
C7 C 0.47695(13) 0.47857(11) 0.26483(8)
H9 H 0.4377 0.5462 0.2086
H10 H 0.5195 0.5303 0.3302
C8 C 0.62486(14) 0.39471(12) 0.22522(10)
H11 H 0.6850 0.3346 0.2753
C9 C 0.67592(16) 0.39989(13) 0.12480(11)
H12 H 0.6189 0.4588 0.0725
H13 H 0.7690 0.3446 0.1061
loop_
_geom_bond_atom_site_label_1
_geom_bond_atom_site_label_2
_geom_bond_site_symmetry_1
_geom_bond_site_symmetry_2
O1 C1 1_555 1_555
N1 H1 1_555 1_555
C1 N1 1_555 1_555
O2 C1 1_555 1_555
C2 O2 1_555 1_555
H2 C2 1_555 1_555
O3 C5 1_555 1_555
C3 C2 1_555 1_555
C4 N1 1_555 1_555
H3 C4 1_555 1_555
H4 C4 1_555 1_555
C5 C2 1_555 1_555
H5 C5 1_555 1_555
H6 C5 1_555 1_555
C6 O3 1_555 1_555
H7 C6 1_555 1_555
H8 C6 1_555 1_555
C7 C3 1_555 1_555
H9 C7 1_555 1_555
H10 C7 1_555 1_555
C8 C7 1_555 1_555
H11 C8 1_555 1_555
C9 C8 1_555 1_555
H12 C9 1_555 1_555
H13 C9 1_555 1_555
C3 C4 1_555 1_555
C3 C6 1_555 1_555

#END
