
#######################################################################
#
#                 Cambridge Crystallographic Data Centre
#                                CCDC 
#
#######################################################################
#
# If this CIF has been generated from an entry in the Cambridge 
# Structural Database, then it will include bibliographic, chemical, 
# crystal, experimental, refinement or atomic coordinate data resulting 
# from the CCDC's data processing and validation procedures.
#
#######################################################################

data_ZEKYEW
_chemical_formula_moiety         'C7 H4 Cl1 N1 O4,C7 H7 N1 O1'
_chemical_name_systematic        '2-chloro-4-nitrobenzoic acid benzamide'
_symmetry_cell_setting           triclinic
_symmetry_space_group_name_H-M   'P -1'
_symmetry_Int_Tables_number      2
_space_group_name_Hall           '-P 1'
loop_
_symmetry_equiv_pos_site_id
_symmetry_equiv_pos_as_xyz
1 x,y,z
2 -x,-y,-z
_cell_length_a                   7.324(3)
_cell_length_b                   8.505(5)
_cell_length_c                   12.583(4)
_cell_angle_alpha                82.99(4)
_cell_angle_beta                 80.56(3)
_cell_angle_gamma                71.05(5)
_cell_volume                     729.294
_exptl_crystal_colour            yellowish
_exptl_crystal_description       rectangular
_chemical_melting_point          '394 K'
_cell_formula_units_Z            2
loop_
_atom_site_label
_atom_site_type_symbol
_atom_site_fract_x
_atom_site_fract_y
_atom_site_fract_z
Cl1 Cl 0.33131(14) 0.18377(10) 0.51721(8)
O1 O 0.1780(3) 0.3745(3) 0.82052(17)
H1 H 0.1539 0.3103 0.8709
O2 O 0.1937(4) 0.9289(3) 0.37626(19)
O3 O 0.3770(4) 0.7192(3) 0.29007(18)
N1 N 0.2699(4) 0.7807(3) 0.3704(2)
O4 O 0.0509(4) 0.2391(4) 0.7278(2)
C1 C 0.2906(4) 0.4998(4) 0.4484(2)
H2 H 0.3493 0.4592 0.3817
C2 C 0.1695(4) 0.4549(4) 0.6369(2)
C3 C 0.1185(5) 0.6244(4) 0.6474(2)
H3 H 0.0622 0.6661 0.7141
C4 C 0.2350(4) 0.6674(3) 0.4633(2)
C5 C 0.1272(4) 0.3422(4) 0.7328(2)
C6 C 0.1500(4) 0.7323(4) 0.5603(2)
H4 H 0.1144 0.8462 0.5674
C7 C 0.2558(4) 0.3939(3) 0.5365(2)
O5 O 0.0853(3) 0.1818(3) 0.98151(18)
C8 C 0.3049(4) 0.1910(4) 1.0991(2)
N2 N 0.1518(5) -0.0226(4) 1.1109(2)
H5 H 0.0754 -0.0679 1.0904
H6 H 0.2136 -0.0678 1.1650
C9 C 0.2703(5) 0.3609(4) 1.0820(3)
H7 H 0.1663 0.4259 1.0464
C10 C 0.1740(5) 0.1154(4) 1.0598(2)
C11 C 0.5817(6) 0.1714(6) 1.1846(3)
H8 H 0.6881 0.1074 1.2187
C12 C 0.5434(6) 0.3411(6) 1.1680(3)
H9 H 0.6232 0.3919 1.1913
C13 C 0.4625(5) 0.0953(5) 1.1509(3)
H10 H 0.4880 -0.0194 1.1629
C14 C 0.3885(6) 0.4347(5) 1.1174(3)
H11 H 0.3624 0.5496 1.1067
loop_
_geom_bond_atom_site_label_1
_geom_bond_atom_site_label_2
_geom_bond_site_symmetry_1
_geom_bond_site_symmetry_2
Cl1 C7 1_555 1_555
O1 H1 1_555 1_555
O2 N1 1_555 1_555
O3 N1 1_555 1_555
N1 C4 1_555 1_555
O4 C5 1_555 1_555
C1 H2 1_555 1_555
C2 C3 1_555 1_555
C3 H3 1_555 1_555
C4 C1 1_555 1_555
C5 O1 1_555 1_555
C6 C3 1_555 1_555
H4 C6 1_555 1_555
C7 C1 1_555 1_555
O5 C10 1_555 1_555
C8 C9 1_555 1_555
N2 H5 1_555 1_555
H6 N2 1_555 1_555
C9 H7 1_555 1_555
C10 C8 1_555 1_555
C11 H8 1_555 1_555
C12 C11 1_555 1_555
H9 C12 1_555 1_555
C13 C8 1_555 1_555
H10 C13 1_555 1_555
C14 C9 1_555 1_555
H11 C14 1_555 1_555
C2 C5 1_555 1_555
C2 C7 1_555 1_555
C4 C6 1_555 1_555
N2 C10 1_555 1_555
C11 C13 1_555 1_555
C12 C14 1_555 1_555

#END
