
#######################################################################
#
#                 Cambridge Crystallographic Data Centre
#                                CCDC 
#
#######################################################################
#
# If this CIF has been generated from an entry in the Cambridge 
# Structural Database, then it will include bibliographic, chemical, 
# crystal, experimental, refinement or atomic coordinate data resulting 
# from the CCDC's data processing and validation procedures.
#
#######################################################################

data_ZENJOU
_chemical_formula_moiety         'C41 H21 N7 O1'
_chemical_name_systematic        
'4-[14,22-bis(4-cyanophenyl)-20-oxo-19,21,23,24-tetraazahexacyclo[16.3.1.1^5,8^.1^10,13^.0^4,21^.0^15,19^]tetracosa-1,3,5(24),6,8,10,12,14,16,18(22)-decaen-9-yl]benzonitrile unknown solvate'
_symmetry_cell_setting           triclinic
_symmetry_space_group_name_H-M   'P -1'
_symmetry_Int_Tables_number      2
_space_group_name_Hall           '-P 1'
loop_
_symmetry_equiv_pos_site_id
_symmetry_equiv_pos_as_xyz
1 x,y,z
2 -x,-y,-z
_cell_length_a                   7.7014(5)
_cell_length_b                   15.7670(9)
_cell_length_c                   17.5273(10)
_cell_angle_alpha                115.061(4)
_cell_angle_beta                 98.474(4)
_cell_angle_gamma                93.397(4)
_cell_volume                     1889.23
_exptl_crystal_colour            red
_exptl_crystal_description       needle
_cell_formula_units_Z            2
loop_
_atom_site_label
_atom_site_type_symbol
_atom_site_fract_x
_atom_site_fract_y
_atom_site_fract_z
O1 O 0.0361(3) 0.29606(16) 0.42291(15)
N1 N -0.0212(4) 0.16570(19) 0.28473(18)
N2 N 0.2708(4) 0.2364(2) 0.34998(17)
N3 N 0.1956(4) 0.2097(2) 0.51376(18)
H1 H 0.1473 0.1829 0.4602
N4 N -0.0925(4) 0.1339(2) 0.41856(19)
C1 C 0.3448(4) 0.2746(2) 0.5477(2)
C2 C 0.3060(4) 0.2237(2) 0.2696(2)
C3 C 0.4169(4) 0.2882(2) 0.4151(2)
C4 C 0.4447(4) 0.3087(2) 0.5017(2)
C5 C 0.1739(5) 0.1814(3) 0.1965(2)
C6 C 0.0075(5) 0.1475(3) 0.2033(2)
C7 C -0.2240(4) 0.1104(2) 0.3508(2)
C8 C 0.6074(4) 0.3752(2) 0.5563(2)
C9 C -0.0964(4) 0.1267(2) 0.6291(2)
C10 C -0.1847(4) 0.1209(2) 0.2795(2)
C11 C 0.1326(5) 0.1927(3) 0.5755(2)
C12 C 0.2562(5) 0.2450(3) 0.6517(2)
H2 H 0.2517 0.2453 0.7046
C13 C -0.1526(5) 0.1154(2) 0.4804(2)
C14 C 0.2070(5) 0.1795(3) 0.1142(2)
C15 C -0.0376(5) 0.1422(2) 0.5595(2)
C16 C 0.4789(5) 0.2689(3) 0.2858(2)
H3 H 0.5386 0.2720 0.2445
C17 C -0.2046(5) 0.0971(3) 0.7618(2)
C18 C 0.3828(5) 0.2949(3) 0.6356(2)
H4 H 0.4790 0.3359 0.6757
C19 C -0.2631(5) 0.0768(3) 0.1920(2)
H5 H -0.3756 0.0423 0.1689
N5 N -0.3017(5) 0.0638(3) 0.8828(3)
C20 C 0.5457(5) 0.3074(3) 0.3712(2)
H6 H 0.6581 0.3412 0.3973
C21 C -0.3328(5) 0.0736(3) 0.4466(3)
H7 H -0.4069 0.0519 0.4738
C22 C 0.0068(5) 0.0863(3) 0.6733(3)
H8 H 0.1145 0.0687 0.6582
C23 C -0.3770(5) 0.0710(3) 0.3680(3)
H9 H -0.4871 0.0478 0.3317
C24 C -0.1447(5) 0.0933(3) 0.1458(2)
H10 H -0.1640 0.0718 0.0866
C25 C 0.3589(5) 0.1484(3) 0.0835(2)
H11 H 0.4367 0.1241 0.1125
C26 C 0.0913(5) 0.2127(3) 0.0688(3)
H12 H -0.0130 0.2319 0.0874
C27 C -0.0463(5) 0.0720(3) 0.7385(3)
H13 H 0.0254 0.0450 0.7671
C28 C -0.2576(5) 0.1510(3) 0.6534(3)
H14 H -0.3302 0.1772 0.6243
C29 C 0.2840(5) 0.1899(3) -0.0314(2)
C30 C -0.2591(5) 0.0789(3) 0.8296(3)
C31 C 0.9062(5) 0.5044(3) 0.6567(3)
C32 C 0.0874(5) 0.2393(3) 0.3576(3)
C33 C 0.3958(5) 0.1528(3) 0.0114(3)
H15 H 0.4971 0.1306 -0.0089
C34 C -0.3125(5) 0.1374(3) 0.7188(3)
H16 H -0.4200 0.1549 0.7342
C35 C 0.1281(6) 0.2177(3) -0.0028(3)
H17 H 0.0484 0.2399 -0.0330
C36 C 0.7698(6) 0.3509(3) 0.5619(4)
H18 H 0.7841 0.2882 0.5304
N6 N 0.3617(6) 0.2061(4) -0.1637(3)
C37 C 0.9157(6) 0.4139(4) 0.6116(4)
H19 H 1.0254 0.3924 0.6138
C38 C 0.3270(6) 0.1981(4) -0.1053(3)
C39 C 1.0567(7) 0.5729(4) 0.7086(4)
N7 N 1.1729(7) 0.6289(4) 0.7505(4)
C40 C 0.5942(7) 0.4676(4) 0.6077(5)
H20 H 0.4829 0.4876 0.6077
C41 C 0.7378(8) 0.5310(4) 0.6585(5)
H21 H 0.7234 0.5924 0.6946
loop_
_geom_bond_atom_site_label_1
_geom_bond_atom_site_label_2
_geom_bond_site_symmetry_1
_geom_bond_site_symmetry_2
O1 C32 1_555 1_555
N1 C6 1_555 1_555
N2 C2 1_555 1_555
N3 H1 1_555 1_555
N4 C7 1_555 1_555
C1 N3 1_555 1_555
C2 C5 1_555 1_555
C3 N2 1_555 1_555
C4 C1 1_555 1_555
C5 C6 1_555 1_555
C6 C24 1_555 1_555
C7 C10 1_555 1_555
C8 C4 1_555 1_555
C9 C15 1_555 1_555
C10 N1 1_555 1_555
C11 N3 1_555 1_555
C12 C11 1_555 1_555
H2 C12 1_555 1_555
C13 N4 1_555 1_555
C14 C5 1_555 1_555
C15 C11 1_555 1_555
C16 C2 1_555 1_555
H3 C16 1_555 1_555
C17 C27 1_555 1_555
C18 C1 1_555 1_555
H4 C18 1_555 1_555
C19 C10 1_555 1_555
H5 C19 1_555 1_555
N5 C30 1_555 1_555
C20 C3 1_555 1_555
H6 C20 1_555 1_555
C21 C13 1_555 1_555
H7 C21 1_555 1_555
C22 C9 1_555 1_555
H8 C22 1_555 1_555
C23 C7 1_555 1_555
H9 C23 1_555 1_555
C24 C19 1_555 1_555
H10 C24 1_555 1_555
C25 C14 1_555 1_555
H11 C25 1_555 1_555
C26 C14 1_555 1_555
H12 C26 1_555 1_555
C27 C22 1_555 1_555
H13 C27 1_555 1_555
C28 C9 1_555 1_555
H14 C28 1_555 1_555
C29 C33 1_555 1_555
C30 C17 1_555 1_555
C31 C37 1_555 1_555
C32 N1 1_555 1_555
C33 C25 1_555 1_555
H15 C33 1_555 1_555
C34 C17 1_555 1_555
H16 C34 1_555 1_555
C35 C26 1_555 1_555
H17 C35 1_555 1_555
C36 C8 1_555 1_555
H18 C36 1_555 1_555
N6 C38 1_555 1_555
C37 C36 1_555 1_555
H19 C37 1_555 1_555
C38 C29 1_555 1_555
C39 C31 1_555 1_555
N7 C39 1_555 1_555
C40 C8 1_555 1_555
H20 C40 1_555 1_555
C41 C31 1_555 1_555
H21 C41 1_555 1_555
N2 C32 1_555 1_555
C3 C4 1_555 1_555
C12 C18 1_555 1_555
C13 C15 1_555 1_555
C16 C20 1_555 1_555
C21 C23 1_555 1_555
C28 C34 1_555 1_555
C29 C35 1_555 1_555
C40 C41 1_555 1_555

#END
