
#######################################################################
#
#                 Cambridge Crystallographic Data Centre
#                                CCDC 
#
#######################################################################
#
# If this CIF has been generated from an entry in the Cambridge 
# Structural Database, then it will include bibliographic, chemical, 
# crystal, experimental, refinement or atomic coordinate data resulting 
# from the CCDC's data processing and validation procedures.
#
#######################################################################

data_ZESGAH
_chemical_formula_moiety         'C77 H16 F34 N7 P1,4.5(C2 H3 N1)'
_chemical_name_systematic        
'3,4,5,6-Tetrafluoro-13,18,23,28,33,38-hexakis(pentafluorophenyl)-43,44,45,46,47,48,49-hepta-aza-1\l^5^-phosphatridecacyclo[22.19.1.1^1,29^.1^1,34^.1^9,12^.1^14,17^.1^19,22^.0^2,7^.0^8,42^.0^27,44^.0^32,46^.0^37,45^.0^39,43^]nonatetraconta-2,4,6,8,10,12,14(48),15,17,19,21,23,25,27,29,31,33,35,37,39,41-henicosaene acetonitrile solvate'
_symmetry_cell_setting           monoclinic
_symmetry_space_group_name_H-M   'P 21/a'
_symmetry_Int_Tables_number      14
_space_group_name_Hall           '-P 2yab'
loop_
_symmetry_equiv_pos_site_id
_symmetry_equiv_pos_as_xyz
1 x,y,z
2 1/2-x,1/2+y,-z
3 -x,-y,-z
4 1/2+x,1/2-y,z
_cell_length_a                   23.9273(4)
_cell_length_b                   14.4246(3)
_cell_length_c                   25.0687(5)
_cell_angle_alpha                90
_cell_angle_beta                 117.3853(8)
_cell_angle_gamma                90
_cell_volume                     7682.63
_exptl_crystal_colour            violet
_cell_formula_units_Z            4
loop_
_atom_site_label
_atom_site_type_symbol
_atom_site_fract_x
_atom_site_fract_y
_atom_site_fract_z
C1 C 0.3272(2) 0.7582(3) 0.21169(19)
C2 C 0.3195(2) 0.7399(3) 0.15393(19)
H1 H 0.3414 0.6944 0.1434
C3 C 0.2739(2) 0.8007(3) 0.1147(2)
H2 H 0.2595 0.8044 0.0726
C4 C 0.2531(2) 0.8551(3) 0.14791(18)
C5 C 0.2117(2) 0.9302(3) 0.13191(18)
C6 C 0.1999(2) 0.9737(3) 0.17450(18)
C7 C 0.1613(2) 1.0527(3) 0.16597(19)
H3 H 0.1378 1.0839 0.1289
C8 C 0.1634(2) 1.0765(3) 0.21921(19)
H4 H 0.1424 1.1282 0.2253
C9 C 0.2012(2) 1.0135(3) 0.26401(18)
C10 C 0.2152(2) 1.0165(3) 0.32377(19)
C11 C 0.2477(2) 0.9444(3) 0.36267(18)
C12 C 0.2718(2) 0.9334(3) 0.42503(18)
H5 H 0.2691 0.9771 0.4521
C13 C 0.3001(2) 0.8472(3) 0.43970(19)
H6 H 0.3207 0.8214 0.4789
C14 C 0.2932(2) 0.8044(3) 0.38706(18)
C15 C 0.3033(2) 0.7126(3) 0.37473(18)
C16 C 0.2752(2) 0.6818(3) 0.31590(18)
C17 C 0.2671(2) 0.5910(3) 0.29190(19)
H7 H 0.2865 0.5364 0.3138
C18 C 0.2267(2) 0.5952(3) 0.23220(19)
H8 H 0.2138 0.5437 0.2056
C19 C 0.2066(2) 0.6879(3) 0.21539(18)
C20 C 0.1521(2) 0.7183(3) 0.16458(18)
C21 C 0.1322(2) 0.6709(3) 0.10980(18)
C22 C 0.0741(2) 0.6640(3) 0.05748(19)
H9 H 0.0368 0.6966 0.0503
C23 C 0.0799(2) 0.6024(3) 0.01841(19)
H10 H 0.0477 0.5851 -0.0201
C24 C 0.1425(2) 0.5696(3) 0.04592(18)
C25 C 0.1713(2) 0.4981(3) 0.02841(19)
C26 C 0.2288(2) 0.4549(3) 0.06595(19)
C27 C 0.2474(2) 0.3654(3) 0.0525(2)
H11 H 0.2290 0.3342 0.0149
C28 C 0.2957(2) 0.3355(3) 0.10362(19)
H12 H 0.3165 0.2775 0.1097
C29 C 0.3099(2) 0.4079(3) 0.14767(18)
C30 C 0.3591(2) 0.4034(3) 0.2077(2)
C31 C 0.3818(2) 0.4793(3) 0.2459(2)
C32 C 0.4264(2) 0.4850(3) 0.3082(2)
H13 H 0.4489 0.4345 0.3331
C33 C 0.4310(2) 0.5755(3) 0.3254(2)
H14 H 0.4568 0.5984 0.3647
C34 C 0.3906(2) 0.6304(3) 0.27445(19)
C35 C 0.3734(2) 0.7235(3) 0.26832(19)
C36 C 0.1850(2) 0.9677(3) 0.06892(18)
C37 C 0.1514(2) 0.9136(3) 0.01855(19)
C38 C 0.1265(2) 0.9478(3) -0.03918(18)
C39 C 0.1369(2) 1.0391(3) -0.04835(19)
C40 C 0.1712(2) 1.0944(3) 0.0000(2)
C41 C 0.1950(2) 1.0595(3) 0.05725(19)
C42 C 0.2042(3) 1.1078(4) 0.3475(3)
C43 C 0.1584(3) 1.1072(3) 0.3670(3)
C44 C 0.1431(3) 1.1888(4) 0.3868(3)
C45 C 0.1735(3) 1.2710(3) 0.3870(3)
C46 C 0.2193(3) 1.2716(4) 0.3676(3)
C47 C 0.2347(3) 1.1900(5) 0.3478(3)
F1 F 0.1271(10) 1.0298(15) 0.3696(9)
F2 F 0.0997(7) 1.1899(9) 0.4076(7)
F3 F 0.1613(5) 1.3481(8) 0.4083(5)
F4 F 0.2496(7) 1.3504(11) 0.3696(8)
F5 F 0.2769(14) 1.193(2) 0.3312(14)
C48 C 0.3371(2) 0.6444(3) 0.42356(18)
C49 C 0.4016(2) 0.6468(3) 0.4594(2)
C50 C 0.4339(2) 0.5806(4) 0.5028(2)
C51 C 0.4006(3) 0.5090(4) 0.5115(2)
C52 C 0.3364(2) 0.5053(3) 0.4777(2)
C53 C 0.3059(2) 0.5712(3) 0.43425(18)
C54 C 0.1111(2) 0.7876(3) 0.17340(18)
C55 C 0.0776(2) 0.8581(3) 0.13383(18)
C56 C 0.0413(2) 0.9219(3) 0.14483(19)
C57 C 0.0360(2) 0.9176(3) 0.1970(2)
C58 C 0.0660(2) 0.8470(3) 0.23669(19)
C59 C 0.1015(2) 0.7836(3) 0.22498(19)
C60 C 0.1343(2) 0.4586(3) -0.03299(18)
C61 C 0.0987(2) 0.3789(3) -0.0434(2)
C62 C 0.0686(2) 0.3375(4) -0.0996(2)
C63 C 0.0722(2) 0.3771(4) -0.1474(2)
C64 C 0.1068(3) 0.4571(4) -0.1387(2)
C65 C 0.1364(2) 0.4966(4) -0.0823(2)
C66 C 0.3863(2) 0.3107(3) 0.23156(19)
C67 C 0.4497(2) 0.2899(3) 0.2529(2)
C68 C 0.4743(2) 0.2037(3) 0.2750(2)
C69 C 0.4362(2) 0.1349(3) 0.2763(2)
C70 C 0.3730(2) 0.1512(3) 0.2544(2)
C71 C 0.3490(2) 0.2377(3) 0.2331(2)
C72 C 0.3979(2) 0.7936(3) 0.31590(19)
C73 C 0.4619(2) 0.8019(3) 0.3551(2)
C74 C 0.4865(2) 0.8748(4) 0.3937(2)
C75 C 0.4477(2) 0.9446(3) 0.3945(2)
C76 C 0.3847(2) 0.9383(3) 0.35709(19)
C77 C 0.3573(2) 0.8644(3) 0.31737(19)
N1 N 0.28644(17) 0.8307(2) 0.20830(15)
N2 N 0.22497(17) 0.9450(2) 0.23679(14)
N3 N 0.26186(17) 0.8658(2) 0.33856(14)
N4 N 0.24014(17) 0.7440(2) 0.26713(14)
N5 N 0.17306(17) 0.6139(2) 0.10007(15)
H15 H 0.2132 0.6070 0.1253
N6 N 0.26964(17) 0.4807(3) 0.12414(15)
N7 N 0.36214(17) 0.5675(2) 0.22782(16)
H16 H 0.3347 0.5828 0.1910
F6 F 0.14126(12) 0.82271(16) 0.02376(10)
F7 F 0.09234(12) 0.89319(18) -0.08640(10)
F8 F 0.11227(13) 1.07389(19) -0.10438(11)
F9 F 0.18216(15) 1.18276(19) -0.00927(12)
F10 F 0.22959(14) 1.11730(18) 0.10332(11)
F11 F 0.43569(13) 0.7158(2) 0.45216(12)
F12 F 0.49645(14) 0.5848(2) 0.53582(14)
F13 F 0.43080(15) 0.4436(2) 0.55273(13)
F14 F 0.30446(14) 0.43575(19) 0.48709(12)
F15 F 0.24312(12) 0.56312(19) 0.40134(11)
F16 F 0.07979(12) 0.86733(17) 0.08109(10)
F17 F 0.01178(13) 0.98924(18) 0.10448(11)
F18 F 0.00137(14) 0.9803(2) 0.20826(12)
F19 F 0.05817(14) 0.8387(2) 0.28648(11)
F20 F 0.12631(12) 0.71377(18) 0.26466(10)
F21 F 0.09389(15) 0.3367(2) 0.00239(13)
F22 F 0.03624(15) 0.2584(2) -0.10657(14)
F23 F 0.04245(14) 0.3385(2) -0.20178(12)
F24 F 0.11206(19) 0.4938(3) -0.18470(13)
F25 F 0.16931(16) 0.5748(2) -0.07607(13)
F26 F 0.48949(13) 0.35517(18) 0.25181(14)
F27 F 0.53584(14) 0.1869(2) 0.29398(15)
F28 F 0.46066(14) 0.05051(18) 0.29833(12)
F29 F 0.33414(14) 0.0823(2) 0.25317(13)
F30 F 0.28719(13) 0.2508(2) 0.21432(12)
F31 F 0.50344(13) 0.7397(2) 0.35321(13)
F32 F 0.54892(13) 0.8815(2) 0.42895(14)
F33 F 0.47138(13) 1.01904(19) 0.42983(12)
F34 F 0.34893(12) 1.01024(17) 0.35746(10)
P1 P 0.27167(6) 0.85329(8) 0.27120(5)
N8 N 0.2214(3) 0.6546(4) 0.5023(2)
C84 C 0.1913(3) 0.6979(4) 0.4609(2)
C85 C 0.1540(3) 0.7536(4) 0.4081(2)
H17 H 0.1815 0.7806 0.3929
H18 H 0.1330 0.8033 0.4187
H19 H 0.1223 0.7143 0.3769
N9 N 0.1418(3) 1.3095(4) 0.2346(2)
C86 C 0.1494(3) 1.3307(4) 0.1944(3)
C87 C 0.1564(3) 1.3556(4) 0.1425(3)
H20 H 0.1530 1.2999 0.1188
H21 H 0.1977 1.3843 0.1552
H22 H 0.1233 1.3996 0.1180
N10 N 0.0492(3) 0.5130(4) 0.1674(3)
C88 C 0.0740(3) 0.5092(4) 0.2191(3)
C89 C 0.1055(3) 0.5055(4) 0.2836(3)
H23 H 0.1413 0.5483 0.2992
H24 H 0.1206 0.4423 0.2967
H25 H 0.0761 0.5234 0.2990
N11 N 0.0416(3) 1.1974(5) 0.0695(3)
C90 C 0.0153(4) 1.2348(5) 0.0942(3)
C91 C -0.0167(4) 1.2816(5) 0.1237(3)
H26 H 0.0020 1.3430 0.1373
H27 H -0.0123 1.2450 0.1584
H28 H -0.0615 1.2884 0.0954
N12 N 0.3540(5) 0.3879(7) 0.3725(5)
C92 C 0.3745(6) 0.3196(8) 0.3981(6)
C93 C 0.3963(13) 0.2370(14) 0.4350(12)
C78? C 0.1870(4) 1.0945(4) 0.3451(3)
C79? C 0.1380(4) 1.0862(4) 0.3601(4)
C80? C 0.1187(3) 1.1628(5) 0.3810(4)
C81? C 0.1484(3) 1.2478(4) 0.3869(3)
C82? C 0.1973(3) 1.2562(4) 0.3719(3)
C83? C 0.2166(3) 1.1796(4) 0.3510(3)
F35? F 0.1111(10) 1.0081(14) 0.3534(8)
F36? F 0.0720(7) 1.1565(10) 0.3931(7)
F37? F 0.1309(5) 1.3238(8) 0.4063(5)
F38? F 0.2257(7) 1.3387(11) 0.3763(8)
F39? F 0.2661(12) 1.191(2) 0.3360(11)
N13? N 0.4009(17) 0.228(3) 0.4552(14)
C94? C 0.4163(10) 0.2344(15) 0.4177(9)
C95? C 0.4426(12) 0.2650(19) 0.3790(11)
loop_
_geom_bond_atom_site_label_1
_geom_bond_atom_site_label_2
_geom_bond_site_symmetry_1
_geom_bond_site_symmetry_2
C1 C2 1_555 1_555
C2 H1 1_555 1_555
C3 C2 1_555 1_555
H2 C3 1_555 1_555
C4 C3 1_555 1_555
C5 C4 1_555 1_555
C6 C5 1_555 1_555
C7 C6 1_555 1_555
H3 C7 1_555 1_555
C8 C7 1_555 1_555
H4 C8 1_555 1_555
C9 C8 1_555 1_555
C10 C9 1_555 1_555
C11 C10 1_555 1_555
C12 C11 1_555 1_555
H5 C12 1_555 1_555
C13 C12 1_555 1_555
H6 C13 1_555 1_555
C14 C13 1_555 1_555
C15 C14 1_555 1_555
C16 C15 1_555 1_555
C17 C16 1_555 1_555
H7 C17 1_555 1_555
C18 C17 1_555 1_555
H8 C18 1_555 1_555
C19 C18 1_555 1_555
C20 C19 1_555 1_555
C21 C20 1_555 1_555
C22 C21 1_555 1_555
H9 C22 1_555 1_555
C23 C22 1_555 1_555
H10 C23 1_555 1_555
C24 C23 1_555 1_555
C25 C24 1_555 1_555
C26 C25 1_555 1_555
C27 C26 1_555 1_555
H11 C27 1_555 1_555
C28 C27 1_555 1_555
H12 C28 1_555 1_555
C29 C28 1_555 1_555
C30 C29 1_555 1_555
C31 C30 1_555 1_555
C32 C31 1_555 1_555
H13 C32 1_555 1_555
C33 C32 1_555 1_555
H14 C33 1_555 1_555
C34 C33 1_555 1_555
C35 C1 1_555 1_555
C36 C5 1_555 1_555
C37 C36 1_555 1_555
C38 C37 1_555 1_555
C39 C38 1_555 1_555
C40 C39 1_555 1_555
C41 C36 1_555 1_555
C42 C10 1_555 1_555
C43 C42 1_555 1_555
C44 C43 1_555 1_555
C45 C44 1_555 1_555
C46 C45 1_555 1_555
C47 C42 1_555 1_555
F1 C43 1_555 1_555
F2 C44 1_555 1_555
F3 C45 1_555 1_555
F4 C46 1_555 1_555
F5 C47 1_555 1_555
C48 C15 1_555 1_555
C49 C48 1_555 1_555
C50 C49 1_555 1_555
C51 C50 1_555 1_555
C52 C51 1_555 1_555
C53 C48 1_555 1_555
C54 C20 1_555 1_555
C55 C54 1_555 1_555
C56 C55 1_555 1_555
C57 C56 1_555 1_555
C58 C57 1_555 1_555
C59 C54 1_555 1_555
C60 C25 1_555 1_555
C61 C60 1_555 1_555
C62 C61 1_555 1_555
C63 C62 1_555 1_555
C64 C63 1_555 1_555
C65 C60 1_555 1_555
C66 C30 1_555 1_555
C67 C66 1_555 1_555
C68 C67 1_555 1_555
C69 C68 1_555 1_555
C70 C69 1_555 1_555
C71 C66 1_555 1_555
C72 C35 1_555 1_555
C73 C72 1_555 1_555
C74 C73 1_555 1_555
C75 C74 1_555 1_555
C76 C75 1_555 1_555
C77 C72 1_555 1_555
N1 C1 1_555 1_555
N2 C6 1_555 1_555
N3 C11 1_555 1_555
N4 C16 1_555 1_555
N5 C21 1_555 1_555
H15 N5 1_555 1_555
N6 C26 1_555 1_555
N7 C31 1_555 1_555
H16 N7 1_555 1_555
F6 C37 1_555 1_555
F7 C38 1_555 1_555
F8 C39 1_555 1_555
F9 C40 1_555 1_555
F10 C41 1_555 1_555
F11 C49 1_555 1_555
F12 C50 1_555 1_555
F13 C51 1_555 1_555
F14 C52 1_555 1_555
F15 C53 1_555 1_555
F16 C55 1_555 1_555
F17 C56 1_555 1_555
F18 C57 1_555 1_555
F19 C58 1_555 1_555
F20 C59 1_555 1_555
F21 C61 1_555 1_555
F22 C62 1_555 1_555
F23 C63 1_555 1_555
F24 C64 1_555 1_555
F25 C65 1_555 1_555
F26 C67 1_555 1_555
F27 C68 1_555 1_555
F28 C69 1_555 1_555
F29 C70 1_555 1_555
F30 C71 1_555 1_555
F31 C73 1_555 1_555
F32 C74 1_555 1_555
F33 C75 1_555 1_555
F34 C76 1_555 1_555
P1 C77 1_555 1_555
N8 C84 1_555 1_555
C84 C85 1_555 1_555
C85 H17 1_555 1_555
H18 C85 1_555 1_555
H19 C85 1_555 1_555
N9 C86 1_555 1_555
C86 C87 1_555 1_555
C87 H20 1_555 1_555
H21 C87 1_555 1_555
H22 C87 1_555 1_555
N10 C88 1_555 1_555
C88 C89 1_555 1_555
C89 H23 1_555 1_555
H24 C89 1_555 1_555
H25 C89 1_555 1_555
N11 C90 1_555 1_555
C90 C91 1_555 1_555
C91 H26 1_555 1_555
H27 C91 1_555 1_555
H28 C91 1_555 1_555
N12 C92 1_555 1_555
C92 C93 1_555 1_555
C4 N1 1_555 1_555
C9 N2 1_555 1_555
C14 N3 1_555 1_555
C19 N4 1_555 1_555
C24 N5 1_555 1_555
C29 N6 1_555 1_555
C34 C35 1_555 1_555
C34 N7 1_555 1_555
C40 C41 1_555 1_555
C46 C47 1_555 1_555
C52 C53 1_555 1_555
C58 C59 1_555 1_555
C64 C65 1_555 1_555
C70 C71 1_555 1_555
C76 C77 1_555 1_555
N1 P1 1_555 1_555
N2 P1 1_555 1_555
N3 P1 1_555 1_555
N4 P1 1_555 1_555

#END
