
#######################################################################
#
#                 Cambridge Crystallographic Data Centre
#                                CCDC 
#
#######################################################################
#
# If this CIF has been generated from an entry in the Cambridge 
# Structural Database, then it will include bibliographic, chemical, 
# crystal, experimental, refinement or atomic coordinate data resulting 
# from the CCDC's data processing and validation procedures.
#
#######################################################################

data_ZESGIP
_chemical_formula_moiety         'C77 H38 Cl14 N7 O1 P1,4.5(C2 H3 N1)'
_chemical_name_systematic        
'5,10,15,20,25,30,38-heptakis(2,6-Dichlorophenyl)-35,37,39,40,41,42,43-hepta-aza-36-phosphadecacyclo[32.3.1.1^6,9^.1^11,14^.1^16,19^.1^21,24^.1^26,29^.0^4,37^.0^7,36^.0^31,35^]tritetraconta-1,3,5,7,9,11,13,15,17,19(41),20,22,24,26,28,30,32,34(38)-octadecaene 36-oxide acetonitrile solvate'
_symmetry_cell_setting           monoclinic
_symmetry_space_group_name_H-M   'C 2/c'
_symmetry_Int_Tables_number      15
_space_group_name_Hall           '-C 2yn'
loop_
_symmetry_equiv_pos_site_id
_symmetry_equiv_pos_as_xyz
1 x,y,z
2 -x,y,1/2-z
3 1/2+x,1/2+y,z
4 1/2-x,1/2+y,1/2-z
5 -x,-y,-z
6 x,-y,1/2+z
7 1/2-x,1/2-y,-z
8 1/2+x,1/2-y,1/2+z
_cell_length_a                   55.0034(10)
_cell_length_b                   13.2978(2)
_cell_length_c                   23.9021(4)
_cell_angle_alpha                90
_cell_angle_beta                 112.7130(7)
_cell_angle_gamma                90
_cell_volume                     16126.8
_exptl_crystal_colour            violet
_exptl_crystal_description       prism
_cell_formula_units_Z            8
loop_
_atom_site_label
_atom_site_type_symbol
_atom_site_fract_x
_atom_site_fract_y
_atom_site_fract_z
C1 C 0.46193(9) 0.4309(3) 0.2930(2)
C2 C 0.48864(9) 0.4610(4) 0.3087(2)
H1 H 0.4940 0.5244 0.2992
C3 C 0.50515(9) 0.3869(3) 0.3389(2)
H2 H 0.5238 0.3914 0.3550
C4 C 0.49080(9) 0.3020(3) 0.3430(2)
C5 C 0.50001(9) 0.2093(3) 0.3691(2)
C6 C 0.48294(9) 0.1288(4) 0.3640(2)
C7 C 0.48629(9) 0.0274(3) 0.3785(2)
H3 H 0.5026 -0.0045 0.4010
C8 C 0.46183(10) -0.0200(4) 0.3547(2)
H4 H 0.4586 -0.0894 0.3583
C9 C 0.44295(9) 0.0521(3) 0.3248(2)
C10 C 0.41562(9) 0.0427(3) 0.2849(2)
C11 C 0.40318(9) 0.1210(3) 0.2474(2)
C12 C 0.41362(8) 0.2217(3) 0.24871(19)
C13 C 0.39652(8) 0.2748(3) 0.20165(19)
H5 H 0.3989 0.3421 0.1913
C14 C 0.37416(9) 0.2123(3) 0.17008(19)
C15 C 0.35106(8) 0.2406(3) 0.12285(19)
C16 C 0.34890(8) 0.3380(3) 0.09412(18)
C17 C 0.36563(8) 0.3867(3) 0.07068(19)
H6 H 0.3820 0.3617 0.0721
C18 C 0.35412(8) 0.4773(3) 0.04508(19)
H7 H 0.3611 0.5246 0.0254
C19 C 0.33022(8) 0.4863(3) 0.05353(19)
C20 C 0.31149(8) 0.5664(3) 0.03891(19)
C21 C 0.29288(8) 0.5752(3) 0.06494(19)
C22 C 0.26958(9) 0.6380(3) 0.0447(2)
H8 H 0.2642 0.6840 0.0117
C23 C 0.25682(9) 0.6181(3) 0.0822(2)
H9 H 0.2404 0.6450 0.0794
C24 C 0.27311(8) 0.5484(3) 0.12694(19)
C25 C 0.27014(9) 0.5171(3) 0.1814(2)
C26 C 0.29133(8) 0.4821(3) 0.2309(2)
C27 C 0.29266(9) 0.4494(4) 0.2888(2)
H10 H 0.2782 0.4446 0.3010
C28 C 0.31814(9) 0.4261(3) 0.3236(2)
H11 H 0.3244 0.4025 0.3643
C29 C 0.33387(9) 0.4432(3) 0.28888(19)
C30 C 0.36078(8) 0.4317(3) 0.30709(19)
C31 C 0.37574(8) 0.4614(3) 0.27287(19)
C32 C 0.36894(9) 0.5134(3) 0.21757(19)
H12 H 0.3517 0.5330 0.1914
C33 C 0.39198(8) 0.5309(3) 0.20815(19)
H13 H 0.3932 0.5657 0.1746
C34 C 0.41324(8) 0.4884(3) 0.25664(19)
C35 C 0.44041(8) 0.4928(3) 0.26449(19)
C36 C 0.52917(9) 0.1976(3) 0.4031(2)
C37 C 0.54604(9) 0.1699(4) 0.3748(2)
C38 C 0.57325(10) 0.1612(4) 0.4061(2)
H14 H 0.5843 0.1421 0.3857
C39 C 0.58364(10) 0.1812(4) 0.4678(2)
H15 H 0.6021 0.1771 0.4899
C40 C 0.56747(10) 0.2068(4) 0.4974(2)
H16 H 0.5747 0.2189 0.5399
C41 C 0.54085(10) 0.2147(4) 0.4651(2)
C42 C 0.40368(9) -0.0574(3) 0.2820(2)
C43 C 0.40082(10) -0.1261(3) 0.2360(2)
C44 C 0.39146(11) -0.2227(4) 0.2356(2)
H17 H 0.3902 -0.2681 0.2038
C45 C 0.38402(11) -0.2520(4) 0.2821(2)
H18 H 0.3776 -0.3184 0.2823
C46 C 0.38566(11) -0.1874(4) 0.3280(2)
H19 H 0.3800 -0.2077 0.3591
C47 C 0.39570(10) -0.0918(3) 0.3282(2)
C48 C 0.32813(9) 0.1699(3) 0.1001(2)
C49 C 0.32587(9) 0.0979(4) 0.0564(2)
C50 C 0.30500(10) 0.0318(4) 0.0342(2)
H20 H 0.3041 -0.0160 0.0040
C51 C 0.28541(11) 0.0364(4) 0.0569(3)
H21 H 0.2708 -0.0079 0.0418
C52 C 0.28698(11) 0.1047(4) 0.1012(3)
H22 H 0.2738 0.1065 0.1176
C53 C 0.30807(10) 0.1712(4) 0.1218(2)
C54 C 0.31235(8) 0.6456(3) -0.00404(19)
C55 C 0.29400(8) 0.6512(3) -0.06392(19)
C56 C 0.29386(9) 0.7270(3) -0.1034(2)
H23 H 0.2810 0.7280 -0.1437
C57 C 0.31289(10) 0.8022(3) -0.0832(2)
H24 H 0.3132 0.8547 -0.1099
C58 C 0.33125(10) 0.8004(3) -0.0246(2)
H25 H 0.3443 0.8513 -0.0106
C59 C 0.33051(9) 0.7236(3) 0.0138(2)
C60 C 0.24419(9) 0.5246(4) 0.1876(2)
C61 C 0.23921(12) 0.5975(5) 0.2235(2)
C62 C 0.21564(19) 0.5959(8) 0.2342(3)
H26 H 0.2128 0.6451 0.2598
C63 C 0.19716(18) 0.5249(9) 0.2080(5)
H27 H 0.1813 0.5247 0.2150
C64 C 0.20121(13) 0.4538(6) 0.1717(5)
H28 H 0.1882 0.4037 0.1535
C65 C 0.22447(10) 0.4542(4) 0.1611(3)
C66 C 0.37490(8) 0.3870(3) 0.36867(19)
C67 C 0.37432(9) 0.2841(3) 0.3788(2)
C68 C 0.38640(9) 0.2415(4) 0.4364(2)
H29 H 0.3857 0.1709 0.4418
C69 C 0.39920(9) 0.3026(4) 0.4849(2)
H30 H 0.4073 0.2743 0.5242
C70 C 0.40044(9) 0.4060(4) 0.4771(2)
H31 H 0.4095 0.4483 0.5108
C71 C 0.38843(9) 0.4458(4) 0.4200(2)
C72 C 0.44702(8) 0.5843(3) 0.2367(2)
C73 C 0.44523(9) 0.5843(4) 0.1762(2)
C74 C 0.45291(10) 0.6654(5) 0.1513(2)
H32 H 0.4520 0.6621 0.1108
C75 C 0.46197(10) 0.7516(4) 0.1851(3)
H33 H 0.4672 0.8078 0.1679
C76 C 0.46340(10) 0.7562(4) 0.2441(3)
H34 H 0.4697 0.8153 0.2676
C77 C 0.45552(9) 0.6735(4) 0.2686(2)
N1 N 0.46342(7) 0.3275(3) 0.31264(16)
N2 N 0.45587(7) 0.1442(3) 0.33184(16)
N3 N 0.37887(7) 0.1208(3) 0.19936(16)
H35 H 0.3680 0.0694 0.1890
N4 N 0.32759(7) 0.3996(3) 0.08191(15)
H36 H 0.3139 0.3856 0.0911
N5 N 0.29442(7) 0.5213(3) 0.11561(16)
N6 N 0.31662(7) 0.4767(3) 0.23294(16)
H37 H 0.3212 0.4926 0.2026
N7 N 0.40256(7) 0.4475(3) 0.29443(16)
H38 H 0.4117 0.4160 0.3285
Cl1 Cl 0.53295(3) 0.14271(12) 0.29772(6)
Cl2 Cl 0.52081(3) 0.24822(11) 0.50380(6)
Cl3 Cl 0.40954(3) -0.08932(8) 0.17596(5)
Cl4 Cl 0.39869(3) -0.01218(9) 0.38818(6)
Cl5 Cl 0.35020(3) 0.09060(10) 0.02668(7)
Cl6 Cl 0.30877(3) 0.26147(9) 0.17529(5)
Cl7 Cl 0.26965(2) 0.55818(9) -0.09079(5)
Cl8 Cl 0.35323(2) 0.72917(9) 0.08863(6)
Cl9 Cl 0.26202(4) 0.69264(16) 0.25550(7)
Cl10 Cl 0.22903(3) 0.36239(11) 0.11511(9)
Cl11 Cl 0.35858(3) 0.20536(9) 0.31752(5)
Cl12 Cl 0.38978(3) 0.57585(9) 0.41134(6)
Cl13 Cl 0.43244(2) 0.47820(10) 0.13185(5)
Cl14 Cl 0.45753(3) 0.68200(9) 0.34267(6)
P1 P 0.43994(2) 0.25347(8) 0.31794(5)
O1 O 0.43085(6) 0.2888(2) 0.36502(13)
N8 N 0.16053(9) 0.4555(4) 0.3107(2)
C78 C 0.17244(11) 0.3843(4) 0.3132(2)
C79 C 0.18831(16) 0.2953(5) 0.3179(4)
H39 H 0.2068 0.3148 0.3300
H40 H 0.1823 0.2612 0.2785
H41 H 0.1866 0.2498 0.3484
N9 N 0.56550(13) 0.0841(4) -0.0599(3)
C80 C 0.55578(12) 0.1001(4) -0.0268(2)
C81 C 0.54351(12) 0.1209(5) 0.0152(3)
H42 H 0.5266 0.1543 -0.0062
H43 H 0.5550 0.1648 0.0475
H44 H 0.5406 0.0577 0.0328
C82 C 0.03117(11) 0.0847(5) 0.5032(3)
N10 N 0.02669(11) 0.1397(5) 0.4636(3)
C83 C 0.03645(13) 0.0178(4) 0.5541(3)
H45 H 0.0289 0.0459 0.5817
H46 H 0.0555 0.0100 0.5756
H47 H 0.0285 -0.0480 0.5395
C84 C 0.18397(14) 0.1512(5) 0.0850(3)
H48 H 0.2027 0.1343 0.1045
H49 H 0.1814 0.1994 0.0521
H50 H 0.1738 0.0901 0.0684
N11 N 0.16945(17) 0.2264(8) 0.1667(5)
C85 C 0.17531(15) 0.1948(6) 0.1284(5)
N12? N 0.2737(8) 0.296(3) -0.0094(17)
C86? C 0.2311(3) 0.1925(13) -0.0033(8)
C87? C 0.2500 0.2500 0.0000
loop_
_geom_bond_atom_site_label_1
_geom_bond_atom_site_label_2
_geom_bond_site_symmetry_1
_geom_bond_site_symmetry_2
C1 C2 1_555 1_555
C2 H1 1_555 1_555
C3 C2 1_555 1_555
H2 C3 1_555 1_555
C4 C3 1_555 1_555
C5 C4 1_555 1_555
C6 C5 1_555 1_555
C7 C6 1_555 1_555
H3 C7 1_555 1_555
C8 C7 1_555 1_555
H4 C8 1_555 1_555
C9 C8 1_555 1_555
C10 C9 1_555 1_555
C11 C10 1_555 1_555
C12 C11 1_555 1_555
C13 C12 1_555 1_555
H5 C13 1_555 1_555
C14 C13 1_555 1_555
C15 C14 1_555 1_555
C16 C15 1_555 1_555
C17 C16 1_555 1_555
H6 C17 1_555 1_555
C18 C17 1_555 1_555
H7 C18 1_555 1_555
C19 C18 1_555 1_555
C20 C19 1_555 1_555
C21 C20 1_555 1_555
C22 C21 1_555 1_555
H8 C22 1_555 1_555
C23 C22 1_555 1_555
H9 C23 1_555 1_555
C24 C23 1_555 1_555
C25 C24 1_555 1_555
C26 C25 1_555 1_555
C27 C26 1_555 1_555
H10 C27 1_555 1_555
C28 C27 1_555 1_555
H11 C28 1_555 1_555
C29 C28 1_555 1_555
C30 C29 1_555 1_555
C31 C30 1_555 1_555
C32 C31 1_555 1_555
H12 C32 1_555 1_555
C33 C32 1_555 1_555
H13 C33 1_555 1_555
C34 C33 1_555 1_555
C35 C1 1_555 1_555
C36 C5 1_555 1_555
C37 C36 1_555 1_555
C38 C37 1_555 1_555
H14 C38 1_555 1_555
C39 C38 1_555 1_555
H15 C39 1_555 1_555
C40 C39 1_555 1_555
H16 C40 1_555 1_555
C41 C36 1_555 1_555
C42 C10 1_555 1_555
C43 C42 1_555 1_555
C44 C43 1_555 1_555
H17 C44 1_555 1_555
C45 C44 1_555 1_555
H18 C45 1_555 1_555
C46 C45 1_555 1_555
H19 C46 1_555 1_555
C47 C42 1_555 1_555
C48 C15 1_555 1_555
C49 C48 1_555 1_555
C50 C49 1_555 1_555
H20 C50 1_555 1_555
C51 C50 1_555 1_555
H21 C51 1_555 1_555
C52 C51 1_555 1_555
H22 C52 1_555 1_555
C53 C48 1_555 1_555
C54 C20 1_555 1_555
C55 C54 1_555 1_555
C56 C55 1_555 1_555
H23 C56 1_555 1_555
C57 C56 1_555 1_555
H24 C57 1_555 1_555
C58 C57 1_555 1_555
H25 C58 1_555 1_555
C59 C54 1_555 1_555
C60 C25 1_555 1_555
C61 C60 1_555 1_555
C62 C61 1_555 1_555
H26 C62 1_555 1_555
C63 C62 1_555 1_555
H27 C63 1_555 1_555
C64 C63 1_555 1_555
H28 C64 1_555 1_555
C65 C60 1_555 1_555
C66 C30 1_555 1_555
C67 C66 1_555 1_555
C68 C67 1_555 1_555
H29 C68 1_555 1_555
C69 C68 1_555 1_555
H30 C69 1_555 1_555
C70 C69 1_555 1_555
H31 C70 1_555 1_555
C71 C66 1_555 1_555
C72 C35 1_555 1_555
C73 C72 1_555 1_555
C74 C73 1_555 1_555
H32 C74 1_555 1_555
C75 C74 1_555 1_555
H33 C75 1_555 1_555
C76 C75 1_555 1_555
H34 C76 1_555 1_555
C77 C72 1_555 1_555
N1 C1 1_555 1_555
N2 C6 1_555 1_555
N3 C11 1_555 1_555
H35 N3 1_555 1_555
N4 C16 1_555 1_555
H36 N4 1_555 1_555
N5 C21 1_555 1_555
N6 C26 1_555 1_555
H37 N6 1_555 1_555
N7 C31 1_555 1_555
H38 N7 1_555 1_555
Cl1 C37 1_555 1_555
Cl2 C41 1_555 1_555
Cl3 C43 1_555 1_555
Cl4 C47 1_555 1_555
Cl5 C49 1_555 1_555
Cl6 C53 1_555 1_555
Cl7 C55 1_555 1_555
Cl8 C59 1_555 1_555
Cl9 C61 1_555 1_555
Cl10 C65 1_555 1_555
Cl11 C67 1_555 1_555
Cl12 C71 1_555 1_555
Cl13 C73 1_555 1_555
Cl14 C77 1_555 1_555
P1 C12 1_555 1_555
O1 P1 1_555 1_555
N8 C78 1_555 1_555
C78 C79 1_555 1_555
C79 H39 1_555 1_555
H40 C79 1_555 1_555
H41 C79 1_555 1_555
N9 C80 1_555 1_555
C80 C81 1_555 1_555
C81 H42 1_555 1_555
H43 C81 1_555 1_555
H44 C81 1_555 1_555
C82 N10 1_555 1_555
C83 C82 1_555 1_555
H45 C83 1_555 1_555
H46 C83 1_555 1_555
H47 C83 1_555 1_555
C84 H48 1_555 1_555
H49 C84 1_555 1_555
H50 C84 1_555 1_555
N11 C85 1_555 1_555
C85 C84 1_555 1_555
C4 N1 1_555 1_555
C9 N2 1_555 1_555
C14 N3 1_555 1_555
C19 N4 1_555 1_555
C24 N5 1_555 1_555
C29 N6 1_555 1_555
C34 C35 1_555 1_555
C34 N7 1_555 1_555
C40 C41 1_555 1_555
C46 C47 1_555 1_555
C52 C53 1_555 1_555
C58 C59 1_555 1_555
C64 C65 1_555 1_555
C70 C71 1_555 1_555
C76 C77 1_555 1_555
N1 P1 1_555 1_555
N2 P1 1_555 1_555

#END
