
#######################################################################
#
#                 Cambridge Crystallographic Data Centre
#                                CCDC 
#
#######################################################################
#
# If this CIF has been generated from an entry in the Cambridge 
# Structural Database, then it will include bibliographic, chemical, 
# crystal, experimental, refinement or atomic coordinate data resulting 
# from the CCDC's data processing and validation procedures.
#
#######################################################################

data_ZESJOY
_chemical_formula_moiety         'C24 H31 O2 P1'
_chemical_name_systematic        
(Rp)-(1R,2S,5R)-2-Isopropyl-5-methylcyclohexylphenyl((E)-styryl)phosphinate
_symmetry_cell_setting           monoclinic
_symmetry_space_group_name_H-M   'C 2'
_symmetry_Int_Tables_number      5
_space_group_name_Hall           'C 2y'
loop_
_symmetry_equiv_pos_site_id
_symmetry_equiv_pos_as_xyz
1 x,y,z
2 -x,y,-z
3 1/2+x,1/2+y,z
4 1/2-x,1/2+y,-z
_cell_length_a                   23.726(7)
_cell_length_b                   11.017(3)
_cell_length_c                   18.902(6)
_cell_angle_alpha                90
_cell_angle_beta                 115.506(6)
_cell_angle_gamma                90
_cell_volume                     4459.25
_exptl_crystal_colour            colorless
_exptl_crystal_description       plate
_cell_formula_units_Z            8
loop_
_atom_site_label
_atom_site_type_symbol
_atom_site_fract_x
_atom_site_fract_y
_atom_site_fract_z
P1 P 0.24672(8) 0.58417(17) 0.45649(11)
O1 O 0.2274(2) 0.7112(4) 0.4423(3)
O2 O 0.3183(2) 0.5604(4) 0.4837(2)
C1 C 0.2288(3) 0.5157(7) 0.5289(4)
H1 H 0.2456 0.4405 0.5496
C2 C 0.1909(3) 0.5726(6) 0.5533(4)
H2 H 0.1766 0.6485 0.5315
C3 C 0.1689(3) 0.5288(6) 0.6117(5)
C4 C 0.1896(4) 0.4262(8) 0.6541(5)
H3 H 0.2192 0.3789 0.6471
C5 C 0.1681(4) 0.3905(8) 0.7068(5)
H4 H 0.1835 0.3199 0.7357
C6 C 0.1242(4) 0.4572(8) 0.7176(5)
H5 H 0.1092 0.4321 0.7534
C7 C 0.1023(5) 0.5612(9) 0.6756(7)
H6 H 0.0722 0.6076 0.6823
C8 C 0.1250(4) 0.5962(8) 0.6238(6)
H7 H 0.1105 0.6678 0.5957
C9 C 0.2132(3) 0.4875(6) 0.3708(4)
C10 C 0.2315(4) 0.3709(7) 0.3725(4)
H8 H 0.2619 0.3385 0.4185
C11 C 0.2050(3) 0.2990(8) 0.3053(4)
H9 H 0.2178 0.2190 0.3061
C12 C 0.1603(4) 0.3472(7) 0.2387(5)
H10 H 0.1415 0.2993 0.1940
C13 C 0.1426(3) 0.4653(8) 0.2368(5)
H11 H 0.1128 0.4982 0.1905
C14 C 0.1686(4) 0.5363(7) 0.3030(5)
H12 H 0.1561 0.6166 0.3019
C15 C 0.3660(3) 0.6113(7) 0.5579(4)
H13 H 0.3479 0.6183 0.5955
C16 C 0.3827(3) 0.7357(7) 0.5411(5)
H14 H 0.3459 0.7870 0.5217
H15 H 0.3978 0.7308 0.5009
C17 C 0.4335(4) 0.7917(8) 0.6158(6)
H16 H 0.4172 0.7989 0.6553
C18 C 0.4908(3) 0.7056(7) 0.6475(4)
H17 H 0.5087 0.7008 0.6101
H18 H 0.5224 0.7373 0.6964
C19 C 0.4713(3) 0.5822(8) 0.6607(4)
H19 H 0.4574 0.5874 0.7020
H20 H 0.5075 0.5292 0.6792
C20 C 0.4204(3) 0.5250(6) 0.5902(4)
H21 H 0.4361 0.5154 0.5504
C21 C 0.4515(5) 0.9189(9) 0.5986(8)
H22 H 0.4153 0.9702 0.5791
H23 H 0.4677 0.9128 0.5601
H24 H 0.4828 0.9530 0.6460
C22 C 0.4003(4) 0.3975(8) 0.6059(5)
H25 H 0.3618 0.3771 0.5597
C23 C 0.4477(5) 0.3025(10) 0.6112(8)
H26 H 0.4342 0.2247 0.6210
H27 H 0.4873 0.3224 0.6533
H28 H 0.4516 0.3000 0.5628
C24 C 0.3836(5) 0.3970(10) 0.6765(5)
H29 H 0.3715 0.3166 0.6840
H30 H 0.3496 0.4521 0.6665
H31 H 0.4192 0.4221 0.7229
P2 P 0.24979(7) 0.78992(15) 0.03696(10)
C25 C 0.2384(3) 0.8745(6) -0.0469(4)
H32 H 0.2599 0.9473 -0.0407
O3 O 0.22431(19) 0.6666(4) 0.0191(3)
O4 O 0.32175(18) 0.7993(4) 0.0923(2)
C26 C 0.2002(3) 0.8380(6) -0.1192(4)
H33 H 0.1815 0.7624 -0.1234
C27 C 0.1844(4) 0.9033(7) -0.1919(5)
C28 C 0.2178(4) 1.0029(8) -0.1941(4)
H34 H 0.2513 1.0306 -0.1492
C29 C 0.2001(5) 1.0616(10) -0.2658(6)
H35 H 0.2238 1.1269 -0.2687
C30 C 0.1507(6) 1.0280(15) -0.3299(6)
H36 H 0.1393 1.0708 -0.3764
C31 C 0.1170(6) 0.9305(14) -0.3267(7)
H37 H 0.0822 0.9065 -0.3714
C32 C 0.1344(5) 0.8651(10) -0.2563(5)
H38 H 0.1118 0.7972 -0.2543
C33 C 0.2185(3) 0.8816(6) 0.0910(4)
C34 C 0.2317(3) 1.0012(6) 0.1048(4)
H39 H 0.2583 1.0384 0.0870
C35 C 0.2055(3) 1.0696(7) 0.1457(4)
H40 H 0.2147 1.1516 0.1560
C36 C 0.1665(4) 1.0129(7) 0.1696(4)
H41 H 0.1489 1.0568 0.1972
C37 C 0.1518(3) 0.8925(8) 0.1546(4)
H42 H 0.1241 0.8561 0.1708
C38 C 0.1785(3) 0.8250(7) 0.1151(4)
H43 H 0.1694 0.7429 0.1051
C39 C 0.3673(3) 0.7530(6) 0.0674(4)
H44 H 0.3495 0.7545 0.0100
C40 C 0.3847(3) 0.6249(6) 0.0951(4)
H45 H 0.3477 0.5745 0.0726
H46 H 0.3998 0.6228 0.1517
C41 C 0.4343(3) 0.5722(8) 0.0738(4)
H47 H 0.4176 0.5726 0.0165
C42 C 0.4916(3) 0.6541(7) 0.1060(4)
H48 H 0.5110 0.6496 0.1628
H49 H 0.5215 0.6255 0.0875
C43 C 0.4750(3) 0.7846(8) 0.0811(4)
H50 H 0.5122 0.8340 0.1064
H51 H 0.4616 0.7903 0.0249
C44 C 0.4243(3) 0.8360(6) 0.1004(4)
H52 H 0.4403 0.8327 0.1576
C45 C 0.4499(4) 0.4396(7) 0.1016(6)
H53 H 0.4126 0.3916 0.0800
H54 H 0.4674 0.4369 0.1578
H55 H 0.4796 0.4079 0.0844
C46 C 0.4093(3) 0.9695(7) 0.0772(5)
H56 H 0.3704 0.9889 0.0811
C47 C 0.4591(4) 1.0560(8) 0.1309(7)
H57 H 0.4663 1.0414 0.1842
H58 H 0.4453 1.1382 0.1169
H59 H 0.4971 1.0433 0.1256
C48 C 0.3984(4) 0.9942(9) -0.0079(6)
H60 H 0.3892 1.0787 -0.0197
H61 H 0.3640 0.9461 -0.0429
H62 H 0.4353 0.9733 -0.0141
loop_
_geom_bond_atom_site_label_1
_geom_bond_atom_site_label_2
_geom_bond_site_symmetry_1
_geom_bond_site_symmetry_2
P1 O1 1_555 1_555
O2 P1 1_555 1_555
C1 P1 1_555 1_555
H1 C1 1_555 1_555
C2 C1 1_555 1_555
H2 C2 1_555 1_555
C3 C2 1_555 1_555
C4 C3 1_555 1_555
H3 C4 1_555 1_555
C5 C4 1_555 1_555
H4 C5 1_555 1_555
C6 C5 1_555 1_555
H5 C6 1_555 1_555
C7 C6 1_555 1_555
H6 C7 1_555 1_555
C8 C3 1_555 1_555
H7 C8 1_555 1_555
C9 P1 1_555 1_555
C10 C9 1_555 1_555
H8 C10 1_555 1_555
C11 C10 1_555 1_555
H9 C11 1_555 1_555
C12 C11 1_555 1_555
H10 C12 1_555 1_555
C13 C12 1_555 1_555
H11 C13 1_555 1_555
C14 C9 1_555 1_555
H12 C14 1_555 1_555
C15 O2 1_555 1_555
H13 C15 1_555 1_555
C16 C15 1_555 1_555
H14 C16 1_555 1_555
H15 C16 1_555 1_555
C17 C16 1_555 1_555
H16 C17 1_555 1_555
C18 C17 1_555 1_555
H17 C18 1_555 1_555
H18 C18 1_555 1_555
C19 C18 1_555 1_555
H19 C19 1_555 1_555
H20 C19 1_555 1_555
C20 C15 1_555 1_555
H21 C20 1_555 1_555
C21 C17 1_555 1_555
H22 C21 1_555 1_555
H23 C21 1_555 1_555
H24 C21 1_555 1_555
C22 C20 1_555 1_555
H25 C22 1_555 1_555
C23 C22 1_555 1_555
H26 C23 1_555 1_555
H27 C23 1_555 1_555
H28 C23 1_555 1_555
C24 C22 1_555 1_555
H29 C24 1_555 1_555
H30 C24 1_555 1_555
H31 C24 1_555 1_555
P2 C25 1_555 1_555
C25 H32 1_555 1_555
O3 P2 1_555 1_555
O4 P2 1_555 1_555
C26 C25 1_555 1_555
H33 C26 1_555 1_555
C27 C26 1_555 1_555
C28 C27 1_555 1_555
H34 C28 1_555 1_555
C29 C28 1_555 1_555
H35 C29 1_555 1_555
C30 C29 1_555 1_555
H36 C30 1_555 1_555
C31 C30 1_555 1_555
H37 C31 1_555 1_555
C32 C27 1_555 1_555
H38 C32 1_555 1_555
C33 P2 1_555 1_555
C34 C33 1_555 1_555
H39 C34 1_555 1_555
C35 C34 1_555 1_555
H40 C35 1_555 1_555
C36 C35 1_555 1_555
H41 C36 1_555 1_555
C37 C36 1_555 1_555
H42 C37 1_555 1_555
C38 C33 1_555 1_555
H43 C38 1_555 1_555
C39 O4 1_555 1_555
H44 C39 1_555 1_555
C40 C39 1_555 1_555
H45 C40 1_555 1_555
H46 C40 1_555 1_555
C41 C40 1_555 1_555
H47 C41 1_555 1_555
C42 C41 1_555 1_555
H48 C42 1_555 1_555
H49 C42 1_555 1_555
C43 C42 1_555 1_555
H50 C43 1_555 1_555
H51 C43 1_555 1_555
C44 C39 1_555 1_555
H52 C44 1_555 1_555
C45 C41 1_555 1_555
H53 C45 1_555 1_555
H54 C45 1_555 1_555
H55 C45 1_555 1_555
C46 C44 1_555 1_555
H56 C46 1_555 1_555
C47 C46 1_555 1_555
H57 C47 1_555 1_555
H58 C47 1_555 1_555
H59 C47 1_555 1_555
C48 C46 1_555 1_555
H60 C48 1_555 1_555
H61 C48 1_555 1_555
H62 C48 1_555 1_555
C7 C8 1_555 1_555
C13 C14 1_555 1_555
C19 C20 1_555 1_555
C31 C32 1_555 1_555
C37 C38 1_555 1_555
C43 C44 1_555 1_555

#END
