
#######################################################################
#
#                 Cambridge Crystallographic Data Centre
#                                CCDC 
#
#######################################################################
#
# If this CIF has been generated from an entry in the Cambridge 
# Structural Database, then it will include bibliographic, chemical, 
# crystal, experimental, refinement or atomic coordinate data resulting 
# from the CCDC's data processing and validation procedures.
#
#######################################################################

data_ZETPET10
_chemical_compound_source        
'Whole dried plant of Speranskia tuberculata Baill'
_chemical_name_common            'Speranskatine A'
_chemical_formula_moiety         'C10 H13 N1 O5'
_chemical_name_systematic        
3-Acetonyl-3-hydroxy-4-methoxy-1-methylpyridine-2,6(1H,3H)-dione
_chemical_properties_biological  
'herb plant source has activity against inflammatory diseases'
_symmetry_cell_setting           monoclinic
_symmetry_space_group_name_H-M   'P 21/c'
_symmetry_Int_Tables_number      14
_space_group_name_Hall           '-P 2ybc'
loop_
_symmetry_equiv_pos_site_id
_symmetry_equiv_pos_as_xyz
1 x,y,z
2 -x,1/2+y,1/2-z
3 -x,-y,-z
4 x,1/2-y,1/2+z
_cell_length_a                   8.5879(7)
_cell_length_b                   17.4610(8)
_cell_length_c                   7.893(1)
_cell_angle_alpha                90
_cell_angle_beta                 113.82(1)
_cell_angle_gamma                90
_cell_volume                     1082.76
_exptl_crystal_colour            colorless
_cell_formula_units_Z            4
loop_
_atom_site_label
_atom_site_type_symbol
_atom_site_fract_x
_atom_site_fract_y
_atom_site_fract_z
O1 O 0.8422(2) 0.2663(1) 0.9489(3)
O2 O 0.6251(2) 0.1862(1) 0.6082(2)
O3 O 0.6757(2) 0.0228(1) 0.6788(3)
O4 O 1.2283(2) 0.1216(1) 0.8429(3)
O5 O 0.8699(2) 0.1052(1) 1.1448(3)
N1 N 1.0340(3) 0.1964(1) 0.8893(3)
C1 C 0.8750(3) 0.2082(2) 0.8846(3)
C2 C 0.7317(3) 0.1506(2) 0.7807(3)
C3 C 0.7992(3) 0.0762(2) 0.7416(4)
C4 C 0.9594(3) 0.0673(2) 0.7605(4)
C5 C 1.0827(3) 0.1281(2) 0.8306(4)
C6 C 0.6196(3) 0.1391(2) 0.8859(4)
C7 C 0.7152(3) 0.1093(2) 1.0794(4)
C8 C 0.6152(4) 0.0865(2) 1.1862(4)
C9 C 1.1618(4) 0.2571(2) 0.9660(5)
C10 C 0.7226(4) -0.0516(2) 0.6326(5)
H1 H 0.678(5) 0.197(2) 0.532(5)
H2 H 0.996(5) 0.025(2) 0.712(5)
H3 H 0.533(5) 0.103(2) 0.820(5)
H4 H 0.564(5) 0.187(2) 0.889(5)
H5 H 0.675(5) 0.083(2) 1.317(5)
H6 H 0.528(5) 0.118(2) 1.177(5)
H7 H 0.563(5) 0.041(2) 1.153(5)
H8 H 1.246(5) 0.251(2) 0.911(5)
H9 H 1.103(5) 0.302(2) 0.943(5)
H10 H 1.207(5) 0.258(2) 1.104(5)
H11 H 0.762(5) -0.049(2) 0.518(5)
H12 H 0.801(5) -0.077(2) 0.755(5)
H13 H 0.612(5) -0.084(2) 0.596(5)
loop_
_geom_bond_atom_site_label_1
_geom_bond_atom_site_label_2
_geom_bond_site_symmetry_1
_geom_bond_site_symmetry_2
O1 C1 1_555 1_555
O2 C2 1_555 1_555
O3 C3 1_555 1_555
O4 C5 1_555 1_555
O5 C7 1_555 1_555
N1 C1 1_555 1_555
C1 C2 1_555 1_555
C2 C3 1_555 1_555
C3 C4 1_555 1_555
C4 C5 1_555 1_555
C5 N1 1_555 1_555
C6 C2 1_555 1_555
C7 C6 1_555 1_555
C8 C7 1_555 1_555
C9 N1 1_555 1_555
C10 O3 1_555 1_555
H1 O2 1_555 1_555
H2 C4 1_555 1_555
H3 C6 1_555 1_555
H4 C6 1_555 1_555
H5 C8 1_555 1_555
H6 C8 1_555 1_555
H7 C8 1_555 1_555
H8 C9 1_555 1_555
H9 C9 1_555 1_555
H10 C9 1_555 1_555
H11 C10 1_555 1_555
H12 C10 1_555 1_555
H13 C10 1_555 1_555

#END
