
#######################################################################
#
#                 Cambridge Crystallographic Data Centre
#                                CCDC 
#
#######################################################################
#
# If this CIF has been generated from an entry in the Cambridge 
# Structural Database, then it will include bibliographic, chemical, 
# crystal, experimental, refinement or atomic coordinate data resulting 
# from the CCDC's data processing and validation procedures.
#
#######################################################################

data_ZEVBEK
_chemical_formula_moiety         'C27 H19 Br1 O3,C2 H6 O1 S1'
_chemical_name_systematic        
'2-bromo-7a-hydroxy-13-(2-methylphenyl)-12a,13-dihydroindeno[1,2-b]naphtho[1,2-e]pyran-12(7aH)-one dimethyl sulfoxide solvate'
_symmetry_cell_setting           monoclinic
_symmetry_space_group_name_H-M   'P 21/n'
_symmetry_Int_Tables_number      14
_space_group_name_Hall           '-P 2yn'
loop_
_symmetry_equiv_pos_site_id
_symmetry_equiv_pos_as_xyz
1 x,y,z
2 1/2-x,1/2+y,1/2-z
3 -x,-y,-z
4 1/2+x,1/2-y,1/2+z
_cell_length_a                   11.508(4)
_cell_length_b                   9.580(4)
_cell_length_c                   23.335(9)
_cell_angle_alpha                90
_cell_angle_beta                 101.596(6)
_cell_angle_gamma                90
_cell_volume                     2520.1
_exptl_crystal_colour            colorless
_exptl_crystal_description       Block
_cell_formula_units_Z            4
loop_
_atom_site_label
_atom_site_type_symbol
_atom_site_fract_x
_atom_site_fract_y
_atom_site_fract_z
Br1 Br -0.19461(6) -0.01096(7) 1.00177(3)
C1 C -0.1734(4) 0.1776(6) 0.9803(2)
C2 C -0.2324(5) 0.2825(7) 1.0046(2)
H1 H -0.2810 0.2606 1.0307
C3 C -0.2176(5) 0.4155(7) 0.9896(2)
H2 H -0.2576 0.4854 1.0054
C4 C -0.1440(4) 0.4525(6) 0.9512(2)
C5 C -0.0845(4) 0.3452(5) 0.9260(2)
C6 C -0.1018(4) 0.2062(5) 0.9419(2)
H3 H -0.0645 0.1338 0.9261
C7 C -0.0094(4) 0.3805(5) 0.8870(2)
C8 C 0.0032(4) 0.5182(5) 0.8733(2)
C9 C -0.0541(5) 0.6252(5) 0.8993(3)
H4 H -0.0420 0.7182 0.8907
C10 C -0.1261(5) 0.5929(6) 0.9364(2)
H5 H -0.1644 0.6639 0.9524
C11 C 0.0544(4) 0.2687(5) 0.8602(2)
H6 H 0.084(4) 0.204(6) 0.892(2)
C12 C -0.0232(4) 0.1944(5) 0.8081(2)
C13 C -0.1201(5) 0.2615(6) 0.7738(3)
H7 H -0.1369 0.3527 0.7831
C14 C -0.1919(5) 0.1980(8) 0.7269(3)
H8 H -0.2562 0.2452 0.7048
C15 C -0.1664(6) 0.0626(8) 0.7132(3)
H9 H -0.2142 0.0177 0.6817
C16 C -0.0730(7) -0.0046(7) 0.7453(3)
H10 H -0.0577 -0.0958 0.7353
C17 C 0.0026(5) 0.0576(6) 0.7935(3)
C18 C 0.1078(7) -0.0224(6) 0.8271(3)
H11 H 0.1794 0.0128 0.8173
H12 H 0.0992 -0.1196 0.8172
H13 H 0.1115 -0.0111 0.8684
C19 C 0.1530(4) 0.4743(5) 0.8152(2)
C20 C 0.1668(4) 0.3323(5) 0.8448(2)
H14 H 0.191(4) 0.264(6) 0.818(2)
C21 C 0.2677(4) 0.3519(5) 0.8973(2)
C22 C 0.3361(5) 0.4738(5) 0.8850(2)
C23 C 0.2724(4) 0.5446(5) 0.8365(2)
C24 C 0.3196(5) 0.6617(6) 0.8156(3)
H15 H 0.2776 0.7099 0.7834
C25 C 0.4309(6) 0.7055(7) 0.8435(3)
H16 H 0.4649 0.7828 0.8292
C26 C 0.4926(6) 0.6373(8) 0.8920(3)
H17 H 0.5664 0.6710 0.9104
C27 C 0.4478(5) 0.5208(6) 0.9138(3)
H18 H 0.4900 0.4746 0.9465
O1 O 0.0685(3) 0.5647(4) 0.83461(19)
O2 O 0.1205(4) 0.4601(4) 0.75548(17)
H19 H 0.118(6) 0.540(3) 0.741(3)
O3 O 0.2870(3) 0.2808(4) 0.94052(17)
S1 S 0.9772(2) 0.6790(2) 0.63870(10)
O4 O 1.0846(4) 0.6838(5) 0.6841(2)
C28 C 1.0084(8) 0.5651(10) 0.5857(4)
H20 H 1.0620 0.6092 0.5646
H21 H 0.9361 0.5415 0.5590
H22 H 1.0442 0.4818 0.6042
C29 C 0.8732(7) 0.5832(11) 0.6652(4)
H23 H 0.9064 0.4946 0.6790
H24 H 0.8050 0.5686 0.6345
H25 H 0.8499 0.6328 0.6968
loop_
_geom_bond_atom_site_label_1
_geom_bond_atom_site_label_2
_geom_bond_site_symmetry_1
_geom_bond_site_symmetry_2
Br1 C1 1_555 1_555
C1 C2 1_555 1_555
C2 H1 1_555 1_555
C3 C2 1_555 1_555
H2 C3 1_555 1_555
C4 C3 1_555 1_555
C5 C4 1_555 1_555
C6 C1 1_555 1_555
H3 C6 1_555 1_555
C7 C5 1_555 1_555
C8 C7 1_555 1_555
C9 C8 1_555 1_555
H4 C9 1_555 1_555
C10 C4 1_555 1_555
H5 C10 1_555 1_555
C11 C7 1_555 1_555
H6 C11 1_555 1_555
C12 C11 1_555 1_555
C13 C12 1_555 1_555
H7 C13 1_555 1_555
C14 C13 1_555 1_555
H8 C14 1_555 1_555
C15 C14 1_555 1_555
H9 C15 1_555 1_555
C16 C15 1_555 1_555
H10 C16 1_555 1_555
C17 C12 1_555 1_555
C18 C17 1_555 1_555
H11 C18 1_555 1_555
H12 C18 1_555 1_555
H13 C18 1_555 1_555
C19 C20 1_555 1_555
C20 C11 1_555 1_555
H14 C20 1_555 1_555
C21 C20 1_555 1_555
C22 C21 1_555 1_555
C23 C19 1_555 1_555
C24 C23 1_555 1_555
H15 C24 1_555 1_555
C25 C24 1_555 1_555
H16 C25 1_555 1_555
C26 C25 1_555 1_555
H17 C26 1_555 1_555
C27 C22 1_555 1_555
H18 C27 1_555 1_555
O1 C8 1_555 1_555
O2 C19 1_555 1_555
H19 O2 1_555 1_555
O3 C21 1_555 1_555
S1 O4 1_555 1_555
C28 S1 1_555 1_555
H20 C28 1_555 1_555
H21 C28 1_555 1_555
H22 C28 1_555 1_555
C29 S1 1_555 1_555
H23 C29 1_555 1_555
H24 C29 1_555 1_555
H25 C29 1_555 1_555
C5 C6 1_555 1_555
C9 C10 1_555 1_555
C16 C17 1_555 1_555
C19 O1 1_555 1_555
C22 C23 1_555 1_555
C26 C27 1_555 1_555

#END
