
#######################################################################
#
#                 Cambridge Crystallographic Data Centre
#                                CCDC 
#
#######################################################################
#
# If this CIF has been generated from an entry in the Cambridge 
# Structural Database, then it will include bibliographic, chemical, 
# crystal, experimental, refinement or atomic coordinate data resulting 
# from the CCDC's data processing and validation procedures.
#
#######################################################################

data_ZEVHUD
_chemical_formula_moiety         'C24 H43 N5 O7'
_chemical_name_systematic        
'Acetyl-tris(\a-aminoisobutyryl)-(S)-isovalyl-(\a-aminoisobutyryl) methyl ester'
_symmetry_cell_setting           monoclinic
_symmetry_space_group_name_H-M   'P 21'
_symmetry_Int_Tables_number      4
_space_group_name_Hall           'P 2yb'
loop_
_symmetry_equiv_pos_site_id
_symmetry_equiv_pos_as_xyz
1 x,y,z
2 -x,1/2+y,-z
_cell_length_a                   11.842(2)
_cell_length_b                   17.832(2)
_cell_length_c                   14.315(2)
_cell_angle_alpha                90
_cell_angle_beta                 106.1(2)
_cell_angle_gamma                90
_cell_volume                     2904.29
_exptl_crystal_colour            colorless
_chemical_melting_point          282-284deg.C
_cell_formula_units_Z            4
loop_
_atom_site_label
_atom_site_type_symbol
_atom_site_fract_x
_atom_site_fract_y
_atom_site_fract_z
O1 O 0.4486(7) 0.00660 -0.2814(6)
O2 O 0.5308(6) -0.0378(6) -0.4950(7)
O3 O 0.6714(6) 0.1458(5) -0.4911(6)
O4 O 0.9259(6) 0.0670(5) -0.2900(6)
O5 O 1.0451(6) 0.0029(5) -0.4735(6)
O6 O 1.1430(9) 0.1341(8) -0.5799(9)
O7 O 0.9701(7) 0.0888(6) -0.6749(6)
N1 N 0.2842(7) -0.0327(6) -0.3920(5)
N2 N 0.4013(7) 0.0579(5) -0.4931(6)
N3 N 0.6129(6) 0.0956(5) -0.3666(5)
N4 N 0.7844(7) 0.0019(5) -0.3951(6)
N5 N 0.8928(8) 0.0870(6) -0.5109(7)
C1 C 0.263(1) 0.025(1) -0.2477(9)
C2 C 0.344(1) -0.0010(8) -0.3085(9)
C3 C 0.344(1) -0.0680(7) -0.4524(9)
C4 C 0.255(1) -0.0903(8) -0.549(1)
C5 C 0.413(1) -0.1381(9) -0.407(1)
C6 C 0.437(2) -0.0180(8) -0.4802(8)
C7 C 0.467(1) 0.1153(8) -0.5247(9)
C8 C 0.467(1) 0.101(1) -0.626(1)
C9 C 0.413(1) 0.1918(8) -0.521(1)
C10 C 0.5925(9) 0.1180(7) -0.4570(8)
C11 C 0.7295(9) 0.0990(6) -0.2937(7)
C12 C 0.7147(9) 0.0601(8) -0.2079(9)
C13 C 0.770(1) 0.1792(7) -0.275(1)
C14 C 0.819(1) 0.0579(7) -0.3276(7)
C15 C 0.863(1) -0.0387(8) -0.4443(8)
C16 C 0.789(1) -0.0778(8) -0.5314(9)
C17 C 0.856(1) -0.109(1) -0.599(1)
C18 C 0.941(1) -0.0953(8) -0.3683(9)
C19 C 0.9412(9) 0.0180(8) -0.4738(8)
C20 C 0.966(1) 0.1480(9) -0.532(1)
C21 C 1.054(1) 0.176(1) -0.436(1)
C22 C 0.882(1) 0.207(1) -0.582(1)
C23 C 1.038(1) 0.1203(9) -0.596(1)
C24 C 1.031(2) 0.071(1) -0.749(1)
H1 H 0.1893(7) -0.0313(6) -0.4133(5)
H2 H 0.3198(7) 0.0736(5) -0.4783(6)
H3 H 0.5401(6) 0.0734(5) -0.3436(5)
H4 H 0.6930(7) -0.0144(5) -0.4147(6)
H5 H 0.7994(8) 0.0957(6) -0.5244(7)
H6 H 0.315(1) 0.050(1) -0.1811(9)
H7 H 0.216(1) -0.022(1) -0.2307(9)
H8 H 0.201(1) 0.066(1) -0.2885(9)
H9 H 0.301(1) -0.1174(8) -0.596(1)
H10 H 0.211(1) -0.0405(8) -0.585(1)
H11 H 0.191(1) -0.1283(8) -0.535(1)
H12 H 0.355(1) -0.1768(9) -0.385(1)
H13 H 0.483(1) -0.1220(9) -0.344(1)
H14 H 0.449(1) -0.1647(9) -0.460(1)
H15 H 0.517(1) 0.144(1) -0.650(1)
H16 H 0.378(1) 0.101(1) -0.672(1)
H17 H 0.507(1) 0.047(1) -0.630(1)
H18 H 0.412(1) 0.2042(8) -0.448(1)
H19 H 0.324(1) 0.1917(8) -0.568(1)
H20 H 0.463(1) 0.2340(8) -0.546(1)
H21 H 0.7970(9) 0.0605(8) -0.1515(9)
H22 H 0.6880(9) 0.0029(8) -0.2267(9)
H23 H 0.6483(9) 0.0882(8) -0.1822(9)
H24 H 0.706(1) 0.2105(7) -0.250(1)
H25 H 0.779(1) 0.2037(7) -0.341(1)
H26 H 0.853(1) 0.1806(7) -0.220(1)
H27 H 0.745(1) -0.1236(8) -0.5073(9)
H28 H 0.725(1) -0.0383(8) -0.5722(9)
H29 H 0.795(1) -0.136(1) -0.660(1)
H30 H 0.920(1) -0.149(1) -0.560(1)
H31 H 0.901(1) -0.064(1) -0.625(1)
H32 H 0.999(1) -0.1254(8) -0.4019(9)
H33 H 0.885(1) -0.1346(8) -0.3451(9)
H34 H 0.993(1) -0.0646(8) -0.3061(9)
H35 H 1.005(1) 0.197(1) -0.387(1)
H36 H 1.108(1) 0.220(1) -0.451(1)
H37 H 1.108(1) 0.129(1) -0.401(1)
H38 H 0.930(1) 0.254(1) -0.600(1)
H39 H 0.831(1) 0.226(1) -0.535(1)
H40 H 0.825(1) 0.184(1) -0.648(1)
H41 H 0.970(2) 0.045(1) -0.811(1)
H42 H 1.102(2) 0.032(1) -0.719(1)
H43 H 1.066(2) 0.121(1) -0.771(1)
O8 O 0.2149(6) -0.1223(5) 0.1975(6)
O9 O 0.3014(7) -0.0773(5) -0.0189(6)
O10 O 0.4584(6) -0.2528(5) -0.0103(6)
O11 O 0.7049(6) -0.1741(5) 0.1791(5)
O12 O 0.8111(7) -0.0820(6) 0.0050(7)
O13 O 0.9191(9) -0.2438(6) -0.0410(9)
O14 O 0.8022(9) -0.2774(6) 0.0408(7)
N6 N 0.0552(8) -0.0793(6) 0.0817(6)
N7 N 0.1764(8) -0.1727(7) -0.0136(6)
N8 N 0.3901(7) -0.2059(5) 0.1160(6)
N9 N 0.5525(8) -0.1049(6) 0.0861(6)
N10 N 0.6582(8) -0.1617(7) -0.0459(7)
C25 C 0.030(1) -0.1388(7) 0.2274(9)
C26 C 0.1068(9) -0.1142(7) 0.1660(9)
C27 C 0.1255(9) -0.0454(7) 0.0191(8)
C28 C 0.188(1) 0.0249(9) 0.069(1)
C29 C 0.035(1) -0.0248(9) -0.0766(8)
C30 C 0.2081(9) -0.0999(7) -0.0030(8)
C31 C 0.2487(8) -0.2294(7) -0.0470(9)
C32 C 0.250(1) -0.219(1) -0.1527(9)
C33 C 0.194(1) -0.3066(9) -0.034(1)
C34 C 0.3757(8) -0.2324(6) 0.0225(8)
C35 C 0.5057(8) -0.2051(6) 0.1877(7)
C36 C 0.497(1) -0.1651(9) 0.2787(8)
C37 C 0.553(1) -0.2868(9) 0.213(1)
C38 C 0.600(1) -0.1620(8) 0.1470(9)
C39 C 0.628(1) -0.0548(8) 0.0522(7)
C40 C 0.708(1) -0.0085(8) 0.134(1)
C41 C 0.649(1) 0.037(1) 0.188(1)
C42 C 0.552(1) -0.0075(8) -0.0285(9)
C43 C 0.709(1) -0.0977(8) 0.0031(8)
C44 C 0.713(1) -0.2124(9) -0.1059(9)
C45 C 0.634(1) -0.278(1) -0.144(1)
C46 C 0.747(1) -0.168(1) -0.187(1)
C47 C 0.818(1) -0.2408(9) -0.028(1)
C48 C 0.895(2) -0.308(1) 0.118(1)
H44 H -0.0395(8) -0.0756(6) 0.0579(6)
H45 H 0.0965(8) -0.1902(7) 0.0025(6)
H46 H 0.3147(7) -0.1852(5) 0.1365(6)
H47 H 0.4583(8) -0.0970(6) 0.0633(6)
H48 H 0.5717(8) -0.1767(7) -0.0410(7)
H49 H -0.060(1) -0.1278(7) 0.1896(9)
H50 H 0.054(1) -0.1083(7) 0.2952(9)
H51 H 0.042(1) -0.1981(7) 0.2418(9)
H52 H 0.239(1) 0.0492(9) 0.024(1)
H53 H 0.246(1) 0.0101(9) 0.139(1)
H54 H 0.124(1) 0.0650(9) 0.078(1)
H55 H 0.079(1) 0.0000(9) -0.1257(8)
H56 H -0.028(1) 0.0148(9) -0.0624(8)
H57 H -0.011(1) -0.0748(9) -0.1093(8)
H58 H 0.303(1) -0.261(1) -0.1722(9)
H59 H 0.285(1) -0.164(1) -0.1610(9)
H60 H 0.161(1) -0.223(1) -0.1996(9)
H61 H 0.243(1) -0.3508(9) -0.057(1)
H62 H 0.104(1) -0.3085(9) -0.077(1)
H63 H 0.199(1) -0.3144(9) 0.042(1)
H64 H 0.582(1) -0.1644(9) 0.3318(8)
H65 H 0.434(1) -0.1940(9) 0.3084(8)
H66 H 0.467(1) -0.1082(9) 0.2607(8)
H67 H 0.638(1) -0.2846(9) 0.266(1)
H68 H 0.561(1) -0.3142(9) 0.148(1)
H69 H 0.493(1) -0.3179(9) 0.242(1)
H70 H 0.760(1) 0.0282(8) 0.102(1)
H71 H 0.766(1) -0.0466(8) 0.184(1)
H72 H 0.713(1) 0.067(1) 0.244(1)
H73 H 0.597(1) 0.001(1) 0.221(1)
H74 H 0.592(1) 0.076(1) 0.140(1)
H75 H 0.491(1) 0.0253(8) -0.0011(9)
H76 H 0.503(1) -0.0435(8) -0.0863(9)
H77 H 0.607(1) 0.0296(8) -0.0560(9)
H78 H 0.558(1) -0.259(1) -0.200(1)
H79 H 0.606(1) -0.303(1) -0.086(1)
H80 H 0.681(1) -0.319(1) -0.174(1)
H81 H 0.786(1) -0.205(1) -0.228(1)
H82 H 0.809(1) -0.124(1) -0.155(1)
H83 H 0.669(1) -0.143(1) -0.234(1)
H84 H 0.859(2) -0.337(1) 0.169(1)
H85 H 0.951(2) -0.263(1) 0.155(1)
H86 H 0.947(2) -0.346(1) 0.088(1)
loop_
_geom_bond_atom_site_label_1
_geom_bond_atom_site_label_2
_geom_bond_site_symmetry_1
_geom_bond_site_symmetry_2
O1 C2 1_555 1_555
O2 C6 1_555 1_555
O3 C10 1_555 1_555
O4 C14 1_555 1_555
O5 C19 1_555 1_555
O6 C23 1_555 1_555
O7 C23 1_555 1_555
N1 C2 1_555 1_555
N2 C6 1_555 1_555
N3 C10 1_555 1_555
N4 C14 1_555 1_555
N5 C19 1_555 1_555
C1 C2 1_555 1_555
C3 N1 1_555 1_555
C4 C3 1_555 1_555
C5 C3 1_555 1_555
C6 C3 1_555 1_555
C7 N2 1_555 1_555
C8 C7 1_555 1_555
C9 C7 1_555 1_555
C10 C7 1_555 1_555
C11 N3 1_555 1_555
C12 C11 1_555 1_555
C13 C11 1_555 1_555
C14 C11 1_555 1_555
C15 N4 1_555 1_555
C16 C15 1_555 1_555
C17 C16 1_555 1_555
C18 C15 1_555 1_555
C19 C15 1_555 1_555
C20 N5 1_555 1_555
C21 C20 1_555 1_555
C22 C20 1_555 1_555
C23 C20 1_555 1_555
C24 O7 1_555 1_555
H1 N1 1_555 1_555
H2 N2 1_555 1_555
H3 N3 1_555 1_555
H4 N4 1_555 1_555
H5 N5 1_555 1_555
H6 C1 1_555 1_555
H7 C1 1_555 1_555
H8 C1 1_555 1_555
H9 C4 1_555 1_555
H10 C4 1_555 1_555
H11 C4 1_555 1_555
H12 C5 1_555 1_555
H13 C5 1_555 1_555
H14 C5 1_555 1_555
H15 C8 1_555 1_555
H16 C8 1_555 1_555
H17 C8 1_555 1_555
H18 C9 1_555 1_555
H19 C9 1_555 1_555
H20 C9 1_555 1_555
H21 C12 1_555 1_555
H22 C12 1_555 1_555
H23 C12 1_555 1_555
H24 C13 1_555 1_555
H25 C13 1_555 1_555
H26 C13 1_555 1_555
H27 C16 1_555 1_555
H28 C16 1_555 1_555
H29 C17 1_555 1_555
H30 C17 1_555 1_555
H31 C17 1_555 1_555
H32 C18 1_555 1_555
H33 C18 1_555 1_555
H34 C18 1_555 1_555
H35 C21 1_555 1_555
H36 C21 1_555 1_555
H37 C21 1_555 1_555
H38 C22 1_555 1_555
H39 C22 1_555 1_555
H40 C22 1_555 1_555
H41 C24 1_555 1_555
H42 C24 1_555 1_555
H43 C24 1_555 1_555
O8 C26 1_555 1_555
O9 C30 1_555 1_555
O10 C34 1_555 1_555
O11 C38 1_555 1_555
O12 C43 1_555 1_555
O13 C47 1_555 1_555
O14 C47 1_555 1_555
N6 C26 1_555 1_555
N7 C30 1_555 1_555
N8 C34 1_555 1_555
N9 C38 1_555 1_555
N10 C43 1_555 1_555
C25 C26 1_555 1_555
C27 N6 1_555 1_555
C28 C27 1_555 1_555
C29 C27 1_555 1_555
C30 C27 1_555 1_555
C31 N7 1_555 1_555
C32 C31 1_555 1_555
C33 C31 1_555 1_555
C34 C31 1_555 1_555
C35 N8 1_555 1_555
C36 C35 1_555 1_555
C37 C35 1_555 1_555
C38 C35 1_555 1_555
C39 N9 1_555 1_555
C40 C39 1_555 1_555
C41 C40 1_555 1_555
C42 C39 1_555 1_555
C43 C39 1_555 1_555
C44 N10 1_555 1_555
C45 C44 1_555 1_555
C46 C44 1_555 1_555
C47 C44 1_555 1_555
C48 O14 1_555 1_555
H44 N6 1_555 1_555
H45 N7 1_555 1_555
H46 N8 1_555 1_555
H47 N9 1_555 1_555
H48 N10 1_555 1_555
H49 C25 1_555 1_555
H50 C25 1_555 1_555
H51 C25 1_555 1_555
H52 C28 1_555 1_555
H53 C28 1_555 1_555
H54 C28 1_555 1_555
H55 C29 1_555 1_555
H56 C29 1_555 1_555
H57 C29 1_555 1_555
H58 C32 1_555 1_555
H59 C32 1_555 1_555
H60 C32 1_555 1_555
H61 C33 1_555 1_555
H62 C33 1_555 1_555
H63 C33 1_555 1_555
H64 C36 1_555 1_555
H65 C36 1_555 1_555
H66 C36 1_555 1_555
H67 C37 1_555 1_555
H68 C37 1_555 1_555
H69 C37 1_555 1_555
H70 C40 1_555 1_555
H71 C40 1_555 1_555
H72 C41 1_555 1_555
H73 C41 1_555 1_555
H74 C41 1_555 1_555
H75 C42 1_555 1_555
H76 C42 1_555 1_555
H77 C42 1_555 1_555
H78 C45 1_555 1_555
H79 C45 1_555 1_555
H80 C45 1_555 1_555
H81 C46 1_555 1_555
H82 C46 1_555 1_555
H83 C46 1_555 1_555
H84 C48 1_555 1_555
H85 C48 1_555 1_555
H86 C48 1_555 1_555

#END
