
#######################################################################
#
#                 Cambridge Crystallographic Data Centre
#                                CCDC 
#
#######################################################################
#
# If this CIF has been generated from an entry in the Cambridge 
# Structural Database, then it will include bibliographic, chemical, 
# crystal, experimental, refinement or atomic coordinate data resulting 
# from the CCDC's data processing and validation procedures.
#
#######################################################################

data_ZEVHOX
_chemical_formula_moiety         'C24 H43 N5 O7'
_chemical_name_systematic        
'Acetyl-(\a-aminoisobutyryl)-(S)-isovalyl-tris(\a-aminoisobutyryl) methyl ester'
_symmetry_cell_setting           monoclinic
_symmetry_space_group_name_H-M   'P 21'
_symmetry_Int_Tables_number      4
_space_group_name_Hall           'P 2yb'
loop_
_symmetry_equiv_pos_site_id
_symmetry_equiv_pos_as_xyz
1 x,y,z
2 -x,1/2+y,-z
_cell_length_a                   11.492(2)
_cell_length_b                   8.408(1)
_cell_length_c                   15.999(2)
_cell_angle_alpha                90
_cell_angle_beta                 107.5(2)
_cell_angle_gamma                90
_cell_volume                     1474.35
_exptl_crystal_colour            colorless
_chemical_melting_point          281-283deg.C
_cell_formula_units_Z            2
loop_
_atom_site_label
_atom_site_type_symbol
_atom_site_fract_x
_atom_site_fract_y
_atom_site_fract_z
O1 O -0.1789(3) -0.188700 -0.3734(3)
O2 O -0.3180(3) -0.5403(5) -0.3182(3)
O3 O -0.3827(3) -0.3235(5) -0.1380(2)
O4 O -0.6512(3) -0.1566(5) -0.2996(2)
O5 O -0.8150(3) -0.5100(5) -0.2888(2)
O6 O -0.8490(4) -0.6304(7) -0.1071(3)
O7 O -0.7086(4) -0.7584(5) -0.1522(3)
N1 N -0.0530(4) -0.3969(6) -0.3664(3)
N2 N -0.1443(4) -0.4345(6) -0.2284(3)
N3 N -0.3282(4) -0.2134(6) -0.2498(3)
N4 N -0.5447(3) -0.3653(5) -0.3286(3)
N5 N -0.6278(3) -0.4755(6) -0.1940(2)
C1 C 0.0273(5) -0.1304(8) -0.3638(4)
C2 C -0.0778(5) -0.2414(8) -0.3699(4)
C3 C -0.1488(5) -0.5181(7) -0.3764(4)
C4 C -0.0828(5) -0.6806(8) -0.3602(5)
C5 C -0.2418(5) -0.5097(9) -0.4664(4)
C6 C -0.2121(5) -0.4983(7) -0.3049(3)
C7 C -0.1909(5) -0.4067(8) -0.1531(4)
C8 C -0.2130(6) -0.5676(8) -0.1147(4)
C9 C -0.0942(5) -0.3148(9) -0.0847(4)
C10 C -0.0646(6) -0.150(1) -0.1120(5)
C11 C -0.3095(5) -0.3122(7) -0.1808(4)
C12 C -0.4385(4) -0.1129(6) -0.2803(3)
C13 C -0.4344(5) -0.0336(7) -0.3660(4)
C14 C -0.4393(5) 0.0113(8) -0.2105(4)
C15 C -0.5544(5) -0.2144(7) -0.3027(3)
C16 C -0.6501(4) -0.4738(7) -0.3506(3)
C17 C -0.6001(5) -0.6401(7) -0.3613(4)
C18 C -0.7445(5) -0.4259(8) -0.4359(4)
C19 C -0.7053(4) -0.4831(7) -0.2751(3)
C20 C -0.6703(5) -0.4890(8) -0.1172(4)
C21 C -0.7346(7) -0.3356(9) -0.1029(5)
C22 C -0.5586(6) -0.523(1) -0.0386(4)
C23 C -0.7555(6) -0.6305(8) -0.1267(4)
C24 C -0.7780(8) -0.9018(9) -0.1614(6)
H1 H 0.041540 -0.437900 -0.357160
H2 H -0.049200 -0.402240 -0.221050
H3 H -0.260460 -0.207410 -0.285020
H4 H -0.455930 -0.407940 -0.332580
H5 H -0.555300 -0.413800 -0.167900
H6 H 0.112000 -0.195400 -0.358400
H7 H 0.045600 -0.053600 -0.305400
H8 H 0.008300 -0.054100 -0.420700
H9 H -0.146000 -0.772480 -0.360250
H10 H -0.010650 -0.677280 -0.298600
H11 H -0.035770 -0.703480 -0.420980
H12 H -0.294630 -0.401020 -0.476180
H13 H -0.305080 -0.610310 -0.477050
H14 H -0.196830 -0.516110 -0.525470
H15 H -0.274690 -0.643940 -0.162150
H16 H -0.251350 -0.551410 -0.059490
H17 H -0.128290 -0.624090 -0.089920
H18 H -0.009570 -0.383980 -0.067170
H19 H -0.123010 -0.299260 -0.027400
H20 H -0.003130 -0.080820 -0.058910
H21 H -0.141210 -0.079990 -0.145330
H22 H -0.014340 -0.196190 -0.156310
H23 H -0.513520 0.042360 -0.395080
H24 H -0.427210 -0.119680 -0.413890
H25 H -0.364320 0.032830 -0.352320
H26 H -0.363920 0.091230 -0.198960
H27 H -0.438550 -0.047110 -0.149880
H28 H -0.519120 0.072540 -0.233620
H29 H -0.673380 -0.718860 -0.393040
H30 H -0.553490 -0.685890 -0.295680
H31 H -0.530690 -0.643790 -0.399100
H32 H -0.821070 -0.514590 -0.450470
H33 H -0.708270 -0.428390 -0.490360
H34 H -0.784750 -0.320820 -0.435460
H35 H -0.812790 -0.307920 -0.156870
H36 H -0.674440 -0.229210 -0.088810
H37 H -0.764340 -0.353350 -0.043780
H38 H -0.520540 -0.643610 -0.045630
H39 H -0.576570 -0.525870 0.025030
H40 H -0.478130 -0.436120 -0.031110
H41 H -0.735550 -1.005230 -0.182100
H42 H -0.870840 -0.891790 -0.208640
H43 H -0.794340 -0.938710 -0.098320
loop_
_geom_bond_atom_site_label_1
_geom_bond_atom_site_label_2
_geom_bond_site_symmetry_1
_geom_bond_site_symmetry_2
O1 C2 1_555 1_555
O2 C6 1_555 1_555
O3 C11 1_555 1_555
O4 C15 1_555 1_555
O5 C19 1_555 1_555
O6 C23 1_555 1_555
O7 C23 1_555 1_555
N1 C2 1_555 1_555
N2 C6 1_555 1_555
N3 C11 1_555 1_555
N4 C15 1_555 1_555
N5 C19 1_555 1_555
C1 C2 1_555 1_555
C3 N1 1_555 1_555
C4 C3 1_555 1_555
C5 C3 1_555 1_555
C6 C3 1_555 1_555
C7 N2 1_555 1_555
C8 C7 1_555 1_555
C9 C7 1_555 1_555
C10 C9 1_555 1_555
C11 C7 1_555 1_555
C12 N3 1_555 1_555
C13 C12 1_555 1_555
C14 C12 1_555 1_555
C15 C12 1_555 1_555
C16 N4 1_555 1_555
C17 C16 1_555 1_555
C18 C16 1_555 1_555
C19 C16 1_555 1_555
C20 N5 1_555 1_555
C21 C20 1_555 1_555
C22 C20 1_555 1_555
C23 C20 1_555 1_555
C24 O7 1_555 1_555
H1 N1 1_555 1_555
H2 N2 1_555 1_555
H3 N3 1_555 1_555
H4 N4 1_555 1_555
H5 N5 1_555 1_555
H6 C1 1_555 1_555
H7 C1 1_555 1_555
H8 C1 1_555 1_555
H9 C4 1_555 1_555
H10 C4 1_555 1_555
H11 C4 1_555 1_555
H12 C5 1_555 1_555
H13 C5 1_555 1_555
H14 C5 1_555 1_555
H15 C8 1_555 1_555
H16 C8 1_555 1_555
H17 C8 1_555 1_555
H18 C9 1_555 1_555
H19 C9 1_555 1_555
H20 C10 1_555 1_555
H21 C10 1_555 1_555
H22 C10 1_555 1_555
H23 C13 1_555 1_555
H24 C13 1_555 1_555
H25 C13 1_555 1_555
H26 C14 1_555 1_555
H27 C14 1_555 1_555
H28 C14 1_555 1_555
H29 C17 1_555 1_555
H30 C17 1_555 1_555
H31 C17 1_555 1_555
H32 C18 1_555 1_555
H33 C18 1_555 1_555
H34 C18 1_555 1_555
H35 C21 1_555 1_555
H36 C21 1_555 1_555
H37 C21 1_555 1_555
H38 C22 1_555 1_555
H39 C22 1_555 1_555
H40 C22 1_555 1_555
H41 C24 1_555 1_555
H42 C24 1_555 1_555
H43 C24 1_555 1_555

#END
