
#######################################################################
#
#                 Cambridge Crystallographic Data Centre
#                                CCDC 
#
#######################################################################
#
# If this CIF has been generated from an entry in the Cambridge 
# Structural Database, then it will include bibliographic, chemical, 
# crystal, experimental, refinement or atomic coordinate data resulting 
# from the CCDC's data processing and validation procedures.
#
#######################################################################

data_ZEVPIC
_chemical_formula_moiety         'C22 H19 N1 O4'
_chemical_name_systematic        
'ethyl 3-cyano-5-hydroxy-2,5-dimethyl-5,6-dihydrophenanthro[4,5-bcd]oxepine-1-carboxylate'
_symmetry_cell_setting           orthorhombic
_symmetry_space_group_name_H-M   'P b c a'
_symmetry_Int_Tables_number      61
_space_group_name_Hall           '-P 2ac 2ab'
loop_
_symmetry_equiv_pos_site_id
_symmetry_equiv_pos_as_xyz
1 x,y,z
2 1/2-x,-y,1/2+z
3 -x,1/2+y,1/2-z
4 1/2+x,1/2-y,-z
5 -x,-y,-z
6 1/2+x,y,1/2-z
7 x,1/2-y,1/2+z
8 1/2-x,1/2+y,z
_cell_length_a                   17.127(3)
_cell_length_b                   11.655(2)
_cell_length_c                   18.200(3)
_cell_angle_alpha                90
_cell_angle_beta                 90
_cell_angle_gamma                90
_cell_volume                     3633
_exptl_crystal_colour            colorless
_exptl_crystal_description       block
_cell_formula_units_Z            8
loop_
_atom_site_label
_atom_site_type_symbol
_atom_site_fract_x
_atom_site_fract_y
_atom_site_fract_z
O1 O 0.61271(8) 0.41380(13) 0.13797(8)
O2 O 0.52833(9) 0.69714(14) 0.42011(9)
O3 O 0.65900(10) 0.54053(14) 0.04914(9)
H1 H 0.6345 0.5150 0.0127
O4 O 0.42408(10) 0.58068(16) 0.42060(9)
N1 N 0.43732(12) 0.52707(18) 0.07503(11)
C1 C 0.51715(12) 0.52970(18) 0.19516(12)
C2 C 0.58969(12) 0.47611(18) 0.19794(12)
C3 C 0.51948(12) 0.56561(18) 0.32426(12)
C4 C 0.48231(12) 0.58067(18) 0.25770(12)
C5 C 0.48416(12) 0.61354(19) 0.39285(13)
C6 C 0.63112(12) 0.47069(19) 0.26575(12)
C7 C 0.47461(12) 0.52783(19) 0.12733(13)
C8 C 0.59131(13) 0.50557(19) 0.33000(12)
C9 C 0.70837(12) 0.42078(19) 0.27109(13)
C10 C 0.76094(13) 0.4208(2) 0.21084(13)
C11 C 0.62358(13) 0.4729(2) 0.39963(13)
H2 H 0.5986 0.4975 0.4435
C12 C 0.68082(12) 0.4499(2) 0.09444(13)
C13 C 0.73437(13) 0.3807(2) 0.34026(14)
C14 C 0.40801(13) 0.6492(2) 0.24913(13)
H3 H 0.4161 0.7101 0.2128
H4 H 0.3938 0.6834 0.2965
H5 H 0.3659 0.5985 0.2326
C15 C 0.68872(13) 0.4079(2) 0.40425(14)
H6 H 0.7047 0.3796 0.4508
C16 C 0.74372(13) 0.4950(2) 0.14528(13)
H7 H 0.7924 0.5045 0.1167
H8 H 0.7278 0.5719 0.1630
C17 C 0.70405(14) 0.3438(2) 0.05227(14)
H9 H 0.7185 0.2829 0.0869
H10 H 0.7487 0.3614 0.0205
H11 H 0.6600 0.3181 0.0221
C18 C 0.83184(13) 0.3659(2) 0.21847(15)
H12 H 0.8670 0.3640 0.1781
C19 C 0.50486(15) 0.7493(2) 0.48975(12)
H13 H 0.4511 0.7251 0.5023
H14 H 0.5055 0.8339 0.4852
C20 C 0.80654(14) 0.3238(2) 0.34492(15)
H15 H 0.8231 0.2926 0.3906
C21 C 0.85301(14) 0.3130(2) 0.28464(15)
H16 H 0.8998 0.2695 0.2874
C22 C 0.55939(17) 0.7131(2) 0.54871(14)
H17 H 0.6123 0.7389 0.5367
H18 H 0.5588 0.6292 0.5529
H19 H 0.5431 0.7472 0.5955
loop_
_geom_bond_atom_site_label_1
_geom_bond_atom_site_label_2
_geom_bond_site_symmetry_1
_geom_bond_site_symmetry_2
O1 C2 1_555 1_555
O2 C5 1_555 1_555
O3 H1 1_555 1_555
O4 C5 1_555 1_555
N1 C7 1_555 1_555
C1 C2 1_555 1_555
C2 C6 1_555 1_555
C3 C4 1_555 1_555
C4 C1 1_555 1_555
C5 C3 1_555 1_555
C6 C8 1_555 1_555
C7 C1 1_555 1_555
C8 C3 1_555 1_555
C9 C6 1_555 1_555
C10 C9 1_555 1_555
C11 C8 1_555 1_555
H2 C11 1_555 1_555
C12 O1 1_555 1_555
C13 C9 1_555 1_555
C14 C4 1_555 1_555
H3 C14 1_555 1_555
H4 C14 1_555 1_555
H5 C14 1_555 1_555
C15 C11 1_555 1_555
H6 C15 1_555 1_555
C16 C10 1_555 1_555
H7 C16 1_555 1_555
H8 C16 1_555 1_555
C17 C12 1_555 1_555
H9 C17 1_555 1_555
H10 C17 1_555 1_555
H11 C17 1_555 1_555
C18 C10 1_555 1_555
H12 C18 1_555 1_555
C19 O2 1_555 1_555
H13 C19 1_555 1_555
H14 C19 1_555 1_555
C20 C13 1_555 1_555
H15 C20 1_555 1_555
C21 C18 1_555 1_555
H16 C21 1_555 1_555
C22 C19 1_555 1_555
H17 C22 1_555 1_555
H18 C22 1_555 1_555
H19 C22 1_555 1_555
O3 C12 1_555 1_555
C12 C16 1_555 1_555
C13 C15 1_555 1_555
C20 C21 1_555 1_555

#END
