
#######################################################################
#
#                 Cambridge Crystallographic Data Centre
#                                CCDC 
#
#######################################################################
#
# If this CIF has been generated from an entry in the Cambridge 
# Structural Database, then it will include bibliographic, chemical, 
# crystal, experimental, refinement or atomic coordinate data resulting 
# from the CCDC's data processing and validation procedures.
#
#######################################################################

data_ZEVWEF
_chemical_formula_moiety         'C27 H40 O5,H2 O1'
_chemical_name_systematic        '12,17-dihydroxyspirost-4-en-3-one monohydrate'
_symmetry_cell_setting           orthorhombic
_symmetry_space_group_name_H-M   'P 21 21 21'
_symmetry_Int_Tables_number      19
_space_group_name_Hall           'P 2ac 2ab'
loop_
_symmetry_equiv_pos_site_id
_symmetry_equiv_pos_as_xyz
1 x,y,z
2 1/2-x,-y,1/2+z
3 -x,1/2+y,1/2-z
4 1/2+x,1/2-y,-z
_cell_length_a                   8.4240(3)
_cell_length_b                   11.4179(5)
_cell_length_c                   25.7869(9)
_cell_angle_alpha                90
_cell_angle_beta                 90
_cell_angle_gamma                90
_cell_volume                     2480.3
_exptl_crystal_colour            colorless
_exptl_crystal_description       plate
_cell_formula_units_Z            4
loop_
_atom_site_label
_atom_site_type_symbol
_atom_site_fract_x
_atom_site_fract_y
_atom_site_fract_z
O1 O 0.0208(2) 0.88743(19) 0.65869(9)
H1 H -0.062763 0.913880 0.642676
H2 H 0.067659 0.944703 0.674827
C1 C 0.1188(3) 0.3828(3) 0.68324(11)
H3 H 0.039738 0.443247 0.688855
H4 H 0.116820 0.362312 0.646737
C2 C 0.0741(4) 0.2748(3) 0.71520(12)
H5 H 0.062819 0.296925 0.751332
H6 H -0.027250 0.244731 0.703329
O2 O 0.1634(4) 0.0767(2) 0.71302(12)
C3 C 0.1971(4) 0.1810(3) 0.71056(12)
C4 C 0.3603(4) 0.2213(3) 0.70692(12)
H7 H 0.440148 0.165112 0.707281
C5 C 0.4035(3) 0.3333(2) 0.70308(9)
C6 C 0.5759(3) 0.3676(3) 0.70601(13)
H8 H 0.640465 0.297381 0.703749
H9 H 0.596112 0.403423 0.739471
C7 C 0.6267(3) 0.4521(3) 0.66353(12)
H10 H 0.628600 0.411256 0.630559
H11 H 0.733371 0.479806 0.670680
C8 C 0.5142(3) 0.5570(2) 0.65975(9)
H12 H 0.517753 0.600710 0.692435
C9 C 0.3434(3) 0.5113(2) 0.65101(9)
H13 H 0.349169 0.459737 0.620689
C10 C 0.2846(3) 0.4326(2) 0.69687(9)
C11 C 0.2248(3) 0.6090(2) 0.63652(9)
H14 H 0.124500 0.573823 0.626570
H15 H 0.205820 0.657899 0.666660
O3 O 0.16888(19) 0.77070(16) 0.57676(6)
H16 H 0.131681 0.801828 0.602709
C12 C 0.2855(2) 0.6857(2) 0.59186(8)
H17 H 0.303068 0.634085 0.562033
C13 C 0.4452(3) 0.7404(2) 0.60571(8)
C14 C 0.5618(2) 0.6381(2) 0.61565(8)
H18 H 0.562451 0.590423 0.584052
C15 C 0.7236(3) 0.6999(2) 0.61815(10)
H19 H 0.741607 0.733960 0.652101
H20 H 0.809329 0.646069 0.610242
C16 C 0.7090(3) 0.7949(2) 0.57653(9)
H21 H 0.776127 0.776152 0.546622
O4 O 0.5029(2) 0.73539(15) 0.51530(6)
H22 H 0.415345 0.752076 0.503523
C17 C 0.5326(3) 0.8035(2) 0.56001(8)
C18 C 0.5042(3) 0.9374(2) 0.55295(9)
H23 H 0.432651 0.963168 0.580638
O5 O 0.7468(2) 0.91005(15) 0.59651(6)
C19 C 0.6683(3) 0.9921(2) 0.56327(9)
O6 O 0.7490(2) 0.99962(16) 0.51523(7)
C20 C 0.6668(3) 1.1106(3) 0.59024(11)
H24 H 0.620273 1.102097 0.624448
H25 H 0.601067 1.164479 0.570608
C21 C 0.8336(4) 1.1616(3) 0.59547(12)
H26 H 0.826348 1.241762 0.607694
H27 H 0.892544 1.116877 0.621003
C22 C 0.9222(4) 1.1592(3) 0.54408(12)
H28 H 0.870900 1.214834 0.520472
C23 C 0.9104(3) 1.0378(3) 0.52043(11)
H29 H 0.960292 1.038329 0.486527
H30 H 0.967704 0.982725 0.542087
C24 C 1.0963(4) 1.1934(4) 0.54927(16)
H31 H 1.146231 1.144434 0.574765
H32 H 1.103790 1.273795 0.559837
H33 H 1.148480 1.183390 0.516474
C25 C 0.2736(4) 0.5006(3) 0.74828(9)
H34 H 0.376841 0.529305 0.757596
H35 H 0.235107 0.449548 0.775059
H36 H 0.201986 0.565361 0.744250
C26 C 0.4312(3) 0.8208(2) 0.65345(9)
H37 H 0.345872 0.875302 0.648298
H38 H 0.528730 0.862869 0.658157
H39 H 0.410066 0.774179 0.683671
C27 C 0.4281(4) 0.9709(3) 0.50099(11)
H40 H 0.493268 0.942952 0.473064
H41 H 0.418825 1.054536 0.498819
H42 H 0.324603 0.936137 0.498575
loop_
_geom_bond_atom_site_label_1
_geom_bond_atom_site_label_2
_geom_bond_site_symmetry_1
_geom_bond_site_symmetry_2
O1 H1 1_555 1_555
H2 O1 1_555 1_555
C1 H3 1_555 1_555
H4 C1 1_555 1_555
C2 C1 1_555 1_555
H5 C2 1_555 1_555
H6 C2 1_555 1_555
O2 C3 1_555 1_555
C3 C2 1_555 1_555
C4 C3 1_555 1_555
H7 C4 1_555 1_555
C5 C4 1_555 1_555
C6 C5 1_555 1_555
H8 C6 1_555 1_555
H9 C6 1_555 1_555
C7 C6 1_555 1_555
H10 C7 1_555 1_555
H11 C7 1_555 1_555
C8 C7 1_555 1_555
H12 C8 1_555 1_555
C9 C8 1_555 1_555
H13 C9 1_555 1_555
C10 C1 1_555 1_555
C11 C9 1_555 1_555
H14 C11 1_555 1_555
H15 C11 1_555 1_555
O3 H16 1_555 1_555
C12 C11 1_555 1_555
H17 C12 1_555 1_555
C13 C12 1_555 1_555
C14 C8 1_555 1_555
H18 C14 1_555 1_555
C15 C14 1_555 1_555
H19 C15 1_555 1_555
H20 C15 1_555 1_555
C16 C15 1_555 1_555
H21 C16 1_555 1_555
O4 H22 1_555 1_555
C17 C13 1_555 1_555
C18 C17 1_555 1_555
H23 C18 1_555 1_555
O5 C16 1_555 1_555
C19 C18 1_555 1_555
O6 C19 1_555 1_555
C20 C19 1_555 1_555
H24 C20 1_555 1_555
H25 C20 1_555 1_555
C21 C20 1_555 1_555
H26 C21 1_555 1_555
H27 C21 1_555 1_555
C22 C21 1_555 1_555
H28 C22 1_555 1_555
C23 O6 1_555 1_555
H29 C23 1_555 1_555
H30 C23 1_555 1_555
C24 C22 1_555 1_555
H31 C24 1_555 1_555
H32 C24 1_555 1_555
H33 C24 1_555 1_555
C25 C10 1_555 1_555
H34 C25 1_555 1_555
H35 C25 1_555 1_555
H36 C25 1_555 1_555
C26 C13 1_555 1_555
H37 C26 1_555 1_555
H38 C26 1_555 1_555
H39 C26 1_555 1_555
C27 C18 1_555 1_555
H40 C27 1_555 1_555
H41 C27 1_555 1_555
H42 C27 1_555 1_555
C5 C10 1_555 1_555
C9 C10 1_555 1_555
O3 C12 1_555 1_555
C13 C14 1_555 1_555
C16 C17 1_555 1_555
O4 C17 1_555 1_555
O5 C19 1_555 1_555
C22 C23 1_555 1_555

#END
