
#######################################################################
#
#                 Cambridge Crystallographic Data Centre
#                                CCDC 
#
#######################################################################
#
# If this CIF has been generated from an entry in the Cambridge 
# Structural Database, then it will include bibliographic, chemical, 
# crystal, experimental, refinement or atomic coordinate data resulting 
# from the CCDC's data processing and validation procedures.
#
#######################################################################

data_ZEVXIK
_chemical_formula_moiety         'C20 H20 O3'
_chemical_name_systematic        
'6-t-butyl-4-phenyl-4H-chromene-2-carboxylic acid'
_symmetry_cell_setting           triclinic
_symmetry_space_group_name_H-M   'P -1'
_symmetry_Int_Tables_number      2
_space_group_name_Hall           '-P 1'
loop_
_symmetry_equiv_pos_site_id
_symmetry_equiv_pos_as_xyz
1 x,y,z
2 -x,-y,-z
_cell_length_a                   6.2690(13)
_cell_length_b                   10.230(2)
_cell_length_c                   12.839(3)
_cell_angle_alpha                96.72(3)
_cell_angle_beta                 92.39(3)
_cell_angle_gamma                98.74(3)
_cell_volume                     806.752
_exptl_crystal_colour            colorless
_exptl_crystal_description       block
_cell_formula_units_Z            2
loop_
_atom_site_label
_atom_site_type_symbol
_atom_site_fract_x
_atom_site_fract_y
_atom_site_fract_z
O1 O 0.2606(2) 0.60095(14) 0.42144(13)
O2 O 0.5037(3) 0.83084(15) 0.48524(14)
O3 O 0.2364(3) 0.94286(15) 0.44885(14)
H1 H 0.3289 1.0069 0.4708
C1 C -0.2858(7) 0.0258(3) 0.2817(3)
H2 H -0.3526 -0.0596 0.2467
H3 H -0.3956 0.0776 0.3029
H4 H -0.2000 0.0137 0.3425
C2 C 0.0241(6) 0.0124(3) 0.1744(3)
H5 H -0.0463 -0.0715 0.1383
H6 H 0.1067 -0.0026 0.2353
H7 H 0.1186 0.0573 0.1283
C3 C -0.2786(7) 0.1105(3) 0.1118(3)
H8 H -0.3402 0.0235 0.0780
H9 H -0.1898 0.1567 0.0642
H10 H -0.3924 0.1598 0.1315
C4 C -0.1435(4) 0.0974(2) 0.20785(18)
C5 C -0.0394(4) 0.2335(2) 0.26604(18)
C6 C 0.1591(4) 0.2512(2) 0.32122(19)
H11 H 0.2315 0.1785 0.3232
C7 C 0.2536(4) 0.3736(2) 0.3735(2)
H12 H 0.3875 0.3827 0.4100
C8 C 0.1485(4) 0.4807(2) 0.37111(18)
C9 C -0.0532(4) 0.4686(2) 0.32005(18)
C10 C -0.1427(4) 0.3433(2) 0.26824(18)
H13 H -0.2785 0.3336 0.2336
C11 C -0.1726(3) 0.5863(2) 0.31916(19)
H14 H -0.3022 0.5699 0.3588
C12 C -0.2405(4) 0.6111(2) 0.20939(19)
C13 C -0.4385(4) 0.6467(2) 0.1874(2)
H15 H -0.5378 0.6490 0.2392
C14 C -0.4922(5) 0.6795(3) 0.0889(3)
H16 H -0.6255 0.7053 0.0753
C15 C -0.3490(6) 0.6737(3) 0.0117(3)
H17 H -0.3856 0.6946 -0.0546
C16 C -0.1527(5) 0.6375(3) 0.0320(2)
H18 H -0.0551 0.6335 -0.0205
C17 C -0.0996(4) 0.6069(2) 0.1295(2)
H19 H 0.0351 0.5826 0.1425
C18 C -0.0301(4) 0.7100(2) 0.37193(19)
H20 H -0.0830 0.7904 0.3747
C19 C 0.1643(4) 0.7111(2) 0.41414(18)
C20 C 0.3140(4) 0.8358(2) 0.45286(18)
loop_
_geom_bond_atom_site_label_1
_geom_bond_atom_site_label_2
_geom_bond_site_symmetry_1
_geom_bond_site_symmetry_2
O1 C8 1_555 1_555
O2 C20 1_555 1_555
O3 H1 1_555 1_555
C1 H2 1_555 1_555
H3 C1 1_555 1_555
H4 C1 1_555 1_555
C2 H5 1_555 1_555
H6 C2 1_555 1_555
H7 C2 1_555 1_555
C3 H8 1_555 1_555
H9 C3 1_555 1_555
H10 C3 1_555 1_555
C4 C1 1_555 1_555
C5 C4 1_555 1_555
C6 C5 1_555 1_555
H11 C6 1_555 1_555
C7 C6 1_555 1_555
H12 C7 1_555 1_555
C8 C7 1_555 1_555
C9 C8 1_555 1_555
C10 C5 1_555 1_555
H13 C10 1_555 1_555
C11 C9 1_555 1_555
H14 C11 1_555 1_555
C12 C11 1_555 1_555
C13 C12 1_555 1_555
H15 C13 1_555 1_555
C14 C13 1_555 1_555
H16 C14 1_555 1_555
C15 C14 1_555 1_555
H17 C15 1_555 1_555
C16 C15 1_555 1_555
H18 C16 1_555 1_555
C17 C12 1_555 1_555
H19 C17 1_555 1_555
C18 C11 1_555 1_555
H20 C18 1_555 1_555
C19 O1 1_555 1_555
C20 O3 1_555 1_555
C2 C4 1_555 1_555
C3 C4 1_555 1_555
C9 C10 1_555 1_555
C16 C17 1_555 1_555
C18 C19 1_555 1_555
C19 C20 1_555 1_555

#END
