
#######################################################################
#
#                 Cambridge Crystallographic Data Centre
#                                CCDC 
#
#######################################################################
#
# If this CIF has been generated from an entry in the Cambridge 
# Structural Database, then it will include bibliographic, chemical, 
# crystal, experimental, refinement or atomic coordinate data resulting 
# from the CCDC's data processing and validation procedures.
#
#######################################################################

data_ZEWCUB
_chemical_formula_moiety         'C24 H24 O4'
_chemical_name_systematic        
'Dimethyl 3-phenylpentacyclo[7.3.2.0^2,4^.0^2,8^.0^8,10^]tetradeca-11,13-diene-6,6-dicarboxylate'
_symmetry_cell_setting           monoclinic
_symmetry_space_group_name_H-M   'C 2/c'
_symmetry_Int_Tables_number      15
_space_group_name_Hall           '-C 2yn'
loop_
_symmetry_equiv_pos_site_id
_symmetry_equiv_pos_as_xyz
1 x,y,z
2 -x,y,1/2-z
3 1/2+x,1/2+y,z
4 1/2-x,1/2+y,1/2-z
5 -x,-y,-z
6 x,-y,1/2+z
7 1/2-x,1/2-y,-z
8 1/2+x,1/2-y,1/2+z
_cell_length_a                   43.104(13)
_cell_length_b                   6.2652(18)
_cell_length_c                   13.842(4)
_cell_angle_alpha                90
_cell_angle_beta                 99.962(9)
_cell_angle_gamma                90
_cell_volume                     3681.74
_exptl_crystal_colour            colorless
_exptl_crystal_description       Block
_cell_formula_units_Z            8
loop_
_atom_site_label
_atom_site_type_symbol
_atom_site_fract_x
_atom_site_fract_y
_atom_site_fract_z
C1 C 0.32607(4) 0.3579(3) 0.36520(15)
C2 C 0.34747(4) 0.5407(3) 0.41246(15)
H1 H 0.3588 0.6016 0.3644
H2 H 0.3347 0.6521 0.4343
C3 C 0.37060(4) 0.4571(3) 0.49858(15)
C4 C 0.39026(4) 0.2720(3) 0.47807(15)
C5 C 0.37712(4) 0.1285(3) 0.39343(15)
H3 H 0.3824 -0.0231 0.4027
C6 C 0.34539(4) 0.1762(3) 0.32836(15)
H4 H 0.3328 0.0470 0.3224
H5 H 0.3492 0.2131 0.2633
C7 C 0.41073(5) 0.1873(3) 0.57113(15)
H6 H 0.4233 0.0648 0.5569
C8 C 0.39080(5) 0.1322(4) 0.64727(15)
H7 H 0.3949 0.0095 0.6852
C9 C 0.36746(5) 0.2609(3) 0.65925(15)
H8 H 0.3558 0.2313 0.7082
C10 C 0.35964(5) 0.4489(4) 0.59723(15)
H9 H 0.3391 0.5143 0.5994
C11 C 0.38646(5) 0.6064(4) 0.57658(16)
H10 H 0.3806 0.7573 0.5683
C12 C 0.41922(5) 0.5622(4) 0.62197(17)
H11 H 0.4316 0.6716 0.6536
C13 C 0.43148(5) 0.3674(4) 0.61850(16)
H12 H 0.4525 0.3423 0.6448
C14 C 0.30616(5) 0.2859(4) 0.44112(15)
C15 C 0.29551(5) 0.0171(4) 0.54968(17)
H13 H 0.3019 0.1011 0.6077
H14 H 0.3001 -0.1305 0.5642
H15 H 0.2733 0.0341 0.5276
C16 C 0.30263(5) 0.4476(4) 0.27990(16)
C17 C 0.25712(5) 0.3695(4) 0.16310(16)
H16 H 0.2435 0.4666 0.1893
H17 H 0.2452 0.2488 0.1347
H18 H 0.2664 0.4406 0.1136
C18 C 0.40462(4) 0.2749(3) 0.38496(15)
H19 H 0.3986 0.4003 0.3437
C19 C 0.43760(5) 0.2014(4) 0.38403(15)
C20 C 0.44556(5) -0.0076(4) 0.36587(16)
H20 H 0.4300 -0.1124 0.3567
C21 C 0.47653(5) -0.0616(4) 0.36131(17)
H21 H 0.4816 -0.2019 0.3484
C22 C 0.49980(5) 0.0909(4) 0.37572(18)
H22 H 0.5205 0.0540 0.3725
C23 C 0.49235(5) 0.2980(4) 0.39496(19)
H23 H 0.5080 0.4015 0.4053
C24 C 0.46147(5) 0.3525(4) 0.39901(18)
H24 H 0.4566 0.4931 0.4120
O1 O 0.28191(3) 0.2972(2) 0.24156(10)
O2 O 0.30257(3) 0.6277(3) 0.25013(11)
O3 O 0.31242(3) 0.0878(2) 0.47335(11)
O4 O 0.28701(3) 0.4013(2) 0.46805(11)
loop_
_geom_bond_atom_site_label_1
_geom_bond_atom_site_label_2
_geom_bond_site_symmetry_1
_geom_bond_site_symmetry_2
C1 C2 1_555 1_555
C2 H1 1_555 1_555
H2 C2 1_555 1_555
C3 C2 1_555 1_555
C4 C3 1_555 1_555
C5 C4 1_555 1_555
H3 C5 1_555 1_555
C6 C1 1_555 1_555
H4 C6 1_555 1_555
H5 C6 1_555 1_555
C7 C4 1_555 1_555
H6 C7 1_555 1_555
C8 C7 1_555 1_555
H7 C8 1_555 1_555
C9 C8 1_555 1_555
H8 C9 1_555 1_555
C10 C3 1_555 1_555
H9 C10 1_555 1_555
C11 C3 1_555 1_555
H10 C11 1_555 1_555
C12 C11 1_555 1_555
H11 C12 1_555 1_555
C13 C7 1_555 1_555
H12 C13 1_555 1_555
C14 C1 1_555 1_555
C15 H13 1_555 1_555
H14 C15 1_555 1_555
H15 C15 1_555 1_555
C16 C1 1_555 1_555
C17 H16 1_555 1_555
H17 C17 1_555 1_555
H18 C17 1_555 1_555
C18 C4 1_555 1_555
H19 C18 1_555 1_555
C19 C18 1_555 1_555
C20 C19 1_555 1_555
H20 C20 1_555 1_555
C21 C20 1_555 1_555
H21 C21 1_555 1_555
C22 C21 1_555 1_555
H22 C22 1_555 1_555
C23 C22 1_555 1_555
H23 C23 1_555 1_555
C24 C19 1_555 1_555
H24 C24 1_555 1_555
O1 C16 1_555 1_555
O2 C16 1_555 1_555
O3 C14 1_555 1_555
O4 C14 1_555 1_555
C5 C6 1_555 1_555
C5 C18 1_555 1_555
C9 C10 1_555 1_555
C10 C11 1_555 1_555
C12 C13 1_555 1_555
C15 O3 1_555 1_555
C17 O1 1_555 1_555
C23 C24 1_555 1_555

#END
