
#######################################################################
#
#                 Cambridge Crystallographic Data Centre
#                                CCDC 
#
#######################################################################
#
# If this CIF has been generated from an entry in the Cambridge 
# Structural Database, then it will include bibliographic, chemical, 
# crystal, experimental, refinement or atomic coordinate data resulting 
# from the CCDC's data processing and validation procedures.
#
#######################################################################

data_ZEWCAI
_chemical_formula_moiety         'C12 H11 Br1 O5 S1'
_chemical_name_systematic        
3-bromo-5-methoxy-4-[(4-methylphenyl)sulfonyl]furan-2(5H)-one
_symmetry_cell_setting           monoclinic
_symmetry_space_group_name_H-M   'P 21/c'
_symmetry_Int_Tables_number      14
_space_group_name_Hall           '-P 2ybc'
loop_
_symmetry_equiv_pos_site_id
_symmetry_equiv_pos_as_xyz
1 x,y,z
2 -x,1/2+y,1/2-z
3 -x,-y,-z
4 x,1/2-y,1/2+z
_cell_length_a                   9.7719(7)
_cell_length_b                   19.2524(18)
_cell_length_c                   7.2602(5)
_cell_angle_alpha                90
_cell_angle_beta                 95.126(6)
_cell_angle_gamma                90
_cell_volume                     1360.42
_exptl_crystal_colour            colorless
_exptl_crystal_description       block
_cell_formula_units_Z            4
loop_
_atom_site_label
_atom_site_type_symbol
_atom_site_fract_x
_atom_site_fract_y
_atom_site_fract_z
Br1 Br 0.43546(5) 0.58804(3) 0.89843(7)
S1 S 0.71276(11) 0.52690(6) 0.63355(16)
O1 O 0.4774(3) 0.68129(19) 0.4099(4)
O2 O 0.3090(4) 0.6976(2) 0.5947(5)
O3 O 0.7162(3) 0.67704(18) 0.4234(5)
O4 O 0.6413(3) 0.47411(16) 0.7227(4)
O5 O 0.7706(3) 0.51185(19) 0.4646(4)
C1 C 0.4115(5) 0.6692(3) 0.5640(7)
C2 C 0.4891(4) 0.6145(2) 0.6719(6)
C3 C 0.5935(4) 0.5943(2) 0.5809(6)
C4 C 0.5968(5) 0.6376(2) 0.4096(6)
H1 H 0.5916 0.6083 0.2989
C5 C 0.8376(4) 0.5625(2) 0.7921(6)
C6 C 0.8281(4) 0.5536(3) 0.9795(6)
H2 H 0.7571 0.5272 1.0207
C7 C 0.9229(5) 0.5837(3) 1.1039(7)
H3 H 0.9176 0.5763 1.2296
C8 C 1.0270(4) 0.6251(3) 1.0466(8)
C9 C 1.0362(5) 0.6329(3) 0.8580(8)
H4 H 1.1074 0.6591 0.8171
C10 C 0.9429(5) 0.6028(3) 0.7313(7)
H5 H 0.9496 0.6092 0.6054
C11 C 1.1272(5) 0.6603(3) 1.1853(9)
H6 H 1.1075 0.6475 1.3079
H7 H 1.1193 0.7097 1.1710
H8 H 1.2189 0.6461 1.1655
C12 C 0.7270(6) 0.7185(3) 0.2701(7)
H9 H 0.7176 0.6904 0.1605
H10 H 0.8151 0.7410 0.2799
H11 H 0.6558 0.7530 0.2634
loop_
_geom_bond_atom_site_label_1
_geom_bond_atom_site_label_2
_geom_bond_site_symmetry_1
_geom_bond_site_symmetry_2
Br1 C2 1_555 1_555
S1 O4 1_555 1_555
O1 C1 1_555 1_555
O2 C1 1_555 1_555
O3 C4 1_555 1_555
O5 S1 1_555 1_555
C1 C2 1_555 1_555
C2 C3 1_555 1_555
C3 S1 1_555 1_555
C4 O1 1_555 1_555
H1 C4 1_555 1_555
C5 S1 1_555 1_555
C6 C5 1_555 1_555
H2 C6 1_555 1_555
C7 C6 1_555 1_555
H3 C7 1_555 1_555
C8 C7 1_555 1_555
C9 C8 1_555 1_555
H4 C9 1_555 1_555
C10 C5 1_555 1_555
H5 C10 1_555 1_555
C11 C8 1_555 1_555
H6 C11 1_555 1_555
H7 C11 1_555 1_555
H8 C11 1_555 1_555
C12 O3 1_555 1_555
H9 C12 1_555 1_555
H10 C12 1_555 1_555
H11 C12 1_555 1_555
C3 C4 1_555 1_555
C9 C10 1_555 1_555

#END
