
#######################################################################
#
#                 Cambridge Crystallographic Data Centre
#                                CCDC 
#
#######################################################################
#
# If this CIF has been generated from an entry in the Cambridge 
# Structural Database, then it will include bibliographic, chemical, 
# crystal, experimental, refinement or atomic coordinate data resulting 
# from the CCDC's data processing and validation procedures.
#
#######################################################################

data_ZEWJES
_chemical_formula_moiety         'C20 H21 O4 P1'
_chemical_name_systematic        
9-Anthryl(5,5-dimethyl-2-oxido-1,3,2-dioxaphosphinan-2-yl)methanol
_symmetry_cell_setting           monoclinic
_symmetry_space_group_name_H-M   'P 21/c'
_symmetry_Int_Tables_number      14
_space_group_name_Hall           '-P 2ybc'
loop_
_symmetry_equiv_pos_site_id
_symmetry_equiv_pos_as_xyz
1 x,y,z
2 -x,1/2+y,1/2-z
3 -x,-y,-z
4 x,1/2-y,1/2+z
_cell_length_a                   12.524(2)
_cell_length_b                   12.391(2)
_cell_length_c                   11.553(2)
_cell_angle_alpha                90
_cell_angle_beta                 107.019(3)
_cell_angle_gamma                90
_cell_volume                     1714.34
_exptl_crystal_colour            yellow
_exptl_crystal_description       blocky
_cell_formula_units_Z            4
loop_
_atom_site_label
_atom_site_type_symbol
_atom_site_fract_x
_atom_site_fract_y
_atom_site_fract_z
P1 P 0.53918(4) 0.20613(5) 0.28425(5)
O1 O 0.65899(12) 0.17671(14) 0.27616(14)
O2 O 0.55395(14) 0.23580(15) 0.41900(16)
O3 O 0.48868(15) 0.29326(14) 0.20181(18)
O4 O 0.49891(15) 0.01033(14) 0.34501(17)
H1 H 0.5000 -0.0519 0.3212
C1 C 0.46198(18) 0.07945(19) 0.2455(2)
H2 H 0.4864 0.0470 0.1801
C2 C 0.33617(18) 0.09352(17) 0.1959(2)
C3 C 0.26828(19) 0.10677(17) 0.2739(2)
C4 C 0.3110(2) 0.1205(2) 0.4012(2)
H3 H 0.3878 0.1183 0.4374
C5 C 0.2431(2) 0.1367(2) 0.4703(3)
H4 H 0.2738 0.1475 0.5531
C6 C 0.1255(2) 0.1378(2) 0.4196(3)
H5 H 0.0796 0.1477 0.4691
C7 C 0.0802(2) 0.1243(2) 0.2994(3)
H6 H 0.0030 0.1240 0.2666
C8 C 0.14903(19) 0.11055(18) 0.2218(2)
C9 C 0.10397(19) 0.10210(19) 0.0977(2)
H7 H 0.0267 0.1013 0.0651
C10 C 0.1694(2) 0.09485(18) 0.0204(2)
C11 C 0.1204(2) 0.0909(2) -0.1084(2)
H8 H 0.0430 0.0905 -0.1400
C12 C 0.1833(3) 0.0878(2) -0.1843(3)
H9 H 0.1496 0.0854 -0.2675
C13 C 0.2995(3) 0.0884(2) -0.1384(3)
H10 H 0.3426 0.0875 -0.1917
C14 C 0.3508(2) 0.0903(2) -0.0177(3)
H11 H 0.4284 0.0905 0.0098
C15 C 0.28857(19) 0.09199(18) 0.0695(2)
C16 C 0.74764(19) 0.1387(2) 0.3788(2)
H12 H 0.8180 0.1420 0.3598
H13 H 0.7338 0.0639 0.3949
C17 C 0.6458(2) 0.1953(3) 0.5182(2)
H14 H 0.6325 0.1202 0.5328
H15 H 0.6493 0.2356 0.5912
C18 C 0.7559(2) 0.20541(19) 0.4904(2)
C19 C 0.7819(3) 0.3217(2) 0.4691(3)
H16 H 0.7240 0.3501 0.4021
H17 H 0.8521 0.3253 0.4513
H18 H 0.7861 0.3634 0.5403
C20 C 0.8471(3) 0.1586(3) 0.5979(3)
H19 H 0.8295 0.0850 0.6106
H20 H 0.8513 0.2000 0.6692
H21 H 0.9177 0.1614 0.5809
loop_
_geom_bond_atom_site_label_1
_geom_bond_atom_site_label_2
_geom_bond_site_symmetry_1
_geom_bond_site_symmetry_2
P1 O1 1_555 1_555
O1 C16 1_555 1_555
O2 P1 1_555 1_555
O3 P1 1_555 1_555
O4 H1 1_555 1_555
C1 P1 1_555 1_555
H2 C1 1_555 1_555
C2 C1 1_555 1_555
C3 C2 1_555 1_555
C4 C3 1_555 1_555
H3 C4 1_555 1_555
C5 C4 1_555 1_555
H4 C5 1_555 1_555
C6 C5 1_555 1_555
H5 C6 1_555 1_555
C7 C6 1_555 1_555
H6 C7 1_555 1_555
C8 C3 1_555 1_555
C9 C8 1_555 1_555
H7 C9 1_555 1_555
C10 C9 1_555 1_555
C11 C10 1_555 1_555
H8 C11 1_555 1_555
C12 C11 1_555 1_555
H9 C12 1_555 1_555
C13 C12 1_555 1_555
H10 C13 1_555 1_555
C14 C13 1_555 1_555
H11 C14 1_555 1_555
C15 C2 1_555 1_555
C16 H12 1_555 1_555
H13 C16 1_555 1_555
C17 O2 1_555 1_555
H14 C17 1_555 1_555
H15 C17 1_555 1_555
C18 C16 1_555 1_555
C19 C18 1_555 1_555
H16 C19 1_555 1_555
H17 C19 1_555 1_555
H18 C19 1_555 1_555
C20 C18 1_555 1_555
H19 C20 1_555 1_555
H20 C20 1_555 1_555
H21 C20 1_555 1_555
O4 C1 1_555 1_555
C7 C8 1_555 1_555
C10 C15 1_555 1_555
C14 C15 1_555 1_555
C17 C18 1_555 1_555

#END
