
#######################################################################
#
#                 Cambridge Crystallographic Data Centre
#                                CCDC 
#
#######################################################################
#
# If this CIF has been generated from an entry in the Cambridge 
# Structural Database, then it will include bibliographic, chemical, 
# crystal, experimental, refinement or atomic coordinate data resulting 
# from the CCDC's data processing and validation procedures.
#
#######################################################################

data_ZEWROL
_chemical_formula_moiety         'C20 H19 Br1 O4 S1'
_chemical_name_systematic        
'ethyl 5-(4-bromophenyl)-2-[(4-methylphenyl)sulfonyl]penta-2,4-dienoate'
_symmetry_cell_setting           triclinic
_symmetry_space_group_name_H-M   'P -1'
_symmetry_Int_Tables_number      2
_space_group_name_Hall           '-P 1'
loop_
_symmetry_equiv_pos_site_id
_symmetry_equiv_pos_as_xyz
1 x,y,z
2 -x,-y,-z
_cell_length_a                   7.5123(3)
_cell_length_b                   12.1628(6)
_cell_length_c                   12.1719(4)
_cell_angle_alpha                63.5220(10)
_cell_angle_beta                 79.7360(10)
_cell_angle_gamma                89.681(2)
_cell_volume                     976.113
_exptl_crystal_colour            colorless
_exptl_crystal_description       block
_cell_formula_units_Z            2
loop_
_atom_site_label
_atom_site_type_symbol
_atom_site_fract_x
_atom_site_fract_y
_atom_site_fract_z
Br1 Br 0.07525(4) 0.71541(3) 0.70191(3)
S1 S 0.54607(9) 0.26167(6) 0.10265(6)
O1 O 0.3012(3) 0.06923(18) 0.32813(18)
O2 O 0.3378(3) 0.15132(17) 0.45454(16)
O3 O 0.6462(3) 0.15474(18) 0.13425(18)
O4 O 0.6408(2) 0.37999(17) 0.01752(15)
C1 C 0.3541(4) 0.1531(2) 0.3437(2)
C2 C 0.4438(3) 0.2710(2) 0.2411(2)
C3 C 0.4514(3) 0.3819(2) 0.2393(2)
H1 H 0.515187 0.445659 0.165727
C4 C 0.3743(3) 0.4155(2) 0.3358(2)
H2 H 0.308216 0.355075 0.410898
C5 C 0.3943(4) 0.5303(2) 0.3215(2)
H3 H 0.462355 0.588452 0.245901
C6 C 0.3196(3) 0.5729(2) 0.4128(2)
C7 C 0.3467(4) 0.6961(2) 0.3850(2)
H4 H 0.415717 0.750187 0.307713
C8 C 0.2745(4) 0.7412(3) 0.4682(3)
H5 H 0.292920 0.824425 0.446896
C9 C 0.1757(3) 0.6607(2) 0.5823(2)
C10 C 0.1450(4) 0.5378(3) 0.6144(2)
H6 H 0.075968 0.484391 0.691929
C11 C 0.2183(4) 0.4947(2) 0.5298(2)
H7 H 0.199185 0.411426 0.551834
C12 C 0.2406(6) 0.0423(3) 0.5621(3)
H8 H 0.148711 0.008243 0.536403
H9 H 0.324686 -0.019853 0.593928
C13 C 0.1573(6) 0.0725(4) 0.6578(3)
H10 H 0.072609 0.132960 0.626607
H11 H 0.248461 0.105239 0.683834
H12 H 0.094272 -0.000248 0.727800
C14 C 0.3627(3) 0.2427(2) 0.0385(2)
C15 C 0.3542(4) 0.1477(3) 0.0064(3)
H13 H 0.439872 0.089802 0.024108
C16 C 0.2170(5) 0.1395(3) -0.0522(3)
H14 H 0.212805 0.076404 -0.075330
C17 C 0.0858(4) 0.2228(3) -0.0774(2)
C18 C 0.0957(4) 0.3160(3) -0.0425(2)
H15 H 0.006927 0.371715 -0.056552
C19 C 0.2347(3) 0.3279(2) 0.0127(2)
H16 H 0.242167 0.393053 0.032546
C20 C -0.0656(4) 0.2134(3) -0.1402(3)
H17 H -0.177515 0.229436 -0.099926
H18 H -0.076773 0.132018 -0.133619
H19 H -0.038675 0.272769 -0.226828
loop_
_geom_bond_atom_site_label_1
_geom_bond_atom_site_label_2
_geom_bond_site_symmetry_1
_geom_bond_site_symmetry_2
Br1 C9 1_555 1_555
S1 O3 1_555 1_555
O1 C1 1_555 1_555
O2 C1 1_555 1_555
O4 S1 1_555 1_555
C1 C2 1_555 1_555
C2 S1 1_555 1_555
C3 C2 1_555 1_555
H1 C3 1_555 1_555
C4 C3 1_555 1_555
H2 C4 1_555 1_555
C5 C4 1_555 1_555
H3 C5 1_555 1_555
C6 C5 1_555 1_555
C7 C6 1_555 1_555
H4 C7 1_555 1_555
C8 C7 1_555 1_555
H5 C8 1_555 1_555
C9 C8 1_555 1_555
C10 C9 1_555 1_555
H6 C10 1_555 1_555
C11 C6 1_555 1_555
H7 C11 1_555 1_555
C12 O2 1_555 1_555
H8 C12 1_555 1_555
H9 C12 1_555 1_555
C13 C12 1_555 1_555
H10 C13 1_555 1_555
H11 C13 1_555 1_555
H12 C13 1_555 1_555
C14 S1 1_555 1_555
C15 C14 1_555 1_555
H13 C15 1_555 1_555
C16 C15 1_555 1_555
H14 C16 1_555 1_555
C17 C16 1_555 1_555
C18 C17 1_555 1_555
H15 C18 1_555 1_555
C19 C14 1_555 1_555
H16 C19 1_555 1_555
C20 C17 1_555 1_555
H17 C20 1_555 1_555
H18 C20 1_555 1_555
H19 C20 1_555 1_555
C10 C11 1_555 1_555
C18 C19 1_555 1_555

#END
