
#######################################################################
#
#                 Cambridge Crystallographic Data Centre
#                                CCDC 
#
#######################################################################
#
# If this CIF has been generated from an entry in the Cambridge 
# Structural Database, then it will include bibliographic, chemical, 
# crystal, experimental, refinement or atomic coordinate data resulting 
# from the CCDC's data processing and validation procedures.
#
#######################################################################

data_ZEXBAF
_chemical_formula_moiety         'C11 H16 N1 O3 P1'
_chemical_name_systematic        
cis-2-Dimethylamino-4-phenyl-1,3,2-dioxophosphorinane-2-oxide
_symmetry_cell_setting           orthorhombic
_symmetry_space_group_name_H-M   'P 21 21 21'
_symmetry_Int_Tables_number      19
_space_group_name_Hall           'P 2ac 2ab'
loop_
_symmetry_equiv_pos_site_id
_symmetry_equiv_pos_as_xyz
1 x,y,z
2 1/2-x,-y,1/2+z
3 1/2+x,1/2-y,-z
4 -x,1/2+y,1/2-z
_cell_length_a                   9.2972(11)
_cell_length_b                   10.6507(18)
_cell_length_c                   11.9583(16)
_cell_angle_alpha                90
_cell_angle_beta                 90
_cell_angle_gamma                90
_cell_volume                     1184.13
_exptl_crystal_colour            colorless
_chemical_melting_point          113-114deg.C
_cell_formula_units_Z            4
loop_
_atom_site_label
_atom_site_type_symbol
_atom_site_fract_x
_atom_site_fract_y
_atom_site_fract_z
P1 P 0.23844(15) 0.38089(11) 0.37694(11)
O1 O 0.2227(3) 0.2332(3) 0.3788(3)
O2 O 0.1182(4) 0.4400(3) 0.3183(3)
O3 O 0.2453(4) 0.4234(3) 0.5026(2)
N1 N 0.4014(4) 0.4049(4) 0.3279(3)
C1 C 0.3119(5) 0.1594(5) 0.4547(4)
C2 C 0.2956(7) 0.2125(6) 0.5717(5)
C3 C 0.3356(8) 0.3490(6) 0.5787(5)
C4 C 0.4617(7) 0.5302(6) 0.3431(7)
C5 C 0.4329(8) 0.3550(6) 0.2167(5)
C6 C 0.2700(5) 0.0227(4) 0.4449(4)
C7 C 0.1688(5) -0.0187(5) 0.3700(5)
C8 C 0.1303(5) -0.1446(5) 0.3660(5)
C9 C 0.1941(6) -0.2293(5) 0.4386(5)
C10 C 0.2979(6) -0.1882(5) 0.5118(6)
C11 C 0.3358(6) -0.0633(5) 0.5162(5)
H1 H 0.402(5) 0.167(4) 0.428(4)
H2 H 0.353(6) 0.168(5) 0.621(5)
H3 H 0.191(5) 0.201(5) 0.597(4)
H4 H 0.323(5) 0.383(5) 0.654(4)
H5 H 0.424(5) 0.365(5) 0.558(4)
H6 H 0.555(5) 0.532(5) 0.326(4)
H7 H 0.449(5) 0.555(5) 0.421(4)
H8 H 0.417(5) 0.593(4) 0.291(4)
H9 H 0.530(6) 0.342(5) 0.206(5)
H10 H 0.394(6) 0.415(5) 0.161(5)
H11 H 0.383(6) 0.269(5) 0.212(4)
H12 H 0.129(4) 0.041(4) 0.316(3)
H13 H 0.058(5) -0.175(4) 0.317(4)
H14 H 0.156(5) -0.314(5) 0.424(4)
H15 H 0.338(5) -0.248(4) 0.559(4)
H16 H 0.414(4) -0.037(4) 0.570(3)
loop_
_geom_bond_atom_site_label_1
_geom_bond_atom_site_label_2
_geom_bond_site_symmetry_1
_geom_bond_site_symmetry_2
P1 O1 1_555 1_555
O1 C1 1_555 1_555
O2 P1 1_555 1_555
O3 P1 1_555 1_555
N1 P1 1_555 1_555
C1 C2 1_555 1_555
C2 C3 1_555 1_555
C3 O3 1_555 1_555
C4 N1 1_555 1_555
C5 N1 1_555 1_555
C6 C1 1_555 1_555
C7 C6 1_555 1_555
C8 C7 1_555 1_555
C9 C8 1_555 1_555
C10 C9 1_555 1_555
C11 C6 1_555 1_555
H1 C1 1_555 1_555
H2 C2 1_555 1_555
H3 C2 1_555 1_555
H4 C3 1_555 1_555
H5 C3 1_555 1_555
H6 C4 1_555 1_555
H7 C4 1_555 1_555
H8 C4 1_555 1_555
H9 C5 1_555 1_555
H10 C5 1_555 1_555
H11 C5 1_555 1_555
H12 C7 1_555 1_555
H13 C8 1_555 1_555
H14 C9 1_555 1_555
H15 C10 1_555 1_555
H16 C11 1_555 1_555
C10 C11 1_555 1_555

#END
