
#######################################################################
#
#                 Cambridge Crystallographic Data Centre
#                                CCDC 
#
#######################################################################
#
# If this CIF has been generated from an entry in the Cambridge 
# Structural Database, then it will include bibliographic, chemical, 
# crystal, experimental, refinement or atomic coordinate data resulting 
# from the CCDC's data processing and validation procedures.
#
#######################################################################

data_ZEZNOJ
_chemical_formula_moiety         'C28 H26 O4'
_chemical_name_systematic        
3,4,4'',6'-Tetramethoxy-1,1':3',1'':3'',1'''-quaterphenyl
_symmetry_cell_setting           monoclinic
_symmetry_space_group_name_H-M   'P 21/c'
_symmetry_Int_Tables_number      14
_space_group_name_Hall           '-P 2ybc'
loop_
_symmetry_equiv_pos_site_id
_symmetry_equiv_pos_as_xyz
1 x,y,z
2 -x,1/2+y,1/2-z
3 -x,-y,-z
4 x,1/2-y,1/2+z
_cell_length_a                   28.750(3)
_cell_length_b                   6.7540(7)
_cell_length_c                   11.4864(12)
_cell_angle_alpha                90
_cell_angle_beta                 93.979(2)
_cell_angle_gamma                90
_cell_volume                     2225.02
_exptl_crystal_colour            colorless
_exptl_crystal_description       tabular
_cell_formula_units_Z            4
loop_
_atom_site_label
_atom_site_type_symbol
_atom_site_fract_x
_atom_site_fract_y
_atom_site_fract_z
O1 O 0.04953(4) 0.69551(19) 0.79916(12)
O2 O 0.04793(4) 0.41031(19) 0.94816(12)
O3 O 0.17607(4) 0.00345(19) 0.62285(12)
O4 O 0.37908(5) 0.0043(2) 1.35390(12)
C1 C 0.05001(7) 0.8572(3) 0.71873(19)
H1 H 0.0793 0.9308 0.7320
H2 H 0.0237 0.9455 0.7304
H3 H 0.0474 0.8062 0.6387
C2 C 0.08445(6) 0.5586(3) 0.79460(17)
C3 C 0.08379(6) 0.4037(3) 0.87585(16)
C4 C 0.11842(6) 0.2610(3) 0.87977(16)
H4 H 0.1182 0.1576 0.9358
C5 C 0.15375(6) 0.2679(3) 0.80189(16)
C6 C 0.19318(6) 0.1227(3) 0.81451(17)
C7 C 0.22136(6) 0.1205(3) 0.91824(17)
H5 H 0.2137 0.2064 0.9795
C8 C 0.26061(6) -0.0025(3) 0.93669(17)
C9 C 0.29144(6) 0.0052(3) 1.04596(18)
C10 C 0.33147(6) -0.1120(3) 1.06133(18)
H6 H 0.3392 -0.1959 0.9992
C11 C 0.36048(6) -0.1115(3) 1.16333(17)
C12 C 0.40242(6) -0.2423(3) 1.17199(17)
C13 C 0.40707(7) -0.3881(3) 1.2522(2)
H7 H 0.3837 -0.4042 1.3061
C14 C 0.44534(8) -0.5162(4) 1.2581(2)
H8 H 0.4478 -0.6186 1.3149
C15 C 0.47947(8) -0.4925(4) 1.1808(2)
H9 H 0.5059 -0.5771 1.1845
C16 C 0.04473(7) 0.2526(3) 1.02941(19)
H10 H 0.0425 0.1263 0.9874
H11 H 0.0169 0.2709 1.0731
H12 H 0.0726 0.2520 1.0837
C17 C 0.15358(6) 0.4187(3) 0.72126(17)
H13 H 0.1771 0.4233 0.6673
C18 C 0.11925(6) 0.5650(3) 0.71781(17)
H14 H 0.1198 0.6693 0.6624
C19 C 0.26947(6) -0.1302(3) 0.84548(18)
H15 H 0.2953 -0.2180 0.8548
C20 C 0.24193(6) -0.1334(3) 0.74168(18)
H16 H 0.2490 -0.2231 0.6817
C21 C 0.20407(6) -0.0062(3) 0.72461(17)
C22 C 0.18857(7) -0.1223(3) 0.52957(18)
H17 H 0.2198 -0.0874 0.5074
H18 H 0.1661 -0.1049 0.4622
H19 H 0.1883 -0.2607 0.5552
C23 C 0.47489(7) -0.3447(3) 1.09769(19)
H20 H 0.4981 -0.3283 1.0436
C24 C 0.43654(7) -0.2202(3) 1.09286(18)
H21 H 0.4335 -0.1192 1.0353
C25 C 0.34962(6) 0.0128(3) 1.25492(18)
C26 C 0.31069(7) 0.1344(3) 1.24112(19)
H22 H 0.3033 0.2211 1.3023
C27 C 0.28252(6) 0.1296(3) 1.13815(18)
H23 H 0.2561 0.2145 1.1303
C28 C 0.36952(8) 0.1329(3) 1.44795(19)
H24 H 0.3703 0.2707 1.4214
H25 H 0.3931 0.1136 1.5127
H26 H 0.3386 0.1027 1.4743
loop_
_geom_bond_atom_site_label_1
_geom_bond_atom_site_label_2
_geom_bond_site_symmetry_1
_geom_bond_site_symmetry_2
O1 C1 1_555 1_555
O2 C3 1_555 1_555
O3 C21 1_555 1_555
O4 C25 1_555 1_555
C1 H1 1_555 1_555
H2 C1 1_555 1_555
H3 C1 1_555 1_555
C2 O1 1_555 1_555
C3 C2 1_555 1_555
C4 C3 1_555 1_555
H4 C4 1_555 1_555
C5 C4 1_555 1_555
C6 C5 1_555 1_555
C7 C6 1_555 1_555
H5 C7 1_555 1_555
C8 C7 1_555 1_555
C9 C8 1_555 1_555
C10 C9 1_555 1_555
H6 C10 1_555 1_555
C11 C10 1_555 1_555
C12 C11 1_555 1_555
C13 C12 1_555 1_555
H7 C13 1_555 1_555
C14 C13 1_555 1_555
H8 C14 1_555 1_555
C15 C14 1_555 1_555
H9 C15 1_555 1_555
C16 O2 1_555 1_555
H10 C16 1_555 1_555
H11 C16 1_555 1_555
H12 C16 1_555 1_555
C17 C5 1_555 1_555
H13 C17 1_555 1_555
C18 C2 1_555 1_555
H14 C18 1_555 1_555
C19 C8 1_555 1_555
H15 C19 1_555 1_555
C20 C19 1_555 1_555
H16 C20 1_555 1_555
C21 C6 1_555 1_555
C22 O3 1_555 1_555
H17 C22 1_555 1_555
H18 C22 1_555 1_555
H19 C22 1_555 1_555
C23 C15 1_555 1_555
H20 C23 1_555 1_555
C24 C12 1_555 1_555
H21 C24 1_555 1_555
C25 C11 1_555 1_555
C26 C25 1_555 1_555
H22 C26 1_555 1_555
C27 C9 1_555 1_555
H23 C27 1_555 1_555
C28 O4 1_555 1_555
H24 C28 1_555 1_555
H25 C28 1_555 1_555
H26 C28 1_555 1_555
C17 C18 1_555 1_555
C20 C21 1_555 1_555
C23 C24 1_555 1_555
C26 C27 1_555 1_555

#END
