
#######################################################################
#
#                 Cambridge Crystallographic Data Centre
#                                CCDC 
#
#######################################################################
#
# If this CIF has been generated from an entry in the Cambridge 
# Structural Database, then it will include bibliographic, chemical, 
# crystal, experimental, refinement or atomic coordinate data resulting 
# from the CCDC's data processing and validation procedures.
#
#######################################################################

data_ZEZQOM
_chemical_formula_moiety         'C12 H10 O6'
_chemical_name_systematic        
1,4-bis(2-Furyl)-2,3-dihydroxybutane-1,4-dione
_symmetry_cell_setting           orthorhombic
_symmetry_space_group_name_H-M   'P b c a'
_symmetry_Int_Tables_number      61
_space_group_name_Hall           '-P 2ac 2ab'
loop_
_symmetry_equiv_pos_site_id
_symmetry_equiv_pos_as_xyz
1 x,y,z
2 1/2-x,-y,1/2+z
3 -x,1/2+y,1/2-z
4 1/2+x,1/2-y,-z
5 -x,-y,-z
6 1/2+x,y,1/2-z
7 x,1/2-y,1/2+z
8 1/2-x,1/2+y,z
_cell_length_a                   14.1758(6)
_cell_length_b                   9.8084(4)
_cell_length_c                   16.2968(7)
_cell_angle_alpha                90
_cell_angle_beta                 90
_cell_angle_gamma                90
_cell_volume                     2265.94
_exptl_crystal_colour            colorless
_exptl_crystal_description       block
_cell_formula_units_Z            8
loop_
_atom_site_label
_atom_site_type_symbol
_atom_site_fract_x
_atom_site_fract_y
_atom_site_fract_z
O1 O -0.1365(3) -0.1845(3) 0.8207(2)
O2 O -0.0111(2) -0.1835(2) 0.69256(16)
O3 O 0.04429(16) 0.0318(2) 0.60908(14)
H1 H 0.0540 -0.0499 0.6024
O4 O -0.14207(19) -0.0360(3) 0.55484(15)
H2 H -0.1130 -0.0273 0.5116
O5 O -0.0885(2) 0.2018(3) 0.48462(16)
O6 O -0.0814(3) 0.4498(3) 0.5636(2)
C1 C -0.1917(5) -0.1425(8) 0.8856(3)
H3 H -0.2214 -0.2013 0.9222
C2 C -0.1968(4) -0.0133(7) 0.8891(3)
H4 H -0.2271 0.0372 0.9296
C3 C -0.1480(3) 0.0405(4) 0.8201(3)
H5 H -0.1422 0.1314 0.8047
C4 C -0.1122(3) -0.0685(3) 0.7821(2)
C5 C -0.0507(2) -0.0774(3) 0.7115(2)
C6 C -0.0346(2) 0.0495(3) 0.6596(2)
H6 H -0.0241 0.1278 0.6958
C7 C -0.1231(3) 0.0760(3) 0.6062(2)
H7 H -0.1772 0.0893 0.6427
C8 C -0.1079(2) 0.2066(4) 0.5573(2)
C9 C -0.1151(2) 0.3354(4) 0.6004(2)
C10 C -0.1512(3) 0.3599(6) 0.6748(2)
H8 H -0.1779 0.2992 0.7120
C11 C -0.1375(4) 0.5080(7) 0.6824(4)
H9 H -0.1546 0.5612 0.7273
C12 C -0.0982(6) 0.5508(6) 0.6170(5)
H10 H -0.0830 0.6416 0.6074
loop_
_geom_bond_atom_site_label_1
_geom_bond_atom_site_label_2
_geom_bond_site_symmetry_1
_geom_bond_site_symmetry_2
O1 C1 1_555 1_555
O2 C5 1_555 1_555
O3 H1 1_555 1_555
O4 H2 1_555 1_555
O5 C8 1_555 1_555
O6 C9 1_555 1_555
C1 H3 1_555 1_555
C2 C1 1_555 1_555
H4 C2 1_555 1_555
C3 C2 1_555 1_555
H5 C3 1_555 1_555
C4 O1 1_555 1_555
C5 C4 1_555 1_555
C6 O3 1_555 1_555
H6 C6 1_555 1_555
C7 O4 1_555 1_555
H7 C7 1_555 1_555
C8 C7 1_555 1_555
C9 C8 1_555 1_555
C10 C9 1_555 1_555
H8 C10 1_555 1_555
C11 C10 1_555 1_555
H9 C11 1_555 1_555
C12 O6 1_555 1_555
H10 C12 1_555 1_555
C3 C4 1_555 1_555
C5 C6 1_555 1_555
C6 C7 1_555 1_555
C11 C12 1_555 1_555

#END
