
#######################################################################
#
#                 Cambridge Crystallographic Data Centre
#                                CCDC 
#
#######################################################################
#
# If this CIF has been generated from an entry in the Cambridge 
# Structural Database, then it will include bibliographic, chemical, 
# crystal, experimental, refinement or atomic coordinate data resulting 
# from the CCDC's data processing and validation procedures.
#
#######################################################################

data_ZEZXUA
_chemical_formula_moiety         'C22 H22'
_chemical_name_systematic        
10b-phenyl-1,2,3,3a,4,5,6,10b-octahydrobenzo[e]-as-indacene
_symmetry_cell_setting           triclinic
_symmetry_space_group_name_H-M   'P -1'
_symmetry_Int_Tables_number      2
_space_group_name_Hall           '-P 1'
loop_
_symmetry_equiv_pos_site_id
_symmetry_equiv_pos_as_xyz
1 x,y,z
2 -x,-y,-z
_cell_length_a                   7.0395(2)
_cell_length_b                   9.8651(2)
_cell_length_c                   12.5122(3)
_cell_angle_alpha                68.2920(10)
_cell_angle_beta                 84.8480(10)
_cell_angle_gamma                75.6950(10)
_cell_volume                     782.26
_exptl_crystal_colour            colorless
_exptl_crystal_description       block
_cell_formula_units_Z            2
loop_
_atom_site_label
_atom_site_type_symbol
_atom_site_fract_x
_atom_site_fract_y
_atom_site_fract_z
C1 C 0.4839(3) -0.32139(17) 0.82757(15)
H1 H 0.4084 -0.3859 0.8828
H2 H 0.5930 -0.3837 0.8018
C2 C 0.5590(3) -0.22951(16) 0.88266(16)
H3 H 0.4959 -0.2365 0.9561
H4 H 0.6998 -0.2630 0.8940
C3 C 0.5042(2) -0.07198(15) 0.79637(13)
C4 C 0.3928(2) -0.06064(15) 0.71180(13)
C5 C 0.3549(2) -0.21029(17) 0.72534(16)
H5 H 0.3923 -0.2338 0.6565
H6 H 0.2177 -0.2110 0.7414
C6 C 0.5727(2) 0.05759(15) 0.80045(13)
H7 H 0.5792 0.0474 0.8811
C7 C 0.7798(2) 0.0626(2) 0.74613(17)
H8 H 0.8767 0.0349 0.8055
H9 H 0.8163 -0.0067 0.7054
C8 C 0.7695(2) 0.2207(2) 0.66414(18)
H10 H 0.7571 0.2284 0.5854
H11 H 0.8860 0.2532 0.6704
C9 C 0.5887(2) 0.31410(18) 0.70028(15)
H12 H 0.5396 0.4074 0.6374
H13 H 0.6171 0.3368 0.7654
C10 C 0.43902(19) 0.21394(14) 0.73328(11)
C11 C 0.27034(18) 0.26597(14) 0.80505(11)
C12 C 0.2062(2) 0.41579(16) 0.79289(13)
H14 H 0.2715 0.4852 0.7421
C13 C 0.0488(3) 0.46476(18) 0.85379(14)
H15 H 0.0103 0.5658 0.8440
C14 C -0.0519(2) 0.36513(19) 0.92890(14)
H16 H -0.1594 0.3981 0.9692
C15 C 0.0093(3) 0.2160(2) 0.94325(15)
H17 H -0.0567 0.1473 0.9943
C16 C 0.1686(2) 0.16676(17) 0.88237(14)
H18 H 0.2080 0.0653 0.8936
C17 C 0.34545(19) 0.21531(15) 0.62546(11)
C18 C 0.2722(2) 0.34922(16) 0.53700(12)
H19 H 0.2858 0.4384 0.5413
C19 C 0.1790(2) 0.35390(18) 0.44221(13)
H20 H 0.1327 0.4453 0.3837
C20 C 0.1551(2) 0.22351(19) 0.43469(13)
H21 H 0.0927 0.2265 0.3711
C21 C 0.2243(2) 0.08767(18) 0.52220(14)
H22 H 0.2074 -0.0003 0.5171
C22 C 0.31946(19) 0.08119(15) 0.61831(12)
loop_
_geom_bond_atom_site_label_1
_geom_bond_atom_site_label_2
_geom_bond_site_symmetry_1
_geom_bond_site_symmetry_2
C1 H1 1_555 1_555
H2 C1 1_555 1_555
C2 C1 1_555 1_555
H3 C2 1_555 1_555
H4 C2 1_555 1_555
C3 C2 1_555 1_555
C4 C3 1_555 1_555
C5 C1 1_555 1_555
H5 C5 1_555 1_555
H6 C5 1_555 1_555
C6 C3 1_555 1_555
H7 C6 1_555 1_555
C7 C6 1_555 1_555
H8 C7 1_555 1_555
H9 C7 1_555 1_555
C8 C7 1_555 1_555
H10 C8 1_555 1_555
H11 C8 1_555 1_555
C9 C8 1_555 1_555
H12 C9 1_555 1_555
H13 C9 1_555 1_555
C10 C6 1_555 1_555
C11 C10 1_555 1_555
C12 C11 1_555 1_555
H14 C12 1_555 1_555
C13 C12 1_555 1_555
H15 C13 1_555 1_555
C14 C13 1_555 1_555
H16 C14 1_555 1_555
C15 C14 1_555 1_555
H17 C15 1_555 1_555
C16 C11 1_555 1_555
H18 C16 1_555 1_555
C17 C10 1_555 1_555
C18 C17 1_555 1_555
H19 C18 1_555 1_555
C19 C18 1_555 1_555
H20 C19 1_555 1_555
C20 C19 1_555 1_555
H21 C20 1_555 1_555
C21 C20 1_555 1_555
H22 C21 1_555 1_555
C22 C4 1_555 1_555
C4 C5 1_555 1_555
C9 C10 1_555 1_555
C15 C16 1_555 1_555
C17 C22 1_555 1_555
C21 C22 1_555 1_555

#END
