
#######################################################################
#
#                 Cambridge Crystallographic Data Centre
#                                CCDC 
#
#######################################################################
#
# If this CIF has been generated from an entry in the Cambridge 
# Structural Database, then it will include bibliographic, chemical, 
# crystal, experimental, refinement or atomic coordinate data resulting 
# from the CCDC's data processing and validation procedures.
#
#######################################################################

data_ZIBCIW
_chemical_formula_moiety         'C18 H10 Br2'
_chemical_name_systematic        
3-Dibromomethylene-1,5-diphenylpenta-1,4-diyne
_symmetry_cell_setting           monoclinic
_symmetry_space_group_name_H-M   'P 21/c'
_symmetry_Int_Tables_number      14
_space_group_name_Hall           '-P 2ybc'
loop_
_symmetry_equiv_pos_site_id
_symmetry_equiv_pos_as_xyz
1 x,y,z
2 -x,1/2+y,1/2-z
3 -x,-y,-z
4 x,1/2-y,1/2+z
_cell_length_a                   4.206(2)
_cell_length_b                   10.325(2)
_cell_length_c                   35.072(7)
_cell_angle_alpha                90
_cell_angle_beta                 91.93(3)
_cell_angle_gamma                90
_cell_volume                     1522.21
_exptl_crystal_colour            colorless-orange
_chemical_melting_point          97-98deg.C
_cell_formula_units_Z            4
loop_
_atom_site_label
_atom_site_type_symbol
_atom_site_fract_x
_atom_site_fract_y
_atom_site_fract_z
Br1 Br 0.2106(3) 0.9622(1) 0.1398(1)
Br2 Br 0.2029(3) 0.8001(1) 0.0637(1)
C1 C -0.2530(22) 0.7581(10) 0.2436(2)
C2 C -0.1842(23) 0.7372(10) 0.2050(3)
C3 C -0.4397(24) 0.6730(11) 0.2635(3)
C4 C -0.1245(23) 0.7234(10) 0.1721(3)
C5 C -0.2242(25) 0.4978(12) 0.0968(3)
C6 C -0.5273(25) 0.4076(11) 0.0433(3)
C7 C -0.1396(25) 0.5942(12) 0.1131(3)
C8 C -0.1353(24) 0.8674(11) 0.2620(3)
C9 C -0.0512(22) 0.7117(10) 0.1327(3)
C10 C -0.3314(23) 0.3893(10) 0.0751(2)
C11 C -0.2367(27) 0.2632(11) 0.0851(3)
C12 C -0.5307(29) 0.1790(13) 0.0313(3)
C13 C -0.6254(29) 0.3032(13) 0.0213(3)
C14 C 0.0968(22) 0.8082(10) 0.1149(3)
C15 C -0.3839(32) 0.8039(17) 0.3196(3)
C16 C -0.5009(28) 0.6958(14) 0.3009(4)
C17 C -0.3414(29) 0.1612(12) 0.0628(3)
C18 C -0.1997(29) 0.8886(14) 0.2998(3)
H1 H -0.5165 0.5967 0.2506
H2 H -0.6037 0.4928 0.0370
H3 H -0.0034 0.9258 0.2483
H4 H -0.1076 0.2487 0.1078
H5 H -0.6077 0.1077 0.0160
H6 H -0.7502 0.3169 -0.0018
H7 H -0.4254 0.8185 0.3460
H8 H -0.6276 0.6358 0.3148
H9 H -0.2772 0.0747 0.0695
H10 H -0.1291 0.9663 0.3125
loop_
_geom_bond_atom_site_label_1
_geom_bond_atom_site_label_2
_geom_bond_site_symmetry_1
_geom_bond_site_symmetry_2
Br1 C14 1_555 1_555
Br2 C14 1_555 1_555
C1 C2 1_555 1_555
C2 C4 1_555 1_555
C3 C1 1_555 1_555
C4 C9 1_555 1_555
C5 C7 1_555 1_555
C6 C10 1_555 1_555
C7 C9 1_555 1_555
C8 C1 1_555 1_555
C9 C14 1_555 1_555
C10 C5 1_555 1_555
C11 C10 1_555 1_555
C12 C13 1_555 1_555
C13 C6 1_555 1_555
C15 C16 1_555 1_555
C16 C3 1_555 1_555
C17 C11 1_555 1_555
C18 C8 1_555 1_555
H1 C3 1_555 1_555
H2 C6 1_555 1_555
H3 C8 1_555 1_555
H4 C11 1_555 1_555
H5 C12 1_555 1_555
H6 C13 1_555 1_555
H7 C15 1_555 1_555
H8 C16 1_555 1_555
H9 C17 1_555 1_555
H10 C18 1_555 1_555
C12 C17 1_555 1_555
C15 C18 1_555 1_555

#END
