
#######################################################################
#
#                 Cambridge Crystallographic Data Centre
#                                CCDC 
#
#######################################################################
#
# If this CIF has been generated from an entry in the Cambridge 
# Structural Database, then it will include bibliographic, chemical, 
# crystal, experimental, refinement or atomic coordinate data resulting 
# from the CCDC's data processing and validation procedures.
#
#######################################################################

data_ZIBHEA
_chemical_formula_moiety         'C16 H23 N1 O2 S1'
_chemical_name_systematic        3-cyclohexyl-1-(phenylsulfonyl)pyrrolidine
_symmetry_cell_setting           monoclinic
_symmetry_space_group_name_H-M   'P 21'
_symmetry_Int_Tables_number      4
_space_group_name_Hall           'P 2yb'
loop_
_symmetry_equiv_pos_site_id
_symmetry_equiv_pos_as_xyz
1 x,y,z
2 -x,1/2+y,-z
_cell_length_a                   6.2251(2)
_cell_length_b                   21.6285(7)
_cell_length_c                   11.6428(4)
_cell_angle_alpha                90
_cell_angle_beta                 92.64
_cell_angle_gamma                90
_cell_volume                     1565.92
_cell_formula_units_Z            4
loop_
_atom_site_label
_atom_site_type_symbol
_atom_site_fract_x
_atom_site_fract_y
_atom_site_fract_z
S1 S 0.44827(15) 0.78176(4) 0.31550(8)
O1 O 0.6767(4) 0.77712(18) 0.3103(3)
O2 O 0.3202(5) 0.79540(17) 0.2130(3)
N1 N 0.3645(5) 0.71572(17) 0.3622(3)
C1 C 0.3942(6) 0.8386(2) 0.4181(4)
C2 C 0.3669(5) 0.5981(2) 0.5956(4)
C3 C 0.6017(6) 0.5830(2) 0.6294(4)
C4 C 0.1319(6) 0.7025(2) 0.3607(4)
C5 C 0.1112(6) 0.6510(2) 0.4462(4)
C6 C 0.2330(6) 0.5396(2) 0.6022(4)
C7 C 0.4716(6) 0.6867(2) 0.4635(4)
C8 C 0.3398(5) 0.62821(18) 0.4783(3)
C9 C 0.2580(7) 0.5067(3) 0.7168(4)
C10 C 0.1951(7) 0.8669(2) 0.4173(4)
C11 C 0.6266(7) 0.5514(3) 0.7460(4)
C12 C 0.4908(8) 0.4931(2) 0.7492(4)
C13 C 0.5528(8) 0.8543(3) 0.5002(4)
C14 C 0.1570(9) 0.9119(2) 0.4989(5)
C15 C 0.5147(10) 0.8994(3) 0.5793(5)
C16 C 0.3203(11) 0.9281(3) 0.5789(5)
H1 H 0.3150 0.6273 0.6524
H2 H 0.6593 0.5563 0.5714
H3 H 0.6847 0.6210 0.6313
H4 H 0.0793 0.6896 0.2847
H5 H 0.0519 0.7386 0.3833
H6 H 0.0251 0.6177 0.4127
H7 H 0.0425 0.6659 0.5140
H8 H 0.0827 0.5501 0.5878
H9 H 0.2737 0.5115 0.5420
H10 H 0.4665 0.7132 0.5305
H11 H 0.6203 0.6769 0.4497
H12 H 0.3809 0.5981 0.4203
H13 H 0.1980 0.5322 0.7759
H14 H 0.1781 0.4682 0.7129
H15 H 0.0880 0.8560 0.3627
H16 H 0.7765 0.5408 0.7618
H17 H 0.5833 0.5796 0.8054
H18 H 0.5453 0.4629 0.6962
H19 H 0.5018 0.4755 0.8258
H20 H 0.6851 0.8342 0.5016
H21 H 0.0233 0.9310 0.5002
H22 H 0.6222 0.9105 0.6336
H23 H 0.2963 0.9589 0.6325
S2 S 0.06431(16) 0.51985(4) 0.18374(8)
N2 N 0.1538(5) 0.58329(18) 0.1323(3)
O3 O 0.1994(5) 0.50464(18) 0.2825(3)
O4 O -0.1615(4) 0.52740(18) 0.1949(3)
C17 C 0.1566(10) 0.3721(3) -0.0832(5)
C18 C 0.1031(7) 0.4615(2) 0.0808(4)
C19 C 0.1200(6) 0.7105(2) -0.0817(4)
C20 C 0.2969(7) 0.4311(2) 0.0779(4)
C21 C 0.1976(5) 0.64938(19) -0.0294(3)
C22 C 0.3917(6) 0.6539(2) 0.0571(4)
C23 C -0.0654(7) 0.4479(3) 0.0013(4)
C24 C -0.0359(8) 0.4034(3) -0.0787(5)
C25 C -0.0652(6) 0.7011(2) -0.1700(4)
C26 C 0.3207(8) 0.3857(3) -0.0051(5)
C27 C 0.0287(7) 0.6162(2) 0.0394(4)
C28 C 0.3025(6) 0.7451(2) -0.1368(4)
C29 C -0.1401(7) 0.7607(3) -0.2279(5)
C30 C 0.3846(6) 0.5929(2) 0.1216(4)
C31 C 0.0436(8) 0.7941(3) -0.2817(4)
C32 C 0.2264(8) 0.8053(3) -0.1936(5)
H24 H 0.1747 0.3420 -0.1389
H25 H 0.0680 0.7364 -0.0197
H26 H 0.4093 0.4406 0.1302
H27 H 0.2370 0.6221 -0.0922
H28 H 0.5250 0.6581 0.0178
H29 H 0.3769 0.6886 0.1088
H30 H -0.1955 0.4690 0.0032
H31 H -0.1476 0.3939 -0.1315
H32 H -0.0203 0.6724 -0.2283
H33 H -0.1851 0.6825 -0.1323
H34 H 0.4500 0.3643 -0.0076
H35 H -0.0697 0.6457 0.0715
H36 H -0.0531 0.5872 -0.0088
H37 H 0.3644 0.7188 -0.1941
H38 H 0.4141 0.7542 -0.0784
H39 H -0.2505 0.7514 -0.2869
H40 H -0.2028 0.7874 -0.1715
H41 H 0.4478 0.5598 0.0783
H42 H 0.4589 0.5959 0.1965
H43 H -0.0071 0.8334 -0.3127
H44 H 0.0951 0.7696 -0.3445
H45 H 0.1790 0.8335 -0.1352
H46 H 0.3455 0.8245 -0.2310
loop_
_geom_bond_atom_site_label_1
_geom_bond_atom_site_label_2
_geom_bond_site_symmetry_1
_geom_bond_site_symmetry_2
S1 O1 1_555 1_555
O2 S1 1_555 1_555
N1 S1 1_555 1_555
C1 S1 1_555 1_555
C2 C3 1_555 1_555
C3 C11 1_555 1_555
C4 N1 1_555 1_555
C5 C4 1_555 1_555
C6 C2 1_555 1_555
C7 N1 1_555 1_555
C8 C2 1_555 1_555
C9 C6 1_555 1_555
C10 C1 1_555 1_555
C11 C12 1_555 1_555
C12 C9 1_555 1_555
C13 C1 1_555 1_555
C14 C10 1_555 1_555
C15 C13 1_555 1_555
C16 C14 1_555 1_555
H1 C2 1_555 1_555
H2 C3 1_555 1_555
H3 C3 1_555 1_555
H4 C4 1_555 1_555
H5 C4 1_555 1_555
H6 C5 1_555 1_555
H7 C5 1_555 1_555
H8 C6 1_555 1_555
H9 C6 1_555 1_555
H10 C7 1_555 1_555
H11 C7 1_555 1_555
H12 C8 1_555 1_555
H13 C9 1_555 1_555
H14 C9 1_555 1_555
H15 C10 1_555 1_555
H16 C11 1_555 1_555
H17 C11 1_555 1_555
H18 C12 1_555 1_555
H19 C12 1_555 1_555
H20 C13 1_555 1_555
H21 C14 1_555 1_555
H22 C15 1_555 1_555
H23 C16 1_555 1_555
S2 N2 1_555 1_555
N2 C27 1_555 1_555
O3 S2 1_555 1_555
O4 S2 1_555 1_555
C17 C24 1_555 1_555
C18 S2 1_555 1_555
C19 C21 1_555 1_555
C20 C18 1_555 1_555
C21 C22 1_555 1_555
C22 C30 1_555 1_555
C23 C18 1_555 1_555
C24 C23 1_555 1_555
C25 C19 1_555 1_555
C26 C17 1_555 1_555
C27 C21 1_555 1_555
C28 C19 1_555 1_555
C29 C25 1_555 1_555
C30 N2 1_555 1_555
C31 C29 1_555 1_555
C32 C28 1_555 1_555
H24 C17 1_555 1_555
H25 C19 1_555 1_555
H26 C20 1_555 1_555
H27 C21 1_555 1_555
H28 C22 1_555 1_555
H29 C22 1_555 1_555
H30 C23 1_555 1_555
H31 C24 1_555 1_555
H32 C25 1_555 1_555
H33 C25 1_555 1_555
H34 C26 1_555 1_555
H35 C27 1_555 1_555
H36 C27 1_555 1_555
H37 C28 1_555 1_555
H38 C28 1_555 1_555
H39 C29 1_555 1_555
H40 C29 1_555 1_555
H41 C30 1_555 1_555
H42 C30 1_555 1_555
H43 C31 1_555 1_555
H44 C31 1_555 1_555
H45 C32 1_555 1_555
H46 C32 1_555 1_555
C5 C8 1_555 1_555
C7 C8 1_555 1_555
C15 C16 1_555 1_555
C20 C26 1_555 1_555
C31 C32 1_555 1_555

#END
