
#######################################################################
#
#                 Cambridge Crystallographic Data Centre
#                                CCDC 
#
#######################################################################
#
# If this CIF has been generated from an entry in the Cambridge 
# Structural Database, then it will include bibliographic, chemical, 
# crystal, experimental, refinement or atomic coordinate data resulting 
# from the CCDC's data processing and validation procedures.
#
#######################################################################

data_ZIBHIE
_chemical_name_common            
'methyl 5-(4-chlorophenyl)-5-methyl-4,6-dioxo-1-phenyl-1,3a,4,5,6,6a-hexahydrocyclopenta[c]pyrrole-1-carboxylate'
_chemical_formula_moiety         'C22 H18 Cl1 N1 O4'
_chemical_name_systematic        
'(1R,3aS,5R,6aR)-methyl 5-(4-chlorophenyl)-5-methyl-4,6-dioxo-1-phenyl-1,3a,4,5,6,6a-hexahydrocyclopenta[c]pyrrole-1-carboxylate'
_symmetry_cell_setting           monoclinic
_symmetry_space_group_name_H-M   'P 21'
_symmetry_Int_Tables_number      4
_space_group_name_Hall           'P 2yb'
loop_
_symmetry_equiv_pos_site_id
_symmetry_equiv_pos_as_xyz
1 x,y,z
2 -x,1/2+y,-z
_cell_length_a                   8.26559(4)
_cell_length_b                   9.08589(3)
_cell_length_c                   12.87393(6)
_cell_angle_alpha                90
_cell_angle_beta                 103.1321(5)
_cell_angle_gamma                90
_cell_volume                     941.551
_exptl_crystal_colour            'light colorless'
_exptl_crystal_description       block
_chemical_melting_point          '440-442 K'
_cell_formula_units_Z            2
_exptl_crystal_recrystallization_method 'Hexanes/Ethy Acetate'
loop_
_atom_site_label
_atom_site_type_symbol
_atom_site_fract_x
_atom_site_fract_y
_atom_site_fract_z
Cl1 Cl 0.97910(6) 0.89337(5) 0.93685(3)
O1 O 0.54712(18) 0.32353(16) 0.62700(11)
O2 O 0.94604(16) 0.47362(15) 0.45194(11)
O3 O 0.67988(17) 0.24347(15) 0.38984(11)
O4 O 0.59911(19) 0.26377(16) 0.21182(11)
N1 N 0.3907(2) 0.44665(19) 0.32601(13)
C1 C 0.8056(2) 0.42422(19) 0.59536(14)
C2 C 0.6172(2) 0.4086(2) 0.58036(14)
C3 C 0.5339(2) 0.5220(2) 0.49792(15)
H1 H 0.513137 0.613963 0.532480
C4 C 0.3797(2) 0.4693(2) 0.42182(16)
H2 H 0.280978 0.454028 0.443411
C5 C 0.5649(2) 0.4744(2) 0.31709(15)
C6 C 0.6559(2) 0.5465(2) 0.42609(14)
H3 H 0.670406 0.652195 0.416100
C7 C 0.8203(2) 0.47887(19) 0.48546(14)
C8 C 0.9049(2) 0.2845(2) 0.62969(16)
H4 H 1.021352 0.305542 0.640738
H5 H 0.874521 0.211061 0.575121
H6 H 0.881353 0.248739 0.694873
C9 C 0.8524(2) 0.5466(2) 0.67940(14)
C10 C 0.8148(3) 0.5249(2) 0.77939(15)
H7 H 0.762885 0.438286 0.792555
C11 C 0.8538(3) 0.6307(2) 0.85858(15)
H8 H 0.828598 0.615719 0.924616
C12 C 0.9309(2) 0.7590(2) 0.83776(15)
C13 C 0.9687(2) 0.7844(2) 0.74001(16)
H9 H 1.019535 0.871746 0.727190
C14 C 0.9296(2) 0.6771(2) 0.66121(15)
H10 H 0.955372 0.692794 0.595435
C15 C 0.5698(2) 0.5712(2) 0.22117(15)
C16 C 0.7221(2) 0.6223(2) 0.20792(15)
H11 H 0.819388 0.591833 0.254621
C17 C 0.7306(3) 0.7191(2) 0.12513(17)
H12 H 0.833136 0.752358 0.116537
C18 C 0.5856(3) 0.7658(2) 0.05556(17)
H13 H 0.590565 0.830747 0.000557
C19 C 0.4337(3) 0.7149(3) 0.06867(16)
H14 H 0.336468 0.745871 0.022146
C20 C 0.4250(3) 0.6174(3) 0.15120(16)
H15 H 0.322445 0.583525 0.159276
C21 C 0.6257(2) 0.3155(2) 0.31049(15)
C22 C 0.6299(3) 0.1065(2) 0.20334(17)
H16 H 0.592925 0.075980 0.130394
H17 H 0.570300 0.052680 0.246918
H18 H 0.746671 0.087294 0.227141
loop_
_geom_bond_atom_site_label_1
_geom_bond_atom_site_label_2
_geom_bond_site_symmetry_1
_geom_bond_site_symmetry_2
Cl1 C12 1_555 1_555
O1 C2 1_555 1_555
O2 C7 1_555 1_555
O3 C21 1_555 1_555
O4 C21 1_555 1_555
N1 C4 1_555 1_555
C1 C2 1_555 1_555
C2 C3 1_555 1_555
C3 H1 1_555 1_555
C4 C3 1_555 1_555
H2 C4 1_555 1_555
C5 N1 1_555 1_555
C6 C3 1_555 1_555
H3 C6 1_555 1_555
C7 C1 1_555 1_555
C8 C1 1_555 1_555
H4 C8 1_555 1_555
H5 C8 1_555 1_555
H6 C8 1_555 1_555
C9 C1 1_555 1_555
C10 C9 1_555 1_555
H7 C10 1_555 1_555
C11 C10 1_555 1_555
H8 C11 1_555 1_555
C12 C11 1_555 1_555
C13 C12 1_555 1_555
H9 C13 1_555 1_555
C14 C9 1_555 1_555
H10 C14 1_555 1_555
C15 C5 1_555 1_555
C16 C15 1_555 1_555
H11 C16 1_555 1_555
C17 C16 1_555 1_555
H12 C17 1_555 1_555
C18 C17 1_555 1_555
H13 C18 1_555 1_555
C19 C18 1_555 1_555
H14 C19 1_555 1_555
C20 C15 1_555 1_555
H15 C20 1_555 1_555
C21 C5 1_555 1_555
C22 O4 1_555 1_555
H16 C22 1_555 1_555
H17 C22 1_555 1_555
H18 C22 1_555 1_555
C5 C6 1_555 1_555
C6 C7 1_555 1_555
C13 C14 1_555 1_555
C19 C20 1_555 1_555

#END
