
#######################################################################
#
#                 Cambridge Crystallographic Data Centre
#                                CCDC 
#
#######################################################################
#
# If this CIF has been generated from an entry in the Cambridge 
# Structural Database, then it will include bibliographic, chemical, 
# crystal, experimental, refinement or atomic coordinate data resulting 
# from the CCDC's data processing and validation procedures.
#
#######################################################################

data_ZIBRIO
_chemical_formula_moiety         'C26 H25 N3 O2'
_chemical_name_systematic        
N-t-butyl-6-methylidene-3-oxo-1-phenyl-5,6-dihydropyrrolo[2',1':3,4]pyrazino[1,2-a]indole-12b(3H)-carboxamide
_symmetry_cell_setting           monoclinic
_symmetry_space_group_name_H-M   'P 21/c'
_symmetry_Int_Tables_number      14
_space_group_name_Hall           '-P 2ybc'
loop_
_symmetry_equiv_pos_site_id
_symmetry_equiv_pos_as_xyz
1 x,y,z
2 -x,1/2+y,1/2-z
3 -x,-y,-z
4 x,1/2-y,1/2+z
_cell_length_a                   9.2285(3)
_cell_length_b                   12.1431(4)
_cell_length_c                   18.8326(5)
_cell_angle_alpha                90
_cell_angle_beta                 97.050(3)
_cell_angle_gamma                90
_cell_volume                     2094.47
_exptl_crystal_colour            colorless
_exptl_crystal_description       plate
_cell_formula_units_Z            4
loop_
_atom_site_label
_atom_site_type_symbol
_atom_site_fract_x
_atom_site_fract_y
_atom_site_fract_z
O1 O 0.25784(12) 0.19845(9) 0.14527(6)
O2 O 0.38357(13) 0.50615(10) -0.06889(6)
N1 N 0.08868(15) 0.20466(11) -0.01495(7)
N2 N 0.30742(14) 0.36222(11) -0.00312(7)
N3 N 0.45320(14) 0.31113(11) 0.13982(7)
C1 C -0.05077(18) 0.30109(13) 0.05379(8)
H1 H -0.0812 0.3532 0.0865
C2 C 0.21166(17) 0.46572(13) 0.08414(8)
C3 C 0.28062(17) 0.53252(13) 0.04283(8)
H2 H 0.2941 0.6093 0.0506
C4 C 0.31693(17) 0.27656(13) 0.11899(8)
C5 C -0.13985(18) 0.21841(13) 0.01552(8)
C6 C -0.05097(18) 0.15897(13) -0.02662(8)
C7 C 0.08540(17) 0.29052(13) 0.03426(8)
C8 C 0.33247(17) 0.47114(14) -0.01592(8)
C9 C -0.10830(19) 0.07450(14) -0.07223(8)
H3 H -0.0480 0.0341 -0.1003
C10 C 0.13354(17) 0.49989(13) 0.14400(8)
C11 C 0.21131(17) 0.18393(14) -0.05086(8)
C12 C 0.22693(17) 0.34707(12) 0.05868(8)
C13 C 0.2381(2) 0.08626(15) -0.07930(10)
H4 H 0.1728 0.0265 -0.0758
H5 H 0.3224 0.0766 -0.1030
C14 C -0.28920(18) 0.19348(14) 0.01174(9)
H6 H -0.3504 0.2330 0.0398
C15 C 0.0822(2) 0.60831(14) 0.14516(9)
H7 H 0.1002 0.6578 0.1082
C16 C 0.10457(19) 0.42926(14) 0.19902(9)
H8 H 0.1376 0.3551 0.1994
C17 C 0.3067(2) 0.28111(15) -0.05938(9)
H9 H 0.4079 0.2550 -0.0609
H10 H 0.2738 0.3169 -0.1058
C18 C 0.0055(2) 0.64442(15) 0.19950(10)
H11 H -0.0282 0.7183 0.1994
C19 C -0.34553(19) 0.11034(15) -0.03359(9)
H12 H -0.4464 0.0927 -0.0367
C20 C 0.0279(2) 0.46649(15) 0.25317(9)
H13 H 0.0096 0.4175 0.2904
C21 C -0.0225(2) 0.57373(15) 0.25390(9)
H14 H -0.0753 0.5985 0.2911
C22 C 0.54563(18) 0.26893(15) 0.20437(8)
C23 C 0.4679(2) 0.28741(18) 0.27055(9)
H15 H 0.4428 0.3655 0.2739
H16 H 0.5325 0.2656 0.3134
H17 H 0.3786 0.2430 0.2667
C24 C 0.5806(2) 0.14686(16) 0.19621(10)
H18 H 0.4898 0.1041 0.1917
H19 H 0.6450 0.1219 0.2384
H20 H 0.6292 0.1363 0.1533
C25 C -0.2556(2) 0.05182(14) -0.07503(9)
H21 H -0.2969 -0.0049 -0.1059
C26 C 0.6861(2) 0.33630(18) 0.21153(10)
H22 H 0.7376 0.3233 0.1698
H23 H 0.7486 0.3142 0.2550
H24 H 0.6624 0.4147 0.2144
H25 H 0.490(2) 0.3677(14) 0.1184(11)
loop_
_geom_bond_atom_site_label_1
_geom_bond_atom_site_label_2
_geom_bond_site_symmetry_1
_geom_bond_site_symmetry_2
O1 C4 1_555 1_555
O2 C8 1_555 1_555
N1 C6 1_555 1_555
N2 C8 1_555 1_555
N3 C4 1_555 1_555
C1 H1 1_555 1_555
C2 C3 1_555 1_555
C3 H2 1_555 1_555
C4 C12 1_555 1_555
C5 C1 1_555 1_555
C6 C5 1_555 1_555
C7 N1 1_555 1_555
C8 C3 1_555 1_555
C9 C6 1_555 1_555
H3 C9 1_555 1_555
C10 C2 1_555 1_555
C11 N1 1_555 1_555
C12 N2 1_555 1_555
C13 C11 1_555 1_555
H4 C13 1_555 1_555
H5 C13 1_555 1_555
C14 C5 1_555 1_555
H6 C14 1_555 1_555
C15 C10 1_555 1_555
H7 C15 1_555 1_555
C16 C10 1_555 1_555
H8 C16 1_555 1_555
C17 N2 1_555 1_555
H9 C17 1_555 1_555
H10 C17 1_555 1_555
C18 C15 1_555 1_555
H11 C18 1_555 1_555
C19 C14 1_555 1_555
H12 C19 1_555 1_555
C20 C16 1_555 1_555
H13 C20 1_555 1_555
C21 C18 1_555 1_555
H14 C21 1_555 1_555
C22 N3 1_555 1_555
C23 C22 1_555 1_555
H15 C23 1_555 1_555
H16 C23 1_555 1_555
H17 C23 1_555 1_555
C24 C22 1_555 1_555
H18 C24 1_555 1_555
H19 C24 1_555 1_555
H20 C24 1_555 1_555
C25 C9 1_555 1_555
H21 C25 1_555 1_555
C26 C22 1_555 1_555
H22 C26 1_555 1_555
H23 C26 1_555 1_555
H24 C26 1_555 1_555
H25 N3 1_555 1_555
C1 C7 1_555 1_555
C2 C12 1_555 1_555
C7 C12 1_555 1_555
C11 C17 1_555 1_555
C19 C25 1_555 1_555
C20 C21 1_555 1_555

#END
