
#######################################################################
#
#                 Cambridge Crystallographic Data Centre
#                                CCDC 
#
#######################################################################
#
# If this CIF has been generated from an entry in the Cambridge 
# Structural Database, then it will include bibliographic, chemical, 
# crystal, experimental, refinement or atomic coordinate data resulting 
# from the CCDC's data processing and validation procedures.
#
#######################################################################

data_ZIBTOV
_chemical_formula_moiety         'C14 H22 O3'
_chemical_name_systematic        
3,11-Dihydroxy-1,4,4-trimethyltricyclo[5.3.1.0^2,6^]undecan-9-one
_symmetry_cell_setting           orthorhombic
_symmetry_space_group_name_H-M   'P 21 21 21'
_symmetry_Int_Tables_number      19
_space_group_name_Hall           'P 2ac 2ab'
loop_
_symmetry_equiv_pos_site_id
_symmetry_equiv_pos_as_xyz
1 x,y,z
2 1/2+x,1/2-y,-z
3 -x,1/2+y,1/2-z
4 1/2-x,-y,1/2+z
_cell_length_a                   6.6167(1)
_cell_length_b                   12.7780(3)
_cell_length_c                   15.7523(4)
_cell_angle_alpha                90
_cell_angle_beta                 90
_cell_angle_gamma                90
_cell_volume                     1331.83
_exptl_crystal_colour            colorless
_exptl_crystal_description       needle
_cell_formula_units_Z            4
loop_
_atom_site_label
_atom_site_type_symbol
_atom_site_fract_x
_atom_site_fract_y
_atom_site_fract_z
O1 O 0.7910(3) 0.76510(13) 0.57178(11)
O2 O 1.0991(2) 0.31184(11) 0.56173(10)
O3 O 0.4834(2) 0.36945(10) 0.52202(10)
C1 C 0.7121(4) 0.68109(15) 0.55714(13)
C2 C 0.5270(4) 0.64575(16) 0.60464(15)
C3 C 0.5222(3) 0.52567(15) 0.61274(13)
C4 C 0.7148(3) 0.48667(14) 0.65773(12)
C5 C 0.6933(3) 0.38442(16) 0.70993(13)
C6 C 0.8890(3) 0.32381(17) 0.69320(14)
C7 C 0.9092(3) 0.34249(15) 0.59710(12)
C8 C 0.8668(3) 0.45945(14) 0.58447(12)
C9 C 0.7583(3) 0.49241(14) 0.50147(12)
C10 C 0.7902(4) 0.61118(15) 0.48713(13)
C11 C 0.5340(3) 0.47865(14) 0.52312(13)
C12 C 0.8700(5) 0.20710(18) 0.71362(19)
C13 C 1.0674(4) 0.3716(2) 0.74148(17)
C14 C 0.8307(4) 0.43505(16) 0.42206(13)
H1 H 1.079(4) 0.248(2) 0.5378(15)
H2 H 0.360(5) 0.3651(19) 0.5377(17)
H3 H 0.409(4) 0.6724(19) 0.5729(16)
H4 H 0.532(4) 0.6829(19) 0.6614(17)
H5 H 0.396(4) 0.5025(17) 0.6432(14)
H6 H 0.771(3) 0.5454(17) 0.6962(13)
H7 H 0.672(4) 0.3992(17) 0.7725(15)
H8 H 0.574(4) 0.3419(19) 0.6899(15)
H9 H 0.804(3) 0.2979(16) 0.5665(14)
H10 H 0.999(3) 0.5004(17) 0.5938(13)
H11 H 0.939(4) 0.6276(18) 0.4782(15)
H12 H 0.716(4) 0.6327(18) 0.4366(15)
H13 H 0.448(3) 0.5178(17) 0.4820(14)
H14 H 0.850(5) 0.196(2) 0.775(2)
H15 H 0.748(5) 0.174(2) 0.6829(19)
H16 H 1.005(5) 0.172(3) 0.695(2)
H17 H 1.197(5) 0.333(2) 0.719(2)
H18 H 1.063(5) 0.357(2) 0.800(2)
H19 H 1.087(5) 0.450(2) 0.7312(19)
H20 H 0.824(4) 0.354(2) 0.4282(16)
H21 H 0.749(4) 0.458(2) 0.3730(16)
H22 H 0.982(4) 0.451(2) 0.4088(16)
loop_
_geom_bond_atom_site_label_1
_geom_bond_atom_site_label_2
_geom_bond_site_symmetry_1
_geom_bond_site_symmetry_2
O1 C1 1_555 1_555
O2 C7 1_555 1_555
O3 C11 1_555 1_555
C1 C2 1_555 1_555
C2 C3 1_555 1_555
C3 C4 1_555 1_555
C4 C5 1_555 1_555
C5 C6 1_555 1_555
C6 C7 1_555 1_555
C7 C8 1_555 1_555
C8 C4 1_555 1_555
C9 C8 1_555 1_555
C10 C1 1_555 1_555
C11 C3 1_555 1_555
C12 C6 1_555 1_555
C13 C6 1_555 1_555
C14 C9 1_555 1_555
H1 O2 1_555 1_555
H2 O3 1_555 1_555
H3 C2 1_555 1_555
H4 C2 1_555 1_555
H5 C3 1_555 1_555
H6 C4 1_555 1_555
H7 C5 1_555 1_555
H8 C5 1_555 1_555
H9 C7 1_555 1_555
H10 C8 1_555 1_555
H11 C10 1_555 1_555
H12 C10 1_555 1_555
H13 C11 1_555 1_555
H14 C12 1_555 1_555
H15 C12 1_555 1_555
H16 C12 1_555 1_555
H17 C13 1_555 1_555
H18 C13 1_555 1_555
H19 C13 1_555 1_555
H20 C14 1_555 1_555
H21 C14 1_555 1_555
H22 C14 1_555 1_555
C9 C10 1_555 1_555
C9 C11 1_555 1_555

#END
