
#######################################################################
#
#                 Cambridge Crystallographic Data Centre
#                                CCDC 
#
#######################################################################
#
# If this CIF has been generated from an entry in the Cambridge 
# Structural Database, then it will include bibliographic, chemical, 
# crystal, experimental, refinement or atomic coordinate data resulting 
# from the CCDC's data processing and validation procedures.
#
#######################################################################

data_ZICLOP
_chemical_formula_moiety         'C17 H21 F6 N3 O4 S2'
_chemical_name_systematic        
'[(trifluoromethyl)sulfonyl]{[2,3,5-trifluoro-6-(piperidin-1-ium-1-yl)-4-(piperidin-1-yl)phenyl]sulfonyl}amide'
_symmetry_cell_setting           triclinic
_symmetry_space_group_name_H-M   'P -1'
_symmetry_Int_Tables_number      2
_space_group_name_Hall           '-P 1'
loop_
_symmetry_equiv_pos_site_id
_symmetry_equiv_pos_as_xyz
1 x,y,z
2 -x,-y,-z
_cell_length_a                   8.1529(9)
_cell_length_b                   11.0518(12)
_cell_length_c                   12.5361(14)
_cell_angle_alpha                99.4303(16)
_cell_angle_beta                 94.0750(16)
_cell_angle_gamma                110.5628(15)
_cell_volume                     1033.13
_exptl_crystal_colour            colorless
_exptl_crystal_description       needle
_cell_formula_units_Z            2
loop_
_atom_site_label
_atom_site_type_symbol
_atom_site_fract_x
_atom_site_fract_y
_atom_site_fract_z
S1 S 0.63513(3) 0.65075(2) 0.40915(2)
S2 S 0.72239(3) 0.78152(2) 0.23688(2)
F1 F -0.03764(9) 0.50533(7) 0.28530(6)
F2 F 0.54756(9) 0.38159(7) 0.28340(6)
F3 F 0.25124(10) 0.21402(7) 0.16811(6)
F4 F 0.49523(9) 0.56466(7) 0.11010(6)
F5 F 0.76603(10) 0.60872(8) 0.08132(7)
F6 F 0.61976(11) 0.72143(8) 0.02628(6)
O1 O 0.60681(10) 0.76077(8) 0.47520(7)
O2 O 0.71280(11) 0.57819(9) 0.46724(7)
O3 O 0.57753(11) 0.82523(8) 0.25351(7)
O4 O 0.88798(11) 0.87400(8) 0.21983(7)
N1 N -0.05409(16) 0.27895(10) 0.14404(10)
N2 N 0.26835(11) 0.69514(8) 0.40156(7)
H1 H 0.3808(17) 0.7383(14) 0.4281(12)
N3 N 0.75503(12) 0.69406(9) 0.31720(8)
C1 C 0.09617(15) 0.35759(10) 0.21335(9)
C2 C 0.11206(14) 0.47967(10) 0.27833(9)
C3 C 0.26832(13) 0.57116(10) 0.33776(8)
C4 C 0.42213(13) 0.54094(10) 0.34179(8)
C5 C 0.40563(14) 0.41638(10) 0.28559(9)
C6 C 0.24969(15) 0.32805(10) 0.22428(9)
C7 C 0.64701(15) 0.66201(11) 0.10626(9)
C8 C -0.16227(19) 0.33606(12) 0.08587(11)
H2 H -0.0981 0.4324 0.0950
H3 H -0.2743 0.3215 0.1170
C9 C -0.20223(15) 0.27227(11) -0.03476(10)
H4 H -0.0908 0.2952 -0.0673
H5 H -0.2814 0.3071 -0.0726
C10 C -0.29003(18) 0.12273(12) -0.05145(10)
H6 H -0.3093 0.0830 -0.1302
H7 H -0.4066 0.0991 -0.0250
C11 C -0.17276(18) 0.06867(11) 0.01085(10)
H8 H -0.2338 -0.0277 0.0035
H9 H -0.0612 0.0842 -0.0210
C12 C -0.13084(15) 0.13476(10) 0.13111(9)
H10 H -0.2405 0.1095 0.1653
H11 H -0.0464 0.1041 0.1686
C13 C 0.20606(14) 0.77826(10) 0.33539(9)
H12 H 0.0773 0.7349 0.3105
H13 H 0.2678 0.7879 0.2703
C14 C 0.24639(15) 0.91327(10) 0.40712(10)
H14 H 0.2032 0.9675 0.3655
H15 H 0.3760 0.9584 0.4273
C15 C 0.15882(17) 0.90183(11) 0.51101(10)
H16 H 0.1953 0.9904 0.5585
H17 H 0.0286 0.8674 0.4914
C16 C 0.21101(16) 0.80989(11) 0.57308(9)
H18 H 0.3388 0.8508 0.6014
H19 H 0.1449 0.7983 0.6363
C17 C 0.17270(14) 0.67530(10) 0.50097(9)
H20 H 0.2143 0.6200 0.5422
H21 H 0.0438 0.6300 0.4776
loop_
_geom_bond_atom_site_label_1
_geom_bond_atom_site_label_2
_geom_bond_site_symmetry_1
_geom_bond_site_symmetry_2
S1 O1 1_555 1_555
S2 O3 1_555 1_555
F1 C2 1_555 1_555
F2 C5 1_555 1_555
F3 C6 1_555 1_555
F4 C7 1_555 1_555
F5 C7 1_555 1_555
F6 C7 1_555 1_555
O2 S1 1_555 1_555
O4 S2 1_555 1_555
N1 C1 1_555 1_555
N2 H1 1_555 1_555
N3 S1 1_555 1_555
C1 C2 1_555 1_555
C2 C3 1_555 1_555
C3 N2 1_555 1_555
C4 S1 1_555 1_555
C5 C4 1_555 1_555
C6 C1 1_555 1_555
C7 S2 1_555 1_555
C8 N1 1_555 1_555
H2 C8 1_555 1_555
H3 C8 1_555 1_555
C9 C8 1_555 1_555
H4 C9 1_555 1_555
H5 C9 1_555 1_555
C10 C9 1_555 1_555
H6 C10 1_555 1_555
H7 C10 1_555 1_555
C11 C10 1_555 1_555
H8 C11 1_555 1_555
H9 C11 1_555 1_555
C12 N1 1_555 1_555
H10 C12 1_555 1_555
H11 C12 1_555 1_555
C13 N2 1_555 1_555
H12 C13 1_555 1_555
H13 C13 1_555 1_555
C14 C13 1_555 1_555
H14 C14 1_555 1_555
H15 C14 1_555 1_555
C15 C14 1_555 1_555
H16 C15 1_555 1_555
H17 C15 1_555 1_555
C16 C15 1_555 1_555
H18 C16 1_555 1_555
H19 C16 1_555 1_555
C17 N2 1_555 1_555
H20 C17 1_555 1_555
H21 C17 1_555 1_555
S2 N3 1_555 1_555
C3 C4 1_555 1_555
C5 C6 1_555 1_555
C11 C12 1_555 1_555
C16 C17 1_555 1_555

#END
