
#######################################################################
#
#                 Cambridge Crystallographic Data Centre
#                                CCDC 
#
#######################################################################
#
# If this CIF has been generated from an entry in the Cambridge 
# Structural Database, then it will include bibliographic, chemical, 
# crystal, experimental, refinement or atomic coordinate data resulting 
# from the CCDC's data processing and validation procedures.
#
#######################################################################

data_ZIDLUV
_chemical_formula_moiety         'C15 H13 N4 1+,3(C2 H6 O1 S1),I1 1-'
_chemical_name_systematic        
'1,3-Dimethyl-1H-imidazo[4,5-f][1,10]phenanthrolin-3-ium iodide dimethyl sulfoxide solvate'
_symmetry_cell_setting           triclinic
_symmetry_space_group_name_H-M   'P -1'
_symmetry_Int_Tables_number      2
_space_group_name_Hall           '-P 1'
loop_
_symmetry_equiv_pos_site_id
_symmetry_equiv_pos_as_xyz
1 x,y,z
2 -x,-y,-z
_cell_length_a                   7.0234(3)
_cell_length_b                   11.5161(7)
_cell_length_c                   16.6952(13)
_cell_angle_alpha                84.670(3)
_cell_angle_beta                 85.169(4)
_cell_angle_gamma                81.571(4)
_cell_volume                     1326.56
_exptl_crystal_colour            'light yellow'
_exptl_crystal_description       Needle
_cell_formula_units_Z            2
loop_
_atom_site_label
_atom_site_type_symbol
_atom_site_fract_x
_atom_site_fract_y
_atom_site_fract_z
I1 I 0.75868(8) 0.73042(5) 0.61058(4)
S1 S 0.2327(3) 0.69815(19) 0.40170(14)
O1 O 0.3899(10) 0.6601(5) 0.3392(4)
C1 C 0.0279(13) 0.6353(9) 0.3804(6)
H1 H -0.0220 0.6737 0.3315
H2 H -0.0695 0.6455 0.4241
H3 H 0.0647 0.5528 0.3743
C2 C 0.2835(14) 0.6106(10) 0.4906(6)
H4 H 0.3947 0.6326 0.5119
H5 H 0.3088 0.5293 0.4794
H6 H 0.1749 0.6219 0.5294
S2 S 0.7839(4) 0.9644(2) 0.35120(17)
O2 O 0.7246(10) 1.0295(5) 0.2738(4)
C3 C 0.7958(16) 1.0711(10) 0.4192(7)
H7 H 0.9056 1.1109 0.4034
H8 H 0.8080 1.0332 0.4726
H9 H 0.6803 1.1271 0.4186
C4 C 0.5744(17) 0.9130(10) 0.3985(6)
H10 H 0.5417 0.8516 0.3693
H11 H 0.4697 0.9768 0.3990
H12 H 0.5978 0.8828 0.4528
S3 S 0.2847(5) 0.9996(3) 0.1392(2)
O3 O 0.180(2) 0.9592(9) 0.0827(6)
C5 C 0.2580(19) 0.9065(10) 0.2273(8)
H13 H 0.3211 0.8286 0.2182
H14 H 0.1233 0.9042 0.2416
H15 H 0.3150 0.9358 0.2703
C6 C 0.1628(18) 1.1262(8) 0.1764(7)
H16 H 0.1626 1.1900 0.1351
H17 H 0.2255 1.1445 0.2217
H18 H 0.0323 1.1148 0.1933
N1 N 0.6979(8) 0.2759(5) 0.1112(3)
N2 N 0.6965(8) 0.3917(5) 0.2078(3)
C7 C 0.6839(10) 0.2824(6) 0.1887(5)
H19 H 0.6673 0.2193 0.2264
C8 C 0.7205(8) 0.4603(6) 0.1348(4)
C9 C 0.7216(8) 0.3868(5) 0.0746(4)
C10 C 0.7406(8) 0.5820(6) 0.1208(4)
C11 C 0.7425(8) 0.4271(6) -0.0088(4)
C12 C 0.7666(8) 0.6241(6) 0.0386(4)
C13 C 0.7648(8) 0.5476(5) -0.0271(4)
N3 N 0.7836(7) 0.5964(5) -0.1027(4)
C14 C 0.7762(9) 0.5303(7) -0.1626(5)
H20 H 0.7862 0.5651 -0.2151
C15 C 0.7542(10) 0.4113(6) -0.1518(4)
H21 H 0.7513 0.3681 -0.1960
C16 C 0.7372(9) 0.3595(6) -0.0749(4)
H22 H 0.7222 0.2804 -0.0661
N4 N 0.7909(8) 0.7378(5) 0.0158(4)
C17 C 0.6945(13) 0.1663(6) 0.0741(5)
H23 H 0.6801 0.1039 0.1155
H24 H 0.8131 0.1473 0.0420
H25 H 0.5882 0.1756 0.0404
C18 C 0.6907(12) 0.4235(7) 0.2908(5)
H26 H 0.6697 0.3564 0.3274
H27 H 0.5875 0.4865 0.2995
H28 H 0.8110 0.4484 0.3000
C19 C 0.7583(11) 0.7771(7) 0.1546(5)
H29 H 0.7541 0.8320 0.1924
C20 C 0.7895(11) 0.8093(6) 0.0733(5)
H30 H 0.8110 0.8863 0.0581
C21 C 0.7335(10) 0.6628(6) 0.1786(5)
H31 H 0.7120 0.6394 0.2330
loop_
_geom_bond_atom_site_label_1
_geom_bond_atom_site_label_2
_geom_bond_site_symmetry_1
_geom_bond_site_symmetry_2
S1 O1 1_555 1_555
C1 S1 1_555 1_555
H1 C1 1_555 1_555
H2 C1 1_555 1_555
H3 C1 1_555 1_555
C2 S1 1_555 1_555
H4 C2 1_555 1_555
H5 C2 1_555 1_555
H6 C2 1_555 1_555
S2 O2 1_555 1_555
C3 S2 1_555 1_555
H7 C3 1_555 1_555
H8 C3 1_555 1_555
H9 C3 1_555 1_555
C4 S2 1_555 1_555
H10 C4 1_555 1_555
H11 C4 1_555 1_555
H12 C4 1_555 1_555
S3 O3 1_555 1_555
C5 S3 1_555 1_555
H13 C5 1_555 1_555
H14 C5 1_555 1_555
H15 C5 1_555 1_555
C6 S3 1_555 1_555
H16 C6 1_555 1_555
H17 C6 1_555 1_555
H18 C6 1_555 1_555
N1 C7 1_555 1_555
N2 C7 1_555 1_555
C7 H19 1_555 1_555
C8 N2 1_555 1_555
C9 N1 1_555 1_555
C10 C8 1_555 1_555
C11 C9 1_555 1_555
C12 C10 1_555 1_555
C13 C11 1_555 1_555
N3 C13 1_555 1_555
C14 N3 1_555 1_555
H20 C14 1_555 1_555
C15 C14 1_555 1_555
H21 C15 1_555 1_555
C16 C11 1_555 1_555
H22 C16 1_555 1_555
N4 C12 1_555 1_555
C17 N1 1_555 1_555
H23 C17 1_555 1_555
H24 C17 1_555 1_555
H25 C17 1_555 1_555
C18 N2 1_555 1_555
H26 C18 1_555 1_555
H27 C18 1_555 1_555
H28 C18 1_555 1_555
C19 H29 1_555 1_555
C20 N4 1_555 1_555
H30 C20 1_555 1_555
C21 C10 1_555 1_555
H31 C21 1_555 1_555
C8 C9 1_555 1_555
C12 C13 1_555 1_555
C15 C16 1_555 1_555
C19 C20 1_555 1_555
C19 C21 1_555 1_555

#END
