
#######################################################################
#
#                 Cambridge Crystallographic Data Centre
#                                CCDC 
#
#######################################################################
#
# If this CIF has been generated from an entry in the Cambridge 
# Structural Database, then it will include bibliographic, chemical, 
# crystal, experimental, refinement or atomic coordinate data resulting 
# from the CCDC's data processing and validation procedures.
#
#######################################################################

data_ZIFBUO
_chemical_formula_moiety         'C18 H21 B1 Br1 N1 O4'
_chemical_name_systematic        
2-[4-bromo-4-(4,4,5,5-tetramethyl-1,3,2-dioxaborolan-2-yl)but-3-en-1-yl]-1H-isoindole-1,3(2H)-dione
_symmetry_cell_setting           monoclinic
_symmetry_space_group_name_H-M   'P 21/n'
_symmetry_Int_Tables_number      14
_space_group_name_Hall           '-P 2yn'
loop_
_symmetry_equiv_pos_site_id
_symmetry_equiv_pos_as_xyz
1 x,y,z
2 1/2-x,1/2+y,1/2-z
3 -x,-y,-z
4 1/2+x,1/2-y,1/2+z
_cell_length_a                   6.9737(3)
_cell_length_b                   23.8115(9)
_cell_length_c                   11.0278(5)
_cell_angle_alpha                90
_cell_angle_beta                 98.529(4)
_cell_angle_gamma                90
_cell_volume                     1810.96
_exptl_crystal_colour            colorless
_exptl_crystal_description       needle
_cell_formula_units_Z            4
loop_
_atom_site_label
_atom_site_type_symbol
_atom_site_fract_x
_atom_site_fract_y
_atom_site_fract_z
Br1 Br 0.58773(3) 0.40356(2) -0.03969(2)
O1 O 0.79514(18) 0.30123(5) 0.12732(12)
O2 O 0.1195(2) 0.55787(6) 0.20618(13)
O3 O 0.54437(18) 0.28066(5) 0.23181(13)
O4 O 0.1426(2) 0.38728(6) 0.39659(14)
N1 N 0.1248(2) 0.46580(6) 0.27216(15)
C1 C 0.3212(3) 0.37933(8) 0.12238(17)
H1 H 0.280874 0.357923 0.186784
C2 C 0.4881(3) 0.36388(8) 0.08877(17)
C3 C 0.1529(3) 0.52355(8) 0.28751(18)
C4 C 0.1632(3) 0.43703(8) 0.38403(18)
C5 C 0.0392(3) 0.44047(8) 0.15640(18)
H2 H -0.056880 0.466865 0.112683
H3 H -0.030862 0.405921 0.173818
C6 C 0.2253(3) 0.53242(8) 0.41983(18)
C7 C 0.2300(3) 0.48074(8) 0.47803(18)
C8 C 0.1873(3) 0.42572(8) 0.07318(18)
H4 H 0.118003 0.414515 -0.008113
H5 H 0.265029 0.459559 0.061505
C9 C 0.7047(3) 0.24425(8) 0.28553(19)
C10 C 0.2795(3) 0.58116(9) 0.4827(2)
H6 H 0.275033 0.616447 0.442178
C11 C 0.8468(3) 0.24718(8) 0.18873(18)
C12 C 0.2885(3) 0.47590(9) 0.60288(19)
H7 H 0.290555 0.440625 0.643272
C13 C 1.0591(3) 0.24850(9) 0.2414(2)
H8 H 1.137060 0.250681 0.174572
H9 H 1.092841 0.214273 0.289229
H10 H 1.085439 0.281387 0.294716
C14 C 0.3447(3) 0.52533(10) 0.6671(2)
H11 H 0.386332 0.523624 0.753076
C15 C 0.3409(3) 0.57656(10) 0.6080(2)
H12 H 0.381088 0.609322 0.654033
C16 C 0.7892(3) 0.27017(9) 0.40746(19)
H13 H 0.845823 0.306815 0.393253
H14 H 0.889999 0.245432 0.449636
H15 H 0.686366 0.274991 0.458255
C17 C 0.6216(3) 0.18669(9) 0.3045(3)
H16 H 0.536832 0.188890 0.367732
H17 H 0.727540 0.160308 0.330608
H18 H 0.546596 0.173625 0.227455
B1 B 0.6137(3) 0.31440(9) 0.1487(2)
C18 C 0.8093(3) 0.20258(9) 0.0897(2)
H19 H 0.670350 0.201282 0.058117
H20 H 0.851355 0.165915 0.124225
H21 H 0.881833 0.211745 0.022663
loop_
_geom_bond_atom_site_label_1
_geom_bond_atom_site_label_2
_geom_bond_site_symmetry_1
_geom_bond_site_symmetry_2
Br1 C2 1_555 1_555
O1 C11 1_555 1_555
O2 C3 1_555 1_555
O3 C9 1_555 1_555
O4 C4 1_555 1_555
N1 C3 1_555 1_555
C1 H1 1_555 1_555
C2 C1 1_555 1_555
C3 C6 1_555 1_555
C4 N1 1_555 1_555
C5 N1 1_555 1_555
H2 C5 1_555 1_555
H3 C5 1_555 1_555
C6 C7 1_555 1_555
C7 C4 1_555 1_555
C8 C1 1_555 1_555
H4 C8 1_555 1_555
H5 C8 1_555 1_555
C9 C11 1_555 1_555
C10 C6 1_555 1_555
H6 C10 1_555 1_555
C11 C13 1_555 1_555
C12 C7 1_555 1_555
H7 C12 1_555 1_555
C13 H8 1_555 1_555
H9 C13 1_555 1_555
H10 C13 1_555 1_555
C14 C12 1_555 1_555
H11 C14 1_555 1_555
C15 C10 1_555 1_555
H12 C15 1_555 1_555
C16 C9 1_555 1_555
H13 C16 1_555 1_555
H14 C16 1_555 1_555
H15 C16 1_555 1_555
C17 C9 1_555 1_555
H16 C17 1_555 1_555
H17 C17 1_555 1_555
H18 C17 1_555 1_555
B1 O1 1_555 1_555
C18 C11 1_555 1_555
H19 C18 1_555 1_555
H20 C18 1_555 1_555
H21 C18 1_555 1_555
O3 B1 1_555 1_555
C2 B1 1_555 1_555
C5 C8 1_555 1_555
C14 C15 1_555 1_555

#END
