
#######################################################################
#
#                 Cambridge Crystallographic Data Centre
#                                CCDC 
#
#######################################################################
#
# If this CIF has been generated from an entry in the Cambridge 
# Structural Database, then it will include bibliographic, chemical, 
# crystal, experimental, refinement or atomic coordinate data resulting 
# from the CCDC's data processing and validation procedures.
#
#######################################################################

data_ZIFHEE
_chemical_formula_moiety         'C36 H28 N1 O2 P1'
_chemical_name_systematic        
N-(diphenylmethyl)-N-(prop-2-en-1-yl)-4H-dinaphtho[2,1-d:1',2'-f][1,3,2]dioxaphosphepin-4-amine
_symmetry_cell_setting           orthorhombic
_symmetry_space_group_name_H-M   'P 21 21 21'
_symmetry_Int_Tables_number      19
_space_group_name_Hall           'P 2ac 2ab'
loop_
_symmetry_equiv_pos_site_id
_symmetry_equiv_pos_as_xyz
1 x,y,z
2 1/2-x,-y,1/2+z
3 -x,1/2+y,1/2-z
4 1/2+x,1/2-y,-z
_cell_length_a                   8.6088(3)
_cell_length_b                   12.0711(4)
_cell_length_c                   26.8632(8)
_cell_angle_alpha                90
_cell_angle_beta                 90
_cell_angle_gamma                90
_cell_volume                     2791.56
_exptl_crystal_colour            colorless
_exptl_crystal_description       prismatic
_cell_formula_units_Z            4
loop_
_atom_site_label
_atom_site_type_symbol
_atom_site_fract_x
_atom_site_fract_y
_atom_site_fract_z
P1 P 0.55694(8) 0.63614(6) 0.58705(3)
O1 O 0.6061(2) 0.76186(15) 0.56731(6)
O2 O 0.5581(2) 0.66449(14) 0.64818(6)
N1 N 0.3659(2) 0.62704(19) 0.58066(8)
C1 C 0.2542(3) 0.7087(2) 0.60086(10)
H1 H 0.3122 0.7704 0.6165
H2 H 0.1904 0.6729 0.6270
C2 C 0.1497(3) 0.7540(2) 0.56120(11)
H3 H 0.1956 0.7947 0.5348
C3 C -0.0009(4) 0.7406(3) 0.56087(12)
H4 H -0.0500 0.7002 0.5868
H5 H -0.0613 0.7713 0.5347
C4 C 0.2889(3) 0.5308(2) 0.55729(10)
H6 H 0.2198 0.5610 0.5306
C5 C 0.1837(3) 0.4701(2) 0.59397(10)
C6 C 0.2261(3) 0.4498(2) 0.64311(11)
H7 H 0.3224 0.4770 0.6553
C7 C 0.1293(4) 0.3905(3) 0.67428(12)
H8 H 0.1603 0.3761 0.7076
C8 C -0.0116(4) 0.3520(3) 0.65737(13)
H9 H -0.0772 0.3101 0.6787
C9 C -0.0566(4) 0.3747(3) 0.60930(13)
H10 H -0.1549 0.3499 0.5977
C10 C 0.0404(4) 0.4334(3) 0.57777(12)
H11 H 0.0080 0.4486 0.5447
C11 C 0.4023(3) 0.4524(2) 0.53164(10)
C12 C 0.4249(4) 0.4618(3) 0.48080(11)
H12 H 0.3698 0.5164 0.4624
C13 C 0.5283(5) 0.3914(3) 0.45657(13)
H13 H 0.5445 0.3992 0.4218
C14 C 0.6069(4) 0.3112(3) 0.48227(14)
H14 H 0.6768 0.2634 0.4653
C15 C 0.5843(4) 0.2998(3) 0.53266(13)
H15 H 0.6381 0.2440 0.5507
C16 C 0.4824(3) 0.3705(2) 0.55703(11)
H16 H 0.4673 0.3626 0.5919
C17 C 0.7005(3) 0.7021(2) 0.66641(10)
C18 C 0.8000(4) 0.6262(3) 0.68945(10)
H17 H 0.7706 0.5507 0.6927
C19 C 0.9396(4) 0.6619(3) 0.70718(10)
H18 H 1.0064 0.6111 0.7236
C20 C 0.9864(3) 0.7728(3) 0.70151(10)
C21 C 1.1371(4) 0.8095(3) 0.71703(12)
H19 H 1.2052 0.7592 0.7333
C22 C 1.1839(4) 0.9156(3) 0.70876(13)
H20 H 1.2836 0.9391 0.7197
C23 C 1.0863(4) 0.9901(3) 0.68438(12)
H21 H 1.1206 1.0637 0.6782
C24 C 0.9415(4) 0.9580(3) 0.66926(11)
H22 H 0.8765 1.0098 0.6527
C25 C 0.8863(3) 0.8489(3) 0.67781(10)
C26 C 0.7360(3) 0.8123(2) 0.66158(10)
C27 C 0.6252(3) 0.8881(2) 0.63631(10)
C28 C 0.5720(3) 0.9883(2) 0.65925(10)
C29 C 0.6047(3) 1.0145(2) 0.70975(11)
H23 H 0.6674 0.9658 0.7290
C30 C 0.5473(4) 1.1088(2) 0.73108(12)
H24 H 0.5700 1.1247 0.7649
C31 C 0.4554(4) 1.1821(3) 0.70347(14)
H25 H 0.4175 1.2480 0.7185
C32 C 0.4200(4) 1.1593(3) 0.65515(14)
H26 H 0.3569 1.2093 0.6368
C33 C 0.4761(3) 1.0619(2) 0.63189(11)
C34 C 0.4332(4) 1.0339(2) 0.58254(12)
H27 H 0.3735 1.0845 0.5634
C35 C 0.4764(3) 0.9355(2) 0.56236(11)
H28 H 0.4448 0.9168 0.5295
C36 C 0.5680(3) 0.8614(2) 0.59008(9)
loop_
_geom_bond_atom_site_label_1
_geom_bond_atom_site_label_2
_geom_bond_site_symmetry_1
_geom_bond_site_symmetry_2
P1 O1 1_555 1_555
O1 C36 1_555 1_555
O2 P1 1_555 1_555
N1 P1 1_555 1_555
C1 N1 1_555 1_555
H1 C1 1_555 1_555
H2 C1 1_555 1_555
C2 C1 1_555 1_555
H3 C2 1_555 1_555
C3 C2 1_555 1_555
H4 C3 1_555 1_555
H5 C3 1_555 1_555
C4 N1 1_555 1_555
H6 C4 1_555 1_555
C5 C4 1_555 1_555
C6 C5 1_555 1_555
H7 C6 1_555 1_555
C7 C6 1_555 1_555
H8 C7 1_555 1_555
C8 C7 1_555 1_555
H9 C8 1_555 1_555
C9 C8 1_555 1_555
H10 C9 1_555 1_555
C10 C5 1_555 1_555
H11 C10 1_555 1_555
C11 C4 1_555 1_555
C12 C11 1_555 1_555
H12 C12 1_555 1_555
C13 C12 1_555 1_555
H13 C13 1_555 1_555
C14 C13 1_555 1_555
H14 C14 1_555 1_555
C15 C14 1_555 1_555
H15 C15 1_555 1_555
C16 C11 1_555 1_555
H16 C16 1_555 1_555
C17 O2 1_555 1_555
C18 C17 1_555 1_555
H17 C18 1_555 1_555
C19 C18 1_555 1_555
H18 C19 1_555 1_555
C20 C19 1_555 1_555
C21 C20 1_555 1_555
H19 C21 1_555 1_555
C22 C21 1_555 1_555
H20 C22 1_555 1_555
C23 C22 1_555 1_555
H21 C23 1_555 1_555
C24 C23 1_555 1_555
H22 C24 1_555 1_555
C25 C20 1_555 1_555
C26 C17 1_555 1_555
C27 C26 1_555 1_555
C28 C27 1_555 1_555
C29 C28 1_555 1_555
H23 C29 1_555 1_555
C30 C29 1_555 1_555
H24 C30 1_555 1_555
C31 C30 1_555 1_555
H25 C31 1_555 1_555
C32 C31 1_555 1_555
H26 C32 1_555 1_555
C33 C28 1_555 1_555
C34 C33 1_555 1_555
H27 C34 1_555 1_555
C35 C34 1_555 1_555
H28 C35 1_555 1_555
C36 C27 1_555 1_555
C9 C10 1_555 1_555
C15 C16 1_555 1_555
C24 C25 1_555 1_555
C25 C26 1_555 1_555
C32 C33 1_555 1_555
C35 C36 1_555 1_555

#END
