
#######################################################################
#
#                 Cambridge Crystallographic Data Centre
#                                CCDC 
#
#######################################################################
#
# If this CIF has been generated from an entry in the Cambridge 
# Structural Database, then it will include bibliographic, chemical, 
# crystal, experimental, refinement or atomic coordinate data resulting 
# from the CCDC's data processing and validation procedures.
#
#######################################################################

data_ZIFJUV
_chemical_formula_moiety         'C19 H12 Cl2 N4'
_chemical_name_systematic        
2-(4,5-bis(4-chlorophenyl)-4H-1,2,4-triazol-3-yl)pyridine
_symmetry_cell_setting           monoclinic
_symmetry_space_group_name_H-M   'P 21/n'
_symmetry_Int_Tables_number      14
_space_group_name_Hall           '-P 2yn'
loop_
_symmetry_equiv_pos_site_id
_symmetry_equiv_pos_as_xyz
1 x,y,z
2 1/2-x,1/2+y,1/2-z
3 -x,-y,-z
4 1/2+x,1/2-y,1/2+z
_cell_length_a                   13.596(3)
_cell_length_b                   7.1736(14)
_cell_length_c                   17.390(3)
_cell_angle_alpha                90
_cell_angle_beta                 93.274(3)
_cell_angle_gamma                90
_cell_volume                     1693.32
_exptl_crystal_colour            colorless
_exptl_crystal_description       Block
_cell_formula_units_Z            4
loop_
_atom_site_label
_atom_site_type_symbol
_atom_site_fract_x
_atom_site_fract_y
_atom_site_fract_z
Cl1 Cl 0.31954(8) 0.21247(16) 0.38358(5)
Cl2 Cl 0.92235(8) 0.18218(18) 0.21193(8)
N1 N 0.2238(2) 0.2157(4) 0.05514(18)
N2 N 0.4300(2) 0.2831(4) -0.06203(17)
N3 N 0.5288(2) 0.2668(4) -0.03758(16)
N4 N 0.43975(19) 0.2543(3) 0.06360(15)
C1 C 0.1249(3) 0.2181(6) 0.0490(3)
H1 H 0.0913 0.1742 0.0905
C2 C 0.0690(4) 0.2829(6) -0.0159(4)
H2 H 0.0005 0.2806 -0.0180
C3 C 0.1176(4) 0.3471(6) -0.0737(3)
H3 H 0.0824 0.3934 -0.1170
C4 C 0.2203(3) 0.3477(5) -0.0720(2)
H4 H 0.2542 0.3898 -0.1136
C5 C 0.2698(3) 0.2821(5) -0.0050(2)
C6 C 0.3777(2) 0.2751(4) -0.00083(19)
C7 C 0.5328(3) 0.2508(4) 0.0381(2)
C8 C 0.6251(2) 0.2326(4) 0.08425(19)
C9 C 0.6403(3) 0.2860(5) 0.1619(2)
H5 H 0.5873 0.3326 0.1875
C10 C 0.7299(3) 0.2719(5) 0.2012(2)
H6 H 0.7383 0.3090 0.2524
C11 C 0.8073(2) 0.2009(5) 0.1625(3)
C12 C 0.7966(3) 0.1511(5) 0.0879(2)
H7 H 0.8505 0.1066 0.0628
C13 C 0.7060(3) 0.1658(4) 0.0486(2)
H8 H 0.6993 0.1300 -0.0029
C14 C 0.4115(2) 0.2439(4) 0.14261(18)
C15 C 0.4166(2) 0.0753(5) 0.18006(18)
H9 H 0.4382 -0.0305 0.1551
C16 C 0.3892(2) 0.0650(5) 0.25554(18)
H10 H 0.3921 -0.0474 0.2822
C17 C 0.3575(2) 0.2256(5) 0.29013(19)
C18 C 0.3550(2) 0.3927(5) 0.25288(19)
H11 H 0.3343 0.4992 0.2779
C19 C 0.3831(2) 0.4038(5) 0.17818(19)
H12 H 0.3827 0.5174 0.1524
loop_
_geom_bond_atom_site_label_1
_geom_bond_atom_site_label_2
_geom_bond_site_symmetry_1
_geom_bond_site_symmetry_2
Cl1 C17 1_555 1_555
Cl2 C11 1_555 1_555
N1 C1 1_555 1_555
N2 N3 1_555 1_555
N3 C7 1_555 1_555
N4 C6 1_555 1_555
C1 H1 1_555 1_555
C2 C1 1_555 1_555
H2 C2 1_555 1_555
C3 C2 1_555 1_555
H3 C3 1_555 1_555
C4 C3 1_555 1_555
H4 C4 1_555 1_555
C5 N1 1_555 1_555
C6 N2 1_555 1_555
C7 N4 1_555 1_555
C8 C7 1_555 1_555
C9 C8 1_555 1_555
H5 C9 1_555 1_555
C10 C9 1_555 1_555
H6 C10 1_555 1_555
C11 C10 1_555 1_555
C12 C11 1_555 1_555
H7 C12 1_555 1_555
C13 C8 1_555 1_555
H8 C13 1_555 1_555
C14 N4 1_555 1_555
C15 C14 1_555 1_555
H9 C15 1_555 1_555
C16 C15 1_555 1_555
H10 C16 1_555 1_555
C17 C16 1_555 1_555
C18 C17 1_555 1_555
H11 C18 1_555 1_555
C19 C14 1_555 1_555
H12 C19 1_555 1_555
C4 C5 1_555 1_555
C5 C6 1_555 1_555
C12 C13 1_555 1_555
C18 C19 1_555 1_555

#END
