
#######################################################################
#
#                 Cambridge Crystallographic Data Centre
#                                CCDC 
#
#######################################################################
#
# If this CIF has been generated from an entry in the Cambridge 
# Structural Database, then it will include bibliographic, chemical, 
# crystal, experimental, refinement or atomic coordinate data resulting 
# from the CCDC's data processing and validation procedures.
#
#######################################################################

data_ZIFQEM
_chemical_formula_moiety         'C11 H10 N4'
_chemical_name_systematic        2-(1H-Imidazol-1-ylmethyl)-1H-benzimidazole
_symmetry_cell_setting           monoclinic
_symmetry_space_group_name_H-M   'P 21/n'
_symmetry_Int_Tables_number      14
_space_group_name_Hall           '-P 2yn'
loop_
_symmetry_equiv_pos_site_id
_symmetry_equiv_pos_as_xyz
1 x,y,z
2 1/2-x,1/2+y,1/2-z
3 -x,-y,-z
4 1/2+x,1/2-y,1/2+z
_cell_length_a                   7.0582(13)
_cell_length_b                   17.577(3)
_cell_length_c                   8.5676(16)
_cell_angle_alpha                90
_cell_angle_beta                 101.257(2)
_cell_angle_gamma                90
_cell_volume                     1042.46
_exptl_crystal_colour            colorless
_exptl_crystal_description       block
_cell_formula_units_Z            4
loop_
_atom_site_label
_atom_site_type_symbol
_atom_site_fract_x
_atom_site_fract_y
_atom_site_fract_z
C1 C 0.2748(3) -0.03236(12) 0.0261(2)
C2 C 0.2020(3) 0.08808(12) 0.0018(2)
H1 H 0.159(3) 0.1378(14) 0.031(3)
C3 C 0.2263(3) 0.05935(13) -0.1389(2)
H2 H 0.213(3) 0.0851(13) -0.238(3)
C4 C 0.2179(4) 0.02926(15) 0.2750(2)
H3 H 0.082(4) 0.0467(13) 0.286(3)
H4 H 0.227(4) -0.0258(15) 0.315(3)
C5 C 0.3648(3) 0.07983(11) 0.3757(2)
C6 C 0.5005(3) 0.15279(10) 0.5622(2)
C7 C 0.5500(5) 0.19944(13) 0.6965(3)
H5 H 0.455(3) 0.2109(13) 0.754(3)
C8 C 0.7347(5) 0.22585(14) 0.7361(3)
H6 H 0.780(4) 0.2578(16) 0.824(3)
C9 C 0.8716(5) 0.20804(15) 0.6453(4)
H7 H 1.005(4) 0.2269(16) 0.675(3)
C10 C 0.8280(4) 0.16313(14) 0.5114(3)
H8 H 0.922(3) 0.1499(13) 0.448(3)
C11 C 0.6393(3) 0.13583(11) 0.4725(2)
H9 H 0.302(3) -0.0832(13) 0.076(3)
N1 N 0.2725(3) -0.01626(11) -0.12391(19)
N2 N 0.2334(2) 0.02850(9) 0.10722(17)
N3 N 0.3265(3) 0.11726(10) 0.49850(17)
N4 N 0.5474(3) 0.08857(10) 0.35226(19)
H10 H 0.605(4) 0.0666(14) 0.277(3)
loop_
_geom_bond_atom_site_label_1
_geom_bond_atom_site_label_2
_geom_bond_site_symmetry_1
_geom_bond_site_symmetry_2
C1 H9 1_555 1_555
C2 H1 1_555 1_555
C3 C2 1_555 1_555
H2 C3 1_555 1_555
C4 H3 1_555 1_555
H4 C4 1_555 1_555
C5 C4 1_555 1_555
C6 C7 1_555 1_555
C7 H5 1_555 1_555
C8 C7 1_555 1_555
H6 C8 1_555 1_555
C9 C8 1_555 1_555
H7 C9 1_555 1_555
C10 C9 1_555 1_555
H8 C10 1_555 1_555
C11 C6 1_555 1_555
N1 C1 1_555 1_555
N2 C1 1_555 1_555
N3 C5 1_555 1_555
N4 C5 1_555 1_555
H10 N4 1_555 1_555
C2 N2 1_555 1_555
C3 N1 1_555 1_555
C4 N2 1_555 1_555
C6 N3 1_555 1_555
C10 C11 1_555 1_555
C11 N4 1_555 1_555

#END
