
#######################################################################
#
#                 Cambridge Crystallographic Data Centre
#                                CCDC 
#
#######################################################################
#
# If this CIF has been generated from an entry in the Cambridge 
# Structural Database, then it will include bibliographic, chemical, 
# crystal, experimental, refinement or atomic coordinate data resulting 
# from the CCDC's data processing and validation procedures.
#
#######################################################################

data_ZIFWET
_chemical_formula_moiety         'C23 H34 O9'
_chemical_name_systematic        
'4,10-dihydroxy-6,10-dimethyl-3-methylene-2,9-dioxododecahydrocyclodeca[b]furan-5,11-diyl bis(2-methylpropanoate)'
_symmetry_cell_setting           monoclinic
_symmetry_space_group_name_H-M   'P 21'
_symmetry_Int_Tables_number      4
_space_group_name_Hall           'P 2yb'
loop_
_symmetry_equiv_pos_site_id
_symmetry_equiv_pos_as_xyz
1 x,y,z
2 -x,1/2+y,-z
_cell_length_a                   13.5135(4)
_cell_length_b                   9.5039(2)
_cell_length_c                   18.8280(6)
_cell_angle_alpha                90
_cell_angle_beta                 105.051(3)
_cell_angle_gamma                90
_cell_volume                     2335.15
_cell_formula_units_Z            4
loop_
_atom_site_label
_atom_site_type_symbol
_atom_site_fract_x
_atom_site_fract_y
_atom_site_fract_z
O1 O 0.93873(10) 0.02262(14) 0.42511(7)
H1 H 0.9988 -0.0015 0.4403
O2 O 1.09937(11) 0.20182(17) 0.25075(7)
O3 O 0.86482(10) 0.39465(14) 0.52196(7)
H2 H 0.8804 0.3331 0.5534
O4 O 0.77885(10) 0.15967(16) 0.26079(7)
O5 O 1.06133(11) 0.66318(16) 0.39574(8)
O6 O 1.09036(10) 0.16381(15) 0.36705(7)
O7 O 1.05187(10) 0.42963(14) 0.39672(7)
O8 O 0.58062(12) 0.45584(16) 0.51290(8)
O9 O 0.66937(10) 0.27187(14) 0.48555(7)
C1 C 0.64419(14) 0.3023(2) 0.35445(11)
H3 H 0.6803 0.3365 0.3189
C2 C 0.82117(13) 0.3314(2) 0.45178(10)
H4 H 0.8352 0.2302 0.4561
C3 C 0.85061(15) 0.6581(2) 0.41377(11)
H5 H 0.8802 0.7470 0.4178
H6 H 0.7835 0.6475 0.4169
C4 C 0.80599(15) 0.10281(19) 0.32015(10)
C5 C 0.60579(15) 0.3348(2) 0.52089(11)
C6 C 1.01189(15) 0.5581(2) 0.39805(10)
C7 C 0.98052(14) 0.3199(2) 0.40505(10)
H7 H 1.0032 0.2797 0.4545
C8 C 1.13993(15) 0.1680(2) 0.31292(10)
C9 C 0.87539(14) 0.3925(2) 0.39604(10)
H8 H 0.8328 0.3752 0.3461
C10 C 0.92117(14) 0.0729(2) 0.35176(10)
C11 C 0.63202(14) 0.1421(2) 0.34464(11)
H9 H 0.5899 0.1092 0.3759
H10 H 0.5944 0.1238 0.2942
C12 C 0.98467(14) 0.2069(2) 0.34860(10)
H11 H 0.9653 0.2469 0.2989
C13 C 0.90387(14) 0.5468(2) 0.40353(10)
C14 C 0.70466(14) 0.3521(2) 0.43140(10)
H12 H 0.6899 0.4519 0.4368
C15 C 0.53744(15) 0.3694(2) 0.33492(12)
H13 H 0.4995 0.3373 0.2873
H14 H 0.5440 0.4699 0.3343
H15 H 0.5020 0.3429 0.3709
C16 C 0.94698(15) -0.0419(2) 0.30128(10)
H16 H 1.0170 -0.0707 0.3201
H17 H 0.9373 -0.0049 0.2525
H18 H 0.9027 -0.1214 0.2999
C17 C 1.30594(17) 0.2394(3) 0.39675(13)
H19 H 1.3061 0.3251 0.3698
H20 H 1.3752 0.2105 0.4186
H21 H 1.2713 0.2546 0.4346
C18 C 0.66672(19) 0.1878(3) 0.63330(13)
H22 H 0.7194 0.1514 0.6126
H23 H 0.6470 0.1168 0.6632
H24 H 0.6921 0.2687 0.6629
C19 C 0.72965(15) 0.0532(2) 0.36136(11)
H25 H 0.7618 0.0565 0.4138
H26 H 0.7115 -0.0439 0.3483
C20 C 0.48691(17) 0.2894(3) 0.60076(13)
H27 H 0.5101 0.3732 0.6286
H28 H 0.4670 0.2209 0.6319
H29 H 0.4292 0.3116 0.5604
C21 C 1.25014(15) 0.1241(2) 0.34421(11)
H30 H 1.2508 0.0375 0.3726
C22 C 1.30171(17) 0.0934(3) 0.28253(14)
H31 H 1.2677 0.0159 0.2535
H32 H 1.3724 0.0700 0.3035
H33 H 1.2974 0.1751 0.2519
C23 C 0.57346(16) 0.2300(2) 0.57115(11)
H34 H 0.5478 0.1455 0.5423
O10 O 1.10633(10) 0.27133(15) 0.09326(7)
O11 O 0.67169(10) 0.47311(14) 0.00832(7)
O12 O 1.00348(10) 0.69252(15) 0.07631(7)
H35 H 1.0540 0.7164 0.0628
O13 O 1.10493(12) 0.03771(16) 0.09846(8)
O14 O 0.94896(11) 0.55320(16) 0.23570(7)
O15 O 0.83203(10) 0.32583(15) -0.02512(7)
H36 H 0.8333 0.3854 -0.0564
O16 O 1.18409(10) 0.52726(16) 0.12655(8)
O17 O 1.28310(12) 0.4388(2) 0.23283(9)
O18 O 0.55051(11) 0.30405(17) -0.01876(8)
C24 C 0.93968(15) 0.61419(19) 0.17801(10)
C25 C 0.58039(15) 0.4189(2) -0.02909(10)
C26 C 1.05995(15) 0.1480(2) 0.09610(10)
C27 C 1.03602(14) 0.3889(2) 0.09004(10)
H37 H 1.0223 0.4327 0.0413
C28 C 0.88727(16) 0.0637(2) 0.09133(11)
H38 H 0.9106 -0.0279 0.0892
H39 H 0.8192 0.0800 0.0908
C29 C 0.74001(14) 0.3875(2) 0.06439(10)
H40 H 0.7151 0.2902 0.0592
C30 C 0.73497(14) 0.4428(2) 0.14018(10)
H41 H 0.7905 0.3983 0.1774
C31 C 0.84305(14) 0.3930(2) 0.04457(10)
H42 H 0.8592 0.4922 0.0389
C32 C 0.74508(16) 0.6026(2) 0.15116(11)
H43 H 0.7448 0.6226 0.2016
H44 H 0.6841 0.6455 0.1199
C33 C 1.03529(15) 0.6358(2) 0.14857(10)
C34 C 1.10434(16) 0.7391(2) 0.20187(11)
H45 H 1.1663 0.7542 0.1870
H46 H 1.1208 0.7008 0.2507
H47 H 1.0691 0.8270 0.2012
C35 C 0.41598(17) 0.4670(3) -0.12467(12)
H48 H 0.4249 0.3867 -0.1534
H49 H 0.3779 0.5382 -0.1565
H50 H 0.3792 0.4394 -0.0896
C36 C 0.93506(14) 0.3275(2) 0.10107(10)
H51 H 0.9301 0.3497 0.1508
C37 C 0.63338(16) 0.3976(3) 0.15494(12)
H52 H 0.5775 0.4375 0.1182
H53 H 0.6307 0.4300 0.2027
H54 H 0.6282 0.2968 0.1531
C38 C 0.95085(15) 0.1707(2) 0.09512(10)
C39 C 1.09121(14) 0.4947(2) 0.14786(10)
H55 H 1.1078 0.4518 0.1969
C40 C 1.27479(16) 0.4864(3) 0.17379(14)
C41 C 0.52124(15) 0.5255(2) -0.08396(11)
H56 H 0.5095 0.6080 -0.0561
C42 C 0.83834(15) 0.6773(2) 0.13613(10)
H57 H 0.8335 0.6729 0.0839
H58 H 0.8368 0.7757 0.1495
C43 C 1.4133(3) 0.6509(4) 0.16944(16)
H59 H 1.3686 0.7265 0.1476
H60 H 1.4772 0.6599 0.1565
H61 H 1.4254 0.6547 0.2220
C44 C 0.58332(19) 0.5735(3) -0.13609(14)
H62 H 0.6487 0.6078 -0.1082
H63 H 0.5473 0.6475 -0.1670
H64 H 0.5932 0.4958 -0.1661
C45 C 1.3438(2) 0.4903(4) 0.06221(15)
H65 H 1.3191 0.3962 0.0503
H66 H 1.4058 0.5037 0.0472
H67 H 1.2930 0.5564 0.0370
C46 C 1.36422(19) 0.5123(4) 0.14159(16)
H68 H 1.4151 0.4408 0.1638
loop_
_geom_bond_atom_site_label_1
_geom_bond_atom_site_label_2
_geom_bond_site_symmetry_1
_geom_bond_site_symmetry_2
O1 H1 1_555 1_555
O2 C8 1_555 1_555
O3 H2 1_555 1_555
O4 C4 1_555 1_555
O5 C6 1_555 1_555
O6 C8 1_555 1_555
O7 C6 1_555 1_555
O8 C5 1_555 1_555
O9 C5 1_555 1_555
C1 H3 1_555 1_555
C2 O3 1_555 1_555
H4 C2 1_555 1_555
C3 H5 1_555 1_555
H6 C3 1_555 1_555
C4 C10 1_555 1_555
C5 C23 1_555 1_555
C6 C13 1_555 1_555
C7 O7 1_555 1_555
H7 C7 1_555 1_555
C8 C21 1_555 1_555
C9 C2 1_555 1_555
H8 C9 1_555 1_555
C10 O1 1_555 1_555
C11 C1 1_555 1_555
H9 C11 1_555 1_555
H10 C11 1_555 1_555
C12 O6 1_555 1_555
H11 C12 1_555 1_555
C13 C3 1_555 1_555
C14 O9 1_555 1_555
H12 C14 1_555 1_555
C15 C1 1_555 1_555
H13 C15 1_555 1_555
H14 C15 1_555 1_555
H15 C15 1_555 1_555
C16 C10 1_555 1_555
H16 C16 1_555 1_555
H17 C16 1_555 1_555
H18 C16 1_555 1_555
C17 H19 1_555 1_555
H20 C17 1_555 1_555
H21 C17 1_555 1_555
C18 H22 1_555 1_555
H23 C18 1_555 1_555
H24 C18 1_555 1_555
C19 C4 1_555 1_555
H25 C19 1_555 1_555
H26 C19 1_555 1_555
C20 H27 1_555 1_555
H28 C20 1_555 1_555
H29 C20 1_555 1_555
C21 C17 1_555 1_555
H30 C21 1_555 1_555
C22 C21 1_555 1_555
H31 C22 1_555 1_555
H32 C22 1_555 1_555
H33 C22 1_555 1_555
C23 C18 1_555 1_555
H34 C23 1_555 1_555
O10 C26 1_555 1_555
O11 C25 1_555 1_555
O12 H35 1_555 1_555
O13 C26 1_555 1_555
O14 C24 1_555 1_555
O15 H36 1_555 1_555
O16 C39 1_555 1_555
O17 C40 1_555 1_555
O18 C25 1_555 1_555
C24 C33 1_555 1_555
C25 C41 1_555 1_555
C26 C38 1_555 1_555
C27 O10 1_555 1_555
H37 C27 1_555 1_555
C28 H38 1_555 1_555
H39 C28 1_555 1_555
C29 O11 1_555 1_555
H40 C29 1_555 1_555
C30 C29 1_555 1_555
H41 C30 1_555 1_555
C31 O15 1_555 1_555
H42 C31 1_555 1_555
C32 C30 1_555 1_555
H43 C32 1_555 1_555
H44 C32 1_555 1_555
C33 O12 1_555 1_555
C34 C33 1_555 1_555
H45 C34 1_555 1_555
H46 C34 1_555 1_555
H47 C34 1_555 1_555
C35 H48 1_555 1_555
H49 C35 1_555 1_555
H50 C35 1_555 1_555
C36 C27 1_555 1_555
H51 C36 1_555 1_555
C37 C30 1_555 1_555
H52 C37 1_555 1_555
H53 C37 1_555 1_555
H54 C37 1_555 1_555
C38 C28 1_555 1_555
C39 C27 1_555 1_555
H55 C39 1_555 1_555
C40 O16 1_555 1_555
C41 C35 1_555 1_555
H56 C41 1_555 1_555
C42 C24 1_555 1_555
H57 C42 1_555 1_555
H58 C42 1_555 1_555
C43 H59 1_555 1_555
H60 C43 1_555 1_555
H61 C43 1_555 1_555
C44 C41 1_555 1_555
H62 C44 1_555 1_555
H63 C44 1_555 1_555
H64 C44 1_555 1_555
C45 H65 1_555 1_555
H66 C45 1_555 1_555
H67 C45 1_555 1_555
C46 C40 1_555 1_555
H68 C46 1_555 1_555
C1 C14 1_555 1_555
C2 C14 1_555 1_555
C7 C9 1_555 1_555
C7 C12 1_555 1_555
C9 C13 1_555 1_555
C10 C12 1_555 1_555
C11 C19 1_555 1_555
C20 C23 1_555 1_555
C29 C31 1_555 1_555
C31 C36 1_555 1_555
C32 C42 1_555 1_555
C33 C39 1_555 1_555
C36 C38 1_555 1_555
C43 C46 1_555 1_555
C45 C46 1_555 1_555

#END
