
#######################################################################
#
#                 Cambridge Crystallographic Data Centre
#                                CCDC 
#
#######################################################################
#
# If this CIF has been generated from an entry in the Cambridge 
# Structural Database, then it will include bibliographic, chemical, 
# crystal, experimental, refinement or atomic coordinate data resulting 
# from the CCDC's data processing and validation procedures.
#
#######################################################################

data_ZIFWIX
_chemical_formula_moiety         'C24 H34 O9'
_chemical_name_systematic        
'1,9-dihydroxy-8-(isobutyryloxy)-9,13-dimethyl-4-methylene-5-oxo-6,14-dioxatricyclo[9.2.1.0^3,7^]tetradec-2-yl 2-methylbut-2-enoate'
_symmetry_cell_setting           orthorhombic
_symmetry_space_group_name_H-M   'P 21 21 21'
_symmetry_Int_Tables_number      19
_space_group_name_Hall           'P 2ac 2ab'
loop_
_symmetry_equiv_pos_site_id
_symmetry_equiv_pos_as_xyz
1 x,y,z
2 1/2-x,-y,1/2+z
3 1/2+x,1/2-y,-z
4 -x,1/2+y,1/2-z
_cell_length_a                   9.05085(16)
_cell_length_b                   14.4036(3)
_cell_length_c                   19.1015(3)
_cell_angle_alpha                90
_cell_angle_beta                 90
_cell_angle_gamma                90
_cell_volume                     2490.16
_cell_formula_units_Z            4
loop_
_atom_site_label
_atom_site_type_symbol
_atom_site_fract_x
_atom_site_fract_y
_atom_site_fract_z
O1 O 0.87230(12) 0.80545(7) 0.21626(5)
O2 O 1.14704(11) 0.71169(7) 0.05866(5)
O3 O 0.61732(13) 0.54242(9) 0.21564(7)
O4 O 0.70360(12) 0.77411(7) 0.13419(5)
O5 O 0.82183(12) 0.62830(8) 0.22070(5)
O6 O 1.13646(13) 0.76646(9) 0.27725(6)
H1 H 1.0815 0.8028 0.2976
O7 O 1.05302(11) 0.62866(7) -0.03361(5)
H2 H 1.0935 0.6608 -0.0634
O8 O 1.04048(13) 0.38747(8) 0.13246(6)
O9 O 1.02915(12) 0.47408(7) 0.03539(5)
C1 C 0.73888(16) 0.81397(10) 0.18759(8)
C2 C 1.28520(16) 0.72518(10) 0.09598(8)
H3 H 1.3292 0.7844 0.0818
C3 C 0.64080(16) 0.87982(11) 0.22802(8)
H4 H 0.5496 0.8890 0.2013
C4 C 1.30648(16) 0.60272(11) 0.00987(8)
H5 H 1.3340 0.6395 -0.0313
C5 C 0.92259(15) 0.60369(10) 0.10514(7)
H6 H 0.8950 0.6536 0.0728
C6 C 1.14277(16) 0.62293(9) 0.02509(7)
C7 C 1.25973(17) 0.72557(11) 0.17474(8)
H7 H 1.3503 0.7464 0.1969
H8 H 1.2436 0.6619 0.1894
C8 C 1.38669(17) 0.64497(11) 0.07271(8)
H9 H 1.4834 0.6680 0.0594
H10 H 1.3982 0.5996 0.1099
C9 C 1.02465(17) 0.39299(11) 0.06987(8)
C10 C 1.34723(19) 0.50226(12) -0.00595(9)
H11 H 1.3311 0.4649 0.0350
H12 H 1.4494 0.4989 -0.0192
H13 H 1.2868 0.4796 -0.0436
C11 C 0.98001(16) 0.75440(10) 0.17492(8)
H14 H 0.9725 0.7748 0.1261
C12 C 0.71573(18) 0.97391(11) 0.23706(10)
H15 H 0.8021 0.9669 0.2657
H16 H 0.6484 1.0164 0.2591
H17 H 0.7438 0.9977 0.1920
C13 C 1.06308(16) 0.55595(10) 0.07548(7)
H18 H 1.1294 0.5396 0.1141
C14 C 0.95049(16) 0.64834(10) 0.17798(7)
H19 H 1.0365 0.6181 0.1992
C15 C 0.78716(16) 0.54508(11) 0.11761(8)
C16 C 0.71467(18) 0.48776(12) 0.07596(10)
H20 H 0.6261 0.4615 0.0907
H21 H 0.7522 0.4737 0.0319
C17 C 0.72928(17) 0.56867(11) 0.18843(8)
C18 C 1.13220(17) 0.78459(11) 0.20394(8)
C19 C 1.0016(3) 0.31111(13) 0.02360(10)
C20 C 0.6002(2) 0.83628(13) 0.29878(9)
H22 H 0.5555 0.7767 0.2912
H23 H 0.5319 0.8760 0.3229
H24 H 0.6879 0.8289 0.3265
C21 C 1.0137(4) 0.22034(15) 0.06232(13)
H25 H 1.1037 0.2194 0.0889
H26 H 1.0142 0.1700 0.0293
H27 H 0.9310 0.2137 0.0934
C22 C 1.15576(19) 0.88744(12) 0.18857(11)
H28 H 1.0793 0.9231 0.2108
H29 H 1.1525 0.8975 0.1389
H30 H 1.2502 0.9064 0.2063
C23 C 0.9618(5) 0.39146(19) -0.09624(12)
H31 H 0.8664 0.3882 -0.1181
H32 H 1.0373 0.3864 -0.1313
H33 H 0.9716 0.4497 -0.0723
C24 C 0.9771(4) 0.31448(16) -0.04543(12)
H34 H 0.9678 0.2561 -0.0658
loop_
_geom_bond_atom_site_label_1
_geom_bond_atom_site_label_2
_geom_bond_site_symmetry_1
_geom_bond_site_symmetry_2
O1 C1 1_555 1_555
O2 C2 1_555 1_555
O3 C17 1_555 1_555
O4 C1 1_555 1_555
O5 C14 1_555 1_555
O6 H1 1_555 1_555
O7 H2 1_555 1_555
O8 C9 1_555 1_555
O9 C9 1_555 1_555
C1 C3 1_555 1_555
C2 H3 1_555 1_555
C3 H4 1_555 1_555
C4 H5 1_555 1_555
C5 H6 1_555 1_555
C6 O2 1_555 1_555
C7 C2 1_555 1_555
H7 C7 1_555 1_555
H8 C7 1_555 1_555
C8 C2 1_555 1_555
H9 C8 1_555 1_555
H10 C8 1_555 1_555
C9 C19 1_555 1_555
C10 C4 1_555 1_555
H11 C10 1_555 1_555
H12 C10 1_555 1_555
H13 C10 1_555 1_555
C11 O1 1_555 1_555
H14 C11 1_555 1_555
C12 C3 1_555 1_555
H15 C12 1_555 1_555
H16 C12 1_555 1_555
H17 C12 1_555 1_555
C13 O9 1_555 1_555
H18 C13 1_555 1_555
C14 C5 1_555 1_555
H19 C14 1_555 1_555
C15 C5 1_555 1_555
C16 C15 1_555 1_555
H20 C16 1_555 1_555
H21 C16 1_555 1_555
C17 O5 1_555 1_555
C18 O6 1_555 1_555
C19 C21 1_555 1_555
C20 C3 1_555 1_555
H22 C20 1_555 1_555
H23 C20 1_555 1_555
H24 C20 1_555 1_555
C21 H25 1_555 1_555
H26 C21 1_555 1_555
H27 C21 1_555 1_555
C22 C18 1_555 1_555
H28 C22 1_555 1_555
H29 C22 1_555 1_555
H30 C22 1_555 1_555
C23 H31 1_555 1_555
H32 C23 1_555 1_555
H33 C23 1_555 1_555
C24 C19 1_555 1_555
H34 C24 1_555 1_555
O7 C6 1_555 1_555
C4 C6 1_555 1_555
C4 C8 1_555 1_555
C5 C13 1_555 1_555
C6 C13 1_555 1_555
C7 C18 1_555 1_555
C11 C14 1_555 1_555
C11 C18 1_555 1_555
C15 C17 1_555 1_555
C23 C24 1_555 1_555

#END
