
#######################################################################
#
#                 Cambridge Crystallographic Data Centre
#                                CCDC 
#
#######################################################################
#
# If this CIF has been generated from an entry in the Cambridge 
# Structural Database, then it will include bibliographic, chemical, 
# crystal, experimental, refinement or atomic coordinate data resulting 
# from the CCDC's data processing and validation procedures.
#
#######################################################################

data_ZIJQOY01
_chemical_formula_moiety         'C12 H24 O6,2(C2 H3 N3)'
_chemical_name_systematic        '18-crown-6 bis(1H-1,2,4-triazole)'
_symmetry_cell_setting           triclinic
_symmetry_space_group_name_H-M   'P -1'
_symmetry_Int_Tables_number      2
_space_group_name_Hall           '-P 1'
loop_
_symmetry_equiv_pos_site_id
_symmetry_equiv_pos_as_xyz
1 x,y,z
2 -x,-y,-z
_cell_length_a                   8.4600(17)
_cell_length_b                   8.6430(17)
_cell_length_c                   8.7180(17)
_cell_angle_alpha                99.03(3)
_cell_angle_beta                 102.72(3)
_cell_angle_gamma                117.30(3)
_cell_volume                     527.523
_cell_formula_units_Z            1
loop_
_atom_site_label
_atom_site_type_symbol
_atom_site_fract_x
_atom_site_fract_y
_atom_site_fract_z
N1 N 0.4674(4) 0.2537(4) 0.2919(3)
C1 C 0.4598(5) 0.1362(5) 0.3729(4)
H1 H 0.5464 0.1708 0.4765
N2 N 0.3201(4) 0.1433(4) 0.1509(3)
H2 H 0.2862 0.1787 0.0695
N3 N 0.3208(4) -0.0354(4) 0.2980(3)
C2 C 0.2374(5) -0.0241(4) 0.1569(4)
H3 H 0.1336 -0.1223 0.0731
O1 O -0.0891(3) 0.6310(3) 0.8559(3)
O2 O 0.0754(3) 0.9313(3) 0.7237(3)
C3 C -0.2503(5) 0.4910(4) 0.8748(6)
H4 H -0.2594 0.3744 0.8379
H5 H -0.3633 0.4841 0.8091
O3 O 0.2503(3) 1.3111(3) 0.9037(3)
C4 C -0.0965(6) 0.6139(5) 0.6892(4)
H6 H -0.2060 0.6149 0.6269
H7 H -0.1072 0.4992 0.6402
C5 C 0.0782(6) 0.7684(6) 0.6839(4)
H8 H 0.1876 0.7804 0.7617
H9 H 0.0872 0.7448 0.5746
C6 C 0.2234(5) 1.0793(6) 0.6965(4)
H10 H 0.2180 1.0474 0.5830
H11 H 0.3445 1.1064 0.7674
C7 C 0.2029(5) 1.2406(6) 0.7328(5)
H12 H 0.2847 1.3333 0.6916
H13 H 0.0738 1.2067 0.6776
C8 C 0.2328(5) 1.4671(5) 0.9486(6)
H14 H 0.1112 1.4429 0.8818
H15 H 0.3306 1.5706 0.9296
O1A O 0.0891(3) 1.3690(3) 1.1441(3)
O2A O -0.0754(3) 1.0687(3) 1.2763(3)
C3A C 0.2503(5) 1.5090(4) 1.1252(6)
H4A H 0.2594 1.6256 1.1621
H5A H 0.3633 1.5159 1.1909
O3A O -0.2503(3) 0.6889(3) 1.0963(3)
C4A C 0.0965(6) 1.3861(5) 1.3108(4)
H6A H 0.2060 1.3851 1.3731
H7A H 0.1072 1.5008 1.3598
C5A C -0.0782(6) 1.2316(6) 1.3161(4)
H8A H -0.1876 1.2196 1.2383
H9A H -0.0872 1.2552 1.4254
C6A C -0.2234(5) 0.9207(6) 1.3035(4)
H10A H -0.2180 0.9526 1.4170
H11A H -0.3445 0.8936 1.2326
C7A C -0.2029(5) 0.7594(6) 1.2672(5)
H12A H -0.2847 0.6667 1.3084
H13A H -0.0738 0.7933 1.3224
C8A C -0.2328(5) 0.5329(5) 1.0514(6)
H14A H -0.1112 0.5571 1.1182
H15A H -0.3306 0.4294 1.0704
loop_
_geom_bond_atom_site_label_1
_geom_bond_atom_site_label_2
_geom_bond_site_symmetry_1
_geom_bond_site_symmetry_2
N1 C1 1_555 1_555
C1 H1 1_555 1_555
N2 N1 1_555 1_555
H2 N2 1_555 1_555
N3 C1 1_555 1_555
C2 N2 1_555 1_555
H3 C2 1_555 1_555
O1 C3 1_555 1_555
O2 C5 1_555 1_555
C3 H4 1_555 1_555
H5 C3 1_555 1_555
O3 C7 1_555 1_555
C4 O1 1_555 1_555
H6 C4 1_555 1_555
H7 C4 1_555 1_555
C5 C4 1_555 1_555
H8 C5 1_555 1_555
H9 C5 1_555 1_555
C6 O2 1_555 1_555
H10 C6 1_555 1_555
H11 C6 1_555 1_555
C7 C6 1_555 1_555
H12 C7 1_555 1_555
H13 C7 1_555 1_555
C8 O3 1_555 1_555
H14 C8 1_555 1_555
H15 C8 1_555 1_555
O1A C3A 1_555 1_555
O2A C5A 1_555 1_555
C3A C8 1_555 1_555
H4A C3A 1_555 1_555
H5A C3A 1_555 1_555
O3A C7A 1_555 1_555
C4A O1A 1_555 1_555
H6A C4A 1_555 1_555
H7A C4A 1_555 1_555
C5A C4A 1_555 1_555
H8A C5A 1_555 1_555
H9A C5A 1_555 1_555
C6A O2A 1_555 1_555
H10A C6A 1_555 1_555
H11A C6A 1_555 1_555
C7A C6A 1_555 1_555
H12A C7A 1_555 1_555
H13A C7A 1_555 1_555
C8A C3 1_555 1_555
H14A C8A 1_555 1_555
H15A C8A 1_555 1_555
N3 C2 1_555 1_555
O3A C8A 1_555 1_555

#END
