
#######################################################################
#
#                 Cambridge Crystallographic Data Centre
#                                CCDC 
#
#######################################################################
#
# If this CIF has been generated from an entry in the Cambridge 
# Structural Database, then it will include bibliographic, chemical, 
# crystal, experimental, refinement or atomic coordinate data resulting 
# from the CCDC's data processing and validation procedures.
#
#######################################################################

data_ZIKJUA
_chemical_formula_moiety         'C42 H28 F6 O6'
_chemical_name_systematic        
'Dibenzyl 1,2-bis(4-(trifluoromethyl)phenyl)-1,2-dihydrocyclobuta[b]naphthalene-1,2-diyl biscarbonate'
_symmetry_cell_setting           triclinic
_symmetry_space_group_name_H-M   'P -1'
_symmetry_Int_Tables_number      2
_space_group_name_Hall           '-P 1'
loop_
_symmetry_equiv_pos_site_id
_symmetry_equiv_pos_as_xyz
1 x,y,z
2 -x,-y,-z
_cell_length_a                   12.115(2)
_cell_length_b                   13.020(3)
_cell_length_c                   13.881(3)
_cell_angle_alpha                63.642(4)
_cell_angle_beta                 67.412(4)
_cell_angle_gamma                70.127(4)
_cell_volume                     1773.04
_exptl_crystal_colour            colorless
_exptl_crystal_description       prismatic
_cell_formula_units_Z            2
loop_
_atom_site_label
_atom_site_type_symbol
_atom_site_fract_x
_atom_site_fract_y
_atom_site_fract_z
F1 F 0.4384(2) 0.1387(2) -0.2310(2)
F2 F 0.5963(2) 0.2022(2) -0.34326(16)
F3 F 0.4292(2) 0.3206(2) -0.31279(17)
F4 F 0.2208(11) 0.4634(10) 0.5425(7)
F5 F 0.3744(11) 0.5327(10) 0.4705(9)
F6 F 0.2417(14) 0.6118(10) 0.3863(10)
O1 O 0.43132(14) 0.13886(16) 0.20905(13)
O2 O 0.36762(17) 0.04413(18) 0.39564(16)
O3 O 0.27602(16) 0.06166(18) 0.27324(15)
O4 O 0.62622(15) 0.33651(16) 0.08486(14)
O5 O 0.80468(18) 0.3253(2) -0.04895(17)
O6 O 0.72809(17) 0.46909(18) 0.02123(17)
C1 C 0.6170(2) 0.2220(2) 0.10113(19)
C2 C 0.5232(2) 0.1743(2) 0.22243(19)
C3 C 0.6300(2) 0.0776(2) 0.2527(2)
C4 C 0.7122(2) 0.1227(2) 0.1493(2)
C5 C 0.8326(2) 0.0718(3) 0.1224(2)
H1 H 0.8860 0.1046 0.0536
C6 C 0.8719(2) -0.0334(3) 0.2045(2)
C7 C 0.9950(3) -0.0959(3) 0.1842(3)
H2 H 1.0510 -0.0649 0.1166
C8 C 1.0325(4) -0.1987(4) 0.2602(4)
H3 H 1.1133 -0.2382 0.2444
C9 C 0.9502(4) -0.2457(3) 0.3624(4)
H4 H 0.9764 -0.3173 0.4141
C10 C 0.8314(3) -0.1881(3) 0.3880(3)
H5 H 0.7787 -0.2200 0.4576
C11 C 0.7879(3) -0.0817(3) 0.3109(2)
C12 C 0.6645(2) -0.0230(2) 0.3355(2)
H6 H 0.6094 -0.0513 0.4047
C13 C 0.7285(3) 0.3728(3) 0.0119(2)
C14 C 0.8407(3) 0.5138(3) -0.0409(3)
H7 H 0.8442 0.5544 -0.1196
H8 H 0.9111 0.4498 -0.0339
C15 C 0.8403(2) 0.5945(2) 0.00636(19)
C16 C 0.8388(3) 0.7118(2) -0.06100(19)
H9 H 0.8351 0.7385 -0.1342
C17 C 0.8427(3) 0.78917(19) -0.0190(3)
H10 H 0.8416 0.8676 -0.0641
C18 C 0.8481(3) 0.7493(3) 0.0904(3)
H11 H 0.8507 0.8011 0.1185
C19 C 0.8497(2) 0.6320(4) 0.1577(2)
H12 H 0.8533 0.6053 0.2309
C20 C 0.8458(2) 0.5546(2) 0.11573(19)
H13 H 0.8468 0.4762 0.1608
C21 C 0.3580(2) 0.0775(2) 0.3037(2)
C22 C 0.1766(3) 0.0081(3) 0.3625(3)
H14 H 0.1943 -0.0230 0.4339
H15 H 0.1682 -0.0560 0.3498
C23 C 0.06160(14) 0.09733(17) 0.36456(17)
C24 C 0.0431(2) 0.1876(2) 0.4003(2)
H16 H 0.1027 0.1915 0.4247
C25 C -0.0644(3) 0.27208(19) 0.3997(2)
H17 H -0.0767 0.3325 0.4236
C26 C -0.15339(19) 0.2663(2) 0.3633(2)
H18 H -0.2253 0.3228 0.3629
C27 C -0.13492(16) 0.1760(2) 0.3275(2)
H19 H -0.1945 0.1721 0.3032
C28 C -0.02742(18) 0.09153(19) 0.32816(18)
H20 H -0.0151 0.0311 0.3042
C29 C 0.5870(2) 0.2237(2) 0.00446(19)
C30 C 0.6198(3) 0.1240(2) -0.0204(2)
H21 H 0.6630 0.0557 0.0218
C31 C 0.5898(3) 0.1237(3) -0.1064(2)
H22 H 0.6124 0.0556 -0.1217
C32 C 0.5267(3) 0.2236(3) -0.1691(2)
C33 C 0.4923(3) 0.3242(3) -0.1452(2)
H23 H 0.4489 0.3924 -0.1873
C34 C 0.5226(2) 0.3232(3) -0.0584(2)
H24 H 0.4990 0.3910 -0.0423
C35 C 0.4964(3) 0.2221(3) -0.2625(3)
C36 C 0.4640(2) 0.2596(2) 0.2832(2)
C37 C 0.3693(3) 0.3502(3) 0.2506(2)
H25 H 0.3430 0.3564 0.1932
C38 C 0.3135(3) 0.4313(3) 0.3020(2)
H26 H 0.2493 0.4914 0.2800
C39 C 0.3536(3) 0.4228(3) 0.3866(2)
C40 C 0.4472(3) 0.3344(3) 0.4190(2)
H27 H 0.4742 0.3290 0.4757
C41 C 0.5025(2) 0.2519(3) 0.3672(2)
H28 H 0.5659 0.1913 0.3899
C42 C 0.2899(4) 0.5081(3) 0.4457(3)
F7? F 0.1673(8) 0.4973(9) 0.4973(8)
F8? F 0.3308(13) 0.5049(11) 0.5170(10)
F9? F 0.2695(12) 0.6137(7) 0.3756(10)
loop_
_geom_bond_atom_site_label_1
_geom_bond_atom_site_label_2
_geom_bond_site_symmetry_1
_geom_bond_site_symmetry_2
F1 C35 1_555 1_555
F2 C35 1_555 1_555
F3 C35 1_555 1_555
F4 C42 1_555 1_555
F5 C42 1_555 1_555
F6 C42 1_555 1_555
O1 C2 1_555 1_555
O2 C21 1_555 1_555
O3 C21 1_555 1_555
O4 C1 1_555 1_555
O5 C13 1_555 1_555
O6 C13 1_555 1_555
C1 C2 1_555 1_555
C2 C3 1_555 1_555
C3 C4 1_555 1_555
C4 C1 1_555 1_555
C5 C4 1_555 1_555
H1 C5 1_555 1_555
C6 C5 1_555 1_555
C7 C6 1_555 1_555
H2 C7 1_555 1_555
C8 C7 1_555 1_555
H3 C8 1_555 1_555
C9 C8 1_555 1_555
H4 C9 1_555 1_555
C10 C9 1_555 1_555
H5 C10 1_555 1_555
C11 C6 1_555 1_555
C12 C3 1_555 1_555
H6 C12 1_555 1_555
C13 O4 1_555 1_555
C14 O6 1_555 1_555
H7 C14 1_555 1_555
H8 C14 1_555 1_555
C15 C14 1_555 1_555
C16 C15 1_555 1_555
H9 C16 1_555 1_555
C17 C16 1_555 1_555
H10 C17 1_555 1_555
C18 C17 1_555 1_555
H11 C18 1_555 1_555
C19 C18 1_555 1_555
H12 C19 1_555 1_555
C20 C15 1_555 1_555
H13 C20 1_555 1_555
C21 O1 1_555 1_555
C22 O3 1_555 1_555
H14 C22 1_555 1_555
H15 C22 1_555 1_555
C23 C22 1_555 1_555
C24 C23 1_555 1_555
H16 C24 1_555 1_555
C25 C24 1_555 1_555
H17 C25 1_555 1_555
C26 C25 1_555 1_555
H18 C26 1_555 1_555
C27 C26 1_555 1_555
H19 C27 1_555 1_555
C28 C23 1_555 1_555
H20 C28 1_555 1_555
C29 C1 1_555 1_555
C30 C29 1_555 1_555
H21 C30 1_555 1_555
C31 C30 1_555 1_555
H22 C31 1_555 1_555
C32 C31 1_555 1_555
C33 C32 1_555 1_555
H23 C33 1_555 1_555
C34 C29 1_555 1_555
H24 C34 1_555 1_555
C35 C32 1_555 1_555
C36 C2 1_555 1_555
C37 C36 1_555 1_555
H25 C37 1_555 1_555
C38 C37 1_555 1_555
H26 C38 1_555 1_555
C39 C38 1_555 1_555
C40 C39 1_555 1_555
H27 C40 1_555 1_555
C41 C36 1_555 1_555
H28 C41 1_555 1_555
C42 C39 1_555 1_555
C10 C11 1_555 1_555
C11 C12 1_555 1_555
C19 C20 1_555 1_555
C27 C28 1_555 1_555
C33 C34 1_555 1_555
C40 C41 1_555 1_555

#END
