
#######################################################################
#
#                 Cambridge Crystallographic Data Centre
#                                CCDC 
#
#######################################################################
#
# If this CIF has been generated from an entry in the Cambridge 
# Structural Database, then it will include bibliographic, chemical, 
# crystal, experimental, refinement or atomic coordinate data resulting 
# from the CCDC's data processing and validation procedures.
#
#######################################################################

data_ZIKKEJ
_chemical_formula_moiety         'C20 H25 N7 O3'
_chemical_name_systematic        
'Pyroglutamyl-phenylalanine (2-(5-methyl-2,3,4,5-tetra-azacyclopenta-1,3-dienyl)pyrrolidinamide) retropeptide'
_chemical_properties_biological  
'agent which is analogue of thyrotropin-releasing hormone'
_symmetry_cell_setting           monoclinic
_symmetry_space_group_name_H-M   'P 21'
_symmetry_Int_Tables_number      4
_space_group_name_Hall           'P 2yb'
loop_
_symmetry_equiv_pos_site_id
_symmetry_equiv_pos_as_xyz
1 x,y,z
2 -x,1/2+y,-z
_cell_length_a                   13.464(1)
_cell_length_b                   6.225(1)
_cell_length_c                   13.476(1)
_cell_angle_alpha                90
_cell_angle_beta                 118.52
_cell_angle_gamma                90
_cell_volume                     992.409
_exptl_crystal_colour            colorless
_cell_formula_units_Z            2
loop_
_atom_site_label
_atom_site_type_symbol
_atom_site_fract_x
_atom_site_fract_y
_atom_site_fract_z
N1 N 0.38806(12) 0.3552 -0.10802(11)
C1 C 0.30619(13) 0.1991(4) -0.18180(13)
C2 C 0.19348(14) 0.3249(4) -0.23223(18)
C3 C 0.22868(13) 0.5598(4) -0.21487(14)
C4 C 0.34935(12) 0.5573(4) -0.12122(13)
O1 O 0.40382(10) 0.7143(4) -0.06772(11)
C5 C 0.32875(12) 0.1112(4) -0.27443(12)
O2 O 0.27076(10) -0.0340(3) -0.33542(10)
N2 N 0.41506(10) 0.2001(4) -0.28442(10)
C6 C 0.44294(12) 0.1336(4) -0.37231(12)
C7 C 0.39539(14) 0.2859(4) -0.47334(15)
C8 C 0.27086(13) 0.3248(4) -0.51944(13)
C9 C 0.23130(16) 0.5162(4) -0.49868(16)
C10 C 0.11636(18) 0.5472(5) -0.53617(18)
C11 C 0.04014(17) 0.3888(5) -0.59553(18)
C12 C 0.07853(16) 0.1995(5) -0.61815(18)
C13 C 0.19268(15) 0.1672(4) -0.58053(15)
C14 C 0.57183(12) 0.1101(4) -0.31993(13)
O3 O 0.62785(9) 0.2380(3) -0.34166(11)
N3 N 0.61945(10) -0.0563(4) -0.24992(11)
C15 C 0.74122(14) -0.0981(4) -0.20287(15)
C16 C 0.75192(16) -0.3319(4) -0.1637(2)
C17 C 0.65971(18) -0.3571(5) -0.13085(19)
C18 C 0.56297(16) -0.2251(5) -0.2181(2)
C19 C 0.81055(13) 0.0515(4) -0.10825(14)
N4 N 0.94282(12) 0.2779(4) -0.00248(13)
N5 N 0.88790(14) 0.2176(4) 0.04932(13)
N6 N 0.80511(14) 0.0759(4) -0.01431(13)
N7 N 0.89425(10) 0.1749(4) -0.10261(11)
C20 C 0.93656(22) 0.2020(6) -0.1828(2)
H1 H 0.454(1) 0.320(3) -0.055(1)
H2 H 0.303(1) 0.086(3) -0.143(1)
H3 H 0.144(2) 0.287(3) -0.313(2)
H4 H 0.183(2) 0.639(3) -0.191(2)
H5 H 0.226(1) 0.623(3) -0.282(2)
H6 H 0.452(1) 0.301(3) -0.242(1)
H7 H 0.408(1) -0.007(3) -0.394(1)
H8 H 0.433(2) 0.428(4) -0.450(2)
H9 H 0.413(1) 0.223(4) -0.529(2)
H10 H 0.278(2) 0.627(4) -0.461(2)
H11 H 0.096(2) 0.674(5) -0.521(2)
H12 H -0.037(2) 0.406(4) -0.618(2)
H13 H 0.033(2) 0.080(4) -0.660(2)
H14 H 0.222(2) 0.025(4) -0.593(2)
H15 H 0.763(1) -0.084(3) -0.260(1)
H16 H 0.735(2) -0.427(5) -0.227(2)
H17 H 0.831(2) -0.362(4) -0.103(2)
H18 H 0.635(2) -0.500(5) -0.133(2)
H19 H 0.687(2) -0.283(4) -0.052(2)
H20 H 0.518(2) -0.317(6) -0.292(2)
H21 H 0.519(2) -0.152(4) -0.188(2)
H22 H 0.874(2) 0.213(6) -0.260(2)
H23 H 0.990(3) 0.089(6) -0.169(3)
H24 H 0.970(2) 0.340(5) -0.175(2)
H25 H 0.156(2) 0.295(4) -0.187(2)
loop_
_geom_bond_atom_site_label_1
_geom_bond_atom_site_label_2
_geom_bond_site_symmetry_1
_geom_bond_site_symmetry_2
N1 C1 1_555 1_555
C1 C2 1_555 1_555
C2 C3 1_555 1_555
C3 C4 1_555 1_555
C4 N1 1_555 1_555
O1 C4 1_555 1_555
C5 C1 1_555 1_555
O2 C5 1_555 1_555
N2 C5 1_555 1_555
C6 N2 1_555 1_555
C7 C6 1_555 1_555
C8 C7 1_555 1_555
C9 C8 1_555 1_555
C10 C9 1_555 1_555
C11 C10 1_555 1_555
C12 C11 1_555 1_555
C13 C8 1_555 1_555
C14 C6 1_555 1_555
O3 C14 1_555 1_555
N3 C14 1_555 1_555
C15 N3 1_555 1_555
C16 C15 1_555 1_555
C17 C16 1_555 1_555
C18 N3 1_555 1_555
C19 C15 1_555 1_555
N4 N5 1_555 1_555
N5 N6 1_555 1_555
N6 C19 1_555 1_555
N7 C19 1_555 1_555
C20 N7 1_555 1_555
H1 N1 1_555 1_555
H2 C1 1_555 1_555
H3 C2 1_555 1_555
H4 C3 1_555 1_555
H5 C3 1_555 1_555
H6 N2 1_555 1_555
H7 C6 1_555 1_555
H8 C7 1_555 1_555
H9 C7 1_555 1_555
H10 C9 1_555 1_555
H11 C10 1_555 1_555
H12 C11 1_555 1_555
H13 C12 1_555 1_555
H14 C13 1_555 1_555
H15 C15 1_555 1_555
H16 C16 1_555 1_555
H17 C16 1_555 1_555
H18 C17 1_555 1_555
H19 C17 1_555 1_555
H20 C18 1_555 1_555
H21 C18 1_555 1_555
H22 C20 1_555 1_555
H23 C20 1_555 1_555
H24 C20 1_555 1_555
H25 C2 1_555 1_555
C12 C13 1_555 1_555
C17 C18 1_555 1_555
N4 N7 1_555 1_555

#END
