
#######################################################################
#
#                 Cambridge Crystallographic Data Centre
#                                CCDC 
#
#######################################################################
#
# If this CIF has been generated from an entry in the Cambridge 
# Structural Database, then it will include bibliographic, chemical, 
# crystal, experimental, refinement or atomic coordinate data resulting 
# from the CCDC's data processing and validation procedures.
#
#######################################################################

data_ZIKKEJ01
_chemical_formula_moiety         'C20 H25 N7 O3'
_chemical_name_systematic        
'Pyroglutamyl-phenylalanine (2-(5-methyl-2,3,4,5-tetra-azacyclopenta-1,3-dienyl)pyrrolidinamide) retropeptide'
_chemical_properties_biological  
'agent which is analogue of thyrotropin-releasing hormone'
_symmetry_cell_setting           monoclinic
_symmetry_space_group_name_H-M   'P 21'
_symmetry_Int_Tables_number      4
_space_group_name_Hall           'P 2yb'
loop_
_symmetry_equiv_pos_site_id
_symmetry_equiv_pos_as_xyz
1 x,y,z
2 -x,1/2+y,-z
_cell_length_a                   13.397(1)
_cell_length_b                   6.171(1)
_cell_length_c                   13.331(1)
_cell_angle_alpha                90
_cell_angle_beta                 118.44(1)
_cell_angle_gamma                90
_cell_volume                     969.105
_exptl_crystal_colour            colorless
_cell_formula_units_Z            2
loop_
_atom_site_label
_atom_site_type_symbol
_atom_site_fract_x
_atom_site_fract_y
_atom_site_fract_z
N1 N 0.38697(13) 0.3552 -0.10768(12)
C1 C 0.30434(14) 0.1973(4) -0.18197(14)
C2 C 0.19123(15) 0.3247(4) -0.23200(17)
C3 C 0.22704(14) 0.5626(4) -0.21723(15)
C4 C 0.34819(14) 0.5604(4) -0.12187(14)
O1 O 0.40287(10) 0.7188(4) -0.06859(11)
C5 C 0.32729(13) 0.1103(4) -0.27595(14)
O2 O 0.26817(11) -0.0339(3) -0.33878(10)
N2 N 0.41509(11) 0.1986(4) -0.28488(12)
C6 C 0.44347(13) 0.1305(4) -0.37320(13)
C7 C 0.39616(15) 0.2849(4) -0.47536(15)
C8 C 0.27078(15) 0.3240(4) -0.52140(14)
C9 C 0.23140(16) 0.5166(4) -0.49920(15)
C10 C 0.11606(16) 0.5478(4) -0.53612(16)
C11 C 0.03898(16) 0.3865(4) -0.59659(17)
C12 C 0.07762(16) 0.1947(5) -0.62011(16)
C13 C 0.19240(15) 0.1632(4) -0.58300(15)
C14 C 0.57290(14) 0.1076(4) -0.31992(14)
O3 O 0.62988(10) 0.2381(3) -0.34071(11)
N3 N 0.62002(11) -0.0612(4) -0.24932(12)
C15 C 0.74227(15) -0.1038(4) -0.20133(15)
C16 C 0.75314(15) -0.3390(4) -0.16128(17)
C17 C 0.65914(17) -0.3628(4) -0.12827(18)
C18 C 0.56169(15) -0.2333(4) -0.22006(17)
C19 C 0.81194(14) 0.0481(4) -0.10585(15)
N4 N 0.94432(13) 0.2770(4) -0.00040(13)
N5 N 0.89088(13) 0.2145(4) 0.05397(13)
N6 N 0.80763(13) 0.0710(4) -0.00956(13)
N7 N 0.89471(11) 0.1744(4) -0.10155(12)
C20 C 0.93568(18) 0.2036(5) -0.18413(18)
H1 H 0.455(2) 0.322(4) -0.049(2)
H2 H 0.300(2) 0.077(4) -0.142(2)
H3 H 0.153(2) 0.295(4) -0.184(2)
H4 H 0.141(2) 0.283(4) -0.312(2)
H5 H 0.182(2) 0.647(4) -0.196(2)
H6 H 0.227(2) 0.621(4) -0.282(2)
H7 H 0.453(2) 0.297(4) -0.239(2)
H8 H 0.406(2) -0.014(3) -0.398(2)
H9 H 0.438(2) 0.428(5) -0.452(2)
H10 H 0.412(2) 0.222(4) -0.534(2)
H11 H 0.281(2) 0.630(4) -0.457(2)
H12 H 0.091(2) 0.672(5) -0.522(2)
H13 H -0.037(2) 0.400(4) -0.620(2)
H14 H 0.028(2) 0.072(5) -0.663(7)
H15 H 0.220(2) 0.024(5) -0.600(2)
H16 H 0.764(2) -0.085(4) -0.260(2)
H17 H 0.832(2) -0.369(4) -0.097(2)
H18 H 0.736(2) -0.433(5) -0.227(2)
H19 H 0.683(2) -0.294(4) -0.054(2)
H20 H 0.635(2) -0.512(5) -0.131(2)
H21 H 0.514(2) -0.317(4) -0.293(2)
H22 H 0.511(2) -0.170(4) -0.194(2)
H23 H 0.981(2) 0.338(5) -0.166(2)
H24 H 0.984(2) 0.086(5) -0.177(2)
H25 H 0.871(2) 0.215(5) -0.259(2)
loop_
_geom_bond_atom_site_label_1
_geom_bond_atom_site_label_2
_geom_bond_site_symmetry_1
_geom_bond_site_symmetry_2
N1 C1 1_555 1_555
C1 C2 1_555 1_555
C2 C3 1_555 1_555
C3 C4 1_555 1_555
C4 N1 1_555 1_555
O1 C4 1_555 1_555
C5 C1 1_555 1_555
O2 C5 1_555 1_555
N2 C5 1_555 1_555
C6 N2 1_555 1_555
C7 C6 1_555 1_555
C8 C7 1_555 1_555
C9 C8 1_555 1_555
C10 C9 1_555 1_555
C11 C10 1_555 1_555
C12 C11 1_555 1_555
C13 C8 1_555 1_555
C14 C6 1_555 1_555
O3 C14 1_555 1_555
N3 C14 1_555 1_555
C15 N3 1_555 1_555
C16 C15 1_555 1_555
C17 C16 1_555 1_555
C18 N3 1_555 1_555
C19 C15 1_555 1_555
N4 N5 1_555 1_555
N5 N6 1_555 1_555
N6 C19 1_555 1_555
N7 C19 1_555 1_555
C20 N7 1_555 1_555
H1 N1 1_555 1_555
H2 C1 1_555 1_555
H3 C2 1_555 1_555
H4 C2 1_555 1_555
H5 C3 1_555 1_555
H6 C3 1_555 1_555
H7 N2 1_555 1_555
H8 C6 1_555 1_555
H9 C7 1_555 1_555
H10 C7 1_555 1_555
H11 C9 1_555 1_555
H12 C10 1_555 1_555
H13 C11 1_555 1_555
H14 C12 1_555 1_555
H15 C13 1_555 1_555
H16 C15 1_555 1_555
H17 C16 1_555 1_555
H18 C16 1_555 1_555
H19 C17 1_555 1_555
H20 C17 1_555 1_555
H21 C18 1_555 1_555
H22 C18 1_555 1_555
H23 C20 1_555 1_555
H24 C20 1_555 1_555
H25 C20 1_555 1_555
C12 C13 1_555 1_555
C17 C18 1_555 1_555
N4 N7 1_555 1_555

#END
