
#######################################################################
#
#                 Cambridge Crystallographic Data Centre
#                                CCDC 
#
#######################################################################
#
# If this CIF has been generated from an entry in the Cambridge 
# Structural Database, then it will include bibliographic, chemical, 
# crystal, experimental, refinement or atomic coordinate data resulting 
# from the CCDC's data processing and validation procedures.
#
#######################################################################

data_ZIKSUK
_chemical_name_common            
1-(3-methylbenzoyl)-3-(2,3-difluoroanilino)thiourea
_chemical_formula_moiety         'C15 H12 F2 N2 O1 S1'
_chemical_name_systematic        
N-[(2,3-difluorophenyl)carbamothioyl]-3-methylbenzamide
_symmetry_cell_setting           monoclinic
_symmetry_space_group_name_H-M   'P 21/c'
_symmetry_Int_Tables_number      14
_space_group_name_Hall           '-P 2ybc'
loop_
_symmetry_equiv_pos_site_id
_symmetry_equiv_pos_as_xyz
1 x,y,z
2 -x,1/2+y,1/2-z
3 -x,-y,-z
4 x,1/2-y,1/2+z
_cell_length_a                   3.9606(6)
_cell_length_b                   15.356(3)
_cell_length_c                   23.110(4)
_cell_angle_alpha                90
_cell_angle_beta                 94.608(3)
_cell_angle_gamma                90
_cell_volume                     1400.98
_exptl_crystal_colour            colorless
_exptl_crystal_description       needle
_cell_formula_units_Z            4
_exptl_crystal_recrystallization_method 'dichloromethane/methanol 1:3'
loop_
_atom_site_label
_atom_site_type_symbol
_atom_site_fract_x
_atom_site_fract_y
_atom_site_fract_z
S1 S 0.23943(16) 0.42931(3) 0.43712(2)
F1 F 0.5190(7) 0.60411(11) 0.25021(8)
F2 F 0.7281(7) 0.50905(13) 0.16260(8)
N1 N 0.3269(5) 0.53695(11) 0.34745(8)
H1 H 0.3130 0.5904 0.3365
N2 N 0.1458(5) 0.59821(11) 0.43027(7)
H2 H 0.0989 0.5912 0.4657
O1 O 0.1604(5) 0.70014(10) 0.35880(7)
C1 C 0.5300(7) 0.51671(16) 0.25495(10)
C2 C 0.6358(7) 0.46763(18) 0.21027(10)
C3 C 0.6512(7) 0.37980(18) 0.21361(11)
H3 H 0.7238 0.3467 0.1833
C4 C 0.5571(9) 0.34150(18) 0.26275(12)
H4 H 0.5655 0.2811 0.2657
C5 C 0.4493(8) 0.38900(16) 0.30854(12)
H5 H 0.3869 0.3605 0.3416
C6 C 0.4342(6) 0.47888(14) 0.30534(9)
C7 C 0.2428(5) 0.52288(13) 0.40172(9)
C8 C 0.1154(6) 0.68234(13) 0.40925(9)
C9 C 0.0239(5) 0.75064(13) 0.45084(9)
C10 C -0.1472(6) 0.82383(14) 0.42803(11)
H6 H -0.2077 0.8278 0.3884
C11 C -0.2256(6) 0.89014(14) 0.46465(12)
H7 H -0.3416 0.9389 0.4497
C12 C -0.1335(6) 0.88478(14) 0.52329(12)
H8 H -0.1893 0.9301 0.5475
C13 C 0.0407(6) 0.81325(13) 0.54709(10)
C14 C 0.1164(5) 0.74628(13) 0.50982(9)
H9 H 0.2317 0.6975 0.5248
C15 C 0.1478(7) 0.80796(17) 0.61087(11)
H10 H 0.3813 0.7908 0.6162
H11 H 0.0104 0.7658 0.6287
H12 H 0.1200 0.8639 0.6284
loop_
_geom_bond_atom_site_label_1
_geom_bond_atom_site_label_2
_geom_bond_site_symmetry_1
_geom_bond_site_symmetry_2
S1 C7 1_555 1_555
F1 C1 1_555 1_555
F2 C2 1_555 1_555
N1 H1 1_555 1_555
N2 H2 1_555 1_555
O1 C8 1_555 1_555
C1 C2 1_555 1_555
C2 C3 1_555 1_555
C3 H3 1_555 1_555
C4 C3 1_555 1_555
H4 C4 1_555 1_555
C5 C4 1_555 1_555
H5 C5 1_555 1_555
C6 N1 1_555 1_555
C7 N1 1_555 1_555
C8 N2 1_555 1_555
C9 C8 1_555 1_555
C10 C9 1_555 1_555
H6 C10 1_555 1_555
C11 C10 1_555 1_555
H7 C11 1_555 1_555
C12 C11 1_555 1_555
H8 C12 1_555 1_555
C13 C12 1_555 1_555
C14 C9 1_555 1_555
H9 C14 1_555 1_555
C15 C13 1_555 1_555
H10 C15 1_555 1_555
H11 C15 1_555 1_555
H12 C15 1_555 1_555
N2 C7 1_555 1_555
C1 C6 1_555 1_555
C5 C6 1_555 1_555
C13 C14 1_555 1_555

#END
