
#######################################################################
#
#                 Cambridge Crystallographic Data Centre
#                                CCDC 
#
#######################################################################
#
# If this CIF has been generated from an entry in the Cambridge 
# Structural Database, then it will include bibliographic, chemical, 
# crystal, experimental, refinement or atomic coordinate data resulting 
# from the CCDC's data processing and validation procedures.
#
#######################################################################

data_ZILMIT
_chemical_formula_moiety         'C26 H23 O2 P1'
_chemical_name_systematic        
(2',6'-dimethoxy[1,1'-biphenyl]-2-yl)(diphenyl)phosphane
_symmetry_cell_setting           monoclinic
_symmetry_space_group_name_H-M   'P 21/n'
_symmetry_Int_Tables_number      14
_space_group_name_Hall           '-P 2yn'
loop_
_symmetry_equiv_pos_site_id
_symmetry_equiv_pos_as_xyz
1 x,y,z
2 1/2-x,1/2+y,1/2-z
3 -x,-y,-z
4 1/2+x,1/2-y,1/2+z
_cell_length_a                   8.4766(4)
_cell_length_b                   18.0301(8)
_cell_length_c                   14.2702(6)
_cell_angle_alpha                90
_cell_angle_beta                 103.5777(13)
_cell_angle_gamma                90
_cell_volume                     2120.02
_exptl_crystal_colour            colorless
_exptl_crystal_description       block
_cell_formula_units_Z            4
loop_
_atom_site_label
_atom_site_type_symbol
_atom_site_fract_x
_atom_site_fract_y
_atom_site_fract_z
P1 P 0.55953(4) 1.04767(2) 0.76948(2)
C1 C 0.52908(19) 0.88968(8) 0.67433(10)
C2 C 0.3766(2) 0.85602(8) 0.65383(11)
C3 C 0.2884(2) 0.84723(10) 0.55906(12)
H1 H 0.1863 0.8253 0.5457
C4 C 0.3554(2) 0.87164(10) 0.48536(12)
H2 H 0.2960 0.8664 0.4220
C5 C 0.5064(2) 0.90329(9) 0.50226(11)
H3 H 0.5493 0.9190 0.4513
C6 C 0.5942(2) 0.91145(8) 0.59711(10)
C7 C 0.1632(3) 0.80310(13) 0.71620(16)
H4 H 0.1423 0.7879 0.7766
H5 H 0.0872 0.8410 0.6879
H6 H 0.1516 0.7613 0.6735
C8 C 0.8316(3) 0.94935(11) 0.54717(14)
H7 H 0.9378 0.9691 0.5742
H8 H 0.8416 0.9025 0.5170
H9 H 0.7722 0.9833 0.5000
C9 C 0.62915(18) 0.89542(8) 0.77583(10)
C10 C 0.7081(2) 0.83211(9) 0.81795(12)
H10 H 0.6938 0.7878 0.7836
C11 C 0.8076(2) 0.83333(10) 0.90984(12)
H11 H 0.8607 0.7904 0.9365
C12 C 0.8274(2) 0.89826(10) 0.96146(11)
H12 H 0.8941 0.8995 1.0233
C13 C 0.74821(18) 0.96153(8) 0.92149(10)
H13 H 0.7619 1.0052 0.9572
C14 C 0.64784(16) 0.96174(7) 0.82860(9)
C15 C 0.34375(17) 1.04110(8) 0.76757(10)
C16 C 0.2728(2) 0.98726(10) 0.81341(13)
H14 H 0.3364 0.9500 0.8484
C17 C 0.1068(2) 0.98887(12) 0.80714(17)
H15 H 0.0593 0.9524 0.8375
C18 C 0.0130(2) 1.04407(15) 0.75642(19)
H16 H -0.0982 1.0447 0.7520
C19 C 0.0821(2) 1.09832(15) 0.71219(17)
H17 H 0.0186 1.1364 0.6792
C20 C 0.2458(2) 1.09624(11) 0.71672(13)
H18 H 0.2917 1.1325 0.6851
C21 C 0.62060(17) 1.11763(7) 0.86473(10)
C22 C 0.5497(2) 1.12548(9) 0.94243(11)
H19 H 0.4671 1.0934 0.9490
C23 C 0.6004(2) 1.18052(10) 1.01018(12)
H20 H 0.5526 1.1850 1.0622
C24 C 0.7211(3) 1.22847(10) 1.00082(13)
H21 H 0.7544 1.2657 1.0463
C25 C 0.7929(3) 1.22171(10) 0.92466(14)
H22 H 0.8758 1.2539 0.9188
C26 C 0.7418(2) 1.16702(9) 0.85675(12)
H23 H 0.7897 1.1632 0.8046
O1 O 0.32430(15) 0.83153(7) 0.73188(8)
O2 O 0.74780(15) 0.93920(7) 0.62163(8)
loop_
_geom_bond_atom_site_label_1
_geom_bond_atom_site_label_2
_geom_bond_site_symmetry_1
_geom_bond_site_symmetry_2
P1 C14 1_555 1_555
C1 C2 1_555 1_555
C2 C3 1_555 1_555
C3 H1 1_555 1_555
C4 C3 1_555 1_555
H2 C4 1_555 1_555
C5 C4 1_555 1_555
H3 C5 1_555 1_555
C6 C1 1_555 1_555
C7 H4 1_555 1_555
H5 C7 1_555 1_555
H6 C7 1_555 1_555
C8 H7 1_555 1_555
H8 C8 1_555 1_555
H9 C8 1_555 1_555
C9 C1 1_555 1_555
C10 C9 1_555 1_555
H10 C10 1_555 1_555
C11 C10 1_555 1_555
H11 C11 1_555 1_555
C12 C11 1_555 1_555
H12 C12 1_555 1_555
C13 C12 1_555 1_555
H13 C13 1_555 1_555
C14 C9 1_555 1_555
C15 P1 1_555 1_555
C16 C15 1_555 1_555
H14 C16 1_555 1_555
C17 C16 1_555 1_555
H15 C17 1_555 1_555
C18 C17 1_555 1_555
H16 C18 1_555 1_555
C19 C18 1_555 1_555
H17 C19 1_555 1_555
C20 C15 1_555 1_555
H18 C20 1_555 1_555
C21 P1 1_555 1_555
C22 C21 1_555 1_555
H19 C22 1_555 1_555
C23 C22 1_555 1_555
H20 C23 1_555 1_555
C24 C23 1_555 1_555
H21 C24 1_555 1_555
C25 C24 1_555 1_555
H22 C25 1_555 1_555
C26 C21 1_555 1_555
H23 C26 1_555 1_555
O1 C2 1_555 1_555
O2 C6 1_555 1_555
C5 C6 1_555 1_555
C7 O1 1_555 1_555
C8 O2 1_555 1_555
C13 C14 1_555 1_555
C19 C20 1_555 1_555
C25 C26 1_555 1_555

#END
