
#######################################################################
#
#                 Cambridge Crystallographic Data Centre
#                                CCDC 
#
#######################################################################
#
# If this CIF has been generated from an entry in the Cambridge 
# Structural Database, then it will include bibliographic, chemical, 
# crystal, experimental, refinement or atomic coordinate data resulting 
# from the CCDC's data processing and validation procedures.
#
#######################################################################

data_ZIMBOP
_chemical_formula_moiety         'C33 H36 Cl2 N2 O3'
_chemical_name_systematic        
3-{1,3-bis[2,6-bis(propan-2-yl)phenyl]-1,3-dihydro-2H-imidazol-2-ylidene}-5,6-dichlorocyclohex-5-ene-1,2,4-trione
_symmetry_cell_setting           monoclinic
_symmetry_space_group_name_H-M   'P 21/n'
_symmetry_Int_Tables_number      14
_space_group_name_Hall           '-P 2yn'
loop_
_symmetry_equiv_pos_site_id
_symmetry_equiv_pos_as_xyz
1 x,y,z
2 1/2-x,1/2+y,1/2-z
3 -x,-y,-z
4 1/2+x,1/2-y,1/2+z
_cell_length_a                   9.42820(10)
_cell_length_b                   14.6095(2)
_cell_length_c                   23.4717(3)
_cell_angle_alpha                90
_cell_angle_beta                 99.2723(7)
_cell_angle_gamma                90
_cell_volume                     3190.78
_exptl_crystal_colour            red
_exptl_crystal_description       block
_cell_formula_units_Z            4
loop_
_atom_site_label
_atom_site_type_symbol
_atom_site_fract_x
_atom_site_fract_y
_atom_site_fract_z
C1 C 0.1414(2) 0.73006(14) 0.90804(9)
C2 C 0.1623(2) 0.78212(16) 0.95883(9)
C3 C 0.0919(3) 0.7517(2) 1.00310(11)
H1 H 0.1020 0.7848 1.0374
C4 C 0.0085(3) 0.6748(2) 0.99765(12)
H2 H -0.0378 0.6567 1.0279
C5 C -0.0075(3) 0.6236(2) 0.94735(12)
H3 H -0.0624 0.5705 0.9446
C6 C 0.0576(2) 0.65076(15) 0.90076(10)
C7 C 0.2513(3) 0.86821(18) 0.96748(11)
H4 H 0.3035 0.8742 0.9348
C8 C 0.1568(5) 0.9524(2) 0.96834(16)
H5 H 0.0905 0.9560 0.9328
H6 H 0.2158 1.0063 0.9727
H7 H 0.1043 0.9481 1.0001
C9 C 0.3625(4) 0.8652(3) 1.02309(13)
H8 H 0.3138 0.8651 1.0560
H9 H 0.4238 0.9179 1.0247
H10 H 0.4195 0.8107 1.0234
C10 C 0.0310(3) 0.59562(16) 0.84540(11)
H11 H 0.0928 0.6201 0.8192
C11 C -0.1248(4) 0.6056(3) 0.81627(16)
H12 H -0.1875 0.5914 0.8435
H13 H -0.1434 0.5643 0.7841
H14 H -0.1416 0.6673 0.8029
C12 C 0.0676(4) 0.4952(2) 0.85588(16)
H15 H -0.0011 0.4677 0.8766
H16 H 0.1621 0.4899 0.8781
H17 H 0.0651 0.4646 0.8195
C13 C 0.1458(2) 0.83900(14) 0.82655(9)
H18 H 0.0665 0.8735 0.8324
C14 C 0.2264(2) 0.85239(14) 0.78516(9)
H19 H 0.2142 0.8981 0.7572
C15 C 0.4507(2) 0.78320(14) 0.76019(9)
C16 C 0.5780(3) 0.82612(16) 0.78512(10)
C17 C 0.6895(3) 0.8282(2) 0.75259(14)
H20 H 0.7755 0.8569 0.7676
C18 C 0.6749(4) 0.7891(2) 0.69926(15)
H21 H 0.7512 0.7904 0.6786
C19 C 0.5482(4) 0.7476(2) 0.67582(12)
H22 H 0.5405 0.7215 0.6393
C20 C 0.4299(3) 0.74348(15) 0.70520(10)
C21 C 0.5947(3) 0.8737(2) 0.84314(12)
H23 H 0.5172 0.8518 0.8629
C22 C 0.5743(6) 0.9770(3) 0.83430(18)
H24 H 0.6549 1.0018 0.8192
H25 H 0.5676 1.0055 0.8706
H26 H 0.4877 0.9883 0.8076
C23 C 0.7368(4) 0.8524(4) 0.88216(17)
H27 H 0.7547 0.7877 0.8818
H28 H 0.7315 0.8718 0.9209
H29 H 0.8135 0.8844 0.8683
C24 C 0.2898(4) 0.70254(17) 0.67650(11)
H30 H 0.229(4) 0.697(2) 0.7055(15)
C25 C 0.2075(5) 0.7736(3) 0.63484(15)
H31 H 0.2518 0.7785 0.6009
H32 H 0.2101 0.8321 0.6537
H33 H 0.1094 0.7544 0.6241
C26 C 0.3298(9) 0.6150(3) 0.6504(4)
H34 H 0.3661 0.6279 0.6153
H35 H 0.2465 0.5765 0.6421
H36 H 0.4024 0.5844 0.6770
C27 C 0.3154(2) 0.73186(12) 0.83742(8)
C28 C 0.4056(2) 0.65389(13) 0.85858(8)
C29 C 0.4056(2) 0.57532(14) 0.82308(9)
C30 C 0.5136(2) 0.49889(13) 0.84485(10)
C31 C 0.5869(2) 0.50322(13) 0.90521(10)
C32 C 0.5740(2) 0.57710(14) 0.93760(9)
C33 C 0.4865(2) 0.66011(15) 0.91481(9)
Cl1 Cl 0.65632(7) 0.58422(6) 1.00672(3)
Cl2 Cl 0.68963(8) 0.41107(5) 0.93097(4)
N1 N 0.20201(18) 0.76456(11) 0.85905(7)
N2 N 0.33077(18) 0.78553(11) 0.79196(7)
O1 O 0.3287(2) 0.56185(11) 0.77661(7)
O2 O 0.5441(5) 0.4412(2) 0.80897(17)
O3 O 0.4894(2) 0.72798(13) 0.94574(7)
C34? C 0.2703(10) 0.6184(4) 0.6408(3)
H37? H 0.2916 0.6314 0.6030
H38? H 0.1727 0.5978 0.6378
H39? H 0.3340 0.5716 0.6586
O4? O 0.5231(8) 0.4237(3) 0.8203(3)
loop_
_geom_bond_atom_site_label_1
_geom_bond_atom_site_label_2
_geom_bond_site_symmetry_1
_geom_bond_site_symmetry_2
C1 C2 1_555 1_555
C2 C3 1_555 1_555
C3 H1 1_555 1_555
C4 C3 1_555 1_555
H2 C4 1_555 1_555
C5 C4 1_555 1_555
H3 C5 1_555 1_555
C6 C1 1_555 1_555
C7 C2 1_555 1_555
H4 C7 1_555 1_555
C8 C7 1_555 1_555
H5 C8 1_555 1_555
H6 C8 1_555 1_555
H7 C8 1_555 1_555
C9 C7 1_555 1_555
H8 C9 1_555 1_555
H9 C9 1_555 1_555
H10 C9 1_555 1_555
C10 C6 1_555 1_555
H11 C10 1_555 1_555
C11 C10 1_555 1_555
H12 C11 1_555 1_555
H13 C11 1_555 1_555
H14 C11 1_555 1_555
C12 C10 1_555 1_555
H15 C12 1_555 1_555
H16 C12 1_555 1_555
H17 C12 1_555 1_555
C13 H18 1_555 1_555
C14 C13 1_555 1_555
H19 C14 1_555 1_555
C15 C16 1_555 1_555
C16 C17 1_555 1_555
C17 H20 1_555 1_555
C18 C17 1_555 1_555
H21 C18 1_555 1_555
C19 C18 1_555 1_555
H22 C19 1_555 1_555
C20 C15 1_555 1_555
C21 C16 1_555 1_555
H23 C21 1_555 1_555
C22 C21 1_555 1_555
H24 C22 1_555 1_555
H25 C22 1_555 1_555
H26 C22 1_555 1_555
C23 C21 1_555 1_555
H27 C23 1_555 1_555
H28 C23 1_555 1_555
H29 C23 1_555 1_555
C24 C20 1_555 1_555
H30 C24 1_555 1_555
C25 C24 1_555 1_555
H31 C25 1_555 1_555
H32 C25 1_555 1_555
H33 C25 1_555 1_555
C26 C24 1_555 1_555
H34 C26 1_555 1_555
H35 C26 1_555 1_555
H36 C26 1_555 1_555
C27 C28 1_555 1_555
C28 C29 1_555 1_555
C29 C30 1_555 1_555
C30 C31 1_555 1_555
C31 C32 1_555 1_555
C32 C33 1_555 1_555
C33 C28 1_555 1_555
Cl1 C32 1_555 1_555
Cl2 C31 1_555 1_555
N1 C1 1_555 1_555
N2 C14 1_555 1_555
O1 C29 1_555 1_555
O2 C30 1_555 1_555
O3 C33 1_555 1_555
C5 C6 1_555 1_555
C13 N1 1_555 1_555
C15 N2 1_555 1_555
C19 C20 1_555 1_555
C27 N1 1_555 1_555
C27 N2 1_555 1_555

#END
