
#######################################################################
#
#                 Cambridge Crystallographic Data Centre
#                                CCDC 
#
#######################################################################
#
# If this CIF has been generated from an entry in the Cambridge 
# Structural Database, then it will include bibliographic, chemical, 
# crystal, experimental, refinement or atomic coordinate data resulting 
# from the CCDC's data processing and validation procedures.
#
#######################################################################

data_ZIMCIK
_chemical_formula_moiety         'C16 H9 N1 O2'
_chemical_name_systematic        indeno[2,1-a]quinolizine-6,12-dione
_symmetry_cell_setting           monoclinic
_symmetry_space_group_name_H-M   'P 21/n'
_symmetry_Int_Tables_number      14
_space_group_name_Hall           '-P 2yn'
loop_
_symmetry_equiv_pos_site_id
_symmetry_equiv_pos_as_xyz
1 x,y,z
2 1/2-x,1/2+y,1/2-z
3 -x,-y,-z
4 1/2+x,1/2-y,1/2+z
_cell_length_a                   7.3673(15)
_cell_length_b                   7.5802(15)
_cell_length_c                   19.657(4)
_cell_angle_alpha                90
_cell_angle_beta                 95.16(3)
_cell_angle_gamma                90
_cell_volume                     1093.31
_exptl_crystal_colour            yellow
_exptl_crystal_description       plate
_cell_formula_units_Z            4
loop_
_atom_site_label
_atom_site_type_symbol
_atom_site_fract_x
_atom_site_fract_y
_atom_site_fract_z
N1 N 0.30904(18) 0.45839(19) -0.11229(7)
O1 O 0.2511(2) 0.71440(18) -0.17377(6)
O2 O 0.29160(18) 0.23683(17) 0.09956(6)
C1 C 0.3552(2) 0.3782(3) -0.17165(9)
H1 H 0.3469 0.4422 -0.2122
C2 C 0.4118(2) 0.2095(3) -0.17187(9)
H2 H 0.4427 0.1580 -0.2122
C3 C 0.4244(2) 0.1111(3) -0.11105(9)
H3 H 0.4658 -0.0048 -0.1107
C4 C 0.3754(2) 0.1865(2) -0.05262(9)
H4 H 0.3818 0.1204 -0.0126
C5 C 0.3151(2) 0.3629(2) -0.05154(8)
C6 C 0.2621(2) 0.4494(2) 0.00636(8)
C7 C 0.2523(2) 0.3831(2) 0.07578(9)
C8 C 0.1842(2) 0.5361(2) 0.11482(8)
C9 C 0.1508(2) 0.5477(3) 0.18274(9)
H5 H 0.1671 0.4505 0.2115
C10 C 0.0921(2) 0.7082(3) 0.20695(9)
H6 H 0.0669 0.7183 0.2523
C11 C 0.0706(2) 0.8535(3) 0.16415(10)
H7 H 0.0329 0.9604 0.1814
C12 C 0.1048(2) 0.8418(2) 0.09572(9)
H8 H 0.0910 0.9396 0.0671
C13 C 0.1595(2) 0.6815(2) 0.07147(8)
C14 C 0.2066(2) 0.6269(2) 0.00259(8)
C15 C 0.2009(2) 0.7211(2) -0.05658(9)
H9 H 0.1637 0.8384 -0.0569
C16 C 0.2511(2) 0.6425(2) -0.11793(9)
loop_
_geom_bond_atom_site_label_1
_geom_bond_atom_site_label_2
_geom_bond_site_symmetry_1
_geom_bond_site_symmetry_2
N1 C1 1_555 1_555
O1 C16 1_555 1_555
O2 C7 1_555 1_555
C1 H1 1_555 1_555
C2 C1 1_555 1_555
H2 C2 1_555 1_555
C3 C2 1_555 1_555
H3 C3 1_555 1_555
C4 C3 1_555 1_555
H4 C4 1_555 1_555
C5 N1 1_555 1_555
C6 C5 1_555 1_555
C7 C6 1_555 1_555
C8 C7 1_555 1_555
C9 C8 1_555 1_555
H5 C9 1_555 1_555
C10 C9 1_555 1_555
H6 C10 1_555 1_555
C11 C10 1_555 1_555
H7 C11 1_555 1_555
C12 C11 1_555 1_555
H8 C12 1_555 1_555
C13 C8 1_555 1_555
C14 C6 1_555 1_555
C15 C14 1_555 1_555
H9 C15 1_555 1_555
C16 N1 1_555 1_555
C4 C5 1_555 1_555
C12 C13 1_555 1_555
C13 C14 1_555 1_555
C15 C16 1_555 1_555

#END
