
#######################################################################
#
#                 Cambridge Crystallographic Data Centre
#                                CCDC 
#
#######################################################################
#
# If this CIF has been generated from an entry in the Cambridge 
# Structural Database, then it will include bibliographic, chemical, 
# crystal, experimental, refinement or atomic coordinate data resulting 
# from the CCDC's data processing and validation procedures.
#
#######################################################################

data_ZIMCUV
_chemical_name_common            'bis(Phenacetin) hydrochloride'
_chemical_formula_moiety         'C10 H14 N1 O2 1+,C10 H13 N1 O2,Cl1 1-'
_chemical_name_systematic        
'4-Ethoxy-N-(1-hydroxyethylidene)anilinium 1-((4-ethoxyphenyl)iminio)ethanolate chloride'
_symmetry_cell_setting           monoclinic
_symmetry_space_group_name_H-M   'C 2/c'
_symmetry_Int_Tables_number      15
_space_group_name_Hall           '-C 2yn'
loop_
_symmetry_equiv_pos_site_id
_symmetry_equiv_pos_as_xyz
1 x,y,z
2 -x,y,1/2-z
3 1/2+x,1/2+y,z
4 1/2-x,1/2+y,1/2-z
5 -x,-y,-z
6 x,-y,1/2+z
7 1/2-x,1/2-y,-z
8 1/2+x,1/2-y,1/2+z
_cell_length_a                   26.813(5)
_cell_length_b                   5.6138(11)
_cell_length_c                   13.838(3)
_cell_angle_alpha                90
_cell_angle_beta                 90.014(2)
_cell_angle_gamma                90
_cell_volume                     2082.93
_exptl_crystal_colour            colorless
_exptl_crystal_description       needle
_cell_formula_units_Z            4
loop_
_atom_site_label
_atom_site_type_symbol
_atom_site_fract_x
_atom_site_fract_y
_atom_site_fract_z
Cl1 Cl 0.0000 -0.14912(8) -0.2500
O1 O 0.25506(4) -0.4618(2) -0.10313(10)
O2 O 0.03204(4) -0.8648(2) -0.02986(10)
N1 N 0.04787(4) -0.5471(2) -0.12453(10)
H1 H 0.0340 -0.4372 -0.1610
C1 C 0.27992(6) -0.2682(4) -0.14965(14)
H2 H 0.2687 -0.1147 -0.1219
H3 H 0.2723 -0.2682 -0.2197
C2 C 0.33528(7) -0.3002(4) -0.13361(17)
H4 H 0.3534 -0.1691 -0.1646
H5 H 0.3460 -0.4519 -0.1618
H6 H 0.3423 -0.3002 -0.0641
C3 C 0.13064(7) -0.6996(3) -0.06865(14)
H7 H 0.1158 -0.8332 -0.0378
C4 C 0.01661(6) -0.7013(3) -0.08494(12)
C5 C 0.17463(6) -0.3057(3) -0.15707(14)
H8 H 0.1895 -0.1712 -0.1871
C6 C 0.18173(7) -0.6687(3) -0.06638(15)
H9 H 0.2019 -0.7831 -0.0344
C7 C 0.12322(6) -0.3368(3) -0.15978(14)
H10 H 0.1030 -0.2221 -0.1916
C8 C 0.20401(5) -0.4734(3) -0.11001(12)
C9 C 0.10097(5) -0.5332(3) -0.11659(11)
C10 C -0.03777(6) -0.6738(3) -0.10829(13)
H11 H -0.0569 -0.7972 -0.0746
H12 H -0.0427 -0.6901 -0.1782
H13 H -0.0492 -0.5163 -0.0874
H14 H 0.0106(13) -0.951(6) -0.012(3)
loop_
_geom_bond_atom_site_label_1
_geom_bond_atom_site_label_2
_geom_bond_site_symmetry_1
_geom_bond_site_symmetry_2
O1 C1 1_555 1_555
O2 C4 1_555 1_555
N1 H1 1_555 1_555
C1 H2 1_555 1_555
H3 C1 1_555 1_555
C2 C1 1_555 1_555
H4 C2 1_555 1_555
H5 C2 1_555 1_555
H6 C2 1_555 1_555
C3 H7 1_555 1_555
C4 N1 1_555 1_555
C5 H8 1_555 1_555
C6 C3 1_555 1_555
H9 C6 1_555 1_555
C7 C5 1_555 1_555
H10 C7 1_555 1_555
C8 O1 1_555 1_555
C9 N1 1_555 1_555
C10 C4 1_555 1_555
H11 C10 1_555 1_555
H12 C10 1_555 1_555
H13 C10 1_555 1_555
H14 O2 1_555 1_555
C3 C9 1_555 1_555
C5 C8 1_555 1_555
C6 C8 1_555 1_555
C7 C9 1_555 1_555

#END
