
#######################################################################
#
#                 Cambridge Crystallographic Data Centre
#                                CCDC 
#
#######################################################################
#
# If this CIF has been generated from an entry in the Cambridge 
# Structural Database, then it will include bibliographic, chemical, 
# crystal, experimental, refinement or atomic coordinate data resulting 
# from the CCDC's data processing and validation procedures.
#
#######################################################################

data_ZIMHEK
_chemical_formula_moiety         'C26 H21 Br1 N2 O2'
_chemical_name_systematic        
5-Benzyl-4-(4-bromophenyl)-3-methyl-1-phenyl-4,5-dihydropyrano[2,3-c]pyrazol-6(1H)-one
_symmetry_cell_setting           trigonal
_symmetry_space_group_name_H-M   'P 31 2 1'
_symmetry_Int_Tables_number      152
_space_group_name_Hall           'P 31 2"'
loop_
_symmetry_equiv_pos_site_id
_symmetry_equiv_pos_as_xyz
1 x,y,z
2 -y,x-y,1/3+z
3 -x+y,-x,2/3+z
4 y,x,-z
5 x-y,-y,2/3-z
6 -x,-x+y,1/3-z
_cell_length_a                   9.7691(4)
_cell_length_b                   9.7691(4)
_cell_length_c                   39.742(3)
_cell_angle_alpha                90
_cell_angle_beta                 90
_cell_angle_gamma                120
_cell_volume                     3284.65
_exptl_crystal_colour            colorless
_exptl_crystal_description       block
_cell_formula_units_Z            6
loop_
_atom_site_label
_atom_site_type_symbol
_atom_site_fract_x
_atom_site_fract_y
_atom_site_fract_z
Br1 Br 0.85446(4) 0.81888(4) 0.947025(10)
O1 O 0.2551(3) 0.1912(2) 0.83253(4)
O2 O 0.0806(2) 0.2251(2) 0.86111(4)
N1 N -0.0824(3) 0.2722(3) 0.89799(5)
N2 N -0.1028(3) 0.2825(3) 0.93210(5)
C1 C 0.2170(3) 0.1021(3) 0.89080(6)
H1 H 0.1193 -0.0037 0.8928
C2 C 0.1938(3) 0.1775(3) 0.85924(7)
C3 C 0.0309(3) 0.2346(3) 0.89287(6)
C4 C 0.0896(3) 0.2205(3) 0.92270(6)
C5 C 0.2262(3) 0.1912(3) 0.92396(6)
H2 H 0.2098 0.1193 0.9433
C6 C 0.3528(3) 0.0681(3) 0.88605(7)
H3 H 0.3448 0.0221 0.8634
H4 H 0.4547 0.1685 0.8873
C7 C 0.3498(3) -0.0457(3) 0.91263(6)
C8 C 0.2174(3) -0.1935(3) 0.91659(7)
H5 H 0.1278 -0.2236 0.9027
C9 C 0.2135(4) -0.2985(4) 0.94061(8)
H6 H 0.1207 -0.3984 0.9435
C10 C 0.3439(5) -0.2580(4) 0.96021(8)
H7 H 0.3424 -0.3308 0.9763
C11 C 0.4773(4) -0.1112(5) 0.95661(8)
H8 H 0.5669 -0.0821 0.9705
C12 C 0.4805(3) -0.0068(4) 0.93278(7)
H9 H 0.5734 0.0932 0.9301
C13 C 0.3832(3) 0.3445(3) 0.92912(6)
C14 C 0.4935(4) 0.3533(4) 0.95200(7)
H10 H 0.4724 0.2614 0.9643
C15 C 0.6342(4) 0.4924(4) 0.95754(7)
H11 H 0.7087 0.4964 0.9734
C16 C 0.6636(3) 0.6240(3) 0.93966(7)
C17 C 0.5599(4) 0.6191(3) 0.91592(8)
H12 H 0.5836 0.7105 0.9031
C18 C 0.4199(3) 0.4788(3) 0.91086(8)
H13 H 0.3473 0.4748 0.8944
C19 C 0.0011(3) 0.2514(3) 0.94689(6)
C20 C 0.0125(4) 0.2473(4) 0.98414(7)
H14 H -0.0495 0.1378 0.9920
H15 H -0.0287 0.3107 0.9943
H16 H 0.1234 0.2906 0.9907
C21 C -0.1706(3) 0.3059(3) 0.87414(6)
C22 C -0.2327(4) 0.2112(4) 0.84586(7)
H17 H -0.2167 0.1240 0.8423
C23 C -0.3177(3) 0.2449(4) 0.82293(8)
H18 H -0.3588 0.1815 0.8033
C24 C -0.3435(4) 0.3698(4) 0.82818(8)
H19 H -0.4038 0.3912 0.8125
C25 C -0.2811(3) 0.4634(4) 0.85632(8)
H20 H -0.2974 0.5504 0.8598
C26 C -0.1948(3) 0.4320(3) 0.87960(7)
H21 H -0.1528 0.4962 0.8990
loop_
_geom_bond_atom_site_label_1
_geom_bond_atom_site_label_2
_geom_bond_site_symmetry_1
_geom_bond_site_symmetry_2
Br1 C16 1_555 1_555
O1 C2 1_555 1_555
O2 C2 1_555 1_555
N1 N2 1_555 1_555
N2 C19 1_555 1_555
C1 H1 1_555 1_555
C2 C1 1_555 1_555
C3 O2 1_555 1_555
C4 C3 1_555 1_555
C5 C1 1_555 1_555
H2 C5 1_555 1_555
C6 C1 1_555 1_555
H3 C6 1_555 1_555
H4 C6 1_555 1_555
C7 C6 1_555 1_555
C8 C7 1_555 1_555
H5 C8 1_555 1_555
C9 C8 1_555 1_555
H6 C9 1_555 1_555
C10 C9 1_555 1_555
H7 C10 1_555 1_555
C11 C10 1_555 1_555
H8 C11 1_555 1_555
C12 C7 1_555 1_555
H9 C12 1_555 1_555
C13 C5 1_555 1_555
C14 C13 1_555 1_555
H10 C14 1_555 1_555
C15 C14 1_555 1_555
H11 C15 1_555 1_555
C16 C15 1_555 1_555
C17 C16 1_555 1_555
H12 C17 1_555 1_555
C18 C13 1_555 1_555
H13 C18 1_555 1_555
C19 C4 1_555 1_555
C20 C19 1_555 1_555
H14 C20 1_555 1_555
H15 C20 1_555 1_555
H16 C20 1_555 1_555
C21 N1 1_555 1_555
C22 C21 1_555 1_555
H17 C22 1_555 1_555
C23 C22 1_555 1_555
H18 C23 1_555 1_555
C24 C23 1_555 1_555
H19 C24 1_555 1_555
C25 C24 1_555 1_555
H20 C25 1_555 1_555
C26 C21 1_555 1_555
H21 C26 1_555 1_555
N1 C3 1_555 1_555
C4 C5 1_555 1_555
C11 C12 1_555 1_555
C17 C18 1_555 1_555
C25 C26 1_555 1_555

#END
