
#######################################################################
#
#                 Cambridge Crystallographic Data Centre
#                                CCDC 
#
#######################################################################
#
# If this CIF has been generated from an entry in the Cambridge 
# Structural Database, then it will include bibliographic, chemical, 
# crystal, experimental, refinement or atomic coordinate data resulting 
# from the CCDC's data processing and validation procedures.
#
#######################################################################

data_ZIMKOY
_chemical_formula_moiety         'C20 H21 F1 I1 N1 O4'
_chemical_name_systematic        
'diethyl {(3-fluorophenyl)[(4-iodophenyl)amino]methyl}propanedioate'
_symmetry_cell_setting           triclinic
_symmetry_space_group_name_H-M   'P -1'
_symmetry_Int_Tables_number      2
_space_group_name_Hall           '-P 1'
loop_
_symmetry_equiv_pos_site_id
_symmetry_equiv_pos_as_xyz
1 x,y,z
2 -x,-y,-z
_cell_length_a                   9.4348(9)
_cell_length_b                   10.9887(11)
_cell_length_c                   11.0193(10)
_cell_angle_alpha                93.243(2)
_cell_angle_beta                 102.030(2)
_cell_angle_gamma                109.765(2)
_cell_volume                     1041.46
_exptl_crystal_colour            colorless
_exptl_crystal_description       block
_cell_formula_units_Z            2
loop_
_atom_site_label
_atom_site_type_symbol
_atom_site_fract_x
_atom_site_fract_y
_atom_site_fract_z
I1 I 0.43471(3) 0.14919(2) -0.089569(16)
F1 F 0.8289(2) 0.4626(2) 0.7085(2)
O1 O -0.10225(17) 0.10754(15) 0.50944(17)
O2 O -0.00431(18) 0.31592(15) 0.47887(16)
O3 O 0.3131(2) 0.45119(17) 0.70368(18)
O4 O 0.14224(19) 0.31211(17) 0.79129(15)
N1 N 0.19390(19) 0.15503(16) 0.39914(16)
H1 H 0.147(3) 0.0787(14) 0.414(2)
C1 C 0.2500(2) 0.15718(19) 0.29253(18)
C2 C 0.1749(3) 0.0527(2) 0.1951(2)
H2 H 0.0887 -0.0162 0.2035
C3 C 0.2263(3) 0.0500(2) 0.0874(2)
H3 H 0.1757 -0.0208 0.0244
C4 C 0.3527(3) 0.1521(2) 0.0726(2)
C5 C 0.4263(3) 0.2572(2) 0.1660(2)
H4 H 0.5102 0.3269 0.1554
C6 C 0.3764(3) 0.2598(2) 0.2753(2)
H5 H 0.4279 0.3309 0.3379
C7 C 0.4338(2) 0.2469(2) 0.57367(18)
C8 C 0.4496(3) 0.1283(2) 0.5935(2)
H6 H 0.3638 0.0515 0.5666
C9 C 0.5915(3) 0.1223(3) 0.6528(2)
H7 H 0.5999 0.0419 0.6661
C10 C 0.7198(3) 0.2348(3) 0.6920(2)
H8 H 0.8157 0.2319 0.7314
C11 C 0.7025(3) 0.3502(3) 0.6716(3)
C12 C 0.5634(3) 0.3602(2) 0.6137(2)
H9 H 0.5565 0.4413 0.6017
C13 C 0.2768(2) 0.25210(19) 0.50945(18)
H10 H 0.2940 0.3388 0.4837
C14 C 0.1675(2) 0.23147(19) 0.59913(18)
H11 H 0.1662 0.1531 0.6378
C15 C 0.2201(2) 0.3458(2) 0.7025(2)
C16 C 0.1832(4) 0.4103(3) 0.8987(3)
H12 H 0.1615 0.4864 0.8726
H13 H 0.2929 0.4372 0.9384
C17 C 0.0887(5) 0.3521(4) 0.9886(3)
H14 H -0.0188 0.3359 0.9522
H15 H 0.1227 0.4117 1.0649
H16 H 0.1017 0.2714 1.0063
C18 C 0.0038(2) 0.2092(2) 0.52457(19)
C19 C -0.1495(3) 0.3034(3) 0.3907(3)
H17 H -0.1598 0.3882 0.3890
H18 H -0.2367 0.2457 0.4180
C20 C -0.1514(4) 0.2505(4) 0.2639(3)
H19 H -0.2411 0.2525 0.2051
H20 H -0.1551 0.1621 0.2634
H21 H -0.0593 0.3027 0.2407
loop_
_geom_bond_atom_site_label_1
_geom_bond_atom_site_label_2
_geom_bond_site_symmetry_1
_geom_bond_site_symmetry_2
I1 C4 1_555 1_555
F1 C11 1_555 1_555
O1 C18 1_555 1_555
O2 C18 1_555 1_555
O3 C15 1_555 1_555
O4 C15 1_555 1_555
N1 H1 1_555 1_555
C1 N1 1_555 1_555
C2 C1 1_555 1_555
H2 C2 1_555 1_555
C3 C2 1_555 1_555
H3 C3 1_555 1_555
C4 C3 1_555 1_555
C5 C4 1_555 1_555
H4 C5 1_555 1_555
C6 C1 1_555 1_555
H5 C6 1_555 1_555
C7 C8 1_555 1_555
C8 H6 1_555 1_555
C9 C8 1_555 1_555
H7 C9 1_555 1_555
C10 C9 1_555 1_555
H8 C10 1_555 1_555
C11 C10 1_555 1_555
C12 C7 1_555 1_555
H9 C12 1_555 1_555
C13 N1 1_555 1_555
H10 C13 1_555 1_555
C14 C13 1_555 1_555
H11 C14 1_555 1_555
C15 C14 1_555 1_555
C16 O4 1_555 1_555
H12 C16 1_555 1_555
H13 C16 1_555 1_555
C17 C16 1_555 1_555
H14 C17 1_555 1_555
H15 C17 1_555 1_555
H16 C17 1_555 1_555
C18 C14 1_555 1_555
C19 O2 1_555 1_555
H17 C19 1_555 1_555
H18 C19 1_555 1_555
C20 C19 1_555 1_555
H19 C20 1_555 1_555
H20 C20 1_555 1_555
H21 C20 1_555 1_555
C5 C6 1_555 1_555
C7 C13 1_555 1_555
C11 C12 1_555 1_555

#END
