
#######################################################################
#
#                 Cambridge Crystallographic Data Centre
#                                CCDC 
#
#######################################################################
#
# If this CIF has been generated from an entry in the Cambridge 
# Structural Database, then it will include bibliographic, chemical, 
# crystal, experimental, refinement or atomic coordinate data resulting 
# from the CCDC's data processing and validation procedures.
#
#######################################################################

data_ZIMTOH
_chemical_formula_moiety         'C25 H22 N2 O3'
_chemical_name_systematic        
(2R)-2-((3S)-1-benzyl-3-hydroxy-6-methoxy-2-oxo-2,3-dihydro-1H-indol-3-yl)-2-phenylpropanenitrile
_symmetry_cell_setting           orthorhombic
_symmetry_space_group_name_H-M   'P 21 21 21'
_symmetry_Int_Tables_number      19
_space_group_name_Hall           'P 2ac 2ab'
loop_
_symmetry_equiv_pos_site_id
_symmetry_equiv_pos_as_xyz
1 x,y,z
2 1/2-x,-y,1/2+z
3 -x,1/2+y,1/2-z
4 1/2+x,1/2-y,-z
_cell_length_a                   12.23948(17)
_cell_length_b                   17.4268(2)
_cell_length_c                   29.2788(3)
_cell_angle_alpha                90
_cell_angle_beta                 90
_cell_angle_gamma                90
_cell_volume                     6245.02
_exptl_crystal_colour            colorless
_exptl_crystal_description       block
_chemical_melting_point          '116-120 deg.C'
_cell_formula_units_Z            12
_exptl_crystal_recrystallization_method 'ethyl acetate/petroleum ether'
loop_
_atom_site_label
_atom_site_type_symbol
_atom_site_fract_x
_atom_site_fract_y
_atom_site_fract_z
O1 O 0.3497(2) 0.52111(12) 0.28295(8)
H1 H 0.3541 0.5442 0.3073
O2 O 0.4962(3) 0.47462(14) 0.21060(7)
O3 O 0.7063(2) 0.3999(2) 0.42849(9)
N1 N 0.6015(2) 0.44320(15) 0.27278(8)
N2 N 0.2428(3) 0.41241(19) 0.19276(12)
C1 C 0.3922(2) 0.30785(15) 0.26968(10)
C2 C 0.4721(2) 0.43930(15) 0.32964(9)
C3 C 0.5832(3) 0.43188(16) 0.31969(9)
C4 C 0.4367(3) 0.28215(17) 0.22895(10)
H2 H 0.4289 0.3115 0.2026
C5 C 0.4393(3) 0.43758(16) 0.37466(9)
H3 H 0.3661 0.4446 0.3822
C6 C 0.4053(3) 0.26259(19) 0.30840(10)
H4 H 0.3770 0.2791 0.3362
C7 C 0.5056(3) 0.45793(15) 0.25045(10)
C8 C 0.3314(2) 0.38467(16) 0.27230(9)
C9 C 0.4599(3) 0.1934(2) 0.30605(13)
H5 H 0.4666 0.1632 0.3321
C10 C 0.4104(3) 0.45218(15) 0.28565(9)
C11 C 0.7358(3) 0.31742(19) 0.24052(12)
H6 H 0.6629 0.3089 0.2479
C12 C 0.7777(3) 0.39043(18) 0.24258(10)
C13 C 0.6601(3) 0.4174(2) 0.35259(11)
H7 H 0.7332 0.4105 0.3450
C14 C 0.2847(3) 0.40177(18) 0.22684(11)
C15 C 0.4929(3) 0.21276(18) 0.22699(12)
H8 H 0.5227 0.1962 0.1995
C16 C 0.2330(3) 0.3819(2) 0.30537(12)
H9 H 0.1826 0.3431 0.2955
H10 H 0.1971 0.4308 0.3056
H11 H 0.2583 0.3700 0.3356
C17 C 0.6248(3) 0.4134(2) 0.39799(11)
C18 C 0.5043(3) 0.16875(17) 0.26556(14)
H12 H 0.5419 0.1224 0.2643
C19 C 0.8875(3) 0.4014(2) 0.23280(14)
H13 H 0.9176 0.4503 0.2349
C20 C 0.7080(3) 0.45953(18) 0.25342(12)
H14 H 0.7478 0.4919 0.2746
H15 H 0.6977 0.4887 0.2255
C21 C 0.9097(3) 0.2677(2) 0.21696(14)
H16 H 0.9532 0.2267 0.2079
C22 C 0.8016(4) 0.2560(2) 0.22750(14)
H17 H 0.7722 0.2069 0.2259
C23 C 0.5169(3) 0.42519(18) 0.40909(10)
H18 H 0.4954 0.4250 0.4396
C24 C 0.9528(3) 0.3397(2) 0.21990(15)
H19 H 1.0263 0.3477 0.2132
C25 C 0.6776(5) 0.3868(5) 0.47428(16)
H20 H 0.6314 0.3425 0.4762
H21 H 0.6393 0.4307 0.4859
H22 H 0.7425 0.3784 0.4920
O4 O 0.2306(2) 0.49093(13) 0.44328(8)
H23 H 0.2272 0.4669 0.4673
O5 O 0.1034(2) 0.55019(16) 0.36800(7)
O6 O -0.1552(2) 0.59399(18) 0.58043(8)
N3 N -0.0169(2) 0.56882(14) 0.42719(8)
N4 N 0.3524(3) 0.61669(19) 0.36324(11)
C26 C 0.1220(2) 0.56237(17) 0.53506(9)
H24 H 0.1935 0.5548 0.5449
C27 C 0.0986(2) 0.56526(15) 0.48905(9)
C28 C 0.1899(2) 0.70696(17) 0.44208(10)
C29 C 0.3049(3) 0.62120(19) 0.39658(11)
C30 C -0.1878(3) 0.63098(19) 0.39960(10)
C31 C -0.0103(2) 0.57289(16) 0.47509(9)
C32 C 0.0839(2) 0.55934(16) 0.40816(9)
C33 C -0.0945(2) 0.58236(19) 0.50573(10)
H25 H -0.1663 0.5881 0.4959
C34 C -0.1426(3) 0.7030(2) 0.40013(14)
H26 H -0.0676 0.7084 0.4040
C35 C 0.2500(2) 0.62952(18) 0.44130(10)
C36 C 0.0796(3) 0.8472(2) 0.44508(15)
H27 H 0.0427 0.8939 0.4460
C37 C 0.1699(2) 0.55997(16) 0.44743(9)
C38 C 0.0377(2) 0.57083(18) 0.56690(9)
H28 H 0.0527 0.5683 0.5980
C39 C 0.1557(3) 0.74249(19) 0.40269(11)
H29 H 0.1692 0.7194 0.3746
C40 C 0.3422(3) 0.6263(3) 0.47730(13)
H30 H 0.3914 0.6685 0.4726
H31 H 0.3814 0.5789 0.4743
H32 H 0.3112 0.6296 0.5073
C41 C -0.0684(3) 0.58297(18) 0.55183(10)
C42 C 0.1668(3) 0.7432(2) 0.48351(12)
H33 H 0.1882 0.7203 0.5108
C43 C 0.1127(4) 0.8127(2) 0.48451(14)
H34 H 0.0986 0.8362 0.5124
C44 C -0.1179(3) 0.55985(18) 0.40158(11)
H35 H -0.1602 0.5188 0.4153
H36 H -0.1000 0.5444 0.3706
C45 C 0.1013(4) 0.8123(2) 0.40417(14)
H37 H 0.0793 0.8356 0.3771
C46 C -0.2999(3) 0.6243(3) 0.39450(12)
H38 H -0.3321 0.5759 0.3945
C47 C -0.3165(4) 0.7606(3) 0.38912(14)
H39 H -0.3595 0.8040 0.3849
C48 C -0.1338(4) 0.6121(4) 0.62612(13)
H40 H -0.0887 0.6571 0.6275
H41 H -0.0966 0.5700 0.6404
H42 H -0.2014 0.6217 0.6417
C49 C -0.2066(5) 0.7674(2) 0.39504(15)
H43 H -0.1746 0.8158 0.3957
C50 C -0.3638(3) 0.6885(3) 0.38947(14)
H44 H -0.4391 0.6835 0.3863
O7 O -0.1149(2) 0.62078(15) 0.28094(8)
O8 O 0.1852(3) 0.49923(14) 0.11298(8)
H45 H 0.1941 0.4768 0.1373
O9 O 0.0172(2) 0.54477(15) 0.04974(8)
N5 N -0.0699(2) 0.57657(15) 0.11662(9)
C51 C -0.0379(2) 0.58634(15) 0.16255(9)
C52 C 0.1183(3) 0.57297(16) 0.21066(9)
H46 H 0.1923 0.5629 0.2146
C53 C 0.0735(2) 0.57499(16) 0.16724(9)
N6 N 0.2690(4) 0.6092(2) 0.02288(11)
C54 C -0.1053(3) 0.60392(17) 0.19891(10)
H47 H -0.1790 0.6147 0.1947
C55 C -0.0576(3) 0.60484(16) 0.24225(10)
C56 C 0.1270(3) 0.71268(17) 0.10444(10)
C57 C -0.2493(3) 0.6293(2) 0.09001(10)
C58 C 0.1930(3) 0.63753(19) 0.10495(10)
C59 C 0.0514(3) 0.58614(16) 0.24823(9)
H48 H 0.0801 0.5824 0.2776
C60 C 0.1226(3) 0.56597(17) 0.12029(9)
C61 C -0.2084(4) 0.6675(3) 0.27666(13)
H49 H -0.1914 0.7113 0.2580
H50 H -0.2312 0.6845 0.3064
H51 H -0.2662 0.6387 0.2627
C62 C 0.1037(3) 0.7502(2) 0.14520(12)
H52 H 0.1279 0.7296 0.1727
C63 C 0.0191(3) 0.56081(16) 0.08973(9)
C64 C -0.2072(3) 0.7021(2) 0.08784(12)
H53 H -0.1348 0.7107 0.0961
C65 C 0.2334(3) 0.6210(2) 0.05810(12)
C66 C 0.2957(3) 0.6455(3) 0.13502(14)
H54 H 0.3412 0.6857 0.1232
H55 H 0.3355 0.5980 0.1348
H56 H 0.2744 0.6576 0.1657
C67 C 0.0088(4) 0.8494(2) 0.10528(17)
H57 H -0.0306 0.8950 0.1056
C68 C 0.0901(3) 0.7448(2) 0.06429(12)
H58 H 0.1050 0.7206 0.0367
C69 C 0.0449(4) 0.8179(2) 0.14515(15)
H59 H 0.0298 0.8423 0.1727
C70 C -0.1808(3) 0.5601(2) 0.10235(12)
H60 H -0.2172 0.5326 0.1268
H61 H -0.1779 0.5262 0.0761
C71 C -0.3578(3) 0.6172(3) 0.07850(13)
H62 H -0.3876 0.5682 0.0805
C72 C 0.0310(4) 0.8130(2) 0.06439(16)
H63 H 0.0065 0.8339 0.0370
C73 C -0.3781(5) 0.7504(4) 0.06154(15)
H64 H -0.4213 0.7911 0.0516
C74 C -0.4215(4) 0.6774(4) 0.06424(16)
H65 H -0.4941 0.6690 0.0564
C75 C -0.2715(5) 0.7628(3) 0.07345(15)
H66 H -0.2423 0.8120 0.0719
loop_
_geom_bond_atom_site_label_1
_geom_bond_atom_site_label_2
_geom_bond_site_symmetry_1
_geom_bond_site_symmetry_2
O1 H1 1_555 1_555
O2 C7 1_555 1_555
O3 C17 1_555 1_555
N1 C3 1_555 1_555
N2 C14 1_555 1_555
C1 C4 1_555 1_555
C2 C3 1_555 1_555
C3 C13 1_555 1_555
C4 H2 1_555 1_555
C5 C2 1_555 1_555
H3 C5 1_555 1_555
C6 C1 1_555 1_555
H4 C6 1_555 1_555
C7 N1 1_555 1_555
C8 C1 1_555 1_555
C9 C6 1_555 1_555
H5 C9 1_555 1_555
C10 O1 1_555 1_555
C11 H6 1_555 1_555
C12 C11 1_555 1_555
C13 H7 1_555 1_555
C14 C8 1_555 1_555
C15 C4 1_555 1_555
H8 C15 1_555 1_555
C16 C8 1_555 1_555
H9 C16 1_555 1_555
H10 C16 1_555 1_555
H11 C16 1_555 1_555
C17 C13 1_555 1_555
C18 C9 1_555 1_555
H12 C18 1_555 1_555
C19 C12 1_555 1_555
H13 C19 1_555 1_555
C20 N1 1_555 1_555
H14 C20 1_555 1_555
H15 C20 1_555 1_555
C21 H16 1_555 1_555
C22 C11 1_555 1_555
H17 C22 1_555 1_555
C23 C5 1_555 1_555
H18 C23 1_555 1_555
C24 C19 1_555 1_555
H19 C24 1_555 1_555
C25 O3 1_555 1_555
H20 C25 1_555 1_555
H21 C25 1_555 1_555
H22 C25 1_555 1_555
O4 H23 1_555 1_555
O5 C32 1_555 1_555
O6 C41 1_555 1_555
N3 C31 1_555 1_555
N4 C29 1_555 1_555
C26 H24 1_555 1_555
C27 C26 1_555 1_555
C28 C35 1_555 1_555
C29 C35 1_555 1_555
C30 C34 1_555 1_555
C31 C27 1_555 1_555
C32 N3 1_555 1_555
C33 C31 1_555 1_555
H25 C33 1_555 1_555
C34 H26 1_555 1_555
C35 C37 1_555 1_555
C36 H27 1_555 1_555
C37 O4 1_555 1_555
C38 C26 1_555 1_555
H28 C38 1_555 1_555
C39 C28 1_555 1_555
H29 C39 1_555 1_555
C40 C35 1_555 1_555
H30 C40 1_555 1_555
H31 C40 1_555 1_555
H32 C40 1_555 1_555
C41 C33 1_555 1_555
C42 C28 1_555 1_555
H33 C42 1_555 1_555
C43 C36 1_555 1_555
H34 C43 1_555 1_555
C44 N3 1_555 1_555
H35 C44 1_555 1_555
H36 C44 1_555 1_555
C45 C36 1_555 1_555
H37 C45 1_555 1_555
C46 C30 1_555 1_555
H38 C46 1_555 1_555
C47 H39 1_555 1_555
C48 O6 1_555 1_555
H40 C48 1_555 1_555
H41 C48 1_555 1_555
H42 C48 1_555 1_555
C49 C34 1_555 1_555
H43 C49 1_555 1_555
C50 C46 1_555 1_555
H44 C50 1_555 1_555
O7 C55 1_555 1_555
O8 H45 1_555 1_555
O9 C63 1_555 1_555
N5 C51 1_555 1_555
C51 C53 1_555 1_555
C52 H46 1_555 1_555
C53 C52 1_555 1_555
N6 C65 1_555 1_555
C54 C51 1_555 1_555
H47 C54 1_555 1_555
C55 C54 1_555 1_555
C56 C58 1_555 1_555
C57 C64 1_555 1_555
C58 C60 1_555 1_555
C59 C52 1_555 1_555
H48 C59 1_555 1_555
C60 O8 1_555 1_555
C61 O7 1_555 1_555
H49 C61 1_555 1_555
H50 C61 1_555 1_555
H51 C61 1_555 1_555
C62 C56 1_555 1_555
H52 C62 1_555 1_555
C63 N5 1_555 1_555
C64 H53 1_555 1_555
C65 C58 1_555 1_555
C66 C58 1_555 1_555
H54 C66 1_555 1_555
H55 C66 1_555 1_555
H56 C66 1_555 1_555
C67 H57 1_555 1_555
C68 C56 1_555 1_555
H58 C68 1_555 1_555
C69 C62 1_555 1_555
H59 C69 1_555 1_555
C70 N5 1_555 1_555
H60 C70 1_555 1_555
H61 C70 1_555 1_555
C71 C57 1_555 1_555
H62 C71 1_555 1_555
C72 C67 1_555 1_555
H63 C72 1_555 1_555
C73 H64 1_555 1_555
C74 C71 1_555 1_555
H65 C74 1_555 1_555
C75 C64 1_555 1_555
H66 C75 1_555 1_555
C2 C10 1_555 1_555
C7 C10 1_555 1_555
C8 C10 1_555 1_555
C12 C20 1_555 1_555
C15 C18 1_555 1_555
C17 C23 1_555 1_555
C21 C22 1_555 1_555
C21 C24 1_555 1_555
C27 C37 1_555 1_555
C30 C44 1_555 1_555
C32 C37 1_555 1_555
C38 C41 1_555 1_555
C39 C45 1_555 1_555
C42 C43 1_555 1_555
C47 C49 1_555 1_555
C47 C50 1_555 1_555
C53 C60 1_555 1_555
C55 C59 1_555 1_555
C57 C70 1_555 1_555
C60 C63 1_555 1_555
C67 C69 1_555 1_555
C68 C72 1_555 1_555
C73 C74 1_555 1_555
C73 C75 1_555 1_555

#END
