
#######################################################################
#
#                 Cambridge Crystallographic Data Centre
#                                CCDC 
#
#######################################################################
#
# If this CIF has been generated from an entry in the Cambridge 
# Structural Database, then it will include bibliographic, chemical, 
# crystal, experimental, refinement or atomic coordinate data resulting 
# from the CCDC's data processing and validation procedures.
#
#######################################################################

data_ZIQQOH
_chemical_formula_moiety         'C29 H21 N1 O3'
_chemical_name_systematic        
6-(1,3-Benzodioxol-5-yl)-4-methyl-5a-phenyl-5a,6-dihydronaphtho[3,2,1-cd]indol-5(4H)-one
_symmetry_cell_setting           monoclinic
_symmetry_space_group_name_H-M   'P 21/n'
_symmetry_Int_Tables_number      14
_space_group_name_Hall           '-P 2yn'
loop_
_symmetry_equiv_pos_site_id
_symmetry_equiv_pos_as_xyz
1 x,y,z
2 1/2-x,1/2+y,1/2-z
3 -x,-y,-z
4 1/2+x,1/2-y,1/2+z
_cell_length_a                   8.4360(10)
_cell_length_b                   9.1283(11)
_cell_length_c                   27.709(3)
_cell_angle_alpha                90
_cell_angle_beta                 94.3490(10)
_cell_angle_gamma                90
_cell_volume                     2127.62
_cell_formula_units_Z            4
loop_
_atom_site_label
_atom_site_type_symbol
_atom_site_fract_x
_atom_site_fract_y
_atom_site_fract_z
C1 C 0.1517(2) 0.05993(17) 0.16599(6)
C2 C 0.0737(3) 0.0575(2) 0.20790(8)
H1 H -0.0312 0.0261 0.2079
C3 C 0.1581(3) 0.1036(2) 0.24992(8)
H2 H 0.1099 0.0980 0.2790
C4 C 0.3113(3) 0.1577(2) 0.25047(7)
H3 H 0.3618 0.1927 0.2792
C5 C 0.3906(2) 0.16005(17) 0.20777(6)
C6 C 0.5435(2) 0.23177(17) 0.20027(6)
C7 C 0.6544(2) 0.2662(2) 0.23862(7)
H4 H 0.6345 0.2393 0.2700
C8 C 0.7921(3) 0.3391(2) 0.23075(8)
H5 H 0.8637 0.3632 0.2567
C9 C 0.8240(2) 0.3763(2) 0.18469(9)
H6 H 0.9181 0.4248 0.1794
C10 C 0.71714(19) 0.34214(18) 0.14584(7)
H7 H 0.7408 0.3671 0.1146
C11 C 0.57537(18) 0.27121(16) 0.15295(6)
C12 C 0.45818(17) 0.24140(15) 0.10892(5)
H8 H 0.5221 0.2232 0.0814
C13 C 0.36672(16) 0.09761(15) 0.11772(5)
C14 C 0.20862(18) 0.07266(16) 0.08658(6)
C15 C 0.30927(19) 0.10272(16) 0.16727(5)
C16 C -0.0654(2) -0.0053(2) 0.10198(8)
H9 H -0.1368 0.0724 0.1091
H10 H -0.0936 -0.0927 0.1186
H11 H -0.0728 -0.0230 0.0677
C17 C 0.46786(16) -0.03850(15) 0.10886(5)
C18 C 0.48583(19) -0.15189(17) 0.14194(6)
H12 H 0.4395 -0.1447 0.1712
C19 C 0.5720(2) -0.27586(18) 0.13194(6)
H13 H 0.5836 -0.3509 0.1546
C20 C 0.6401(2) -0.28876(17) 0.08882(6)
H14 H 0.6977 -0.3723 0.0822
C21 C 0.62289(19) -0.17712(17) 0.05540(6)
H15 H 0.6691 -0.1850 0.0261
C22 C 0.53715(18) -0.05386(16) 0.06542(5)
H16 H 0.5256 0.0206 0.0425
C23 C 0.35067(17) 0.37108(15) 0.09509(5)
C24 C 0.35540(19) 0.42950(16) 0.04864(5)
H17 H 0.4242 0.3918 0.0271
C25 C 0.2564(2) 0.54338(17) 0.03572(6)
C26 C 0.1241(3) 0.7281(2) -0.00167(7)
H18 H 0.1707 0.8244 -0.0049
H19 H 0.0370 0.7177 -0.0264
C27 C 0.1544(2) 0.60073(19) 0.06680(6)
C28 C 0.1487(3) 0.5485(2) 0.11235(7)
H20 H 0.0806 0.5890 0.1336
C29 C 0.2483(2) 0.43221(19) 0.12623(6)
H21 H 0.2462 0.3944 0.1573
N1 N 0.09582(15) 0.03625(15) 0.11785(5)
O1 O 0.24093(18) 0.61750(15) -0.00757(4)
O2 O 0.06742(19) 0.71246(17) 0.04471(5)
O3 O 0.18773(13) 0.07536(13) 0.04274(4)
loop_
_geom_bond_atom_site_label_1
_geom_bond_atom_site_label_2
_geom_bond_site_symmetry_1
_geom_bond_site_symmetry_2
C1 C2 1_555 1_555
C2 H1 1_555 1_555
C3 C2 1_555 1_555
H2 C3 1_555 1_555
C4 C3 1_555 1_555
H3 C4 1_555 1_555
C5 C4 1_555 1_555
C6 C5 1_555 1_555
C7 C6 1_555 1_555
H4 C7 1_555 1_555
C8 C7 1_555 1_555
H5 C8 1_555 1_555
C9 C8 1_555 1_555
H6 C9 1_555 1_555
C10 C9 1_555 1_555
H7 C10 1_555 1_555
C11 C6 1_555 1_555
C12 C11 1_555 1_555
H8 C12 1_555 1_555
C13 C12 1_555 1_555
C14 C13 1_555 1_555
C15 C1 1_555 1_555
C16 H9 1_555 1_555
H10 C16 1_555 1_555
H11 C16 1_555 1_555
C17 C13 1_555 1_555
C18 C17 1_555 1_555
H12 C18 1_555 1_555
C19 C18 1_555 1_555
H13 C19 1_555 1_555
C20 C19 1_555 1_555
H14 C20 1_555 1_555
C21 C20 1_555 1_555
H15 C21 1_555 1_555
C22 C17 1_555 1_555
H16 C22 1_555 1_555
C23 C12 1_555 1_555
C24 C23 1_555 1_555
H17 C24 1_555 1_555
C25 C24 1_555 1_555
C26 H18 1_555 1_555
H19 C26 1_555 1_555
C27 C25 1_555 1_555
C28 C27 1_555 1_555
H20 C28 1_555 1_555
C29 C23 1_555 1_555
H21 C29 1_555 1_555
N1 C1 1_555 1_555
O1 C25 1_555 1_555
O2 C26 1_555 1_555
O3 C14 1_555 1_555
C5 C15 1_555 1_555
C10 C11 1_555 1_555
C13 C15 1_555 1_555
C14 N1 1_555 1_555
C16 N1 1_555 1_555
C21 C22 1_555 1_555
C26 O1 1_555 1_555
C27 O2 1_555 1_555
C28 C29 1_555 1_555

#END
