
#######################################################################
#
#                 Cambridge Crystallographic Data Centre
#                                CCDC 
#
#######################################################################
#
# If this CIF has been generated from an entry in the Cambridge 
# Structural Database, then it will include bibliographic, chemical, 
# crystal, experimental, refinement or atomic coordinate data resulting 
# from the CCDC's data processing and validation procedures.
#
#######################################################################

data_ZIRMUL
_chemical_formula_moiety         'C9 H16 B9 N1 O1'
_chemical_name_systematic        
2,7-(iminio(phenyl)methanolato)-9,10-dicarba-nido-dodecaborane(10)
_symmetry_cell_setting           triclinic
_symmetry_space_group_name_H-M   'P -1'
_symmetry_Int_Tables_number      2
_space_group_name_Hall           '-P 1'
loop_
_symmetry_equiv_pos_site_id
_symmetry_equiv_pos_as_xyz
1 x,y,z
2 -x,-y,-z
_cell_length_a                   6.7060(12)
_cell_length_b                   10.2830(19)
_cell_length_c                   10.2838(14)
_cell_angle_alpha                90.954(13)
_cell_angle_beta                 90.958(13)
_cell_angle_gamma                105.754(16)
_cell_volume                     682.249
_exptl_crystal_colour            'light colorless'
_exptl_crystal_description       block
_cell_formula_units_Z            2
loop_
_atom_site_label
_atom_site_type_symbol
_atom_site_fract_x
_atom_site_fract_y
_atom_site_fract_z
O1 O 0.1718(2) 0.82246(16) 0.92821(14)
N1 N 0.2912(3) 0.6725(2) 1.03505(18)
H1 H 0.3108 0.6283 1.1022
C1 C 0.4602(4) 0.6990(3) 0.6097(2)
H2 H 0.490(4) 0.695(3) 0.515(3)
C2 C 0.3111(4) 0.5653(3) 0.6595(3)
H3 H 0.250(4) 0.491(3) 0.585(3)
C3 C 0.1911(3) 0.7645(2) 1.0384(2)
C4 C 0.0940(4) 0.8040(2) 1.1535(2)
C5 C -0.0631(4) 0.8669(2) 1.1377(2)
H4 H -0.1010 0.8877 1.0548
C6 C -0.1632(5) 0.8987(3) 1.2447(3)
H5 H -0.2694 0.9401 1.2339
C7 C -0.1059(5) 0.8693(3) 1.3676(3)
H6 H -0.1732 0.8914 1.4396
C8 C 0.0507(5) 0.8072(3) 1.3845(3)
H7 H 0.0892 0.7878 1.4677
C9 C 0.1502(4) 0.7739(3) 1.2774(2)
H8 H 0.2550 0.7313 1.2886
B1 B 0.6191(4) 0.6515(3) 0.8453(3)
H9 H 0.7433 0.6371 0.9100
B2 B 0.5454(4) 0.8072(3) 0.8447(3)
H10 H 0.6245 0.8945 0.9072
B3 B 0.6710(5) 0.7613(3) 0.7122(3)
H11 H 0.8309 0.8140 0.6869
B4 B 0.5721(5) 0.5867(3) 0.6849(3)
H12 H 0.6660 0.5273 0.6381
B5 B 0.3962(5) 0.5163(3) 0.8039(3)
H13 H 0.3800 0.4132 0.8381
B6 B 0.3700(4) 0.6505(3) 0.9016(3)
B7 B 0.1796(5) 0.5860(3) 0.7799(3)
H14 H 0.021(4) 0.519(3) 0.805(2)
B8 B 0.2707(4) 0.7669(3) 0.8197(3)
B9 B 0.4567(5) 0.8326(3) 0.6889(3)
H15 H 0.474(4) 0.931(3) 0.642(2)
H16 H 0.192(6) 0.743(4) 0.728(4)
loop_
_geom_bond_atom_site_label_1
_geom_bond_atom_site_label_2
_geom_bond_site_symmetry_1
_geom_bond_site_symmetry_2
O1 C3 1_555 1_555
N1 H1 1_555 1_555
C1 H2 1_555 1_555
C2 C1 1_555 1_555
H3 C2 1_555 1_555
C3 N1 1_555 1_555
C4 C3 1_555 1_555
C5 C4 1_555 1_555
H4 C5 1_555 1_555
C6 C5 1_555 1_555
H5 C6 1_555 1_555
C7 C6 1_555 1_555
H6 C7 1_555 1_555
C8 C7 1_555 1_555
H7 C8 1_555 1_555
C9 C4 1_555 1_555
H8 C9 1_555 1_555
B1 H9 1_555 1_555
B2 B1 1_555 1_555
H10 B2 1_555 1_555
B3 C1 1_555 1_555
H11 B3 1_555 1_555
B4 C1 1_555 1_555
H12 B4 1_555 1_555
B5 C2 1_555 1_555
H13 B5 1_555 1_555
B6 N1 1_555 1_555
B7 C2 1_555 1_555
H14 B7 1_555 1_555
B8 O1 1_555 1_555
B9 C1 1_555 1_555
H15 B9 1_555 1_555
H16 B8 1_555 1_555
C2 B4 1_555 1_555
C8 C9 1_555 1_555
B1 B3 1_555 1_555
B1 B4 1_555 1_555
B1 B5 1_555 1_555
B1 B6 1_555 1_555
B2 B3 1_555 1_555
B2 B6 1_555 1_555
B2 B8 1_555 1_555
B2 B9 1_555 1_555
B3 B4 1_555 1_555
B3 B9 1_555 1_555
B4 B5 1_555 1_555
B5 B6 1_555 1_555
B5 B7 1_555 1_555
B6 B7 1_555 1_555
B6 B8 1_555 1_555
B7 B8 1_555 1_555
B8 B9 1_555 1_555

#END
