
#######################################################################
#
#                 Cambridge Crystallographic Data Centre
#                                CCDC 
#
#######################################################################
#
# If this CIF has been generated from an entry in the Cambridge 
# Structural Database, then it will include bibliographic, chemical, 
# crystal, experimental, refinement or atomic coordinate data resulting 
# from the CCDC's data processing and validation procedures.
#
#######################################################################

data_ZIRZIM
_chemical_formula_moiety         'C23 H28 N2 O4'
_chemical_name_systematic        
't-butyl [(4-benzyl-3a-hydroxy-2,3,3a,4-tetrahydrocyclopenta[b]indol-8b(1H)-yl)oxy]carbamate'
_symmetry_cell_setting           triclinic
_symmetry_space_group_name_H-M   'P -1'
_symmetry_Int_Tables_number      2
_space_group_name_Hall           '-P 1'
loop_
_symmetry_equiv_pos_site_id
_symmetry_equiv_pos_as_xyz
1 x,y,z
2 -x,-y,-z
_cell_length_a                   7.435(3)
_cell_length_b                   11.892(4)
_cell_length_c                   12.646(5)
_cell_angle_alpha                106.665(5)
_cell_angle_beta                 98.361(5)
_cell_angle_gamma                98.555(5)
_cell_volume                     1038.16
_exptl_crystal_colour            colorless
_exptl_crystal_description       needle
_cell_formula_units_Z            2
_exptl_crystal_recrystallization_method 'Re-crystallisation from solvent'
loop_
_atom_site_label
_atom_site_type_symbol
_atom_site_fract_x
_atom_site_fract_y
_atom_site_fract_z
O1 O 0.2340(3) 0.73971(19) 0.1444(2)
O2 O 0.3936(3) 0.91146(18) 0.05420(16)
O3 O 0.4462(3) 0.6838(2) -0.0202(2)
O4 O 0.7252(3) 0.76389(18) -0.04902(18)
N1 N 0.4813(3) 0.8558(2) 0.2949(2)
N2 N 0.5718(3) 0.8848(2) 0.0499(2)
C1 C 0.3095(4) 0.8532(3) 0.2209(3)
C2 C 0.1554(4) 0.8946(3) 0.2817(3)
H1 H 0.0748 0.8261 0.2922
H2 H 0.2083 0.9551 0.3562
C3 C 0.0505(6) 0.9472(4) 0.2055(4)
H3 H -0.0192 1.0034 0.2477
H4 H -0.0386 0.8833 0.1442
C4 C 0.1905(4) 1.0118(3) 0.1584(3)
H5 H 0.2220 1.0984 0.2015
H6 H 0.1414 1.0023 0.0786
C5 C 0.3624(4) 0.9553(3) 0.1687(2)
C6 C 0.5342(4) 1.0309(3) 0.2516(2)
C7 C 0.5947(4) 0.9681(3) 0.3226(3)
C8 C 0.7502(4) 1.0180(3) 0.4079(3)
H7 H 0.7919 0.9748 0.4560
C9 C 0.8440(5) 1.1333(3) 0.4212(3)
H8 H 0.9499 1.1695 0.4799
C10 C 0.7853(5) 1.1961(3) 0.3503(3)
H9 H 0.8516 1.2742 0.3599
C11 C 0.6293(4) 1.1446(3) 0.2651(3)
H10 H 0.5883 1.1874 0.2165
C12 C 0.4730(4) 0.7910(3) 0.3764(3)
H11 H 0.3486 0.7387 0.3583
H12 H 0.4871 0.8497 0.4521
C13 C 0.6180(4) 0.7151(3) 0.3805(3)
C14 C 0.7268(4) 0.6920(3) 0.3007(3)
H13 H 0.7162 0.7278 0.2425
C15 C 0.8521(5) 0.6165(3) 0.3045(3)
H14 H 0.9275 0.6015 0.2495
C16 C 0.8665(5) 0.5636(3) 0.3885(3)
H15 H 0.9509 0.5114 0.3908
C17 C 0.7588(5) 0.5864(3) 0.4685(3)
H16 H 0.7680 0.5496 0.5260
C18 C 0.6368(5) 0.6632(3) 0.4652(3)
H17 H 0.5650 0.6804 0.5220
C19 C 0.5679(4) 0.7674(3) -0.0099(3)
C20 C 0.7757(4) 0.6485(3) -0.1062(3)
C21 C 0.6363(5) 0.5862(4) -0.2147(3)
H18 H 0.5147 0.5626 -0.1976
H19 H 0.6763 0.5148 -0.2574
H20 H 0.6276 0.6409 -0.2595
C22 C 0.7894(5) 0.5753(3) -0.0267(3)
H21 H 0.8737 0.6234 0.0442
H22 H 0.8372 0.5037 -0.0609
H23 H 0.6661 0.5511 -0.0118
C23 C 0.9640(4) 0.6893(3) -0.1297(3)
H24 H 0.9524 0.7396 -0.1786
H25 H 1.0124 0.6192 -0.1670
H26 H 1.0493 0.7356 -0.0585
H27 H 0.315(5) 0.723(3) 0.097(3)
H28 H 0.651(5) 0.950(3) 0.037(3)
loop_
_geom_bond_atom_site_label_1
_geom_bond_atom_site_label_2
_geom_bond_site_symmetry_1
_geom_bond_site_symmetry_2
O1 C1 1_555 1_555
O2 N2 1_555 1_555
O3 C19 1_555 1_555
O4 C19 1_555 1_555
N1 C1 1_555 1_555
N2 C19 1_555 1_555
C1 C2 1_555 1_555
C2 H1 1_555 1_555
H2 C2 1_555 1_555
C3 C2 1_555 1_555
H3 C3 1_555 1_555
H4 C3 1_555 1_555
C4 C3 1_555 1_555
H5 C4 1_555 1_555
H6 C4 1_555 1_555
C5 O2 1_555 1_555
C6 C5 1_555 1_555
C7 N1 1_555 1_555
C8 C7 1_555 1_555
H7 C8 1_555 1_555
C9 C8 1_555 1_555
H8 C9 1_555 1_555
C10 C9 1_555 1_555
H9 C10 1_555 1_555
C11 C6 1_555 1_555
H10 C11 1_555 1_555
C12 N1 1_555 1_555
H11 C12 1_555 1_555
H12 C12 1_555 1_555
C13 C12 1_555 1_555
C14 C13 1_555 1_555
H13 C14 1_555 1_555
C15 C14 1_555 1_555
H14 C15 1_555 1_555
C16 C15 1_555 1_555
H15 C16 1_555 1_555
C17 C16 1_555 1_555
H16 C17 1_555 1_555
C18 C13 1_555 1_555
H17 C18 1_555 1_555
C20 O4 1_555 1_555
C21 C20 1_555 1_555
H18 C21 1_555 1_555
H19 C21 1_555 1_555
H20 C21 1_555 1_555
C22 C20 1_555 1_555
H21 C22 1_555 1_555
H22 C22 1_555 1_555
H23 C22 1_555 1_555
C23 C20 1_555 1_555
H24 C23 1_555 1_555
H25 C23 1_555 1_555
H26 C23 1_555 1_555
H27 O1 1_555 1_555
H28 N2 1_555 1_555
C1 C5 1_555 1_555
C4 C5 1_555 1_555
C6 C7 1_555 1_555
C10 C11 1_555 1_555
C17 C18 1_555 1_555

#END
