
#######################################################################
#
#                 Cambridge Crystallographic Data Centre
#                                CCDC 
#
#######################################################################
#
# If this CIF has been generated from an entry in the Cambridge 
# Structural Database, then it will include bibliographic, chemical, 
# crystal, experimental, refinement or atomic coordinate data resulting 
# from the CCDC's data processing and validation procedures.
#
#######################################################################

data_ZISHOB
_chemical_formula_moiety         'C20 H19 Br1 N2 O4'
_chemical_name_systematic        
6-bromo-1'-ethyl-1-hydroxy-8-methyl-3-phenyl-1H,2'H,3H,5'H-spiro[2,3-benzoxazine-4,3'-pyrrolidine]-2',5'-dione
_symmetry_cell_setting           orthorhombic
_symmetry_space_group_name_H-M   'P b c a'
_symmetry_Int_Tables_number      61
_space_group_name_Hall           '-P 2ac 2ab'
loop_
_symmetry_equiv_pos_site_id
_symmetry_equiv_pos_as_xyz
1 x,y,z
2 1/2-x,-y,1/2+z
3 -x,1/2+y,1/2-z
4 1/2+x,1/2-y,-z
5 -x,-y,-z
6 1/2+x,y,1/2-z
7 x,1/2-y,1/2+z
8 1/2-x,1/2+y,z
_cell_length_a                   7.5019(11)
_cell_length_b                   20.684(3)
_cell_length_c                   23.454(3)
_cell_angle_alpha                90
_cell_angle_beta                 90
_cell_angle_gamma                90
_cell_volume                     3639.34
_exptl_crystal_colour            colorless
_exptl_crystal_description       block
_cell_formula_units_Z            8
loop_
_atom_site_label
_atom_site_type_symbol
_atom_site_fract_x
_atom_site_fract_y
_atom_site_fract_z
Br1 Br 0.72068(5) 0.32791(2) 0.31009(2)
O1 O -0.0231(3) 0.38635(10) 0.46919(10)
H1 H 0.0148 0.3488 0.4754
O2 O 0.1929(3) 0.44556(9) 0.51981(8)
O3 O 0.4694(3) 0.26151(10) 0.52619(8)
O4 O 0.8236(3) 0.41505(11) 0.60678(10)
N1 N 0.2701(3) 0.38679(12) 0.54352(9)
N2 N 0.6740(3) 0.32771(12) 0.57008(10)
C1 C 0.5423(4) 0.36196(14) 0.35911(12)
C2 C 0.3933(4) 0.38919(15) 0.33434(13)
H2 H 0.3865 0.3933 0.2940
C3 C 0.2543(4) 0.41051(14) 0.36785(12)
C4 C 0.2699(4) 0.40514(14) 0.42782(12)
C5 C 0.4244(4) 0.38043(14) 0.45171(11)
C6 C 0.5618(4) 0.35796(14) 0.41744(12)
H3 H 0.6669 0.3402 0.4338
C7 C 0.1226(4) 0.42961(15) 0.46557(12)
H4 H 0.0770 0.4706 0.4482
C8 C 0.4490(4) 0.37978(13) 0.51610(12)
C9 C 0.5895(4) 0.42947(14) 0.53561(12)
H5 H 0.6578 0.4460 0.5026
H6 H 0.5317 0.4664 0.5551
C10 C 0.7092(4) 0.39398(16) 0.57574(12)
C11 C 0.5271(4) 0.31481(15) 0.53707(11)
C12 C 0.7779(4) 0.27896(16) 0.59988(13)
H7 H 0.9048 0.2921 0.6002
H8 H 0.7689 0.2374 0.5792
C13 C 0.7141(6) 0.2697(2) 0.66075(14)
H9 H 0.5957 0.2496 0.6605
H10 H 0.7076 0.3117 0.6799
H11 H 0.7978 0.2416 0.6812
C14 C 0.2732(5) 0.34277(16) 0.63867(13)
H12 H 0.2637 0.3011 0.6219
C15 C 0.2769(4) 0.39711(15) 0.60465(12)
C16 C 0.2840(4) 0.45811(16) 0.62919(12)
H13 H 0.2838 0.4956 0.6058
C17 C 0.2915(5) 0.46395(18) 0.68842(13)
H14 H 0.2956 0.5056 0.7054
C18 C 0.2931(5) 0.40979(18) 0.72220(14)
H15 H 0.3009 0.4140 0.7625
C19 C 0.2833(5) 0.34928(19) 0.69782(14)
H16 H 0.2834 0.3119 0.7213
C20 C 0.0908(4) 0.44025(16) 0.34094(13)
H17 H -0.0164 0.4225 0.3590
H18 H 0.0890 0.4303 0.3001
H19 H 0.0935 0.4872 0.3462
loop_
_geom_bond_atom_site_label_1
_geom_bond_atom_site_label_2
_geom_bond_site_symmetry_1
_geom_bond_site_symmetry_2
Br1 C1 1_555 1_555
O1 H1 1_555 1_555
O2 N1 1_555 1_555
O3 C11 1_555 1_555
O4 C10 1_555 1_555
N1 C8 1_555 1_555
N2 C10 1_555 1_555
C1 C2 1_555 1_555
C2 H2 1_555 1_555
C3 C2 1_555 1_555
C4 C3 1_555 1_555
C5 C4 1_555 1_555
C6 C1 1_555 1_555
H3 C6 1_555 1_555
C7 O1 1_555 1_555
H4 C7 1_555 1_555
C8 C5 1_555 1_555
C9 C8 1_555 1_555
H5 C9 1_555 1_555
H6 C9 1_555 1_555
C10 C9 1_555 1_555
C11 N2 1_555 1_555
C12 N2 1_555 1_555
H7 C12 1_555 1_555
H8 C12 1_555 1_555
C13 C12 1_555 1_555
H9 C13 1_555 1_555
H10 C13 1_555 1_555
H11 C13 1_555 1_555
C14 H12 1_555 1_555
C15 N1 1_555 1_555
C16 C15 1_555 1_555
H13 C16 1_555 1_555
C17 C16 1_555 1_555
H14 C17 1_555 1_555
C18 C17 1_555 1_555
H15 C18 1_555 1_555
C19 C14 1_555 1_555
H16 C19 1_555 1_555
C20 C3 1_555 1_555
H17 C20 1_555 1_555
H18 C20 1_555 1_555
H19 C20 1_555 1_555
O2 C7 1_555 1_555
C4 C7 1_555 1_555
C5 C6 1_555 1_555
C8 C11 1_555 1_555
C14 C15 1_555 1_555
C18 C19 1_555 1_555

#END
