
#######################################################################
#
#                 Cambridge Crystallographic Data Centre
#                                CCDC 
#
#######################################################################
#
# If this CIF has been generated from an entry in the Cambridge 
# Structural Database, then it will include bibliographic, chemical, 
# crystal, experimental, refinement or atomic coordinate data resulting 
# from the CCDC's data processing and validation procedures.
#
#######################################################################

data_ZISKOB
_chemical_formula_moiety         'C9 H13 Cl1 N1 1+,C24 H20 B1 1-'
_chemical_name_systematic        
'Chloromethyl(dimethyl)phenylammonium tetraphenylborate'
_symmetry_cell_setting           orthorhombic
_symmetry_space_group_name_H-M   'P n a 21'
_symmetry_Int_Tables_number      33
_space_group_name_Hall           'P 2c -2n'
loop_
_symmetry_equiv_pos_site_id
_symmetry_equiv_pos_as_xyz
1 x,y,z
2 -x,-y,1/2+z
3 1/2-x,1/2+y,1/2+z
4 1/2+x,1/2-y,z
_cell_length_a                   17.311(2)
_cell_length_b                   9.625(1)
_cell_length_c                   16.211(2)
_cell_angle_alpha                90
_cell_angle_beta                 90
_cell_angle_gamma                90
_cell_volume                     2701.05
_cell_formula_units_Z            4
loop_
_atom_site_label
_atom_site_type_symbol
_atom_site_fract_x
_atom_site_fract_y
_atom_site_fract_z
Cl1 Cl 0.4277(1) 0.7555(2) 0.5000
N1 N 0.3987(2) 0.8638(4) 0.3473(3)
C1 C 0.4502(3) 0.7648(6) 0.3952(3)
C2 C 0.3148(2) 0.8211(5) 0.3549(4)
C3 C 0.4070(3) 1.0079(6) 0.3829(4)
C4 C 0.4250(3) 0.8539(5) 0.2600(3)
C5 C 0.4117(4) 0.7366(6) 0.2142(4)
C6 C 0.4367(4) 0.7235(8) 0.1366(4)
C7 C 0.4760(4) 0.8306(8) 0.0999(4)
C8 C 0.4909(4) 0.9476(8) 0.1436(4)
C9 C 0.4645(3) 0.9610(7) 0.2240(4)
H1 H 0.445 0.673 0.372
H2 H 0.503 0.796 0.390
H3 H 0.308 0.729 0.332
H4 H 0.283 0.886 0.325
H5 H 0.300 0.821 0.413
H6 H 0.460 1.037 0.379
H7 H 0.392 1.007 0.440
H8 H 0.374 1.072 0.352
H9 H 0.383 0.661 0.239
H10 H 0.427 0.638 0.106
H11 H 0.493 0.822 0.043
H12 H 0.520 1.023 0.118
H13 H 0.474 1.046 0.255
B1 B 0.6184(2) 0.3546(4) 0.3459(4)
C10 C 0.6586(3) 0.4301(5) 0.2637(3)
C11 C 0.6264(3) 0.5480(5) 0.2245(3)
C12 C 0.6614(4) 0.6113(6) 0.1584(3)
C13 C 0.7324(4) 0.5654(7) 0.1287(4)
C14 C 0.7655(4) 0.4538(7) 0.1671(4)
C15 C 0.7300(3) 0.3887(6) 0.2315(3)
C16 C 0.5236(2) 0.3706(4) 0.3414(4)
C17 C 0.4790(3) 0.3874(6) 0.4133(4)
C18 C 0.3979(3) 0.3982(6) 0.4099(4)
C19 C 0.3597(3) 0.3882(5) 0.3357(5)
C20 C 0.4020(3) 0.3668(6) 0.2655(4)
C21 C 0.4808(3) 0.3597(5) 0.2692(3)
C22 C 0.6570(3) 0.4277(5) 0.4254(3)
C23 C 0.7227(3) 0.3737(5) 0.4651(3)
C24 C 0.7570(3) 0.4370(6) 0.5329(3)
C25 C 0.7266(4) 0.5588(7) 0.5632(3)
C26 C 0.6642(4) 0.6170(6) 0.5250(3)
C27 C 0.6308(3) 0.5505(6) 0.4569(4)
C28 C 0.6330(2) 0.1858(4) 0.3406(4)
C29 C 0.6320(3) 0.1066(6) 0.4137(4)
C30 C 0.6412(3) -0.0381(7) 0.4141(5)
C31 C 0.6524(2) -0.1069(5) 0.3420(6)
C32 C 0.6535(3) -0.0350(7) 0.2693(5)
C33 C 0.6429(3) 0.1088(6) 0.2694(4)
H14 H 0.578 0.585 0.245
H15 H 0.637 0.690 0.132
H16 H 0.757 0.610 0.082
H17 H 0.815 0.420 0.148
H18 H 0.756 0.310 0.257
H19 H 0.505 0.392 0.466
H20 H 0.369 0.412 0.460
H21 H 0.304 0.396 0.333
H22 H 0.376 0.357 0.213
H23 H 0.509 0.347 0.218
H24 H 0.745 0.288 0.444
H25 H 0.802 0.396 0.559
H26 H 0.749 0.603 0.611
H27 H 0.643 0.704 0.545
H28 H 0.587 0.595 0.430
H29 H 0.625 0.154 0.466
H30 H 0.639 -0.089 0.466
H31 H 0.660 -0.207 0.342
H32 H 0.662 -0.084 0.218
H33 H 0.642 0.157 0.217
loop_
_geom_bond_atom_site_label_1
_geom_bond_atom_site_label_2
_geom_bond_site_symmetry_1
_geom_bond_site_symmetry_2
Cl1 C1 1_555 1_555
N1 C1 1_555 1_555
C1 H1 1_555 1_555
C2 N1 1_555 1_555
C3 N1 1_555 1_555
C4 N1 1_555 1_555
C5 C4 1_555 1_555
C6 C5 1_555 1_555
C7 C6 1_555 1_555
C8 C7 1_555 1_555
C9 C4 1_555 1_555
B1 C10 1_555 1_555
C10 C11 1_555 1_555
C11 C12 1_555 1_555
C12 C13 1_555 1_555
C13 C14 1_555 1_555
C14 C15 1_555 1_555
C15 C10 1_555 1_555
C16 B1 1_555 1_555
C17 C16 1_555 1_555
C18 C17 1_555 1_555
C19 C18 1_555 1_555
C20 C19 1_555 1_555
C21 C16 1_555 1_555
C22 B1 1_555 1_555
C23 C22 1_555 1_555
C24 C23 1_555 1_555
C25 C24 1_555 1_555
C26 C25 1_555 1_555
C27 C22 1_555 1_555
C28 B1 1_555 1_555
C29 C28 1_555 1_555
C30 C29 1_555 1_555
C31 C30 1_555 1_555
C32 C31 1_555 1_555
C33 C28 1_555 1_555
H2 C1 1_555 1_555
H3 C2 1_555 1_555
H4 C2 1_555 1_555
H5 C2 1_555 1_555
H6 C3 1_555 1_555
H7 C3 1_555 1_555
H8 C3 1_555 1_555
H9 C5 1_555 1_555
H10 C6 1_555 1_555
H11 C7 1_555 1_555
H12 C8 1_555 1_555
H13 C9 1_555 1_555
H14 C11 1_555 1_555
H15 C12 1_555 1_555
H16 C13 1_555 1_555
H17 C14 1_555 1_555
H18 C15 1_555 1_555
H19 C17 1_555 1_555
H20 C18 1_555 1_555
H21 C19 1_555 1_555
H22 C20 1_555 1_555
H23 C21 1_555 1_555
H24 C23 1_555 1_555
H25 C24 1_555 1_555
H26 C25 1_555 1_555
H27 C26 1_555 1_555
H28 C27 1_555 1_555
H29 C29 1_555 1_555
H30 C30 1_555 1_555
H31 C31 1_555 1_555
H32 C32 1_555 1_555
H33 C33 1_555 1_555
C8 C9 1_555 1_555
C20 C21 1_555 1_555
C26 C27 1_555 1_555
C32 C33 1_555 1_555

#END
