
#######################################################################
#
#                 Cambridge Crystallographic Data Centre
#                                CCDC 
#
#######################################################################
#
# If this CIF has been generated from an entry in the Cambridge 
# Structural Database, then it will include bibliographic, chemical, 
# crystal, experimental, refinement or atomic coordinate data resulting 
# from the CCDC's data processing and validation procedures.
#
#######################################################################

data_ZISPAV
_chemical_formula_moiety         'C14 H13 Br1 O1'
_chemical_name_systematic        
3-[(4-bromophenyl)methylidene]bicyclo[2.2.1]heptan-2-one
_symmetry_cell_setting           triclinic
_symmetry_space_group_name_H-M   'P -1'
_symmetry_Int_Tables_number      2
_space_group_name_Hall           '-P 1'
loop_
_symmetry_equiv_pos_site_id
_symmetry_equiv_pos_as_xyz
1 x,y,z
2 -x,-y,-z
_cell_length_a                   6.4885(14)
_cell_length_b                   9.451(2)
_cell_length_c                   10.440(2)
_cell_angle_alpha                85.325(4)
_cell_angle_beta                 85.384(4)
_cell_angle_gamma                70.570(4)
_cell_volume                     600.77
_exptl_crystal_colour            colorless
_exptl_crystal_description       block
_cell_formula_units_Z            2
loop_
_atom_site_label
_atom_site_type_symbol
_atom_site_fract_x
_atom_site_fract_y
_atom_site_fract_z
Br1 Br 0.22345(5) 0.82930(4) 0.07425(3)
O1 O 1.0795(4) 0.8537(2) 0.7086(2)
C1 C 0.5561(4) 0.8939(3) 0.1930(2)
H1 H 0.584359 0.933532 0.111603
C2 C 0.9922(4) 0.7586(3) 0.7133(3)
C3 C 0.7895(4) 0.6032(3) 0.6700(2)
H2 H 0.739621 0.553229 0.606157
C4 C 1.0102(4) 0.6333(3) 0.8142(3)
H3 H 1.135127 0.608437 0.868575
C5 C 1.0055(5) 0.5086(3) 0.7304(3)
H4 H 0.994218 0.420208 0.780624
H5 H 1.128514 0.480626 0.667537
C6 C 0.6375(4) 0.6442(4) 0.7900(3)
H6 H 0.584887 0.562366 0.821901
H7 H 0.513247 0.733647 0.773163
C7 C 0.7847(5) 0.6725(4) 0.8851(3)
H8 H 0.789557 0.608897 0.963337
H9 H 0.732657 0.776731 0.907064
C8 C 0.6434(4) 0.8332(2) 0.4151(2)
C9 C 0.7870(4) 0.8336(3) 0.5161(2)
H10 H 0.848642 0.909989 0.506289
C10 C 0.8424(4) 0.7408(3) 0.6197(2)
C11 C 0.3914(4) 0.8315(3) 0.2137(2)
C12 C 0.4729(4) 0.7741(3) 0.4331(2)
H11 H 0.443331 0.734370 0.514209
C13 C 0.3471(4) 0.7730(3) 0.3336(2)
H12 H 0.233348 0.733262 0.347231
C14 C 0.6774(4) 0.8969(3) 0.2932(2)
H13 H 0.785021 0.942317 0.279882
loop_
_geom_bond_atom_site_label_1
_geom_bond_atom_site_label_2
_geom_bond_site_symmetry_1
_geom_bond_site_symmetry_2
Br1 C11 1_555 1_555
O1 C2 1_555 1_555
C1 H1 1_555 1_555
C2 C4 1_555 1_555
C3 H2 1_555 1_555
C4 H3 1_555 1_555
C5 C3 1_555 1_555
H4 C5 1_555 1_555
H5 C5 1_555 1_555
C6 C3 1_555 1_555
H6 C6 1_555 1_555
H7 C6 1_555 1_555
C7 C4 1_555 1_555
H8 C7 1_555 1_555
H9 C7 1_555 1_555
C8 C9 1_555 1_555
C9 H10 1_555 1_555
C10 C2 1_555 1_555
C11 C1 1_555 1_555
C12 C8 1_555 1_555
H11 C12 1_555 1_555
C13 C11 1_555 1_555
H12 C13 1_555 1_555
C14 C1 1_555 1_555
H13 C14 1_555 1_555
C3 C10 1_555 1_555
C4 C5 1_555 1_555
C6 C7 1_555 1_555
C8 C14 1_555 1_555
C9 C10 1_555 1_555
C12 C13 1_555 1_555

#END
