
#######################################################################
#
#                 Cambridge Crystallographic Data Centre
#                                CCDC 
#
#######################################################################
#
# If this CIF has been generated from an entry in the Cambridge 
# Structural Database, then it will include bibliographic, chemical, 
# crystal, experimental, refinement or atomic coordinate data resulting 
# from the CCDC's data processing and validation procedures.
#
#######################################################################

data_ZITBIN
_chemical_formula_moiety         'C36 H72 Li2 N6 Si2'
_chemical_name_systematic        
bis((\m~2~-2-(t-Butyl(dimethyl)silylmethylene)-1H,2H-pyridine-N,N)-(tetramethylethylenediamine)-lithium)
_symmetry_cell_setting           monoclinic
_symmetry_space_group_name_H-M   'C 2'
_symmetry_Int_Tables_number      5
_space_group_name_Hall           'C 2y'
loop_
_symmetry_equiv_pos_site_id
_symmetry_equiv_pos_as_xyz
1 x,y,z
2 -x,y,-z
3 1/2+x,1/2+y,z
4 1/2-x,1/2+y,-z
_cell_length_a                   14.009(3)
_cell_length_b                   14.957(3)
_cell_length_c                   11.113(2)
_cell_angle_alpha                90
_cell_angle_beta                 108.97(3)
_cell_angle_gamma                90
_cell_volume                     2202.07
_exptl_crystal_colour            orange
_cell_formula_units_Z            2
loop_
_atom_site_label
_atom_site_type_symbol
_atom_site_fract_x
_atom_site_fract_y
_atom_site_fract_z
Si1 Si 0.2363(1) 0.4418(3) 0.4255(1)
Li1 Li 0.0000 0.4159 0.0000
Li2 Li 0.0000 0.6084(7) 0.0000
N1 N 0.1216(2) 0.5141(3) 0.0426(3)
N2 N 0.0715(3) 0.3064(4) -0.0746(4)
N3 N 0.0248(3) 0.7138(4) 0.1371(4)
C1 C 0.1617(3) 0.4780(4) 0.2635(4)
C2 C 0.1930(3) 0.4977(4) 0.1604(4)
C3 C 0.2976(3) 0.4996(4) 0.1693(4)
C4 C 0.3266(3) 0.5148(4) 0.0681(5)
C5 C 0.2539(4) 0.5307(4) -0.0513(5)
C6 C 0.1557(4) 0.5292(4) -0.0565(4)
C7 C 0.1506(4) 0.3826(5) 0.4977(5)
C8 C 0.3389(4) 0.3600(4) 0.4266(5)
C9 C 0.2983(4) 0.5353(5) 0.5396(5)
C10 C 0.2170(5) 0.5929(5) 0.5691(5)
C11 C 0.3582(4) 0.5978(5) 0.4794(5)
C12 C 0.3688(5) 0.4972(5) 0.6652(5)
C13 C 0.0116(5) 0.2290(4) -0.0597(7)
C14 C 0.0693(5) 0.3108(6) -0.2050(6)
C15 C 0.1747(3) 0.2961(4) 0.0104(5)
C16 C -0.0117(5) 0.7942(4) 0.0613(5)
C17 C -0.0193(4) 0.7092(5) 0.2418(5)
C18 C 0.1359(3) 0.7170(4) 0.1937(5)
H1 H 0.0906 0.4842 0.2484
H2 H 0.3483 0.4882 0.2499
H3 H 0.3969 0.5155 0.0759
H4 H 0.2733 0.5419 -0.1252
H5 H 0.1066 0.5408 -0.1382
H6 H 0.0970 0.4218 0.5000
H7 H 0.1226 0.3308 0.4475
H8 H 0.1884 0.3644 0.5827
H9 H 0.3849 0.3878 0.3901
H10 H 0.3748 0.3421 0.5123
H11 H 0.3090 0.3085 0.3772
H12 H 0.2454 0.6418 0.6253
H13 H 0.1704 0.6156 0.4913
H14 H 0.1821 0.5536 0.6089
H15 H 0.3899 0.6448 0.5375
H16 H 0.4088 0.5634 0.4593
H17 H 0.3128 0.6233 0.4029
H18 H 0.4020 0.5441 0.7225
H19 H 0.3283 0.4625 0.7030
H20 H 0.4184 0.4593 0.6485
H21 H 0.0467 0.1751 -0.0667
H22 H -0.0513 0.2298 -0.1283
H23 H 0.1009 0.2594 -0.2277
H24 H 0.0023 0.3173 -0.2641
H25 H 0.1081 0.3633 -0.2073
H26 H 0.2087 0.2491 -0.0182
H27 H 0.2098 0.3515 0.0123
H28 H 0.1734 0.2825 0.0942
H29 H 0.0171 0.8459 0.1110
H30 H -0.0837 0.7973 0.0409
H31 H -0.0030 0.7612 0.2951
H32 H -0.0913 0.7035 0.2062
H33 H 0.0079 0.6571 0.2914
H34 H 0.1554 0.7632 0.2569
H35 H 0.1597 0.6603 0.2324
H36 H 0.1649 0.7288 0.1280
N1A N -0.1216(2) 0.5141(3) -0.0426(3)
C16A C 0.0117(5) 0.7942(4) -0.0613(5)
N3A N -0.0248(3) 0.7138(4) -0.1371(4)
C17A C 0.0193(4) 0.7092(5) -0.2418(5)
H31A H 0.0030 0.7612 -0.2951
H32A H 0.0913 0.7035 -0.2062
H33A H -0.0079 0.6571 -0.2914
C18A C -0.1359(3) 0.7170(4) -0.1937(5)
H34A H -0.1554 0.7632 -0.2569
H35A H -0.1597 0.6603 -0.2324
H36A H -0.1649 0.7288 -0.1280
H29A H -0.0171 0.8459 -0.1110
H30A H 0.0837 0.7973 -0.0409
C2A C -0.1930(3) 0.4977(4) -0.1604(4)
C1A C -0.1617(3) 0.4780(4) -0.2635(4)
Si1A Si -0.2363(1) 0.4418(3) -0.4255(1)
C7A C -0.1506(4) 0.3826(5) -0.4977(5)
H6A H -0.0970 0.4218 -0.5000
H7A H -0.1226 0.3308 -0.4475
H8A H -0.1884 0.3644 -0.5827
C8A C -0.3389(4) 0.3600(4) -0.4266(5)
H9A H -0.3849 0.3878 -0.3901
H10A H -0.3748 0.3421 -0.5123
H11A H -0.3090 0.3085 -0.3772
C9A C -0.2983(4) 0.5353(5) -0.5396(5)
C10A C -0.2170(5) 0.5929(5) -0.5691(5)
H12A H -0.2454 0.6418 -0.6253
H13A H -0.1704 0.6156 -0.4913
H14A H -0.1821 0.5536 -0.6089
C11A C -0.3582(4) 0.5978(5) -0.4794(5)
H15A H -0.3899 0.6448 -0.5375
H16A H -0.4088 0.5634 -0.4593
H17A H -0.3128 0.6233 -0.4029
C12A C -0.3688(5) 0.4972(5) -0.6652(5)
H18A H -0.4020 0.5441 -0.7225
H19A H -0.3283 0.4625 -0.7030
H20A H -0.4184 0.4593 -0.6485
H1A H -0.0906 0.4842 -0.2484
C3A C -0.2976(3) 0.4996(4) -0.1693(4)
C4A C -0.3266(3) 0.5148(4) -0.0681(5)
C5A C -0.2539(4) 0.5307(4) 0.0513(5)
C6A C -0.1557(4) 0.5292(4) 0.0565(4)
H5A H -0.1066 0.5408 0.1382
H4A H -0.2733 0.5419 0.1252
H3A H -0.3969 0.5155 -0.0759
H2A H -0.3483 0.4882 -0.2499
C13A C -0.0116(5) 0.2290(4) 0.0597(7)
N2A N -0.0715(3) 0.3064(4) 0.0746(4)
C14A C -0.0693(5) 0.3108(6) 0.2050(6)
H23A H -0.1009 0.2594 0.2277
H24A H -0.0023 0.3173 0.2641
H25A H -0.1081 0.3633 0.2073
C15A C -0.1747(3) 0.2961(4) -0.0104(5)
H26A H -0.2087 0.2491 0.0182
H27A H -0.2098 0.3515 -0.0123
H28A H -0.1734 0.2825 -0.0942
H21A H -0.0467 0.1751 0.0667
H22A H 0.0513 0.2298 0.1283
loop_
_geom_bond_atom_site_label_1
_geom_bond_atom_site_label_2
_geom_bond_site_symmetry_1
_geom_bond_site_symmetry_2
Si1 C1 1_555 1_555
Li1 N1 1_555 1_555
Li2 N1 1_555 1_555
N1 C2 1_555 1_555
N2 Li1 1_555 1_555
N3 Li2 1_555 1_555
C1 C2 1_555 1_555
C2 C3 1_555 1_555
C3 C4 1_555 1_555
C4 C5 1_555 1_555
C5 C6 1_555 1_555
C6 N1 1_555 1_555
C7 Si1 1_555 1_555
C8 Si1 1_555 1_555
C9 Si1 1_555 1_555
C10 C9 1_555 1_555
C11 C9 1_555 1_555
C12 C9 1_555 1_555
C13 N2 1_555 1_555
C14 N2 1_555 1_555
C15 N2 1_555 1_555
C16 N3 1_555 1_555
C17 N3 1_555 1_555
C18 N3 1_555 1_555
H1 C1 1_555 1_555
H2 C3 1_555 1_555
H3 C4 1_555 1_555
H4 C5 1_555 1_555
H5 C6 1_555 1_555
H6 C7 1_555 1_555
H7 C7 1_555 1_555
H8 C7 1_555 1_555
H9 C8 1_555 1_555
H10 C8 1_555 1_555
H11 C8 1_555 1_555
H12 C10 1_555 1_555
H13 C10 1_555 1_555
H14 C10 1_555 1_555
H15 C11 1_555 1_555
H16 C11 1_555 1_555
H17 C11 1_555 1_555
H18 C12 1_555 1_555
H19 C12 1_555 1_555
H20 C12 1_555 1_555
H21 C13 1_555 1_555
H22 C13 1_555 1_555
H23 C14 1_555 1_555
H24 C14 1_555 1_555
H25 C14 1_555 1_555
H26 C15 1_555 1_555
H27 C15 1_555 1_555
H28 C15 1_555 1_555
H29 C16 1_555 1_555
H30 C16 1_555 1_555
H31 C17 1_555 1_555
H32 C17 1_555 1_555
H33 C17 1_555 1_555
H34 C18 1_555 1_555
H35 C18 1_555 1_555
H36 C18 1_555 1_555
N1A Li1 1_555 1_555
C16A C16 1_555 1_555
N3A Li2 1_555 1_555
C17A N3A 1_555 1_555
H31A C17A 1_555 1_555
H32A C17A 1_555 1_555
H33A C17A 1_555 1_555
C18A N3A 1_555 1_555
H34A C18A 1_555 1_555
H35A C18A 1_555 1_555
H36A C18A 1_555 1_555
H29A C16A 1_555 1_555
H30A C16A 1_555 1_555
C2A N1A 1_555 1_555
C1A C2A 1_555 1_555
Si1A C1A 1_555 1_555
C7A Si1A 1_555 1_555
H6A C7A 1_555 1_555
H7A C7A 1_555 1_555
H8A C7A 1_555 1_555
C8A Si1A 1_555 1_555
H9A C8A 1_555 1_555
H10A C8A 1_555 1_555
H11A C8A 1_555 1_555
C9A Si1A 1_555 1_555
C10A C9A 1_555 1_555
H12A C10A 1_555 1_555
H13A C10A 1_555 1_555
H14A C10A 1_555 1_555
C11A C9A 1_555 1_555
H15A C11A 1_555 1_555
H16A C11A 1_555 1_555
H17A C11A 1_555 1_555
C12A C9A 1_555 1_555
H18A C12A 1_555 1_555
H19A C12A 1_555 1_555
H20A C12A 1_555 1_555
H1A C1A 1_555 1_555
C3A C2A 1_555 1_555
C4A C3A 1_555 1_555
C5A C4A 1_555 1_555
C6A N1A 1_555 1_555
H5A C6A 1_555 1_555
H4A C5A 1_555 1_555
H3A C4A 1_555 1_555
H2A C3A 1_555 1_555
C13A C13 1_555 1_555
N2A Li1 1_555 1_555
C14A N2A 1_555 1_555
H23A C14A 1_555 1_555
H24A C14A 1_555 1_555
H25A C14A 1_555 1_555
C15A N2A 1_555 1_555
H26A C15A 1_555 1_555
H27A C15A 1_555 1_555
H28A C15A 1_555 1_555
H21A C13A 1_555 1_555
H22A C13A 1_555 1_555
Li2 N1A 1_555 1_555
C16A N3A 1_555 1_555
C5A C6A 1_555 1_555
C13A N2A 1_555 1_555

#END
