
#######################################################################
#
#                 Cambridge Crystallographic Data Centre
#                                CCDC 
#
#######################################################################
#
# If this CIF has been generated from an entry in the Cambridge 
# Structural Database, then it will include bibliographic, chemical, 
# crystal, experimental, refinement or atomic coordinate data resulting 
# from the CCDC's data processing and validation procedures.
#
#######################################################################

data_ZITCIQ
_chemical_formula_moiety         'C44 H42 O2'
_chemical_name_systematic        
1,1'-(1,4-Phenylene)bis(5-phenyl-3-(2-phenylethyl)pent-1-yn-3-ol)
_symmetry_cell_setting           orthorhombic
_symmetry_space_group_name_H-M   'P c a 21'
_symmetry_Int_Tables_number      29
_space_group_name_Hall           'P 2c -2ac'
loop_
_symmetry_equiv_pos_site_id
_symmetry_equiv_pos_as_xyz
1 x,y,z
2 -x,-y,1/2+z
3 1/2+x,-y,z
4 1/2-x,y,1/2+z
_cell_length_a                   21.8126(5)
_cell_length_b                   5.66500(10)
_cell_length_c                   27.5401(7)
_cell_angle_alpha                90
_cell_angle_beta                 90
_cell_angle_gamma                90
_cell_volume                     3403.09
_exptl_crystal_colour            colorless
_exptl_crystal_description       block
_cell_formula_units_Z            4
loop_
_atom_site_label
_atom_site_type_symbol
_atom_site_fract_x
_atom_site_fract_y
_atom_site_fract_z
O1 O 0.20365(11) 0.1562(4) 0.20045(10)
H1 H 0.2036 0.0066 0.1980
O2 O 0.67665(12) 1.3521(5) 0.16159(10)
H2 H 0.6771 1.5010 0.1654
C1 C 0.67541(16) 1.0974(6) 0.09040(15)
H3 H 0.6858 0.9597 0.1109
H4 H 0.6485 1.0407 0.0639
C2 C 0.23852(16) 0.2429(6) 0.24122(14)
C3 C 0.80010(18) 0.8269(7) 0.06798(16)
H5 H 0.7987 0.8269 0.1025
C4 C 0.19968(16) 0.4158(6) 0.27125(14)
H6 H 0.1889 0.5527 0.2506
H7 H 0.2247 0.4750 0.2986
C5 C 0.58433(17) 1.1510(7) 0.14071(14)
C6 C 0.33692(18) 0.4813(7) 0.21020(15)
C7 C 0.48849(17) 0.9027(7) 0.16844(15)
C8 C 0.63933(16) 1.2749(6) 0.12124(14)
C9 C 0.73459(17) 1.1937(6) 0.06803(15)
H8 H 0.7244 1.3208 0.0447
H9 H 0.7604 1.2626 0.0940
C10 C 0.07495(17) 0.6763(6) 0.28752(15)
H10 H 0.0818 0.6812 0.2535
C11 C 0.38867(16) 0.6219(6) 0.19566(14)
C12 C 0.29340(17) 0.3700(6) 0.22296(15)
C13 C 0.54106(17) 1.0429(7) 0.15372(15)
C14 C 0.55078(18) 1.6566(7) 0.02711(14)
C15 C 0.32651(18) -0.1174(6) 0.33892(15)
C16 C 0.62090(17) 1.4974(6) 0.09407(14)
H11 H 0.6583 1.5828 0.0838
H12 H 0.5976 1.6018 0.1162
C17 C 0.14007(17) 0.3069(7) 0.29174(16)
H13 H 0.1168 0.2310 0.2651
H14 H 0.1505 0.1839 0.3159
C18 C 0.03947(18) 0.8500(7) 0.30967(16)
H15 H 0.0217 0.9712 0.2904
C19 C 0.25870(17) 0.0253(6) 0.27022(15)
H16 H 0.2220 -0.0678 0.2793
H17 H 0.2849 -0.0754 0.2495
C20 C 0.58147(19) 1.4440(7) 0.04906(16)
H18 H 0.6078 1.3696 0.0241
H19 H 0.5495 1.3282 0.0582
C21 C 0.37996(17) 0.8293(7) 0.16931(16)
H20 H 0.3396 0.8760 0.1605
C22 C 0.29400(19) 0.0914(7) 0.31613(15)
H21 H 0.3246 0.2142 0.3080
H22 H 0.2651 0.1595 0.3401
C23 C 0.49166(19) 1.7205(8) 0.03973(17)
H23 H 0.4702 1.6296 0.0632
C24 C 0.3891(2) -0.4980(7) 0.38022(16)
H24 H 0.4107 -0.6247 0.3950
C25 C 0.76993(17) 1.0038(7) 0.04228(16)
C26 C 0.58114(19) 1.7942(7) -0.00745(15)
H25 H 0.6218 1.7544 -0.0168
C27 C 0.49745(17) 0.6948(7) 0.19428(16)
H26 H 0.5379 0.6471 0.2025
C28 C 0.41538(19) -0.3735(7) 0.34325(17)
H27 H 0.4545 -0.4184 0.3312
C29 C 0.10072(17) 0.4937(7) 0.31542(14)
C30 C 0.02991(19) 0.8483(7) 0.35869(16)
H28 H 0.0060 0.9687 0.3734
C31 C 0.42954(17) 0.9689(7) 0.15572(16)
H29 H 0.4229 1.1096 0.1377
C32 C 0.3303(2) -0.4385(8) 0.39636(16)
H30 H 0.3112 -0.5279 0.4213
C33 C 0.38475(18) -0.1797(7) 0.32296(16)
H31 H 0.4040 -0.0902 0.2981
C34 C 0.3000(2) -0.2477(7) 0.37567(16)
H32 H 0.2603 -0.2062 0.3870
C35 C 0.0554(2) 0.6692(8) 0.38705(17)
H33 H 0.0489 0.6669 0.4212
C36 C 0.4630(2) 1.9144(9) 0.01889(19)
H34 H 0.4225 1.9552 0.0284
C37 C 0.44817(17) 0.5564(7) 0.20819(15)
H35 H 0.4550 0.4163 0.2263
C38 C 0.4926(2) 2.0461(8) -0.01495(19)
H36 H 0.4725 2.1770 -0.0294
C39 C 0.8038(3) 0.8155(11) -0.0314(2)
H37 H 0.8050 0.8115 -0.0659
C40 C 0.5524(2) 1.9899(8) -0.02854(17)
H38 H 0.5735 2.0834 -0.0518
C41 C 0.09051(18) 0.4938(7) 0.36503(16)
H39 H 0.1077 0.3720 0.3844
C42 C 0.8342(2) 0.6454(8) -0.0056(2)
H40 H 0.8564 0.5247 -0.0219
C43 C 0.7715(2) 0.9934(9) -0.00826(19)
H41 H 0.7503 1.1086 -0.0269
C44 C 0.83194(18) 0.6523(7) 0.0442(2)
H42 H 0.8527 0.5347 0.0625
loop_
_geom_bond_atom_site_label_1
_geom_bond_atom_site_label_2
_geom_bond_site_symmetry_1
_geom_bond_site_symmetry_2
O1 H1 1_555 1_555
O2 H2 1_555 1_555
C1 H3 1_555 1_555
H4 C1 1_555 1_555
C2 O1 1_555 1_555
C3 H5 1_555 1_555
C4 C2 1_555 1_555
H6 C4 1_555 1_555
H7 C4 1_555 1_555
C5 C8 1_555 1_555
C6 C11 1_555 1_555
C7 C13 1_555 1_555
C8 O2 1_555 1_555
C9 C1 1_555 1_555
H8 C9 1_555 1_555
H9 C9 1_555 1_555
C10 H10 1_555 1_555
C11 C21 1_555 1_555
C12 C2 1_555 1_555
C13 C5 1_555 1_555
C14 C20 1_555 1_555
C15 C22 1_555 1_555
C16 C8 1_555 1_555
H11 C16 1_555 1_555
H12 C16 1_555 1_555
C17 C4 1_555 1_555
H13 C17 1_555 1_555
H14 C17 1_555 1_555
C18 C10 1_555 1_555
H15 C18 1_555 1_555
C19 C2 1_555 1_555
H16 C19 1_555 1_555
H17 C19 1_555 1_555
C20 C16 1_555 1_555
H18 C20 1_555 1_555
H19 C20 1_555 1_555
C21 H20 1_555 1_555
C22 C19 1_555 1_555
H21 C22 1_555 1_555
H22 C22 1_555 1_555
C23 C14 1_555 1_555
H23 C23 1_555 1_555
C24 H24 1_555 1_555
C25 C3 1_555 1_555
C26 C14 1_555 1_555
H25 C26 1_555 1_555
C27 C7 1_555 1_555
H26 C27 1_555 1_555
C28 C24 1_555 1_555
H27 C28 1_555 1_555
C29 C10 1_555 1_555
C30 C18 1_555 1_555
H28 C30 1_555 1_555
C31 C7 1_555 1_555
H29 C31 1_555 1_555
C32 C24 1_555 1_555
H30 C32 1_555 1_555
C33 C15 1_555 1_555
H31 C33 1_555 1_555
C34 C15 1_555 1_555
H32 C34 1_555 1_555
C35 C30 1_555 1_555
H33 C35 1_555 1_555
C36 C23 1_555 1_555
H34 C36 1_555 1_555
C37 C11 1_555 1_555
H35 C37 1_555 1_555
C38 C36 1_555 1_555
H36 C38 1_555 1_555
C39 H37 1_555 1_555
C40 C26 1_555 1_555
H38 C40 1_555 1_555
C41 C29 1_555 1_555
H39 C41 1_555 1_555
C42 C39 1_555 1_555
H40 C42 1_555 1_555
C43 C25 1_555 1_555
H41 C43 1_555 1_555
C44 C3 1_555 1_555
H42 C44 1_555 1_555
C1 C8 1_555 1_555
C6 C12 1_555 1_555
C9 C25 1_555 1_555
C17 C29 1_555 1_555
C21 C31 1_555 1_555
C27 C37 1_555 1_555
C28 C33 1_555 1_555
C32 C34 1_555 1_555
C35 C41 1_555 1_555
C38 C40 1_555 1_555
C39 C43 1_555 1_555
C42 C44 1_555 1_555

#END
