
#######################################################################
#
#                 Cambridge Crystallographic Data Centre
#                                CCDC 
#
#######################################################################
#
# If this CIF has been generated from an entry in the Cambridge 
# Structural Database, then it will include bibliographic, chemical, 
# crystal, experimental, refinement or atomic coordinate data resulting 
# from the CCDC's data processing and validation procedures.
#
#######################################################################

data_ZITCOW
_chemical_formula_moiety         'C44 H41 F1 O2'
_chemical_name_systematic        
1,1'-(2-Fluoro-1,4-phenylene)bis(5-phenyl-3-(2-phenylethyl)pent-1-yn-3-ol)
_symmetry_cell_setting           orthorhombic
_symmetry_space_group_name_H-M   'P c a 21'
_symmetry_Int_Tables_number      29
_space_group_name_Hall           'P 2c -2ac'
loop_
_symmetry_equiv_pos_site_id
_symmetry_equiv_pos_as_xyz
1 x,y,z
2 -x,-y,1/2+z
3 1/2+x,-y,z
4 1/2-x,y,1/2+z
_cell_length_a                   22.0095(3)
_cell_length_b                   5.72450(10)
_cell_length_c                   28.0579(4)
_cell_angle_alpha                90
_cell_angle_beta                 90
_cell_angle_gamma                90
_cell_volume                     3535.11
_exptl_crystal_colour            colorless
_exptl_crystal_description       block
_cell_formula_units_Z            4
loop_
_atom_site_label
_atom_site_type_symbol
_atom_site_fract_x
_atom_site_fract_y
_atom_site_fract_z
O1 O 0.20871(7) 0.8336(2) 0.08201(6)
H1 H 0.1812 0.9215 0.0705
C1 C 0.43408(10) 0.0382(4) 0.12654(10)
O2 O 0.67864(8) -0.3420(3) 0.12221(6)
H2 H 0.6791 -0.2629 0.0966
C2 C 0.44988(10) 0.4386(4) 0.07487(10)
H3 H 0.4543 0.5715 0.0570
C3 C 0.38437(10) 0.1701(4) 0.11406(10)
H4 H 0.3456 0.1209 0.1227
C4 C 0.49966(10) 0.3067(4) 0.08759(11)
H5 H 0.5369 0.3455 0.0794
C5 C 0.49261(9) 0.1028(3) 0.11381(8)
C6 C 0.39152(9) 0.3726(3) 0.08756(8)
C7 C 0.54445(10) -0.0315(4) 0.12814(9)
C8 C 0.58746(9) -0.1393(3) 0.14144(8)
C9 C 0.33969(9) 0.5095(4) 0.07337(9)
C10 C 0.29689(9) 0.6177(3) 0.06072(8)
C11 C 0.64113(9) -0.2628(3) 0.16074(7)
C12 C 0.62074(10) -0.4819(3) 0.18775(8)
H6 H 0.5989 -0.5835 0.1660
H7 H 0.6564 -0.5655 0.1988
C13 C 0.58010(14) -0.4281(4) 0.23038(12)
H8 H 0.6039 -0.3447 0.2540
H9 H 0.5477 -0.3252 0.2200
C14 C 0.55233(12) -0.6393(4) 0.25358(9)
C15 C 0.58362(16) -0.7645(5) 0.28733(10)
H10 H 0.6230 -0.7213 0.2955
C16 C 0.5561(3) -0.9585(6) 0.30972(12)
H11 H 0.5772 -1.0443 0.3325
C17 C 0.4979(4) -1.0187(7) 0.2974(2)
H12 H 0.4793 -1.1447 0.3123
C18 C 0.4672(2) -0.8972(9) 0.2637(2)
H13 H 0.4280 -0.9414 0.2552
C19 C 0.49381(15) -0.7109(6) 0.24236(14)
H14 H 0.4721 -0.6283 0.2194
C20 C 0.67643(8) -0.0887(3) 0.19189(8)
H15 H 0.6876 0.0445 0.1724
H16 H 0.6497 -0.0328 0.2169
C21 C 0.73374(11) -0.1870(4) 0.21490(10)
H17 H 0.7226 -0.3091 0.2372
H18 H 0.7592 -0.2563 0.1905
C22 C 0.76921(10) -0.0018(4) 0.24071(10)
C23 C 0.7702(2) 0.0038(8) 0.28963(14)
H19 H 0.7497 -0.1098 0.3070
C24 C 0.8016(3) 0.1776(11) 0.31286(18)
H20 H 0.8013 0.1809 0.3460
C25 C 0.8330(2) 0.3449(8) 0.2888(2)
H21 H 0.8548 0.4585 0.3051
C26 C 0.83166(14) 0.3423(5) 0.24095(19)
H22 H 0.8525 0.4570 0.2241
C27 C 0.79979(12) 0.1719(4) 0.21618(13)
H23 H 0.7990 0.1745 0.1830
C28 C 0.24328(8) 0.7461(3) 0.04257(7)
C29 C 0.20495(8) 0.5743(3) 0.01309(7)
H24 H 0.2297 0.5148 -0.0128
H25 H 0.1940 0.4430 0.0332
C30 C 0.14700(10) 0.6795(4) -0.00778(10)
H26 H 0.1238 0.7533 0.0175
H27 H 0.1577 0.7989 -0.0308
C31 C 0.10825(10) 0.4970(4) -0.03167(9)
C32 C 0.08084(10) 0.3209(4) -0.00601(10)
H28 H 0.0861 0.3145 0.0268
C33 C 0.04547(12) 0.1526(4) -0.02839(13)
H29 H 0.0274 0.0355 -0.0103
C34 C 0.03706(15) 0.1570(6) -0.07590(14)
H30 H 0.0139 0.0423 -0.0907
C35 C 0.06331(19) 0.3344(7) -0.10241(14)
H31 H 0.0576 0.3394 -0.1352
C36 C 0.09797(15) 0.5042(6) -0.08019(11)
H32 H 0.1146 0.6248 -0.0982
C37 C 0.26401(9) 0.9601(3) 0.01396(8)
H33 H 0.2286 1.0504 0.0048
H34 H 0.2891 1.0580 0.0342
C38 C 0.29977(12) 0.8966(4) -0.03076(9)
H35 H 0.3304 0.7820 -0.0224
H36 H 0.2724 0.8246 -0.0535
C39 C 0.33021(11) 1.1014(4) -0.05404(9)
C40 C 0.30322(15) 1.2247(5) -0.08992(11)
H37 H 0.2645 1.1841 -0.1003
C41 C 0.3339(2) 1.4129(6) -0.11116(12)
H38 H 0.3154 1.4964 -0.1356
C42 C 0.38986(18) 1.4730(5) -0.09632(13)
H39 H 0.4100 1.5965 -0.1109
C43 C 0.41730(16) 1.3550(6) -0.06012(15)
H40 H 0.4556 1.3997 -0.0494
C44 C 0.38779(13) 1.1687(5) -0.03952(12)
H41 H 0.4069 1.0860 -0.0153
F1 F 0.42829(16) -0.1553(6) 0.15202(17)
H42? H 0.1909 0.7257 0.0974
H43? H 0.2303 0.9154 0.0990
H44? H 0.6773 -0.4849 0.1205
F2? F 0.4533(2) 0.6358(9) 0.0519(3)
F3? F 0.3307(3) 0.1146(17) 0.1227(4)
F4? F 0.5514(6) 0.357(3) 0.0803(10)
H45? H 0.4269 -0.0973 0.1461
loop_
_geom_bond_atom_site_label_1
_geom_bond_atom_site_label_2
_geom_bond_site_symmetry_1
_geom_bond_site_symmetry_2
O1 H1 1_555 1_555
C1 C3 1_555 1_555
O2 H2 1_555 1_555
C2 H3 1_555 1_555
C3 H4 1_555 1_555
C4 C2 1_555 1_555
H5 C4 1_555 1_555
C5 C1 1_555 1_555
C6 C2 1_555 1_555
C7 C5 1_555 1_555
C8 C7 1_555 1_555
C9 C6 1_555 1_555
C10 C9 1_555 1_555
C11 O2 1_555 1_555
C12 C11 1_555 1_555
H6 C12 1_555 1_555
H7 C12 1_555 1_555
C13 C12 1_555 1_555
H8 C13 1_555 1_555
H9 C13 1_555 1_555
C14 C13 1_555 1_555
C15 C14 1_555 1_555
H10 C15 1_555 1_555
C16 C15 1_555 1_555
H11 C16 1_555 1_555
C17 C16 1_555 1_555
H12 C17 1_555 1_555
C18 C17 1_555 1_555
H13 C18 1_555 1_555
C19 C14 1_555 1_555
H14 C19 1_555 1_555
C20 C11 1_555 1_555
H15 C20 1_555 1_555
H16 C20 1_555 1_555
C21 C20 1_555 1_555
H17 C21 1_555 1_555
H18 C21 1_555 1_555
C22 C21 1_555 1_555
C23 C22 1_555 1_555
H19 C23 1_555 1_555
C24 C23 1_555 1_555
H20 C24 1_555 1_555
C25 C24 1_555 1_555
H21 C25 1_555 1_555
C26 C25 1_555 1_555
H22 C26 1_555 1_555
C27 C22 1_555 1_555
H23 C27 1_555 1_555
C28 O1 1_555 1_555
C29 C28 1_555 1_555
H24 C29 1_555 1_555
H25 C29 1_555 1_555
C30 C29 1_555 1_555
H26 C30 1_555 1_555
H27 C30 1_555 1_555
C31 C30 1_555 1_555
C32 C31 1_555 1_555
H28 C32 1_555 1_555
C33 C32 1_555 1_555
H29 C33 1_555 1_555
C34 C33 1_555 1_555
H30 C34 1_555 1_555
C35 C34 1_555 1_555
H31 C35 1_555 1_555
C36 C31 1_555 1_555
H32 C36 1_555 1_555
C37 C28 1_555 1_555
H33 C37 1_555 1_555
H34 C37 1_555 1_555
C38 C37 1_555 1_555
H35 C38 1_555 1_555
H36 C38 1_555 1_555
C39 C38 1_555 1_555
C40 C39 1_555 1_555
H37 C40 1_555 1_555
C41 C40 1_555 1_555
H38 C41 1_555 1_555
C42 C41 1_555 1_555
H39 C42 1_555 1_555
C43 C42 1_555 1_555
H40 C43 1_555 1_555
C44 C39 1_555 1_555
H41 C44 1_555 1_555
F1 C1 1_555 1_555
C3 C6 1_555 1_555
C4 C5 1_555 1_555
C8 C11 1_555 1_555
C10 C28 1_555 1_555
C18 C19 1_555 1_555
C26 C27 1_555 1_555
C35 C36 1_555 1_555
C43 C44 1_555 1_555

#END
