
#######################################################################
#
#                 Cambridge Crystallographic Data Centre
#                                CCDC 
#
#######################################################################
#
# If this CIF has been generated from an entry in the Cambridge 
# Structural Database, then it will include bibliographic, chemical, 
# crystal, experimental, refinement or atomic coordinate data resulting 
# from the CCDC's data processing and validation procedures.
#
#######################################################################

data_ZITCOW02
_chemical_formula_moiety         'C44 H41 F1 O2'
_chemical_name_systematic        
1,1'-(2-Fluoro-1,4-phenylene)bis(5-phenyl-3-(2-phenylethyl)pent-1-yn-3-ol)
_symmetry_cell_setting           orthorhombic
_symmetry_space_group_name_H-M   'P c a 21'
_symmetry_Int_Tables_number      29
_space_group_name_Hall           'P 2c -2ac'
loop_
_symmetry_equiv_pos_site_id
_symmetry_equiv_pos_as_xyz
1 x,y,z
2 -x,-y,1/2+z
3 1/2+x,-y,z
4 1/2-x,y,1/2+z
_cell_length_a                   21.9691(3)
_cell_length_b                   5.67820(10)
_cell_length_c                   27.7686(4)
_cell_angle_alpha                90
_cell_angle_beta                 90
_cell_angle_gamma                90
_cell_volume                     3463.99
_exptl_crystal_colour            colorless
_exptl_crystal_description       block
_cell_formula_units_Z            4
loop_
_atom_site_label
_atom_site_type_symbol
_atom_site_fract_x
_atom_site_fract_y
_atom_site_fract_z
O1 O 0.20694(6) 0.8404(2) 0.40686(5)
H1 H 0.1959 0.7241 0.3897
C1 C 0.43292(9) 0.0348(4) 0.36282(8)
O2 O 0.67831(7) -0.3493(2) 0.36715(5)
H2 H 0.6687 -0.4850 0.3776
C2 C 0.44903(10) 0.4419(4) 0.41516(8)
H3 H 0.4538 0.5778 0.4334
C3 C 0.38301(9) 0.1691(4) 0.37549(8)
H4 H 0.3434 0.1207 0.3669
C4 C 0.49906(9) 0.3067(4) 0.40223(9)
H5 H 0.5383 0.3549 0.4114
C5 C 0.54337(9) -0.0366(4) 0.36123(8)
C6 C 0.58642(9) -0.1447(3) 0.34788(7)
C7 C 0.33837(9) 0.5122(4) 0.41620(7)
C8 C 0.29556(9) 0.6226(3) 0.42897(7)
C9 C 0.64047(8) -0.2691(3) 0.32811(7)
C10 C 0.62023(9) -0.4907(3) 0.30107(7)
H6 H 0.6563 -0.5771 0.2903
H7 H 0.5976 -0.5929 0.3232
C11 C 0.58019(12) -0.4352(4) 0.25748(9)
H8 H 0.5482 -0.3250 0.2674
H9 H 0.6051 -0.3563 0.2330
C12 C 0.55073(10) -0.6480(4) 0.23507(7)
C13 C 0.58122(12) -0.7808(4) 0.20075(8)
H10 H 0.6213 -0.7412 0.1921
C14 C 0.55266(18) -0.9737(5) 0.17887(9)
H11 H 0.5733 -1.0622 0.1554
C15 C 0.4943(2) -1.0328(6) 0.19186(14)
H12 H 0.4751 -1.1621 0.1772
C16 C 0.46423(16) -0.9055(7) 0.22580(14)
H13 H 0.4244 -0.9481 0.2347
C17 C 0.49178(12) -0.7146(6) 0.24714(11)
H14 H 0.4703 -0.6274 0.2704
C18 C 0.67581(8) -0.0927(3) 0.29673(7)
H15 H 0.6871 0.0429 0.3167
H16 H 0.6488 -0.0356 0.2712
C19 C 0.73360(9) -0.1932(4) 0.27351(8)
H17 H 0.7596 -0.2624 0.2985
H18 H 0.7225 -0.3182 0.2508
C20 C 0.76829(9) -0.0040(4) 0.24735(8)
C21 C 0.76915(16) 0.0033(6) 0.19759(11)
H19 H 0.7488 -0.1136 0.1798
C22 C 0.7999(2) 0.1821(8) 0.17362(14)
H20 H 0.7987 0.1878 0.1398
C23 C 0.83179(15) 0.3505(6) 0.19841(13)
H21 H 0.8538 0.4673 0.1819
C24 C 0.83108(11) 0.3452(4) 0.24769(13)
H22 H 0.8523 0.4610 0.2651
C25 C 0.79953(10) 0.1715(4) 0.27208(10)
H23 H 0.7992 0.1721 0.3059
C26 C 0.24140(8) 0.7516(3) 0.44712(6)
C27 C 0.20276(8) 0.5808(3) 0.47693(7)
H24 H 0.1919 0.4459 0.4567
H25 H 0.2275 0.5214 0.5037
C28 C 0.14428(8) 0.6879(3) 0.49748(8)
H26 H 0.1548 0.8096 0.5211
H27 H 0.1212 0.7629 0.4714
C29 C 0.10512(8) 0.5035(4) 0.52133(7)
C30 C 0.07878(9) 0.3228(4) 0.49480(8)
H28 H 0.0850 0.3162 0.4613
C31 C 0.04339(10) 0.1518(4) 0.51703(9)
H29 H 0.0257 0.0318 0.4984
C32 C 0.03400(11) 0.1563(5) 0.56602(11)
H30 H 0.0108 0.0381 0.5810
C33 C 0.05936(13) 0.3387(5) 0.59319(9)
H31 H 0.0527 0.3454 0.6266
C34 C 0.09430(10) 0.5093(5) 0.57083(9)
H32 H 0.1111 0.6317 0.5894
C35 C 0.26211(8) 0.9678(3) 0.47589(7)
H33 H 0.2263 1.0608 0.4849
H34 H 0.2879 1.0664 0.4553
C36 C 0.29745(11) 0.9027(4) 0.52154(8)
H35 H 0.2692 0.8347 0.5450
H36 H 0.3277 0.7820 0.5135
C37 C 0.32937(10) 1.1088(4) 0.54424(7)
C38 C 0.30243(11) 1.2395(4) 0.58057(8)
H37 H 0.2630 1.2017 0.5911
C39 C 0.33363(13) 1.4263(5) 0.60147(9)
H38 H 0.3152 1.5128 0.6264
C40 C 0.39087(12) 1.4859(4) 0.58618(9)
H39 H 0.4117 1.6118 0.6007
C41 C 0.41776(12) 1.3613(5) 0.54949(10)
H40 H 0.4565 1.4044 0.5382
C42 C 0.38734(10) 1.1711(4) 0.52908(9)
H41 H 0.4064 1.0834 0.5046
C43 C 0.39040(9) 0.3738(3) 0.40205(7)
C44 C 0.49159(9) 0.1004(3) 0.37577(7)
F1 F 0.42649(12) -0.1599(5) 0.33689(12)
H42? H 0.1753 0.9157 0.4154
H43? H 0.2315 0.9236 0.3905
H44? H 0.6807 -0.2455 0.3891
F2? F 0.4530(2) 0.6406(7) 0.4375(2)
F3? F 0.3282(3) 0.1205(15) 0.3660(3)
H45? H 0.4264 -0.1019 0.3443
loop_
_geom_bond_atom_site_label_1
_geom_bond_atom_site_label_2
_geom_bond_site_symmetry_1
_geom_bond_site_symmetry_2
O1 H1 1_555 1_555
C1 C3 1_555 1_555
O2 H2 1_555 1_555
C2 H3 1_555 1_555
C3 H4 1_555 1_555
C4 C2 1_555 1_555
H5 C4 1_555 1_555
C5 C6 1_555 1_555
C6 C9 1_555 1_555
C7 C8 1_555 1_555
C8 C26 1_555 1_555
C9 O2 1_555 1_555
C10 C9 1_555 1_555
H6 C10 1_555 1_555
H7 C10 1_555 1_555
C11 C10 1_555 1_555
H8 C11 1_555 1_555
H9 C11 1_555 1_555
C12 C11 1_555 1_555
C13 C12 1_555 1_555
H10 C13 1_555 1_555
C14 C13 1_555 1_555
H11 C14 1_555 1_555
C15 C14 1_555 1_555
H12 C15 1_555 1_555
C16 C15 1_555 1_555
H13 C16 1_555 1_555
C17 C12 1_555 1_555
H14 C17 1_555 1_555
C18 C9 1_555 1_555
H15 C18 1_555 1_555
H16 C18 1_555 1_555
C19 C18 1_555 1_555
H17 C19 1_555 1_555
H18 C19 1_555 1_555
C20 C19 1_555 1_555
C21 C20 1_555 1_555
H19 C21 1_555 1_555
C22 C21 1_555 1_555
H20 C22 1_555 1_555
C23 C22 1_555 1_555
H21 C23 1_555 1_555
C24 C23 1_555 1_555
H22 C24 1_555 1_555
C25 C20 1_555 1_555
H23 C25 1_555 1_555
C26 O1 1_555 1_555
C27 C26 1_555 1_555
H24 C27 1_555 1_555
H25 C27 1_555 1_555
C28 C27 1_555 1_555
H26 C28 1_555 1_555
H27 C28 1_555 1_555
C29 C28 1_555 1_555
C30 C29 1_555 1_555
H28 C30 1_555 1_555
C31 C30 1_555 1_555
H29 C31 1_555 1_555
C32 C31 1_555 1_555
H30 C32 1_555 1_555
C33 C32 1_555 1_555
H31 C33 1_555 1_555
C34 C29 1_555 1_555
H32 C34 1_555 1_555
C35 C26 1_555 1_555
H33 C35 1_555 1_555
H34 C35 1_555 1_555
C36 C35 1_555 1_555
H35 C36 1_555 1_555
H36 C36 1_555 1_555
C37 C36 1_555 1_555
C38 C37 1_555 1_555
H37 C38 1_555 1_555
C39 C38 1_555 1_555
H38 C39 1_555 1_555
C40 C39 1_555 1_555
H39 C40 1_555 1_555
C41 C40 1_555 1_555
H40 C41 1_555 1_555
C42 C37 1_555 1_555
H41 C42 1_555 1_555
C43 C2 1_555 1_555
C44 C1 1_555 1_555
F1 C1 1_555 1_555
C3 C43 1_555 1_555
C4 C44 1_555 1_555
C5 C44 1_555 1_555
C7 C43 1_555 1_555
C16 C17 1_555 1_555
C24 C25 1_555 1_555
C33 C34 1_555 1_555
C41 C42 1_555 1_555

#END
