
#######################################################################
#
#                 Cambridge Crystallographic Data Centre
#                                CCDC 
#
#######################################################################
#
# If this CIF has been generated from an entry in the Cambridge 
# Structural Database, then it will include bibliographic, chemical, 
# crystal, experimental, refinement or atomic coordinate data resulting 
# from the CCDC's data processing and validation procedures.
#
#######################################################################

data_ZITPAV
_chemical_formula_moiety         'C25 H23 N1 O4'
_chemical_name_systematic        
'1-Benzoyl-5-hydroxy-2-phenylpiperidin-4-yl benzoate'
_symmetry_cell_setting           monoclinic
_symmetry_space_group_name_H-M   'P 21/c'
_symmetry_Int_Tables_number      14
_space_group_name_Hall           '-P 2ybc'
loop_
_symmetry_equiv_pos_site_id
_symmetry_equiv_pos_as_xyz
1 x,y,z
2 -x,1/2+y,1/2-z
3 -x,-y,-z
4 x,1/2-y,1/2+z
_cell_length_a                   13.259(3)
_cell_length_b                   10.000(2)
_cell_length_c                   15.593(3)
_cell_angle_alpha                90
_cell_angle_beta                 98.61(3)
_cell_angle_gamma                90
_cell_volume                     2044.18
_exptl_crystal_colour            colorless
_exptl_crystal_description       plate
_cell_formula_units_Z            4
loop_
_atom_site_label
_atom_site_type_symbol
_atom_site_fract_x
_atom_site_fract_y
_atom_site_fract_z
O1 O 0.9194(5) 0.2581(6) 0.0836(4)
O2 O 0.8280(4) 0.3888(6) 0.1637(4)
O3 O 0.7000(4) 0.3449(6) 0.0105(4)
H1 H 0.6406 0.3305 -0.0108
O4 O 0.4993(4) 0.7078(7) 0.0630(4)
N1 N 0.6423(5) 0.6318(7) 0.1470(4)
C1 C 0.8832(6) 0.1803(10) 0.2224(6)
C2 C 0.9080(6) 0.0469(10) 0.2082(6)
H2 H 0.9221 0.0193 0.1529
C3 C 0.9120(7) -0.0430(10) 0.2741(6)
H3 H 0.9247 -0.1343 0.2629
C4 C 0.8973(7) -0.0036(9) 0.3611(6)
H4 H 0.9020 -0.0657 0.4076
C5 C 0.8755(7) 0.1344(10) 0.3721(6)
H5 H 0.8620 0.1661 0.4267
C6 C 0.8739(7) 0.2241(10) 0.3020(6)
H6 H 0.8660 0.3171 0.3115
C7 C 0.8806(6) 0.2748(9) 0.1488(6)
C8 C 0.6288(6) 0.5017(8) 0.1073(5)
H7 H 0.5593 0.4951 0.0739
H8 H 0.6356 0.4322 0.1530
C9 C 0.7083(6) 0.4763(8) 0.0463(5)
H9 H 0.6990 0.5435 -0.0018
C10 C 0.8158(6) 0.4906(8) 0.0981(5)
H10 H 0.8686 0.4806 0.0590
C11 C 0.8262(6) 0.6260(9) 0.1434(5)
H11 H 0.8251 0.6967 0.0988
H12 H 0.8934 0.6299 0.1807
C12 C 0.7426(5) 0.6573(9) 0.1996(5)
H13 H 0.7460 0.7559 0.2105
C13 C 0.7550(6) 0.5910(8) 0.2886(5)
C14 C 0.8461(6) 0.6089(9) 0.3449(5)
H14 H 0.8998 0.6588 0.3263
C15 C 0.8593(7) 0.5548(10) 0.4273(6)
H15 H 0.9215 0.5694 0.4650
C16 C 0.7823(7) 0.4788(10) 0.4561(6)
H16 H 0.7915 0.4403 0.5124
C17 C 0.6913(7) 0.4616(10) 0.3992(6)
H17 H 0.6383 0.4088 0.4165
C18 C 0.6775(6) 0.5194(9) 0.3193(5)
H18 H 0.6133 0.5106 0.2834
C19 C 0.5720(6) 0.7307(8) 0.1217(5)
C20 C 0.5871(6) 0.8654(8) 0.1638(5)
C21 C 0.5964(6) 0.8773(9) 0.2547(5)
H19 H 0.5954 0.8012 0.2910
C22 C 0.6071(7) 1.0053(9) 0.2882(6)
H20 H 0.6115 1.0175 0.3491
C23 C 0.6114(7) 1.1152(10) 0.2362(7)
H21 H 0.6212 1.2017 0.2614
C24 C 0.6017(8) 1.1003(10) 0.1482(6)
H22 H 0.6029 1.1763 0.1118
C25 C 0.5901(7) 0.9744(9) 0.1128(6)
H23 H 0.5841 0.9637 0.0518
loop_
_geom_bond_atom_site_label_1
_geom_bond_atom_site_label_2
_geom_bond_site_symmetry_1
_geom_bond_site_symmetry_2
O1 C7 1_555 1_555
O2 C7 1_555 1_555
O3 H1 1_555 1_555
O4 C19 1_555 1_555
N1 C8 1_555 1_555
C1 C2 1_555 1_555
C2 H2 1_555 1_555
C3 C2 1_555 1_555
H3 C3 1_555 1_555
C4 C3 1_555 1_555
H4 C4 1_555 1_555
C5 C4 1_555 1_555
H5 C5 1_555 1_555
C6 C1 1_555 1_555
H6 C6 1_555 1_555
C7 C1 1_555 1_555
C8 H7 1_555 1_555
H8 C8 1_555 1_555
C9 O3 1_555 1_555
H9 C9 1_555 1_555
C10 O2 1_555 1_555
H10 C10 1_555 1_555
C11 C10 1_555 1_555
H11 C11 1_555 1_555
H12 C11 1_555 1_555
C12 N1 1_555 1_555
H13 C12 1_555 1_555
C13 C12 1_555 1_555
C14 C13 1_555 1_555
H14 C14 1_555 1_555
C15 C14 1_555 1_555
H15 C15 1_555 1_555
C16 C15 1_555 1_555
H16 C16 1_555 1_555
C17 C16 1_555 1_555
H17 C17 1_555 1_555
C18 C13 1_555 1_555
H18 C18 1_555 1_555
C19 N1 1_555 1_555
C20 C19 1_555 1_555
C21 C20 1_555 1_555
H19 C21 1_555 1_555
C22 C21 1_555 1_555
H20 C22 1_555 1_555
C23 C22 1_555 1_555
H21 C23 1_555 1_555
C24 C23 1_555 1_555
H22 C24 1_555 1_555
C25 C20 1_555 1_555
H23 C25 1_555 1_555
C5 C6 1_555 1_555
C8 C9 1_555 1_555
C9 C10 1_555 1_555
C11 C12 1_555 1_555
C17 C18 1_555 1_555
C24 C25 1_555 1_555

#END
