
#######################################################################
#
#                 Cambridge Crystallographic Data Centre
#                                CCDC 
#
#######################################################################
#
# If this CIF has been generated from an entry in the Cambridge 
# Structural Database, then it will include bibliographic, chemical, 
# crystal, experimental, refinement or atomic coordinate data resulting 
# from the CCDC's data processing and validation procedures.
#
#######################################################################

data_ZIYYOX
_chemical_formula_moiety         'C18 H20 N2 O8,C8 H8 O2 S4'
_chemical_name_systematic        
'2,6-bis(2-(2-hydroxyethoxy)ethyl)pyrrolo[3,4-f]isoindole-1,3,5,7(2H,6H)-tetrone (2-(4-(hydroxymethyl)-1,3-dithiol-2-ylidene)-1,3-dithiol-4-yl)methanol'
_symmetry_cell_setting           monoclinic
_symmetry_space_group_name_H-M   'P 21'
_symmetry_Int_Tables_number      4
_space_group_name_Hall           'P 2yb'
loop_
_symmetry_equiv_pos_site_id
_symmetry_equiv_pos_as_xyz
1 x,y,z
2 -x,1/2+y,-z
_cell_length_a                   11.9236(4)
_cell_length_b                   6.9553(3)
_cell_length_c                   16.7123(5)
_cell_angle_alpha                90
_cell_angle_beta                 104.157(2)
_cell_angle_gamma                90
_cell_volume                     1343.89
_exptl_crystal_colour            green
_exptl_crystal_description       tablet
_cell_formula_units_Z            2
loop_
_atom_site_label
_atom_site_type_symbol
_atom_site_fract_x
_atom_site_fract_y
_atom_site_fract_z
C1 C 0.4655(6) 0.4638(17) 0.5587(4)
H1 H 0.4463 0.3645 0.5150
H2 H 0.4753 0.5879 0.5323
C2 C 0.3701(7) 0.4796(13) 0.6002(4)
C3 C 0.2581(6) 0.4690(15) 0.5647(4)
H3 H 0.2325 0.4339 0.5083
C4 C 0.2626(6) 0.5595(14) 0.7147(4)
C5 C 0.0336(5) 0.6973(16) 0.9412(4)
H4 H 0.0196 0.5706 0.9639
H5 H 0.0544 0.7899 0.9875
C6 C 0.1311(7) 0.6819(14) 0.8988(4)
C7 C 0.2430(6) 0.7055(13) 0.9356(4)
H6 H 0.2673 0.7486 0.9911
C8 C 0.2359(6) 0.6006(13) 0.7857(4)
O1 O 0.5691(4) 0.4145(10) 0.6154(3)
H7 H 0.627(3) 0.529(7) 0.616(3)
O2 O -0.0696(4) 0.7612(12) 0.8827(3)
H8 H -0.137(3) 0.684(9) 0.897(3)
S1 S 0.40695(14) 0.5497(3) 0.70546(10)
S2 S 0.15744(15) 0.5201(3) 0.62247(10)
S3 S 0.09269(14) 0.6208(3) 0.79447(10)
S4 S 0.34264(15) 0.6544(3) 0.87814(10)
C9 C 0.6736(8) 0.9057(15) 0.6760(4)
H9 H 0.6009 0.8345 0.6533
H10 H 0.6750 0.9493 0.7326
C10 C 0.7811(6) 0.7798(18) 0.6751(5)
H11 H 0.8475 0.8634 0.6729
H12 H 0.8025 0.7022 0.7262
C11 C 0.8580(6) 0.5422(16) 0.6022(4)
H13 H 0.9192 0.6278 0.5916
H14 H 0.8886 0.4778 0.6560
C12 C 0.8281(6) 0.3967(15) 0.5365(4)
H15 H 0.8929 0.3042 0.5436
H16 H 0.7594 0.3248 0.5433
C13 C 0.6930(6) 0.4983(14) 0.4019(4)
C14 C 0.7092(6) 0.5485(15) 0.3181(4)
C15 C 0.6286(6) 0.5776(14) 0.2455(4)
H17 H 0.5480 0.5698 0.2422
C16 C 0.6706(6) 0.6192(13) 0.1767(4)
C17 C 0.6097(6) 0.6683(14) 0.0912(4)
C18 C 0.8184(5) 0.2589(13) -0.1748(4)
H18 H 0.8155 0.2102 -0.2309
H19 H 0.8915 0.3308 -0.1548
C19 C 0.7182(6) 0.3871(14) -0.1770(4)
H20 H 0.7011 0.4630 -0.2286
H21 H 0.6492 0.3085 -0.1763
C20 C 0.6434(6) 0.6155(14) -0.1028(4)
H22 H 0.5857 0.5249 -0.0906
H23 H 0.6095 0.6768 -0.1568
C21 C 0.6724(6) 0.7711(13) -0.0349(4)
H24 H 0.7412 0.8437 -0.0411
H25 H 0.6070 0.8625 -0.0429
C22 C 0.8078(6) 0.6753(15) 0.1007(5)
C23 C 0.7899(6) 0.6288(16) 0.1826(4)
C24 C 0.8736(6) 0.5831(13) 0.2558(4)
H26 H 0.9543 0.5775 0.2592
C25 C 0.8269(6) 0.5476(13) 0.3215(4)
C26 C 0.8892(6) 0.5017(13) 0.4092(4)
N1 N 0.8037(5) 0.4739(11) 0.4521(3)
N2 N 0.6952(5) 0.6947(12) 0.0481(3)
O3 O 0.7557(4) 0.6573(11) 0.6058(3)
O4 O 0.6045(4) 0.4757(11) 0.4218(3)
O5 O 0.5071(4) 0.6823(10) 0.0611(3)
O6 O 0.8136(5) 0.1050(10) -0.1217(3)
H27 H 0.900(4) 0.031(7) -0.116(4)
O7 O 0.6859(5) 1.0666(13) 0.6234(4)
H28 H 0.609(5) 1.157(8) 0.629(4)
O8 O 0.7425(4) 0.5166(10) -0.1065(3)
O9 O 0.8968(4) 0.6944(10) 0.0776(3)
O10 O 0.9934(4) 0.4861(10) 0.4390(3)
loop_
_geom_bond_atom_site_label_1
_geom_bond_atom_site_label_2
_geom_bond_site_symmetry_1
_geom_bond_site_symmetry_2
C1 H1 1_555 1_555
H2 C1 1_555 1_555
C2 C1 1_555 1_555
C3 C2 1_555 1_555
H3 C3 1_555 1_555
C4 C8 1_555 1_555
C5 H4 1_555 1_555
H5 C5 1_555 1_555
C6 C5 1_555 1_555
C7 C6 1_555 1_555
H6 C7 1_555 1_555
C8 S3 1_555 1_555
O1 C1 1_555 1_555
H7 O1 1_555 1_555
O2 C5 1_555 1_555
H8 O2 1_555 1_555
S1 C2 1_555 1_555
S2 C3 1_555 1_555
S3 C6 1_555 1_555
S4 C7 1_555 1_555
C9 H9 1_555 1_555
H10 C9 1_555 1_555
C10 C9 1_555 1_555
H11 C10 1_555 1_555
H12 C10 1_555 1_555
C11 H13 1_555 1_555
H14 C11 1_555 1_555
C12 C11 1_555 1_555
H15 C12 1_555 1_555
H16 C12 1_555 1_555
C13 C14 1_555 1_555
C14 C15 1_555 1_555
C15 H17 1_555 1_555
C16 C15 1_555 1_555
C17 C16 1_555 1_555
C18 H18 1_555 1_555
H19 C18 1_555 1_555
C19 C18 1_555 1_555
H20 C19 1_555 1_555
H21 C19 1_555 1_555
C20 H22 1_555 1_555
H23 C20 1_555 1_555
C21 C20 1_555 1_555
H24 C21 1_555 1_555
H25 C21 1_555 1_555
C22 C23 1_555 1_555
C23 C16 1_555 1_555
C24 C23 1_555 1_555
H26 C24 1_555 1_555
C25 C14 1_555 1_555
C26 C25 1_555 1_555
N1 C12 1_555 1_555
N2 C17 1_555 1_555
O3 C10 1_555 1_555
O4 C13 1_555 1_555
O5 C17 1_555 1_555
O6 C18 1_555 1_555
H27 O6 1_555 1_555
O7 C9 1_555 1_555
H28 O7 1_555 1_555
O8 C19 1_555 1_555
O9 C22 1_555 1_555
O10 C26 1_555 1_555
C4 S1 1_555 1_555
C4 S2 1_555 1_555
C8 S4 1_555 1_555
C11 O3 1_555 1_555
C13 N1 1_555 1_555
C20 O8 1_555 1_555
C21 N2 1_555 1_555
C22 N2 1_555 1_555
C24 C25 1_555 1_555
C26 N1 1_555 1_555

#END
