
#######################################################################
#
#                 Cambridge Crystallographic Data Centre
#                                CCDC 
#
#######################################################################
#
# If this CIF has been generated from an entry in the Cambridge 
# Structural Database, then it will include bibliographic, chemical, 
# crystal, experimental, refinement or atomic coordinate data resulting 
# from the CCDC's data processing and validation procedures.
#
#######################################################################

data_ZIZGOE01
_chemical_formula_moiety         'C14 H22 N2 O3,H2 O1'
_chemical_name_systematic        
'2,3,4,5,6,8,9,10,11,12-Decahydro-1,7,13,4,10-benzotrioxadiazacyclopentadecine monohydrate'
_symmetry_cell_setting           orthorhombic
_symmetry_space_group_name_H-M   'P b c n'
_symmetry_Int_Tables_number      60
_space_group_name_Hall           '-P 2n 2ab'
loop_
_symmetry_equiv_pos_site_id
_symmetry_equiv_pos_as_xyz
1 x,y,z
2 1/2-x,1/2-y,1/2+z
3 -x,y,1/2-z
4 1/2+x,1/2-y,-z
5 -x,-y,-z
6 1/2+x,1/2+y,1/2-z
7 x,-y,1/2+z
8 1/2-x,1/2+y,z
_cell_length_a                   36.9551(12)
_cell_length_b                   9.0727(3)
_cell_length_c                   9.2441(3)
_cell_angle_alpha                90
_cell_angle_beta                 90
_cell_angle_gamma                90
_cell_volume                     3099.39
_exptl_crystal_colour            colorless
_exptl_crystal_description       block
_cell_formula_units_Z            8
_exptl_crystal_recrystallization_method dichloromethane/hexane
loop_
_atom_site_label
_atom_site_type_symbol
_atom_site_fract_x
_atom_site_fract_y
_atom_site_fract_z
O1 O 0.15689(2) 0.13658(9) 0.13192(8)
O2 O 0.04626(2) 0.21210(8) -0.02599(8)
O3 O 0.16094(2) 0.32518(8) -0.07945(8)
N1 N 0.08588(3) 0.09609(10) 0.20388(10)
N2 N 0.09234(3) 0.43039(10) -0.13730(10)
C1 C 0.18928(3) 0.32475(11) 0.01589(11)
C2 C 0.21959(3) 0.41456(13) 0.00346(13)
C3 C 0.24736(3) 0.40507(15) 0.10494(15)
C4 C 0.24463(3) 0.31017(14) 0.21975(15)
C5 C 0.21421(3) 0.22042(13) 0.23438(14)
C6 C 0.18685(3) 0.22494(11) 0.13153(12)
C7 C 0.14911(3) 0.05449(13) 0.26137(13)
C8 C 0.11289(3) -0.01734(12) 0.23596(13)
C9 C 0.05057(3) 0.03647(12) 0.16118(12)
C10 C 0.02805(3) 0.16003(13) 0.09975(12)
C11 C 0.03167(3) 0.34542(13) -0.08208(13)
C12 C 0.05681(3) 0.39689(13) -0.19990(12)
C13 C 0.12130(3) 0.44252(13) -0.24431(12)
C14 C 0.15733(3) 0.45437(13) -0.16919(13)
H3 H 0.0945(4) 0.1489(16) 0.1302(16)
H4 H 0.0979(4) 0.3571(16) -0.0784(15)
H5 H 0.2205(4) 0.4817(16) -0.0741(15)
H6 H 0.2690(4) 0.4660(18) 0.0946(17)
H7 H 0.2641(4) 0.3042(17) 0.2914(18)
H8 H 0.2125(4) 0.1547(16) 0.3165(15)
H9 H 0.1482(4) 0.1250(16) 0.3438(15)
H10 H 0.1681(4) -0.0198(16) 0.2790(15)
H11 H 0.1146(3) -0.0915(14) 0.1545(14)
H12 H 0.1056(4) -0.0701(15) 0.3231(16)
H13 H 0.0385(3) -0.0047(15) 0.2454(15)
H14 H 0.0528(3) -0.0448(14) 0.0895(14)
H15 H 0.0037(4) 0.1284(15) 0.0724(15)
H16 H 0.0257(3) 0.2419(14) 0.1720(14)
H17 H 0.0307(3) 0.4191(14) -0.0045(14)
H18 H 0.0069(4) 0.3277(15) -0.1183(16)
H19 H 0.0581(3) 0.3205(14) -0.2751(15)
H20 H 0.0474(4) 0.4891(17) -0.2417(16)
H21 H 0.1174(3) 0.5329(16) -0.3008(15)
H22 H 0.1221(3) 0.3579(15) -0.3122(14)
H23 H 0.1775(3) 0.4563(15) -0.2387(15)
H24 H 0.1585(3) 0.5443(15) -0.1056(15)
O4 O 0.07690(3) 0.27178(11) 0.45833(10)
H1 H 0.0827(5) 0.362(2) 0.438(2)
H2 H 0.0797(5) 0.223(2) 0.372(2)
loop_
_geom_bond_atom_site_label_1
_geom_bond_atom_site_label_2
_geom_bond_site_symmetry_1
_geom_bond_site_symmetry_2
O1 C6 1_555 1_555
O2 C10 1_555 1_555
O3 C1 1_555 1_555
N1 C8 1_555 1_555
N2 C12 1_555 1_555
C1 C2 1_555 1_555
C2 C3 1_555 1_555
C3 C4 1_555 1_555
C4 C5 1_555 1_555
C5 C6 1_555 1_555
C6 C1 1_555 1_555
C7 O1 1_555 1_555
C8 C7 1_555 1_555
C9 N1 1_555 1_555
C10 C9 1_555 1_555
C11 O2 1_555 1_555
C12 C11 1_555 1_555
C13 N2 1_555 1_555
C14 O3 1_555 1_555
O4 H1 1_555 1_555
H2 O4 1_555 1_555
H3 N1 1_555 1_555
H4 N2 1_555 1_555
H5 C2 1_555 1_555
H6 C3 1_555 1_555
H7 C4 1_555 1_555
H8 C5 1_555 1_555
H9 C7 1_555 1_555
H10 C7 1_555 1_555
H11 C8 1_555 1_555
H12 C8 1_555 1_555
H13 C9 1_555 1_555
H14 C9 1_555 1_555
H15 C10 1_555 1_555
H16 C10 1_555 1_555
H17 C11 1_555 1_555
H18 C11 1_555 1_555
H19 C12 1_555 1_555
H20 C12 1_555 1_555
H21 C13 1_555 1_555
H22 C13 1_555 1_555
H23 C14 1_555 1_555
H24 C14 1_555 1_555
C13 C14 1_555 1_555

#END
