
#######################################################################
#
#                 Cambridge Crystallographic Data Centre
#                                CCDC 
#
#######################################################################
#
# If this CIF has been generated from an entry in the Cambridge 
# Structural Database, then it will include bibliographic, chemical, 
# crystal, experimental, refinement or atomic coordinate data resulting 
# from the CCDC's data processing and validation procedures.
#
#######################################################################

data_ZIZQUX
_chemical_formula_moiety         'C11 H10 N2 O2'
_chemical_name_systematic        
1-[5-(phenylamino)-1,2-oxazol-4-yl]ethan-1-one
_symmetry_cell_setting           orthorhombic
_symmetry_space_group_name_H-M   'P 21 21 21'
_symmetry_Int_Tables_number      19
_space_group_name_Hall           'P 2ac 2ab'
loop_
_symmetry_equiv_pos_site_id
_symmetry_equiv_pos_as_xyz
1 x,y,z
2 1/2-x,-y,1/2+z
3 1/2+x,1/2-y,-z
4 -x,1/2+y,1/2-z
_cell_length_a                   6.5102(6)
_cell_length_b                   10.6554(10)
_cell_length_c                   14.2094(13)
_cell_angle_alpha                90
_cell_angle_beta                 90
_cell_angle_gamma                90
_cell_volume                     985.689
_exptl_crystal_colour            colorless
_exptl_crystal_description       block
_cell_formula_units_Z            4
loop_
_atom_site_label
_atom_site_type_symbol
_atom_site_fract_x
_atom_site_fract_y
_atom_site_fract_z
O1 O -0.8985(2) -0.85050(15) -0.86043(10)
N1 N -0.5448(3) -0.83912(18) -0.86705(12)
H1 H -0.4359 -0.8513 -0.9001
O2 O -0.4277(2) -0.92168(15) -1.05144(10)
N2 N -1.0681(3) -0.88461(18) -0.92179(13)
C1 C -0.7650(3) -0.90537(19) -0.99953(14)
C2 C -0.5153(3) -0.79422(19) -0.77388(14)
C3 C -0.9803(3) -0.9152(2) -1.00089(15)
H2 H -1.0536 -0.9412 -1.0536
C4 C -0.7241(3) -0.86429(19) -0.90862(14)
C5 C -0.3456(3) -0.8384(2) -0.72434(15)
H3 H -0.2569 -0.8962 -0.7518
C6 C -0.6084(4) -0.6672(2) -0.64193(17)
H4 H -0.6984 -0.6108 -0.6138
C7 C -0.6109(3) -0.93068(19) -1.07037(15)
C8 C -0.3101(4) -0.7955(3) -0.63364(17)
H5 H -0.1970 -0.8248 -0.6002
C9 C -0.6790(3) -0.9700(2) -1.16657(17)
H6 H -0.7441 -0.9005 -1.1975
H7 H -0.7747 -1.0382 -1.1613
H8 H -0.5620 -0.9965 -1.2025
C10 C -0.4410(4) -0.7098(2) -0.59259(17)
H9 H -0.4162 -0.6811 -0.5318
C11 C -0.6447(3) -0.7072(2) -0.73299(17)
H10 H -0.7559 -0.6755 -0.7666
loop_
_geom_bond_atom_site_label_1
_geom_bond_atom_site_label_2
_geom_bond_site_symmetry_1
_geom_bond_site_symmetry_2
O1 N2 1_555 1_555
N1 H1 1_555 1_555
O2 C7 1_555 1_555
N2 C3 1_555 1_555
C1 C3 1_555 1_555
C2 N1 1_555 1_555
C3 H2 1_555 1_555
C4 O1 1_555 1_555
C5 C2 1_555 1_555
H3 C5 1_555 1_555
C6 H4 1_555 1_555
C7 C1 1_555 1_555
C8 C5 1_555 1_555
H5 C8 1_555 1_555
C9 C7 1_555 1_555
H6 C9 1_555 1_555
H7 C9 1_555 1_555
H8 C9 1_555 1_555
C10 C6 1_555 1_555
H9 C10 1_555 1_555
C11 C2 1_555 1_555
H10 C11 1_555 1_555
N1 C4 1_555 1_555
C1 C4 1_555 1_555
C6 C11 1_555 1_555
C8 C10 1_555 1_555

#END
