
#######################################################################
#
#                 Cambridge Crystallographic Data Centre
#                                CCDC 
#
#######################################################################
#
# If this CIF has been generated from an entry in the Cambridge 
# Structural Database, then it will include bibliographic, chemical, 
# crystal, experimental, refinement or atomic coordinate data resulting 
# from the CCDC's data processing and validation procedures.
#
#######################################################################

data_ZOBBIE
_chemical_formula_moiety         'C29 H23 Cl1 N2 O3 S1'
_chemical_name_systematic        
N-{[4-(4-chlorophenyl)-2H-1,3-benzoxazin-2-ylidene](phenyl)methyl}-N,4-dimethylbenzene-1-sulfonamide
_symmetry_cell_setting           orthorhombic
_symmetry_space_group_name_H-M   'P 21 21 21'
_symmetry_Int_Tables_number      19
_space_group_name_Hall           'P 2ac 2ab'
loop_
_symmetry_equiv_pos_site_id
_symmetry_equiv_pos_as_xyz
1 x,y,z
2 1/2-x,-y,1/2+z
3 -x,1/2+y,1/2-z
4 1/2+x,1/2-y,-z
_cell_length_a                   9.1431(4)
_cell_length_b                   10.9188(3)
_cell_length_c                   24.7150(9)
_cell_angle_alpha                90
_cell_angle_beta                 90
_cell_angle_gamma                90
_cell_volume                     2467.34
_exptl_crystal_colour            red
_exptl_crystal_description       prismatic
_cell_formula_units_Z            4
loop_
_atom_site_label
_atom_site_type_symbol
_atom_site_fract_x
_atom_site_fract_y
_atom_site_fract_z
S1 S 0.91011(14) 0.77473(10) 0.61976(4)
Cl1 Cl 0.21907(16) 0.34283(14) 0.44916(5)
N1 N 0.6372(4) 0.5323(3) 0.65369(14)
N2 N 0.7729(4) 0.7555(3) 0.66075(13)
O1 O 0.7159(4) 0.4838(2) 0.74358(11)
O2 O 1.0340(4) 0.7159(4) 0.64379(13)
O3 O 0.9166(5) 0.9013(3) 0.60691(13)
C1 C 0.6734(5) 0.3651(4) 0.73640(17)
C2 C 0.7129(5) 0.2808(4) 0.77546(17)
H1 H 0.7665 0.3050 0.8056
C3 C 0.6720(5) 0.1611(4) 0.7691(2)
H2 H 0.6966 0.1039 0.7955
C4 C 0.5943(6) 0.1243(4) 0.7237(2)
H3 H 0.5681 0.0425 0.7197
C5 C 0.5560(6) 0.2077(4) 0.6847(2)
H4 H 0.5038 0.1820 0.6545
C6 C 0.5949(5) 0.3317(4) 0.69004(16)
C7 C 0.5716(5) 0.4283(4) 0.64985(16)
C8 C 0.7169(5) 0.5620(3) 0.69922(16)
C9 C 0.7865(5) 0.6694(4) 0.70448(16)
C10 C 0.8666(5) 0.7142(4) 0.75285(16)
C11 C 0.8812(5) 0.8406(4) 0.76072(17)
H5 H 0.8395 0.8943 0.7359
C12 C 0.9569(5) 0.8873(4) 0.80491(18)
H6 H 0.9629 0.9715 0.8101
C13 C 1.0232(5) 0.8086(4) 0.84108(18)
H7 H 1.0758 0.8394 0.8703
C14 C 1.0105(5) 0.6835(4) 0.83354(17)
H8 H 1.0544 0.6302 0.8580
C15 C 0.9336(5) 0.6369(4) 0.79021(17)
H9 H 0.9264 0.5526 0.7858
C16 C 0.6328(6) 0.8085(4) 0.6461(2)
H10 H 0.5841 0.7558 0.6207
H11 H 0.6481 0.8874 0.6299
H12 H 0.5736 0.8174 0.6779
C17 C 0.4795(5) 0.4075(4) 0.60115(18)
C18 C 0.3479(5) 0.3469(4) 0.60323(19)
H13 H 0.3139 0.3172 0.6362
C19 C 0.2643(5) 0.3291(5) 0.55660(18)
H14 H 0.1742 0.2897 0.5583
C20 C 0.3183(5) 0.3711(4) 0.50812(18)
C21 C 0.4472(6) 0.4344(4) 0.50503(18)
H15 H 0.4808 0.4635 0.4719
C22 C 0.5262(5) 0.4544(4) 0.55152(18)
H16 H 0.6121 0.4999 0.5499
C23 C 0.8730(5) 0.6964(4) 0.55884(17)
C24 C 0.9256(6) 0.5802(4) 0.55149(18)
H17 H 0.9776 0.5413 0.5789
C25 C 0.9006(6) 0.5211(4) 0.50269(18)
H18 H 0.9359 0.4420 0.4978
C26 C 0.8246(5) 0.5771(4) 0.46128(18)
C27 C 0.7728(6) 0.6941(4) 0.46922(19)
H19 H 0.7220 0.7331 0.4416
C28 C 0.7952(6) 0.7545(4) 0.51767(18)
H20 H 0.7587 0.8331 0.5228
C29 C 0.8012(7) 0.5122(5) 0.4075(2)
H21 H 0.8135 0.4256 0.4123
H22 H 0.8713 0.5415 0.3816
H23 H 0.7042 0.5286 0.3946
loop_
_geom_bond_atom_site_label_1
_geom_bond_atom_site_label_2
_geom_bond_site_symmetry_1
_geom_bond_site_symmetry_2
S1 N2 1_555 1_555
Cl1 C20 1_555 1_555
N1 C7 1_555 1_555
N2 C9 1_555 1_555
O1 C1 1_555 1_555
O2 S1 1_555 1_555
O3 S1 1_555 1_555
C1 C2 1_555 1_555
C2 H1 1_555 1_555
C3 C2 1_555 1_555
H2 C3 1_555 1_555
C4 C3 1_555 1_555
H3 C4 1_555 1_555
C5 C4 1_555 1_555
H4 C5 1_555 1_555
C6 C1 1_555 1_555
C7 C6 1_555 1_555
C8 N1 1_555 1_555
C9 C8 1_555 1_555
C10 C9 1_555 1_555
C11 C10 1_555 1_555
H5 C11 1_555 1_555
C12 C11 1_555 1_555
H6 C12 1_555 1_555
C13 C12 1_555 1_555
H7 C13 1_555 1_555
C14 C13 1_555 1_555
H8 C14 1_555 1_555
C15 C10 1_555 1_555
H9 C15 1_555 1_555
C16 N2 1_555 1_555
H10 C16 1_555 1_555
H11 C16 1_555 1_555
H12 C16 1_555 1_555
C17 C7 1_555 1_555
C18 C17 1_555 1_555
H13 C18 1_555 1_555
C19 C18 1_555 1_555
H14 C19 1_555 1_555
C20 C19 1_555 1_555
C21 C20 1_555 1_555
H15 C21 1_555 1_555
C22 C17 1_555 1_555
H16 C22 1_555 1_555
C23 S1 1_555 1_555
C24 C23 1_555 1_555
H17 C24 1_555 1_555
C25 C24 1_555 1_555
H18 C25 1_555 1_555
C26 C25 1_555 1_555
C27 C26 1_555 1_555
H19 C27 1_555 1_555
C28 C23 1_555 1_555
H20 C28 1_555 1_555
C29 C26 1_555 1_555
H21 C29 1_555 1_555
H22 C29 1_555 1_555
H23 C29 1_555 1_555
O1 C8 1_555 1_555
C5 C6 1_555 1_555
C14 C15 1_555 1_555
C21 C22 1_555 1_555
C27 C28 1_555 1_555

#END
