
#######################################################################
#
#                 Cambridge Crystallographic Data Centre
#                                CCDC 
#
#######################################################################
#
# If this CIF has been generated from an entry in the Cambridge 
# Structural Database, then it will include bibliographic, chemical, 
# crystal, experimental, refinement or atomic coordinate data resulting 
# from the CCDC's data processing and validation procedures.
#
#######################################################################

data_ZOBBUQ
_chemical_formula_moiety         'C30 H26 N2 O3 S1'
_chemical_name_systematic        
N,4-dimethyl-N-(9-methyl-10-oxo-1,4-diphenyl-2-azaspiro[4.5]deca-1,3,6,8-tetraen-3-yl)benzene-1-sulfonamide
_symmetry_cell_setting           monoclinic
_symmetry_space_group_name_H-M   'P 21/n'
_symmetry_Int_Tables_number      14
_space_group_name_Hall           '-P 2yn'
loop_
_symmetry_equiv_pos_site_id
_symmetry_equiv_pos_as_xyz
1 x,y,z
2 1/2-x,1/2+y,1/2-z
3 -x,-y,-z
4 1/2+x,1/2-y,1/2+z
_cell_length_a                   8.2947(2)
_cell_length_b                   22.2998(6)
_cell_length_c                   13.9173(4)
_cell_angle_alpha                90
_cell_angle_beta                 100.2760(10)
_cell_angle_gamma                90
_cell_volume                     2532.99
_exptl_crystal_colour            colorless
_exptl_crystal_description       prismatic
_cell_formula_units_Z            4
loop_
_atom_site_label
_atom_site_type_symbol
_atom_site_fract_x
_atom_site_fract_y
_atom_site_fract_z
S1 S 0.63231(5) 0.46785(2) 0.86414(3)
O1 O 0.39757(15) 0.24156(6) 0.69166(10)
O2 O 0.48705(15) 0.50023(6) 0.82436(11)
O3 O 0.70596(16) 0.47441(6) 0.96446(10)
N1 N 0.48118(17) 0.38423(6) 0.67345(11)
N2 N 0.58437(17) 0.39661(6) 0.84809(10)
C1 C 0.2602(2) 0.26256(8) 0.67187(12)
C2 C 0.1152(2) 0.22496(8) 0.64040(13)
C3 C -0.0329(2) 0.25101(9) 0.62092(15)
H1 H -0.1255 0.2260 0.6007
C4 C -0.0606(2) 0.31471(9) 0.62878(14)
H2 H -0.1696 0.3297 0.6154
C5 C 0.0628(2) 0.35279(8) 0.65435(13)
H3 H 0.0405 0.3945 0.6566
C6 C 0.2368(2) 0.33139(7) 0.67969(12)
C7 C 0.3562(2) 0.35955(7) 0.61944(13)
C8 C 0.4570(2) 0.37918(7) 0.77107(12)
C9 C 0.3171(2) 0.35174(7) 0.78175(12)
C10 C 0.24525(19) 0.34213(7) 0.86981(12)
C11 C 0.2610(2) 0.38576(8) 0.94317(13)
H4 H 0.3234 0.4209 0.9376
C12 C 0.1867(2) 0.37821(8) 1.02360(13)
H5 H 0.1988 0.4082 1.0728
C13 C 0.0949(2) 0.32757(8) 1.03355(13)
H6 H 0.0436 0.3228 1.0889
C14 C 0.0786(2) 0.28382(8) 0.96165(14)
H7 H 0.0168 0.2486 0.9680
C15 C 0.1520(2) 0.29117(8) 0.88069(13)
H8 H 0.1388 0.2611 0.8316
C16 C 0.3413(2) 0.35504(7) 0.51285(13)
C17 C 0.2090(2) 0.32617(8) 0.45528(13)
H9 H 0.1244 0.3097 0.4850
C18 C 0.1998(2) 0.32124(9) 0.35502(14)
H10 H 0.1091 0.3015 0.3165
C19 C 0.3215(3) 0.34485(9) 0.31147(14)
H11 H 0.3150 0.3414 0.2429
C20 C 0.4537(3) 0.37367(9) 0.36739(15)
H12 H 0.5378 0.3899 0.3370
C21 C 0.4638(2) 0.37892(8) 0.46696(14)
H13 H 0.5548 0.3989 0.5047
C22 C 0.1442(3) 0.15868(9) 0.63454(16)
H14 H 0.2163 0.1509 0.5873
H15 H 0.0394 0.1381 0.6137
H16 H 0.1960 0.1437 0.6989
C23 C 0.7198(2) 0.35322(9) 0.87123(16)
H17 H 0.7693 0.3466 0.8132
H18 H 0.6775 0.3152 0.8917
H19 H 0.8027 0.3690 0.9242
C24 C 0.7848(2) 0.48524(7) 0.79489(13)
C25 C 0.7413(2) 0.49660(8) 0.69589(14)
H20 H 0.6306 0.4923 0.6641
C26 C 0.8595(2) 0.51422(9) 0.64367(15)
H21 H 0.8293 0.5221 0.5758
C27 C 1.0223(2) 0.52063(9) 0.68867(16)
C28 C 1.0647(2) 0.50811(9) 0.78766(16)
H22 H 1.1757 0.5117 0.8191
C29 C 0.9474(2) 0.49048(8) 0.84110(15)
H23 H 0.9776 0.4820 0.9088
C30 C 1.1496(3) 0.54147(13) 0.6311(2)
H24 H 1.1125 0.5324 0.5617
H25 H 1.2533 0.5207 0.6546
H26 H 1.1656 0.5848 0.6395
loop_
_geom_bond_atom_site_label_1
_geom_bond_atom_site_label_2
_geom_bond_site_symmetry_1
_geom_bond_site_symmetry_2
S1 O2 1_555 1_555
O1 C1 1_555 1_555
O3 S1 1_555 1_555
N1 C7 1_555 1_555
N2 S1 1_555 1_555
C1 C2 1_555 1_555
C2 C3 1_555 1_555
C3 H1 1_555 1_555
C4 C3 1_555 1_555
H2 C4 1_555 1_555
C5 C4 1_555 1_555
H3 C5 1_555 1_555
C6 C1 1_555 1_555
C7 C6 1_555 1_555
C8 N1 1_555 1_555
C9 C6 1_555 1_555
C10 C9 1_555 1_555
C11 C10 1_555 1_555
H4 C11 1_555 1_555
C12 C11 1_555 1_555
H5 C12 1_555 1_555
C13 C12 1_555 1_555
H6 C13 1_555 1_555
C14 C13 1_555 1_555
H7 C14 1_555 1_555
C15 C10 1_555 1_555
H8 C15 1_555 1_555
C16 C7 1_555 1_555
C17 C16 1_555 1_555
H9 C17 1_555 1_555
C18 C17 1_555 1_555
H10 C18 1_555 1_555
C19 C18 1_555 1_555
H11 C19 1_555 1_555
C20 C19 1_555 1_555
H12 C20 1_555 1_555
C21 C16 1_555 1_555
H13 C21 1_555 1_555
C22 C2 1_555 1_555
H14 C22 1_555 1_555
H15 C22 1_555 1_555
H16 C22 1_555 1_555
C23 N2 1_555 1_555
H17 C23 1_555 1_555
H18 C23 1_555 1_555
H19 C23 1_555 1_555
C24 S1 1_555 1_555
C25 C24 1_555 1_555
H20 C25 1_555 1_555
C26 C25 1_555 1_555
H21 C26 1_555 1_555
C27 C26 1_555 1_555
C28 C27 1_555 1_555
H22 C28 1_555 1_555
C29 C24 1_555 1_555
H23 C29 1_555 1_555
C30 C27 1_555 1_555
H24 C30 1_555 1_555
H25 C30 1_555 1_555
H26 C30 1_555 1_555
N2 C8 1_555 1_555
C5 C6 1_555 1_555
C8 C9 1_555 1_555
C14 C15 1_555 1_555
C20 C21 1_555 1_555
C28 C29 1_555 1_555

#END
