
#######################################################################
#
#                 Cambridge Crystallographic Data Centre
#                                CCDC 
#
#######################################################################
#
# If this CIF has been generated from an entry in the Cambridge 
# Structural Database, then it will include bibliographic, chemical, 
# crystal, experimental, refinement or atomic coordinate data resulting 
# from the CCDC's data processing and validation procedures.
#
#######################################################################

data_ZOBCUR
_chemical_formula_moiety         'C32 H27 N1 O6'
_chemical_name_systematic        
'1-(4-phenyl-2H-1,3-benzoxazin-2-yl)-2-(3,4,5-trimethoxyphenyl)ethenyl benzoate'
_symmetry_cell_setting           monoclinic
_symmetry_space_group_name_H-M   'P 21/n'
_symmetry_Int_Tables_number      14
_space_group_name_Hall           '-P 2yn'
loop_
_symmetry_equiv_pos_site_id
_symmetry_equiv_pos_as_xyz
1 x,y,z
2 1/2-x,1/2+y,1/2-z
3 -x,-y,-z
4 1/2+x,1/2-y,1/2+z
_cell_length_a                   10.3430(12)
_cell_length_b                   14.8904(13)
_cell_length_c                   17.0572(19)
_cell_angle_alpha                90
_cell_angle_beta                 92.282(3)
_cell_angle_gamma                90
_cell_volume                     2624.92
_exptl_crystal_colour            colorless
_exptl_crystal_description       prismatic
_cell_formula_units_Z            4
loop_
_atom_site_label
_atom_site_type_symbol
_atom_site_fract_x
_atom_site_fract_y
_atom_site_fract_z
O1 O 0.3244(2) 0.44666(15) 0.49066(12)
O2 O 0.2705(2) 0.27226(15) 0.48011(12)
O3 O 0.0634(3) 0.3110(2) 0.45720(17)
O4 O 0.5219(3) 0.01583(18) 0.20507(15)
O5 O 0.4724(3) -0.10055(16) 0.32218(13)
O6 O 0.3642(3) -0.04632(16) 0.45117(14)
N1 N 0.3620(3) 0.45803(19) 0.35139(14)
C1 C 0.3306(3) 0.5380(2) 0.49777(18)
C2 C 0.3091(4) 0.5770(3) 0.5694(2)
H1 H 0.2862 0.5420 0.6118
C3 C 0.3218(4) 0.6682(3) 0.5772(2)
H2 H 0.3079 0.6948 0.6254
C4 C 0.3550(4) 0.7212(3) 0.5147(2)
H3 H 0.3617 0.7831 0.5207
C5 C 0.3779(4) 0.6823(2) 0.4440(2)
H4 H 0.4010 0.7181 0.4021
C6 C 0.3671(3) 0.5896(2) 0.43389(18)
C7 C 0.3943(3) 0.5409(2) 0.36173(18)
C8 C 0.2902(3) 0.4168(2) 0.41262(18)
H5 H 0.1979 0.4286 0.4021
C9 C 0.3114(3) 0.3159(2) 0.41286(17)
C10 C 0.3698(3) 0.2693(2) 0.35830(18)
H6 H 0.4006 0.3036 0.3175
C11 C 0.3939(3) 0.1722(2) 0.35161(18)
C12 C 0.4455(3) 0.1416(2) 0.2825(2)
H7 H 0.4635 0.1824 0.2431
C13 C 0.4704(3) 0.0510(2) 0.2713(2)
C14 C 0.4435(3) -0.0113(2) 0.32888(19)
C15 C 0.3903(3) 0.0195(2) 0.39792(19)
C16 C 0.3677(3) 0.1096(2) 0.40958(18)
H8 H 0.3345 0.1288 0.4566
C17 C 0.5251(4) 0.0697(3) 0.1375(2)
H9 H 0.5453 0.0331 0.0933
H10 H 0.5901 0.1153 0.1451
H11 H 0.4422 0.0975 0.1281
C18 C 0.4019(5) -0.1492(3) 0.2627(2)
H12 H 0.4411 -0.1402 0.2133
H13 H 0.3141 -0.1282 0.2594
H14 H 0.4030 -0.2120 0.2755
C19 C 0.2975(5) -0.0195(3) 0.5184(2)
H15 H 0.2155 0.0061 0.5023
H16 H 0.3480 0.0244 0.5472
H17 H 0.2839 -0.0708 0.5511
C20 C 0.4625(3) 0.5854(2) 0.29731(18)
C21 C 0.5835(3) 0.6247(2) 0.3094(2)
H18 H 0.6215 0.6279 0.3597
C22 C 0.6472(4) 0.6590(3) 0.2461(2)
H19 H 0.7291 0.6840 0.2541
C23 C 0.5914(4) 0.6568(3) 0.1717(2)
H20 H 0.6354 0.6799 0.1297
C24 C 0.4696(4) 0.6201(3) 0.1598(2)
H21 H 0.4305 0.6198 0.1097
C25 C 0.4059(3) 0.5840(2) 0.22188(19)
H22 H 0.3245 0.5586 0.2133
C26 C 0.1444(4) 0.2716(2) 0.4965(2)
C27 C 0.1201(4) 0.2156(2) 0.5656(2)
C28 C 0.2206(4) 0.1829(3) 0.6145(2)
H23 H 0.3059 0.1959 0.6036
C29 C 0.1936(5) 0.1313(3) 0.6793(2)
H24 H 0.2607 0.1099 0.7121
C30 C 0.0687(6) 0.1121(3) 0.6947(3)
H25 H 0.0508 0.0777 0.7385
C31 C -0.0313(5) 0.1425(3) 0.6467(3)
H26 H -0.1162 0.1279 0.6575
C32 C -0.0058(4) 0.1952(3) 0.5822(2)
H27 H -0.0737 0.2167 0.5500
loop_
_geom_bond_atom_site_label_1
_geom_bond_atom_site_label_2
_geom_bond_site_symmetry_1
_geom_bond_site_symmetry_2
O1 C1 1_555 1_555
O2 C9 1_555 1_555
O3 C26 1_555 1_555
O4 C13 1_555 1_555
O5 C14 1_555 1_555
O6 C15 1_555 1_555
N1 C7 1_555 1_555
C1 C2 1_555 1_555
C2 H1 1_555 1_555
C3 C2 1_555 1_555
H2 C3 1_555 1_555
C4 C3 1_555 1_555
H3 C4 1_555 1_555
C5 C4 1_555 1_555
H4 C5 1_555 1_555
C6 C1 1_555 1_555
C7 C6 1_555 1_555
C8 O1 1_555 1_555
H5 C8 1_555 1_555
C9 C8 1_555 1_555
C10 C9 1_555 1_555
H6 C10 1_555 1_555
C11 C10 1_555 1_555
C12 C11 1_555 1_555
H7 C12 1_555 1_555
C13 C12 1_555 1_555
C14 C13 1_555 1_555
C15 C14 1_555 1_555
C16 C11 1_555 1_555
H8 C16 1_555 1_555
C17 O4 1_555 1_555
H9 C17 1_555 1_555
H10 C17 1_555 1_555
H11 C17 1_555 1_555
C18 O5 1_555 1_555
H12 C18 1_555 1_555
H13 C18 1_555 1_555
H14 C18 1_555 1_555
C19 O6 1_555 1_555
H15 C19 1_555 1_555
H16 C19 1_555 1_555
H17 C19 1_555 1_555
C20 C7 1_555 1_555
C21 C20 1_555 1_555
H18 C21 1_555 1_555
C22 C21 1_555 1_555
H19 C22 1_555 1_555
C23 C22 1_555 1_555
H20 C23 1_555 1_555
C24 C23 1_555 1_555
H21 C24 1_555 1_555
C25 C20 1_555 1_555
H22 C25 1_555 1_555
C26 O2 1_555 1_555
C27 C26 1_555 1_555
C28 C27 1_555 1_555
H23 C28 1_555 1_555
C29 C28 1_555 1_555
H24 C29 1_555 1_555
C30 C29 1_555 1_555
H25 C30 1_555 1_555
C31 C30 1_555 1_555
H26 C31 1_555 1_555
C32 C27 1_555 1_555
H27 C32 1_555 1_555
N1 C8 1_555 1_555
C5 C6 1_555 1_555
C15 C16 1_555 1_555
C24 C25 1_555 1_555
C31 C32 1_555 1_555

#END
