
#######################################################################
#
#                 Cambridge Crystallographic Data Centre
#                                CCDC 
#
#######################################################################
#
# If this CIF has been generated from an entry in the Cambridge 
# Structural Database, then it will include bibliographic, chemical, 
# crystal, experimental, refinement or atomic coordinate data resulting 
# from the CCDC's data processing and validation procedures.
#
#######################################################################

data_ZOBCEB
_chemical_formula_moiety         'C23 H20 N2 O3 S1'
_chemical_name_systematic        
N-methyl-N-[phenyl(4-phenyl-2H-1,3-benzoxazin-2-ylidene)methyl]methanesulfonamide
_symmetry_cell_setting           orthorhombic
_symmetry_space_group_name_H-M   'P b c a'
_symmetry_Int_Tables_number      61
_space_group_name_Hall           '-P 2ac 2ab'
loop_
_symmetry_equiv_pos_site_id
_symmetry_equiv_pos_as_xyz
1 x,y,z
2 1/2-x,-y,1/2+z
3 -x,1/2+y,1/2-z
4 1/2+x,1/2-y,-z
5 -x,-y,-z
6 1/2+x,y,1/2-z
7 x,1/2-y,1/2+z
8 1/2-x,1/2+y,z
_cell_length_a                   11.8445(10)
_cell_length_b                   17.0045(14)
_cell_length_c                   19.8152(16)
_cell_angle_alpha                90
_cell_angle_beta                 90
_cell_angle_gamma                90
_cell_volume                     3990.98
_exptl_crystal_colour            red
_exptl_crystal_description       prismatic
_cell_formula_units_Z            8
loop_
_atom_site_label
_atom_site_type_symbol
_atom_site_fract_x
_atom_site_fract_y
_atom_site_fract_z
S1 S 0.46304(4) 0.24152(3) 0.49558(2)
N1 N 0.53400(12) 0.36351(8) 0.63169(7)
N2 N 0.48672(12) 0.33552(8) 0.49786(7)
O1 O 0.38537(12) 0.45942(8) 0.63573(6)
O2 O 0.35270(14) 0.22919(10) 0.52171(10)
O3 O 0.49008(15) 0.21359(9) 0.42983(7)
C1 C 0.41591(14) 0.38745(10) 0.53608(8)
C2 C 0.44713(15) 0.40313(10) 0.60056(8)
C3 C 0.43475(16) 0.49327(11) 0.69145(9)
C4 C 0.38810(19) 0.56298(12) 0.71462(10)
H1 H 0.3257 0.5850 0.6933
C5 C 0.4361(2) 0.59885(13) 0.76983(11)
H2 H 0.4057 0.6455 0.7863
C6 C 0.5297(2) 0.56581(13) 0.80098(11)
H3 H 0.5620 0.5907 0.8381
C7 C 0.57477(19) 0.49688(12) 0.77752(10)
H4 H 0.6379 0.4755 0.7986
C8 C 0.52685(16) 0.45824(10) 0.72217(8)
C9 C 0.56979(15) 0.38623(10) 0.69068(8)
C10 C 0.65908(16) 0.33888(10) 0.72331(9)
C11 C 0.65459(18) 0.32218(12) 0.79241(9)
H5 H 0.5939 0.3399 0.8180
C12 C 0.7398(2) 0.27955(13) 0.82267(11)
H6 H 0.7365 0.2686 0.8686
C13 C 0.8295(2) 0.25332(14) 0.78488(14)
H7 H 0.8876 0.2257 0.8057
C14 C 0.83404(19) 0.26762(14) 0.71596(13)
H8 H 0.8941 0.2487 0.6905
C15 C 0.74873(17) 0.31020(12) 0.68539(10)
H9 H 0.7514 0.3197 0.6392
C16 C 0.32431(15) 0.42720(10) 0.49890(9)
C17 C 0.32966(17) 0.43319(14) 0.42889(10)
H10 H 0.3873 0.4079 0.4056
C18 C 0.2498(2) 0.47659(16) 0.39336(13)
H11 H 0.2550 0.4806 0.3467
C19 C 0.1634(2) 0.51350(14) 0.42683(16)
H12 H 0.1117 0.5440 0.4031
C20 C 0.15371(19) 0.50538(14) 0.49477(15)
H13 H 0.0937 0.5290 0.5172
C21 C 0.23210(17) 0.46242(13) 0.53077(11)
H14 H 0.2233 0.4568 0.5772
C22 C 0.59699(16) 0.36398(13) 0.47528(11)
H15 H 0.5890 0.4158 0.4566
H16 H 0.6264 0.3291 0.4415
H17 H 0.6479 0.3657 0.5129
C23 C 0.5626(2) 0.19850(13) 0.55014(12)
H18 H 0.5524 0.2189 0.5949
H19 H 0.6374 0.2107 0.5347
H20 H 0.5524 0.1425 0.5506
loop_
_geom_bond_atom_site_label_1
_geom_bond_atom_site_label_2
_geom_bond_site_symmetry_1
_geom_bond_site_symmetry_2
S1 N2 1_555 1_555
N1 C2 1_555 1_555
N2 C1 1_555 1_555
O1 C2 1_555 1_555
O2 S1 1_555 1_555
O3 S1 1_555 1_555
C1 C2 1_555 1_555
C3 O1 1_555 1_555
C4 C3 1_555 1_555
H1 C4 1_555 1_555
C5 C4 1_555 1_555
H2 C5 1_555 1_555
C6 C5 1_555 1_555
H3 C6 1_555 1_555
C7 C6 1_555 1_555
H4 C7 1_555 1_555
C8 C3 1_555 1_555
C9 N1 1_555 1_555
C10 C9 1_555 1_555
C11 C10 1_555 1_555
H5 C11 1_555 1_555
C12 C11 1_555 1_555
H6 C12 1_555 1_555
C13 C12 1_555 1_555
H7 C13 1_555 1_555
C14 C13 1_555 1_555
H8 C14 1_555 1_555
C15 C10 1_555 1_555
H9 C15 1_555 1_555
C16 C1 1_555 1_555
C17 C16 1_555 1_555
H10 C17 1_555 1_555
C18 C17 1_555 1_555
H11 C18 1_555 1_555
C19 C18 1_555 1_555
H12 C19 1_555 1_555
C20 C19 1_555 1_555
H13 C20 1_555 1_555
C21 C16 1_555 1_555
H14 C21 1_555 1_555
C22 N2 1_555 1_555
H15 C22 1_555 1_555
H16 C22 1_555 1_555
H17 C22 1_555 1_555
C23 S1 1_555 1_555
H18 C23 1_555 1_555
H19 C23 1_555 1_555
H20 C23 1_555 1_555
C7 C8 1_555 1_555
C8 C9 1_555 1_555
C14 C15 1_555 1_555
C20 C21 1_555 1_555

#END
