
#######################################################################
#
#                 Cambridge Crystallographic Data Centre
#                                CCDC 
#
#######################################################################
#
# If this CIF has been generated from an entry in the Cambridge 
# Structural Database, then it will include bibliographic, chemical, 
# crystal, experimental, refinement or atomic coordinate data resulting 
# from the CCDC's data processing and validation procedures.
#
#######################################################################

data_ZOBFOO
_chemical_formula_moiety         'C22 H24 N2 O2'
_chemical_name_systematic        
4-benzyl-8-methyl-7-phenylhexahydro-1H-pyrrolo[1,2-d][1,4]diazepine-2,5-dione
_symmetry_cell_setting           orthorhombic
_symmetry_space_group_name_H-M   'P 21 21 21'
_symmetry_Int_Tables_number      19
_space_group_name_Hall           'P 2ac 2ab'
loop_
_symmetry_equiv_pos_site_id
_symmetry_equiv_pos_as_xyz
1 x,y,z
2 1/2+x,1/2-y,-z
3 -x,1/2+y,1/2-z
4 1/2-x,-y,1/2+z
_cell_length_a                   6.5750(3)
_cell_length_b                   9.8384(6)
_cell_length_c                   28.6228(15)
_cell_angle_alpha                90
_cell_angle_beta                 90
_cell_angle_gamma                90
_cell_volume                     1851.54
_exptl_crystal_colour            colorless
_exptl_crystal_description       block
_cell_formula_units_Z            4
loop_
_atom_site_label
_atom_site_type_symbol
_atom_site_fract_x
_atom_site_fract_y
_atom_site_fract_z
O1 O 0.6767(2) 0.27836(13) 0.04526(4)
O2 O 1.2840(2) 0.56579(15) 0.02101(5)
N1 N 0.7311(3) 0.49113(16) 0.07226(5)
N2 N 1.0013(3) 0.47346(17) -0.00986(5)
H1 H 1.075(4) 0.408(2) -0.0187(8)
C1 C 1.0912(4) 0.2772(2) 0.21215(7)
H2 H 1.186749 0.239257 0.233346
C2 C 1.1548(3) 0.3623(3) 0.17682(8)
H3 H 1.295470 0.382288 0.173663
C3 C 1.0171(3) 0.4192(2) 0.14578(7)
H4 H 1.064345 0.476294 0.121326
C4 C 0.8112(3) 0.39309(19) 0.15026(6)
C5 C 0.6541(3) 0.4598(2) 0.11924(6)
H5 H 0.533448 0.398426 0.116451
C6 C 0.7211(3) 0.39796(18) 0.03782(6)
C7 C 0.7806(3) 0.45199(19) -0.01025(6)
H6 H 0.712211 0.541656 -0.015149
C8 C 0.7165(3) 0.3558(2) -0.04958(6)
H7 H 0.801436 0.272757 -0.048419
H8 H 0.573075 0.328373 -0.044863
C9 C 0.7384(3) 0.42167(19) -0.09703(6)
C10 C 0.9244(3) 0.4220(2) -0.12064(7)
H9 H 1.039274 0.378919 -0.107018
C11 C 0.9425(3) 0.4851(2) -0.16403(7)
H10 H 1.069774 0.485302 -0.179720
C12 C 0.7758(4) 0.5474(2) -0.18437(7)
H11 H 0.788169 0.590096 -0.214007
C13 C 0.8864(3) 0.2478(2) 0.21636(7)
H12 H 0.840787 0.188136 0.240245
C14 C 0.7476(3) 0.3054(2) 0.18574(6)
H13 H 0.607040 0.284995 0.188952
C15 C 0.7624(3) 0.63776(19) 0.06359(6)
H14 H 0.653605 0.671522 0.042125
C16 C 0.7298(3) 0.6987(2) 0.11209(7)
H15 H 0.859861 0.703863 0.129419
H16 H 0.671078 0.791069 0.109774
C17 C 0.5823(3) 0.6022(2) 0.13631(7)
H17 H 0.442754 0.619185 0.123677
C18 C 0.5767(4) 0.6220(2) 0.18930(7)
H18 H 0.713504 0.609012 0.202137
H19 H 0.483676 0.555555 0.203226
H20 H 0.529378 0.714113 0.196477
C19 C 0.9735(3) 0.6731(2) 0.04260(7)
H21 H 0.952893 0.748958 0.020388
H22 H 1.058516 0.708599 0.068392
C20 C 1.0979(3) 0.5652(2) 0.01743(7)
C21 C 0.5730(3) 0.4856(2) -0.11785(7)
H23 H 0.445754 0.487137 -0.102138
C22 C 0.5913(4) 0.5471(2) -0.16127(7)
H24 H 0.476335 0.589292 -0.175188
loop_
_geom_bond_atom_site_label_1
_geom_bond_atom_site_label_2
_geom_bond_site_symmetry_1
_geom_bond_site_symmetry_2
O1 C6 1_555 1_555
O2 C20 1_555 1_555
N1 C5 1_555 1_555
N2 H1 1_555 1_555
C1 H2 1_555 1_555
C2 C1 1_555 1_555
H3 C2 1_555 1_555
C3 C2 1_555 1_555
H4 C3 1_555 1_555
C4 C3 1_555 1_555
C5 C4 1_555 1_555
H5 C5 1_555 1_555
C6 N1 1_555 1_555
C7 N2 1_555 1_555
H6 C7 1_555 1_555
C8 C7 1_555 1_555
H7 C8 1_555 1_555
H8 C8 1_555 1_555
C9 C8 1_555 1_555
C10 C9 1_555 1_555
H9 C10 1_555 1_555
C11 C10 1_555 1_555
H10 C11 1_555 1_555
C12 C11 1_555 1_555
H11 C12 1_555 1_555
C13 C1 1_555 1_555
H12 C13 1_555 1_555
C14 C4 1_555 1_555
H13 C14 1_555 1_555
C15 N1 1_555 1_555
H14 C15 1_555 1_555
C16 C15 1_555 1_555
H15 C16 1_555 1_555
H16 C16 1_555 1_555
C17 C5 1_555 1_555
H17 C17 1_555 1_555
C18 C17 1_555 1_555
H18 C18 1_555 1_555
H19 C18 1_555 1_555
H20 C18 1_555 1_555
C19 C15 1_555 1_555
H21 C19 1_555 1_555
H22 C19 1_555 1_555
C20 N2 1_555 1_555
C21 C9 1_555 1_555
H23 C21 1_555 1_555
C22 C12 1_555 1_555
H24 C22 1_555 1_555
C6 C7 1_555 1_555
C13 C14 1_555 1_555
C16 C17 1_555 1_555
C19 C20 1_555 1_555
C21 C22 1_555 1_555

#END
