
#######################################################################
#
#                 Cambridge Crystallographic Data Centre
#                                CCDC 
#
#######################################################################
#
# If this CIF has been generated from an entry in the Cambridge 
# Structural Database, then it will include bibliographic, chemical, 
# crystal, experimental, refinement or atomic coordinate data resulting 
# from the CCDC's data processing and validation procedures.
#
#######################################################################

data_ZOBJAD
_chemical_formula_moiety         'C32 H40 O4'
_chemical_name_systematic        
(3S,4S,4aR,5aR,6S,9aS,9bS)-3,6-bis(4-t-Butylphenyl)-4-hydroxyoctahydrodibenzo[b,d]furan-1,8(2H,5aH)-dione
_chemical_properties_biological  'antiproliferative activity'
_symmetry_cell_setting           monoclinic
_symmetry_space_group_name_H-M   'P 21'
_symmetry_Int_Tables_number      4
_space_group_name_Hall           'P 2yb'
loop_
_symmetry_equiv_pos_site_id
_symmetry_equiv_pos_as_xyz
1 x,y,z
2 -x,1/2+y,-z
_cell_length_a                   7.1087(4)
_cell_length_b                   9.6046(9)
_cell_length_c                   19.1101(16)
_cell_angle_alpha                90
_cell_angle_beta                 96.131(7)
_cell_angle_gamma                90
_cell_volume                     1297.3
_exptl_crystal_colour            colorless
_exptl_crystal_description       prism
_chemical_melting_point          '238.6-240.1 deg.C'
_cell_formula_units_Z            2
loop_
_atom_site_label
_atom_site_type_symbol
_atom_site_fract_x
_atom_site_fract_y
_atom_site_fract_z
C1 C 0.7569(5) 0.3701(4) 0.40305(19)
C2 C 0.6516(6) 0.4506(5) 0.3428(2)
C3 C 0.5121(5) 0.5606(4) 0.36402(18)
C4 C 0.3970(4) 0.4976(4) 0.41899(17)
H1 H 0.353(5) 0.400(4) 0.3993(17)
C5 C 0.5197(5) 0.4643(4) 0.48746(17)
C6 C 0.7106(5) 0.3934(4) 0.47677(18)
C7 C 1.0261(5) 0.3580(4) 0.61147(18)
C8 C 1.0432(5) 0.4288(5) 0.5431(2)
C9 C 0.8591(5) 0.4978(4) 0.51236(17)
H2 H 0.888(5) 0.574(5) 0.4775(18)
C10 C 0.7477(5) 0.5744(4) 0.56451(18)
C11 C 0.7347(5) 0.4961(4) 0.63390(18)
C12 C 0.9336(5) 0.4434(5) 0.6641(2)
C13 C 0.3919(5) 0.6139(4) 0.29918(18)
C14 C 0.4565(5) 0.7215(4) 0.26042(18)
C15 C 0.3524(5) 0.7752(4) 0.20067(19)
C16 C 0.1738(5) 0.7187(4) 0.17738(17)
C17 C 0.1109(5) 0.6071(4) 0.21526(18)
C18 C 0.2167(5) 0.5557(4) 0.27475(18)
C19 C 0.0517(5) 0.7739(4) 0.11251(19)
C20 C 0.0291(7) 0.6580(6) 0.0567(2)
C21 C 0.1378(7) 0.9015(5) 0.0807(2)
C22 C -0.1461(7) 0.8124(6) 0.1326(3)
C23 C 0.6481(5) 0.5787(4) 0.68981(17)
C24 C 0.4574(5) 0.5614(4) 0.69998(19)
C25 C 0.3833(5) 0.6274(4) 0.75615(19)
C26 C 0.4905(5) 0.7105(4) 0.80381(18)
C27 C 0.6791(5) 0.7320(5) 0.7914(2)
C28 C 0.7539(5) 0.6678(4) 0.73585(19)
C29 C 0.4138(5) 0.7771(4) 0.86826(19)
C30 C 0.4969(9) 0.6982(9) 0.9337(3)
C31 C 0.4639(8) 0.9301(6) 0.8735(3)
C32 C 0.1969(6) 0.7654(6) 0.8649(3)
O1 O 0.8822(4) 0.2893(4) 0.39085(14)
O2 O 0.2499(3) 0.5888(3) 0.43663(13)
O3 O 0.5630(3) 0.5914(3) 0.52560(12)
O4 O 1.0867(4) 0.2412(3) 0.62538(14)
H3 H 0.751(6) 0.488(5) 0.3154(19)
H4 H 0.585(6) 0.383(5) 0.307(2)
H5 H 0.165(7) 0.595(6) 0.400(2)
H6 H 0.578(6) 0.648(5) 0.386(2)
H7 H 0.447(5) 0.401(4) 0.5191(17)
H8 H 0.724(4) 0.296(4) 0.5037(16)
H9 H 1.084(6) 0.361(5) 0.509(2)
H10 H 1.142(6) 0.501(5) 0.551(2)
H11 H 0.798(6) 0.666(5) 0.5791(18)
H12 H 0.654(5) 0.409(5) 0.6213(18)
H13 H 1.020(6) 0.529(5) 0.6711(19)
H14 H 0.927(5) 0.398(4) 0.7043(18)
H15 H 0.581(5) 0.762(4) 0.2762(17)
H16 H 0.421(7) 0.865(6) 0.172(2)
H17 H -0.014(5) 0.565(4) 0.1968(17)
H18 H 0.170(5) 0.483(4) 0.3007(17)
H19 H -0.041(6) 0.689(5) 0.017(2)
H20 H 0.159(7) 0.632(5) 0.038(2)
H21 H -0.026(7) 0.570(6) 0.072(2)
H22 H 0.157(6) 0.984(5) 0.119(2)
H23 H 0.267(7) 0.877(6) 0.062(2)
H24 H 0.050(6) 0.923(5) 0.039(2)
H25 H -0.130(7) 0.896(6) 0.170(3)
H26 H -0.228(7) 0.848(5) 0.093(2)
H27 H -0.222(6) 0.724(6) 0.152(2)
H28 H 0.381(5) 0.497(5) 0.6669(19)
H29 H 0.247(5) 0.612(4) 0.7631(16)
H30 H 0.759(6) 0.794(5) 0.8197(19)
H31 H 0.888(7) 0.684(6) 0.727(2)
H32 H 0.460(7) 0.741(6) 0.976(3)
H33 H 0.485(10) 0.595(8) 0.934(3)
H34 H 0.642(9) 0.699(7) 0.941(3)
H35 H 0.414(6) 0.990(5) 0.823(2)
H36 H 0.420(7) 0.972(6) 0.915(2)
H37 H 0.602(8) 0.927(6) 0.887(3)
H38 H 0.165(7) 0.812(5) 0.913(2)
H39 H 0.164(6) 0.658(5) 0.864(2)
H40 H 0.136(7) 0.809(6) 0.818(3)
loop_
_geom_bond_atom_site_label_1
_geom_bond_atom_site_label_2
_geom_bond_site_symmetry_1
_geom_bond_site_symmetry_2
C1 C2 1_555 1_555
C2 C3 1_555 1_555
C3 C4 1_555 1_555
C4 H1 1_555 1_555
C5 C4 1_555 1_555
C6 C1 1_555 1_555
C7 C8 1_555 1_555
C8 C9 1_555 1_555
C9 C6 1_555 1_555
H2 C9 1_555 1_555
C10 C9 1_555 1_555
C11 C10 1_555 1_555
C12 C7 1_555 1_555
C13 C3 1_555 1_555
C14 C13 1_555 1_555
C15 C14 1_555 1_555
C16 C15 1_555 1_555
C17 C16 1_555 1_555
C18 C13 1_555 1_555
C19 C16 1_555 1_555
C20 C19 1_555 1_555
C21 C19 1_555 1_555
C22 C19 1_555 1_555
C23 C11 1_555 1_555
C24 C23 1_555 1_555
C25 C24 1_555 1_555
C26 C25 1_555 1_555
C27 C26 1_555 1_555
C28 C23 1_555 1_555
C29 C26 1_555 1_555
C30 C29 1_555 1_555
C31 C29 1_555 1_555
C32 C29 1_555 1_555
O1 C1 1_555 1_555
O2 C4 1_555 1_555
O3 C5 1_555 1_555
O4 C7 1_555 1_555
H3 C2 1_555 1_555
H4 C2 1_555 1_555
H5 O2 1_555 1_555
H6 C3 1_555 1_555
H7 C5 1_555 1_555
H8 C6 1_555 1_555
H9 C8 1_555 1_555
H10 C8 1_555 1_555
H11 C10 1_555 1_555
H12 C11 1_555 1_555
H13 C12 1_555 1_555
H14 C12 1_555 1_555
H15 C14 1_555 1_555
H16 C15 1_555 1_555
H17 C17 1_555 1_555
H18 C18 1_555 1_555
H19 C20 1_555 1_555
H20 C20 1_555 1_555
H21 C20 1_555 1_555
H22 C21 1_555 1_555
H23 C21 1_555 1_555
H24 C21 1_555 1_555
H25 C22 1_555 1_555
H26 C22 1_555 1_555
H27 C22 1_555 1_555
H28 C24 1_555 1_555
H29 C25 1_555 1_555
H30 C27 1_555 1_555
H31 C28 1_555 1_555
H32 C30 1_555 1_555
H33 C30 1_555 1_555
H34 C30 1_555 1_555
H35 C31 1_555 1_555
H36 C31 1_555 1_555
H37 C31 1_555 1_555
H38 C32 1_555 1_555
H39 C32 1_555 1_555
H40 C32 1_555 1_555
C5 C6 1_555 1_555
C10 O3 1_555 1_555
C11 C12 1_555 1_555
C17 C18 1_555 1_555
C27 C28 1_555 1_555

#END
