
#######################################################################
#
#                 Cambridge Crystallographic Data Centre
#                                CCDC 
#
#######################################################################
#
# If this CIF has been generated from an entry in the Cambridge 
# Structural Database, then it will include bibliographic, chemical, 
# crystal, experimental, refinement or atomic coordinate data resulting 
# from the CCDC's data processing and validation procedures.
#
#######################################################################

data_ZOBTUH
_chemical_formula_moiety         'C23 H23 N1 O3'
_chemical_name_systematic        4-(bis(4-ethoxyphenyl)amino)benzaldehyde
_symmetry_cell_setting           monoclinic
_symmetry_space_group_name_H-M   'P 21/c'
_symmetry_Int_Tables_number      14
_space_group_name_Hall           '-P 2ybc'
loop_
_symmetry_equiv_pos_site_id
_symmetry_equiv_pos_as_xyz
1 x,y,z
2 -x,1/2+y,1/2-z
3 -x,-y,-z
4 x,1/2-y,1/2+z
_cell_length_a                   14.6029(19)
_cell_length_b                   7.8062(10)
_cell_length_c                   17.686(2)
_cell_angle_alpha                90
_cell_angle_beta                 97.7120(10)
_cell_angle_gamma                90
_cell_volume                     1997.85
_exptl_crystal_colour            blue
_exptl_crystal_description       block
_cell_formula_units_Z            4
loop_
_atom_site_label
_atom_site_type_symbol
_atom_site_fract_x
_atom_site_fract_y
_atom_site_fract_z
O1 O 0.93004(8) 0.65206(13) 0.87541(6)
O2 O 0.43300(8) -0.13352(17) 0.91154(7)
N1 N 0.71510(9) 0.10030(15) 0.75417(7)
O3 O 0.80498(10) -0.41917(19) 0.49071(8)
C1 C 0.64339(10) 0.03351(18) 0.79446(7)
C2 C 0.68883(10) -0.12031(18) 0.65776(8)
H1 H 0.6301 -0.1390 0.6710
C3 C 0.76606(10) 0.24759(17) 0.78567(7)
C4 C 0.77355(11) 0.39083(18) 0.74104(8)
H2 H 0.7421 0.3944 0.6917
C5 C 0.50582(10) -0.0870(2) 0.87445(8)
C6 C 0.80997(11) 0.24555(19) 0.86025(8)
H3 H 0.8040 0.1509 0.8912
C7 C 0.86236(11) 0.38387(19) 0.88846(8)
H4 H 0.8910 0.3826 0.9387
C8 C 0.84309(13) -0.2975(2) 0.52288(8)
H5 H 0.9009 -0.2684 0.5102
C9 C 0.82730(10) 0.52947(18) 0.76882(8)
H6 H 0.8327 0.6246 0.7381
C10 C 0.74496(9) 0.00775(17) 0.69528(7)
C11 C 0.58979(10) -0.1695(2) 0.88075(9)
H7 H 0.6008 -0.2650 0.9120
C12 C 0.80663(10) -0.19162(19) 0.58000(7)
C13 C 0.83177(10) 0.03686(19) 0.67203(8)
H8 H 0.8698 0.1230 0.6950
C14 C 0.87287(10) 0.52510(17) 0.84272(8)
C15 C 0.71926(10) -0.21864(19) 0.60172(8)
H9 H 0.6813 -0.3040 0.5780
C16 C 0.55843(12) 0.1128(2) 0.78764(10)
H10 H 0.5474 0.2088 0.7566
C17 C 0.86089(10) -0.0617(2) 0.61532(8)
H11 H 0.9185 -0.0404 0.6003
C18 C 0.94266(11) 0.80135(19) 0.83147(9)
H12 H 0.8839 0.8581 0.8168
H13 H 0.9683 0.7703 0.7855
C19 C 0.65796(10) -0.1085(2) 0.83984(9)
H14 H 0.7144 -0.1652 0.8434
C20 C 0.48966(12) 0.0510(2) 0.82644(11)
H15 H 0.4319 0.1031 0.8201
C21 C 1.00751(13) 0.9180(2) 0.87977(11)
H16 H 0.9804 0.9515 0.9241
H17 H 1.0190 1.0181 0.8509
H18 H 1.0647 0.8594 0.8953
C22 C 0.44550(13) -0.2686(2) 0.96507(10)
H19 H 0.4975 -0.2439 1.0037
H20 H 0.4581 -0.3746 0.9398
C23 C 0.35863(15) -0.2860(3) 1.00134(12)
H21 H 0.3458 -0.1795 1.0250
H22 H 0.3666 -0.3747 1.0392
H23 H 0.3080 -0.3148 0.9630
loop_
_geom_bond_atom_site_label_1
_geom_bond_atom_site_label_2
_geom_bond_site_symmetry_1
_geom_bond_site_symmetry_2
O1 C14 1_555 1_555
O2 C5 1_555 1_555
N1 C1 1_555 1_555
O3 C8 1_555 1_555
C1 C16 1_555 1_555
C2 H1 1_555 1_555
C3 N1 1_555 1_555
C4 C3 1_555 1_555
H2 C4 1_555 1_555
C5 C11 1_555 1_555
C6 C3 1_555 1_555
H3 C6 1_555 1_555
C7 C6 1_555 1_555
H4 C7 1_555 1_555
C8 H5 1_555 1_555
C9 C4 1_555 1_555
H6 C9 1_555 1_555
C10 N1 1_555 1_555
C11 H7 1_555 1_555
C12 C8 1_555 1_555
C13 C10 1_555 1_555
H8 C13 1_555 1_555
C14 C7 1_555 1_555
C15 C2 1_555 1_555
H9 C15 1_555 1_555
C16 H10 1_555 1_555
C17 C12 1_555 1_555
H11 C17 1_555 1_555
C18 O1 1_555 1_555
H12 C18 1_555 1_555
H13 C18 1_555 1_555
C19 C1 1_555 1_555
H14 C19 1_555 1_555
C20 C5 1_555 1_555
H15 C20 1_555 1_555
C21 C18 1_555 1_555
H16 C21 1_555 1_555
H17 C21 1_555 1_555
H18 C21 1_555 1_555
C22 O2 1_555 1_555
H19 C22 1_555 1_555
H20 C22 1_555 1_555
C23 C22 1_555 1_555
H21 C23 1_555 1_555
H22 C23 1_555 1_555
H23 C23 1_555 1_555
C2 C10 1_555 1_555
C9 C14 1_555 1_555
C11 C19 1_555 1_555
C12 C15 1_555 1_555
C13 C17 1_555 1_555
C16 C20 1_555 1_555

#END
