
#######################################################################
#
#                 Cambridge Crystallographic Data Centre
#                                CCDC 
#
#######################################################################
#
# If this CIF has been generated from an entry in the Cambridge 
# Structural Database, then it will include bibliographic, chemical, 
# crystal, experimental, refinement or atomic coordinate data resulting 
# from the CCDC's data processing and validation procedures.
#
#######################################################################

data_ZOCJOS
_chemical_formula_moiety         'C12 H13 N5 O1'
_chemical_name_systematic        
6-(3,5-dimethyl-1H-pyrazol-1-yl)-4-methyl-1H-pyrazolo[3,4-b]pyridin-3-ol
_symmetry_cell_setting           monoclinic
_symmetry_space_group_name_H-M   'P 21/n'
_symmetry_Int_Tables_number      14
_space_group_name_Hall           '-P 2yn'
loop_
_symmetry_equiv_pos_site_id
_symmetry_equiv_pos_as_xyz
1 x,y,z
2 1/2-x,1/2+y,1/2-z
3 -x,-y,-z
4 1/2+x,1/2-y,1/2+z
_cell_length_a                   7.648(7)
_cell_length_b                   7.992(7)
_cell_length_c                   19.393(18)
_cell_angle_alpha                90
_cell_angle_beta                 92.482(11)
_cell_angle_gamma                90
_cell_volume                     1184.24
_cell_formula_units_Z            4
loop_
_atom_site_label
_atom_site_type_symbol
_atom_site_fract_x
_atom_site_fract_y
_atom_site_fract_z
C1 C 1.0210(3) 1.0229(3) 0.60131(10)
C2 C 0.9260(3) 0.8679(2) 0.68704(10)
C3 C 1.0020(2) 1.0229(2) 0.67378(10)
C4 C 1.0325(3) 1.1350(2) 0.72864(10)
C5 C 1.1072(3) 1.3057(3) 0.71753(12)
H1 H 1.1620 1.3454 0.7599
H2 H 1.0151 1.3809 0.7029
H3 H 1.1925 1.3000 0.6827
C6 C 0.9855(3) 1.0796(2) 0.79228(10)
H4 H 1.0017 1.1485 0.8307
C7 C 0.9127(3) 0.9192(2) 0.79964(10)
C8 C 0.9697(3) 0.5658(3) 0.86202(12)
H5 H 1.0866 0.5908 0.8490
H6 H 0.8985 0.5393 0.8215
H7 H 0.9721 0.4720 0.8929
C9 C 0.8954(3) 0.7134(3) 0.89694(11)
C10 C 0.8479(3) 0.7318(3) 0.96376(11)
H8 H 0.8501 0.6494 0.9976
C11 C 0.7344(3) 0.9826(3) 1.03438(11)
H9 H 0.6212 1.0311 1.0247
H10 H 0.8158 1.0690 1.0483
H11 H 0.7270 0.9021 1.0709
C12 C 0.7954(3) 0.8984(3) 0.97135(10)
N1 N 0.9595(2) 0.8845(2) 0.57250(8)
N2 N 0.9019(2) 0.7870(2) 0.62611(8)
H12 H 0.8570 0.6888 0.6213
N3 N 0.8796(2) 0.8112(2) 0.74905(8)
N4 N 0.8689(2) 0.8657(2) 0.86658(8)
N5 N 0.8082(2) 0.9811(2) 0.91234(8)
O1 O 1.0925(2) 1.1466(2) 0.56610(7)
H13 H 1.0697 1.1336 0.5247
loop_
_geom_bond_atom_site_label_1
_geom_bond_atom_site_label_2
_geom_bond_site_symmetry_1
_geom_bond_site_symmetry_2
C1 C3 1_555 1_555
C2 C3 1_555 1_555
C3 C4 1_555 1_555
C4 C5 1_555 1_555
C5 H1 1_555 1_555
H2 C5 1_555 1_555
H3 C5 1_555 1_555
C6 C4 1_555 1_555
H4 C6 1_555 1_555
C7 C6 1_555 1_555
C8 H5 1_555 1_555
H6 C8 1_555 1_555
H7 C8 1_555 1_555
C9 C8 1_555 1_555
C10 C9 1_555 1_555
H8 C10 1_555 1_555
C11 H9 1_555 1_555
H10 C11 1_555 1_555
H11 C11 1_555 1_555
C12 C10 1_555 1_555
N1 C1 1_555 1_555
N2 C2 1_555 1_555
H12 N2 1_555 1_555
N3 C2 1_555 1_555
N4 C7 1_555 1_555
N5 C12 1_555 1_555
O1 C1 1_555 1_555
H13 O1 1_555 1_555
C7 N3 1_555 1_555
C9 N4 1_555 1_555
C11 C12 1_555 1_555
N1 N2 1_555 1_555
N4 N5 1_555 1_555

#END
