
#######################################################################
#
#                 Cambridge Crystallographic Data Centre
#                                CCDC 
#
#######################################################################
#
# If this CIF has been generated from an entry in the Cambridge 
# Structural Database, then it will include bibliographic, chemical, 
# crystal, experimental, refinement or atomic coordinate data resulting 
# from the CCDC's data processing and validation procedures.
#
#######################################################################

data_ZOCSAN
_chemical_formula_moiety         'C13 H9 Cl1 F3 N5,H2 O1'
_chemical_name_systematic        
'N-(3-Chlorophenyl)-5-methyl-2-(trifluoromethyl)[1,2,4]triazolo[1,5-a]pyrimidin-7-amine monohydrate'
_symmetry_cell_setting           orthorhombic
_symmetry_space_group_name_H-M   'P 21 21 21'
_symmetry_Int_Tables_number      19
_space_group_name_Hall           'P 2ac 2ab'
loop_
_symmetry_equiv_pos_site_id
_symmetry_equiv_pos_as_xyz
1 x,y,z
2 1/2-x,-y,1/2+z
3 1/2+x,1/2-y,-z
4 -x,1/2+y,1/2-z
_cell_length_a                   8.0291(3)
_cell_length_b                   12.6280(6)
_cell_length_c                   14.4878(7)
_cell_angle_alpha                90
_cell_angle_beta                 90
_cell_angle_gamma                90
_cell_volume                     1468.94
_exptl_crystal_colour            colorless
_exptl_crystal_description       needle
_cell_formula_units_Z            4
loop_
_atom_site_label
_atom_site_type_symbol
_atom_site_fract_x
_atom_site_fract_y
_atom_site_fract_z
Cl1 Cl 0.24163(12) 0.46946(7) 0.28753(6)
F1 F 0.5059(3) -0.27240(18) 0.68597(15)
F2 F 0.3442(3) -0.27735(17) 0.56973(17)
F3 F 0.5850(3) -0.20941(18) 0.55587(18)
N1 N 0.4044(3) -0.0302(2) 0.58313(18)
N2 N 0.3197(3) 0.0458(2) 0.63224(18)
N3 N 0.3681(4) 0.1825(2) 0.5284(2)
H1 H 0.406(5) 0.131(3) 0.492(3)
N4 N 0.1695(3) 0.0609(2) 0.77408(19)
N5 N 0.3028(3) -0.0984(2) 0.7189(2)
C1 C 0.2592(4) 0.0040(2) 0.7138(2)
C2 C 0.2990(4) 0.1499(2) 0.6079(2)
C3 C 0.0406(4) 0.2263(3) 0.8158(2)
H2 H -0.0624 0.1902 0.8278
H3 H 0.0177 0.2944 0.7892
H4 H 0.1005 0.2354 0.8726
C4 C 0.3105(4) 0.3228(3) 0.4183(2)
H5 H 0.2615 0.2737 0.3790
C5 C 0.3746(4) 0.2921(3) 0.5036(2)
C6 C 0.2054(4) 0.2088(3) 0.6701(2)
H6 H 0.1842 0.2798 0.6579
C7 C 0.4514(4) 0.3645(3) 0.5615(3)
H7 H 0.4961 0.3426 0.6176
C8 C 0.3872(4) -0.1123(2) 0.6393(2)
C9 C 0.3221(4) 0.4297(3) 0.3937(2)
C10 C 0.4561(4) -0.2175(3) 0.6132(2)
C11 C 0.1427(4) 0.1628(3) 0.7506(2)
C12 C 0.4610(5) 0.4702(3) 0.5349(3)
H8 H 0.5109 0.5193 0.5739
C13 C 0.3967(5) 0.5033(3) 0.4503(3)
H9 H 0.4040 0.5739 0.4324
O1 O 0.5302(3) 0.05817(19) 0.39843(17)
H10 H 0.467(4) 0.022(3) 0.365(2)
H11 H 0.572(5) 0.013(2) 0.435(2)
loop_
_geom_bond_atom_site_label_1
_geom_bond_atom_site_label_2
_geom_bond_site_symmetry_1
_geom_bond_site_symmetry_2
Cl1 C9 1_555 1_555
F1 C10 1_555 1_555
F2 C10 1_555 1_555
F3 C10 1_555 1_555
N1 N2 1_555 1_555
N2 C1 1_555 1_555
N3 H1 1_555 1_555
N4 C1 1_555 1_555
N5 C1 1_555 1_555
C2 N2 1_555 1_555
C3 H2 1_555 1_555
H3 C3 1_555 1_555
H4 C3 1_555 1_555
C4 H5 1_555 1_555
C5 N3 1_555 1_555
C6 C2 1_555 1_555
H6 C6 1_555 1_555
C7 C5 1_555 1_555
H7 C7 1_555 1_555
C8 N1 1_555 1_555
C9 C4 1_555 1_555
C10 C8 1_555 1_555
C11 N4 1_555 1_555
C12 C7 1_555 1_555
H8 C12 1_555 1_555
C13 C9 1_555 1_555
H9 C13 1_555 1_555
O1 H10 1_555 1_555
H11 O1 1_555 1_555
N3 C2 1_555 1_555
N5 C8 1_555 1_555
C3 C11 1_555 1_555
C4 C5 1_555 1_555
C6 C11 1_555 1_555
C12 C13 1_555 1_555

#END
