
#######################################################################
#
#                 Cambridge Crystallographic Data Centre
#                                CCDC 
#
#######################################################################
#
# If this CIF has been generated from an entry in the Cambridge 
# Structural Database, then it will include bibliographic, chemical, 
# crystal, experimental, refinement or atomic coordinate data resulting 
# from the CCDC's data processing and validation procedures.
#
#######################################################################

data_ZOCTUI
_chemical_formula_moiety         'C10 H11 B1 N2'
_chemical_name_systematic        
(cyano)(dihydrido)(3-phenylprop-2-yn-1-amine)boron
_symmetry_cell_setting           monoclinic
_symmetry_space_group_name_H-M   'C 2/c'
_symmetry_Int_Tables_number      15
_space_group_name_Hall           '-C 2yn'
loop_
_symmetry_equiv_pos_site_id
_symmetry_equiv_pos_as_xyz
1 x,y,z
2 -x,y,1/2-z
3 1/2+x,1/2+y,z
4 1/2-x,1/2+y,1/2-z
5 -x,-y,-z
6 x,-y,1/2+z
7 1/2-x,1/2-y,-z
8 1/2+x,1/2-y,1/2+z
_cell_length_a                   18.6134(17)
_cell_length_b                   6.2695(6)
_cell_length_c                   18.9195(18)
_cell_angle_alpha                90
_cell_angle_beta                 107.305(1)
_cell_angle_gamma                90
_cell_volume                     2107.91
_exptl_crystal_colour            colorless
_exptl_crystal_description       block
_cell_formula_units_Z            8
loop_
_atom_site_label
_atom_site_type_symbol
_atom_site_fract_x
_atom_site_fract_y
_atom_site_fract_z
N1 N 0.06005(6) -0.15543(15) 0.45047(7)
H1 H 0.0499 -0.0163 0.4407
H2 H 0.0481 -0.1863 0.4921
N2 N 0.00738(8) -0.70569(18) 0.42535(8)
C1 C 0.25768(8) 0.2362(2) 0.62331(8)
C2 C 0.22141(10) 0.4211(3) 0.63501(9)
H3 H 0.1714 0.4446 0.6080
C3 C 0.25930(14) 0.5698(3) 0.68658(11)
H4 H 0.2347 0.6929 0.6942
C4 C 0.33209(15) 0.5371(4) 0.72612(12)
H5 H 0.3574 0.6388 0.7603
C5 C 0.36849(12) 0.3564(5) 0.71613(12)
H6 H 0.4183 0.3346 0.7439
C6 C 0.33156(10) 0.2039(3) 0.66450(10)
H7 H 0.3566 0.0807 0.6578
C7 C 0.21815(8) 0.0829(2) 0.56863(8)
C8 C 0.18536(8) -0.0422(2) 0.52319(8)
C9 C 0.14172(8) -0.1870(2) 0.46548(8)
H8 H 0.1544 -0.3333 0.4809
H9 H 0.1551 -0.1631 0.4203
C10 C 0.00835(8) -0.5325(2) 0.40885(8)
B1 B 0.00670(10) -0.2900(3) 0.38482(11)
H10 H 0.0236 -0.2775 0.3412
H11 H -0.0443 -0.2357 0.3728
loop_
_geom_bond_atom_site_label_1
_geom_bond_atom_site_label_2
_geom_bond_site_symmetry_1
_geom_bond_site_symmetry_2
N1 H1 1_555 1_555
H2 N1 1_555 1_555
N2 C10 1_555 1_555
C1 C2 1_555 1_555
C2 H3 1_555 1_555
C3 C2 1_555 1_555
H4 C3 1_555 1_555
C4 C3 1_555 1_555
H5 C4 1_555 1_555
C5 C4 1_555 1_555
H6 C5 1_555 1_555
C6 C1 1_555 1_555
H7 C6 1_555 1_555
C7 C1 1_555 1_555
C8 C7 1_555 1_555
C9 N1 1_555 1_555
H8 C9 1_555 1_555
H9 C9 1_555 1_555
C10 B1 1_555 1_555
B1 N1 1_555 1_555
H10 B1 1_555 1_555
H11 B1 1_555 1_555
C5 C6 1_555 1_555
C8 C9 1_555 1_555

#END
