
#######################################################################
#
#                 Cambridge Crystallographic Data Centre
#                                CCDC 
#
#######################################################################
#
# If this CIF has been generated from an entry in the Cambridge 
# Structural Database, then it will include bibliographic, chemical, 
# crystal, experimental, refinement or atomic coordinate data resulting 
# from the CCDC's data processing and validation procedures.
#
#######################################################################

data_ZODBIF
_chemical_formula_moiety         'C26 H22 O4'
_chemical_name_systematic        2,4,9,11-tetramethoxypicene
_symmetry_cell_setting           monoclinic
_symmetry_space_group_name_H-M   'P 21/n'
_symmetry_Int_Tables_number      14
_space_group_name_Hall           '-P 2yn'
loop_
_symmetry_equiv_pos_site_id
_symmetry_equiv_pos_as_xyz
1 x,y,z
2 1/2-x,1/2+y,1/2-z
3 -x,-y,-z
4 1/2+x,1/2-y,1/2+z
_cell_length_a                   7.043(2)
_cell_length_b                   19.934(8)
_cell_length_c                   13.754(5)
_cell_angle_alpha                90
_cell_angle_beta                 90.379(16)
_cell_angle_gamma                90
_cell_volume                     1930.95
_exptl_crystal_colour            colorless
_exptl_crystal_description       prism
_cell_formula_units_Z            4
_exptl_crystal_recrystallization_method toluene
loop_
_atom_site_label
_atom_site_type_symbol
_atom_site_fract_x
_atom_site_fract_y
_atom_site_fract_z
O1 O 0.24181(14) 0.74562(4) 0.28691(7)
O2 O 0.14702(14) 0.55857(4) 0.07999(6)
O3 O 0.21631(16) 0.19403(4) 0.68733(7)
O4 O 0.33672(16) 0.36275(5) 0.92194(6)
C1 C 0.24148(16) 0.63399(6) 0.35730(9)
C2 C 0.22817(16) 0.67730(5) 0.28058(9)
C3 C 0.19732(17) 0.65410(6) 0.18554(9)
C4 C 0.17961(16) 0.58707(6) 0.16912(8)
C5 C 0.19447(15) 0.54014(5) 0.24667(8)
C6 C 0.17934(18) 0.47004(6) 0.22989(9)
C7 C 0.19183(17) 0.42556(6) 0.30374(9)
C8 C 0.21893(15) 0.44686(5) 0.40169(8)
C9 C 0.22799(15) 0.39936(5) 0.48055(8)
C10 C 0.20354(19) 0.32912(6) 0.46413(9)
C11 C 0.2083(2) 0.28485(6) 0.53881(10)
C12 C 0.24058(16) 0.30584(6) 0.63581(9)
C13 C 0.24593(18) 0.25924(6) 0.71416(10)
C14 C 0.27823(19) 0.27970(7) 0.80694(10)
C15 C 0.30545(17) 0.34827(7) 0.82602(9)
C16 C 0.29833(17) 0.39513(6) 0.75329(9)
C17 C 0.26649(15) 0.37440(5) 0.65643(8)
C18 C 0.25776(15) 0.42181(5) 0.57644(8)
C19 C 0.27709(17) 0.49172(6) 0.59186(9)
C20 C 0.26589(17) 0.53648(6) 0.51802(8)
C21 C 0.23669(14) 0.51604(5) 0.42050(8)
C22 C 0.22438(14) 0.56411(5) 0.34182(8)
C23 C 0.2700(3) 0.77370(7) 0.38055(11)
C24 C 0.1400(3) 0.60220(8) -0.00153(11)
C25 C 0.1860(3) 0.14659(9) 0.76206(14)
C26 C 0.3557(3) 0.43113(9) 0.94778(12)
H1 H 0.2616(18) 0.6506(7) 0.4211(11)
H2 H 0.1856(18) 0.6866(8) 0.1351(11)
H3 H 0.1621(19) 0.4541(8) 0.1639(11)
H4 H 0.1844(19) 0.3780(8) 0.2854(10)
H5 H 0.1829(19) 0.3118(8) 0.3990(11)
H6 H 0.189(2) 0.2379(8) 0.5246(12)
H7 H 0.286(2) 0.2493(8) 0.8611(12)
H8 H 0.3168(18) 0.4428(8) 0.7700(10)
H9 H 0.299(2) 0.5088(8) 0.6573(11)
H10 H 0.2787(19) 0.5846(8) 0.5325(11)
H11 H 0.278(2) 0.8207(9) 0.3698(12)
H12 H 0.395(2) 0.7577(8) 0.4121(13)
H13 H 0.161(2) 0.7616(9) 0.4220(14)
H14 H 0.109(2) 0.5725(9) -0.0570(13)
H15 H 0.266(2) 0.6236(9) -0.0094(13)
H16 H 0.044(2) 0.6355(9) 0.0077(13)
H17 H 0.155(3) 0.1054(11) 0.7260(15)
H18 H 0.309(3) 0.1405(11) 0.8062(16)
H19 H 0.083(3) 0.1608(9) 0.8055(15)
H20 H 0.383(2) 0.4320(8) 1.0157(14)
H21 H 0.465(2) 0.4532(9) 0.9119(13)
H22 H 0.238(2) 0.4554(9) 0.9280(13)
loop_
_geom_bond_atom_site_label_1
_geom_bond_atom_site_label_2
_geom_bond_site_symmetry_1
_geom_bond_site_symmetry_2
O1 C2 1_555 1_555
O2 C4 1_555 1_555
O3 C13 1_555 1_555
O4 C15 1_555 1_555
C1 C2 1_555 1_555
C2 C3 1_555 1_555
C3 C4 1_555 1_555
C4 C5 1_555 1_555
C5 C6 1_555 1_555
C6 C7 1_555 1_555
C7 C8 1_555 1_555
C8 C9 1_555 1_555
C9 C10 1_555 1_555
C10 C11 1_555 1_555
C11 C12 1_555 1_555
C12 C13 1_555 1_555
C13 C14 1_555 1_555
C14 C15 1_555 1_555
C15 C16 1_555 1_555
C16 C17 1_555 1_555
C17 C12 1_555 1_555
C18 C9 1_555 1_555
C19 C18 1_555 1_555
C20 C19 1_555 1_555
C21 C8 1_555 1_555
C22 C1 1_555 1_555
C23 O1 1_555 1_555
C24 O2 1_555 1_555
C25 O3 1_555 1_555
C26 O4 1_555 1_555
H1 C1 1_555 1_555
H2 C3 1_555 1_555
H3 C6 1_555 1_555
H4 C7 1_555 1_555
H5 C10 1_555 1_555
H6 C11 1_555 1_555
H7 C14 1_555 1_555
H8 C16 1_555 1_555
H9 C19 1_555 1_555
H10 C20 1_555 1_555
H11 C23 1_555 1_555
H12 C23 1_555 1_555
H13 C23 1_555 1_555
H14 C24 1_555 1_555
H15 C24 1_555 1_555
H16 C24 1_555 1_555
H17 C25 1_555 1_555
H18 C25 1_555 1_555
H19 C25 1_555 1_555
H20 C26 1_555 1_555
H21 C26 1_555 1_555
H22 C26 1_555 1_555
C5 C22 1_555 1_555
C17 C18 1_555 1_555
C20 C21 1_555 1_555
C21 C22 1_555 1_555

#END
