
#######################################################################
#
#                 Cambridge Crystallographic Data Centre
#                                CCDC 
#
#######################################################################
#
# If this CIF has been generated from an entry in the Cambridge 
# Structural Database, then it will include bibliographic, chemical, 
# crystal, experimental, refinement or atomic coordinate data resulting 
# from the CCDC's data processing and validation procedures.
#
#######################################################################

data_ZODTIX
_chemical_formula_moiety         'C20 H19 N1'
_chemical_name_systematic        
3-(3,4-dihydronaphthalen-1-yl)-1,2-dimethyl-1H-indole
_symmetry_cell_setting           monoclinic
_symmetry_space_group_name_H-M   'P 21'
_symmetry_Int_Tables_number      4
_space_group_name_Hall           'P 2yb'
loop_
_symmetry_equiv_pos_site_id
_symmetry_equiv_pos_as_xyz
1 x,y,z
2 -x,1/2+y,-z
_cell_length_a                   7.859(4)
_cell_length_b                   7.981(4)
_cell_length_c                   23.406(12)
_cell_angle_alpha                90
_cell_angle_beta                 92.401(9)
_cell_angle_gamma                90
_cell_volume                     1466.8
_cell_formula_units_Z            4
loop_
_atom_site_label
_atom_site_type_symbol
_atom_site_fract_x
_atom_site_fract_y
_atom_site_fract_z
C1 C 0.8538(8) 0.1499(10) 0.0734(3)
H1 H 0.9180 0.1895 0.1048
C2 C 0.9339(10) 0.1232(19) 0.0233(3)
H2 H 1.0453 0.1596 0.0196
C3 C 0.8506(10) 0.0433(13) -0.0209(3)
H3 H 0.9059 0.0200 -0.0544
C4 C 0.6856(11) -0.0018(13) -0.0155(3)
H4 H 0.6286 -0.0591 -0.0451
C5 C 0.5995(9) 0.0371(11) 0.0344(3)
C6 C 0.4175(9) -0.0068(13) 0.0370(3)
H5 H 0.3898 -0.0958 0.0099
H6 H 0.3480 0.0899 0.0268
C7 C 0.3791(9) -0.0647(12) 0.0979(3)
H7 H 0.2571 -0.0752 0.1015
H8 H 0.4305 -0.1734 0.1054
C8 C 0.4490(9) 0.0597(10) 0.1397(3)
H9 H 0.3888 0.0794 0.1724
C9 C 0.5942(6) 0.1459(8) 0.1331(2)
C10 C 0.6823(8) 0.1211(11) 0.0795(3)
C11 C 0.6651(8) 0.2591(11) 0.1756(3)
C12 C 0.7275(8) 0.4276(11) 0.1674(3)
C13 C 0.7446(9) 0.5326(11) 0.1193(3)
H10 H 0.7134 0.4953 0.0827
C14 C 0.8110(11) 0.6967(11) 0.1284(4)
H11 H 0.8248 0.7688 0.0978
C15 C 0.8531(11) 0.7455(13) 0.1816(4)
H12 H 0.8905 0.8553 0.1865
C16 C 0.8460(9) 0.6506(11) 0.2281(3)
H13 H 0.8829 0.6914 0.2637
C17 C 0.7818(9) 0.4883(9) 0.2221(3)
C18 C 0.6845(9) 0.2276(11) 0.2336(3)
C19 C 0.6532(11) 0.0695(10) 0.2673(3)
H14 H 0.7553 0.0389 0.2887
H15 H 0.6210 -0.0196 0.2414
H16 H 0.5634 0.0888 0.2931
C20 C 0.7973(9) 0.3851(13) 0.3220(2)
H17 H 0.7066 0.3393 0.3433
H18 H 0.8112 0.5017 0.3311
H19 H 0.9011 0.3263 0.3317
N1 N 0.7556(6) 0.3664(9) 0.25992(19)
C21 C 0.3157(7) 0.6795(8) 0.4217(2)
C22 C 0.1438(8) 0.6254(11) 0.4254(3)
H20 H 0.0872 0.5681 0.3957
C23 C 0.0641(10) 0.6641(10) 0.4771(3)
H21 H -0.0494 0.6342 0.4806
C24 C 0.1474(11) 0.744(2) 0.5218(4)
H22 H 0.0917 0.7674 0.5551
C25 C 0.3163(10) 0.7879(12) 0.5165(3)
H23 H 0.3745 0.8375 0.5475
C26 C 0.4016(8) 0.7614(10) 0.4671(2)
C27 C 0.5890(9) 0.8090(12) 0.4596(3)
H24 H 0.6195 0.9009 0.4851
H25 H 0.6610 0.7142 0.4701
C28 C 0.6211(9) 0.8593(14) 0.3995(3)
H26 H 0.7429 0.8676 0.3948
H27 H 0.5716 0.9689 0.3920
C29 C 0.5467(7) 0.7358(12) 0.3572(2)
H28 H 0.5999 0.7190 0.3230
C30 C 0.3308(7) 0.5294(8) 0.3225(2)
C31 C 0.3065(8) 0.5619(9) 0.2651(2)
C32 C 0.3493(9) 0.7104(14) 0.2340(3)
H29 H 0.3460 0.8058 0.2589
H30 H 0.2689 0.7257 0.2024
H31 H 0.4617 0.6989 0.2199
C33 C 0.2761(8) 0.3606(9) 0.3314(3)
C34 C 0.2668(8) 0.2567(11) 0.3767(3)
H32 H 0.3073 0.2947 0.4123
C35 C 0.2026(9) 0.1026(11) 0.3729(3)
H33 H 0.1981 0.0360 0.4054
C36 C 0.1389(10) 0.0383(10) 0.3174(4)
H34 H 0.0908 -0.0680 0.3145
C37 C 0.1517(9) 0.1406(10) 0.2682(4)
H35 H 0.1160 0.1043 0.2319
C38 C 0.2210(7) 0.2979(10) 0.2779(3)
C39 C 0.2016(11) 0.4248(13) 0.1773(3)
H36 H 0.2929 0.3761 0.1570
H37 H 0.1834 0.5381 0.1647
H38 H 0.0995 0.3609 0.1701
C40 C 0.4057(10) 0.6490(10) 0.3675(3)
N2 N 0.2440(8) 0.4241(9) 0.2362(2)
loop_
_geom_bond_atom_site_label_1
_geom_bond_atom_site_label_2
_geom_bond_site_symmetry_1
_geom_bond_site_symmetry_2
C1 H1 1_555 1_555
C2 C1 1_555 1_555
H2 C2 1_555 1_555
C3 C2 1_555 1_555
H3 C3 1_555 1_555
C4 C3 1_555 1_555
H4 C4 1_555 1_555
C5 C4 1_555 1_555
C6 C5 1_555 1_555
H5 C6 1_555 1_555
H6 C6 1_555 1_555
C7 C6 1_555 1_555
H7 C7 1_555 1_555
H8 C7 1_555 1_555
C8 C7 1_555 1_555
H9 C8 1_555 1_555
C9 C8 1_555 1_555
C10 C1 1_555 1_555
C11 C9 1_555 1_555
C12 C11 1_555 1_555
C13 C12 1_555 1_555
H10 C13 1_555 1_555
C14 C13 1_555 1_555
H11 C14 1_555 1_555
C15 C14 1_555 1_555
H12 C15 1_555 1_555
C16 C15 1_555 1_555
H13 C16 1_555 1_555
C17 C12 1_555 1_555
C18 C11 1_555 1_555
C19 C18 1_555 1_555
H14 C19 1_555 1_555
H15 C19 1_555 1_555
H16 C19 1_555 1_555
C20 H17 1_555 1_555
H18 C20 1_555 1_555
H19 C20 1_555 1_555
N1 C17 1_555 1_555
C21 C22 1_555 1_555
C22 H20 1_555 1_555
C23 C22 1_555 1_555
H21 C23 1_555 1_555
C24 C23 1_555 1_555
H22 C24 1_555 1_555
C25 C24 1_555 1_555
H23 C25 1_555 1_555
C26 C21 1_555 1_555
C27 C26 1_555 1_555
H24 C27 1_555 1_555
H25 C27 1_555 1_555
C28 C27 1_555 1_555
H26 C28 1_555 1_555
H27 C28 1_555 1_555
C29 C28 1_555 1_555
H28 C29 1_555 1_555
C30 C31 1_555 1_555
C31 C32 1_555 1_555
C32 H29 1_555 1_555
H30 C32 1_555 1_555
H31 C32 1_555 1_555
C33 C30 1_555 1_555
C34 C33 1_555 1_555
H32 C34 1_555 1_555
C35 C34 1_555 1_555
H33 C35 1_555 1_555
C36 C35 1_555 1_555
H34 C36 1_555 1_555
C37 C36 1_555 1_555
H35 C37 1_555 1_555
C38 C33 1_555 1_555
C39 H36 1_555 1_555
H37 C39 1_555 1_555
H38 C39 1_555 1_555
C40 C21 1_555 1_555
N2 C31 1_555 1_555
C5 C10 1_555 1_555
C9 C10 1_555 1_555
C16 C17 1_555 1_555
C18 N1 1_555 1_555
C20 N1 1_555 1_555
C25 C26 1_555 1_555
C29 C40 1_555 1_555
C30 C40 1_555 1_555
C37 C38 1_555 1_555
C38 N2 1_555 1_555
C39 N2 1_555 1_555

#END
