
#######################################################################
#
#                 Cambridge Crystallographic Data Centre
#                                CCDC 
#
#######################################################################
#
# If this CIF has been generated from an entry in the Cambridge 
# Structural Database, then it will include bibliographic, chemical, 
# crystal, experimental, refinement or atomic coordinate data resulting 
# from the CCDC's data processing and validation procedures.
#
#######################################################################

data_ZOFWEY
_chemical_formula_moiety         'C13 H11 Cl2 N1 O1'
_chemical_name_systematic        
2-(2,6-Dichloro-4-methoxyphenyl)-5-methylpyridine
_symmetry_cell_setting           triclinic
_symmetry_space_group_name_H-M   'P -1'
_symmetry_Int_Tables_number      2
_space_group_name_Hall           '-P 1'
loop_
_symmetry_equiv_pos_site_id
_symmetry_equiv_pos_as_xyz
1 x,y,z
2 -x,-y,-z
_cell_length_a                   6.2427(4)
_cell_length_b                   8.5337(6)
_cell_length_c                   12.7695(10)
_cell_angle_alpha                74.492(6)
_cell_angle_beta                 77.526(6)
_cell_angle_gamma                81.552(5)
_cell_volume                     637.153
_cell_formula_units_Z            2
loop_
_atom_site_label
_atom_site_type_symbol
_atom_site_fract_x
_atom_site_fract_y
_atom_site_fract_z
Cl1 Cl 1.04375(10) 0.38501(7) 0.91164(5)
Cl2 Cl 0.92697(12) 0.01681(7) 0.64605(6)
O1 O 1.4296(3) -0.1731(2) 0.93083(14)
N1 N 0.9792(3) 0.4640(2) 0.65875(15)
C1 C 1.0965(3) 0.2067(2) 0.86502(16)
C2 C 1.2356(3) 0.0833(3) 0.91570(16)
H1 H 1.2968 0.0957 0.9729
C3 C 1.2833(3) -0.0600(2) 0.88010(17)
C4 C 1.1840(4) -0.0803(2) 0.79850(18)
H2 H 1.2106 -0.1776 0.7761
C5 C 1.0438(3) 0.0475(2) 0.75068(17)
C6 C 0.9980(3) 0.1963(2) 0.77908(15)
C7 C 0.8654(3) 0.3391(2) 0.71862(16)
C8 C 0.6427(4) 0.3414(3) 0.7229(2)
H3 H 0.5674 0.2526 0.7655
C9 C 0.5322(4) 0.4764(3) 0.6637(2)
H4 H 0.3817 0.4793 0.6662
C10 C 0.6451(4) 0.6064(3) 0.60101(18)
C11 C 0.8676(4) 0.5932(3) 0.60229(19)
H5 H 0.9459 0.6810 0.5607
C12 C 0.5358(5) 0.7581(4) 0.5332(3)
H6 H 0.3973 0.7346 0.5226
H7 H 0.6295 0.7923 0.4626
H8 H 0.5111 0.8439 0.5714
C13 C 1.5178(5) -0.3075(3) 0.8834(3)
H9 H 1.5752 -0.2676 0.8061
H10 H 1.4036 -0.3766 0.8922
H11 H 1.6340 -0.3689 0.9198
loop_
_geom_bond_atom_site_label_1
_geom_bond_atom_site_label_2
_geom_bond_site_symmetry_1
_geom_bond_site_symmetry_2
Cl1 C1 1_555 1_555
Cl2 C5 1_555 1_555
O1 C3 1_555 1_555
N1 C7 1_555 1_555
C1 C2 1_555 1_555
C2 H1 1_555 1_555
C3 C2 1_555 1_555
C4 C3 1_555 1_555
H2 C4 1_555 1_555
C5 C4 1_555 1_555
C6 C1 1_555 1_555
C7 C6 1_555 1_555
C8 C7 1_555 1_555
H3 C8 1_555 1_555
C9 C8 1_555 1_555
H4 C9 1_555 1_555
C10 C9 1_555 1_555
C11 N1 1_555 1_555
H5 C11 1_555 1_555
C12 C10 1_555 1_555
H6 C12 1_555 1_555
H7 C12 1_555 1_555
H8 C12 1_555 1_555
C13 O1 1_555 1_555
H9 C13 1_555 1_555
H10 C13 1_555 1_555
H11 C13 1_555 1_555
C5 C6 1_555 1_555
C10 C11 1_555 1_555

#END
