
#######################################################################
#
#                 Cambridge Crystallographic Data Centre
#                                CCDC 
#
#######################################################################
#
# If this CIF has been generated from an entry in the Cambridge 
# Structural Database, then it will include bibliographic, chemical, 
# crystal, experimental, refinement or atomic coordinate data resulting 
# from the CCDC's data processing and validation procedures.
#
#######################################################################

data_ZOFXAT
_chemical_formula_moiety         'C28 H46 Li1 N1 O4 S1'
_chemical_name_systematic        
Isothiocyanato-(6-methyl-didecalino(4a,8a-b:4a',8a'-i)-1,4,8,11-tetraoxatetradecane)-lithium
_symmetry_cell_setting           triclinic
_symmetry_space_group_name_H-M   'P -1'
_symmetry_Int_Tables_number      2
_space_group_name_Hall           '-P 1'
loop_
_symmetry_equiv_pos_site_id
_symmetry_equiv_pos_as_xyz
1 x,y,z
2 -x,-y,-z
_cell_length_a                   11.197(8)
_cell_length_b                   11.773(8)
_cell_length_c                   11.801(6)
_cell_angle_alpha                62.98(6)
_cell_angle_beta                 80.91(4)
_cell_angle_gamma                88.87(4)
_cell_volume                     1366.03
_cell_formula_units_Z            2
loop_
_atom_site_label
_atom_site_type_symbol
_atom_site_fract_x
_atom_site_fract_y
_atom_site_fract_z
S1 S -0.1960(1) 0.01237(8) 0.18680(8)
O1 O -0.3950(2) 0.3316(2) 0.3316(2)
O2 O -0.1377(2) 0.3809(2) 0.3355(1)
O3 O -0.1499(2) 0.1909(2) 0.5909(1)
O4 O -0.3725(2) 0.1317(2) 0.6053(1)
N1 N -0.2033(2) 0.0844(2) 0.3820(2)
C1 C -0.3173(2) 0.4646(2) 0.2542(2)
C2 C -0.1788(2) 0.4614(2) 0.2138(2)
C3 C -0.0108(3) 0.3604(3) 0.3265(3)
C4 C 0.0313(5) 0.3078(4) 0.4495(3)
C5 C -0.0223(3) 0.1881(3) 0.5567(3)
C6 C -0.2061(3) 0.0933(2) 0.7177(2)
C7 C -0.3417(3) 0.1214(2) 0.7246(2)
C8 C -0.4989(3) 0.1348(3) 0.5951(3)
C9 C -0.5128(3) 0.1649(3) 0.4600(3)
C10 C -0.4874(3) 0.3031(3) 0.3616(3)
C11 C -0.3433(3) 0.5341(3) 0.3372(3)
C12 C -0.2807(3) 0.6673(3) 0.2749(3)
C13 C -0.1453(3) 0.6617(3) 0.2390(3)
C14 C -0.1191(3) 0.5964(2) 0.1530(3)
C15 C -0.3771(3) 0.5267(3) 0.1329(3)
C16 C -0.3495(3) 0.4638(3) 0.0447(3)
C17 C -0.2137(3) 0.4631(3) 0.0055(2)
C18 C -0.1518(3) 0.3997(2) 0.1240(2)
C19 C -0.1861(3) -0.0380(3) 0.7239(3)
C20 C -0.2639(4) -0.1456(3) 0.8400(3)
C21 C -0.3975(4) -0.1178(3) 0.8423(3)
C22 C -0.4176(3) 0.0110(3) 0.8413(3)
C23 C -0.1545(3) 0.1078(3) 0.8231(3)
C24 C -0.1734(3) 0.2363(3) 0.8205(3)
C25 C -0.3069(3) 0.2611(3) 0.8321(3)
C26 C -0.3620(3) 0.2487(3) 0.7274(3)
C27 C 0.1689(3) 0.3027(4) 0.4277(3)
C28 C -0.2003(3) 0.0540(2) 0.3012(3)
Li1 Li -0.2447(4) 0.2140(4) 0.4483(4)
loop_
_geom_bond_atom_site_label_1
_geom_bond_atom_site_label_2
_geom_bond_site_symmetry_1
_geom_bond_site_symmetry_2
S1 C28 1_555 1_555
O1 C1 1_555 1_555
O2 C2 1_555 1_555
O3 C5 1_555 1_555
O4 C7 1_555 1_555
N1 C28 1_555 1_555
C1 C2 1_555 1_555
C2 C14 1_555 1_555
C3 O2 1_555 1_555
C4 C3 1_555 1_555
C5 C4 1_555 1_555
C6 O3 1_555 1_555
C7 C6 1_555 1_555
C8 O4 1_555 1_555
C9 C8 1_555 1_555
C10 O1 1_555 1_555
C11 C1 1_555 1_555
C12 C11 1_555 1_555
C13 C12 1_555 1_555
C14 C13 1_555 1_555
C15 C1 1_555 1_555
C16 C15 1_555 1_555
C17 C16 1_555 1_555
C18 C2 1_555 1_555
C19 C6 1_555 1_555
C20 C19 1_555 1_555
C21 C20 1_555 1_555
C22 C7 1_555 1_555
C23 C6 1_555 1_555
C24 C23 1_555 1_555
C25 C24 1_555 1_555
C26 C7 1_555 1_555
C27 C4 1_555 1_555
Li1 O1 1_555 1_555
O2 Li1 1_555 1_555
O3 Li1 1_555 1_555
O4 Li1 1_555 1_555
N1 Li1 1_555 1_555
C9 C10 1_555 1_555
C17 C18 1_555 1_555
C21 C22 1_555 1_555
C25 C26 1_555 1_555

#END
