
#######################################################################
#
#                 Cambridge Crystallographic Data Centre
#                                CCDC 
#
#######################################################################
#
# If this CIF has been generated from an entry in the Cambridge 
# Structural Database, then it will include bibliographic, chemical, 
# crystal, experimental, refinement or atomic coordinate data resulting 
# from the CCDC's data processing and validation procedures.
#
#######################################################################

data_ZOGHAG
_chemical_formula_moiety         'C18 H17 Cl1 O3'
_chemical_name_systematic        
2-(4-chlorophenyl)-5,8-dimethoxy-1,2-dihydronaphthalen-1-ol
_symmetry_cell_setting           orthorhombic
_symmetry_space_group_name_H-M   'P 21 21 21'
_symmetry_Int_Tables_number      19
_space_group_name_Hall           'P 2ac 2ab'
loop_
_symmetry_equiv_pos_site_id
_symmetry_equiv_pos_as_xyz
1 x,y,z
2 1/2-x,-y,1/2+z
3 -x,1/2+y,1/2-z
4 1/2+x,1/2-y,-z
_cell_length_a                   4.878(2)
_cell_length_b                   16.418(7)
_cell_length_c                   19.847(9)
_cell_angle_alpha                90
_cell_angle_beta                 90
_cell_angle_gamma                90
_cell_volume                     1589.49
_exptl_crystal_colour            colorless
_exptl_crystal_description       block
_cell_formula_units_Z            4
loop_
_atom_site_label
_atom_site_type_symbol
_atom_site_fract_x
_atom_site_fract_y
_atom_site_fract_z
Cl1 Cl 0.6213(5) 1.16185(10) 0.00369(10)
O1 O 0.7229(10) 0.5209(2) 0.1409(2)
C1 C 0.5766(12) 0.6562(3) 0.1584(3)
O2 O 0.6577(7) 0.84077(19) 0.21250(16)
H1 H 0.6176 0.8885 0.2195
O3 O 0.0900(7) 0.7498(2) 0.27487(16)
C2 C 0.4440(11) 0.8026(3) 0.1724(2)
H2 H 0.2701 0.8301 0.1821
C3 C 0.5420(12) 0.9011(3) 0.0756(2)
C4 C 0.4160(11) 0.7146(3) 0.1912(2)
C5 C 0.5647(14) 0.5739(4) 0.1775(3)
C6 C 0.2440(11) 0.6888(3) 0.2435(3)
C7 C 0.7296(11) 0.7555(3) 0.0763(3)
H3 H 0.8524 0.7714 0.0430
C8 C 0.7541(11) 0.6831(4) 0.1039(3)
H4 H 0.8891 0.6480 0.0881
C9 C 0.5069(10) 0.8132(3) 0.0978(2)
H5 H 0.3419 0.7941 0.0744
C10 C 0.2346(12) 0.6074(4) 0.2632(3)
H6 H 0.1220 0.5915 0.2986
C11 C 0.3924(15) 0.5505(4) 0.2300(4)
H7 H 0.3838 0.4961 0.2428
C12 C 0.7446(19) 0.4373(3) 0.1620(4)
H8 H 0.8202 0.4350 0.2066
H9 H 0.8622 0.4084 0.1315
H10 H 0.5660 0.4128 0.1619
C13 C 0.5831(19) 1.0628(4) 0.0314(3)
C14 C 0.387(2) 0.9608(4) 0.0997(3)
H11 H 0.2556 0.9491 0.1322
C15 C 0.419(2) 1.0405(4) 0.0774(4)
H12 H 0.3112 1.0804 0.0976
C16 C -0.0653(14) 0.7297(4) 0.3333(2)
H13 H -0.2034 0.6905 0.3216
H14 H -0.1511 0.7780 0.3506
H15 H 0.0540 0.7071 0.3669
C17 C 0.735(2) 1.0041(5) 0.0029(5)
H16 H 0.8523 1.0164 -0.0326
C18 C 0.7149(19) 0.9233(5) 0.0270(4)
H17 H 0.8276 0.8838 0.0080
loop_
_geom_bond_atom_site_label_1
_geom_bond_atom_site_label_2
_geom_bond_site_symmetry_1
_geom_bond_site_symmetry_2
Cl1 C13 1_555 1_555
O1 C5 1_555 1_555
C1 C4 1_555 1_555
O2 H1 1_555 1_555
O3 C6 1_555 1_555
C2 O2 1_555 1_555
H2 C2 1_555 1_555
C3 C9 1_555 1_555
C4 C2 1_555 1_555
C5 C1 1_555 1_555
C6 C4 1_555 1_555
C7 H3 1_555 1_555
C8 C1 1_555 1_555
H4 C8 1_555 1_555
C9 C2 1_555 1_555
H5 C9 1_555 1_555
C10 C6 1_555 1_555
H6 C10 1_555 1_555
C11 C5 1_555 1_555
H7 C11 1_555 1_555
C12 O1 1_555 1_555
H8 C12 1_555 1_555
H9 C12 1_555 1_555
H10 C12 1_555 1_555
C13 C15 1_555 1_555
C14 C3 1_555 1_555
H11 C14 1_555 1_555
C15 C14 1_555 1_555
H12 C15 1_555 1_555
C16 O3 1_555 1_555
H13 C16 1_555 1_555
H14 C16 1_555 1_555
H15 C16 1_555 1_555
C17 C13 1_555 1_555
H16 C17 1_555 1_555
C18 C3 1_555 1_555
H17 C18 1_555 1_555
C7 C8 1_555 1_555
C7 C9 1_555 1_555
C10 C11 1_555 1_555
C17 C18 1_555 1_555

#END
