
#######################################################################
#
#                 Cambridge Crystallographic Data Centre
#                                CCDC 
#
#######################################################################
#
# If this CIF has been generated from an entry in the Cambridge 
# Structural Database, then it will include bibliographic, chemical, 
# crystal, experimental, refinement or atomic coordinate data resulting 
# from the CCDC's data processing and validation procedures.
#
#######################################################################

data_ZOGRUI
_chemical_formula_moiety         'C18 H16 Cl1 F1 N3 O5 S1 1+,C7 H7 O3 S1 1-'
_chemical_name_systematic        
'L-Alanine ((1-(aminocarbonyl)-6-chloro-5-fluoro-1,2-dihydro-2-oxo-3H-indol-3-ylidene)-2-thienylmethoxy)methyl ester tosylate'
_symmetry_cell_setting           monoclinic
_symmetry_space_group_name_H-M   'P 21'
_symmetry_Int_Tables_number      4
_space_group_name_Hall           'P 2yb'
loop_
_symmetry_equiv_pos_site_id
_symmetry_equiv_pos_as_xyz
1 x,y,z
2 -x,1/2+y,-z
_cell_length_a                   7.7850(1)
_cell_length_b                   29.903(8)
_cell_length_c                   11.994(3)
_cell_angle_alpha                90
_cell_angle_beta                 97.16(2)
_cell_angle_gamma                90
_cell_volume                     2770.37
_chemical_melting_point          210-214deg.C
_cell_formula_units_Z            4
loop_
_atom_site_label
_atom_site_type_symbol
_atom_site_fract_x
_atom_site_fract_y
_atom_site_fract_z
S1 S 0.6352(3) 0.9420(1) 1.3513(2)
O1 O 0.6600(8) 0.9684(3) 1.4527(6)
O2 O 0.7769(7) 0.9469(3) 1.2855(6)
O3 O 0.6016(7) 0.8964(3) 1.3718(6)
C1 C 0.4499(8) 0.9642(3) 1.2738(6)
C2 C 0.3041(8) 0.9723(3) 1.3271(7)
C3 C 0.1558(8) 0.9902(3) 1.2712(7)
C4 C 0.1493(8) 1.0012(3) 1.1595(7)
C5 C 0.2930(9) 0.9939(4) 1.1070(7)
C6 C 0.4425(8) 0.9754(3) 1.1606(6)
C7 C -0.0163(9) 1.0211(5) 1.0963(8)
H1 H 0.3073 0.9648 1.4052
H2 H 0.0570 0.9951 1.3101
H3 H 0.2894 1.0020 1.0293
H4 H 0.5403 0.9703 1.1208
H5 H 0.0015 1.0268 1.0198
H6 H -0.0443 1.0485 1.1313
H7 H -0.1097 1.0002 1.0978
C8 C 0.3635(7) 0.7004 1.1191(5)
C9 C 0.3680(7) 0.6538(3) 1.0872(6)
N1 N 0.2999(6) 0.6284(2) 1.1728(5)
C10 C 0.2585(7) 0.6592(3) 1.2581(6)
C11 C 0.3032(7) 0.7025(3) 1.2284(5)
C12 C 0.1889(7) 0.6507(3) 1.3560(6)
C13 C 0.1685(7) 0.6860(3) 1.4245(5)
Cl1 Cl 0.0814(3) 0.6767(1) 1.5516(2)
C14 C 0.2114(8) 0.7284(3) 1.3978(6)
F1 F 0.1924(6) 0.7621(2) 1.4700(4)
C15 C 0.2757(8) 0.7377(3) 1.3006(6)
O4 O 0.4185(6) 0.6361(2) 1.0071(5)
C16 C 0.2878(8) 0.5822(3) 1.1779(6)
N2 N 0.3580(7) 0.5594(2) 1.1027(5)
O5 O 0.2144(7) 0.5656(2) 1.2543(5)
C17 C 0.4157(7) 0.7356(3) 1.0589(6)
C18 C 0.4514(7) 0.7346(3) 0.9411(6)
S2 S 0.3163(3) 0.7117(1) 0.8350(2)
C19 C 0.4470(8) 0.7249(3) 0.7384(6)
C20 C 0.5923(8) 0.7463(3) 0.7840(6)
C21 C 0.6072(7) 0.7558(3) 0.9042(6)
O6 O 0.4369(6) 0.7749(2) 1.1132(4)
C22 C 0.4103(8) 0.8154(3) 1.0530(6)
O7 O 0.3253(6) 0.8452(2) 1.1227(5)
C23 C 0.1498(8) 0.8401(3) 1.1183(6)
O8 O 0.0673(7) 0.8118(2) 1.0644(5)
C24 C 0.0835(8) 0.8744(3) 1.1921(6)
N3 N -0.1072(8) 0.8744(3) 1.1722(6)
C25 C 0.1425(8) 0.8648(3) 1.3164(6)
H8 H 0.1562 0.6210 1.3751
H9 H 0.3016 0.7679 1.2816
H10 H 0.3667(10) 0.5241(10) 1.1023(10)
H11 H 0.3795(10) 0.5742(10) 1.0400(10)
H12 H 0.4215 0.7181 0.6599
H13 H 0.6811 0.7549 0.7393
H14 H 0.6969 0.7722 0.9491
H15 H 0.5192 0.8277 1.0387
H16 H 0.3387 0.8104 0.9830
H17 H 0.1287 0.9031 1.1746
H18 H -0.1623(10) 0.9000(10) 1.2106(10)
H19 H -0.1408(10) 0.8431(10) 1.1834(10)
H20 H -0.1488(10) 0.8740(10) 1.0987(10)
H21 H 0.2667 0.8649 1.3297
H22 H 0.0999 0.8361 1.3355
H23 H 0.0976 0.8874 1.3618
S3 S 0.6481(3) 0.9190(1) 0.8691(2)
O9 O 0.6094(7) 0.9635(2) 0.8974(6)
O10 O 0.7271(7) 0.8926(3) 0.9635(5)
O11 O 0.7516(7) 0.9161(3) 0.7746(5)
C26 C 0.4577(8) 0.8912(3) 0.8234(6)
C27 C 0.3069(8) 0.8998(3) 0.8725(6)
C28 C 0.1562(8) 0.8767(4) 0.8439(7)
C29 C 0.1481(8) 0.8433(4) 0.7672(8)
C30 C 0.2925(9) 0.8349(3) 0.7116(8)
C31 C 0.4452(8) 0.8590(3) 0.7411(7)
C32 C -0.0094(9) 0.8152(5) 0.7351(8)
H24 H 0.3094 0.9229 0.9285
H25 H 0.0553 0.8842 0.8786
H26 H 0.2866 0.8128 0.6533
H27 H 0.5440 0.8528 0.7030
H28 H -0.0988 0.8241 0.7789
H29 H 0.0185 0.7843 0.7493
H30 H -0.0491 0.8193 0.6568
C33 C 0.6763(7) 0.6581(3) 1.3998(6)
C34 C 0.6734(8) 0.7044(3) 1.4319(6)
N4 N 0.7369(7) 0.7300(2) 1.3439(5)
C35 C 0.7769(7) 0.6994(3) 1.2601(5)
C36 C 0.7350(7) 0.6564(3) 1.2859(6)
C37 C 0.8472(7) 0.7111(3) 1.1618(6)
C38 C 0.8724(7) 0.6745(3) 1.0928(6)
Cl2 Cl 0.9570(3) 0.6834(1) 0.9669(2)
C39 C 0.8281(8) 0.6318(3) 1.1176(6)
F2 F 0.8531(7) 0.5970(2) 1.0480(4)
C40 C 0.7616(8) 0.6214(3) 1.2192(6)
O12 O 0.6251(7) 0.7218(2) 1.5170(4)
C41 C 0.7383(8) 0.7756(3) 1.3345(6)
N5 N 0.6778(8) 0.7995(3) 1.4181(6)
O13 O 0.7958(7) 0.7939(2) 1.2560(5)
C42 C 0.6201(7) 0.6224(3) 1.4560(6)
C43 C 0.5873(8) 0.6211(3) 1.5735(6)
S4 S 0.7347(3) 0.6374(1) 1.6829(2)
C44 C 0.6096(9) 0.6178(4) 1.7759(7)
C45 C 0.4602(8) 0.6003(3) 1.7296(7)
C46 C 0.4346(8) 0.6000(3) 1.6090(6)
O14 O 0.5982(7) 0.5838(2) 1.3974(5)
C47 C 0.6169(8) 0.5426(3) 1.4520(7)
O15 O 0.7116(7) 0.5140(2) 1.3899(5)
C48 C 0.8900(8) 0.5171(3) 1.4046(6)
O16 O 0.9637(7) 0.5456(2) 1.4559(5)
C49 C 0.9670(8) 0.4774(3) 1.3496(6)
N6 N 1.1477(7) 0.4850(2) 1.3493(5)
C50 C 0.9350(8) 0.4346(3) 1.4140(6)
H31 H 0.8754 0.7413 1.1436
H32 H 0.7368 0.5912 1.2394
H33 H 0.6448(10) 0.7837(10) 1.4832(10)
H34 H 0.6694(10) 0.8303(10) 1.4059(10)
H35 H 0.6426 0.6191 1.8557
H36 H 0.3756 0.5886 1.7737
H37 H 0.3367 0.5882 1.5615
H38 H 0.6776 0.5466 1.5260
H39 H 0.5049 0.5300 1.4574
H40 H 0.9133 0.4740 1.2736
H41 H 1.1699(10) 0.5142(10) 1.3035(10)
H42 H 1.2200(10) 0.4756(10) 1.4261(10)
H43 H 1.1844(10) 0.4672(10) 1.3254(10)
H44 H 0.8127 0.4301 1.4132
H45 H 0.9886 0.4372 1.4902
H46 H 0.9837 0.4095 1.3788
loop_
_geom_bond_atom_site_label_1
_geom_bond_atom_site_label_2
_geom_bond_site_symmetry_1
_geom_bond_site_symmetry_2
S1 O1 1_555 1_555
O2 S1 1_555 1_555
O3 S1 1_555 1_555
C1 S1 1_555 1_555
C2 C1 1_555 1_555
C3 C2 1_555 1_555
C4 C3 1_555 1_555
C5 C4 1_555 1_555
C6 C1 1_555 1_555
C7 C4 1_555 1_555
C8 C9 1_555 1_555
C9 N1 1_555 1_555
N1 C10 1_555 1_555
C10 C11 1_555 1_555
C11 C8 1_555 1_555
C12 C10 1_555 1_555
C13 C12 1_555 1_555
Cl1 C13 1_555 1_555
C14 C13 1_555 1_555
F1 C14 1_555 1_555
C15 C11 1_555 1_555
O4 C9 1_555 1_555
C16 N1 1_555 1_555
N2 C16 1_555 1_555
O5 C16 1_555 1_555
C17 C8 1_555 1_555
C18 C17 1_555 1_555
S2 C18 1_555 1_555
C19 S2 1_555 1_555
C20 C19 1_555 1_555
C21 C18 1_555 1_555
O6 C17 1_555 1_555
C22 O6 1_555 1_555
O7 C22 1_555 1_555
C23 O7 1_555 1_555
O8 C23 1_555 1_555
C24 C23 1_555 1_555
N3 C24 1_555 1_555
C25 C24 1_555 1_555
S3 O9 1_555 1_555
O10 S3 1_555 1_555
O11 S3 1_555 1_555
C26 S3 1_555 1_555
C27 C26 1_555 1_555
C28 C27 1_555 1_555
C29 C28 1_555 1_555
C30 C29 1_555 1_555
C31 C26 1_555 1_555
C32 C29 1_555 1_555
C33 C34 1_555 1_555
C34 N4 1_555 1_555
N4 C35 1_555 1_555
C35 C36 1_555 1_555
C36 C33 1_555 1_555
C37 C35 1_555 1_555
C38 C37 1_555 1_555
Cl2 C38 1_555 1_555
C39 C38 1_555 1_555
F2 C39 1_555 1_555
C40 C36 1_555 1_555
O12 C34 1_555 1_555
C41 N4 1_555 1_555
N5 C41 1_555 1_555
O13 C41 1_555 1_555
C42 C33 1_555 1_555
C43 C42 1_555 1_555
S4 C43 1_555 1_555
C44 S4 1_555 1_555
C45 C44 1_555 1_555
C46 C43 1_555 1_555
O14 C42 1_555 1_555
C47 O14 1_555 1_555
O15 C47 1_555 1_555
C48 O15 1_555 1_555
O16 C48 1_555 1_555
C49 C48 1_555 1_555
N6 C49 1_555 1_555
C50 C49 1_555 1_555
H1 C2 1_555 1_555
H2 C3 1_555 1_555
H3 C5 1_555 1_555
H4 C6 1_555 1_555
H5 C7 1_555 1_555
H6 C7 1_555 1_555
H7 C7 1_555 1_555
H8 C12 1_555 1_555
H9 C15 1_555 1_555
H10 N2 1_555 1_555
H11 N2 1_555 1_555
H12 C19 1_555 1_555
H13 C20 1_555 1_555
H14 C21 1_555 1_555
H15 C22 1_555 1_555
H16 C22 1_555 1_555
H17 C24 1_555 1_555
H18 N3 1_555 1_555
H19 N3 1_555 1_555
H20 N3 1_555 1_555
H21 C25 1_555 1_555
H22 C25 1_555 1_555
H23 C25 1_555 1_555
H24 C27 1_555 1_555
H25 C28 1_555 1_555
H26 C30 1_555 1_555
H27 C31 1_555 1_555
H28 C32 1_555 1_555
H29 C32 1_555 1_555
H30 C32 1_555 1_555
H31 C37 1_555 1_555
H32 C40 1_555 1_555
H33 N5 1_555 1_555
H34 N5 1_555 1_555
H35 C44 1_555 1_555
H36 C45 1_555 1_555
H37 C46 1_555 1_555
H38 C47 1_555 1_555
H39 C47 1_555 1_555
H40 C49 1_555 1_555
H41 N6 1_555 1_555
H42 N6 1_555 1_555
H43 N6 1_555 1_555
H44 C50 1_555 1_555
H45 C50 1_555 1_555
H46 C50 1_555 1_555
C5 C6 1_555 1_555
C14 C15 1_555 1_555
C20 C21 1_555 1_555
C30 C31 1_555 1_555
C39 C40 1_555 1_555
C45 C46 1_555 1_555

#END
