
#######################################################################
#
#                 Cambridge Crystallographic Data Centre
#                                CCDC 
#
#######################################################################
#
# If this CIF has been generated from an entry in the Cambridge 
# Structural Database, then it will include bibliographic, chemical, 
# crystal, experimental, refinement or atomic coordinate data resulting 
# from the CCDC's data processing and validation procedures.
#
#######################################################################

data_ZOGSAP
_chemical_formula_moiety         'C22 H38 O5'
_chemical_name_systematic        
5-Acetyloxymethyl-5-hydroxymethyl-3-tetradecanylidene-4,5-dihydro-3H-furan-2-one
_symmetry_cell_setting           triclinic
_symmetry_space_group_name_H-M   'P -1'
_symmetry_Int_Tables_number      2
_space_group_name_Hall           '-P 1'
loop_
_symmetry_equiv_pos_site_id
_symmetry_equiv_pos_as_xyz
1 x,y,z
2 -x,-y,-z
_cell_length_a                   5.301(2)
_cell_length_b                   5.506(1)
_cell_length_c                   43.520(9)
_cell_angle_alpha                92.62(2)
_cell_angle_beta                 90.94(2)
_cell_angle_gamma                113.67(2)
_cell_volume                     1161.32
_chemical_melting_point          58-59deg.C
_cell_formula_units_Z            2
loop_
_atom_site_label
_atom_site_type_symbol
_atom_site_fract_x
_atom_site_fract_y
_atom_site_fract_z
O1 O 0.4182(5) 0.5046(5) 0.3763(1)
C1 C 0.4565(7) 0.5232(7) 0.3459(1)
C2 C 0.6207(7) 0.3721(7) 0.3361(1)
C3 C 0.7056(7) 0.2810(7) 0.3647(1)
C4 C 0.5110(8) 0.3094(8) 0.3888(1)
C5 C 0.6521(9) 0.4206(9) 0.4191(1)
O2 O 0.4688(7) 0.4448(7) 0.4414(1)
C6 C 0.5136(12) 0.6723(13) 0.4559(1)
C7 C 0.2912(12) 0.6647(14) 0.4762(1)
O3 O 0.7162(10) 0.8702(8) 0.4525(1)
C8 C 0.2551(8) 0.0522(8) 0.3919(1)
O4 O 0.1054(6) -0.0542(6) 0.3637(1)
O5 O 0.3649(6) 0.6534(5) 0.3313(1)
C9 C 0.6735(8) 0.3295(8) 0.3072(1)
C10 C 0.5863(10) 0.4198(10) 0.2790(1)
C11 C 0.8069(10) 0.6648(10) 0.2664(1)
C12 C 0.7064(10) 0.7578(11) 0.2387(1)
C13 C 0.9179(10) 1.0001(11) 0.2247(1)
C14 C 0.8109(11) 1.0900(11) 0.1971(1)
C15 C 1.0161(11) 1.3285(11) 0.1826(1)
C16 C 0.9011(12) 1.4195(11) 0.1555(1)
C17 C 1.1077(12) 1.6545(11) 0.1403(1)
C18 C 0.9883(13) 1.7456(12) 0.1134(1)
C19 C 1.1931(14) 1.9722(13) 0.0972(2)
C20 C 1.0726(16) 2.0620(15) 0.0705(2)
C21 C 1.2820(19) 2.2860(19) 0.0541(2)
C22 C 1.1739(25) 2.3823(23) 0.0289(2)
H1 H 0.8961(7) 0.3912(7) 0.3707(1)
H2 H 0.6839(7) 0.0978(7) 0.3619(1)
H3 H 0.7368(9) 0.3065(9) 0.4265(1)
H4 H 0.7976(9) 0.5942(9) 0.4166(1)
H5 H 0.1502(12) 0.4876(14) 0.4755(1)
H6 H 0.2141(12) 0.7846(14) 0.4693(1)
H7 H 0.3643(12) 0.7169(14) 0.4969(1)
H8 H 0.3116(8) -0.0791(8) 0.4004(1)
H9 H 0.1345(8) 0.0865(8) 0.4064(1)
H10 H 0.1570(94) -0.1309(94) 0.3505(10)
H11 H 0.7787(8) 0.2305(8) 0.3043(1)
H12 H 0.4265(10) 0.4576(10) 0.2834(11)
H13 H 0.5304(10) 0.2762(10) 0.2632(1)
H14 H 0.8691(10) 0.8070(10) 0.2824(1)
H15 H 0.9635(10) 0.6252(10) 0.2609(1)
H16 H 0.5504(10) 0.7975(11) 0.2444(1)
H17 H 0.6407(10) 0.6130(11) 0.2230(1)
H18 H 0.9846(10) 1.1452(11) 0.2403(1)
H19 H 1.0734(10) 0.9605(11) 0.2187(1)
H20 H 0.7426(11) 0.9437(11) 0.1816(1)
H21 H 0.6558(11) 1.1298(11) 0.2032(1)
H22 H 1.1686(11) 1.2874(11) 0.1758(1)
H23 H 1.0886(11) 1.4740(11) 0.1981(1)
H24 H 0.8241(12) 1.2725(11) 0.1402(1)
H25 H 0.7516(12) 1.4649(11) 0.1624(1)
H26 H 1.2561(12) 1.6087(11) 0.1331(1)
H27 H 1.1863(12) 1.8013(11) 0.1556(1)
H28 H 0.9024(13) 1.5962(12) 0.0985(1)
H29 H 0.8449(13) 1.7980(12) 0.1208(1)
H30 H 1.3361(14) 1.9198(13) 0.0896(2)
H31 H 1.2794(14) 2.1217(13) 0.1120(2)
H32 H 0.9323(16) 2.1182(15) 0.0781(2)
H33 H 0.9834(16) 1.9121(15) 0.0558(2)
H34 H 1.3744(19) 2.4331(19) 0.0691(2)
H35 H 1.4197(19) 2.2273(19) 0.0463(2)
H36 H 1.3219(25) 2.5241(23) 0.0200(2)
H37 H 1.0413(25) 2.4463(23) 0.0364(2)
H38 H 1.0869(25) 2.2403(23) 0.0136(2)
loop_
_geom_bond_atom_site_label_1
_geom_bond_atom_site_label_2
_geom_bond_site_symmetry_1
_geom_bond_site_symmetry_2
O1 C1 1_555 1_555
C1 C2 1_555 1_555
C2 C3 1_555 1_555
C3 C4 1_555 1_555
C4 O1 1_555 1_555
C5 C4 1_555 1_555
O2 C5 1_555 1_555
C6 O2 1_555 1_555
C7 C6 1_555 1_555
O3 C6 1_555 1_555
C8 C4 1_555 1_555
O4 C8 1_555 1_555
O5 C1 1_555 1_555
C9 C2 1_555 1_555
C10 C9 1_555 1_555
C11 C10 1_555 1_555
C12 C11 1_555 1_555
C13 C12 1_555 1_555
C14 C13 1_555 1_555
C15 C14 1_555 1_555
C16 C15 1_555 1_555
C17 C16 1_555 1_555
C18 C17 1_555 1_555
C19 C18 1_555 1_555
C20 C19 1_555 1_555
C21 C20 1_555 1_555
C22 C21 1_555 1_555
H1 C3 1_555 1_555
H2 C3 1_555 1_555
H3 C5 1_555 1_555
H4 C5 1_555 1_555
H5 C7 1_555 1_555
H6 C7 1_555 1_555
H7 C7 1_555 1_555
H8 C8 1_555 1_555
H9 C8 1_555 1_555
H10 O4 1_555 1_555
H11 C9 1_555 1_555
H12 C10 1_555 1_555
H13 C10 1_555 1_555
H14 C11 1_555 1_555
H15 C11 1_555 1_555
H16 C12 1_555 1_555
H17 C12 1_555 1_555
H18 C13 1_555 1_555
H19 C13 1_555 1_555
H20 C14 1_555 1_555
H21 C14 1_555 1_555
H22 C15 1_555 1_555
H23 C15 1_555 1_555
H24 C16 1_555 1_555
H25 C16 1_555 1_555
H26 C17 1_555 1_555
H27 C17 1_555 1_555
H28 C18 1_555 1_555
H29 C18 1_555 1_555
H30 C19 1_555 1_555
H31 C19 1_555 1_555
H32 C20 1_555 1_555
H33 C20 1_555 1_555
H34 C21 1_555 1_555
H35 C21 1_555 1_555
H36 C22 1_555 1_555
H37 C22 1_555 1_555
H38 C22 1_555 1_555

#END
