
#######################################################################
#
#                 Cambridge Crystallographic Data Centre
#                                CCDC 
#
#######################################################################
#
# If this CIF has been generated from an entry in the Cambridge 
# Structural Database, then it will include bibliographic, chemical, 
# crystal, experimental, refinement or atomic coordinate data resulting 
# from the CCDC's data processing and validation procedures.
#
#######################################################################

data_ZOLFOV
_chemical_formula_moiety         'C58 H76 O12'
_chemical_name_systematic        
'Tetraethyl 5,14,20,29,32,33,36,37-octamethyl-7,12,22,27-tetraoxapentacyclo(26.2.2.2^3,6^.2^13,16^.2^18,21^)octatriaconta-3,5,13,15,18,20,28,30,31,33,35,37-dodecaene-2,2,17,17-tetra-acetate'
_symmetry_cell_setting           monoclinic
_symmetry_space_group_name_H-M   'P 21/n'
_symmetry_Int_Tables_number      14
_space_group_name_Hall           '-P 2yn'
loop_
_symmetry_equiv_pos_site_id
_symmetry_equiv_pos_as_xyz
1 x,y,z
2 1/2-x,1/2+y,1/2-z
3 -x,-y,-z
4 1/2+x,1/2-y,1/2+z
_cell_length_a                   8.898(13)
_cell_length_b                   19.50(3)
_cell_length_c                   17.04(2)
_cell_angle_alpha                90
_cell_angle_beta                 104.74(10)
_cell_angle_gamma                90
_cell_volume                     2859.33
_exptl_crystal_colour            white
_cell_formula_units_Z            2
loop_
_atom_site_label
_atom_site_type_symbol
_atom_site_fract_x
_atom_site_fract_y
_atom_site_fract_z
O1 O 0.2167(10) 0.1899(8) 0.6318(6)
C1 C 0.2346(17) 0.1844(16) 0.5511(12)
C2 C 0.3070(14) 0.1347(11) 0.3183(8)
C3 C 0.2391(17) 0.2150(15) 0.4206(9)
C4 C 0.2693(17) 0.1521(13) 0.3999(9)
C5 C -0.0669(17) 0.0306(14) 0.2290(9)
C6 C 0.2004(18) 0.0758(14) 0.2787(9)
C7 C 0.1427(22) -0.0380(12) 0.2116(9)
C8 C 0.0330(17) 0.0846(13) 0.2648(8)
C9 C 0.2159(20) 0.2375(15) 0.4982(10)
C10 C 0.2481(21) 0.0124(14) 0.2498(10)
C11 C 0.2963(18) 0.1641(12) 0.8148(9)
C12 C 0.3542(18) 0.2130(12) 0.6874(9)
C13 C 0.2762(18) 0.0995(12) 0.4564(10)
C14 C 0.3188(18) 0.2295(12) 0.7686(8)
C15 C 0.1789(20) 0.3115(13) 0.5190(10)
C16 C 0.2593(18) 0.1135(15) 0.5346(10)
C17 C 0.2695(19) 0.0505(13) 0.5924(9)
C18 C 0.2074(17) -0.1034(12) 0.1827(10)
C19 C -0.2440(17) 0.0433(12) 0.2134(9)
C20 C 0.1353(18) 0.1281(12) 0.7797(9)
O2 O 0.1094(12) 0.0764(9) 0.8332(6)
C21 C -0.0104(17) -0.0259(13) 0.2043(9)
O3 O 0.1603(13) 0.1731(8) 0.1221(7)
O4 O 0.4173(15) 0.1654(10) 0.1629(6)
C22 C 0.1469(30) 0.1523(15) 0.0421(12)
C23 C 0.4729(17) 0.1093(11) 0.3370(9)
C24 C 0.2785(15) 0.1979(12) 0.2604(8)
C25 C 0.1455(41) 0.0759(20) 0.0362(14)
C26 C 0.2954(23) 0.1782(12) 0.1782(10)
O5 O 0.6965(16) 0.1193(11) 0.4391(10)
C27 C 0.8139(27) 0.1452(17) 0.5774(14)
C28 C 0.5862(25) 0.1591(17) 0.3911(14)
O6 O 0.5874(18) 0.2208(11) 0.3898(10)
C29 C 0.8189(33) 0.1562(20) 0.5055(15)
H1 H 0.2318 0.2495 0.3796
H2 H -0.0064 0.1263 0.2820
H3 H 0.3575 0.0050 0.2570
H4 H 0.3056 0.1758 0.8706
H5 H 0.3782 0.1325 0.8132
H6 H 0.3885 0.2542 0.6663
H7 H 0.4353 0.1794 0.6952
H8 H 0.2932 0.0533 0.4412
H9 H 0.3981 0.2575 0.8025
H10 H 0.2235 0.2551 0.7570
H11 H 0.1680 0.3138 0.5735
H12 H 0.2618 0.3413 0.5137
H13 H 0.0837 0.3259 0.4820
H14 H 0.2895 0.0102 0.5644
H15 H 0.3507 0.0563 0.6413
H16 H 0.1716 0.0458 0.6058
H17 H 0.1238 -0.1336 0.1578
H18 H 0.2631 -0.0905 0.1435
H19 H 0.2767 -0.1262 0.2274
H20 H -0.2638 0.0873 0.2342
H21 H -0.2924 0.0413 0.1563
H22 H -0.2859 0.0079 0.2408
H23 H 0.1315 0.1098 0.7269
H24 H 0.0530 0.1609 0.7742
H26 H 0.2435 0.1619 0.0290
H27 H 0.0650 0.1755 0.0037
H28 H 0.5036 0.1011 0.2877
H29 H 0.4787 0.0668 0.3661
H30 H 0.3553 0.2323 0.2817
H31 H 0.1779 0.2169 0.2580
H32 H 0.1405 0.0585 -0.0171
H33 H 0.2281 0.0534 0.0749
H34 H 0.0487 0.0672 0.0495
H35 H 0.8912 0.1713 0.6152
H36 H 0.7142 0.1525 0.5880
H37 H 0.8397 0.0973 0.5832
H38 H 0.8853 0.1916 0.4941
O2B O -0.1094(12) -0.0764(9) 0.1668(6)
C20B C -0.1353(18) -0.1281(12) 0.2203(9)
C11B C -0.2963(18) -0.1641(12) 0.1852(9)
C14B C -0.3188(18) -0.2295(12) 0.2314(8)
C12B C -0.3542(18) -0.2130(12) 0.3126(9)
O1B O -0.2167(10) -0.1899(8) 0.3682(6)
C1B C -0.2346(17) -0.1844(16) 0.4489(12)
C9B C -0.2159(20) -0.2375(15) 0.5018(10)
C3B C -0.2391(17) -0.2150(15) 0.5794(9)
C4B C -0.2693(17) -0.1521(13) 0.6001(9)
C2B C -0.3070(14) -0.1347(11) 0.6817(8)
C6B C -0.2004(18) -0.0758(14) 0.7213(9)
C8B C -0.0330(17) -0.0846(13) 0.7352(8)
C5B C 0.0669(17) -0.0306(14) 0.7710(9)
C19B C 0.2440(17) -0.0433(12) 0.7866(9)
H20B H 0.2638 -0.0873 0.7658
H21B H 0.2924 -0.0413 0.8437
H22B H 0.2859 -0.0079 0.7592
C21B C 0.0104(17) 0.0259(13) 0.7957(9)
C7B C -0.1427(22) 0.0380(12) 0.7884(9)
C10B C -0.2481(21) -0.0124(14) 0.7502(10)
H3B H -0.3575 -0.0050 0.7430
C18B C -0.2074(17) 0.1034(12) 0.8173(10)
H17B H -0.1238 0.1336 0.8422
H18B H -0.2631 0.0905 0.8565
H19B H -0.2767 0.1262 0.7726
H2B H 0.0064 -0.1263 0.7180
C23B C -0.4729(17) -0.1093(11) 0.6630(9)
C28B C -0.5862(25) -0.1591(17) 0.6089(14)
O5B O -0.6965(16) -0.1193(11) 0.5609(10)
C29B C -0.8189(33) -0.1562(20) 0.4945(15)
C27B C -0.8139(27) -0.1452(17) 0.4226(14)
H35B H -0.8912 -0.1713 0.3848
H36B H -0.7142 -0.1525 0.4120
H37B H -0.8397 -0.0973 0.4168
H38B H -0.8853 -0.1916 0.5059
O6B O -0.5874(18) -0.2208(11) 0.6102(10)
H28B H -0.5036 -0.1011 0.7123
H29B H -0.4787 -0.0668 0.6339
C24B C -0.2785(15) -0.1979(12) 0.7396(8)
C26B C -0.2954(23) -0.1782(12) 0.8218(10)
O3B O -0.1603(13) -0.1731(8) 0.8779(7)
C22B C -0.1469(30) -0.1523(15) 0.9579(12)
C25B C -0.1455(41) -0.0759(20) 0.9638(14)
H32B H -0.1405 -0.0585 1.0171
H33B H -0.2281 -0.0534 0.9251
H34B H -0.0487 -0.0672 0.9505
H26B H -0.2435 -0.1619 0.9710
H27B H -0.0650 -0.1755 0.9963
O4B O -0.4173(15) -0.1654(10) 0.8371(6)
H30B H -0.3553 -0.2323 0.7183
H31B H -0.1779 -0.2169 0.7420
C13B C -0.2762(18) -0.0995(12) 0.5436(10)
C16B C -0.2593(18) -0.1135(15) 0.4654(10)
C17B C -0.2695(19) -0.0505(13) 0.4076(9)
H14B H -0.2895 -0.0102 0.4356
H15B H -0.3507 -0.0563 0.3587
H16B H -0.1716 -0.0458 0.3942
H8B H -0.2932 -0.0533 0.5588
H1B H -0.2318 -0.2495 0.6204
C15B C -0.1789(20) -0.3115(13) 0.4810(10)
H11B H -0.1680 -0.3138 0.4265
H12B H -0.2618 -0.3413 0.4863
H13B H -0.0837 -0.3259 0.5180
H6B H -0.3885 -0.2542 0.3337
H7B H -0.4353 -0.1794 0.3048
H9B H -0.3981 -0.2575 0.1975
H10B H -0.2235 -0.2551 0.2430
H4B H -0.3056 -0.1758 0.1294
H5B H -0.3782 -0.1325 0.1868
H23B H -0.1315 -0.1098 0.2731
H24B H -0.0530 -0.1609 0.2258
H25? H -0.2025 -0.0649 0.1648
loop_
_geom_bond_atom_site_label_1
_geom_bond_atom_site_label_2
_geom_bond_site_symmetry_1
_geom_bond_site_symmetry_2
O1 C1 1_555 1_555
C1 C9 1_555 1_555
C2 C4 1_555 1_555
C3 C4 1_555 1_555
C4 C13 1_555 1_555
C5 C8 1_555 1_555
C6 C2 1_555 1_555
C7 C10 1_555 1_555
C8 C6 1_555 1_555
C9 C3 1_555 1_555
C10 C6 1_555 1_555
C11 C14 1_555 1_555
C12 O1 1_555 1_555
C13 C16 1_555 1_555
C14 C12 1_555 1_555
C15 C9 1_555 1_555
C16 C1 1_555 1_555
C17 C16 1_555 1_555
C18 C7 1_555 1_555
C19 C5 1_555 1_555
C20 C11 1_555 1_555
O2 C20 1_555 1_555
C21 C5 1_555 1_555
O3 C22 1_555 1_555
O4 C26 1_555 1_555
C22 C25 1_555 1_555
C23 C2 1_555 1_555
C24 C2 1_555 1_555
C25 H32 1_555 1_555
C26 O3 1_555 1_555
O5 C28 1_555 1_555
C27 C29 1_555 1_555
C28 C23 1_555 1_555
O6 C28 1_555 1_555
C29 O5 1_555 1_555
H1 C3 1_555 1_555
H2 C8 1_555 1_555
H3 C10 1_555 1_555
H4 C11 1_555 1_555
H5 C11 1_555 1_555
H6 C12 1_555 1_555
H7 C12 1_555 1_555
H8 C13 1_555 1_555
H9 C14 1_555 1_555
H10 C14 1_555 1_555
H11 C15 1_555 1_555
H12 C15 1_555 1_555
H13 C15 1_555 1_555
H14 C17 1_555 1_555
H15 C17 1_555 1_555
H16 C17 1_555 1_555
H17 C18 1_555 1_555
H18 C18 1_555 1_555
H19 C18 1_555 1_555
H20 C19 1_555 1_555
H21 C19 1_555 1_555
H22 C19 1_555 1_555
H23 C20 1_555 1_555
H24 C20 1_555 1_555
H26 C22 1_555 1_555
H27 C22 1_555 1_555
H28 C23 1_555 1_555
H29 C23 1_555 1_555
H30 C24 1_555 1_555
H31 C24 1_555 1_555
H33 C25 1_555 1_555
H34 C25 1_555 1_555
H35 C27 1_555 1_555
H36 C27 1_555 1_555
H37 C27 1_555 1_555
H38 C29 1_555 1_555
O2B C21 1_555 1_555
C20B O2B 1_555 1_555
C11B C20B 1_555 1_555
C14B C11B 1_555 1_555
C12B C14B 1_555 1_555
O1B C12B 1_555 1_555
C1B O1B 1_555 1_555
C9B C1B 1_555 1_555
C3B C9B 1_555 1_555
C4B C3B 1_555 1_555
C2B C4B 1_555 1_555
C6B C2B 1_555 1_555
C8B C6B 1_555 1_555
C5B C8B 1_555 1_555
C19B C5B 1_555 1_555
H20B C19B 1_555 1_555
H21B C19B 1_555 1_555
H22B C19B 1_555 1_555
C21B O2 1_555 1_555
C7B C21B 1_555 1_555
C10B C6B 1_555 1_555
H3B C10B 1_555 1_555
C18B C7B 1_555 1_555
H17B C18B 1_555 1_555
H18B C18B 1_555 1_555
H19B C18B 1_555 1_555
H2B C8B 1_555 1_555
C23B C2B 1_555 1_555
C28B C23B 1_555 1_555
O5B C28B 1_555 1_555
C29B O5B 1_555 1_555
C27B C29B 1_555 1_555
H35B C27B 1_555 1_555
H36B C27B 1_555 1_555
H37B C27B 1_555 1_555
H38B C29B 1_555 1_555
O6B C28B 1_555 1_555
H28B C23B 1_555 1_555
H29B C23B 1_555 1_555
C24B C2B 1_555 1_555
C26B C24B 1_555 1_555
O3B C26B 1_555 1_555
C22B O3B 1_555 1_555
C25B C22B 1_555 1_555
H32B C25B 1_555 1_555
H33B C25B 1_555 1_555
H34B C25B 1_555 1_555
H26B C22B 1_555 1_555
H27B C22B 1_555 1_555
O4B C26B 1_555 1_555
H30B C24B 1_555 1_555
H31B C24B 1_555 1_555
C13B C4B 1_555 1_555
C16B C1B 1_555 1_555
C17B C16B 1_555 1_555
H14B C17B 1_555 1_555
H15B C17B 1_555 1_555
H16B C17B 1_555 1_555
H8B C13B 1_555 1_555
H1B C3B 1_555 1_555
C15B C9B 1_555 1_555
H11B C15B 1_555 1_555
H12B C15B 1_555 1_555
H13B C15B 1_555 1_555
H6B C12B 1_555 1_555
H7B C12B 1_555 1_555
H9B C14B 1_555 1_555
H10B C14B 1_555 1_555
H4B C11B 1_555 1_555
H5B C11B 1_555 1_555
H23B C20B 1_555 1_555
H24B C20B 1_555 1_555
C7 C21 1_555 1_555
C24 C26 1_555 1_555
C5B C21B 1_555 1_555
C7B C10B 1_555 1_555
C13B C16B 1_555 1_555

#END
