
#######################################################################
#
#                 Cambridge Crystallographic Data Centre
#                                CCDC 
#
#######################################################################
#
# If this CIF has been generated from an entry in the Cambridge 
# Structural Database, then it will include bibliographic, chemical, 
# crystal, experimental, refinement or atomic coordinate data resulting 
# from the CCDC's data processing and validation procedures.
#
#######################################################################

data_ZOLFIP
_chemical_formula_moiety         'C114 H168 N4 O44'
_chemical_name_systematic        
'Dodecamethyl 5,14,20,29,32,33,36,37-octamethyl-7,12,22,27-tetraoxapentacyclo(26.2.2.2^3,6^.2^13,16^.2^18,21^)octatriaconta-3,5,13,15,18,20,28,30,31,33,35,37-dodecaene-2,2,17,17-tetrayl)-tetrakis((((1-oxoethane-2,1-diyl)imino(methanetetrayl))-tris(methyleneoxy))-dodecakis(propanoate)'
_symmetry_cell_setting           triclinic
_symmetry_space_group_name_H-M   'P -1'
_symmetry_Int_Tables_number      2
_space_group_name_Hall           '-P 1'
loop_
_symmetry_equiv_pos_site_id
_symmetry_equiv_pos_as_xyz
1 x,y,z
2 -x,-y,-z
_cell_length_a                   12.772(3)
_cell_length_b                   15.452(2)
_cell_length_c                   16.180(2)
_cell_angle_alpha                83.33(2)
_cell_angle_beta                 69.97(1)
_cell_angle_gamma                79.22(1)
_cell_volume                     2942.39
_exptl_crystal_colour            colorless
_cell_formula_units_Z            1
loop_
_atom_site_label
_atom_site_type_symbol
_atom_site_fract_x
_atom_site_fract_y
_atom_site_fract_z
C1 C 0.3173(4) -0.1374(3) 0.1315(4)
C2 C 0.3914(4) -0.2275(3) 0.1251(3)
O1 O 0.3268(3) -0.2991(2) 0.1469(2)
C3 C 0.2741(4) -0.3055(3) 0.0857(3)
C4 C 0.3373(4) -0.3399(3) 0.0043(3)
C5 C 0.4616(4) -0.3750(3) -0.0200(4)
C6 C 0.2812(4) -0.3436(3) -0.0559(3)
C7 C 0.1659(4) -0.3151(3) -0.0359(3)
C8 C 0.1060(4) -0.2847(3) 0.0478(3)
C9 C 0.1570(4) -0.2792(3) 0.1095(3)
C10 C 0.0863(5) -0.2466(4) 0.1995(4)
C11 C 0.1027(3) -0.3243(3) -0.0987(3)
C12 C -0.0018(4) -0.2512(3) -0.0840(3)
C13 C -0.1097(4) -0.2697(3) -0.0649(3)
C14 C -0.2036(4) -0.2024(3) -0.0534(3)
C15 C -0.3196(4) -0.2265(3) -0.0288(4)
C16 C -0.1854(4) -0.1154(3) -0.0623(3)
C17 C -0.0773(4) -0.0944(3) -0.0815(3)
C18 C 0.0134(4) -0.1627(3) -0.0923(3)
C19 C -0.0610(4) 0.0011(3) -0.0893(3)
O2 O -0.2754(3) -0.0466(2) -0.0489(2)
C20 C -0.3166(5) -0.0273(3) -0.1224(4)
C21 C 0.3880(5) -0.0639(3) 0.1131(5)
C22 C 0.0633(4) -0.4166(3) -0.0758(3)
C23 C 0.1585(4) -0.4957(3) -0.0943(3)
O3 O 0.1984(3) -0.5320(2) -0.0382(2)
N1 N 0.1896(3) -0.5211(2) -0.1773(3)
C24 C 0.2758(4) -0.5959(3) -0.2154(3)
C25 C 0.2271(4) -0.6800(3) -0.1745(4)
O4 O 0.3086(3) -0.7552(2) -0.2035(3)
C26 C 0.2597(4) -0.8343(3) -0.1777(4)
C27 C 0.3556(5) -0.9087(3) -0.1849(5)
C28 C 0.3193(4) -0.9978(3) -0.1615(4)
O5 O 0.2263(3) -1.0131(3) -0.1459(3)
O6 O 0.4059(3) -1.0594(2) -0.1600(4)
C29 C 0.3784(6) -1.1478(4) -0.1340(6)
C30 C 0.2961(5) -0.5862(3) -0.3138(3)
O7 O 0.1931(4) -0.5943(3) -0.3261(3)
C31 C 0.1749(7) -0.5537(4) -0.4026(5)
C32 C 0.0620(7) -0.5725(5) -0.4039(5)
C33 C -0.0415(7) -0.5232(5) -0.3394(5)
O8 O -0.1106(6) -0.4667(5) -0.3605(5)
O9 O -0.0505(4) -0.5444(3) -0.2553(3)
C34 C -0.1476(6) -0.4953(5) -0.1886(5)
C35 C 0.3870(4) -0.5965(3) -0.1984(41)
O10 O 0.4220(3) -0.5124(2) -0.2271(3)
C36 C 0.5399(5) -0.5158(5) -0.2521(6)
C37 C 0.5677(7) -0.4251(5) -0.2853(5)
C38 C 0.5199(10) -0.3928(10) -0.3541(9)
O11 O 0.4510(7) -0.3149(8) -0.3373(7)
O12 O 0.5199(11) -0.4252(7) -0.4148(6)
C39 C 0.4301(11) -0.3738(8) -0.4581(8)
C40 C 0.1792(4) -0.3137(3) -0.1968(3)
C41 C 0.1138(4) -0.3123(3) -0.2600(3)
O13 O 0.0818(3) -0.3800(2) -0.2706(3)
N2 N 0.0934(4) -0.2343(3) -0.3019(3)
C42 C 0.0181(5) -0.2118(3) -0.3549(3)
C43 C -0.1019(5) -0.2128(4) -0.2938(4)
O14 O -0.1786(3) -0.1813(3) -0.3407(3)
C44 C -0.2789(10) -0.2131(11) -0.3072(8)
C45 C -0.3578(10) -0.1673(11) -0.3608(7)
C46 C -0.3155(9) -0.2115(6) -0.4475(9)
O15 O -0.2870(11) -0.2884(7) -0.4422(9)
O16 O -0.3614(8) -0.1806(8) -0.5038(5)
C47 C -0.3375(8) -0.2088(5) -0.5881(6)
C48 C 0.0466(5) -0.2757(4) -0.4282(4)
O17 O 0.1607(4) -0.2799(5) -0.4797(4)
C49 C 0.1764(10) -0.2918(7) -0.5813(10)
C50 C 0.2881(15) -0.2748(11) -0.6288(6)
C51 C 0.3216(13) -0.2047(11) -0.6316(6)
O18 O 0.4032(8) -0.1809(9) -0.6226(8)
O19 O 0.2304(6) -0.1305(5) -0.6373(4)
C52 C 0.2638(11) -0.0464(9) -0.6392(8)
C53 C 0.0336(6) -0.1191(4) -0.3970(4)
O20 O 0.0103(5) -0.0611(3) -0.3294(3)
C54 C 0.0387(10) 0.0255(5) -0.3601(6)
C55 C 0.1332(8) 0.0420(5) -0.3313(6)
C56 C 0.2474(17) -0.0087(8) -0.3709(11)
O21 O 0.3407(12) 0.0029(9) -0.3446(9)
O22 O 0.2851(12) -0.0571(10) -0.4369(9)
C57 C 0.4067(26) -0.0927(21) -0.4675(21)
C21A C -0.3880(5) 0.0639(3) -0.1131(5)
C1A C -0.3173(4) 0.1374(3) -0.1315(4)
C2A C -0.3914(4) 0.2275(3) -0.1251(3)
O1A O -0.3268(3) 0.2991(2) -0.1469(2)
C3A C -0.2741(4) 0.3055(3) -0.0857(3)
C4A C -0.3373(4) 0.3399(3) -0.0043(3)
C5A C -0.4616(4) 0.3750(3) 0.0200(4)
C6A C -0.2812(4) 0.3436(3) 0.0559(3)
C7A C -0.1659(4) 0.3151(3) 0.0359(3)
C8A C -0.1060(4) 0.2847(3) -0.0478(3)
C9A C -0.1570(4) 0.2792(3) -0.1095(3)
C10A C -0.0863(5) 0.2466(4) -0.1995(4)
C11A C -0.1027(3) 0.3243(3) 0.0987(3)
C12A C 0.0018(4) 0.2512(3) 0.0840(3)
C13A C 0.1097(4) 0.2697(3) 0.0649(3)
C14A C 0.2036(4) 0.2024(3) 0.0534(3)
C15A C 0.3196(4) 0.2265(3) 0.0288(4)
C16A C 0.1854(4) 0.1154(3) 0.0623(3)
C17A C 0.0773(4) 0.0944(3) 0.0815(3)
C18A C -0.0134(4) 0.1627(3) 0.0923(3)
C19A C 0.0610(4) -0.0011(3) 0.0893(3)
O2A O 0.2754(3) 0.0466(2) 0.0489(2)
C20A C 0.3166(5) 0.0273(3) 0.1224(4)
C22A C -0.0633(4) 0.4166(3) 0.0758(3)
C23A C -0.1585(4) 0.4957(3) 0.0943(3)
O3A O -0.1984(3) 0.5320(2) 0.0382(2)
N1A N -0.1896(3) 0.5211(2) 0.1773(3)
C24A C -0.2758(4) 0.5959(3) 0.2154(3)
C25A C -0.2271(4) 0.6800(3) 0.1745(4)
O4A O -0.3086(3) 0.7552(2) 0.2035(3)
C26A C -0.2597(4) 0.8343(3) 0.1777(4)
C27A C -0.3556(5) 0.9087(3) 0.1849(5)
C28A C -0.3193(4) 0.9978(3) 0.1615(4)
O5A O -0.2263(3) 1.0131(3) 0.1459(3)
O6A O -0.4059(3) 1.0594(2) 0.1600(4)
C29A C -0.3784(6) 1.1478(4) 0.1340(6)
C30A C -0.2961(5) 0.5862(3) 0.3138(3)
O7A O -0.1931(4) 0.5943(3) 0.3261(3)
C31A C -0.1749(7) 0.5537(4) 0.4026(5)
C32A C -0.0620(7) 0.5725(5) 0.4039(5)
C33A C 0.0415(7) 0.5232(5) 0.3394(5)
O8A O 0.1106(6) 0.4667(5) 0.3605(5)
O9A O 0.0505(4) 0.5444(3) 0.2553(3)
C34A C 0.1476(6) 0.4953(5) 0.1886(5)
C35A C -0.3870(4) 0.5965(3) 0.1984(41)
O10A O -0.4220(3) 0.5124(2) 0.2271(3)
C36A C -0.5399(5) 0.5158(5) 0.2521(6)
C37A C -0.5677(7) 0.4251(5) 0.2853(5)
C38A C -0.5199(10) 0.3928(10) 0.3541(9)
O11A O -0.4510(7) 0.3149(8) 0.3373(7)
O12A O -0.5199(11) 0.4252(7) 0.4148(6)
C39A C -0.4301(11) 0.3738(8) 0.4581(8)
C40A C -0.1792(4) 0.3137(3) 0.1968(3)
C41A C -0.1138(4) 0.3123(3) 0.2600(3)
O13A O -0.0818(3) 0.3800(2) 0.2706(3)
N2A N -0.0934(4) 0.2343(3) 0.3019(3)
C42A C -0.0181(5) 0.2118(3) 0.3549(3)
C43A C 0.1019(5) 0.2128(4) 0.2938(4)
O14A O 0.1786(3) 0.1813(3) 0.3407(3)
C44A C 0.2789(10) 0.2131(11) 0.3072(8)
C45A C 0.3578(10) 0.1673(11) 0.3608(7)
C46A C 0.3155(9) 0.2115(6) 0.4475(9)
O15A O 0.2870(11) 0.2884(7) 0.4422(9)
O16A O 0.3614(8) 0.1806(8) 0.5038(5)
C47A C 0.3375(8) 0.2088(5) 0.5881(6)
C48A C -0.0466(5) 0.2757(4) 0.4282(4)
O17A O -0.1607(4) 0.2799(5) 0.4797(4)
C49A C -0.1764(10) 0.2918(7) 0.5813(10)
C50A C -0.2881(15) 0.2748(11) 0.6288(6)
C51A C -0.3216(13) 0.2047(11) 0.6316(6)
O18A O -0.4032(8) 0.1809(9) 0.6226(8)
O19A O -0.2304(6) 0.1305(5) 0.6373(4)
C52A C -0.2638(11) 0.0464(9) 0.6392(8)
C53A C -0.0336(6) 0.1191(4) 0.3970(4)
O20A O -0.0103(5) 0.0611(3) 0.3294(3)
C54A C -0.0387(10) -0.0255(5) 0.3601(6)
C55A C -0.1332(8) -0.0420(5) 0.3313(6)
C56A C -0.2474(17) 0.0087(8) 0.3709(11)
O21A O -0.3407(12) -0.0029(9) 0.3446(9)
O22A O -0.2851(12) 0.0571(10) 0.4369(9)
C57A C -0.4067(26) 0.0927(21) 0.4675(21)
loop_
_geom_bond_atom_site_label_1
_geom_bond_atom_site_label_2
_geom_bond_site_symmetry_1
_geom_bond_site_symmetry_2
C1 C2 1_555 1_555
C2 O1 1_555 1_555
O1 C3 1_555 1_555
C3 C4 1_555 1_555
C4 C5 1_555 1_555
C6 C4 1_555 1_555
C7 C6 1_555 1_555
C8 C7 1_555 1_555
C9 C3 1_555 1_555
C10 C9 1_555 1_555
C11 C7 1_555 1_555
C12 C11 1_555 1_555
C13 C12 1_555 1_555
C14 C13 1_555 1_555
C15 C14 1_555 1_555
C16 C14 1_555 1_555
C17 C16 1_555 1_555
C18 C12 1_555 1_555
C19 C17 1_555 1_555
O2 C16 1_555 1_555
C20 O2 1_555 1_555
C21 C1 1_555 1_555
C22 C11 1_555 1_555
C23 C22 1_555 1_555
O3 C23 1_555 1_555
N1 C23 1_555 1_555
C24 N1 1_555 1_555
C25 C24 1_555 1_555
O4 C25 1_555 1_555
C26 O4 1_555 1_555
C27 C26 1_555 1_555
C28 C27 1_555 1_555
O5 C28 1_555 1_555
O6 C28 1_555 1_555
C29 O6 1_555 1_555
C30 C24 1_555 1_555
O7 C30 1_555 1_555
C31 O7 1_555 1_555
C32 C31 1_555 1_555
C33 C32 1_555 1_555
O8 C33 1_555 1_555
O9 C33 1_555 1_555
C34 O9 1_555 1_555
C35 C24 1_555 1_555
O10 C35 1_555 1_555
C36 O10 1_555 1_555
C37 C36 1_555 1_555
C38 C37 1_555 1_555
O11 C38 1_555 1_555
O12 C38 1_555 1_555
C39 O12 1_555 1_555
C40 C11 1_555 1_555
C41 C40 1_555 1_555
O13 C41 1_555 1_555
N2 C41 1_555 1_555
C42 N2 1_555 1_555
C43 C42 1_555 1_555
O14 C43 1_555 1_555
C44 O14 1_555 1_555
C45 C44 1_555 1_555
C46 C45 1_555 1_555
O15 C46 1_555 1_555
O16 C46 1_555 1_555
C47 O16 1_555 1_555
C48 C42 1_555 1_555
O17 C48 1_555 1_555
C49 O17 1_555 1_555
C50 C49 1_555 1_555
C51 C50 1_555 1_555
O18 C51 1_555 1_555
O19 C51 1_555 1_555
C52 O19 1_555 1_555
C53 C42 1_555 1_555
O20 C53 1_555 1_555
C54 O20 1_555 1_555
C55 C54 1_555 1_555
C56 C55 1_555 1_555
O21 C56 1_555 1_555
O22 C56 1_555 1_555
C57 O22 1_555 1_555
C21A C20 1_555 1_555
C1A C21A 1_555 1_555
C2A C1A 1_555 1_555
O1A C2A 1_555 1_555
C3A O1A 1_555 1_555
C4A C3A 1_555 1_555
C5A C4A 1_555 1_555
C6A C4A 1_555 1_555
C7A C6A 1_555 1_555
C8A C7A 1_555 1_555
C9A C3A 1_555 1_555
C10A C9A 1_555 1_555
C11A C7A 1_555 1_555
C12A C11A 1_555 1_555
C13A C12A 1_555 1_555
C14A C13A 1_555 1_555
C15A C14A 1_555 1_555
C16A C14A 1_555 1_555
C17A C16A 1_555 1_555
C18A C12A 1_555 1_555
C19A C17A 1_555 1_555
O2A C16A 1_555 1_555
C20A C21 1_555 1_555
C22A C11A 1_555 1_555
C23A C22A 1_555 1_555
O3A C23A 1_555 1_555
N1A C23A 1_555 1_555
C24A N1A 1_555 1_555
C25A C24A 1_555 1_555
O4A C25A 1_555 1_555
C26A O4A 1_555 1_555
C27A C26A 1_555 1_555
C28A C27A 1_555 1_555
O5A C28A 1_555 1_555
O6A C28A 1_555 1_555
C29A O6A 1_555 1_555
C30A C24A 1_555 1_555
O7A C30A 1_555 1_555
C31A O7A 1_555 1_555
C32A C31A 1_555 1_555
C33A C32A 1_555 1_555
O8A C33A 1_555 1_555
O9A C33A 1_555 1_555
C34A O9A 1_555 1_555
C35A C24A 1_555 1_555
O10A C35A 1_555 1_555
C36A O10A 1_555 1_555
C37A C36A 1_555 1_555
C38A C37A 1_555 1_555
O11A C38A 1_555 1_555
O12A C38A 1_555 1_555
C39A O12A 1_555 1_555
C40A C11A 1_555 1_555
C41A C40A 1_555 1_555
O13A C41A 1_555 1_555
N2A C41A 1_555 1_555
C42A N2A 1_555 1_555
C43A C42A 1_555 1_555
O14A C43A 1_555 1_555
C44A O14A 1_555 1_555
C45A C44A 1_555 1_555
C46A C45A 1_555 1_555
O15A C46A 1_555 1_555
O16A C46A 1_555 1_555
C47A O16A 1_555 1_555
C48A C42A 1_555 1_555
O17A C48A 1_555 1_555
C49A O17A 1_555 1_555
C50A C49A 1_555 1_555
C51A C50A 1_555 1_555
O18A C51A 1_555 1_555
O19A C51A 1_555 1_555
C52A O19A 1_555 1_555
C53A C42A 1_555 1_555
O20A C53A 1_555 1_555
C54A O20A 1_555 1_555
C55A C54A 1_555 1_555
C56A C55A 1_555 1_555
O21A C56A 1_555 1_555
O22A C56A 1_555 1_555
C57A O22A 1_555 1_555
C8 C9 1_555 1_555
C17 C18 1_555 1_555
C8A C9A 1_555 1_555
C17A C18A 1_555 1_555
O2A C20A 1_555 1_555

#END
