
#######################################################################
#
#                 Cambridge Crystallographic Data Centre
#                                CCDC 
#
#######################################################################
#
# If this CIF has been generated from an entry in the Cambridge 
# Structural Database, then it will include bibliographic, chemical, 
# crystal, experimental, refinement or atomic coordinate data resulting 
# from the CCDC's data processing and validation procedures.
#
#######################################################################

data_ZOLTUR
_chemical_formula_moiety         'C10 H15 B10 F1 S2'
_chemical_name_systematic        
9,12-(1-(3-fluorophenyl)ethene-1,2-diyl)-dithio-1,2-dicarba-closo-dodecaborane
_symmetry_cell_setting           monoclinic
_symmetry_space_group_name_H-M   'P 21/n'
_symmetry_Int_Tables_number      14
_space_group_name_Hall           '-P 2yn'
loop_
_symmetry_equiv_pos_site_id
_symmetry_equiv_pos_as_xyz
1 x,y,z
2 1/2-x,1/2+y,1/2-z
3 -x,-y,-z
4 1/2+x,1/2-y,1/2+z
_cell_length_a                   7.3634(6)
_cell_length_b                   12.3308(9)
_cell_length_c                   18.1600(14)
_cell_angle_alpha                90
_cell_angle_beta                 96.3890(10)
_cell_angle_gamma                90
_cell_volume                     1638.63
_cell_formula_units_Z            4
loop_
_atom_site_label
_atom_site_type_symbol
_atom_site_fract_x
_atom_site_fract_y
_atom_site_fract_z
S1 S 0.73900(18) 0.98109(10) 0.11073(7)
S2 S 0.2594(2) 0.97375(12) 0.13742(11)
B1 B 0.6479(7) 1.0749(4) 0.1774(3)
C1 C 0.4758(7) 1.2343(4) 0.2906(3)
H1 H 0.4181 1.2899 0.3293
B2 B 0.4155(7) 1.0705(4) 0.1913(3)
B3 B 0.4994(7) 1.1850(5) 0.1452(3)
H2 H 0.4608 1.2021 0.0861
B4 B 0.3431(8) 1.2019(5) 0.2116(3)
H3 H 0.2024 1.2303 0.1961
C2 C 0.5614(8) 0.8968(4) 0.0774(3)
H4 H 0.5967 0.8444 0.0451
B5 B 0.5831(9) 1.0272(5) 0.2643(3)
H5 H 0.5983 0.9420 0.2818
C3 C 0.2776(9) 0.8001(5) 0.0467(3)
B6 B 0.7230(8) 1.2104(4) 0.1890(3)
H6 H 0.8309 1.2446 0.1586
B7 B 0.5350(8) 1.2903(5) 0.2102(3)
H7 H 0.5208 1.3765 0.1951
C4 C 0.6934(7) 1.2388(4) 0.2781(3)
H8 H 0.7880 1.2969 0.3081
B8 B 0.7750(8) 1.1135(5) 0.2623(3)
H9 H 0.9154 1.0856 0.2789
C5 C 0.3928(9) 0.8902(5) 0.0870(3)
B9 B 0.3946(8) 1.1062(5) 0.2849(3)
H10 H 0.2874 1.0735 0.3163
C6 C 0.3443(9) 0.7006(6) 0.0387(3)
H11 H 0.4626 0.6845 0.0592
C7 C 0.1011(8) 0.8189(6) 0.0159(3)
H12 H 0.0511 0.8877 0.0195
C8 C 0.2384(12) 0.6199(6) -0.0003(4)
C9 C -0.0044(8) 0.7374(6) -0.0204(3)
H13 H -0.1251 0.7529 -0.0380
B10 B 0.6174(9) 1.1336(6) 0.3285(3)
H14 H 0.6551 1.1206 0.3882
C10 C 0.0606(9) 0.6359(6) -0.0314(3)
H15 H -0.0084 0.5824 -0.0576
F1 F 0.2961(9) 0.5243(5) -0.0067(4)
loop_
_geom_bond_atom_site_label_1
_geom_bond_atom_site_label_2
_geom_bond_site_symmetry_1
_geom_bond_site_symmetry_2
S1 B1 1_555 1_555
S2 B2 1_555 1_555
B1 B2 1_555 1_555
C1 H1 1_555 1_555
B2 B3 1_555 1_555
B3 B1 1_555 1_555
H2 B3 1_555 1_555
B4 C1 1_555 1_555
H3 B4 1_555 1_555
C2 S1 1_555 1_555
H4 C2 1_555 1_555
B5 B1 1_555 1_555
H5 B5 1_555 1_555
C3 C5 1_555 1_555
B6 B1 1_555 1_555
H6 B6 1_555 1_555
B7 C1 1_555 1_555
H7 B7 1_555 1_555
C4 C1 1_555 1_555
H8 C4 1_555 1_555
B8 B1 1_555 1_555
H9 B8 1_555 1_555
C5 S2 1_555 1_555
B9 C1 1_555 1_555
H10 B9 1_555 1_555
C6 C3 1_555 1_555
H11 C6 1_555 1_555
C7 C3 1_555 1_555
H12 C7 1_555 1_555
C8 C6 1_555 1_555
C9 C7 1_555 1_555
H13 C9 1_555 1_555
B10 C1 1_555 1_555
H14 B10 1_555 1_555
C10 C8 1_555 1_555
H15 C10 1_555 1_555
F1 C8 1_555 1_555
B2 B4 1_555 1_555
B2 B5 1_555 1_555
B2 B9 1_555 1_555
B3 B4 1_555 1_555
B3 B6 1_555 1_555
B3 B7 1_555 1_555
B4 B7 1_555 1_555
B4 B9 1_555 1_555
C2 C5 1_555 1_555
B5 B8 1_555 1_555
B5 B9 1_555 1_555
B5 B10 1_555 1_555
B6 B7 1_555 1_555
B6 C4 1_555 1_555
B6 B8 1_555 1_555
B7 C4 1_555 1_555
C4 B8 1_555 1_555
C4 B10 1_555 1_555
B8 B10 1_555 1_555
B9 B10 1_555 1_555
C9 C10 1_555 1_555

#END
