
#######################################################################
#
#                 Cambridge Crystallographic Data Centre
#                                CCDC 
#
#######################################################################
#
# If this CIF has been generated from an entry in the Cambridge 
# Structural Database, then it will include bibliographic, chemical, 
# crystal, experimental, refinement or atomic coordinate data resulting 
# from the CCDC's data processing and validation procedures.
#
#######################################################################

data_ZONLOF
_chemical_formula_moiety         'C23 H21 N1 O3 S1'
_chemical_name_systematic        
4-((4-Methylphenyl)sulfonyl)-3,6-diphenyl-3,4-dihydro-2H-1,4-oxazine
_symmetry_cell_setting           orthorhombic
_symmetry_space_group_name_H-M   'P b c a'
_symmetry_Int_Tables_number      61
_space_group_name_Hall           '-P 2ac 2ab'
loop_
_symmetry_equiv_pos_site_id
_symmetry_equiv_pos_as_xyz
1 x,y,z
2 1/2-x,-y,1/2+z
3 1/2+x,1/2-y,-z
4 -x,1/2+y,1/2-z
5 -x,-y,-z
6 1/2+x,y,1/2-z
7 1/2-x,1/2+y,z
8 x,1/2-y,1/2+z
_cell_length_a                   6.3870(2)
_cell_length_b                   16.5721(8)
_cell_length_c                   37.2128(14)
_cell_angle_alpha                90
_cell_angle_beta                 90
_cell_angle_gamma                90
_cell_volume                     3938.83
_exptl_crystal_colour            colorless
_exptl_crystal_description       needle
_cell_formula_units_Z            8
loop_
_atom_site_label
_atom_site_type_symbol
_atom_site_fract_x
_atom_site_fract_y
_atom_site_fract_z
S1 S 0.75902(8) 0.24289(3) 0.180277(13)
O1 O 0.8287(2) 0.30433(9) 0.20426(4)
O2 O 0.5412(2) 0.22926(10) 0.17484(4)
O3 O 1.1249(2) 0.23215(9) 0.08209(4)
N1 N 0.8543(2) 0.26762(9) 0.14048(4)
C1 C 1.1754(4) -0.07270(15) 0.21902(7)
H1 H 1.1708 -0.0799 0.2446
H2 H 1.3185 -0.0717 0.2112
H3 H 1.1033 -0.1165 0.2075
C2 C 1.0710(3) 0.00578(13) 0.20924(5)
C3 C 0.8792(3) 0.00712(13) 0.19192(6)
H4 H 0.8146 -0.0414 0.1860
C4 C 0.7813(3) 0.07914(13) 0.18325(5)
H5 H 0.6530 0.0791 0.1714
C5 C 0.8770(3) 0.15121(12) 0.19244(5)
C6 C 1.0689(3) 0.15154(13) 0.20979(5)
H6 H 1.1327 0.2000 0.2160
C7 C 1.1638(3) 0.07889(14) 0.21768(6)
H7 H 1.2937 0.0790 0.2290
C8 C 0.7929(3) 0.22235(12) 0.10987(5)
H8 H 0.6596 0.1998 0.1095
C9 C 0.9173(3) 0.21068(12) 0.08176(5)
C10 C 1.2039(3) 0.24524(13) 0.11726(6)
H9 H 1.3441 0.2674 0.1157
H10 H 1.2124 0.1941 0.1298
C11 C 1.0660(3) 0.30258(12) 0.13838(5)
H11 H 1.1218 0.3063 0.1629
C12 C 1.0641(3) 0.38683(12) 0.12236(5)
C13 C 0.8925(3) 0.42042(13) 0.10570(6)
H12 H 0.7680 0.3915 0.1044
C14 C 0.9038(4) 0.49704(14) 0.09087(7)
H13 H 0.7870 0.5189 0.0796
C15 C 1.0857(4) 0.54078(14) 0.09277(7)
H14 H 1.0928 0.5921 0.0827
C16 C 1.2559(4) 0.50842(15) 0.10946(7)
H15 H 1.3791 0.5381 0.1111
C17 C 1.2470(3) 0.43177(14) 0.12402(6)
H16 H 1.3649 0.4101 0.1351
C18 C 0.8497(3) 0.17669(12) 0.04701(5)
C19 C 0.6489(4) 0.18923(14) 0.03407(6)
H17 H 0.5538 0.2193 0.0474
C20 C 0.5893(5) 0.15711(19) 0.00129(7)
H18 H 0.4536 0.1648 -0.0071
C21 C 0.7299(5) 0.11396(19) -0.01883(8)
H19 H 0.6894 0.0927 -0.0409
C22 C 0.9290(5) 0.10197(17) -0.00668(7)
H20 H 1.0241 0.0730 -0.0205
C23 C 0.9889(4) 0.13290(15) 0.02614(6)
H21 H 1.1245 0.1242 0.0344
loop_
_geom_bond_atom_site_label_1
_geom_bond_atom_site_label_2
_geom_bond_site_symmetry_1
_geom_bond_site_symmetry_2
S1 O1 1_555 1_555
O2 S1 1_555 1_555
O3 C9 1_555 1_555
N1 S1 1_555 1_555
C1 H1 1_555 1_555
H2 C1 1_555 1_555
H3 C1 1_555 1_555
C2 C1 1_555 1_555
C3 C2 1_555 1_555
H4 C3 1_555 1_555
C4 C3 1_555 1_555
H5 C4 1_555 1_555
C5 S1 1_555 1_555
C6 C5 1_555 1_555
H6 C6 1_555 1_555
C7 C2 1_555 1_555
H7 C7 1_555 1_555
C8 N1 1_555 1_555
H8 C8 1_555 1_555
C9 C8 1_555 1_555
C10 O3 1_555 1_555
H9 C10 1_555 1_555
H10 C10 1_555 1_555
C11 N1 1_555 1_555
H11 C11 1_555 1_555
C12 C11 1_555 1_555
C13 C12 1_555 1_555
H12 C13 1_555 1_555
C14 C13 1_555 1_555
H13 C14 1_555 1_555
C15 C14 1_555 1_555
H14 C15 1_555 1_555
C16 C15 1_555 1_555
H15 C16 1_555 1_555
C17 C12 1_555 1_555
H16 C17 1_555 1_555
C18 C9 1_555 1_555
C19 C18 1_555 1_555
H17 C19 1_555 1_555
C20 C19 1_555 1_555
H18 C20 1_555 1_555
C21 C20 1_555 1_555
H19 C21 1_555 1_555
C22 C21 1_555 1_555
H20 C22 1_555 1_555
C23 C18 1_555 1_555
H21 C23 1_555 1_555
C4 C5 1_555 1_555
C6 C7 1_555 1_555
C10 C11 1_555 1_555
C16 C17 1_555 1_555
C22 C23 1_555 1_555

#END
