
#######################################################################
#
#                 Cambridge Crystallographic Data Centre
#                                CCDC 
#
#######################################################################
#
# If this CIF has been generated from an entry in the Cambridge 
# Structural Database, then it will include bibliographic, chemical, 
# crystal, experimental, refinement or atomic coordinate data resulting 
# from the CCDC's data processing and validation procedures.
#
#######################################################################

data_ZONZOT
_chemical_formula_moiety         'C20 H19 N5'
_chemical_name_systematic        
2-t-butyl-3-(4-(dimethylamino)phenyl)buta-1,3-diene-1,1,4,4-tetracarbonitrile
_symmetry_cell_setting           monoclinic
_symmetry_space_group_name_H-M   'P 21/c'
_symmetry_Int_Tables_number      14
_space_group_name_Hall           '-P 2ybc'
loop_
_symmetry_equiv_pos_site_id
_symmetry_equiv_pos_as_xyz
1 x,y,z
2 -x,1/2+y,1/2-z
3 -x,-y,-z
4 x,1/2-y,1/2+z
_cell_length_a                   11.4305(10)
_cell_length_b                   14.1080(14)
_cell_length_c                   23.509(2)
_cell_angle_alpha                90
_cell_angle_beta                 103.740(3)
_cell_angle_gamma                90
_cell_volume                     3682.61
_exptl_crystal_colour            orange
_exptl_crystal_description       plate
_cell_formula_units_Z            8
loop_
_atom_site_label
_atom_site_type_symbol
_atom_site_fract_x
_atom_site_fract_y
_atom_site_fract_z
N1 N 0.2455(2) 0.45853(18) 0.35573(11)
N2 N 0.50069(18) 0.28393(16) 0.03347(9)
N3 N 0.6084(2) 0.01847(16) 0.26816(9)
N4 N 0.35690(18) 0.08869(16) 0.37699(9)
N5 N 0.58821(19) 0.35922(16) 0.34449(9)
C1 C 0.2923(2) 0.40255(19) 0.33392(11)
C2 C 0.3581(2) 0.33303(17) 0.30917(10)
C3 C 0.3092(2) 0.26569(17) 0.27040(9)
C4 C 0.39440(19) 0.20030(16) 0.25017(9)
C5 C 0.42130(19) 0.21941(17) 0.19412(10)
C6 C 0.44288(19) 0.14764(18) 0.15645(10)
H1 H 0.4393 0.0833 0.1678
C7 C 0.46884(19) 0.16810(18) 0.10396(10)
H2 H 0.4822 0.1178 0.0794
C8 C 0.47607(19) 0.26274(18) 0.08555(10)
C9 C 0.5099(2) 0.3816(2) 0.01621(11)
H3 H 0.4310 0.4122 0.0102
H4 H 0.5370 0.3837 -0.0203
H5 H 0.5680 0.4151 0.0470
C10 C 0.5143(2) 0.2105(2) -0.00711(12)
H6 H 0.5784 0.1669 0.0120
H7 H 0.5353 0.2391 -0.0414
H8 H 0.4385 0.1755 -0.0196
C11 C 0.42498(19) 0.31350(17) 0.17485(10)
H9 H 0.4068 0.3636 0.1984
C12 C 0.45401(19) 0.33475(18) 0.12314(10)
H10 H 0.4594 0.3992 0.1124
C13 C 0.4379(2) 0.12564(17) 0.28574(10)
C14 C 0.5310(2) 0.06497(18) 0.27545(10)
C15 C 0.3952(2) 0.10592(18) 0.33712(11)
C16 C 0.1739(2) 0.25326(19) 0.24402(10)
C17 C 0.1037(2) 0.2483(2) 0.29159(12)
H11 H 0.1108 0.3089 0.3125
H12 H 0.1366 0.1975 0.3192
H13 H 0.0188 0.2354 0.2736
C18 C 0.1491(2) 0.1605(2) 0.20881(12)
H14 H 0.1803 0.1068 0.2344
H15 H 0.1890 0.1626 0.1763
H16 H 0.0621 0.1529 0.1934
C19 C 0.1317(2) 0.3378(2) 0.20354(12)
H17 H 0.0451 0.3322 0.1863
H18 H 0.1752 0.3386 0.1723
H19 H 0.1478 0.3967 0.2261
C20 C 0.4869(2) 0.34495(17) 0.32876(10)
N6 N 0.0068(2) 0.45868(19) -0.12024(12)
N7 N -0.22807(18) 0.30414(15) 0.21166(9)
N8 N -0.3118(2) 0.00187(19) -0.01659(11)
N9 N -0.0779(2) 0.0869(2) -0.12645(11)
N10 N -0.33067(19) 0.35227(17) -0.10308(9)
C21 C -0.0374(2) 0.4038(2) -0.09646(12)
C22 C -0.09982(19) 0.33581(18) -0.06869(10)
C23 C -0.0477(2) 0.27340(18) -0.02684(10)
C24 C -0.1287(2) 0.20695(18) -0.00492(10)
C25 C -0.15942(19) 0.23138(17) 0.04974(10)
C26 C -0.16425(19) 0.32629(17) 0.06679(10)
H20 H -0.1489 0.3748 0.0415
C27 C -0.19041(19) 0.35128(18) 0.11889(10)
H21 H -0.1958 0.4164 0.1282
C28 C -0.20943(19) 0.28136(17) 0.15872(10)
C29 C -0.2320(3) 0.4021(2) 0.22937(12)
H22 H -0.1584 0.4346 0.2256
H23 H -0.2381 0.4049 0.2702
H24 H -0.3022 0.4334 0.2043
C30 C -0.2518(2) 0.2320(2) 0.25160(11)
H25 H -0.3209 0.1936 0.2318
H26 H -0.2697 0.2626 0.2860
H27 H -0.1808 0.1913 0.2640
C31 C -0.17981(19) 0.16234(18) 0.08923(10)
H28 H -0.1767 0.0973 0.0792
C32 C -0.2039(2) 0.18589(18) 0.14165(10)
H29 H -0.2173 0.1370 0.1671
C33 C -0.1629(2) 0.12675(19) -0.03693(11)
C34 C -0.2455(3) 0.0586(2) -0.02483(11)
C35 C -0.1172(2) 0.1050(2) -0.08703(12)
C36 C 0.0888(2) 0.2693(2) 0.00028(11)
C37 C 0.1182(2) 0.1882(3) 0.04430(13)
H30 H 0.0931 0.1280 0.0243
H31 H 0.0752 0.1976 0.0753
H32 H 0.2051 0.1868 0.0615
C38 C 0.1589(2) 0.2523(2) -0.04687(12)
H33 H 0.2450 0.2469 -0.0284
H34 H 0.1458 0.3056 -0.0744
H35 H 0.1307 0.1936 -0.0680
C39 C 0.1279(2) 0.3639(3) 0.03171(13)
H36 H 0.0838 0.3738 0.0622
H37 H 0.1102 0.4160 0.0033
H38 H 0.2146 0.3623 0.0495
C40 C -0.2290(2) 0.34221(18) -0.08824(10)
loop_
_geom_bond_atom_site_label_1
_geom_bond_atom_site_label_2
_geom_bond_site_symmetry_1
_geom_bond_site_symmetry_2
N1 C1 1_555 1_555
N2 C8 1_555 1_555
N3 C14 1_555 1_555
N4 C15 1_555 1_555
N5 C20 1_555 1_555
C1 C2 1_555 1_555
C2 C3 1_555 1_555
C3 C4 1_555 1_555
C4 C5 1_555 1_555
C5 C6 1_555 1_555
C6 H1 1_555 1_555
C7 C6 1_555 1_555
H2 C7 1_555 1_555
C8 C7 1_555 1_555
C9 N2 1_555 1_555
H3 C9 1_555 1_555
H4 C9 1_555 1_555
H5 C9 1_555 1_555
C10 N2 1_555 1_555
H6 C10 1_555 1_555
H7 C10 1_555 1_555
H8 C10 1_555 1_555
C11 C5 1_555 1_555
H9 C11 1_555 1_555
C12 C8 1_555 1_555
H10 C12 1_555 1_555
C13 C4 1_555 1_555
C14 C13 1_555 1_555
C15 C13 1_555 1_555
C16 C3 1_555 1_555
C17 C16 1_555 1_555
H11 C17 1_555 1_555
H12 C17 1_555 1_555
H13 C17 1_555 1_555
C18 C16 1_555 1_555
H14 C18 1_555 1_555
H15 C18 1_555 1_555
H16 C18 1_555 1_555
C19 C16 1_555 1_555
H17 C19 1_555 1_555
H18 C19 1_555 1_555
H19 C19 1_555 1_555
C20 C2 1_555 1_555
N6 C21 1_555 1_555
N7 C28 1_555 1_555
N8 C34 1_555 1_555
N9 C35 1_555 1_555
N10 C40 1_555 1_555
C21 C22 1_555 1_555
C22 C23 1_555 1_555
C23 C24 1_555 1_555
C24 C25 1_555 1_555
C25 C26 1_555 1_555
C26 H20 1_555 1_555
C27 C26 1_555 1_555
H21 C27 1_555 1_555
C28 C27 1_555 1_555
C29 N7 1_555 1_555
H22 C29 1_555 1_555
H23 C29 1_555 1_555
H24 C29 1_555 1_555
C30 N7 1_555 1_555
H25 C30 1_555 1_555
H26 C30 1_555 1_555
H27 C30 1_555 1_555
C31 C25 1_555 1_555
H28 C31 1_555 1_555
C32 C28 1_555 1_555
H29 C32 1_555 1_555
C33 C24 1_555 1_555
C34 C33 1_555 1_555
C35 C33 1_555 1_555
C36 C23 1_555 1_555
C37 C36 1_555 1_555
H30 C37 1_555 1_555
H31 C37 1_555 1_555
H32 C37 1_555 1_555
C38 C36 1_555 1_555
H33 C38 1_555 1_555
H34 C38 1_555 1_555
H35 C38 1_555 1_555
C39 C36 1_555 1_555
H36 C39 1_555 1_555
H37 C39 1_555 1_555
H38 C39 1_555 1_555
C40 C22 1_555 1_555
C11 C12 1_555 1_555
C31 C32 1_555 1_555

#END
