
#######################################################################
#
#                 Cambridge Crystallographic Data Centre
#                                CCDC 
#
#######################################################################
#
# If this CIF has been generated from an entry in the Cambridge 
# Structural Database, then it will include bibliographic, chemical, 
# crystal, experimental, refinement or atomic coordinate data resulting 
# from the CCDC's data processing and validation procedures.
#
#######################################################################

data_ZOPJUJ
_chemical_formula_moiety         'C74 H50,0.5(C7 H8)'
_chemical_name_systematic        'Decaphenylanthracene toluene solvate'
_symmetry_cell_setting           orthorhombic
_symmetry_space_group_name_H-M   'P c c n'
_symmetry_Int_Tables_number      56
_space_group_name_Hall           '-P 2ab 2ac'
loop_
_symmetry_equiv_pos_site_id
_symmetry_equiv_pos_as_xyz
1 x,y,z
2 1/2-x,1/2-y,z
3 1/2+x,-y,1/2-z
4 -x,1/2+y,1/2-z
5 -x,-y,-z
6 1/2+x,1/2+y,-z
7 1/2-x,y,1/2+z
8 x,1/2-y,1/2+z
_cell_length_a                   19.811(21)
_cell_length_b                   23.243(12)
_cell_length_c                   14.472(8)
_cell_angle_alpha                90
_cell_angle_beta                 90
_cell_angle_gamma                90
_cell_volume                     6663.88
_exptl_crystal_colour            yellow
_cell_formula_units_Z            4
loop_
_atom_site_label
_atom_site_type_symbol
_atom_site_fract_x
_atom_site_fract_y
_atom_site_fract_z
C1 C 0.1980(2) 0.7918(2) 0.1881(3)
C2 C 0.1825(2) 0.7327(2) 0.1985(2)
C3 C 0.1175(2) 0.7109(2) 0.2289(3)
C4 C 0.1008(2) 0.6546(2) 0.2100(3)
C5 C 0.1457(2) 0.6182(2) 0.1582(3)
C6 C 0.2115(2) 0.6357(2) 0.1430(3)
C7 C 0.2662(2) 0.8088(2) 0.1769(3)
C8 C 0.1432(2) 0.8360(2) 0.1862(3)
C9 C 0.0963(2) 0.8358(2) 0.1157(3)
C10 C 0.0455(2) 0.8776(3) 0.1123(4)
C11 C 0.0424(3) 0.9182(3) 0.1793(6)
C12 C 0.0882(4) 0.9182(2) 0.2507(4)
C13 C 0.1387(2) 0.8775(2) 0.2540(3)
C14 C 0.0739(2) 0.7459(2) 0.2923(4)
C15 C 0.0089(3) 0.7616(2) 0.2719(4)
C16 C -0.0304(3) 0.7898(3) 0.3356(7)
C17 C -0.0045(5) 0.8025(2) 0.4200(7)
C18 C 0.0605(4) 0.7879(2) 0.4435(4)
C19 C 0.1006(2) 0.7599(2) 0.3790(5)
C20 C 0.0337(2) 0.6313(2) 0.2404(4)
C21 C -0.0172(3) 0.6239(2) 0.1773(4)
C22 C -0.0793(3) 0.6015(2) 0.2038(5)
C23 C -0.0905(3) 0.5865(2) 0.2913(6)
C24 C -0.0412(3) 0.5926(2) 0.3561(5)
C25 C 0.0218(2) 0.6157(2) 0.3298(5)
C26 C 0.1222(2) 0.5623(2) 0.1226(4)
C27 C 0.1086(2) 0.5538(2) 0.0312(5)
C28 C 0.0876(3) 0.5010(3) -0.0026(5)
C29 C 0.0810(3) 0.4560(2) 0.0567(6)
C30 C 0.0932(3) 0.4630(2) 0.1461(5)
C31 C 0.1137(2) 0.5159(2) 0.1796(3)
C32 C 0.2549(2) 0.6023(2) 0.0780(4)
C33 C 0.2671(2) 0.6255(2) -0.0083(5)
C34 C 0.3021(3) 0.5949(3) -0.0735(4)
C35 C 0.3258(3) 0.5408(3) -0.0537(6)
C36 C 0.3141(3) 0.5173(2) 0.0325(6)
C37 C 0.2786(2) 0.5478(2) 0.0969(3)
H1 H 0.0985(2) 0.8076(2) 0.0701(3)
H2 H 0.0142(2) 0.8774(3) 0.0645(4)
H3 H 0.0091(3) 0.9463(3) 0.1770(6)
H4 H 0.0851(4) 0.9458(2) 0.2970(4)
H5 H 0.1699(2) 0.8781(2) 0.3021(3)
H6 H -0.0089(3) 0.7530(2) 0.2141(4)
H7 H -0.0745(3) 0.8001(3) 0.3210(7)
H8 H -0.0313(5) 0.8216(2) 0.4629(7)
H9 H 0.0774(4) 0.7967(2) 0.5018(4)
H10 H 0.1450(2) 0.7504(2) 0.3933(5)
H11 H -0.0100(3) 0.6339(2) 0.1159(4)
H12 H -0.1133(3) 0.5969(2) 0.1600(5)
H13 H -0.1323(3) 0.5717(2) 0.3083(6)
H14 H -0.0489(3) 0.5816(2) 0.4170(5)
H15 H 0.0555(2) 0.6204(2) 0.3738(5)
H16 H 0.1135(2) 0.5844(2) -0.0097(5)
H17 H 0.0782(3) 0.4964(3) -0.0652(5)
H18 H 0.0678(3) 0.4202(2) 0.0345(6)
H19 H 0.0880(3) 0.4322(2) 0.1865(5)
H20 H 0.1219(2) 0.5201(2) 0.2426(3)
H21 H 0.2514(2) 0.6622(2) -0.0222(5)
H22 H 0.3098(3) 0.6109(3) -0.1314(4)
H23 H 0.3495(3) 0.5201(3) -0.0981(6)
H24 H 0.3303(3) 0.4808(2) 0.0467(6)
H25 H 0.2703(2) 0.5316(2) 0.1545(3)
C7A C 0.2338(2) 0.6912(2) 0.1769(3)
C1A C 0.3020(2) 0.7082(2) 0.1881(3)
C2A C 0.3175(2) 0.7673(2) 0.1985(2)
C3A C 0.3825(2) 0.7891(2) 0.2289(3)
C4A C 0.3992(2) 0.8454(2) 0.2100(3)
C5A C 0.3543(2) 0.8818(2) 0.1582(3)
C6A C 0.2885(2) 0.8643(2) 0.1430(3)
C32A C 0.2451(2) 0.8977(2) 0.0780(4)
C33A C 0.2329(2) 0.8745(2) -0.0083(5)
C34A C 0.1979(3) 0.9051(3) -0.0735(4)
C35A C 0.1742(3) 0.9592(3) -0.0537(6)
C36A C 0.1859(3) 0.9827(2) 0.0325(6)
C37A C 0.2214(2) 0.9522(2) 0.0969(3)
H25A H 0.2297(2) 0.9684(2) 0.1545(3)
H24A H 0.1697(3) 1.0192(2) 0.0467(6)
H23A H 0.1505(3) 0.9799(3) -0.0981(6)
H22A H 0.1902(3) 0.8891(3) -0.1314(4)
H21A H 0.2486(2) 0.8378(2) -0.0222(5)
C26A C 0.3778(2) 0.9377(2) 0.1226(4)
C27A C 0.3914(2) 0.9462(2) 0.0312(5)
C28A C 0.4124(3) 0.9990(3) -0.0026(5)
C29A C 0.4190(3) 1.0440(2) 0.0567(6)
C30A C 0.4068(3) 1.0370(2) 0.1461(5)
C31A C 0.3863(2) 0.9841(2) 0.1796(3)
H20A H 0.3781(2) 0.9799(2) 0.2426(3)
H19A H 0.4120(3) 1.0678(2) 0.1865(5)
H18A H 0.4322(3) 1.0798(2) 0.0345(6)
H17A H 0.4218(3) 1.0036(3) -0.0652(5)
H16A H 0.3865(2) 0.9156(2) -0.0097(5)
C20A C 0.4663(2) 0.8687(2) 0.2404(4)
C21A C 0.5172(3) 0.8761(2) 0.1773(4)
C22A C 0.5793(3) 0.8985(2) 0.2038(5)
C23A C 0.5905(3) 0.9135(2) 0.2913(6)
C24A C 0.5412(3) 0.9074(2) 0.3561(5)
C25A C 0.4782(2) 0.8843(2) 0.3298(5)
H15A H 0.4445(2) 0.8796(2) 0.3738(5)
H14A H 0.5489(3) 0.9184(2) 0.4170(5)
H13A H 0.6323(3) 0.9283(2) 0.3083(6)
H12A H 0.6133(3) 0.9031(2) 0.1600(5)
H11A H 0.5100(3) 0.8661(2) 0.1159(4)
C14A C 0.4261(2) 0.7541(2) 0.2923(4)
C15A C 0.4911(3) 0.7384(2) 0.2719(4)
C16A C 0.5304(3) 0.7102(3) 0.3356(7)
C17A C 0.5045(5) 0.6975(2) 0.4200(7)
C18A C 0.4395(4) 0.7121(2) 0.4435(4)
C19A C 0.3994(2) 0.7401(2) 0.3790(5)
H10A H 0.3550(2) 0.7496(2) 0.3933(5)
H9A H 0.4226(4) 0.7033(2) 0.5018(4)
H8A H 0.5313(5) 0.6784(2) 0.4629(7)
H7A H 0.5745(3) 0.6999(3) 0.3210(7)
H6A H 0.5089(3) 0.7470(2) 0.2141(4)
C8A C 0.3568(2) 0.6640(2) 0.1862(3)
C9A C 0.4037(2) 0.6642(2) 0.1157(3)
C10A C 0.4545(2) 0.6224(3) 0.1123(4)
C11A C 0.4576(3) 0.5818(3) 0.1793(6)
C12A C 0.4118(4) 0.5818(2) 0.2507(4)
C13A C 0.3613(2) 0.6225(2) 0.2540(3)
H5A H 0.3301(2) 0.6219(2) 0.3021(3)
H4A H 0.4149(4) 0.5542(2) 0.2970(4)
H3A H 0.4909(3) 0.5537(3) 0.1770(6)
H2A H 0.4858(2) 0.6226(3) 0.0645(4)
H1A H 0.4015(2) 0.6924(2) 0.0701(3)
loop_
_geom_bond_atom_site_label_1
_geom_bond_atom_site_label_2
_geom_bond_site_symmetry_1
_geom_bond_site_symmetry_2
C1 C2 1_555 1_555
C2 C3 1_555 1_555
C3 C4 1_555 1_555
C4 C5 1_555 1_555
C5 C6 1_555 1_555
C6 C32 1_555 1_555
C7 C1 1_555 1_555
C8 C1 1_555 1_555
C9 C8 1_555 1_555
C10 C9 1_555 1_555
C11 C10 1_555 1_555
C12 C11 1_555 1_555
C13 C8 1_555 1_555
C14 C3 1_555 1_555
C15 C14 1_555 1_555
C16 C15 1_555 1_555
C17 C16 1_555 1_555
C18 C17 1_555 1_555
C19 C14 1_555 1_555
C20 C4 1_555 1_555
C21 C20 1_555 1_555
C22 C21 1_555 1_555
C23 C22 1_555 1_555
C24 C23 1_555 1_555
C25 C20 1_555 1_555
C26 C5 1_555 1_555
C27 C26 1_555 1_555
C28 C27 1_555 1_555
C29 C28 1_555 1_555
C30 C29 1_555 1_555
C31 C26 1_555 1_555
C32 C33 1_555 1_555
C33 C34 1_555 1_555
C34 C35 1_555 1_555
C35 C36 1_555 1_555
C36 C37 1_555 1_555
C37 C32 1_555 1_555
H1 C9 1_555 1_555
H2 C10 1_555 1_555
H3 C11 1_555 1_555
H4 C12 1_555 1_555
H5 C13 1_555 1_555
H6 C15 1_555 1_555
H7 C16 1_555 1_555
H8 C17 1_555 1_555
H9 C18 1_555 1_555
H10 C19 1_555 1_555
H11 C21 1_555 1_555
H12 C22 1_555 1_555
H13 C23 1_555 1_555
H14 C24 1_555 1_555
H15 C25 1_555 1_555
H16 C27 1_555 1_555
H17 C28 1_555 1_555
H18 C29 1_555 1_555
H19 C30 1_555 1_555
H20 C31 1_555 1_555
H21 C33 1_555 1_555
H22 C34 1_555 1_555
H23 C35 1_555 1_555
H24 C36 1_555 1_555
H25 C37 1_555 1_555
C7A C2 1_555 1_555
C1A C7A 1_555 1_555
C2A C7 1_555 1_555
C3A C2A 1_555 1_555
C4A C3A 1_555 1_555
C5A C4A 1_555 1_555
C6A C7 1_555 1_555
C32A C6A 1_555 1_555
C33A C32A 1_555 1_555
C34A C33A 1_555 1_555
C35A C34A 1_555 1_555
C36A C35A 1_555 1_555
C37A C32A 1_555 1_555
H25A C37A 1_555 1_555
H24A C36A 1_555 1_555
H23A C35A 1_555 1_555
H22A C34A 1_555 1_555
H21A C33A 1_555 1_555
C26A C5A 1_555 1_555
C27A C26A 1_555 1_555
C28A C27A 1_555 1_555
C29A C28A 1_555 1_555
C30A C29A 1_555 1_555
C31A C26A 1_555 1_555
H20A C31A 1_555 1_555
H19A C30A 1_555 1_555
H18A C29A 1_555 1_555
H17A C28A 1_555 1_555
H16A C27A 1_555 1_555
C20A C4A 1_555 1_555
C21A C20A 1_555 1_555
C22A C21A 1_555 1_555
C23A C22A 1_555 1_555
C24A C23A 1_555 1_555
C25A C20A 1_555 1_555
H15A C25A 1_555 1_555
H14A C24A 1_555 1_555
H13A C23A 1_555 1_555
H12A C22A 1_555 1_555
H11A C21A 1_555 1_555
C14A C3A 1_555 1_555
C15A C14A 1_555 1_555
C16A C15A 1_555 1_555
C17A C16A 1_555 1_555
C18A C17A 1_555 1_555
C19A C14A 1_555 1_555
H10A C19A 1_555 1_555
H9A C18A 1_555 1_555
H8A C17A 1_555 1_555
H7A C16A 1_555 1_555
H6A C15A 1_555 1_555
C8A C1A 1_555 1_555
C9A C8A 1_555 1_555
C10A C9A 1_555 1_555
C11A C10A 1_555 1_555
C12A C11A 1_555 1_555
C13A C8A 1_555 1_555
H5A C13A 1_555 1_555
H4A C12A 1_555 1_555
H3A C11A 1_555 1_555
H2A C10A 1_555 1_555
H1A C9A 1_555 1_555
C6 C7A 1_555 1_555
C12 C13 1_555 1_555
C18 C19 1_555 1_555
C24 C25 1_555 1_555
C30 C31 1_555 1_555
C1A C2A 1_555 1_555
C5A C6A 1_555 1_555
C36A C37A 1_555 1_555
C30A C31A 1_555 1_555
C24A C25A 1_555 1_555
C18A C19A 1_555 1_555
C12A C13A 1_555 1_555

#END
