
#######################################################################
#
#                 Cambridge Crystallographic Data Centre
#                                CCDC 
#
#######################################################################
#
# If this CIF has been generated from an entry in the Cambridge 
# Structural Database, then it will include bibliographic, chemical, 
# crystal, experimental, refinement or atomic coordinate data resulting 
# from the CCDC's data processing and validation procedures.
#
#######################################################################

data_ZOPJOD
_chemical_formula_moiety         'C58 H40'
_chemical_name_systematic        Octaphenylnaphthalene
_symmetry_cell_setting           orthorhombic
_symmetry_space_group_name_H-M   'P 21 21 21'
_symmetry_Int_Tables_number      19
_space_group_name_Hall           'P 2ac 2ab'
loop_
_symmetry_equiv_pos_site_id
_symmetry_equiv_pos_as_xyz
1 x,y,z
2 1/2-x,-y,1/2+z
3 1/2+x,1/2-y,-z
4 -x,1/2+y,1/2-z
_cell_length_a                   13.469(1)
_cell_length_b                   13.864(1)
_cell_length_c                   22.043(2)
_cell_angle_alpha                90
_cell_angle_beta                 90
_cell_angle_gamma                90
_cell_volume                     4116.18
_exptl_crystal_colour            colorless
_cell_formula_units_Z            4
loop_
_atom_site_label
_atom_site_type_symbol
_atom_site_fract_x
_atom_site_fract_y
_atom_site_fract_z
C1 C 0.0419(2) 0.4798(2) 0.0643(1)
C2 C 0.1047(2) 0.5531(2) 0.0823(1)
C3 C 0.1869(2) 0.5317(2) 0.1208(1)
C4 C 0.2034(2) 0.4394(2) 0.1412(1)
C5 C 0.1338(2) 0.2748(2) 0.1627(1)
C6 C 0.0629(2) 0.2050(2) 0.1504(1)
C7 C -0.0216(2) 0.2280(2) 0.1147(1)
C8 C -0.0325(2) 0.3194(2) 0.0896(1)
C9 C 0.0460(2) 0.3879(2) 0.0947(1)
C10 C 0.1299(2) 0.3665(2) 0.1334(1)
C11 C -0.0163(2) 0.4904(2) 0.0069(1)
C12 C -0.0928(2) 0.5567(2) -0.0019(1)
C13 C -0.1388(2) 0.5637(3) -0.0581(2)
C14 C -0.1107(3) 0.5055(3) -0.1050(2)
C15 C -0.0362(2) 0.4402(3) -0.0972(1)
C16 C 0.0109(2) 0.4322(2) -0.0416(1)
C17 C 0.0934(2) 0.6539(2) 0.0591(1)
C18 C 0.0291(3) 0.7155(2) 0.0881(2)
C19 C 0.0198(3) 0.8103(3) 0.0704(2)
C20 C 0.0754(3) 0.8443(3) 0.0228(2)
C21 C 0.1394(3) 0.7843(3) -0.0067(2)
C22 C 0.1475(2) 0.6893(2) 0.0113(2)
C23 C 0.2600(2) 0.6103(2) 0.1354(1)
C24 C 0.2445(2) 0.6698(2) 0.1846(2)
C25 C 0.3136(3) 0.7391(3) 0.2004(2)
C26 C 0.3985(3) 0.7500(2) 0.1671(2)
C27 C 0.4144(3) 0.6924(3) 0.1180(2)
C28 C 0.3456(2) 0.6226(2) 0.1021(1)
C29 C 0.3052(2) 0.4175(2) 0.1648(1)
C30 C 0.3396(2) 0.4481(2) 0.2209(2)
C31 C 0.4383(3) 0.4336(3) 0.2366(2)
C32 C 0.5023(3) 0.3894(4) 0.1981(2)
C33 C 0.4696(3) 0.3575(3) 0.1428(2)
C34 C 0.3705(2) 0.3717(2) 0.1256(2)
C35 C 0.2029(2) 0.2530(2) 0.2137(1)
C36 C 0.1805(2) 0.2878(2) 0.2709(1)
C37 C 0.2376(3) 0.2630(3) 0.3203(2)
C38 C 0.3192(3) 0.2039(3) 0.3138(2)
C39 C 0.3430(3) 0.1710(3) 0.2574(2)
C40 C 0.2858(2) 0.1941(2) 0.2075(2)
C41 C 0.0690(2) 0.1081(2) 0.1797(1)
C42 C 0.0223(2) 0.0912(2) 0.2343(2)
C43 C 0.0281(3) 0.0021(3) 0.2621(2)
C44 C 0.0802(3) -0.0708(3) 0.2358(2)
C45 C 0.1277(3) -0.0553(2) 0.1819(2)
C46 C 0.1213(2) 0.0342(2) 0.1536(1)
C47 C -0.1047(2) 0.1560(2) 0.1112(1)
C48 C -0.1892(2) 0.1673(2) 0.1458(1)
C49 C -0.2654(2) 0.1010(3) 0.1437(2)
C50 C -0.2588(3) 0.0225(3) 0.1068(2)
C51 C -0.1757(3) 0.0105(3) 0.0714(2)
C52 C -0.0987(2) 0.0766(2) 0.0743(2)
C53 C -0.1325(2) 0.3468(2) 0.0656(1)
C54 C -0.1907(2) 0.4113(2) 0.0978(1)
C55 C -0.2868(2) 0.4315(3) 0.0800(2)
C56 C -0.3258(3) 0.3878(3) 0.0298(2)
C57 C -0.2697(3) 0.3246(3) -0.0030(2)
C58 C -0.1735(2) 0.3032(2) 0.0147(1)
H1 H -0.1130(2) 0.5962(2) 0.0299(1)
H2 H -0.1893(2) 0.6085(3) -0.0639(2)
H3 H -0.1425(3) 0.5104(3) -0.1423(2)
H4 H -0.0169(2) 0.4010(3) -0.1294(1)
H5 H 0.0614(2) 0.3871(2) -0.0367(1)
H6 H -0.0089(3) 0.6927(2) 0.1203(2)
H7 H -0.0240(3) 0.8511(3) 0.0906(2)
H8 H 0.0694(3) 0.9083(3) 0.0107(2)
H9 H 0.1774(3) 0.8073(3) -0.0388(2)
H10 H 0.1905(2) 0.6485(2) -0.0094(2)
H11 H 0.1869(2) 0.6633(2) 0.2075(2)
H12 H 0.3023(3) 0.7785(3) 0.2339(2)
H13 H 0.4451(3) 0.7965(2) 0.1779(2)
H14 H 0.4718(3) 0.7000(3) 0.0951(2)
H15 H 0.3573(2) 0.5836(2) 0.0685(1)
H16 H 0.2967(2) 0.4782(2) 0.2480(2)
H17 H 0.4609(3) 0.4547(3) 0.2742(2)
H18 H 0.5683(3) 0.3807(4) 0.2093(2)
H19 H 0.5133(3) 0.3263(3) 0.1166(2)
H20 H 0.3485(2) 0.3505(2) 0.0879(2)
H21 H 0.1262(2) 0.3284(2) 0.2760(1)
H22 H 0.2209(3) 0.2864(3) 0.3585(2)
H23 H 0.3574(3) 0.1868(3) 0.3473(2)
H24 H 0.3987(3) 0.1322(3) 0.2525(2)
H25 H 0.3029(2) 0.1702(2) 0.1694(2)
H26 H -0.0137(2) 0.1405(2) 0.2526(2)
H27 H -0.0038(3) -0.0080(3) 0.2990(2)
H28 H 0.0836(3) -0.1309(3) 0.2545(2)
H29 H 0.1643(3) -0.1046(2) 0.1641(2)
H30 H 0.1528(2) 0.0439(2) 0.1165(1)
H31 H -0.1949(2) 0.2207(2) 0.1711(1)
H32 H -0.3215(2) 0.1099(3) 0.1677(2)
H33 H -0.3100(3) -0.0224(3) 0.1055(2)
H34 H -0.1711(3) -0.0423(3) 0.0455(2)
H35 H -0.0422(2) 0.0670(2) 0.0508(2)
H36 H -0.1646(2) 0.4415(2) 0.1319(1)
H37 H -0.3250(2) 0.4749(3) 0.1022(2)
H38 H -0.3906(3) 0.4011(3) 0.0180(2)
H39 H -0.2962(3) 0.2957(3) -0.0374(2)
H40 H -0.1362(2) 0.2593(2) -0.0076(1)
loop_
_geom_bond_atom_site_label_1
_geom_bond_atom_site_label_2
_geom_bond_site_symmetry_1
_geom_bond_site_symmetry_2
C1 C2 1_555 1_555
C2 C3 1_555 1_555
C3 C4 1_555 1_555
C4 C10 1_555 1_555
C5 C6 1_555 1_555
C6 C7 1_555 1_555
C7 C8 1_555 1_555
C8 C9 1_555 1_555
C9 C1 1_555 1_555
C10 C5 1_555 1_555
C11 C1 1_555 1_555
C12 C11 1_555 1_555
C13 C12 1_555 1_555
C14 C13 1_555 1_555
C15 C14 1_555 1_555
C16 C11 1_555 1_555
C17 C2 1_555 1_555
C18 C17 1_555 1_555
C19 C18 1_555 1_555
C20 C19 1_555 1_555
C21 C20 1_555 1_555
C22 C17 1_555 1_555
C23 C3 1_555 1_555
C24 C23 1_555 1_555
C25 C24 1_555 1_555
C26 C25 1_555 1_555
C27 C26 1_555 1_555
C28 C23 1_555 1_555
C29 C4 1_555 1_555
C30 C29 1_555 1_555
C31 C30 1_555 1_555
C32 C31 1_555 1_555
C33 C32 1_555 1_555
C34 C29 1_555 1_555
C35 C5 1_555 1_555
C36 C35 1_555 1_555
C37 C36 1_555 1_555
C38 C37 1_555 1_555
C39 C38 1_555 1_555
C40 C35 1_555 1_555
C41 C6 1_555 1_555
C42 C41 1_555 1_555
C43 C42 1_555 1_555
C44 C43 1_555 1_555
C45 C44 1_555 1_555
C46 C41 1_555 1_555
C47 C7 1_555 1_555
C48 C47 1_555 1_555
C49 C48 1_555 1_555
C50 C49 1_555 1_555
C51 C50 1_555 1_555
C52 C47 1_555 1_555
C53 C8 1_555 1_555
C54 C53 1_555 1_555
C55 C54 1_555 1_555
C56 C55 1_555 1_555
C57 C56 1_555 1_555
C58 C53 1_555 1_555
H1 C12 1_555 1_555
H2 C13 1_555 1_555
H3 C14 1_555 1_555
H4 C15 1_555 1_555
H5 C16 1_555 1_555
H6 C18 1_555 1_555
H7 C19 1_555 1_555
H8 C20 1_555 1_555
H9 C21 1_555 1_555
H10 C22 1_555 1_555
H11 C24 1_555 1_555
H12 C25 1_555 1_555
H13 C26 1_555 1_555
H14 C27 1_555 1_555
H15 C28 1_555 1_555
H16 C30 1_555 1_555
H17 C31 1_555 1_555
H18 C32 1_555 1_555
H19 C33 1_555 1_555
H20 C34 1_555 1_555
H21 C36 1_555 1_555
H22 C37 1_555 1_555
H23 C38 1_555 1_555
H24 C39 1_555 1_555
H25 C40 1_555 1_555
H26 C42 1_555 1_555
H27 C43 1_555 1_555
H28 C44 1_555 1_555
H29 C45 1_555 1_555
H30 C46 1_555 1_555
H31 C48 1_555 1_555
H32 C49 1_555 1_555
H33 C50 1_555 1_555
H34 C51 1_555 1_555
H35 C52 1_555 1_555
H36 C54 1_555 1_555
H37 C55 1_555 1_555
H38 C56 1_555 1_555
H39 C57 1_555 1_555
H40 C58 1_555 1_555
C9 C10 1_555 1_555
C15 C16 1_555 1_555
C21 C22 1_555 1_555
C27 C28 1_555 1_555
C33 C34 1_555 1_555
C39 C40 1_555 1_555
C45 C46 1_555 1_555
C51 C52 1_555 1_555
C57 C58 1_555 1_555

#END
