
#######################################################################
#
#                 Cambridge Crystallographic Data Centre
#                                CCDC 
#
#######################################################################
#
# If this CIF has been generated from an entry in the Cambridge 
# Structural Database, then it will include bibliographic, chemical, 
# crystal, experimental, refinement or atomic coordinate data resulting 
# from the CCDC's data processing and validation procedures.
#
#######################################################################

data_ZOQDEQ
_chemical_formula_moiety         'C11 H10 N2 O2'
_chemical_name_systematic        2-Cyano-3-(4-methoxyphenyl)-2-propenamide
_symmetry_cell_setting           monoclinic
_symmetry_space_group_name_H-M   'P 21/c'
_symmetry_Int_Tables_number      14
_space_group_name_Hall           '-P 2ybc'
loop_
_symmetry_equiv_pos_site_id
_symmetry_equiv_pos_as_xyz
1 x,y,z
2 -x,1/2+y,1/2-z
3 -x,-y,-z
4 x,1/2-y,1/2+z
_cell_length_a                   3.920(2)
_cell_length_b                   10.792(6)
_cell_length_c                   23.124(12)
_cell_angle_alpha                90
_cell_angle_beta                 93.463(8)
_cell_angle_gamma                90
_cell_volume                     976.466
_exptl_crystal_colour            colorless
_exptl_crystal_description       rod
_cell_formula_units_Z            4
loop_
_atom_site_label
_atom_site_type_symbol
_atom_site_fract_x
_atom_site_fract_y
_atom_site_fract_z
N1 N 0.2620(17) 0.9857(4) 0.0718(2)
N2 N 0.7011(17) 0.8411(5) 0.1877(2)
O1 O 0.0355(12) 0.8388(4) 0.01268(17)
O2 O 0.7348(12) 0.1775(3) 0.15425(17)
C1 C 0.2088(14) 0.8671(5) 0.0557(2)
C2 C 0.3694(14) 0.7693(5) 0.0942(2)
C3 C 0.5535(15) 0.8068(5) 0.1465(2)
C4 C 0.3345(14) 0.6498(5) 0.0769(2)
H1 H 0.2084 0.6411 0.0418
C5 C 0.4510(13) 0.5330(5) 0.1012(2)
C6 C 0.6282(15) 0.5159(5) 0.1548(2)
H2 H 0.6823 0.5844 0.1780
C7 C 0.7250(14) 0.3991(5) 0.1742(2)
H3 H 0.8393 0.3895 0.2104
C8 C 0.6516(14) 0.2964(5) 0.1398(2)
C9 C 0.4766(16) 0.3115(5) 0.0861(2)
H4 H 0.4256 0.2430 0.0628
C10 C 0.3804(15) 0.4269(5) 0.0680(2)
H5 H 0.2628 0.4356 0.0321
C11 C 0.9134(18) 0.1557(5) 0.2091(3)
H6 H 0.9553 0.0686 0.2139
H7 H 0.7774 0.1846 0.2396
H8 H 1.1271 0.1994 0.2108
H9 H 0.169(16) 1.044(6) 0.044(3)
H10 H 0.41(2) 1.018(9) 0.101(4)
loop_
_geom_bond_atom_site_label_1
_geom_bond_atom_site_label_2
_geom_bond_site_symmetry_1
_geom_bond_site_symmetry_2
N1 C1 1_555 1_555
N2 C3 1_555 1_555
O1 C1 1_555 1_555
O2 C8 1_555 1_555
C1 C2 1_555 1_555
C2 C3 1_555 1_555
C4 C2 1_555 1_555
H1 C4 1_555 1_555
C5 C4 1_555 1_555
C6 C5 1_555 1_555
H2 C6 1_555 1_555
C7 C6 1_555 1_555
H3 C7 1_555 1_555
C8 C7 1_555 1_555
C9 C8 1_555 1_555
H4 C9 1_555 1_555
C10 C5 1_555 1_555
H5 C10 1_555 1_555
C11 O2 1_555 1_555
H6 C11 1_555 1_555
H7 C11 1_555 1_555
H8 C11 1_555 1_555
H9 N1 1_555 1_555
H10 N1 1_555 1_555
C9 C10 1_555 1_555

#END
