
#######################################################################
#
#                 Cambridge Crystallographic Data Centre
#                                CCDC 
#
#######################################################################
#
# If this CIF has been generated from an entry in the Cambridge 
# Structural Database, then it will include bibliographic, chemical, 
# crystal, experimental, refinement or atomic coordinate data resulting 
# from the CCDC's data processing and validation procedures.
#
#######################################################################

data_ZOQQED
_chemical_formula_moiety         'C52 H52 N4 O4,3(C4 H8 O1),2(H2 O1)'
_chemical_name_systematic        
'1,30,35,35,44,44-hexamethyl-7,10,21,24-tetraoxa-49,50,51,52-tetraazadecacyclo[28.9.9.1^2,6^.1^25,29^.1^31,34^.1^36,39^.1^40,43^.1^45,48^.0^11,20^.0^13,18^]tetrapentaconta-2(54),3,5,11,13,15,17,19,25(53),26,28,31,33,36,38,40,42,45,47-nonadecaene tetrahydrofuran solvate dihydrate'
_symmetry_cell_setting           triclinic
_symmetry_space_group_name_H-M   'P -1'
_symmetry_Int_Tables_number      2
_space_group_name_Hall           '-P 1'
loop_
_symmetry_equiv_pos_site_id
_symmetry_equiv_pos_as_xyz
1 x,y,z
2 -x,-y,-z
_cell_length_a                   10.9532(12)
_cell_length_b                   11.7499(15)
_cell_length_c                   23.617(3)
_cell_angle_alpha                87.743(2)
_cell_angle_beta                 77.758(2)
_cell_angle_gamma                86.589(2)
_cell_volume                     2963.99
_exptl_crystal_colour            colorless
_exptl_crystal_description       laths
_cell_formula_units_Z            2
loop_
_atom_site_label
_atom_site_type_symbol
_atom_site_fract_x
_atom_site_fract_y
_atom_site_fract_z
C1 C 1.0595(3) 0.0686(3) 0.79352(15)
C2 C 1.1002(3) 0.0421(3) 0.84403(15)
H1 H 1.1208 -0.0324 0.8574
C3 C 1.1060(3) 0.1445(3) 0.87253(15)
H2 H 1.1312 0.1510 0.9083
C4 C 1.0685(3) 0.2331(3) 0.83927(14)
C5 C 1.0736(3) 0.3609(3) 0.84309(15)
C6 C 0.9579(3) 0.4236(3) 0.82598(14)
C7 C 0.9486(3) 0.5081(3) 0.78487(14)
H3 H 1.0166 0.5406 0.7587
C8 C 0.8149(3) 0.5395(3) 0.78854(13)
H4 H 0.7821 0.5958 0.7651
C9 C 0.7453(3) 0.4734(2) 0.83175(13)
C10 C 0.6028(3) 0.4725(2) 0.85864(12)
C11 C 0.5544(3) 0.3519(2) 0.86157(12)
C12 C 0.4557(3) 0.3017(3) 0.89967(13)
H5 H 0.4080 0.3340 0.9342
C13 C 0.4390(3) 0.1942(3) 0.87788(14)
H6 H 0.3786 0.1415 0.8952
C14 C 0.5270(3) 0.1800(2) 0.82662(13)
C15 C 0.5485(3) 0.0856(2) 0.78307(13)
C16 C 0.6712(3) 0.0119(2) 0.78306(13)
C17 C 0.6905(3) -0.1017(3) 0.79514(14)
H7 H 0.6271 -0.1539 0.8089
C18 C 0.8252(3) -0.1292(3) 0.78324(14)
H8 H 0.8639 -0.2026 0.7877
C19 C 0.8868(3) -0.0317(2) 0.76450(13)
C20 C 1.0295(3) -0.0069(3) 0.74806(15)
C21 C 1.0781(4) 0.3892(4) 0.90567(16)
H9 H 1.0007 0.3672 0.9319
H10 H 1.0868 0.4713 0.9081
H11 H 1.1497 0.3472 0.9169
C22 C 1.1994(3) 0.3993(3) 0.80286(18)
H12 H 1.2703 0.3555 0.8137
H13 H 1.2079 0.4808 0.8075
H14 H 1.1981 0.3855 0.7623
C23 C 0.5823(3) 0.5147(3) 0.92123(13)
H15 H 0.4932 0.5141 0.9395
H16 H 0.6104 0.5925 0.9204
H17 H 0.6304 0.4643 0.9435
C24 C 0.4330(3) 0.0090(3) 0.79795(15)
H18 H 0.4273 -0.0256 0.8368
H19 H 0.4431 -0.0513 0.7695
H20 H 0.3565 0.0558 0.7968
C25 C 0.5527(3) 0.1380(3) 0.72149(14)
H21 H 0.4747 0.1831 0.7210
H22 H 0.5625 0.0767 0.6937
H23 H 0.6236 0.1873 0.7109
C26 C 1.1106(3) -0.1205(3) 0.74733(17)
H24 H 1.1994 -0.1041 0.7377
H25 H 1.0922 -0.1704 0.7182
H26 H 1.0911 -0.1586 0.7856
C27 C 0.5235(3) 0.5487(2) 0.82230(13)
C28 C 0.5232(3) 0.5178(3) 0.76534(13)
H27 H 0.5758 0.4554 0.7486
C29 C 0.4456(3) 0.5787(2) 0.73303(13)
C30 C 0.3703(3) 0.6736(2) 0.75579(14)
H28 H 0.3194 0.7154 0.7334
C31 C 0.3714(3) 0.7049(3) 0.81103(14)
H29 H 0.3206 0.7690 0.8270
C32 C 0.4467(3) 0.6434(2) 0.84444(14)
H30 H 0.4455 0.6666 0.8827
C33 C 0.5039(3) 0.4484(3) 0.65566(13)
H31 H 0.4867 0.3835 0.6837
H32 H 0.5949 0.4598 0.6470
C34 C 0.4598(3) 0.4264(3) 0.60097(14)
H33 H 0.3696 0.4115 0.6098
H34 H 0.4739 0.4925 0.5735
C35 C 0.5081(3) 0.2861(3) 0.52745(13)
C36 C 0.4139(3) 0.3290(3) 0.50026(14)
H35 H 0.3609 0.3918 0.5163
C37 C 0.3955(3) 0.2800(3) 0.44839(14)
C38 C 0.2987(4) 0.3231(3) 0.41894(15)
H36 H 0.2441 0.3854 0.4344
C39 C 0.2849(4) 0.2747(4) 0.36879(17)
H37 H 0.2210 0.3033 0.3496
C40 C 0.3662(4) 0.1822(4) 0.34603(17)
H38 H 0.3565 0.1491 0.3113
C41 C 0.4605(4) 0.1383(3) 0.37339(15)
H39 H 0.5138 0.0759 0.3571
C42 C 0.4777(3) 0.1860(3) 0.42550(14)
C43 C 0.5740(4) 0.1412(3) 0.45504(14)
H40 H 0.6268 0.0777 0.4399
C44 C 0.5895(3) 0.1895(3) 0.50463(14)
C45 C 0.7563(3) 0.0519(3) 0.51867(15)
H41 H 0.8095 0.0643 0.4797
H42 H 0.7025 -0.0122 0.5170
C46 C 0.8374(3) 0.0242(3) 0.56258(15)
H43 H 0.7866 0.0336 0.6023
H44 H 0.8703 -0.0561 0.5589
C47 C 1.0192(3) 0.0973(3) 0.59326(14)
C48 C 0.9884(3) 0.0425(3) 0.64717(14)
H45 H 0.9152 0.0002 0.6570
C49 C 1.0662(3) 0.0499(3) 0.68739(14)
C50 C 1.1799(3) 0.1079(3) 0.67134(16)
H46 H 1.2339 0.1105 0.6978
C51 C 1.2109(3) 0.1603(3) 0.61698(17)
H47 H 1.2869 0.1983 0.6061
C52 C 1.1312(3) 0.1577(3) 0.57811(16)
H48 H 1.1516 0.1962 0.5415
N1 N 1.0391(2) 0.1857(2) 0.79138(11)
H49 H 1.0114 0.2245 0.7636
N2 N 0.8338(2) 0.4029(2) 0.85392(11)
H50 H 0.8138 0.3517 0.8821
N3 N 0.5975(2) 0.2769(2) 0.81741(10)
H51 H 0.6600 0.2884 0.7879
N4 N 0.7923(2) 0.0543(2) 0.76481(11)
H52 H 0.8064 0.1260 0.7549
O1 O 0.4347(2) 0.54967(18) 0.67835(9)
O2 O 0.5342(2) 0.32697(19) 0.57731(9)
O3 O 0.6795(2) 0.15443(19) 0.53651(9)
O4 O 0.9418(2) 0.10033(19) 0.55282(10)
C53 C 0.6894(4) 0.2470(3) 1.00494(16)
H53 H 0.6118 0.2923 1.0019
H54 H 0.7317 0.2856 1.0314
C54 C 0.6599(5) 0.1292(4) 1.0270(2)
H55 H 0.5781 0.1287 1.0546
H56 H 0.7255 0.0947 1.0464
C55 C 0.6568(4) 0.0679(4) 0.9730(2)
H57 H 0.5732 0.0776 0.9632
H58 H 0.6786 -0.0146 0.9772
C56 C 0.7547(3) 0.1247(3) 0.92722(16)
H59 H 0.8346 0.0783 0.9209
H60 H 0.7266 0.1330 0.8900
O5 O 0.7711(2) 0.2357(2) 0.94834(10)
O6 O 0.8381(2) 0.2995(2) 0.72118(12)
H61 H 0.832(4) 0.306(4) 0.684(2)
H62 H 0.860(4) 0.356(4) 0.7306(18)
O7 O 0.8012(4) 0.3163(3) 0.60787(13)
H63 H 0.859(6) 0.285(5) 0.584(3)
H64 H 0.738(8) 0.299(7) 0.597(3)
O8 O 0.8335(4) -0.1701(3) 0.99174(17)
C57 C 0.9747(9) -0.1704(6) 0.9681(4)
H65 H 0.9977 -0.0985 0.9462
H66 H 1.0205 -0.1793 1.0001
C58 C 1.0042(7) -0.2694(6) 0.9293(3)
H67 H 1.0606 -0.3266 0.9441
H68 H 1.0453 -0.2444 0.8897
C59 C 0.8765(8) -0.3205(7) 0.9290(5)
H69 H 0.8712 -0.3387 0.8891
H70 H 0.8666 -0.3912 0.9534
C60 C 0.7785(7) -0.2330(6) 0.9527(3)
H71 H 0.7573 -0.1822 0.9213
H72 H 0.7018 -0.2688 0.9738
O10 O 1.1381(5) 0.4913(4) 0.5632(2)
C65 C 1.0642(6) 0.5008(5) 0.6204(2)
H81 H 1.0889 0.4403 0.6468
H82 H 0.9740 0.4973 0.6207
C66 C 1.0942(7) 0.6147(6) 0.6362(3)
H83 H 1.0243 0.6493 0.6651
H84 H 1.1708 0.6101 0.6523
C67 C 1.1132(9) 0.6804(7) 0.5816(4)
H85 H 1.0349 0.7228 0.5770
H86 H 1.1791 0.7354 0.5798
C68 C 1.1502(10) 0.5982(8) 0.5385(4)
H87 H 1.0975 0.6088 0.5093
H88 H 1.2383 0.6077 0.5187
O9? O 1.0701(8) -0.2055(7) 0.9090(4)
C61? C 0.9592(17) -0.1566(13) 0.9539(8)
H73? H 0.9740 -0.1688 0.9937
H74? H 0.9439 -0.0740 0.9466
C62? C 0.8531(11) -0.2216(12) 0.9456(7)
H75? H 0.8125 -0.1844 0.9155
H76? H 0.7899 -0.2285 0.9822
C63? C 0.9143(13) -0.3405(12) 0.9261(11)
H77? H 0.9077 -0.3945 0.9597
H78? H 0.8724 -0.3720 0.8973
C64? C 1.0471(11) -0.3220(9) 0.8999(6)
H79? H 1.1022 -0.3744 0.9184
H80? H 1.0646 -0.3369 0.8579
loop_
_geom_bond_atom_site_label_1
_geom_bond_atom_site_label_2
_geom_bond_site_symmetry_1
_geom_bond_site_symmetry_2
C1 C2 1_555 1_555
C2 H1 1_555 1_555
C3 C2 1_555 1_555
H2 C3 1_555 1_555
C4 C3 1_555 1_555
C5 C4 1_555 1_555
C6 C5 1_555 1_555
C7 C6 1_555 1_555
H3 C7 1_555 1_555
C8 C7 1_555 1_555
H4 C8 1_555 1_555
C9 C8 1_555 1_555
C10 C9 1_555 1_555
C11 C10 1_555 1_555
C12 C11 1_555 1_555
H5 C12 1_555 1_555
C13 C12 1_555 1_555
H6 C13 1_555 1_555
C14 C13 1_555 1_555
C15 C14 1_555 1_555
C16 C15 1_555 1_555
C17 C16 1_555 1_555
H7 C17 1_555 1_555
C18 C17 1_555 1_555
H8 C18 1_555 1_555
C19 C18 1_555 1_555
C20 C1 1_555 1_555
C21 C5 1_555 1_555
H9 C21 1_555 1_555
H10 C21 1_555 1_555
H11 C21 1_555 1_555
C22 C5 1_555 1_555
H12 C22 1_555 1_555
H13 C22 1_555 1_555
H14 C22 1_555 1_555
C23 C10 1_555 1_555
H15 C23 1_555 1_555
H16 C23 1_555 1_555
H17 C23 1_555 1_555
C24 C15 1_555 1_555
H18 C24 1_555 1_555
H19 C24 1_555 1_555
H20 C24 1_555 1_555
C25 C15 1_555 1_555
H21 C25 1_555 1_555
H22 C25 1_555 1_555
H23 C25 1_555 1_555
C26 C20 1_555 1_555
H24 C26 1_555 1_555
H25 C26 1_555 1_555
H26 C26 1_555 1_555
C27 C10 1_555 1_555
C28 C27 1_555 1_555
H27 C28 1_555 1_555
C29 C28 1_555 1_555
C30 C29 1_555 1_555
H28 C30 1_555 1_555
C31 C30 1_555 1_555
H29 C31 1_555 1_555
C32 C27 1_555 1_555
H30 C32 1_555 1_555
C33 H31 1_555 1_555
H32 C33 1_555 1_555
C34 C33 1_555 1_555
H33 C34 1_555 1_555
H34 C34 1_555 1_555
C35 C36 1_555 1_555
C36 H35 1_555 1_555
C37 C36 1_555 1_555
C38 C37 1_555 1_555
H36 C38 1_555 1_555
C39 C38 1_555 1_555
H37 C39 1_555 1_555
C40 C39 1_555 1_555
H38 C40 1_555 1_555
C41 C40 1_555 1_555
H39 C41 1_555 1_555
C42 C37 1_555 1_555
C43 C42 1_555 1_555
H40 C43 1_555 1_555
C44 C35 1_555 1_555
C45 H41 1_555 1_555
H42 C45 1_555 1_555
C46 C45 1_555 1_555
H43 C46 1_555 1_555
H44 C46 1_555 1_555
C47 C48 1_555 1_555
C48 H45 1_555 1_555
C49 C20 1_555 1_555
C50 C49 1_555 1_555
H46 C50 1_555 1_555
C51 C50 1_555 1_555
H47 C51 1_555 1_555
C52 C47 1_555 1_555
H48 C52 1_555 1_555
N1 C1 1_555 1_555
H49 N1 1_555 1_555
N2 C6 1_555 1_555
H50 N2 1_555 1_555
N3 C11 1_555 1_555
H51 N3 1_555 1_555
N4 C16 1_555 1_555
H52 N4 1_555 1_555
O1 C29 1_555 1_555
O2 C34 1_555 1_555
O3 C44 1_555 1_555
O4 C46 1_555 1_555
C53 H53 1_555 1_555
H54 C53 1_555 1_555
C54 C53 1_555 1_555
H55 C54 1_555 1_555
H56 C54 1_555 1_555
C55 C54 1_555 1_555
H57 C55 1_555 1_555
H58 C55 1_555 1_555
C56 C55 1_555 1_555
H59 C56 1_555 1_555
H60 C56 1_555 1_555
O5 C53 1_555 1_555
O6 H61 1_555 1_555
H62 O6 1_555 1_555
O7 H63 1_555 1_555
H64 O7 1_555 1_555
O8 C57 1_555 1_555
C57 H65 1_555 1_555
H66 C57 1_555 1_555
C58 C57 1_555 1_555
H67 C58 1_555 1_555
H68 C58 1_555 1_555
C59 C58 1_555 1_555
H69 C59 1_555 1_555
H70 C59 1_555 1_555
C60 O8 1_555 1_555
H71 C60 1_555 1_555
H72 C60 1_555 1_555
O10 C65 1_555 1_555
C65 H81 1_555 1_555
H82 C65 1_555 1_555
C66 C65 1_555 1_555
H83 C66 1_555 1_555
H84 C66 1_555 1_555
C67 C66 1_555 1_555
H85 C67 1_555 1_555
H86 C67 1_555 1_555
C68 O10 1_555 1_555
H87 C68 1_555 1_555
H88 C68 1_555 1_555
C4 N1 1_555 1_555
C9 N2 1_555 1_555
C14 N3 1_555 1_555
C19 C20 1_555 1_555
C19 N4 1_555 1_555
C31 C32 1_555 1_555
C33 O1 1_555 1_555
C35 O2 1_555 1_555
C41 C42 1_555 1_555
C43 C44 1_555 1_555
C45 O3 1_555 1_555
C47 O4 1_555 1_555
C48 C49 1_555 1_555
C51 C52 1_555 1_555
C56 O5 1_555 1_555
C59 C60 1_555 1_555
C67 C68 1_555 1_555

#END
