
#######################################################################
#
#                 Cambridge Crystallographic Data Centre
#                                CCDC 
#
#######################################################################
#
# If this CIF has been generated from an entry in the Cambridge 
# Structural Database, then it will include bibliographic, chemical, 
# crystal, experimental, refinement or atomic coordinate data resulting 
# from the CCDC's data processing and validation procedures.
#
#######################################################################

data_ZORNUP
_chemical_formula_moiety         'C18 H14 O2 S4'
_chemical_name_systematic        
3,3'''-Dimethoxy-2,2':5',2'':5'',2'''-quaterthiophene
_symmetry_cell_setting           triclinic
_symmetry_space_group_name_H-M   'P -1'
_symmetry_Int_Tables_number      2
_space_group_name_Hall           '-P 1'
loop_
_symmetry_equiv_pos_site_id
_symmetry_equiv_pos_as_xyz
1 x,y,z
2 -x,-y,-z
_cell_length_a                   5.463(5)
_cell_length_b                   12.022(4)
_cell_length_c                   14.676(4)
_cell_angle_alpha                75.100(2)
_cell_angle_beta                 81.710(5)
_cell_angle_gamma                77.640(6)
_cell_volume                     905.799
_exptl_crystal_colour            orange
_chemical_melting_point          '127-128 deg.C'
_cell_formula_units_Z            2
loop_
_atom_site_label
_atom_site_type_symbol
_atom_site_fract_x
_atom_site_fract_y
_atom_site_fract_z
S1 S 0.3199(3) 0.9545(1) 0.9191(1)
S2 S 0.2786(2) 0.59946(9) 0.91515(8)
O1 O 0.5981(8) 0.7349(3) 0.7655(3)
C1 C 0.3504(9) 0.8296(3) 0.8788(3)
C2 C 0.1915(8) 0.7443(3) 0.9233(3)
C3 C 0.540(1) 0.8266(4) 0.8075(3)
C4 C -0.0294(9) 0.7585(3) 0.9793(3)
C5 C 0.661(1) 0.9252(4) 0.7859(3)
C6 C -0.1282(9) 0.6550(4) 1.0161(3)
C7 C 0.561(1) 1.0000(4) 0.8397(4)
C8 C 0.0188(8) 0.5605(3) 0.9882(3)
C9 C 0.811(1) 0.7283(6) 0.6995(5)
H1 H -0.1098 0.8318 0.9923
H2 H 0.7977 0.9362 0.7385
H3 H -0.2808 0.6515 1.0561
H4 H 0.6179 1.0710 0.8348
H5 H 0.8268 0.6606 0.6755
H6 H 0.7918 0.7962 0.6488
H7 H 0.9565 0.7238 0.7294
C8A C -0.0188(8) 0.4395(3) 1.0118(3)
S2A S -0.2786(2) 0.40054(9) 1.08485(8)
C2A C -0.1915(8) 0.2557(3) 1.0767(3)
C1A C -0.3504(9) 0.1704(3) 1.1212(3)
S1A S -0.3199(3) 0.0455(1) 1.0809(1)
C7A C -0.561(1) 0.0000(4) 1.1603(4)
C5A C -0.661(1) 0.0748(4) 1.2141(3)
C3A C -0.540(1) 0.1734(4) 1.1925(3)
O1A O -0.5981(8) 0.2651(3) 1.2345(3)
C9A C -0.811(1) 0.2717(6) 1.3005(5)
H5A H -0.8268 0.3394 1.3245
H6A H -0.7918 0.2038 1.3512
H7A H -0.9565 0.2762 1.2706
H2A H -0.7977 0.0638 1.2615
H4A H -0.6179 -0.0710 1.1652
C4A C 0.0294(9) 0.2415(3) 1.0207(3)
C6A C 0.1282(9) 0.3450(4) 0.9839(3)
H3A H 0.2808 0.3485 0.9439
H1A H 0.1098 0.1682 1.0077
S3 S 0.9344(3) 0.2711(1) 0.78795(9)
S4 S 0.7715(2) 0.1506(1) 0.54911(8)
O2 O 0.4691(7) 0.3619(3) 0.5978(3)
C10 C 0.8038(8) 0.2649(4) 0.6888(3)
C11 C 0.9139(8) 0.1750(4) 0.6382(3)
C12 C 0.602(1) 0.3537(4) 0.6716(3)
C13 C 1.131(1) 0.0947(4) 0.6537(3)
C14 C 0.554(1) 0.4276(4) 0.7355(4)
C15 C 1.186(1) 0.0143(4) 0.5959(3)
C16 C 0.720(1) 0.3929(5) 0.8019(4)
C17 C 1.0074(8) 0.0324(3) 0.5349(3)
C18 C 0.254(1) 0.4529(6) 0.5830(4)
H8 H 1.2376 0.0935 0.7000
H9 H 0.4210 0.4936 0.7322
H10 H 1.3305 -0.0461 0.5989
H11 H 0.7169 0.4319 0.8508
H12 H 0.3052 0.5266 0.5706
H13 H 0.1770 0.4483 0.5305
H14 H 0.1386 0.4444 0.6380
C17A C 0.9926(8) -0.0324(3) 0.4651(3)
S4A S 1.2285(2) -0.1506(1) 0.45089(8)
C11A C 1.0861(8) -0.1750(4) 0.3618(3)
C10A C 1.1962(8) -0.2649(4) 0.3112(3)
S3A S 1.0656(3) -0.2711(1) 0.21205(9)
C16A C 1.280(1) -0.3929(5) 0.1981(4)
C14A C 1.446(1) -0.4276(4) 0.2645(4)
C12A C 1.398(1) -0.3537(4) 0.3284(3)
O2A O 1.5309(7) -0.3619(3) 0.4022(3)
C18A C 1.746(1) -0.4529(6) 0.4170(4)
H12A H 1.6948 -0.5266 0.4294
H13A H 1.8230 -0.4483 0.4695
H14A H 1.8614 -0.4444 0.3620
H9A H 1.5790 -0.4936 0.2678
H11A H 1.2831 -0.4319 0.1492
C13A C 0.869(1) -0.0947(4) 0.3463(3)
C15A C 0.814(1) -0.0143(4) 0.4041(3)
H10A H 0.6695 0.0461 0.4011
H8A H 0.7624 -0.0935 0.3000
loop_
_geom_bond_atom_site_label_1
_geom_bond_atom_site_label_2
_geom_bond_site_symmetry_1
_geom_bond_site_symmetry_2
S1 C1 1_555 1_555
S2 C2 1_555 1_555
O1 C3 1_555 1_555
C1 C2 1_555 1_555
C2 C4 1_555 1_555
C3 C1 1_555 1_555
C4 C6 1_555 1_555
C5 C3 1_555 1_555
C6 C8 1_555 1_555
C7 S1 1_555 1_555
C8 S2 1_555 1_555
C9 O1 1_555 1_555
S3 C10 1_555 1_555
S4 C11 1_555 1_555
O2 C12 1_555 1_555
C10 C11 1_555 1_555
C11 C13 1_555 1_555
C12 C10 1_555 1_555
C13 C15 1_555 1_555
C14 C12 1_555 1_555
C15 C17 1_555 1_555
C16 S3 1_555 1_555
C17 S4 1_555 1_555
C18 O2 1_555 1_555
H1 C4 1_555 1_555
H2 C5 1_555 1_555
H3 C6 1_555 1_555
H4 C7 1_555 1_555
H5 C9 1_555 1_555
H6 C9 1_555 1_555
H7 C9 1_555 1_555
H8 C13 1_555 1_555
H9 C14 1_555 1_555
H10 C15 1_555 1_555
H11 C16 1_555 1_555
H12 C18 1_555 1_555
H13 C18 1_555 1_555
H14 C18 1_555 1_555
C8A C8 1_555 1_555
S2A C8A 1_555 1_555
C2A S2A 1_555 1_555
C1A C2A 1_555 1_555
S1A C1A 1_555 1_555
C7A S1A 1_555 1_555
C5A C7A 1_555 1_555
C3A C1A 1_555 1_555
O1A C3A 1_555 1_555
C9A O1A 1_555 1_555
H5A C9A 1_555 1_555
H6A C9A 1_555 1_555
H7A C9A 1_555 1_555
H2A C5A 1_555 1_555
H4A C7A 1_555 1_555
C4A C2A 1_555 1_555
C6A C8A 1_555 1_555
H3A C6A 1_555 1_555
H1A C4A 1_555 1_555
C17A C17 1_555 1_555
S4A C17A 1_555 1_555
C11A S4A 1_555 1_555
C10A C11A 1_555 1_555
S3A C10A 1_555 1_555
C16A S3A 1_555 1_555
C14A C16A 1_555 1_555
C12A C10A 1_555 1_555
O2A C12A 1_555 1_555
C18A O2A 1_555 1_555
H12A C18A 1_555 1_555
H13A C18A 1_555 1_555
H14A C18A 1_555 1_555
H9A C14A 1_555 1_555
H11A C16A 1_555 1_555
C13A C11A 1_555 1_555
C15A C17A 1_555 1_555
H10A C15A 1_555 1_555
H8A C13A 1_555 1_555
C5 C7 1_555 1_555
C14 C16 1_555 1_555
C5A C3A 1_555 1_555
C4A C6A 1_555 1_555
C14A C12A 1_555 1_555
C13A C15A 1_555 1_555

#END
