
#######################################################################
#
#                 Cambridge Crystallographic Data Centre
#                                CCDC 
#
#######################################################################
#
# If this CIF has been generated from an entry in the Cambridge 
# Structural Database, then it will include bibliographic, chemical, 
# crystal, experimental, refinement or atomic coordinate data resulting 
# from the CCDC's data processing and validation procedures.
#
#######################################################################

data_ZOTMOM
_chemical_formula_moiety         'C13 H16 N2 2+,2(C7 H5 O6 S1 1-)'
_chemical_name_systematic        
"4,4'-methylenedianilinium bis(3-carboxy-4-hydroxybenzenesulfonate)"
_symmetry_cell_setting           monoclinic
_symmetry_space_group_name_H-M   'P 21/c'
_symmetry_Int_Tables_number      14
_space_group_name_Hall           '-P 2ybc'
loop_
_symmetry_equiv_pos_site_id
_symmetry_equiv_pos_as_xyz
1 x,y,z
2 -x,1/2+y,1/2-z
3 -x,-y,-z
4 x,1/2-y,1/2+z
_cell_length_a                   12.676(4)
_cell_length_b                   17.643(5)
_cell_length_c                   13.575(4)
_cell_angle_alpha                90
_cell_angle_beta                 114.989(3)
_cell_angle_gamma                90
_cell_volume                     2751.75
_exptl_crystal_colour            colorless
_exptl_crystal_description       block
_cell_formula_units_Z            4
loop_
_atom_site_label
_atom_site_type_symbol
_atom_site_fract_x
_atom_site_fract_y
_atom_site_fract_z
S1 S 0.08531(4) 0.38628(2) 0.53649(3)
O1 O 0.18011(15) 0.05969(8) 0.53684(14)
O2 O 0.18207(12) 0.42127(7) 0.62495(10)
O3 O 0.01587(12) 0.17620(7) 0.24363(11)
C1 C 0.08379(15) 0.25171(9) 0.43676(13)
O4 O 0.06634(11) 0.41745(7) 0.43045(9)
O5 O -0.02226(11) 0.38734(7) 0.55152(11)
C2 C 0.12118(14) 0.28977(9) 0.53418(13)
O6 O 0.08829(15) 0.06637(7) 0.32513(12)
C3 C 0.18055(15) 0.25040(10) 0.63147(14)
C4 C 0.10314(15) 0.17397(9) 0.43425(14)
C5 C 0.06847(16) 0.13393(10) 0.33020(15)
C6 C 0.16034(16) 0.13473(10) 0.53259(15)
C7 C 0.19965(16) 0.17397(10) 0.63079(15)
H1 H 0.2071(17) 0.2768(11) 0.6942(17)
H2 H 0.0461(15) 0.2778(10) 0.3722(14)
H3 H 0.2426(16) 0.1428(11) 0.6950(15)
H4 H 0.000(2) 0.1525(15) 0.186(2)
H5 H 0.155(2) 0.0438(16) 0.471(2)
S2 S 0.53014(4) 0.06854(2) 0.75508(4)
O7 O 0.45952(13) 0.35820(8) 0.70939(11)
O8 O 0.65133(11) 0.09419(8) 0.81577(10)
O9 O 0.39901(14) 0.39165(7) 0.53533(11)
C8 C 0.46762(14) 0.20824(9) 0.66627(14)
C9 C 0.42834(16) 0.34329(10) 0.60641(14)
C10 C 0.47066(14) 0.13225(9) 0.64471(13)
C11 C 0.43121(16) 0.10761(10) 0.53719(15)
O10 O 0.46567(14) 0.07433(9) 0.81939(12)
C12 C 0.43070(14) 0.26163(9) 0.58264(13)
O11 O 0.52765(15) -0.00528(7) 0.70702(12)
C13 C 0.39580(16) 0.23645(10) 0.47536(14)
O12 O 0.36353(16) 0.28420(9) 0.38975(11)
C14 C 0.39400(17) 0.15913(11) 0.45347(15)
H6 H 0.4890(15) 0.2240(10) 0.7372(15)
H7 H 0.3658(18) 0.1425(12) 0.3795(17)
H8 H 0.4336(17) 0.0543(12) 0.5237(16)
H9 H 0.462(2) 0.4062(16) 0.724(2)
H10 H 0.374(3) 0.3350(19) 0.422(2)
C15 C 0.24191(15) 0.66274(9) 0.21643(13)
C16 C 0.17662(14) 0.59447(9) -0.16953(13)
C17 C 0.28027(16) 0.64910(10) 0.40522(14)
N1 N 0.26020(17) 0.52556(10) 0.47910(13)
N2 N 0.15844(16) 0.55340(9) -0.26904(13)
C18 C 0.2355(2) 0.71380(11) 0.12378(15)
C19 C 0.25495(14) 0.57328(9) 0.38899(13)
C20 C 0.27308(16) 0.69353(10) 0.31887(14)
C21 C 0.21596(15) 0.67233(10) 0.02002(13)
C22 C 0.28537(16) 0.59236(11) -0.08376(15)
C23 C 0.2231(2) 0.54117(11) 0.28852(16)
C24 C 0.10761(16) 0.67297(11) -0.06721(14)
C25 C 0.08709(16) 0.63379(11) -0.16222(14)
C26 C 0.2168(2) 0.58620(11) 0.20263(16)
C27 C 0.30429(16) 0.63109(12) 0.01054(15)
H11 H 0.088(2) 0.5649(12) -0.3253(19)
H12 H 0.152(2) 0.5041(15) -0.2605(18)
H13 H 0.0078(18) 0.6345(12) -0.2265(17)
H14 H 0.2909(17) 0.7446(12) 0.3288(16)
H15 H 0.3015(18) 0.6699(12) 0.4736(18)
H16 H 0.3072(19) 0.7397(12) 0.1475(16)
H17 H 0.280(2) 0.5522(13) 0.542(2)
H18 H 0.2063(18) 0.4873(13) 0.2768(16)
H19 H 0.218(2) 0.5631(13) -0.2864(19)
H20 H 0.315(2) 0.4865(15) 0.4931(19)
H21 H 0.3434(19) 0.5636(13) -0.0894(17)
H22 H 0.191(3) 0.5054(16) 0.465(2)
H23 H 0.1717(19) 0.7520(13) 0.1087(17)
H24 H 0.0461(18) 0.7021(12) -0.0613(17)
H25 H 0.377(2) 0.6285(13) 0.0687(18)
H26 H 0.194(2) 0.5649(13) 0.1337(19)
loop_
_geom_bond_atom_site_label_1
_geom_bond_atom_site_label_2
_geom_bond_site_symmetry_1
_geom_bond_site_symmetry_2
S1 O2 1_555 1_555
O1 C6 1_555 1_555
O3 C5 1_555 1_555
C1 C2 1_555 1_555
O4 S1 1_555 1_555
O5 S1 1_555 1_555
C2 S1 1_555 1_555
O6 C5 1_555 1_555
C3 C2 1_555 1_555
C4 C1 1_555 1_555
C5 C4 1_555 1_555
C6 C4 1_555 1_555
C7 C3 1_555 1_555
H1 C3 1_555 1_555
H2 C1 1_555 1_555
H3 C7 1_555 1_555
H4 O3 1_555 1_555
H5 O1 1_555 1_555
S2 O8 1_555 1_555
O7 C9 1_555 1_555
O9 C9 1_555 1_555
C8 C10 1_555 1_555
C9 C12 1_555 1_555
C10 S2 1_555 1_555
C11 C10 1_555 1_555
O10 S2 1_555 1_555
C12 C8 1_555 1_555
O11 S2 1_555 1_555
C13 C12 1_555 1_555
O12 C13 1_555 1_555
C14 C11 1_555 1_555
H6 C8 1_555 1_555
H7 C14 1_555 1_555
H8 C11 1_555 1_555
H9 O7 1_555 1_555
H10 O12 1_555 1_555
C15 C18 1_555 1_555
C16 N2 1_555 1_555
C17 C19 1_555 1_555
N1 C19 1_555 1_555
N2 H11 1_555 1_555
C18 C21 1_555 1_555
C19 C23 1_555 1_555
C20 C15 1_555 1_555
C21 C24 1_555 1_555
C22 C16 1_555 1_555
C23 C26 1_555 1_555
C24 C25 1_555 1_555
C25 C16 1_555 1_555
C26 C15 1_555 1_555
C27 C21 1_555 1_555
H12 N2 1_555 1_555
H13 C25 1_555 1_555
H14 C20 1_555 1_555
H15 C17 1_555 1_555
H16 C18 1_555 1_555
H17 N1 1_555 1_555
H18 C23 1_555 1_555
H19 N2 1_555 1_555
H20 N1 1_555 1_555
H21 C22 1_555 1_555
H22 N1 1_555 1_555
H23 C18 1_555 1_555
H24 C24 1_555 1_555
H25 C27 1_555 1_555
H26 C26 1_555 1_555
C6 C7 1_555 1_555
C13 C14 1_555 1_555
C17 C20 1_555 1_555
C22 C27 1_555 1_555

#END
