
#######################################################################
#
#                 Cambridge Crystallographic Data Centre
#                                CCDC 
#
#######################################################################
#
# If this CIF has been generated from an entry in the Cambridge 
# Structural Database, then it will include bibliographic, chemical, 
# crystal, experimental, refinement or atomic coordinate data resulting 
# from the CCDC's data processing and validation procedures.
#
#######################################################################

data_ZOVQUY
_chemical_formula_moiety         'C40 H72 Mg2 N8 P4'
_chemical_name_systematic        
bis(\m~2~-3,5-di-t-butyl-1,2,4-diazaphosphol-1-ide)-bis(\h^2^-3,5-di-t-butyl-1,2,4-diazaphosphol-1-ide)-di-magnesium
_symmetry_cell_setting           monoclinic
_symmetry_space_group_name_H-M   'P 21/c'
_symmetry_Int_Tables_number      14
_space_group_name_Hall           '-P 2ybc'
loop_
_symmetry_equiv_pos_site_id
_symmetry_equiv_pos_as_xyz
1 x,y,z
2 -x,1/2+y,1/2-z
3 -x,-y,-z
4 x,1/2-y,1/2+z
_cell_length_a                   10.208(5)
_cell_length_b                   12.886(6)
_cell_length_c                   19.110(10)
_cell_angle_alpha                90
_cell_angle_beta                 93.840(7)
_cell_angle_gamma                90
_cell_volume                     2508.09
_exptl_crystal_colour            colorless
_exptl_crystal_description       sheet
_cell_formula_units_Z            2
loop_
_atom_site_label
_atom_site_type_symbol
_atom_site_fract_x
_atom_site_fract_y
_atom_site_fract_z
Mg1 Mg 0.55764(9) 0.48919(7) 1.08585(5)
P1 P 0.81218(11) 0.32432(8) 0.93766(5)
P2 P 0.82104(10) 0.69031(7) 1.21850(5)
N1 N 0.6254(2) 0.39955(17) 1.00726(11)
N2 N 0.6272(2) 0.45949(18) 0.94700(12)
N3 N 0.6743(2) 0.60655(19) 1.11961(12)
N4 N 0.6717(3) 0.53833(19) 1.17554(13)
C1 C 0.7149(3) 0.3248(2) 1.00940(16)
C2 C 0.7218(3) 0.4305(2) 0.90647(15)
C3 C 0.7299(4) 0.2499(3) 1.06998(18)
C4 C 0.8560(4) 0.2747(4) 1.1134(2)
H1 H 0.9300 0.2590 1.0868
H2 H 0.8605 0.2338 1.1555
H3 H 0.8574 0.3470 1.1255
C5 C 0.6152(4) 0.2583(3) 1.1169(2)
H4 H 0.6220 0.3220 1.1429
H5 H 0.6174 0.2008 1.1488
H6 H 0.5341 0.2574 1.0884
C6 C 0.7342(6) 0.1397(3) 1.0417(3)
H7 H 0.6550 0.1256 1.0133
H8 H 0.7420 0.0916 1.0801
H9 H 0.8084 0.1323 1.0137
C7 C 0.7453(3) 0.4895(3) 0.84004(17)
C8 C 0.6512(4) 0.5792(3) 0.8271(2)
H10 H 0.5634 0.5530 0.8193
H11 H 0.6745 0.6173 0.7866
H12 H 0.6560 0.6241 0.8673
C9 C 0.8855(4) 0.5327(4) 0.8473(3)
H13 H 0.9014 0.5734 0.8067
H14 H 0.9469 0.4762 0.8513
H15 H 0.8958 0.5754 0.8885
C10 C 0.7315(6) 0.4154(4) 0.7777(2)
H16 H 0.6460 0.3840 0.7756
H17 H 0.7975 0.3624 0.7832
H18 H 0.7422 0.4532 0.7352
C11 C 0.7470(3) 0.6904(2) 1.13406(16)
C12 C 0.7429(3) 0.5715(3) 1.23174(16)
C13 C 0.7513(3) 0.7720(2) 1.0780(2)
C14 C 0.7802(6) 0.7223(3) 1.0092(2)
H19 H 0.8616 0.6850 1.0149
H20 H 0.7867 0.7750 0.9742
H21 H 0.7107 0.6751 0.9949
C15 C 0.8600(4) 0.8500(3) 1.0978(3)
H22 H 0.8424 0.8831 1.1412
H23 H 0.8631 0.9013 1.0615
H24 H 0.9427 0.8145 1.1031
C16 C 0.6202(5) 0.8277(4) 1.0720(3)
H25 H 0.5516 0.7787 1.0595
H26 H 0.6215 0.8803 1.0365
H27 H 0.6043 0.8592 1.1161
C17 C 0.7487(4) 0.5109(3) 1.29935(18)
C18 C 0.7551(15) 0.3976(5) 1.2871(3)
H28 H 0.8202 0.3832 1.2543
H29 H 0.6711 0.3732 1.2683
H30 H 0.7783 0.3628 1.3306
C19 C 0.6330(7) 0.5454(7) 1.3412(3)
H31 H 0.5525 0.5201 1.3186
H32 H 0.6305 0.6198 1.3431
H33 H 0.6438 0.5180 1.3879
C20 C 0.8735(6) 0.5420(6) 1.3456(3)
H34 H 0.8760 0.5041 1.3889
H35 H 0.8714 0.6150 1.3552
H36 H 0.9502 0.5259 1.3212
Mg1B Mg 0.44236(9) 0.51081(7) 0.91415(5)
P1B P 0.18782(11) 0.67568(8) 1.06234(5)
P2B P 0.17896(10) 0.30969(7) 0.78150(5)
N1B N 0.3746(2) 0.60045(17) 0.99274(11)
N2B N 0.3728(2) 0.54051(18) 1.05300(12)
N3B N 0.3257(2) 0.39345(19) 0.88039(12)
N4B N 0.3283(3) 0.46167(19) 0.82446(13)
C1B C 0.2851(3) 0.6752(2) 0.99060(16)
C2B C 0.2782(3) 0.5695(2) 1.09353(15)
C3B C 0.2701(4) 0.7501(3) 0.93002(18)
C4B C 0.1440(4) 0.7253(4) 0.8866(2)
H1B H 0.0700 0.7410 0.9132
H2B H 0.1395 0.7662 0.8445
H3B H 0.1426 0.6530 0.8745
C5B C 0.3848(4) 0.7417(3) 0.8831(2)
H4B H 0.3780 0.6780 0.8571
H5B H 0.3826 0.7992 0.8512
H6B H 0.4659 0.7426 0.9116
C6B C 0.2658(6) 0.8603(3) 0.9583(3)
H7B H 0.3450 0.8744 0.9867
H8B H 0.2580 0.9084 0.9199
H9B H 0.1916 0.8677 0.9863
C7B C 0.2547(3) 0.5105(3) 1.15996(17)
C8B C 0.3488(4) 0.4208(3) 1.1729(2)
H10B H 0.4366 0.4470 1.1807
H11B H 0.3255 0.3827 1.2134
H12B H 0.3440 0.3759 1.1327
C9B C 0.1145(4) 0.4673(4) 1.1527(3)
H13B H 0.0986 0.4266 1.1933
H14B H 0.0531 0.5238 1.1487
H15B H 0.1042 0.4246 1.1115
C10B C 0.2685(6) 0.5846(4) 1.2223(2)
H16B H 0.3540 0.6160 1.2244
H17B H 0.2025 0.6376 1.2168
H18B H 0.2578 0.5468 1.2648
C11B C 0.2530(3) 0.3096(2) 0.86594(16)
C12B C 0.2571(3) 0.4285(3) 0.76826(16)
C13B C 0.2487(3) 0.2280(2) 0.9220(2)
C14B C 0.2198(6) 0.2777(3) 0.9908(2)
H19B H 0.1384 0.3150 0.9851
H20B H 0.2133 0.2250 1.0258
H21B H 0.2893 0.3249 1.0051
C15B C 0.1400(4) 0.1500(3) 0.9022(3)
H22B H 0.1576 0.1169 0.8588
H23B H 0.1369 0.0987 0.9385
H24B H 0.0573 0.1855 0.8969
C16B C 0.3798(5) 0.1723(4) 0.9280(3)
H25B H 0.4484 0.2213 0.9405
H26B H 0.3785 0.1197 0.9635
H27B H 0.3957 0.1408 0.8839
C17B C 0.2513(4) 0.4891(3) 0.70065(18)
C18B C 0.2449(15) 0.6024(5) 0.7129(3)
H28B H 0.1798 0.6168 0.7457
H29B H 0.3289 0.6268 0.7317
H30B H 0.2217 0.6372 0.6694
C19B C 0.3670(7) 0.4546(7) 0.6588(3)
H31B H 0.4475 0.4799 0.6814
H32B H 0.3695 0.3802 0.6569
H33B H 0.3562 0.4820 0.6121
C20B C 0.1265(6) 0.4580(6) 0.6544(3)
H34B H 0.1240 0.4959 0.6111
H35B H 0.1286 0.3850 0.6448
H36B H 0.0498 0.4741 0.6788
C21? C 0.860(3) 0.442(2) 1.3024(15)
H37? H 0.9253 0.4660 1.3370
H38? H 0.8965 0.4394 1.2574
H39? H 0.8323 0.3732 1.3148
C22? C 0.632(3) 0.424(2) 1.2982(13)
H40? H 0.6396 0.3782 1.2591
H41? H 0.5480 0.4580 1.2938
H42? H 0.6392 0.3847 1.3410
C23? C 0.750(4) 0.573(3) 1.3595(15)
H43? H 0.8040 0.5408 1.3965
H44? H 0.6624 0.5806 1.3738
H45? H 0.7854 0.6400 1.3494
loop_
_geom_bond_atom_site_label_1
_geom_bond_atom_site_label_2
_geom_bond_site_symmetry_1
_geom_bond_site_symmetry_2
Mg1 N1 1_555 1_555
P1 C1 1_555 1_555
P2 C11 1_555 1_555
N1 N2 1_555 1_555
N2 C2 1_555 1_555
N3 Mg1 1_555 1_555
N4 Mg1 1_555 1_555
C1 N1 1_555 1_555
C2 P1 1_555 1_555
C3 C1 1_555 1_555
C4 C3 1_555 1_555
H1 C4 1_555 1_555
H2 C4 1_555 1_555
H3 C4 1_555 1_555
C5 C3 1_555 1_555
H4 C5 1_555 1_555
H5 C5 1_555 1_555
H6 C5 1_555 1_555
C6 C3 1_555 1_555
H7 C6 1_555 1_555
H8 C6 1_555 1_555
H9 C6 1_555 1_555
C7 C2 1_555 1_555
C8 C7 1_555 1_555
H10 C8 1_555 1_555
H11 C8 1_555 1_555
H12 C8 1_555 1_555
C9 C7 1_555 1_555
H13 C9 1_555 1_555
H14 C9 1_555 1_555
H15 C9 1_555 1_555
C10 C7 1_555 1_555
H16 C10 1_555 1_555
H17 C10 1_555 1_555
H18 C10 1_555 1_555
C11 N3 1_555 1_555
C12 P2 1_555 1_555
C13 C11 1_555 1_555
C14 C13 1_555 1_555
H19 C14 1_555 1_555
H20 C14 1_555 1_555
H21 C14 1_555 1_555
C15 C13 1_555 1_555
H22 C15 1_555 1_555
H23 C15 1_555 1_555
H24 C15 1_555 1_555
C16 C13 1_555 1_555
H25 C16 1_555 1_555
H26 C16 1_555 1_555
H27 C16 1_555 1_555
C17 C12 1_555 1_555
C18 C17 1_555 1_555
H28 C18 1_555 1_555
H29 C18 1_555 1_555
H30 C18 1_555 1_555
C19 C17 1_555 1_555
H31 C19 1_555 1_555
H32 C19 1_555 1_555
H33 C19 1_555 1_555
C20 C17 1_555 1_555
H34 C20 1_555 1_555
H35 C20 1_555 1_555
H36 C20 1_555 1_555
Mg1B N2 1_555 1_555
P1B C1B 1_555 1_555
P2B C11B 1_555 1_555
N1B Mg1B 1_555 1_555
N2B Mg1 1_555 1_555
N3B Mg1B 1_555 1_555
N4B Mg1B 1_555 1_555
C1B N1B 1_555 1_555
C2B P1B 1_555 1_555
C3B C1B 1_555 1_555
C4B C3B 1_555 1_555
H1B C4B 1_555 1_555
H2B C4B 1_555 1_555
H3B C4B 1_555 1_555
C5B C3B 1_555 1_555
H4B C5B 1_555 1_555
H5B C5B 1_555 1_555
H6B C5B 1_555 1_555
C6B C3B 1_555 1_555
H7B C6B 1_555 1_555
H8B C6B 1_555 1_555
H9B C6B 1_555 1_555
C7B C2B 1_555 1_555
C8B C7B 1_555 1_555
H10B C8B 1_555 1_555
H11B C8B 1_555 1_555
H12B C8B 1_555 1_555
C9B C7B 1_555 1_555
H13B C9B 1_555 1_555
H14B C9B 1_555 1_555
H15B C9B 1_555 1_555
C10B C7B 1_555 1_555
H16B C10B 1_555 1_555
H17B C10B 1_555 1_555
H18B C10B 1_555 1_555
C11B N3B 1_555 1_555
C12B P2B 1_555 1_555
C13B C11B 1_555 1_555
C14B C13B 1_555 1_555
H19B C14B 1_555 1_555
H20B C14B 1_555 1_555
H21B C14B 1_555 1_555
C15B C13B 1_555 1_555
H22B C15B 1_555 1_555
H23B C15B 1_555 1_555
H24B C15B 1_555 1_555
C16B C13B 1_555 1_555
H25B C16B 1_555 1_555
H26B C16B 1_555 1_555
H27B C16B 1_555 1_555
C17B C12B 1_555 1_555
C18B C17B 1_555 1_555
H28B C18B 1_555 1_555
H29B C18B 1_555 1_555
H30B C18B 1_555 1_555
C19B C17B 1_555 1_555
H31B C19B 1_555 1_555
H32B C19B 1_555 1_555
H33B C19B 1_555 1_555
C20B C17B 1_555 1_555
H34B C20B 1_555 1_555
H35B C20B 1_555 1_555
H36B C20B 1_555 1_555
N3 N4 1_555 1_555
N4 C12 1_555 1_555
N1B N2B 1_555 1_555
N2B C2B 1_555 1_555
N3B N4B 1_555 1_555
N4B C12B 1_555 1_555

#END
