
#######################################################################
#
#                 Cambridge Crystallographic Data Centre
#                                CCDC 
#
#######################################################################
#
# If this CIF has been generated from an entry in the Cambridge 
# Structural Database, then it will include bibliographic, chemical, 
# crystal, experimental, refinement or atomic coordinate data resulting 
# from the CCDC's data processing and validation procedures.
#
#######################################################################

data_ZOWFUO
_chemical_formula_moiety         'C20 H23 Br1 N1 O2 P1 S1'
_chemical_name_systematic        
'2-Bromo-10-t-butyl-8,9-dimethyl-4-phenyl-4-aza-10-phosphatricyclo[5.2.1.0^2,6^]dec-8-ene-3,5-dione 10-sulfide'
_symmetry_cell_setting           triclinic
_symmetry_space_group_name_H-M   'P -1'
_symmetry_Int_Tables_number      2
_space_group_name_Hall           '-P 1'
loop_
_symmetry_equiv_pos_site_id
_symmetry_equiv_pos_as_xyz
1 x,y,z
2 -x,-y,-z
_cell_length_a                   8.0742(3)
_cell_length_b                   9.8625(4)
_cell_length_c                   13.4732(6)
_cell_angle_alpha                72.926(3)
_cell_angle_beta                 76.381(3)
_cell_angle_gamma                72.528(3)
_cell_volume                     965.439
_exptl_crystal_colour            colorless
_exptl_crystal_description       block
_cell_formula_units_Z            2
loop_
_atom_site_label
_atom_site_type_symbol
_atom_site_fract_x
_atom_site_fract_y
_atom_site_fract_z
Br1 Br 0.69502(4) 0.51474(3) 0.57003(2)
C1 C 0.6781(4) -0.0682(3) 0.6978(2)
C2 C 0.5732(4) -0.0869(3) 0.6238(2)
H1 H 0.5367 -0.1789 0.6533
H2 H 0.6469 -0.0892 0.5549
H3 H 0.4688 -0.0047 0.6157
C3 C 0.5619(4) -0.0701(3) 0.8054(2)
H4 H 0.4676 0.0203 0.8011
H5 H 0.6332 -0.0772 0.8573
H6 H 0.5105 -0.1546 0.8268
C4 C 0.8433(4) -0.1964(3) 0.7068(3)
H7 H 0.9088 -0.1889 0.7568
H8 H 0.918 -0.1927 0.6377
H9 H 0.8084 -0.2892 0.7316
C5 C 0.6809(3) 0.2344(3) 0.7256(2)
H10 H 0.5518 0.2798 0.7401
C6 C 0.7657(4) 0.1357(3) 0.8197(2)
C7 C 0.6737(4) 0.1391(3) 0.9296(2)
H11 H 0.7298 0.0517 0.9789
H12 H 0.5498 0.1409 0.9353
H13 H 0.6814 0.2269 0.9466
C8 C 1.0602(4) -0.0461(3) 0.8537(2)
H14 H 1.1585 -0.0023 0.8444
H15 H 1.1039 -0.139 0.8322
H16 H 1.0053 -0.0642 0.9278
C9 C 0.9270(3) 0.0564(3) 0.7873(2)
C10 C 0.9696(3) 0.0884(3) 0.6685(2)
H17 H 1.0697 0.0152 0.639
C11 C 0.9800(3) 0.2513(3) 0.6258(2)
H18 H 1.0018 0.2798 0.5472
C12 C 0.8009(3) 0.3419(3) 0.6716(2)
C13 C 0.8462(4) 0.4026(3) 0.7518(2)
C14 C 1.1158(4) 0.2807(3) 0.6717(2)
C15 C 1.1210(3) 0.4132(3) 0.8008(2)
C16 C 1.2257(4) 0.5094(3) 0.7496(2)
H19 H 1.2352 0.5486 0.6757
C17 C 1.3167(4) 0.5475(4) 0.8090(3)
H20 H 1.3901 0.6128 0.7753
C18 C 1.3011(4) 0.4912(4) 0.9165(3)
H21 H 1.3632 0.5185 0.9562
C19 C 1.1964(5) 0.3958(4) 0.9665(3)
H22 H 1.1859 0.3577 1.0405
C20 C 1.1057(4) 0.3550(4) 0.9084(3)
H23 H 1.0343 0.2882 0.9422
N1 N 1.0290(3) 0.3710(2) 0.74019(18)
O1 O 0.7448(3) 0.4663(2) 0.81449(16)
O2 O 1.2732(3) 0.2316(2) 0.65651(17)
P1 P 0.75134(9) 0.10652(7) 0.63632(5)
S1 S 0.72772(9) 0.18749(7) 0.48903(5)
loop_
_geom_bond_atom_site_label_1
_geom_bond_atom_site_label_2
_geom_bond_site_symmetry_1
_geom_bond_site_symmetry_2
Br1 C12 1_555 1_555
C1 C2 1_555 1_555
C2 H1 1_555 1_555
H2 C2 1_555 1_555
H3 C2 1_555 1_555
C3 C1 1_555 1_555
H4 C3 1_555 1_555
H5 C3 1_555 1_555
H6 C3 1_555 1_555
C4 C1 1_555 1_555
H7 C4 1_555 1_555
H8 C4 1_555 1_555
H9 C4 1_555 1_555
C5 H10 1_555 1_555
C6 C5 1_555 1_555
C7 C6 1_555 1_555
H11 C7 1_555 1_555
H12 C7 1_555 1_555
H13 C7 1_555 1_555
C8 H14 1_555 1_555
H15 C8 1_555 1_555
H16 C8 1_555 1_555
C9 C6 1_555 1_555
C10 C9 1_555 1_555
H17 C10 1_555 1_555
C11 C10 1_555 1_555
H18 C11 1_555 1_555
C12 C5 1_555 1_555
C13 C12 1_555 1_555
C14 C11 1_555 1_555
C15 C16 1_555 1_555
C16 H19 1_555 1_555
C17 C16 1_555 1_555
H20 C17 1_555 1_555
C18 C17 1_555 1_555
H21 C18 1_555 1_555
C19 C18 1_555 1_555
H22 C19 1_555 1_555
C20 C15 1_555 1_555
H23 C20 1_555 1_555
N1 C13 1_555 1_555
O1 C13 1_555 1_555
O2 C14 1_555 1_555
P1 C1 1_555 1_555
S1 P1 1_555 1_555
C5 P1 1_555 1_555
C8 C9 1_555 1_555
C10 P1 1_555 1_555
C11 C12 1_555 1_555
C14 N1 1_555 1_555
C15 N1 1_555 1_555
C19 C20 1_555 1_555

#END
