
#######################################################################
#
#                 Cambridge Crystallographic Data Centre
#                                CCDC 
#
#######################################################################
#
# If this CIF has been generated from an entry in the Cambridge 
# Structural Database, then it will include bibliographic, chemical, 
# crystal, experimental, refinement or atomic coordinate data resulting 
# from the CCDC's data processing and validation procedures.
#
#######################################################################

data_ZOWJAW02
_chemical_formula_moiety         'C6 H12 O5'
_chemical_name_systematic        'Methyl \b-D-ribofuranoside'
_symmetry_cell_setting           orthorhombic
_symmetry_space_group_name_H-M   'P 21 21 21'
_symmetry_Int_Tables_number      19
_space_group_name_Hall           'P 2ac 2ab'
loop_
_symmetry_equiv_pos_site_id
_symmetry_equiv_pos_as_xyz
1 x,y,z
2 1/2-x,-y,1/2+z
3 1/2+x,1/2-y,-z
4 -x,1/2+y,1/2-z
_cell_length_a                   12.7130(10)
_cell_length_b                   24.024(3)
_cell_length_c                   4.797(5)
_cell_angle_alpha                90
_cell_angle_beta                 90
_cell_angle_gamma                90
_cell_volume                     1465.09
_exptl_crystal_colour            colorless
_exptl_crystal_description       prism
_chemical_melting_point          353K
_cell_formula_units_Z            8
_exptl_crystal_recrystallization_method 'ethyl acetate'
loop_
_atom_site_label
_atom_site_type_symbol
_atom_site_fract_x
_atom_site_fract_y
_atom_site_fract_z
O1 O 0.10880(15) 0.07672(8) 0.0409(5)
O2 O -0.11583(17) 0.08682(8) 0.4870(5)
O3 O -0.20542(16) 0.01318(9) 0.1209(5)
O4 O 0.05880(15) 0.01013(7) 0.3692(5)
O5 O 0.06641(18) -0.10435(8) 0.1956(5)
C1 C 0.0532(2) 0.06639(10) 0.2891(6)
C2 C -0.0613(2) 0.07866(10) 0.2344(6)
C3 C -0.0967(2) 0.02379(11) 0.1056(7)
C4 C -0.0291(2) -0.01950(10) 0.2497(7)
C5 C 0.0082(2) -0.06325(11) 0.0517(7)
C6 C 0.2183(2) 0.06401(14) 0.0630(11)
H1 H 0.083(2) 0.0882(13) 0.425(7)
H2 H -0.069(2) 0.1090(12) 0.097(7)
H3 H -0.080(3) 0.0259(15) -0.086(9)
H4 H -0.061(2) -0.0363(12) 0.377(7)
H5 H -0.116(4) 0.118(2) 0.546(12)
H6 H -0.221(3) 0.005(2) 0.272(11)
H7 H 0.093(3) -0.1254(15) 0.088(9)
H8 H -0.053(3) -0.0809(15) -0.043(9)
H9 H 0.047(2) -0.0450(12) -0.082(8)
H10 H 0.234(3) 0.0249(17) 0.102(11)
H11 H 0.252(3) 0.083(2) 0.219(11)
H12 H 0.250(3) 0.0765(17) -0.112(10)
O6 O -0.26201(16) 0.19993(8) -0.0567(5)
O7 O -0.20981(17) 0.31013(8) -0.5386(5)
O8 O -0.05521(16) 0.33793(7) -0.1865(5)
O9 O -0.12532(14) 0.20057(8) -0.3780(5)
O10 O 0.09187(16) 0.17344(8) -0.2546(5)
C7 C -0.2285(2) 0.22084(11) -0.3108(7)
C8 C -0.2146(2) 0.28350(10) -0.2771(7)
C9 C -0.1064(2) 0.28696(10) -0.1460(6)
C10 C -0.0477(2) 0.24042(10) -0.2938(7)
C11 C 0.0333(2) 0.21460(11) -0.1097(7)
C12 C -0.2993(3) 0.14418(12) -0.0699(10)
H13 H -0.277(2) 0.2087(13) -0.460(8)
H14 H -0.018(2) 0.2566(14) -0.444(8)
H15 H -0.270(3) 0.3017(15) -0.167(8)
H16 H -0.262(4) 0.3146(19) -0.589(12)
H17 H -0.060(2) 0.3572(13) -0.052(8)
H18 H 0.094(3) 0.1475(18) -0.151(10)
H19 H -0.112(2) 0.2783(12) 0.047(7)
H20 H 0.078(2) 0.2422(12) -0.063(7)
H21 H 0.000(2) 0.1977(12) 0.049(7)
H22 H -0.251(3) 0.1199(15) -0.135(9)
H23 H -0.362(3) 0.1411(19) -0.183(11)
H24 H -0.328(4) 0.133(2) 0.117(13)
loop_
_geom_bond_atom_site_label_1
_geom_bond_atom_site_label_2
_geom_bond_site_symmetry_1
_geom_bond_site_symmetry_2
O1 C1 1_555 1_555
O2 C2 1_555 1_555
O3 C3 1_555 1_555
O4 C1 1_555 1_555
O5 C5 1_555 1_555
C1 C2 1_555 1_555
C2 C3 1_555 1_555
C3 C4 1_555 1_555
C4 O4 1_555 1_555
C5 C4 1_555 1_555
C6 O1 1_555 1_555
O6 C7 1_555 1_555
O7 C8 1_555 1_555
O8 C9 1_555 1_555
O9 C7 1_555 1_555
O10 C11 1_555 1_555
C7 C8 1_555 1_555
C8 C9 1_555 1_555
C9 C10 1_555 1_555
C10 O9 1_555 1_555
C11 C10 1_555 1_555
C12 O6 1_555 1_555
H1 C1 1_555 1_555
H2 C2 1_555 1_555
H3 C3 1_555 1_555
H4 C4 1_555 1_555
H5 O2 1_555 1_555
H6 O3 1_555 1_555
H7 O5 1_555 1_555
H8 C5 1_555 1_555
H9 C5 1_555 1_555
H10 C6 1_555 1_555
H11 C6 1_555 1_555
H12 C6 1_555 1_555
H13 C7 1_555 1_555
H14 C10 1_555 1_555
H15 C8 1_555 1_555
H16 O7 1_555 1_555
H17 O8 1_555 1_555
H18 O10 1_555 1_555
H19 C9 1_555 1_555
H20 C11 1_555 1_555
H21 C11 1_555 1_555
H22 C12 1_555 1_555
H23 C12 1_555 1_555
H24 C12 1_555 1_555

#END
