
#######################################################################
#
#                 Cambridge Crystallographic Data Centre
#                                CCDC 
#
#######################################################################
#
# If this CIF has been generated from an entry in the Cambridge 
# Structural Database, then it will include bibliographic, chemical, 
# crystal, experimental, refinement or atomic coordinate data resulting 
# from the CCDC's data processing and validation procedures.
#
#######################################################################

data_ZOWSAF
_chemical_formula_moiety         'C27 H26 N3 O1 P1'
_chemical_name_systematic        
"4-(Diphenylphosphine oxide)benzene-1-azo-(4'-dimethylamino-2-methylbenzene)"
_symmetry_cell_setting           orthorhombic
_symmetry_space_group_name_H-M   'P n a 21'
_symmetry_Int_Tables_number      33
_space_group_name_Hall           'P 2c -2n'
loop_
_symmetry_equiv_pos_site_id
_symmetry_equiv_pos_as_xyz
1 x,y,z
2 -x,-y,1/2+z
3 1/2-x,1/2+y,1/2+z
4 1/2+x,1/2-y,z
_cell_length_a                   15.243(3)
_cell_length_b                   9.682(2)
_cell_length_c                   33.039(6)
_cell_angle_alpha                90
_cell_angle_beta                 90
_cell_angle_gamma                90
_cell_volume                     4875.99
_exptl_crystal_colour            red-orange
_cell_formula_units_Z            8
loop_
_atom_site_label
_atom_site_type_symbol
_atom_site_fract_x
_atom_site_fract_y
_atom_site_fract_z
N1 N 0.753(1) 0.410(2) 0.2430(5)
N2 N 0.693(1) 0.493(2) 0.2463(5)
C1 C 0.809(1) 0.427(2) 0.2107(6)
C2 C 0.880(1) 0.335(2) 0.2054(7)
C3 C 0.933(1) 0.344(2) 0.1724(6)
C4 C 0.921(1) 0.448(2) 0.1435(5)
C5 C 0.852(1) 0.544(2) 0.1491(6)
C6 C 0.798(1) 0.532(2) 0.1817(5)
N3 N 0.974(1) 0.451(2) 0.1096(6)
C7 C 0.973(1) 0.565(3) 0.0825(7)
C8 C 1.038(2) 0.340(3) 0.1027(9)
C9 C 0.896(2) 0.226(3) 0.2380(8)
C10 C 0.639(1) 0.479(2) 0.2815(6)
C11 C 0.577(1) 0.584(2) 0.2888(5)
C12 C 0.523(1) 0.576(2) 0.3236(6)
C13 C 0.528(1) 0.461(2) 0.3485(6)
C14 C 0.590(1) 0.357(2) 0.3407(7)
C15 C 0.646(2) 0.366(3) 0.307(1)
P1 P 0.4633(3) 0.4433(6) 0.3939(2)
O1 O 0.481(1) 0.309(2) 0.4145(5)
C16 C 0.489(1) 0.589(2) 0.4248(7)
C17 C 0.531(2) 0.571(3) 0.4618(8)
C18 C 0.553(2) 0.685(3) 0.4857(8)
C19 C 0.535(2) 0.813(3) 0.4734(7)
C20 C 0.493(2) 0.838(4) 0.437(1)
C21 C 0.468(2) 0.726(3) 0.4123(8)
C22 C 0.347(1) 0.465(2) 0.3813(6)
C23 C 0.288(2) 0.476(3) 0.4138(7)
C24 C 0.199(2) 0.483(4) 0.408(1)
C25 C 0.170(2) 0.490(3) 0.368(1)
C26 C 0.228(2) 0.479(3) 0.3348(8)
C27 C 0.316(2) 0.465(3) 0.3422(8)
H1 H 0.982 0.278 0.168
H2 H 0.844 0.616 0.128
H3 H 0.751 0.607 0.184
H4 H 1.018 0.537 0.062
H5 H 0.916 0.579 0.071
H6 H 0.997 0.640 0.096
H7 H 1.069 0.347 0.076
H8 H 1.085 0.339 0.124
H9 H 1.011 0.247 0.101
H10 H 0.852 0.225 0.260
H11 H 0.893 0.141 0.223
H12 H 0.951 0.236 0.250
H13 H 0.570 0.664 0.268
H14 H 0.480 0.643 0.330
H15 H 0.596 0.275 0.359
H16 H 0.694 0.296 0.302
H17 H 0.580 0.661 0.514
H18 H 0.550 0.895 0.492
H19 H 0.480 0.937 0.426
H20 H 0.438 0.742 0.384
H21 H 0.310 0.474 0.442
H22 H 0.154 0.484 0.430
H23 H 0.103 0.496 0.362
H24 H 0.205 0.478 0.306
H25 H 0.356 0.467 0.320
N4 N 0.503(1) -0.090(2) 0.2490(5)
N5 N 0.564(1) 0.002(2) 0.2471(5)
C28 C 0.448(1) -0.071(2) 0.2845(6)
C29 C 0.379(1) -0.166(2) 0.2881(6)
C30 C 0.324(2) -0.154(3) 0.3217(7)
C31 C 0.334(1) -0.048(3) 0.3508(7)
C32 C 0.405(1) 0.044(3) 0.3455(7)
C33 C 0.461(1) 0.030(2) 0.3139(6)
N6 N 0.283(1) -0.039(2) 0.3847(5)
C34 C 0.222(2) -0.153(3) 0.3939(8)
C35 C 0.286(2) 0.084(4) 0.410(1)
C36 C 0.358(1) -0.269(2) 0.2570(8)
C37 C 0.618(1) -0.024(2) 0.2124(6)
C38 C 0.679(2) 0.076(3) 0.2046(7)
C39 C 0.736(2) 0.068(3) 0.1724(8)
C40 C 0.731(1) -0.044(2) 0.1458(6)
C41 C 0.670(1) -0.143(2) 0.1535(7)
C42 C 0.612(1) -0.136(2) 0.1858(6)
P2 P 0.7936(3) -0.0655(6) 0.1001(2)
O2 O 0.774(1) -0.198(2) 0.0801(5)
C43 C 0.770(1) 0.081(2) 0.0680(7)
C44 C 0.723(1) 0.061(3) 0.0336(7)
C45 C 0.698(2) 0.171(3) 0.0097(8)
C46 C 0.719(2) 0.301(4) 0.0200(9)
C47 C 0.768(1) 0.326(3) 0.0539(7)
C48 C 0.793(1) 0.217(3) 0.0790(7)
C49 C 0.909(1) -0.047(2) 0.1130(6)
C50 C 0.964(1) -0.045(2) 0.0780(5)
C51 C 1.055(2) -0.030(3) 0.084(1)
C52 C 1.086(2) -0.021(4) 0.122(1)
C53 C 1.034(2) -0.028(3) 0.1554(8)
C54 C 0.943(2) -0.038(3) 0.149(1)
H26 H 0.277 -0.223 0.325
H27 H 0.415 0.112 0.368
H28 H 0.511 0.093 0.310
H29 H 0.190 -0.136 0.419
H30 H 0.183 -0.172 0.368
H31 H 0.259 -0.241 0.400
H32 H 0.244 0.059 0.433
H33 H 0.343 0.088 0.425
H34 H 0.265 0.154 0.394
H35 H 0.402 -0.269 0.236
H36 H 0.359 -0.362 0.273
H37 H 0.305 -0.247 0.246
H38 H 0.685 0.161 0.225
H39 H 0.776 0.148 0.167
H40 H 0.667 -0.218 0.136
H41 H 0.565 -0.208 0.192
H42 H 0.706 -0.037 0.027
H43 H 0.660 0.144 -0.012
H44 H 0.698 0.383 0.001
H45 H 0.783 0.419 0.061
H46 H 0.829 0.234 0.105
H47 H 0.939 -0.056 0.049
H48 H 1.094 -0.033 0.057
H49 H 1.151 -0.007 0.124
H50 H 1.060 -0.021 0.183
H51 H 0.905 -0.046 0.172
loop_
_geom_bond_atom_site_label_1
_geom_bond_atom_site_label_2
_geom_bond_site_symmetry_1
_geom_bond_site_symmetry_2
N1 N2 1_555 1_555
N2 C10 1_555 1_555
C1 N1 1_555 1_555
C2 C1 1_555 1_555
C3 C2 1_555 1_555
C4 C3 1_555 1_555
C5 C4 1_555 1_555
C6 C1 1_555 1_555
N3 C4 1_555 1_555
C7 N3 1_555 1_555
C8 N3 1_555 1_555
C9 C2 1_555 1_555
C10 C11 1_555 1_555
C11 C12 1_555 1_555
C12 C13 1_555 1_555
C13 C14 1_555 1_555
C14 C15 1_555 1_555
C15 C10 1_555 1_555
P1 C13 1_555 1_555
O1 P1 1_555 1_555
C16 P1 1_555 1_555
C17 C16 1_555 1_555
C18 C17 1_555 1_555
C19 C18 1_555 1_555
C20 C19 1_555 1_555
C21 C16 1_555 1_555
C22 P1 1_555 1_555
C23 C22 1_555 1_555
C24 C23 1_555 1_555
C25 C24 1_555 1_555
C26 C25 1_555 1_555
C27 C22 1_555 1_555
N4 N5 1_555 1_555
N5 C37 1_555 1_555
C28 N4 1_555 1_555
C29 C28 1_555 1_555
C30 C29 1_555 1_555
C31 C30 1_555 1_555
C32 C31 1_555 1_555
C33 C28 1_555 1_555
N6 C31 1_555 1_555
C34 N6 1_555 1_555
C35 N6 1_555 1_555
C36 C29 1_555 1_555
C37 C38 1_555 1_555
C38 C39 1_555 1_555
C39 C40 1_555 1_555
C40 C41 1_555 1_555
C41 C42 1_555 1_555
C42 C37 1_555 1_555
P2 C40 1_555 1_555
O2 P2 1_555 1_555
C43 P2 1_555 1_555
C44 C43 1_555 1_555
C45 C44 1_555 1_555
C46 C45 1_555 1_555
C47 C46 1_555 1_555
C48 C43 1_555 1_555
C49 P2 1_555 1_555
C50 C49 1_555 1_555
C51 C50 1_555 1_555
C52 C51 1_555 1_555
C53 C52 1_555 1_555
C54 C49 1_555 1_555
H1 C3 1_555 1_555
H2 C5 1_555 1_555
H3 C6 1_555 1_555
H4 C7 1_555 1_555
H5 C7 1_555 1_555
H6 C7 1_555 1_555
H7 C8 1_555 1_555
H8 C8 1_555 1_555
H9 C8 1_555 1_555
H10 C9 1_555 1_555
H11 C9 1_555 1_555
H12 C9 1_555 1_555
H13 C11 1_555 1_555
H14 C12 1_555 1_555
H15 C14 1_555 1_555
H16 C15 1_555 1_555
H17 C18 1_555 1_555
H18 C19 1_555 1_555
H19 C20 1_555 1_555
H20 C21 1_555 1_555
H21 C23 1_555 1_555
H22 C24 1_555 1_555
H23 C25 1_555 1_555
H24 C26 1_555 1_555
H25 C27 1_555 1_555
H26 C30 1_555 1_555
H27 C32 1_555 1_555
H28 C33 1_555 1_555
H29 C34 1_555 1_555
H30 C34 1_555 1_555
H31 C34 1_555 1_555
H32 C35 1_555 1_555
H33 C35 1_555 1_555
H34 C35 1_555 1_555
H35 C36 1_555 1_555
H36 C36 1_555 1_555
H37 C36 1_555 1_555
H38 C38 1_555 1_555
H39 C39 1_555 1_555
H40 C41 1_555 1_555
H41 C42 1_555 1_555
H42 C44 1_555 1_555
H43 C45 1_555 1_555
H44 C46 1_555 1_555
H45 C47 1_555 1_555
H46 C48 1_555 1_555
H47 C50 1_555 1_555
H48 C51 1_555 1_555
H49 C52 1_555 1_555
H50 C53 1_555 1_555
H51 C54 1_555 1_555
C5 C6 1_555 1_555
C20 C21 1_555 1_555
C26 C27 1_555 1_555
C32 C33 1_555 1_555
C47 C48 1_555 1_555
C53 C54 1_555 1_555

#END
