
#######################################################################
#
#                 Cambridge Crystallographic Data Centre
#                                CCDC 
#
#######################################################################
#
# If this CIF has been generated from an entry in the Cambridge 
# Structural Database, then it will include bibliographic, chemical, 
# crystal, experimental, refinement or atomic coordinate data resulting 
# from the CCDC's data processing and validation procedures.
#
#######################################################################

data_ZOWSIN
_chemical_formula_moiety         'C26 H24 N3 O1 P1'
_chemical_name_systematic        
"4-(Diphenylphosphine oxide)benzene-1-azo-(4'-dimethylaminobenzene)"
_symmetry_cell_setting           triclinic
_symmetry_space_group_name_H-M   'P -1'
_symmetry_Int_Tables_number      2
_space_group_name_Hall           '-P 1'
loop_
_symmetry_equiv_pos_site_id
_symmetry_equiv_pos_as_xyz
1 x,y,z
2 -x,-y,-z
_cell_length_a                   21.838(5)
_cell_length_b                   6.327(3)
_cell_length_c                   8.452(2)
_cell_angle_alpha                108.58(3)
_cell_angle_beta                 98.78(2)
_cell_angle_gamma                90.97(3)
_cell_volume                     1091.28
_exptl_crystal_colour            'blood red'
_cell_formula_units_Z            2
loop_
_atom_site_label
_atom_site_type_symbol
_atom_site_fract_x
_atom_site_fract_y
_atom_site_fract_z
N1 N 0.4107(1) 0.4888(5) 0.3558(3)
N2 N 0.3961(1) 0.2912(5) 0.3246(3)
P1 P 0.16505(4) 0.0578(2) 0.5613(1)
O1 O 0.16811(9) -0.1796(4) 0.5526(2)
N3 N 0.6299(1) 0.6600(5) 0.1304(3)
C1 C 0.6487(2) 0.8819(7) 0.1408(5)
C2 C 0.6648(2) 0.4829(7) 0.0410(4)
C3 C 0.4679(1) 0.5201(6) 0.2937(4)
C4 C 0.4887(1) 0.7348(7) 0.3230(4)
C5 C 0.5421(1) 0.7838(6) 0.2712(4)
C6 C 0.5767(1) 0.6138(6) 0.1839(4)
C7 C 0.5545(1) 0.3939(6) 0.1537(4)
C8 C 0.5008(1) 0.3485(6) 0.2083(4)
C9 C 0.3383(1) 0.2624(6) 0.3876(4)
C10 C 0.3194(1) 0.0428(6) 0.3539(4)
C11 C 0.2665(1) -0.0118(6) 0.4060(4)
C12 C 0.2315(1) 0.1537(5) 0.4932(3)
C13 C 0.2509(1) 0.3748(5) 0.5262(4)
C14 C 0.3044(1) 0.4290(6) 0.4733(4)
C15 C 0.1638(1) 0.2371(5) 0.7761(3)
C16 C 0.1490(1) 0.4565(6) 0.8215(4)
C17 C 0.1494(2) 0.5769(6) 0.9914(4)
C18 C 0.1650(1) 0.4769(6) 1.1133(4)
C19 C 0.1795(2) 0.2603(7) 1.0686(4)
C20 C 0.1791(1) 0.1390(6) 0.8995(4)
C21 C 0.0965(1) 0.0947(5) 0.4276(3)
C22 C 0.0825(1) 0.2886(6) 0.3953(4)
C23 C 0.0280(2) 0.2939(7) 0.2891(5)
C24 C -0.0122(1) 0.1094(7) 0.2143(4)
C25 C 0.0016(1) -0.0839(6) 0.2440(4)
C26 C 0.0556(1) -0.0908(6) 0.3515(4)
H1 H 0.688 0.892 0.100
H2 H 0.615 0.949 0.079
H3 H 0.655 0.984 0.267
H4 H 0.703 0.550 0.011
H5 H 0.680 0.391 0.114
H6 H 0.639 0.386 -0.066
H7 H 0.463 0.863 0.385
H8 H 0.558 0.949 0.301
H9 H 0.579 0.268 0.090
H10 H 0.484 0.184 0.184
H11 H 0.345 -0.078 0.290
H12 H 0.251 -0.177 0.381
H13 H 0.225 0.498 0.589
H14 H 0.319 0.595 0.500
H15 H 0.138 0.529 0.729
H16 H 0.138 0.740 1.027
H17 H 0.163 0.563 1.236
H18 H 0.192 0.192 1.163
H19 H 0.191 -0.025 0.864
H20 H 0.113 0.430 0.453
H21 H 0.017 0.440 0.262
H22 H -0.053 0.111 0.134
H23 H -0.028 -0.224 0.187
H24 H 0.066 -0.236 0.378
loop_
_geom_bond_atom_site_label_1
_geom_bond_atom_site_label_2
_geom_bond_site_symmetry_1
_geom_bond_site_symmetry_2
N1 N2 1_555 1_555
N2 C9 1_555 1_555
P1 O1 1_555 1_555
N3 C1 1_555 1_555
C1 H1 1_555 1_555
C2 N3 1_555 1_555
C3 N1 1_555 1_555
C4 C3 1_555 1_555
C5 C4 1_555 1_555
C6 N3 1_555 1_555
C7 C6 1_555 1_555
C8 C3 1_555 1_555
C9 C10 1_555 1_555
C10 C11 1_555 1_555
C11 C12 1_555 1_555
C12 P1 1_555 1_555
C13 C12 1_555 1_555
C14 C9 1_555 1_555
C15 P1 1_555 1_555
C16 C15 1_555 1_555
C17 C16 1_555 1_555
C18 C17 1_555 1_555
C19 C18 1_555 1_555
C20 C15 1_555 1_555
C21 P1 1_555 1_555
C22 C21 1_555 1_555
C23 C22 1_555 1_555
C24 C23 1_555 1_555
C25 C24 1_555 1_555
C26 C21 1_555 1_555
H2 C1 1_555 1_555
H3 C1 1_555 1_555
H4 C2 1_555 1_555
H5 C2 1_555 1_555
H6 C2 1_555 1_555
H7 C4 1_555 1_555
H8 C5 1_555 1_555
H9 C7 1_555 1_555
H10 C8 1_555 1_555
H11 C10 1_555 1_555
H12 C11 1_555 1_555
H13 C13 1_555 1_555
H14 C14 1_555 1_555
H15 C16 1_555 1_555
H16 C17 1_555 1_555
H17 C18 1_555 1_555
H18 C19 1_555 1_555
H19 C20 1_555 1_555
H20 C22 1_555 1_555
H21 C23 1_555 1_555
H22 C24 1_555 1_555
H23 C25 1_555 1_555
H24 C26 1_555 1_555
C5 C6 1_555 1_555
C7 C8 1_555 1_555
C13 C14 1_555 1_555
C19 C20 1_555 1_555
C25 C26 1_555 1_555

#END
