
#######################################################################
#
#                 Cambridge Crystallographic Data Centre
#                                CCDC 
#
#######################################################################
#
# If this CIF has been generated from an entry in the Cambridge 
# Structural Database, then it will include bibliographic, chemical, 
# crystal, experimental, refinement or atomic coordinate data resulting 
# from the CCDC's data processing and validation procedures.
#
#######################################################################

data_ZOWVEO
_chemical_formula_moiety         'C22 H23 N1 O3'
_chemical_name_systematic        
'cyano(3-phenoxyphenyl)methyl 2,2,3,3-tetramethylcyclopropanecarboxylate'
_symmetry_cell_setting           monoclinic
_symmetry_space_group_name_H-M   'P 21/n'
_symmetry_Int_Tables_number      14
_space_group_name_Hall           '-P 2yn'
loop_
_symmetry_equiv_pos_site_id
_symmetry_equiv_pos_as_xyz
1 x,y,z
2 1/2-x,1/2+y,1/2-z
3 -x,-y,-z
4 1/2+x,1/2-y,1/2+z
_cell_length_a                   16.2578(4)
_cell_length_b                   6.47990(10)
_cell_length_c                   19.2475(4)
_cell_angle_alpha                90
_cell_angle_beta                 112.4530(10)
_cell_angle_gamma                90
_cell_volume                     1873.99
_exptl_crystal_colour            colorless
_exptl_crystal_description       block
_cell_formula_units_Z            4
loop_
_atom_site_label
_atom_site_type_symbol
_atom_site_fract_x
_atom_site_fract_y
_atom_site_fract_z
O1 O 0.25941(6) 0.19890(17) 0.14087(5)
O2 O 0.11426(5) 0.23376(13) 0.12141(5)
O3 O -0.11802(6) 0.44803(17) 0.26198(5)
N1 N 0.13768(10) 0.73437(19) 0.16331(8)
C1 C 0.27819(9) 0.1836(2) -0.01169(8)
H1 H 0.3141 0.1697 0.0421
H2 H 0.2674 0.3301 -0.0246
H3 H 0.3101 0.1220 -0.0407
C2 C 0.12837(9) 0.1063(2) -0.11154(7)
H4 H 0.1523 0.0346 -0.1446
H5 H 0.1236 0.2541 -0.1231
H6 H 0.0693 0.0510 -0.1195
C3 C 0.27228(8) -0.2137(2) 0.06589(7)
H7 H 0.3072 -0.2780 0.0400
H8 H 0.2576 -0.3175 0.0964
H9 H 0.3071 -0.1027 0.0985
C4 C 0.12233(9) -0.2931(2) -0.03358(8)
H10 H 0.0656 -0.2302 -0.0653
H11 H 0.1127 -0.3870 0.0025
H12 H 0.1467 -0.3705 -0.0651
C5 C 0.19010(8) 0.07394(19) -0.03022(7)
C6 C 0.18727(8) -0.12554(19) 0.00844(6)
C7 C 0.14512(8) 0.06898(19) 0.02724(7)
H13 H 0.0786 0.0709 0.0040
C8 C 0.18266(8) 0.16961(19) 0.10115(7)
C9 C 0.14081(8) 0.33957(19) 0.19286(7)
H14 H 0.2032 0.2990 0.2249
C10 C 0.13830(9) 0.5631(2) 0.17713(7)
C11 C 0.07965(8) 0.27541(18) 0.23146(6)
C12 C 0.09429(8) 0.08420(19) 0.26710(7)
H15 H 0.1421 -0.0002 0.2672
C13 C 0.03936(9) 0.0168(2) 0.30239(7)
H16 H 0.0498 -0.1136 0.3268
C14 C -0.03081(9) 0.1380(2) 0.30238(7)
H17 H -0.0689 0.0914 0.3262
C15 C -0.04459(8) 0.3284(2) 0.26703(7)
C16 C 0.01002(8) 0.39989(19) 0.23177(6)
H18 H 0.0001 0.5315 0.2082
C17 C -0.11112(8) 0.5735(2) 0.32213(7)
C18 C -0.03504(8) 0.5875(2) 0.38729(7)
H19 H 0.0160 0.5068 0.3932
C19 C -0.03484(9) 0.7219(2) 0.44377(7)
H20 H 0.0170 0.7332 0.4885
C20 C -0.10902(9) 0.8391(2) 0.43572(7)
H21 H -0.1081 0.9307 0.4746
C21 C -0.18498(9) 0.8219(2) 0.37035(8)
H22 H -0.2363 0.9013 0.3648
C22 C -0.18637(8) 0.6899(2) 0.31336(7)
H23 H -0.2382 0.6789 0.2687
loop_
_geom_bond_atom_site_label_1
_geom_bond_atom_site_label_2
_geom_bond_site_symmetry_1
_geom_bond_site_symmetry_2
O1 C8 1_555 1_555
O2 C8 1_555 1_555
O3 C15 1_555 1_555
N1 C10 1_555 1_555
C1 H1 1_555 1_555
H2 C1 1_555 1_555
H3 C1 1_555 1_555
C2 H4 1_555 1_555
H5 C2 1_555 1_555
H6 C2 1_555 1_555
C3 H7 1_555 1_555
H8 C3 1_555 1_555
H9 C3 1_555 1_555
C4 H10 1_555 1_555
H11 C4 1_555 1_555
H12 C4 1_555 1_555
C5 C1 1_555 1_555
C6 C3 1_555 1_555
C7 C5 1_555 1_555
H13 C7 1_555 1_555
C8 C7 1_555 1_555
C9 O2 1_555 1_555
H14 C9 1_555 1_555
C10 C9 1_555 1_555
C11 C9 1_555 1_555
C12 C11 1_555 1_555
H15 C12 1_555 1_555
C13 C12 1_555 1_555
H16 C13 1_555 1_555
C14 C13 1_555 1_555
H17 C14 1_555 1_555
C15 C14 1_555 1_555
C16 C11 1_555 1_555
H18 C16 1_555 1_555
C17 O3 1_555 1_555
C18 C17 1_555 1_555
H19 C18 1_555 1_555
C19 C18 1_555 1_555
H20 C19 1_555 1_555
C20 C19 1_555 1_555
H21 C20 1_555 1_555
C21 C20 1_555 1_555
H22 C21 1_555 1_555
C22 C17 1_555 1_555
H23 C22 1_555 1_555
C2 C5 1_555 1_555
C4 C6 1_555 1_555
C5 C6 1_555 1_555
C6 C7 1_555 1_555
C15 C16 1_555 1_555
C21 C22 1_555 1_555

#END
