
#######################################################################
#
#                 Cambridge Crystallographic Data Centre
#                                CCDC 
#
#######################################################################
#
# If this CIF has been generated from an entry in the Cambridge 
# Structural Database, then it will include bibliographic, chemical, 
# crystal, experimental, refinement or atomic coordinate data resulting 
# from the CCDC's data processing and validation procedures.
#
#######################################################################

data_ZOWVUE
_chemical_name_common            
(R)-1-benzyl-3-hydroxy-3-(2-hydroxy-4,5-dimethoxyphenyl)indolin-2-one
_chemical_formula_moiety         'C23 H21 N1 O5'
_chemical_name_systematic        
1-benzyl-3-hydroxy-3-(2-hydroxy-4,5-dimethoxyphenyl)-1,3-dihydro-2H-indol-2-one
_symmetry_cell_setting           monoclinic
_symmetry_space_group_name_H-M   'P 21'
_symmetry_Int_Tables_number      4
_space_group_name_Hall           'P 2yb'
loop_
_symmetry_equiv_pos_site_id
_symmetry_equiv_pos_as_xyz
1 x,y,z
2 -x,1/2+y,-z
_cell_length_a                   8.4183(14)
_cell_length_b                   12.2957(19)
_cell_length_c                   9.3671(16)
_cell_angle_alpha                90
_cell_angle_beta                 97.016(6)
_cell_angle_gamma                90
_cell_volume                     962.318
_exptl_crystal_colour            colorless
_exptl_crystal_description       Prism
_cell_formula_units_Z            2
_exptl_crystal_recrystallization_method Ethanol
loop_
_atom_site_label
_atom_site_type_symbol
_atom_site_fract_x
_atom_site_fract_y
_atom_site_fract_z
C1 C -0.54410(19) 0.35424(16) 1.33434(16)
H1 H -0.6530 0.3681 1.3566
H2 H -0.4669 0.3880 1.4079
H3 H -0.5251 0.2756 1.3328
C2 C -0.37827(16) 0.39438(13) 1.15244(15)
C3 C -0.37069(16) 0.43323(12) 1.01256(15)
C4 C -0.22563(16) 0.43485(12) 0.95832(15)
H4 H -0.2205 0.4623 0.8642
C5 C -0.08533(16) 0.39671(12) 1.03935(14)
C6 C 0.07730(16) 0.40644(12) 0.98360(14)
C7 C 0.14560(16) 0.28982(12) 0.96873(15)
C8 C 0.19483(17) 0.16321(13) 0.77145(16)
H5 H 0.1241 0.1448 0.6824
H6 H 0.1828 0.1055 0.8430
C9 C 0.36609(18) 0.16501(12) 0.73917(16)
C10 C 0.48890(19) 0.19231(14) 0.84670(18)
H7 H 0.4640 0.2123 0.9394
C11 C 0.6470(2) 0.19060(15) 0.8196(2)
H8 H 0.7301 0.2092 0.8935
C12 C 0.6835(2) 0.16177(16) 0.6847(2)
H9 H 0.7919 0.1608 0.6658
C13 C -0.5094(2) 0.51073(18) 0.80007(18)
H10 H -0.6169 0.5344 0.7602
H11 H -0.4717 0.4547 0.7379
H12 H -0.4362 0.5730 0.8055
C14 C -0.09580(16) 0.35454(12) 1.17653(14)
C15 C -0.24200(17) 0.35441(13) 1.23275(14)
H13 H -0.2479 0.3267 1.3266
C16 C 0.06986(15) 0.44607(12) 0.83041(14)
C17 C 0.10585(16) 0.36083(12) 0.74217(15)
C18 C 0.4041(2) 0.13572(15) 0.60355(17)
H14 H 0.3216 0.1168 0.5293
C19 C 0.5629(2) 0.13434(17) 0.5772(2)
H15 H 0.5887 0.1144 0.4848
C20 C 0.10773(17) 0.37290(12) 0.59565(15)
H16 H 0.1307 0.3134 0.5368
C21 C 0.07434(18) 0.47628(13) 0.53787(15)
H17 H 0.0728 0.4873 0.4373
C22 C 0.04323(18) 0.56343(13) 0.62509(16)
H18 H 0.0241 0.6336 0.5840
C23 C 0.03981(17) 0.54857(13) 0.77311(15)
H19 H 0.0173 0.6077 0.8327
N1 N 0.14378(14) 0.26685(10) 0.82684(13)
O1 O -0.52546(12) 0.39919(10) 1.19726(11)
O2 O -0.51422(12) 0.46722(10) 0.94073(11)
O3 O 0.03056(12) 0.31339(9) 1.26573(11)
H20 H 0.103(2) 0.2956(18) 1.214(2)
O4 O 0.17299(12) 0.47060(9) 1.08535(11)
H21 H 0.265(3) 0.4614(17) 1.070(2)
O5 O 0.19277(12) 0.22851(9) 1.06823(11)
loop_
_geom_bond_atom_site_label_1
_geom_bond_atom_site_label_2
_geom_bond_site_symmetry_1
_geom_bond_site_symmetry_2
C1 H1 1_555 1_555
H2 C1 1_555 1_555
H3 C1 1_555 1_555
C2 C3 1_555 1_555
C3 C4 1_555 1_555
C4 H4 1_555 1_555
C5 C4 1_555 1_555
C6 C5 1_555 1_555
C7 C6 1_555 1_555
C8 H5 1_555 1_555
H6 C8 1_555 1_555
C9 C8 1_555 1_555
C10 C9 1_555 1_555
H7 C10 1_555 1_555
C11 C10 1_555 1_555
H8 C11 1_555 1_555
C12 C11 1_555 1_555
H9 C12 1_555 1_555
C13 H10 1_555 1_555
H11 C13 1_555 1_555
H12 C13 1_555 1_555
C14 C5 1_555 1_555
C15 C2 1_555 1_555
H13 C15 1_555 1_555
C16 C6 1_555 1_555
C17 C16 1_555 1_555
C18 C9 1_555 1_555
H14 C18 1_555 1_555
C19 C12 1_555 1_555
H15 C19 1_555 1_555
C20 C17 1_555 1_555
H16 C20 1_555 1_555
C21 C20 1_555 1_555
H17 C21 1_555 1_555
C22 C21 1_555 1_555
H18 C22 1_555 1_555
C23 C16 1_555 1_555
H19 C23 1_555 1_555
N1 C7 1_555 1_555
O1 C1 1_555 1_555
O2 C3 1_555 1_555
O3 C14 1_555 1_555
H20 O3 1_555 1_555
O4 C6 1_555 1_555
H21 O4 1_555 1_555
O5 C7 1_555 1_555
C2 O1 1_555 1_555
C8 N1 1_555 1_555
C13 O2 1_555 1_555
C14 C15 1_555 1_555
C17 N1 1_555 1_555
C18 C19 1_555 1_555
C22 C23 1_555 1_555

#END
