
#######################################################################
#
#                 Cambridge Crystallographic Data Centre
#                                CCDC 
#
#######################################################################
#
# If this CIF has been generated from an entry in the Cambridge 
# Structural Database, then it will include bibliographic, chemical, 
# crystal, experimental, refinement or atomic coordinate data resulting 
# from the CCDC's data processing and validation procedures.
#
#######################################################################

data_ZOWYUH
_chemical_formula_moiety         'C29 H57 N1 O2 Si5'
_chemical_name_systematic        
N-(2,6-diisopropylphenyl)-5,5,8,8-tetrakis(trimethylsilyl)-1,3-dioxa-4-silaspiro[3.4]octan-2-imine
_symmetry_cell_setting           triclinic
_symmetry_space_group_name_H-M   'P -1'
_symmetry_Int_Tables_number      2
_space_group_name_Hall           '-P 1'
loop_
_symmetry_equiv_pos_site_id
_symmetry_equiv_pos_as_xyz
1 x,y,z
2 -x,-y,-z
_cell_length_a                   11.397(7)
_cell_length_b                   11.592(6)
_cell_length_c                   15.405(9)
_cell_angle_alpha                76.520(14)
_cell_angle_beta                 70.677(11)
_cell_angle_gamma                73.386(12)
_cell_volume                     1818.68
_exptl_crystal_colour            colorless
_exptl_crystal_description       prism
_cell_formula_units_Z            2
loop_
_atom_site_label
_atom_site_type_symbol
_atom_site_fract_x
_atom_site_fract_y
_atom_site_fract_z
Si1 Si 0.75031(6) 0.10877(5) 0.22372(4)
Si2 Si 0.94259(7) 0.11804(7) 0.32887(6)
Si3 Si 0.54779(8) 0.23811(7) 0.11595(5)
Si4 Si 0.46562(8) 0.20999(9) 0.33467(6)
Si5 Si 0.98953(10) 0.22878(11) 0.11973(6)
O1 O 0.80346(16) 0.01015(14) 0.14488(10)
O2 O 0.73336(16) -0.02852(14) 0.29316(10)
N1 N 0.7900(2) -0.19026(18) 0.20530(14)
C1 C 0.6020(2) 0.2273(2) 0.22337(17)
C2 C 0.6505(3) 0.3447(2) 0.2172(2)
H1 H 0.6774 0.3810 0.1525
H2 H 0.5806 0.4039 0.2498
C3 C 0.7624(3) 0.3151(2) 0.2596(2)
H3 H 0.7293 0.3082 0.3268
H4 H 0.8061 0.3815 0.2376
C4 C 0.8610(2) 0.1925(2) 0.23308(17)
C5 C 0.5116(4) 0.2069(5) 0.4389(3)
H5 H 0.5302 0.2836 0.4365
H6 H 0.5860 0.1427 0.4414
H7 H 0.4427 0.1930 0.4935
C6 C 0.4117(6) 0.0650(6) 0.3523(4)
H8 H 0.4848 -0.0021 0.3435
H9 H 0.3663 0.0716 0.3081
H10 H 0.3564 0.0517 0.4143
C7 C 0.3261(4) 0.3421(6) 0.3356(3)
H11 H 0.2650 0.3374 0.3959
H12 H 0.2872 0.3402 0.2895
H13 H 0.3543 0.4166 0.3217
C8 C 0.4866(5) 0.1041(4) 0.1181(3)
H14 H 0.4666 0.1117 0.0609
H15 H 0.4110 0.1009 0.1694
H16 H 0.5507 0.0308 0.1252
C9 C 0.4246(3) 0.3811(3) 0.1026(3)
H17 H 0.4499 0.4476 0.1132
H18 H 0.3443 0.3723 0.1470
H19 H 0.4158 0.3973 0.0407
C10 C 0.6788(4) 0.2449(4) 0.0061(2)
H20 H 0.6545 0.2267 -0.0424
H21 H 0.7545 0.1864 0.0147
H22 H 0.6952 0.3251 -0.0110
C11 C 1.0698(6) 0.0967(7) 0.0591(4)
H23 H 1.1572 0.1001 0.0278
H24 H 1.0275 0.0976 0.0143
H25 H 1.0668 0.0233 0.1034
C12 C 1.1114(4) 0.2906(4) 0.1383(3)
H26 H 1.1571 0.2299 0.1770
H27 H 1.0700 0.3615 0.1682
H28 H 1.1700 0.3122 0.0794
C13 C 0.9220(6) 0.3598(7) 0.0386(4)
H29 H 0.9905 0.3847 -0.0119
H30 H 0.8740 0.4267 0.0719
H31 H 0.8670 0.3347 0.0146
C14 C 0.9852(4) 0.2361(4) 0.3703(3)
H32 H 0.9086 0.2906 0.3995
H33 H 1.0359 0.2812 0.3182
H34 H 1.0330 0.1970 0.4143
C15 C 1.0891(4) -0.0026(3) 0.2905(3)
H35 H 1.1251 -0.0388 0.3415
H36 H 1.1504 0.0330 0.2398
H37 H 1.0671 -0.0641 0.2705
C16 C 0.8410(4) 0.0407(4) 0.4339(2)
H38 H 0.8129 -0.0189 0.4165
H39 H 0.7681 0.0998 0.4621
H40 H 0.8894 0.0013 0.4775
C17 C 0.7764(2) -0.0829(2) 0.21511(16)
C18 C 0.7555(3) -0.2809(2) 0.28307(17)
C19 C 0.8420(3) -0.3423(2) 0.33455(18)
C20 C 0.8076(3) -0.4361(3) 0.4056(2)
H41 H 0.8622 -0.4767 0.4420
C21 C 0.6951(4) -0.4700(3) 0.4230(2)
H42 H 0.6753 -0.5342 0.4698
C22 C 0.6115(3) -0.4092(3) 0.3714(2)
H43 H 0.5349 -0.4322 0.3844
C23 C 0.6398(3) -0.3140(2) 0.3001(2)
C24 C 0.5512(3) -0.2480(3) 0.2400(3)
H44 H 0.5533 -0.1617 0.2281
C25 C 0.6007(5) -0.2917(4) 0.1463(3)
H45 H 0.6867 -0.2824 0.1172
H46 H 0.5476 -0.2445 0.1075
H47 H 0.5990 -0.3761 0.1549
C26 C 0.4114(4) -0.2552(5) 0.2864(5)
H48 H 0.4032 -0.3366 0.2906
H49 H 0.3589 -0.1996 0.2499
H50 H 0.3844 -0.2339 0.3477
C27 C 0.9693(3) -0.3093(3) 0.3132(2)
H51 H 0.9558 -0.2211 0.2928
C28 C 1.0658(4) -0.3698(5) 0.2320(3)
H52 H 1.1447 -0.3453 0.2169
H53 H 1.0331 -0.3456 0.1789
H54 H 1.0802 -0.4568 0.2491
C29 C 1.0259(5) -0.3380(5) 0.3941(3)
H55 H 0.9661 -0.2979 0.4446
H56 H 1.1035 -0.3098 0.3748
H57 H 1.0441 -0.4244 0.4143
loop_
_geom_bond_atom_site_label_1
_geom_bond_atom_site_label_2
_geom_bond_site_symmetry_1
_geom_bond_site_symmetry_2
Si1 O1 1_555 1_555
Si2 C4 1_555 1_555
Si3 C1 1_555 1_555
Si4 C1 1_555 1_555
Si5 C4 1_555 1_555
O1 C17 1_555 1_555
O2 Si1 1_555 1_555
N1 C17 1_555 1_555
C1 Si1 1_555 1_555
C2 C1 1_555 1_555
H1 C2 1_555 1_555
H2 C2 1_555 1_555
C3 C2 1_555 1_555
H3 C3 1_555 1_555
H4 C3 1_555 1_555
C4 Si1 1_555 1_555
C5 Si4 1_555 1_555
H5 C5 1_555 1_555
H6 C5 1_555 1_555
H7 C5 1_555 1_555
C6 Si4 1_555 1_555
H8 C6 1_555 1_555
H9 C6 1_555 1_555
H10 C6 1_555 1_555
C7 Si4 1_555 1_555
H11 C7 1_555 1_555
H12 C7 1_555 1_555
H13 C7 1_555 1_555
C8 Si3 1_555 1_555
H14 C8 1_555 1_555
H15 C8 1_555 1_555
H16 C8 1_555 1_555
C9 Si3 1_555 1_555
H17 C9 1_555 1_555
H18 C9 1_555 1_555
H19 C9 1_555 1_555
C10 Si3 1_555 1_555
H20 C10 1_555 1_555
H21 C10 1_555 1_555
H22 C10 1_555 1_555
C11 Si5 1_555 1_555
H23 C11 1_555 1_555
H24 C11 1_555 1_555
H25 C11 1_555 1_555
C12 Si5 1_555 1_555
H26 C12 1_555 1_555
H27 C12 1_555 1_555
H28 C12 1_555 1_555
C13 Si5 1_555 1_555
H29 C13 1_555 1_555
H30 C13 1_555 1_555
H31 C13 1_555 1_555
C14 Si2 1_555 1_555
H32 C14 1_555 1_555
H33 C14 1_555 1_555
H34 C14 1_555 1_555
C15 Si2 1_555 1_555
H35 C15 1_555 1_555
H36 C15 1_555 1_555
H37 C15 1_555 1_555
C16 Si2 1_555 1_555
H38 C16 1_555 1_555
H39 C16 1_555 1_555
H40 C16 1_555 1_555
C17 O2 1_555 1_555
C18 N1 1_555 1_555
C19 C18 1_555 1_555
C20 C19 1_555 1_555
H41 C20 1_555 1_555
C21 C20 1_555 1_555
H42 C21 1_555 1_555
C22 C21 1_555 1_555
H43 C22 1_555 1_555
C23 C18 1_555 1_555
C24 C23 1_555 1_555
H44 C24 1_555 1_555
C25 C24 1_555 1_555
H45 C25 1_555 1_555
H46 C25 1_555 1_555
H47 C25 1_555 1_555
C26 C24 1_555 1_555
H48 C26 1_555 1_555
H49 C26 1_555 1_555
H50 C26 1_555 1_555
C27 C19 1_555 1_555
H51 C27 1_555 1_555
C28 C27 1_555 1_555
H52 C28 1_555 1_555
H53 C28 1_555 1_555
H54 C28 1_555 1_555
C29 C27 1_555 1_555
H55 C29 1_555 1_555
H56 C29 1_555 1_555
H57 C29 1_555 1_555
C3 C4 1_555 1_555
C22 C23 1_555 1_555

#END
