
#######################################################################
#
#                 Cambridge Crystallographic Data Centre
#                                CCDC 
#
#######################################################################
#
# If this CIF has been generated from an entry in the Cambridge 
# Structural Database, then it will include bibliographic, chemical, 
# crystal, experimental, refinement or atomic coordinate data resulting 
# from the CCDC's data processing and validation procedures.
#
#######################################################################

data_ZOXQAG
_chemical_formula_moiety         'C66 H86 Mg1 N4,C7 H8'
_chemical_name_systematic        
'bis(N-(2-((2,6-diisopropylphenyl)imino)-3-phenylpropyl)-2,6-diisopropylanilinato)-magnesium toluene solvate'
_symmetry_cell_setting           monoclinic
_symmetry_space_group_name_H-M   'C 2/c'
_symmetry_Int_Tables_number      15
_space_group_name_Hall           '-C 2yn'
loop_
_symmetry_equiv_pos_site_id
_symmetry_equiv_pos_as_xyz
1 x,y,z
2 -x,y,1/2-z
3 1/2+x,1/2+y,z
4 1/2-x,1/2+y,1/2-z
5 -x,-y,-z
6 x,-y,1/2+z
7 1/2-x,1/2-y,-z
8 1/2+x,1/2-y,1/2+z
_cell_length_a                   17.809(5)
_cell_length_b                   19.577(5)
_cell_length_c                   17.603(5)
_cell_angle_alpha                90
_cell_angle_beta                 98.479(5)
_cell_angle_gamma                90
_cell_volume                     6070.15
_exptl_crystal_colour            orange
_exptl_crystal_description       plate
_cell_formula_units_Z            4
loop_
_atom_site_label
_atom_site_type_symbol
_atom_site_fract_x
_atom_site_fract_y
_atom_site_fract_z
Mg1 Mg 0.0000 0.29704(2) 0.7500
N1 N -0.10928(4) 0.32060(4) 0.71455(5)
N2 N -0.00850(4) 0.25979(4) 0.63065(5)
C1 C -0.13257(5) 0.30694(5) 0.63402(5)
H1 H -0.1429 0.3502 0.6076
H2 H -0.1797 0.2814 0.6283
C2 C -0.07675(5) 0.26822(5) 0.59534(5)
C3 C -0.10635(6) 0.24383(5) 0.51480(5)
H3 H -0.0647 0.2436 0.4850
H4 H -0.1438 0.2763 0.4910
C4 C -0.14211(5) 0.17304(5) 0.51094(6)
C5 C -0.16930(7) 0.14268(6) 0.57313(6)
H5 H -0.1643 0.1654 0.6200
C6 C -0.20381(7) 0.07877(7) 0.56588(8)
H6 H -0.2216 0.0591 0.6079
C7 C -0.21175(7) 0.04426(6) 0.49632(8)
H7 H -0.2351 0.0017 0.4915
C8 C -0.18470(7) 0.07367(6) 0.43412(7)
H8 H -0.1898 0.0508 0.3874
C9 C -0.14985(6) 0.13739(6) 0.44143(6)
H9 H -0.1314 0.1565 0.3995
C10 C 0.04640(5) 0.23193(5) 0.58556(5)
C11 C 0.08450(6) 0.27838(6) 0.54321(6)
C12 C 0.13221(6) 0.25143(7) 0.49431(6)
H10 H 0.1574 0.2810 0.4653
C13 C 0.14265(7) 0.18162(7) 0.48830(7)
H11 H 0.1731 0.1646 0.4540
C14 C 0.10792(7) 0.13725(6) 0.53322(6)
H12 H 0.1168 0.0906 0.5302
C15 C 0.05952(6) 0.16131(6) 0.58338(6)
C16 C 0.02658(6) 0.11145(5) 0.63577(6)
H13 H -0.0154 0.1342 0.6558
C17 C 0.08742(7) 0.09350(7) 0.70411(7)
H14 H 0.1302 0.0730 0.6856
H15 H 0.0667 0.0620 0.7373
H16 H 0.1034 0.1343 0.7321
C18 C -0.00432(7) 0.04611(6) 0.59464(7)
H17 H -0.0374 0.0579 0.5484
H18 H -0.0321 0.0204 0.6277
H19 H 0.0372 0.0191 0.5821
C19 C 0.07484(6) 0.35551(6) 0.54945(6)
H20 H 0.0614 0.3650 0.6004
C20 C 0.14822(7) 0.39440(7) 0.54319(7)
H21 H 0.1888 0.3761 0.5794
H22 H 0.1415 0.4419 0.5541
H23 H 0.1604 0.3897 0.4921
C21 C 0.01072(7) 0.38365(7) 0.48997(8)
H24 H 0.0199 0.3715 0.4393
H25 H 0.0089 0.4325 0.4943
H26 H -0.0368 0.3646 0.4990
C22 C -0.17128(5) 0.35327(5) 0.74320(5)
C23 C -0.23580(5) 0.31507(5) 0.75752(6)
C24 C -0.29849(6) 0.34885(6) 0.77920(6)
H27 H -0.3405 0.3235 0.7882
C25 C -0.29960(6) 0.41915(6) 0.78765(7)
H28 H -0.3419 0.4409 0.8018
C26 C -0.23684(6) 0.45652(6) 0.77464(6)
H29 H -0.2371 0.5037 0.7807
C27 C -0.17304(5) 0.42504(5) 0.75254(6)
C28 C -0.23932(6) 0.23767(5) 0.75031(6)
H30 H -0.1898 0.2215 0.7398
C29 C -0.29982(6) 0.21399(6) 0.68414(7)
H31 H -0.3489 0.2292 0.6933
H32 H -0.2994 0.1650 0.6811
H33 H -0.2889 0.2330 0.6367
C30 C -0.25524(7) 0.20431(7) 0.82480(7)
H34 H -0.2189 0.2202 0.8668
H35 H -0.2513 0.1556 0.8206
H36 H -0.3055 0.2162 0.8338
C31 C -0.13283(7) 0.51521(7) 0.66543(8)
H37 H -0.1474 0.4863 0.6216
H38 H -0.0913 0.5438 0.6563
H39 H -0.1751 0.5432 0.6737
C32 C -0.10833(6) 0.47083(5) 0.73665(6)
H40 H -0.0666 0.4415 0.7259
C33 C -0.07913(7) 0.51468(6) 0.80666(7)
H41 H -0.1196 0.5430 0.8193
H42 H -0.0382 0.5430 0.7952
H43 H -0.0613 0.4856 0.8494
N1A N 0.10928(4) 0.32060(4) 0.78545(5)
N2A N 0.00850(4) 0.25979(4) 0.86935(5)
C1A C 0.13257(5) 0.30694(5) 0.86598(5)
H1A H 0.1429 0.3502 0.8924
H2A H 0.1797 0.2814 0.8717
C2A C 0.07675(5) 0.26822(5) 0.90466(5)
C3A C 0.10635(6) 0.24383(5) 0.98520(5)
H3A H 0.0647 0.2436 1.0150
H4A H 0.1438 0.2763 1.0090
C4A C 0.14211(5) 0.17304(5) 0.98906(6)
C5A C 0.16930(7) 0.14268(6) 0.92687(6)
H5A H 0.1643 0.1654 0.8800
C6A C 0.20381(7) 0.07877(7) 0.93412(8)
H6A H 0.2216 0.0591 0.8921
C7A C 0.21175(7) 0.04426(6) 1.00368(8)
H7A H 0.2351 0.0017 1.0085
C8A C 0.18470(7) 0.07367(6) 1.06588(7)
H8A H 0.1898 0.0508 1.1126
C9A C 0.14985(6) 0.13739(6) 1.05857(6)
H9A H 0.1314 0.1565 1.1005
C10A C -0.04640(5) 0.23193(5) 0.91444(5)
C11A C -0.08450(6) 0.27838(6) 0.95679(6)
C12A C -0.13221(6) 0.25143(7) 1.00569(6)
H10A H -0.1574 0.2810 1.0347
C13A C -0.14265(7) 0.18162(7) 1.01170(7)
H11A H -0.1731 0.1646 1.0460
C14A C -0.10792(7) 0.13725(6) 0.96678(6)
H12A H -0.1168 0.0906 0.9698
C15A C -0.05952(6) 0.16131(6) 0.91662(6)
C16A C -0.02658(6) 0.11145(5) 0.86423(6)
H13A H 0.0154 0.1342 0.8442
C17A C -0.08742(7) 0.09350(7) 0.79589(7)
H14A H -0.1302 0.0730 0.8144
H15A H -0.0667 0.0620 0.7627
H16A H -0.1034 0.1343 0.7679
C18A C 0.00432(7) 0.04611(6) 0.90536(7)
H17A H 0.0374 0.0579 0.9516
H18A H 0.0321 0.0204 0.8723
H19A H -0.0372 0.0191 0.9179
C19A C -0.07484(6) 0.35551(6) 0.95055(6)
H20A H -0.0614 0.3650 0.8996
C20A C -0.14822(7) 0.39440(7) 0.95681(7)
H21A H -0.1888 0.3761 0.9206
H22A H -0.1415 0.4419 0.9459
H23A H -0.1604 0.3897 1.0079
C21A C -0.01072(7) 0.38365(7) 1.01003(8)
H24A H -0.0199 0.3715 1.0607
H25A H -0.0089 0.4325 1.0057
H26A H 0.0368 0.3646 1.0010
C22A C 0.17128(5) 0.35327(5) 0.75680(5)
C23A C 0.23580(5) 0.31507(5) 0.74248(6)
C24A C 0.29849(6) 0.34885(6) 0.72080(6)
H27A H 0.3405 0.3235 0.7118
C25A C 0.29960(6) 0.41915(6) 0.71235(7)
H28A H 0.3419 0.4409 0.6982
C26A C 0.23684(6) 0.45652(6) 0.72536(6)
H29A H 0.2371 0.5037 0.7193
C27A C 0.17304(5) 0.42504(5) 0.74746(6)
C28A C 0.23932(6) 0.23767(5) 0.74969(6)
H30A H 0.1898 0.2215 0.7602
C29A C 0.29982(6) 0.21399(6) 0.81586(7)
H31A H 0.3489 0.2292 0.8067
H32A H 0.2994 0.1650 0.8189
H33A H 0.2889 0.2330 0.8633
C30A C 0.25524(7) 0.20431(7) 0.67520(7)
H34A H 0.2189 0.2202 0.6332
H35A H 0.2513 0.1556 0.6794
H36A H 0.3055 0.2162 0.6662
C31A C 0.13283(7) 0.51521(7) 0.83457(8)
H37A H 0.1474 0.4863 0.8784
H38A H 0.0913 0.5438 0.8437
H39A H 0.1751 0.5432 0.8263
C32A C 0.10833(6) 0.47083(5) 0.76335(6)
H40A H 0.0666 0.4415 0.7741
C33A C 0.07913(7) 0.51468(6) 0.69334(7)
H41A H 0.1196 0.5430 0.6807
H42A H 0.0382 0.5430 0.7048
H43A H 0.0613 0.4856 0.6506
C34 C 0.5000 0.18190(10) 0.7500
C35 C 0.5000 0.25821(9) 0.7500
C36 C 0.50542(6) 0.29478(7) 0.81867(7)
H44 H 0.5091 0.2714 0.8651
C37 C 0.50538(7) 0.36551(7) 0.81847(7)
H45 H 0.5090 0.3892 0.8646
C38 C 0.5000 0.40107(9) 0.7500
H46 H 0.5000 0.4486 0.7500
C36A C 0.49458(6) 0.29478(7) 0.68133(7)
H44A H 0.4909 0.2714 0.6349
C37A C 0.49462(7) 0.36551(7) 0.68153(7)
H45A H 0.4910 0.3892 0.6354
H47? H 0.5506 0.1656 0.7667
H48? H 0.4827 0.1656 0.6990
H49? H 0.4668 0.1656 0.7843
loop_
_geom_bond_atom_site_label_1
_geom_bond_atom_site_label_2
_geom_bond_site_symmetry_1
_geom_bond_site_symmetry_2
Mg1 N1 1_555 1_555
N1 C1 1_555 1_555
N2 Mg1 1_555 1_555
C1 H1 1_555 1_555
H2 C1 1_555 1_555
C2 N2 1_555 1_555
C3 C2 1_555 1_555
H3 C3 1_555 1_555
H4 C3 1_555 1_555
C4 C3 1_555 1_555
C5 C4 1_555 1_555
H5 C5 1_555 1_555
C6 C5 1_555 1_555
H6 C6 1_555 1_555
C7 C6 1_555 1_555
H7 C7 1_555 1_555
C8 C7 1_555 1_555
H8 C8 1_555 1_555
C9 C4 1_555 1_555
H9 C9 1_555 1_555
C10 N2 1_555 1_555
C11 C10 1_555 1_555
C12 C11 1_555 1_555
H10 C12 1_555 1_555
C13 C12 1_555 1_555
H11 C13 1_555 1_555
C14 C13 1_555 1_555
H12 C14 1_555 1_555
C15 C10 1_555 1_555
C16 C15 1_555 1_555
H13 C16 1_555 1_555
C17 C16 1_555 1_555
H14 C17 1_555 1_555
H15 C17 1_555 1_555
H16 C17 1_555 1_555
C18 C16 1_555 1_555
H17 C18 1_555 1_555
H18 C18 1_555 1_555
H19 C18 1_555 1_555
C19 C11 1_555 1_555
H20 C19 1_555 1_555
C20 C19 1_555 1_555
H21 C20 1_555 1_555
H22 C20 1_555 1_555
H23 C20 1_555 1_555
C21 C19 1_555 1_555
H24 C21 1_555 1_555
H25 C21 1_555 1_555
H26 C21 1_555 1_555
C22 N1 1_555 1_555
C23 C22 1_555 1_555
C24 C23 1_555 1_555
H27 C24 1_555 1_555
C25 C24 1_555 1_555
H28 C25 1_555 1_555
C26 C25 1_555 1_555
H29 C26 1_555 1_555
C27 C22 1_555 1_555
C28 C23 1_555 1_555
H30 C28 1_555 1_555
C29 C28 1_555 1_555
H31 C29 1_555 1_555
H32 C29 1_555 1_555
H33 C29 1_555 1_555
C30 C28 1_555 1_555
H34 C30 1_555 1_555
H35 C30 1_555 1_555
H36 C30 1_555 1_555
C31 H37 1_555 1_555
H38 C31 1_555 1_555
H39 C31 1_555 1_555
C32 C27 1_555 1_555
H40 C32 1_555 1_555
C33 C32 1_555 1_555
H41 C33 1_555 1_555
H42 C33 1_555 1_555
H43 C33 1_555 1_555
C34 C35 1_555 1_555
C35 C36 1_555 1_555
C36 H44 1_555 1_555
C37 C36 1_555 1_555
H45 C37 1_555 1_555
C38 C37 1_555 1_555
H46 C38 1_555 1_555
N1A Mg1 1_555 1_555
N2A Mg1 1_555 1_555
C1A N1A 1_555 1_555
H1A C1A 1_555 1_555
H2A C1A 1_555 1_555
C2A N2A 1_555 1_555
C3A C2A 1_555 1_555
H3A C3A 1_555 1_555
H4A C3A 1_555 1_555
C4A C3A 1_555 1_555
C5A C4A 1_555 1_555
H5A C5A 1_555 1_555
C6A C5A 1_555 1_555
H6A C6A 1_555 1_555
C7A C6A 1_555 1_555
H7A C7A 1_555 1_555
C8A C7A 1_555 1_555
H8A C8A 1_555 1_555
C9A C4A 1_555 1_555
H9A C9A 1_555 1_555
C10A N2A 1_555 1_555
C11A C10A 1_555 1_555
C12A C11A 1_555 1_555
H10A C12A 1_555 1_555
C13A C12A 1_555 1_555
H11A C13A 1_555 1_555
C14A C13A 1_555 1_555
H12A C14A 1_555 1_555
C15A C10A 1_555 1_555
C16A C15A 1_555 1_555
H13A C16A 1_555 1_555
C17A C16A 1_555 1_555
H14A C17A 1_555 1_555
H15A C17A 1_555 1_555
H16A C17A 1_555 1_555
C18A C16A 1_555 1_555
H17A C18A 1_555 1_555
H18A C18A 1_555 1_555
H19A C18A 1_555 1_555
C19A C11A 1_555 1_555
H20A C19A 1_555 1_555
C20A C19A 1_555 1_555
H21A C20A 1_555 1_555
H22A C20A 1_555 1_555
H23A C20A 1_555 1_555
C21A C19A 1_555 1_555
H24A C21A 1_555 1_555
H25A C21A 1_555 1_555
H26A C21A 1_555 1_555
C22A N1A 1_555 1_555
C23A C22A 1_555 1_555
C24A C23A 1_555 1_555
H27A C24A 1_555 1_555
C25A C24A 1_555 1_555
H28A C25A 1_555 1_555
C26A C25A 1_555 1_555
H29A C26A 1_555 1_555
C27A C22A 1_555 1_555
C28A C23A 1_555 1_555
H30A C28A 1_555 1_555
C29A C28A 1_555 1_555
H31A C29A 1_555 1_555
H32A C29A 1_555 1_555
H33A C29A 1_555 1_555
C30A C28A 1_555 1_555
H34A C30A 1_555 1_555
H35A C30A 1_555 1_555
H36A C30A 1_555 1_555
C31A H37A 1_555 1_555
H38A C31A 1_555 1_555
H39A C31A 1_555 1_555
C32A C27A 1_555 1_555
H40A C32A 1_555 1_555
C33A C32A 1_555 1_555
H41A C33A 1_555 1_555
H42A C33A 1_555 1_555
H43A C33A 1_555 1_555
C36A C35 1_555 1_555
H44A C36A 1_555 1_555
C37A C38 1_555 1_555
H45A C37A 1_555 1_555
C1 C2 1_555 1_555
C8 C9 1_555 1_555
C14 C15 1_555 1_555
C26 C27 1_555 1_555
C31 C32 1_555 1_555
C1A C2A 1_555 1_555
C8A C9A 1_555 1_555
C14A C15A 1_555 1_555
C26A C27A 1_555 1_555
C31A C32A 1_555 1_555
C36A C37A 1_555 1_555

#END
