
#######################################################################
#
#                 Cambridge Crystallographic Data Centre
#                                CCDC 
#
#######################################################################
#
# If this CIF has been generated from an entry in the Cambridge 
# Structural Database, then it will include bibliographic, chemical, 
# crystal, experimental, refinement or atomic coordinate data resulting 
# from the CCDC's data processing and validation procedures.
#
#######################################################################

data_ZOXQEK
_chemical_formula_moiety         'C54 H72 Mg1 N6'
_chemical_name_systematic        
(N,N'-dicyclohexyl-2-phenylethanamidine)-bis(N-(2,6-diisopropylphenyl)-1-(1H-pyrrol-2-yl)methaniminato)-magnesium
_symmetry_cell_setting           triclinic
_symmetry_space_group_name_H-M   'P -1'
_symmetry_Int_Tables_number      2
_space_group_name_Hall           '-P 1'
loop_
_symmetry_equiv_pos_site_id
_symmetry_equiv_pos_as_xyz
1 x,y,z
2 -x,-y,-z
_cell_length_a                   11.569(5)
_cell_length_b                   12.971(5)
_cell_length_c                   16.674(5)
_cell_angle_alpha                100.146(5)
_cell_angle_beta                 93.771(5)
_cell_angle_gamma                100.240(5)
_cell_volume                     2411.56
_exptl_crystal_colour            colorless
_exptl_crystal_description       plates
_cell_formula_units_Z            2
loop_
_atom_site_label
_atom_site_type_symbol
_atom_site_fract_x
_atom_site_fract_y
_atom_site_fract_z
Mg1 Mg 0.71832(11) 0.18286(10) 0.26851(8)
N1 N 0.7736(3) 0.0829(2) 0.35164(19)
N2 N 0.5918(3) 0.1907(3) 0.3577(2)
N3 N 0.5825(3) 0.1534(3) 0.16622(19)
N4 N 0.7969(3) 0.0950(2) 0.17086(19)
N5 N 0.8170(3) 0.3475(2) 0.27636(19)
N6 N 0.8905(3) 0.3167(3) 0.1510(2)
H1 H 0.8821 0.2507 0.1553
C1 C 0.8704(4) 0.3846(3) 0.2175(3)
C2 C 0.9178(4) 0.5034(3) 0.2201(2)
H2 H 0.9156 0.5166 0.1646
H3 H 0.8667 0.5450 0.2496
C3 C 1.0433(4) 0.5401(3) 0.2610(2)
C4 C 1.1318(4) 0.4813(4) 0.2456(3)
H4 H 1.1136 0.4138 0.2126
C5 C 1.2474(4) 0.5233(4) 0.2796(3)
H5 H 1.3055 0.4831 0.2688
C6 C 1.2771(4) 0.6218(4) 0.3283(3)
H6 H 1.3551 0.6498 0.3492
C7 C 1.1897(5) 0.6794(4) 0.3460(3)
H7 H 1.2089 0.7462 0.3802
C8 C 1.0727(4) 0.6391(3) 0.3136(3)
H8 H 1.0145 0.6783 0.3271
C9 C 0.8073(4) 0.4288(3) 0.3496(2)
H9 H 0.8675 0.4922 0.3491
C10 C 0.8323(4) 0.3916(3) 0.4289(2)
H10 H 0.9112 0.3759 0.4325
H11 H 0.7763 0.3271 0.4310
C11 C 0.8216(4) 0.4803(3) 0.4997(2)
H12 H 0.8388 0.4582 0.5511
H13 H 0.8794 0.5436 0.4977
C12 C 0.6996(4) 0.5073(4) 0.4968(3)
H14 H 0.6964 0.5642 0.5425
H15 H 0.6418 0.4453 0.5018
C13 C 0.6697(4) 0.5422(4) 0.4170(3)
H16 H 0.7193 0.6107 0.4164
H17 H 0.5882 0.5512 0.4137
C14 C 0.6875(3) 0.4614(3) 0.3428(2)
H18 H 0.6259 0.3984 0.3366
H19 H 0.6798 0.4919 0.2941
C15 C 0.9252(4) 0.3411(3) 0.0719(2)
H20 H 0.9744 0.4127 0.0822
C16 C 0.9970(4) 0.2634(4) 0.0335(3)
H21 H 0.9512 0.1914 0.0254
H22 H 1.0673 0.2674 0.0699
C17 C 1.0325(4) 0.2883(4) -0.0487(3)
H23 H 1.0829 0.3583 -0.0401
H24 H 1.0769 0.2363 -0.0734
C18 C 0.9250(4) 0.2856(4) -0.1058(3)
H25 H 0.8790 0.2135 -0.1190
H26 H 0.9498 0.3054 -0.1564
C19 C 0.8487(4) 0.3614(4) -0.0677(3)
H27 H 0.7769 0.3526 -0.1037
H28 H 0.8907 0.4343 -0.0624
C20 C 0.8167(4) 0.3416(3) 0.0164(3)
H29 H 0.7766 0.3969 0.0412
H30 H 0.7630 0.2735 0.0100
C21 C 0.8914(4) 0.0492(3) 0.1535(2)
H31 H 0.9567 0.0548 0.1908
C22 C 0.8790(4) -0.0067(3) 0.0738(3)
H32 H 0.9331 -0.0434 0.0485
C23 C 0.7695(4) 0.0026(3) 0.0389(3)
H33 H 0.7355 -0.0271 -0.0141
C24 C 0.7214(4) 0.0652(3) 0.0991(2)
C25 C 0.6107(4) 0.0975(3) 0.1002(2)
H34 H 0.5576 0.0785 0.0533
C26 C 0.4612(3) 0.1661(3) 0.1671(2)
C27 C 0.3822(4) 0.0878(3) 0.1947(2)
C28 C 0.2661(4) 0.1007(3) 0.1974(2)
H35 H 0.2117 0.0496 0.2149
C29 C 0.2298(4) 0.1881(4) 0.1747(3)
H36 H 0.1513 0.1949 0.1769
C30 C 0.3092(4) 0.2659(4) 0.1486(3)
H37 H 0.2838 0.3246 0.1336
C31 C 0.4266(3) 0.2563(3) 0.1448(2)
C32 C 0.5122(4) 0.3388(3) 0.1128(2)
H38 H 0.5927 0.3324 0.1303
C33 C 0.4984(4) 0.4533(4) 0.1439(3)
H39 H 0.4245 0.4643 0.1205
H40 H 0.5620 0.5018 0.1284
H41 H 0.4999 0.4661 0.2025
C34 C 0.4953(4) 0.3143(4) 0.0179(2)
H42 H 0.5118 0.2448 -0.0018
H43 H 0.5483 0.3669 -0.0027
H44 H 0.4154 0.3159 -0.0005
C35 C 0.4215(4) -0.0087(3) 0.2183(2)
H45 H 0.5072 0.0099 0.2326
C36 C 0.3656(4) -0.0432(3) 0.2920(3)
H46 H 0.3744 0.0175 0.3358
H47 H 0.4039 -0.0963 0.3096
H48 H 0.2832 -0.0724 0.2770
C37 C 0.3967(4) -0.1024(3) 0.1454(3)
H49 H 0.3154 -0.1141 0.1238
H50 H 0.4126 -0.1655 0.1631
H51 H 0.4465 -0.0862 0.1037
C38 C 0.4982(4) 0.2334(3) 0.3791(2)
H52 H 0.4601 0.2721 0.3476
C39 C 0.5416(4) 0.1519(3) 0.4811(3)
H53 H 0.5420 0.1252 0.5293
C40 C 0.6179(4) 0.1391(3) 0.4207(2)
C41 C 0.7102(3) 0.0819(3) 0.4140(2)
H54 H 0.7264 0.0432 0.4539
C42 C 0.8616(4) 0.0175(3) 0.3417(2)
C43 C 0.9786(4) 0.0602(3) 0.3701(2)
C44 C 1.0640(4) -0.0015(3) 0.3529(2)
H55 H 1.1426 0.0268 0.3719
C45 C 1.0334(4) -0.1049(3) 0.3079(2)
H56 H 1.0911 -0.1455 0.2962
C46 C 0.9158(4) -0.1468(3) 0.2804(2)
H57 H 0.8954 -0.2159 0.2501
C47 C 0.8276(4) -0.0885(3) 0.2968(2)
C48 C 0.6997(3) -0.1370(3) 0.2664(2)
H58 H 0.6580 -0.0781 0.2633
C49 C 0.6415(4) -0.2006(4) 0.3267(3)
H59 H 0.6793 -0.2600 0.3301
H60 H 0.5593 -0.2262 0.3082
H61 H 0.6491 -0.1555 0.3797
C50 C 0.6849(4) -0.2068(4) 0.1807(3)
H62 H 0.7240 -0.1667 0.1437
H63 H 0.6025 -0.2289 0.1620
H64 H 0.7191 -0.2687 0.1828
C51 C 1.0911(4) 0.1817(4) 0.4969(3)
H65 H 1.0503 0.1338 0.5281
H66 H 1.1037 0.2535 0.5275
H67 H 1.1658 0.1628 0.4860
C52 C 1.0170(4) 0.1741(3) 0.4161(2)
H68 H 0.9456 0.2019 0.4289
C53 C 1.0832(4) 0.2435(3) 0.3631(3)
H69 H 1.1561 0.2207 0.3523
H70 H 1.0994 0.3165 0.3911
H71 H 1.0359 0.2370 0.3123
C54 C 0.4649(4) 0.2126(3) 0.4548(2)
H72 H 0.4034 0.2350 0.4820
loop_
_geom_bond_atom_site_label_1
_geom_bond_atom_site_label_2
_geom_bond_site_symmetry_1
_geom_bond_site_symmetry_2
Mg1 N1 1_555 1_555
N1 C41 1_555 1_555
N2 Mg1 1_555 1_555
N3 Mg1 1_555 1_555
N4 Mg1 1_555 1_555
N5 Mg1 1_555 1_555
N6 H1 1_555 1_555
C1 N5 1_555 1_555
C2 C1 1_555 1_555
H2 C2 1_555 1_555
H3 C2 1_555 1_555
C3 C2 1_555 1_555
C4 C3 1_555 1_555
H4 C4 1_555 1_555
C5 C4 1_555 1_555
H5 C5 1_555 1_555
C6 C5 1_555 1_555
H6 C6 1_555 1_555
C7 C6 1_555 1_555
H7 C7 1_555 1_555
C8 C3 1_555 1_555
H8 C8 1_555 1_555
C9 N5 1_555 1_555
H9 C9 1_555 1_555
C10 C9 1_555 1_555
H10 C10 1_555 1_555
H11 C10 1_555 1_555
C11 C10 1_555 1_555
H12 C11 1_555 1_555
H13 C11 1_555 1_555
C12 C11 1_555 1_555
H14 C12 1_555 1_555
H15 C12 1_555 1_555
C13 C12 1_555 1_555
H16 C13 1_555 1_555
H17 C13 1_555 1_555
C14 C9 1_555 1_555
H18 C14 1_555 1_555
H19 C14 1_555 1_555
C15 N6 1_555 1_555
H20 C15 1_555 1_555
C16 C15 1_555 1_555
H21 C16 1_555 1_555
H22 C16 1_555 1_555
C17 C16 1_555 1_555
H23 C17 1_555 1_555
H24 C17 1_555 1_555
C18 C17 1_555 1_555
H25 C18 1_555 1_555
H26 C18 1_555 1_555
C19 C18 1_555 1_555
H27 C19 1_555 1_555
H28 C19 1_555 1_555
C20 C15 1_555 1_555
H29 C20 1_555 1_555
H30 C20 1_555 1_555
C21 N4 1_555 1_555
H31 C21 1_555 1_555
C22 C21 1_555 1_555
H32 C22 1_555 1_555
C23 C22 1_555 1_555
H33 C23 1_555 1_555
C24 N4 1_555 1_555
C25 N3 1_555 1_555
H34 C25 1_555 1_555
C26 N3 1_555 1_555
C27 C26 1_555 1_555
C28 C27 1_555 1_555
H35 C28 1_555 1_555
C29 C28 1_555 1_555
H36 C29 1_555 1_555
C30 C29 1_555 1_555
H37 C30 1_555 1_555
C31 C26 1_555 1_555
C32 C31 1_555 1_555
H38 C32 1_555 1_555
C33 C32 1_555 1_555
H39 C33 1_555 1_555
H40 C33 1_555 1_555
H41 C33 1_555 1_555
C34 C32 1_555 1_555
H42 C34 1_555 1_555
H43 C34 1_555 1_555
H44 C34 1_555 1_555
C35 C27 1_555 1_555
H45 C35 1_555 1_555
C36 C35 1_555 1_555
H46 C36 1_555 1_555
H47 C36 1_555 1_555
H48 C36 1_555 1_555
C37 C35 1_555 1_555
H49 C37 1_555 1_555
H50 C37 1_555 1_555
H51 C37 1_555 1_555
C38 N2 1_555 1_555
H52 C38 1_555 1_555
C39 H53 1_555 1_555
C40 N2 1_555 1_555
C41 C40 1_555 1_555
H54 C41 1_555 1_555
C42 N1 1_555 1_555
C43 C42 1_555 1_555
C44 C43 1_555 1_555
H55 C44 1_555 1_555
C45 C44 1_555 1_555
H56 C45 1_555 1_555
C46 C45 1_555 1_555
H57 C46 1_555 1_555
C47 C42 1_555 1_555
C48 C47 1_555 1_555
H58 C48 1_555 1_555
C49 C48 1_555 1_555
H59 C49 1_555 1_555
H60 C49 1_555 1_555
H61 C49 1_555 1_555
C50 C48 1_555 1_555
H62 C50 1_555 1_555
H63 C50 1_555 1_555
H64 C50 1_555 1_555
C51 H65 1_555 1_555
H66 C51 1_555 1_555
H67 C51 1_555 1_555
C52 C43 1_555 1_555
H68 C52 1_555 1_555
C53 C52 1_555 1_555
H69 C53 1_555 1_555
H70 C53 1_555 1_555
H71 C53 1_555 1_555
C54 C38 1_555 1_555
H72 C54 1_555 1_555
N6 C1 1_555 1_555
C7 C8 1_555 1_555
C13 C14 1_555 1_555
C19 C20 1_555 1_555
C23 C24 1_555 1_555
C24 C25 1_555 1_555
C30 C31 1_555 1_555
C39 C40 1_555 1_555
C39 C54 1_555 1_555
C46 C47 1_555 1_555
C51 C52 1_555 1_555

#END
