
#######################################################################
#
#                 Cambridge Crystallographic Data Centre
#                                CCDC 
#
#######################################################################
#
# If this CIF has been generated from an entry in the Cambridge 
# Structural Database, then it will include bibliographic, chemical, 
# crystal, experimental, refinement or atomic coordinate data resulting 
# from the CCDC's data processing and validation procedures.
#
#######################################################################

data_ZOXQIO
_chemical_formula_moiety         'C50 H64 Mg1 N4'
_chemical_name_systematic        
(N-(2-((2,6-diisopropylphenyl)imino)-3-phenylpropyl)-2,6-diisopropylanilinato)-(N-(2,6-diisopropylphenyl)-1-(1H-pyrrol-2-yl)methaniminato)-magnesium
_symmetry_cell_setting           monoclinic
_symmetry_space_group_name_H-M   'P 21/c'
_symmetry_Int_Tables_number      14
_space_group_name_Hall           '-P 2ybc'
loop_
_symmetry_equiv_pos_site_id
_symmetry_equiv_pos_as_xyz
1 x,y,z
2 -x,1/2+y,1/2-z
3 -x,-y,-z
4 x,1/2-y,1/2+z
_cell_length_a                   15.311(5)
_cell_length_b                   16.053(5)
_cell_length_c                   18.041(5)
_cell_angle_alpha                90
_cell_angle_beta                 92.921(5)
_cell_angle_gamma                90
_cell_volume                     4428.49
_exptl_crystal_colour            red
_exptl_crystal_description       chunk
_cell_formula_units_Z            4
loop_
_atom_site_label
_atom_site_type_symbol
_atom_site_fract_x
_atom_site_fract_y
_atom_site_fract_z
Mg1 Mg 0.23990(8) 0.39346(7) 0.23803(7)
N1 N 0.2296(2) 0.2807(2) 0.18663(17)
N2 N 0.3757(2) 0.35920(18) 0.24896(17)
N3 N 0.1256(2) 0.39059(18) 0.30108(16)
N4 N 0.22686(19) 0.51448(18) 0.25353(16)
C1 C 0.1726(3) 0.2213(2) 0.1612(2)
H1 H 0.1123 0.2283 0.1564
C2 C 0.2161(3) 0.1482(3) 0.1430(2)
H2 H 0.1907 0.0994 0.1244
C3 C 0.3046(3) 0.1624(2) 0.1581(2)
H3 H 0.3503 0.1253 0.1516
C4 C 0.3111(3) 0.2437(2) 0.1849(2)
C5 C 0.3842(3) 0.2867(2) 0.2185(2)
H4 H 0.4393 0.2623 0.2185
C6 C 0.4542(2) 0.3959(2) 0.2836(2)
C7 C 0.4687(2) 0.3876(2) 0.3605(2)
C8 C 0.5462(3) 0.4206(3) 0.3940(3)
H5 H 0.5569 0.4160 0.4450
C9 C 0.6062(3) 0.4598(2) 0.3516(3)
H6 H 0.6575 0.4808 0.3742
C10 C 0.5909(3) 0.4684(3) 0.2759(3)
H7 H 0.6324 0.4945 0.2481
C11 C 0.5139(3) 0.4385(3) 0.2406(2)
C12 C 0.4971(4) 0.4530(3) 0.1570(3)
H8 H 0.4383 0.4322 0.1430
C13 C 0.4998(4) 0.5453(3) 0.1376(3)
H9 H 0.4625 0.5756 0.1692
H10 H 0.4800 0.5529 0.0867
H11 H 0.5587 0.5654 0.1446
C14 C 0.5618(7) 0.4052(4) 0.1119(4)
H12 H 0.5497 0.4157 0.0600
H13 H 0.5564 0.3466 0.1215
H14 H 0.6202 0.4231 0.1258
C15 C 0.4044(3) 0.3438(3) 0.4087(2)
H15 H 0.3573 0.3212 0.3758
C16 C 0.4473(3) 0.2704(3) 0.4517(3)
H16 H 0.4720 0.2324 0.4174
H17 H 0.4040 0.2420 0.4789
H18 H 0.4926 0.2910 0.4856
C17 C 0.3635(4) 0.4047(3) 0.4615(3)
H19 H 0.4084 0.4283 0.4941
H20 H 0.3220 0.3758 0.4902
H21 H 0.3344 0.4483 0.4334
C18 C 0.1142(2) 0.4614(2) 0.33288(19)
C19 C 0.1711(3) 0.5319(2) 0.3133(2)
H22 H 0.1344 0.5794 0.2997
H23 H 0.2072 0.5474 0.3568
C20 C 0.0455(3) 0.4773(2) 0.3890(2)
H24 H 0.0355 0.4263 0.4161
H25 H -0.0091 0.4926 0.3628
C21 C 0.0716(2) 0.5459(2) 0.44389(19)
C22 C 0.1364(3) 0.5315(3) 0.4990(2)
H26 H 0.1628 0.4794 0.5029
C23 C 0.1623(3) 0.5939(3) 0.5483(2)
H27 H 0.2062 0.5835 0.5847
C24 C 0.1238(3) 0.6710(3) 0.5441(3)
H28 H 0.1414 0.7127 0.5773
C25 C 0.0582(3) 0.6861(2) 0.4897(2)
H29 H 0.0313 0.7380 0.4865
C26 C 0.0329(3) 0.6230(2) 0.4396(2)
H30 H -0.0107 0.6334 0.4030
C27 C 0.0645(2) 0.3224(2) 0.30717(19)
C28 C 0.0914(2) 0.2503(2) 0.3452(2)
C29 C 0.0337(3) 0.1829(3) 0.3461(2)
H31 H 0.0502 0.1347 0.3717
C30 C -0.0476(3) 0.1871(3) 0.3092(3)
H32 H -0.0857 0.1422 0.3107
C31 C -0.0722(3) 0.2582(3) 0.2701(2)
H33 H -0.1264 0.2597 0.2443
C32 C -0.0179(3) 0.3274(3) 0.2685(2)
C33 C -0.0451(3) 0.4023(3) 0.2209(2)
H34 H -0.0085 0.4493 0.2380
C34 C -0.1407(4) 0.4278(5) 0.2291(4)
H35 H -0.1785 0.3885 0.2035
H36 H -0.1503 0.4822 0.2083
H37 H -0.1530 0.4286 0.2808
C35 C -0.0260(6) 0.3862(5) 0.1395(3)
H38 H 0.0330 0.3668 0.1365
H39 H -0.0334 0.4370 0.1117
H40 H -0.0657 0.3448 0.1192
C36 C 0.1806(2) 0.2429(2) 0.3862(2)
H41 H 0.2153 0.2913 0.3724
C37 C 0.2306(3) 0.1651(3) 0.3641(3)
H42 H 0.1983 0.1163 0.3770
H43 H 0.2870 0.1643 0.3899
H44 H 0.2377 0.1657 0.3115
C38 C 0.1721(3) 0.2464(3) 0.4703(2)
H45 H 0.1448 0.2978 0.4833
H46 H 0.2292 0.2430 0.4948
H47 H 0.1371 0.2004 0.4855
C39 C 0.2642(2) 0.5848(2) 0.2203(2)
C40 C 0.3123(2) 0.6464(2) 0.2627(2)
C41 C 0.3409(3) 0.7184(2) 0.2265(3)
H48 H 0.3689 0.7603 0.2543
C42 C 0.3282(3) 0.7279(3) 0.1511(3)
H49 H 0.3470 0.7761 0.1282
C43 C 0.2870(3) 0.6653(3) 0.1090(2)
H50 H 0.2810 0.6710 0.0577
C44 C 0.2548(2) 0.5943(2) 0.1424(2)
C45 C 0.2082(3) 0.5277(3) 0.0952(2)
H51 H 0.1686 0.4993 0.1279
C46 C 0.2665(5) 0.4650(4) 0.0704(4)
H52 H 0.2971 0.4859 0.0292
H53 H 0.2336 0.4164 0.0554
H54 H 0.3078 0.4507 0.1102
C47 C 0.1493(5) 0.5650(5) 0.0311(4)
H55 H 0.1849 0.5817 -0.0086
H56 H 0.1187 0.6126 0.0489
H57 H 0.1078 0.5239 0.0133
C48 C 0.3391(3) 0.6331(3) 0.3442(2)
H58 H 0.3209 0.5767 0.3574
C49 C 0.4392(3) 0.6376(3) 0.3569(3)
H59 H 0.4662 0.6012 0.3226
H60 H 0.4554 0.6206 0.4067
H61 H 0.4584 0.6937 0.3493
C50 C 0.2939(3) 0.6938(3) 0.3952(3)
H62 H 0.3107 0.7498 0.3838
H63 H 0.3110 0.6815 0.4459
H64 H 0.2317 0.6882 0.3878
loop_
_geom_bond_atom_site_label_1
_geom_bond_atom_site_label_2
_geom_bond_site_symmetry_1
_geom_bond_site_symmetry_2
Mg1 N1 1_555 1_555
N1 C1 1_555 1_555
N2 Mg1 1_555 1_555
N3 Mg1 1_555 1_555
N4 Mg1 1_555 1_555
C1 H1 1_555 1_555
C2 C1 1_555 1_555
H2 C2 1_555 1_555
C3 C2 1_555 1_555
H3 C3 1_555 1_555
C4 N1 1_555 1_555
C5 N2 1_555 1_555
H4 C5 1_555 1_555
C6 N2 1_555 1_555
C7 C6 1_555 1_555
C8 C7 1_555 1_555
H5 C8 1_555 1_555
C9 C8 1_555 1_555
H6 C9 1_555 1_555
C10 C9 1_555 1_555
H7 C10 1_555 1_555
C11 C6 1_555 1_555
C12 C11 1_555 1_555
H8 C12 1_555 1_555
C13 C12 1_555 1_555
H9 C13 1_555 1_555
H10 C13 1_555 1_555
H11 C13 1_555 1_555
C14 C12 1_555 1_555
H12 C14 1_555 1_555
H13 C14 1_555 1_555
H14 C14 1_555 1_555
C15 C7 1_555 1_555
H15 C15 1_555 1_555
C16 C15 1_555 1_555
H16 C16 1_555 1_555
H17 C16 1_555 1_555
H18 C16 1_555 1_555
C17 C15 1_555 1_555
H19 C17 1_555 1_555
H20 C17 1_555 1_555
H21 C17 1_555 1_555
C18 N3 1_555 1_555
C19 N4 1_555 1_555
H22 C19 1_555 1_555
H23 C19 1_555 1_555
C20 C18 1_555 1_555
H24 C20 1_555 1_555
H25 C20 1_555 1_555
C21 C20 1_555 1_555
C22 C21 1_555 1_555
H26 C22 1_555 1_555
C23 C22 1_555 1_555
H27 C23 1_555 1_555
C24 C23 1_555 1_555
H28 C24 1_555 1_555
C25 C24 1_555 1_555
H29 C25 1_555 1_555
C26 C21 1_555 1_555
H30 C26 1_555 1_555
C27 N3 1_555 1_555
C28 C27 1_555 1_555
C29 C28 1_555 1_555
H31 C29 1_555 1_555
C30 C29 1_555 1_555
H32 C30 1_555 1_555
C31 C30 1_555 1_555
H33 C31 1_555 1_555
C32 C27 1_555 1_555
C33 C32 1_555 1_555
H34 C33 1_555 1_555
C34 C33 1_555 1_555
H35 C34 1_555 1_555
H36 C34 1_555 1_555
H37 C34 1_555 1_555
C35 C33 1_555 1_555
H38 C35 1_555 1_555
H39 C35 1_555 1_555
H40 C35 1_555 1_555
C36 C28 1_555 1_555
H41 C36 1_555 1_555
C37 C36 1_555 1_555
H42 C37 1_555 1_555
H43 C37 1_555 1_555
H44 C37 1_555 1_555
C38 C36 1_555 1_555
H45 C38 1_555 1_555
H46 C38 1_555 1_555
H47 C38 1_555 1_555
C39 N4 1_555 1_555
C40 C39 1_555 1_555
C41 C40 1_555 1_555
H48 C41 1_555 1_555
C42 C41 1_555 1_555
H49 C42 1_555 1_555
C43 C42 1_555 1_555
H50 C43 1_555 1_555
C44 C39 1_555 1_555
C45 C44 1_555 1_555
H51 C45 1_555 1_555
C46 C45 1_555 1_555
H52 C46 1_555 1_555
H53 C46 1_555 1_555
H54 C46 1_555 1_555
C47 C45 1_555 1_555
H55 C47 1_555 1_555
H56 C47 1_555 1_555
H57 C47 1_555 1_555
C48 C40 1_555 1_555
H58 C48 1_555 1_555
C49 C48 1_555 1_555
H59 C49 1_555 1_555
H60 C49 1_555 1_555
H61 C49 1_555 1_555
C50 C48 1_555 1_555
H62 C50 1_555 1_555
H63 C50 1_555 1_555
H64 C50 1_555 1_555
C3 C4 1_555 1_555
C4 C5 1_555 1_555
C10 C11 1_555 1_555
C18 C19 1_555 1_555
C25 C26 1_555 1_555
C31 C32 1_555 1_555
C43 C44 1_555 1_555

#END
