
#######################################################################
#
#                 Cambridge Crystallographic Data Centre
#                                CCDC 
#
#######################################################################
#
# If this CIF has been generated from an entry in the Cambridge 
# Structural Database, then it will include bibliographic, chemical, 
# crystal, experimental, refinement or atomic coordinate data resulting 
# from the CCDC's data processing and validation procedures.
#
#######################################################################

data_ZOYDIA
_chemical_formula_moiety         'C16 H13 N3 O1'
_chemical_name_systematic        
4-Methoxybenzaldehyde-(4-cyanobenzylidene)hydrazone
_symmetry_cell_setting           monoclinic
_symmetry_space_group_name_H-M   'P 21/n'
_symmetry_Int_Tables_number      14
_space_group_name_Hall           '-P 2yn'
loop_
_symmetry_equiv_pos_site_id
_symmetry_equiv_pos_as_xyz
1 x,y,z
2 1/2-x,1/2+y,1/2-z
3 -x,-y,-z
4 1/2+x,1/2-y,1/2+z
_cell_length_a                   7.735(2)
_cell_length_b                   6.912(4)
_cell_length_c                   25.333(16)
_cell_angle_alpha                90
_cell_angle_beta                 92.70(3)
_cell_angle_gamma                90
_cell_volume                     1352.91
_exptl_crystal_colour            yellow
_cell_formula_units_Z            4
loop_
_atom_site_label
_atom_site_type_symbol
_atom_site_fract_x
_atom_site_fract_y
_atom_site_fract_z
O1 O 0.5422(3) 0.2012(3) 0.15820(7)
N1 N 0.7264(3) 0.9036(3) 0.01066(8)
N2 N 0.7836(3) 1.0830(3) -0.00808(8)
N3 N 0.9649(4) 1.8917(4) -0.1998(1)
C1 C 0.5619(4) 0.1729(5) 0.2129(1)
C2 C 0.5985(3) 0.3721(3) 0.1370(1)
C3 C 0.5816(3) 0.3860(4) 0.08289(9)
C4 C 0.6324(3) 0.5525(4) 0.05844(9)
C5 C 0.7015(3) 0.7086(4) 0.0874(1)
C6 C 0.7199(3) 0.6910(4) 0.1417(1)
C7 C 0.6681(3) 0.5234(4) 0.16682(9)
C8 C 0.7533(3) 0.8852(4) 0.0605(1)
C9 C 0.7460(3) 1.1017(4) -0.0572(1)
C10 C 0.7911(3) 1.2748(4) -0.0866(1)
C11 C 0.7537(4) 1.2836(4) -0.1402(1)
C12 C 0.7972(3) 1.4444(4) -0.1695(1)
C13 C 0.8793(3) 1.5985(4) -0.1443(1)
C14 C 0.9157(3) 1.5934(4) -0.0903(1)
C15 C 0.8725(3) 1.4327(4) -0.0620(1)
C16 C 0.9265(4) 1.7629(5) -0.1746(1)
H1 H 0.508(3) 0.029(5) 0.215(1)
H2 H 0.695(4) 0.191(5) 0.226(1)
H3 H 0.498(4) 0.281(5) 0.230(1)
H4 H 0.532(3) 0.276(4) 0.062(9)
H5 H 0.622(3) 0.560(3) 0.0205(8)
H6 H 0.765(3) 0.799(4) 0.1639(9)
H7 H 0.688(3) 0.510(3) 0.2053(8)
H8 H 0.808(3) 0.984(4) 0.0819(9)
H9 H 0.689(3) 1.006(4) -0.0759(8)
H10 H 0.704(3) 1.172(3) -0.1576(9)
H11 H 0.763(3) 1.454(4) -0.2097(9)
H12 H 0.971(3) 1.698(4) -0.0711(9)
H13 H 0.893(3) 1.431(3) -0.0244(8)
loop_
_geom_bond_atom_site_label_1
_geom_bond_atom_site_label_2
_geom_bond_site_symmetry_1
_geom_bond_site_symmetry_2
O1 C1 1_555 1_555
N1 N2 1_555 1_555
N2 C9 1_555 1_555
N3 C16 1_555 1_555
C1 H1 1_555 1_555
C2 O1 1_555 1_555
C3 C2 1_555 1_555
C4 C3 1_555 1_555
C5 C4 1_555 1_555
C6 C5 1_555 1_555
C7 C2 1_555 1_555
C8 N1 1_555 1_555
C9 C10 1_555 1_555
C10 C11 1_555 1_555
C11 C12 1_555 1_555
C12 C13 1_555 1_555
C13 C14 1_555 1_555
C14 C15 1_555 1_555
C15 C10 1_555 1_555
C16 C13 1_555 1_555
H2 C1 1_555 1_555
H3 C1 1_555 1_555
H4 C3 1_555 1_555
H5 C4 1_555 1_555
H6 C6 1_555 1_555
H7 C7 1_555 1_555
H8 C8 1_555 1_555
H9 C9 1_555 1_555
H10 C11 1_555 1_555
H11 C12 1_555 1_555
H12 C14 1_555 1_555
H13 C15 1_555 1_555
C5 C8 1_555 1_555
C6 C7 1_555 1_555

#END
