
#######################################################################
#
#                 Cambridge Crystallographic Data Centre
#                                CCDC 
#
#######################################################################
#
# If this CIF has been generated from an entry in the Cambridge 
# Structural Database, then it will include bibliographic, chemical, 
# crystal, experimental, refinement or atomic coordinate data resulting 
# from the CCDC's data processing and validation procedures.
#
#######################################################################

data_ZOYHEA
_chemical_formula_moiety         'C7 H15 N3 O1 P1 1+,C24 H20 B1 1-'
_chemical_name_systematic        
'1-Methyl-1-azonia-3,5-diaza-7-phospha-admantane-7-oxide tetraphenylborate'
_symmetry_cell_setting           triclinic
_symmetry_space_group_name_H-M   'P -1'
_symmetry_Int_Tables_number      2
_space_group_name_Hall           '-P 1'
loop_
_symmetry_equiv_pos_site_id
_symmetry_equiv_pos_as_xyz
1 x,y,z
2 -x,-y,-z
_cell_length_a                   9.584(2)
_cell_length_b                   11.449(2)
_cell_length_c                   13.445(3)
_cell_angle_alpha                77.70(2)
_cell_angle_beta                 78.66(1)
_cell_angle_gamma                69.01(4)
_cell_volume                     1334.01
_exptl_crystal_colour            colorless
_exptl_crystal_description       block
_cell_formula_units_Z            2
loop_
_atom_site_label
_atom_site_type_symbol
_atom_site_fract_x
_atom_site_fract_y
_atom_site_fract_z
P1 P 0.02639(8) 0.33434(6) 0.09783(5)
O1 O 0.1355(2) 0.3651(2) 0.01123(13)
N1 N -0.1473(2) 0.4041(2) 0.27882(14)
N2 N -0.0355(3) 0.1768(2) 0.2661(2)
N3 N -0.2441(3) 0.3083(2) 0.1716(2)
C1 C 0.0881(3) 0.1849(2) 0.1819(2)
H1 H 0.1763(3) 0.1779(2) 0.2100(2)
H2 H 0.1133(3) 0.1165(2) 0.1438(2)
C2 C -0.1532(3) 0.3365(3) 0.0725(2)
H3 H -0.1373(3) 0.2737(3) 0.0303(2)
H4 H -0.2059(3) 0.4180(3) 0.0366(2)
C3 C -0.0383(3) 0.4421(2) 0.1923(2)
H5 H -0.0868(3) 0.5265(2) 0.1590(2)
H6 H 0.0472(3) 0.4425(2) 0.2196(2)
C4 C -0.1714(4) 0.1837(3) 0.2277(2)
H7 H -0.2418(4) 0.1643(3) 0.2848(2)
H8 H -0.1456(4) 0.1214(3) 0.1834(2)
C5 C -0.0715(3) 0.2684(2) 0.3327(2)
H9 H -0.1377(3) 0.2485(2) 0.3923(2)
H10 H 0.0197(3) 0.2646(2) 0.3551(2)
C6 C -0.2842(3) 0.4028(3) 0.2356(2)
H11 H -0.3282(3) 0.4843(3) 0.1959(2)
H12 H -0.3589(3) 0.3883(3) 0.2914(2)
C7 C -0.1982(3) 0.4944(3) 0.3543(2)
H13 H -0.1119(3) 0.4940(3) 0.3811(2)
H14 H -0.2481(3) 0.5782(3) 0.3207(2)
H15 H -0.2668(3) 0.4689(3) 0.4097(2)
B1 B -0.1867(3) 0.2793(3) 0.7328(2)
C8 C -0.2408(3) 0.4343(2) 0.7242(2)
C9 C -0.3268(3) 0.5048(3) 0.8014(2)
H16 H -0.3559(3) 0.4605(3) 0.8669(2)
C10 C -0.3724(3) 0.6371(3) 0.7869(3)
H17 H -0.4314(3) 0.6825(3) 0.8417(3)
C11 C -0.3322(4) 0.7021(3) 0.6934(4)
H18 H -0.3657(4) 0.7931(3) 0.6817(4)
C12 C -0.2440(4) 0.6363(3) 0.6169(3)
H19 H -0.2134(4) 0.6808(3) 0.5519(3)
C13 C -0.1996(3) 0.5059(3) 0.6327(2)
H20 H -0.1362(3) 0.4616(3) 0.5783(2)
C14 C -0.2574(3) 0.2121(2) 0.8420(2)
C15 C -0.1732(3) 0.1147(2) 0.9103(2)
H21 H -0.0652(3) 0.0857(2) 0.8942(2)
C16 C -0.2385(3) 0.0584(2) 1.0001(2)
H22 H -0.1756(3) -0.0097(2) 1.0440(2)
C17 C -0.3931(3) 0.0992(3) 1.0264(2)
H23 H -0.4384(3) 0.0620(3) 1.0897(2)
C18 C -0.4807(3) 0.1940(3) 0.9613(2)
H24 H -0.5887(3) 0.2231(3) 0.9780(2)
C19 C -0.4141(3) 0.2476(3) 0.8715(2)
H25 H -0.4782(3) 0.3129(3) 0.8265(2)
C20 C -0.2518(3) 0.2419(2) 0.6439(2)
C21 C -0.3705(3) 0.3246(2) 0.5912(2)
H26 H -0.4107(3) 0.4114(2) 0.6021(2)
C22 C -0.4330(3) 0.2874(2) 0.5235(2)
H27 H -0.5154(3) 0.3475(2) 0.4893(2)
C23 C -0.3774(3) 0.1638(3) 0.5053(2)
H28 H -0.4196(3) 0.1378(3) 0.4579(2)
C24 C -0.2604(3) 0.0783(3) 0.5561(2)
H29 H -0.2202(3) -0.0079(3) 0.5438(2)
C25 C -0.2011(3) 0.1168(2) 0.6240(2)
H30 H -0.1209(3) 0.0553(2) 0.6595(2)
C26 C -0.0009(3) 0.2296(2) 0.7216(2)
C27 C 0.0979(3) 0.1756(2) 0.6402(2)
H31 H 0.0561(3) 0.1644(2) 0.5848(2)
C28 C 0.2542(3) 0.1371(3) 0.6361(2)
H32 H 0.3176(3) 0.1025(3) 0.5773(2)
C29 C 0.3186(3) 0.1501(3) 0.7147(2)
H33 H 0.4264(3) 0.1206(3) 0.7131(2)
C30 C 0.2240(3) 0.2051(2) 0.7961(2)
H34 H 0.2663(3) 0.2164(2) 0.8512(2)
C31 C 0.0684(3) 0.2445(2) 0.7981(2)
H35 H 0.0051(3) 0.2830(2) 0.8553(2)
loop_
_geom_bond_atom_site_label_1
_geom_bond_atom_site_label_2
_geom_bond_site_symmetry_1
_geom_bond_site_symmetry_2
P1 O1 1_555 1_555
N1 C3 1_555 1_555
N2 C1 1_555 1_555
N3 C2 1_555 1_555
C1 P1 1_555 1_555
H1 C1 1_555 1_555
H2 C1 1_555 1_555
C2 P1 1_555 1_555
H3 C2 1_555 1_555
H4 C2 1_555 1_555
C3 P1 1_555 1_555
H5 C3 1_555 1_555
H6 C3 1_555 1_555
C4 N2 1_555 1_555
H7 C4 1_555 1_555
H8 C4 1_555 1_555
C5 N1 1_555 1_555
H9 C5 1_555 1_555
H10 C5 1_555 1_555
C6 N1 1_555 1_555
H11 C6 1_555 1_555
H12 C6 1_555 1_555
C7 N1 1_555 1_555
H13 C7 1_555 1_555
H14 C7 1_555 1_555
H15 C7 1_555 1_555
B1 C8 1_555 1_555
C8 C9 1_555 1_555
C9 H16 1_555 1_555
C10 C9 1_555 1_555
H17 C10 1_555 1_555
C11 C10 1_555 1_555
H18 C11 1_555 1_555
C12 C11 1_555 1_555
H19 C12 1_555 1_555
C13 C8 1_555 1_555
H20 C13 1_555 1_555
C14 B1 1_555 1_555
C15 C14 1_555 1_555
H21 C15 1_555 1_555
C16 C15 1_555 1_555
H22 C16 1_555 1_555
C17 C16 1_555 1_555
H23 C17 1_555 1_555
C18 C17 1_555 1_555
H24 C18 1_555 1_555
C19 C14 1_555 1_555
H25 C19 1_555 1_555
C20 B1 1_555 1_555
C21 C20 1_555 1_555
H26 C21 1_555 1_555
C22 C21 1_555 1_555
H27 C22 1_555 1_555
C23 C22 1_555 1_555
H28 C23 1_555 1_555
C24 C23 1_555 1_555
H29 C24 1_555 1_555
C25 C20 1_555 1_555
H30 C25 1_555 1_555
C26 B1 1_555 1_555
C27 C26 1_555 1_555
H31 C27 1_555 1_555
C28 C27 1_555 1_555
H32 C28 1_555 1_555
C29 C28 1_555 1_555
H33 C29 1_555 1_555
C30 C29 1_555 1_555
H34 C30 1_555 1_555
C31 C26 1_555 1_555
H35 C31 1_555 1_555
N2 C5 1_555 1_555
N3 C4 1_555 1_555
N3 C6 1_555 1_555
C12 C13 1_555 1_555
C18 C19 1_555 1_555
C24 C25 1_555 1_555
C30 C31 1_555 1_555

#END
