
#######################################################################
#
#                 Cambridge Crystallographic Data Centre
#                                CCDC 
#
#######################################################################
#
# If this CIF has been generated from an entry in the Cambridge 
# Structural Database, then it will include bibliographic, chemical, 
# crystal, experimental, refinement or atomic coordinate data resulting 
# from the CCDC's data processing and validation procedures.
#
#######################################################################

data_ZOYJAA
_chemical_formula_moiety         'C16 H19 N1 O3'
_chemical_name_systematic        
'Methyl 1-oxo-3-phenyloctahydro-7aH-cyclopenta[c]pyridine-7a-carboxylate'
_symmetry_cell_setting           monoclinic
_symmetry_space_group_name_H-M   'P 21/c'
_symmetry_Int_Tables_number      14
_space_group_name_Hall           '-P 2ybc'
loop_
_symmetry_equiv_pos_site_id
_symmetry_equiv_pos_as_xyz
1 x,y,z
2 -x,1/2+y,1/2-z
3 -x,-y,-z
4 x,1/2-y,1/2+z
_cell_length_a                   11.865(2)
_cell_length_b                   9.2889(19)
_cell_length_c                   13.940(3)
_cell_angle_alpha                90
_cell_angle_beta                 109.94(3)
_cell_angle_gamma                90
_cell_volume                     1444.26
_exptl_crystal_colour            colorless
_exptl_crystal_description       column
_cell_formula_units_Z            4
loop_
_atom_site_label
_atom_site_type_symbol
_atom_site_fract_x
_atom_site_fract_y
_atom_site_fract_z
O1 O 0.63154(9) 0.07144(13) 0.59661(8)
O2 O 0.92055(12) 0.17946(16) 0.69831(10)
O3 O 0.87494(9) 0.01467(13) 0.57597(8)
N1 N 0.56539(10) 0.12386(15) 0.42969(9)
H1 H 0.5010 0.0770 0.4241
C1 C 0.64533(12) 0.13331(16) 0.52283(11)
C2 C 0.57356(13) 0.18372(18) 0.33508(11)
H2 H 0.6017 0.1077 0.3000
C3 C 0.66423(14) 0.3064(2) 0.35926(12)
H3 H 0.6800 0.3331 0.2978
H4 H 0.6307 0.3896 0.3819
C4 C 0.78150(14) 0.26414(19) 0.44171(13)
H5 H 0.8192 0.1833 0.4191
C5 C 0.86883(17) 0.3912(2) 0.47562(16)
H6 H 0.9508 0.3570 0.5041
H7 H 0.8623 0.4538 0.4183
C6 C 0.83276(19) 0.4711(2) 0.55614(17)
H8 H 0.7935 0.5611 0.5287
H9 H 0.9030 0.4923 0.6151
C7 C 0.74695(15) 0.37335(19) 0.58662(14)
H10 H 0.6655 0.4096 0.5594
H11 H 0.7703 0.3669 0.6603
C8 C 0.75682(12) 0.22538(17) 0.54030(11)
C9 C 0.86044(13) 0.14079(18) 0.61498(12)
C10 C 0.95736(16) -0.0839(2) 0.64483(15)
H12 H 0.9618 -0.1708 0.6091
H13 H 0.9299 -0.1060 0.7004
H14 H 1.0354 -0.0405 0.6709
C11 C 0.45081(13) 0.23239(17) 0.26582(11)
C12 C 0.36022(16) 0.2692(2) 0.30226(13)
H15 H 0.3736 0.2631 0.3719
C13 C 0.24980(17) 0.3151(2) 0.23685(15)
H16 H 0.1892 0.3375 0.2626
C14 C 0.22924(16) 0.3279(2) 0.13448(14)
H17 H 0.1550 0.3587 0.0906
C15 C 0.31879(17) 0.2949(2) 0.09718(13)
H18 H 0.3060 0.3057 0.0279
C16 C 0.42813(15) 0.2457(2) 0.16180(13)
H19 H 0.4875 0.2211 0.1352
loop_
_geom_bond_atom_site_label_1
_geom_bond_atom_site_label_2
_geom_bond_site_symmetry_1
_geom_bond_site_symmetry_2
O1 C1 1_555 1_555
O2 C9 1_555 1_555
O3 C9 1_555 1_555
N1 H1 1_555 1_555
C1 N1 1_555 1_555
C2 N1 1_555 1_555
H2 C2 1_555 1_555
C3 C2 1_555 1_555
H3 C3 1_555 1_555
H4 C3 1_555 1_555
C4 C3 1_555 1_555
H5 C4 1_555 1_555
C5 C4 1_555 1_555
H6 C5 1_555 1_555
H7 C5 1_555 1_555
C6 C5 1_555 1_555
H8 C6 1_555 1_555
H9 C6 1_555 1_555
C7 C6 1_555 1_555
H10 C7 1_555 1_555
H11 C7 1_555 1_555
C8 C1 1_555 1_555
C9 C8 1_555 1_555
C10 O3 1_555 1_555
H12 C10 1_555 1_555
H13 C10 1_555 1_555
H14 C10 1_555 1_555
C11 C2 1_555 1_555
C12 C11 1_555 1_555
H15 C12 1_555 1_555
C13 C12 1_555 1_555
H16 C13 1_555 1_555
C14 C13 1_555 1_555
H17 C14 1_555 1_555
C15 C14 1_555 1_555
H18 C15 1_555 1_555
C16 C11 1_555 1_555
H19 C16 1_555 1_555
C4 C8 1_555 1_555
C7 C8 1_555 1_555
C15 C16 1_555 1_555

#END
