
#######################################################################
#
#                 Cambridge Crystallographic Data Centre
#                                CCDC 
#
#######################################################################
#
# If this CIF has been generated from an entry in the Cambridge 
# Structural Database, then it will include bibliographic, chemical, 
# crystal, experimental, refinement or atomic coordinate data resulting 
# from the CCDC's data processing and validation procedures.
#
#######################################################################

data_ZOYMOP
_chemical_name_common            3-beta-Hydroxy-5-androsten-17-one
_chemical_formula_moiety         'C19 H28 O2'
_chemical_name_systematic        Dehydroepiandrosterone
_chemical_properties_biological  'therapeutic agent'
_symmetry_cell_setting           monoclinic
_symmetry_space_group_name_H-M   'P 21'
_symmetry_Int_Tables_number      4
_space_group_name_Hall           'P 2yb'
loop_
_symmetry_equiv_pos_site_id
_symmetry_equiv_pos_as_xyz
1 x,y,z
2 -x,1/2+y,-z
_cell_length_a                   6.208(1)
_cell_length_b                   44.437(7)
_cell_length_c                   6.270(1)
_cell_angle_alpha                90
_cell_angle_beta                 107.10(2)
_cell_angle_gamma                90
_cell_volume                     1653.21
_cell_formula_units_Z            4
loop_
_atom_site_label
_atom_site_type_symbol
_atom_site_fract_x
_atom_site_fract_y
_atom_site_fract_z
O1 O 0.1201(5) 0.7507 0.9667(5)
O2 O 0.1279(6) 0.9906(1) 0.6322(5)
C1 C 0.2509(7) 0.8336(1) 1.0326(6)
C2 C 0.2850(7) 0.8000(1) 1.0833(7)
C3 C 0.0888(7) 0.7823(1) 0.9356(7)
C4 C 0.0621(7) 0.7886(1) 0.6931(7)
C5 C 0.0447(6) 0.8219(1) 0.6373(6)
C6 C -0.1145(6) 0.8322(1) 0.4652(6)
C7 C -0.1423(6) 0.8644(1) 0.3917(6)
C8 C 0.0635(5) 0.8834(1) 0.5008(6)
C9 C 0.1566(6) 0.8755(1) 0.7505(6)
C10 C 0.2268(5) 0.8420(1) 0.7865(6)
C11 C 0.3435(6) 0.8973(1) 0.8779(6)
C12 C 0.2806(7) 0.9309(1) 0.8390(6)
C13 C 0.2029(6) 0.9374(1) 0.5905(6)
C14 C 0.0055(6) 0.9168(1) 0.4787(6)
C15 C -0.0961(6) 0.9304(1) 0.2468(6)
C16 C -0.0747(7) 0.9646(1) 0.2924(7)
C17 C 0.0917(6) 0.9678(1) 0.5213(7)
C18 C 0.4009(6) 0.9360(1) 0.4888(7)
C19 C 0.4517(6) 0.8358(1) 0.7343(7)
O3 O 0.6314(6) 0.4967(1) 0.8935(5)
O4 O 0.3623(6) 0.7340(1) 0.4072(6)
C20 C 0.4635(8) 0.5669(1) 0.5564(7)
C21 C 0.4617(8) 0.5339(1) 0.6225(7)
C22 C 0.6447(7) 0.5277(1) 0.8370(7)
C23 C 0.6128(8) 0.5481(1) 1.0199(7)
C24 C 0.6063(6) 0.5809(1) 0.9560(6)
C25 C 0.7421(6) 0.6005(1) 1.0868(6)
C26 C 0.7429(6) 0.6336(1) 1.0439(7)
C27 C 0.5317(6) 0.6437(1) 0.8628(6)
C28 C 0.4856(6) 0.6217(1) 0.6653(6)
C29 C 0.4357(6) 0.5894(1) 0.7341(6)
C30 C 0.3052(7) 0.6329(1) 0.4560(7)
C31 C 0.3386(7) 0.6657(1) 0.3926(7)
C32 C 0.3599(6) 0.6860(1) 0.5929(6)
C33 C 0.5610(6) 0.6753(1) 0.7829(6)
C34 C 0.6128(7) 0.7018(1) 0.9480(7)
C35 C 0.5826(7) 0.7289(1) 0.7905(7)
C36 C 0.4246(7) 0.7187(1) 0.5715(7)
C37 C 0.1373(6) 0.6880(1) 0.6542(8)
C38 C 0.1967(6) 0.5870(1) 0.7596(8)
loop_
_geom_bond_atom_site_label_1
_geom_bond_atom_site_label_2
_geom_bond_site_symmetry_1
_geom_bond_site_symmetry_2
O1 C3 1_555 1_555
O2 C17 1_555 1_555
C1 C2 1_555 1_555
C2 C3 1_555 1_555
C3 C4 1_555 1_555
C4 C5 1_555 1_555
C5 C6 1_555 1_555
C6 C7 1_555 1_555
C7 C8 1_555 1_555
C8 C9 1_555 1_555
C9 C10 1_555 1_555
C10 C1 1_555 1_555
C11 C9 1_555 1_555
C12 C11 1_555 1_555
C13 C12 1_555 1_555
C14 C8 1_555 1_555
C15 C14 1_555 1_555
C16 C15 1_555 1_555
C17 C13 1_555 1_555
C18 C13 1_555 1_555
C19 C10 1_555 1_555
O3 C22 1_555 1_555
O4 C36 1_555 1_555
C20 C21 1_555 1_555
C21 C22 1_555 1_555
C22 C23 1_555 1_555
C23 C24 1_555 1_555
C24 C25 1_555 1_555
C25 C26 1_555 1_555
C26 C27 1_555 1_555
C27 C28 1_555 1_555
C28 C29 1_555 1_555
C29 C20 1_555 1_555
C30 C28 1_555 1_555
C31 C30 1_555 1_555
C32 C31 1_555 1_555
C33 C27 1_555 1_555
C34 C33 1_555 1_555
C35 C34 1_555 1_555
C36 C32 1_555 1_555
C37 C32 1_555 1_555
C38 C29 1_555 1_555
C5 C10 1_555 1_555
C13 C14 1_555 1_555
C16 C17 1_555 1_555
C24 C29 1_555 1_555
C32 C33 1_555 1_555
C35 C36 1_555 1_555

#END
