
#######################################################################
#
#                 Cambridge Crystallographic Data Centre
#                                CCDC 
#
#######################################################################
#
# If this CIF has been generated from an entry in the Cambridge 
# Structural Database, then it will include bibliographic, chemical, 
# crystal, experimental, refinement or atomic coordinate data resulting 
# from the CCDC's data processing and validation procedures.
#
#######################################################################

data_ZOYNAC
_chemical_name_common            
'3-beta-Hydroxy-5-androsten-17-one methanol solvate'
_chemical_formula_moiety         'C19 H28 O2,0.5(C1 H4 O1)'
_chemical_name_systematic        'Dehydroepiandrosterone methanol solvate'
_chemical_properties_biological  'therapeutic agent'
_symmetry_cell_setting           orthorhombic
_symmetry_space_group_name_H-M   'C 2 2 21'
_symmetry_Int_Tables_number      20
_space_group_name_Hall           'C 2n 2'
loop_
_symmetry_equiv_pos_site_id
_symmetry_equiv_pos_as_xyz
1 x,y,z
2 -x,-y,1/2+z
3 x,-y,-z
4 -x,y,1/2-z
5 1/2+x,1/2+y,z
6 1/2-x,1/2-y,1/2+z
7 1/2+x,1/2-y,-z
8 1/2-x,1/2+y,1/2-z
_cell_length_a                   6.760(2)
_cell_length_b                   12.558(3)
_cell_length_c                   41.00(3)
_cell_angle_alpha                90
_cell_angle_beta                 90
_cell_angle_gamma                90
_cell_volume                     3480.58
_cell_formula_units_Z            8
loop_
_atom_site_label
_atom_site_type_symbol
_atom_site_fract_x
_atom_site_fract_y
_atom_site_fract_z
O1 O 0.1631(5) 0.4653(3) 0.2298(1)
O2 O -0.4273(5) 0.6968(2) -0.0076(1)
C1 C -0.0702(7) 0.4558(3) 0.1465(1)
C2 C -0.0156(7) 0.4180(3) 0.1808(1)
C3 C 0.1125(6) 0.5004(4) 0.1974(1)
C4 C 0.0071(7) 0.6071(3) 0.1988(1)
C5 C -0.0590(6) 0.6443(3) 0.1650(1)
C6 C -0.0189(7) 0.7417(3) 0.1547(1)
C7 C -0.0840(7) 0.7878(3) 0.1227(1)
C8 C -0.2421(6) 0.7201(3) 0.1061(1)
C9 C -0.1860(6) 0.6019(3) 0.1087(1)
C10 C -0.1762(6) 0.5649(3) 0.1450(1)
C11 C -0.3152(6) 0.5284(3) 0.0870(1)
C12 C -0.3331(7) 0.5682(3) 0.0516(1)
C13 C -0.4104(6) 0.6801(3) 0.0517(1)
C14 C -0.2655(6) 0.7508(3) 0.0703(1)
C15 C -0.3246(7) 0.8654(3) 0.0617(1)
C16 C -0.3860(7) 0.8564(3) 0.0254(1)
C17 C -0.4121(17) 0.7384(4) 0.0188(1)
C18 C -0.6251(6) 0.6876(4) 0.0640(1)
C19 C -0.3854(6) 0.5552(3) 0.1597(1)
C20 C 0.5000 0.6792(6) 0.2500
O3 O 0.5000 0.5658(4) 0.2500
loop_
_geom_bond_atom_site_label_1
_geom_bond_atom_site_label_2
_geom_bond_site_symmetry_1
_geom_bond_site_symmetry_2
O1 C3 1_555 1_555
O2 C17 1_555 1_555
C1 C2 1_555 1_555
C2 C3 1_555 1_555
C3 C4 1_555 1_555
C4 C5 1_555 1_555
C5 C6 1_555 1_555
C6 C7 1_555 1_555
C7 C8 1_555 1_555
C8 C9 1_555 1_555
C9 C10 1_555 1_555
C10 C1 1_555 1_555
C11 C9 1_555 1_555
C12 C11 1_555 1_555
C13 C12 1_555 1_555
C14 C8 1_555 1_555
C15 C14 1_555 1_555
C16 C15 1_555 1_555
C17 C13 1_555 1_555
C18 C13 1_555 1_555
C19 C10 1_555 1_555
C20 O3 1_555 1_555
C5 C10 1_555 1_555
C13 C14 1_555 1_555
C16 C17 1_555 1_555

#END
