
#######################################################################
#
#                 Cambridge Crystallographic Data Centre
#                                CCDC 
#
#######################################################################
#
# If this CIF has been generated from an entry in the Cambridge 
# Structural Database, then it will include bibliographic, chemical, 
# crystal, experimental, refinement or atomic coordinate data resulting 
# from the CCDC's data processing and validation procedures.
#
#######################################################################

data_ZOZLAD
_chemical_formula_moiety         'C34 H33 N7 O2'
_chemical_name_systematic        
(R)-N-(2-phenylpropyl)-1-(2'-(1H-tetrazol-5-yl)-1,1'-biphenyl-4-yl)methyl-4-methyl-2-ethoxy-1H-benzmidazole-6-carboxamide
_chemical_properties_biological  'angiotensin II receptor type 1 (AT1) blocker'
_symmetry_cell_setting           monoclinic
_symmetry_space_group_name_H-M   'P 21'
_symmetry_Int_Tables_number      4
_space_group_name_Hall           'P 2yb'
loop_
_symmetry_equiv_pos_site_id
_symmetry_equiv_pos_as_xyz
1 x,y,z
2 -x,1/2+y,-z
_cell_length_a                   10.0124(3)
_cell_length_b                   16.6911(6)
_cell_length_c                   17.7884(6)
_cell_angle_alpha                90
_cell_angle_beta                 96.016(4)
_cell_angle_gamma                90
_cell_volume                     2956.39
_exptl_crystal_colour            colorless
_exptl_crystal_description       block
_chemical_melting_point          '469-471 K'
_cell_formula_units_Z            4
_exptl_crystal_recrystallization_method ethanol
loop_
_atom_site_label
_atom_site_type_symbol
_atom_site_fract_x
_atom_site_fract_y
_atom_site_fract_z
O1 O 0.32294(17) 0.42281(12) 0.35855(9)
N1 N 0.23441(19) 0.44688(14) 0.23951(12)
H1 H 0.2141 0.4280 0.1935
N2 N 0.5232(2) 0.10836(14) 0.20499(12)
O2 O 0.60653(18) 0.09157(11) 0.08567(10)
N3 N 1.0181(2) 0.41579(14) -0.03572(12)
H2 H 0.9476 0.4228 -0.0690
N4 N 1.1982(2) 0.36844(15) 0.02054(12)
N5 N 1.1620(2) 0.43216(13) 0.06251(12)
N6 N 1.1123(2) 0.35831(14) -0.03861(13)
N7 N 0.4991(2) 0.20682(14) 0.11747(11)
C1 C 0.6683(3) 0.01681(17) 0.11181(16)
H3 H 0.6873 -0.0158 0.0677
H4 H 0.6049 -0.0136 0.1401
C2 C 0.7563(2) 0.45600(17) 0.04945(14)
C3 C 0.1942(3) 0.52831(17) 0.25633(14)
H5 H 0.1684 0.5568 0.2082
H6 H 0.2721 0.5567 0.2829
C4 C 0.7752(3) 0.60370(17) 0.06722(14)
H7 H 0.6815 0.6045 0.0717
C5 C 0.3494(2) 0.32044(16) 0.26712(14)
C6 C 1.0495(2) 0.46032(16) 0.02594(13)
C7 C 0.4437(2) 0.23622(16) 0.18047(14)
C8 C 0.1075(2) 0.65955(18) 0.38024(15)
H8 H 0.1688 0.6312 0.4149
C9 C 0.8368(3) 0.53112(17) 0.05305(14)
C10 C 0.3893(2) 0.31008(17) 0.19512(14)
H9 H 0.3798 0.3513 0.1582
C11 C 0.9760(2) 0.53244(17) 0.04644(14)
C12 C 1.0475(3) 0.60355(17) 0.05534(14)
H10 H 1.1414 0.6034 0.0513
C13 C 0.3600(2) 0.25732(18) 0.32046(14)
H11 H 0.3296 0.2660 0.3686
C14 C 0.7992(3) 0.38713(17) 0.08914(14)
H12 H 0.8854 0.3864 0.1170
C15 C 0.5010(3) 0.24716(17) 0.04477(14)
H13 H 0.4086 0.2643 0.0266
H14 H 0.5306 0.2087 0.0076
C16 C 0.3011(2) 0.39978(18) 0.29150(14)
C17 C 0.5920(2) 0.31901(16) 0.04859(14)
C18 C 0.4585(2) 0.17416(17) 0.23409(15)
C19 C 0.4134(3) 0.18295(17) 0.30482(14)
C20 C 0.7184(2) 0.31981(16) 0.08871(14)
H15 H 0.7500 0.2736 0.1162
C21 C 0.5450(3) 0.13214(17) 0.13695(15)
C22 C 0.7965(3) 0.0303(3) 0.1618(2)
H16 H 0.8596 0.0601 0.1339
H17 H 0.8359 -0.0215 0.1778
H18 H 0.7776 0.0611 0.2064
C23 C 0.8471(3) 0.67462(17) 0.07485(14)
H19 H 0.8023 0.7234 0.0835
C24 C 0.4259(3) 0.11576(18) 0.36103(15)
H20 H 0.5156 0.1168 0.3890
H21 H 0.4124 0.0645 0.3344
H22 H 0.3579 0.1220 0.3964
C25 C 0.0438(2) 0.61925(17) 0.31858(14)
C26 C 0.9843(3) 0.67453(18) 0.06991(14)
H23 H 1.0343 0.7228 0.0765
C27 C -0.0435(3) 0.66313(19) 0.26911(16)
H24 H -0.0897 0.6373 0.2264
C28 C 0.6300(2) 0.45478(17) 0.00877(14)
H25 H 0.5989 0.5006 -0.0194
C29 C 0.5496(2) 0.38805(17) 0.00884(15)
H26 H 0.4632 0.3890 -0.0188
C30 C 0.0755(2) 0.53187(15) 0.30557(13)
H27 H 0.1054 0.5070 0.3556
C31 C -0.0451(2) 0.48432(16) 0.26897(15)
H28 H -0.0748 0.5071 0.2192
H29 H -0.1186 0.4872 0.3012
H30 H -0.0191 0.4283 0.2631
C32 C 0.0847(3) 0.73977(19) 0.39279(16)
H31 H 0.1287 0.7654 0.4362
C33 C -0.0018(3) 0.78277(19) 0.34239(17)
H32 H -0.0171 0.8381 0.3505
C34 C -0.0650(3) 0.7445(2) 0.28067(17)
H33 H -0.1241 0.7736 0.2454
O3 O 0.80952(17) 0.39588(12) -0.13801(10)
N8 N 0.7325(2) 0.36958(14) -0.25881(12)
H34 H 0.7143 0.3880 -0.3051
N9 N 1.6598(2) 0.38938(14) -0.43371(12)
O4 O 1.10180(18) 0.73080(11) -0.40280(10)
N10 N 1.5263(2) 0.40758(13) -0.53589(12)
H35 H 1.4584 0.4017 -0.5711
N11 N 1.0132(2) 0.71135(14) -0.28593(12)
N12 N 0.9969(2) 0.61408(13) -0.37372(11)
C35 C 0.9381(2) 0.58448(17) -0.31218(14)
N13 N 1.7041(2) 0.45150(14) -0.47465(12)
N14 N 1.6239(2) 0.46244(15) -0.53614(12)
C36 C 0.6965(3) 0.28732(17) -0.24257(15)
H36 H 0.7516 0.2698 -0.1960
H37 H 0.7200 0.2527 -0.2844
C37 C 1.5490(2) 0.36338(16) -0.47363(14)
C38 C 1.2535(2) 0.36957(16) -0.45634(14)
C39 C 0.8475(2) 0.55969(17) -0.17490(15)
H38 H 0.8150 0.5499 -0.1275
C40 C 1.2906(2) 0.43189(17) -0.40640(15)
H39 H 1.3724 0.4284 -0.3743
C41 C 1.5401(3) 0.21895(18) -0.45009(14)
H40 H 1.6349 0.2183 -0.4506
C42 C 0.8845(2) 0.50976(16) -0.29937(14)
H41 H 0.8784 0.4690 -0.3368
C43 C 0.9968(2) 0.57691(16) -0.44727(13)
H42 H 1.0235 0.6175 -0.4834
H43 H 0.9041 0.5598 -0.4648
C44 C 0.8398(2) 0.49761(17) -0.22835(14)
C45 C 1.3320(2) 0.29366(16) -0.45532(14)
C46 C 0.7923(2) 0.41796(18) -0.20574(14)
C47 C 1.4708(2) 0.29152(16) -0.45756(14)
C48 C 1.0891(2) 0.50528(16) -0.44912(14)
C49 C 0.4862(3) 0.0289(2) -0.17197(19)
H44 H 0.4733 -0.0260 -0.1605
C50 C 0.5735(3) 0.0751(2) -0.12551(17)
H45 H 0.6202 0.0524 -0.0814
C51 C 0.9485(2) 0.64571(16) -0.25863(14)
C52 C 1.2098(2) 0.49916(17) -0.40279(14)
H46 H 1.2369 0.5412 -0.3686
C53 C 1.4722(3) 0.14824(17) -0.44193(15)
H47 H 1.5200 0.0991 -0.4357
C54 C 1.3336(3) 0.14941(17) -0.44288(15)
H48 H 1.2860 0.1006 -0.4391
C55 C 0.9002(3) 0.63458(18) -0.18787(14)
C56 C 0.4183(3) 0.0624(2) -0.23475(18)
H49 H 0.3570 0.0309 -0.2666
C57 C 0.9104(3) 0.70115(18) -0.13050(15)
H50 H 0.8535 0.6887 -0.0904
H51 H 0.8804 0.7515 -0.1552
H52 H 1.0039 0.7067 -0.1085
C58 C 1.1339(2) 0.37690(16) -0.50342(14)
H53 H 1.1073 0.3356 -0.5386
C59 C 1.0397(3) 0.68946(16) -0.35257(15)
C60 C 1.0532(2) 0.44413(16) -0.49933(14)
H54 H 0.9717 0.4480 -0.5317
C61 C 1.2649(3) 0.22060(17) -0.44921(14)
H55 H 1.1700 0.2204 -0.4495
C62 C 1.1559(3) 0.80819(18) -0.37753(15)
H56 H 1.0879 0.8371 -0.3513
H57 H 1.1741 0.8403 -0.4221
C63 C 0.5935(3) 0.15490(19) -0.14298(16)
H58 H 0.6532 0.1867 -0.1104
C64 C 0.5498(3) 0.27398(17) -0.23215(18)
H59 H 0.4986 0.2806 -0.2831
C65 C 0.5266(3) 0.18856(18) -0.20785(16)
C66 C 1.2828(3) 0.8008(2) -0.3252(2)
H60 H 1.3494 0.7705 -0.3501
H61 H 1.2638 0.7728 -0.2790
H62 H 1.3181 0.8544 -0.3121
C67 C 0.4378(3) 0.1411(2) -0.25221(16)
H63 H 0.3889 0.1635 -0.2959
C68 C 0.4942(3) 0.33295(19) -0.1821(2)
H64 H 0.5447 0.3308 -0.1319
H65 H 0.3996 0.3205 -0.1779
H66 H 0.5012 0.3868 -0.2033
H67? H 1.0320 0.7574 -0.2631
loop_
_geom_bond_atom_site_label_1
_geom_bond_atom_site_label_2
_geom_bond_site_symmetry_1
_geom_bond_site_symmetry_2
O1 C16 1_555 1_555
N1 H1 1_555 1_555
N2 C18 1_555 1_555
O2 C1 1_555 1_555
N3 H2 1_555 1_555
N4 N5 1_555 1_555
N5 C6 1_555 1_555
N6 N3 1_555 1_555
N7 C7 1_555 1_555
C1 H3 1_555 1_555
H4 C1 1_555 1_555
C2 C9 1_555 1_555
C3 N1 1_555 1_555
H5 C3 1_555 1_555
H6 C3 1_555 1_555
C4 H7 1_555 1_555
C5 C10 1_555 1_555
C6 N3 1_555 1_555
C7 C10 1_555 1_555
C8 H8 1_555 1_555
C9 C4 1_555 1_555
C10 H9 1_555 1_555
C11 C6 1_555 1_555
C12 C11 1_555 1_555
H10 C12 1_555 1_555
C13 C5 1_555 1_555
H11 C13 1_555 1_555
C14 C2 1_555 1_555
H12 C14 1_555 1_555
C15 N7 1_555 1_555
H13 C15 1_555 1_555
H14 C15 1_555 1_555
C16 N1 1_555 1_555
C17 C15 1_555 1_555
C18 C7 1_555 1_555
C19 C13 1_555 1_555
C20 C14 1_555 1_555
H15 C20 1_555 1_555
C21 N2 1_555 1_555
C22 C1 1_555 1_555
H16 C22 1_555 1_555
H17 C22 1_555 1_555
H18 C22 1_555 1_555
C23 C4 1_555 1_555
H19 C23 1_555 1_555
C24 C19 1_555 1_555
H20 C24 1_555 1_555
H21 C24 1_555 1_555
H22 C24 1_555 1_555
C25 C8 1_555 1_555
C26 C12 1_555 1_555
H23 C26 1_555 1_555
C27 C25 1_555 1_555
H24 C27 1_555 1_555
C28 C2 1_555 1_555
H25 C28 1_555 1_555
C29 C17 1_555 1_555
H26 C29 1_555 1_555
C30 C3 1_555 1_555
H27 C30 1_555 1_555
C31 C30 1_555 1_555
H28 C31 1_555 1_555
H29 C31 1_555 1_555
H30 C31 1_555 1_555
C32 C8 1_555 1_555
H31 C32 1_555 1_555
C33 C32 1_555 1_555
H32 C33 1_555 1_555
C34 C27 1_555 1_555
H33 C34 1_555 1_555
O3 C46 1_555 1_555
N8 H34 1_555 1_555
N9 N13 1_555 1_555
O4 C59 1_555 1_555
N10 H35 1_555 1_555
N11 C51 1_555 1_555
N12 C35 1_555 1_555
C35 C42 1_555 1_555
N13 N14 1_555 1_555
N14 N10 1_555 1_555
C36 N8 1_555 1_555
H36 C36 1_555 1_555
H37 C36 1_555 1_555
C37 N9 1_555 1_555
C38 C40 1_555 1_555
C39 H38 1_555 1_555
C40 H39 1_555 1_555
C41 H40 1_555 1_555
C42 H41 1_555 1_555
C43 N12 1_555 1_555
H42 C43 1_555 1_555
H43 C43 1_555 1_555
C44 C39 1_555 1_555
C45 C38 1_555 1_555
C46 N8 1_555 1_555
C47 C37 1_555 1_555
C48 C43 1_555 1_555
C49 H44 1_555 1_555
C50 C49 1_555 1_555
H45 C50 1_555 1_555
C51 C35 1_555 1_555
C52 C40 1_555 1_555
H46 C52 1_555 1_555
C53 C41 1_555 1_555
H47 C53 1_555 1_555
C54 C53 1_555 1_555
H48 C54 1_555 1_555
C55 C39 1_555 1_555
C56 C49 1_555 1_555
H49 C56 1_555 1_555
C57 C55 1_555 1_555
H50 C57 1_555 1_555
H51 C57 1_555 1_555
H52 C57 1_555 1_555
C58 C38 1_555 1_555
H53 C58 1_555 1_555
C59 N11 1_555 1_555
C60 C48 1_555 1_555
H54 C60 1_555 1_555
C61 C45 1_555 1_555
H55 C61 1_555 1_555
C62 O4 1_555 1_555
H56 C62 1_555 1_555
H57 C62 1_555 1_555
C63 C50 1_555 1_555
H58 C63 1_555 1_555
C64 C36 1_555 1_555
H59 C64 1_555 1_555
C65 C63 1_555 1_555
C66 C62 1_555 1_555
H60 C66 1_555 1_555
H61 C66 1_555 1_555
H62 C66 1_555 1_555
C67 C56 1_555 1_555
H63 C67 1_555 1_555
C68 C64 1_555 1_555
H64 C68 1_555 1_555
H65 C68 1_555 1_555
H66 C68 1_555 1_555
O2 C21 1_555 1_555
N4 N6 1_555 1_555
N7 C21 1_555 1_555
C5 C16 1_555 1_555
C9 C11 1_555 1_555
C17 C20 1_555 1_555
C18 C19 1_555 1_555
C23 C26 1_555 1_555
C25 C30 1_555 1_555
C28 C29 1_555 1_555
C33 C34 1_555 1_555
N10 C37 1_555 1_555
N12 C59 1_555 1_555
C41 C47 1_555 1_555
C42 C44 1_555 1_555
C44 C46 1_555 1_555
C45 C47 1_555 1_555
C48 C52 1_555 1_555
C51 C55 1_555 1_555
C54 C61 1_555 1_555
C58 C60 1_555 1_555
C64 C65 1_555 1_555
C65 C67 1_555 1_555

#END
