
#######################################################################
#
#                 Cambridge Crystallographic Data Centre
#                                CCDC 
#
#######################################################################
#
# If this CIF has been generated from an entry in the Cambridge 
# Structural Database, then it will include bibliographic, chemical, 
# crystal, experimental, refinement or atomic coordinate data resulting 
# from the CCDC's data processing and validation procedures.
#
#######################################################################

data_ZUBNOB
_chemical_formula_moiety         'C4 H2 N6 O4,2(C2 H4 N4)'
_chemical_name_systematic        
'1H-1,2,4-Triazol-3-amine 3,6-dinitro-1,4-dihydropyrazolo[4,3-c]pyrazole'
_symmetry_cell_setting           monoclinic
_symmetry_space_group_name_H-M   'P 21/c'
_symmetry_Int_Tables_number      14
_space_group_name_Hall           '-P 2ybc'
loop_
_symmetry_equiv_pos_site_id
_symmetry_equiv_pos_as_xyz
1 x,y,z
2 -x,1/2+y,1/2-z
3 -x,-y,-z
4 x,1/2-y,1/2+z
_cell_length_a                   6.2903(3)
_cell_length_b                   7.2315(3)
_cell_length_c                   15.5555(7)
_cell_angle_alpha                90
_cell_angle_beta                 92.037(2)
_cell_angle_gamma                90
_cell_volume                     707.146
_exptl_crystal_colour            yellow
_exptl_crystal_description       cube
_cell_formula_units_Z            2
loop_
_atom_site_label
_atom_site_type_symbol
_atom_site_fract_x
_atom_site_fract_y
_atom_site_fract_z
N1 N 0.42250(15) 0.45644(13) 0.77489(6)
N2 N 0.56525(15) 0.51773(13) 0.90136(6)
H1 H 0.646(3) 0.557(2) 0.9448(11)
N3 N 0.37602(14) 0.42995(13) 0.91764(6)
N4 N 0.11485(16) 0.29889(16) 0.82288(7)
H2 H 0.049(3) 0.321(2) 0.7728(12)
H3 H 0.039(3) 0.278(2) 0.8684(12)
C1 C 0.58839(17) 0.53187(16) 0.81792(7)
H4 H 0.709(2) 0.588(2) 0.7938(10)
C2 C 0.29765(16) 0.39538(15) 0.83902(6)
O1 O 0.14917(14) 0.69211(12) 0.34740(5)
O2 O -0.03755(13) 0.78293(13) 0.45491(6)
N5 N 0.11498(14) 0.70399(13) 0.42462(6)
N6 N 0.23554(14) 0.60795(12) 0.56541(6)
N7 N 0.40280(14) 0.51671(12) 0.60073(6)
H5 H 0.408(3) 0.494(3) 0.6577(13)
C3 C 0.26794(15) 0.61741(14) 0.48136(6)
C4 C 0.54101(15) 0.46891(14) 0.53941(6)
O1B O 0.85083(14) 0.30789(12) 0.65260(5)
O2B O 1.03755(13) 0.21707(13) 0.54509(6)
N5B N 0.88502(14) 0.29601(13) 0.57538(6)
N6B N 0.76446(14) 0.39205(12) 0.43459(6)
N7B N 0.59720(14) 0.48329(12) 0.39927(6)
H5B H 0.592(3) 0.506(3) 0.3423(13)
C3B C 0.73206(15) 0.38259(14) 0.51864(6)
C4B C 0.45899(15) 0.53109(14) 0.46059(6)
loop_
_geom_bond_atom_site_label_1
_geom_bond_atom_site_label_2
_geom_bond_site_symmetry_1
_geom_bond_site_symmetry_2
N1 C1 1_555 1_555
N2 H1 1_555 1_555
N3 N2 1_555 1_555
N4 H2 1_555 1_555
H3 N4 1_555 1_555
C1 N2 1_555 1_555
H4 C1 1_555 1_555
C2 N1 1_555 1_555
O1 N5 1_555 1_555
O2 N5 1_555 1_555
N5 C3 1_555 1_555
N6 N7 1_555 1_555
N7 H5 1_555 1_555
C3 N6 1_555 1_555
C4 N7 1_555 1_555
O1B N5B 1_555 1_555
O2B N5B 1_555 1_555
N5B C3B 1_555 1_555
N6B N7B 1_555 1_555
N7B H5B 1_555 1_555
C3B C4 1_555 1_555
C4B C3 1_555 1_555
N3 C2 1_555 1_555
N4 C2 1_555 1_555
C4 C4B 1_555 1_555
N6B C3B 1_555 1_555
N7B C4B 1_555 1_555

#END
