
#######################################################################
#
#                 Cambridge Crystallographic Data Centre
#                                CCDC 
#
#######################################################################
#
# If this CIF has been generated from an entry in the Cambridge 
# Structural Database, then it will include bibliographic, chemical, 
# crystal, experimental, refinement or atomic coordinate data resulting 
# from the CCDC's data processing and validation procedures.
#
#######################################################################

data_ZUBYEC
_chemical_formula_moiety         'C20 H18 N2 O6'
_chemical_name_systematic        
1-Acetyl-2-(3-hydroxy-5-methoxy-2-nitro-2,3-dihydro-1H-inden-1-yl)-1,2-dihydro-3H-indol-3-one
_symmetry_cell_setting           orthorhombic
_symmetry_space_group_name_H-M   'P 21 21 21'
_symmetry_Int_Tables_number      19
_space_group_name_Hall           'P 2ac 2ab'
loop_
_symmetry_equiv_pos_site_id
_symmetry_equiv_pos_as_xyz
1 x,y,z
2 1/2-x,-y,1/2+z
3 1/2+x,1/2-y,-z
4 -x,1/2+y,1/2-z
_cell_length_a                   6.2993(7)
_cell_length_b                   13.2375(16)
_cell_length_c                   20.817(2)
_cell_angle_alpha                90
_cell_angle_beta                 90
_cell_angle_gamma                90
_cell_volume                     1735.87
_exptl_crystal_colour            colorless
_exptl_crystal_description       plate
_cell_formula_units_Z            4
_exptl_crystal_recrystallization_method dichloromethane/acetone
loop_
_atom_site_label
_atom_site_type_symbol
_atom_site_fract_x
_atom_site_fract_y
_atom_site_fract_z
C1 C 0.4835(6) 0.5158(4) 0.45987(15)
C2 C 0.7296(6) 0.4998(4) 0.37206(16)
C3 C 1.0382(6) 0.6015(4) 0.35596(16)
C4 C 0.6053(7) 0.5937(4) 0.48478(16)
C5 C 0.5443(6) 0.4676(3) 0.40335(16)
C6 C 0.6974(7) 0.1779(4) 0.44631(18)
C7 C 0.5730(7) 0.2277(4) 0.34037(17)
C8 C 0.9006(7) 0.2961(4) 0.37013(17)
C9 C 0.7914(6) 0.6253(4) 0.45416(17)
C10 C 0.8514(7) 0.5775(4) 0.39803(16)
C11 C 0.7242(7) 0.2306(4) 0.38878(16)
C12 C 0.3911(7) 0.1695(4) 0.34620(18)
C13 C 0.5348(7) 0.3008(4) 0.23084(18)
C14 C 0.6330(7) 0.3587(4) 0.17733(16)
C15 C 0.8416(6) 0.3423(4) 0.30444(16)
C16 C 0.8283(6) 0.4581(4) 0.31072(16)
C17 C 1.0524(6) 0.5035(4) 0.31532(16)
C18 C 0.3673(8) 0.1166(4) 0.40331(18)
C19 C 0.5128(8) 0.1195(4) 0.45290(18)
C20 C 0.3697(8) 0.6138(4) 0.57491(16)
O1 O 1.0624(4) 0.3164(3) 0.39889(11)
O2 O 0.5574(5) 0.6451(3) 0.54099(11)
O3 O 1.0101(5) 0.6884(3) 0.31711(11)
O4 O 1.0453(5) 0.5369(3) 0.20431(12)
O5 O 0.3594(6) 0.2610(3) 0.22381(14)
O6 O 1.3478(5) 0.5340(3) 0.25236(15)
N1 N 0.6361(6) 0.2929(3) 0.28900(13)
N2 N 1.1547(6) 0.5266(3) 0.25177(15)
H1 H 0.84746 0.19444 0.48411
H2 H 0.36461 0.54195 0.57996
H3 H 0.44467 0.41325 0.38129
H4 H 0.31264 0.65965 0.60646
H5 H 0.25759 0.07390 0.41291
H6 H 0.97100 0.31500 0.26560
H7 H 1.13830 0.44980 0.33680
H8 H 0.75220 0.48350 0.26970
H9 H 0.35870 0.48640 0.49110
H10 H 0.85960 0.69990 0.30590
H11 H 0.53730 0.08206 0.50000
H12 H 0.28566 0.62529 0.53603
H13 H 0.28927 0.16284 0.31154
H14 H 0.87600 0.67989 0.47054
H15 H 1.16388 0.61230 0.38077
H16 H 0.56090 0.42287 0.17207
H17 H 0.62779 0.32351 0.13813
H18 H 0.77783 0.37338 0.18799
loop_
_geom_bond_atom_site_label_1
_geom_bond_atom_site_label_2
_geom_bond_site_symmetry_1
_geom_bond_site_symmetry_2
C1 C4 1_555 1_555
C2 C5 1_555 1_555
C3 C10 1_555 1_555
C4 C9 1_555 1_555
C5 C1 1_555 1_555
C6 C11 1_555 1_555
C7 C11 1_555 1_555
C8 C11 1_555 1_555
C9 C10 1_555 1_555
C10 C2 1_555 1_555
C12 C7 1_555 1_555
C13 C14 1_555 1_555
C14 H16 1_555 1_555
C15 C8 1_555 1_555
C16 C2 1_555 1_555
C17 C3 1_555 1_555
C18 C12 1_555 1_555
C19 C6 1_555 1_555
C20 O2 1_555 1_555
O1 C8 1_555 1_555
O2 C4 1_555 1_555
O3 C3 1_555 1_555
O4 N2 1_555 1_555
O5 C13 1_555 1_555
O6 N2 1_555 1_555
N1 C7 1_555 1_555
N2 C17 1_555 1_555
H1 C6 1_555 1_555
H2 C20 1_555 1_555
H3 C5 1_555 1_555
H4 C20 1_555 1_555
H5 C18 1_555 1_555
H6 C15 1_555 1_555
H7 C17 1_555 1_555
H8 C16 1_555 1_555
H9 C1 1_555 1_555
H10 O3 1_555 1_555
H11 C19 1_555 1_555
H12 C20 1_555 1_555
H13 C12 1_555 1_555
H14 C9 1_555 1_555
H15 C3 1_555 1_555
H17 C14 1_555 1_555
H18 C14 1_555 1_555
C13 N1 1_555 1_555
C15 C16 1_555 1_555
C15 N1 1_555 1_555
C16 C17 1_555 1_555
C18 C19 1_555 1_555

#END
