
#######################################################################
#
#                 Cambridge Crystallographic Data Centre
#                                CCDC 
#
#######################################################################
#
# If this CIF has been generated from an entry in the Cambridge 
# Structural Database, then it will include bibliographic, chemical, 
# crystal, experimental, refinement or atomic coordinate data resulting 
# from the CCDC's data processing and validation procedures.
#
#######################################################################

data_ZUDCIK
_chemical_formula_moiety         'C11 H9 F3 O2'
_chemical_name_systematic        4-Phenyl-2-(trifluoromethyl)butyrolactone
_symmetry_cell_setting           orthorhombic
_symmetry_space_group_name_H-M   'P 21 21 21'
_symmetry_Int_Tables_number      19
_space_group_name_Hall           'P 2ac 2ab'
loop_
_symmetry_equiv_pos_site_id
_symmetry_equiv_pos_as_xyz
1 x,y,z
2 1/2-x,-y,1/2+z
3 1/2+x,1/2-y,-z
4 -x,1/2+y,1/2-z
_cell_length_a                   6.3124(8)
_cell_length_b                   8.5420(11)
_cell_length_c                   18.526(3)
_cell_angle_alpha                90
_cell_angle_beta                 90
_cell_angle_gamma                90
_cell_volume                     998.932
_exptl_crystal_colour            white
_chemical_melting_point          76.4-77.3deg.C
_cell_formula_units_Z            4
loop_
_atom_site_label
_atom_site_type_symbol
_atom_site_fract_x
_atom_site_fract_y
_atom_site_fract_z
F1 F 0.1489(5) 0.4737(4) -0.0522(2)
F2 F 0.2720(5) 0.2739(3) 0.0041(2)
F3 F 0.0818(5) 0.4434(4) 0.0611(2)
O1 O 0.3122(6) 0.7845(4) 0.0029(2)
O2 O 0.4007(6) 0.7201(4) 0.1154(2)
C1 C 0.4592(9) 0.5783(6) 0.1560(3)
C2 C 0.5378(9) 0.4629(6) 0.0991(3)
C3 C 0.4298(8) 0.5177(6) 0.0291(3)
C4 C 0.3735(8) 0.6880(6) 0.0447(3)
C5 C 0.2337(9) 0.4285(6) 0.0105(3)
C6 C 0.6227(8) 0.6195(6) 0.2124(3)
C7 C 0.6032(9) 0.5621(7) 0.2818(3)
C8 C 0.7598(10) 0.5900(7) 0.3325(3)
C9 C 0.9361(10) 0.6767(7) 0.3147(3)
C10 C 0.9588(10) 0.7358(7) 0.2451(3)
C11 C 0.8013(9) 0.7058(7) 0.1939(3)
H1 H 0.3206(76) 0.5488(57) 0.1790(24)
H2 H 0.4952(9) 0.3545(6) 0.1114(3)
H3 H 0.6939(9) 0.4672(6) 0.0946(3)
H4 H 0.5241(62) 0.5030(45) -0.0152(21)
H5 H 0.4815(9) 0.5031(7) 0.2948(3)
H6 H 0.7455(10) 0.5490(7) 0.3799(3)
H7 H 1.0422(10) 0.6962(7) 0.3500(3)
H8 H 1.0800(10) 0.7959(7) 0.2326(3)
H9 H 0.8164(9) 0.7447(7) 0.1462(3)
loop_
_geom_bond_atom_site_label_1
_geom_bond_atom_site_label_2
_geom_bond_site_symmetry_1
_geom_bond_site_symmetry_2
F1 C5 1_555 1_555
F2 C5 1_555 1_555
F3 C5 1_555 1_555
O1 C4 1_555 1_555
O2 C1 1_555 1_555
C1 C2 1_555 1_555
C2 C3 1_555 1_555
C3 C4 1_555 1_555
C4 O2 1_555 1_555
C5 C3 1_555 1_555
C6 C1 1_555 1_555
C7 C6 1_555 1_555
C8 C7 1_555 1_555
C9 C8 1_555 1_555
C10 C9 1_555 1_555
C11 C6 1_555 1_555
H1 C1 1_555 1_555
H2 C2 1_555 1_555
H3 C2 1_555 1_555
H4 C3 1_555 1_555
H5 C7 1_555 1_555
H6 C8 1_555 1_555
H7 C9 1_555 1_555
H8 C10 1_555 1_555
H9 C11 1_555 1_555
C10 C11 1_555 1_555

#END
