
#######################################################################
#
#                 Cambridge Crystallographic Data Centre
#                                CCDC 
#
#######################################################################
#
# If this CIF has been generated from an entry in the Cambridge 
# Structural Database, then it will include bibliographic, chemical, 
# crystal, experimental, refinement or atomic coordinate data resulting 
# from the CCDC's data processing and validation procedures.
#
#######################################################################

data_ZUDDAF
_chemical_formula_moiety         'C24 H30 N2 O4'
_chemical_name_systematic        
N\a-acetyl-\a-(t-butoxycarbonyl)-N-(1-phenylethyl)phenylalaninamide
_symmetry_cell_setting           orthorhombic
_symmetry_space_group_name_H-M   'P 21 21 21'
_symmetry_Int_Tables_number      19
_space_group_name_Hall           'P 2ac 2ab'
loop_
_symmetry_equiv_pos_site_id
_symmetry_equiv_pos_as_xyz
1 x,y,z
2 1/2+x,1/2-y,-z
3 -x,1/2+y,1/2-z
4 1/2-x,-y,1/2+z
_cell_length_a                   8.0770(5)
_cell_length_b                   10.5732(8)
_cell_length_c                   26.8277(18)
_cell_angle_alpha                90
_cell_angle_beta                 90
_cell_angle_gamma                90
_cell_volume                     2291.08
_exptl_crystal_colour            colorless
_exptl_crystal_description       block
_cell_formula_units_Z            4
loop_
_atom_site_label
_atom_site_type_symbol
_atom_site_fract_x
_atom_site_fract_y
_atom_site_fract_z
O1 O 0.5795(2) 0.53511(17) 0.10573(6)
O2 O 0.63566(19) 0.80684(17) 0.02107(6)
O3 O 0.12424(19) 0.75723(18) 0.11096(6)
O4 O 0.26318(18) 0.63283(15) 0.16432(5)
N1 N 0.3915(3) 0.54529(19) 0.04311(7)
N2 N 0.3829(3) 0.80950(17) 0.05736(6)
C1 C 0.3251(4) 0.2813(3) -0.04430(10)
C2 C 0.3280(4) 0.2554(3) -0.09419(12)
C3 C 0.4043(5) 0.3353(4) -0.12645(11)
C4 C 0.4761(5) 0.4452(4) -0.10873(11)
C5 C 0.4717(4) 0.4729(3) -0.05858(10)
C6 C 0.3982(3) 0.3899(2) -0.02540(8)
C7 C 0.4105(4) 0.4114(3) 0.03035(9)
C8 C 0.2924(5) 0.3330(3) 0.06200(11)
C9 C 0.4734(3) 0.5931(3) 0.08253(8)
C10 C 0.4184(3) 0.7270(2) 0.09948(7)
C11 C 0.5479(3) 0.7833(3) 0.13551(8)
C12 C 0.4906(3) 0.9012(3) 0.16199(9)
C13 C 0.4259(4) 0.8941(4) 0.20956(12)
C14 C 0.3714(5) 1.0044(6) 0.23372(18)
C15 C 0.3832(5) 1.1181(6) 0.2109(3)
C16 C 0.4525(7) 1.1276(4) 0.1643(2)
C17 C 0.5057(5) 1.0183(3) 0.14023(13)
C18 C 0.4904(3) 0.8427(3) 0.02129(8)
C19 C 0.4187(4) 0.9271(3) -0.01831(10)
C20 C 0.2505(3) 0.7087(3) 0.12547(8)
C21 C 0.1140(3) 0.5961(3) 0.19417(9)
C22 C -0.0047(4) 0.5242(4) 0.16143(11)
C23 C 0.1881(5) 0.5129(4) 0.23383(12)
C24 C 0.0351(4) 0.7114(4) 0.21684(11)
H1 H 0.2733 0.2252 -0.0227
H2 H 0.321(4) 0.585(3) 0.0276(13)
H3 H 0.2772 0.1825 -0.1061
H4 H 0.279(4) 0.828(3) 0.0564(9)
H5 H 0.4083 0.3162 -0.1603
H6 H 0.5275 0.5006 -0.1308
H7 H 0.5183 0.5477 -0.0470
H8 H 0.519(4) 0.389(3) 0.0393(9)
H9 H 0.3194 0.2450 0.0586
H10 H 0.1808 0.3470 0.0510
H11 H 0.3028 0.3575 0.0963
H12 H 0.5763 0.7199 0.1602
H13 H 0.6476 0.8028 0.1169
H14 H 0.4185 0.8163 0.2256
H15 H 0.3269 0.9992 0.2656
H16 H 0.3441 1.1903 0.2268
H17 H 0.4637 1.2061 0.1490
H18 H 0.5526 1.0247 0.1087
H19 H 0.4417 1.0138 -0.0102
H20 H 0.3012 0.9146 -0.0200
H21 H 0.4676 0.9068 -0.0499
H22 H -0.0875 0.4844 0.1818
H23 H 0.0547 0.4609 0.1431
H24 H -0.0570 0.5816 0.1386
H25 H 0.2752 0.5577 0.2506
H26 H 0.2323 0.4378 0.2187
H27 H 0.1041 0.4900 0.2575
H28 H -0.0487 0.6858 0.2401
H29 H -0.0143 0.7617 0.1910
H30 H 0.1178 0.7603 0.2338
loop_
_geom_bond_atom_site_label_1
_geom_bond_atom_site_label_2
_geom_bond_site_symmetry_1
_geom_bond_site_symmetry_2
O1 C9 1_555 1_555
O2 C18 1_555 1_555
O3 C20 1_555 1_555
O4 C20 1_555 1_555
N1 C7 1_555 1_555
N2 C10 1_555 1_555
C1 C2 1_555 1_555
C2 C3 1_555 1_555
C3 C4 1_555 1_555
C4 C5 1_555 1_555
C5 C6 1_555 1_555
C6 C1 1_555 1_555
C7 C6 1_555 1_555
C8 C7 1_555 1_555
C9 N1 1_555 1_555
C10 C9 1_555 1_555
C11 C10 1_555 1_555
C12 C11 1_555 1_555
C13 C12 1_555 1_555
C14 C13 1_555 1_555
C15 C14 1_555 1_555
C16 C15 1_555 1_555
C17 C12 1_555 1_555
C18 N2 1_555 1_555
C19 C18 1_555 1_555
C20 C10 1_555 1_555
C21 O4 1_555 1_555
C22 C21 1_555 1_555
C23 C21 1_555 1_555
C24 C21 1_555 1_555
H1 C1 1_555 1_555
H2 N1 1_555 1_555
H3 C2 1_555 1_555
H4 N2 1_555 1_555
H5 C3 1_555 1_555
H6 C4 1_555 1_555
H7 C5 1_555 1_555
H8 C7 1_555 1_555
H9 C8 1_555 1_555
H10 C8 1_555 1_555
H11 C8 1_555 1_555
H12 C11 1_555 1_555
H13 C11 1_555 1_555
H14 C13 1_555 1_555
H15 C14 1_555 1_555
H16 C15 1_555 1_555
H17 C16 1_555 1_555
H18 C17 1_555 1_555
H19 C19 1_555 1_555
H20 C19 1_555 1_555
H21 C19 1_555 1_555
H22 C22 1_555 1_555
H23 C22 1_555 1_555
H24 C22 1_555 1_555
H25 C23 1_555 1_555
H26 C23 1_555 1_555
H27 C23 1_555 1_555
H28 C24 1_555 1_555
H29 C24 1_555 1_555
H30 C24 1_555 1_555
C16 C17 1_555 1_555

#END
