
#######################################################################
#
#                 Cambridge Crystallographic Data Centre
#                                CCDC 
#
#######################################################################
#
# If this CIF has been generated from an entry in the Cambridge 
# Structural Database, then it will include bibliographic, chemical, 
# crystal, experimental, refinement or atomic coordinate data resulting 
# from the CCDC's data processing and validation procedures.
#
#######################################################################

data_ZUGDOU10
_chemical_formula_moiety         'C29 H45 Ba1 Cl2 N3 O8 2+,2(Br1 1-)'
_chemical_name_systematic        
'Aqua-(7,16-bis(5-chloro-2-hydroxybenzyl)-1,4,10,13-tetra-oxa-7,16-diazacyclo-octadecane)-(dimethyl formamide)-barium dibromide'
_symmetry_cell_setting           monoclinic
_symmetry_space_group_name_H-M   'P 21/c'
_symmetry_Int_Tables_number      14
_space_group_name_Hall           '-P 2ybc'
loop_
_symmetry_equiv_pos_site_id
_symmetry_equiv_pos_as_xyz
1 x,y,z
2 -x,1/2+y,1/2-z
3 -x,-y,-z
4 x,1/2-y,1/2+z
_cell_length_a                   11.664(6)
_cell_length_b                   9.717(5)
_cell_length_c                   33.064(11)
_cell_angle_alpha                90
_cell_angle_beta                 91.06(3)
_cell_angle_gamma                90
_cell_volume                     3746.8
_exptl_crystal_colour            colorless
_cell_formula_units_Z            4
loop_
_atom_site_label
_atom_site_type_symbol
_atom_site_fract_x
_atom_site_fract_y
_atom_site_fract_z
Ba1 Ba 0.2062(1) 0.0190(1) 0.1326(1)
C1 C 0.7129(13) 0.4422(19) 0.1735(5)
Cl1 Cl 0.7200(4) 0.6152(6) 0.1663(2)
C2 C 0.8015(13) 0.3689(22) 0.1935(5)
C3 C 0.7935(11) 0.2314(21) 0.2002(4)
C4 C 0.6969(11) 0.1525(19) 0.1860(4)
O1 O 0.6894(8) 0.0195(11) 0.1928(3)
C5 C 0.6086(10) 0.2256(17) 0.1653(4)
C6 C 0.6198(12) 0.3645(17) 0.1591(5)
C7 C 0.5021(9) 0.1513(15) 0.1503(4)
N1 N 0.4004(8) 0.1585(11) 0.1782(3)
C8 C 0.3605(11) 0.2986(14) 0.1857(5)
C9 C 0.3138(12) 0.3699(15) 0.1481(5)
O2 O 0.2071(7) 0.3015(9) 0.1377(3)
C10 C 0.1455(12) 0.3674(15) 0.1066(5)
C11 C 0.0220(11) 0.3222(14) 0.1068(6)
O3 O 0.0187(7) 0.1749(9) 0.1072(3)
C12 C -0.0934(10) 0.1208(14) 0.0988(4)
C13 C -0.0968(10) -0.0282(14) 0.1089(4)
N2 N -0.0045(8) -0.1115(10) 0.0923(3)
C14 C -0.0146(11) -0.2566(13) 0.1052(3)
C15 C 0.0173(11) -0.2839(13) 0.1487(4)
O4 O 0.1365(7) -0.2489(8) 0.1558(2)
C16 C 0.1749(11) -0.2893(14) 0.1951(4)
C17 C 0.2994(11) -0.2569(14) 0.2000(4)
O5 O 0.3123(7) -0.1135(9) 0.1994(3)
C18 C 0.4219(12) -0.0646(17) 0.2136(5)
C19 C 0.4191(12) 0.0877(16) 0.2165(4)
C20 C -0.0110(10) -0.1078(14) 0.0483(4)
C21 C 0.0933(10) -0.1676(13) 0.0273(3)
C22 C 0.0932(10) -0.2957(14) 0.0089(4)
C23 C 0.1869(11) -0.3458(15) -0.0101(5)
Cl2 Cl 0.1850(4) -0.5055(5) -0.0318(2)
C24 C 0.2854(12) -0.2609(16) -0.0138(4)
C25 C 0.2868(11) -0.1350(16) 0.0038(4)
C26 C 0.1923(11) -0.0882(14) 0.0263(4)
O6 O 0.1920(8) 0.0383(9) 0.0438(3)
N3 N 0.4924(9) -0.2839(12) 0.0732(3)
C27 C 0.5147(16) -0.4122(16) 0.0549(5)
C28 C 0.5808(13) -0.1819(19) 0.0739(5)
C29 C 0.3923(12) -0.2535(17) 0.0907(5)
O7 O 0.3679(9) -0.1438(11) 0.1069(3)
O8 O 0.0887(8) 0.0859(10) 0.2004(3)
H1 H 0.8665 0.4177 0.2044
H2 H 0.8560 0.1835 0.2131
H3 H 0.7546 -0.0040 0.2106
H4 H 0.5602 0.4115 0.1442
H5 H 0.5230 0.0562 0.1475
H6 H 0.4795 0.1846 0.1240
H7 H 0.4235 0.3510 0.1967
H8 H 0.3020 0.2959 0.2057
H9 H 0.3673 0.3661 0.1264
H10 H 0.2985 0.4646 0.1543
H11 H 0.1768 0.3412 0.0811
H12 H 0.1513 0.4656 0.1094
H13 H -0.0212 0.3569 0.0840
H14 H -0.0115 0.3571 0.1311
H15 H -0.1130 0.1310 0.0707
H16 H -0.1490 0.1701 0.1142
H17 H -0.1697 -0.0658 0.1007
H18 H -0.0907 -0.0355 0.1378
H19 H 0.0361 -0.3113 0.0893
H20 H -0.0915 -0.2867 0.0993
H21 H 0.0033 -0.3784 0.1555
H22 H -0.0293 -0.2264 0.1653
H23 H 0.1611 -0.3858 0.1989
H24 H 0.1326 -0.2393 0.2150
H25 H 0.3408 -0.2972 0.1781
H26 H 0.3290 -0.2937 0.2250
H27 H 0.4792 -0.0908 0.1946
H28 H 0.4412 -0.1049 0.2393
H29 H 0.3584 0.1120 0.2344
H30 H 0.4898 0.1200 0.2284
H31 H -0.0207 -0.0139 0.0399
H32 H -0.0799 -0.1579 0.0395
H33 H 0.0258 -0.3518 0.0107
H34 H 0.3507 -0.2932 -0.0282
H35 H 0.3533 -0.0777 0.0015
H36 H 0.5936 -0.4289 0.0621
H37 H 0.4991 -0.4469 0.0282
H38 H 0.4663 -0.4580 0.0738
H39 H 0.6452 -0.2002 0.0571
H40 H 0.6058 -0.1793 0.1017
H41 H 0.5475 -0.0949 0.0665
H42 H 0.3346 -0.3240 0.0904
H43 H 0.0615 0.0368 0.2210
H44 H 0.0925 0.1853 0.2081
Br1 Br 0.1004(1) 0.3869(1) 0.2529(1)
Br2 Br 0.5946(1) -0.2188(2) -0.0450(1)
loop_
_geom_bond_atom_site_label_1
_geom_bond_atom_site_label_2
_geom_bond_site_symmetry_1
_geom_bond_site_symmetry_2
Ba1 N1 1_555 1_555
C1 Cl1 1_555 1_555
C2 C1 1_555 1_555
C3 C2 1_555 1_555
C4 C3 1_555 1_555
O1 C4 1_555 1_555
C5 C4 1_555 1_555
C6 C1 1_555 1_555
C7 C5 1_555 1_555
N1 C7 1_555 1_555
C8 N1 1_555 1_555
C9 C8 1_555 1_555
O2 Ba1 1_555 1_555
C10 O2 1_555 1_555
C11 C10 1_555 1_555
O3 Ba1 1_555 1_555
C12 O3 1_555 1_555
C13 C12 1_555 1_555
N2 Ba1 1_555 1_555
C14 N2 1_555 1_555
C15 C14 1_555 1_555
O4 Ba1 1_555 1_555
C16 O4 1_555 1_555
C17 C16 1_555 1_555
O5 Ba1 1_555 1_555
C18 O5 1_555 1_555
C19 N1 1_555 1_555
C20 N2 1_555 1_555
C21 C20 1_555 1_555
C22 C21 1_555 1_555
C23 C22 1_555 1_555
Cl2 C23 1_555 1_555
C24 C23 1_555 1_555
C25 C24 1_555 1_555
C26 C21 1_555 1_555
O6 Ba1 1_555 1_555
N3 C27 1_555 1_555
C27 H36 1_555 1_555
C28 N3 1_555 1_555
C29 N3 1_555 1_555
O7 Ba1 1_555 1_555
O8 Ba1 1_555 1_555
H1 C2 1_555 1_555
H2 C3 1_555 1_555
H3 O1 1_555 1_555
H4 C6 1_555 1_555
H5 C7 1_555 1_555
H6 C7 1_555 1_555
H7 C8 1_555 1_555
H8 C8 1_555 1_555
H9 C9 1_555 1_555
H10 C9 1_555 1_555
H11 C10 1_555 1_555
H12 C10 1_555 1_555
H13 C11 1_555 1_555
H14 C11 1_555 1_555
H15 C12 1_555 1_555
H16 C12 1_555 1_555
H17 C13 1_555 1_555
H18 C13 1_555 1_555
H19 C14 1_555 1_555
H20 C14 1_555 1_555
H21 C15 1_555 1_555
H22 C15 1_555 1_555
H23 C16 1_555 1_555
H24 C16 1_555 1_555
H25 C17 1_555 1_555
H26 C17 1_555 1_555
H27 C18 1_555 1_555
H28 C18 1_555 1_555
H29 C19 1_555 1_555
H30 C19 1_555 1_555
H31 C20 1_555 1_555
H32 C20 1_555 1_555
H33 C22 1_555 1_555
H34 C24 1_555 1_555
H35 C25 1_555 1_555
H37 C27 1_555 1_555
H38 C27 1_555 1_555
H39 C28 1_555 1_555
H40 C28 1_555 1_555
H41 C28 1_555 1_555
H42 C29 1_555 1_555
H43 O8 1_555 1_555
H44 O8 1_555 1_555
C5 C6 1_555 1_555
C9 O2 1_555 1_555
C11 O3 1_555 1_555
C13 N2 1_555 1_555
C15 O4 1_555 1_555
C17 O5 1_555 1_555
C18 C19 1_555 1_555
C25 C26 1_555 1_555
C26 O6 1_555 1_555
C29 O7 1_555 1_555

#END
