
#######################################################################
#
#                 Cambridge Crystallographic Data Centre
#                                CCDC 
#
#######################################################################
#
# If this CIF has been generated from an entry in the Cambridge 
# Structural Database, then it will include bibliographic, chemical, 
# crystal, experimental, refinement or atomic coordinate data resulting 
# from the CCDC's data processing and validation procedures.
#
#######################################################################

data_ZUGPOH
_chemical_formula_moiety         'C7 H3 Cl1 N2 O2'
_chemical_name_systematic        6-Chloro-2-nitrobenzonitrile
_symmetry_cell_setting           orthorhombic
_symmetry_space_group_name_H-M   'P b c a'
_symmetry_Int_Tables_number      61
_space_group_name_Hall           '-P 2ac 2ab'
loop_
_symmetry_equiv_pos_site_id
_symmetry_equiv_pos_as_xyz
1 x,y,z
2 1/2-x,-y,1/2+z
3 1/2+x,1/2-y,-z
4 -x,1/2+y,1/2-z
5 -x,-y,-z
6 1/2+x,y,1/2-z
7 1/2-x,1/2+y,z
8 x,1/2-y,1/2+z
_cell_length_a                   9.469(5)
_cell_length_b                   14.752(7)
_cell_length_c                   10.859(5)
_cell_angle_alpha                90
_cell_angle_beta                 90
_cell_angle_gamma                90
_cell_volume                     1516.86
_exptl_crystal_colour            yellow
_cell_formula_units_Z            8
loop_
_atom_site_label
_atom_site_type_symbol
_atom_site_fract_x
_atom_site_fract_y
_atom_site_fract_z
Cl1 Cl 0.52580(7) 0.46161(4) 0.28936(5)
C1 C 0.4175(2) 0.3281(1) 0.1477(2)
C2 C 0.3368(2) 0.3004(1) 0.0469(2)
C3 C 0.2711(2) 0.3612(1) -0.0302(2)
C4 C 0.2837(2) 0.4527(1) -0.0075(2)
C5 C 0.3621(2) 0.4830(1) 0.0910(2)
C6 C 0.4282(2) 0.4217(1) 0.1675(2)
C7 C 0.4897(2) 0.2677(1) 0.2311(2)
N1 N 0.5511(2) 0.2264(1) 0.3014(2)
N2 N 0.3217(2) 0.2033(1) 0.0191(2)
O1 O 0.3885(2) 0.1497(1) 0.0798(2)
O2 O 0.2439(2) 0.1811(1) -0.0645(1)
H1 H 0.221(2) 0.341(1) -0.099(2)
H2 H 0.240(2) 0.493(2) -0.058(2)
H3 H 0.369(2) 0.546(1) 0.109(2)
loop_
_geom_bond_atom_site_label_1
_geom_bond_atom_site_label_2
_geom_bond_site_symmetry_1
_geom_bond_site_symmetry_2
Cl1 C6 1_555 1_555
C1 C2 1_555 1_555
C2 C3 1_555 1_555
C3 C4 1_555 1_555
C4 C5 1_555 1_555
C5 C6 1_555 1_555
C6 C1 1_555 1_555
C7 C1 1_555 1_555
N1 C7 1_555 1_555
N2 C2 1_555 1_555
O1 N2 1_555 1_555
O2 N2 1_555 1_555
H1 C3 1_555 1_555
H2 C4 1_555 1_555
H3 C5 1_555 1_555

#END
