
#######################################################################
#
#                 Cambridge Crystallographic Data Centre
#                                CCDC 
#
#######################################################################
#
# If this CIF has been generated from an entry in the Cambridge 
# Structural Database, then it will include bibliographic, chemical, 
# crystal, experimental, refinement or atomic coordinate data resulting 
# from the CCDC's data processing and validation procedures.
#
#######################################################################

data_ZUGZIM
_chemical_formula_moiety         'C5 H13 N2 1+,C6 H5 N1 O3,C6 H4 N1 O3 1-,H2 O1'
_chemical_name_systematic        
'4-methylpiperazin-1-ium 4-nitrophenol 4-nitrophenolate monohydrate'
_symmetry_cell_setting           monoclinic
_symmetry_space_group_name_H-M   'P 21/n'
_symmetry_Int_Tables_number      14
_space_group_name_Hall           '-P 2yn'
loop_
_symmetry_equiv_pos_site_id
_symmetry_equiv_pos_as_xyz
1 x,y,z
2 1/2-x,1/2+y,1/2-z
3 -x,-y,-z
4 1/2+x,1/2-y,1/2+z
_cell_length_a                   11.1938(4)
_cell_length_b                   6.2917(3)
_cell_length_c                   27.8059(10)
_cell_angle_alpha                90
_cell_angle_beta                 97.353(2)
_cell_angle_gamma                90
_cell_volume                     1942.21
_exptl_crystal_colour            yellow
_exptl_crystal_description       block
_cell_formula_units_Z            4
loop_
_atom_site_label
_atom_site_type_symbol
_atom_site_fract_x
_atom_site_fract_y
_atom_site_fract_z
C6 C 0.51222(12) 0.3985(2) 0.76611(5)
C7 C 0.41995(13) 0.5429(2) 0.77210(5)
H14 H 0.4237 0.6800 0.7599
C8 C 0.32442(13) 0.4863(3) 0.79556(6)
H15 H 0.2634 0.5835 0.7988
C9 C 0.31934(13) 0.2843(3) 0.81437(5)
C10 C 0.40851(14) 0.1376(3) 0.80937(6)
H16 H 0.4046 0.0018 0.8223
C11 C 0.50274(13) 0.1941(2) 0.78520(6)
H17 H 0.5620 0.0942 0.7813
N3 N 0.21859(12) 0.2216(3) 0.83889(5)
O1 O 0.60375(8) 0.45196(16) 0.74342(4)
O2 O 0.21898(12) 0.0432(3) 0.85679(6)
O3 O 0.13566(11) 0.3478(2) 0.84034(5)
C12 C 0.21319(13) 0.3413(3) 0.99130(5)
C13 C 0.31328(15) 0.2119(3) 0.99127(6)
H18 H 0.3185 0.0853 1.0087
C14 C 0.40490(16) 0.2705(3) 0.96549(7)
H19 H 0.4719 0.1833 0.9652
C15 C 0.39719(14) 0.4577(3) 0.94023(6)
C16 C 0.29786(15) 0.5858(3) 0.93906(6)
H20 H 0.2929 0.7117 0.9214
C17 C 0.20588(15) 0.5260(3) 0.96429(5)
H21 H 0.1376 0.6110 0.9632
N4 N 0.49744(14) 0.5242(3) 0.91490(6)
O4 O 0.12185(10) 0.2961(2) 1.01635(4)
H22 H 0.1423 0.2013 1.0359
O5 O 0.58106(14) 0.4013(3) 0.91367(6)
O6 O 0.49431(13) 0.7013(3) 0.89700(6)
O7 O 0.67103(11) 0.83652(19) 0.71488(5)
H23 H 0.6422(16) 0.712(3) 0.7255(6)
H24 H 0.7466(15) 0.858(3) 0.7287(7)
C1 C 0.64710(17) 0.6982(3) 0.56636(7)
H1 H 0.6413 0.8015 0.5914
H2 H 0.5806 0.7155 0.5412
H3 H 0.7214 0.7177 0.5531
C2 C 0.52996(12) 0.4562(2) 0.60729(5)
H4 H 0.4630 0.4770 0.5820
H5 H 0.5242 0.5625 0.6322
C3 C 0.52192(13) 0.2389(2) 0.62878(6)
H6 H 0.4471 0.2255 0.6427
H7 H 0.5224 0.1323 0.6036
C4 C 0.74167(13) 0.2372(2) 0.64771(5)
H8 H 0.7518 0.1298 0.6235
H9 H 0.8073 0.2230 0.6739
C5 C 0.74532(12) 0.4539(2) 0.62545(5)
H10 H 0.7419 0.5611 0.6503
H11 H 0.8206 0.4714 0.6120
N1 N 0.64394(10) 0.48404(18) 0.58691(4)
N2 N 0.62501(11) 0.2038(2) 0.66677(5)
H12 H 0.6182(14) 0.297(2) 0.6937(5)
H13 H 0.6268(15) 0.069(2) 0.6802(6)
loop_
_geom_bond_atom_site_label_1
_geom_bond_atom_site_label_2
_geom_bond_site_symmetry_1
_geom_bond_site_symmetry_2
C1 H1 1_555 1_555
H2 C1 1_555 1_555
H3 C1 1_555 1_555
C2 H4 1_555 1_555
H5 C2 1_555 1_555
C3 C2 1_555 1_555
H6 C3 1_555 1_555
H7 C3 1_555 1_555
C4 H8 1_555 1_555
H9 C4 1_555 1_555
C5 C4 1_555 1_555
H10 C5 1_555 1_555
H11 C5 1_555 1_555
N1 C1 1_555 1_555
N2 C3 1_555 1_555
H12 N2 1_555 1_555
H13 N2 1_555 1_555
C6 C7 1_555 1_555
C7 H14 1_555 1_555
C8 C7 1_555 1_555
H15 C8 1_555 1_555
C9 C8 1_555 1_555
C10 C9 1_555 1_555
H16 C10 1_555 1_555
C11 C6 1_555 1_555
H17 C11 1_555 1_555
N3 C9 1_555 1_555
O1 C6 1_555 1_555
O2 N3 1_555 1_555
O3 N3 1_555 1_555
C12 C13 1_555 1_555
C13 H18 1_555 1_555
C14 C13 1_555 1_555
H19 C14 1_555 1_555
C15 C14 1_555 1_555
C16 C15 1_555 1_555
H20 C16 1_555 1_555
C17 C12 1_555 1_555
H21 C17 1_555 1_555
N4 C15 1_555 1_555
O4 C12 1_555 1_555
H22 O4 1_555 1_555
O5 N4 1_555 1_555
O6 N4 1_555 1_555
O7 H23 1_555 1_555
H24 O7 1_555 1_555
C2 N1 1_555 1_555
C4 N2 1_555 1_555
C5 N1 1_555 1_555
C10 C11 1_555 1_555
C16 C17 1_555 1_555

#END
