
#######################################################################
#
#                 Cambridge Crystallographic Data Centre
#                                CCDC 
#
#######################################################################
#
# If this CIF has been generated from an entry in the Cambridge 
# Structural Database, then it will include bibliographic, chemical, 
# crystal, experimental, refinement or atomic coordinate data resulting 
# from the CCDC's data processing and validation procedures.
#
#######################################################################

data_ZUHCIQ
_chemical_formula_moiety         'C7 H11 N2 1+,C7 H4 Br1 O3 1-'
_chemical_name_systematic        
'4-(Dimethylamino)pyridinium 2-hydroxy-5-bromobenzoate'
_symmetry_cell_setting           monoclinic
_symmetry_space_group_name_H-M   'C 2/c'
_symmetry_Int_Tables_number      15
_space_group_name_Hall           '-C 2yn'
loop_
_symmetry_equiv_pos_site_id
_symmetry_equiv_pos_as_xyz
1 x,y,z
2 -x,y,1/2-z
3 1/2+x,1/2+y,z
4 1/2-x,1/2+y,1/2-z
5 -x,-y,-z
6 x,-y,1/2+z
7 1/2-x,1/2-y,-z
8 1/2+x,1/2-y,1/2+z
_cell_length_a                   32.7654(16)
_cell_length_b                   7.2393(10)
_cell_length_c                   12.2226(8)
_cell_angle_alpha                90
_cell_angle_beta                 91.5480(10)
_cell_angle_gamma                90
_cell_volume                     2898.13
_exptl_crystal_colour            colorless
_exptl_crystal_description       block
_cell_formula_units_Z            8
loop_
_atom_site_label
_atom_site_type_symbol
_atom_site_fract_x
_atom_site_fract_y
_atom_site_fract_z
Br1 Br 0.011526(16) 0.21039(12) 0.39493(5)
O1 O 0.17248(8) 0.0945(5) 0.4481(2)
O2 O 0.19074(9) 0.1458(5) 0.6229(2)
O3 O 0.14010(11) 0.2811(5) 0.7523(2)
H1 H 0.1622 0.2452 0.7309
C1 C 0.16484(13) 0.1423(6) 0.5436(4)
C2 C 0.12194(12) 0.1959(6) 0.5680(3)
C3 C 0.11163(14) 0.2622(7) 0.6713(3)
C4 C 0.07149(16) 0.3090(8) 0.6916(4)
H2 H 0.0647 0.3519 0.7605
C5 C 0.04186(15) 0.2929(8) 0.6118(4)
H3 H 0.0150 0.3247 0.6262
C6 C 0.05185(14) 0.2289(7) 0.5089(4)
C7 C 0.09148(13) 0.1804(6) 0.4881(3)
H4 H 0.0979 0.1364 0.4191
N1 N 0.24787(10) 0.0266(5) 0.9220(3)
H5 H 0.2234 -0.0147 0.9277
N2 N 0.36581(10) 0.2137(5) 0.8953(3)
C8 C 0.27375(13) 0.0239(7) 1.0088(3)
H6 H 0.2648 -0.0233 1.0748
C9 C 0.31269(12) 0.0879(6) 1.0037(3)
H7 H 0.3297 0.0868 1.0659
C10 C 0.32727(12) 0.1558(6) 0.9037(3)
C11 C 0.29873(13) 0.1579(6) 0.8142(3)
H8 H 0.3065 0.2035 0.7468
C12 C 0.26028(13) 0.0940(7) 0.8261(3)
H9 H 0.2420 0.0970 0.7665
C13 C 0.39468(13) 0.2052(7) 0.9885(3)
H10 H 0.3841 0.2745 1.0484
H11 H 0.4204 0.2567 0.9680
H12 H 0.3985 0.0789 1.0103
C14 C 0.38170(15) 0.2681(7) 0.7894(3)
H13 H 0.3820 0.1627 0.7418
H14 H 0.4089 0.3150 0.7995
H15 H 0.3645 0.3622 0.7574
loop_
_geom_bond_atom_site_label_1
_geom_bond_atom_site_label_2
_geom_bond_site_symmetry_1
_geom_bond_site_symmetry_2
Br1 C6 1_555 1_555
O1 C1 1_555 1_555
O2 C1 1_555 1_555
O3 H1 1_555 1_555
C1 C2 1_555 1_555
C2 C3 1_555 1_555
C3 O3 1_555 1_555
C4 C3 1_555 1_555
H2 C4 1_555 1_555
C5 C4 1_555 1_555
H3 C5 1_555 1_555
C6 C5 1_555 1_555
C7 C2 1_555 1_555
H4 C7 1_555 1_555
N1 H5 1_555 1_555
N2 C10 1_555 1_555
C8 N1 1_555 1_555
H6 C8 1_555 1_555
C9 C8 1_555 1_555
H7 C9 1_555 1_555
C10 C9 1_555 1_555
C11 C10 1_555 1_555
H8 C11 1_555 1_555
C12 N1 1_555 1_555
H9 C12 1_555 1_555
C13 N2 1_555 1_555
H10 C13 1_555 1_555
H11 C13 1_555 1_555
H12 C13 1_555 1_555
C14 N2 1_555 1_555
H13 C14 1_555 1_555
H14 C14 1_555 1_555
H15 C14 1_555 1_555
C6 C7 1_555 1_555
C11 C12 1_555 1_555

#END
