
#######################################################################
#
#                 Cambridge Crystallographic Data Centre
#                                CCDC 
#
#######################################################################
#
# If this CIF has been generated from an entry in the Cambridge 
# Structural Database, then it will include bibliographic, chemical, 
# crystal, experimental, refinement or atomic coordinate data resulting 
# from the CCDC's data processing and validation procedures.
#
#######################################################################

data_ZUKWIN
_chemical_formula_moiety         'C16 H22 O2'
_chemical_name_systematic        
6,9a-dimethyl-3-methylene-3,3a,4,5,8,9,9a,10,10a,10b-decahydro-2H-cyclopropa[9,10]cyclodeca[1,2-b]furan-2-one
_symmetry_cell_setting           orthorhombic
_symmetry_space_group_name_H-M   'P 21 21 21'
_symmetry_Int_Tables_number      19
_space_group_name_Hall           'P 2ac 2ab'
loop_
_symmetry_equiv_pos_site_id
_symmetry_equiv_pos_as_xyz
1 x,y,z
2 1/2-x,-y,1/2+z
3 -x,1/2+y,1/2-z
4 1/2+x,1/2-y,-z
_cell_length_a                   6.8519(15)
_cell_length_b                   13.520(3)
_cell_length_c                   14.696(3)
_cell_angle_alpha                90
_cell_angle_beta                 90
_cell_angle_gamma                90
_cell_volume                     1361.4
_exptl_crystal_colour            colorless
_exptl_crystal_description       Prism
_cell_formula_units_Z            4
loop_
_atom_site_label
_atom_site_type_symbol
_atom_site_fract_x
_atom_site_fract_y
_atom_site_fract_z
O1 O 0.23592(11) 0.59927(5) 0.52173(5)
O2 O 0.00053(12) 0.71259(6) 0.53463(6)
C1 C 0.35130(15) 0.55060(8) 0.45021(7)
H1 H 0.2996 0.4821 0.4411
C2 C 0.56001(15) 0.54365(8) 0.48106(7)
H2 H 0.6521 0.5841 0.4436
C3 C 0.62059(18) 0.53414(9) 0.57966(7)
H3 H 0.7384 0.5705 0.5996
H4 H 0.5160 0.5292 0.6259
C4 C 0.64844(17) 0.44775(8) 0.51604(7)
C5 C 0.84966(17) 0.42199(8) 0.48063(8)
H5 H 0.9126 0.3751 0.5232
H6 H 0.9303 0.4827 0.4788
C6 C 0.84411(18) 0.37553(9) 0.38497(8)
H7 H 0.9791 0.3648 0.3631
H8 H 0.7781 0.3105 0.3879
C7 C 0.73740(17) 0.44162(9) 0.31958(7)
H9 H 0.8005 0.5022 0.3052
C8 C 0.56629(16) 0.42655(9) 0.27911(7)
C9 C 0.46782(18) 0.50977(9) 0.22772(7)
H10 H 0.4321 0.4856 0.1664
H11 H 0.5628 0.5643 0.2198
C10 C 0.28405(16) 0.55120(9) 0.27371(7)
H12 H 0.1960 0.4952 0.2878
H13 H 0.2157 0.5942 0.2294
C11 C 0.31616(16) 0.61094(8) 0.36180(7)
H14 H 0.4305 0.6558 0.3524
C12 C 0.14181(17) 0.67368(8) 0.38685(8)
C13 C 0.11344(16) 0.66776(8) 0.48662(8)
C14 C 0.02217(18) 0.72641(9) 0.33570(8)
H15 H -0.0835 0.7611 0.3628
H16 H 0.0418 0.7297 0.2718
C15 C 0.51605(18) 0.35974(9) 0.53181(9)
H17 H 0.5783 0.3140 0.5746
H18 H 0.4926 0.3258 0.4739
H19 H 0.3915 0.3825 0.5571
C16 C 0.45539(19) 0.33033(9) 0.27937(9)
H20 H 0.5339 0.2792 0.3092
H21 H 0.4277 0.3103 0.2166
H22 H 0.3324 0.3389 0.3125
loop_
_geom_bond_atom_site_label_1
_geom_bond_atom_site_label_2
_geom_bond_site_symmetry_1
_geom_bond_site_symmetry_2
O1 C1 1_555 1_555
O2 C13 1_555 1_555
C1 H1 1_555 1_555
C2 C1 1_555 1_555
H2 C2 1_555 1_555
C3 C2 1_555 1_555
H3 C3 1_555 1_555
H4 C3 1_555 1_555
C4 C2 1_555 1_555
C5 C4 1_555 1_555
H5 C5 1_555 1_555
H6 C5 1_555 1_555
C6 C5 1_555 1_555
H7 C6 1_555 1_555
H8 C6 1_555 1_555
C7 C6 1_555 1_555
H9 C7 1_555 1_555
C8 C7 1_555 1_555
C9 C8 1_555 1_555
H10 C9 1_555 1_555
H11 C9 1_555 1_555
C10 C9 1_555 1_555
H12 C10 1_555 1_555
H13 C10 1_555 1_555
C11 C1 1_555 1_555
H14 C11 1_555 1_555
C12 C11 1_555 1_555
C13 O1 1_555 1_555
C14 C12 1_555 1_555
H15 C14 1_555 1_555
H16 C14 1_555 1_555
C15 C4 1_555 1_555
H17 C15 1_555 1_555
H18 C15 1_555 1_555
H19 C15 1_555 1_555
C16 C8 1_555 1_555
H20 C16 1_555 1_555
H21 C16 1_555 1_555
H22 C16 1_555 1_555
C3 C4 1_555 1_555
C10 C11 1_555 1_555
C12 C13 1_555 1_555

#END
