
#######################################################################
#
#                 Cambridge Crystallographic Data Centre
#                                CCDC 
#
#######################################################################
#
# If this CIF has been generated from an entry in the Cambridge 
# Structural Database, then it will include bibliographic, chemical, 
# crystal, experimental, refinement or atomic coordinate data resulting 
# from the CCDC's data processing and validation procedures.
#
#######################################################################

data_ZULHET10
_chemical_formula_moiety         'C24 H32 Cl2 N2 O4'
_chemical_name_systematic        
N,N'-bis(4-Chlorophenyl)-1,10-diaza-18-crown-6
_symmetry_cell_setting           orthorhombic
_symmetry_space_group_name_H-M   'P 21 21 21'
_symmetry_Int_Tables_number      19
_space_group_name_Hall           'P 2ac 2ab'
loop_
_symmetry_equiv_pos_site_id
_symmetry_equiv_pos_as_xyz
1 x,y,z
2 1/2-x,-y,1/2+z
3 1/2+x,1/2-y,-z
4 -x,1/2+y,1/2-z
_cell_length_a                   4.853(1)
_cell_length_b                   11.989(2)
_cell_length_c                   41.231(8)
_cell_angle_alpha                90
_cell_angle_beta                 90
_cell_angle_gamma                90
_cell_volume                     2398.93
_exptl_crystal_colour            colorless
_chemical_melting_point          113-114deg.C
_cell_formula_units_Z            4
loop_
_atom_site_label
_atom_site_type_symbol
_atom_site_fract_x
_atom_site_fract_y
_atom_site_fract_z
O1 O 0.352(3) 1.014(1) 0.8221(3)
O2 O 0.647(3) 0.803(1) 0.8334(4)
O3 O 0.611(3) 1.110(1) 0.9258(3)
O4 O 0.357(3) 1.325(1) 0.9176(3)
N1 N 0.458(3) 1.306(1) 0.8469(3)
N2 N 0.876(4) 0.836(1) 0.9017(4)
C1 C 0.357(4) 1.190(2) 0.8481(5)
C2 C 0.496(5) 1.121(2) 0.8246(5)
C3 C 0.455(4) 0.941(1) 0.7974(5)
C4 C 0.714(4) 0.876(2) 0.8076(5)
C5 C 0.882(5) 0.750(2) 0.8478(5)
C6 C 1.028(4) 0.823(2) 0.8730(5)
C7 C 0.685(5) 0.935(2) 0.9041(5)
C8 C 0.816(4) 1.026(2) 0.9257(6)
C9 C 0.398(5) 1.164(2) 0.9435(5)
C10 C 0.474(5) 1.284(2) 0.9460(5)
C11 C 0.542(5) 1.394(1) 0.9007(4)
C12 C 0.667(5) 1.331(2) 0.8718(5)
Cl1 Cl 0.027(2) 1.6336(5) 0.7537(2)
Cl2 Cl 0.881(2) 0.4851(5) 1.0032(2)
loop_
_geom_bond_atom_site_label_1
_geom_bond_atom_site_label_2
_geom_bond_site_symmetry_1
_geom_bond_site_symmetry_2
O1 C2 1_555 1_555
O2 C4 1_555 1_555
O3 C8 1_555 1_555
O4 C10 1_555 1_555
N1 C1 1_555 1_555
N2 C6 1_555 1_555
C1 C2 1_555 1_555
C3 O1 1_555 1_555
C4 C3 1_555 1_555
C5 O2 1_555 1_555
C6 C5 1_555 1_555
C7 N2 1_555 1_555
C8 C7 1_555 1_555
C9 O3 1_555 1_555
C10 C9 1_555 1_555
C11 O4 1_555 1_555
C12 N1 1_555 1_555
C11 C12 1_555 1_555

#END
