
#######################################################################
#
#                 Cambridge Crystallographic Data Centre
#                                CCDC 
#
#######################################################################
#
# If this CIF has been generated from an entry in the Cambridge 
# Structural Database, then it will include bibliographic, chemical, 
# crystal, experimental, refinement or atomic coordinate data resulting 
# from the CCDC's data processing and validation procedures.
#
#######################################################################

data_ZUMCUH
_chemical_formula_moiety         'C28 H24 F6 N4 O2'
_chemical_name_systematic        
3,3'-bis(2-(trifluoromethyl)imidazolidin-2-yl)-1,1'-binaphthalene-2,2'-diol
_symmetry_cell_setting           tetragonal
_symmetry_space_group_name_H-M   'P 43'
_symmetry_Int_Tables_number      78
_space_group_name_Hall           'P 4cw'
loop_
_symmetry_equiv_pos_site_id
_symmetry_equiv_pos_as_xyz
1 x,y,z
2 -x,-y,1/2+z
3 -y,x,3/4+z
4 y,-x,1/4+z
_cell_length_a                   10.532(3)
_cell_length_b                   10.532(3)
_cell_length_c                   44.888(12)
_cell_angle_alpha                90
_cell_angle_beta                 90
_cell_angle_gamma                90
_cell_volume                     4979.11
_exptl_crystal_colour            yellow
_exptl_crystal_description       block
_cell_formula_units_Z            8
loop_
_atom_site_label
_atom_site_type_symbol
_atom_site_fract_x
_atom_site_fract_y
_atom_site_fract_z
F1 F 0.0410(6) 0.9672(7) 0.11110(15)
F2 F -0.0530(6) 1.0144(7) 0.15195(17)
F3 F -0.0147(7) 1.1596(7) 0.11951(16)
F4 F -0.1231(6) 0.4654(7) 0.30534(17)
F5 F 0.0701(7) 0.5159(7) 0.31697(16)
F6 F 0.0238(7) 0.4540(6) 0.27262(17)
O1 O 0.1410(7) 1.0114(7) 0.21041(15)
H1 H 0.0841 1.0522 0.2014
O2 O 0.0279(7) 0.7011(7) 0.22323(15)
H2 H 0.0651 0.6542 0.2109
N1 N 0.2485(9) 1.1332(8) 0.12470(19)
H3 H 0.2685 1.0979 0.1076
N2 N 0.1438(9) 1.1826(8) 0.16906(19)
H4 H 0.0757 1.1965 0.1800
N3 N -0.0991(8) 0.7274(10) 0.3110(2)
H5 H -0.0584 0.7530 0.3270
N4 N -0.1424(8) 0.6545(8) 0.26227(18)
H6 H -0.1431 0.6056 0.2464
C1 C 0.2462(9) 0.8180(9) 0.2035(2)
C2 C 0.1964(9) 0.9302(9) 0.1915(2)
C3 C 0.2105(10) 0.9585(9) 0.1609(2)
C4 C 0.2692(9) 0.8690(9) 0.1428(2)
H7 H 0.2750 0.8854 0.1220
C5 C 0.3205(9) 0.7552(9) 0.1539(2)
C6 C 0.3816(9) 0.6685(9) 0.1355(2)
H8 H 0.3854 0.6847 0.1147
C7 C 0.4366(10) 0.5602(9) 0.1465(2)
H9 H 0.4784 0.5021 0.1336
C8 C 0.4295(10) 0.5371(10) 0.1775(2)
H10 H 0.4689 0.4636 0.1856
C9 C 0.3676(10) 0.6178(9) 0.1959(2)
H11 H 0.3629 0.5988 0.2166
C10 C 0.3095(8) 0.7301(9) 0.1851(2)
C11 C 0.1637(9) 1.0806(9) 0.1468(2)
C12 C 0.2958(11) 1.2564(11) 0.1358(3)
H12 H 0.2534 1.3278 0.1255
H13 H 0.3887 1.2637 0.1329
C13 C 0.2623(11) 1.2549(11) 0.1689(3)
H14 H 0.3289 1.2121 0.1807
H15 H 0.2495 1.3420 0.1766
C14 C 0.0328(9) 1.0554(11) 0.1324(3)
C15 C 0.2223(9) 0.7964(8) 0.2358(2)
C16 C 0.1105(9) 0.7367(9) 0.2447(2)
C17 C 0.0811(9) 0.7234(8) 0.2754(2)
C18 C 0.1642(10) 0.7648(9) 0.2961(2)
H16 H 0.1450 0.7529 0.3166
C19 C 0.2795(8) 0.8254(9) 0.2881(2)
C20 C 0.3653(9) 0.8714(10) 0.3094(2)
H17 H 0.3468 0.8590 0.3299
C21 C 0.4744(9) 0.9334(10) 0.3018(2)
H18 H 0.5297 0.9659 0.3167
C22 C 0.5029(9) 0.9477(9) 0.2716(2)
H19 H 0.5791 0.9895 0.2659
C23 C 0.4219(9) 0.9023(10) 0.2499(2)
H20 H 0.4434 0.9135 0.2295
C24 C 0.3094(9) 0.8403(8) 0.2573(2)
C25 C -0.0447(9) 0.6589(10) 0.2854(2)
C26 C -0.2361(11) 0.7447(11) 0.3043(3)
H21 H -0.2684 0.8251 0.3128
H22 H -0.2871 0.6731 0.3122
C27 C -0.2388(10) 0.7476(11) 0.2708(3)
H23 H -0.3235 0.7230 0.2632
H24 H -0.2172 0.8331 0.2632
C28 C -0.0188(10) 0.5235(12) 0.2950(3)
F7 F 1.0358(7) 0.6220(6) 0.13537(18)
F8 F 1.0474(6) 0.4731(7) 0.16781(18)
F9 F 0.9830(7) 0.4303(7) 0.12367(16)
F10 F 0.4838(7) 0.5527(6) 0.28861(17)
F11 F 0.3397(7) 0.5165(7) 0.32100(17)
F12 F 0.5327(6) 0.4580(7) 0.32962(15)
O3 O 0.7985(8) 0.4704(7) 0.21761(16)
H25 H 0.8774 0.4820 0.2167
O4 O 0.4877(8) 0.3587(8) 0.23046(16)
H26 H 0.4133 0.3466 0.2366
N5 N 0.3167(9) 0.3580(10) 0.2717(2)
H27 H 0.3021 0.4257 0.2607
N6 N 0.3660(9) 0.2507(9) 0.31591(19)
H28 H 0.4017 0.2294 0.3329
N7 N 0.8453(8) 0.6422(8) 0.17854(18)
H29 H 0.8938 0.6426 0.1945
N8 N 0.7730(9) 0.5991(8) 0.12963(19)
H30 H 0.7477 0.5581 0.1136
C29 C 0.7053(9) 0.2767(9) 0.20492(19)
C30 C 0.7631(9) 0.3895(9) 0.1961(2)
C31 C 0.7762(8) 0.4176(9) 0.1656(2)
C32 C 0.7343(10) 0.3349(10) 0.1446(2)
H31 H 0.7455 0.3549 0.1241
C33 C 0.6736(8) 0.2184(8) 0.1527(2)
C34 C 0.6292(9) 0.1336(9) 0.1307(2)
H32 H 0.6412 0.1522 0.1102
C35 C 0.5693(9) 0.0259(10) 0.1390(2)
H33 H 0.5371 -0.0303 0.1243
C36 C 0.5546(10) -0.0034(9) 0.1692(2)
H34 H 0.5137 -0.0802 0.1747
C37 C 0.5974(10) 0.0753(10) 0.1906(2)
H35 H 0.5862 0.0531 0.2109
C38 C 0.6584(9) 0.1897(8) 0.1833(2)
C39 C 0.8418(10) 0.5442(9) 0.1551(2)
C40 C 0.7525(13) 0.7384(12) 0.1700(3)
H36 H 0.7778 0.8233 0.1774
H37 H 0.6672 0.7175 0.1779
C41 C 0.7543(13) 0.7338(10) 0.1358(3)
H38 H 0.6731 0.7645 0.1274
H39 H 0.8249 0.7853 0.1277
C42 C 0.9751(10) 0.5178(10) 0.1452(3)
C43 C 0.6805(9) 0.2546(9) 0.2375(2)
C44 C 0.5706(9) 0.3012(8) 0.2491(2)
C45 C 0.5416(10) 0.2891(9) 0.2800(2)
C46 C 0.6310(9) 0.2301(9) 0.2981(2)
H40 H 0.6147 0.2235 0.3189
C47 C 0.7434(9) 0.1804(9) 0.2868(2)
C48 C 0.8317(9) 0.1166(9) 0.3053(2)
H41 H 0.8166 0.1119 0.3261
C49 C 0.9389(10) 0.0614(9) 0.2936(2)
H42 H 0.9970 0.0184 0.3063
C50 C 0.9621(10) 0.0687(11) 0.2632(2)
H43 H 1.0346 0.0279 0.2550
C51 C 0.8816(10) 0.1339(9) 0.2449(2)
H44 H 0.9020 0.1412 0.2243
C52 C 0.7696(9) 0.1907(9) 0.2555(2)
C53 C 0.4176(9) 0.3384(9) 0.2939(2)
C54 C 0.2439(11) 0.2046(10) 0.3046(3)
H45 H 0.1724 0.2475 0.3148
H46 H 0.2359 0.1118 0.3076
C55 C 0.2458(11) 0.2369(11) 0.2722(3)
H47 H 0.2901 0.1706 0.2605
H48 H 0.1587 0.2478 0.2643
C56 C 0.4449(11) 0.4678(10) 0.3081(2)
loop_
_geom_bond_atom_site_label_1
_geom_bond_atom_site_label_2
_geom_bond_site_symmetry_1
_geom_bond_site_symmetry_2
F1 C14 1_555 1_555
F2 C14 1_555 1_555
F3 C14 1_555 1_555
F4 C28 1_555 1_555
F5 C28 1_555 1_555
F6 C28 1_555 1_555
O1 H1 1_555 1_555
O2 H2 1_555 1_555
N1 H3 1_555 1_555
N2 H4 1_555 1_555
N3 H5 1_555 1_555
N4 H6 1_555 1_555
C1 C2 1_555 1_555
C2 O1 1_555 1_555
C3 C2 1_555 1_555
C4 C3 1_555 1_555
H7 C4 1_555 1_555
C5 C4 1_555 1_555
C6 C5 1_555 1_555
H8 C6 1_555 1_555
C7 C6 1_555 1_555
H9 C7 1_555 1_555
C8 C7 1_555 1_555
H10 C8 1_555 1_555
C9 C8 1_555 1_555
H11 C9 1_555 1_555
C10 C1 1_555 1_555
C11 N1 1_555 1_555
C12 N1 1_555 1_555
H12 C12 1_555 1_555
H13 C12 1_555 1_555
C13 N2 1_555 1_555
H14 C13 1_555 1_555
H15 C13 1_555 1_555
C14 C11 1_555 1_555
C15 C1 1_555 1_555
C16 O2 1_555 1_555
C17 C16 1_555 1_555
C18 C17 1_555 1_555
H16 C18 1_555 1_555
C19 C18 1_555 1_555
C20 C19 1_555 1_555
H17 C20 1_555 1_555
C21 C20 1_555 1_555
H18 C21 1_555 1_555
C22 C21 1_555 1_555
H19 C22 1_555 1_555
C23 C22 1_555 1_555
H20 C23 1_555 1_555
C24 C15 1_555 1_555
C25 N3 1_555 1_555
C26 N3 1_555 1_555
H21 C26 1_555 1_555
H22 C26 1_555 1_555
C27 N4 1_555 1_555
H23 C27 1_555 1_555
H24 C27 1_555 1_555
C28 C25 1_555 1_555
F7 C42 1_555 1_555
F8 C42 1_555 1_555
F9 C42 1_555 1_555
F10 C56 1_555 1_555
F11 C56 1_555 1_555
F12 C56 1_555 1_555
O3 H25 1_555 1_555
O4 H26 1_555 1_555
N5 H27 1_555 1_555
N6 H28 1_555 1_555
N7 H29 1_555 1_555
N8 H30 1_555 1_555
C29 C30 1_555 1_555
C30 O3 1_555 1_555
C31 C30 1_555 1_555
C32 C31 1_555 1_555
H31 C32 1_555 1_555
C33 C32 1_555 1_555
C34 C33 1_555 1_555
H32 C34 1_555 1_555
C35 C34 1_555 1_555
H33 C35 1_555 1_555
C36 C35 1_555 1_555
H34 C36 1_555 1_555
C37 C36 1_555 1_555
H35 C37 1_555 1_555
C38 C29 1_555 1_555
C39 N7 1_555 1_555
C40 N7 1_555 1_555
H36 C40 1_555 1_555
H37 C40 1_555 1_555
C41 N8 1_555 1_555
H38 C41 1_555 1_555
H39 C41 1_555 1_555
C42 C39 1_555 1_555
C43 C29 1_555 1_555
C44 O4 1_555 1_555
C45 C44 1_555 1_555
C46 C45 1_555 1_555
H40 C46 1_555 1_555
C47 C46 1_555 1_555
C48 C47 1_555 1_555
H41 C48 1_555 1_555
C49 C48 1_555 1_555
H42 C49 1_555 1_555
C50 C49 1_555 1_555
H43 C50 1_555 1_555
C51 C50 1_555 1_555
H44 C51 1_555 1_555
C52 C43 1_555 1_555
C53 N5 1_555 1_555
C54 N6 1_555 1_555
H45 C54 1_555 1_555
H46 C54 1_555 1_555
C55 N5 1_555 1_555
H47 C55 1_555 1_555
H48 C55 1_555 1_555
C56 C53 1_555 1_555
N2 C11 1_555 1_555
N4 C25 1_555 1_555
C3 C11 1_555 1_555
C5 C10 1_555 1_555
C9 C10 1_555 1_555
C12 C13 1_555 1_555
C15 C16 1_555 1_555
C17 C25 1_555 1_555
C19 C24 1_555 1_555
C23 C24 1_555 1_555
C26 C27 1_555 1_555
N6 C53 1_555 1_555
N8 C39 1_555 1_555
C31 C39 1_555 1_555
C33 C38 1_555 1_555
C37 C38 1_555 1_555
C40 C41 1_555 1_555
C43 C44 1_555 1_555
C45 C53 1_555 1_555
C47 C52 1_555 1_555
C51 C52 1_555 1_555
C54 C55 1_555 1_555

#END
