
#######################################################################
#
#                 Cambridge Crystallographic Data Centre
#                                CCDC 
#
#######################################################################
#
# If this CIF has been generated from an entry in the Cambridge 
# Structural Database, then it will include bibliographic, chemical, 
# crystal, experimental, refinement or atomic coordinate data resulting 
# from the CCDC's data processing and validation procedures.
#
#######################################################################

data_ZUMQOP
_chemical_formula_moiety         'C18 H19 N1 O5 S1'
_chemical_name_systematic        
5-methyl-3-((4-methylphenyl)sulfonyl)-2-(3-nitrophenyl)tetrahydrofuran
_symmetry_cell_setting           monoclinic
_symmetry_space_group_name_H-M   'P 21/n'
_symmetry_Int_Tables_number      14
_space_group_name_Hall           '-P 2yn'
loop_
_symmetry_equiv_pos_site_id
_symmetry_equiv_pos_as_xyz
1 x,y,z
2 1/2-x,1/2+y,1/2-z
3 -x,-y,-z
4 1/2+x,1/2-y,1/2+z
_cell_length_a                   11.8500(15)
_cell_length_b                   10.4794(13)
_cell_length_c                   13.4988(17)
_cell_angle_alpha                90
_cell_angle_beta                 91.813(3)
_cell_angle_gamma                90
_cell_volume                     1675.45
_exptl_crystal_colour            colorless
_cell_formula_units_Z            4
loop_
_atom_site_label
_atom_site_type_symbol
_atom_site_fract_x
_atom_site_fract_y
_atom_site_fract_z
S1 S 0.71930(4) 0.17507(4) 0.64084(3)
O1 O 0.27992(10) 0.00485(13) 0.91015(11)
O2 O 0.40835(11) -0.12332(12) 0.85824(10)
O3 O 0.84180(10) 0.23127(11) 0.86138(9)
O4 O 0.73873(11) 0.30943(11) 0.65828(9)
O5 O 0.75872(10) 0.12006(12) 0.55010(9)
N1 N 0.37726(12) -0.01852(14) 0.88768(11)
C1 C 0.46154(14) 0.08483(16) 0.89601(12)
C2 C 0.57072(14) 0.05843(15) 0.87084(12)
H1 H 0.5914 -0.0250 0.8508
C3 C 0.65043(14) 0.15628(16) 0.87525(12)
C4 C 0.76858(14) 0.12522(15) 0.84600(13)
H2 H 0.7968 0.0547 0.8902
C5 C 0.78782(14) 0.08397(15) 0.73810(12)
H3 H 0.7696 -0.0086 0.7297
C6 C 0.57323(14) 0.14550(16) 0.64466(12)
C7 C 0.53255(14) 0.02359(16) 0.62292(12)
H4 H 0.5828 -0.0434 0.6069
C8 C 0.41735(14) 0.00217(16) 0.62516(13)
H5 H 0.3890 -0.0811 0.6119
C9 C 0.34205(14) 0.09973(16) 0.64636(13)
C10 C 0.21733(15) 0.07230(18) 0.64983(14)
H6 H 0.2018 0.0242 0.7102
H7 H 0.1937 0.0219 0.5916
H8 H 0.1754 0.1529 0.6499
C11 C 0.42729(15) 0.20388(17) 0.92814(13)
H9 H 0.3514 0.2193 0.9453
C12 C 0.94668(14) 0.19958(16) 0.81540(13)
H10 H 0.9790 0.2787 0.7861
C13 C 1.03045(16) 0.1461(2) 0.89132(14)
H11 H 1.0411 0.2071 0.9458
H12 H 1.1028 0.1312 0.8602
H13 H 1.0017 0.0654 0.9172
C14 C 0.91616(14) 0.10514(16) 0.73105(13)
H14 H 0.9345 0.1417 0.6659
H15 H 0.9577 0.0238 0.7403
C15 C 0.38462(15) 0.22150(17) 0.66465(14)
H16 H 0.3341 0.2896 0.6772
C16 C 0.49965(15) 0.24477(16) 0.66479(13)
H17 H 0.5280 0.3279 0.6785
C17 C 0.61842(15) 0.27664(16) 0.90761(13)
H18 H 0.6724 0.3436 0.9115
C18 C 0.50785(15) 0.29938(17) 0.93422(13)
H19 H 0.4873 0.3817 0.9569
loop_
_geom_bond_atom_site_label_1
_geom_bond_atom_site_label_2
_geom_bond_site_symmetry_1
_geom_bond_site_symmetry_2
S1 O4 1_555 1_555
O1 N1 1_555 1_555
O2 N1 1_555 1_555
O3 C4 1_555 1_555
O5 S1 1_555 1_555
N1 C1 1_555 1_555
C1 C2 1_555 1_555
C2 H1 1_555 1_555
C3 C2 1_555 1_555
C4 C3 1_555 1_555
H2 C4 1_555 1_555
C5 S1 1_555 1_555
H3 C5 1_555 1_555
C6 S1 1_555 1_555
C7 C6 1_555 1_555
H4 C7 1_555 1_555
C8 C7 1_555 1_555
H5 C8 1_555 1_555
C9 C8 1_555 1_555
C10 C9 1_555 1_555
H6 C10 1_555 1_555
H7 C10 1_555 1_555
H8 C10 1_555 1_555
C11 C1 1_555 1_555
H9 C11 1_555 1_555
C12 O3 1_555 1_555
H10 C12 1_555 1_555
C13 C12 1_555 1_555
H11 C13 1_555 1_555
H12 C13 1_555 1_555
H13 C13 1_555 1_555
C14 C5 1_555 1_555
H14 C14 1_555 1_555
H15 C14 1_555 1_555
C15 C9 1_555 1_555
H16 C15 1_555 1_555
C16 C6 1_555 1_555
H17 C16 1_555 1_555
C17 C3 1_555 1_555
H18 C17 1_555 1_555
C18 C11 1_555 1_555
H19 C18 1_555 1_555
C4 C5 1_555 1_555
C12 C14 1_555 1_555
C15 C16 1_555 1_555
C17 C18 1_555 1_555

#END
