
#######################################################################
#
#                 Cambridge Crystallographic Data Centre
#                                CCDC 
#
#######################################################################
#
# If this CIF has been generated from an entry in the Cambridge 
# Structural Database, then it will include bibliographic, chemical, 
# crystal, experimental, refinement or atomic coordinate data resulting 
# from the CCDC's data processing and validation procedures.
#
#######################################################################

data_ZUNRUV
_chemical_formula_moiety         'C64 H80 O20'
_chemical_name_systematic        
2,2,11,11,20,20,29,29-octakis(Ethoxycarbonyl)-9,18,27,36-tetramethoxy(3~4~)metacyclophane
_symmetry_cell_setting           monoclinic
_symmetry_space_group_name_H-M   'P 21/c'
_symmetry_Int_Tables_number      14
_space_group_name_Hall           '-P 2ybc'
loop_
_symmetry_equiv_pos_site_id
_symmetry_equiv_pos_as_xyz
1 x,y,z
2 -x,1/2+y,1/2-z
3 -x,-y,-z
4 x,1/2-y,1/2+z
_cell_length_a                   15.688(10)
_cell_length_b                   19.667(2)
_cell_length_c                   10.813(1)
_cell_angle_alpha                90
_cell_angle_beta                 108.81(1)
_cell_angle_gamma                90
_cell_volume                     3158.02
_exptl_crystal_colour            colorless
_exptl_crystal_description       plates
_chemical_melting_point          231deg.C
_cell_formula_units_Z            2
loop_
_atom_site_label
_atom_site_type_symbol
_atom_site_fract_x
_atom_site_fract_y
_atom_site_fract_z
C1 C 0.1265(2) 1.0268(1) -0.0432(2)
C2 C 0.1584(2) 0.9517(1) -0.0339(2)
C3 C 0.2546(2) 0.9411(1) -0.0393(2)
C4 C 0.3357(2) 0.9546(1) 0.0837(2)
C5 C 0.3352(2) 0.9981(1) 0.1849(2)
C6 C 0.4123(2) 1.0103(1) 0.2909(2)
C7 C 0.4928(2) 0.9801(1) 0.2983(2)
C8 C 0.4977(2) 0.9357(1) 0.2004(2)
C9 C 0.4184(2) 0.9233(1) 0.0955(2)
O1 O 0.4199(1) 0.8758(1) 0.0007(2)
C10 C 0.4421(2) 0.9039(2) -0.1067(2)
C11 C 0.1516(2) 0.9197(1) 0.0919(3)
O2 O 0.1313(1) 0.9484(1) 0.1753(2)
O3 O 0.1720(2) 0.8539(1) 0.0942(2)
C12 C 0.1674(4) 0.8149(2) 0.2045(4)
C13 C 0.2008(6) 0.7481(3) 0.1952(8)
C14 C 0.0910(2) 0.9136(1) -0.1482(2)
O4 O 0.1052(1) 0.8929(1) -0.2432(2)
O5 O 0.0115(1) 0.9083(1) -0.1289(2)
C15 C -0.0624(2) 0.8751(2) -0.2293(3)
C16 C -0.0676(3) 0.8037(2) -0.2034(6)
C17 C 0.5864(2) 0.9047(1) 0.1997(2)
C18 C 0.6436(2) 0.8630(1) 0.3207(2)
C19 C 0.7176(2) 0.8223(1) 0.2851(3)
C20 C 0.7984(2) 0.8632(1) 0.2801(2)
C21 C 0.8752(2) 0.8679(2) 0.3914(3)
C22 C 0.9492(2) 0.9049(2) 0.3924(3)
C23 C 0.9487(2) 0.9390(2) 0.2804(3)
C24 C 0.1262(2) 1.0639(1) -0.1664(2)
C25 C 0.7999(2) 0.8974(1) 0.1677(2)
O6 O 0.7245(1) 0.8943(1) 0.0541(2)
C26 C 0.7252(2) 0.8375(2) -0.0289(3)
C27 C 0.6953(2) 0.9040(1) 0.4429(3)
O7 O 0.7280(1) 0.8791(1) 0.5507(2)
O8 O 0.7075(1) 0.9682(1) 0.4147(2)
C28 C 0.7677(2) 1.0094(2) 0.5201(3)
C29 C 0.7870(3) 1.0719(2) 0.4616(4)
C30 C 0.5802(2) 0.8120(1) 0.3507(3)
O9 O 0.5617(1) 0.7580(1) 0.2971(2)
O10 O 0.5439(1) 0.8357(1) 0.4363(2)
C31 C 0.4770(3) 0.7927(2) 0.4642(4)
C32 C 0.4265(4) 0.8320(3) 0.5246(6)
H1 H 0.0657(2) 1.0279(1) -0.0391(2)
H2 H 0.1657(2) 1.0513(1) 0.0328(2)
H3 H 0.2588(2) 0.8945(1) -0.0657(2)
H4 H 0.2606(2) 0.9700(1) -0.1086(2)
H5 H 0.2814(2) 1.0195(1) 0.1808(2)
H6 H 0.4098(2) 1.0391(1) 0.3578(2)
H7 H 0.5447(2) 0.9895(1) 0.3695(2)
H8 H 0.4491(13) 0.8678(2) -0.1623(11)
H9 H 0.4978(7) 0.9290(8) -0.0733(3)
H10 H 0.3945(6) 0.9338(8) -0.1565(11)
H11 H 0.2038(4) 0.8362(2) 0.2862(4)
H12 H 0.1053(4) 0.8124(2) 0.2029(4)
H13 H 0.2069(54) 0.7232(15) 0.2741(34)
H14 H 0.2589(26) 0.7514(3) 0.1840(82)
H15 H 0.1592(28) 0.7249(15) 0.1211(49)
H16 H -0.1190(2) 0.8967(2) -0.2341(3)
H17 H -0.0545(2) 0.8807(2) -0.3138(3)
H18 H -0.1165(19) 0.7835(5) -0.2730(23)
H19 H -0.0779(30) 0.7979(2) -0.1215(22)
H20 H -0.0117(12) 0.7820(5) -0.1985(43)
H21 H 0.6241(2) 0.9414(1) 0.1875(2)
H22 H 0.5727(2) 0.8755(1) 0.1232(2)
H23 H 0.7396(2) 0.7862(1) 0.3491(3)
H24 H 0.6893(2) 0.8011(1) 0.2001(3)
H25 H 0.8763(2) 0.8453(2) 0.4675(3)
H26 H 0.9999(2) 0.9070(2) 0.4683(3)
H27 H 0.9992(2) 0.9642(2) 0.2816(3)
H28 H 0.6710(8) 0.8381(7) -0.1046(12)
H29 H 0.7279(17) 0.7960(2) 0.0189(8)
H30 H 0.7771(9) 0.8406(7) -0.0566(20)
H31 H 0.8234(2) 0.9850(2) 0.5641(3)
H32 H 0.7389(2) 1.0200(2) 0.5843(3)
H33 H 0.8268(15) 1.1001(7) 0.5292(5)
H34 H 0.7315(3) 1.0958(7) 0.4189(24)
H35 H 0.8155(17) 1.0608(2) 0.3984(20)
H36 H 0.4366(3) 0.7731(2) 0.3832(4)
H37 H 0.5072(3) 0.7558(2) 0.5222(4)
H38 H 0.4671(4) 0.8533(19) 0.6021(26)
H39 H 0.3852(23) 0.8031(5) 0.5483(43)
H40 H 0.3931(25) 0.8662(16) 0.4643(17)
C24B C 0.8738(2) 0.9361(1) 0.1664(2)
C1B C 0.8735(2) 0.9732(1) 0.0432(2)
C2B C 0.8416(2) 1.0483(1) 0.0339(2)
C3B C 0.7454(2) 1.0589(1) 0.0393(2)
C4B C 0.6643(2) 1.0454(1) -0.0837(2)
C5B C 0.6648(2) 1.0019(1) -0.1849(2)
C6B C 0.5877(2) 0.9897(1) -0.2909(2)
C7B C 0.5072(2) 1.0199(1) -0.2983(2)
C8B C 0.5023(2) 1.0643(1) -0.2004(2)
C9B C 0.5816(2) 1.0767(1) -0.0955(2)
O1B O 0.5801(1) 1.1242(1) -0.0007(2)
C10B C 0.5579(2) 1.0961(2) 0.1067(2)
H8B H 0.5509(13) 1.1322(2) 0.1623(11)
H9B H 0.5022(7) 1.0710(8) 0.0733(3)
H10B H 0.6055(6) 1.0662(8) 0.1565(11)
C17B C 0.4136(2) 1.0953(1) -0.1997(2)
C18B C 0.3564(2) 1.1370(1) -0.3207(2)
C19B C 0.2824(2) 1.1777(1) -0.2851(3)
C20B C 0.2016(2) 1.1368(1) -0.2801(2)
C21B C 0.1248(2) 1.1321(2) -0.3914(3)
C22B C 0.0508(2) 1.0951(2) -0.3924(3)
C23B C 0.0513(2) 1.0610(2) -0.2804(3)
C25B C 0.2001(2) 1.1026(1) -0.1677(2)
O6B O 0.2755(1) 1.1057(1) -0.0541(2)
C26B C 0.2748(2) 1.1625(2) 0.0289(3)
H28B H 0.3290(8) 1.1619(7) 0.1046(12)
H29B H 0.2721(17) 1.2040(2) -0.0189(8)
H30B H 0.2229(9) 1.1594(7) 0.0566(20)
H27B H 0.0008(2) 1.0358(2) -0.2816(3)
H26B H 0.0001(2) 1.0930(2) -0.4683(3)
H25B H 0.1237(2) 1.1547(2) -0.4675(3)
H23B H 0.2604(2) 1.2138(1) -0.3491(3)
H24B H 0.3107(2) 1.1989(1) -0.2001(3)
C27B C 0.3047(2) 1.0960(1) -0.4429(3)
O7B O 0.2720(1) 1.1209(1) -0.5507(2)
O8B O 0.2925(1) 1.0318(1) -0.4147(2)
C28B C 0.2323(2) 0.9906(2) -0.5201(3)
C29B C 0.2130(3) 0.9281(2) -0.4616(4)
H33B H 0.1732(15) 0.8999(7) -0.5292(5)
H34B H 0.2685(3) 0.9042(7) -0.4189(24)
H35B H 0.1845(17) 0.9392(2) -0.3984(20)
H31B H 0.1766(2) 1.0150(2) -0.5641(3)
H32B H 0.2611(2) 0.9800(2) -0.5843(3)
C30B C 0.4198(2) 1.1880(1) -0.3507(3)
O9B O 0.4383(1) 1.2420(1) -0.2971(2)
O10B O 0.4561(1) 1.1643(1) -0.4363(2)
C31B C 0.5230(3) 1.2073(2) -0.4642(4)
C32B C 0.5735(4) 1.1680(3) -0.5246(6)
H38B H 0.5329(4) 1.1467(19) -0.6021(26)
H39B H 0.6148(23) 1.1969(5) -0.5483(43)
H40B H 0.6069(25) 1.1338(16) -0.4643(17)
H36B H 0.5634(3) 1.2269(2) -0.3832(4)
H37B H 0.4928(3) 1.2442(2) -0.5222(4)
H21B H 0.3759(2) 1.0586(1) -0.1875(2)
H22B H 0.4273(2) 1.1245(1) -0.1232(2)
H7B H 0.4553(2) 1.0105(1) -0.3695(2)
H6B H 0.5902(2) 0.9609(1) -0.3578(2)
H5B H 0.7186(2) 0.9805(1) -0.1808(2)
H3B H 0.7412(2) 1.1055(1) 0.0657(2)
H4B H 0.7394(2) 1.0300(1) 0.1086(2)
C11B C 0.8484(2) 1.0803(1) -0.0919(3)
O2B O 0.8687(1) 1.0516(1) -0.1753(2)
O3B O 0.8280(2) 1.1461(1) -0.0942(2)
C12B C 0.8326(4) 1.1851(2) -0.2045(4)
C13B C 0.7992(6) 1.2519(3) -0.1952(8)
H13B H 0.7931(54) 1.2768(15) -0.2741(34)
H14B H 0.7411(26) 1.2486(3) -0.1840(82)
H15B H 0.8408(28) 1.2751(15) -0.1211(49)
H11B H 0.7962(4) 1.1638(2) -0.2862(4)
H12B H 0.8947(4) 1.1876(2) -0.2029(4)
C14B C 0.9090(2) 1.0864(1) 0.1482(2)
O4B O 0.8948(1) 1.1071(1) 0.2432(2)
O5B O 0.9885(1) 1.0917(1) 0.1289(2)
C15B C 1.0624(2) 1.1249(2) 0.2293(3)
C16B C 1.0676(3) 1.1963(2) 0.2034(6)
H18B H 1.1165(19) 1.2165(5) 0.2730(23)
H19B H 1.0779(30) 1.2021(2) 0.1215(22)
H20B H 1.0117(12) 1.2180(5) 0.1985(43)
H16B H 1.1190(2) 1.1033(2) 0.2341(3)
H17B H 1.0545(2) 1.1193(2) 0.3138(3)
H1B H 0.9343(2) 0.9721(1) 0.0391(2)
H2B H 0.8343(2) 0.9487(1) -0.0328(2)
loop_
_geom_bond_atom_site_label_1
_geom_bond_atom_site_label_2
_geom_bond_site_symmetry_1
_geom_bond_site_symmetry_2
C1 C2 1_555 1_555
C2 C3 1_555 1_555
C3 C4 1_555 1_555
C4 C5 1_555 1_555
C5 C6 1_555 1_555
C6 C7 1_555 1_555
C7 C8 1_555 1_555
C8 C9 1_555 1_555
C9 C4 1_555 1_555
O1 C9 1_555 1_555
C10 O1 1_555 1_555
C11 C2 1_555 1_555
O2 C11 1_555 1_555
O3 C11 1_555 1_555
C12 O3 1_555 1_555
C13 C12 1_555 1_555
C14 C2 1_555 1_555
O4 C14 1_555 1_555
O5 C14 1_555 1_555
C15 O5 1_555 1_555
C16 C15 1_555 1_555
C17 C8 1_555 1_555
C18 C17 1_555 1_555
C19 C18 1_555 1_555
C20 C19 1_555 1_555
C21 C20 1_555 1_555
C22 C21 1_555 1_555
C23 C22 1_555 1_555
C24 C1 1_555 1_555
C25 C20 1_555 1_555
O6 C25 1_555 1_555
C26 O6 1_555 1_555
C27 C18 1_555 1_555
O7 C27 1_555 1_555
O8 C27 1_555 1_555
C28 O8 1_555 1_555
C29 C28 1_555 1_555
C30 C18 1_555 1_555
O9 C30 1_555 1_555
O10 C30 1_555 1_555
C31 O10 1_555 1_555
C32 C31 1_555 1_555
H1 C1 1_555 1_555
H2 C1 1_555 1_555
H3 C3 1_555 1_555
H4 C3 1_555 1_555
H5 C5 1_555 1_555
H6 C6 1_555 1_555
H7 C7 1_555 1_555
H8 C10 1_555 1_555
H9 C10 1_555 1_555
H10 C10 1_555 1_555
H11 C12 1_555 1_555
H12 C12 1_555 1_555
H13 C13 1_555 1_555
H14 C13 1_555 1_555
H15 C13 1_555 1_555
H16 C15 1_555 1_555
H17 C15 1_555 1_555
H18 C16 1_555 1_555
H19 C16 1_555 1_555
H20 C16 1_555 1_555
H21 C17 1_555 1_555
H22 C17 1_555 1_555
H23 C19 1_555 1_555
H24 C19 1_555 1_555
H25 C21 1_555 1_555
H26 C22 1_555 1_555
H27 C23 1_555 1_555
H28 C26 1_555 1_555
H29 C26 1_555 1_555
H30 C26 1_555 1_555
H31 C28 1_555 1_555
H32 C28 1_555 1_555
H33 C29 1_555 1_555
H34 C29 1_555 1_555
H35 C29 1_555 1_555
H36 C31 1_555 1_555
H37 C31 1_555 1_555
H38 C32 1_555 1_555
H39 C32 1_555 1_555
H40 C32 1_555 1_555
C24B C23 1_555 1_555
C1B C24B 1_555 1_555
C2B C1B 1_555 1_555
C3B C2B 1_555 1_555
C4B C3B 1_555 1_555
C5B C4B 1_555 1_555
C6B C5B 1_555 1_555
C7B C6B 1_555 1_555
C8B C7B 1_555 1_555
C9B C4B 1_555 1_555
O1B C9B 1_555 1_555
C10B O1B 1_555 1_555
H8B C10B 1_555 1_555
H9B C10B 1_555 1_555
H10B C10B 1_555 1_555
C17B C8B 1_555 1_555
C18B C17B 1_555 1_555
C19B C18B 1_555 1_555
C20B C19B 1_555 1_555
C21B C20B 1_555 1_555
C22B C21B 1_555 1_555
C23B C24 1_555 1_555
C25B C24 1_555 1_555
O6B C25B 1_555 1_555
C26B O6B 1_555 1_555
H28B C26B 1_555 1_555
H29B C26B 1_555 1_555
H30B C26B 1_555 1_555
H27B C23B 1_555 1_555
H26B C22B 1_555 1_555
H25B C21B 1_555 1_555
H23B C19B 1_555 1_555
H24B C19B 1_555 1_555
C27B C18B 1_555 1_555
O7B C27B 1_555 1_555
O8B C27B 1_555 1_555
C28B O8B 1_555 1_555
C29B C28B 1_555 1_555
H33B C29B 1_555 1_555
H34B C29B 1_555 1_555
H35B C29B 1_555 1_555
H31B C28B 1_555 1_555
H32B C28B 1_555 1_555
C30B C18B 1_555 1_555
O9B C30B 1_555 1_555
O10B C30B 1_555 1_555
C31B O10B 1_555 1_555
C32B C31B 1_555 1_555
H38B C32B 1_555 1_555
H39B C32B 1_555 1_555
H40B C32B 1_555 1_555
H36B C31B 1_555 1_555
H37B C31B 1_555 1_555
H21B C17B 1_555 1_555
H22B C17B 1_555 1_555
H7B C7B 1_555 1_555
H6B C6B 1_555 1_555
H5B C5B 1_555 1_555
H3B C3B 1_555 1_555
H4B C3B 1_555 1_555
C11B C2B 1_555 1_555
O2B C11B 1_555 1_555
O3B C11B 1_555 1_555
C12B O3B 1_555 1_555
C13B C12B 1_555 1_555
H13B C13B 1_555 1_555
H14B C13B 1_555 1_555
H15B C13B 1_555 1_555
H11B C12B 1_555 1_555
H12B C12B 1_555 1_555
C14B C2B 1_555 1_555
O4B C14B 1_555 1_555
O5B C14B 1_555 1_555
C15B O5B 1_555 1_555
C16B C15B 1_555 1_555
H18B C16B 1_555 1_555
H19B C16B 1_555 1_555
H20B C16B 1_555 1_555
H16B C15B 1_555 1_555
H17B C15B 1_555 1_555
H1B C1B 1_555 1_555
H2B C1B 1_555 1_555
C25 C24B 1_555 1_555
C8B C9B 1_555 1_555
C20B C25B 1_555 1_555
C22B C23B 1_555 1_555

#END
