
#######################################################################
#
#                 Cambridge Crystallographic Data Centre
#                                CCDC 
#
#######################################################################
#
# If this CIF has been generated from an entry in the Cambridge 
# Structural Database, then it will include bibliographic, chemical, 
# crystal, experimental, refinement or atomic coordinate data resulting 
# from the CCDC's data processing and validation procedures.
#
#######################################################################

data_ZUPSAG
_chemical_formula_moiety         'C27 H40 O3'
_chemical_name_systematic        
'Ethyl 6b,10,10,12a,12c-pentamethyl-2,5a,6,6a,6b,7,8,9,10,10a,11,12,12a,12c-tetradecahydro-4H-chryseno[12,1-bc]furan-3-carboxylate'
_symmetry_cell_setting           orthorhombic
_symmetry_space_group_name_H-M   'P 21 21 21'
_symmetry_Int_Tables_number      19
_space_group_name_Hall           'P 2ac 2ab'
loop_
_symmetry_equiv_pos_site_id
_symmetry_equiv_pos_as_xyz
1 x,y,z
2 1/2-x,-y,1/2+z
3 -x,1/2+y,1/2-z
4 1/2+x,1/2-y,-z
_cell_length_a                   7.4468(5)
_cell_length_b                   11.1440(7)
_cell_length_c                   27.7567(17)
_cell_angle_alpha                90
_cell_angle_beta                 90
_cell_angle_gamma                90
_cell_volume                     2303.45
_exptl_crystal_colour            colorless
_exptl_crystal_description       prismatic
_cell_formula_units_Z            4
loop_
_atom_site_label
_atom_site_type_symbol
_atom_site_fract_x
_atom_site_fract_y
_atom_site_fract_z
O1 O 0.46260(18) 0.52208(12) 0.88406(5)
O2 O 0.1408(3) 0.23736(14) 0.93514(9)
O3 O -0.1501(2) 0.28023(11) 0.93634(6)
C1 C 0.4260(3) 0.77091(19) 0.76298(7)
H1 H 0.5482 0.7664 0.7749
H2 H 0.3793 0.6897 0.7613
C2 C 0.4285(3) 0.8241(2) 0.71246(8)
H3 H 0.4861 0.9022 0.7133
H4 H 0.4981 0.7726 0.6914
C3 C 0.2411(3) 0.8372(2) 0.69272(7)
H5 H 0.1883 0.7580 0.6894
H6 H 0.2479 0.8727 0.6609
C4 C 0.1175(3) 0.9145(2) 0.72426(7)
C5 C 0.1238(2) 0.86492(15) 0.77657(6)
H7 H 0.0721 0.7843 0.7739
C6 C 0.0019(2) 0.92876(16) 0.81249(7)
H8 H -0.1097 0.9514 0.7969
H9 H 0.0600 1.0011 0.8241
C7 C -0.0367(2) 0.84465(16) 0.85468(6)
H10 H -0.1002 0.7748 0.8427
H11 H -0.1152 0.8854 0.8773
C8 C 0.1318(2) 0.80268(13) 0.88161(6)
C9 C 0.2810(2) 0.76234(14) 0.84475(6)
H12 H 0.2391 0.6853 0.8320
C10 C 0.3116(2) 0.84356(15) 0.79917(6)
C11 C 0.4539(2) 0.73317(17) 0.87181(7)
H13 H 0.5454 0.7102 0.8487
H14 H 0.4953 0.8049 0.8882
C12 C 0.4330(2) 0.63361(15) 0.90841(6)
H15 H 0.5260 0.6433 0.9331
C13 C 0.2480(2) 0.62130(14) 0.93398(6)
C14 C 0.0917(2) 0.68972(13) 0.91115(5)
C15 C -0.0707(2) 0.64522(14) 0.91864(6)
H16 H -0.1690 0.6898 0.9083
C16 C -0.1060(2) 0.52657(15) 0.94291(7)
H17 H -0.1277 0.5398 0.9770
H18 H -0.2129 0.4905 0.9292
C17 C 0.0491(2) 0.44223(15) 0.93702(6)
C18 C 0.2135(2) 0.48755(15) 0.93007(6)
C19 C 0.1661(4) 1.0472(2) 0.71991(10)
H19 H 0.0962 1.0929 0.7425
H20 H 0.1411 1.0744 0.6878
H21 H 0.2915 1.0578 0.7267
C20 C -0.0746(4) 0.9015(3) 0.70496(10)
H22 H -0.0761 0.9191 0.6711
H23 H -0.1522 0.9564 0.7216
H24 H -0.1156 0.8208 0.7101
C21 C 0.4147(3) 0.95996(18) 0.81171(8)
H25 H 0.4567 0.9970 0.7826
H26 H 0.5153 0.9409 0.8319
H27 H 0.3361 1.0142 0.8284
C22 C 0.1920(3) 0.90437(16) 0.91589(7)
H28 H 0.1053 0.9136 0.9412
H29 H 0.2016 0.9781 0.8982
H30 H 0.3067 0.8846 0.9296
C23 C 0.2641(3) 0.65586(18) 0.98783(6)
H31 H 0.1495 0.6465 1.0032
H32 H 0.3023 0.7379 0.9905
H33 H 0.3505 0.6047 1.0032
C24 C 0.3829(3) 0.43014(17) 0.91274(8)
H34 H 0.4600 0.4082 0.9395
H35 H 0.3576 0.3592 0.8937
C25 C 0.0223(3) 0.31010(16) 0.93596(8)
C26 C -0.1902(4) 0.15274(19) 0.93621(13)
H36 H -0.1198 0.1132 0.9115
H37 H -0.1578 0.1182 0.9671
C27 C -0.3781(4) 0.1333(2) 0.92725(13)
H38 H -0.4077 0.1612 0.8955
H39 H -0.4478 0.1765 0.9506
H40 H -0.4043 0.0491 0.9296
loop_
_geom_bond_atom_site_label_1
_geom_bond_atom_site_label_2
_geom_bond_site_symmetry_1
_geom_bond_site_symmetry_2
O1 C12 1_555 1_555
O2 C25 1_555 1_555
O3 C25 1_555 1_555
C1 H1 1_555 1_555
H2 C1 1_555 1_555
C2 C1 1_555 1_555
H3 C2 1_555 1_555
H4 C2 1_555 1_555
C3 C2 1_555 1_555
H5 C3 1_555 1_555
H6 C3 1_555 1_555
C4 C3 1_555 1_555
C5 C4 1_555 1_555
H7 C5 1_555 1_555
C6 C5 1_555 1_555
H8 C6 1_555 1_555
H9 C6 1_555 1_555
C7 C6 1_555 1_555
H10 C7 1_555 1_555
H11 C7 1_555 1_555
C8 C7 1_555 1_555
C9 C8 1_555 1_555
H12 C9 1_555 1_555
C10 C1 1_555 1_555
C11 C9 1_555 1_555
H13 C11 1_555 1_555
H14 C11 1_555 1_555
C12 C11 1_555 1_555
H15 C12 1_555 1_555
C13 C12 1_555 1_555
C14 C8 1_555 1_555
C15 C14 1_555 1_555
H16 C15 1_555 1_555
C16 C15 1_555 1_555
H17 C16 1_555 1_555
H18 C16 1_555 1_555
C17 C16 1_555 1_555
C18 C13 1_555 1_555
C19 C4 1_555 1_555
H19 C19 1_555 1_555
H20 C19 1_555 1_555
H21 C19 1_555 1_555
C20 C4 1_555 1_555
H22 C20 1_555 1_555
H23 C20 1_555 1_555
H24 C20 1_555 1_555
C21 C10 1_555 1_555
H25 C21 1_555 1_555
H26 C21 1_555 1_555
H27 C21 1_555 1_555
C22 C8 1_555 1_555
H28 C22 1_555 1_555
H29 C22 1_555 1_555
H30 C22 1_555 1_555
C23 C13 1_555 1_555
H31 C23 1_555 1_555
H32 C23 1_555 1_555
H33 C23 1_555 1_555
C24 O1 1_555 1_555
H34 C24 1_555 1_555
H35 C24 1_555 1_555
C25 C17 1_555 1_555
C26 O3 1_555 1_555
H36 C26 1_555 1_555
H37 C26 1_555 1_555
C27 C26 1_555 1_555
H38 C27 1_555 1_555
H39 C27 1_555 1_555
H40 C27 1_555 1_555
C5 C10 1_555 1_555
C9 C10 1_555 1_555
C13 C14 1_555 1_555
C17 C18 1_555 1_555
C18 C24 1_555 1_555

#END
