
#######################################################################
#
#                 Cambridge Crystallographic Data Centre
#                                CCDC 
#
#######################################################################
#
# If this CIF has been generated from an entry in the Cambridge 
# Structural Database, then it will include bibliographic, chemical, 
# crystal, experimental, refinement or atomic coordinate data resulting 
# from the CCDC's data processing and validation procedures.
#
#######################################################################

data_ZUQNUW
_chemical_formula_moiety         'C21 H14 Cl1 N1 O1'
_chemical_name_systematic        4-(4-Chlorophenyl)-2,5-diphenyl-1,3-oxazole
_symmetry_cell_setting           monoclinic
_symmetry_space_group_name_H-M   'P 21/c'
_symmetry_Int_Tables_number      14
_space_group_name_Hall           '-P 2ybc'
loop_
_symmetry_equiv_pos_site_id
_symmetry_equiv_pos_as_xyz
1 x,y,z
2 -x,1/2+y,1/2-z
3 -x,-y,-z
4 x,1/2-y,1/2+z
_cell_length_a                   13.878(3)
_cell_length_b                   12.159(3)
_cell_length_c                   9.950(2)
_cell_angle_alpha                90
_cell_angle_beta                 102.360(4)
_cell_angle_gamma                90
_cell_volume                     1640.07
_exptl_crystal_colour            colorless
_exptl_crystal_description       block
_cell_formula_units_Z            4
_exptl_crystal_recrystallization_method 'petroleum ether/dichloromethane'
loop_
_atom_site_label
_atom_site_type_symbol
_atom_site_fract_x
_atom_site_fract_y
_atom_site_fract_z
Cl1 Cl 0.56883(5) 1.20142(4) 0.01217(7)
O1 O 0.86026(10) 0.71593(9) 0.50189(14)
N1 N 0.86281(11) 0.89805(11) 0.50034(16)
C1 C 0.73236(13) 0.94261(13) 0.29586(19)
C2 C 0.97915(14) 0.80052(14) 0.6849(2)
C3 C 0.72924(14) 0.66052(14) 0.31481(19)
C4 C 0.63989(14) 0.99749(14) 0.0720(2)
H1 H 0.6116 0.9803 -0.0189
C5 C 0.78775(13) 0.74952(14) 0.39263(19)
C6 C 0.90164(14) 0.81031(13) 0.5615(2)
C7 C 0.78938(13) 0.86140(14) 0.39047(19)
C8 C 0.72275(15) 1.04872(14) 0.3434(2)
H2 H 0.7501 1.0662 0.4346
C9 C 0.63196(14) 1.10165(14) 0.1220(2)
C10 C 1.00136(17) 0.70054(15) 0.7508(2)
H3 H 0.9685 0.6373 0.7132
C11 C 0.69072(14) 0.91860(14) 0.15962(19)
H4 H 0.6971 0.8481 0.1264
C12 C 0.67295(15) 1.12834(14) 0.2563(2)
H5 H 0.6672 1.1994 0.2884
C13 C 1.07157(17) 0.69375(17) 0.8712(2)
H6 H 1.0855 0.6263 0.9150
C14 C 0.57560(17) 0.58714(18) 0.1893(2)
H7 H 0.5088 0.5963 0.1510
C15 C 1.03029(15) 0.89319(16) 0.7408(2)
H8 H 1.0171 0.9607 0.6968
C16 C 0.77338(15) 0.55982(16) 0.3028(2)
H9 H 0.8400 0.5499 0.3412
C17 C 1.12116(17) 0.78623(18) 0.9267(2)
H10 H 1.1685 0.7817 1.0083
C18 C 0.71824(18) 0.47368(16) 0.2336(2)
H11 H 0.7480 0.4062 0.2255
C19 C 0.62941(15) 0.67334(16) 0.2581(2)
H12 H 0.5987 0.7402 0.2665
C20 C 1.10051(17) 0.88599(18) 0.8611(2)
H13 H 1.1342 0.9488 0.8984
C21 C 0.62017(19) 0.48824(18) 0.1774(2)
H14 H 0.5835 0.4306 0.1307
loop_
_geom_bond_atom_site_label_1
_geom_bond_atom_site_label_2
_geom_bond_site_symmetry_1
_geom_bond_site_symmetry_2
Cl1 C9 1_555 1_555
O1 C5 1_555 1_555
N1 C6 1_555 1_555
C1 C7 1_555 1_555
C2 C6 1_555 1_555
C3 C5 1_555 1_555
C4 H1 1_555 1_555
C5 C7 1_555 1_555
C6 O1 1_555 1_555
C7 N1 1_555 1_555
C8 C1 1_555 1_555
H2 C8 1_555 1_555
C9 C4 1_555 1_555
C10 C2 1_555 1_555
H3 C10 1_555 1_555
C11 C1 1_555 1_555
H4 C11 1_555 1_555
C12 C8 1_555 1_555
H5 C12 1_555 1_555
C13 C10 1_555 1_555
H6 C13 1_555 1_555
C14 H7 1_555 1_555
C15 C2 1_555 1_555
H8 C15 1_555 1_555
C16 C3 1_555 1_555
H9 C16 1_555 1_555
C17 C13 1_555 1_555
H10 C17 1_555 1_555
C18 C16 1_555 1_555
H11 C18 1_555 1_555
C19 C3 1_555 1_555
H12 C19 1_555 1_555
C20 C15 1_555 1_555
H13 C20 1_555 1_555
C21 C14 1_555 1_555
H14 C21 1_555 1_555
C4 C11 1_555 1_555
C9 C12 1_555 1_555
C14 C19 1_555 1_555
C17 C20 1_555 1_555
C18 C21 1_555 1_555

#END
