
#######################################################################
#
#                 Cambridge Crystallographic Data Centre
#                                CCDC 
#
#######################################################################
#
# If this CIF has been generated from an entry in the Cambridge 
# Structural Database, then it will include bibliographic, chemical, 
# crystal, experimental, refinement or atomic coordinate data resulting 
# from the CCDC's data processing and validation procedures.
#
#######################################################################

data_ZUSKOP
_chemical_formula_moiety         'C21 H22 N2 O6 S1'
_chemical_name_systematic        
'benzyl ((3-(((benzyloxy)carbonyl)amino)-4-oxotetrahydro-2H-thiopyran-3-yl)oxy)carbamate'
_symmetry_cell_setting           triclinic
_symmetry_space_group_name_H-M   'P -1'
_symmetry_Int_Tables_number      2
_space_group_name_Hall           '-P 1'
loop_
_symmetry_equiv_pos_site_id
_symmetry_equiv_pos_as_xyz
1 x,y,z
2 -x,-y,-z
_cell_length_a                   10.449(2)
_cell_length_b                   10.564(2)
_cell_length_c                   10.913(2)
_cell_angle_alpha                65.028(8)
_cell_angle_beta                 72.368(11)
_cell_angle_gamma                76.052(11)
_cell_volume                     1031.73
_exptl_crystal_colour            colorless
_exptl_crystal_description       plate
_cell_formula_units_Z            2
loop_
_atom_site_label
_atom_site_type_symbol
_atom_site_fract_x
_atom_site_fract_y
_atom_site_fract_z
S1 S -0.21005(4) -0.36380(4) 1.02312(4)
O1 O -0.05886(11) -0.11621(11) 0.60599(10)
O2 O -0.09157(10) 0.01150(10) 0.77911(10)
O3 O 0.04172(12) 0.16619(12) 0.83092(10)
O4 O 0.14658(11) 0.24354(11) 0.60304(10)
O5 O 0.20710(11) -0.22726(12) 0.71933(11)
O6 O 0.25932(10) -0.25087(11) 0.91594(11)
N1 N 0.02333(13) 0.07111(13) 0.68458(12)
N2 N 0.04526(12) -0.19188(13) 0.90086(12)
C1 C -0.06585(14) -0.14023(14) 0.83495(13)
C2 C -0.04990(14) -0.19757(15) 0.72127(14)
C3 C -0.04683(17) -0.35407(16) 0.76768(16)
H1 H 0.0275 -0.4035 0.8132
H2 H -0.0322 -0.3782 0.6876
C4 C -0.18093(18) -0.39985(17) 0.86833(18)
H3 H -0.1794 -0.4999 0.8941
H4 H -0.2548 -0.3503 0.8223
C5 C -0.20004(15) -0.17758(15) 0.94139(14)
H5 H -0.2742 -0.1314 0.8951
H6 H -0.2111 -0.1411 1.0125
C6 C 0.06674(15) 0.16085(14) 0.71732(14)
C7 C 0.20656(18) 0.33988(17) 0.62614(16)
H7 H 0.2720 0.2878 0.6829
H8 H 0.1370 0.3936 0.6737
C8 C 0.27491(16) 0.43669(15) 0.48696(15)
C9 C 0.41469(17) 0.42223(17) 0.44503(17)
H9 H 0.4662 0.3516 0.5034
C10 C 0.47889(18) 0.51183(18) 0.31684(18)
H10 H 0.5730 0.5025 0.2904
C11 C 0.40323(19) 0.61452(18) 0.22894(18)
H11 H 0.4463 0.6734 0.1422
C12 C 0.2640(2) 0.63056(19) 0.26880(19)
H12 H 0.2131 0.7000 0.2090
C13 C 0.19972(17) 0.54307(18) 0.39818(18)
H13 H 0.1057 0.5556 0.4258
C14 C 0.17399(14) -0.22158(14) 0.83297(14)
C15 C 0.40175(15) -0.27549(17) 0.85351(18)
H14 H 0.4118 -0.3118 0.7825
H15 H 0.4477 -0.3459 0.9238
C16 C 0.46654(15) -0.14261(16) 0.78982(16)
C17 C 0.43530(16) -0.04934(17) 0.85716(18)
H16 H 0.3706 -0.0668 0.9405
C18 C 0.49995(18) 0.06961(18) 0.8009(2)
H17 H 0.4784 0.1317 0.8466
C19 C 0.59652(18) 0.09636(19) 0.6771(2)
H18 H 0.6406 0.1756 0.6401
C20 C 0.62728(18) 0.0052(2) 0.60850(18)
H19 H 0.6913 0.0235 0.5246
C21 C 0.56227(17) -0.11417(19) 0.66510(17)
H20 H 0.5833 -0.1755 0.6187
H21 H 0.0338(18) -0.1845(19) 0.977(2)
H22 H 0.0241(19) 0.090(2) 0.599(2)
loop_
_geom_bond_atom_site_label_1
_geom_bond_atom_site_label_2
_geom_bond_site_symmetry_1
_geom_bond_site_symmetry_2
S1 C4 1_555 1_555
O1 C2 1_555 1_555
O2 N1 1_555 1_555
O3 C6 1_555 1_555
O4 C6 1_555 1_555
O5 C14 1_555 1_555
O6 C14 1_555 1_555
N1 C6 1_555 1_555
N2 C1 1_555 1_555
C1 O2 1_555 1_555
C2 C1 1_555 1_555
C3 C2 1_555 1_555
H1 C3 1_555 1_555
H2 C3 1_555 1_555
C4 C3 1_555 1_555
H3 C4 1_555 1_555
H4 C4 1_555 1_555
C5 S1 1_555 1_555
H5 C5 1_555 1_555
H6 C5 1_555 1_555
C7 O4 1_555 1_555
H7 C7 1_555 1_555
H8 C7 1_555 1_555
C8 C7 1_555 1_555
C9 C8 1_555 1_555
H9 C9 1_555 1_555
C10 C9 1_555 1_555
H10 C10 1_555 1_555
C11 C10 1_555 1_555
H11 C11 1_555 1_555
C12 C11 1_555 1_555
H12 C12 1_555 1_555
C13 C8 1_555 1_555
H13 C13 1_555 1_555
C14 N2 1_555 1_555
C15 O6 1_555 1_555
H14 C15 1_555 1_555
H15 C15 1_555 1_555
C16 C15 1_555 1_555
C17 C16 1_555 1_555
H16 C17 1_555 1_555
C18 C17 1_555 1_555
H17 C18 1_555 1_555
C19 C18 1_555 1_555
H18 C19 1_555 1_555
C20 C19 1_555 1_555
H19 C20 1_555 1_555
C21 C16 1_555 1_555
H20 C21 1_555 1_555
H21 N2 1_555 1_555
H22 N1 1_555 1_555
C1 C5 1_555 1_555
C12 C13 1_555 1_555
C20 C21 1_555 1_555

#END
