
#######################################################################
#
#                 Cambridge Crystallographic Data Centre
#                                CCDC 
#
#######################################################################
#
# If this CIF has been generated from an entry in the Cambridge 
# Structural Database, then it will include bibliographic, chemical, 
# crystal, experimental, refinement or atomic coordinate data resulting 
# from the CCDC's data processing and validation procedures.
#
#######################################################################

data_ZUSYAP
_chemical_formula_moiety         'C23 H25 F2 I1 N2 O4 S1'
_chemical_name_systematic        
'ethyl 2,2-difluoro-3-(4-(iodo(pyridin-2-yl)methylene)-3-methyl-1-((4-methylphenyl)sulfonyl)pyrrolidin-3-yl)propanoate'
_symmetry_cell_setting           orthorhombic
_symmetry_space_group_name_H-M   'P n a 21'
_symmetry_Int_Tables_number      33
_space_group_name_Hall           'P 2c -2n'
loop_
_symmetry_equiv_pos_site_id
_symmetry_equiv_pos_as_xyz
1 x,y,z
2 -x,-y,1/2+z
3 1/2-x,1/2+y,1/2+z
4 1/2+x,1/2-y,z
_cell_length_a                   24.1416(7)
_cell_length_b                   10.1959(3)
_cell_length_c                   20.5376(6)
_cell_angle_alpha                90
_cell_angle_beta                 90
_cell_angle_gamma                90
_cell_volume                     5055.23
_exptl_crystal_colour            colorless
_exptl_crystal_description       block
_cell_formula_units_Z            8
loop_
_atom_site_label
_atom_site_type_symbol
_atom_site_fract_x
_atom_site_fract_y
_atom_site_fract_z
I1 I 0.116929(19) 1.78107(5) 0.32343(2)
S1 S 0.33480(6) 2.02186(16) 0.35219(8)
F1 F 0.27854(14) 1.6724(3) 0.25293(18)
F2 F 0.31857(18) 1.6075(4) 0.1641(2)
O1 O 0.38064(19) 1.7019(4) 0.2830(2)
O2 O 0.3984(2) 1.8130(5) 0.1920(3)
O3 O 0.32687(18) 1.9402(4) 0.4078(2)
O4 O 0.38810(15) 2.0344(4) 0.3225(2)
N1 N 0.29368(18) 1.9638(4) 0.2961(2)
N2 N 0.1524(2) 1.7110(6) 0.1430(3)
C1 C 0.2373(2) 1.9226(6) 0.3129(2)
H1 H 0.2176 1.9920 0.3354
H2 H 0.2377 1.8449 0.3401
C2 C 0.2112(2) 1.8941(6) 0.2480(3)
C3 C 0.2518(2) 1.9359(6) 0.1940(3)
C4 C 0.2919(3) 2.0236(6) 0.2309(3)
H3 H 0.3283 2.0233 0.2107
H4 H 0.2784 2.1131 0.2329
C5 C 0.1621(3) 1.8413(6) 0.2404(3)
C6 C 0.1323(3) 1.8084(7) 0.1779(3)
C7 C 0.0865(3) 1.8769(9) 0.1592(4)
H5 H 0.0733 1.9449 0.1851
C8 C 0.0595(4) 1.8455(11) 0.1021(5)
H6 H 0.0288 1.8927 0.0880
C9 C 0.0794(4) 1.7436(8) 0.0674(5)
H7 H 0.0615 1.7168 0.0296
C10 C 0.1258(4) 1.6802(8) 0.0880(4)
H8 H 0.1397 1.6123 0.0625
C11 C 0.2244(3) 2.0170(7) 0.1391(3)
H9 H 0.2526 2.0532 0.1115
H10 H 0.2031 2.0869 0.1580
H11 H 0.2005 1.9614 0.1139
C12 C 0.2799(3) 1.8159(6) 0.1617(3)
H12 H 0.2515 1.7692 0.1376
H13 H 0.3061 1.8493 0.1299
C13 C 0.3102(3) 1.7163(6) 0.2027(3)
C14 C 0.3686(3) 1.7523(7) 0.2263(4)
C15 C 0.4377(3) 1.7198(8) 0.3061(4)
H14 H 0.4608 1.6482 0.2909
H15 H 0.4527 1.8012 0.2891
C16 C 0.4375(4) 1.7231(9) 0.3768(4)
H16 H 0.4173 1.7987 0.3914
H17 H 0.4749 1.7276 0.3925
H18 H 0.4201 1.6451 0.3932
C17 C 0.3138(2) 2.1812(6) 0.3738(3)
C18 C 0.3289(3) 2.2866(6) 0.3358(3)
H19 H 0.3494 2.2739 0.2979
C19 C 0.3132(3) 2.4121(6) 0.3547(3)
H20 H 0.3239 2.4832 0.3293
C20 C 0.2824(3) 2.4345(7) 0.4099(3)
C21 C 0.2677(3) 2.3273(7) 0.4472(3)
H21 H 0.2467 2.3400 0.4847
C22 C 0.2834(3) 2.2013(7) 0.4299(3)
H22 H 0.2735 2.1305 0.4560
C23 C 0.2650(3) 2.5723(7) 0.4277(4)
H23 H 0.2945 2.6322 0.4176
H24 H 0.2569 2.5765 0.4734
H25 H 0.2326 2.5958 0.4033
I2 I 0.643148(19) 2.21485(6) 0.04803(2)
S2 S 0.41281(7) 2.08304(17) 0.00790(8)
F3 F 0.43545(17) 2.4664(4) 0.2043(2)
F4 F 0.47582(14) 2.4039(3) 0.11500(18)
O5 O 0.3528(2) 2.2661(5) 0.1714(3)
O6 O 0.37295(17) 2.3895(4) 0.08389(19)
O7 O 0.35875(16) 2.0662(5) 0.0347(2)
O8 O 0.4222(2) 2.1747(4) -0.0433(2)
N3 N 0.45306(19) 2.1283(5) 0.06763(19)
N4 N 0.6039(2) 2.2969(5) 0.2310(3)
C24 C 0.4514(2) 2.0562(6) 0.1295(3)
H26 H 0.4621 1.9653 0.1236
H27 H 0.4149 2.0598 0.1490
C25 C 0.5382(2) 2.1636(6) 0.1200(3)
C26 C 0.4943(2) 2.1310(6) 0.1711(2)
C27 C 0.5115(2) 2.1549(6) 0.0529(3)
H28 H 0.5156 2.2367 0.0293
H29 H 0.5277 2.0844 0.0275
C28 C 0.5907(3) 2.1897(6) 0.1294(3)
C29 C 0.6197(3) 2.1987(6) 0.1922(3)
C30 C 0.6590(3) 2.1069(8) 0.2111(4)
H30 H 0.6699 2.0410 0.1826
C31 C 0.6818(4) 2.1140(9) 0.2721(5)
H31 H 0.7076 2.0522 0.2858
C32 C 0.6657(4) 2.2138(9) 0.3128(4)
H32 H 0.6808 2.2215 0.3543
C33 C 0.6276(3) 2.3005(8) 0.2915(4)
H33 H 0.6168 2.3670 0.3197
C34 C 0.5145(3) 2.0392(6) 0.2256(3)
H34 H 0.5385 2.0866 0.2544
H35 H 0.5344 1.9669 0.2068
H36 H 0.4832 2.0066 0.2495
C35 C 0.4706(3) 2.2551(6) 0.2040(3)
H37 H 0.4440 2.2263 0.2364
H38 H 0.5008 2.2967 0.2274
C36 C 0.4429(3) 2.3596(6) 0.1635(3)
C37 C 0.3843(3) 2.3303(6) 0.1390(3)
C38 C 0.3162(3) 2.3725(7) 0.0606(3)
H39 H 0.3075 2.2799 0.0570
H40 H 0.2903 2.4123 0.0908
C39 C 0.3116(3) 2.4348(10) -0.0028(4)
H41 H 0.2764 2.4136 -0.0218
H42 H 0.3408 2.4038 -0.0306
H43 H 0.3146 2.5281 0.0022
C40 C 0.4354(3) 1.9288(7) -0.0193(3)
C41 C 0.4721(3) 1.9204(9) -0.0706(3)
H44 H 0.4836 1.9960 -0.0920
C42 C 0.4914(4) 1.8003(12) -0.0901(5)
H45 H 0.5164 1.7954 -0.1245
C43 C 0.4745(5) 1.6868(11) -0.0596(6)
C44 C 0.4382(4) 1.6965(8) -0.0081(6)
H46 H 0.4269 1.6203 0.0129
C45 C 0.4179(3) 1.8178(7) 0.0136(4)
H47 H 0.3937 1.8234 0.0487
C46 C 0.4948(6) 1.5500(10) -0.0789(6)
H48 H 0.5014 1.5473 -0.1249
H49 H 0.4673 1.4861 -0.0676
H50 H 0.5286 1.5308 -0.0561
loop_
_geom_bond_atom_site_label_1
_geom_bond_atom_site_label_2
_geom_bond_site_symmetry_1
_geom_bond_site_symmetry_2
I1 C5 1_555 1_555
S1 O3 1_555 1_555
F1 C13 1_555 1_555
F2 C13 1_555 1_555
O1 C14 1_555 1_555
O2 C14 1_555 1_555
O4 S1 1_555 1_555
N1 S1 1_555 1_555
N2 C6 1_555 1_555
C1 N1 1_555 1_555
H1 C1 1_555 1_555
H2 C1 1_555 1_555
C2 C1 1_555 1_555
C3 C2 1_555 1_555
C4 N1 1_555 1_555
H3 C4 1_555 1_555
H4 C4 1_555 1_555
C5 C2 1_555 1_555
C6 C5 1_555 1_555
C7 C6 1_555 1_555
H5 C7 1_555 1_555
C8 C7 1_555 1_555
H6 C8 1_555 1_555
C9 C8 1_555 1_555
H7 C9 1_555 1_555
C10 N2 1_555 1_555
H8 C10 1_555 1_555
C11 C3 1_555 1_555
H9 C11 1_555 1_555
H10 C11 1_555 1_555
H11 C11 1_555 1_555
C12 C3 1_555 1_555
H12 C12 1_555 1_555
H13 C12 1_555 1_555
C13 C12 1_555 1_555
C14 C13 1_555 1_555
C15 O1 1_555 1_555
H14 C15 1_555 1_555
H15 C15 1_555 1_555
C16 C15 1_555 1_555
H16 C16 1_555 1_555
H17 C16 1_555 1_555
H18 C16 1_555 1_555
C17 S1 1_555 1_555
C18 C17 1_555 1_555
H19 C18 1_555 1_555
C19 C18 1_555 1_555
H20 C19 1_555 1_555
C20 C19 1_555 1_555
C21 C20 1_555 1_555
H21 C21 1_555 1_555
C22 C17 1_555 1_555
H22 C22 1_555 1_555
C23 C20 1_555 1_555
H23 C23 1_555 1_555
H24 C23 1_555 1_555
H25 C23 1_555 1_555
I2 C28 1_555 1_555
S2 O7 1_555 1_555
F3 C36 1_555 1_555
F4 C36 1_555 1_555
O5 C37 1_555 1_555
O6 C37 1_555 1_555
O8 S2 1_555 1_555
N3 S2 1_555 1_555
N4 C29 1_555 1_555
C24 N3 1_555 1_555
H26 C24 1_555 1_555
H27 C24 1_555 1_555
C25 C26 1_555 1_555
C26 C24 1_555 1_555
C27 N3 1_555 1_555
H28 C27 1_555 1_555
H29 C27 1_555 1_555
C28 C25 1_555 1_555
C29 C28 1_555 1_555
C30 C29 1_555 1_555
H30 C30 1_555 1_555
C31 C30 1_555 1_555
H31 C31 1_555 1_555
C32 C31 1_555 1_555
H32 C32 1_555 1_555
C33 N4 1_555 1_555
H33 C33 1_555 1_555
C34 C26 1_555 1_555
H34 C34 1_555 1_555
H35 C34 1_555 1_555
H36 C34 1_555 1_555
C35 C26 1_555 1_555
H37 C35 1_555 1_555
H38 C35 1_555 1_555
C36 C35 1_555 1_555
C37 C36 1_555 1_555
C38 O6 1_555 1_555
H39 C38 1_555 1_555
H40 C38 1_555 1_555
C39 C38 1_555 1_555
H41 C39 1_555 1_555
H42 C39 1_555 1_555
H43 C39 1_555 1_555
C40 S2 1_555 1_555
C41 C40 1_555 1_555
H44 C41 1_555 1_555
C42 C41 1_555 1_555
H45 C42 1_555 1_555
C43 C42 1_555 1_555
C44 C43 1_555 1_555
H46 C44 1_555 1_555
C45 C40 1_555 1_555
H47 C45 1_555 1_555
C46 C43 1_555 1_555
H48 C46 1_555 1_555
H49 C46 1_555 1_555
H50 C46 1_555 1_555
C3 C4 1_555 1_555
C9 C10 1_555 1_555
C21 C22 1_555 1_555
C25 C27 1_555 1_555
C32 C33 1_555 1_555
C44 C45 1_555 1_555

#END
