
#######################################################################
#
#                 Cambridge Crystallographic Data Centre
#                                CCDC 
#
#######################################################################
#
# If this CIF has been generated from an entry in the Cambridge 
# Structural Database, then it will include bibliographic, chemical, 
# crystal, experimental, refinement or atomic coordinate data resulting 
# from the CCDC's data processing and validation procedures.
#
#######################################################################

data_ZUTCIC
_chemical_formula_moiety         'C58 H60 Br2 N2 O4'
_chemical_name_systematic        
5,12-bis(4-bromophenyl)-2,9-di(undecan-6-yl)isoquinolino[4',5',6':6,5,10]anthra[2,1,9-def]isoquinoline-1,3,8,10(2H,9H)-tetrone
_symmetry_cell_setting           monoclinic
_symmetry_space_group_name_H-M   'P 21/c'
_symmetry_Int_Tables_number      14
_space_group_name_Hall           '-P 2ybc'
loop_
_symmetry_equiv_pos_site_id
_symmetry_equiv_pos_as_xyz
1 x,y,z
2 -x,1/2+y,1/2-z
3 -x,-y,-z
4 x,1/2-y,1/2+z
_cell_length_a                   8.68159(17)
_cell_length_b                   41.9071(10)
_cell_length_c                   13.1842(2)
_cell_angle_alpha                90
_cell_angle_beta                 97.815(2)
_cell_angle_gamma                90
_cell_volume                     4752.13
_cell_formula_units_Z            4
loop_
_atom_site_label
_atom_site_type_symbol
_atom_site_fract_x
_atom_site_fract_y
_atom_site_fract_z
C1 C -0.0447(4) 0.29893(9) -0.0494(3)
O1 O -0.1263(3) 0.30565(7) -0.1286(2)
C2 C 0.0151(4) 0.26625(8) -0.0290(3)
C3 C -0.0201(4) 0.24272(9) -0.1018(3)
H1 H -0.0803 0.2478 -0.1654
C4 C 0.0317(4) 0.21166(8) -0.0827(3)
H2 H 0.0025 0.1956 -0.1326
C5 C 0.1253(4) 0.20348(8) 0.0076(2)
C6 C 0.1772(4) 0.17062(8) 0.0317(3)
C7 C 0.1009(4) 0.14343(9) -0.0117(3)
C8 C -0.0655(8) 0.1448(4) -0.0590(9)
C9 C -0.1761(9) 0.1584(3) -0.0048(8)
H3 H -0.1445 0.1671 0.0612
C10 C -0.3311(9) 0.1593(2) -0.0462(7)
H4 H -0.4059 0.1688 -0.0092
C11 C -0.3760(9) 0.1463(3) -0.1423(6)
C12 C -0.2706(9) 0.1317(3) -0.1960(6)
H5 H -0.3038 0.1223 -0.2607
C13 C -0.1146(10) 0.1310(4) -0.1544(8)
H6 H -0.0408 0.1211 -0.1912
Br1 Br -0.58437(18) 0.14795(3) -0.2053(2)
C14 C 0.1768(5) 0.11363(9) -0.0016(3)
H7 H 0.1259 0.0954 -0.0329
C15 C 0.3227(5) 0.11050(9) 0.0525(3)
C16 C 0.4000(5) 0.07880(10) 0.0589(3)
O2 O 0.3388(4) 0.05562(7) 0.0154(3)
C17 C 0.6230(5) 0.10228(11) 0.1711(3)
O3 O 0.7497(4) 0.09894(9) 0.2210(3)
C18 C 0.5408(4) 0.13325(9) 0.1663(3)
C19 C 0.6106(4) 0.15928(9) 0.2172(3)
H8 H 0.7128 0.1574 0.2529
C20 C 0.5322(4) 0.18860(8) 0.2169(2)
H9 H 0.5812 0.2061 0.2543
C21 C 0.3840(4) 0.19264(8) 0.1629(2)
C22 C 0.2933(4) 0.22222(8) 0.1651(2)
C23 C 0.3160(4) 0.24538(8) 0.2432(2)
C24 C 0.4044(8) 0.2389(2) 0.3459(4)
C25 C 0.3781(12) 0.2114(2) 0.4004(7)
H10 H 0.3020 0.1966 0.3713
C26 C 0.4602(12) 0.2052(2) 0.4962(7)
H11 H 0.4414 0.1863 0.5324
C27 C 0.5707(12) 0.2272(2) 0.5378(7)
C28 C 0.5963(13) 0.2554(2) 0.4885(7)
H12 H 0.6707 0.2704 0.5189
C29 C 0.5109(13) 0.2614(3) 0.3936(6)
H13 H 0.5247 0.2810 0.3601
Br2 Br 0.6963(3) 0.21940(10) 0.66504(17)
C30 C 0.2428(4) 0.27540(8) 0.2268(2)
H14 H 0.2590 0.2910 0.2795
C31 C 0.1490(4) 0.28281(8) 0.1374(2)
C32 C 0.0821(4) 0.31533(9) 0.1212(3)
O4 O 0.1005(3) 0.33544(6) 0.1887(2)
C33 C 0.1131(4) 0.25902(8) 0.0621(2)
C34 C 0.1780(4) 0.22818(8) 0.0787(2)
C35 C 0.3184(4) 0.16691(8) 0.1000(3)
C36 C 0.3941(4) 0.13687(9) 0.1064(3)
N1 N -0.0024(4) 0.32213(7) 0.0261(2)
C37 C -0.0556(4) 0.35593(9) 0.0046(3)
H15 H -0.0081 0.3683 0.0659
C38 C -0.2323(7) 0.35901(17) 0.0054(5)
H16 H -0.2585 0.3516 0.0723
H17 H -0.2873 0.3451 -0.0485
C39 C -0.2892(17) 0.3940(2) -0.0129(14)
H18 H -0.2732 0.4000 -0.0834
H19 H -0.4027 0.3943 -0.0106
C40 C -0.2175(13) 0.4196(2) 0.0579(11)
H20 H -0.1034 0.4165 0.0692
H21 H -0.2558 0.4172 0.1249
C41 C -0.2530(14) 0.4538(2) 0.0178(9)
H22 H -0.3605 0.4549 -0.0186
H23 H -0.2445 0.4689 0.0760
C42 C -0.1389(14) 0.4631(2) -0.0544(8)
H24 H -0.1616 0.4848 -0.0797
H25 H -0.0328 0.4622 -0.0179
H26 H -0.1485 0.4482 -0.1123
C43 C 0.0095(6) 0.37021(13) -0.0810(5)
H27 H -0.0305 0.3923 -0.0908
H28 H -0.0282 0.3580 -0.1439
C44 C 0.1857(9) 0.3712(3) -0.0688(6)
H29 H 0.2233 0.3850 -0.0096
H30 H 0.2262 0.3495 -0.0529
C45 C 0.2513(10) 0.38333(19) -0.1606(6)
H31 H 0.2189 0.3688 -0.2187
H32 H 0.3662 0.3826 -0.1462
C46 C 0.202(2) 0.4173(3) -0.1927(12)
H33 H 0.0871 0.4186 -0.2061
H34 H 0.2439 0.4231 -0.2564
C47 C 0.2637(19) 0.4406(3) -0.1069(10)
H35 H 0.2322 0.4624 -0.1273
H36 H 0.2210 0.4350 -0.0442
H37 H 0.3775 0.4394 -0.0944
N2 N 0.5477(4) 0.07663(8) 0.1168(3)
C48 C 0.6260(6) 0.04462(11) 0.1245(4)
H38 H 0.7282 0.0504 0.1648
C49 C 0.5599(11) 0.0234(2) 0.2006(7)
H39 H 0.5704 0.0347 0.2671
H40 H 0.4474 0.0207 0.1773
C50 C 0.6304(15) -0.0093(2) 0.2187(9)
H41 H 0.6072 -0.0216 0.1543
H42 H 0.7447 -0.0067 0.2324
C51 C 0.5808(10) -0.02904(17) 0.3034(7)
H43 H 0.4673 -0.0264 0.3027
H44 H 0.6326 -0.0206 0.3695
C52 C 0.6164(11) -0.06469(19) 0.2981(8)
H45 H 0.5787 -0.0755 0.3568
H46 H 0.5582 -0.0736 0.2346
C53 C 0.7887(14) -0.0722(3) 0.2998(10)
H47 H 0.8031 -0.0953 0.2962
H48 H 0.8266 -0.0620 0.2409
H49 H 0.8472 -0.0640 0.3633
C54 C 0.6768(13) 0.0344(2) 0.0301(7)
H50 H 0.5834 0.0275 -0.0163
H51 H 0.7424 0.0152 0.0456
C55 C 0.7646(17) 0.0569(3) -0.0277(9)
H52 H 0.6975 0.0757 -0.0456
H53 H 0.8560 0.0643 0.0194
C56 C 0.8200(16) 0.0459(2) -0.1213(9)
H54 H 0.8986 0.0614 -0.1383
H55 H 0.7314 0.0470 -0.1770
C57 C 0.8910(19) 0.0126(3) -0.1240(12)
H56 H 0.9930 0.0124 -0.0800
H57 H 0.8226 -0.0029 -0.0954
C58 C 0.9126(16) 0.0026(3) -0.2296(11)
H58 H 0.9584 -0.0188 -0.2274
H59 H 0.8117 0.0023 -0.2730
H60 H 0.9821 0.0176 -0.2577
C59? C -0.061(2) 0.1419(12) -0.066(2)
C60? C -0.181(3) 0.1538(9) -0.017(2)
H61? H -0.1595 0.1613 0.0516
C61? C -0.331(3) 0.1545(7) -0.068(2)
H62? H -0.4136 0.1629 -0.0354
C62? C -0.360(3) 0.1429(8) -0.1665(18)
H63? H -0.4635 0.1430 -0.2009
C63? C -0.244(3) 0.1314(9) -0.2160(18)
H64? H -0.2672 0.1237 -0.2842
C64? C -0.092(3) 0.1307(12) -0.167(2)
H65? H -0.0105 0.1228 -0.2009
Br3? Br -0.5598(9) 0.14527(15) -0.2369(9)
C65? C 0.412(2) 0.2414(6) 0.3443(11)
C66? C 0.392(4) 0.2151(7) 0.406(2)
H66? H 0.3147 0.1997 0.3827
C67? C 0.482(4) 0.2109(7) 0.501(2)
H67? H 0.4702 0.1927 0.5423
C68? C 0.590(3) 0.2342(7) 0.532(2)
H68? H 0.6530 0.2318 0.5969
C69? C 0.612(4) 0.2607(8) 0.476(2)
H69? H 0.6843 0.2766 0.5016
C70? C 0.526(4) 0.2639(9) 0.379(2)
H70? H 0.5452 0.2815 0.3371
Br4? Br 0.7075(15) 0.2254(3) 0.6593(9)
H71? H -0.0923 0.3549 -0.0706
C71? C -0.1979(17) 0.3629(4) 0.0441(12)
H72? H -0.1719 0.3685 0.1174
H73? H -0.2607 0.3431 0.0407
C72? C -0.300(4) 0.3896(6) -0.009(3)
H74? H -0.2748 0.3928 -0.0789
H75? H -0.4110 0.3833 -0.0138
C73? C -0.277(4) 0.4197(5) 0.049(3)
H76? H -0.1631 0.4237 0.0582
H77? H -0.3048 0.4154 0.1176
C74? C -0.354(3) 0.4512(5) 0.014(3)
H78? H -0.4559 0.4532 0.0392
H79? H -0.3708 0.4526 -0.0618
C75? C -0.241(4) 0.4776(6) 0.060(3)
H80? H -0.2850 0.4986 0.0400
H81? H -0.2256 0.4758 0.1348
H82? H -0.1409 0.4751 0.0343
C76? C 0.0791(14) 0.3786(3) 0.0077(12)
H83? H 0.0381 0.3989 -0.0230
H84? H 0.1169 0.3829 0.0806
C77? C 0.218(2) 0.3697(7) -0.0430(13)
H85? H 0.2966 0.3868 -0.0282
H86? H 0.2634 0.3500 -0.0101
C78? C 0.193(2) 0.3644(4) -0.1552(12)
H87? H 0.1187 0.3466 -0.1702
H88? H 0.2932 0.3575 -0.1765
C79? C 0.134(2) 0.3929(4) -0.2200(14)
H89? H 0.1249 0.3869 -0.2933
H90? H 0.0282 0.3984 -0.2049
C80? C 0.238(5) 0.4218(7) -0.201(3)
H91? H 0.1942 0.4394 -0.2448
H92? H 0.2450 0.4281 -0.1291
H93? H 0.3417 0.4166 -0.2175
H94? H 0.5614 0.0309 0.0732
C81? C 0.624(2) 0.0285(4) 0.2236(11)
H95? H 0.5175 0.0294 0.2427
H96? H 0.6945 0.0397 0.2772
C82? C 0.674(4) -0.0062(4) 0.2191(18)
H97? H 0.5996 -0.0177 0.1684
H98? H 0.7777 -0.0072 0.1963
C83? C 0.680(3) -0.0218(4) 0.3200(14)
H99? H 0.5806 -0.0170 0.3460
H100? H 0.7632 -0.0112 0.3668
C84? C 0.706(3) -0.0571(4) 0.3306(16)
H101? H 0.6033 -0.0678 0.3237
H102? H 0.7587 -0.0615 0.4006
C85? C 0.801(4) -0.0719(7) 0.255(2)
H103? H 0.8112 -0.0949 0.2676
H104? H 0.7480 -0.0684 0.1849
H105? H 0.9039 -0.0620 0.2620
C86? C 0.7817(13) 0.0449(3) 0.0923(12)
H106? H 0.8145 0.0224 0.0867
H107? H 0.8538 0.0547 0.1482
C87? C 0.805(3) 0.0613(5) -0.0048(13)
H108? H 0.7834 0.0843 0.0023
H109? H 0.9160 0.0592 -0.0144
C88? C 0.708(3) 0.0492(5) -0.0980(17)
H110? H 0.7070 0.0653 -0.1529
H111? H 0.6001 0.0466 -0.0832
C89? C 0.764(3) 0.0172(5) -0.137(2)
H112? H 0.7427 -0.0003 -0.0907
H113? H 0.7080 0.0126 -0.2063
C90? C 0.938(3) 0.0197(9) -0.142(4)
H114? H 0.9759 -0.0005 -0.1665
H115? H 0.9578 0.0370 -0.1882
H116? H 0.9923 0.0242 -0.0730
H117? H 0.7027 0.0686 -0.0390
H118? H 0.8695 0.0805 0.0128
C91? C 0.880(5) 0.0421(8) -0.079(3)
H119? H 0.8359 0.0203 -0.0808
H120? H 0.9921 0.0403 -0.0533
C92? C 0.864(11) 0.055(2) -0.189(3)
H121? H 0.7700 0.0454 -0.2293
H122? H 0.8533 0.0780 -0.1893
C93? C 1.007(13) 0.045(3) -0.238(7)
H123? H 0.9956 0.0534 -0.3086
H124? H 1.0999 0.0546 -0.1989
H125? H 1.0167 0.0220 -0.2388
C94? C 0.7817(13) 0.0449(3) 0.0923(12)
C95? C 0.805(3) 0.0613(5) -0.0048(13)
loop_
_geom_bond_atom_site_label_1
_geom_bond_atom_site_label_2
_geom_bond_site_symmetry_1
_geom_bond_site_symmetry_2
C1 O1 1_555 1_555
C2 C1 1_555 1_555
C3 C2 1_555 1_555
H1 C3 1_555 1_555
C4 C3 1_555 1_555
H2 C4 1_555 1_555
C5 C4 1_555 1_555
C6 C5 1_555 1_555
C7 C6 1_555 1_555
C8 C7 1_555 1_555
C9 C8 1_555 1_555
H3 C9 1_555 1_555
C10 C9 1_555 1_555
H4 C10 1_555 1_555
C11 C10 1_555 1_555
C12 C11 1_555 1_555
H5 C12 1_555 1_555
C13 C8 1_555 1_555
H6 C13 1_555 1_555
Br1 C11 1_555 1_555
C14 C7 1_555 1_555
H7 C14 1_555 1_555
C15 C14 1_555 1_555
C16 C15 1_555 1_555
O2 C16 1_555 1_555
C17 O3 1_555 1_555
C18 C17 1_555 1_555
C19 C18 1_555 1_555
H8 C19 1_555 1_555
C20 C19 1_555 1_555
H9 C20 1_555 1_555
C21 C20 1_555 1_555
C22 C21 1_555 1_555
C23 C22 1_555 1_555
C24 C23 1_555 1_555
C25 C24 1_555 1_555
H10 C25 1_555 1_555
C26 C25 1_555 1_555
H11 C26 1_555 1_555
C27 C26 1_555 1_555
C28 C27 1_555 1_555
H12 C28 1_555 1_555
C29 C24 1_555 1_555
H13 C29 1_555 1_555
Br2 C27 1_555 1_555
C30 C23 1_555 1_555
H14 C30 1_555 1_555
C31 C30 1_555 1_555
C32 C31 1_555 1_555
O4 C32 1_555 1_555
C33 C2 1_555 1_555
C34 C5 1_555 1_555
C35 C6 1_555 1_555
C36 C15 1_555 1_555
N1 C1 1_555 1_555
C37 N1 1_555 1_555
H15 C37 1_555 1_555
C38 C37 1_555 1_555
H16 C38 1_555 1_555
H17 C38 1_555 1_555
C39 C38 1_555 1_555
H18 C39 1_555 1_555
H19 C39 1_555 1_555
C40 C39 1_555 1_555
H20 C40 1_555 1_555
H21 C40 1_555 1_555
C41 C40 1_555 1_555
H22 C41 1_555 1_555
H23 C41 1_555 1_555
C42 C41 1_555 1_555
H24 C42 1_555 1_555
H25 C42 1_555 1_555
H26 C42 1_555 1_555
C43 C37 1_555 1_555
H27 C43 1_555 1_555
H28 C43 1_555 1_555
C44 C43 1_555 1_555
H29 C44 1_555 1_555
H30 C44 1_555 1_555
C45 C44 1_555 1_555
H31 C45 1_555 1_555
H32 C45 1_555 1_555
C46 C45 1_555 1_555
H33 C46 1_555 1_555
H34 C46 1_555 1_555
C47 C46 1_555 1_555
H35 C47 1_555 1_555
H36 C47 1_555 1_555
H37 C47 1_555 1_555
N2 C16 1_555 1_555
C48 N2 1_555 1_555
H38 C48 1_555 1_555
C49 C48 1_555 1_555
H39 C49 1_555 1_555
H40 C49 1_555 1_555
C50 C49 1_555 1_555
H41 C50 1_555 1_555
H42 C50 1_555 1_555
C51 C50 1_555 1_555
H43 C51 1_555 1_555
H44 C51 1_555 1_555
C52 C51 1_555 1_555
H45 C52 1_555 1_555
H46 C52 1_555 1_555
C53 C52 1_555 1_555
H47 C53 1_555 1_555
H48 C53 1_555 1_555
H49 C53 1_555 1_555
C54 C48 1_555 1_555
H50 C54 1_555 1_555
H51 C54 1_555 1_555
C55 C54 1_555 1_555
H52 C55 1_555 1_555
H53 C55 1_555 1_555
C56 C55 1_555 1_555
H54 C56 1_555 1_555
H55 C56 1_555 1_555
C57 C56 1_555 1_555
H56 C57 1_555 1_555
H57 C57 1_555 1_555
C58 C57 1_555 1_555
H58 C58 1_555 1_555
H59 C58 1_555 1_555
H60 C58 1_555 1_555
C12 C13 1_555 1_555
C17 N2 1_555 1_555
C18 C36 1_555 1_555
C21 C35 1_555 1_555
C22 C34 1_555 1_555
C28 C29 1_555 1_555
C31 C33 1_555 1_555
C32 N1 1_555 1_555
C33 C34 1_555 1_555
C35 C36 1_555 1_555

#END
