
#######################################################################
#
#                 Cambridge Crystallographic Data Centre
#                                CCDC 
#
#######################################################################
#
# If this CIF has been generated from an entry in the Cambridge 
# Structural Database, then it will include bibliographic, chemical, 
# crystal, experimental, refinement or atomic coordinate data resulting 
# from the CCDC's data processing and validation procedures.
#
#######################################################################

data_ZUTPIN
_chemical_formula_moiety         'C20 H24 O10'
_chemical_name_systematic        
'Phenyl 2,3,4,6-tetra-O-acetyl-\b-D-galactopyranoside'
_symmetry_cell_setting           monoclinic
_symmetry_space_group_name_H-M   'P 21'
_symmetry_Int_Tables_number      4
_space_group_name_Hall           'P 2yb'
loop_
_symmetry_equiv_pos_site_id
_symmetry_equiv_pos_as_xyz
1 x,y,z
2 -x,1/2+y,-z
_cell_length_a                   10.494(4)
_cell_length_b                   9.882(5)
_cell_length_c                   10.802(3)
_cell_angle_alpha                90
_cell_angle_beta                 103.01(3)
_cell_angle_gamma                90
_cell_volume                     1091.43
_cell_formula_units_Z            2
loop_
_atom_site_label
_atom_site_type_symbol
_atom_site_fract_x
_atom_site_fract_y
_atom_site_fract_z
O1 O 0.2963(2) 0.7370(3) 0.1945(2)
O2 O 0.2243(3) 0.8792(3) 0.4806(2)
O3 O 0.0090(4) 0.8479(4) 0.4580(4)
O4 O 0.2780(2) 0.5986(3) 0.5472(2)
O5 O 0.4735(3) 0.5542(4) 0.6689(3)
O6 O 0.2697(3) 0.4877(3) 0.3117(2)
O7 O 0.3543(5) 0.3238(4) 0.4503(4)
O8 O 0.5445(3) 0.4878(3) 0.1933(2)
O9 O 0.4956(3) 0.3731(4) 0.0106(3)
O10 O 0.1478(2) 0.8978(3) 0.2119(2)
C1 C 0.2630(4) 0.8357(4) 0.2765(4)
C2 C 0.2310(4) 0.7721(3) 0.3932(3)
C3 C 0.3368(4) 0.6730(4) 0.4586(3)
C4 C 0.3757(4) 0.5772(4) 0.3628(4)
C5 C 0.4069(4) 0.6568(4) 0.2546(3)
C6 C 0.1061(6) 0.9135(5) 0.5005(5)
C7 C 0.1133(6) 1.0367(5) 0.5804(5)
C8 C 0.3588(5) 0.5394(4) 0.6458(4)
C9 C 0.2848(5) 0.4552(5) 0.7214(4)
C10 C 0.2704(6) 0.3623(5) 0.3630(5)
C11 C 0.1532(6) 0.2837(5) 0.2961(5)
C12 C 0.4316(4) 0.5708(4) 0.1466(4)
C13 C 0.5666(5) 0.3906(4) 0.1121(4)
C14 C 0.6926(5) 0.3168(5) 0.1642(4)
C15 C 0.1493(4) 0.9866(4) 0.1108(3)
C16 C 0.2575(4) 1.0441(4) 0.0855(4)
C17 C 0.2441(5) 1.1366(4) -0.0125(4)
C18 C 0.1235(5) 1.1694(4) -0.0838(4)
C19 C 0.0158(5) 1.1087(5) -0.0573(5)
C20 C 0.0273(4) 1.0192(4) 0.0395(4)
H1 H 0.3334(4) 0.9024(4) 0.3007(4)
H2 H 0.1465(4) 0.7256(3) 0.3700(3)
H3 H 0.4136(4) 0.7228(4) 0.5048(3)
H4 H 0.4525(4) 0.5245(4) 0.4045(4)
H5 H 0.4824(4) 0.7157(4) 0.2864(3)
H6 H 0.2015(1) 1.0492(2) 0.6279(3)
H7 H 0.0564(3) 1.0264(2) 0.6380(3)
H8 H 0.0867(4) 1.1140(8) 0.5271(6)
H9 H 0.2055(2) 0.5009(2) 0.7267(3)
H10 H 0.3376(2) 0.4415(4) 0.8054(1)
H11 H 0.2639(3) 0.3692(2) 0.6806(2)
H12 H 0.0796(1) 0.3069(3) 0.3309(3)
H13 H 0.1708(2) 0.1886(5) 0.3073(3)
H14 H 0.1340(2) 0.3051(3) 0.2072(9)
H15 H 0.3561(4) 0.5142(4) 0.1134(4)
H16 H 0.4464(4) 0.6283(4) 0.0784(4)
H17 H 0.7650(5) 0.3722(2) 0.1547(4)
H18 H 0.6936(2) 0.2336(2) 0.1185(3)
H19 H 0.6997(2) 0.2975(4) 0.2526(1)
H20 H 0.3400(4) 1.0217(4) 0.1335(4)
H21 H 0.3182(5) 1.1769(4) -0.0302(4)
H22 H 0.1147(5) 1.2321(4) -0.1494(4)
H23 H -0.0666(5) 1.1291(5) -0.1065(5)
H24 H -0.0469(4) 0.9800(4) 0.0578(4)
loop_
_geom_bond_atom_site_label_1
_geom_bond_atom_site_label_2
_geom_bond_site_symmetry_1
_geom_bond_site_symmetry_2
O1 C1 1_555 1_555
O2 C2 1_555 1_555
O3 C6 1_555 1_555
O4 C3 1_555 1_555
O5 C8 1_555 1_555
O6 C4 1_555 1_555
O7 C10 1_555 1_555
O8 C12 1_555 1_555
O9 C13 1_555 1_555
O10 C1 1_555 1_555
C1 C2 1_555 1_555
C2 C3 1_555 1_555
C3 C4 1_555 1_555
C4 C5 1_555 1_555
C5 O1 1_555 1_555
C6 O2 1_555 1_555
C7 C6 1_555 1_555
C8 O4 1_555 1_555
C9 C8 1_555 1_555
C10 O6 1_555 1_555
C11 C10 1_555 1_555
C12 C5 1_555 1_555
C13 O8 1_555 1_555
C14 C13 1_555 1_555
C15 O10 1_555 1_555
C16 C15 1_555 1_555
C17 C16 1_555 1_555
C18 C17 1_555 1_555
C19 C18 1_555 1_555
C20 C15 1_555 1_555
H1 C1 1_555 1_555
H2 C2 1_555 1_555
H3 C3 1_555 1_555
H4 C4 1_555 1_555
H5 C5 1_555 1_555
H6 C7 1_555 1_555
H7 C7 1_555 1_555
H8 C7 1_555 1_555
H9 C9 1_555 1_555
H10 C9 1_555 1_555
H11 C9 1_555 1_555
H12 C11 1_555 1_555
H13 C11 1_555 1_555
H14 C11 1_555 1_555
H15 C12 1_555 1_555
H16 C12 1_555 1_555
H17 C14 1_555 1_555
H18 C14 1_555 1_555
H19 C14 1_555 1_555
H20 C16 1_555 1_555
H21 C17 1_555 1_555
H22 C18 1_555 1_555
H23 C19 1_555 1_555
H24 C20 1_555 1_555
C19 C20 1_555 1_555

#END
