
#######################################################################
#
#                 Cambridge Crystallographic Data Centre
#                                CCDC 
#
#######################################################################
#
# If this CIF has been generated from an entry in the Cambridge 
# Structural Database, then it will include bibliographic, chemical, 
# crystal, experimental, refinement or atomic coordinate data resulting 
# from the CCDC's data processing and validation procedures.
#
#######################################################################

data_ZUTSUE
_chemical_formula_moiety         'C34 H28 N2 O2'
_chemical_name_systematic        N,N'-dibenzyl-N,N'-diphenylisophthalamide
_symmetry_cell_setting           triclinic
_symmetry_space_group_name_H-M   'P -1'
_symmetry_Int_Tables_number      2
_space_group_name_Hall           '-P 1'
loop_
_symmetry_equiv_pos_site_id
_symmetry_equiv_pos_as_xyz
1 x,y,z
2 -x,-y,-z
_cell_length_a                   10.210(1)
_cell_length_b                   11.497(1)
_cell_length_c                   11.807(2)
_cell_angle_alpha                76.51(1)
_cell_angle_beta                 85.88(1)
_cell_angle_gamma                79.06(1)
_cell_volume                     1322.67
_exptl_crystal_colour            colorless
_exptl_crystal_description       blocks
_cell_formula_units_Z            2
loop_
_atom_site_label
_atom_site_type_symbol
_atom_site_fract_x
_atom_site_fract_y
_atom_site_fract_z
C1 C 0.0713(3) 0.5157(3) 0.3266(2)
H1 H 0.1073 0.5903 0.3041
H2 H 0.0505 0.5022 0.4096
N1 N 0.1755(2) 0.41490(19) 0.30583(17)
C2 C 0.2603(3) 0.4399(2) 0.2121(2)
O1 O 0.2513(2) 0.54357(17) 0.15152(16)
C3 C 0.3613(2) 0.3397(2) 0.17984(19)
C4 C 0.3395(2) 0.2219(2) 0.1905(2)
H3 H 0.2596 0.2004 0.2237
C5 C 0.4362(2) 0.1358(2) 0.1520(2)
C6 C 0.4264(3) 0.0044(3) 0.1720(2)
O2 O 0.5293(2) -0.07225(18) 0.19113(18)
N2 N 0.3060(2) -0.03078(19) 0.17568(19)
C7 C 0.3050(4) -0.1620(2) 0.2120(2)
H4 H 0.3795 -0.2045 0.1731
H5 H 0.2237 -0.1777 0.1854
C8 C 0.5552(3) 0.1699(3) 0.1021(2)
H6 H 0.6213 0.1128 0.0772
C9 C 0.5754(3) 0.2870(3) 0.0892(3)
H7 H 0.6544 0.3091 0.0545
C10 C 0.4799(3) 0.3717(3) 0.1273(2)
H8 H 0.4944 0.4509 0.1180
C11 C -0.0568(2) 0.5337(2) 0.2636(2)
C12 C -0.1656(3) 0.6111(2) 0.2984(2)
H9 H -0.1592 0.6431 0.3628
C13 C -0.2827(3) 0.6409(3) 0.2391(3)
H10 H -0.3545 0.6938 0.2626
C14 C -0.2933(3) 0.5928(3) 0.1453(3)
H11 H -0.3722 0.6135 0.1047
C15 C -0.1877(3) 0.5140(3) 0.1107(3)
H12 H -0.1956 0.4809 0.0474
C16 C -0.0692(3) 0.4838(3) 0.1703(2)
H13 H 0.0018 0.4298 0.1472
C17 C 0.1947(3) 0.3076(2) 0.3974(2)
C18 C 0.3155(3) 0.2656(3) 0.4510(2)
H14 H 0.3879 0.3038 0.4244
C19 C 0.3287(4) 0.1664(3) 0.5443(3)
H15 H 0.4105 0.1372 0.5800
C20 C 0.2206(6) 0.1108(3) 0.5846(3)
H16 H 0.2289 0.0450 0.6483
C21 C 0.1016(5) 0.1526(4) 0.5309(3)
H17 H 0.0291 0.1147 0.5581
C22 C 0.0876(3) 0.2501(3) 0.4370(3)
H18 H 0.0063 0.2773 0.4003
C23 C 0.1878(3) 0.0461(2) 0.1247(2)
C24 C 0.1887(3) 0.1090(2) 0.0109(2)
H19 H 0.2671 0.1024 -0.0343
C25 C 0.0739(3) 0.1820(3) -0.0369(3)
H20 H 0.0757 0.2245 -0.1142
C26 C -0.0422(3) 0.1928(3) 0.0274(3)
H21 H -0.1190 0.2431 -0.0052
C27 C -0.0444(3) 0.1290(4) 0.1401(3)
H22 H -0.1238 0.1346 0.1840
C28 C 0.0696(3) 0.0563(3) 0.1898(3)
H23 H 0.0671 0.0140 0.2672
C29 C 0.3136(3) -0.2149(2) 0.3416(2)
C30 C 0.3401(3) -0.3397(3) 0.3800(3)
H24 H 0.3575 -0.3880 0.3257
C31 C 0.3415(3) -0.3939(3) 0.4965(3)
H25 H 0.3586 -0.4782 0.5203
C32 C 0.3179(3) -0.3249(3) 0.5775(3)
H26 H 0.3171 -0.3617 0.6565
C33 C 0.2954(4) -0.2012(3) 0.5417(3)
H27 H 0.2817 -0.1536 0.5967
C34 C 0.2929(3) -0.1460(3) 0.4239(3)
H28 H 0.2772 -0.0616 0.4005
loop_
_geom_bond_atom_site_label_1
_geom_bond_atom_site_label_2
_geom_bond_site_symmetry_1
_geom_bond_site_symmetry_2
C1 H1 1_555 1_555
H2 C1 1_555 1_555
N1 C1 1_555 1_555
C2 N1 1_555 1_555
O1 C2 1_555 1_555
C3 C2 1_555 1_555
C4 C3 1_555 1_555
H3 C4 1_555 1_555
C5 C4 1_555 1_555
C6 C5 1_555 1_555
O2 C6 1_555 1_555
N2 C6 1_555 1_555
C7 N2 1_555 1_555
H4 C7 1_555 1_555
H5 C7 1_555 1_555
C8 C5 1_555 1_555
H6 C8 1_555 1_555
C9 C8 1_555 1_555
H7 C9 1_555 1_555
C10 C3 1_555 1_555
H8 C10 1_555 1_555
C11 C1 1_555 1_555
C12 C11 1_555 1_555
H9 C12 1_555 1_555
C13 C12 1_555 1_555
H10 C13 1_555 1_555
C14 C13 1_555 1_555
H11 C14 1_555 1_555
C15 C14 1_555 1_555
H12 C15 1_555 1_555
C16 C11 1_555 1_555
H13 C16 1_555 1_555
C17 N1 1_555 1_555
C18 C17 1_555 1_555
H14 C18 1_555 1_555
C19 C18 1_555 1_555
H15 C19 1_555 1_555
C20 C19 1_555 1_555
H16 C20 1_555 1_555
C21 C20 1_555 1_555
H17 C21 1_555 1_555
C22 C17 1_555 1_555
H18 C22 1_555 1_555
C23 N2 1_555 1_555
C24 C23 1_555 1_555
H19 C24 1_555 1_555
C25 C24 1_555 1_555
H20 C25 1_555 1_555
C26 C25 1_555 1_555
H21 C26 1_555 1_555
C27 C26 1_555 1_555
H22 C27 1_555 1_555
C28 C23 1_555 1_555
H23 C28 1_555 1_555
C29 C7 1_555 1_555
C30 C29 1_555 1_555
H24 C30 1_555 1_555
C31 C30 1_555 1_555
H25 C31 1_555 1_555
C32 C31 1_555 1_555
H26 C32 1_555 1_555
C33 C32 1_555 1_555
H27 C33 1_555 1_555
C34 C29 1_555 1_555
H28 C34 1_555 1_555
C9 C10 1_555 1_555
C15 C16 1_555 1_555
C21 C22 1_555 1_555
C27 C28 1_555 1_555
C33 C34 1_555 1_555

#END
