
#######################################################################
#
#                 Cambridge Crystallographic Data Centre
#                                CCDC 
#
#######################################################################
#
# If this CIF has been generated from an entry in the Cambridge 
# Structural Database, then it will include bibliographic, chemical, 
# crystal, experimental, refinement or atomic coordinate data resulting 
# from the CCDC's data processing and validation procedures.
#
#######################################################################

data_ZUVQIQ
_chemical_formula_moiety         'C15 H6 B1 F18 N6 Na1 O1'
_chemical_name_systematic        
'Aqua-(hydrogen tris(3,5-bis(trifluoromethyl)pyrazol-2-yl)borate)-sodium'
_symmetry_cell_setting           monoclinic
_symmetry_space_group_name_H-M   'P 21/m'
_symmetry_Int_Tables_number      11
_space_group_name_Hall           '-P 2yb'
loop_
_symmetry_equiv_pos_site_id
_symmetry_equiv_pos_as_xyz
1 x,y,z
2 -x,1/2+y,-z
3 -x,-y,-z
4 x,1/2-y,z
_cell_length_a                   7.992(2)
_cell_length_b                   15.049(2)
_cell_length_c                   9.934(2)
_cell_angle_alpha                90
_cell_angle_beta                 101.16(2)
_cell_angle_gamma                90
_cell_volume                     1172.19
_exptl_crystal_colour            colorless
_chemical_melting_point          '107-109 deg.C'
_cell_formula_units_Z            2
loop_
_atom_site_label
_atom_site_type_symbol
_atom_site_fract_x
_atom_site_fract_y
_atom_site_fract_z
Na1 Na 0.4772(2) 0.2500 0.1576(1)
N1 N 0.3936(2) 0.1655(1) -0.1587(2)
N2 N 0.3748(2) 0.1501(1) -0.0279(2)
N3 N 0.6750(3) 0.2500 -0.1084(3)
N4 N 0.7053(3) 0.2500 0.0308(3)
C1 C 0.2962(3) 0.0723(2) -0.0287(3)
C2 C 0.2600(3) 0.0357(2) -0.1593(3)
C3 C 0.3240(3) 0.0964(2) -0.2390(3)
C4 C 0.2553(3) 0.0381(2) 0.1004(3)
C5 C 0.3212(4) 0.0887(2) -0.3882(3)
C6 C 0.8743(4) 0.2500 0.0712(3)
C7 C 0.9571(4) 0.2500 -0.0388(3)
C8 C 0.8274(4) 0.2500 -0.1506(3)
C9 C 0.9488(5) 0.2500 0.2201(4)
C10 C 0.8488(4) 0.2500 -0.2950(4)
F1 F 0.3562(2) 0.0735(1) 0.2106(2)
F2 F 0.0955(2) 0.0569(1) 0.1136(2)
F3 F 0.2716(2) -0.0494(1) 0.1106(2)
F4 F 0.2439(3) 0.0135(2) -0.4360(2)
F5 F 0.2404(2) 0.1555(2) -0.4606(2)
F6 F 0.4767(2) 0.0860(1) -0.4182(2)
F7 F 1.1184(3) 0.2500 0.2418(2)
F8 F 0.9028(2) 0.1791(1) 0.2843(2)
F9 F 1.0142(3) 0.2500 -0.3005(3)
F10 F 0.7804(2) 0.1789(1) -0.3661(2)
B1 B 0.4891(5) 0.2500 -0.1929(4)
O1 O 0.5188(6) 0.2500 0.3810(3)
H1 H 0.2025 -0.0192 -0.1872
H2 H 1.0777 0.2500 -0.0367
H3 H 0.4907 0.2500 -0.3160
H4 H 0.5726(99) 0.2043(50) 0.4321(70)
N2C N 0.3748(2) 0.3499(1) -0.0279(2)
N1C N 0.3936(2) 0.3345(1) -0.1587(2)
C3C C 0.3240(3) 0.4036(2) -0.2390(3)
C2C C 0.2600(3) 0.4643(2) -0.1593(3)
C1C C 0.2962(3) 0.4277(2) -0.0287(3)
C4C C 0.2553(3) 0.4619(2) 0.1004(3)
F1C F 0.3562(2) 0.4265(1) 0.2106(2)
F8C F 0.9028(2) 0.3209(1) 0.2843(2)
F10C F 0.7804(2) 0.3211(1) -0.3661(2)
H4C H 0.5726(99) 0.2957(50) 0.4321(70)
F2C F 0.0955(2) 0.4431(1) 0.1136(2)
F3C F 0.2716(2) 0.5494(1) 0.1106(2)
H1C H 0.2025 0.5192 -0.1872
C5C C 0.3212(4) 0.4113(2) -0.3882(3)
F4C F 0.2439(3) 0.4865(2) -0.4360(2)
F5C F 0.2404(2) 0.3445(2) -0.4606(2)
F6C F 0.4767(2) 0.4140(1) -0.4182(2)
loop_
_geom_bond_atom_site_label_1
_geom_bond_atom_site_label_2
_geom_bond_site_symmetry_1
_geom_bond_site_symmetry_2
Na1 N2 1_555 1_555
N1 N2 1_555 1_555
N2 C1 1_555 1_555
N3 N4 1_555 1_555
N4 Na1 1_555 1_555
C1 C2 1_555 1_555
C2 C3 1_555 1_555
C3 N1 1_555 1_555
C4 C1 1_555 1_555
C5 C3 1_555 1_555
C6 N4 1_555 1_555
C7 C6 1_555 1_555
C8 N3 1_555 1_555
C9 C6 1_555 1_555
C10 C8 1_555 1_555
F1 Na1 1_555 1_555
F2 C4 1_555 1_555
F3 C4 1_555 1_555
F4 C5 1_555 1_555
F5 C5 1_555 1_555
F6 C5 1_555 1_555
F7 C9 1_555 1_555
F8 C9 1_555 1_555
F9 C10 1_555 1_555
F10 C10 1_555 1_555
B1 N1 1_555 1_555
O1 Na1 1_555 1_555
H1 C2 1_555 1_555
H2 C7 1_555 1_555
H3 B1 1_555 1_555
H4 O1 1_555 1_555
N2C Na1 1_555 1_555
N1C B1 1_555 1_555
C3C N1C 1_555 1_555
C2C C3C 1_555 1_555
C1C N2C 1_555 1_555
C4C C1C 1_555 1_555
F1C Na1 1_555 1_555
F8C C9 1_555 1_555
F10C C10 1_555 1_555
H4C O1 1_555 1_555
F2C C4C 1_555 1_555
F3C C4C 1_555 1_555
H1C C2C 1_555 1_555
C5C C3C 1_555 1_555
F4C C5C 1_555 1_555
F5C C5C 1_555 1_555
F6C C5C 1_555 1_555
N3 B1 1_555 1_555
C4 F1 1_555 1_555
C7 C8 1_555 1_555
N2C N1C 1_555 1_555
C2C C1C 1_555 1_555
C4C F1C 1_555 1_555

#END
