
#######################################################################
#
#                 Cambridge Crystallographic Data Centre
#                                CCDC 
#
#######################################################################
#
# If this CIF has been generated from an entry in the Cambridge 
# Structural Database, then it will include bibliographic, chemical, 
# crystal, experimental, refinement or atomic coordinate data resulting 
# from the CCDC's data processing and validation procedures.
#
#######################################################################

data_ZUWBOK
_chemical_formula_moiety         'C12 H20 O4'
_chemical_name_systematic        4-hydroxy-12-methyloxacyclododecane-2,8-dione
_symmetry_cell_setting           monoclinic
_symmetry_space_group_name_H-M   'P 21'
_symmetry_Int_Tables_number      4
_space_group_name_Hall           'P 2yb'
loop_
_symmetry_equiv_pos_site_id
_symmetry_equiv_pos_as_xyz
1 x,y,z
2 -x,1/2+y,-z
_cell_length_a                   8.5350(10)
_cell_length_b                   5.5710(10)
_cell_length_c                   13.1410(10)
_cell_angle_alpha                90
_cell_angle_beta                 91.7800(10)
_cell_angle_gamma                90
_cell_volume                     624.533
_exptl_crystal_colour            colorless
_exptl_crystal_description       needle
_cell_formula_units_Z            2
loop_
_atom_site_label
_atom_site_type_symbol
_atom_site_fract_x
_atom_site_fract_y
_atom_site_fract_z
O1 O 0.5771(5) 0.3257(9) 0.5947(3)
O2 O 0.4275(3) 0.1028(7) 0.6927(2)
O3 O 0.1637(4) 0.4186(6) 0.9537(3)
O4 O 0.0249(5) 0.2909(11) 0.5384(3)
H1 H 0.0175 0.4319 0.5211
C1 C 0.4506(5) 0.2522(8) 0.6139(2)
C2 C 0.3026(6) 0.2899(10) 0.5536(3)
H2 H 0.3002 0.1765 0.4976
H3 H 0.3053 0.4497 0.5244
C3 C 0.1517(5) 0.2645(9) 0.6096(3)
H4 H 0.1475 0.1041 0.6399
C4 C 0.1367(14) 0.452(2) 0.6933(9)
H5 H 0.1260 0.6095 0.6622
H6 H 0.2322 0.4525 0.7354
C5 C -0.0039(5) 0.4083(12) 0.7617(4)
H7 H -0.0217 0.5524 0.8012
H8 H -0.0965 0.3818 0.7185
C6 C 0.0145(6) 0.2013(11) 0.8331(4)
H9 H -0.0847 0.1741 0.8652
H10 H 0.0380 0.0589 0.7939
C7 C 0.1381(4) 0.2311(8) 0.9137(3)
C8 C 0.2292(7) 0.0110(10) 0.9585(4)
H11 H 0.2819 0.0556 1.0221
H12 H 0.1563 -0.1177 0.9722
C9 C 0.3516(7) -0.0769(11) 0.8818(5)
H13 H 0.3956 -0.2281 0.9056
H14 H 0.2993 -0.1055 0.8164
C10 C 0.4853(4) 0.1040(9) 0.8680(3)
H15 H 0.4452 0.2663 0.8730
H16 H 0.5652 0.0816 0.9212
C11 C 0.5547(4) 0.0678(8) 0.7666(3)
H17 H 0.6331 0.1935 0.7567
C12 C 0.6307(6) -0.1717(11) 0.7500(4)
H18 H 0.6711 -0.1775 0.6826
H19 H 0.5545 -0.2968 0.7574
H20 H 0.7149 -0.1938 0.7992
C13? C 0.112(4) 0.450(5) 0.6868(19)
H21? H 0.2090 0.4895 0.7237
H22? H 0.0804 0.5929 0.6495
C14? C 0.2190(18) 0.007(2) 0.8836(11)
H23? H 0.1586 -0.1303 0.9054
H24? H 0.2237 0.0011 0.8100
C15? C 0.365(2) -0.008(5) 0.9243(14)
H25? H 0.3915 -0.1768 0.9324
H26? H 0.3655 0.0625 0.9917
loop_
_geom_bond_atom_site_label_1
_geom_bond_atom_site_label_2
_geom_bond_site_symmetry_1
_geom_bond_site_symmetry_2
O1 C1 1_555 1_555
O2 C1 1_555 1_555
O3 C7 1_555 1_555
O4 H1 1_555 1_555
C1 C2 1_555 1_555
C2 H2 1_555 1_555
H3 C2 1_555 1_555
C3 O4 1_555 1_555
H4 C3 1_555 1_555
C4 C3 1_555 1_555
H5 C4 1_555 1_555
H6 C4 1_555 1_555
C5 C4 1_555 1_555
H7 C5 1_555 1_555
H8 C5 1_555 1_555
C6 C5 1_555 1_555
H9 C6 1_555 1_555
H10 C6 1_555 1_555
C7 C6 1_555 1_555
C8 C7 1_555 1_555
H11 C8 1_555 1_555
H12 C8 1_555 1_555
C9 C8 1_555 1_555
H13 C9 1_555 1_555
H14 C9 1_555 1_555
C10 C9 1_555 1_555
H15 C10 1_555 1_555
H16 C10 1_555 1_555
C11 O2 1_555 1_555
H17 C11 1_555 1_555
C12 C11 1_555 1_555
H18 C12 1_555 1_555
H19 C12 1_555 1_555
H20 C12 1_555 1_555
C2 C3 1_555 1_555
C10 C11 1_555 1_555

#END
