
#######################################################################
#
#                 Cambridge Crystallographic Data Centre
#                                CCDC 
#
#######################################################################
#
# If this CIF has been generated from an entry in the Cambridge 
# Structural Database, then it will include bibliographic, chemical, 
# crystal, experimental, refinement or atomic coordinate data resulting 
# from the CCDC's data processing and validation procedures.
#
#######################################################################

data_ZUWFOO
_chemical_formula_moiety         'C16 H15 Br1 Cl1 N1 O4 S1'
_chemical_name_systematic        
'2-Bromo-1-(2-methylphenyl)ethyl ((4-chlorophenyl)sulfonyl)carbamate'
_symmetry_cell_setting           monoclinic
_symmetry_space_group_name_H-M   'P 21'
_symmetry_Int_Tables_number      4
_space_group_name_Hall           'P 2yb'
loop_
_symmetry_equiv_pos_site_id
_symmetry_equiv_pos_as_xyz
1 x,y,z
2 -x,1/2+y,-z
_cell_length_a                   9.2421(18)
_cell_length_b                   17.067(3)
_cell_length_c                   11.719(2)
_cell_angle_alpha                90
_cell_angle_beta                 102.93(3)
_cell_angle_gamma                90
_cell_volume                     1801.63
_exptl_crystal_colour            colorless
_exptl_crystal_description       Plate
_cell_formula_units_Z            4
loop_
_atom_site_label
_atom_site_type_symbol
_atom_site_fract_x
_atom_site_fract_y
_atom_site_fract_z
Br1 Br 0.51127(6) 0.72668(3) 0.20965(4)
Cl1 Cl 0.0517(2) 1.03065(9) 0.24607(15)
S1 S -0.08807(13) 0.71818(8) -0.02980(10)
O1 O 0.2803(4) 0.6110(2) 0.0422(3)
O2 O 0.1283(4) 0.6398(2) 0.1653(3)
O3 O -0.1405(4) 0.7387(2) -0.1509(3)
O4 O -0.1757(4) 0.6688(2) 0.0260(3)
N1 N 0.0732(4) 0.6762(2) -0.0277(3)
H1 H 0.1046 0.6755 -0.0915
C1 C 0.3901(5) 0.5758(3) 0.1375(4)
H2 H 0.3552 0.5787 0.2105
C2 C 0.5324(5) 0.6220(3) 0.1499(4)
H3 H 0.5582 0.6258 0.0743
H4 H 0.6123 0.5948 0.2029
C3 C 0.1600(5) 0.6423(3) 0.0704(4)
C4 C 0.4154(6) 0.4911(3) 0.1085(4)
C5 C 0.3998(6) 0.4312(3) 0.1851(5)
C6 C 0.4333(7) 0.3548(3) 0.1570(5)
H5 H 0.4210 0.3141 0.2067
C7 C 0.4838(8) 0.3383(3) 0.0586(5)
H6 H 0.5099 0.2873 0.0439
C8 C 0.4960(10) 0.3975(3) -0.0187(6)
H7 H 0.5275 0.3866 -0.0870
C9 C 0.4607(9) 0.4737(3) 0.0067(5)
H8 H 0.4677 0.5136 -0.0458
C10 C 0.3457(9) 0.4447(4) 0.2951(6)
H9 H 0.4094 0.4818 0.3437
H10 H 0.3469 0.3961 0.3365
H11 H 0.2463 0.4649 0.2754
C11 C -0.0468(5) 0.8050(3) 0.0505(4)
C12 C 0.0379(9) 0.8618(4) 0.0116(5)
H12 H 0.0751 0.8528 -0.0547
C13 C 0.0670(8) 0.9316(4) 0.0710(5)
H13 H 0.1220 0.9704 0.0445
C14 C 0.0137(7) 0.9429(3) 0.1699(5)
C15 C -0.0707(7) 0.8878(3) 0.2090(5)
H14 H -0.1078 0.8973 0.2752
C16 C -0.1003(5) 0.8176(3) 0.1491(4)
H15 H -0.1562 0.7791 0.1756
Br2 Br 0.28094(7) 0.81112(3) 0.41189(5)
Cl2 Cl -0.1626(2) 0.39794(8) 0.27334(13)
S2 S -0.17929(12) 0.72626(7) 0.50298(9)
O5 O 0.1346(3) 0.69553(18) 0.5589(3)
O6 O 0.1636(3) 0.70324(18) 0.7549(3)
O7 O -0.3192(3) 0.7382(2) 0.5337(3)
O8 O -0.1235(4) 0.78301(18) 0.4354(3)
N2 N -0.0645(4) 0.7156(2) 0.6329(3)
H16 H -0.1044 0.7167 0.6925
C17 C 0.2932(5) 0.6817(3) 0.5716(4)
H17 H 0.3509 0.7154 0.6329
C18 C 0.3252(5) 0.7018(2) 0.4545(4)
H18 H 0.2663 0.6682 0.3949
H19 H 0.4291 0.6916 0.4568
C19 C 0.0876(5) 0.7051(2) 0.6567(4)
C20 C 0.3291(5) 0.5964(3) 0.5997(4)
C21 C 0.4567(5) 0.5741(3) 0.6792(4)
C22 C 0.4873(6) 0.4932(3) 0.6924(5)
H20 H 0.5745 0.4767 0.7428
C23 C 0.3908(6) 0.4384(3) 0.6322(5)
H21 H 0.4136 0.3855 0.6430
C24 C 0.2618(7) 0.4603(3) 0.5567(5)
H22 H 0.1954 0.4230 0.5179
C25 C 0.2328(6) 0.5392(3) 0.5398(4)
H23 H 0.1468 0.5548 0.4871
C26 C 0.5588(6) 0.6321(3) 0.7525(5)
H24 H 0.5970 0.6673 0.7024
H25 H 0.6397 0.6048 0.8024
H26 H 0.5053 0.6613 0.7996
C27 C -0.1789(5) 0.6341(3) 0.4346(4)
C28 C -0.2533(6) 0.5719(3) 0.4715(4)
H27 H -0.3052 0.5791 0.5301
C29 C -0.2498(7) 0.4994(3) 0.4209(4)
H28 H -0.3001 0.4572 0.4440
C30 C -0.1698(6) 0.4906(3) 0.3344(4)
C31 C -0.0993(5) 0.5517(3) 0.2948(4)
H29 H -0.0497 0.5446 0.2347
C32 C -0.1032(5) 0.6252(3) 0.3464(4)
H30 H -0.0552 0.6677 0.3216
loop_
_geom_bond_atom_site_label_1
_geom_bond_atom_site_label_2
_geom_bond_site_symmetry_1
_geom_bond_site_symmetry_2
Br1 C2 1_555 1_555
Cl1 C14 1_555 1_555
S1 O3 1_555 1_555
O1 C1 1_555 1_555
O2 C3 1_555 1_555
O4 S1 1_555 1_555
N1 S1 1_555 1_555
H1 N1 1_555 1_555
C1 H2 1_555 1_555
C2 C1 1_555 1_555
H3 C2 1_555 1_555
H4 C2 1_555 1_555
C3 O1 1_555 1_555
C4 C1 1_555 1_555
C5 C4 1_555 1_555
C6 C5 1_555 1_555
H5 C6 1_555 1_555
C7 C6 1_555 1_555
H6 C7 1_555 1_555
C8 C7 1_555 1_555
H7 C8 1_555 1_555
C9 C4 1_555 1_555
H8 C9 1_555 1_555
C10 C5 1_555 1_555
H9 C10 1_555 1_555
H10 C10 1_555 1_555
H11 C10 1_555 1_555
C11 S1 1_555 1_555
C12 C11 1_555 1_555
H12 C12 1_555 1_555
C13 C12 1_555 1_555
H13 C13 1_555 1_555
C14 C13 1_555 1_555
C15 C14 1_555 1_555
H14 C15 1_555 1_555
C16 C11 1_555 1_555
H15 C16 1_555 1_555
Br2 C18 1_555 1_555
Cl2 C30 1_555 1_555
S2 O7 1_555 1_555
O5 C17 1_555 1_555
O6 C19 1_555 1_555
O8 S2 1_555 1_555
N2 S2 1_555 1_555
H16 N2 1_555 1_555
C17 H17 1_555 1_555
C18 C17 1_555 1_555
H18 C18 1_555 1_555
H19 C18 1_555 1_555
C19 O5 1_555 1_555
C20 C17 1_555 1_555
C21 C20 1_555 1_555
C22 C21 1_555 1_555
H20 C22 1_555 1_555
C23 C22 1_555 1_555
H21 C23 1_555 1_555
C24 C23 1_555 1_555
H22 C24 1_555 1_555
C25 C20 1_555 1_555
H23 C25 1_555 1_555
C26 C21 1_555 1_555
H24 C26 1_555 1_555
H25 C26 1_555 1_555
H26 C26 1_555 1_555
C27 S2 1_555 1_555
C28 C27 1_555 1_555
H27 C28 1_555 1_555
C29 C28 1_555 1_555
H28 C29 1_555 1_555
C30 C29 1_555 1_555
C31 C30 1_555 1_555
H29 C31 1_555 1_555
C32 C27 1_555 1_555
H30 C32 1_555 1_555
N1 C3 1_555 1_555
C8 C9 1_555 1_555
C15 C16 1_555 1_555
N2 C19 1_555 1_555
C24 C25 1_555 1_555
C31 C32 1_555 1_555

#END
