
#######################################################################
#
#                 Cambridge Crystallographic Data Centre
#                                CCDC 
#
#######################################################################
#
# If this CIF has been generated from an entry in the Cambridge 
# Structural Database, then it will include bibliographic, chemical, 
# crystal, experimental, refinement or atomic coordinate data resulting 
# from the CCDC's data processing and validation procedures.
#
#######################################################################

data_ZUWWOF
_chemical_formula_moiety         'C25 H25 N1 O6,0.5(H2 O1)'
_chemical_name_systematic        
'4-(4-Methoxyphenyl)-3-phenoxy-1-(3,4,5-trimethoxyphenyl)azetidin-2-one hemihydrate'
_chemical_properties_biological  'antiproliferative activity'
_symmetry_cell_setting           monoclinic
_symmetry_space_group_name_H-M   'C 2/c'
_symmetry_Int_Tables_number      15
_space_group_name_Hall           '-C 2yn'
loop_
_symmetry_equiv_pos_site_id
_symmetry_equiv_pos_as_xyz
1 x,y,z
2 -x,y,1/2-z
3 1/2+x,1/2+y,z
4 1/2-x,1/2+y,1/2-z
5 -x,-y,-z
6 x,-y,1/2+z
7 1/2-x,1/2-y,-z
8 1/2+x,1/2-y,1/2+z
_cell_length_a                   19.4658(13)
_cell_length_b                   13.4807(9)
_cell_length_c                   17.5627(12)
_cell_angle_alpha                90
_cell_angle_beta                 106.5660(10)
_cell_angle_gamma                90
_cell_volume                     4417.38
_exptl_crystal_colour            yellow
_exptl_crystal_description       prism
_cell_formula_units_Z            8
loop_
_atom_site_label
_atom_site_type_symbol
_atom_site_fract_x
_atom_site_fract_y
_atom_site_fract_z
O1 O 0.53959(5) 0.80371(8) 0.15538(6)
O2 O 0.55937(5) 1.02370(8) 0.08424(6)
O3 O 0.31830(6) 1.20640(7) 0.26273(7)
O4 O 0.37153(6) 1.37291(8) 0.21870(7)
O5 O 0.46409(6) 1.36762(8) 0.13379(7)
O6 O 0.13630(5) 0.85364(8) 0.00406(7)
N1 N 0.46106(6) 1.00826(8) 0.13666(7)
C1 C 0.64522(9) 0.59944(13) 0.11512(11)
H1 H 0.6552 0.5324 0.1311
C2 C 0.59958(8) 0.65459(12) 0.14638(10)
H2 H 0.5785 0.6263 0.1839
C3 C 0.58537(7) 0.75219(11) 0.12163(8)
C4 C 0.61598(8) 0.79474(12) 0.06761(9)
H3 H 0.6060 0.8617 0.0514
C5 C 0.66173(8) 0.73765(14) 0.03725(10)
H4 H 0.6830 0.7658 -0.0002
C6 C 0.67643(9) 0.64068(14) 0.06114(11)
H5 H 0.7080 0.6023 0.0405
C7 C 0.49043(7) 0.86926(10) 0.10475(8)
H6 H 0.4687 0.8417 0.0503
C8 C 0.43381(7) 0.90691(10) 0.14485(8)
H7 H 0.4466 0.8863 0.2019
C9 C 0.51361(7) 0.97857(10) 0.10425(8)
C10 C 0.35547(7) 0.89095(9) 0.10479(8)
C11 C 0.32534(7) 0.91305(10) 0.02511(8)
H8 H 0.3551 0.9369 -0.0054
C12 C 0.25254(7) 0.90093(10) -0.01068(8)
H9 H 0.2328 0.9159 -0.0654
C13 C 0.20861(7) 0.86690(10) 0.03363(8)
C14 C 0.23786(8) 0.84465(11) 0.11344(9)
H10 H 0.2080 0.8215 0.1441
C15 C 0.31068(8) 0.85636(10) 0.14832(8)
H11 H 0.3305 0.8405 0.2029
C16 C 0.10370(8) 0.88225(13) -0.07598(10)
H12 H 0.1122 0.9530 -0.0822
H13 H 0.0520 0.8698 -0.0896
H14 H 0.1244 0.8436 -0.1113
C17 C 0.43865(7) 1.10109(10) 0.15694(8)
C18 C 0.38857(7) 1.10302(10) 0.19976(8)
H15 H 0.3703 1.0432 0.2149
C19 C 0.36597(7) 1.19449(10) 0.21980(8)
C20 C 0.39214(7) 1.28189(10) 0.19687(8)
C21 C 0.44252(7) 1.27780(10) 0.15407(8)
C22 C 0.46660(7) 1.18729(10) 0.13432(8)
H16 H 0.5014 1.1843 0.1059
C23 C 0.28987(8) 1.11877(11) 0.28746(9)
H17 H 0.2678 1.0775 0.2410
H18 H 0.2537 1.1369 0.3140
H19 H 0.3286 1.0816 0.3244
C24 C 0.30125(10) 1.40118(13) 0.17319(11)
H20 H 0.2981 1.3988 0.1165
H21 H 0.2912 1.4688 0.1876
H22 H 0.2661 1.3554 0.1842
C25 C 0.51678(9) 1.36777(12) 0.09139(10)
H23 H 0.5600 1.3335 0.1228
H24 H 0.5288 1.4363 0.0817
H25 H 0.4977 1.3336 0.0405
O7 O 0.5000 0.53171(14) 0.2500
H26 H 0.519(3) 0.480(4) 0.299(3)
H26A H 0.481(3) 0.480(4) 0.201(3)
H27? H 0.452(3) 0.480(4) 0.229(3)
loop_
_geom_bond_atom_site_label_1
_geom_bond_atom_site_label_2
_geom_bond_site_symmetry_1
_geom_bond_site_symmetry_2
O1 C3 1_555 1_555
O2 C9 1_555 1_555
O3 C19 1_555 1_555
O4 C20 1_555 1_555
O5 C21 1_555 1_555
O6 C13 1_555 1_555
N1 C8 1_555 1_555
C1 H1 1_555 1_555
C2 C1 1_555 1_555
H2 C2 1_555 1_555
C3 C2 1_555 1_555
C4 C3 1_555 1_555
H3 C4 1_555 1_555
C5 C4 1_555 1_555
H4 C5 1_555 1_555
C6 C1 1_555 1_555
H5 C6 1_555 1_555
C7 O1 1_555 1_555
H6 C7 1_555 1_555
C8 C7 1_555 1_555
H7 C8 1_555 1_555
C9 N1 1_555 1_555
C10 C8 1_555 1_555
C11 C10 1_555 1_555
H8 C11 1_555 1_555
C12 C11 1_555 1_555
H9 C12 1_555 1_555
C13 C12 1_555 1_555
C14 C13 1_555 1_555
H10 C14 1_555 1_555
C15 C10 1_555 1_555
H11 C15 1_555 1_555
C16 O6 1_555 1_555
H12 C16 1_555 1_555
H13 C16 1_555 1_555
H14 C16 1_555 1_555
C17 N1 1_555 1_555
C18 C17 1_555 1_555
H15 C18 1_555 1_555
C19 C18 1_555 1_555
C20 C19 1_555 1_555
C21 C20 1_555 1_555
C22 C17 1_555 1_555
H16 C22 1_555 1_555
C23 O3 1_555 1_555
H17 C23 1_555 1_555
H18 C23 1_555 1_555
H19 C23 1_555 1_555
C24 O4 1_555 1_555
H20 C24 1_555 1_555
H21 C24 1_555 1_555
H22 C24 1_555 1_555
C25 O5 1_555 1_555
H23 C25 1_555 1_555
H24 C25 1_555 1_555
H25 C25 1_555 1_555
O7 H26 1_555 1_555
H26A O7 1_555 1_555
C5 C6 1_555 1_555
C7 C9 1_555 1_555
C14 C15 1_555 1_555
C21 C22 1_555 1_555

#END
