
#######################################################################
#
#                 Cambridge Crystallographic Data Centre
#                                CCDC 
#
#######################################################################
#
# If this CIF has been generated from an entry in the Cambridge 
# Structural Database, then it will include bibliographic, chemical, 
# crystal, experimental, refinement or atomic coordinate data resulting 
# from the CCDC's data processing and validation procedures.
#
#######################################################################

data_ZUXCIG
_chemical_formula_moiety         'C31 H23 Cl2 N1 O4 S1'
_chemical_name_systematic        
12-(4-Chlorophenyl)-5-((4-chlorophenyl)sulfonyl)-9-methoxy-6a-methyl-6a,7-dihydrobenzo[j]phenanthridin-6(5H)-one
_symmetry_cell_setting           triclinic
_symmetry_space_group_name_H-M   'P -1'
_symmetry_Int_Tables_number      2
_space_group_name_Hall           '-P 1'
loop_
_symmetry_equiv_pos_site_id
_symmetry_equiv_pos_as_xyz
1 x,y,z
2 -x,-y,-z
_cell_length_a                   9.8014(13)
_cell_length_b                   12.1207(15)
_cell_length_c                   13.323(3)
_cell_angle_alpha                99.552(15)
_cell_angle_beta                 106.402(16)
_cell_angle_gamma                111.742(12)
_cell_volume                     1343.77
_exptl_crystal_colour            white
_exptl_crystal_description       block
_cell_formula_units_Z            2
loop_
_atom_site_label
_atom_site_type_symbol
_atom_site_fract_x
_atom_site_fract_y
_atom_site_fract_z
Cl1 Cl 0.1833(2) 0.59955(17) 0.1433(2)
Cl2 Cl 1.4591(2) 0.2417(2) 0.52545(18)
N1 N 0.6854(6) 0.1839(5) 0.3421(5)
O1 O 0.6238(5) -0.0225(4) 0.3173(5)
O2 O -0.2415(5) -0.2871(4) 0.2038(5)
O3 O 0.8311(5) 0.3670(4) 0.5076(4)
O4 O 0.7385(6) 0.1539(5) 0.5256(5)
S1 S 0.8080(2) 0.24196(17) 0.47467(15)
C1 C 0.5840(7) 0.0558(6) 0.2940(6)
C2 C 0.4148(7) 0.0209(6) 0.2168(6)
C3 C 0.3117(7) -0.0496(6) 0.2748(5)
H1 H 0.3126 -0.1301 0.2688
H2 H 0.3568 -0.0030 0.3521
C4 C 0.1441(7) -0.0684(5) 0.2267(5)
C5 C 0.0208(7) -0.1704(6) 0.2297(5)
H3 H 0.0412 -0.2331 0.2524
C6 C -0.1315(7) -0.1810(6) 0.1999(6)
C7 C -0.1624(7) -0.0875(6) 0.1662(6)
H4 H -0.2646 -0.0938 0.1453
C8 C -0.0401(7) 0.0152(6) 0.1639(6)
H5 H -0.0615 0.0779 0.1419
C9 C 0.1153(7) 0.0277(5) 0.1938(5)
C10 C 0.2492(7) 0.1364(5) 0.1916(5)
C11 C 0.3903(7) 0.1359(5) 0.2053(5)
C12 C 0.5272(7) 0.2384(6) 0.2011(6)
C13 C 0.6804(8) 0.2629(6) 0.2733(5)
C14 C 0.8161(7) 0.3535(6) 0.2721(6)
H6 H 0.9151 0.3659 0.3181
C15 C 0.8056(10) 0.4247(7) 0.2038(7)
H7 H 0.8967 0.4891 0.2065
C16 C 0.6587(9) 0.4009(7) 0.1303(7)
H8 H 0.6518 0.4473 0.0817
C17 C 0.5229(8) 0.3091(6) 0.1288(6)
H9 H 0.4254 0.2937 0.0781
C18 C 0.3782(9) -0.0618(6) 0.1040(6)
H10 H 0.4454 -0.0154 0.0707
H11 H 0.2693 -0.0893 0.0586
H12 H 0.3969 -0.1329 0.1117
C19 C -0.3962(8) -0.2992(7) 0.1864(8)
H13 H -0.3919 -0.2368 0.2436
H14 H -0.4618 -0.3805 0.1871
H15 H -0.4399 -0.2884 0.1166
C20 C 0.2227(7) 0.2496(6) 0.1791(6)
C21 C 0.2836(9) 0.3505(6) 0.2691(6)
H16 H 0.3353 0.3474 0.3380
C22 C 0.2690(9) 0.4573(6) 0.2585(7)
H17 H 0.3121 0.5261 0.3202
C23 C 0.1911(8) 0.4623(6) 0.1573(7)
C24 C 0.1235(8) 0.3597(7) 0.0673(7)
H18 H 0.0678 0.3619 -0.0010
C25 C 0.1379(8) 0.2531(6) 0.0780(6)
H19 H 0.0904 0.1829 0.0170
C26 C 0.9914(7) 0.2438(6) 0.4829(5)
C27 C 1.1260(8) 0.3544(6) 0.5274(6)
H20 H 1.1199 0.4292 0.5479
C28 C 1.2705(8) 0.3538(7) 0.5417(7)
H21 H 1.3631 0.4281 0.5731
C29 C 1.2766(8) 0.2434(7) 0.5095(5)
C30 C 1.1430(8) 0.1325(6) 0.4618(6)
H22 H 1.1496 0.0585 0.4385
C31 C 0.9991(8) 0.1324(6) 0.4490(6)
H23 H 0.9069 0.0578 0.4177
loop_
_geom_bond_atom_site_label_1
_geom_bond_atom_site_label_2
_geom_bond_site_symmetry_1
_geom_bond_site_symmetry_2
Cl1 C23 1_555 1_555
Cl2 C29 1_555 1_555
N1 S1 1_555 1_555
O1 C1 1_555 1_555
O2 C6 1_555 1_555
O3 S1 1_555 1_555
O4 S1 1_555 1_555
S1 C26 1_555 1_555
C1 N1 1_555 1_555
C2 C1 1_555 1_555
C3 C2 1_555 1_555
H1 C3 1_555 1_555
H2 C3 1_555 1_555
C4 C3 1_555 1_555
C5 C4 1_555 1_555
H3 C5 1_555 1_555
C6 C5 1_555 1_555
C7 C6 1_555 1_555
H4 C7 1_555 1_555
C8 C7 1_555 1_555
H5 C8 1_555 1_555
C9 C4 1_555 1_555
C10 C9 1_555 1_555
C11 C2 1_555 1_555
C12 C11 1_555 1_555
C13 N1 1_555 1_555
C14 C13 1_555 1_555
H6 C14 1_555 1_555
C15 C14 1_555 1_555
H7 C15 1_555 1_555
C16 C15 1_555 1_555
H8 C16 1_555 1_555
C17 C12 1_555 1_555
H9 C17 1_555 1_555
C18 C2 1_555 1_555
H10 C18 1_555 1_555
H11 C18 1_555 1_555
H12 C18 1_555 1_555
C19 O2 1_555 1_555
H13 C19 1_555 1_555
H14 C19 1_555 1_555
H15 C19 1_555 1_555
C20 C10 1_555 1_555
C21 C20 1_555 1_555
H16 C21 1_555 1_555
C22 C21 1_555 1_555
H17 C22 1_555 1_555
C23 C22 1_555 1_555
C24 C23 1_555 1_555
H18 C24 1_555 1_555
C25 C20 1_555 1_555
H19 C25 1_555 1_555
C26 C27 1_555 1_555
C27 H20 1_555 1_555
C28 C27 1_555 1_555
H21 C28 1_555 1_555
C29 C28 1_555 1_555
C30 C29 1_555 1_555
H22 C30 1_555 1_555
C31 C26 1_555 1_555
H23 C31 1_555 1_555
C8 C9 1_555 1_555
C10 C11 1_555 1_555
C12 C13 1_555 1_555
C16 C17 1_555 1_555
C24 C25 1_555 1_555
C30 C31 1_555 1_555

#END
