
#######################################################################
#
#                 Cambridge Crystallographic Data Centre
#                                CCDC 
#
#######################################################################
#
# If this CIF has been generated from an entry in the Cambridge 
# Structural Database, then it will include bibliographic, chemical, 
# crystal, experimental, refinement or atomic coordinate data resulting 
# from the CCDC's data processing and validation procedures.
#
#######################################################################

data_ZUXDON
_chemical_formula_moiety         'C82 H54 N4'
_chemical_name_systematic        
anti-4,10-Diphenyl-5,11-bis(4-(triphenylvinyl)phenyl)-4,10-dihydroimidazo[4',5':9,10]pyreno[4,5-d]imidazole
_symmetry_cell_setting           triclinic
_symmetry_space_group_name_H-M   'P -1'
_symmetry_Int_Tables_number      2
_space_group_name_Hall           '-P 1'
loop_
_symmetry_equiv_pos_site_id
_symmetry_equiv_pos_as_xyz
1 x,y,z
2 -x,-y,-z
_cell_length_a                   10.1789(4)
_cell_length_b                   11.9937(5)
_cell_length_c                   13.2135(5)
_cell_angle_alpha                108.6000(10)
_cell_angle_beta                 95.1890(10)
_cell_angle_gamma                102.3540(10)
_cell_volume                     1471.38
_exptl_crystal_colour            green
_exptl_crystal_description       block
_cell_formula_units_Z            1
loop_
_atom_site_label
_atom_site_type_symbol
_atom_site_fract_x
_atom_site_fract_y
_atom_site_fract_z
C1 C 0.73791(18) 0.31631(16) 0.24925(14)
H1 H 0.7272 0.3264 0.3205
C2 C 0.8594(2) 0.3734(2) 0.22841(19)
H2 H 0.9286 0.4239 0.2858
C3 C 0.8795(2) 0.35666(19) 0.1239(2)
H3 H 0.9623 0.3942 0.1101
C4 C 0.7764(2) 0.28418(18) 0.04014(17)
H4 H 0.7894 0.2720 -0.0310
C5 C 0.65231(18) 0.22855(14) 0.06056(13)
H5 H 0.5824 0.1804 0.0029
C6 C 0.63148(15) 0.24407(11) 0.16573(11)
C7 C 0.49842(14) 0.18364(11) 0.18807(10)
C8 C 0.38114(15) 0.21115(12) 0.16172(11)
C9 C 0.37784(16) 0.31610(13) 0.12453(12)
C10 C 0.4583(2) 0.43177(14) 0.18342(13)
H6 H 0.5179 0.4443 0.2460
C11 C 0.4512(3) 0.52911(17) 0.15045(17)
H7 H 0.5062 0.6064 0.1908
C12 C 0.3648(3) 0.5125(2) 0.0598(2)
H8 H 0.3610 0.5782 0.0376
C13 C 0.2828(3) 0.3990(3) 0.0007(2)
H9 H 0.2228 0.3880 -0.0612
C14 C 0.2889(2) 0.3006(2) 0.03280(18)
H10 H 0.2328 0.2238 -0.0076
C15 C 0.24329(15) 0.14061(13) 0.16671(12)
C16 C 0.15727(19) 0.19832(17) 0.22748(16)
H11 H 0.1855 0.2817 0.2654
C17 C 0.0302(2) 0.1332(2) 0.23226(19)
H12 H -0.0254 0.1725 0.2751
C18 C -0.0146(2) 0.0113(2) 0.17457(19)
H13 H -0.1005 -0.0322 0.1780
C19 C 0.06739(19) -0.04636(18) 0.11171(18)
H14 H 0.0365 -0.1290 0.0714
C20 C 0.19571(17) 0.01744(15) 0.10777(14)
H15 H 0.2508 -0.0228 0.0650
C21 C 0.50383(14) 0.09041(11) 0.23998(11)
C22 C 0.58353(15) 0.00799(12) 0.20798(12)
H16 H 0.6379 0.0139 0.1560
C23 C 0.58303(14) -0.08259(12) 0.25243(12)
H17 H 0.6359 -0.1372 0.2293
C24 C 0.50364(13) -0.09206(11) 0.33154(10)
C25 C 0.42974(14) -0.00627(11) 0.36757(10)
H18 H 0.3794 -0.0093 0.4224
C26 C 0.43031(14) 0.08355(11) 0.32277(11)
H19 H 0.3807 0.1404 0.3484
C27 C 0.50341(13) -0.19097(11) 0.37579(10)
C28 C 0.25214(14) -0.23976(12) 0.38154(12)
C29 C 0.17558(18) -0.2831(2) 0.27935(16)
H20 H 0.2073 -0.3282 0.2199
C30 C 0.0491(2) -0.2575(3) 0.2674(3)
H21 H -0.0039 -0.2853 0.1988
C31 C 0.0020(2) -0.1925(3) 0.3545(3)
H22 H -0.0825 -0.1760 0.3449
C32 C 0.0783(2) -0.15102(19) 0.4561(3)
H23 H 0.0455 -0.1068 0.5154
C33 C 0.20453(17) -0.17518(14) 0.47055(16)
H24 H 0.2565 -0.1481 0.5395
C34 C 0.42583(12) -0.34492(10) 0.43198(10)
C35 C 0.56443(12) -0.32197(10) 0.43469(10)
C36 C 0.64414(12) -0.39070(10) 0.47251(10)
C37 C 0.78528(13) -0.36368(12) 0.48081(12)
H25 H 0.8303 -0.3008 0.4597
C38 C 0.85874(13) -0.42952(12) 0.52011(12)
H26 H 0.9534 -0.4094 0.5269
C39 C 0.79370(13) -0.52511(11) 0.54954(11)
H27 H 0.8450 -0.5688 0.5756
C40 C 0.65160(12) -0.55696(10) 0.54057(10)
C41 C 0.57313(11) -0.48715(10) 0.50343(9)
N1 N 0.61243(11) -0.22693(9) 0.39887(9)
N2 N 0.38585(11) -0.25896(9) 0.39483(9)
C1A C 0.26209(18) -1.31631(16) 0.75075(14)
H1A H 0.2728 -1.3264 0.6795
C2A C 0.1406(2) -1.3734(2) 0.77159(19)
H2A H 0.0714 -1.4239 0.7142
C3A C 0.1205(2) -1.35666(19) 0.8761(2)
H3A H 0.0377 -1.3942 0.8899
C4A C 0.2236(2) -1.28418(18) 0.95986(17)
H4A H 0.2106 -1.2720 1.0310
C5A C 0.34769(18) -1.22855(14) 0.93944(13)
H5A H 0.4176 -1.1804 0.9971
C6A C 0.36852(15) -1.24407(11) 0.83427(11)
C7A C 0.50158(14) -1.18364(11) 0.81193(10)
C8A C 0.61886(15) -1.21115(12) 0.83828(11)
C9A C 0.62216(16) -1.31610(13) 0.87547(12)
C10A C 0.5417(2) -1.43177(14) 0.81658(13)
H6A H 0.4821 -1.4443 0.7540
C11A C 0.5488(3) -1.52911(17) 0.84955(17)
H7A H 0.4938 -1.6064 0.8092
C12A C 0.6352(3) -1.5125(2) 0.9402(2)
H8A H 0.6390 -1.5782 0.9624
C13A C 0.7172(3) -1.3990(3) 0.9993(2)
H9A H 0.7772 -1.3880 1.0612
C14A C 0.7111(2) -1.3006(2) 0.96720(18)
H10A H 0.7672 -1.2238 1.0076
C15A C 0.75671(15) -1.14061(13) 0.83329(12)
C16A C 0.84273(19) -1.19832(17) 0.77252(16)
H11A H 0.8145 -1.2817 0.7346
C17A C 0.9698(2) -1.1332(2) 0.76774(19)
H12A H 1.0254 -1.1725 0.7249
C18A C 1.0146(2) -1.0113(2) 0.82543(19)
H13A H 1.1005 -0.9678 0.8220
C19A C 0.93261(19) -0.95364(18) 0.88829(18)
H14A H 0.9635 -0.8710 0.9286
C20A C 0.80429(17) -1.01744(15) 0.89223(14)
H15A H 0.7492 -0.9772 0.9350
C21A C 0.49617(14) -1.09041(11) 0.76002(11)
C22A C 0.41647(15) -1.00799(12) 0.79202(12)
H16A H 0.3621 -1.0139 0.8440
C23A C 0.41697(14) -0.91741(12) 0.74757(12)
H17A H 0.3641 -0.8628 0.7707
C24A C 0.49636(13) -0.90794(11) 0.66846(10)
C25A C 0.57026(14) -0.99373(11) 0.63243(10)
H18A H 0.6206 -0.9907 0.5776
C26A C 0.56969(14) -1.08355(11) 0.67723(11)
H19A H 0.6193 -1.1404 0.6516
C27A C 0.49659(13) -0.80903(11) 0.62421(10)
C28A C 0.74786(14) -0.76024(12) 0.61846(12)
C29A C 0.82442(18) -0.7169(2) 0.72065(16)
H20A H 0.7927 -0.6718 0.7801
C30A C 0.9509(2) -0.7425(3) 0.7326(3)
H21A H 1.0039 -0.7147 0.8012
C31A C 0.9980(2) -0.8075(3) 0.6455(3)
H22A H 1.0825 -0.8240 0.6551
C32A C 0.9217(2) -0.84898(19) 0.5439(3)
H23A H 0.9545 -0.8932 0.4846
C33A C 0.79547(17) -0.82482(14) 0.52945(16)
H24A H 0.7435 -0.8519 0.4605
C34A C 0.57417(12) -0.65508(10) 0.56802(10)
C35A C 0.43557(12) -0.67803(10) 0.56531(10)
C36A C 0.35586(12) -0.60930(10) 0.52749(10)
C37A C 0.21472(13) -0.63632(12) 0.51919(12)
H25A H 0.1697 -0.6992 0.5403
C38A C 0.14126(13) -0.57048(12) 0.47989(12)
H26A H 0.0466 -0.5906 0.4731
C39A C 0.20630(13) -0.47489(11) 0.45046(11)
H27A H 0.1550 -0.4312 0.4244
C40A C 0.34840(12) -0.44304(10) 0.45943(10)
C41A C 0.42687(11) -0.51285(10) 0.49657(9)
N1A N 0.38757(11) -0.77307(9) 0.60113(9)
N2A N 0.61415(11) -0.74104(9) 0.60517(9)
loop_
_geom_bond_atom_site_label_1
_geom_bond_atom_site_label_2
_geom_bond_site_symmetry_1
_geom_bond_site_symmetry_2
C1 H1 1_555 1_555
C2 C1 1_555 1_555
H2 C2 1_555 1_555
C3 C2 1_555 1_555
H3 C3 1_555 1_555
C4 C3 1_555 1_555
H4 C4 1_555 1_555
C5 C4 1_555 1_555
H5 C5 1_555 1_555
C6 C1 1_555 1_555
C7 C6 1_555 1_555
C8 C7 1_555 1_555
C9 C8 1_555 1_555
C10 C9 1_555 1_555
H6 C10 1_555 1_555
C11 C10 1_555 1_555
H7 C11 1_555 1_555
C12 C11 1_555 1_555
H8 C12 1_555 1_555
C13 C12 1_555 1_555
H9 C13 1_555 1_555
C14 C9 1_555 1_555
H10 C14 1_555 1_555
C15 C8 1_555 1_555
C16 C15 1_555 1_555
H11 C16 1_555 1_555
C17 C16 1_555 1_555
H12 C17 1_555 1_555
C18 C17 1_555 1_555
H13 C18 1_555 1_555
C19 C18 1_555 1_555
H14 C19 1_555 1_555
C20 C15 1_555 1_555
H15 C20 1_555 1_555
C21 C7 1_555 1_555
C22 C21 1_555 1_555
H16 C22 1_555 1_555
C23 C22 1_555 1_555
H17 C23 1_555 1_555
C24 C23 1_555 1_555
C25 C24 1_555 1_555
H18 C25 1_555 1_555
C26 C21 1_555 1_555
H19 C26 1_555 1_555
C27 C24 1_555 1_555
C28 C29 1_555 1_555
C29 H20 1_555 1_555
C30 C29 1_555 1_555
H21 C30 1_555 1_555
C31 C30 1_555 1_555
H22 C31 1_555 1_555
C32 C31 1_555 1_555
H23 C32 1_555 1_555
C33 C28 1_555 1_555
H24 C33 1_555 1_555
C34 C35 1_555 1_555
C35 C36 1_555 1_555
C36 C37 1_555 1_555
C37 H25 1_555 1_555
C38 C37 1_555 1_555
H26 C38 1_555 1_555
C39 C38 1_555 1_555
H27 C39 1_555 1_555
C40 C39 1_555 1_555
C41 C36 1_555 1_555
N1 C27 1_555 1_555
N2 C27 1_555 1_555
C1A H1A 1_555 1_555
C2A C1A 1_555 1_555
H2A C2A 1_555 1_555
C3A C2A 1_555 1_555
H3A C3A 1_555 1_555
C4A C3A 1_555 1_555
H4A C4A 1_555 1_555
C5A C4A 1_555 1_555
H5A C5A 1_555 1_555
C6A C1A 1_555 1_555
C7A C6A 1_555 1_555
C8A C7A 1_555 1_555
C9A C8A 1_555 1_555
C10A C9A 1_555 1_555
H6A C10A 1_555 1_555
C11A C10A 1_555 1_555
H7A C11A 1_555 1_555
C12A C11A 1_555 1_555
H8A C12A 1_555 1_555
C13A C12A 1_555 1_555
H9A C13A 1_555 1_555
C14A C9A 1_555 1_555
H10A C14A 1_555 1_555
C15A C8A 1_555 1_555
C16A C15A 1_555 1_555
H11A C16A 1_555 1_555
C17A C16A 1_555 1_555
H12A C17A 1_555 1_555
C18A C17A 1_555 1_555
H13A C18A 1_555 1_555
C19A C18A 1_555 1_555
H14A C19A 1_555 1_555
C20A C15A 1_555 1_555
H15A C20A 1_555 1_555
C21A C7A 1_555 1_555
C22A C21A 1_555 1_555
H16A C22A 1_555 1_555
C23A C22A 1_555 1_555
H17A C23A 1_555 1_555
C24A C23A 1_555 1_555
C25A C24A 1_555 1_555
H18A C25A 1_555 1_555
C26A C21A 1_555 1_555
H19A C26A 1_555 1_555
C27A C24A 1_555 1_555
C28A C29A 1_555 1_555
C29A H20A 1_555 1_555
C30A C29A 1_555 1_555
H21A C30A 1_555 1_555
C31A C30A 1_555 1_555
H22A C31A 1_555 1_555
C32A C31A 1_555 1_555
H23A C32A 1_555 1_555
C33A C28A 1_555 1_555
H24A C33A 1_555 1_555
C34A C40 1_555 1_555
C35A C34A 1_555 1_555
C36A C35A 1_555 1_555
C37A C36A 1_555 1_555
H25A C37A 1_555 1_555
C38A C37A 1_555 1_555
H26A C38A 1_555 1_555
C39A C38A 1_555 1_555
H27A C39A 1_555 1_555
C40A C34 1_555 1_555
C41A C41 1_555 1_555
N1A C27A 1_555 1_555
N2A C27A 1_555 1_555
C5 C6 1_555 1_555
C13 C14 1_555 1_555
C19 C20 1_555 1_555
C25 C26 1_555 1_555
C28 N2 1_555 1_555
C32 C33 1_555 1_555
C34 N2 1_555 1_555
C35 N1 1_555 1_555
C40 C41 1_555 1_555
C5A C6A 1_555 1_555
C13A C14A 1_555 1_555
C19A C20A 1_555 1_555
C25A C26A 1_555 1_555
C28A N2A 1_555 1_555
C32A C33A 1_555 1_555
C34A N2A 1_555 1_555
C35A N1A 1_555 1_555
C36A C41A 1_555 1_555
C39A C40A 1_555 1_555
C40A C41A 1_555 1_555

#END
