
#######################################################################
#
#                 Cambridge Crystallographic Data Centre
#                                CCDC 
#
#######################################################################
#
# If this CIF has been generated from an entry in the Cambridge 
# Structural Database, then it will include bibliographic, chemical, 
# crystal, experimental, refinement or atomic coordinate data resulting 
# from the CCDC's data processing and validation procedures.
#
#######################################################################

data_ZUXXOH
_chemical_formula_moiety         'C16 H20 N4'
_chemical_name_systematic        
6-(4-phenyl-1H-1,2,3-triazol-1-yl)-1-azaspiro[4.4]nonane
_symmetry_cell_setting           orthorhombic
_symmetry_space_group_name_H-M   'P 21 21 21'
_symmetry_Int_Tables_number      19
_space_group_name_Hall           'P 2ac 2ab'
loop_
_symmetry_equiv_pos_site_id
_symmetry_equiv_pos_as_xyz
1 x,y,z
2 1/2-x,-y,1/2+z
3 1/2+x,1/2-y,-z
4 -x,1/2+y,1/2-z
_cell_length_a                   21.4681(4)
_cell_length_b                   11.7833(2)
_cell_length_c                   5.70779(11)
_cell_angle_alpha                90
_cell_angle_beta                 90
_cell_angle_gamma                90
_cell_volume                     1443.87
_exptl_crystal_colour            colorless
_exptl_crystal_description       block
_cell_formula_units_Z            4
loop_
_atom_site_label
_atom_site_type_symbol
_atom_site_fract_x
_atom_site_fract_y
_atom_site_fract_z
N1 N -0.09439(12) -0.14044(19) -0.4376(4)
H1 H -0.0677(15) -0.111(3) -0.345(6)
N2 N -0.01795(9) -0.00279(16) -0.7795(3)
N3 N -0.00822(11) -0.0130(2) -1.0101(4)
N4 N 0.04912(11) -0.0490(2) -1.0401(4)
C1 C -0.07121(16) -0.2441(3) -0.5451(7)
H2 H -0.0849 -0.3100 -0.4571
H3 H -0.0260 -0.2437 -0.5497
C2 C -0.0972(2) -0.2465(3) -0.7860(8)
H4 H -0.1187 -0.3176 -0.8137
H5 H -0.0640 -0.2391 -0.9004
C3 C -0.14154(13) -0.1489(2) -0.8057(6)
H6 H -0.1841 -0.1742 -0.7826
H7 H -0.1383 -0.1134 -0.9585
C4 C -0.12215(11) -0.0664(2) -0.6128(4)
C5 C -0.17518(13) 0.0042(3) -0.5067(5)
H8 H -0.2037 0.0293 -0.6280
H9 H -0.1983 -0.0402 -0.3928
C6 C -0.14401(15) 0.1059(3) -0.3886(6)
H10 H -0.1675 0.1747 -0.4191
H11 H -0.1418 0.0945 -0.2205
C7 C -0.07871(14) 0.1153(2) -0.4921(6)
H12 H -0.0705 0.1919 -0.5461
H13 H -0.0474 0.0943 -0.3777
C8 C -0.07950(11) 0.0320(2) -0.6964(4)
H14 H -0.1007 0.0695 -0.8273
C9 C 0.03335(11) -0.03323(19) -0.6594(4)
H15 H 0.0387 -0.0341 -0.4977
C10 C 0.07604(11) -0.06277(18) -0.8275(4)
C11 C 0.14066(11) -0.10232(18) -0.8026(4)
C12 C 0.18420(13) -0.0790(2) -0.9757(5)
H16 H 0.1728 -0.0363 -1.1059
C13 C 0.24487(13) -0.1191(2) -0.9554(6)
H17 H 0.2739 -0.1026 -1.0716
C14 C 0.26241(13) -0.1832(3) -0.7643(6)
H18 H 0.3028 -0.2109 -0.7521
C15 C 0.21913(14) -0.2057(3) -0.5911(6)
H19 H 0.2307 -0.2482 -0.4608
C16 C 0.15886(13) -0.1656(2) -0.6100(5)
H20 H 0.1302 -0.1812 -0.4921
loop_
_geom_bond_atom_site_label_1
_geom_bond_atom_site_label_2
_geom_bond_site_symmetry_1
_geom_bond_site_symmetry_2
N1 H1 1_555 1_555
N2 N3 1_555 1_555
N3 N4 1_555 1_555
N4 C10 1_555 1_555
C1 N1 1_555 1_555
H2 C1 1_555 1_555
H3 C1 1_555 1_555
C2 C1 1_555 1_555
H4 C2 1_555 1_555
H5 C2 1_555 1_555
C3 C2 1_555 1_555
H6 C3 1_555 1_555
H7 C3 1_555 1_555
C4 N1 1_555 1_555
C5 C4 1_555 1_555
H8 C5 1_555 1_555
H9 C5 1_555 1_555
C6 C5 1_555 1_555
H10 C6 1_555 1_555
H11 C6 1_555 1_555
C7 C6 1_555 1_555
H12 C7 1_555 1_555
H13 C7 1_555 1_555
C8 N2 1_555 1_555
H14 C8 1_555 1_555
C9 N2 1_555 1_555
H15 C9 1_555 1_555
C10 C9 1_555 1_555
C11 C10 1_555 1_555
C12 C11 1_555 1_555
H16 C12 1_555 1_555
C13 C12 1_555 1_555
H17 C13 1_555 1_555
C14 C13 1_555 1_555
H18 C14 1_555 1_555
C15 C14 1_555 1_555
H19 C15 1_555 1_555
C16 C11 1_555 1_555
H20 C16 1_555 1_555
C3 C4 1_555 1_555
C4 C8 1_555 1_555
C7 C8 1_555 1_555
C15 C16 1_555 1_555

#END
