
#######################################################################
#
#                 Cambridge Crystallographic Data Centre
#                                CCDC 
#
#######################################################################
#
# If this CIF has been generated from an entry in the Cambridge 
# Structural Database, then it will include bibliographic, chemical, 
# crystal, experimental, refinement or atomic coordinate data resulting 
# from the CCDC's data processing and validation procedures.
#
#######################################################################

data_ZUZSEU
_chemical_formula_moiety         'C24 H23 N1 O3 S1'
_chemical_name_systematic        
2,4-Dimethyl-5-((4-methylphenyl)sulfonyl)-6,11-dihydrodibenzo[b,f]azocin-12(5H)-one
_symmetry_cell_setting           monoclinic
_symmetry_space_group_name_H-M   'P 21/c'
_symmetry_Int_Tables_number      14
_space_group_name_Hall           '-P 2ybc'
loop_
_symmetry_equiv_pos_site_id
_symmetry_equiv_pos_as_xyz
1 x,y,z
2 -x,1/2+y,1/2-z
3 -x,-y,-z
4 x,1/2-y,1/2+z
_cell_length_a                   17.3173(11)
_cell_length_b                   8.5117(4)
_cell_length_c                   15.4742(10)
_cell_angle_alpha                90
_cell_angle_beta                 113.955(8)
_cell_angle_gamma                90
_cell_volume                     2084.43
_exptl_crystal_colour            yellow
_exptl_crystal_description       parallelepiped
_cell_formula_units_Z            4
loop_
_atom_site_label
_atom_site_type_symbol
_atom_site_fract_x
_atom_site_fract_y
_atom_site_fract_z
S1 S 0.32595(3) 0.07857(6) 0.16853(4)
O1 O 0.29634(11) -0.07488(17) 0.13081(13)
O2 O 0.36603(11) 0.1020(2) 0.26873(11)
O3 O 0.17087(12) 0.11241(18) 0.33848(11)
N1 N 0.24307(10) 0.19370(19) 0.12898(11)
C1 C 0.39552(12) 0.1398(2) 0.11790(14)
C2 C 0.37208(14) 0.1154(3) 0.02160(15)
H1 H 0.3214 0.0606 -0.0146
C3 C 0.42284(14) 0.1713(3) -0.02100(16)
H2 H 0.4064 0.1556 -0.0869
C4 C 0.49788(14) 0.2503(3) 0.03115(17)
C5 C 0.52114(14) 0.2704(3) 0.12752(18)
H3 H 0.5728 0.3221 0.1641
C6 C 0.47035(14) 0.2165(3) 0.17170(16)
H4 H 0.4867 0.2321 0.2376
C7 C 0.55228(17) 0.3125(3) -0.0167(2)
H5 H 0.5262 0.2863 -0.0842
H6 H 0.6085 0.2646 0.0121
H7 H 0.5574 0.4268 -0.0091
C8 C 0.17753(13) 0.1721(3) 0.03216(14)
H8 H 0.1792 0.0621 0.0122
H9 H 0.1904 0.2414 -0.0117
C9 C 0.08977(13) 0.2084(2) 0.02492(14)
C10 C 0.03718(14) 0.3015(3) -0.04988(15)
H10 H 0.0583 0.3439 -0.0928
C11 C -0.04537(15) 0.3335(3) -0.06298(17)
H11 H -0.0806 0.3968 -0.1145
C12 C -0.07574(15) 0.2720(3) -0.00012(18)
H12 H -0.1324 0.2919 -0.0089
C13 C -0.02400(14) 0.1819(3) 0.07526(17)
H13 H -0.0454 0.1423 0.1186
C14 C 0.05910(13) 0.1475(2) 0.08933(15)
C15 C 0.11376(14) 0.0508(2) 0.17448(15)
H14 H 0.1532 -0.0136 0.1576
H15 H 0.0773 -0.0218 0.1912
C16 C 0.16437(13) 0.1513(2) 0.26018(14)
C17 C 0.20077(12) 0.3058(2) 0.24788(13)
C18 C 0.19463(13) 0.4321(2) 0.30178(14)
H16 H 0.1695 0.4169 0.3455
C19 C 0.22466(13) 0.5806(2) 0.29302(14)
C20 C 0.26089(13) 0.5992(2) 0.22823(15)
H17 H 0.2819 0.6997 0.2219
C21 C 0.26759(12) 0.4756(2) 0.17209(14)
C22 C 0.23805(12) 0.3278(2) 0.18319(13)
C23 C 0.21602(16) 0.7174(3) 0.35034(16)
H18 H 0.2405 0.8116 0.3350
H19 H 0.2459 0.6937 0.4178
H20 H 0.1561 0.7357 0.3354
C24 C 0.30554(16) 0.5066(3) 0.10128(18)
H21 H 0.3059 0.4091 0.0678
H22 H 0.3635 0.5450 0.1344
H23 H 0.2717 0.5859 0.0557
loop_
_geom_bond_atom_site_label_1
_geom_bond_atom_site_label_2
_geom_bond_site_symmetry_1
_geom_bond_site_symmetry_2
S1 O1 1_555 1_555
O2 S1 1_555 1_555
O3 C16 1_555 1_555
N1 S1 1_555 1_555
C1 S1 1_555 1_555
C2 C1 1_555 1_555
H1 C2 1_555 1_555
C3 C2 1_555 1_555
H2 C3 1_555 1_555
C4 C3 1_555 1_555
C5 C4 1_555 1_555
H3 C5 1_555 1_555
C6 C1 1_555 1_555
H4 C6 1_555 1_555
C7 C4 1_555 1_555
H5 C7 1_555 1_555
H6 C7 1_555 1_555
H7 C7 1_555 1_555
C8 N1 1_555 1_555
H8 C8 1_555 1_555
H9 C8 1_555 1_555
C9 C8 1_555 1_555
C10 C9 1_555 1_555
H10 C10 1_555 1_555
C11 C10 1_555 1_555
H11 C11 1_555 1_555
C12 C11 1_555 1_555
H12 C12 1_555 1_555
C13 C12 1_555 1_555
H13 C13 1_555 1_555
C14 C9 1_555 1_555
C15 C14 1_555 1_555
H14 C15 1_555 1_555
H15 C15 1_555 1_555
C16 C15 1_555 1_555
C17 C16 1_555 1_555
C18 C17 1_555 1_555
H16 C18 1_555 1_555
C19 C18 1_555 1_555
C20 C19 1_555 1_555
H17 C20 1_555 1_555
C21 C20 1_555 1_555
C22 N1 1_555 1_555
C23 C19 1_555 1_555
H18 C23 1_555 1_555
H19 C23 1_555 1_555
H20 C23 1_555 1_555
C24 C21 1_555 1_555
H21 C24 1_555 1_555
H22 C24 1_555 1_555
H23 C24 1_555 1_555
C5 C6 1_555 1_555
C13 C14 1_555 1_555
C17 C22 1_555 1_555
C21 C22 1_555 1_555

#END
