
#######################################################################
#
#                 Cambridge Crystallographic Data Centre
#                                CCDC 
#
#######################################################################
#
# If this CIF has been generated from an entry in the Cambridge 
# Structural Database, then it will include bibliographic, chemical, 
# crystal, experimental, refinement or atomic coordinate data resulting 
# from the CCDC's data processing and validation procedures.
#
#######################################################################

data_ZZZIIO03
_chemical_compound_source        
'Isolated from the stems of Acer chiangdaoense Suntisuk.'
_chemical_name_common            
(1R,3R,4S,6S)-2-methoxycyclohexane-1,3,4,5,6-pentol
_chemical_formula_moiety         'C7 H14 O6'
_chemical_name_systematic        6-methoxycyclohexane-1,2,3,4,5-pentol
_symmetry_cell_setting           monoclinic
_symmetry_space_group_name_H-M   'P 21'
_symmetry_Int_Tables_number      4
_space_group_name_Hall           'P 2yb'
loop_
_symmetry_equiv_pos_site_id
_symmetry_equiv_pos_as_xyz
1 x,y,z
2 -x,1/2+y,-z
_cell_length_a                   6.674(2)
_cell_length_b                   7.187(2)
_cell_length_c                   8.720(3)
_cell_angle_alpha                90
_cell_angle_beta                 90.226(10)
_cell_angle_gamma                90
_cell_volume                     418.261
_exptl_crystal_colour            colorless
_exptl_crystal_description       needle
_chemical_melting_point          '464-464.2 K'
_cell_formula_units_Z            2
_exptl_crystal_recrystallization_method water
loop_
_atom_site_label
_atom_site_type_symbol
_atom_site_fract_x
_atom_site_fract_y
_atom_site_fract_z
O1 O 0.5001(3) 0.4941(3) 0.1794(3)
O2 O 0.9219(3) 0.5627(3) 0.1471(3)
H1 H 0.900(5) 0.689(3) 0.150(5)
O3 O 0.9231(3) 0.2791(3) 0.4967(3)
H2 H 0.903(5) 0.375(4) 0.567(4)
O4 O 1.1854(3) 0.0709(3) 0.3164(3)
H3 H 1.315(4) 0.081(6) 0.277(5)
O5 O 0.8835(4) -0.0655(2) 0.1103(3)
H4 H 0.957(6) -0.016(5) 0.030(4)
O6 O 0.5043(3) 0.1128(3) 0.1253(3)
H5 H 0.481(6) 0.057(5) 0.031(3)
C1 C 0.6476(4) 0.3784(4) 0.2512(4)
H6 H 0.5913 0.3308 0.3498
C2 C 0.8425(4) 0.4841(4) 0.2872(4)
H7 H 0.8134 0.5868 0.3612
C3 C 0.9966(5) 0.3535(4) 0.3571(4)
H8 H 1.1234 0.4235 0.3776
C4 C 1.0398(4) 0.1921(3) 0.2492(4)
H9 H 1.0946 0.2428 0.1511
C5 C 0.8484(4) 0.0854(4) 0.2144(4)
H10 H 0.7969 0.0325 0.3127
C6 C 0.6861(4) 0.2135(3) 0.1467(4)
H11 H 0.7326 0.2606 0.0450
C7 C 0.4411(5) 0.6489(4) 0.2709(5)
H12 H 0.4258 0.6089 0.3777
H13 H 0.3133 0.6979 0.2329
H14 H 0.5437 0.7462 0.2651
loop_
_geom_bond_atom_site_label_1
_geom_bond_atom_site_label_2
_geom_bond_site_symmetry_1
_geom_bond_site_symmetry_2
O1 C1 1_555 1_555
O2 H1 1_555 1_555
O3 H2 1_555 1_555
O4 H3 1_555 1_555
O5 H4 1_555 1_555
O6 H5 1_555 1_555
C1 H6 1_555 1_555
C2 O2 1_555 1_555
H7 C2 1_555 1_555
C3 O3 1_555 1_555
H8 C3 1_555 1_555
C4 O4 1_555 1_555
H9 C4 1_555 1_555
C5 O5 1_555 1_555
H10 C5 1_555 1_555
C6 O6 1_555 1_555
H11 C6 1_555 1_555
C7 O1 1_555 1_555
H12 C7 1_555 1_555
H13 C7 1_555 1_555
H14 C7 1_555 1_555
C1 C2 1_555 1_555
C1 C6 1_555 1_555
C2 C3 1_555 1_555
C3 C4 1_555 1_555
C4 C5 1_555 1_555
C5 C6 1_555 1_555

#END
