
#######################################################################
#
#                 Cambridge Crystallographic Data Centre
#                                CCDC 
#
#######################################################################
#
# If this CIF has been generated from an entry in the Cambridge 
# Structural Database, then it will include bibliographic, chemical, 
# crystal, experimental, refinement or atomic coordinate data resulting 
# from the CCDC's data processing and validation procedures.
#
#######################################################################

data_ZZZQPA01
_chemical_name_common            '17beta-Estradiol 3-benzoate'
_chemical_formula_moiety         'C25 H28 O3'
_chemical_name_systematic        
'17\b-Hydroxyestra-1,3,5(10)-triene-3-yl 3-benzoate'
_chemical_properties_biological  'pharmacological activity'
_symmetry_cell_setting           orthorhombic
_symmetry_space_group_name_H-M   'P 21 21 21'
_symmetry_Int_Tables_number      19
_space_group_name_Hall           'P 2ac 2ab'
loop_
_symmetry_equiv_pos_site_id
_symmetry_equiv_pos_as_xyz
1 x,y,z
2 1/2-x,-y,1/2+z
3 1/2+x,1/2-y,-z
4 -x,1/2+y,1/2-z
_cell_length_a                   6.410(3)
_cell_length_b                   13.340(4)
_cell_length_c                   23.851(5)
_cell_angle_alpha                90
_cell_angle_beta                 90
_cell_angle_gamma                90
_cell_volume                     2039.48
_exptl_crystal_colour            colorless
_chemical_melting_point          191-196deg.C
_cell_formula_units_Z            4
loop_
_atom_site_label
_atom_site_type_symbol
_atom_site_fract_x
_atom_site_fract_y
_atom_site_fract_z
C1 C 0.2346(5) -0.3346(2) -0.5991(1)
C2 C 0.1615(5) -0.4069(2) -0.5629(1)
C3 C -0.0255(4) -0.3909(2) -0.5360(1)
C4 C -0.1390(4) -0.3059(2) -0.5443(1)
C5 C -0.0662(4) -0.2324(2) -0.5815(1)
C6 C -0.1976(5) -0.1401(2) -0.5907(1)
C7 C -0.0867(4) -0.0568(2) -0.6217(1)
C8 C 0.0383(4) -0.0976(2) -0.6708(1)
C9 C 0.2103(3) -0.1671(2) -0.6484(1)
C10 C 0.1239(3) -0.2467(2) -0.6091(1)
C11 C 0.3443(4) -0.2104(2) -0.6963(1)
C12 C 0.4338(4) -0.1283(2) -0.7343(1)
C13 C 0.2635(4) -0.0588(2) -0.7563(1)
C14 C 0.1408(4) -0.0168(2) -0.7063(1)
C15 C 0.0107(5) 0.0683(2) -0.7319(1)
C16 C 0.1522(6) 0.1091(3) -0.7797(2)
C17 C 0.3419(5) 0.0396(2) -0.7819(1)
C18 C 0.1257(6) -0.1143(3) -0.7989(1)
C19 C -0.3752(5) -0.6860(2) -0.4658(1)
C20 C -0.3742(7) -0.7629(3) -0.4263(1)
C21 C -0.2178(8) -0.7701(3) -0.3879(1)
C22 C -0.0633(7) -0.6994(3) -0.3865(1)
C23 C -0.0612(5) -0.6224(2) -0.4253(1)
C24 C -0.2163(4) -0.6159(2) -0.4652(1)
C25 C -0.2116(4) -0.5371(2) -0.5093(1)
O1 O 0.4391(4) 0.0315(2) -0.8353(1)
O2 O -0.3017(4) -0.5410(2) -0.5531(1)
O3 O -0.0857(4) -0.4615(1) -0.4948(1)
H1 H 0.3619(45) -0.3465(18) -0.6196(10)
H2 H 0.2343(58) -0.4675(24) -0.5553(13)
H3 H -0.2940(53) -0.2969(21) -0.5258(11)
H4 H -0.2440(61) -0.1198(27) -0.5551(15)
H5 H -0.3432(95) -0.1643(39) -0.6087(22)
H6 H 0.0051(52) -0.0203(21) -0.5954(12)
H7 H -0.1855(55) -0.0036(25) -0.6344(13)
H8 H -0.0667(44) -0.1415(18) -0.6947(10)
H9 H 0.2959(41) -0.1260(17) -0.6261(9)
H10 H 0.2583(54) -0.2595(23) -0.7186(12)
H11 H 0.4686(53) -0.2472(21) -0.6795(12)
H12 H 0.5328(46) -0.0866(20) -0.7114(11)
H13 H 0.5086(58) -0.1545(23) -0.7650(13)
H14 H 0.2553(54) 0.0137(21) -0.6795(12)
H15 H -0.1164(54) 0.0376(25) -0.7515(13)
H16 H -0.0107(56) 0.1195(23) -0.7018(12)
H17 H 0.0657(66) 0.1144(27) -0.8188(16)
H18 H 0.2058(58) 0.1801(26) -0.7711(14)
H19 H 0.4435(47) 0.0638(21) -0.7541(12)
H20 H 0.0817(59) -0.1794(25) -0.7846(14)
H21 H 0.2013(60) -0.1307(24) -0.8332(15)
H22 H 0.0149(67) -0.0671(27) -0.8090(15)
H23 H -0.4801(64) -0.6718(25) -0.4926(14)
H24 H -0.4953(80) -0.8106(31) -0.4295(16)
H25 H -0.2210(64) -0.8310(26) -0.3598(14)
H26 H 0.0629(82) -0.7084(33) -0.3578(17)
H27 H 0.0608(54) -0.5763(21) -0.4269(12)
H28 H 0.339(10) 0.0317(44) -0.8608(23)
loop_
_geom_bond_atom_site_label_1
_geom_bond_atom_site_label_2
_geom_bond_site_symmetry_1
_geom_bond_site_symmetry_2
C1 C2 1_555 1_555
C2 C3 1_555 1_555
C3 C4 1_555 1_555
C4 C5 1_555 1_555
C5 C6 1_555 1_555
C6 C7 1_555 1_555
C7 C8 1_555 1_555
C8 C9 1_555 1_555
C9 C10 1_555 1_555
C10 C1 1_555 1_555
C11 C9 1_555 1_555
C12 C11 1_555 1_555
C13 C12 1_555 1_555
C14 C8 1_555 1_555
C15 C14 1_555 1_555
C16 C15 1_555 1_555
C17 C13 1_555 1_555
C18 C13 1_555 1_555
C19 C20 1_555 1_555
C20 C21 1_555 1_555
C21 C22 1_555 1_555
C22 C23 1_555 1_555
C23 C24 1_555 1_555
C24 C19 1_555 1_555
C25 C24 1_555 1_555
O1 C17 1_555 1_555
O2 C25 1_555 1_555
O3 C3 1_555 1_555
H1 C1 1_555 1_555
H2 C2 1_555 1_555
H3 C4 1_555 1_555
H4 C6 1_555 1_555
H5 C6 1_555 1_555
H6 C7 1_555 1_555
H7 C7 1_555 1_555
H8 C8 1_555 1_555
H9 C9 1_555 1_555
H10 C11 1_555 1_555
H11 C11 1_555 1_555
H12 C12 1_555 1_555
H13 C12 1_555 1_555
H14 C14 1_555 1_555
H15 C15 1_555 1_555
H16 C15 1_555 1_555
H17 C16 1_555 1_555
H18 C16 1_555 1_555
H19 C17 1_555 1_555
H20 C18 1_555 1_555
H21 C18 1_555 1_555
H22 C18 1_555 1_555
H23 C19 1_555 1_555
H24 C20 1_555 1_555
H25 C21 1_555 1_555
H26 C22 1_555 1_555
H27 C23 1_555 1_555
H28 O1 1_555 1_555
C5 C10 1_555 1_555
C13 C14 1_555 1_555
C16 C17 1_555 1_555
C25 O3 1_555 1_555

#END
