
#######################################################################
#
#                 Cambridge Crystallographic Data Centre
#                                CCDC 
#
#######################################################################
#
# If this CIF has been generated from an entry in the Cambridge 
# Structural Database, then it will include bibliographic, chemical, 
# crystal, experimental, refinement or atomic coordinate data resulting 
# from the CCDC's data processing and validation procedures.
#
#######################################################################

data_ZZZQAI12
_chemical_compound_source        'stem of Caesalpinia minax'
_chemical_formula_moiety         'C30 H50 O1'
_chemical_name_systematic        Friedelin
_chemical_properties_biological  'inactive against the para3 virus'
_symmetry_cell_setting           orthorhombic
_symmetry_space_group_name_H-M   'P 21 21 21'
_symmetry_Int_Tables_number      19
_space_group_name_Hall           'P 2ac 2ab'
loop_
_symmetry_equiv_pos_site_id
_symmetry_equiv_pos_as_xyz
1 x,y,z
2 1/2-x,-y,1/2+z
3 -x,1/2+y,1/2-z
4 1/2+x,1/2-y,-z
_cell_length_a                   6.3794(6)
_cell_length_b                   13.9361(12)
_cell_length_c                   28.425(3)
_cell_angle_alpha                90
_cell_angle_beta                 90
_cell_angle_gamma                90
_cell_volume                     2527.09
_exptl_crystal_colour            colorless
_exptl_crystal_description       needle
_cell_formula_units_Z            4
loop_
_atom_site_label
_atom_site_type_symbol
_atom_site_fract_x
_atom_site_fract_y
_atom_site_fract_z
O1 O 0.5876(4) 0.71331(18) 0.51281(9)
C1 C 0.7206(6) 0.7768(2) 0.39959(12)
H1 H 0.7173 0.8302 0.3777
H2 H 0.8611 0.7727 0.4125
C2 C 0.5649(6) 0.7960(2) 0.43963(12)
H3 H 0.6114 0.8508 0.4579
H4 H 0.4282 0.8109 0.4266
C3 C 0.5486(6) 0.7102(3) 0.47069(14)
C4 C 0.4891(6) 0.6190(2) 0.44527(11)
H5 H 0.3577 0.6315 0.4285
C5 C 0.6607(6) 0.5963(2) 0.40734(12)
C6 C 0.5918(6) 0.5077(2) 0.37888(12)
H6 H 0.6056 0.4512 0.3986
H7 H 0.4448 0.5145 0.3708
C7 C 0.7172(6) 0.4919(2) 0.33366(12)
H8 H 0.6624 0.4366 0.3170
H9 H 0.8627 0.4794 0.3414
C8 C 0.7024(6) 0.5811(2) 0.30218(12)
H10 H 0.5523 0.5955 0.3004
C9 C 0.8011(5) 0.6696(2) 0.32708(12)
C10 C 0.6702(5) 0.6844(2) 0.37334(11)
H11 H 0.5256 0.6928 0.3625
C11 C 0.7649(6) 0.7578(2) 0.29496(11)
H12 H 0.6164 0.7729 0.2946
H13 H 0.8381 0.8125 0.3082
C12 C 0.8400(5) 0.7424(2) 0.24394(11)
H14 H 0.9903 0.7320 0.2440
H15 H 0.8122 0.8000 0.2259
C13 C 0.7323(6) 0.6564(2) 0.21969(12)
C14 C 0.7713(5) 0.5638(2) 0.24971(13)
C15 C 0.6395(6) 0.4805(2) 0.22797(13)
H16 H 0.7109 0.4204 0.2342
H17 H 0.5051 0.4781 0.2439
C16 C 0.6001(7) 0.4882(3) 0.17494(13)
H18 H 0.5971 0.4234 0.1625
H19 H 0.4607 0.5146 0.1708
C17 C 0.7494(6) 0.5467(2) 0.14405(13)
C18 C 0.8244(6) 0.6417(2) 0.16941(12)
H20 H 0.9765 0.6358 0.1733
C19 C 0.7883(6) 0.7307(2) 0.13839(12)
H21 H 0.6393 0.7445 0.1383
H22 H 0.8582 0.7847 0.1531
C20 C 0.8627(6) 0.7247(3) 0.08707(13)
C21 C 0.7752(8) 0.6314(3) 0.06497(14)
H23 H 0.6931 0.6479 0.0374
H24 H 0.8918 0.5920 0.0546
C22 C 0.6401(7) 0.5733(3) 0.09812(14)
H25 H 0.5969 0.5149 0.0823
H26 H 0.5147 0.6097 0.1054
C23 C 0.8697(6) 0.5748(3) 0.43248(13)
H27 H 0.9753 0.5600 0.4095
H28 H 0.8518 0.5210 0.4532
H29 H 0.9121 0.6299 0.4503
C24 C 0.4470(7) 0.5372(2) 0.48028(12)
H30 H 0.3394 0.5564 0.5019
H31 H 0.5732 0.5231 0.4973
H32 H 0.4023 0.4811 0.4635
C25 C 1.0371(5) 0.6650(3) 0.33762(13)
H33 H 1.0800 0.7230 0.3531
H34 H 1.1133 0.6581 0.3087
H35 H 1.0655 0.6110 0.3576
C26 C 0.4957(6) 0.6820(3) 0.21725(12)
H36 H 0.4774 0.7391 0.1988
H37 H 0.4433 0.6929 0.2485
H38 H 0.4201 0.6300 0.2030
C27 C 1.0048(6) 0.5319(3) 0.24855(14)
H39 H 1.0218 0.4750 0.2672
H40 H 1.0912 0.5822 0.2610
H41 H 1.0454 0.5187 0.2167
C28 C 0.9363(7) 0.4811(3) 0.13114(14)
H42 H 0.8852 0.4243 0.1158
H43 H 1.0104 0.4635 0.1592
H44 H 1.0292 0.5148 0.1103
C29 C 0.7840(8) 0.8116(3) 0.06045(14)
H45 H 0.6336 0.8130 0.0614
H46 H 0.8300 0.8081 0.0283
H47 H 0.8386 0.8688 0.0747
C30 C 1.1053(7) 0.7241(4) 0.08528(15)
H48 H 1.1582 0.7817 0.0996
H49 H 1.1508 0.7211 0.0531
H50 H 1.1574 0.6693 0.1020
loop_
_geom_bond_atom_site_label_1
_geom_bond_atom_site_label_2
_geom_bond_site_symmetry_1
_geom_bond_site_symmetry_2
O1 C3 1_555 1_555
C1 H1 1_555 1_555
H2 C1 1_555 1_555
C2 C1 1_555 1_555
H3 C2 1_555 1_555
H4 C2 1_555 1_555
C3 C2 1_555 1_555
C4 C3 1_555 1_555
H5 C4 1_555 1_555
C5 C4 1_555 1_555
C6 C5 1_555 1_555
H6 C6 1_555 1_555
H7 C6 1_555 1_555
C7 C6 1_555 1_555
H8 C7 1_555 1_555
H9 C7 1_555 1_555
C8 C7 1_555 1_555
H10 C8 1_555 1_555
C9 C8 1_555 1_555
C10 C1 1_555 1_555
H11 C10 1_555 1_555
C11 C9 1_555 1_555
H12 C11 1_555 1_555
H13 C11 1_555 1_555
C12 C11 1_555 1_555
H14 C12 1_555 1_555
H15 C12 1_555 1_555
C13 C12 1_555 1_555
C14 C8 1_555 1_555
C15 C14 1_555 1_555
H16 C15 1_555 1_555
H17 C15 1_555 1_555
C16 C15 1_555 1_555
H18 C16 1_555 1_555
H19 C16 1_555 1_555
C17 C16 1_555 1_555
C18 C13 1_555 1_555
H20 C18 1_555 1_555
C19 C18 1_555 1_555
H21 C19 1_555 1_555
H22 C19 1_555 1_555
C20 C19 1_555 1_555
C21 C20 1_555 1_555
H23 C21 1_555 1_555
H24 C21 1_555 1_555
C22 C17 1_555 1_555
H25 C22 1_555 1_555
H26 C22 1_555 1_555
C23 C5 1_555 1_555
H27 C23 1_555 1_555
H28 C23 1_555 1_555
H29 C23 1_555 1_555
C24 C4 1_555 1_555
H30 C24 1_555 1_555
H31 C24 1_555 1_555
H32 C24 1_555 1_555
C25 C9 1_555 1_555
H33 C25 1_555 1_555
H34 C25 1_555 1_555
H35 C25 1_555 1_555
C26 C13 1_555 1_555
H36 C26 1_555 1_555
H37 C26 1_555 1_555
H38 C26 1_555 1_555
C27 C14 1_555 1_555
H39 C27 1_555 1_555
H40 C27 1_555 1_555
H41 C27 1_555 1_555
C28 C17 1_555 1_555
H42 C28 1_555 1_555
H43 C28 1_555 1_555
H44 C28 1_555 1_555
C29 C20 1_555 1_555
H45 C29 1_555 1_555
H46 C29 1_555 1_555
H47 C29 1_555 1_555
C30 C20 1_555 1_555
H48 C30 1_555 1_555
H49 C30 1_555 1_555
H50 C30 1_555 1_555
C5 C10 1_555 1_555
C9 C10 1_555 1_555
C13 C14 1_555 1_555
C17 C18 1_555 1_555
C21 C22 1_555 1_555

#END
