
#######################################################################
#
#                 Cambridge Crystallographic Data Centre
#                                CCDC 
#
#######################################################################
#
# If this CIF has been generated from an entry in the Cambridge 
# Structural Database, then it will include bibliographic, chemical, 
# crystal, experimental, refinement or atomic coordinate data resulting 
# from the CCDC's data processing and validation procedures.
#
#######################################################################

data_ZZZSLE01
_chemical_name_common            bis(4-Iodophenyl)methane
_chemical_formula_moiety         'C13 H10 I2'
_chemical_name_systematic        1,1'-Methylene-bis(4-iodobenzene)
_symmetry_cell_setting           monoclinic
_symmetry_space_group_name_H-M   'P 21/c'
_symmetry_Int_Tables_number      14
_space_group_name_Hall           '-P 2ybc'
loop_
_symmetry_equiv_pos_site_id
_symmetry_equiv_pos_as_xyz
1 x,y,z
2 -x,1/2+y,1/2-z
3 -x,-y,-z
4 x,1/2-y,1/2+z
_cell_length_a                   8.6739(17)
_cell_length_b                   6.1553(12)
_cell_length_c                   23.393(5)
_cell_angle_alpha                90
_cell_angle_beta                 90.03(3)
_cell_angle_gamma                90
_cell_volume                     1248.96
_exptl_crystal_colour            colorless
_exptl_crystal_description       block
_chemical_melting_point          360-363K
_cell_formula_units_Z            4
_exptl_crystal_recrystallization_method ethanol
loop_
_atom_site_label
_atom_site_type_symbol
_atom_site_fract_x
_atom_site_fract_y
_atom_site_fract_z
I1 I 0.30508(3) 0.12372(4) 0.545097(12)
I2 I 0.49341(3) 0.83685(5) 0.138095(13)
C1 C 0.2066(4) 0.3237(5) 0.48156(17)
C2 C 0.2686(5) 0.5303(6) 0.47180(17)
H1 H 0.3506 0.5841 0.4947
C3 C 0.2075(5) 0.6546(6) 0.42779(18)
H2 H 0.2497 0.7942 0.4204
C4 C 0.0863(5) 0.5803(6) 0.39428(17)
C5 C 0.0252(5) 0.3752(6) 0.40570(19)
H3 H -0.0588 0.3225 0.3836
C6 C 0.0867(5) 0.2466(6) 0.44942(17)
H4 H 0.0455 0.1064 0.4567
C7 C 0.0237(5) 0.7170(6) 0.34574(18)
H5 H -0.0712 0.6483 0.3307
H6 H -0.0043 0.8623 0.3606
C8 C 0.1374(4) 0.7433(6) 0.29762(16)
C9 C 0.1659(5) 0.5710(6) 0.26003(18)
H7 H 0.1153 0.4359 0.2657
C10 C 0.2676(5) 0.5955(6) 0.21446(18)
H8 H 0.2852 0.4789 0.1887
C11 C 0.3425(4) 0.7914(6) 0.20726(16)
C12 C 0.3188(5) 0.9614(6) 0.24530(19)
H9 H 0.3737 1.0939 0.2409
C13 C 0.2162(5) 0.9366(6) 0.28909(18)
H10 H 0.1984 1.0548 0.3143
loop_
_geom_bond_atom_site_label_1
_geom_bond_atom_site_label_2
_geom_bond_site_symmetry_1
_geom_bond_site_symmetry_2
I1 C1 1_555 1_555
I2 C11 1_555 1_555
C1 C2 1_555 1_555
C2 H1 1_555 1_555
C3 C2 1_555 1_555
H2 C3 1_555 1_555
C4 C3 1_555 1_555
C5 C4 1_555 1_555
H3 C5 1_555 1_555
C6 C1 1_555 1_555
H4 C6 1_555 1_555
C7 C4 1_555 1_555
H5 C7 1_555 1_555
H6 C7 1_555 1_555
C8 C7 1_555 1_555
C9 C8 1_555 1_555
H7 C9 1_555 1_555
C10 C9 1_555 1_555
H8 C10 1_555 1_555
C11 C10 1_555 1_555
C12 C11 1_555 1_555
H9 C12 1_555 1_555
C13 C8 1_555 1_555
H10 C13 1_555 1_555
C5 C6 1_555 1_555
C12 C13 1_555 1_555

#END
