
#######################################################################
#
#                 Cambridge Crystallographic Data Centre
#                                CCDC 
#
#######################################################################
#
# If this CIF has been generated from an entry in the Cambridge 
# Structural Database, then it will include bibliographic, chemical, 
# crystal, experimental, refinement or atomic coordinate data resulting 
# from the CCDC's data processing and validation procedures.
#
#######################################################################

data_ZZZTDW03
_chemical_formula_moiety         'C12 H10 N2'
_chemical_name_systematic        1-methyl-9H-\b-carboline
_symmetry_cell_setting           orthorhombic
_symmetry_space_group_name_H-M   'P 21 21 21'
_symmetry_Int_Tables_number      19
_space_group_name_Hall           'P 2ac 2ab'
loop_
_symmetry_equiv_pos_site_id
_symmetry_equiv_pos_as_xyz
1 x,y,z
2 1/2+x,1/2-y,-z
3 -x,1/2+y,1/2-z
4 1/2-x,-y,1/2+z
_cell_length_a                   9.5865(2)
_cell_length_b                   13.2423(4)
_cell_length_c                   15.1680(4)
_cell_angle_alpha                90
_cell_angle_beta                 90
_cell_angle_gamma                90
_cell_volume                     1925.54
_exptl_crystal_colour            colorless
_exptl_crystal_description       block
_cell_formula_units_Z            8
loop_
_atom_site_label
_atom_site_type_symbol
_atom_site_fract_x
_atom_site_fract_y
_atom_site_fract_z
N1 N 0.0313(2) 0.32420(18) 0.77539(15)
N2 N -0.1563(2) 0.41707(16) 0.58048(13)
C1 C -0.0658(3) 0.2559(2) 0.80000(18)
C2 C -0.1880(3) 0.2378(2) 0.75513(17)
C3 C -0.2131(3) 0.29529(18) 0.67966(16)
C4 C -0.3250(3) 0.30320(19) 0.61670(16)
C5 C -0.4550(3) 0.2563(2) 0.60837(19)
C6 C -0.5411(3) 0.2860(2) 0.5403(2)
C7 C -0.4995(3) 0.3602(2) 0.4803(2)
C8 C -0.3720(3) 0.4085(2) 0.48757(17)
C9 C -0.2860(3) 0.37965(19) 0.55727(16)
C10 C -0.1123(2) 0.36639(18) 0.65482(16)
C11 C 0.0101(3) 0.3786(2) 0.70292(17)
C12 C 0.1205(3) 0.4529(2) 0.6772(2)
H1 H -0.0443 0.2152 0.8544
H2 H -0.1078 0.4684 0.5520
H3 H -0.4793 0.2014 0.6510
H4 H -0.6393 0.2549 0.5340
H5 H -0.5608 0.3791 0.4302
H6 H -0.3421 0.4627 0.4472
H7 H 0.1849 0.4196 0.6414
H8 H 0.1796 0.4759 0.7259
H9 H 0.0818 0.5126 0.6383
H10 H -0.2589 0.1823 0.7769
N3 N 0.5282(2) 0.41851(16) 0.98632(13)
N4 N 0.3053(2) 0.27510(15) 0.83314(13)
C13 C 0.6268(3) 0.3460(2) 0.99583(16)
C14 C 0.6219(3) 0.2535(2) 0.95620(15)
C15 C 0.5075(2) 0.23264(18) 0.90229(14)
C16 C 0.4656(3) 0.14908(19) 0.84760(16)
C17 C 0.5229(3) 0.05436(19) 0.82976(17)
C18 C 0.4564(3) -0.0075(2) 0.77017(18)
C19 C 0.3326(3) 0.0230(2) 0.72936(18)
C20 C 0.2726(3) 0.1157(2) 0.74627(17)
C21 C 0.3410(3) 0.17841(19) 0.80632(15)
C22 C 0.4059(2) 0.30809(18) 0.89181(15)
C23 C 0.4176(3) 0.40102(19) 0.93473(15)
C24 C 0.3112(3) 0.4822(2) 0.92390(18)
H11 H 0.7088 0.3647 1.0323
H12 H 0.2215 0.3057 0.8224
H13 H 0.6092 0.0357 0.8595
H14 H 0.4958 -0.0752 0.7581
H15 H 0.2890 -0.0277 0.6880
H16 H 0.1862 0.1389 0.7179
H17 H 0.3347 0.5390 0.9593
H18 H 0.2163 0.4584 0.9381
H19 H 0.3086 0.5031 0.8633
H20 H 0.6948 0.2040 0.9628
loop_
_geom_bond_atom_site_label_1
_geom_bond_atom_site_label_2
_geom_bond_site_symmetry_1
_geom_bond_site_symmetry_2
N1 C1 1_555 1_555
N2 C9 1_555 1_555
C1 C2 1_555 1_555
C2 C3 1_555 1_555
C3 C4 1_555 1_555
C4 C5 1_555 1_555
C5 C6 1_555 1_555
C6 C7 1_555 1_555
C7 C8 1_555 1_555
C8 C9 1_555 1_555
C9 C4 1_555 1_555
C10 N2 1_555 1_555
C11 N1 1_555 1_555
C12 C11 1_555 1_555
H1 C1 1_555 1_555
H2 N2 1_555 1_555
H3 C5 1_555 1_555
H4 C6 1_555 1_555
H5 C7 1_555 1_555
H6 C8 1_555 1_555
H7 C12 1_555 1_555
H8 C12 1_555 1_555
H9 C12 1_555 1_555
H10 C2 1_555 1_555
N3 C13 1_555 1_555
N4 C21 1_555 1_555
C13 C14 1_555 1_555
C14 C15 1_555 1_555
C15 C16 1_555 1_555
C16 C17 1_555 1_555
C17 C18 1_555 1_555
C18 C19 1_555 1_555
C19 C20 1_555 1_555
C20 C21 1_555 1_555
C21 C16 1_555 1_555
C22 N4 1_555 1_555
C23 N3 1_555 1_555
C24 C23 1_555 1_555
H11 C13 1_555 1_555
H12 N4 1_555 1_555
H13 C17 1_555 1_555
H14 C18 1_555 1_555
H15 C19 1_555 1_555
H16 C20 1_555 1_555
H17 C24 1_555 1_555
H18 C24 1_555 1_555
H19 C24 1_555 1_555
H20 C14 1_555 1_555
C3 C10 1_555 1_555
C10 C11 1_555 1_555
C15 C22 1_555 1_555
C22 C23 1_555 1_555

#END
