
#######################################################################
#
#                 Cambridge Crystallographic Data Centre
#                                CCDC 
#
#######################################################################
#
# If this CIF has been generated from an entry in the Cambridge 
# Structural Database, then it will include bibliographic, chemical, 
# crystal, experimental, refinement or atomic coordinate data resulting 
# from the CCDC's data processing and validation procedures.
#
#######################################################################

data_ZZZWGK04
_chemical_formula_moiety         'C6 H10 O1'
_chemical_name_systematic        Cyclohexanone
_symmetry_cell_setting           monoclinic
_symmetry_space_group_name_H-M   'P 21/n'
_symmetry_Int_Tables_number      14
_space_group_name_Hall           '-P 2yn'
loop_
_symmetry_equiv_pos_site_id
_symmetry_equiv_pos_as_xyz
1 x,y,z
2 1/2-x,1/2+y,1/2-z
3 -x,-y,-z
4 1/2+x,1/2-y,1/2+z
_cell_length_a                   5.513(2)
_cell_length_b                   9.855(3)
_cell_length_c                   10.797(5)
_cell_angle_alpha                90
_cell_angle_beta                 98.75(2)
_cell_angle_gamma                90
_cell_volume                     579.78
_exptl_crystal_colour            colorless
_exptl_crystal_description       cylinder
_cell_formula_units_Z            4
loop_
_atom_site_label
_atom_site_type_symbol
_atom_site_fract_x
_atom_site_fract_y
_atom_site_fract_z
O1 O 0.2491(8) 0.2012(5) 0.2891(5)
C1 C 0.3624(12) 0.2977(7) 0.2603(6)
C2 C 0.4060(12) 0.3170(7) 0.1286(6)
H1 H 0.2960 0.3896 0.0894
H2 H 0.3621 0.2322 0.0813
C3 C 0.6692(11) 0.3540(7) 0.1174(6)
H3 H 0.7756 0.2737 0.1379
H4 H 0.6790 0.3804 0.0298
C4 C 0.7608(13) 0.4684(6) 0.2032(6)
H5 H 0.6610 0.5505 0.1794
H6 H 0.9330 0.4892 0.1941
C5 C 0.7471(11) 0.4327(6) 0.3383(5)
H7 H 0.8088 0.5094 0.3935
H8 H 0.8505 0.3523 0.3635
C6 C 0.4815(11) 0.4026(6) 0.3515(6)
H9 H 0.4752 0.3705 0.4379
H10 H 0.3857 0.4877 0.3391
loop_
_geom_bond_atom_site_label_1
_geom_bond_atom_site_label_2
_geom_bond_site_symmetry_1
_geom_bond_site_symmetry_2
O1 C1 1_555 1_555
C1 C2 1_555 1_555
C2 H1 1_555 1_555
H2 C2 1_555 1_555
C3 C2 1_555 1_555
H3 C3 1_555 1_555
H4 C3 1_555 1_555
C4 C3 1_555 1_555
H5 C4 1_555 1_555
H6 C4 1_555 1_555
C5 C4 1_555 1_555
H7 C5 1_555 1_555
H8 C5 1_555 1_555
C6 C1 1_555 1_555
H9 C6 1_555 1_555
H10 C6 1_555 1_555
C5 C6 1_555 1_555

#END
