
#######################################################################
#
#                 Cambridge Crystallographic Data Centre
#                                CCDC 
#
#######################################################################
#
# If this CIF has been generated from an entry in the Cambridge 
# Structural Database, then it will include bibliographic, chemical, 
# crystal, experimental, refinement or atomic coordinate data resulting 
# from the CCDC's data processing and validation procedures.
#
#######################################################################

data_DENNAO
_chemical_formula_moiety         'C96 H108 N12,11(C1 H2 Cl2)'
_chemical_name_systematic        
'8,10,24,26,40,42,56,58,69,77,82,84-dodecaethyl-5,13,21,29,37,45,53,61,66,71,75,80-dodecaazatridecacyclo[39.23.3.3^9,33^.3^17,57^.3^25,49^.1^3,63^.1^7,11^.1^15,19^.1^23,27^.1^31,35^.1^39,43^.1^47,51^.1^55,59^]tetraoctaconta-1,3(68),4,7(84),8,10,13,15(83),16,18,20,23(82),24,26,29,31(78),32,34,36,39(77),40,42,45,47(73),48,50,52,55(69),56,58,61,63,65,71,74,79-hexatriacontaene dichloromethane solvate'
_symmetry_cell_setting           monoclinic
_symmetry_space_group_name_H-M   'P 21/n'
_symmetry_Int_Tables_number      14
_space_group_name_Hall           '-P 2yn'
loop_
_symmetry_equiv_pos_site_id
_symmetry_equiv_pos_as_xyz
1 x,y,z
2 1/2-x,1/2+y,1/2-z
3 -x,-y,-z
4 1/2+x,1/2-y,1/2+z
_cell_length_a                   16.0211(8)
_cell_length_b                   41.134(2)
_cell_length_c                   19.4840(10)
_cell_angle_alpha                90
_cell_angle_beta                 110.782(4)
_cell_angle_gamma                90
_cell_volume                     12004.8
_exptl_crystal_colour            colorless
_exptl_crystal_description       plate
_cell_formula_units_Z            4
loop_
_atom_site_label
_atom_site_type_symbol
_atom_site_fract_x
_atom_site_fract_y
_atom_site_fract_z
C1 C 0.2430(8) 0.2561(3) 0.4386(6)
C2 C 0.3349(7) 0.2563(3) 0.4558(6)
H1 H 0.371820 0.242448 0.493364
C3 C 0.3728(6) 0.2766(3) 0.4179(7)
C4 C 0.3188(8) 0.2969(3) 0.3629(6)
H2 H 0.344689 0.310797 0.337076
C5 C 0.2268(7) 0.2967(3) 0.3458(6)
C6 C 0.1889(6) 0.2764(3) 0.3836(7)
H3 H 0.126085 0.276292 0.371895
C7 C 0.2019(12) 0.2338(5) 0.4797(10)
H4 H 0.235200 0.215792 0.506026
N1 N 0.1264(11) 0.2386(4) 0.4796(9)
C8 C 0.4735(10) 0.2776(5) 0.4378(10)
H5 H 0.496524 0.289774 0.407125
N2 N 0.5261(11) 0.2638(5) 0.4899(9)
C9 C 0.1694(12) 0.3200(5) 0.2875(9)
H6 H 0.106711 0.316733 0.266823
N3 N 0.2038(12) 0.3430(4) 0.2670(9)
C10 C 0.4156(8) 0.2917(3) 0.8361(7)
C11 C 0.3978(7) 0.3196(3) 0.8686(7)
H7 H 0.343154 0.321568 0.877075
C12 C 0.4599(9) 0.3447(3) 0.8887(7)
C13 C 0.5398(8) 0.3418(3) 0.8762(7)
H8 H 0.582287 0.358975 0.889942
C14 C 0.5576(7) 0.3139(3) 0.8437(7)
C15 C 0.4955(9) 0.2888(3) 0.8237(7)
H9 H 0.507673 0.269691 0.801463
C16 C 0.3486(11) 0.2642(4) 0.8157(10)
H10 H 0.365776 0.243142 0.805496
N4 N 0.2723(11) 0.2692(4) 0.8124(9)
C17 C 0.4379(15) 0.3744(4) 0.9252(11)
H11 H 0.388395 0.373062 0.941156
N5 N 0.4784(13) 0.3993(4) 0.9353(10)
C18 C 0.6447(11) 0.3108(5) 0.8292(11)
H12 H 0.693594 0.324441 0.854888
N6 N 0.6526(11) 0.2908(4) 0.7847(9)
C19 C -0.021(2) 0.3801(4) 0.5797(10)
C20 C -0.027(3) 0.3951(5) 0.5142(8)
H13 H -0.049570 0.383429 0.469319
C21 C 0.000(2) 0.4272(5) 0.5143(8)
C22 C 0.034(2) 0.4443(4) 0.5800(9)
H14 H 0.052479 0.466220 0.580121
C23 C 0.0400(19) 0.4293(5) 0.6456(7)
C24 C 0.0127(19) 0.3972(5) 0.6454(7)
H15 H 0.016873 0.386952 0.690215
C25 C -0.048(2) 0.3447(5) 0.5797(13)
H16 H -0.079369 0.334466 0.534180
N7 N -0.0308(17) 0.3291(6) 0.6361(13)
C26 C -0.007(2) 0.4431(6) 0.4421(11)
H17 H -0.011124 0.466117 0.437394
N8 N -0.0079(19) 0.4264(7) 0.3902(12)
C27 C 0.0817(19) 0.4474(6) 0.7171(11)
H18 H 0.070914 0.438796 0.758425
N9 N 0.128(2) 0.4717(6) 0.7278(14)
C28 C 0.5186(9) 0.4782(3) 0.6468(7)
C29 C 0.4524(8) 0.4825(3) 0.5783(8)
H19 H 0.404376 0.497076 0.572810
C30 C 0.4564(8) 0.4656(4) 0.5178(6)
C31 C 0.5266(9) 0.4443(3) 0.5258(6)
H20 H 0.529335 0.432684 0.484521
C32 C 0.5928(8) 0.4399(3) 0.5943(7)
C33 C 0.5888(8) 0.4569(3) 0.6548(6)
H21 H 0.634006 0.453939 0.701559
C34 C 0.5166(15) 0.4935(5) 0.7175(11)
H22 H 0.571612 0.493401 0.757804
N10 N 0.4549(15) 0.5056(6) 0.7288(12)
C35 C 0.3850(14) 0.4735(6) 0.4448(11)
H23 H 0.350277 0.492532 0.441922
N11 N 0.3692(15) 0.4577(6) 0.3908(12)
C36 C 0.6716(12) 0.4170(5) 0.6069(12)
H24 H 0.721219 0.419295 0.651351
N12 N 0.6758(12) 0.3964(4) 0.5651(11)
C37 C 0.4008(7) 0.4521(3) 0.9076(6)
C38 C 0.3088(7) 0.4565(3) 0.8820(7)
C39 C 0.2697(5) 0.4805(3) 0.8303(7)
C40 C 0.3226(8) 0.5001(3) 0.8041(6)
C41 C 0.4146(7) 0.4956(3) 0.8297(7)
C42 C 0.4537(5) 0.4717(3) 0.8814(7)
C43 C 0.4464(14) 0.4264(5) 0.9651(10)
H25 H 0.497237 0.436454 1.004487
H26 H 0.403581 0.418406 0.987484
C44 C 0.1688(9) 0.4845(5) 0.7980(11)
H27 H 0.142695 0.473907 0.831374
H28 H 0.154624 0.507945 0.796581
C45 C 0.4701(14) 0.5172(5) 0.7986(11)
H29 H 0.451182 0.540141 0.796945
H30 H 0.534271 0.515610 0.829085
C46 C 0.2449(13) 0.4340(4) 0.9049(10)
H31 H 0.185927 0.433281 0.864790
H32 H 0.269405 0.411695 0.912925
C47 C 0.2334(17) 0.4462(7) 0.9746(11)
H33 H 0.201013 0.429946 0.992112
H34 H 0.199652 0.466621 0.964325
H35 H 0.292259 0.449955 1.012311
C48 C 0.2787(14) 0.5292(4) 0.7530(10)
H36 H 0.311943 0.533505 0.719698
H37 H 0.216565 0.523455 0.722405
C49 C 0.2784(19) 0.5598(5) 0.7973(15)
H38 H 0.243754 0.576856 0.764313
H39 H 0.339898 0.567323 0.821997
H40 H 0.251473 0.554887 0.834092
C50 C 0.5561(9) 0.4655(5) 0.9092(9)
H41 H 0.568022 0.442487 0.924627
H42 H 0.578270 0.469281 0.868552
C51 C 0.6065(13) 0.4875(6) 0.9736(10)
H43 H 0.670692 0.483359 0.988447
H44 H 0.586925 0.482980 1.014984
H45 H 0.594148 0.510282 0.958839
C52 C 0.1416(7) 0.2461(3) 0.7170(4)
C53 C 0.1482(7) 0.2294(3) 0.6571(6)
C54 C 0.0838(8) 0.2338(3) 0.5878(5)
C55 C 0.0128(7) 0.2549(3) 0.5783(4)
C56 C 0.0062(6) 0.2716(3) 0.6382(6)
C57 C 0.0706(8) 0.2672(3) 0.7075(5)
C58 C 0.2083(13) 0.2405(5) 0.7936(8)
H46 H 0.241403 0.220008 0.795381
H47 H 0.177139 0.238932 0.829226
C59 C 0.0915(14) 0.2162(5) 0.5214(9)
H48 H 0.132115 0.197298 0.537891
H49 H 0.032155 0.208057 0.489806
C60 C -0.0632(12) 0.2980(4) 0.6262(10)
H50 H -0.106948 0.295982 0.575547
H51 H -0.095733 0.294198 0.660218
C61 C 0.2286(11) 0.2062(4) 0.6676(12)
H52 H 0.244478 0.206580 0.622967
H53 H 0.280926 0.213833 0.709412
C62 C 0.2052(18) 0.1715(4) 0.6822(17)
H54 H 0.252211 0.156683 0.680353
H55 H 0.148203 0.165239 0.644843
H56 H 0.200330 0.170409 0.730913
C63 C -0.0639(9) 0.2582(4) 0.5032(8)
H57 H -0.085231 0.280993 0.496062
H58 H -0.041720 0.252627 0.463305
C64 C -0.1414(12) 0.2356(5) 0.4998(11)
H59 H -0.191597 0.239314 0.453947
H60 H -0.160147 0.239995 0.541606
H61 H -0.121771 0.212896 0.501783
C65 C 0.0603(12) 0.2854(5) 0.7735(8)
H62 H 0.120057 0.288376 0.811682
H63 H 0.034858 0.307188 0.757226
C66 C 0.0012(15) 0.2675(6) 0.8063(11)
H64 H 0.004370 0.278146 0.852220
H65 H 0.021303 0.244956 0.816334
H66 H -0.060607 0.267930 0.771733
C67 C 0.7259(9) 0.3009(3) 0.6950(4)
C68 C 0.7479(9) 0.3323(3) 0.6813(5)
C69 C 0.7311(9) 0.3425(2) 0.6096(6)
C70 C 0.6921(9) 0.3212(3) 0.5516(5)
C71 C 0.6701(9) 0.2898(3) 0.5652(5)
C72 C 0.6870(9) 0.2797(2) 0.6370(6)
C73 C 0.7398(13) 0.2899(5) 0.7733(8)
H67 H 0.764356 0.267591 0.781232
H68 H 0.783012 0.304524 0.808964
C74 C 0.7583(14) 0.3767(4) 0.5950(12)
H69 H 0.799185 0.386451 0.641072
H70 H 0.789386 0.375784 0.559240
C75 C 0.6231(14) 0.2667(5) 0.5026(9)
H71 H 0.630662 0.274577 0.457145
H72 H 0.651074 0.244931 0.513977
C76 C 0.7880(11) 0.3564(5) 0.7459(9)
H73 H 0.771014 0.378786 0.727596
H74 H 0.761177 0.351951 0.783545
C77 C 0.8891(11) 0.3547(6) 0.7819(12)
H75 H 0.909362 0.370556 0.821851
H76 H 0.916461 0.359553 0.745329
H77 H 0.906601 0.332776 0.801553
C78 C 0.6654(11) 0.3337(5) 0.4712(8)
H78 H 0.606731 0.324350 0.441422
H79 H 0.659157 0.357609 0.470691
C79 C 0.7339(14) 0.3245(6) 0.4369(12)
H80 H 0.709095 0.328612 0.383964
H81 H 0.748668 0.301346 0.445581
H82 H 0.788000 0.337506 0.459082
C80 C 0.6704(11) 0.2439(3) 0.6535(10)
H83 H 0.655938 0.243108 0.698853
H84 H 0.618447 0.235314 0.612725
C81 C 0.7516(13) 0.2226(5) 0.6631(12)
H85 H 0.732709 0.199908 0.653053
H86 H 0.793988 0.224551 0.713596
H87 H 0.780426 0.229678 0.628890
C82 C 0.2150(7) 0.4482(3) 0.3003(8)
C83 C 0.1411(8) 0.4569(3) 0.3178(8)
C84 C 0.0683(7) 0.4360(3) 0.3011(8)
C85 C 0.0695(7) 0.4064(3) 0.2669(7)
C86 C 0.1434(8) 0.3978(2) 0.2494(7)
C87 C 0.2161(7) 0.4186(3) 0.2661(7)
C88 C 0.2959(13) 0.4711(5) 0.3219(14)
H88 H 0.277996 0.493079 0.331906
H89 H 0.318832 0.472682 0.281029
C89 C -0.0130(11) 0.4460(5) 0.3195(11)
H90 H -0.068645 0.440627 0.278336
H91 H -0.011940 0.469628 0.328982
C90 C 0.1447(14) 0.3652(4) 0.2126(11)
H92 H 0.083610 0.356009 0.192903
H93 H 0.166359 0.368117 0.171366
C91 C 0.1398(17) 0.4907(5) 0.3536(15)
H94 H 0.097510 0.490115 0.380302
H95 H 0.199974 0.495579 0.389543
C92 C 0.112(2) 0.5174(6) 0.2954(18)
H96 H 0.127383 0.538661 0.319162
H97 H 0.047436 0.516240 0.268850
H98 H 0.143355 0.514352 0.260880
C93 C -0.0127(11) 0.3838(5) 0.2478(10)
H99 H 0.007433 0.360864 0.252547
H100 H -0.043375 0.387510 0.283159
C94 C -0.0782(14) 0.3897(7) 0.1699(10)
H101 H -0.120710 0.371610 0.155097
H102 H -0.045338 0.391224 0.136171
H103 H -0.110653 0.410017 0.168600
C95 C 0.2984(11) 0.4088(5) 0.2467(10)
H104 H 0.352763 0.417393 0.285126
H105 H 0.302944 0.384840 0.247457
C96 C 0.2962(15) 0.4209(6) 0.1731(10)
H106 H 0.347049 0.411927 0.162598
H107 H 0.299678 0.444720 0.173816
H108 H 0.240453 0.414001 0.134923
C106 C 0.0453(15) 0.4553(6) 0.0955(16)
H121 H 0.065573 0.447891 0.147192
H122 H 0.093645 0.468697 0.089626
Cl1 Cl 0.0293(6) 0.4218(2) 0.0395(5)
Cl2 Cl -0.0471(8) 0.4794(3) 0.0792(6)
C107 C 0.4600(17) 0.3185(4) 0.1692(7)
H123 H 0.401554 0.307315 0.151443
H124 H 0.505903 0.302615 0.168072
Cl3 Cl 0.4575(7) 0.3497(2) 0.1100(4)
Cl4 Cl 0.4825(7) 0.3304(2) 0.2582(4)
C108 C -0.3481(9) 0.4230(7) 0.3919(15)
H125 H -0.356671 0.418568 0.438902
H126 H -0.353033 0.446816 0.383827
Cl5 Cl -0.4324(7) 0.4046(3) 0.3228(6)
Cl6 Cl -0.2427(5) 0.4112(2) 0.4001(5)
C109 C -0.2539(18) 0.5306(4) 0.3842(11)
H127 H -0.217398 0.534747 0.353369
H128 H -0.315148 0.525158 0.351042
Cl7 Cl -0.2093(5) 0.49762(17) 0.4416(5)
Cl8 Cl -0.2576(5) 0.56527(18) 0.4316(5)
C110 C 0.4565(11) 0.2726(4) 0.6421(12)
H129 H 0.471425 0.274944 0.597191
H130 H 0.505640 0.282333 0.683353
Cl9 Cl 0.4492(4) 0.23160(17) 0.6596(4)
Cl10 Cl 0.3586(4) 0.29369(19) 0.6303(3)
C111 C 0.4520(12) 0.3813(5) 0.6931(12)
H131 H 0.412031 0.387023 0.642860
H132 H 0.423784 0.362934 0.709666
Cl11 Cl 0.4557(7) 0.4131(2) 0.7478(5)
Cl12 Cl 0.5492(6) 0.3677(2) 0.6878(6)
C112 C -0.0003(15) 0.3185(9) 0.020(2)
H133 H 0.021307 0.321307 0.073635
H134 H -0.009853 0.294989 0.009262
Cl13 Cl -0.1010(10) 0.3381(4) -0.0177(8)
Cl14 Cl 0.0809(9) 0.3315(3) -0.0113(8)
C113 C 0.3475(13) 0.3745(10) 0.4272(17)
H135 H 0.317908 0.365308 0.377516
H136 H 0.344225 0.398514 0.422449
Cl15 Cl 0.2884(11) 0.3628(4) 0.4812(8)
Cl16 Cl 0.4573(8) 0.3633(4) 0.4580(15)
C115 C 0.239(3) 0.3807(11) 0.7693(19)
H139 H 0.220141 0.403771 0.764156
H140 H 0.302437 0.380123 0.802249
Cl19 Cl 0.2334(11) 0.3670(5) 0.6848(17)
Cl20 Cl 0.1772(10) 0.3602(3) 0.8118(9)
C116 C 0.0541(16) 0.3224(8) 0.4508(16)
H141 H 0.039534 0.325098 0.495750
H142 H 0.084399 0.301230 0.453824
Cl21 Cl 0.1249(11) 0.3530(4) 0.4465(10)
Cl22 Cl -0.0427(6) 0.3226(2) 0.3755(4)
C118 C 0.789(3) 0.4398(5) 0.876(4)
H145 H 0.819648 0.435675 0.929470
H146 H 0.831577 0.433656 0.852213
Cl24 Cl 0.7031(18) 0.4122(4) 0.8469(15)
Cl25 Cl 0.7756(8) 0.4810(3) 0.8667(6)
H109? H 0.143630 0.483411 0.837571
H110? H 0.153507 0.505896 0.773575
H111? H -0.122160 0.289012 0.595882
H112? H -0.066392 0.304111 0.674329
H113? H -0.032923 0.467816 0.299002
H114? H -0.062280 0.430496 0.296253
C97? C -0.014(4) 0.4211(8) 0.4986(11)
C98? C -0.030(5) 0.3909(8) 0.5233(13)
H115? H -0.057225 0.374195 0.488990
C99? C -0.005(4) 0.3850(7) 0.5981(14)
C100? C 0.035(4) 0.4094(8) 0.6483(11)
H116? H 0.052196 0.405355 0.699428
C101? C 0.051(3) 0.4396(7) 0.6236(13)
C102? C 0.027(4) 0.4455(7) 0.5488(14)
H117? H 0.037796 0.466170 0.531936
C103? C -0.034(3) 0.4268(11) 0.4170(14)
H118? H -0.080195 0.414218 0.382828
N13? N 0.005(3) 0.4465(13) 0.394(2)
C104? C -0.026(4) 0.3525(7) 0.6256(19)
H119? H -0.022228 0.351577 0.675261
N14? N -0.047(3) 0.3278(8) 0.590(2)
C105? C 0.105(4) 0.4641(9) 0.6806(18)
H120? H 0.119100 0.484412 0.663677
N15? N 0.132(4) 0.4593(13) 0.7464(18)
C114? C 0.367(2) 0.3616(13) 0.508(2)
H137? H 0.363703 0.373461 0.550692
H138? H 0.333054 0.341122 0.503118
Cl17? Cl 0.3156(16) 0.3846(6) 0.4307(12)
Cl18? Cl 0.4758(19) 0.3520(8) 0.5241(16)
C117? C 0.064(2) 0.3368(17) 0.4218(16)
H143? H 0.102442 0.329810 0.394817
H144? H 0.061981 0.360843 0.421104
Cl23? Cl 0.1114(11) 0.3242(4) 0.5113(9)
loop_
_geom_bond_atom_site_label_1
_geom_bond_atom_site_label_2
_geom_bond_site_symmetry_1
_geom_bond_site_symmetry_2
C1 C2 1_555 1_555
C2 H1 1_555 1_555
C3 C2 1_555 1_555
C4 C3 1_555 1_555
H2 C4 1_555 1_555
C5 C4 1_555 1_555
C6 C1 1_555 1_555
H3 C6 1_555 1_555
C7 C1 1_555 1_555
H4 C7 1_555 1_555
N1 C7 1_555 1_555
C8 C3 1_555 1_555
H5 C8 1_555 1_555
N2 C8 1_555 1_555
C9 C5 1_555 1_555
H6 C9 1_555 1_555
N3 C9 1_555 1_555
C10 C11 1_555 1_555
C11 H7 1_555 1_555
C12 C11 1_555 1_555
C13 C12 1_555 1_555
H8 C13 1_555 1_555
C14 C13 1_555 1_555
C15 C10 1_555 1_555
H9 C15 1_555 1_555
C16 C10 1_555 1_555
H10 C16 1_555 1_555
N4 C16 1_555 1_555
C17 C12 1_555 1_555
H11 C17 1_555 1_555
N5 C17 1_555 1_555
C18 C14 1_555 1_555
H12 C18 1_555 1_555
N6 C18 1_555 1_555
C19 C20 1_555 1_555
C20 H13 1_555 1_555
C21 C20 1_555 1_555
C22 C21 1_555 1_555
H14 C22 1_555 1_555
C23 C22 1_555 1_555
C24 C19 1_555 1_555
H15 C24 1_555 1_555
C25 C19 1_555 1_555
H16 C25 1_555 1_555
N7 C25 1_555 1_555
C26 C21 1_555 1_555
H17 C26 1_555 1_555
N8 C26 1_555 1_555
C27 C23 1_555 1_555
H18 C27 1_555 1_555
N9 C27 1_555 1_555
C28 C29 1_555 1_555
C29 H19 1_555 1_555
C30 C29 1_555 1_555
C31 C30 1_555 1_555
H20 C31 1_555 1_555
C32 C31 1_555 1_555
C33 C28 1_555 1_555
H21 C33 1_555 1_555
C34 C28 1_555 1_555
H22 C34 1_555 1_555
N10 C34 1_555 1_555
C35 C30 1_555 1_555
H23 C35 1_555 1_555
N11 C35 1_555 1_555
C36 C32 1_555 1_555
H24 C36 1_555 1_555
N12 C36 1_555 1_555
C37 C38 1_555 1_555
C38 C39 1_555 1_555
C39 C40 1_555 1_555
C40 C41 1_555 1_555
C41 C42 1_555 1_555
C42 C37 1_555 1_555
C43 N5 1_555 1_555
H25 C43 1_555 1_555
H26 C43 1_555 1_555
C44 N9 1_555 1_555
H27 C44 1_555 1_555
H28 C44 1_555 1_555
C45 N10 1_555 1_555
H29 C45 1_555 1_555
H30 C45 1_555 1_555
C46 C38 1_555 1_555
H31 C46 1_555 1_555
H32 C46 1_555 1_555
C47 C46 1_555 1_555
H33 C47 1_555 1_555
H34 C47 1_555 1_555
H35 C47 1_555 1_555
C48 C40 1_555 1_555
H36 C48 1_555 1_555
H37 C48 1_555 1_555
C49 C48 1_555 1_555
H38 C49 1_555 1_555
H39 C49 1_555 1_555
H40 C49 1_555 1_555
C50 C42 1_555 1_555
H41 C50 1_555 1_555
H42 C50 1_555 1_555
C51 C50 1_555 1_555
H43 C51 1_555 1_555
H44 C51 1_555 1_555
H45 C51 1_555 1_555
C52 C53 1_555 1_555
C53 C54 1_555 1_555
C54 C55 1_555 1_555
C55 C56 1_555 1_555
C56 C57 1_555 1_555
C57 C52 1_555 1_555
C58 N4 1_555 1_555
H46 C58 1_555 1_555
H47 C58 1_555 1_555
C59 N1 1_555 1_555
H48 C59 1_555 1_555
H49 C59 1_555 1_555
C60 N7 1_555 1_555
H50 C60 1_555 1_555
H51 C60 1_555 1_555
C61 C53 1_555 1_555
H52 C61 1_555 1_555
H53 C61 1_555 1_555
C62 C61 1_555 1_555
H54 C62 1_555 1_555
H55 C62 1_555 1_555
H56 C62 1_555 1_555
C63 C55 1_555 1_555
H57 C63 1_555 1_555
H58 C63 1_555 1_555
C64 C63 1_555 1_555
H59 C64 1_555 1_555
H60 C64 1_555 1_555
H61 C64 1_555 1_555
C65 C57 1_555 1_555
H62 C65 1_555 1_555
H63 C65 1_555 1_555
C66 C65 1_555 1_555
H64 C66 1_555 1_555
H65 C66 1_555 1_555
H66 C66 1_555 1_555
C67 C68 1_555 1_555
C68 C69 1_555 1_555
C69 C70 1_555 1_555
C70 C71 1_555 1_555
C71 C72 1_555 1_555
C72 C67 1_555 1_555
C73 N6 1_555 1_555
H67 C73 1_555 1_555
H68 C73 1_555 1_555
C74 N12 1_555 1_555
H69 C74 1_555 1_555
H70 C74 1_555 1_555
C75 N2 1_555 1_555
H71 C75 1_555 1_555
H72 C75 1_555 1_555
C76 C68 1_555 1_555
H73 C76 1_555 1_555
H74 C76 1_555 1_555
C77 C76 1_555 1_555
H75 C77 1_555 1_555
H76 C77 1_555 1_555
H77 C77 1_555 1_555
C78 C70 1_555 1_555
H78 C78 1_555 1_555
H79 C78 1_555 1_555
C79 C78 1_555 1_555
H80 C79 1_555 1_555
H81 C79 1_555 1_555
H82 C79 1_555 1_555
C80 C72 1_555 1_555
H83 C80 1_555 1_555
H84 C80 1_555 1_555
C81 C80 1_555 1_555
H85 C81 1_555 1_555
H86 C81 1_555 1_555
H87 C81 1_555 1_555
C82 C83 1_555 1_555
C83 C84 1_555 1_555
C84 C85 1_555 1_555
C85 C86 1_555 1_555
C86 C87 1_555 1_555
C87 C82 1_555 1_555
C88 N11 1_555 1_555
H88 C88 1_555 1_555
H89 C88 1_555 1_555
C89 N8 1_555 1_555
H90 C89 1_555 1_555
H91 C89 1_555 1_555
C90 N3 1_555 1_555
H92 C90 1_555 1_555
H93 C90 1_555 1_555
C91 C83 1_555 1_555
H94 C91 1_555 1_555
H95 C91 1_555 1_555
C92 C91 1_555 1_555
H96 C92 1_555 1_555
H97 C92 1_555 1_555
H98 C92 1_555 1_555
C93 C85 1_555 1_555
H99 C93 1_555 1_555
H100 C93 1_555 1_555
C94 C93 1_555 1_555
H101 C94 1_555 1_555
H102 C94 1_555 1_555
H103 C94 1_555 1_555
C95 C87 1_555 1_555
H104 C95 1_555 1_555
H105 C95 1_555 1_555
C96 C95 1_555 1_555
H106 C96 1_555 1_555
H107 C96 1_555 1_555
H108 C96 1_555 1_555
C106 H121 1_555 1_555
H122 C106 1_555 1_555
Cl1 C106 1_555 1_555
Cl2 C106 1_555 1_555
C107 H123 1_555 1_555
H124 C107 1_555 1_555
Cl3 C107 1_555 1_555
Cl4 C107 1_555 1_555
C108 H125 1_555 1_555
H126 C108 1_555 1_555
Cl5 C108 1_555 1_555
Cl6 C108 1_555 1_555
C109 H127 1_555 1_555
H128 C109 1_555 1_555
Cl7 C109 1_555 1_555
Cl8 C109 1_555 1_555
C110 H129 1_555 1_555
H130 C110 1_555 1_555
Cl9 C110 1_555 1_555
Cl10 C110 1_555 1_555
C111 H131 1_555 1_555
H132 C111 1_555 1_555
Cl11 C111 1_555 1_555
Cl12 C111 1_555 1_555
C112 H133 1_555 1_555
H134 C112 1_555 1_555
Cl13 C112 1_555 1_555
Cl14 C112 1_555 1_555
C113 H135 1_555 1_555
H136 C113 1_555 1_555
Cl15 C113 1_555 1_555
Cl16 C113 1_555 1_555
C115 H139 1_555 1_555
H140 C115 1_555 1_555
Cl19 C115 1_555 1_555
Cl20 C115 1_555 1_555
C116 H141 1_555 1_555
H142 C116 1_555 1_555
Cl21 C116 1_555 1_555
Cl22 C116 1_555 1_555
C118 H145 1_555 1_555
H146 C118 1_555 1_555
Cl24 C118 1_555 1_555
Cl25 C118 1_555 1_555
C5 C6 1_555 1_555
C14 C15 1_555 1_555
C23 C24 1_555 1_555
C32 C33 1_555 1_555
C37 C43 1_555 1_555
C39 C44 1_555 1_555
C41 C45 1_555 1_555
C52 C58 1_555 1_555
C54 C59 1_555 1_555
C56 C60 1_555 1_555
C67 C73 1_555 1_555
C69 C74 1_555 1_555
C71 C75 1_555 1_555
C82 C88 1_555 1_555
C84 C89 1_555 1_555
C86 C90 1_555 1_555

#END
