
#######################################################################
#
#                 Cambridge Crystallographic Data Centre
#                                CCDC 
#
#######################################################################
#
# If this CIF has been generated from an entry in the Cambridge 
# Structural Database, then it will include bibliographic, chemical, 
# crystal, experimental, refinement or atomic coordinate data resulting 
# from the CCDC's data processing and validation procedures.
#
#######################################################################

data_HESSAZ
_chemical_formula_moiety         'C8 H28 N7 P2 1+,Cl1 1-'
_chemical_name_systematic        'Phosphazenium chloride'
_symmetry_cell_setting           monoclinic
_symmetry_space_group_name_H-M   'C 2/c'
_symmetry_Int_Tables_number      15
_space_group_name_Hall           '-C 2yn'
loop_
_symmetry_equiv_pos_site_id
_symmetry_equiv_pos_as_xyz
1 x,y,z
2 1/2+x,1/2+y,z
3 -x,y,1/2-z
4 1/2-x,1/2+y,1/2-z
5 -x,-y,-z
6 1/2-x,1/2-y,-z
7 x,-y,1/2+z
8 1/2+x,1/2-y,1/2+z
_cell_length_a                   11.2187(12)
_cell_length_b                   17.986(3)
_cell_length_c                   9.5501(11)
_cell_angle_alpha                90
_cell_angle_beta                 121.008(7)
_cell_angle_gamma                90
_cell_volume                     1651.64
_exptl_crystal_colour            colorless
_cell_formula_units_Z            4
loop_
_atom_site_label
_atom_site_type_symbol
_atom_site_fract_x
_atom_site_fract_y
_atom_site_fract_z
Cl1 Cl 1.0000 -0.0956(1) 0.2500
P1 P 0.8647(1) 0.1205(1) 0.2319(1)
N1 N 1.0000 0.1563(2) 0.2500
N2 N 0.8761(2) 0.0505(2) 0.3445(3)
N3 N 0.7614(2) 0.0903(1) 0.0464(2)
N4 N 0.7905(2) 0.1887(1) 0.2735(2)
C1 C 0.6606(2) 0.0309(2) -0.0011(3)
C2 C 0.7391(3) 0.1372(2) -0.0903(3)
C3 C 0.8747(3) 0.2405(2) 0.4063(3)
C4 C 0.6558(2) 0.1732(2) 0.2578(3)
H1 H 0.9023(24) 0.0139(15) 0.3307(29)
H2 H 0.9009(25) 0.0608(15) 0.4323(34)
H3 H 0.6811(11) 0.0018(6) 0.0955(5)
H4 H 0.6655(13) -0.0013(6) -0.0807(17)
H5 H 0.5671(3) 0.0522(2) -0.0503(19)
H6 H 0.8082(11) 0.1772(5) -0.0496(4)
H7 H 0.6455(7) 0.1587(7) -0.1434(12)
H8 H 0.7487(16) 0.1071(2) -0.1694(10)
H9 H 0.9596(9) 0.2526(8) 0.4058(14)
H10 H 0.8995(15) 0.2175(4) 0.5109(3)
H11 H 0.8215(7) 0.2860(4) 0.3913(12)
H12 H 0.6015(8) 0.1402(8) 0.1644(14)
H13 H 0.6052(8) 0.2200(2) 0.2407(22)
H14 H 0.6708(2) 0.1493(9) 0.3577(10)
P1B P 1.1353(1) 0.1205(1) 0.2681(1)
N2B N 1.1239(2) 0.0505(2) 0.1555(3)
N3B N 1.2386(2) 0.0903(1) 0.4536(2)
N4B N 1.2095(2) 0.1887(1) 0.2265(2)
H1B H 1.0977(24) 0.0139(15) 0.1693(29)
H2B H 1.0991(25) 0.0608(15) 0.0677(34)
C1B C 1.3394(2) 0.0309(2) 0.5011(3)
C2B C 1.2609(3) 0.1372(2) 0.5903(3)
C3B C 1.1253(3) 0.2405(2) 0.0937(3)
C4B C 1.3442(2) 0.1732(2) 0.2422(3)
H3B H 1.3189(11) 0.0018(6) 0.4045(5)
H4B H 1.3345(13) -0.0013(6) 0.5807(17)
H5B H 1.4329(3) 0.0522(2) 0.5503(19)
H6B H 1.1918(11) 0.1772(5) 0.5496(4)
H7B H 1.3545(7) 0.1587(7) 0.6434(12)
H8B H 1.2513(16) 0.1071(2) 0.6694(10)
H9B H 1.0404(9) 0.2526(8) 0.0942(14)
H10B H 1.1005(15) 0.2175(4) -0.0109(3)
H11B H 1.1785(7) 0.2860(4) 0.1087(12)
H12B H 1.3985(8) 0.1402(8) 0.3356(14)
H13B H 1.3948(8) 0.2200(2) 0.2593(22)
H14B H 1.3292(2) 0.1493(9) 0.1423(10)
loop_
_geom_bond_atom_site_label_1
_geom_bond_atom_site_label_2
_geom_bond_site_symmetry_1
_geom_bond_site_symmetry_2
P1 N1 1_555 1_555
N1 P1B 1_555 1_555
N2 P1 1_555 1_555
N3 P1 1_555 1_555
N4 P1 1_555 1_555
C1 N3 1_555 1_555
C2 N3 1_555 1_555
C3 N4 1_555 1_555
C4 N4 1_555 1_555
H1 N2 1_555 1_555
H2 N2 1_555 1_555
H3 C1 1_555 1_555
H4 C1 1_555 1_555
H5 C1 1_555 1_555
H6 C2 1_555 1_555
H7 C2 1_555 1_555
H8 C2 1_555 1_555
H9 C3 1_555 1_555
H10 C3 1_555 1_555
H11 C3 1_555 1_555
H12 C4 1_555 1_555
H13 C4 1_555 1_555
H14 C4 1_555 1_555
P1B N2B 1_555 1_555
N2B H1B 1_555 1_555
N3B P1B 1_555 1_555
N4B P1B 1_555 1_555
H2B N2B 1_555 1_555
C1B N3B 1_555 1_555
C2B N3B 1_555 1_555
C3B N4B 1_555 1_555
C4B N4B 1_555 1_555
H3B C1B 1_555 1_555
H4B C1B 1_555 1_555
H5B C1B 1_555 1_555
H6B C2B 1_555 1_555
H7B C2B 1_555 1_555
H8B C2B 1_555 1_555
H9B C3B 1_555 1_555
H10B C3B 1_555 1_555
H11B C3B 1_555 1_555
H12B C4B 1_555 1_555
H13B C4B 1_555 1_555
H14B C4B 1_555 1_555

#END
