
#######################################################################
#
#                 Cambridge Crystallographic Data Centre
#                                CCDC 
#
#######################################################################
#
# If this CIF has been generated from an entry in the Cambridge 
# Structural Database, then it will include bibliographic, chemical, 
# crystal, experimental, refinement or atomic coordinate data resulting 
# from the CCDC's data processing and validation procedures.
#
#######################################################################

data_IDUYAK
_chemical_formula_moiety         'C32 H36 N2 O10'
_chemical_name_systematic        
"di-t-butyl 3,3'-bis(2-methoxy-2-oxoethyl)-2,2'-dioxo-2,2',3,3'-tetrahydro-1H,1'H-[3,3'-biindole]-1,1'-dicarboxylate"
_symmetry_cell_setting           triclinic
_symmetry_space_group_name_H-M   'P 1'
_symmetry_Int_Tables_number      1
_space_group_name_Hall           'P 1'
loop_
_symmetry_equiv_pos_site_id
_symmetry_equiv_pos_as_xyz
1 x,y,z
_cell_length_a                   11.4940(2)
_cell_length_b                   11.7725(2)
_cell_length_c                   12.7954(3)
_cell_angle_alpha                78.0860(10)
_cell_angle_beta                 76.3090(10)
_cell_angle_gamma                77.6630(10)
_cell_volume                     1621.03
_exptl_crystal_colour            colorless
_exptl_crystal_description       block
_cell_formula_units_Z            2
loop_
_atom_site_label
_atom_site_type_symbol
_atom_site_fract_x
_atom_site_fract_y
_atom_site_fract_z
O1 O 0.1725(2) 0.8818(2) 0.0084(2)
O2 O -0.1516(2) 0.6660(2) 0.2055(2)
O3 O -0.2449(2) 0.6180(3) 0.3787(2)
O4 O 0.3509(2) 0.5622(3) 0.4774(2)
O5 O 0.4693(3) 0.2364(3) 0.3051(3)
O6 O 0.1462(2) 0.4140(2) 0.4568(2)
O7 O 0.0622(2) 0.8227(2) 0.2146(2)
O8 O 0.2045(3) 0.7470(2) -0.1023(2)
O9 O 0.2780(3) 0.2189(3) 0.3932(3)
N1 N 0.3208(3) 0.3992(3) 0.3207(2)
N2 N 0.1258(2) 0.7017(2) 0.0798(2)
O10 O 0.2453(3) 0.7245(3) 0.5440(3)
C1 C 0.1807(6) 0.0659(5) 0.4936(7)
H1 H 0.1562 0.1100 0.5547
H2 H 0.1852 -0.0186 0.5217
H3 H 0.1208 0.0913 0.4465
C2 C 0.3034(4) 0.0890(4) 0.4289(5)
C3 C 0.3658(3) 0.2770(3) 0.3381(3)
C4 C 0.2145(3) 0.4569(3) 0.3793(3)
C5 C 0.1957(3) 0.5879(3) 0.3261(3)
C6 C 0.0841(3) 0.6088(3) 0.2654(3)
C7 C 0.0874(3) 0.7265(3) 0.1864(3)
C8 C 0.1706(3) 0.7780(3) -0.0150(3)
C9 C 0.2205(4) 0.9742(3) -0.0800(4)
C10 C 0.1469(5) 1.0052(4) -0.1677(4)
H4 H 0.1577 0.9371 -0.2041
H5 H 0.1743 1.0716 -0.2211
H6 H 0.0608 1.0271 -0.1351
C11 C 0.3539(4) 0.9326(4) -0.1241(5)
H7 H 0.3964 0.9030 -0.0633
H8 H 0.3893 0.9986 -0.1715
H9 H 0.3624 0.8694 -0.1660
C12 C 0.2014(6) 1.0759(4) -0.0184(5)
H10 H 0.1144 1.0992 0.0101
H11 H 0.2330 1.1429 -0.0678
H12 H 0.2446 1.0514 0.0423
C13 C -0.0363(3) 0.6127(3) 0.3490(3)
H13 H -0.0340 0.5368 0.3999
H14 H -0.0436 0.6756 0.3921
C14 C -0.1480(3) 0.6345(3) 0.2996(3)
C15 C -0.3598(4) 0.6400(6) 0.3433(5)
H15 H -0.3782 0.7230 0.3105
H16 H -0.4246 0.6219 0.4063
H17 H -0.3544 0.5899 0.2894
C16 C 0.1063(3) 0.5223(3) 0.1885(3)
C17 C 0.1328(3) 0.5782(3) 0.0810(3)
C18 C 0.1586(3) 0.5182(3) -0.0065(3)
H18 H 0.1734 0.5578 -0.0797
C19 C 0.1616(3) 0.3967(3) 0.0184(3)
H19 H 0.1829 0.3521 -0.0394
C20 C 0.1345(3) 0.3388(3) 0.1251(3)
H20 H 0.1364 0.2560 0.1393
C21 C 0.1048(3) 0.4018(3) 0.2111(3)
H21 H 0.0837 0.3632 0.2841
C22 C 0.1700(3) 0.6673(3) 0.4127(3)
H22 H 0.1616 0.7506 0.3762
H23 H 0.0916 0.6562 0.4624
C23 C 0.2674(3) 0.6437(3) 0.4792(3)
C24 C 0.3221(5) 0.7019(5) 0.6235(4)
H24 H 0.3134 0.6256 0.6701
H25 H 0.2977 0.7643 0.6686
H26 H 0.4070 0.7005 0.5858
C25 C 0.3827(3) 0.4820(3) 0.2416(3)
C26 C 0.4931(3) 0.4622(4) 0.1696(3)
H27 H 0.5390 0.3852 0.1669
C27 C 0.5334(3) 0.5605(4) 0.1013(3)
H28 H 0.6074 0.5498 0.0494
C28 C 0.4689(4) 0.6729(4) 0.1069(3)
H29 H 0.5005 0.7383 0.0609
C29 C 0.3583(3) 0.6915(4) 0.1791(3)
H30 H 0.3137 0.7689 0.1833
C30 C 0.3144(3) 0.5940(3) 0.2452(3)
C31 C 0.3402(7) 0.0292(6) 0.3303(7)
H31 H 0.2770 0.0544 0.2866
H32 H 0.3506 -0.0564 0.3535
H33 H 0.4171 0.0506 0.2865
C32 C 0.3953(8) 0.0618(6) 0.5002(8)
H34 H 0.4760 0.0688 0.4550
H35 H 0.3963 -0.0186 0.5405
H36 H 0.3739 0.1176 0.5518
O11 O 0.7406(2) 0.0953(2) 0.9674(2)
O12 O 0.8211(3) 0.7704(2) 0.6749(3)
O13 O 0.9393(2) 0.5760(2) 0.5986(2)
O14 O 0.8516(5) 0.7772(3) 0.8408(3)
O15 O 1.2468(2) 0.2905(2) 0.7085(3)
O16 O 1.1482(2) 0.4706(3) 0.7362(3)
O17 O 0.6542(3) 0.2739(3) 0.6167(2)
O18 O 0.8620(2) 0.1554(2) 0.7665(2)
O19 O 0.5442(3) 0.1867(3) 1.0000(3)
N3 N 0.6846(2) 0.2614(3) 0.8577(2)
N4 N 0.8806(3) 0.6023(3) 0.7805(2)
O20 O 0.7452(3) 0.3421(3) 0.4476(3)
C33 C 0.8566(4) -0.0728(4) 1.0451(4)
H37 H 0.8762 -0.0992 0.9742
H38 H 0.8614 -0.1415 1.1031
H39 H 0.9146 -0.0236 1.0470
C34 C 0.7294(4) -0.0020(4) 1.0621(3)
C35 C 0.6469(3) 0.1777(4) 0.9498(3)
C36 C 0.7925(3) 0.2461(3) 0.7789(3)
C37 C 0.8083(3) 0.3677(3) 0.7102(3)
C38 C 0.9176(3) 0.4063(3) 0.7432(3)
C39 C 0.9164(3) 0.5373(3) 0.6946(3)
C40 C 0.8503(4) 0.7265(3) 0.7696(3)
C41 C 0.7994(5) 0.8997(4) 0.6369(4)
C42 C 0.7703(11) 0.9054(6) 0.5249(7)
H40 H 0.8403 0.8638 0.4788
H41 H 0.7527 0.9879 0.4905
H42 H 0.6994 0.8680 0.5338
C43 C 0.6982(5) 0.0480(5) 1.1664(4)
H43 H 0.7574 0.0973 1.1652
H44 H 0.7002 -0.0166 1.2284
H45 H 0.6166 0.0958 1.1736
C44 C 0.6389(5) -0.0754(4) 1.0539(4)
H46 H 0.5571 -0.0279 1.0625
H47 H 0.6402 -0.1448 1.1114
H48 H 0.6611 -0.1009 0.9825
C45 C 0.6202(3) 0.3794(3) 0.8385(3)
C46 C 0.6896(3) 0.4426(3) 0.7507(3)
C47 C 0.9144(6) 0.9440(5) 0.6265(6)
H49 H 0.9341 0.9334 0.6987
H50 H 0.9042 1.0279 0.5950
H51 H 0.9805 0.8999 0.5790
C48 C 0.6956(6) 0.9599(5) 0.7135(6)
H52 H 0.6223 0.9272 0.7191
H53 H 0.6808 1.0446 0.6856
H54 H 0.7160 0.9471 0.7856
C49 C 0.8740(3) 0.5251(3) 0.8826(3)
C50 C 0.8522(3) 0.5512(4) 0.9864(3)
H55 H 0.8399 0.6303 0.9983
C51 C 0.8487(3) 0.4585(4) 1.0728(3)
H56 H 0.8327 0.4746 1.1451
C52 C 0.8680(3) 0.3422(4) 1.0564(3)
H57 H 0.8642 0.2801 1.1171
C53 C 0.8930(3) 0.3169(3) 0.9510(3)
H58 H 0.9088 0.2375 0.9390
C54 C 0.8945(3) 0.4088(3) 0.8636(3)
C55 C 1.0406(3) 0.3317(3) 0.7017(3)
H59 H 1.0410 0.2493 0.7394
H60 H 1.0492 0.3319 0.6228
C56 C 1.1481(3) 0.3738(3) 0.7188(3)
C57 C 1.3597(3) 0.3245(4) 0.7123(5)
H61 H 1.3764 0.3905 0.6535
H62 H 1.4263 0.2575 0.7032
H63 H 1.3524 0.3486 0.7828
C58 C 0.8335(3) 0.3608(3) 0.5883(3)
H64 H 0.8447 0.4394 0.5456
H65 H 0.9102 0.3052 0.5698
C59 C 0.7329(3) 0.3212(3) 0.5559(3)
C60 C 0.6539(6) 0.3069(6) 0.4060(5)
H66 H 0.6558 0.2219 0.4283
H67 H 0.6707 0.3259 0.3262
H68 H 0.5733 0.3492 0.4352
C61 C 0.6461(3) 0.5613(3) 0.7151(3)
H69 H 0.6914 0.6051 0.6541
C62 C 0.5356(3) 0.6135(4) 0.7708(4)
H70 H 0.5057 0.6945 0.7490
C63 C 0.4679(3) 0.5483(4) 0.8585(4)
H71 H 0.3923 0.5857 0.8955
C64 C 0.5090(3) 0.4294(4) 0.8929(3)
H72 H 0.4620 0.3845 0.9516
loop_
_geom_bond_atom_site_label_1
_geom_bond_atom_site_label_2
_geom_bond_site_symmetry_1
_geom_bond_site_symmetry_2
O1 C8 1_555 1_555
O2 C14 1_555 1_555
O3 C14 1_555 1_555
O4 C23 1_555 1_555
O5 C3 1_555 1_555
O6 C4 1_555 1_555
O7 C7 1_555 1_555
O8 C8 1_555 1_555
O9 C2 1_555 1_555
N1 C3 1_555 1_555
N2 C7 1_555 1_555
O10 C23 1_555 1_555
C1 H1 1_555 1_555
H2 C1 1_555 1_555
H3 C1 1_555 1_555
C2 C1 1_555 1_555
C3 O9 1_555 1_555
C4 N1 1_555 1_555
C5 C4 1_555 1_555
C6 C5 1_555 1_555
C7 C6 1_555 1_555
C8 N2 1_555 1_555
C9 O1 1_555 1_555
C10 C9 1_555 1_555
H4 C10 1_555 1_555
H5 C10 1_555 1_555
H6 C10 1_555 1_555
C11 C9 1_555 1_555
H7 C11 1_555 1_555
H8 C11 1_555 1_555
H9 C11 1_555 1_555
C12 C9 1_555 1_555
H10 C12 1_555 1_555
H11 C12 1_555 1_555
H12 C12 1_555 1_555
C13 C6 1_555 1_555
H13 C13 1_555 1_555
H14 C13 1_555 1_555
C14 C13 1_555 1_555
C15 O3 1_555 1_555
H15 C15 1_555 1_555
H16 C15 1_555 1_555
H17 C15 1_555 1_555
C16 C6 1_555 1_555
C17 N2 1_555 1_555
C18 C17 1_555 1_555
H18 C18 1_555 1_555
C19 C18 1_555 1_555
H19 C19 1_555 1_555
C20 C19 1_555 1_555
H20 C20 1_555 1_555
C21 C16 1_555 1_555
H21 C21 1_555 1_555
C22 C5 1_555 1_555
H22 C22 1_555 1_555
H23 C22 1_555 1_555
C23 C22 1_555 1_555
C24 O10 1_555 1_555
H24 C24 1_555 1_555
H25 C24 1_555 1_555
H26 C24 1_555 1_555
C25 N1 1_555 1_555
C26 C25 1_555 1_555
H27 C26 1_555 1_555
C27 C26 1_555 1_555
H28 C27 1_555 1_555
C28 C27 1_555 1_555
H29 C28 1_555 1_555
C29 C28 1_555 1_555
H30 C29 1_555 1_555
C30 C5 1_555 1_555
C31 C2 1_555 1_555
H31 C31 1_555 1_555
H32 C31 1_555 1_555
H33 C31 1_555 1_555
C32 C2 1_555 1_555
H34 C32 1_555 1_555
H35 C32 1_555 1_555
H36 C32 1_555 1_555
O11 C34 1_555 1_555
O12 C40 1_555 1_555
O13 C39 1_555 1_555
O14 C40 1_555 1_555
O15 C56 1_555 1_555
O16 C56 1_555 1_555
O17 C59 1_555 1_555
O18 C36 1_555 1_555
O19 C35 1_555 1_555
N3 C35 1_555 1_555
N4 C39 1_555 1_555
O20 C59 1_555 1_555
C33 H37 1_555 1_555
H38 C33 1_555 1_555
H39 C33 1_555 1_555
C34 C33 1_555 1_555
C35 O11 1_555 1_555
C36 N3 1_555 1_555
C37 C36 1_555 1_555
C38 C37 1_555 1_555
C39 C38 1_555 1_555
C40 N4 1_555 1_555
C41 O12 1_555 1_555
C42 C41 1_555 1_555
H40 C42 1_555 1_555
H41 C42 1_555 1_555
H42 C42 1_555 1_555
C43 C34 1_555 1_555
H43 C43 1_555 1_555
H44 C43 1_555 1_555
H45 C43 1_555 1_555
C44 C34 1_555 1_555
H46 C44 1_555 1_555
H47 C44 1_555 1_555
H48 C44 1_555 1_555
C45 N3 1_555 1_555
C46 C37 1_555 1_555
C47 C41 1_555 1_555
H49 C47 1_555 1_555
H50 C47 1_555 1_555
H51 C47 1_555 1_555
C48 C41 1_555 1_555
H52 C48 1_555 1_555
H53 C48 1_555 1_555
H54 C48 1_555 1_555
C49 N4 1_555 1_555
C50 C49 1_555 1_555
H55 C50 1_555 1_555
C51 C50 1_555 1_555
H56 C51 1_555 1_555
C52 C51 1_555 1_555
H57 C52 1_555 1_555
C53 C52 1_555 1_555
H58 C53 1_555 1_555
C54 C38 1_555 1_555
C55 C38 1_555 1_555
H59 C55 1_555 1_555
H60 C55 1_555 1_555
C56 C55 1_555 1_555
C57 O15 1_555 1_555
H61 C57 1_555 1_555
H62 C57 1_555 1_555
H63 C57 1_555 1_555
C58 C37 1_555 1_555
H64 C58 1_555 1_555
H65 C58 1_555 1_555
C59 C58 1_555 1_555
C60 O20 1_555 1_555
H66 C60 1_555 1_555
H67 C60 1_555 1_555
H68 C60 1_555 1_555
C61 C46 1_555 1_555
H69 C61 1_555 1_555
C62 C61 1_555 1_555
H70 C62 1_555 1_555
C63 C62 1_555 1_555
H71 C63 1_555 1_555
C64 C45 1_555 1_555
H72 C64 1_555 1_555
C16 C17 1_555 1_555
C20 C21 1_555 1_555
C25 C30 1_555 1_555
C29 C30 1_555 1_555
C45 C46 1_555 1_555
C49 C54 1_555 1_555
C53 C54 1_555 1_555
C63 C64 1_555 1_555

#END
