
#######################################################################
#
#                 Cambridge Crystallographic Data Centre
#                                CCDC 
#
#######################################################################
#
# If this CIF has been generated from an entry in the Cambridge 
# Structural Database, then it will include bibliographic, chemical, 
# crystal, experimental, refinement or atomic coordinate data resulting 
# from the CCDC's data processing and validation procedures.
#
#######################################################################

data_ILOREI
_chemical_formula_moiety         
'C23 H26 N3 O4 1-,H2 O1,C16 H36 N1 1+,0.5(C1 H2 Cl2)'
_chemical_name_systematic        
'tetra-n-butylammonium 5-(6-(5-carboxy-3,4-diethyl-1H-pyrrol-2-yl)pyridin-2-yl)-3,4-diethyl-1H-pyrrole-2-carboxylate dichloromethane solvate monohydrate'
_symmetry_cell_setting           monoclinic
_symmetry_space_group_name_H-M   'P 21/c'
_symmetry_Int_Tables_number      14
_space_group_name_Hall           '-P 2ybc'
loop_
_symmetry_equiv_pos_site_id
_symmetry_equiv_pos_as_xyz
1 x,y,z
2 -x,1/2+y,1/2-z
3 -x,-y,-z
4 x,1/2-y,1/2+z
_cell_length_a                   18.156(3)
_cell_length_b                   9.0535(12)
_cell_length_c                   25.803(4)
_cell_angle_alpha                90
_cell_angle_beta                 106.877(4)
_cell_angle_gamma                90
_cell_volume                     4058.7
_exptl_crystal_colour            colorless
_exptl_crystal_description       plate
_cell_formula_units_Z            4
loop_
_atom_site_label
_atom_site_type_symbol
_atom_site_fract_x
_atom_site_fract_y
_atom_site_fract_z
C24 C 0.78906(12) 0.5156(2) 0.46664(7)
H27 H 0.7530 0.4567 0.4379
H28 H 0.8366 0.4567 0.4808
C25 C 0.80889(12) 0.6565(2) 0.44160(7)
H29 H 0.7620 0.7173 0.4278
H30 H 0.8468 0.7143 0.4696
C26 C 0.84210(13) 0.6206(2) 0.39552(8)
H31 H 0.8024 0.5701 0.3663
H32 H 0.8860 0.5518 0.4087
C27 C 0.86940(13) 0.7581(3) 0.37253(8)
H33 H 0.8265 0.8278 0.3604
H34 H 0.8880 0.7304 0.3418
H35 H 0.9112 0.8046 0.4006
C28 C 0.73793(14) 0.3899(2) 0.53324(8)
H36 H 0.7844 0.3279 0.5382
H37 H 0.6953 0.3418 0.5055
C29 C 0.71741(17) 0.3943(3) 0.58639(9)
H38 H 0.7622 0.4297 0.6157
H39 H 0.6743 0.4641 0.5832
C30 C 0.69447(18) 0.2423(3) 0.60032(9)
H40 H 0.7361 0.1713 0.6007
H41 H 0.6475 0.2102 0.5721
C31 C 0.6792(3) 0.2406(4) 0.65527(12)
H42 H 0.7274 0.2576 0.6838
H43 H 0.6579 0.1445 0.6609
H44 H 0.6423 0.3187 0.6565
C32 C 0.80699(11) 0.6296(2) 0.55722(7)
H45 H 0.8151 0.7273 0.5426
H46 H 0.7816 0.6463 0.5859
C33 C 0.88495(13) 0.5589(3) 0.58273(9)
H47 H 0.9216 0.5695 0.5570
H48 H 0.8743 0.4475 0.5878
C34 C 0.9261(6) 0.6151(10) 0.6401(4)
H49 H 0.8984 0.5778 0.6653
H50 H 0.9788 0.5733 0.6516
C35 C 0.9317(3) 0.7823(6) 0.6450(2)
H51 H 0.9591 0.8206 0.6202
H52 H 0.9598 0.8093 0.6822
H53 H 0.8799 0.8247 0.6356
C36 C 0.67831(12) 0.6255(2) 0.49209(8)
H54 H 0.6908 0.7288 0.4853
H55 H 0.6533 0.6274 0.5214
C37 C 0.62037(14) 0.5666(3) 0.44098(10)
H56 H 0.6403 0.5740 0.4069
H57 H 0.6112 0.4547 0.4464
C38 C 0.5389(3) 0.6265(9) 0.4395(4)
H58 H 0.5322 0.6229 0.4751
H59 H 0.4991 0.5686 0.4154
C39 C 0.5348(3) 0.7870(6) 0.4196(2)
H60 H 0.4857 0.8295 0.4181
H61 H 0.5750 0.8432 0.4441
H62 H 0.5417 0.7886 0.3841
N4 N 0.75307(10) 0.54017(17) 0.51209(6)
O5 O 0.42224(8) 0.84814(17) 0.53892(5)
H63 H 0.4677(16) 0.878(3) 0.5356(10)
H64 H 0.3864(18) 0.914(3) 0.5200(12)
C1 C 0.22183(10) 0.97996(18) 0.50228(7)
C2 C 0.22265(10) 0.90098(18) 0.55275(7)
C3 C 0.16337(10) 0.86556(19) 0.57449(7)
C4 C 0.19657(10) 0.79045(18) 0.62417(7)
C5 C 0.27545(10) 0.78139(18) 0.63116(6)
C6 C 0.34006(10) 0.71020(18) 0.67143(7)
C7 C 0.33073(10) 0.62441(19) 0.71400(7)
H1 H 0.2817 0.6153 0.7200
C8 C 0.39423(11) 0.5530(2) 0.74719(7)
H2 H 0.3888 0.4916 0.7757
C9 C 0.46512(10) 0.5707(2) 0.73902(7)
H3 H 0.5091 0.5214 0.7614
C10 C 0.47110(10) 0.66296(18) 0.69695(7)
C11 C 0.54429(10) 0.69368(18) 0.68551(6)
C12 C 0.62109(10) 0.66154(19) 0.71314(7)
C13 C 0.66671(10) 0.72194(18) 0.68228(7)
C14 C 0.61649(10) 0.78870(19) 0.63682(7)
C15 C 0.62931(10) 0.86514(19) 0.58991(7)
C16 C 0.07897(10) 0.8941(2) 0.54984(8)
H4 H 0.0723 0.9809 0.5256
H5 H 0.0555 0.9181 0.5790
C17 C 0.03695(11) 0.7623(2) 0.51772(9)
H6 H 0.0554 0.7459 0.4861
H7 H -0.0185 0.7823 0.5057
H8 H 0.0469 0.6741 0.5407
C18 C 0.15076(10) 0.7415(2) 0.66137(7)
H9 H 0.1702 0.6443 0.6770
H10 H 0.0963 0.7288 0.6399
C19 C 0.15479(14) 0.8499(2) 0.70721(9)
H11 H 0.2084 0.8604 0.7295
H12 H 0.1236 0.8128 0.7297
H13 H 0.1350 0.9462 0.6920
C20 C 0.65202(10) 0.5841(2) 0.76671(7)
H14 H 0.7064 0.5572 0.7714
H15 H 0.6228 0.4914 0.7659
C21 C 0.64761(12) 0.6756(2) 0.81546(7)
H16 H 0.6789 0.7650 0.8179
H17 H 0.6671 0.6172 0.8486
H18 H 0.5940 0.7034 0.8111
C22 C 0.75302(10) 0.7194(2) 0.69752(7)
H19 H 0.7693 0.7111 0.6642
H20 H 0.7720 0.6309 0.7200
C23 C 0.78968(11) 0.8564(2) 0.72868(8)
H21 H 0.7719 0.9443 0.7064
H22 H 0.8458 0.8491 0.7375
H23 H 0.7749 0.8639 0.7622
N1 N 0.28975(8) 0.84945(15) 0.58776(6)
N2 N 0.40937(8) 0.72989(15) 0.66349(5)
N3 N 0.54326(9) 0.77017(16) 0.63991(6)
O1 O 0.28758(7) 1.00599(14) 0.49538(5)
O2 O 0.15957(7) 1.01784(15) 0.47022(5)
O3 O 0.57658(7) 0.90927(16) 0.55182(5)
O4 O 0.70230(7) 0.88084(14) 0.59225(5)
H24 H 0.5017(13) 0.798(2) 0.6169(9)
H25 H 0.3350(13) 0.854(2) 0.5828(8)
H26 H 0.7081(15) 0.924(3) 0.5593(11)
C40? C 0.9260(8) 0.6473(16) 0.6320(5)
H65? H 0.8880 0.6851 0.6495
H66? H 0.9514 0.7332 0.6207
C41? C 0.9881(4) 0.5525(10) 0.6740(2)
H67? H 0.9624 0.4761 0.6893
H68? H 1.0182 0.6166 0.7031
H69? H 1.0224 0.5057 0.6557
C42? C 0.5421(3) 0.6227(9) 0.4309(3)
H70? H 0.5123 0.5954 0.3949
H71? H 0.5428 0.7285 0.4333
C43? C 0.5045(5) 0.5556(12) 0.4713(4)
H72? H 0.4529 0.5922 0.4642
H73? H 0.5034 0.4498 0.4684
H74? H 0.5342 0.5839 0.5071
C44? C 0.5585(4) 0.6965(9) 0.4259(3)
H75? H 0.5820 0.7848 0.4175
H76? H 0.5402 0.7165 0.4565
C45? C 0.4935(4) 0.6604(11) 0.3797(3)
H77? H 0.4564 0.7389 0.3712
H78? H 0.5120 0.6415 0.3491
H79? H 0.4698 0.5728 0.3884
loop_
_geom_bond_atom_site_label_1
_geom_bond_atom_site_label_2
_geom_bond_site_symmetry_1
_geom_bond_site_symmetry_2
C1 C2 1_555 1_555
C2 C3 1_555 1_555
C3 C4 1_555 1_555
C4 C5 1_555 1_555
C5 C6 1_555 1_555
C6 C7 1_555 1_555
C7 H1 1_555 1_555
C8 C7 1_555 1_555
H2 C8 1_555 1_555
C9 C8 1_555 1_555
H3 C9 1_555 1_555
C10 C9 1_555 1_555
C11 C10 1_555 1_555
C12 C11 1_555 1_555
C13 C12 1_555 1_555
C14 C13 1_555 1_555
C15 C14 1_555 1_555
C16 C3 1_555 1_555
H4 C16 1_555 1_555
H5 C16 1_555 1_555
C17 C16 1_555 1_555
H6 C17 1_555 1_555
H7 C17 1_555 1_555
H8 C17 1_555 1_555
C18 C4 1_555 1_555
H9 C18 1_555 1_555
H10 C18 1_555 1_555
C19 C18 1_555 1_555
H11 C19 1_555 1_555
H12 C19 1_555 1_555
H13 C19 1_555 1_555
C20 C12 1_555 1_555
H14 C20 1_555 1_555
H15 C20 1_555 1_555
C21 C20 1_555 1_555
H16 C21 1_555 1_555
H17 C21 1_555 1_555
H18 C21 1_555 1_555
C22 C13 1_555 1_555
H19 C22 1_555 1_555
H20 C22 1_555 1_555
C23 C22 1_555 1_555
H21 C23 1_555 1_555
H22 C23 1_555 1_555
H23 C23 1_555 1_555
N1 C2 1_555 1_555
N2 C6 1_555 1_555
N3 C11 1_555 1_555
O1 C1 1_555 1_555
O2 C1 1_555 1_555
O3 C15 1_555 1_555
O4 C15 1_555 1_555
H24 N3 1_555 1_555
H25 N1 1_555 1_555
H26 O4 1_555 1_555
C24 H27 1_555 1_555
H28 C24 1_555 1_555
C25 C24 1_555 1_555
H29 C25 1_555 1_555
H30 C25 1_555 1_555
C26 C25 1_555 1_555
H31 C26 1_555 1_555
H32 C26 1_555 1_555
C27 C26 1_555 1_555
H33 C27 1_555 1_555
H34 C27 1_555 1_555
H35 C27 1_555 1_555
C28 H36 1_555 1_555
H37 C28 1_555 1_555
C29 C28 1_555 1_555
H38 C29 1_555 1_555
H39 C29 1_555 1_555
C30 C29 1_555 1_555
H40 C30 1_555 1_555
H41 C30 1_555 1_555
C31 C30 1_555 1_555
H42 C31 1_555 1_555
H43 C31 1_555 1_555
H44 C31 1_555 1_555
C32 H45 1_555 1_555
H46 C32 1_555 1_555
C33 C32 1_555 1_555
H47 C33 1_555 1_555
H48 C33 1_555 1_555
C34 C33 1_555 1_555
H49 C34 1_555 1_555
H50 C34 1_555 1_555
C35 C34 1_555 1_555
H51 C35 1_555 1_555
H52 C35 1_555 1_555
H53 C35 1_555 1_555
C36 H54 1_555 1_555
H55 C36 1_555 1_555
C37 C36 1_555 1_555
H56 C37 1_555 1_555
H57 C37 1_555 1_555
C38 C37 1_555 1_555
H58 C38 1_555 1_555
H59 C38 1_555 1_555
C39 C38 1_555 1_555
H60 C39 1_555 1_555
H61 C39 1_555 1_555
H62 C39 1_555 1_555
N4 C24 1_555 1_555
O5 H63 1_555 1_555
H64 O5 1_555 1_555
C5 N1 1_555 1_555
C10 N2 1_555 1_555
C14 N3 1_555 1_555
C28 N4 1_555 1_555
C32 N4 1_555 1_555
C36 N4 1_555 1_555

#END
