
#######################################################################
#
#                 Cambridge Crystallographic Data Centre
#                                CCDC 
#
#######################################################################
#
# If this CIF has been generated from an entry in the Cambridge 
# Structural Database, then it will include bibliographic, chemical, 
# crystal, experimental, refinement or atomic coordinate data resulting 
# from the CCDC's data processing and validation procedures.
#
#######################################################################

data_JIYDAZ
_chemical_name_common            
'hexanitrohexaazaisowurtzitane and nitrous oxide'
_chemical_formula_moiety         'C6 H6 N12 O12,0.5(N2 O1)'
_chemical_name_systematic        
'1,3,4,7,8,10-hexanitrooctahydro-1H-5,2,6-(epiminomethanetriylimino)imidazo[4,5-b]pyrazine 2-oxodiazen-2-ium-1-ide'
_symmetry_cell_setting           orthorhombic
_symmetry_space_group_name_H-M   'P b c a'
_symmetry_Int_Tables_number      61
_space_group_name_Hall           '-P 2ac 2ab'
loop_
_symmetry_equiv_pos_site_id
_symmetry_equiv_pos_as_xyz
1 x,y,z
2 1/2-x,-y,1/2+z
3 -x,1/2+y,1/2-z
4 1/2+x,1/2-y,-z
5 -x,-y,-z
6 1/2+x,y,1/2-z
7 x,1/2-y,1/2+z
8 1/2-x,1/2+y,z
_cell_length_a                   9.5768(17)
_cell_length_b                   13.256(2)
_cell_length_c                   23.625(4)
_cell_angle_alpha                90
_cell_angle_beta                 90
_cell_angle_gamma                90
_cell_volume                     2999.2
_exptl_crystal_colour            colorless
_exptl_crystal_description       block
_cell_formula_units_Z            8
loop_
_atom_site_label
_atom_site_type_symbol
_atom_site_fract_x
_atom_site_fract_y
_atom_site_fract_z
N13 N 1.000000 0.000000 0.500000
O13 O 0.988(2) -0.0636(14) 0.4629(8)
O13D O 1.012(2) 0.0636(14) 0.5371(8)
O1 O 0.4171(3) 0.2073(2) 0.22432(11)
O2 O 0.3067(2) 0.07298(17) 0.25276(11)
N1 N 0.4016(3) 0.13382(19) 0.25502(11)
N2 N 0.5030(2) 0.11794(18) 0.29517(10)
C1 C 0.4743(3) 0.0460(2) 0.34056(12)
H1 H 0.453543 -0.021370 0.325698
N3 N 0.6080(3) 0.04860(18) 0.36965(10)
N4 N 0.7045(3) -0.0300(2) 0.35758(11)
O3 O 0.6576(3) -0.10773(17) 0.33904(13)
O4 O 0.8244(3) -0.01251(19) 0.37024(12)
C2 C 0.6626(3) 0.1524(2) 0.36783(12)
H2 H 0.763794 0.152694 0.361571
N5 N 0.6268(3) 0.20649(18) 0.41907(10)
N6 N 0.7239(3) 0.2059(2) 0.46307(11)
O5 O 0.8397(3) 0.1756(2) 0.45235(11)
O6 O 0.6850(3) 0.2408(2) 0.50805(10)
C3 C 0.4801(3) 0.2105(2) 0.43352(12)
H3 H 0.464819 0.248219 0.468648
N7 N 0.4185(3) 0.1100(2) 0.43663(11)
N8 N 0.3688(3) 0.0704(2) 0.48589(13)
O7 O 0.2937(4) -0.0027(2) 0.48199(14)
O8 O 0.4088(4) 0.1098(2) 0.52973(11)
C4 C 0.3557(3) 0.0845(2) 0.38217(13)
H4 H 0.280632 0.034821 0.386278
N9 N 0.3030(3) 0.18160(19) 0.36195(11)
N10 N 0.1576(3) 0.2012(3) 0.37280(13)
O9 O 0.1231(3) 0.2888(2) 0.37049(13)
O10 O 0.0837(3) 0.1284(2) 0.37946(16)
C5 C 0.4004(3) 0.2604(2) 0.38233(13)
H5 H 0.349224 0.320484 0.394707
N11 N 0.4997(3) 0.28557(18) 0.33931(11)
N12 N 0.4729(3) 0.3699(2) 0.30459(14)
O11 O 0.5549(3) 0.3838(2) 0.26625(12)
O12 O 0.3753(3) 0.4225(2) 0.31805(15)
C6 C 0.5838(3) 0.2043(2) 0.31723(12)
H6 H 0.649901 0.229157 0.288809
N14? N 1.002(3) 0.0591(16) 0.5333(9)
loop_
_geom_bond_atom_site_label_1
_geom_bond_atom_site_label_2
_geom_bond_site_symmetry_1
_geom_bond_site_symmetry_2
O1 N1 1_555 1_555
O2 N1 1_555 1_555
N1 N2 1_555 1_555
N2 C1 1_555 1_555
C1 H1 1_555 1_555
N3 C1 1_555 1_555
N4 N3 1_555 1_555
O3 N4 1_555 1_555
O4 N4 1_555 1_555
C2 N3 1_555 1_555
H2 C2 1_555 1_555
N5 C2 1_555 1_555
N6 N5 1_555 1_555
O5 N6 1_555 1_555
O6 N6 1_555 1_555
C3 N5 1_555 1_555
H3 C3 1_555 1_555
N7 C3 1_555 1_555
N8 N7 1_555 1_555
O7 N8 1_555 1_555
O8 N8 1_555 1_555
C4 C1 1_555 1_555
H4 C4 1_555 1_555
N9 C4 1_555 1_555
N10 N9 1_555 1_555
O9 N10 1_555 1_555
O10 N10 1_555 1_555
C5 C3 1_555 1_555
H5 C5 1_555 1_555
N11 C5 1_555 1_555
N12 N11 1_555 1_555
O11 N12 1_555 1_555
O12 N12 1_555 1_555
C6 N2 1_555 1_555
H6 C6 1_555 1_555
N13 O13 1_555 1_555
O13D N13 1_555 1_555
C2 C6 1_555 1_555
N7 C4 1_555 1_555
N9 C5 1_555 1_555
N11 C6 1_555 1_555

#END
