
#######################################################################
#
#                 Cambridge Crystallographic Data Centre
#                                CCDC 
#
#######################################################################
#
# If this CIF has been generated from an entry in the Cambridge 
# Structural Database, then it will include bibliographic, chemical, 
# crystal, experimental, refinement or atomic coordinate data resulting 
# from the CCDC's data processing and validation procedures.
#
#######################################################################

data_JOLSOS
_chemical_name_common            
endo-4,9-endo-13,17-5,6,7,8,13,15,16,17,18,18-Decachloro-14-thiahexacyclo(10.5.1.1$5!.0$2,11!.0$13,17!)nonadeca-2(11),6,15-triene-14,14-dioxide
_chemical_formula_moiety         'C18 H10 Cl10 O2 S1'
_chemical_name_systematic        
endo-syn-endo-5,6,7,8,13,15,16,17,18,18-Decachloro-14-thiahexacyclo(10.5.1.1^5,8^.0^2,11^.0^4,9^.0^13,17^)nonadeca-2(11),6,15-triene-14,14-dioxide
_symmetry_cell_setting           triclinic
_symmetry_space_group_name_H-M   'P -1'
_symmetry_Int_Tables_number      2
_space_group_name_Hall           '-P 1'
loop_
_symmetry_equiv_pos_site_id
_symmetry_equiv_pos_as_xyz
1 x,y,z
2 -x,-y,-z
_cell_length_a                   8.253(4)
_cell_length_b                   10.977(4)
_cell_length_c                   13.885(8)
_cell_angle_alpha                71.51(4)
_cell_angle_beta                 81.76(4)
_cell_angle_gamma                86.98(4)
_cell_volume                     1180.6
_exptl_crystal_colour            colorless
_chemical_melting_point          '203.5-204.5 deg.C (dec.)'
_cell_formula_units_Z            2
loop_
_atom_site_label
_atom_site_type_symbol
_atom_site_fract_x
_atom_site_fract_y
_atom_site_fract_z
Cl1 Cl 0.2754(2) 1.1110(2) 0.3368(1)
Cl2 Cl 0.6405(2) 1.1291(2) 0.4023(1)
Cl3 Cl 0.9110(2) 1.2325(2) 0.1849(2)
Cl4 Cl 0.7151(2) 1.2708(2) -0.0149(1)
Cl5 Cl 0.4319(2) 1.3746(1) 0.1470(2)
Cl6 Cl 0.3072(2) 1.1889(2) 0.0723(1)
Cl7 Cl 1.0610(2) 0.5123(1) 0.2267(1)
Cl8 Cl 1.0087(2) 0.8517(2) 0.4530(1)
Cl9 Cl 0.6937(2) 0.6532(2) 0.5282(1)
Cl10 Cl 0.8034(2) 0.4296(1) 0.4188(1)
S1 S 1.0805(2) 0.7432(1) 0.2810(1)
O1 O 1.0926(5) 0.8659(4) 0.2037(3)
O2 O 1.2287(5) 0.6782(4) 0.3088(3)
C1 C 0.6436(7) 0.6353(5) 0.3007(4)
C2 C 0.6344(6) 0.7817(5) 0.2615(4)
C3 C 0.5371(6) 0.8720(5) 0.3076(4)
C4 C 0.4857(6) 0.9876(5) 0.2211(4)
C5 C 0.4525(6) 1.1119(5) 0.2503(4)
C6 C 0.6085(7) 1.1480(5) 0.2800(5)
C7 C 0.7147(6) 1.1881(5) 0.1956(5)
C8 C 0.6318(7) 1.1776(5) 0.1080(4)
C9 C 0.6143(6) 1.0337(5) 0.1216(4)
C10 C 0.7789(6) 0.9598(5) 0.1246(4)
C11 C 0.7491(6) 0.8201(5) 0.1808(4)
C12 C 0.8362(7) 0.7023(5) 0.1638(4)
C13 C 0.9409(6) 0.6382(5) 0.2528(4)
C14 C 0.9556(6) 0.7503(5) 0.3935(4)
C15 C 0.8276(6) 0.6698(5) 0.4223(4)
C16 C 0.8028(7) 0.5980(5) 0.3499(4)
C17 C 0.4549(7) 1.2136(5) 0.1440(4)
C18 C 0.6927(7) 0.6074(5) 0.1999(5)
loop_
_geom_bond_atom_site_label_1
_geom_bond_atom_site_label_2
_geom_bond_site_symmetry_1
_geom_bond_site_symmetry_2
Cl1 C5 1_555 1_555
Cl2 C6 1_555 1_555
Cl3 C7 1_555 1_555
Cl4 C8 1_555 1_555
Cl5 C17 1_555 1_555
Cl6 C17 1_555 1_555
Cl7 C13 1_555 1_555
Cl8 C14 1_555 1_555
Cl9 C15 1_555 1_555
Cl10 C16 1_555 1_555
S1 O1 1_555 1_555
O2 S1 1_555 1_555
C1 C2 1_555 1_555
C2 C3 1_555 1_555
C3 C4 1_555 1_555
C4 C5 1_555 1_555
C5 C6 1_555 1_555
C6 C7 1_555 1_555
C7 C8 1_555 1_555
C8 C9 1_555 1_555
C9 C4 1_555 1_555
C10 C9 1_555 1_555
C11 C2 1_555 1_555
C12 C11 1_555 1_555
C13 S1 1_555 1_555
C14 S1 1_555 1_555
C15 C14 1_555 1_555
C16 C1 1_555 1_555
C17 C5 1_555 1_555
C18 C1 1_555 1_555
C8 C17 1_555 1_555
C10 C11 1_555 1_555
C12 C13 1_555 1_555
C12 C18 1_555 1_555
C13 C16 1_555 1_555
C15 C16 1_555 1_555

#END
