
#######################################################################
#
#                 Cambridge Crystallographic Data Centre
#                                CCDC 
#
#######################################################################
#
# If this CIF has been generated from an entry in the Cambridge 
# Structural Database, then it will include bibliographic, chemical, 
# crystal, experimental, refinement or atomic coordinate data resulting 
# from the CCDC's data processing and validation procedures.
#
#######################################################################

data_WESVUM
_chemical_formula_moiety         'C20 H21 F6 N3 O1'
_chemical_name_systematic        
1-(3,5-bis(trifluoromethyl)phenyl)-3-((2S)-dimethylamino-(1S)-phenylpropyl)urea
_symmetry_cell_setting           monoclinic
_symmetry_space_group_name_H-M   'P 21'
_symmetry_Int_Tables_number      4
_space_group_name_Hall           'P 2yb'
loop_
_symmetry_equiv_pos_site_id
_symmetry_equiv_pos_as_xyz
1 x,y,z
2 -x,1/2+y,-z
_cell_length_a                   10.5778(9)
_cell_length_b                   18.5187(16)
_cell_length_c                   11.1532(13)
_cell_angle_alpha                90
_cell_angle_beta                 100.724(3)
_cell_angle_gamma                90
_cell_volume                     2146.61
_exptl_crystal_colour            colorless
_exptl_crystal_description       needle
_chemical_melting_point          '214 deg.C'
_cell_formula_units_Z            4
loop_
_atom_site_label
_atom_site_type_symbol
_atom_site_fract_x
_atom_site_fract_y
_atom_site_fract_z
C1 C 0.3181(7) 0.2325(3) 0.2481(6)
H1 H 0.3669 0.1939 0.2216
H2 H 0.3737 0.2729 0.2732
H3 H 0.2510 0.2468 0.1822
C2 C 0.2589(6) 0.2069(3) 0.3553(6)
H4 H 0.320(5) 0.200(2) 0.431(5)
C3 C 0.1699(6) 0.2646(3) 0.3944(5)
H5 H 0.1098 0.2808 0.3217
C4 C 0.2495(6) 0.3923(3) 0.3789(7)
H6 H 0.195(7) 0.395(4) 0.298(7)
C5 C 0.3271(8) 0.4495(4) 0.4258(9)
H7 H 0.326(7) 0.490(4) 0.376(7)
C6 C 0.4013(7) 0.4461(3) 0.5391(9)
H8 H 0.4524 0.4853 0.5692
C7 C 0.4014(7) 0.3842(4) 0.6110(9)
H9 H 0.449(7) 0.374(3) 0.688(6)
C8 C 0.3232(6) 0.3258(3) 0.5635(6)
H10 H 0.3223 0.2843 0.6103
C9 C 0.2481(5) 0.3288(3) 0.4488(6)
C10 C 0.0041(6) 0.2660(3) 0.5216(5)
C11 C -0.1714(6) 0.2413(3) 0.6347(5)
C12 C -0.2695(6) 0.1934(3) 0.6449(5)
H11 H -0.272(5) 0.154(3) 0.593(5)
C13 C -0.3555(6) 0.2068(3) 0.7200(5)
C14 C -0.3442(7) 0.2691(3) 0.7916(6)
H12 H -0.392(5) 0.277(3) 0.851(5)
C15 C -0.2467(6) 0.3177(3) 0.7804(5)
C16 C -0.1614(6) 0.3045(3) 0.7052(5)
H13 H -0.0963 0.3375 0.7006
C17 C -0.2300(7) 0.3839(3) 0.8620(6)
C18 C -0.4570(6) 0.1525(3) 0.7292(6)
C19 C 0.0973(6) 0.1325(4) 0.2236(6)
H14 H 0.1408 0.1355 0.1555
H15 H 0.0369 0.1716 0.2198
H16 H 0.0523 0.0874 0.2209
C20 C 0.2768(7) 0.0761(3) 0.3483(6)
H17 H 0.2293 0.0325 0.3551
H18 H 0.3417 0.0820 0.4202
H19 H 0.3169 0.0731 0.2780
N1 N 0.1900(4) 0.1372(2) 0.3357(4)
N2 N 0.0967(4) 0.2313(2) 0.4765(4)
H20 H 0.094(5) 0.187(3) 0.471(5)
N3 N -0.0829(5) 0.2225(2) 0.5635(5)
H21 H -0.066(6) 0.187(3) 0.564(5)
O1 O -0.0037(4) 0.33273(17) 0.5258(3)
F1 F -0.4101(3) 0.09409(17) 0.7922(3)
F2 F -0.5151(4) 0.1288(2) 0.6210(4)
F3 F -0.5494(4) 0.1780(2) 0.7847(4)
F4 F -0.3374(5) 0.4214(2) 0.8526(5)
F5 F -0.1901(5) 0.3676(2) 0.9759(4)
F6 F -0.1448(5) 0.43050(19) 0.8341(4)
C21 C 0.3222(6) -0.0086(3) -0.1493(5)
H22 H 0.3668 -0.0469 -0.1012
H23 H 0.2915 0.0256 -0.0967
H24 H 0.3797 0.0151 -0.1938
C22 C 0.2092(5) -0.0394(3) -0.2382(5)
H25 H 0.149(5) -0.065(3) -0.190(5)
C23 C 0.1330(5) 0.0200(3) -0.3181(5)
H26 H 0.186(5) 0.046(3) -0.361(5)
C24 C 0.1226(6) 0.1394(3) -0.2110(6)
H27 H 0.191(6) 0.153(3) -0.254(5)
C25 C 0.0684(8) 0.1833(4) -0.1321(7)
H28 H 0.116(6) 0.220(3) -0.122(5)
C26 C -0.0331(8) 0.1621(4) -0.0828(6)
H29 H -0.084(5) 0.188(3) -0.029(5)
C27 C -0.0853(7) 0.0943(4) -0.1108(6)
H30 H -0.173(8) 0.079(4) -0.076(7)
C28 C -0.0338(6) 0.0500(3) -0.1895(6)
H31 H -0.0702 0.0048 -0.2084
C29 C 0.0694(6) 0.0707(3) -0.2410(5)
C30 C -0.0292(5) 0.0163(3) -0.5081(5)
C31 C -0.1682(6) -0.0133(3) -0.7067(5)
C32 C -0.1951(6) -0.0672(3) -0.7953(5)
H32 H -0.157(4) -0.113(3) -0.777(4)
C33 C -0.2781(6) -0.0563(3) -0.9028(5)
C34 C -0.3396(6) 0.0100(3) -0.9297(6)
H33 H -0.393(5) 0.017(3) -1.008(6)
C35 C -0.3102(5) 0.0647(3) -0.8437(5)
C36 C -0.2272(5) 0.0540(3) -0.7338(5)
H34 H -0.213(5) 0.088(3) -0.670(5)
C37 C -0.3721(7) 0.1379(3) -0.8704(6)
C38 C -0.3061(8) -0.1170(4) -0.9931(7)
C39 C 0.3457(7) -0.0822(4) -0.3803(6)
H35 H 0.4253 -0.0802 -0.3227
H36 H 0.3306 -0.0365 -0.4212
H37 H 0.3505 -0.1194 -0.4392
C40 C 0.2589(7) -0.1677(3) -0.2563(6)
H38 H 0.2664 -0.2044 -0.3153
H39 H 0.1863 -0.1780 -0.2187
H40 H 0.3358 -0.1668 -0.1950
N4 N 0.2410(5) -0.0978(2) -0.3165(4)
N5 N 0.0393(5) -0.0170(2) -0.4107(4)
H41 H 0.055(6) -0.056(3) -0.410(5)
N6 N -0.0869(5) -0.0291(2) -0.5985(4)
H42 H -0.079(6) -0.064(3) -0.580(5)
O2 O -0.0431(4) 0.08302(18) -0.5154(3)
F7 F -0.1966(5) -0.1469(2) -1.0129(4)
F8 F -0.3643(5) -0.0965(2) -1.1004(4)
F9 F -0.3661(8) -0.1695(3) -0.9557(5)
F10 F -0.3007(4) 0.17960(19) -0.9287(4)
F11 F -0.4874(4) 0.13414(19) -0.9406(3)
F12 F -0.3842(3) 0.17298(16) -0.7705(3)
loop_
_geom_bond_atom_site_label_1
_geom_bond_atom_site_label_2
_geom_bond_site_symmetry_1
_geom_bond_site_symmetry_2
C1 H1 1_555 1_555
H2 C1 1_555 1_555
H3 C1 1_555 1_555
C2 C1 1_555 1_555
H4 C2 1_555 1_555
C3 C2 1_555 1_555
H5 C3 1_555 1_555
C4 H6 1_555 1_555
C5 C4 1_555 1_555
H7 C5 1_555 1_555
C6 C5 1_555 1_555
H8 C6 1_555 1_555
C7 C6 1_555 1_555
H9 C7 1_555 1_555
C8 C7 1_555 1_555
H10 C8 1_555 1_555
C9 C3 1_555 1_555
C10 N2 1_555 1_555
C11 C12 1_555 1_555
C12 H11 1_555 1_555
C13 C12 1_555 1_555
C14 C13 1_555 1_555
H12 C14 1_555 1_555
C15 C14 1_555 1_555
C16 C11 1_555 1_555
H13 C16 1_555 1_555
C17 C15 1_555 1_555
C18 C13 1_555 1_555
C19 H14 1_555 1_555
H15 C19 1_555 1_555
H16 C19 1_555 1_555
C20 H17 1_555 1_555
H18 C20 1_555 1_555
H19 C20 1_555 1_555
N1 C2 1_555 1_555
N2 C3 1_555 1_555
H20 N2 1_555 1_555
N3 C10 1_555 1_555
H21 N3 1_555 1_555
O1 C10 1_555 1_555
F1 C18 1_555 1_555
F2 C18 1_555 1_555
F3 C18 1_555 1_555
F4 C17 1_555 1_555
F5 C17 1_555 1_555
F6 C17 1_555 1_555
C21 H22 1_555 1_555
H23 C21 1_555 1_555
H24 C21 1_555 1_555
C22 C21 1_555 1_555
H25 C22 1_555 1_555
C23 C22 1_555 1_555
H26 C23 1_555 1_555
C24 H27 1_555 1_555
C25 C24 1_555 1_555
H28 C25 1_555 1_555
C26 C25 1_555 1_555
H29 C26 1_555 1_555
C27 C26 1_555 1_555
H30 C27 1_555 1_555
C28 C27 1_555 1_555
H31 C28 1_555 1_555
C29 C23 1_555 1_555
C30 N5 1_555 1_555
C31 C32 1_555 1_555
C32 H32 1_555 1_555
C33 C32 1_555 1_555
C34 C33 1_555 1_555
H33 C34 1_555 1_555
C35 C34 1_555 1_555
C36 C31 1_555 1_555
H34 C36 1_555 1_555
C37 C35 1_555 1_555
C38 C33 1_555 1_555
C39 H35 1_555 1_555
H36 C39 1_555 1_555
H37 C39 1_555 1_555
C40 H38 1_555 1_555
H39 C40 1_555 1_555
H40 C40 1_555 1_555
N4 C22 1_555 1_555
N5 C23 1_555 1_555
H41 N5 1_555 1_555
N6 C30 1_555 1_555
H42 N6 1_555 1_555
O2 C30 1_555 1_555
F7 C38 1_555 1_555
F8 C38 1_555 1_555
F9 C38 1_555 1_555
F10 C37 1_555 1_555
F11 C37 1_555 1_555
F12 C37 1_555 1_555
C4 C9 1_555 1_555
C8 C9 1_555 1_555
C11 N3 1_555 1_555
C15 C16 1_555 1_555
C19 N1 1_555 1_555
C20 N1 1_555 1_555
C24 C29 1_555 1_555
C28 C29 1_555 1_555
C31 N6 1_555 1_555
C35 C36 1_555 1_555
C39 N4 1_555 1_555
C40 N4 1_555 1_555

#END
