
#######################################################################
#
#                 Cambridge Crystallographic Data Centre
#                                CCDC 
#
#######################################################################
#
# If this CIF has been generated from an entry in the Cambridge 
# Structural Database, then it will include bibliographic, chemical, 
# crystal, experimental, refinement or atomic coordinate data resulting 
# from the CCDC's data processing and validation procedures.
#
#######################################################################

data_ABABOV
_chemical_formula_moiety         'C16 H12 N2 O1'
_chemical_name_systematic        
5,11-Dihydro-11-methyl-6H-indolo(3,2-c)quinolin-6-one
_symmetry_cell_setting           monoclinic
_symmetry_space_group_name_H-M   'P 21/c'
_symmetry_Int_Tables_number      14
_space_group_name_Hall           '-P 2ybc'
loop_
_symmetry_equiv_pos_site_id
_symmetry_equiv_pos_as_xyz
1 x,y,z
2 -x,1/2+y,1/2-z
3 -x,-y,-z
4 x,1/2-y,1/2+z
_cell_length_a                   6.6162(6)
_cell_length_b                   8.2161(8)
_cell_length_c                   21.597(2)
_cell_angle_alpha                90
_cell_angle_beta                 91.489(2)
_cell_angle_gamma                90
_cell_volume                     1173.6
_chemical_melting_point          '335 deg.C(dec.)'
_cell_formula_units_Z            4
loop_
_atom_site_label
_atom_site_type_symbol
_atom_site_fract_x
_atom_site_fract_y
_atom_site_fract_z
O1 O 0.50648(15) 0.90168(15) 0.08000(6)
N1 N 0.27392(17) 0.88130(17) 0.00166(6)
H1 H 0.3513 0.9396 -0.0208
N2 N -0.06913(19) 0.59668(17) 0.11309(7)
C1 C 0.0924(2) 0.8300(2) -0.02541(8)
C2 C 0.0478(2) 0.8761(2) -0.08603(8)
H2 H 0.1378 0.9417 -0.1070
C3 C -0.1271(3) 0.8260(2) -0.11522(9)
H3 H -0.1552 0.8567 -0.1560
C4 C -0.2626(3) 0.7291(2) -0.08385(9)
H4 H -0.3819 0.6953 -0.1036
C5 C -0.2213(2) 0.6831(2) -0.02381(9)
H5 H -0.3139 0.6185 -0.0034
C6 C -0.0423(2) 0.73118(19) 0.00770(8)
C7 C 0.0240(2) 0.69138(19) 0.06964(8)
C8 C 0.2074(2) 0.7464(2) 0.09483(8)
C9 C 0.3408(2) 0.8478(2) 0.06048(8)
C10 C 0.2289(2) 0.6817(2) 0.15620(8)
C11 C 0.3770(3) 0.6899(2) 0.20337(9)
H6 H 0.4906 0.7552 0.1992
C12 C 0.3514(3) 0.5990(3) 0.25647(9)
H7 H 0.4493 0.6027 0.2881
C13 C 0.1819(4) 0.5025(3) 0.26314(10)
H8 H 0.1709 0.4402 0.2989
C14 C 0.0306(3) 0.4955(2) 0.21914(9)
H9 H -0.0843 0.4325 0.2247
C15 C 0.0551(2) 0.5867(2) 0.16556(8)
C16 C -0.2644(2) 0.5152(2) 0.10715(10)
H10 H -0.2928 0.4603 0.1452
H11 H -0.2610 0.4375 0.0740
H12 H -0.3680 0.5943 0.0983
loop_
_geom_bond_atom_site_label_1
_geom_bond_atom_site_label_2
_geom_bond_site_symmetry_1
_geom_bond_site_symmetry_2
O1 C9 1_555 1_555
N1 H1 1_555 1_555
N2 C7 1_555 1_555
C1 N1 1_555 1_555
C2 C1 1_555 1_555
H2 C2 1_555 1_555
C3 C2 1_555 1_555
H3 C3 1_555 1_555
C4 C3 1_555 1_555
H4 C4 1_555 1_555
C5 C4 1_555 1_555
H5 C5 1_555 1_555
C6 C1 1_555 1_555
C7 C6 1_555 1_555
C8 C7 1_555 1_555
C9 N1 1_555 1_555
C10 C8 1_555 1_555
C11 C10 1_555 1_555
H6 C11 1_555 1_555
C12 C11 1_555 1_555
H7 C12 1_555 1_555
C13 C12 1_555 1_555
H8 C13 1_555 1_555
C14 C13 1_555 1_555
H9 C14 1_555 1_555
C15 N2 1_555 1_555
C16 N2 1_555 1_555
H10 C16 1_555 1_555
H11 C16 1_555 1_555
H12 C16 1_555 1_555
C5 C6 1_555 1_555
C8 C9 1_555 1_555
C10 C15 1_555 1_555
C14 C15 1_555 1_555

#END
