
#######################################################################
#
#                 Cambridge Crystallographic Data Centre
#                                CCDC 
#
#######################################################################
#
# If this CIF has been generated from an entry in the Cambridge 
# Structural Database, then it will include bibliographic, chemical, 
# crystal, experimental, refinement or atomic coordinate data resulting 
# from the CCDC's data processing and validation procedures.
#
#######################################################################

data_ABACOW
_chemical_formula_moiety         'C16 H16 N2 O1'
_chemical_name_systematic        
4,10-Dimethyl-2,3,4,10-tetrahydrocyclopenta(5,6)pyrido(4,3-b)indol-5(1H)-one
_symmetry_cell_setting           monoclinic
_symmetry_space_group_name_H-M   'C 2/c'
_symmetry_Int_Tables_number      15
_space_group_name_Hall           '-C 2yn'
loop_
_symmetry_equiv_pos_site_id
_symmetry_equiv_pos_as_xyz
1 x,y,z
2 1/2+x,1/2+y,z
3 -x,y,1/2-z
4 1/2-x,1/2+y,1/2-z
5 -x,-y,-z
6 1/2-x,1/2-y,-z
7 x,-y,1/2+z
8 1/2+x,1/2-y,1/2+z
_cell_length_a                   18.122(3)
_cell_length_b                   7.3980(10)
_cell_length_c                   20.076(2)
_cell_angle_alpha                90
_cell_angle_beta                 111.760(10)
_cell_angle_gamma                90
_cell_volume                     2499.74
_exptl_crystal_colour            brown
_chemical_melting_point          '238-240 deg.C'
_cell_formula_units_Z            8
loop_
_atom_site_label
_atom_site_type_symbol
_atom_site_fract_x
_atom_site_fract_y
_atom_site_fract_z
O1 O 0.11891(15) 0.0326(4) 0.47252(12)
N1 N 0.2521(2) 0.0092(4) 0.49249(14)
N2 N 0.28540(15) -0.1845(4) 0.69350(13)
C1 C 0.3281(2) -0.0343(5) 0.5363(2)
C2 C 0.3992(2) -0.0122(6) 0.5158(2)
H1 H 0.4110(2) 0.1146(6) 0.5124(2)
H2 H 0.3908(2) -0.0706(6) 0.4703(2)
C3 C 0.4657(2) -0.1046(6) 0.5771(2)
H3 H 0.5126(2) -0.0282(6) 0.5938(2)
H4 H 0.4797(2) -0.2185(6) 0.5610(2)
C4 C 0.4352(2) -0.1371(6) 0.6377(2)
H5 H 0.4449(2) -0.2608(6) 0.6548(2)
H6 H 0.4607(2) -0.0559(6) 0.6776(2)
C5 C 0.3477(2) -0.0992(5) 0.6039(2)
C6 C 0.2845(2) -0.1203(5) 0.6287(2)
C7 C 0.2069(2) -0.0781(5) 0.5848(2)
C8 C 0.1869(2) -0.0098(5) 0.5136(2)
C9 C 0.1573(2) -0.1176(5) 0.6241(2)
C10 C 0.0756(2) -0.1044(5) 0.6098(2)
H7 H 0.0410(2) -0.0604(5) 0.5659(2)
C11 C 0.0476(2) -0.1577(5) 0.6615(2)
H8 H -0.0065(2) -0.1497(5) 0.6524(2)
C12 C 0.0987(2) -0.2232(5) 0.7272(2)
H9 H 0.0778(2) -0.2578(5) 0.7612(2)
C13 C 0.1797(2) -0.2385(5) 0.7437(2)
H10 H 0.2137(2) -0.2832(5) 0.7876(2)
C14 C 0.2075(2) -0.1839(5) 0.6915(2)
C15 C 0.2351(3) 0.0779(6) 0.4194(2)
H11 H 0.2836(3) 0.0835(29) 0.4105(5)
H12 H 0.2124(13) 0.1966(14) 0.4149(4)
H13 H 0.1984(11) -0.0017(18) 0.3852(2)
C16 C 0.3540(2) -0.2325(5) 0.7563(2)
H14 H 0.3960(5) -0.2736(28) 0.7417(2)
H15 H 0.3399(4) -0.3270(21) 0.7821(7)
H16 H 0.3717(8) -0.1285(9) 0.7867(6)
loop_
_geom_bond_atom_site_label_1
_geom_bond_atom_site_label_2
_geom_bond_site_symmetry_1
_geom_bond_site_symmetry_2
O1 C8 1_555 1_555
N1 C1 1_555 1_555
N2 C6 1_555 1_555
C1 C2 1_555 1_555
C2 H1 1_555 1_555
H2 C2 1_555 1_555
C3 C2 1_555 1_555
H3 C3 1_555 1_555
H4 C3 1_555 1_555
C4 C3 1_555 1_555
H5 C4 1_555 1_555
H6 C4 1_555 1_555
C5 C1 1_555 1_555
C6 C5 1_555 1_555
C7 C6 1_555 1_555
C8 N1 1_555 1_555
C9 C7 1_555 1_555
C10 C9 1_555 1_555
H7 C10 1_555 1_555
C11 C10 1_555 1_555
H8 C11 1_555 1_555
C12 C11 1_555 1_555
H9 C12 1_555 1_555
C13 C12 1_555 1_555
H10 C13 1_555 1_555
C14 N2 1_555 1_555
C15 N1 1_555 1_555
H11 C15 1_555 1_555
H12 C15 1_555 1_555
H13 C15 1_555 1_555
C16 N2 1_555 1_555
H14 C16 1_555 1_555
H15 C16 1_555 1_555
H16 C16 1_555 1_555
C4 C5 1_555 1_555
C7 C8 1_555 1_555
C9 C14 1_555 1_555
C13 C14 1_555 1_555

#END
