
#######################################################################
#
#                 Cambridge Crystallographic Data Centre
#                                CCDC 
#
#######################################################################
#
# If this CIF has been generated from an entry in the Cambridge 
# Structural Database, then it will include bibliographic, chemical, 
# crystal, experimental, refinement or atomic coordinate data resulting 
# from the CCDC's data processing and validation procedures.
#
#######################################################################

data_ABAGER
_chemical_name_common            
'1-[(Z)-8-(4-Chlorophenoxy)-3-(2,4-difluorophenyl)-4-oxaocta-2-en-2-yl]-1H-1,2,4-triazol-4-ium nitrate'
_chemical_formula_moiety         'C21 H21 Cl1 F2 N3 O2 1+,N1 O3 1-'
_chemical_name_systematic        
'1-(1-(4-(4-Chlorophenoxy)butoxy)-1-(2,4-difluorophenyl)prop-1-en-2-yl)-4H-1,2,4-triazol-1-ium nitrate'
_symmetry_cell_setting           monoclinic
_symmetry_space_group_name_H-M   'P 21/c'
_symmetry_Int_Tables_number      14
_space_group_name_Hall           '-P 2ybc'
loop_
_symmetry_equiv_pos_site_id
_symmetry_equiv_pos_as_xyz
1 x,y,z
2 -x,1/2+y,1/2-z
3 -x,-y,-z
4 x,1/2-y,1/2+z
_cell_length_a                   7.9580(16)
_cell_length_b                   31.635(6)
_cell_length_c                   9.1850(18)
_cell_angle_alpha                90
_cell_angle_beta                 97.29(3)
_cell_angle_gamma                90
_cell_volume                     2293.64
_exptl_crystal_colour            yellow
_exptl_crystal_description       block
_cell_formula_units_Z            4
loop_
_atom_site_label
_atom_site_type_symbol
_atom_site_fract_x
_atom_site_fract_y
_atom_site_fract_z
Cl1 Cl 1.06795(17) 0.98117(4) 0.78129(14)
O1 O 0.5208(3) 0.66925(8) 0.7812(2)
N1 N 0.4023(4) 0.64572(10) 0.5034(3)
F1 F 0.6286(3) 0.51310(8) 1.2146(3)
C1 C 0.4331(5) 0.59449(12) 0.9814(4)
H1 H 0.3389 0.6121 0.9757
O2 O 0.8631(4) 0.80660(8) 0.8732(3)
F2 F 0.7867(3) 0.57220(8) 0.7858(3)
N2 N 0.4433(5) 0.63841(11) 0.3638(3)
C2 C 0.4625(6) 0.56669(14) 1.0964(4)
H2 H 0.3904 0.5656 1.1684
N3 N 0.3111(4) 0.69903(10) 0.3756(3)
H3 H 0.2657 0.7229 0.3485
C3 C 0.5993(7) 0.54084(13) 1.1027(4)
C4 C 0.7106(6) 0.54183(13) 0.9996(4)
H4 H 0.8045 0.5241 1.0054
C5 C 0.6748(6) 0.57053(13) 0.8877(4)
C6 C 0.5399(5) 0.59716(12) 0.8733(4)
C7 C 0.5057(5) 0.62726(12) 0.7499(4)
C8 C 0.4462(5) 0.61470(11) 0.6153(4)
C9 C 0.4189(6) 0.57050(13) 0.5668(4)
H5 H 0.4507 0.5518 0.6480
H6 H 0.4867 0.5645 0.4899
H7 H 0.3014 0.5664 0.5307
C10 C 0.3847(6) 0.67162(14) 0.2922(4)
H8 H 0.3928 0.6760 0.1932
C11 C 0.3222(5) 0.68190(12) 0.5088(4)
H9 H 0.2811 0.6934 0.5905
C12 C 0.6628(5) 0.68174(11) 0.8866(4)
H10 H 0.7679 0.6721 0.8546
H11 H 0.6527 0.6691 0.9813
C13 C 0.6635(5) 0.72830(11) 0.8991(4)
H12 H 0.5584 0.7374 0.9325
H13 H 0.6681 0.7405 0.8028
C14 C 0.8110(5) 0.74505(12) 1.0040(4)
H14 H 0.8013 0.7342 1.1014
H15 H 0.9152 0.7339 0.9746
C15 C 0.8246(5) 0.79196(12) 1.0125(4)
H16 H 0.7186 0.8041 1.0342
H17 H 0.9135 0.8002 1.0895
C16 C 0.9051(5) 0.84798(12) 0.8603(4)
C17 C 0.9642(5) 0.85865(13) 0.7305(4)
H18 H 0.9710 0.8380 0.6593
C18 C 1.0133(5) 0.89934(14) 0.7049(4)
H19 H 1.0538 0.9062 0.6172
C19 C 1.0020(5) 0.93006(13) 0.8108(5)
C20 C 0.9427(6) 0.91986(14) 0.9391(5)
H20 H 0.9355 0.9405 1.0100
C21 C 0.8929(5) 0.87874(13) 0.9644(4)
H21 H 0.8514 0.8720 1.0517
N4 N 0.1836(4) 0.79947(13) 0.3777(4)
O3 O 0.1244(4) 0.83434(11) 0.3510(4)
O4 O 0.2476(4) 0.78801(11) 0.5018(3)
O5 O 0.1781(3) 0.77208(8) 0.2747(3)
loop_
_geom_bond_atom_site_label_1
_geom_bond_atom_site_label_2
_geom_bond_site_symmetry_1
_geom_bond_site_symmetry_2
Cl1 C19 1_555 1_555
O1 C7 1_555 1_555
N1 N2 1_555 1_555
F1 C3 1_555 1_555
C1 H1 1_555 1_555
O2 C15 1_555 1_555
F2 C5 1_555 1_555
N2 C10 1_555 1_555
C2 C1 1_555 1_555
H2 C2 1_555 1_555
N3 H3 1_555 1_555
C3 C2 1_555 1_555
C4 C3 1_555 1_555
H4 C4 1_555 1_555
C5 C4 1_555 1_555
C6 C1 1_555 1_555
C7 C6 1_555 1_555
C8 N1 1_555 1_555
C9 C8 1_555 1_555
H5 C9 1_555 1_555
H6 C9 1_555 1_555
H7 C9 1_555 1_555
C10 N3 1_555 1_555
H8 C10 1_555 1_555
C11 N1 1_555 1_555
H9 C11 1_555 1_555
C12 O1 1_555 1_555
H10 C12 1_555 1_555
H11 C12 1_555 1_555
C13 C12 1_555 1_555
H12 C13 1_555 1_555
H13 C13 1_555 1_555
C14 C13 1_555 1_555
H14 C14 1_555 1_555
H15 C14 1_555 1_555
C15 C14 1_555 1_555
H16 C15 1_555 1_555
H17 C15 1_555 1_555
C16 O2 1_555 1_555
C17 C16 1_555 1_555
H18 C17 1_555 1_555
C18 C17 1_555 1_555
H19 C18 1_555 1_555
C19 C18 1_555 1_555
C20 C19 1_555 1_555
H20 C20 1_555 1_555
C21 C16 1_555 1_555
H21 C21 1_555 1_555
N4 O3 1_555 1_555
O4 N4 1_555 1_555
O5 N4 1_555 1_555
N3 C11 1_555 1_555
C5 C6 1_555 1_555
C7 C8 1_555 1_555
C20 C21 1_555 1_555

#END
