
#######################################################################
#
#                 Cambridge Crystallographic Data Centre
#                                CCDC 
#
#######################################################################
#
# If this CIF has been generated from an entry in the Cambridge 
# Structural Database, then it will include bibliographic, chemical, 
# crystal, experimental, refinement or atomic coordinate data resulting 
# from the CCDC's data processing and validation procedures.
#
#######################################################################

data_ABAHAO
_chemical_formula_moiety         'C20 H23 Cl1 O4'
_chemical_name_systematic        
'3-t-Butyl-2-oxo-1-oxaspiro[4.5]dec-3-en-4-yl 4-chlorobenzoate'
_symmetry_cell_setting           orthorhombic
_symmetry_space_group_name_H-M   'F d d 2'
_symmetry_Int_Tables_number      43
_space_group_name_Hall           'F 2 -2d'
loop_
_symmetry_equiv_pos_site_id
_symmetry_equiv_pos_as_xyz
1 x,y,z
2 -x,-y,z
3 1/4-x,1/4+y,1/4+z
4 1/4+x,1/4-y,1/4+z
5 x,1/2+y,1/2+z
6 -x,1/2-y,1/2+z
7 1/4-x,3/4+y,3/4+z
8 1/4+x,3/4-y,3/4+z
9 1/2+x,y,1/2+z
10 1/2-x,-y,1/2+z
11 3/4-x,1/4+y,3/4+z
12 3/4+x,1/4-y,3/4+z
13 1/2+x,1/2+y,z
14 1/2-x,1/2-y,z
15 3/4-x,3/4+y,1/4+z
16 3/4+x,3/4-y,1/4+z
_cell_length_a                   36.8219(15)
_cell_length_b                   15.9526(7)
_cell_length_c                   25.9325(9)
_cell_angle_alpha                90
_cell_angle_beta                 90
_cell_angle_gamma                90
_cell_volume                     15232.9
_exptl_crystal_colour            colorless
_exptl_crystal_description       chunk
_cell_formula_units_Z            32
loop_
_atom_site_label
_atom_site_type_symbol
_atom_site_fract_x
_atom_site_fract_y
_atom_site_fract_z
Cl1 Cl 0.00315(2) 0.38122(5) 0.00660(3)
O2 O 0.09043(4) 0.47091(10) 0.22402(5)
O3 O 0.14790(4) 0.46113(10) 0.33631(5)
C2 C 0.10596(6) 0.48188(14) 0.27256(7)
O6 O 0.12617(5) 0.55399(11) 0.39264(6)
O8 O 0.04964(5) 0.38007(13) 0.25749(7)
C6 C 0.04755(6) 0.41041(15) 0.16718(8)
C7 C 0.13868(6) 0.43041(15) 0.28488(8)
C8 C 0.09730(6) 0.53748(15) 0.30876(8)
C9 C 0.02002(7) 0.39289(16) 0.06878(9)
C12 C 0.12374(6) 0.52220(16) 0.35084(8)
C14 C 0.13225(7) 0.33631(15) 0.28790(9)
H1 H 0.1132 0.3250 0.3127
H2 H 0.1242 0.3160 0.2545
C16 C 0.06847(7) 0.60518(16) 0.31275(9)
C18 C 0.06230(7) 0.45537(17) 0.12668(9)
H8 H 0.0815 0.4919 0.1326
C20 C 0.06147(7) 0.41611(16) 0.22033(9)
C21 C 0.04845(7) 0.44605(18) 0.07712(9)
H9 H 0.0585 0.4759 0.0498
C24 C 0.17047(7) 0.44987(17) 0.24881(10)
H13 H 0.1636 0.4361 0.2137
H14 H 0.1757 0.5094 0.2501
C25 C 0.01904(7) 0.35653(18) 0.15744(10)
H15 H 0.0091 0.3257 0.1844
C28 C 0.16645(8) 0.28981(18) 0.30364(10)
H21 H 0.1735 0.3070 0.3381
H22 H 0.1616 0.2301 0.3044
C32 C 0.00512(7) 0.34772(18) 0.10824(10)
H27 H -0.0142 0.3115 0.1021
C34 C 0.20449(7) 0.40152(19) 0.26288(12)
H31 H 0.2136 0.4217 0.2957
H32 H 0.2230 0.4115 0.2370
C37 C 0.04307(9) 0.5836(3) 0.35757(13)
H36 H 0.0310 0.5316 0.3505
H37 H 0.0254 0.6273 0.3616
H38 H 0.0570 0.5784 0.3887
C38 C 0.08709(10) 0.68975(19) 0.32289(14)
H39 H 0.1028 0.6848 0.3523
H40 H 0.0690 0.7317 0.3295
H41 H 0.1011 0.7055 0.2932
C39 C 0.04636(9) 0.6131(2) 0.26344(12)
H42 H 0.0624 0.6222 0.2348
H43 H 0.0299 0.6596 0.2664
H44 H 0.0328 0.5625 0.2579
C40 C 0.19715(8) 0.30731(19) 0.26668(11)
H45 H 0.1910 0.2856 0.2328
H46 H 0.2189 0.2789 0.2784
Cl2 Cl -0.02194(3) 0.11218(7) 0.13048(3)
O1 O 0.06396(4) 0.16471(9) 0.35364(5)
O4 O 0.11282(5) 0.08114(12) 0.46213(5)
C1 C 0.09622(6) 0.06880(15) 0.41161(7)
O5 O 0.00787(5) 0.14032(14) 0.38558(7)
C3 C 0.08669(6) 0.20953(15) 0.43892(7)
O7 O 0.12353(6) 0.18768(14) 0.51548(7)
C4 C 0.08012(6) 0.15335(14) 0.40187(7)
C5 C 0.02723(7) 0.14902(15) 0.34900(9)
C10 C 0.07750(7) 0.30075(14) 0.44688(8)
C11 C 0.01616(7) 0.14247(15) 0.29445(8)
C13 C 0.10901(8) 0.16266(17) 0.47698(9)
C15 C 0.12637(7) 0.04672(16) 0.37402(9)
H3 H 0.1447 0.0905 0.3746
H4 H 0.1165 0.0438 0.3394
C17 C 0.05873(8) 0.31114(17) 0.49930(9)
H5 H 0.0366 0.2792 0.4997
H6 H 0.0532 0.3693 0.5049
H7 H 0.0746 0.2915 0.5261
C19 C -0.00723(8) 0.12364(18) 0.19398(10)
C22 C 0.06823(8) -0.00147(16) 0.41604(9)
H10 H 0.0507 0.0128 0.4425
H11 H 0.0553 -0.0068 0.3836
C23 C 0.02832(8) 0.14396(19) 0.20332(9)
H12 H 0.0444 0.1510 0.1760
C26 C 0.05240(9) 0.33359(18) 0.40462(10)
H16 H 0.0638 0.3265 0.3716
H17 H 0.0476 0.3920 0.4104
H18 H 0.0300 0.3029 0.4053
C27 C 0.08588(9) -0.08465(18) 0.42932(11)
H19 H 0.0958 -0.0818 0.4639
H20 H 0.0676 -0.1285 0.4287
C29 C 0.04022(7) 0.15393(17) 0.25371(9)
H23 H 0.0643 0.1683 0.2602
C30 C -0.01944(7) 0.12262(18) 0.28364(10)
H24 H -0.0358 0.1156 0.3107
C31 C 0.14402(8) -0.03720(19) 0.38767(10)
H25 H 0.1617 -0.0518 0.3614
H26 H 0.1567 -0.0320 0.4203
C33 C 0.11281(9) 0.3518(2) 0.44694(12)
H28 H 0.1289 0.3303 0.4729
H29 H 0.1074 0.4095 0.4542
H30 H 0.1242 0.3477 0.4138
C35 C -0.03141(8) 0.1130(2) 0.23358(11)
H33 H -0.0555 0.0995 0.2268
C36 C 0.11592(9) -0.10624(18) 0.39169(12)
H34 H 0.1277 -0.1576 0.4027
H35 H 0.1054 -0.1162 0.3579
loop_
_geom_bond_atom_site_label_1
_geom_bond_atom_site_label_2
_geom_bond_site_symmetry_1
_geom_bond_site_symmetry_2
Cl1 C9 1_555 1_555
Cl2 C19 1_555 1_555
O1 C4 1_555 1_555
O2 C2 1_555 1_555
O3 C7 1_555 1_555
O4 C1 1_555 1_555
C1 C4 1_555 1_555
O5 C5 1_555 1_555
C2 C7 1_555 1_555
C3 C4 1_555 1_555
O6 C12 1_555 1_555
O7 C13 1_555 1_555
O8 C20 1_555 1_555
C5 O1 1_555 1_555
C6 C18 1_555 1_555
C7 C14 1_555 1_555
C8 C2 1_555 1_555
C9 C21 1_555 1_555
C10 C3 1_555 1_555
C11 C5 1_555 1_555
C12 O3 1_555 1_555
C13 O4 1_555 1_555
C14 H1 1_555 1_555
H2 C14 1_555 1_555
C15 C1 1_555 1_555
H3 C15 1_555 1_555
H4 C15 1_555 1_555
C16 C8 1_555 1_555
C17 C10 1_555 1_555
H5 C17 1_555 1_555
H6 C17 1_555 1_555
H7 C17 1_555 1_555
C18 H8 1_555 1_555
C19 C23 1_555 1_555
C20 O2 1_555 1_555
C21 C18 1_555 1_555
H9 C21 1_555 1_555
C22 C1 1_555 1_555
H10 C22 1_555 1_555
H11 C22 1_555 1_555
C23 H12 1_555 1_555
C24 C7 1_555 1_555
H13 C24 1_555 1_555
H14 C24 1_555 1_555
C25 C6 1_555 1_555
H15 C25 1_555 1_555
C26 C10 1_555 1_555
H16 C26 1_555 1_555
H17 C26 1_555 1_555
H18 C26 1_555 1_555
C27 C22 1_555 1_555
H19 C27 1_555 1_555
H20 C27 1_555 1_555
C28 C14 1_555 1_555
H21 C28 1_555 1_555
H22 C28 1_555 1_555
C29 C11 1_555 1_555
H23 C29 1_555 1_555
C30 C11 1_555 1_555
H24 C30 1_555 1_555
C31 C15 1_555 1_555
H25 C31 1_555 1_555
H26 C31 1_555 1_555
C32 C9 1_555 1_555
H27 C32 1_555 1_555
C33 C10 1_555 1_555
H28 C33 1_555 1_555
H29 C33 1_555 1_555
H30 C33 1_555 1_555
C34 C24 1_555 1_555
H31 C34 1_555 1_555
H32 C34 1_555 1_555
C35 C19 1_555 1_555
H33 C35 1_555 1_555
C36 C27 1_555 1_555
H34 C36 1_555 1_555
H35 C36 1_555 1_555
C37 C16 1_555 1_555
H36 C37 1_555 1_555
H37 C37 1_555 1_555
H38 C37 1_555 1_555
C38 C16 1_555 1_555
H39 C38 1_555 1_555
H40 C38 1_555 1_555
H41 C38 1_555 1_555
C39 C16 1_555 1_555
H42 C39 1_555 1_555
H43 C39 1_555 1_555
H44 C39 1_555 1_555
C40 C28 1_555 1_555
H45 C40 1_555 1_555
H46 C40 1_555 1_555
C3 C13 1_555 1_555
C6 C20 1_555 1_555
C8 C12 1_555 1_555
C23 C29 1_555 1_555
C25 C32 1_555 1_555
C30 C35 1_555 1_555
C31 C36 1_555 1_555
C34 C40 1_555 1_555

#END
