
#######################################################################
#
#                 Cambridge Crystallographic Data Centre
#                                CCDC 
#
#######################################################################
#
# If this CIF has been generated from an entry in the Cambridge 
# Structural Database, then it will include bibliographic, chemical, 
# crystal, experimental, refinement or atomic coordinate data resulting 
# from the CCDC's data processing and validation procedures.
#
#######################################################################

data_ABAMUN
_chemical_formula_moiety         'C27 H31 F1 N2 O1 2+,H2 O1,2(Cl1 1-)'
_chemical_name_systematic        
'1-(Diphenylmethyl)-4-(4-(4-fluorophenyl)-4-oxobutyl)piperazinediium dichloride monohydrate'
_symmetry_cell_setting           monoclinic
_symmetry_space_group_name_H-M   'C 2/c'
_symmetry_Int_Tables_number      15
_space_group_name_Hall           '-C 2yn'
loop_
_symmetry_equiv_pos_site_id
_symmetry_equiv_pos_as_xyz
1 x,y,z
2 -x,y,1/2-z
3 1/2+x,1/2+y,z
4 1/2-x,1/2+y,1/2-z
5 -x,-y,-z
6 x,-y,1/2+z
7 1/2-x,1/2-y,-z
8 1/2+x,1/2-y,1/2+z
_cell_length_a                   39.2849(14)
_cell_length_b                   7.3369(3)
_cell_length_c                   19.5158(7)
_cell_angle_alpha                90
_cell_angle_beta                 107.773(2)
_cell_angle_gamma                90
_cell_volume                     5356.56
_exptl_crystal_colour            colorless
_exptl_crystal_description       prismatic
_cell_formula_units_Z            8
loop_
_atom_site_label
_atom_site_type_symbol
_atom_site_fract_x
_atom_site_fract_y
_atom_site_fract_z
F1 F 0.40283(5) 0.3181(3) 0.13299(11)
N1 N 0.19895(4) 1.1685(2) 0.12880(9)
H1 H 0.2087 1.2821 0.1339
N2 N 0.12309(4) 1.2321(2) 0.10926(8)
H2 H 0.1166 1.1127 0.1041
O1 O 0.31404(6) 1.0374(3) 0.04357(12)
C1 C 0.37946(8) 0.4599(4) 0.11920(14)
C2 C 0.38710(7) 0.6077(5) 0.08508(15)
H3 H 0.4078 0.6117 0.0714
C3 C 0.36369(7) 0.7509(4) 0.07114(13)
H4 H 0.3688 0.8540 0.0482
C4 C 0.33248(6) 0.7454(3) 0.09058(11)
C5 C 0.32535(7) 0.5884(3) 0.12420(12)
H5 H 0.3044 0.5807 0.1368
C6 C 0.34905(8) 0.4448(4) 0.13884(14)
H6 H 0.3445 0.3403 0.1615
C7 C 0.30841(6) 0.9070(3) 0.07606(12)
C8 C 0.27859(7) 0.9051(4) 0.10829(17)
H7 H 0.2890 0.9003 0.1602
H8 H 0.2652 0.7931 0.0936
C9 C 0.25220(6) 1.0625(3) 0.09051(14)
H9 H 0.2646 1.1783 0.1017
H10 H 0.2385 1.0613 0.0399
C10 C 0.22818(6) 1.0325(3) 0.13699(13)
H11 H 0.2175 0.9126 0.1263
H12 H 0.2429 1.0319 0.1869
C11 C 0.18253(5) 1.1380(3) 0.18779(11)
H13 H 0.2003 1.1619 0.2337
H14 H 0.1754 1.0113 0.1873
C12 C 0.15059(5) 1.2567(3) 0.18091(11)
H15 H 0.1402 1.2264 0.2187
H16 H 0.1580 1.3833 0.1868
C13 C 0.14022(5) 1.2799(3) 0.05275(11)
H17 H 0.1484 1.4053 0.0591
H18 H 0.1227 1.2691 0.0055
C14 C 0.17127(5) 1.1568(3) 0.05701(11)
H19 H 0.1629 1.0321 0.0482
H20 H 0.1818 1.1905 0.0199
C15 C 0.08987(5) 1.3469(3) 0.10174(11)
H21 H 0.0973 1.4748 0.1041
C16 C 0.06201(5) 1.3197(3) 0.02871(11)
C17 C 0.04723(6) 1.4723(4) -0.01065(13)
H22 H 0.0555 1.5876 0.0063
C18 C 0.02014(7) 1.4545(5) -0.07510(15)
H23 H 0.0100 1.5580 -0.1008
C19 C 0.00813(7) 1.2854(5) -0.10126(14)
H24 H -0.0099 1.2742 -0.1449
C20 C 0.02270(7) 1.1335(4) -0.06319(14)
H25 H 0.0146 1.0187 -0.0810
C21 C 0.04927(6) 1.1494(4) 0.00130(13)
H26 H 0.0589 1.0450 0.0270
C22 C 0.07512(5) 1.3157(3) 0.16414(11)
C23 C 0.06211(7) 1.1488(4) 0.17795(13)
H27 H 0.0631 1.0490 0.1493
C24 C 0.04770(8) 1.1286(5) 0.23378(15)
H28 H 0.0392 1.0157 0.2427
C25 C 0.04600(8) 1.2757(5) 0.27604(15)
H29 H 0.0360 1.2629 0.3133
C26 C 0.05902(8) 1.4419(5) 0.26328(15)
H30 H 0.0579 1.5415 0.2920
C27 C 0.07369(6) 1.4609(4) 0.20780(13)
H31 H 0.0827 1.5733 0.1998
Cl1 Cl 0.113600(17) 0.81655(8) 0.10513(4)
Cl2 Cl 0.231844(18) 1.53814(9) 0.16249(4)
O2 O 0.17734(9) 1.6776(4) 0.24451(15)
H32 H 0.1952(5) 1.647(4) 0.2183(13)
H33 H 0.1574(5) 1.726(4) 0.2022(12)
loop_
_geom_bond_atom_site_label_1
_geom_bond_atom_site_label_2
_geom_bond_site_symmetry_1
_geom_bond_site_symmetry_2
F1 C1 1_555 1_555
N1 H1 1_555 1_555
N2 H2 1_555 1_555
O1 C7 1_555 1_555
O2 H32 1_555 1_555
C1 C2 1_555 1_555
C2 H3 1_555 1_555
C3 C2 1_555 1_555
H4 C3 1_555 1_555
C4 C3 1_555 1_555
C5 C4 1_555 1_555
H5 C5 1_555 1_555
C6 C1 1_555 1_555
H6 C6 1_555 1_555
C7 C4 1_555 1_555
C8 C7 1_555 1_555
H7 C8 1_555 1_555
H8 C8 1_555 1_555
C9 C8 1_555 1_555
H9 C9 1_555 1_555
H10 C9 1_555 1_555
C10 N1 1_555 1_555
H11 C10 1_555 1_555
H12 C10 1_555 1_555
C11 N1 1_555 1_555
H13 C11 1_555 1_555
H14 C11 1_555 1_555
C12 N2 1_555 1_555
H15 C12 1_555 1_555
H16 C12 1_555 1_555
C13 N2 1_555 1_555
H17 C13 1_555 1_555
H18 C13 1_555 1_555
C14 N1 1_555 1_555
H19 C14 1_555 1_555
H20 C14 1_555 1_555
C15 N2 1_555 1_555
H21 C15 1_555 1_555
C16 C15 1_555 1_555
C17 C16 1_555 1_555
H22 C17 1_555 1_555
C18 C17 1_555 1_555
H23 C18 1_555 1_555
C19 C18 1_555 1_555
H24 C19 1_555 1_555
C20 C19 1_555 1_555
H25 C20 1_555 1_555
C21 C16 1_555 1_555
H26 C21 1_555 1_555
C22 C15 1_555 1_555
C23 C22 1_555 1_555
H27 C23 1_555 1_555
C24 C23 1_555 1_555
H28 C24 1_555 1_555
C25 C24 1_555 1_555
H29 C25 1_555 1_555
C26 C25 1_555 1_555
H30 C26 1_555 1_555
C27 C22 1_555 1_555
H31 C27 1_555 1_555
H33 O2 1_555 1_555
C5 C6 1_555 1_555
C9 C10 1_555 1_555
C11 C12 1_555 1_555
C13 C14 1_555 1_555
C20 C21 1_555 1_555
C26 C27 1_555 1_555

#END
