
#######################################################################
#
#                 Cambridge Crystallographic Data Centre
#                                CCDC 
#
#######################################################################
#
# If this CIF has been generated from an entry in the Cambridge 
# Structural Database, then it will include bibliographic, chemical, 
# crystal, experimental, refinement or atomic coordinate data resulting 
# from the CCDC's data processing and validation procedures.
#
#######################################################################

data_ABAPIE
_chemical_formula_moiety         'C20 H21 N1 O4'
_chemical_name_systematic        
'(E)-Methyl 3-(4-ethylphenyl)-2-(2-[(E)-(hydroxyimino)methyl]phenoxymethyl)acrylate'
_symmetry_cell_setting           triclinic
_symmetry_space_group_name_H-M   'P -1'
_symmetry_Int_Tables_number      2
_space_group_name_Hall           '-P 1'
loop_
_symmetry_equiv_pos_site_id
_symmetry_equiv_pos_as_xyz
1 x,y,z
2 -x,-y,-z
_cell_length_a                   9.0053(2)
_cell_length_b                   9.3655(3)
_cell_length_c                   12.1793(3)
_cell_angle_alpha                75.2990(10)
_cell_angle_beta                 74.7560(10)
_cell_angle_gamma                64.8910(10)
_cell_volume                     885.43
_exptl_crystal_colour            white
_exptl_crystal_description       block
_cell_formula_units_Z            2
loop_
_atom_site_label
_atom_site_type_symbol
_atom_site_fract_x
_atom_site_fract_y
_atom_site_fract_z
C1 C -0.16884(13) 0.61894(13) 0.41644(9)
C2 C -0.25120(16) 0.53924(17) 0.50619(11)
H1 H -0.3220 0.5916 0.5669
C3 C -0.23045(18) 0.38465(18) 0.50735(13)
H2 H -0.2877 0.3337 0.5677
C4 C -0.12419(17) 0.30617(16) 0.41841(13)
H3 H -0.1100 0.2017 0.4190
C5 C -0.03793(15) 0.38050(15) 0.32794(11)
H4 H 0.0334 0.3263 0.2682
C6 C -0.05852(12) 0.53598(13) 0.32705(9)
C7 C -0.19037(14) 0.78288(14) 0.41442(10)
H5 H -0.1036 0.8170 0.3784
C8 C 0.13999(13) 0.54048(14) 0.15190(10)
H6 H 0.0841 0.5207 0.1027
H7 H 0.2179 0.4387 0.1839
C9 C 0.23062(13) 0.64543(14) 0.08369(9)
C10 C 0.39509(14) 0.61395(15) 0.11024(10)
C11 C 0.58541(18) 0.4676(2) 0.23780(14)
H8 H 0.6696 0.4611 0.1697
H9 H 0.6146 0.3663 0.2880
H10 H 0.5773 0.5483 0.2769
C12 C 0.17940(13) 0.76549(14) -0.00239(10)
H11 H 0.2523 0.8176 -0.0358
C13 C 0.02946(14) 0.82890(14) -0.05290(10)
C14 C -0.11884(15) 0.80690(17) -0.00057(11)
H12 H -0.1272 0.7486 0.0734
C15 C -0.25321(16) 0.87026(18) -0.05692(12)
H13 H -0.3495 0.8518 -0.0205
C16 C -0.24822(16) 0.96077(15) -0.16646(11)
C17 C -0.10288(17) 0.98621(16) -0.21751(11)
H14 H -0.0966 1.0479 -0.2903
C18 C 0.03252(15) 0.92197(15) -0.16260(11)
H15 H 0.1284 0.9410 -0.1994
C19 C -0.3973(2) 1.0316(2) -0.22612(15)
H16 H -0.4829 1.1184 -0.1881
H17 H -0.3646 1.0766 -0.3051
C20 C -0.4694(3) 0.9162(3) -0.2271(2)
H18 H -0.3902 0.8366 -0.2726
H19 H -0.5691 0.9716 -0.2597
H20 H -0.4954 0.8656 -0.1496
N1 N -0.32728(13) 0.87907(12) 0.46171(9)
O1 O -0.32289(13) 1.02929(12) 0.45450(10)
H21 H -0.4168 1.0924 0.4764
O2 O 0.01993(10) 0.62061(9) 0.24319(7)
O3 O 0.42776(12) 0.50810(14) 0.20593(8)
O4 O 0.49093(12) 0.67314(14) 0.05241(10)
loop_
_geom_bond_atom_site_label_1
_geom_bond_atom_site_label_2
_geom_bond_site_symmetry_1
_geom_bond_site_symmetry_2
C1 C2 1_555 1_555
C2 H1 1_555 1_555
C3 C2 1_555 1_555
H2 C3 1_555 1_555
C4 C3 1_555 1_555
H3 C4 1_555 1_555
C5 C4 1_555 1_555
H4 C5 1_555 1_555
C6 C1 1_555 1_555
C7 C1 1_555 1_555
H5 C7 1_555 1_555
C8 H6 1_555 1_555
H7 C8 1_555 1_555
C9 C8 1_555 1_555
C10 C9 1_555 1_555
C11 H8 1_555 1_555
H9 C11 1_555 1_555
H10 C11 1_555 1_555
C12 C9 1_555 1_555
H11 C12 1_555 1_555
C13 C12 1_555 1_555
C14 C13 1_555 1_555
H12 C14 1_555 1_555
C15 C14 1_555 1_555
H13 C15 1_555 1_555
C16 C15 1_555 1_555
C17 C16 1_555 1_555
H14 C17 1_555 1_555
C18 C13 1_555 1_555
H15 C18 1_555 1_555
C19 C16 1_555 1_555
H16 C19 1_555 1_555
H17 C19 1_555 1_555
C20 C19 1_555 1_555
H18 C20 1_555 1_555
H19 C20 1_555 1_555
H20 C20 1_555 1_555
N1 C7 1_555 1_555
O1 N1 1_555 1_555
H21 O1 1_555 1_555
O2 C6 1_555 1_555
O3 C10 1_555 1_555
O4 C10 1_555 1_555
C5 C6 1_555 1_555
C8 O2 1_555 1_555
C11 O3 1_555 1_555
C17 C18 1_555 1_555

#END
