
#######################################################################
#
#                 Cambridge Crystallographic Data Centre
#                                CCDC 
#
#######################################################################
#
# If this CIF has been generated from an entry in the Cambridge 
# Structural Database, then it will include bibliographic, chemical, 
# crystal, experimental, refinement or atomic coordinate data resulting 
# from the CCDC's data processing and validation procedures.
#
#######################################################################

data_ABATAB
_chemical_formula_moiety         'C26 H25 N3 O6 S1'
_chemical_name_systematic        
'ethyl 4-(benzyl((4-methylphenyl)sulfonyl)amino)-2-(2,2-dicyano-1-ethoxyvinyl)-4-oxobut-2-enoate'
_symmetry_cell_setting           triclinic
_symmetry_space_group_name_H-M   'P -1'
_symmetry_Int_Tables_number      2
_space_group_name_Hall           '-P 1'
loop_
_symmetry_equiv_pos_site_id
_symmetry_equiv_pos_as_xyz
1 x,y,z
2 -x,-y,-z
_cell_length_a                   10.1160(4)
_cell_length_b                   11.5544(4)
_cell_length_c                   11.7110(4)
_cell_angle_alpha                87.1294(9)
_cell_angle_beta                 78.5789(8)
_cell_angle_gamma                71.8413(8)
_cell_volume                     1274.81
_exptl_crystal_colour            colorless
_exptl_crystal_description       irregular
_cell_formula_units_Z            2
loop_
_atom_site_label
_atom_site_type_symbol
_atom_site_fract_x
_atom_site_fract_y
_atom_site_fract_z
S1 S 1.18377(2) 0.10718(2) 0.37966(2)
O1 O 0.60323(7) 0.27687(6) 0.30387(6)
O2 O 0.88272(7) 0.16200(6) 0.39829(5)
O3 O 0.58542(8) 0.07169(6) 0.12719(7)
O4 O 0.69388(7) -0.09918(6) 0.21807(6)
O5 O 1.33094(7) 0.04887(6) 0.33398(7)
O6 O 1.12852(8) 0.10017(6) 0.50101(6)
N1 N 1.09838(8) 0.04092(7) 0.30467(6)
N2 N 0.99986(9) 0.14541(8) -0.00507(8)
N3 N 0.73476(11) 0.50186(9) 0.14192(12)
C1 C 0.42132(11) 0.31227(11) 0.47497(10)
H1 H 0.4605 0.3697 0.5048
H2 H 0.3740 0.2744 0.5405
H3 H 0.3526 0.3559 0.4270
C2 C 0.53953(10) 0.21507(9) 0.40216(9)
H4 H 0.6112 0.1718 0.4489
H5 H 0.5018 0.1550 0.3734
C3 C 0.71550(9) 0.21050(8) 0.23077(8)
C4 C 0.76066(9) 0.07480(8) 0.23372(7)
C5 C 0.87810(9) 0.01154(8) 0.27186(7)
H6 H 0.9144 -0.0744 0.2619
C6 C 0.95167(9) 0.07859(8) 0.33062(7)
C7 C 1.13635(9) 0.25959(8) 0.33645(8)
C8 C 1.02220(10) 0.34564(8) 0.40298(8)
H7 H 0.9737 0.3239 0.4747
C9 C 0.98056(11) 0.46402(9) 0.36238(10)
H8 H 0.9029 0.5235 0.4073
C10 C 1.05031(11) 0.49738(9) 0.25716(10)
C11 C 1.00137(14) 0.62513(11) 0.21259(14)
H9 H 0.9339 0.6783 0.2748
H10 H 0.9551 0.6254 0.1465
H11 H 1.0832 0.6549 0.1874
C12 C 0.78964(9) 0.26835(8) 0.14994(8)
C13 C 0.90625(10) 0.19941(9) 0.06455(8)
C14 C 0.75653(10) 0.39830(9) 0.14697(10)
C15 C 0.67012(9) 0.01610(8) 0.18577(7)
C16 C 0.61122(10) -0.16603(9) 0.17546(8)
H12 H 0.5106 -0.1152 0.1868
H13 H 0.6163 -0.2412 0.2212
C17 C 0.66581(11) -0.19915(9) 0.04839(8)
H14 H 0.6458 -0.1251 0.0017
H15 H 0.6188 -0.2543 0.0254
H16 H 0.7684 -0.2396 0.0353
C18 C 1.17767(9) -0.03381(8) 0.19967(7)
H17 H 1.2535 0.0001 0.1607
H18 H 1.1124 -0.0268 0.1451
C19 C 1.24402(9) -0.16714(8) 0.22264(7)
C20 C 1.32404(9) -0.24222(8) 0.12726(8)
H19 H 1.3336 -0.2090 0.0513
C21 C 1.38943(10) -0.36510(9) 0.14333(9)
H20 H 1.4435 -0.4157 0.0782
C22 C 1.37621(11) -0.41462(9) 0.25436(10)
H21 H 1.4215 -0.4986 0.2653
C23 C 1.29632(10) -0.34030(9) 0.34891(9)
H22 H 1.2870 -0.3737 0.4248
C24 C 1.22946(10) -0.21649(8) 0.33339(8)
H23 H 1.1742 -0.1663 0.3984
C25 C 1.21127(11) 0.29079(9) 0.23246(8)
H24 H 1.2909 0.2318 0.1890
C26 C 1.16716(12) 0.40969(10) 0.19377(9)
H25 H 1.2172 0.4319 0.1230
loop_
_geom_bond_atom_site_label_1
_geom_bond_atom_site_label_2
_geom_bond_site_symmetry_1
_geom_bond_site_symmetry_2
S1 O5 1_555 1_555
O1 C2 1_555 1_555
O2 C6 1_555 1_555
O3 C15 1_555 1_555
O4 C15 1_555 1_555
O6 S1 1_555 1_555
N1 S1 1_555 1_555
N2 C13 1_555 1_555
N3 C14 1_555 1_555
C1 H1 1_555 1_555
H2 C1 1_555 1_555
H3 C1 1_555 1_555
C2 C1 1_555 1_555
H4 C2 1_555 1_555
H5 C2 1_555 1_555
C3 O1 1_555 1_555
C4 C3 1_555 1_555
C5 C4 1_555 1_555
H6 C5 1_555 1_555
C6 N1 1_555 1_555
C7 S1 1_555 1_555
C8 C7 1_555 1_555
H7 C8 1_555 1_555
C9 C8 1_555 1_555
H8 C9 1_555 1_555
C10 C9 1_555 1_555
C11 C10 1_555 1_555
H9 C11 1_555 1_555
H10 C11 1_555 1_555
H11 C11 1_555 1_555
C12 C3 1_555 1_555
C13 C12 1_555 1_555
C14 C12 1_555 1_555
C15 C4 1_555 1_555
C16 O4 1_555 1_555
H12 C16 1_555 1_555
H13 C16 1_555 1_555
C17 C16 1_555 1_555
H14 C17 1_555 1_555
H15 C17 1_555 1_555
H16 C17 1_555 1_555
C18 N1 1_555 1_555
H17 C18 1_555 1_555
H18 C18 1_555 1_555
C19 C18 1_555 1_555
C20 C19 1_555 1_555
H19 C20 1_555 1_555
C21 C20 1_555 1_555
H20 C21 1_555 1_555
C22 C21 1_555 1_555
H21 C22 1_555 1_555
C23 C22 1_555 1_555
H22 C23 1_555 1_555
C24 C19 1_555 1_555
H23 C24 1_555 1_555
C25 C7 1_555 1_555
H24 C25 1_555 1_555
C26 C10 1_555 1_555
H25 C26 1_555 1_555
C5 C6 1_555 1_555
C23 C24 1_555 1_555
C25 C26 1_555 1_555

#END
