
#######################################################################
#
#                 Cambridge Crystallographic Data Centre
#                                CCDC 
#
#######################################################################
#
# If this CIF has been generated from an entry in the Cambridge 
# Structural Database, then it will include bibliographic, chemical, 
# crystal, experimental, refinement or atomic coordinate data resulting 
# from the CCDC's data processing and validation procedures.
#
#######################################################################

data_ABATEF
_chemical_formula_moiety         'C32 H26 N4 O2,0.5(C2 H4 Cl2)'
_chemical_name_systematic        
'(1,4-bis(4-(dimethylamino)phenyl)-4-(1,3-dioxo-1,3-dihydro-2H-inden-2-ylidene)but-2-en-1-ylidene)malononitrile 1,2-dichloroethane solvate'
_symmetry_cell_setting           triclinic
_symmetry_space_group_name_H-M   'P -1'
_symmetry_Int_Tables_number      2
_space_group_name_Hall           '-P 1'
loop_
_symmetry_equiv_pos_site_id
_symmetry_equiv_pos_as_xyz
1 x,y,z
2 -x,-y,-z
_cell_length_a                   8.0970(8)
_cell_length_b                   12.2435(12)
_cell_length_c                   14.9160(15)
_cell_angle_alpha                99.226(6)
_cell_angle_beta                 105.026(6)
_cell_angle_gamma                100.976(6)
_cell_volume                     1367.3
_exptl_crystal_colour            black
_exptl_crystal_description       rod
_cell_formula_units_Z            2
loop_
_atom_site_label
_atom_site_type_symbol
_atom_site_fract_x
_atom_site_fract_y
_atom_site_fract_z
Cl1 Cl 0.28534(8) 0.88747(5) 0.38480(4)
C1 C 0.4748(3) 0.9353(2) 0.48822(17)
H1 H 0.440(3) 0.9084(18) 0.5373(16)
H2 H 0.571(3) 0.904(2) 0.4767(17)
Cl1A Cl 0.71466(8) 1.11253(5) 0.61520(4)
C1A C 0.5252(3) 1.0647(2) 0.51178(17)
H1A H 0.560(3) 1.0916(18) 0.4627(16)
H2A H 0.429(3) 1.096(2) 0.5233(17)
O1 O 0.5161(2) 0.69749(13) -0.02384(11)
O2 O 0.07381(19) 0.38458(12) -0.01820(10)
N1 N 0.1440(3) 0.31651(18) 0.49349(15)
N2 N 0.3996(3) 0.65834(17) 0.50255(14)
N3 N -0.1002(2) -0.02752(15) 0.09880(13)
N4 N 0.7272(2) 1.03281(15) 0.32375(13)
C2 C 0.3121(3) 0.55616(17) 0.01929(14)
C3 C 0.3889(3) 0.61688(17) -0.04453(15)
C4 C 0.2876(3) 0.55421(18) -0.14370(15)
C5 C 0.2999(3) 0.5810(2) -0.22933(16)
H3 H 0.388(3) 0.6477(19) -0.2286(15)
C6 C 0.1851(3) 0.5103(2) -0.31245(17)
H4 H 0.192(3) 0.5270(19) -0.3711(17)
C7 C 0.0624(3) 0.4144(2) -0.31128(16)
H5 H -0.016(3) 0.3629(19) -0.3717(16)
C8 C 0.0500(3) 0.3878(2) -0.22609(15)
H6 H -0.036(3) 0.3241(18) -0.2241(14)
C9 C 0.1630(3) 0.45903(18) -0.14241(14)
C10 C 0.1724(3) 0.45520(18) -0.04221(15)
C11 C 0.3616(3) 0.58356(17) 0.11690(14)
C12 C 0.3139(3) 0.49535(19) 0.16714(15)
H7 H 0.295(3) 0.4195(19) 0.1365(15)
C13 C 0.2985(3) 0.51502(19) 0.25547(15)
H8 H 0.322(3) 0.593(2) 0.2915(16)
C14 C 0.2465(3) 0.42500(17) 0.30306(14)
C15 C 0.2660(3) 0.45402(18) 0.39870(15)
C16 C 0.1979(3) 0.3751(2) 0.44962(16)
C17 C 0.3432(3) 0.56796(19) 0.45537(15)
C18 C 0.1663(3) 0.30710(17) 0.24916(14)
C19 C 0.2100(3) 0.21315(18) 0.28285(15)
H9 H 0.301(3) 0.2255(18) 0.3426(16)
C20 C 0.1264(3) 0.10327(19) 0.23311(15)
H10 H 0.162(3) 0.0420(18) 0.2575(14)
C21 C -0.0118(3) 0.08094(18) 0.14711(14)
C22 C -0.0535(3) 0.17637(19) 0.11265(15)
H11 H -0.149(3) 0.1612(17) 0.0552(15)
C23 C 0.0348(3) 0.28523(19) 0.16183(15)
H12 H -0.005(3) 0.345(2) 0.1336(16)
C24 C -0.2441(3) -0.0464(2) 0.01173(18)
H13 H -0.335(4) -0.009(2) 0.0243(18)
H14 H -0.282(4) -0.124(2) -0.0124(18)
H15 H -0.209(3) -0.012(2) -0.0355(18)
C25 C -0.0602(4) -0.1250(2) 0.1356(2)
H16 H -0.069(3) -0.118(2) 0.2044(18)
H17 H -0.132(4) -0.188(3) 0.097(2)
H18 H 0.061(5) -0.125(3) 0.141(2)
C26 C 0.4566(3) 0.69893(17) 0.17165(14)
C27 C 0.5916(3) 0.71992(19) 0.25727(15)
H19 H 0.626(3) 0.6571(19) 0.2823(15)
C28 C 0.6832(3) 0.82853(18) 0.30692(15)
H20 H 0.774(3) 0.8379(19) 0.3638(16)
C29 C 0.6389(3) 0.92439(17) 0.27448(14)
C30 C 0.4991(3) 0.90361(18) 0.18958(15)
H21 H 0.457(3) 0.9673(18) 0.1662(14)
C31 C 0.4132(3) 0.79432(18) 0.13974(15)
H22 H 0.315(3) 0.7807(18) 0.0823(15)
C32 C 0.6866(4) 1.1314(2) 0.2887(2)
H23 H 0.706(3) 1.133(2) 0.2258(18)
H24 H 0.763(4) 1.202(3) 0.338(2)
H25 H 0.561(4) 1.125(2) 0.2726(17)
C33 C 0.8813(3) 1.0505(2) 0.40524(18)
H26 H 0.926(3) 1.129(2) 0.4307(17)
H27 H 0.854(3) 1.014(2) 0.4546(17)
H28 H 0.973(3) 1.019(2) 0.3835(17)
loop_
_geom_bond_atom_site_label_1
_geom_bond_atom_site_label_2
_geom_bond_site_symmetry_1
_geom_bond_site_symmetry_2
Cl1 C1 1_555 1_555
C1 H1 1_555 1_555
H2 C1 1_555 1_555
O1 C3 1_555 1_555
O2 C10 1_555 1_555
N1 C16 1_555 1_555
N2 C17 1_555 1_555
N3 C21 1_555 1_555
N4 C29 1_555 1_555
C2 C3 1_555 1_555
C3 C4 1_555 1_555
C4 C5 1_555 1_555
C5 H3 1_555 1_555
C6 C5 1_555 1_555
H4 C6 1_555 1_555
C7 C6 1_555 1_555
H5 C7 1_555 1_555
C8 C7 1_555 1_555
H6 C8 1_555 1_555
C9 C4 1_555 1_555
C10 C2 1_555 1_555
C11 C2 1_555 1_555
C12 C11 1_555 1_555
H7 C12 1_555 1_555
C13 C12 1_555 1_555
H8 C13 1_555 1_555
C14 C13 1_555 1_555
C15 C14 1_555 1_555
C16 C15 1_555 1_555
C17 C15 1_555 1_555
C18 C14 1_555 1_555
C19 C18 1_555 1_555
H9 C19 1_555 1_555
C20 C19 1_555 1_555
H10 C20 1_555 1_555
C21 C20 1_555 1_555
C22 C21 1_555 1_555
H11 C22 1_555 1_555
C23 C18 1_555 1_555
H12 C23 1_555 1_555
C24 N3 1_555 1_555
H13 C24 1_555 1_555
H14 C24 1_555 1_555
H15 C24 1_555 1_555
C25 N3 1_555 1_555
H16 C25 1_555 1_555
H17 C25 1_555 1_555
H18 C25 1_555 1_555
C26 C11 1_555 1_555
C27 C26 1_555 1_555
H19 C27 1_555 1_555
C28 C27 1_555 1_555
H20 C28 1_555 1_555
C29 C28 1_555 1_555
C30 C29 1_555 1_555
H21 C30 1_555 1_555
C31 C26 1_555 1_555
H22 C31 1_555 1_555
C32 N4 1_555 1_555
H23 C32 1_555 1_555
H24 C32 1_555 1_555
H25 C32 1_555 1_555
C33 N4 1_555 1_555
H26 C33 1_555 1_555
H27 C33 1_555 1_555
H28 C33 1_555 1_555
Cl1A C1A 1_555 1_555
C1A C1 1_555 1_555
H1A C1A 1_555 1_555
H2A C1A 1_555 1_555
C8 C9 1_555 1_555
C9 C10 1_555 1_555
C22 C23 1_555 1_555
C30 C31 1_555 1_555

#END
