
#######################################################################
#
#                 Cambridge Crystallographic Data Centre
#                                CCDC 
#
#######################################################################
#
# If this CIF has been generated from an entry in the Cambridge 
# Structural Database, then it will include bibliographic, chemical, 
# crystal, experimental, refinement or atomic coordinate data resulting 
# from the CCDC's data processing and validation procedures.
#
#######################################################################

data_ABAVAD
_chemical_formula_moiety         'C30 H24 N4 O2'
_chemical_name_systematic        
2,3-bis(4-(dimethylamino)phenyl)-5-oxoindeno[1,2-b]pyran-4,4(5H)-dicarbonitrile
_symmetry_cell_setting           triclinic
_symmetry_space_group_name_H-M   'P -1'
_symmetry_Int_Tables_number      2
_space_group_name_Hall           '-P 1'
loop_
_symmetry_equiv_pos_site_id
_symmetry_equiv_pos_as_xyz
1 x,y,z
2 -x,-y,-z
_cell_length_a                   10.7919(11)
_cell_length_b                   14.9371(16)
_cell_length_c                   17.309(2)
_cell_angle_alpha                115.226(3)
_cell_angle_beta                 92.220(5)
_cell_angle_gamma                104.394(3)
_cell_volume                     2411.32
_exptl_crystal_colour            bronze
_exptl_crystal_description       prism
_cell_formula_units_Z            4
loop_
_atom_site_label
_atom_site_type_symbol
_atom_site_fract_x
_atom_site_fract_y
_atom_site_fract_z
O1 O 0.5158(2) 0.50774(18) 0.11630(15)
O2 O 0.2095(3) 0.6109(2) 0.29586(17)
N1 N 0.0488(3) 0.3938(3) 0.0738(2)
N2 N 0.2279(3) 0.3437(3) 0.2732(2)
N3 N 0.8033(3) 0.2198(2) -0.1415(2)
N4 N 0.0823(3) -0.0748(2) -0.1141(2)
C1 C 0.2719(3) 0.4157(3) 0.1590(2)
C2 C 0.3446(4) 0.5269(3) 0.1999(2)
C3 C 0.3061(4) 0.6154(3) 0.2616(2)
C4 C 0.4059(4) 0.7091(3) 0.2696(2)
C5 C 0.4127(4) 0.8123(3) 0.3140(2)
H1 H 0.3421 0.8364 0.3546
C6 C 0.5127(4) 0.8843(3) 0.3051(3)
H2 H 0.5209 0.9657 0.3401
C7 C 0.6024(4) 0.8538(3) 0.2519(2)
H3 H 0.6789 0.9113 0.2455
C8 C 0.5945(4) 0.7485(3) 0.2062(2)
H4 H 0.6642 0.7240 0.1650
C9 C 0.4957(3) 0.6777(3) 0.2156(2)
C10 C 0.4529(4) 0.5645(3) 0.1751(2)
C11 C 0.4585(4) 0.3995(3) 0.0758(2)
C12 C 0.3456(4) 0.3529(3) 0.0908(2)
C13 C 0.1420(4) 0.4005(3) 0.1120(2)
C14 C 0.2464(4) 0.3749(3) 0.2227(3)
C15 C 0.5439(3) 0.3503(3) 0.0161(2)
C16 C 0.6475(3) 0.4120(3) -0.0024(2)
H5 H 0.6602 0.4941 0.0236
C17 C 0.7335(4) 0.3702(3) -0.0530(2)
H6 H 0.8125 0.4203 -0.0653
C18 C 0.7201(4) 0.2629(3) -0.0891(2)
C19 C 0.6173(4) 0.2015(3) -0.0698(2)
H7 H 0.6042 0.1194 -0.0956
C20 C 0.5321(4) 0.2447(3) -0.0181(2)
H8 H 0.4546 0.1953 -0.0040
C21 C 0.9155(4) 0.2854(3) -0.1542(3)
H9 H 0.8840 0.3274 -0.1855
H10 H 0.9716 0.2379 -0.1948
H11 H 0.9754 0.3403 -0.0916
C22 C 0.7862(4) 0.1093(3) -0.1766(3)
H12 H 0.8117 0.0911 -0.1245
H13 H 0.8489 0.0871 -0.2250
H14 H 0.6854 0.0668 -0.2065
C23 C 0.2737(3) 0.2410(3) 0.0400(2)
C24 C 0.2753(3) 0.1693(3) 0.0712(2)
H15 H 0.3270 0.1953 0.1352
C25 C 0.2110(4) 0.0644(3) 0.0209(2)
H16 H 0.2135 0.0099 0.0461
C26 C 0.1430(4) 0.0291(3) -0.0625(2)
C27 C 0.1390(4) 0.1026(3) -0.0922(2)
H17 H 0.0854 0.0778 -0.1554
C28 C 0.2030(3) 0.2061(3) -0.0413(2)
H18 H 0.1979 0.2612 -0.0653
C29 C 0.0912(4) -0.1508(3) -0.0846(3)
H19 H 0.1928 -0.1419 -0.0660
H20 H 0.0457 -0.2284 -0.1366
H21 H 0.0417 -0.1393 -0.0289
C30 C 0.0109(4) -0.1083(3) -0.1986(3)
H22 H -0.0670 -0.0723 -0.1919
H23 H -0.0302 -0.1922 -0.2296
H24 H 0.0759 -0.0857 -0.2380
O3 O 0.3642(2) 0.55316(18) 0.46821(15)
O4 O 0.1519(2) 0.71987(19) 0.69602(16)
N5 N 0.5152(3) 0.8553(3) 0.7649(2)
N6 N 0.2749(3) 0.8815(2) 0.5737(2)
N7 N 0.7589(3) 0.4770(2) 0.20965(19)
N8 N 0.9514(3) 1.0552(3) 0.6029(2)
C31 C 0.3903(3) 0.7611(3) 0.6042(2)
C32 C 0.2893(3) 0.6659(3) 0.5899(2)
C33 C 0.1805(4) 0.6515(3) 0.6362(2)
C34 C 0.1137(3) 0.5380(3) 0.5954(2)
C35 C 0.0098(3) 0.4802(3) 0.6136(2)
H25 H -0.0390 0.5166 0.6665
C36 C -0.0318(4) 0.3723(3) 0.5620(2)
H26 H -0.1131 0.3252 0.5754
C37 C 0.0313(3) 0.3261(3) 0.4938(2)
H27 H -0.0022 0.2432 0.4550
C38 C 0.1370(3) 0.3843(3) 0.4742(2)
H28 H 0.1848 0.3482 0.4206
C39 C 0.1772(3) 0.4897(3) 0.5263(2)
C40 C 0.2831(3) 0.5721(3) 0.5262(2)
C41 C 0.4697(3) 0.6372(3) 0.4789(2)
C42 C 0.4890(3) 0.7340(3) 0.5420(2)
C43 C 0.4599(4) 0.8165(3) 0.6955(3)
C44 C 0.3281(4) 0.8320(3) 0.5891(2)
C45 C 0.5478(3) 0.5983(3) 0.4109(2)
C46 C 0.5291(3) 0.4908(3) 0.3642(2)
H29 H 0.4588 0.4387 0.3803
C47 C 0.5984(3) 0.4499(3) 0.2981(2)
H30 H 0.5809 0.3671 0.2640
C48 C 0.6906(3) 0.5148(3) 0.2751(2)
C49 C 0.7093(3) 0.6227(3) 0.3221(2)
H31 H 0.7796 0.6755 0.3066
C50 C 0.6394(3) 0.6614(3) 0.3871(2)
H32 H 0.6565 0.7442 0.4210
C51 C 0.7565(4) 0.3682(3) 0.1689(2)
H33 H 0.8211 0.3552 0.2104
H34 H 0.7887 0.3490 0.1064
H35 H 0.6581 0.3194 0.1596
C52 C 0.8610(4) 0.5487(3) 0.1940(2)
H36 H 0.8199 0.6000 0.1786
H37 H 0.9047 0.5054 0.1399
H38 H 0.9349 0.5945 0.2518
C53 C 0.6075(3) 0.8209(3) 0.5600(2)
C54 C 0.6101(4) 0.8954(3) 0.5314(2)
H39 H 0.5220 0.8925 0.4974
C55 C 0.7221(4) 0.9727(3) 0.5455(2)
H40 H 0.7206 1.0287 0.5218
C56 C 0.8386(4) 0.9797(3) 0.5903(2)
C57 C 0.8351(4) 0.9059(3) 0.6205(2)
H41 H 0.9223 0.9092 0.6557
C58 C 0.7220(4) 0.8291(3) 0.6060(2)
H42 H 0.7223 0.7740 0.6309
C59 C 0.9522(4) 1.1408(3) 0.5842(3)
H43 H 0.9033 1.1112 0.5181
H44 H 1.0521 1.1857 0.5911
H45 H 0.9018 1.1900 0.6292
C60 C 1.0706(4) 1.0618(3) 0.6495(3)
H46 H 1.0631 1.0880 0.7179
H47 H 1.1517 1.1166 0.6425
H48 H 1.0865 0.9858 0.6233
loop_
_geom_bond_atom_site_label_1
_geom_bond_atom_site_label_2
_geom_bond_site_symmetry_1
_geom_bond_site_symmetry_2
O1 C10 1_555 1_555
O2 C3 1_555 1_555
N1 C13 1_555 1_555
N2 C14 1_555 1_555
N3 C18 1_555 1_555
N4 C26 1_555 1_555
C1 C2 1_555 1_555
C2 C3 1_555 1_555
C3 C4 1_555 1_555
C4 C5 1_555 1_555
C5 H1 1_555 1_555
C6 C5 1_555 1_555
H2 C6 1_555 1_555
C7 C6 1_555 1_555
H3 C7 1_555 1_555
C8 C7 1_555 1_555
H4 C8 1_555 1_555
C9 C4 1_555 1_555
C10 C2 1_555 1_555
C11 O1 1_555 1_555
C12 C1 1_555 1_555
C13 C1 1_555 1_555
C14 C1 1_555 1_555
C15 C11 1_555 1_555
C16 C15 1_555 1_555
H5 C16 1_555 1_555
C17 C16 1_555 1_555
H6 C17 1_555 1_555
C18 C17 1_555 1_555
C19 C18 1_555 1_555
H7 C19 1_555 1_555
C20 C15 1_555 1_555
H8 C20 1_555 1_555
C21 N3 1_555 1_555
H9 C21 1_555 1_555
H10 C21 1_555 1_555
H11 C21 1_555 1_555
C22 N3 1_555 1_555
H12 C22 1_555 1_555
H13 C22 1_555 1_555
H14 C22 1_555 1_555
C23 C12 1_555 1_555
C24 C23 1_555 1_555
H15 C24 1_555 1_555
C25 C24 1_555 1_555
H16 C25 1_555 1_555
C26 C25 1_555 1_555
C27 C26 1_555 1_555
H17 C27 1_555 1_555
C28 C23 1_555 1_555
H18 C28 1_555 1_555
C29 N4 1_555 1_555
H19 C29 1_555 1_555
H20 C29 1_555 1_555
H21 C29 1_555 1_555
C30 N4 1_555 1_555
H22 C30 1_555 1_555
H23 C30 1_555 1_555
H24 C30 1_555 1_555
O3 C40 1_555 1_555
O4 C33 1_555 1_555
N5 C43 1_555 1_555
N6 C44 1_555 1_555
N7 C48 1_555 1_555
N8 C56 1_555 1_555
C31 C32 1_555 1_555
C32 C33 1_555 1_555
C33 C34 1_555 1_555
C34 C35 1_555 1_555
C35 H25 1_555 1_555
C36 C35 1_555 1_555
H26 C36 1_555 1_555
C37 C36 1_555 1_555
H27 C37 1_555 1_555
C38 C37 1_555 1_555
H28 C38 1_555 1_555
C39 C34 1_555 1_555
C40 C32 1_555 1_555
C41 O3 1_555 1_555
C42 C31 1_555 1_555
C43 C31 1_555 1_555
C44 C31 1_555 1_555
C45 C41 1_555 1_555
C46 C45 1_555 1_555
H29 C46 1_555 1_555
C47 C46 1_555 1_555
H30 C47 1_555 1_555
C48 C47 1_555 1_555
C49 C48 1_555 1_555
H31 C49 1_555 1_555
C50 C45 1_555 1_555
H32 C50 1_555 1_555
C51 N7 1_555 1_555
H33 C51 1_555 1_555
H34 C51 1_555 1_555
H35 C51 1_555 1_555
C52 N7 1_555 1_555
H36 C52 1_555 1_555
H37 C52 1_555 1_555
H38 C52 1_555 1_555
C53 C42 1_555 1_555
C54 C53 1_555 1_555
H39 C54 1_555 1_555
C55 C54 1_555 1_555
H40 C55 1_555 1_555
C56 C55 1_555 1_555
C57 C56 1_555 1_555
H41 C57 1_555 1_555
C58 C53 1_555 1_555
H42 C58 1_555 1_555
C59 N8 1_555 1_555
H43 C59 1_555 1_555
H44 C59 1_555 1_555
H45 C59 1_555 1_555
C60 N8 1_555 1_555
H46 C60 1_555 1_555
H47 C60 1_555 1_555
H48 C60 1_555 1_555
C8 C9 1_555 1_555
C9 C10 1_555 1_555
C11 C12 1_555 1_555
C19 C20 1_555 1_555
C27 C28 1_555 1_555
C38 C39 1_555 1_555
C39 C40 1_555 1_555
C41 C42 1_555 1_555
C49 C50 1_555 1_555
C57 C58 1_555 1_555

#END
