
#######################################################################
#
#                 Cambridge Crystallographic Data Centre
#                                CCDC 
#
#######################################################################
#
# If this CIF has been generated from an entry in the Cambridge 
# Structural Database, then it will include bibliographic, chemical, 
# crystal, experimental, refinement or atomic coordinate data resulting 
# from the CCDC's data processing and validation procedures.
#
#######################################################################

data_ABAWAE
_chemical_formula_moiety         'C29 H18 N4 O2,0.5(C1 H2 Cl2)'
_chemical_name_systematic        
'3-(4-cyanophenyl)-2-(4-(dimethylamino)phenyl)-5-oxoindeno[1,2-b]pyran-4,4(5H)-dicarbonitrile dichloromethane solvate'
_symmetry_cell_setting           monoclinic
_symmetry_space_group_name_H-M   'C 2/c'
_symmetry_Int_Tables_number      15
_space_group_name_Hall           '-C 2yn'
loop_
_symmetry_equiv_pos_site_id
_symmetry_equiv_pos_as_xyz
1 x,y,z
2 -x,y,1/2-z
3 1/2+x,1/2+y,z
4 1/2-x,1/2+y,1/2-z
5 -x,-y,-z
6 x,-y,1/2+z
7 1/2-x,1/2-y,-z
8 1/2+x,1/2-y,1/2+z
_cell_length_a                   13.519(4)
_cell_length_b                   27.436(7)
_cell_length_c                   13.378(3)
_cell_angle_alpha                90
_cell_angle_beta                 109.555(4)
_cell_angle_gamma                90
_cell_volume                     4675.79
_exptl_crystal_colour            orange
_exptl_crystal_description       plate
_cell_formula_units_Z            8
loop_
_atom_site_label
_atom_site_type_symbol
_atom_site_fract_x
_atom_site_fract_y
_atom_site_fract_z
O1 O 0.4022(3) 0.29662(14) 0.1410(3)
O2 O 0.5979(4) 0.41370(15) 0.0260(4)
N1 N 0.1812(4) 0.09704(18) 0.1543(5)
N2 N 0.6415(5) 0.0508(2) -0.1658(6)
N3 N 0.5951(5) 0.3024(2) -0.1322(5)
N4 N 0.7681(5) 0.30221(19) 0.2000(5)
C1 C 0.2221(5) 0.0468(2) 0.1601(6)
H1 H 0.2498 0.0415 0.1021
H2 H 0.1653 0.0236 0.1539
H3 H 0.2782 0.0421 0.2282
C2 C 0.2461(5) 0.1350(2) 0.1482(5)
C3 C 0.2126(6) 0.1838(2) 0.1428(5)
H4 H 0.1463 0.1912 0.1488
C4 C 0.2754(5) 0.2205(2) 0.1289(5)
H5 H 0.2495 0.2530 0.1228
C5 C 0.3749(5) 0.2129(2) 0.1231(5)
C6 C 0.4390(5) 0.2536(2) 0.1087(5)
C7 C 0.4400(5) 0.3388(2) 0.1154(5)
C8 C 0.3946(5) 0.3863(2) 0.1291(5)
C9 C 0.4531(5) 0.4213(2) 0.0964(6)
C10 C 0.4290(6) 0.4696(2) 0.0979(5)
H6 H 0.4678 0.4938 0.0760
C11 C 0.3470(6) 0.4824(2) 0.1321(6)
H7 H 0.3291 0.5158 0.1329
C12 C 0.5341(6) 0.3960(2) 0.0608(6)
C13 C 0.5186(5) 0.3431(2) 0.0774(5)
C14 C 0.5173(5) 0.2530(2) 0.0688(5)
C15 C 0.5468(5) 0.2081(2) 0.0208(5)
C16 C 0.4756(6) 0.1895(2) -0.0713(5)
H8 H 0.4099 0.2052 -0.1027
C17 C 0.4995(6) 0.1483(2) -0.1180(6)
H9 H 0.4495 0.1348 -0.1798
C18 C 0.5975(6) 0.1267(2) -0.0739(6)
C19 C 0.6232(6) 0.0832(3) -0.1231(6)
C20 C 0.6680(5) 0.1455(2) 0.0165(5)
H10 H 0.7345 0.1303 0.0467
C21 C 0.6444(5) 0.1864(2) 0.0651(5)
H11 H 0.6943 0.1993 0.1277
C22 C 0.5776(5) 0.2997(2) 0.0585(5)
C23 C 0.5885(5) 0.3009(2) -0.0498(6)
C24 C 0.6869(6) 0.3001(2) 0.1368(6)
C25 C 0.1040(6) 0.1031(2) 0.2054(6)
H12 H 0.1371 0.0985 0.2820
H13 H 0.0481 0.0789 0.1777
H14 H 0.0741 0.1359 0.1913
C26 C 0.3472(5) 0.1265(2) 0.1437(5)
H15 H 0.3726 0.0941 0.1480
C27 C 0.4097(5) 0.1640(2) 0.1332(5)
H16 H 0.4784 0.1570 0.1326
C28 C 0.3135(5) 0.3986(2) 0.1629(5)
H17 H 0.2742 0.3745 0.1841
C29 C 0.2904(6) 0.4481(2) 0.1651(6)
H18 H 0.2353 0.4582 0.1896
Cl1? Cl 0.5285(3) 0.03771(11) 0.0805(3)
C30? C 0.5559(17) -0.0148(6) 0.0311(14)
H19? H 0.6239 -0.0104 0.0195
H20? H 0.5668 -0.0399 0.0869
loop_
_geom_bond_atom_site_label_1
_geom_bond_atom_site_label_2
_geom_bond_site_symmetry_1
_geom_bond_site_symmetry_2
O1 C6 1_555 1_555
O2 C12 1_555 1_555
N1 C1 1_555 1_555
N2 C19 1_555 1_555
N3 C23 1_555 1_555
N4 C24 1_555 1_555
C1 H1 1_555 1_555
H2 C1 1_555 1_555
H3 C1 1_555 1_555
C2 N1 1_555 1_555
C3 C2 1_555 1_555
H4 C3 1_555 1_555
C4 C3 1_555 1_555
H5 C4 1_555 1_555
C5 C4 1_555 1_555
C6 C5 1_555 1_555
C7 O1 1_555 1_555
C8 C7 1_555 1_555
C9 C8 1_555 1_555
C10 C9 1_555 1_555
H6 C10 1_555 1_555
C11 C10 1_555 1_555
H7 C11 1_555 1_555
C12 C9 1_555 1_555
C13 C7 1_555 1_555
C14 C6 1_555 1_555
C15 C14 1_555 1_555
C16 C15 1_555 1_555
H8 C16 1_555 1_555
C17 C16 1_555 1_555
H9 C17 1_555 1_555
C18 C17 1_555 1_555
C19 C18 1_555 1_555
C20 C18 1_555 1_555
H10 C20 1_555 1_555
C21 C15 1_555 1_555
H11 C21 1_555 1_555
C22 C13 1_555 1_555
C23 C22 1_555 1_555
C24 C22 1_555 1_555
C25 N1 1_555 1_555
H12 C25 1_555 1_555
H13 C25 1_555 1_555
H14 C25 1_555 1_555
C26 C2 1_555 1_555
H15 C26 1_555 1_555
C27 C5 1_555 1_555
H16 C27 1_555 1_555
C28 C8 1_555 1_555
H17 C28 1_555 1_555
C29 C11 1_555 1_555
H18 C29 1_555 1_555
C12 C13 1_555 1_555
C14 C22 1_555 1_555
C20 C21 1_555 1_555
C26 C27 1_555 1_555
C28 C29 1_555 1_555

#END
