
#######################################################################
#
#                 Cambridge Crystallographic Data Centre
#                                CCDC 
#
#######################################################################
#
# If this CIF has been generated from an entry in the Cambridge 
# Structural Database, then it will include bibliographic, chemical, 
# crystal, experimental, refinement or atomic coordinate data resulting 
# from the CCDC's data processing and validation procedures.
#
#######################################################################

data_ABEDES
_chemical_formula_moiety         'C28 H22 N2 O2 S1'
_chemical_name_systematic        
4-(Diphenylmethylene)-5-phenyl-1-(phenylsulfonyl)-4,5-dihydro-1H-pyrazole
_symmetry_cell_setting           triclinic
_symmetry_space_group_name_H-M   'P -1'
_symmetry_Int_Tables_number      2
_space_group_name_Hall           '-P 1'
loop_
_symmetry_equiv_pos_site_id
_symmetry_equiv_pos_as_xyz
1 x,y,z
2 -x,-y,-z
_cell_length_a                   10.7469(4)
_cell_length_b                   12.9651(5)
_cell_length_c                   17.9436(8)
_cell_angle_alpha                88.426(3)
_cell_angle_beta                 87.150(3)
_cell_angle_gamma                68.296(4)
_cell_volume                     2319.94
_exptl_crystal_colour            yellow
_exptl_crystal_description       block
_cell_formula_units_Z            4
loop_
_atom_site_label
_atom_site_type_symbol
_atom_site_fract_x
_atom_site_fract_y
_atom_site_fract_z
S1 S 0.68395(4) 0.09102(4) 0.01160(3)
O1 O 0.79396(13) 0.09912(12) 0.04856(8)
O2 O 0.60871(13) 0.03060(11) 0.04587(7)
N1 N 0.57392(14) 0.21713(13) 0.00064(10)
N2 N 0.61929(16) 0.28684(15) -0.04589(11)
C1 C 0.6548(2) 0.0462(2) -0.13294(13)
H1 H 0.5629 0.0810 -0.1236
C2 C 0.7049(3) 0.0020(3) -0.20195(14)
H2 H 0.6468 0.0085 -0.2400
C3 C 0.8405(3) -0.0518(2) -0.21468(15)
H3 H 0.8736 -0.0819 -0.2613
C4 C 0.9273(3) -0.0614(2) -0.15929(15)
H4 H 1.0188 -0.0992 -0.1681
C5 C 0.8797(2) -0.01548(19) -0.09107(12)
H5 H 0.9388 -0.0202 -0.0538
C6 C 0.74362(19) 0.03788(16) -0.07780(11)
C7 C 0.3975(2) 0.3551(2) 0.11276(15)
H6 H 0.4735 0.3696 0.0977
C8 C 0.3292(3) 0.3984(2) 0.17885(17)
H7 H 0.3593 0.4418 0.2082
C9 C 0.2171(3) 0.3775(2) 0.20113(17)
H8 H 0.1714 0.4063 0.2458
C10 C 0.1722(3) 0.3150(2) 0.15816(16)
H9 H 0.0953 0.3018 0.1732
C11 C 0.2402(2) 0.27096(19) 0.09226(13)
H10 H 0.2092 0.2277 0.0634
C12 C 0.35401(18) 0.29047(16) 0.06876(11)
C13 C 0.42651(17) 0.24423(16) -0.00452(11)
H11 H 0.4083 0.1790 -0.0190
C14 C 0.39463(18) 0.33116(15) -0.06692(11)
C15 C 0.5176(2) 0.35140(18) -0.08040(13)
H12 H 0.5225 0.4078 -0.1122
C16 C 0.27953(18) 0.37880(15) -0.10269(10)
C17 C 0.25797(18) 0.47642(16) -0.15323(11)
C18 C 0.2160(2) 0.47489(19) -0.22463(12)
H13 H 0.2008 0.4131 -0.2406
C19 C 0.1963(3) 0.5644(2) -0.27256(14)
H14 H 0.1692 0.5621 -0.3207
C20 C 0.2167(3) 0.6563(2) -0.24925(18)
H15 H 0.2046 0.7160 -0.2818
C21 C 0.2548(3) 0.6605(2) -0.17827(18)
H16 H 0.2667 0.7237 -0.1622
C22 C 0.2756(2) 0.57102(17) -0.13036(14)
H17 H 0.3019 0.5744 -0.0822
C23 C 0.16621(17) 0.33932(15) -0.09297(10)
C24 C 0.03769(19) 0.41481(18) -0.07708(11)
H18 H 0.0218 0.4903 -0.0759
C25 C -0.0666(2) 0.3782(2) -0.06302(13)
H19 H -0.1521 0.4292 -0.0512
C26 C -0.0452(2) 0.2671(2) -0.06629(13)
H20 H -0.1154 0.2428 -0.0555
C27 C 0.0798(2) 0.19252(19) -0.08552(12)
H21 H 0.0937 0.1177 -0.0895
C28 C 0.18526(19) 0.22767(16) -0.09897(11)
H22 H 0.2698 0.1764 -0.1122
S2 S 0.18453(5) 0.60553(4) 0.49833(3)
O3 O 0.23338(16) 0.67763(12) 0.53480(9)
O4 O 0.07797(15) 0.57856(13) 0.53295(9)
N3 N 0.30946(16) 0.48563(13) 0.48691(9)
N4 N 0.41240(16) 0.48960(14) 0.43651(9)
C29 C 0.1438(2) 0.65825(17) 0.40821(12)
C30 C 0.1843(3) 0.7421(3) 0.38303(17)
H23 H 0.2295 0.7706 0.4145
C31 C 0.1594(4) 0.7841(4) 0.3128(2)
H24 H 0.1846 0.8426 0.2966
C32 C 0.0983(5) 0.7401(4) 0.2675(2)
H25 H 0.0830 0.7681 0.2191
C33 C 0.0568(4) 0.6546(4) 0.2892(2)
H26 H 0.0151 0.6250 0.2561
C34 C 0.0789(3) 0.6130(2) 0.36286(16)
H27 H 0.0504 0.5567 0.3801
C35 C 0.4607(2) 0.39585(17) 0.40360(11)
H28 H 0.5349 0.3774 0.3705
C36 C 0.39210(19) 0.32044(16) 0.42124(11)
C37 C 0.2896(2) 0.37810(16) 0.48357(11)
H29 H 0.1983 0.3894 0.4698
C38 C 0.3225(2) 0.31586(16) 0.55698(11)
C39 C 0.4254(2) 0.32031(19) 0.59850(13)
H30 H 0.4738 0.3635 0.5818
C40 C 0.4566(3) 0.2612(2) 0.66438(15)
H31 H 0.5259 0.2648 0.6920
C41 C 0.3858(3) 0.1972(2) 0.68936(16)
H32 H 0.4067 0.1578 0.7341
C42 C 0.2851(3) 0.1911(2) 0.64891(17)
H33 H 0.2380 0.1470 0.6657
C43 C 0.2526(3) 0.2507(2) 0.58268(14)
H34 H 0.1832 0.2467 0.5554
C44 C 0.4156(2) 0.22144(17) 0.38995(11)
C45 C 0.3263(2) 0.15783(17) 0.40339(11)
C46 C 0.1875(2) 0.2078(2) 0.39860(13)
H35 H 0.1492 0.2823 0.3849
C47 C 0.1065(3) 0.1481(2) 0.41396(15)
H36 H 0.0140 0.1825 0.4110
C48 C 0.1615(3) 0.0383(3) 0.43357(15)
H37 H 0.1063 -0.0012 0.4451
C49 C 0.2982(3) -0.0136(2) 0.43632(14)
H38 H 0.3354 -0.0888 0.4484
C50 C 0.3806(2) 0.04578(18) 0.42117(12)
H39 H 0.4731 0.0101 0.4230
C51 C 0.5388(2) 0.16558(16) 0.34254(11)
C52 C 0.6648(2) 0.14172(18) 0.36944(13)
H40 H 0.6733 0.1666 0.4163
C53 C 0.7786(3) 0.0810(2) 0.32709(18)
H41 H 0.8630 0.0643 0.3459
C54 C 0.7667(3) 0.0457(2) 0.25783(19)
H42 H 0.8431 0.0042 0.2297
C55 C 0.6438(4) 0.0710(2) 0.22980(14)
H43 H 0.6365 0.0484 0.1820
C56 C 0.5295(3) 0.13010(19) 0.27176(12)
H44 H 0.4457 0.1461 0.2523
loop_
_geom_bond_atom_site_label_1
_geom_bond_atom_site_label_2
_geom_bond_site_symmetry_1
_geom_bond_site_symmetry_2
S1 O1 1_555 1_555
O2 S1 1_555 1_555
N1 S1 1_555 1_555
N2 N1 1_555 1_555
C1 H1 1_555 1_555
C2 C1 1_555 1_555
H2 C2 1_555 1_555
C3 C2 1_555 1_555
H3 C3 1_555 1_555
C4 C3 1_555 1_555
H4 C4 1_555 1_555
C5 C4 1_555 1_555
H5 C5 1_555 1_555
C6 S1 1_555 1_555
C7 H6 1_555 1_555
C8 C7 1_555 1_555
H7 C8 1_555 1_555
C9 C8 1_555 1_555
H8 C9 1_555 1_555
C10 C9 1_555 1_555
H9 C10 1_555 1_555
C11 C10 1_555 1_555
H10 C11 1_555 1_555
C12 C7 1_555 1_555
C13 N1 1_555 1_555
H11 C13 1_555 1_555
C14 C13 1_555 1_555
C15 N2 1_555 1_555
H12 C15 1_555 1_555
C16 C14 1_555 1_555
C17 C16 1_555 1_555
C18 C17 1_555 1_555
H13 C18 1_555 1_555
C19 C18 1_555 1_555
H14 C19 1_555 1_555
C20 C19 1_555 1_555
H15 C20 1_555 1_555
C21 C20 1_555 1_555
H16 C21 1_555 1_555
C22 C17 1_555 1_555
H17 C22 1_555 1_555
C23 C16 1_555 1_555
C24 C23 1_555 1_555
H18 C24 1_555 1_555
C25 C24 1_555 1_555
H19 C25 1_555 1_555
C26 C25 1_555 1_555
H20 C26 1_555 1_555
C27 C26 1_555 1_555
H21 C27 1_555 1_555
C28 C23 1_555 1_555
H22 C28 1_555 1_555
S2 O3 1_555 1_555
O4 S2 1_555 1_555
N3 S2 1_555 1_555
N4 N3 1_555 1_555
C29 S2 1_555 1_555
C30 C29 1_555 1_555
H23 C30 1_555 1_555
C31 C30 1_555 1_555
H24 C31 1_555 1_555
C32 C31 1_555 1_555
H25 C32 1_555 1_555
C33 C32 1_555 1_555
H26 C33 1_555 1_555
C34 C29 1_555 1_555
H27 C34 1_555 1_555
C35 N4 1_555 1_555
H28 C35 1_555 1_555
C36 C35 1_555 1_555
C37 N3 1_555 1_555
H29 C37 1_555 1_555
C38 C37 1_555 1_555
C39 C38 1_555 1_555
H30 C39 1_555 1_555
C40 C39 1_555 1_555
H31 C40 1_555 1_555
C41 C40 1_555 1_555
H32 C41 1_555 1_555
C42 C41 1_555 1_555
H33 C42 1_555 1_555
C43 C38 1_555 1_555
H34 C43 1_555 1_555
C44 C36 1_555 1_555
C45 C44 1_555 1_555
C46 C45 1_555 1_555
H35 C46 1_555 1_555
C47 C46 1_555 1_555
H36 C47 1_555 1_555
C48 C47 1_555 1_555
H37 C48 1_555 1_555
C49 C48 1_555 1_555
H38 C49 1_555 1_555
C50 C45 1_555 1_555
H39 C50 1_555 1_555
C51 C44 1_555 1_555
C52 C51 1_555 1_555
H40 C52 1_555 1_555
C53 C52 1_555 1_555
H41 C53 1_555 1_555
C54 C53 1_555 1_555
H42 C54 1_555 1_555
C55 C54 1_555 1_555
H43 C55 1_555 1_555
C56 C51 1_555 1_555
H44 C56 1_555 1_555
C1 C6 1_555 1_555
C5 C6 1_555 1_555
C11 C12 1_555 1_555
C12 C13 1_555 1_555
C14 C15 1_555 1_555
C21 C22 1_555 1_555
C27 C28 1_555 1_555
C33 C34 1_555 1_555
C36 C37 1_555 1_555
C42 C43 1_555 1_555
C49 C50 1_555 1_555
C55 C56 1_555 1_555

#END
