
#######################################################################
#
#                 Cambridge Crystallographic Data Centre
#                                CCDC 
#
#######################################################################
#
# If this CIF has been generated from an entry in the Cambridge 
# Structural Database, then it will include bibliographic, chemical, 
# crystal, experimental, refinement or atomic coordinate data resulting 
# from the CCDC's data processing and validation procedures.
#
#######################################################################

data_ABEFOE
_chemical_formula_moiety         'C46 H34 O2'
_chemical_name_systematic        
1,3,4,7,8,10-Hexaphenyldeca-2,4,6,8-tetraene-1,10-dione
_symmetry_cell_setting           monoclinic
_symmetry_space_group_name_H-M   'P 2/n'
_symmetry_Int_Tables_number      13
_space_group_name_Hall           '-P 2yac'
loop_
_symmetry_equiv_pos_site_id
_symmetry_equiv_pos_as_xyz
1 x,y,z
2 1/2-x,y,1/2-z
3 -x,-y,-z
4 1/2+x,-y,1/2+z
_cell_length_a                   12.969(4)
_cell_length_b                   8.948(2)
_cell_length_c                   15.068(4)
_cell_angle_alpha                90
_cell_angle_beta                 93.586(6)
_cell_angle_gamma                90
_cell_volume                     1745.17
_exptl_crystal_colour            yellow
_exptl_crystal_description       block
_cell_formula_units_Z            2
loop_
_atom_site_label
_atom_site_type_symbol
_atom_site_fract_x
_atom_site_fract_y
_atom_site_fract_z
C1 C 0.03170(15) 0.4348(2) 0.00910(12)
C2 C 0.13089(15) 0.4351(2) 0.04019(11)
C3 C 0.19225(15) 0.2945(2) 0.05383(13)
C4 C 0.18495(18) 0.1787(2) -0.00647(15)
C5 C 0.2475(2) 0.0515(3) 0.00798(19)
C6 C 0.3145(2) 0.0422(3) 0.0807(2)
C7 C 0.32104(18) 0.1552(3) 0.14009(19)
C8 C 0.26121(17) 0.2825(2) 0.12706(15)
C9 C 0.19235(14) 0.5741(2) 0.05870(11)
C10 C 0.27716(15) 0.60008(19) -0.00061(12)
C11 C 0.26398(19) 0.5686(3) -0.09047(14)
C12 C 0.3443(2) 0.5927(3) -0.14577(15)
C13 C 0.4369(2) 0.6467(3) -0.11295(19)
C14 C 0.45236(18) 0.6761(3) -0.02421(19)
C15 C 0.37275(17) 0.6527(2) 0.03196(14)
C16 C 0.17377(16) 0.6711(2) 0.12317(13)
C17 C 0.09312(17) 0.6554(3) 0.18683(14)
C18 C 0.02938(17) 0.7896(3) 0.20643(14)
C19 C 0.03983(19) 0.9244(3) 0.16394(18)
C20 C -0.0241(2) 1.0431(3) 0.1815(2)
C21 C -0.0974(3) 1.0288(5) 0.2392(3)
C22 C -0.1084(3) 0.8977(6) 0.2833(2)
C23 C -0.0455(2) 0.7771(4) 0.26741(18)
O1 O 0.07801(14) 0.5351(2) 0.22255(11)
H1 H -0.0032 0.3407 -0.0036
H2 H 0.1353 0.1849 -0.0533
H3 H 0.2343 -0.0132 -0.0284
H4 H 0.3513 -0.0460 0.0920
H5 H 0.3664 0.1467 0.1947
H6 H 0.2664 0.3571 0.1708
H7 H 0.1970 0.5334 -0.1132
H8 H 0.3266 0.5767 -0.2098
H9 H 0.4907 0.6664 -0.1557
H10 H 0.5196 0.7190 0.0044
H11 H 0.3823 0.6711 0.0939
H12 H 0.2109 0.7561 0.1291
H13 H 0.0914 0.9288 0.1198
H14 H -0.0128 1.1400 0.1538
H15 H -0.1429 1.1222 0.2507
H16 H -0.1515 0.8788 0.3228
H17 H -0.0510 0.6845 0.2942
C1B C -0.03170(15) 0.5652(2) -0.00910(12)
C2B C -0.13089(15) 0.5649(2) -0.04019(11)
C3B C -0.19225(15) 0.7055(2) -0.05383(13)
C4B C -0.18495(18) 0.8213(2) 0.00647(15)
C5B C -0.2475(2) 0.9485(3) -0.00798(19)
C6B C -0.3145(2) 0.9578(3) -0.0807(2)
C7B C -0.32104(18) 0.8448(3) -0.14009(19)
C8B C -0.26121(17) 0.7175(2) -0.12706(15)
C9B C -0.19235(14) 0.4259(2) -0.05870(11)
C10B C -0.27716(15) 0.39992(19) 0.00061(12)
C11B C -0.26398(19) 0.4314(3) 0.09047(14)
C12B C -0.3443(2) 0.4073(3) 0.14577(15)
C13B C -0.4369(2) 0.3533(3) 0.11295(19)
C14B C -0.45236(18) 0.3239(3) 0.02421(19)
C15B C -0.37275(17) 0.3473(2) -0.03196(14)
C16B C -0.17377(16) 0.3289(2) -0.12317(13)
C17B C -0.09312(17) 0.3446(3) -0.18683(14)
C18B C -0.02938(17) 0.2104(3) -0.20643(14)
C19B C -0.03983(19) 0.0756(3) -0.16394(18)
C20B C 0.0241(2) -0.0431(3) -0.1815(2)
C21B C 0.0974(3) -0.0288(5) -0.2392(3)
C22B C 0.1084(3) 0.1023(6) -0.2833(2)
C23B C 0.0455(2) 0.2229(4) -0.26741(18)
O1B O -0.07801(14) 0.4649(2) -0.22255(11)
H1B H 0.0032 0.6593 0.0036
H2B H -0.1353 0.8151 0.0533
H3B H -0.2343 1.0132 0.0284
H4B H -0.3513 1.0460 -0.0920
H5B H -0.3664 0.8533 -0.1947
H6B H -0.2664 0.6429 -0.1708
H7B H -0.1970 0.4666 0.1132
H8B H -0.3266 0.4233 0.2098
H9B H -0.4907 0.3336 0.1557
H10B H -0.5196 0.2810 -0.0044
H11B H -0.3823 0.3289 -0.0939
H12B H -0.2109 0.2439 -0.1291
H13B H -0.0914 0.0712 -0.1198
H14B H 0.0128 -0.1400 -0.1538
H15B H 0.1429 -0.1222 -0.2507
H16B H 0.1515 0.1212 -0.3228
H17B H 0.0510 0.3155 -0.2942
loop_
_geom_bond_atom_site_label_1
_geom_bond_atom_site_label_2
_geom_bond_site_symmetry_1
_geom_bond_site_symmetry_2
C1 C2 1_555 1_555
C2 C3 1_555 1_555
C3 C4 1_555 1_555
C4 C5 1_555 1_555
C5 C6 1_555 1_555
C6 C7 1_555 1_555
C7 C8 1_555 1_555
C8 C3 1_555 1_555
C9 C2 1_555 1_555
C10 C9 1_555 1_555
C11 C10 1_555 1_555
C12 C11 1_555 1_555
C13 C12 1_555 1_555
C14 C13 1_555 1_555
C15 C10 1_555 1_555
C16 C9 1_555 1_555
C17 C16 1_555 1_555
C18 C17 1_555 1_555
C19 C18 1_555 1_555
C20 C19 1_555 1_555
C21 C20 1_555 1_555
C22 C21 1_555 1_555
C23 C18 1_555 1_555
O1 C17 1_555 1_555
H1 C1 1_555 1_555
H2 C4 1_555 1_555
H3 C5 1_555 1_555
H4 C6 1_555 1_555
H5 C7 1_555 1_555
H6 C8 1_555 1_555
H7 C11 1_555 1_555
H8 C12 1_555 1_555
H9 C13 1_555 1_555
H10 C14 1_555 1_555
H11 C15 1_555 1_555
H12 C16 1_555 1_555
H13 C19 1_555 1_555
H14 C20 1_555 1_555
H15 C21 1_555 1_555
H16 C22 1_555 1_555
H17 C23 1_555 1_555
C1B C1 1_555 1_555
C2B C1B 1_555 1_555
C3B C2B 1_555 1_555
C4B C3B 1_555 1_555
C5B C4B 1_555 1_555
C6B C5B 1_555 1_555
C7B C6B 1_555 1_555
C8B C3B 1_555 1_555
C9B C2B 1_555 1_555
C10B C9B 1_555 1_555
C11B C10B 1_555 1_555
C12B C11B 1_555 1_555
C13B C12B 1_555 1_555
C14B C13B 1_555 1_555
C15B C10B 1_555 1_555
C16B C9B 1_555 1_555
C17B C16B 1_555 1_555
C18B C17B 1_555 1_555
C19B C18B 1_555 1_555
C20B C19B 1_555 1_555
C21B C20B 1_555 1_555
C22B C21B 1_555 1_555
C23B C18B 1_555 1_555
O1B C17B 1_555 1_555
H1B C1B 1_555 1_555
H2B C4B 1_555 1_555
H3B C5B 1_555 1_555
H4B C6B 1_555 1_555
H5B C7B 1_555 1_555
H6B C8B 1_555 1_555
H7B C11B 1_555 1_555
H8B C12B 1_555 1_555
H9B C13B 1_555 1_555
H10B C14B 1_555 1_555
H11B C15B 1_555 1_555
H12B C16B 1_555 1_555
H13B C19B 1_555 1_555
H14B C20B 1_555 1_555
H15B C21B 1_555 1_555
H16B C22B 1_555 1_555
H17B C23B 1_555 1_555
C14 C15 1_555 1_555
C22 C23 1_555 1_555
C7B C8B 1_555 1_555
C14B C15B 1_555 1_555
C22B C23B 1_555 1_555

#END
