
#######################################################################
#
#                 Cambridge Crystallographic Data Centre
#                                CCDC 
#
#######################################################################
#
# If this CIF has been generated from an entry in the Cambridge 
# Structural Database, then it will include bibliographic, chemical, 
# crystal, experimental, refinement or atomic coordinate data resulting 
# from the CCDC's data processing and validation procedures.
#
#######################################################################

data_ABEMOK
_chemical_formula_moiety         'C21 H27 N1 O4 S1'
_chemical_name_systematic        
N-(3-Isopropoxy-4-methoxy-2-((E)-1-propenyl)benzyl)(phenyl)methanesulfonamide
_symmetry_cell_setting           monoclinic
_symmetry_space_group_name_H-M   'P 21/c'
_symmetry_Int_Tables_number      14
_space_group_name_Hall           '-P 2ybc'
loop_
_symmetry_equiv_pos_site_id
_symmetry_equiv_pos_as_xyz
1 x,y,z
2 x,1/2-y,1/2+z
3 -x,-y,-z
4 -x,1/2+y,1/2-z
_cell_length_a                   13.659(2)
_cell_length_b                   16.160(2)
_cell_length_c                   9.5621(14)
_cell_angle_alpha                90
_cell_angle_beta                 102.561(3)
_cell_angle_gamma                90
_cell_volume                     2060.12
_exptl_crystal_colour            colorless
_exptl_crystal_description       prism
_chemical_melting_point          '400-403 K'
_cell_formula_units_Z            4
loop_
_atom_site_label
_atom_site_type_symbol
_atom_site_fract_x
_atom_site_fract_y
_atom_site_fract_z
S1 S 0.35696(3) -0.02424(3) 0.83788(5)
N1 N 0.25280(12) -0.02030(11) 0.7215(2)
H1 H 0.2248 -0.0673 0.6875
O1 O -0.15353(10) 0.13890(9) 0.49647(14)
O2 O -0.21083(11) 0.04541(11) 0.69458(17)
O3 O 0.35878(11) 0.04375(10) 0.93504(16)
O4 O 0.36721(11) -0.10722(10) 0.89225(18)
C1 C 0.09232(14) 0.05621(13) 0.6799(2)
C2 C 0.01989(14) 0.10387(12) 0.5857(2)
C3 C -0.08050(14) 0.09765(12) 0.5956(2)
C4 C -0.10974(14) 0.04774(14) 0.6985(2)
C5 C -0.03759(16) 0.00357(16) 0.7941(2)
H2 H -0.0560 -0.0292 0.8668
C6 C 0.06206(15) 0.00775(15) 0.7821(2)
H3 H 0.1109 -0.0237 0.8463
C7 C 0.20184(14) 0.05663(13) 0.6688(2)
H4 H 0.2056 0.0648 0.5675
H5 H 0.2367 0.1036 0.7249
C8 C 0.04433(17) 0.16028(15) 0.4770(3)
H6 H 0.0029 0.1581 0.3834
C9 C 0.1214(2) 0.2150(2) 0.5004(4)
H7 H 0.1664 0.2130 0.5913
C10 C 0.1413(3) 0.2760(3) 0.4005(5)
H8 H 0.2091 0.2679 0.3845
H9 H 0.1358 0.3315 0.4394
H10 H 0.0924 0.2701 0.3094
C11 C -0.20249(16) 0.20851(14) 0.5524(3)
H11 H -0.2104 0.1952 0.6515
C12 C -0.1400(2) 0.28542(17) 0.5562(4)
H12 H -0.0743 0.2767 0.6203
H13 H -0.1739 0.3319 0.5914
H14 H -0.1309 0.2978 0.4595
C13 C -0.30385(19) 0.21659(19) 0.4551(4)
H15 H -0.2963 0.2240 0.3562
H16 H -0.3386 0.2646 0.4839
H17 H -0.3430 0.1664 0.4613
C14 C -0.24163(19) 0.0065(2) 0.8110(3)
H18 H -0.2274 -0.0529 0.8101
H19 H -0.3138 0.0150 0.8021
H20 H -0.2050 0.0306 0.9014
C15 C 0.45748(14) -0.00933(13) 0.7478(2)
H21 H 0.5220 -0.0120 0.8189
H22 H 0.4568 -0.0550 0.6785
C16 C 0.45144(14) 0.07166(13) 0.6695(2)
C17 C 0.40238(16) 0.07679(14) 0.5256(2)
H23 H 0.3760 0.0282 0.4752
C18 C 0.39202(18) 0.15237(16) 0.4562(3)
H24 H 0.3582 0.1555 0.3584
C19 C 0.43051(19) 0.22346(16) 0.5281(3)
H25 H 0.4222 0.2754 0.4805
C20 C 0.48123(19) 0.21845(15) 0.6697(3)
H26 H 0.5088 0.2671 0.7188
C21 C 0.49225(16) 0.14291(14) 0.7406(2)
H27 H 0.5276 0.1399 0.8377
loop_
_geom_bond_atom_site_label_1
_geom_bond_atom_site_label_2
_geom_bond_site_symmetry_1
_geom_bond_site_symmetry_2
S1 N1 1_555 1_555
N1 H1 1_555 1_555
O1 C3 1_555 1_555
O2 C4 1_555 1_555
O3 S1 1_555 1_555
O4 S1 1_555 1_555
C1 C2 1_555 1_555
C2 C3 1_555 1_555
C3 C4 1_555 1_555
C4 C5 1_555 1_555
C5 H2 1_555 1_555
C6 C1 1_555 1_555
H3 C6 1_555 1_555
C7 N1 1_555 1_555
H4 C7 1_555 1_555
H5 C7 1_555 1_555
C8 C2 1_555 1_555
H6 C8 1_555 1_555
C9 C8 1_555 1_555
H7 C9 1_555 1_555
C10 C9 1_555 1_555
H8 C10 1_555 1_555
H9 C10 1_555 1_555
H10 C10 1_555 1_555
C11 O1 1_555 1_555
H11 C11 1_555 1_555
C12 C11 1_555 1_555
H12 C12 1_555 1_555
H13 C12 1_555 1_555
H14 C12 1_555 1_555
C13 C11 1_555 1_555
H15 C13 1_555 1_555
H16 C13 1_555 1_555
H17 C13 1_555 1_555
C14 O2 1_555 1_555
H18 C14 1_555 1_555
H19 C14 1_555 1_555
H20 C14 1_555 1_555
C15 S1 1_555 1_555
H21 C15 1_555 1_555
H22 C15 1_555 1_555
C16 C15 1_555 1_555
C17 C16 1_555 1_555
H23 C17 1_555 1_555
C18 C17 1_555 1_555
H24 C18 1_555 1_555
C19 C18 1_555 1_555
H25 C19 1_555 1_555
C20 C19 1_555 1_555
H26 C20 1_555 1_555
C21 C16 1_555 1_555
H27 C21 1_555 1_555
C1 C7 1_555 1_555
C5 C6 1_555 1_555
C20 C21 1_555 1_555

#END
