
#######################################################################
#
#                 Cambridge Crystallographic Data Centre
#                                CCDC 
#
#######################################################################
#
# If this CIF has been generated from an entry in the Cambridge 
# Structural Database, then it will include bibliographic, chemical, 
# crystal, experimental, refinement or atomic coordinate data resulting 
# from the CCDC's data processing and validation procedures.
#
#######################################################################

data_ABEPIH
_chemical_name_common            
'5-Methyl-2,6-dioxo-1,2,3,6-tetrahydropyrimidine-3-acetic acid'
_chemical_formula_moiety         'C7 H8 N2 O4'
_chemical_name_systematic        1-Carboxymethylthymine
_symmetry_cell_setting           monoclinic
_symmetry_space_group_name_H-M   'P 21/n'
_symmetry_Int_Tables_number      14
_space_group_name_Hall           '-P 2yn'
loop_
_symmetry_equiv_pos_site_id
_symmetry_equiv_pos_as_xyz
1 x,y,z
2 1/2+x,1/2-y,1/2+z
3 -x,-y,-z
4 1/2-x,1/2+y,1/2-z
_cell_length_a                   5.0372(2)
_cell_length_b                   17.1314(7)
_cell_length_c                   9.2598(4)
_cell_angle_alpha                90
_cell_angle_beta                 99.476(2)
_cell_angle_gamma                90
_cell_volume                     788.164
_exptl_crystal_colour            colorless
_exptl_crystal_description       block
_cell_formula_units_Z            4
_exptl_crystal_recrystallization_method 'anhydrous ethanol'
loop_
_atom_site_label
_atom_site_type_symbol
_atom_site_fract_x
_atom_site_fract_y
_atom_site_fract_z
O1 O 0.8790(3) 0.40450(7) 0.67206(15)
H1 H 1.0066 0.4349 0.6849
O2 O 1.1614(3) 0.32520(8) 0.81459(15)
O3 O 0.6592(3) 0.19558(8) 0.93879(14)
O4 O 1.2021(3) -0.00532(7) 0.86085(13)
N1 N 0.8438(3) 0.19748(8) 0.72962(15)
N2 N 0.9191(3) 0.09355(8) 0.89026(15)
H2 H 0.8826 0.0696 0.9663
C1 C 0.9539(3) 0.33680(10) 0.73369(18)
C2 C 0.7413(3) 0.27532(10) 0.6891(2)
H3 H 0.5868 0.2859 0.7362
H4 H 0.6826 0.2776 0.5840
C3 C 0.7964(3) 0.16488(10) 0.85882(18)
C4 C 1.0932(3) 0.05663(9) 0.81338(17)
C5 C 1.1335(3) 0.09379(10) 0.67952(18)
C6 C 1.0091(3) 0.16191(10) 0.64520(18)
H5 H 1.0359 0.1866 0.5593
C7 C 1.3104(4) 0.05520(12) 0.5855(2)
H6 H 1.2993 0.0832 0.4948
H7 H 1.2521 0.0024 0.5659
H8 H 1.4932 0.0554 0.6355
loop_
_geom_bond_atom_site_label_1
_geom_bond_atom_site_label_2
_geom_bond_site_symmetry_1
_geom_bond_site_symmetry_2
O1 H1 1_555 1_555
O2 C1 1_555 1_555
O3 C3 1_555 1_555
O4 C4 1_555 1_555
N1 C2 1_555 1_555
N2 H2 1_555 1_555
C1 O1 1_555 1_555
C2 C1 1_555 1_555
H3 C2 1_555 1_555
H4 C2 1_555 1_555
C3 N1 1_555 1_555
C4 N2 1_555 1_555
C5 C4 1_555 1_555
C6 N1 1_555 1_555
H5 C6 1_555 1_555
C7 C5 1_555 1_555
H6 C7 1_555 1_555
H7 C7 1_555 1_555
H8 C7 1_555 1_555
N2 C3 1_555 1_555
C5 C6 1_555 1_555

#END
