
#######################################################################
#
#                 Cambridge Crystallographic Data Centre
#                                CCDC 
#
#######################################################################
#
# If this CIF has been generated from an entry in the Cambridge 
# Structural Database, then it will include bibliographic, chemical, 
# crystal, experimental, refinement or atomic coordinate data resulting 
# from the CCDC's data processing and validation procedures.
#
#######################################################################

data_ABEWEJ
_chemical_formula_moiety         'C72 H132 K4 N4 O6 Si4'
_chemical_name_systematic        
bis(\m~3~-\h^5^,\h^5^,\h^5^-1,4-bis(2-Trimethylsilylamido-3,3-dimethylbut-1-enyl)benzene)-hexakis(tetrahydrofuran)-tetra-potassium
_symmetry_cell_setting           monoclinic
_symmetry_space_group_name_H-M   'P 21/n'
_symmetry_Int_Tables_number      14
_space_group_name_Hall           '-P 2yn'
loop_
_symmetry_equiv_pos_site_id
_symmetry_equiv_pos_as_xyz
1 x,y,z
2 1/2-x,1/2+y,1/2-z
3 -x,-y,-z
4 1/2+x,1/2-y,1/2+z
_cell_length_a                   13.467(3)
_cell_length_b                   20.821(4)
_cell_length_c                   16.404(3)
_cell_angle_alpha                90
_cell_angle_beta                 95.52(3)
_cell_angle_gamma                90
_cell_volume                     4578.29
_exptl_crystal_colour            yellow
_cell_formula_units_Z            2
_exptl_crystal_recrystallization_method THF/hexane
loop_
_atom_site_label
_atom_site_type_symbol
_atom_site_fract_x
_atom_site_fract_y
_atom_site_fract_z
K1 K 0.3659(1) -0.1488(1) 0.2294(1)
K2 K 0.3645(1) -0.0883(1) 0.5400(1)
Si1 Si 0.1879(1) -0.0080(1) 0.6711(1)
Si2 Si 0.4211(1) -0.2411(1) 0.4334(1)
N1 N 0.3494(1) -0.1802(1) 0.4031(1)
N2 N 0.2897(1) -0.0525(1) 0.6862(1)
C1 C 0.2628(1) -0.1492(1) 0.3860(1)
C2 C 0.2565(1) -0.0851(1) 0.3675(1)
C3 C 0.3382(1) -0.0385(1) 0.3542(1)
C4 C 0.3128(1) 0.0223(1) 0.3252(1)
C5 C 0.3806(1) 0.0657(1) 0.3035(1)
C6 C 0.5157(1) -0.0529(1) 0.6902(1)
C7 C 0.4889(1) 0.0070(1) 0.6578(1)
C8 C 0.4408(1) -0.0519(1) 0.3655(1)
C9 C 0.4485(1) -0.0982(1) 0.7201(1)
C10 C 0.3473(1) -0.0978(1) 0.7237(1)
C11 C 0.3807(4) -0.3246(2) 0.3930(4)
C12 C 0.5109(5) -0.2155(3) 0.5318(5)
C13 C 0.5339(3) -0.2372(3) 0.3691(4)
C14 C 0.1638(1) -0.1886(1) 0.3841(1)
C15 C 0.1593(2) -0.2195(1) 0.4687(2)
C16 C 0.1629(2) -0.2379(1) 0.3149(2)
C17 C 0.0688(1) -0.1483(1) 0.3690(2)
C18 C 0.2207(3) 0.0784(2) 0.6691(4)
C19 C 0.0875(3) -0.0136(3) 0.7411(3)
C20 C 0.1248(3) -0.0235(3) 0.5670(3)
C21 C 0.2961(2) -0.1526(1) 0.7695(1)
C22 C 0.3656(2) -0.2072(1) 0.7982(2)
C23 C 0.2086(2) -0.1806(1) 0.7135(1)
C24 C 0.2557(2) -0.1228(1) 0.8442(1)
O1 O 0.5249(2) -0.1175(2) 0.1523(2)
C25 C 0.5148(6) -0.0466(4) 0.1223(4)
C26 C 0.6103(5) -0.0373(3) 0.0718(4)
C27 C 0.6540(5) -0.1186(3) 0.0753(5)
C28 C 0.5915(5) -0.1504(3) 0.1241(4)
O2 O 0.3490(3) -0.2495(1) 0.1296(2)
C29 C 0.4034(5) -0.3162(3) 0.1431(4)
C30 C 0.3795(5) -0.3508(2) 0.0778(4)
C31 C 0.2782(5) -0.3365(3) 0.0502(3)
C32 C 0.2854(5) -0.2532(2) 0.0641(3)
O3 O 0.2215(2) -0.0927(2) 0.1274(2)
C33 C 0.1194(4) -0.0814(3) 0.1460(3)
C34 C 0.1143(6) -0.0131(2) 0.1105(5)
C35 C 0.1685(5) -0.0075(3) 0.0517(5)
C36 C 0.2418(5) -0.0672(5) 0.0634(4)
H1 H 0.1886 -0.0690 0.3510
H2 H 0.2459(1) 0.0341(1) 0.3203(1)
H3 H 0.3622(11) 0.1062(7) 0.2920(9)
H4 H 0.4216(1) 0.0179(1) 0.6512(1)
H5 H 0.4700(10) -0.0978(6) 0.3887(8)
H6 H 0.4759(8) -0.1273(5) 0.7435(7)
H7 H 0.3933(4) -0.3490(2) 0.4426(4)
H8 H 0.3104(4) -0.3246(2) 0.3763(4)
H9 H 0.4157(4) -0.3437(2) 0.3508(4)
H10 H 0.5143(5) -0.2585(3) 0.5530(5)
H11 H 0.5747(5) -0.1951(3) 0.5429(5)
H12 H 0.4615(5) -0.1917(3) 0.5574(5)
H13 H 0.5860(3) -0.2582(3) 0.4032(4)
H14 H 0.5258(3) -0.2577(3) 0.3165(4)
H15 H 0.5513(3) -0.1929(3) 0.3624(4)
H16 H 0.1003(2) -0.2454(1) 0.4699(2)
H17 H 0.2173(2) -0.2458(1) 0.4814(2)
H18 H 0.1584(2) -0.1857(1) 0.5084(2)
H19 H 0.1037(2) -0.2637(1) 0.3123(2)
H20 H 0.1656(2) -0.2157(1) 0.2638(2)
H21 H 0.2205(2) -0.2649(1) 0.3249(2)
H22 H 0.0103(1) -0.1748(1) 0.3679(2)
H23 H 0.0678(1) -0.1172(1) 0.4121(2)
H24 H 0.0697(1) -0.1266(1) 0.3175(2)
H25 H 0.2728(3) 0.0847(2) 0.6339(4)
H26 H 0.1630(3) 0.1028(2) 0.6488(4)
H27 H 0.2432(3) 0.0924(2) 0.7235(4)
H28 H 0.0667(3) -0.0575(3) 0.7449(3)
H29 H 0.1122(3) 0.0016(3) 0.7945(3)
H30 H 0.0317(3) 0.0122(3) 0.7201(3)
H31 H 0.1050(3) -0.0678(3) 0.5627(3)
H32 H 0.0670(3) 0.0034(3) 0.5579(3)
H33 H 0.1700(3) -0.0142(3) 0.5267(3)
H34 H 0.4198(2) -0.1902(1) 0.8340(2)
H35 H 0.3912(2) -0.2264(1) 0.7513(2)
H36 H 0.3309(2) -0.2390(1) 0.8269(2)
H37 H 0.1771(2) -0.2146(1) 0.7409(1)
H38 H 0.2338(2) -0.1970(1) 0.6648(1)
H39 H 0.1607(2) -0.1473(1) 0.6989(1)
H40 H 0.3100(2) -0.1056(1) 0.8798(1)
H41 H 0.2204(2) -0.1540(1) 0.8734(1)
H42 H 0.2111(2) -0.0887(1) 0.8257(1)
C5B C 0.6194(1) -0.0657(1) 0.6965(1)
C4B C 0.6872(1) -0.0223(1) 0.6748(1)
C3B C 0.6618(1) 0.0385(1) 0.6458(1)
K1B K 0.6341(1) 0.1488(1) 0.7706(1)
N1B N 0.6506(1) 0.1802(1) 0.5969(1)
K2B K 0.6355(1) 0.0883(1) 0.4600(1)
N2B N 0.7103(1) 0.0525(1) 0.3138(1)
Si1B Si 0.8121(1) 0.0080(1) 0.3289(1)
C18B C 0.7793(3) -0.0784(2) 0.3309(4)
H25B H 0.7272(3) -0.0847(2) 0.3661(4)
H26B H 0.8370(3) -0.1028(2) 0.3512(4)
H27B H 0.7568(3) -0.0924(2) 0.2765(4)
C19B C 0.9125(3) 0.0136(3) 0.2589(3)
H28B H 0.9333(3) 0.0575(3) 0.2551(3)
H29B H 0.8878(3) -0.0016(3) 0.2055(3)
H30B H 0.9683(3) -0.0122(3) 0.2799(3)
C20B C 0.8752(3) 0.0235(3) 0.4330(3)
H31B H 0.8950(3) 0.0678(3) 0.4373(3)
H32B H 0.9330(3) -0.0034(3) 0.4421(3)
H33B H 0.8300(3) 0.0142(3) 0.4733(3)
C10B C 0.6527(1) 0.0978(1) 0.2763(1)
C1B C 0.7372(1) 0.1492(1) 0.6140(1)
C2B C 0.7435(1) 0.0851(1) 0.6325(1)
Si2B Si 0.5789(1) 0.2411(1) 0.5666(1)
C11B C 0.6193(4) 0.3246(2) 0.6070(4)
H7B H 0.6067(4) 0.3490(2) 0.5574(4)
H8B H 0.6896(4) 0.3246(2) 0.6237(4)
H9B H 0.5843(4) 0.3437(2) 0.6492(4)
C12B C 0.4891(5) 0.2155(3) 0.4682(5)
H10B H 0.4857(5) 0.2585(3) 0.4470(5)
H11B H 0.4253(5) 0.1951(3) 0.4571(5)
H12B H 0.5385(5) 0.1917(3) 0.4426(5)
C13B C 0.4661(3) 0.2372(3) 0.6309(4)
H13B H 0.4140(3) 0.2582(3) 0.5968(4)
H14B H 0.4742(3) 0.2577(3) 0.6835(4)
H15B H 0.4487(3) 0.1929(3) 0.6376(4)
C14B C 0.8362(1) 0.1886(1) 0.6159(1)
C15B C 0.8407(2) 0.2195(1) 0.5313(2)
H16B H 0.8997(2) 0.2454(1) 0.5301(2)
H17B H 0.7827(2) 0.2458(1) 0.5186(2)
H18B H 0.8416(2) 0.1857(1) 0.4916(2)
C16B C 0.8371(2) 0.2379(1) 0.6851(2)
H19B H 0.8963(2) 0.2637(1) 0.6877(2)
H20B H 0.8344(2) 0.2157(1) 0.7362(2)
H21B H 0.7795(2) 0.2649(1) 0.6751(2)
C17B C 0.9312(1) 0.1483(1) 0.6310(2)
H22B H 0.9897(1) 0.1748(1) 0.6321(2)
H23B H 0.9322(1) 0.1172(1) 0.5879(2)
H24B H 0.9303(1) 0.1266(1) 0.6825(2)
H1B H 0.8114 0.0690 0.6490
C8B C 0.5592(1) 0.0519(1) 0.6345(1)
O1B O 0.4751(2) 0.1175(2) 0.8477(2)
C25B C 0.4852(6) 0.0466(4) 0.8777(4)
C26B C 0.3897(5) 0.0373(3) 0.9282(4)
C27B C 0.3460(5) 0.1186(3) 0.9247(5)
C28B C 0.4085(5) 0.1504(3) 0.8759(4)
O2B O 0.6510(3) 0.2495(1) 0.8704(2)
C29B C 0.5966(5) 0.3162(3) 0.8569(4)
C30B C 0.6205(5) 0.3508(2) 0.9222(4)
C31B C 0.7218(5) 0.3365(3) 0.9498(3)
C32B C 0.7146(5) 0.2532(2) 0.9359(3)
O3B O 0.7785(2) 0.0927(2) 0.8726(2)
C33B C 0.8806(4) 0.0814(3) 0.8540(3)
C34B C 0.8857(6) 0.0131(2) 0.8895(5)
C35B C 0.8315(5) 0.0075(3) 0.9483(5)
C36B C 0.7582(5) 0.0672(5) 0.9366(4)
C6B C 0.4843(1) 0.0529(1) 0.3098(1)
C7B C 0.5111(1) -0.0070(1) 0.3422(1)
C9B C 0.5515(1) 0.0982(1) 0.2799(1)
H4B H 0.5784(1) -0.0179(1) 0.3488(1)
C21B C 0.7039(2) 0.1526(1) 0.2305(1)
C22B C 0.6344(2) 0.2072(1) 0.2018(2)
H34B H 0.5802(2) 0.1902(1) 0.1660(2)
H35B H 0.6088(2) 0.2264(1) 0.2487(2)
H36B H 0.6691(2) 0.2390(1) 0.1731(2)
C23B C 0.7914(2) 0.1806(1) 0.2865(1)
H37B H 0.8229(2) 0.2146(1) 0.2591(1)
H38B H 0.7662(2) 0.1970(1) 0.3352(1)
H39B H 0.8393(2) 0.1473(1) 0.3011(1)
C24B C 0.7443(2) 0.1228(1) 0.1558(1)
H40B H 0.6900(2) 0.1056(1) 0.1202(1)
H41B H 0.7796(2) 0.1540(1) 0.1266(1)
H42B H 0.7889(2) 0.0887(1) 0.1743(1)
H6B H 0.5241(8) 0.1273(5) 0.2565(7)
H5B H 0.5300(10) 0.0978(6) 0.6113(8)
H2B H 0.7541(1) -0.0341(1) 0.6797(1)
H3B H 0.6378(11) -0.1062(7) 0.7080(9)
C37? C 0.3782(7) -0.3294(5) 0.4338(6)
C38? C 0.4459(4) -0.2456(2) 0.5443(3)
C39? C 0.5440(5) -0.2372(3) 0.3980(4)
C40? C 0.8245(7) -0.0259(4) 0.4376(6)
C41? C 0.8290(9) -0.0523(6) 0.2463(8)
C42? C 0.9474(8) 0.0465(5) 0.3308(6)
O4? O 0.4896(4) -0.1033(2) 0.1217(3)
C43? C 0.5637(5) -0.0429(3) 0.1379(4)
C44? C 0.6420(6) -0.0701(4) 0.0846(5)
C45? C 0.5884(7) -0.0944(4) 0.0130(6)
C46? C 0.5192(6) -0.1324(4) 0.0512(5)
O5? O 0.3492(3) -0.2675(2) 0.1540(3)
C47? C 0.4046(9) -0.2637(7) 0.0602(8)
C48? C 0.3635(5) -0.3160(4) 0.0243(4)
C49? C 0.2948(6) -0.3017(4) 0.0093(5)
C50? C 0.2704(8) -0.3009(5) 0.1188(6)
O6? O 0.2306(5) -0.0963(3) 0.1326(4)
C51? C 0.1554(6) -0.1187(4) 0.0822(6)
C52? C 0.0717(5) -0.0559(3) 0.0838(4)
C53? C 0.1283(7) -0.0514(4) 0.0199(5)
C54? C 0.2395(6) -0.0269(4) 0.1073(5)
loop_
_geom_bond_atom_site_label_1
_geom_bond_atom_site_label_2
_geom_bond_site_symmetry_1
_geom_bond_site_symmetry_2
K1 N1 1_555 1_555
K2 N1 1_555 1_555
Si1 N2 1_555 1_555
Si2 N1 1_555 1_555
N1 C1 1_555 1_555
N2 K2 1_555 1_555
C1 K1 1_555 1_555
C2 K1 1_555 1_555
C3 K1 1_555 1_555
C4 C3 1_555 1_555
C5 C4 1_555 1_555
C6 K2 1_555 1_555
C7 K2 1_555 1_555
C8 K1 1_555 1_555
C9 K2 1_555 1_555
C10 K2 1_555 1_555
C11 Si2 1_555 1_555
C12 Si2 1_555 1_555
C13 Si2 1_555 1_555
C14 C1 1_555 1_555
C15 C14 1_555 1_555
C16 C14 1_555 1_555
C17 C14 1_555 1_555
C18 Si1 1_555 1_555
C19 Si1 1_555 1_555
C20 Si1 1_555 1_555
C21 C10 1_555 1_555
C22 C21 1_555 1_555
C23 C21 1_555 1_555
C24 C21 1_555 1_555
O1 K1 1_555 1_555
C25 O1 1_555 1_555
C26 C25 1_555 1_555
C27 C26 1_555 1_555
C28 O1 1_555 1_555
O2 K1 1_555 1_555
C29 O2 1_555 1_555
C30 C29 1_555 1_555
C31 C30 1_555 1_555
C32 O2 1_555 1_555
O3 K1 1_555 1_555
C33 O3 1_555 1_555
C34 C33 1_555 1_555
C35 C34 1_555 1_555
C36 O3 1_555 1_555
H1 C2 1_555 1_555
H2 C4 1_555 1_555
H3 C5 1_555 1_555
H4 C7 1_555 1_555
H5 C8 1_555 1_555
H6 C9 1_555 1_555
H7 C11 1_555 1_555
H8 C11 1_555 1_555
H9 C11 1_555 1_555
H10 C12 1_555 1_555
H11 C12 1_555 1_555
H12 C12 1_555 1_555
H13 C13 1_555 1_555
H14 C13 1_555 1_555
H15 C13 1_555 1_555
H16 C15 1_555 1_555
H17 C15 1_555 1_555
H18 C15 1_555 1_555
H19 C16 1_555 1_555
H20 C16 1_555 1_555
H21 C16 1_555 1_555
H22 C17 1_555 1_555
H23 C17 1_555 1_555
H24 C17 1_555 1_555
H25 C18 1_555 1_555
H26 C18 1_555 1_555
H27 C18 1_555 1_555
H28 C19 1_555 1_555
H29 C19 1_555 1_555
H30 C19 1_555 1_555
H31 C20 1_555 1_555
H32 C20 1_555 1_555
H33 C20 1_555 1_555
H34 C22 1_555 1_555
H35 C22 1_555 1_555
H36 C22 1_555 1_555
H37 C23 1_555 1_555
H38 C23 1_555 1_555
H39 C23 1_555 1_555
H40 C24 1_555 1_555
H41 C24 1_555 1_555
H42 C24 1_555 1_555
C5B C6 1_555 1_555
C4B C5B 1_555 1_555
C3B C4B 1_555 1_555
K1B C3B 1_555 1_555
N1B K1B 1_555 1_555
K2B C3B 1_555 1_555
N2B K2B 1_555 1_555
Si1B N2B 1_555 1_555
C18B Si1B 1_555 1_555
H25B C18B 1_555 1_555
H26B C18B 1_555 1_555
H27B C18B 1_555 1_555
C19B Si1B 1_555 1_555
H28B C19B 1_555 1_555
H29B C19B 1_555 1_555
H30B C19B 1_555 1_555
C20B Si1B 1_555 1_555
H31B C20B 1_555 1_555
H32B C20B 1_555 1_555
H33B C20B 1_555 1_555
C10B K2B 1_555 1_555
C1B K1B 1_555 1_555
C2B C3B 1_555 1_555
Si2B N1B 1_555 1_555
C11B Si2B 1_555 1_555
H7B C11B 1_555 1_555
H8B C11B 1_555 1_555
H9B C11B 1_555 1_555
C12B Si2B 1_555 1_555
H10B C12B 1_555 1_555
H11B C12B 1_555 1_555
H12B C12B 1_555 1_555
C13B Si2B 1_555 1_555
H13B C13B 1_555 1_555
H14B C13B 1_555 1_555
H15B C13B 1_555 1_555
C14B C1B 1_555 1_555
C15B C14B 1_555 1_555
H16B C15B 1_555 1_555
H17B C15B 1_555 1_555
H18B C15B 1_555 1_555
C16B C14B 1_555 1_555
H19B C16B 1_555 1_555
H20B C16B 1_555 1_555
H21B C16B 1_555 1_555
C17B C14B 1_555 1_555
H22B C17B 1_555 1_555
H23B C17B 1_555 1_555
H24B C17B 1_555 1_555
H1B C2B 1_555 1_555
C8B C7 1_555 1_555
O1B K1B 1_555 1_555
C25B O1B 1_555 1_555
C26B C25B 1_555 1_555
C27B C26B 1_555 1_555
C28B O1B 1_555 1_555
O2B K1B 1_555 1_555
C29B O2B 1_555 1_555
C30B C29B 1_555 1_555
C31B C30B 1_555 1_555
C32B O2B 1_555 1_555
O3B K1B 1_555 1_555
C33B O3B 1_555 1_555
C34B C33B 1_555 1_555
C35B C34B 1_555 1_555
C36B O3B 1_555 1_555
C6B C5 1_555 1_555
C7B C8 1_555 1_555
C9B K2B 1_555 1_555
H4B C7B 1_555 1_555
C21B C10B 1_555 1_555
C22B C21B 1_555 1_555
H34B C22B 1_555 1_555
H35B C22B 1_555 1_555
H36B C22B 1_555 1_555
C23B C21B 1_555 1_555
H37B C23B 1_555 1_555
H38B C23B 1_555 1_555
H39B C23B 1_555 1_555
C24B C21B 1_555 1_555
H40B C24B 1_555 1_555
H41B C24B 1_555 1_555
H42B C24B 1_555 1_555
H6B C9B 1_555 1_555
H5B C8B 1_555 1_555
H2B C4B 1_555 1_555
H3B C5B 1_555 1_555
K2 C1 1_555 1_555
K2 C2 1_555 1_555
K2 C3 1_555 1_555
K2 C8 1_555 1_555
N2 C10 1_555 1_555
C1 C2 1_555 1_555
C2 C3 1_555 1_555
C3 C8 1_555 1_555
C6 C7 1_555 1_555
C6 C9 1_555 1_555
C9 C10 1_555 1_555
C27 C28 1_555 1_555
C31 C32 1_555 1_555
C35 C36 1_555 1_555
C3B C8B 1_555 1_555
K1B C2B 1_555 1_555
K1B C8B 1_555 1_555
N1B K2B 1_555 1_555
N1B C1B 1_555 1_555
K2B C1B 1_555 1_555
K2B C2B 1_555 1_555
K2B C8B 1_555 1_555
K2B C6B 1_555 1_555
K2B C7B 1_555 1_555
N2B C10B 1_555 1_555
C10B C9B 1_555 1_555
C1B C2B 1_555 1_555
C27B C28B 1_555 1_555
C31B C32B 1_555 1_555
C35B C36B 1_555 1_555
C6B C7B 1_555 1_555
C6B C9B 1_555 1_555

#END
