
#######################################################################
#
#                 Cambridge Crystallographic Data Centre
#                                CCDC 
#
#######################################################################
#
# If this CIF has been generated from an entry in the Cambridge 
# Structural Database, then it will include bibliographic, chemical, 
# crystal, experimental, refinement or atomic coordinate data resulting 
# from the CCDC's data processing and validation procedures.
#
#######################################################################

data_ABIGOH
_chemical_formula_moiety         'C45 H55 O4 P1,2(C4 H8 O1)'
_chemical_name_systematic        
'(5,11,17,23-Tetra-t-butylcalix(4)arene-25,26,2,7,28-tetraoxy)methylphosphorane tetrahydrofuran solvate'
_symmetry_cell_setting           rhombohedral
_symmetry_space_group_name_H-M   'R -3'
_symmetry_Int_Tables_number      148
_space_group_name_Hall           '-R 3'
loop_
_symmetry_equiv_pos_site_id
_symmetry_equiv_pos_as_xyz
1 x,y,z
2 -y,x-y,z
3 -x+y,-x,z
4 2/3+x,1/3+y,1/3+z
5 2/3-y,1/3+x-y,1/3+z
6 2/3-x+y,1/3-x,1/3+z
7 1/3+x,2/3+y,2/3+z
8 2/3+y,1/3-x+y,1/3-z
9 2/3+x-y,1/3+x,1/3-z
10 -x,-y,-z
11 y,-x+y,-z
12 x-y,x,-z
13 1/3-x,2/3-y,2/3-z
14 1/3+y,2/3-x+y,2/3-z
15 1/3+x-y,2/3+x,2/3-z
16 2/3-x,1/3-y,1/3-z
17 1/3-y,2/3+x-y,2/3+z
18 1/3-x+y,2/3-x,2/3+z
_cell_length_a                   44.267(4)
_cell_length_b                   44.267(4)
_cell_length_c                   13.311(1)
_cell_angle_alpha                90
_cell_angle_beta                 90
_cell_angle_gamma                120.00
_cell_volume                     22589.2
_exptl_crystal_colour            colorless
_exptl_crystal_description       rod-like
_chemical_melting_point          222deg.C(dec.)
_cell_formula_units_Z            18
loop_
_atom_site_label
_atom_site_type_symbol
_atom_site_fract_x
_atom_site_fract_y
_atom_site_fract_z
P1 P 0.80768(6) 0.10135(5) 0.2292(2)
O1 O 0.85083(14) 0.11995(13) 0.1960(4)
O2 O 0.81758(13) 0.12294(13) 0.3328(4)
O3 O 0.76379(14) 0.08327(14) 0.2565(4)
O4 O 0.80315(13) 0.06295(12) 0.2225(4)
C1 C 0.8009(2) 0.1226(2) 0.1253(7)
H1 H 0.7951(2) 0.1078(2) 0.0662(7)
H2 H 0.8221(2) 0.1446(2) 0.1126(7)
H3 H 0.7820(2) 0.1268(2) 0.1403(7)
C2 C 0.8724(2) 0.1083(2) 0.2379(7)
C3 C 0.8764(2) 0.0833(2) 0.1823(7)
C4 C 0.8978(2) 0.0724(2) 0.2206(7)
H4 H 0.9003(2) 0.0555(2) 0.1843(7)
C5 C 0.9164(2) 0.0846(3) 0.3113(8)
C6 C 0.9125(2) 0.1103(2) 0.3585(7)
H5 H 0.9251(2) 0.1199(2) 0.4180(7)
C7 C 0.8915(2) 0.1226(2) 0.3249(7)
C8 C 0.9405(2) 0.0720(2) 0.3559(7)
C9 C 0.9331(5) 0.0634(5) 0.4684(9)
H6 H 0.9116(5) 0.0414(5) 0.4763(9)
H7 H 0.9309(5) 0.0818(5) 0.5014(9)
H8 H 0.9521(5) 0.0617(5) 0.4985(9)
C10 C 0.9783(3) 0.1018(4) 0.3422(16)
H9 H 0.9829(3) 0.1073(4) 0.2713(16)
H10 H 0.9943(3) 0.0947(4) 0.3683(16)
H11 H 0.9816(3) 0.1223(4) 0.3783(16)
C11 C 0.9354(5) 0.0394(4) 0.2993(14)
H12 H 0.9402(5) 0.0448(4) 0.2285(14)
H13 H 0.9115(5) 0.0206(4) 0.3076(14)
H14 H 0.9512(5) 0.0323(4) 0.3262(14)
C15 C 0.8260(2) 0.1200(2) 0.4343(7)
C16 C 0.8600(2) 0.1340(2) 0.4594(7)
C17 C 0.8680(2) 0.1328(2) 0.5610(8)
H24 H 0.8915(2) 0.1422(2) 0.5800(8)
C18 C 0.8421(2) 0.1181(2) 0.6348(8)
C19 C 0.8080(2) 0.1050(2) 0.6024(7)
H25 H 0.7901(2) 0.0948(2) 0.6504(7)
C20 C 0.7985(2) 0.1061(2) 0.5019(7)
C21 C 0.8509(2) 0.1153(2) 0.7464(5)
C22 C 0.8355(4) 0.1327(4) 0.8096(10)
H26 H 0.8105(4) 0.1171(4) 0.8166(10)
H27 H 0.8397(4) 0.1540(4) 0.7771(10)
H28 H 0.8463(4) 0.1380(4) 0.8754(10)
C23 C 0.8897(2) 0.1328(4) 0.7653(12)
H29 H 0.8973(2) 0.1158(4) 0.7592(12)
H30 H 0.8948(2) 0.1426(4) 0.8324(12)
H31 H 0.9020(2) 0.1512(4) 0.7164(12)
C24 C 0.8339(4) 0.0771(2) 0.7746(11)
H32 H 0.8130(4) 0.0638(2) 0.7349(11)
H33 H 0.8279(4) 0.0743(2) 0.8454(11)
H34 H 0.8501(4) 0.0687(2) 0.7615(11)
C28 C 0.7464(2) 0.0543(2) 0.3187(7)
C29 C 0.7446(2) 0.0584(2) 0.4222(7)
C30 C 0.7265(2) 0.0286(2) 0.4809(7)
H44 H 0.7258(2) 0.0316(2) 0.5506(7)
C31 C 0.7095(2) -0.0048(2) 0.4438(7)
C32 C 0.7119(2) -0.0072(2) 0.3385(7)
H45 H 0.7008(2) -0.0295(2) 0.3090(7)
C33 C 0.7297(2) 0.0216(2) 0.2766(7)
C34 C 0.68869(14) -0.03785(14) 0.5059(5)
C35 C 0.7007(2) -0.0641(2) 0.4806(8)
H46 H 0.6875(2) -0.0851(2) 0.5202(8)
H47 H 0.7253(2) -0.0539(2) 0.4960(8)
H48 H 0.6969(2) -0.0699(2) 0.4097(8)
C36 C 0.6496(2) -0.0541(3) 0.4814(8)
H49 H 0.6364(2) -0.0751(3) 0.5210(8)
H50 H 0.6459(2) -0.0599(3) 0.4106(8)
H51 H 0.6420(2) -0.0376(3) 0.4974(8)
C37 C 0.6946(3) -0.0287(3) 0.6183(6)
H52 H 0.6814(3) -0.0497(3) 0.6578(6)
H53 H 0.6870(3) -0.0122(3) 0.6343(6)
H54 H 0.7193(3) -0.0185(3) 0.6338(6)
C41 C 0.7949(2) 0.0417(2) 0.1357(7)
C42 C 0.7603(2) 0.0179(2) 0.1142(7)
C43 C 0.7533(2) -0.0063(2) 0.0388(7)
H64 H 0.7299(2) -0.0229(2) 0.0256(7)
C44 C 0.7789(2) -0.0073(2) -0.0186(7)
C45 C 0.8130(2) 0.0187(2) 0.0020(6)
H65 H 0.8311(2) 0.0195(2) -0.0371(6)
C46 C 0.8217(2) 0.0436(2) 0.0771(7)
C47 C 0.7707(2) -0.0353(2) -0.0975(7)
C48 C 0.7445(3) -0.0353(3) -0.1723(8)
H66 H 0.7547(3) -0.0129(3) -0.2060(8)
H67 H 0.7236(3) -0.0394(3) -0.1368(8)
H68 H 0.7384(3) -0.0535(3) -0.2217(8)
C49 C 0.7534(3) -0.0708(2) -0.0477(8)
H69 H 0.7329(3) -0.0743(2) -0.0111(8)
H70 H 0.7696(3) -0.0721(2) -0.0015(8)
H71 H 0.7464(3) -0.0888(2) -0.0986(8)
C50 C 0.8027(3) -0.0299(3) -0.1550(8)
H72 H 0.8138(3) -0.0071(3) -0.1868(8)
H73 H 0.7957(3) -0.0478(3) -0.2060(8)
H74 H 0.8190(3) -0.0312(3) -0.1090(8)
C51 C 0.8886(2) 0.1504(2) 0.3812(7)
H75 H 0.8834(2) 0.1642(2) 0.3341(7)
H76 H 0.9109(2) 0.1661(2) 0.4141(7)
C52 C 0.7620(2) 0.0943(2) 0.4721(7)
H77 H 0.7617(2) 0.1112(2) 0.4254(7)
H78 H 0.7486(2) 0.0933(2) 0.5318(7)
C53 C 0.7293(2) 0.0179(2) 0.1613(6)
H79 H 0.7083(2) -0.0038(2) 0.1425(6)
H80 H 0.7273(2) 0.0371(2) 0.1317(6)
C54 C 0.8594(2) 0.0719(2) 0.0822(7)
H81 H 0.8730(2) 0.0642(2) 0.0429(7)
H82 H 0.8613(2) 0.0925(2) 0.0483(7)
O5 O 0.9727(3) 0.1786(3) 0.5071(12)
C55 C 0.9796(5) 0.1784(6) 0.6049(12)
H83 H 0.9697(5) 0.1542(6) 0.6283(12)
H84 H 0.9689(5) 0.1894(6) 0.6434(12)
C56 C 1.0155(5) 0.1963(7) 0.6208(15)
H85 H 1.0223(5) 0.2161(7) 0.6661(15)
H86 H 1.0232(5) 0.1808(7) 0.6496(15)
C57 C 1.0295(5) 0.2075(6) 0.5255(19)
H87 H 1.0443(5) 0.2330(6) 0.5250(19)
H88 H 1.0440(5) 0.1974(6) 0.5073(19)
C58 C 1.0025(5) 0.1973(5) 0.4565(12)
H89 H 1.0032(5) 0.2177(5) 0.4258(12)
H90 H 1.0046(5) 0.1831(5) 0.4032(12)
O6 O 1.1080(4) 0.1383(8) 0.1080(16)
C59 C 1.0868(5) 0.1275(9) 0.0314(13)
H91 H 1.0807(5) 0.1036(9) 0.0139(13)
H92 H 1.0980(5) 0.1425(9) -0.0269(13)
C60 C 1.0575(5) 0.1284(8) 0.0560(20)
H93 H 1.0587(5) 0.1498(8) 0.0310(20)
H94 H 1.0367(5) 0.1083(8) 0.0283(20)
C61 C 1.0570(6) 0.1276(9) 0.1579(20)
H95 H 1.0360(6) 0.1070(9) 0.1828(20)
H96 H 1.0580(6) 0.1486(9) 0.1855(20)
C62 C 1.0861(7) 0.1263(11) 0.1828(14)
H97 H 1.0968(7) 0.1403(11) 0.2431(14)
H98 H 1.0798(7) 0.1021(11) 0.1974(14)
C12? C 0.9582(9) 0.0891(8) 0.4560(15)
H15? H 0.9795(9) 0.1109(8) 0.4427(15)
H16? H 0.9638(9) 0.0735(8) 0.4926(15)
H17? H 0.9425(9) 0.0936(8) 0.4958(15)
C13? C 0.9685(7) 0.0778(10) 0.2777(21)
H18? H 0.9621(7) 0.0829(10) 0.2130(21)
H19? H 0.9704(7) 0.0569(10) 0.2725(21)
H20? H 0.9908(7) 0.0973(10) 0.2985(21)
C14? C 0.9162(8) 0.0326(3) 0.3719(27)
H21? H 0.9103(8) 0.0208(3) 0.3074(27)
H22? H 0.8950(8) 0.0286(3) 0.4054(27)
H23? H 0.9279(8) 0.0234(3) 0.4131(27)
C25? C 0.8819(5) 0.1506(4) 0.7708(28)
H35? H 0.9028(5) 0.1524(4) 0.7407(28)
H36? H 0.8849(5) 0.1531(4) 0.8431(28)
H37? H 0.8781(5) 0.1688(4) 0.7442(28)
C26? C 0.8619(8) 0.0880(6) 0.7472(29)
H38? H 0.8420(8) 0.0654(6) 0.7312(29)
H39? H 0.8707(8) 0.0871(6) 0.8133(29)
H40? H 0.8801(8) 0.0939(6) 0.6977(29)
C27? C 0.8226(7) 0.1061(9) 0.8242(24)
H41? H 0.8026(7) 0.0835(9) 0.8082(24)
H42? H 0.8157(7) 0.1237(9) 0.8241(24)
H43? H 0.8315(7) 0.1051(9) 0.8901(24)
C38? C 0.6743(9) -0.0735(7) 0.4537(37)
H55? H 0.6618(9) -0.0920(7) 0.5022(37)
H56? H 0.6935(9) -0.0755(7) 0.4261(37)
H57? H 0.6587(9) -0.0754(7) 0.4000(37)
C39? C 0.6581(7) -0.0331(11) 0.5400(37)
H58? H 0.6424(7) -0.0527(11) 0.5815(37)
H59? H 0.6457(7) -0.0318(11) 0.4816(37)
H60? H 0.6671(7) -0.0117(11) 0.5786(37)
C40? C 0.7105(12) -0.0363(14) 0.5978(23)
H61? H 0.6974(12) -0.0572(14) 0.6378(23)
H62? H 0.7157(12) -0.0160(14) 0.6381(23)
H63? H 0.7321(12) -0.0347(14) 0.5755(23)
loop_
_geom_bond_atom_site_label_1
_geom_bond_atom_site_label_2
_geom_bond_site_symmetry_1
_geom_bond_site_symmetry_2
P1 O1 1_555 1_555
O1 C2 1_555 1_555
O2 P1 1_555 1_555
O3 P1 1_555 1_555
O4 P1 1_555 1_555
C1 P1 1_555 1_555
H1 C1 1_555 1_555
H2 C1 1_555 1_555
H3 C1 1_555 1_555
C2 C3 1_555 1_555
C3 C4 1_555 1_555
C4 H4 1_555 1_555
C5 C4 1_555 1_555
C6 C5 1_555 1_555
H5 C6 1_555 1_555
C7 C2 1_555 1_555
C8 C5 1_555 1_555
C9 C8 1_555 1_555
H6 C9 1_555 1_555
H7 C9 1_555 1_555
H8 C9 1_555 1_555
C10 C8 1_555 1_555
H9 C10 1_555 1_555
H10 C10 1_555 1_555
H11 C10 1_555 1_555
C11 C8 1_555 1_555
H12 C11 1_555 1_555
H13 C11 1_555 1_555
H14 C11 1_555 1_555
C15 O2 1_555 1_555
C16 C15 1_555 1_555
C17 C16 1_555 1_555
H24 C17 1_555 1_555
C18 C17 1_555 1_555
C19 C18 1_555 1_555
H25 C19 1_555 1_555
C20 C15 1_555 1_555
C21 C18 1_555 1_555
C22 C21 1_555 1_555
H26 C22 1_555 1_555
H27 C22 1_555 1_555
H28 C22 1_555 1_555
C23 C21 1_555 1_555
H29 C23 1_555 1_555
H30 C23 1_555 1_555
H31 C23 1_555 1_555
C24 C21 1_555 1_555
H32 C24 1_555 1_555
H33 C24 1_555 1_555
H34 C24 1_555 1_555
C28 O3 1_555 1_555
C29 C28 1_555 1_555
C30 C29 1_555 1_555
H44 C30 1_555 1_555
C31 C30 1_555 1_555
C32 C31 1_555 1_555
H45 C32 1_555 1_555
C33 C28 1_555 1_555
C34 C31 1_555 1_555
C35 C34 1_555 1_555
H46 C35 1_555 1_555
H47 C35 1_555 1_555
H48 C35 1_555 1_555
C36 C34 1_555 1_555
H49 C36 1_555 1_555
H50 C36 1_555 1_555
H51 C36 1_555 1_555
C37 C34 1_555 1_555
H52 C37 1_555 1_555
H53 C37 1_555 1_555
H54 C37 1_555 1_555
C41 O4 1_555 1_555
C42 C41 1_555 1_555
C43 C42 1_555 1_555
H64 C43 1_555 1_555
C44 C43 1_555 1_555
C45 C44 1_555 1_555
H65 C45 1_555 1_555
C46 C41 1_555 1_555
C47 C44 1_555 1_555
C48 C47 1_555 1_555
H66 C48 1_555 1_555
H67 C48 1_555 1_555
H68 C48 1_555 1_555
C49 C47 1_555 1_555
H69 C49 1_555 1_555
H70 C49 1_555 1_555
H71 C49 1_555 1_555
C50 C47 1_555 1_555
H72 C50 1_555 1_555
H73 C50 1_555 1_555
H74 C50 1_555 1_555
C51 C7 1_555 1_555
H75 C51 1_555 1_555
H76 C51 1_555 1_555
C52 C20 1_555 1_555
H77 C52 1_555 1_555
H78 C52 1_555 1_555
C53 C33 1_555 1_555
H79 C53 1_555 1_555
H80 C53 1_555 1_555
C54 C3 1_555 1_555
H81 C54 1_555 1_555
H82 C54 1_555 1_555
O5 C55 1_555 1_555
C55 H83 1_555 1_555
H84 C55 1_555 1_555
C56 C55 1_555 1_555
H85 C56 1_555 1_555
H86 C56 1_555 1_555
C57 C56 1_555 1_555
H87 C57 1_555 1_555
H88 C57 1_555 1_555
C58 O5 1_555 1_555
H89 C58 1_555 1_555
H90 C58 1_555 1_555
O6 C59 1_555 1_555
C59 H91 1_555 1_555
H92 C59 1_555 1_555
C60 C59 1_555 1_555
H93 C60 1_555 1_555
H94 C60 1_555 1_555
C61 C60 1_555 1_555
H95 C61 1_555 1_555
H96 C61 1_555 1_555
C62 O6 1_555 1_555
H97 C62 1_555 1_555
H98 C62 1_555 1_555
C6 C7 1_555 1_555
C16 C51 1_555 1_555
C19 C20 1_555 1_555
C29 C52 1_555 1_555
C32 C33 1_555 1_555
C42 C53 1_555 1_555
C45 C46 1_555 1_555
C46 C54 1_555 1_555
C57 C58 1_555 1_555
C61 C62 1_555 1_555

#END
