
#######################################################################
#
#                 Cambridge Crystallographic Data Centre
#                                CCDC 
#
#######################################################################
#
# If this CIF has been generated from an entry in the Cambridge 
# Structural Database, then it will include bibliographic, chemical, 
# crystal, experimental, refinement or atomic coordinate data resulting 
# from the CCDC's data processing and validation procedures.
#
#######################################################################

data_ABIGUN
_chemical_formula_moiety         'C46 H58 O4 Si1,C7 H8'
_chemical_name_systematic        
'(25-Methoxy-5,11,17,23-tetra-t-butylcalix(4)arene-26,27,28-trioxy)methylsiloxane toluene solvate'
_symmetry_cell_setting           triclinic
_symmetry_space_group_name_H-M   'P -1'
_symmetry_Int_Tables_number      2
_space_group_name_Hall           '-P 1'
loop_
_symmetry_equiv_pos_site_id
_symmetry_equiv_pos_as_xyz
1 x,y,z
2 -x,-y,-z
_cell_length_a                   12.756(4)
_cell_length_b                   13.006(3)
_cell_length_c                   15.291(3)
_cell_angle_alpha                92.61(2)
_cell_angle_beta                 103.85(2)
_cell_angle_gamma                112.01(2)
_cell_volume                     2257.65
_exptl_crystal_colour            colorless
_exptl_crystal_description       prismatic
_cell_formula_units_Z            2
loop_
_atom_site_label
_atom_site_type_symbol
_atom_site_fract_x
_atom_site_fract_y
_atom_site_fract_z
Si1 Si 0.36061(7) 0.61828(7) 0.11712(5)
O1 O 0.4774(2) 0.4590(2) 0.29982(13)
O2 O 0.3940(2) 0.51734(15) 0.08431(12)
O3 O 0.2279(2) 0.5934(2) 0.05539(12)
O4 O 0.3577(2) 0.6182(2) 0.22267(12)
C1 C 0.4658(3) 0.7482(2) 0.0969(2)
H1 H 0.4433(10) 0.8087(4) 0.1097(13)
H2 H 0.4669(13) 0.7414(6) 0.0343(4)
H3 H 0.5427(4) 0.7632(9) 0.1358(10)
C2 C 0.5267(3) 0.3964(3) 0.3571(3)
H4 H 0.4651(4) 0.3281(10) 0.3619(13)
H5 H 0.5675(18) 0.4398(8) 0.4165(5)
H6 H 0.5810(16) 0.3788(17) 0.3317(9)
C3 C 0.5612(2) 0.5562(2) 0.2865(2)
C4 C 0.6137(2) 0.5532(2) 0.2175(2)
C5 C 0.7019(2) 0.6513(2) 0.2092(2)
H7 H 0.7390(2) 0.6499(2) 0.1639(2)
C6 C 0.7373(2) 0.7522(2) 0.2662(2)
C7 C 0.6732(2) 0.7526(2) 0.3275(2)
H8 H 0.6902(2) 0.8200(2) 0.3628(2)
C8 C 0.5845(2) 0.6563(2) 0.3381(2)
C9 C 0.8405(3) 0.8557(2) 0.2584(2)
C10 C 0.8097(4) 0.8951(3) 0.1671(2)
H9 H 0.8774(7) 0.9563(15) 0.1608(8)
H10 H 0.7468(16) 0.9195(21) 0.1643(7)
H11 H 0.7854(22) 0.8344(7) 0.1187(3)
C11 C 0.9470(3) 0.8266(3) 0.2646(3)
H12 H 1.0128(8) 0.8922(7) 0.2615(20)
H13 H 0.9291(9) 0.7693(17) 0.2150(11)
H14 H 0.9663(15) 0.7998(22) 0.3213(9)
C12 C 0.8752(4) 0.9531(3) 0.3330(3)
H15 H 0.9413(15) 1.0155(8) 0.3258(11)
H16 H 0.8961(22) 0.9307(8) 0.3914(3)
H17 H 0.8102(9) 0.9747(14) 0.3289(11)
C13 C 0.3462(2) 0.6856(2) 0.2891(2)
C14 C 0.4227(2) 0.7085(2) 0.3763(2)
C15 C 0.4077(3) 0.7705(2) 0.4448(2)
H18 H 0.4601(3) 0.7870(2) 0.5025(2)
C16 C 0.3187(3) 0.8091(2) 0.4315(2)
C17 C 0.2444(3) 0.7839(2) 0.3437(2)
H19 H 0.1838(3) 0.8091(2) 0.3325(2)
C18 C 0.2549(2) 0.7238(2) 0.2724(2)
C19 C 0.2949(3) 0.8719(3) 0.5066(2)
C20 C 0.2886(4) 0.9807(3) 0.4781(3)
H20 H 0.2279(16) 0.9640(3) 0.4219(10)
H21 H 0.3628(8) 1.0283(9) 0.4697(17)
H22 H 0.2710(23) 1.0183(11) 0.5246(9)
C21 C 0.3894(4) 0.8989(4) 0.5966(3)
H23 H 0.3711(15) 0.9376(23) 0.6419(6)
H24 H 0.4644(6) 0.9456(21) 0.5890(6)
H25 H 0.3924(18) 0.8306(4) 0.6158(10)
C22 C 0.1774(3) 0.7983(3) 0.5204(2)
H26 H 0.1161(4) 0.7847(17) 0.4652(6)
H27 H 0.1624(11) 0.8355(9) 0.5687(11)
H28 H 0.1793(8) 0.7282(9) 0.5359(16)
C23 C 0.1369(2) 0.5237(2) 0.0875(2)
C24 C 0.0994(2) 0.5728(2) 0.1483(2)
C25 C 0.0103(2) 0.5042(2) 0.1821(2)
H29 H -0.0166(2) 0.5367(2) 0.2225(2)
C26 C -0.0399(2) 0.3887(2) 0.1577(2)
C27 C 0.0030(2) 0.3434(2) 0.0972(2)
H30 H -0.0295(2) 0.2661(2) 0.0795(2)
C28 C 0.0924(2) 0.4093(2) 0.0624(2)
C29 C -0.1388(3) 0.3120(3) 0.1943(2)
C30 C -0.1090(3) 0.2164(3) 0.2315(3)
H31 H -0.1721(10) 0.1685(12) 0.2534(15)
H32 H -0.0378(12) 0.2468(3) 0.2806(11)
H33 H -0.0984(21) 0.1739(12) 0.1839(5)
C31 C -0.1581(3) 0.3750(3) 0.2714(2)
H34 H -0.2209(13) 0.3245(5) 0.2922(10)
H35 H -0.1782(19) 0.4351(12) 0.2497(5)
H36 H -0.0872(7) 0.4050(16) 0.3208(6)
C32 C -0.2521(3) 0.2631(3) 0.1174(2)
H37 H -0.3149(5) 0.2164(15) 0.1402(4)
H38 H -0.2423(7) 0.2191(15) 0.0702(7)
H39 H -0.2706(10) 0.3230(3) 0.0930(10)
C33 C 0.3591(3) 0.4036(2) 0.0885(2)
C34 C 0.2430(2) 0.3277(2) 0.0541(2)
C35 C 0.2177(3) 0.2158(2) 0.0638(2)
H40 H 0.1398(3) 0.1645(2) 0.0427(2)
C36 C 0.3023(3) 0.1771(2) 0.1031(2)
C37 C 0.4178(3) 0.2561(2) 0.1311(2)
H41 H 0.4773(3) 0.2319(2) 0.1553(2)
C38 C 0.4486(3) 0.3683(2) 0.1247(2)
C39 C 0.2746(3) 0.0549(3) 0.1148(2)
C40 C 0.3414(4) 0.0098(3) 0.0639(3)
H42 H 0.3203(21) 0.0181(25) 0.0008(5)
H43 H 0.3215(22) -0.0682(8) 0.0690(19)
H44 H 0.4245(4) 0.0510(18) 0.0898(14)
C41 C 0.3106(5) 0.0454(3) 0.2140(3)
H45 H 0.2946(29) -0.0316(5) 0.2207(3)
H46 H 0.2669(22) 0.0719(27) 0.2458(5)
H47 H 0.3932(7) 0.0899(24) 0.2391(6)
C42 C 0.1449(4) -0.0196(3) 0.0751(4)
H48 H 0.1215(8) -0.0150(21) 0.0114(6)
H49 H 0.0992(4) 0.0049(17) 0.1060(15)
H50 H 0.1321(6) -0.0958(5) 0.0829(20)
C43 C 0.5144(3) 0.6595(3) 0.4034(2)
H51 H 0.5691(3) 0.7022(3) 0.4610(2)
H52 H 0.4750(3) 0.5834(3) 0.4141(2)
C44 C 0.1623(3) 0.6964(2) 0.1818(2)
H53 H 0.1052(3) 0.7267(2) 0.1880(2)
H54 H 0.1996(3) 0.7327(2) 0.1368(2)
C45 C 0.1451(2) 0.3594(2) 0.0026(2)
H55 H 0.1756(2) 0.4129(2) -0.0365(2)
H56 H 0.0832(2) 0.2929(2) -0.0362(2)
C46 C 0.5764(3) 0.4479(2) 0.1512(2)
H57 H 0.5971(3) 0.4702(2) 0.0959(2)
H58 H 0.6228(3) 0.4066(2) 0.1772(2)
C47 C 0.1649(4) 0.3791(5) 0.4631(4)
C48 C 0.1601(4) 0.2753(5) 0.4590(3)
H59 H 0.1406(4) 0.2337(5) 0.5049(3)
C49 C 0.1855(4) 0.2255(4) 0.3822(5)
H60 H 0.1821(4) 0.1527(4) 0.3786(5)
C50 C 0.2132(4) 0.2881(5) 0.3185(3)
H61 H 0.2301(4) 0.2607(5) 0.2686(3)
C51 C 0.2164(4) 0.3986(5) 0.3289(4)
H62 H 0.2373(4) 0.4427(5) 0.2846(4)
C52 C 0.1922(4) 0.4429(6) 0.3956(4)
H63 H 0.1932(4) 0.5149(6) 0.3977(4)
C53 C 0.1417(5) 0.4328(7) 0.5361(5)
H64 H 0.1617(54) 0.5107(15) 0.5305(25)
H65 H 0.1881(44) 0.4264(48) 0.5934(5)
H66 H 0.0597(13) 0.3973(37) 0.5331(28)
loop_
_geom_bond_atom_site_label_1
_geom_bond_atom_site_label_2
_geom_bond_site_symmetry_1
_geom_bond_site_symmetry_2
Si1 O2 1_555 1_555
O1 C2 1_555 1_555
O2 C33 1_555 1_555
O3 Si1 1_555 1_555
O4 Si1 1_555 1_555
C1 Si1 1_555 1_555
H1 C1 1_555 1_555
H2 C1 1_555 1_555
H3 C1 1_555 1_555
C2 H4 1_555 1_555
H5 C2 1_555 1_555
H6 C2 1_555 1_555
C3 O1 1_555 1_555
C4 C3 1_555 1_555
C5 C4 1_555 1_555
H7 C5 1_555 1_555
C6 C5 1_555 1_555
C7 C6 1_555 1_555
H8 C7 1_555 1_555
C8 C3 1_555 1_555
C9 C6 1_555 1_555
C10 C9 1_555 1_555
H9 C10 1_555 1_555
H10 C10 1_555 1_555
H11 C10 1_555 1_555
C11 C9 1_555 1_555
H12 C11 1_555 1_555
H13 C11 1_555 1_555
H14 C11 1_555 1_555
C12 C9 1_555 1_555
H15 C12 1_555 1_555
H16 C12 1_555 1_555
H17 C12 1_555 1_555
C13 O4 1_555 1_555
C14 C13 1_555 1_555
C15 C14 1_555 1_555
H18 C15 1_555 1_555
C16 C15 1_555 1_555
C17 C16 1_555 1_555
H19 C17 1_555 1_555
C18 C13 1_555 1_555
C19 C16 1_555 1_555
C20 C19 1_555 1_555
H20 C20 1_555 1_555
H21 C20 1_555 1_555
H22 C20 1_555 1_555
C21 C19 1_555 1_555
H23 C21 1_555 1_555
H24 C21 1_555 1_555
H25 C21 1_555 1_555
C22 C19 1_555 1_555
H26 C22 1_555 1_555
H27 C22 1_555 1_555
H28 C22 1_555 1_555
C23 O3 1_555 1_555
C24 C23 1_555 1_555
C25 C24 1_555 1_555
H29 C25 1_555 1_555
C26 C25 1_555 1_555
C27 C26 1_555 1_555
H30 C27 1_555 1_555
C28 C23 1_555 1_555
C29 C26 1_555 1_555
C30 C29 1_555 1_555
H31 C30 1_555 1_555
H32 C30 1_555 1_555
H33 C30 1_555 1_555
C31 C29 1_555 1_555
H34 C31 1_555 1_555
H35 C31 1_555 1_555
H36 C31 1_555 1_555
C32 C29 1_555 1_555
H37 C32 1_555 1_555
H38 C32 1_555 1_555
H39 C32 1_555 1_555
C33 C34 1_555 1_555
C34 C35 1_555 1_555
C35 H40 1_555 1_555
C36 C35 1_555 1_555
C37 C36 1_555 1_555
H41 C37 1_555 1_555
C38 C33 1_555 1_555
C39 C36 1_555 1_555
C40 C39 1_555 1_555
H42 C40 1_555 1_555
H43 C40 1_555 1_555
H44 C40 1_555 1_555
C41 C39 1_555 1_555
H45 C41 1_555 1_555
H46 C41 1_555 1_555
H47 C41 1_555 1_555
C42 C39 1_555 1_555
H48 C42 1_555 1_555
H49 C42 1_555 1_555
H50 C42 1_555 1_555
C43 C8 1_555 1_555
H51 C43 1_555 1_555
H52 C43 1_555 1_555
C44 C18 1_555 1_555
H53 C44 1_555 1_555
H54 C44 1_555 1_555
C45 C28 1_555 1_555
H55 C45 1_555 1_555
H56 C45 1_555 1_555
C46 C4 1_555 1_555
H57 C46 1_555 1_555
H58 C46 1_555 1_555
C47 C48 1_555 1_555
C48 H59 1_555 1_555
C49 C48 1_555 1_555
H60 C49 1_555 1_555
C50 C49 1_555 1_555
H61 C50 1_555 1_555
C51 C50 1_555 1_555
H62 C51 1_555 1_555
C52 C47 1_555 1_555
H63 C52 1_555 1_555
C53 C47 1_555 1_555
H64 C53 1_555 1_555
H65 C53 1_555 1_555
H66 C53 1_555 1_555
C7 C8 1_555 1_555
C14 C43 1_555 1_555
C17 C18 1_555 1_555
C24 C44 1_555 1_555
C27 C28 1_555 1_555
C34 C45 1_555 1_555
C37 C38 1_555 1_555
C38 C46 1_555 1_555
C51 C52 1_555 1_555

#END
