
#######################################################################
#
#                 Cambridge Crystallographic Data Centre
#                                CCDC 
#
#######################################################################
#
# If this CIF has been generated from an entry in the Cambridge 
# Structural Database, then it will include bibliographic, chemical, 
# crystal, experimental, refinement or atomic coordinate data resulting 
# from the CCDC's data processing and validation procedures.
#
#######################################################################

data_ABIHAU
_chemical_formula_moiety         'C45 H56 O4 P1 1+,I1 1-,5(C1 H3 I1)'
_chemical_name_systematic        
'(25-hydroxy-5,11,17,23-tetra-t-butylcalix(4)arene-26,27,28-trioxy)methylphosphonium iodide iodomethane solvate'
_symmetry_cell_setting           monoclinic
_symmetry_space_group_name_H-M   'P 21/c'
_symmetry_Int_Tables_number      14
_space_group_name_Hall           '-P 2ybc'
loop_
_symmetry_equiv_pos_site_id
_symmetry_equiv_pos_as_xyz
1 x,y,z
2 x,1/2-y,1/2+z
3 -x,-y,-z
4 -x,1/2+y,1/2-z
_cell_length_a                   13.328(2)
_cell_length_b                   21.560(4)
_cell_length_c                   20.720(4)
_cell_angle_alpha                90
_cell_angle_beta                 104.18(1)
_cell_angle_gamma                90
_cell_volume                     5772.52
_exptl_crystal_colour            orange
_exptl_crystal_description       plates
_cell_formula_units_Z            4
loop_
_atom_site_label
_atom_site_type_symbol
_atom_site_fract_x
_atom_site_fract_y
_atom_site_fract_z
P1 P 0.5438(2) 0.47266(13) 0.68776(14)
C1 C 0.6300(10) 0.5211(6) 0.7418(6)
H1 H 0.6909(10) 0.5268(6) 0.7256(6)
H2 H 0.6488(10) 0.5026(6) 0.7853(6)
H3 H 0.5978(10) 0.5605(6) 0.7444(6)
O1 O 0.4442(6) 0.3365(4) 0.7756(4)
O2 O 0.4425(6) 0.4599(3) 0.7084(3)
O3 O 0.5174(6) 0.5052(3) 0.6185(3)
O4 O 0.6002(5) 0.4107(3) 0.6840(3)
C9 C 0.5295(9) 0.3679(5) 0.8122(6)
C10 C 0.6284(9) 0.3494(5) 0.8103(5)
C11 C 0.7115(10) 0.3810(5) 0.8505(6)
H4 H 0.7779(10) 0.3681(5) 0.8500(6)
C12 C 0.7020(9) 0.4302(5) 0.8911(6)
C13 C 0.6018(10) 0.4482(6) 0.8873(6)
H5 H 0.5924(10) 0.4815(6) 0.9136(6)
C14 C 0.5122(9) 0.4208(5) 0.8470(6)
C15 C 0.7952(11) 0.4620(7) 0.9351(7)
C16 C 0.8614(17) 0.4933(10) 0.8933(11)
H6 H 0.8766(17) 0.4638(10) 0.8623(11)
H7 H 0.9248(17) 0.5078(10) 0.9221(11)
H8 H 0.8241(17) 0.5277(10) 0.8694(11)
C17 C 0.8689(11) 0.4134(7) 0.9757(7)
H9 H 0.8876(11) 0.3839(7) 0.9459(7)
H10 H 0.8350(11) 0.3924(7) 1.0053(7)
H11 H 0.9300(11) 0.4336(7) 1.0011(7)
C18 C 0.7699(19) 0.5061(11) 0.9849(11)
H12 H 0.8326(19) 0.5243(11) 1.0109(11)
H13 H 0.7359(19) 0.4840(11) 1.0137(11)
H14 H 0.7250(19) 0.5381(11) 0.9620(11)
C19 C 0.3734(9) 0.5036(5) 0.7306(5)
C20 C 0.3592(9) 0.4927(5) 0.7952(6)
C21 C 0.2869(9) 0.5305(5) 0.8127(6)
H15 H 0.2748(9) 0.5243(5) 0.8546(6)
C22 C 0.2306(9) 0.5767(6) 0.7737(6)
C23 C 0.2501(9) 0.5843(6) 0.7115(6)
H16 H 0.2142(9) 0.6151(6) 0.6838(6)
C24 C 0.3212(9) 0.5479(5) 0.6882(5)
C25 C 0.1489(10) 0.6153(6) 0.7969(6)
C26 C 0.2005(12) 0.6503(7) 0.8611(7)
H17 H 0.2357(12) 0.6213(7) 0.8941(7)
H18 H 0.1486(12) 0.6718(7) 0.8774(7)
H19 H 0.2494(12) 0.6796(7) 0.8519(7)
C27 C 0.0696(11) 0.5702(7) 0.8108(7)
H20 H 0.1035(11) 0.5401(7) 0.8429(7)
H21 H 0.0357(11) 0.5496(7) 0.7702(7)
H22 H 0.0193(11) 0.5925(7) 0.8279(7)
C28 C 0.0952(12) 0.6617(7) 0.7471(7)
H23 H 0.1449(12) 0.6905(7) 0.7380(7)
H24 H 0.0448(12) 0.6836(7) 0.7644(7)
H25 H 0.0612(12) 0.6408(7) 0.7067(7)
C29 C 0.4269(9) 0.4851(5) 0.5705(5)
C30 C 0.3357(8) 0.5136(5) 0.5708(5)
C31 C 0.2482(9) 0.4937(5) 0.5235(5)
H26 H 0.1846(9) 0.5120(5) 0.5226(5)
C32 C 0.2530(9) 0.4475(5) 0.4777(6)
C33 C 0.3474(8) 0.4201(5) 0.4805(5)
H27 H 0.3513(8) 0.3892(5) 0.4498(5)
C34 C 0.4371(8) 0.4369(5) 0.5275(5)
C35 C 0.1572(10) 0.4237(6) 0.4260(6)
C36 C 0.1444(13) 0.3542(7) 0.4380(8)
H28 H 0.2065(13) 0.3327(7) 0.4357(8)
H29 H 0.0871(13) 0.3383(7) 0.4046(8)
H30 H 0.1317(13) 0.3483(7) 0.4812(8)
C37 C 0.0592(12) 0.4572(7) 0.4295(8)
H31 H 0.0475(12) 0.4522(7) 0.4731(8)
H32 H 0.0018(12) 0.4402(7) 0.3970(8)
H33 H 0.0659(12) 0.5005(7) 0.4206(8)
C38 C 0.1764(12) 0.4311(7) 0.3565(7)
H34 H 0.2388(12) 0.4097(7) 0.3547(7)
H35 H 0.1831(12) 0.4743(7) 0.3473(7)
H36 H 0.1191(12) 0.4139(7) 0.3240(7)
C39 C 0.5722(8) 0.3523(5) 0.6522(5)
C40 C 0.5411(9) 0.3484(5) 0.5831(5)
C41 C 0.5114(9) 0.2909(5) 0.5556(6)
H37 H 0.4911(9) 0.2875(5) 0.5094(6)
C42 C 0.5104(9) 0.2384(5) 0.5932(5)
C43 C 0.5523(9) 0.2437(6) 0.6618(6)
H38 H 0.5584(9) 0.2082(6) 0.6879(6)
C44 C 0.5853(9) 0.3000(5) 0.6922(5)
C45 C 0.4660(9) 0.1775(6) 0.5603(6)
C46 C 0.4742(12) 0.1245(7) 0.6094(7)
H39 H 0.4451(12) 0.0877(7) 0.5862(7)
H40 H 0.4371(12) 0.1350(7) 0.6422(7)
H41 H 0.5457(12) 0.1174(7) 0.6309(7)
C47 C 0.3488(12) 0.1880(7) 0.5265(8)
H42 H 0.3416(12) 0.2214(7) 0.4952(8)
H43 H 0.3126(12) 0.1981(7) 0.5599(8)
H44 H 0.3201(12) 0.1508(7) 0.5038(8)
C48 C 0.5235(13) 0.1585(8) 0.5073(8)
H45 H 0.5190(13) 0.1915(8) 0.4755(8)
H46 H 0.4924(13) 0.1217(8) 0.4849(8)
H47 H 0.5948(13) 0.1505(8) 0.5284(8)
C49 C 0.4047(10) 0.4422(6) 0.8422(6)
H48 H 0.4011(10) 0.4553(6) 0.8863(6)
H49 H 0.3598(10) 0.4064(6) 0.8309(6)
C50 C 0.3328(10) 0.5655(5) 0.6186(5)
H50 H 0.2758(10) 0.5926(5) 0.5983(5)
H51 H 0.3961(10) 0.5893(5) 0.6239(5)
C51 C 0.5377(9) 0.4039(5) 0.5372(5)
H52 H 0.5939(9) 0.4320(5) 0.5563(5)
H53 H 0.5468(9) 0.3899(5) 0.4944(5)
C52 C 0.6437(10) 0.2971(5) 0.7661(6)
H54 H 0.6240(10) 0.2590(5) 0.7846(6)
H55 H 0.7170(10) 0.2943(5) 0.7682(6)
I1 I 0.43747(7) 0.19024(4) 0.83983(4)
I2 I -0.20428(9) 0.68149(5) 0.81346(5)
C2 C -0.0851(8) 0.6968(5) 0.9064(5)
I3 I -0.14827(10) 0.88447(6) 0.85098(6)
C3 C -0.2818(12) 0.8463(7) 0.8753(8)
I4 I 0.13746(14) 0.77646(12) 1.05989(14)
C4 C 0.2792(13) 0.7617(9) 1.0365(9)
I6 I 0.1106(2) 0.87780(13) 0.78903(11)
C5 C 0.1684(13) 0.8862(9) 0.8918(9)
I9 I -0.1078(4) 0.8620(4) 0.6188(3)
C8 C -0.1806(15) 0.7992(7) 0.6688(10)
I5? I 0.1304(4) 0.7903(4) 1.0387(4)
I7? I 0.1484(10) 0.8973(6) 0.8484(8)
I8? I 0.1611(9) 0.8505(6) 0.8775(6)
I10? I -0.0775(5) 0.8286(3) 0.6142(3)
I11? I -0.0952(17) 0.8699(9) 0.6393(10)
C6? C 0.1298 0.8142 0.7778
C7? C 0.1757 0.9452 0.8176
loop_
_geom_bond_atom_site_label_1
_geom_bond_atom_site_label_2
_geom_bond_site_symmetry_1
_geom_bond_site_symmetry_2
P1 C1 1_555 1_555
I2 C2 1_555 1_555
I3 C3 1_555 1_555
I4 C4 1_555 1_555
I6 C5 1_555 1_555
I9 C8 1_555 1_555
C1 H1 1_555 1_555
H2 C1 1_555 1_555
H3 C1 1_555 1_555
O1 C9 1_555 1_555
O2 P1 1_555 1_555
O3 P1 1_555 1_555
O4 P1 1_555 1_555
C9 C10 1_555 1_555
C10 C11 1_555 1_555
C11 H4 1_555 1_555
C12 C11 1_555 1_555
C13 C12 1_555 1_555
H5 C13 1_555 1_555
C14 C9 1_555 1_555
C15 C12 1_555 1_555
C16 C15 1_555 1_555
H6 C16 1_555 1_555
H7 C16 1_555 1_555
H8 C16 1_555 1_555
C17 C15 1_555 1_555
H9 C17 1_555 1_555
H10 C17 1_555 1_555
H11 C17 1_555 1_555
C18 C15 1_555 1_555
H12 C18 1_555 1_555
H13 C18 1_555 1_555
H14 C18 1_555 1_555
C19 O2 1_555 1_555
C20 C19 1_555 1_555
C21 C20 1_555 1_555
H15 C21 1_555 1_555
C22 C21 1_555 1_555
C23 C22 1_555 1_555
H16 C23 1_555 1_555
C24 C19 1_555 1_555
C25 C22 1_555 1_555
C26 C25 1_555 1_555
H17 C26 1_555 1_555
H18 C26 1_555 1_555
H19 C26 1_555 1_555
C27 C25 1_555 1_555
H20 C27 1_555 1_555
H21 C27 1_555 1_555
H22 C27 1_555 1_555
C28 C25 1_555 1_555
H23 C28 1_555 1_555
H24 C28 1_555 1_555
H25 C28 1_555 1_555
C29 O3 1_555 1_555
C30 C29 1_555 1_555
C31 C30 1_555 1_555
H26 C31 1_555 1_555
C32 C31 1_555 1_555
C33 C32 1_555 1_555
H27 C33 1_555 1_555
C34 C29 1_555 1_555
C35 C32 1_555 1_555
C36 C35 1_555 1_555
H28 C36 1_555 1_555
H29 C36 1_555 1_555
H30 C36 1_555 1_555
C37 C35 1_555 1_555
H31 C37 1_555 1_555
H32 C37 1_555 1_555
H33 C37 1_555 1_555
C38 C35 1_555 1_555
H34 C38 1_555 1_555
H35 C38 1_555 1_555
H36 C38 1_555 1_555
C39 O4 1_555 1_555
C40 C39 1_555 1_555
C41 C40 1_555 1_555
H37 C41 1_555 1_555
C42 C41 1_555 1_555
C43 C42 1_555 1_555
H38 C43 1_555 1_555
C44 C39 1_555 1_555
C45 C42 1_555 1_555
C46 C45 1_555 1_555
H39 C46 1_555 1_555
H40 C46 1_555 1_555
H41 C46 1_555 1_555
C47 C45 1_555 1_555
H42 C47 1_555 1_555
H43 C47 1_555 1_555
H44 C47 1_555 1_555
C48 C45 1_555 1_555
H45 C48 1_555 1_555
H46 C48 1_555 1_555
H47 C48 1_555 1_555
C49 C14 1_555 1_555
H48 C49 1_555 1_555
H49 C49 1_555 1_555
C50 C24 1_555 1_555
H50 C50 1_555 1_555
H51 C50 1_555 1_555
C51 C34 1_555 1_555
H52 C51 1_555 1_555
H53 C51 1_555 1_555
C52 C10 1_555 1_555
H54 C52 1_555 1_555
H55 C52 1_555 1_555
C13 C14 1_555 1_555
C20 C49 1_555 1_555
C23 C24 1_555 1_555
C30 C50 1_555 1_555
C33 C34 1_555 1_555
C40 C51 1_555 1_555
C43 C44 1_555 1_555
C44 C52 1_555 1_555

#END
