
#######################################################################
#
#                 Cambridge Crystallographic Data Centre
#                                CCDC 
#
#######################################################################
#
# If this CIF has been generated from an entry in the Cambridge 
# Structural Database, then it will include bibliographic, chemical, 
# crystal, experimental, refinement or atomic coordinate data resulting 
# from the CCDC's data processing and validation procedures.
#
#######################################################################

data_ABINOR04
_chemical_formula_moiety         'C5 H10 O5'
_chemical_name_systematic        \b-DL-Arabinose
_symmetry_cell_setting           monoclinic
_symmetry_space_group_name_H-M   'P 21/c'
_symmetry_Int_Tables_number      14
_space_group_name_Hall           '-P 2ybc'
loop_
_symmetry_equiv_pos_site_id
_symmetry_equiv_pos_as_xyz
1 x,y,z
2 -x,1/2+y,1/2-z
3 -x,-y,-z
4 x,1/2-y,1/2+z
_cell_length_a                   5.873(2)
_cell_length_b                   7.762(2)
_cell_length_c                   13.243(9)
_cell_angle_alpha                90
_cell_angle_beta                 100.03(2)
_cell_angle_gamma                90
_cell_volume                     594.472
_cell_formula_units_Z            4
loop_
_atom_site_label
_atom_site_type_symbol
_atom_site_fract_x
_atom_site_fract_y
_atom_site_fract_z
C1 C -0.06018(10) 0.06836(8) 0.62920(4)
C2 C -0.16964(10) 0.13635(8) 0.71835(4)
C3 C -0.41735(10) 0.19372(8) 0.67782(4)
C4 C -0.41765(10) 0.33104(8) 0.59466(4)
C5 C -0.29689(11) 0.25865(8) 0.51128(4)
O1 O -0.18012(13) -0.07914(10) 0.59052(6)
O2 O -0.15748(12) 0.01213(9) 0.79749(5)
O3 O -0.52580(12) 0.26059(10) 0.75742(5)
O4 O -0.31509(12) 0.48860(9) 0.63510(5)
O5 O -0.06594(12) 0.20065(10) 0.55354(5)
H1 H 0.1254(2) 0.0423(2) 0.6552(1)
H2 H -0.0672(2) 0.2474(2) 0.7524(1)
H3 H -0.5156(2) 0.0817(2) 0.6419(1)
H4 H -0.5974(2) 0.3614(2) 0.5607(1)
H5 H -0.3990(3) 0.1518(2) 0.4719(1)
H6 H -0.2742(3) 0.3572(2) 0.4550(1)
H7 H -0.0938(3) -0.1361(2) 0.5430(1)
H8 H -0.2630(2) -0.0844(2) 0.7736(1)
H9 H -0.5658(3) 0.1655(2) 0.7997(1)
H10 H -0.1460(2) 0.4791(2) 0.6494(1)
loop_
_geom_bond_atom_site_label_1
_geom_bond_atom_site_label_2
_geom_bond_site_symmetry_1
_geom_bond_site_symmetry_2
C1 C2 1_555 1_555
C2 C3 1_555 1_555
C3 C4 1_555 1_555
C4 C5 1_555 1_555
C5 O5 1_555 1_555
O1 C1 1_555 1_555
O2 C2 1_555 1_555
O3 C3 1_555 1_555
O4 C4 1_555 1_555
O5 C1 1_555 1_555
H1 C1 1_555 1_555
H2 C2 1_555 1_555
H3 C3 1_555 1_555
H4 C4 1_555 1_555
H5 C5 1_555 1_555
H6 C5 1_555 1_555
H7 O1 1_555 1_555
H8 O2 1_555 1_555
H9 O3 1_555 1_555
H10 O4 1_555 1_555

#END
