
#######################################################################
#
#                 Cambridge Crystallographic Data Centre
#                                CCDC 
#
#######################################################################
#
# If this CIF has been generated from an entry in the Cambridge 
# Structural Database, then it will include bibliographic, chemical, 
# crystal, experimental, refinement or atomic coordinate data resulting 
# from the CCDC's data processing and validation procedures.
#
#######################################################################

data_ABIPEH
_chemical_formula_moiety         'C12 H14 O5'
_chemical_name_systematic        'Phenyl 3,6-anhydro-\b-D-glucopyranoside'
_symmetry_cell_setting           monoclinic
_symmetry_space_group_name_H-M   'P 21'
_symmetry_Int_Tables_number      4
_space_group_name_Hall           'P 2yb'
loop_
_symmetry_equiv_pos_site_id
_symmetry_equiv_pos_as_xyz
1 x,y,z
2 -x,1/2+y,-z
_cell_length_a                   5.9225(8)
_cell_length_b                   8.2045(10)
_cell_length_c                   11.3672(15)
_cell_angle_alpha                90
_cell_angle_beta                 95.365(2)
_cell_angle_gamma                90
_cell_volume                     549.926
_exptl_crystal_colour            colorless
_exptl_crystal_description       plate
_cell_formula_units_Z            2
loop_
_atom_site_label
_atom_site_type_symbol
_atom_site_fract_x
_atom_site_fract_y
_atom_site_fract_z
O1 O 0.34117(14) 0.50827(11) 0.77552(7)
O2 O 0.47252(16) 0.52180(14) 0.50173(9)
H1 H 0.5571 0.5809 0.5441
O3 O 0.47595(15) 0.78805(13) 0.66615(9)
H2 H 0.4936 0.8629 0.6201
O4 O -0.08076(14) 0.61021(14) 0.60860(8)
O5 O 0.13631(16) 0.29251(13) 0.68300(8)
C1 C 0.3189(2) 0.40502(17) 0.67692(11)
H3 H 0.4597 0.3427 0.6754
C2 C 0.2710(2) 0.49242(19) 0.55700(11)
H4 H 0.1765 0.4192 0.5051
C3 C 0.1357(2) 0.64897(19) 0.56901(11)
H5 H 0.1180 0.7088 0.4941
C4 C 0.2429(2) 0.75592(16) 0.66795(11)
H6 H 0.1589 0.8586 0.6706
C5 C 0.1934(2) 0.64861(17) 0.77071(11)
H7 H 0.2125 0.7096 0.8451
C6 C -0.0543(2) 0.6100(2) 0.73739(12)
H8 H -0.0930 0.5042 0.7679
H9 H -0.1508 0.6919 0.7685
C7 C 0.1288(2) 0.19440(16) 0.78082(12)
C8 C -0.0748(3) 0.11274(18) 0.78707(13)
H10 H -0.1936 0.1288 0.7287
C9 C -0.1019(3) 0.0078(2) 0.87957(14)
H11 H -0.2386 -0.0469 0.8832
C10 C 0.0733(3) -0.0161(2) 0.96653(14)
H12 H 0.0556 -0.0873 1.0287
C11 C 0.2738(3) 0.0658(2) 0.96079(14)
H13 H 0.3912 0.0499 1.0199
C12 C 0.3052(3) 0.17253(18) 0.86810(13)
H14 H 0.4417 0.2277 0.8651
loop_
_geom_bond_atom_site_label_1
_geom_bond_atom_site_label_2
_geom_bond_site_symmetry_1
_geom_bond_site_symmetry_2
O1 C1 1_555 1_555
O2 H1 1_555 1_555
O3 H2 1_555 1_555
O4 C3 1_555 1_555
O5 C1 1_555 1_555
C1 H3 1_555 1_555
C2 O2 1_555 1_555
H4 C2 1_555 1_555
C3 C2 1_555 1_555
H5 C3 1_555 1_555
C4 O3 1_555 1_555
H6 C4 1_555 1_555
C5 O1 1_555 1_555
H7 C5 1_555 1_555
C6 O4 1_555 1_555
H8 C6 1_555 1_555
H9 C6 1_555 1_555
C7 O5 1_555 1_555
C8 C7 1_555 1_555
H10 C8 1_555 1_555
C9 C8 1_555 1_555
H11 C9 1_555 1_555
C10 C9 1_555 1_555
H12 C10 1_555 1_555
C11 C10 1_555 1_555
H13 C11 1_555 1_555
C12 C7 1_555 1_555
H14 C12 1_555 1_555
C1 C2 1_555 1_555
C3 C4 1_555 1_555
C4 C5 1_555 1_555
C5 C6 1_555 1_555
C11 C12 1_555 1_555

#END
