
#######################################################################
#
#                 Cambridge Crystallographic Data Centre
#                                CCDC 
#
#######################################################################
#
# If this CIF has been generated from an entry in the Cambridge 
# Structural Database, then it will include bibliographic, chemical, 
# crystal, experimental, refinement or atomic coordinate data resulting 
# from the CCDC's data processing and validation procedures.
#
#######################################################################

data_ABIQOU
_chemical_formula_moiety         'C7 H14 N1 O1 1+,Br1 1-'
_chemical_name_systematic        
'(R)-(-)-3-hydroxy-1-azoniabicyclo[2.2.2]octane bromide'
_symmetry_cell_setting           tetragonal
_symmetry_space_group_name_H-M   'P 41'
_symmetry_Int_Tables_number      76
_space_group_name_Hall           'P 4w'
loop_
_symmetry_equiv_pos_site_id
_symmetry_equiv_pos_as_xyz
1 x,y,z
2 -x,-y,1/2+z
3 -y,x,1/4+z
4 y,-x,3/4+z
_cell_length_a                   6.8541(10)
_cell_length_b                   6.8541(10)
_cell_length_c                   18.776(4)
_cell_angle_alpha                90
_cell_angle_beta                 90
_cell_angle_gamma                90
_cell_volume                     882.072
_exptl_crystal_colour            colorless
_exptl_crystal_description       block
_cell_formula_units_Z            4
loop_
_atom_site_label
_atom_site_type_symbol
_atom_site_fract_x
_atom_site_fract_y
_atom_site_fract_z
Br1 Br 0.85228(11) 0.54767(10) 0.17242(4)
N1 N 0.5576(9) -0.0870(8) 0.1882(3)
O1 O 0.0846(8) -0.0530(8) 0.1391(3)
H1 H 0.0655 -0.1705 0.1350
C1 C 0.6193(10) 0.0611(12) 0.2411(4)
H2 H 0.7353 0.1282 0.2245
H3 H 0.6489 -0.0009 0.2862
C2 C 0.4164(12) 0.1770(11) 0.1198(4)
H4 H 0.3258 0.1755 0.0801
H5 H 0.4942 0.2949 0.1166
C3 C 0.4502(11) 0.2073(10) 0.2503(4)
H6 H 0.3865 0.1867 0.2958
H7 H 0.4998 0.3398 0.2490
C4 C 0.2054(11) -0.0179(11) 0.1997(4)
H8 H 0.1240 -0.0128 0.2426
C5 C 0.5465(12) 0.0020(14) 0.1161(4)
H9 H 0.4944 -0.0917 0.0823
H10 H 0.6757 0.0402 0.1003
C6 C 0.3043(11) 0.1759(10) 0.1894(4)
H11 H 0.2070 0.2807 0.1894
C7 C 0.3640(12) -0.1711(10) 0.2096(4)
H12 H 0.3685 -0.2120 0.2590
H13 H 0.3351 -0.2845 0.1805
H14 H 0.631(12) -0.196(8) 0.191(5)
loop_
_geom_bond_atom_site_label_1
_geom_bond_atom_site_label_2
_geom_bond_site_symmetry_1
_geom_bond_site_symmetry_2
N1 C1 1_555 1_555
O1 H1 1_555 1_555
C1 H2 1_555 1_555
H3 C1 1_555 1_555
C2 H4 1_555 1_555
H5 C2 1_555 1_555
C3 C1 1_555 1_555
H6 C3 1_555 1_555
H7 C3 1_555 1_555
C4 O1 1_555 1_555
H8 C4 1_555 1_555
C5 N1 1_555 1_555
H9 C5 1_555 1_555
H10 C5 1_555 1_555
C6 C2 1_555 1_555
H11 C6 1_555 1_555
C7 N1 1_555 1_555
H12 C7 1_555 1_555
H13 C7 1_555 1_555
H14 N1 1_555 1_555
C2 C5 1_555 1_555
C3 C6 1_555 1_555
C4 C6 1_555 1_555
C4 C7 1_555 1_555

#END
