
#######################################################################
#
#                 Cambridge Crystallographic Data Centre
#                                CCDC 
#
#######################################################################
#
# If this CIF has been generated from an entry in the Cambridge 
# Structural Database, then it will include bibliographic, chemical, 
# crystal, experimental, refinement or atomic coordinate data resulting 
# from the CCDC's data processing and validation procedures.
#
#######################################################################

data_ABIVIT
_chemical_name_common            
'9-methoxy-13-vinyl-8-oxatetracyclo[7.4.0.0$2,7!.0$3,11!]tridec-12-en-10-yl 4-bromobenzoate'
_chemical_formula_moiety         'C22 H23 Br1 O4'
_chemical_name_systematic        
'2-Methoxy-3-vinyl-2a,2a1,5,5a,6,7,8,8a-octahydro-2H-2,5-methanonaphtho[1,8-bc]furan-9-yl 4-bromobenzoate'
_symmetry_cell_setting           monoclinic
_symmetry_space_group_name_H-M   'P 21'
_symmetry_Int_Tables_number      4
_space_group_name_Hall           'P 2yb'
loop_
_symmetry_equiv_pos_site_id
_symmetry_equiv_pos_as_xyz
1 x,y,z
2 -x,1/2+y,-z
_cell_length_a                   7.2978(2)
_cell_length_b                   14.6967(3)
_cell_length_c                   18.4170(4)
_cell_angle_alpha                90
_cell_angle_beta                 98.6290(10)
_cell_angle_gamma                90
_cell_volume                     1952.93
_exptl_crystal_colour            colorless
_exptl_crystal_description       block
_cell_formula_units_Z            4
loop_
_atom_site_label
_atom_site_type_symbol
_atom_site_fract_x
_atom_site_fract_y
_atom_site_fract_z
Br1 Br -0.26128(5) 0.07160(2) 0.19368(2)
C1 C 0.3619(4) 0.3200(3) 0.59232(19)
O1 O 0.329(3) 0.241(3) 0.628(4)
C2 C 0.2147(9) 0.1798(6) 0.6017(4)
H1 H 0.2155 0.1299 0.6371
H2 H 0.0901 0.2061 0.5917
H3 H 0.2500 0.1564 0.5559
O2 O 0.1883(3) 0.3618(2) 0.56731(15)
O3 O 0.3271(3) 0.2810(2) 0.46317(15)
O4 O 0.5444(3) 0.2110(2) 0.40797(17)
C3 C 0.4747(4) 0.3934(3) 0.6415(2)
H4 H 0.4342 0.3968 0.6909
C4 C 0.4103(4) 0.4782(3) 0.5946(2)
H5 H 0.4368 0.5355 0.6236
C5 C 0.5087(4) 0.4783(3) 0.5252(2)
H6 H 0.6166 0.5204 0.5371
C6 C 0.5951(4) 0.3820(3) 0.5171(2)
H7 H 0.6487 0.3771 0.4703
C7 C 0.4649(4) 0.3008(3) 0.52627(19)
H8 H 0.5431 0.2453 0.5377
C8 C 0.6808(4) 0.3778(3) 0.6482(2)
C9 C 0.7428(4) 0.3710(3) 0.5834(2)
H9 H 0.8693 0.3601 0.5795
C10 C 0.8015(6) 0.3697(4) 0.7185(3)
H10 H 0.9304 0.3637 0.7166
C11 C 0.7513(7) 0.3699(5) 0.7849(3)
H11 H 0.6243 0.3757 0.7901
H12 H 0.8425 0.3641 0.8273
C12 C 0.2027(5) 0.4598(3) 0.5784(2)
H13 H 0.1446 0.4766 0.6224
C13 C 0.0987(5) 0.5069(3) 0.5111(2)
H14 H -0.0310 0.4848 0.5024
H15 H 0.0962 0.5733 0.5201
C14 C 0.1888(5) 0.4887(3) 0.4439(2)
H16 H 0.1211 0.5220 0.4014
H17 H 0.1815 0.4229 0.4323
C15 C 0.3911(5) 0.5186(3) 0.4563(2)
H18 H 0.3955 0.5858 0.4601
H19 H 0.4480 0.5012 0.4128
C16 C 0.3848(5) 0.2304(3) 0.4105(2)
C17 C 0.2249(4) 0.1969(3) 0.3565(2)
C18 C 0.2623(5) 0.1492(3) 0.2943(2)
H20 H 0.3866 0.1415 0.2859
C19 C 0.1173(5) 0.1134(3) 0.2452(2)
H21 H 0.1411 0.0815 0.2028
C20 C -0.0609(5) 0.1249(3) 0.2588(2)
C21 C -0.1025(5) 0.1735(3) 0.3185(2)
H22 H -0.2276 0.1815 0.3259
C22 C 0.0418(4) 0.2105(3) 0.3676(2)
H23 H 0.0158 0.2449 0.4085
Br2 Br 0.22324(5) 0.92931(2) 0.69356(2)
C24 C 0.8505(4) 0.6809(3) 1.0921(2)
O6 O 0.820(4) 0.763(4) 1.128(5)
C25 C 0.7085(10) 0.8257(6) 1.1015(5)
H27 H 0.7122 0.8758 1.1368
H28 H 0.7450 0.8483 1.0557
H29 H 0.5824 0.8011 1.0916
O7 O 0.6754(3) 0.6408(2) 1.06732(14)
O8 O 0.8147(3) 0.7222(2) 0.96318(14)
O9 O 1.0308(3) 0.7938(2) 0.90836(17)
C26 C 0.9621(4) 0.6101(3) 1.1412(2)
H30 H 0.9203 0.6071 1.1904
C27 C 0.8964(5) 0.5251(3) 1.0942(2)
H31 H 0.9231 0.4678 1.1232
C28 C 0.9962(4) 0.5254(3) 1.0252(2)
H32 H 1.1042 0.4833 1.0372
C29 C 1.0820(4) 0.6223(3) 1.0179(2)
H33 H 1.1364 0.6277 0.9713
C30 C 0.9526(4) 0.7021(3) 1.0265(2)
H34 H 1.0300 0.7578 1.0386
C31 C 1.1681(4) 0.6263(3) 1.1488(2)
C32 C 1.2291(4) 0.6319(3) 1.0840(2)
H35 H 1.3561 0.6412 1.0801
C33 C 1.2879(5) 0.6341(3) 1.2199(2)
H36 H 1.4169 0.6405 1.2187
C34 C 1.2358(7) 0.6331(4) 1.2849(3)
H37 H 1.1083 0.6269 1.2892
H38 H 1.3255 0.6387 1.3277
C35 C 0.6895(4) 0.5430(3) 1.0779(2)
H39 H 0.6315 0.5260 1.1218
C36 C 0.5864(5) 0.4952(3) 1.0106(2)
H40 H 0.4559 0.5161 1.0022
H41 H 0.5864 0.4288 1.0196
C37 C 0.6762(4) 0.5147(3) 0.9420(2)
H42 H 0.6104 0.4806 0.8996
H43 H 0.6672 0.5804 0.9303
C38 C 0.8795(5) 0.4858(3) 0.9564(2)
H44 H 0.9380 0.5033 0.9133
H45 H 0.8843 0.4186 0.9601
C39 C 0.8701(4) 0.7745(3) 0.9101(2)
C40 C 0.7101(4) 0.8058(2) 0.8565(2)
C41 C 0.7475(5) 0.8569(4) 0.7965(2)
H46 H 0.8720 0.8669 0.7893
C42 C 0.6025(5) 0.8930(3) 0.7473(2)
H47 H 0.6272 0.9283 0.7066
C43 C 0.4216(5) 0.8769(3) 0.7583(2)
C44 C 0.3805(5) 0.8251(3) 0.8172(2)
H48 H 0.2557 0.8138 0.8236
C45 C 0.5276(4) 0.7902(3) 0.8662(2)
H49 H 0.5027 0.7552 0.9070
O5? O 0.351(4) 0.242(4) 0.634(5)
C23? C 0.2441(13) 0.2323(9) 0.6817(6)
H24? H 0.2611 0.1715 0.7035
H25? H 0.2739 0.2784 0.7201
H26? H 0.1151 0.2396 0.6585
O10? O 0.835(5) 0.762(4) 1.132(6)
C46? C 0.7279(12) 0.7810(9) 1.1791(6)
H50? H 0.7510 0.8435 1.1967
H51? H 0.5984 0.7751 1.1560
H52? H 0.7525 0.7387 1.2205
loop_
_geom_bond_atom_site_label_1
_geom_bond_atom_site_label_2
_geom_bond_site_symmetry_1
_geom_bond_site_symmetry_2
Br1 C20 1_555 1_555
C1 O1 1_555 1_555
O1 C2 1_555 1_555
C2 H1 1_555 1_555
H2 C2 1_555 1_555
H3 C2 1_555 1_555
O2 C1 1_555 1_555
O3 C7 1_555 1_555
O4 C16 1_555 1_555
C3 C1 1_555 1_555
H4 C3 1_555 1_555
C4 C3 1_555 1_555
H5 C4 1_555 1_555
C5 C4 1_555 1_555
H6 C5 1_555 1_555
C6 C5 1_555 1_555
H7 C6 1_555 1_555
C7 C1 1_555 1_555
H8 C7 1_555 1_555
C8 C3 1_555 1_555
C9 C6 1_555 1_555
H9 C9 1_555 1_555
C10 C8 1_555 1_555
H10 C10 1_555 1_555
C11 C10 1_555 1_555
H11 C11 1_555 1_555
H12 C11 1_555 1_555
C12 O2 1_555 1_555
H13 C12 1_555 1_555
C13 C12 1_555 1_555
H14 C13 1_555 1_555
H15 C13 1_555 1_555
C14 C13 1_555 1_555
H16 C14 1_555 1_555
H17 C14 1_555 1_555
C15 C5 1_555 1_555
H18 C15 1_555 1_555
H19 C15 1_555 1_555
C16 O3 1_555 1_555
C17 C16 1_555 1_555
C18 C17 1_555 1_555
H20 C18 1_555 1_555
C19 C18 1_555 1_555
H21 C19 1_555 1_555
C20 C19 1_555 1_555
C21 C20 1_555 1_555
H22 C21 1_555 1_555
C22 C17 1_555 1_555
H23 C22 1_555 1_555
Br2 C43 1_555 1_555
C24 O6 1_555 1_555
O6 C25 1_555 1_555
C25 H27 1_555 1_555
H28 C25 1_555 1_555
H29 C25 1_555 1_555
O7 C24 1_555 1_555
O8 C30 1_555 1_555
O9 C39 1_555 1_555
C26 C24 1_555 1_555
H30 C26 1_555 1_555
C27 C26 1_555 1_555
H31 C27 1_555 1_555
C28 C27 1_555 1_555
H32 C28 1_555 1_555
C29 C28 1_555 1_555
H33 C29 1_555 1_555
C30 C24 1_555 1_555
H34 C30 1_555 1_555
C31 C26 1_555 1_555
C32 C29 1_555 1_555
H35 C32 1_555 1_555
C33 C31 1_555 1_555
H36 C33 1_555 1_555
C34 C33 1_555 1_555
H37 C34 1_555 1_555
H38 C34 1_555 1_555
C35 O7 1_555 1_555
H39 C35 1_555 1_555
C36 C35 1_555 1_555
H40 C36 1_555 1_555
H41 C36 1_555 1_555
C37 C36 1_555 1_555
H42 C37 1_555 1_555
H43 C37 1_555 1_555
C38 C28 1_555 1_555
H44 C38 1_555 1_555
H45 C38 1_555 1_555
C39 O8 1_555 1_555
C40 C39 1_555 1_555
C41 C40 1_555 1_555
H46 C41 1_555 1_555
C42 C41 1_555 1_555
H47 C42 1_555 1_555
C43 C42 1_555 1_555
C44 C43 1_555 1_555
H48 C44 1_555 1_555
C45 C40 1_555 1_555
H49 C45 1_555 1_555
C4 C12 1_555 1_555
C6 C7 1_555 1_555
C8 C9 1_555 1_555
C14 C15 1_555 1_555
C21 C22 1_555 1_555
C27 C35 1_555 1_555
C29 C30 1_555 1_555
C31 C32 1_555 1_555
C37 C38 1_555 1_555
C44 C45 1_555 1_555

#END
