
#######################################################################
#
#                 Cambridge Crystallographic Data Centre
#                                CCDC 
#
#######################################################################
#
# If this CIF has been generated from an entry in the Cambridge 
# Structural Database, then it will include bibliographic, chemical, 
# crystal, experimental, refinement or atomic coordinate data resulting 
# from the CCDC's data processing and validation procedures.
#
#######################################################################

data_ABIWIT
_chemical_formula_moiety         'C16 H18 N2 O6'
_chemical_name_systematic        
'3,3-Dimethoxy-2-(2-((6-methoxypyrimidin-4-yl)oxy)phenyl)propanoic acid'
_symmetry_cell_setting           triclinic
_symmetry_space_group_name_H-M   'P -1'
_symmetry_Int_Tables_number      2
_space_group_name_Hall           '-P 1'
loop_
_symmetry_equiv_pos_site_id
_symmetry_equiv_pos_as_xyz
1 x,y,z
2 -x,-y,-z
_cell_length_a                   8.5662(5)
_cell_length_b                   10.5074(6)
_cell_length_c                   10.9849(7)
_cell_angle_alpha                62.8370(10)
_cell_angle_beta                 73.2170(10)
_cell_angle_gamma                73.310(2)
_cell_volume                     828.089
_exptl_crystal_colour            colorless
_exptl_crystal_description       chunk
_cell_formula_units_Z            2
loop_
_atom_site_label
_atom_site_type_symbol
_atom_site_fract_x
_atom_site_fract_y
_atom_site_fract_z
O1 O 0.4534(3) 0.5639(2) 0.0960(2)
O2 O 0.1767(3) 1.0415(2) -0.0666(3)
N1 N 0.3148(3) 0.9570(3) 0.1170(3)
O3 O 0.2824(3) 0.2021(2) 0.1683(2)
H1 H 0.2856 0.1274 0.1605
N2 N 0.4609(4) 0.7117(3) 0.1987(3)
C1 C 0.3140(4) 0.8026(3) 0.0125(3)
H2 H 0.2809 0.7876 -0.0527
C2 C 0.4104(4) 0.6946(3) 0.1037(3)
C3 C 0.5724(4) 0.4549(3) 0.1707(3)
C4 C 0.4088(4) 0.8429(4) 0.1990(4)
H3 H 0.4418 0.8573 0.2647
C5 C 0.2688(4) 0.9351(3) 0.0229(3)
C6 C 0.5245(4) 0.3251(3) 0.2692(3)
C7 C 0.3493(5) 0.1693(4) 0.2759(3)
C8 C 0.7336(5) 0.4761(4) 0.1349(4)
H4 H 0.7622 0.5627 0.0642
O4 O 0.4084(5) 0.0470(3) 0.3440(3)
C9 C 0.6475(5) 0.2175(4) 0.3380(4)
H5 H 0.6201 0.1294 0.4065
C10 C 0.1199(5) 1.1812(3) -0.0538(5)
H6 H 0.0596 1.1658 0.0387
H7 H 0.0489 1.2454 -0.1197
H8 H 0.2139 1.2238 -0.0721
C11 C 0.8520(5) 0.3681(5) 0.2043(5)
H9 H 0.9608 0.3821 0.1824
C12 C 0.3487(4) 0.3014(4) 0.2983(4)
H10 H 0.2874 0.3868 0.2324
C13 C 0.8079(5) 0.2385(5) 0.3071(4)
H11 H 0.8869 0.1656 0.3552
O5 O 0.1074(4) 0.2514(4) 0.4616(3)
C14 C 0.2602(5) 0.2836(5) 0.4445(5)
H12 H 0.3241 0.2087 0.5151
C15 C 0.0160(7) 0.1952(7) 0.6053(4)
H13 H 0.0890 0.1199 0.6646
H14 H -0.0747 0.1562 0.6091
H15 H -0.0261 0.2727 0.6362
C16 C 0.2875(9) 0.4270(8) 0.5573(6)
H16 H 0.3422 0.3317 0.6111
H17 H 0.1922 0.4579 0.6159
H18 H 0.3625 0.4941 0.5192
O6 O 0.2350(4) 0.4229(4) 0.4442(4)
loop_
_geom_bond_atom_site_label_1
_geom_bond_atom_site_label_2
_geom_bond_site_symmetry_1
_geom_bond_site_symmetry_2
O1 C2 1_555 1_555
O2 C5 1_555 1_555
N1 C4 1_555 1_555
O3 H1 1_555 1_555
N2 C2 1_555 1_555
C1 H2 1_555 1_555
C2 C1 1_555 1_555
C3 O1 1_555 1_555
C4 N2 1_555 1_555
H3 C4 1_555 1_555
C5 N1 1_555 1_555
C6 C3 1_555 1_555
C7 O3 1_555 1_555
C8 C3 1_555 1_555
H4 C8 1_555 1_555
O4 C7 1_555 1_555
C9 C6 1_555 1_555
H5 C9 1_555 1_555
C10 O2 1_555 1_555
H6 C10 1_555 1_555
H7 C10 1_555 1_555
H8 C10 1_555 1_555
C11 C8 1_555 1_555
H9 C11 1_555 1_555
C12 C6 1_555 1_555
H10 C12 1_555 1_555
C13 C9 1_555 1_555
H11 C13 1_555 1_555
O5 C14 1_555 1_555
C14 C12 1_555 1_555
H12 C14 1_555 1_555
C15 O5 1_555 1_555
H13 C15 1_555 1_555
H14 C15 1_555 1_555
H15 C15 1_555 1_555
C16 H16 1_555 1_555
H17 C16 1_555 1_555
H18 C16 1_555 1_555
O6 C14 1_555 1_555
C1 C5 1_555 1_555
C7 C12 1_555 1_555
C11 C13 1_555 1_555
C16 O6 1_555 1_555

#END
