
#######################################################################
#
#                 Cambridge Crystallographic Data Centre
#                                CCDC 
#
#######################################################################
#
# If this CIF has been generated from an entry in the Cambridge 
# Structural Database, then it will include bibliographic, chemical, 
# crystal, experimental, refinement or atomic coordinate data resulting 
# from the CCDC's data processing and validation procedures.
#
#######################################################################

data_ABOTOC
_chemical_formula_moiety         'C14 H9 F12 N1 O2'
_chemical_name_systematic        
1-(4-Methoxyphenyl)-N-((1,1,1,2,2,3,5,5,5-nonafluoro-4-(trifluoromethyl)pentan-3-yl)oxy)methanimine
_symmetry_cell_setting           monoclinic
_symmetry_space_group_name_H-M   'P 21/c'
_symmetry_Int_Tables_number      14
_space_group_name_Hall           '-P 2ybc'
loop_
_symmetry_equiv_pos_site_id
_symmetry_equiv_pos_as_xyz
1 x,y,z
2 -x,1/2+y,1/2-z
3 -x,-y,-z
4 x,1/2-y,1/2+z
_cell_length_a                   16.744(3)
_cell_length_b                   6.9310(14)
_cell_length_c                   15.626(3)
_cell_angle_alpha                90
_cell_angle_beta                 116.09(3)
_cell_angle_gamma                90
_cell_volume                     1628.66
_exptl_crystal_colour            colorless
_exptl_crystal_description       'square plate'
_chemical_melting_point          46deg.C
_cell_formula_units_Z            4
loop_
_atom_site_label
_atom_site_type_symbol
_atom_site_fract_x
_atom_site_fract_y
_atom_site_fract_z
F1 F 0.20860(8) 0.11639(17) 0.49448(8)
F2 F 0.06194(8) 0.1421(2) 0.34069(9)
F3 F 0.08208(8) -0.1268(2) 0.28059(8)
F4 F 0.21221(9) 0.0128(2) 0.25243(9)
F5 F 0.23257(11) 0.2557(2) 0.34497(11)
F6 F 0.11242(12) 0.2337(3) 0.21485(13)
F7 F 0.09227(8) 0.0655(2) 0.56046(9)
F8 F 0.21060(8) -0.1019(2) 0.64003(8)
F9 F 0.08159(9) -0.2286(2) 0.59622(9)
F10 F 0.15119(10) -0.4445(2) 0.39767(11)
F11 F 0.19790(10) -0.4643(2) 0.54865(12)
F12 F 0.05848(9) -0.4783(2) 0.45571(11)
O1 O 0.53256(9) -0.2845(2) 0.26724(10)
O2 O 0.25548(8) -0.1321(2) 0.43610(9)
N1 N 0.31785(11) -0.1892(3) 0.53165(11)
C1 C 0.62650(15) -0.2822(4) 0.29899(16)
H1 H 0.6396 -0.2896 0.2438
H2 H 0.6532 -0.3930 0.3409
H3 H 0.6512 -0.1625 0.3340
C2 C 0.50226(14) -0.2753(3) 0.33499(14)
C3 C 0.41050(14) -0.2864(3) 0.30134(15)
H4 H 0.3739 -0.3013 0.2350
C4 C 0.55626(14) -0.2584(3) 0.43217(14)
H5 H 0.6191 -0.2528 0.4560
C5 C 0.37202(14) -0.2761(3) 0.36320(15)
H6 H 0.3092 -0.2835 0.3392
C6 C 0.51717(14) -0.2499(3) 0.49363(15)
H7 H 0.5542 -0.2403 0.5601
C7 C 0.42521(13) -0.2548(3) 0.46148(14)
C8 C 0.39172(14) -0.2414(3) 0.53357(15)
H8 H 0.4343 -0.2800 0.5952
C9 C 0.18274(12) -0.0482(3) 0.43931(14)
C10 C 0.12403(13) 0.0233(3) 0.33667(15)
C11 C 0.17184(15) 0.1337(4) 0.28684(17)
C12 C 0.12416(13) -0.1724(3) 0.47344(14)
H9 H 0.0616 -0.1453 0.4260
C13 C 0.12861(13) -0.1084(3) 0.56914(14)
C14 C 0.13409(15) -0.3910(3) 0.46958(17)
loop_
_geom_bond_atom_site_label_1
_geom_bond_atom_site_label_2
_geom_bond_site_symmetry_1
_geom_bond_site_symmetry_2
F1 C9 1_555 1_555
F2 C10 1_555 1_555
F3 C10 1_555 1_555
F4 C11 1_555 1_555
F5 C11 1_555 1_555
F6 C11 1_555 1_555
F7 C13 1_555 1_555
F8 C13 1_555 1_555
F9 C13 1_555 1_555
F10 C14 1_555 1_555
F11 C14 1_555 1_555
F12 C14 1_555 1_555
O1 C1 1_555 1_555
O2 N1 1_555 1_555
N1 C8 1_555 1_555
C1 H1 1_555 1_555
H2 C1 1_555 1_555
H3 C1 1_555 1_555
C2 O1 1_555 1_555
C3 C2 1_555 1_555
H4 C3 1_555 1_555
C4 C2 1_555 1_555
H5 C4 1_555 1_555
C5 C3 1_555 1_555
H6 C5 1_555 1_555
C6 C4 1_555 1_555
H7 C6 1_555 1_555
C7 C5 1_555 1_555
C8 C7 1_555 1_555
H8 C8 1_555 1_555
C9 O2 1_555 1_555
C10 C9 1_555 1_555
C11 C10 1_555 1_555
C12 C9 1_555 1_555
H9 C12 1_555 1_555
C13 C12 1_555 1_555
C14 C12 1_555 1_555
C6 C7 1_555 1_555

#END
