
#######################################################################
#
#                 Cambridge Crystallographic Data Centre
#                                CCDC 
#
#######################################################################
#
# If this CIF has been generated from an entry in the Cambridge 
# Structural Database, then it will include bibliographic, chemical, 
# crystal, experimental, refinement or atomic coordinate data resulting 
# from the CCDC's data processing and validation procedures.
#
#######################################################################

data_ABOYUN
_chemical_formula_moiety         'C40 H28 B2 N2 O2 S2'
_chemical_name_systematic        
6,6,14,14-Tetraphenyl-6H,14H-7\l^5^,15\l^5^,6\l^5^,14\l^5^-[1,3,2]benzoxazaborinino[4'',3'':2',3'][1,3]thiazolo-[5',4':4,5][1,3]thiazolo[3,2-c][1,3,2]benzoxazaborinine
_symmetry_cell_setting           monoclinic
_symmetry_space_group_name_H-M   'P 21/c'
_symmetry_Int_Tables_number      14
_space_group_name_Hall           '-P 2ybc'
loop_
_symmetry_equiv_pos_site_id
_symmetry_equiv_pos_as_xyz
1 x,y,z
2 -x,1/2+y,1/2-z
3 -x,-y,-z
4 x,1/2-y,1/2+z
_cell_length_a                   8.5306(17)
_cell_length_b                   13.623(3)
_cell_length_c                   14.265(3)
_cell_angle_alpha                90
_cell_angle_beta                 92.84(3)
_cell_angle_gamma                90
_cell_volume                     1655.73
_cell_formula_units_Z            2
loop_
_atom_site_label
_atom_site_type_symbol
_atom_site_fract_x
_atom_site_fract_y
_atom_site_fract_z
B1 B 0.1949(3) 0.1309(2) 0.1635(2)
C1 C 0.0463(3) 0.1644(2) 0.22017(19)
C2 C -0.0120(3) 0.1019(2) 0.2870(2)
H1 H 0.0305 0.0392 0.2937
C3 C -0.1317(4) 0.1295(3) 0.3442(3)
H2 H -0.1657 0.0871 0.3900
C4 C -0.1987(4) 0.2203(4) 0.3321(3)
H3 H -0.2815 0.2387 0.3683
C5 C -0.1451(4) 0.2834(3) 0.2677(3)
H4 H -0.1906 0.3451 0.2600
C6 C -0.0223(4) 0.2558(2) 0.2130(2)
H5 H 0.0150 0.3006 0.1702
C7 C 0.2850(3) 0.21440(18) 0.10747(18)
C8 C 0.2165(4) 0.2648(2) 0.0311(2)
H6 H 0.1137 0.2499 0.0113
C9 C 0.2969(5) 0.3368(2) -0.0165(3)
H7 H 0.2481 0.3692 -0.0673
C10 C 0.4480(5) 0.3594(2) 0.0117(3)
H8 H 0.5015 0.4078 -0.0198
C11 C 0.5205(4) 0.3119(2) 0.0853(3)
H9 H 0.6239 0.3269 0.1034
C12 C 0.4398(3) 0.24050(19) 0.1336(2)
H10 H 0.4902 0.2093 0.1847
C13 C 0.4115(3) 0.01630(17) 0.19800(16)
C14 C 0.5459(3) -0.00063(19) 0.25487(19)
H11 H 0.5601 0.0317 0.3121
C15 C 0.6575(3) -0.0651(2) 0.2263(2)
H12 H 0.7477 -0.0757 0.2642
C16 C 0.6376(3) -0.11418(19) 0.1426(2)
H13 H 0.7145 -0.1575 0.1241
C17 C 0.5058(3) -0.09974(17) 0.08660(19)
H14 H 0.4926 -0.1337 0.0302
C18 C 0.3904(3) -0.03428(16) 0.11331(16)
C19 C 0.2416(3) -0.02308(16) 0.06238(16)
C20 C 0.0005(3) 0.03678(16) 0.03224(16)
N1 N 0.1386(2) 0.04559(13) 0.08603(13)
O1 O 0.30173(19) 0.07706(12) 0.22914(11)
S1 S 0.17404(7) -0.09938(4) -0.02827(4)
B1B B -0.1949(3) -0.1309(2) -0.1635(2)
C1B C -0.0463(3) -0.1644(2) -0.22017(19)
C2B C 0.0120(3) -0.1019(2) -0.2870(2)
H1B H -0.0305 -0.0392 -0.2937
C3B C 0.1317(4) -0.1295(3) -0.3442(3)
H2B H 0.1657 -0.0871 -0.3900
C4B C 0.1987(4) -0.2203(4) -0.3321(3)
H3B H 0.2815 -0.2387 -0.3683
C5B C 0.1451(4) -0.2834(3) -0.2677(3)
H4B H 0.1906 -0.3451 -0.2600
C6B C 0.0223(4) -0.2558(2) -0.2130(2)
H5B H -0.0150 -0.3006 -0.1702
C7B C -0.2850(3) -0.21440(18) -0.10747(18)
C8B C -0.2165(4) -0.2648(2) -0.0311(2)
H6B H -0.1137 -0.2499 -0.0113
C9B C -0.2969(5) -0.3368(2) 0.0165(3)
H7B H -0.2481 -0.3692 0.0673
C10B C -0.4480(5) -0.3594(2) -0.0117(3)
H8B H -0.5015 -0.4078 0.0198
C11B C -0.5205(4) -0.3119(2) -0.0853(3)
H9B H -0.6239 -0.3269 -0.1034
C12B C -0.4398(3) -0.24050(19) -0.1336(2)
H10B H -0.4902 -0.2093 -0.1847
C13B C -0.4115(3) -0.01630(17) -0.19800(16)
C14B C -0.5459(3) 0.00063(19) -0.25487(19)
H11B H -0.5601 -0.0317 -0.3121
C15B C -0.6575(3) 0.0651(2) -0.2263(2)
H12B H -0.7477 0.0757 -0.2642
C16B C -0.6376(3) 0.11418(19) -0.1426(2)
H13B H -0.7145 0.1575 -0.1241
C17B C -0.5058(3) 0.09974(17) -0.08660(19)
H14B H -0.4926 0.1337 -0.0302
C18B C -0.3904(3) 0.03428(16) -0.11331(16)
C19B C -0.2416(3) 0.02308(16) -0.06238(16)
C20B C -0.0005(3) -0.03678(16) -0.03224(16)
N1B N -0.1386(2) -0.04559(13) -0.08603(13)
O1B O -0.30173(19) -0.07706(12) -0.22914(11)
S1B S -0.17404(7) 0.09938(4) 0.02827(4)
loop_
_geom_bond_atom_site_label_1
_geom_bond_atom_site_label_2
_geom_bond_site_symmetry_1
_geom_bond_site_symmetry_2
B1 C1 1_555 1_555
C1 C2 1_555 1_555
C2 H1 1_555 1_555
C3 C2 1_555 1_555
H2 C3 1_555 1_555
C4 C3 1_555 1_555
H3 C4 1_555 1_555
C5 C4 1_555 1_555
H4 C5 1_555 1_555
C6 C1 1_555 1_555
H5 C6 1_555 1_555
C7 B1 1_555 1_555
C8 C7 1_555 1_555
H6 C8 1_555 1_555
C9 C8 1_555 1_555
H7 C9 1_555 1_555
C10 C9 1_555 1_555
H8 C10 1_555 1_555
C11 C10 1_555 1_555
H9 C11 1_555 1_555
C12 C7 1_555 1_555
H10 C12 1_555 1_555
C13 C14 1_555 1_555
C14 H11 1_555 1_555
C15 C14 1_555 1_555
H12 C15 1_555 1_555
C16 C15 1_555 1_555
H13 C16 1_555 1_555
C17 C16 1_555 1_555
H14 C17 1_555 1_555
C18 C13 1_555 1_555
C19 C18 1_555 1_555
C20 N1 1_555 1_555
N1 B1 1_555 1_555
O1 B1 1_555 1_555
S1 C19 1_555 1_555
B1B C1B 1_555 1_555
C1B C2B 1_555 1_555
C2B H1B 1_555 1_555
C3B C2B 1_555 1_555
H2B C3B 1_555 1_555
C4B C3B 1_555 1_555
H3B C4B 1_555 1_555
C5B C4B 1_555 1_555
H4B C5B 1_555 1_555
C6B C1B 1_555 1_555
H5B C6B 1_555 1_555
C7B B1B 1_555 1_555
C8B C7B 1_555 1_555
H6B C8B 1_555 1_555
C9B C8B 1_555 1_555
H7B C9B 1_555 1_555
C10B C9B 1_555 1_555
H8B C10B 1_555 1_555
C11B C10B 1_555 1_555
H9B C11B 1_555 1_555
C12B C7B 1_555 1_555
H10B C12B 1_555 1_555
C13B C14B 1_555 1_555
C14B H11B 1_555 1_555
C15B C14B 1_555 1_555
H12B C15B 1_555 1_555
C16B C15B 1_555 1_555
H13B C16B 1_555 1_555
C17B C16B 1_555 1_555
H14B C17B 1_555 1_555
C18B C13B 1_555 1_555
C19B C18B 1_555 1_555
C20B C20 1_555 1_555
N1B B1B 1_555 1_555
O1B B1B 1_555 1_555
S1B C20 1_555 1_555
C5 C6 1_555 1_555
C11 C12 1_555 1_555
C13 O1 1_555 1_555
C17 C18 1_555 1_555
C19 N1 1_555 1_555
S1 C20B 1_555 1_555
C5B C6B 1_555 1_555
C11B C12B 1_555 1_555
C13B O1B 1_555 1_555
C17B C18B 1_555 1_555
C19B N1B 1_555 1_555
C19B S1B 1_555 1_555
C20B N1B 1_555 1_555

#END
