
#######################################################################
#
#                 Cambridge Crystallographic Data Centre
#                                CCDC 
#
#######################################################################
#
# If this CIF has been generated from an entry in the Cambridge 
# Structural Database, then it will include bibliographic, chemical, 
# crystal, experimental, refinement or atomic coordinate data resulting 
# from the CCDC's data processing and validation procedures.
#
#######################################################################

data_ABOYOI
_chemical_compound_source        
'isolated from the whole plants of Loxocalyx urticifolius Hemsl.'
_chemical_name_common            'loxocalyxin D'
_chemical_formula_moiety         'C21 H28 O5'
_chemical_name_systematic        
'methyl 1,4a,6-trimethyl-5-((3-methyl-5-oxo-2,5-dihydrofuran-2-yl)methyl)-8-oxo-1,2,3,4,4a,5,8,8a-octahydronaphthalene-1-carboxylate'
_symmetry_cell_setting           orthorhombic
_symmetry_space_group_name_H-M   'P 21 21 21'
_symmetry_Int_Tables_number      19
_space_group_name_Hall           'P 2ac 2ab'
loop_
_symmetry_equiv_pos_site_id
_symmetry_equiv_pos_as_xyz
1 x,y,z
2 1/2+x,1/2-y,-z
3 -x,1/2+y,1/2-z
4 1/2-x,-y,1/2+z
_cell_length_a                   11.8287(2)
_cell_length_b                   11.8293(2)
_cell_length_c                   13.5073(2)
_cell_angle_alpha                90
_cell_angle_beta                 90
_cell_angle_gamma                90
_cell_volume                     1890.01
_exptl_crystal_colour            colorless
_exptl_crystal_description       block
_cell_formula_units_Z            4
loop_
_atom_site_label
_atom_site_type_symbol
_atom_site_fract_x
_atom_site_fract_y
_atom_site_fract_z
O1 O -0.21793(12) 0.71545(10) 0.34141(9)
O2 O -0.11357(13) 0.55845(11) 0.33466(11)
O3 O 0.42957(12) 0.44374(10) 0.13804(11)
O4 O 0.56387(13) 0.32047(11) 0.09266(11)
O5 O -0.13471(12) 0.61781(11) 0.10401(10)
C1 C 0.57400(18) 0.72412(15) 0.17196(15)
H1 H 0.6560 0.7333 0.1653
H2 H 0.5512 0.7429 0.2397
H3 H 0.5355 0.7746 0.1254
C2 C 0.54257(16) 0.60452(15) 0.14981(12)
C3 C 0.42380(17) 0.56359(14) 0.16027(14)
H4 H 0.3985 0.5740 0.2303
C4 C 0.33853(16) 0.61946(14) 0.09072(14)
H5 H 0.3528 0.5931 0.0223
H6 H 0.3501 0.7023 0.0921
C5 C 0.21426(16) 0.59324(14) 0.11861(13)
H7 H 0.2187 0.5373 0.1740
C6 C 0.15208(15) 0.69786(13) 0.16264(12)
C7 C 0.03481(16) 0.65394(13) 0.19747(12)
H8 H 0.0523 0.5858 0.2385
C8 C -0.03559(16) 0.73090(13) 0.26644(13)
C9 C -0.12628(17) 0.65743(14) 0.31467(12)
C10 C -0.30039(18) 0.65108(18) 0.39644(15)
H9 H -0.3283 0.5887 0.3554
H10 H -0.3637 0.7003 0.4148
H11 H -0.2652 0.6205 0.4564
C11 C -0.08711(17) 0.83532(14) 0.21613(14)
H12 H -0.1338 0.8114 0.1600
H13 H -0.0264 0.8847 0.1925
H14 H -0.1340 0.8765 0.2638
C12 C 0.04127(18) 0.76729(14) 0.35402(13)
H15 H -0.0003 0.8215 0.3964
H16 H 0.0597 0.7002 0.3947
C13 C 0.15046(17) 0.82184(15) 0.31840(13)
H17 H 0.1966 0.8444 0.3762
H18 H 0.1325 0.8908 0.2800
C14 C 0.21794(16) 0.74020(14) 0.25376(13)
H19 H 0.2407 0.6743 0.2943
H20 H 0.2877 0.7785 0.2311
C15 C 0.53852(17) 0.41611(15) 0.11466(14)
C16 C 0.60820(16) 0.51852(15) 0.12245(13)
H21 H 0.6871 0.5227 0.1100
C17 C 0.14541(18) 0.53545(13) 0.03829(13)
C18 C 0.2048(2) 0.45913(17) -0.03374(16)
H22 H 0.1494 0.4101 -0.0663
H23 H 0.2602 0.4126 0.0017
H24 H 0.2438 0.5049 -0.0837
C19 C 0.03271(18) 0.54552(14) 0.03615(13)
H25 H -0.0073 0.5099 -0.0163
C20 C -0.03242(16) 0.60842(13) 0.11024(13)
C21 C 0.14245(16) 0.79219(13) 0.08465(13)
H26 H 0.1316 0.8650 0.1179
H27 H 0.0778 0.7770 0.0413
H28 H 0.2118 0.7946 0.0450
loop_
_geom_bond_atom_site_label_1
_geom_bond_atom_site_label_2
_geom_bond_site_symmetry_1
_geom_bond_site_symmetry_2
O1 C9 1_555 1_555
O2 C9 1_555 1_555
O3 C3 1_555 1_555
O4 C15 1_555 1_555
O5 C20 1_555 1_555
C1 H1 1_555 1_555
H2 C1 1_555 1_555
H3 C1 1_555 1_555
C2 C1 1_555 1_555
C3 C2 1_555 1_555
H4 C3 1_555 1_555
C4 C3 1_555 1_555
H5 C4 1_555 1_555
H6 C4 1_555 1_555
C5 C4 1_555 1_555
H7 C5 1_555 1_555
C6 C5 1_555 1_555
C7 C6 1_555 1_555
H8 C7 1_555 1_555
C8 C7 1_555 1_555
C9 C8 1_555 1_555
C10 O1 1_555 1_555
H9 C10 1_555 1_555
H10 C10 1_555 1_555
H11 C10 1_555 1_555
C11 C8 1_555 1_555
H12 C11 1_555 1_555
H13 C11 1_555 1_555
H14 C11 1_555 1_555
C12 C8 1_555 1_555
H15 C12 1_555 1_555
H16 C12 1_555 1_555
C13 C12 1_555 1_555
H17 C13 1_555 1_555
H18 C13 1_555 1_555
C14 C6 1_555 1_555
H19 C14 1_555 1_555
H20 C14 1_555 1_555
C15 O3 1_555 1_555
C16 C2 1_555 1_555
H21 C16 1_555 1_555
C17 C5 1_555 1_555
C18 C17 1_555 1_555
H22 C18 1_555 1_555
H23 C18 1_555 1_555
H24 C18 1_555 1_555
C19 C17 1_555 1_555
H25 C19 1_555 1_555
C20 C7 1_555 1_555
C21 C6 1_555 1_555
H26 C21 1_555 1_555
H27 C21 1_555 1_555
H28 C21 1_555 1_555
C13 C14 1_555 1_555
C15 C16 1_555 1_555
C19 C20 1_555 1_555

#END
