
#######################################################################
#
#                 Cambridge Crystallographic Data Centre
#                                CCDC 
#
#######################################################################
#
# If this CIF has been generated from an entry in the Cambridge 
# Structural Database, then it will include bibliographic, chemical, 
# crystal, experimental, refinement or atomic coordinate data resulting 
# from the CCDC's data processing and validation procedures.
#
#######################################################################

data_ABUJUC
_chemical_formula_moiety         'C13 H25 N1 O4 Si1'
_chemical_name_systematic        
(1R,2S,7S,7aS)-7-((t-butyl(dimethyl)silyl)oxy)-1,2-dihydroxyhexahydro-1H-pyrrolizin-5-one
_symmetry_cell_setting           monoclinic
_symmetry_space_group_name_H-M   'C 2'
_symmetry_Int_Tables_number      5
_space_group_name_Hall           'C 2y'
loop_
_symmetry_equiv_pos_site_id
_symmetry_equiv_pos_as_xyz
1 x,y,z
2 -x,y,-z
3 1/2+x,1/2+y,z
4 1/2-x,1/2+y,-z
_cell_length_a                   14.546(1)
_cell_length_b                   6.262(1)
_cell_length_c                   35.155(3)
_cell_angle_alpha                90
_cell_angle_beta                 98.72(1)
_cell_angle_gamma                90
_cell_volume                     3165.15
_exptl_crystal_colour            colorless
_exptl_crystal_description       block
_cell_formula_units_Z            8
loop_
_atom_site_label
_atom_site_type_symbol
_atom_site_fract_x
_atom_site_fract_y
_atom_site_fract_z
Si1 Si 0.10644(12) -0.60112(16) 0.16216(3)
N1 N 0.0647(4) -0.2027(4) 0.04879(9)
O1 O -0.0580(3) 0.0057(5) 0.05981(8)
O2 O 0.0800(2) -0.4416(4) 0.12471(6)
O3 O 0.2586(3) -0.5575(4) 0.06528(7)
H1 H 0.3122 -0.5223 0.0637
O4 O 0.2272(3) -0.2853(4) 0.00464(7)
H2 H 0.2296 -0.1911 -0.0114
C1 C -0.0145(5) -0.1673(6) 0.06101(11)
C2 C -0.0481(4) -0.3798(6) 0.07483(12)
H3 H -0.0817 -0.3600 0.0964
H4 H -0.0878 -0.4534 0.0543
C3 C 0.0417(4) -0.5004(5) 0.08682(9)
H5 H 0.0322 -0.6551 0.0845
C4 C 0.1018(5) -0.4178(5) 0.05773(9)
H6 H 0.0915 -0.5062 0.0345
C5 C 0.2041(5) -0.3723(5) 0.06834(10)
H7 H 0.2161 -0.3195 0.0949
C6 C 0.2207(4) -0.1910(6) 0.04094(10)
H8 H 0.2772 -0.1112 0.0508
C7 C 0.1341(4) -0.0506(6) 0.03964(10)
H9 H 0.1441 0.0629 0.0586
H10 H 0.1161 0.0112 0.0143
C8 C 0.1852(6) -0.4383(11) 0.19718(15)
H11 H 0.1519 -0.3171 0.2048
H12 H 0.2369 -0.3902 0.1855
H13 H 0.2074 -0.5234 0.2194
C9 C 0.1701(6) -0.8414(9) 0.14765(15)
H14 H 0.1289 -0.9251 0.1296
H15 H 0.1916 -0.9260 0.1700
H16 H 0.2223 -0.7959 0.1360
C10 C -0.0011(5) -0.6824(9) 0.18168(12)
C11 C -0.0650(6) -0.8107(14) 0.15268(16)
H17 H -0.1193 -0.8505 0.1634
H18 H -0.0334 -0.9369 0.1461
H19 H -0.0830 -0.7264 0.1300
C12 C 0.0268(6) -0.8169(12) 0.21824(16)
H20 H -0.0280 -0.8580 0.2286
H21 H 0.0666 -0.7342 0.2370
H22 H 0.0593 -0.9425 0.2120
C13 C -0.0538(7) -0.4807(13) 0.1921(2)
H23 H -0.1085 -0.5229 0.2025
H24 H -0.0715 -0.3960 0.1694
H25 H -0.0141 -0.3983 0.2109
Si2 Si 0.40070(13) -0.83672(16) 0.33290(3)
O5 O 0.5550(3) -0.2477(5) 0.43565(9)
O6 O 0.4060(3) -0.6994(4) 0.37297(7)
O7 O 0.2403(3) -0.8066(4) 0.43548(6)
H26 H 0.1860 -0.7712 0.4354
O8 O 0.2781(3) -0.5390(4) 0.49703(7)
H27 H 0.2739 -0.4458 0.5131
N2 N 0.4369(4) -0.4576(5) 0.44974(8)
C14 C 0.5127(5) -0.4220(6) 0.43527(11)
C15 C 0.5436(4) -0.6334(6) 0.41919(12)
H28 H 0.5716 -0.6106 0.3962
H29 H 0.5873 -0.7085 0.4381
C16 C 0.4521(4) -0.7541(6) 0.41018(9)
H30 H 0.4621 -0.9086 0.4125
C17 C 0.3980(5) -0.6718(5) 0.44122(10)
H31 H 0.4105 -0.7622 0.4642
C18 C 0.2952(5) -0.6223(6) 0.43239(9)
H32 H 0.2812 -0.5662 0.4061
C19 C 0.2815(4) -0.4436(6) 0.46091(9)
H33 H 0.2251 -0.3606 0.4521
C20 C 0.3698(4) -0.3071(6) 0.46145(9)
H34 H 0.3588 -0.1890 0.4435
H35 H 0.3911 -0.2513 0.4870
C21 C 0.4149(7) -0.6336(10) 0.29433(15)
H36 H 0.4748 -0.5667 0.3002
H37 H 0.3671 -0.5272 0.2934
H38 H 0.4100 -0.7038 0.2698
C22 C 0.4991(6) -1.0298(11) 0.33643(18)
H39 H 0.4923 -1.1352 0.3556
H40 H 0.5568 -0.9551 0.3435
H41 H 0.4989 -1.0987 0.3120
C23 C 0.2859(5) -0.9673(8) 0.32136(12)
C24 C 0.2787(6) -1.1425(10) 0.35160(16)
H42 H 0.2192 -1.2111 0.3461
H43 H 0.2855 -1.0793 0.3767
H44 H 0.3270 -1.2461 0.3507
C25 C 0.2752(6) -1.0685(10) 0.28084(14)
H45 H 0.2152 -1.1352 0.2751
H46 H 0.3229 -1.1737 0.2801
H47 H 0.2807 -0.9596 0.2621
C26 C 0.2084(6) -0.8074(12) 0.32184(17)
H48 H 0.1495 -0.8785 0.3159
H49 H 0.2130 -0.6983 0.3030
H50 H 0.2133 -0.7437 0.3469
loop_
_geom_bond_atom_site_label_1
_geom_bond_atom_site_label_2
_geom_bond_site_symmetry_1
_geom_bond_site_symmetry_2
Si1 O2 1_555 1_555
N1 C1 1_555 1_555
O1 C1 1_555 1_555
O2 C3 1_555 1_555
O3 H1 1_555 1_555
O4 H2 1_555 1_555
C1 C2 1_555 1_555
C2 H3 1_555 1_555
H4 C2 1_555 1_555
C3 C2 1_555 1_555
H5 C3 1_555 1_555
C4 N1 1_555 1_555
H6 C4 1_555 1_555
C5 O3 1_555 1_555
H7 C5 1_555 1_555
C6 O4 1_555 1_555
H8 C6 1_555 1_555
C7 N1 1_555 1_555
H9 C7 1_555 1_555
H10 C7 1_555 1_555
C8 Si1 1_555 1_555
H11 C8 1_555 1_555
H12 C8 1_555 1_555
H13 C8 1_555 1_555
C9 Si1 1_555 1_555
H14 C9 1_555 1_555
H15 C9 1_555 1_555
H16 C9 1_555 1_555
C10 Si1 1_555 1_555
C11 C10 1_555 1_555
H17 C11 1_555 1_555
H18 C11 1_555 1_555
H19 C11 1_555 1_555
C12 C10 1_555 1_555
H20 C12 1_555 1_555
H21 C12 1_555 1_555
H22 C12 1_555 1_555
C13 C10 1_555 1_555
H23 C13 1_555 1_555
H24 C13 1_555 1_555
H25 C13 1_555 1_555
Si2 O6 1_555 1_555
O5 C14 1_555 1_555
O6 C16 1_555 1_555
O7 H26 1_555 1_555
O8 H27 1_555 1_555
N2 C14 1_555 1_555
C14 C15 1_555 1_555
C15 H28 1_555 1_555
H29 C15 1_555 1_555
C16 C15 1_555 1_555
H30 C16 1_555 1_555
C17 N2 1_555 1_555
H31 C17 1_555 1_555
C18 O7 1_555 1_555
H32 C18 1_555 1_555
C19 O8 1_555 1_555
H33 C19 1_555 1_555
C20 N2 1_555 1_555
H34 C20 1_555 1_555
H35 C20 1_555 1_555
C21 Si2 1_555 1_555
H36 C21 1_555 1_555
H37 C21 1_555 1_555
H38 C21 1_555 1_555
C22 Si2 1_555 1_555
H39 C22 1_555 1_555
H40 C22 1_555 1_555
H41 C22 1_555 1_555
C23 Si2 1_555 1_555
C24 C23 1_555 1_555
H42 C24 1_555 1_555
H43 C24 1_555 1_555
H44 C24 1_555 1_555
C25 C23 1_555 1_555
H45 C25 1_555 1_555
H46 C25 1_555 1_555
H47 C25 1_555 1_555
C26 C23 1_555 1_555
H48 C26 1_555 1_555
H49 C26 1_555 1_555
H50 C26 1_555 1_555
C3 C4 1_555 1_555
C4 C5 1_555 1_555
C5 C6 1_555 1_555
C6 C7 1_555 1_555
C16 C17 1_555 1_555
C17 C18 1_555 1_555
C18 C19 1_555 1_555
C19 C20 1_555 1_555

#END
