
#######################################################################
#
#                 Cambridge Crystallographic Data Centre
#                                CCDC 
#
#######################################################################
#
# If this CIF has been generated from an entry in the Cambridge 
# Structural Database, then it will include bibliographic, chemical, 
# crystal, experimental, refinement or atomic coordinate data resulting 
# from the CCDC's data processing and validation procedures.
#
#######################################################################

data_ABUSIB
_chemical_formula_moiety         'C21 H18 N2 O3'
_chemical_name_systematic        
3-(((3-(Benzyloxy)pyridin-2-yl)imino)methyl)-2-hydroxy-5-methylbenzaldehyde
_symmetry_cell_setting           orthorhombic
_symmetry_space_group_name_H-M   'P 21 c a'
_symmetry_Int_Tables_number      29
_space_group_name_Hall           'P -2ac 2a'
loop_
_symmetry_equiv_pos_site_id
_symmetry_equiv_pos_as_xyz
1 x,y,z
2 1/2+x,y,1/2-z
3 1/2+x,-y,-z
4 x,-y,1/2+z
_cell_length_a                   6.6296(5)
_cell_length_b                   11.8971(9)
_cell_length_c                   23.4759(5)
_cell_angle_alpha                90
_cell_angle_beta                 90
_cell_angle_gamma                90
_cell_volume                     1851.61
_exptl_crystal_colour            'dark yellow'
_exptl_crystal_description       block
_cell_formula_units_Z            4
loop_
_atom_site_label
_atom_site_type_symbol
_atom_site_fract_x
_atom_site_fract_y
_atom_site_fract_z
C1 C 0.267(3) 0.7944(3) 0.23427(17)
N1 N 0.267(2) 0.7282(3) 0.32934(14)
C2 C 0.270(3) 0.6485(4) 0.42252(17)
O1 O 0.263(2) 0.5942(2) 0.24432(13)
H1 H 0.3000 0.6104 0.2766
C3 C 0.270(3) 0.6855(4) 0.21136(18)
C4 C 0.267(3) 0.7444(3) 0.38868(17)
O2 O 0.265(2) 0.5488(2) 0.39333(12)
C5 C 0.266(3) 0.6728(4) 0.15159(18)
N2 N 0.267(2) 0.8469(3) 0.41099(14)
C6 C 0.268(3) 0.8756(4) 0.13873(19)
C7 C 0.269(3) 0.8863(4) 0.19700(18)
H2 H 0.2720 0.9583 0.2125
C8 C 0.268(3) 0.8122(4) 0.29546(18)
H3 H 0.2701 0.8849 0.3100
C9 C 0.269(3) 0.6607(5) 0.48061(19)
H4 H 0.2634 0.5984 0.5045
C10 C 0.259(3) 0.8569(5) 0.4675(2)
H5 H 0.2406 0.9280 0.4832
C11 C 0.276(4) 0.7687(5) 0.5026(2)
H6 H 0.2921 0.7798 0.5415
C12 C 0.272(3) 0.7680(4) 0.1174(2)
H7 H 0.2790 0.7585 0.0781
C13 C 0.271(4) 0.4469(4) 0.4261(2)
H8 H 0.1483 0.4390 0.4481
H9 H 0.3844 0.4492 0.4524
C14 C 0.279(4) 0.9755(5) 0.0989(2)
H10 H 0.4178 0.9957 0.0929
H11 H 0.2085 1.0379 0.1155
H12 H 0.2183 0.9563 0.0631
C15 C 0.261(3) 0.2434(4) 0.4073(3)
H13 H 0.2234 0.2346 0.4453
O3 O 0.264(3) 0.5437(3) 0.07545(16)
C16 C 0.266(3) 0.5602(5) 0.1270(2)
H14 H 0.2670 0.4986 0.1513
C17 C 0.239(3) 0.3502(7) 0.3869(4)
C18 C 0.169(2) 0.3592(11) 0.3315(5)
H15 H 0.1371 0.4296 0.3169
C19 C 0.147(3) 0.2642(9) 0.2973(7)
H16 H 0.1103 0.2707 0.2592
C20 C 0.180(3) 0.1599(12) 0.3217(6)
H17 H 0.1357 0.0953 0.3034
C21 C 0.281(3) 0.1512(6) 0.3738(3)
H18 H 0.2341 0.0808 0.3850
C22? C 0.294(3) 0.3497(8) 0.3863(5)
C23? C 0.383(2) 0.3642(12) 0.3330(5)
C24? C 0.429(3) 0.2730(9) 0.2980(8)
C25? C 0.378(3) 0.1685(13) 0.3208(6)
H19? H 0.4128 0.4365 0.3204
H20? H 0.4888 0.2812 0.2624
H21? H 0.4095 0.1051 0.2994
loop_
_geom_bond_atom_site_label_1
_geom_bond_atom_site_label_2
_geom_bond_site_symmetry_1
_geom_bond_site_symmetry_2
C1 C3 1_555 1_555
N1 C4 1_555 1_555
C2 C4 1_555 1_555
O1 H1 1_555 1_555
C3 O1 1_555 1_555
C4 N2 1_555 1_555
O2 C2 1_555 1_555
C5 C3 1_555 1_555
N2 C10 1_555 1_555
C6 C7 1_555 1_555
C7 C1 1_555 1_555
H2 C7 1_555 1_555
C8 C1 1_555 1_555
H3 C8 1_555 1_555
C9 C2 1_555 1_555
H4 C9 1_555 1_555
C10 H5 1_555 1_555
C11 C9 1_555 1_555
H6 C11 1_555 1_555
C12 C5 1_555 1_555
H7 C12 1_555 1_555
C13 O2 1_555 1_555
H8 C13 1_555 1_555
H9 C13 1_555 1_555
C14 C6 1_555 1_555
H10 C14 1_555 1_555
H11 C14 1_555 1_555
H12 C14 1_555 1_555
C15 H13 1_555 1_555
O3 C16 1_555 1_555
C16 C5 1_555 1_555
H14 C16 1_555 1_555
C17 C13 1_555 1_555
C18 C17 1_555 1_555
H15 C18 1_555 1_555
C19 C18 1_555 1_555
H16 C19 1_555 1_555
C20 C19 1_555 1_555
H17 C20 1_555 1_555
C21 C15 1_555 1_555
H18 C21 1_555 1_555
N1 C8 1_555 1_555
C6 C12 1_555 1_555
C10 C11 1_555 1_555
C15 C17 1_555 1_555
C20 C21 1_555 1_555

#END
