
#######################################################################
#
#                 Cambridge Crystallographic Data Centre
#                                CCDC 
#
#######################################################################
#
# If this CIF has been generated from an entry in the Cambridge 
# Structural Database, then it will include bibliographic, chemical, 
# crystal, experimental, refinement or atomic coordinate data resulting 
# from the CCDC's data processing and validation procedures.
#
#######################################################################

data_ABUSOH
_chemical_formula_moiety         'C24 H18 N2'
_chemical_name_systematic        
2-(4-Methylphenyl)-3-((4-methylphenyl)ethynyl)quinoxaline
_symmetry_cell_setting           triclinic
_symmetry_space_group_name_H-M   'P -1'
_symmetry_Int_Tables_number      2
_space_group_name_Hall           '-P 1'
loop_
_symmetry_equiv_pos_site_id
_symmetry_equiv_pos_as_xyz
1 x,y,z
2 -x,-y,-z
_cell_length_a                   10.102(10)
_cell_length_b                   10.247(10)
_cell_length_c                   10.715(10)
_cell_angle_alpha                67.098(12)
_cell_angle_beta                 63.868(13)
_cell_angle_gamma                77.085(13)
_cell_volume                     915.47
_exptl_crystal_colour            colorless
_exptl_crystal_description       block
_cell_formula_units_Z            2
loop_
_atom_site_label
_atom_site_type_symbol
_atom_site_fract_x
_atom_site_fract_y
_atom_site_fract_z
C1 C 0.1655(6) 0.8454(5) -0.0701(5)
C2 C 0.2326(6) 0.8783(5) -0.2231(6)
H1 H 0.3341 0.8875 -0.2715
C3 C 0.1502(7) 0.8969(5) -0.3018(6)
H2 H 0.1956 0.9191 -0.4036
C4 C -0.0019(7) 0.8827(5) -0.2300(7)
H3 H -0.0570 0.8960 -0.2848
C5 C -0.0712(6) 0.8496(5) -0.0803(6)
H4 H -0.1725 0.8394 -0.0331
C6 C 0.0135(6) 0.8312(5) 0.0015(6)
C7 C 0.0268(5) 0.7760(5) 0.2238(5)
C8 C 0.1830(5) 0.7933(5) 0.1510(5)
C9 C 0.2755(5) 0.7814(5) 0.2314(5)
C10 C 0.2704(5) 0.6708(5) 0.3595(5)
H5 H 0.2060 0.5994 0.3993
C11 C 0.3603(5) 0.6660(5) 0.4285(5)
H6 H 0.3553 0.5905 0.5139
C12 C 0.4564(5) 0.7689(6) 0.3751(5)
C13 C 0.4618(5) 0.8779(6) 0.2479(6)
H7 H 0.5266 0.9489 0.2082
C14 C 0.3730(5) 0.8842(5) 0.1779(5)
H8 H 0.3789 0.9598 0.0923
C15 C 0.5555(5) 0.7611(6) 0.4502(5)
H9 H 0.5280 0.6854 0.5431
H10 H 0.5452 0.8493 0.4663
H11 H 0.6564 0.7436 0.3889
C16 C -0.0457(5) 0.7380(5) 0.3815(6)
C17 C -0.1035(5) 0.7073(5) 0.5121(6)
C18 C -0.1649(5) 0.6623(5) 0.6706(5)
C19 C -0.0809(5) 0.5731(5) 0.7477(6)
H12 H 0.0150 0.5426 0.6969
C20 C -0.1391(6) 0.5297(5) 0.8982(6)
H13 H -0.0819 0.4689 0.9486
C21 C -0.2800(7) 0.5737(6) 0.9771(6)
C22 C -0.3625(6) 0.6640(6) 0.9006(6)
H14 H -0.4576 0.6960 0.9516
C23 C -0.3057(6) 0.7074(5) 0.7497(6)
H15 H -0.3631 0.7683 0.6997
C24 C -0.3415(6) 0.5257(6) 1.1442(5)
H16 H -0.4219 0.4666 1.1845
H17 H -0.3761 0.6072 1.1759
H18 H -0.2652 0.4730 1.1777
N1 N 0.2505(4) 0.8284(4) 0.0060(4)
N2 N -0.0574(4) 0.7935(4) 0.1521(5)
loop_
_geom_bond_atom_site_label_1
_geom_bond_atom_site_label_2
_geom_bond_site_symmetry_1
_geom_bond_site_symmetry_2
C1 C2 1_555 1_555
C2 H1 1_555 1_555
C3 C2 1_555 1_555
H2 C3 1_555 1_555
C4 C3 1_555 1_555
H3 C4 1_555 1_555
C5 C4 1_555 1_555
H4 C5 1_555 1_555
C6 C1 1_555 1_555
C7 C8 1_555 1_555
C8 C9 1_555 1_555
C9 C10 1_555 1_555
C10 H5 1_555 1_555
C11 C10 1_555 1_555
H6 C11 1_555 1_555
C12 C11 1_555 1_555
C13 C12 1_555 1_555
H7 C13 1_555 1_555
C14 C9 1_555 1_555
H8 C14 1_555 1_555
C15 C12 1_555 1_555
H9 C15 1_555 1_555
H10 C15 1_555 1_555
H11 C15 1_555 1_555
C16 C7 1_555 1_555
C17 C16 1_555 1_555
C18 C17 1_555 1_555
C19 C18 1_555 1_555
H12 C19 1_555 1_555
C20 C19 1_555 1_555
H13 C20 1_555 1_555
C21 C20 1_555 1_555
C22 C21 1_555 1_555
H14 C22 1_555 1_555
C23 C18 1_555 1_555
H15 C23 1_555 1_555
C24 C21 1_555 1_555
H16 C24 1_555 1_555
H17 C24 1_555 1_555
H18 C24 1_555 1_555
N1 C1 1_555 1_555
N2 C6 1_555 1_555
C5 C6 1_555 1_555
C7 N2 1_555 1_555
C8 N1 1_555 1_555
C13 C14 1_555 1_555
C22 C23 1_555 1_555

#END
