
#######################################################################
#
#                 Cambridge Crystallographic Data Centre
#                                CCDC 
#
#######################################################################
#
# If this CIF has been generated from an entry in the Cambridge 
# Structural Database, then it will include bibliographic, chemical, 
# crystal, experimental, refinement or atomic coordinate data resulting 
# from the CCDC's data processing and validation procedures.
#
#######################################################################

data_ABUSUN
_chemical_formula_moiety         'C14 H13 N3'
_chemical_name_systematic        N-(4-Methylphenyl)-1H-benzimidazol-2-amine
_symmetry_cell_setting           orthorhombic
_symmetry_space_group_name_H-M   'P b c a'
_symmetry_Int_Tables_number      61
_space_group_name_Hall           '-P 2ac 2ab'
loop_
_symmetry_equiv_pos_site_id
_symmetry_equiv_pos_as_xyz
1 x,y,z
2 1/2-x,-y,1/2+z
3 -x,1/2+y,1/2-z
4 1/2+x,1/2-y,-z
5 -x,-y,-z
6 1/2+x,y,1/2-z
7 x,1/2-y,1/2+z
8 1/2-x,1/2+y,z
_cell_length_a                   12.771(2)
_cell_length_b                   9.9140(17)
_cell_length_c                   18.545(3)
_cell_angle_alpha                90
_cell_angle_beta                 90
_cell_angle_gamma                90
_cell_volume                     2348.01
_exptl_crystal_colour            colorless
_exptl_crystal_description       block
_cell_formula_units_Z            8
loop_
_atom_site_label
_atom_site_type_symbol
_atom_site_fract_x
_atom_site_fract_y
_atom_site_fract_z
N1 N 0.77891(15) -0.16798(17) 0.35569(11)
N2 N 0.76143(18) 0.05511(18) 0.34414(12)
H1 H 0.7419 0.1362 0.3537
N3 N 0.6700(2) -0.0511(2) 0.43891(13)
H2 H 0.6369 0.0230 0.4469
C1 C 0.83575(19) -0.1244(2) 0.29581(12)
C2 C 0.8249(2) 0.0147(2) 0.28751(13)
C3 C 0.8733(2) 0.0849(3) 0.23273(15)
H3 H 0.8647 0.1775 0.2274
C4 C 0.9352(3) 0.0113(3) 0.18604(15)
H4 H 0.9689 0.0552 0.1483
C5 C 0.9482(2) -0.1264(3) 0.19423(15)
H5 H 0.9915 -0.1726 0.1624
C6 C 0.8985(2) -0.1965(3) 0.24827(14)
H6 H 0.9066 -0.2893 0.2529
C7 C 0.7362(2) -0.0571(2) 0.38127(14)
C8 C 0.6529(2) -0.1618(2) 0.48663(13)
C9 C 0.5529(2) -0.2049(3) 0.50058(15)
H7 H 0.4964 -0.1638 0.4778
C10 C 0.5361(2) -0.3096(3) 0.54858(16)
H8 H 0.4678 -0.3371 0.5578
C11 C 0.6168(2) -0.3741(3) 0.58288(14)
C12 C 0.7163(2) -0.3281(3) 0.56870(17)
H9 H 0.7728 -0.3685 0.5917
C13 C 0.7344(2) -0.2236(3) 0.52120(18)
H10 H 0.8026 -0.1949 0.5126
C14 C 0.5974(3) -0.4879(4) 0.63497(18)
H11 H 0.5237 -0.5062 0.6374
H12 H 0.6225 -0.4629 0.6819
H13 H 0.6337 -0.5671 0.6188
loop_
_geom_bond_atom_site_label_1
_geom_bond_atom_site_label_2
_geom_bond_site_symmetry_1
_geom_bond_site_symmetry_2
N1 C1 1_555 1_555
N2 H1 1_555 1_555
N3 H2 1_555 1_555
C1 C2 1_555 1_555
C2 N2 1_555 1_555
C3 C2 1_555 1_555
H3 C3 1_555 1_555
C4 C3 1_555 1_555
H4 C4 1_555 1_555
C5 C4 1_555 1_555
H5 C5 1_555 1_555
C6 C1 1_555 1_555
H6 C6 1_555 1_555
C7 N1 1_555 1_555
C8 N3 1_555 1_555
C9 C8 1_555 1_555
H7 C9 1_555 1_555
C10 C9 1_555 1_555
H8 C10 1_555 1_555
C11 C10 1_555 1_555
C12 C11 1_555 1_555
H9 C12 1_555 1_555
C13 C8 1_555 1_555
H10 C13 1_555 1_555
C14 C11 1_555 1_555
H11 C14 1_555 1_555
H12 C14 1_555 1_555
H13 C14 1_555 1_555
N2 C7 1_555 1_555
N3 C7 1_555 1_555
C5 C6 1_555 1_555
C12 C13 1_555 1_555

#END
