
#######################################################################
#
#                 Cambridge Crystallographic Data Centre
#                                CCDC 
#
#######################################################################
#
# If this CIF has been generated from an entry in the Cambridge 
# Structural Database, then it will include bibliographic, chemical, 
# crystal, experimental, refinement or atomic coordinate data resulting 
# from the CCDC's data processing and validation procedures.
#
#######################################################################

data_ABUTID
_chemical_formula_moiety         'C24 H23 N1 O2'
_chemical_name_systematic        
3-(cyclohexylamino)-1-(4-methylphenyl)-8H-indeno[1,2-c]furan-8-one
_symmetry_cell_setting           orthorhombic
_symmetry_space_group_name_H-M   'P b c a'
_symmetry_Int_Tables_number      61
_space_group_name_Hall           '-P 2ac 2ab'
loop_
_symmetry_equiv_pos_site_id
_symmetry_equiv_pos_as_xyz
1 x,y,z
2 1/2-x,-y,1/2+z
3 -x,1/2+y,1/2-z
4 1/2+x,1/2-y,-z
5 -x,-y,-z
6 1/2+x,y,1/2-z
7 x,1/2-y,1/2+z
8 1/2-x,1/2+y,z
_cell_length_a                   17.0118(18)
_cell_length_b                   10.9267(11)
_cell_length_c                   20.145(3)
_cell_angle_alpha                90
_cell_angle_beta                 90
_cell_angle_gamma                90
_cell_volume                     3744.61
_exptl_crystal_colour            purple
_exptl_crystal_description       block
_cell_formula_units_Z            8
loop_
_atom_site_label
_atom_site_type_symbol
_atom_site_fract_x
_atom_site_fract_y
_atom_site_fract_z
N1 N 0.1040(14) 0.542(2) 0.2038(9)
H1 H 0.0627 0.5166 0.2244
O1 O 0.17062(10) 0.39550(18) 0.26335(8)
O2 O 0.43623(11) 0.4375(2) 0.27856(10)
C1 C 0.17498(17) 0.4912(3) 0.21801(13)
C2 C 0.25150(15) 0.5229(3) 0.20853(13)
C3 C 0.30590(16) 0.6055(3) 0.17448(13)
C4 C 0.29751(18) 0.6953(3) 0.12625(14)
H2 H 0.2482 0.7143 0.1093
C5 C 0.36387(19) 0.7563(3) 0.10382(15)
H3 H 0.3583 0.8161 0.0713
C6 C 0.43768(19) 0.7311(3) 0.12816(16)
H4 H 0.4811 0.7737 0.1123
C7 C 0.44705(18) 0.6426(3) 0.17600(15)
H5 H 0.4967 0.6251 0.1929
C8 C 0.38152(16) 0.5797(3) 0.19872(13)
C9 C 0.37960(16) 0.4795(3) 0.24783(13)
C10 C 0.29633(15) 0.4444(3) 0.25122(13)
C11 C 0.24651(16) 0.3676(3) 0.28355(13)
C12 C 0.25566(17) 0.2689(3) 0.33070(13)
C13 C 0.32994(18) 0.2334(3) 0.35050(14)
H6 H 0.3739 0.2729 0.3333
C14 C 0.3394(2) 0.1394(3) 0.39588(15)
H7 H 0.3899 0.1160 0.4081
C15 C 0.2762(2) 0.0796(3) 0.42334(14)
C16 C 0.20294(19) 0.1147(3) 0.40235(15)
H8 H 0.1592 0.0747 0.4195
C17 C 0.19185(18) 0.2069(3) 0.35680(15)
H9 H 0.1412 0.2276 0.3435
C18 C 0.2876(2) -0.0216(3) 0.47395(16)
H10 H 0.3393 -0.0558 0.4691
H11 H 0.2490 -0.0844 0.4669
H12 H 0.2818 0.0113 0.5179
C19 C 0.0970(9) 0.6376(14) 0.1543(7)
H13 H 0.1418 0.6930 0.1603
C20 C 0.0998(5) 0.5907(6) 0.0838(4)
H14 H 0.0582 0.5311 0.0776
H15 H 0.1495 0.5493 0.0767
C21 C 0.0907(5) 0.6920(6) 0.0321(3)
H16 H 0.1357 0.7465 0.0343
H17 H 0.0893 0.6562 -0.0119
C22 C 0.016(3) 0.764(4) 0.044(2)
H18 H -0.0293 0.7122 0.0373
H19 H 0.0130 0.8314 0.0123
C23 C 0.0162(5) 0.8150(6) 0.1147(4)
H20 H 0.0601 0.8707 0.1202
H21 H -0.0319 0.8606 0.1224
C24 C 0.0225(4) 0.7118(6) 0.1654(3)
H22 H 0.0230 0.7460 0.2098
H23 H -0.0230 0.6587 0.1616
N2? N 0.104(2) 0.512(3) 0.1868(12)
H24? H 0.0633 0.4734 0.2000
C25? C 0.0980(12) 0.598(2) 0.1315(8)
H25? H 0.1449 0.5899 0.1036
C26? C 0.0260(5) 0.5627(8) 0.0903(4)
H26? H -0.0210 0.5681 0.1174
H27? H 0.0312 0.4791 0.0749
C27? C 0.0190(7) 0.6500(10) 0.0305(4)
H28? H 0.0646 0.6407 0.0020
H29? H -0.0274 0.6296 0.0049
C28? C 0.013(4) 0.783(6) 0.055(3)
H30? H 0.0091 0.8376 0.0169
H31? H -0.0332 0.7930 0.0819
C29? C 0.0855(6) 0.8162(8) 0.0949(4)
H32? H 0.0814 0.9001 0.1103
H33? H 0.1321 0.8095 0.0674
C30? C 0.0925(7) 0.7295(10) 0.1547(5)
H34? H 0.1389 0.7503 0.1803
H35? H 0.0469 0.7391 0.1832
loop_
_geom_bond_atom_site_label_1
_geom_bond_atom_site_label_2
_geom_bond_site_symmetry_1
_geom_bond_site_symmetry_2
N1 H1 1_555 1_555
O1 C1 1_555 1_555
O2 C9 1_555 1_555
C1 N1 1_555 1_555
C2 C1 1_555 1_555
C3 C2 1_555 1_555
C4 C3 1_555 1_555
H2 C4 1_555 1_555
C5 C4 1_555 1_555
H3 C5 1_555 1_555
C6 C5 1_555 1_555
H4 C6 1_555 1_555
C7 C6 1_555 1_555
H5 C7 1_555 1_555
C8 C3 1_555 1_555
C9 C8 1_555 1_555
C10 C2 1_555 1_555
C11 O1 1_555 1_555
C12 C11 1_555 1_555
C13 C12 1_555 1_555
H6 C13 1_555 1_555
C14 C13 1_555 1_555
H7 C14 1_555 1_555
C15 C14 1_555 1_555
C16 C15 1_555 1_555
H8 C16 1_555 1_555
C17 C12 1_555 1_555
H9 C17 1_555 1_555
C18 C15 1_555 1_555
H10 C18 1_555 1_555
H11 C18 1_555 1_555
H12 C18 1_555 1_555
C19 N1 1_555 1_555
H13 C19 1_555 1_555
C20 C19 1_555 1_555
H14 C20 1_555 1_555
H15 C20 1_555 1_555
C21 C20 1_555 1_555
H16 C21 1_555 1_555
H17 C21 1_555 1_555
C22 C21 1_555 1_555
H18 C22 1_555 1_555
H19 C22 1_555 1_555
C23 C22 1_555 1_555
H20 C23 1_555 1_555
H21 C23 1_555 1_555
C24 C19 1_555 1_555
H22 C24 1_555 1_555
H23 C24 1_555 1_555
C7 C8 1_555 1_555
C9 C10 1_555 1_555
C10 C11 1_555 1_555
C16 C17 1_555 1_555
C23 C24 1_555 1_555

#END
