
#######################################################################
#
#                 Cambridge Crystallographic Data Centre
#                                CCDC 
#
#######################################################################
#
# If this CIF has been generated from an entry in the Cambridge 
# Structural Database, then it will include bibliographic, chemical, 
# crystal, experimental, refinement or atomic coordinate data resulting 
# from the CCDC's data processing and validation procedures.
#
#######################################################################

data_ABUVEB
_chemical_formula_moiety         'C38 H36 B2 F4 N4,2(C1 H1 Cl3)'
_chemical_name_systematic        
"7,7,16,16-tetrafluoro-9,18-bis(4-methylphenyl)-7H,16H-isoindolo[2'',1'':4',5'][1,2,4,3]triazaborinino[2',1':1,2][1,2,4,3]triazaborinino[5,4-a]isoindole-8,17-diium-7,16-diide chloroform solvate"
_symmetry_cell_setting           triclinic
_symmetry_space_group_name_H-M   'P -1'
_symmetry_Int_Tables_number      2
_space_group_name_Hall           '-P 1'
loop_
_symmetry_equiv_pos_site_id
_symmetry_equiv_pos_as_xyz
1 x,y,z
2 -x,-y,-z
_cell_length_a                   8.457(4)
_cell_length_b                   9.132(4)
_cell_length_c                   14.715(7)
_cell_angle_alpha                75.150(5)
_cell_angle_beta                 76.225(6)
_cell_angle_gamma                79.774(6)
_cell_volume                     1058.63
_exptl_crystal_colour            colorless
_exptl_crystal_description       block
_cell_formula_units_Z            1
loop_
_atom_site_label
_atom_site_type_symbol
_atom_site_fract_x
_atom_site_fract_y
_atom_site_fract_z
B1 B 0.1902(6) 0.4395(6) 0.8940(4)
C1 C -0.0437(4) 0.2752(4) 0.9457(3)
C2 C -0.0928(4) 0.1527(4) 0.9199(3)
C3 C -0.2295(5) 0.0722(5) 0.9559(3)
H1 H -0.3119 0.0965 1.0061
C4 C -0.2370(6) -0.0441(5) 0.9139(3)
H2 H -0.3273 -0.0981 0.9358
C5 C -0.1138(6) -0.0834(5) 0.8396(3)
H3 H -0.1228 -0.1638 0.8139
C6 C 0.0207(5) -0.0060(5) 0.8037(3)
H4 H 0.1033 -0.0332 0.7544
C7 C 0.0296(4) 0.1154(4) 0.8436(3)
C8 C 0.1520(4) 0.2162(4) 0.8238(3)
C9 C 0.3027(4) 0.2192(4) 0.7494(3)
C10 C 0.4558(5) 0.2221(5) 0.7680(3)
H5 H 0.4649 0.2216 0.8298
C11 C 0.5945(5) 0.2256(5) 0.6957(3)
H6 H 0.6951 0.2284 0.7101
C12 C 0.5888(5) 0.2252(4) 0.6025(3)
C13 C 0.4349(5) 0.2183(5) 0.5860(3)
H7 H 0.4261 0.2153 0.5248
C14 C 0.2960(5) 0.2157(5) 0.6571(3)
H8 H 0.1957 0.2116 0.6428
C15 C 0.7390(5) 0.2343(5) 0.5209(3)
C16 C 0.7637(8) 0.0952(8) 0.4773(5)
H9 H 0.6675 0.0920 0.4544
H10 H 0.7826 0.0041 0.5253
H11 H 0.8567 0.1020 0.4249
C17 C 0.8949(6) 0.2307(10) 0.5555(4)
H12 H 0.9870 0.2310 0.5027
H13 H 0.9090 0.1400 0.6046
H14 H 0.8875 0.3189 0.5811
C18 C 0.7136(8) 0.3772(8) 0.4456(5)
H15 H 0.7081 0.4647 0.4716
H16 H 0.6129 0.3800 0.4254
H17 H 0.8034 0.3785 0.3915
C19 C 0.1214(5) 0.6436(4) 0.9862(3)
H18 H 0.2188 0.6755 0.9474
F1 F 0.2257(4) 0.5412(3) 0.81080(18)
F2 F 0.3328(3) 0.3820(4) 0.9293(2)
N1 N 0.0724(4) 0.5247(4) 0.9701(2)
N2 N 0.1051(3) 0.3097(3) 0.8856(2)
B1A B -0.1902(6) 0.5605(6) 1.1060(4)
C1A C 0.0437(4) 0.7248(4) 1.0543(3)
C2A C 0.0928(4) 0.8473(4) 1.0801(3)
C3A C 0.2295(5) 0.9278(5) 1.0441(3)
H1A H 0.3119 0.9035 0.9939
C4A C 0.2370(6) 1.0441(5) 1.0861(3)
H2A H 0.3273 1.0981 1.0642
C5A C 0.1138(6) 1.0834(5) 1.1604(3)
H3A H 0.1228 1.1638 1.1861
C6A C -0.0207(5) 1.0060(5) 1.1963(3)
H4A H -0.1033 1.0332 1.2456
C7A C -0.0296(4) 0.8846(4) 1.1564(3)
C8A C -0.1520(4) 0.7838(4) 1.1762(3)
C9A C -0.3027(4) 0.7808(4) 1.2506(3)
C10A C -0.4558(5) 0.7779(5) 1.2320(3)
H5A H -0.4649 0.7784 1.1702
C11A C -0.5945(5) 0.7744(5) 1.3043(3)
H6A H -0.6951 0.7716 1.2899
C12A C -0.5888(5) 0.7748(4) 1.3975(3)
C13A C -0.4349(5) 0.7817(5) 1.4140(3)
H7A H -0.4261 0.7847 1.4752
C14A C -0.2960(5) 0.7843(5) 1.3429(3)
H8A H -0.1957 0.7884 1.3572
C15A C -0.7390(5) 0.7657(5) 1.4791(3)
C16A C -0.7637(8) 0.9048(8) 1.5227(5)
H9A H -0.6675 0.9080 1.5456
H10A H -0.7826 0.9959 1.4747
H11A H -0.8567 0.8980 1.5751
C17A C -0.8949(6) 0.7693(10) 1.4445(4)
H12A H -0.9870 0.7690 1.4973
H13A H -0.9090 0.8600 1.3954
H14A H -0.8875 0.6811 1.4189
C18A C -0.7136(8) 0.6228(8) 1.5544(5)
H15A H -0.7081 0.5353 1.5284
H16A H -0.6129 0.6200 1.5746
H17A H -0.8034 0.6215 1.6085
C19A C -0.1214(5) 0.3564(4) 1.0138(3)
H18A H -0.2188 0.3245 1.0526
F1A F -0.2257(4) 0.4588(3) 1.18920(18)
F2A F -0.3328(3) 0.6180(4) 1.0707(2)
N1A N -0.0724(4) 0.4753(4) 1.0299(2)
N2A N -0.1051(3) 0.6903(3) 1.1144(2)
C20 C 0.4012(6) 0.3648(5) 0.2406(3)
H19 H 0.4772 0.4301 0.2460
Cl1 Cl 0.2024(6) 0.4191(7) 0.3002(4)
Cl2 Cl 0.3879(3) 0.3913(3) 0.11922(15)
Cl3 Cl 0.4671(6) 0.1793(4) 0.2828(4)
Cl4? Cl 0.2708(11) 0.3470(10) 0.3528(5)
Cl5? Cl 0.3051(9) 0.4692(8) 0.1589(5)
Cl6? Cl 0.5020(8) 0.1896(8) 0.2242(6)
loop_
_geom_bond_atom_site_label_1
_geom_bond_atom_site_label_2
_geom_bond_site_symmetry_1
_geom_bond_site_symmetry_2
B1 F1 1_555 1_555
C1 C2 1_555 1_555
C2 C3 1_555 1_555
C3 H1 1_555 1_555
C4 C3 1_555 1_555
H2 C4 1_555 1_555
C5 C4 1_555 1_555
H3 C5 1_555 1_555
C6 C5 1_555 1_555
H4 C6 1_555 1_555
C7 C2 1_555 1_555
C8 C7 1_555 1_555
C9 C8 1_555 1_555
C10 C9 1_555 1_555
H5 C10 1_555 1_555
C11 C10 1_555 1_555
H6 C11 1_555 1_555
C12 C11 1_555 1_555
C13 C12 1_555 1_555
H7 C13 1_555 1_555
C14 C9 1_555 1_555
H8 C14 1_555 1_555
C15 C12 1_555 1_555
C16 C15 1_555 1_555
H9 C16 1_555 1_555
H10 C16 1_555 1_555
H11 C16 1_555 1_555
C17 C15 1_555 1_555
H12 C17 1_555 1_555
H13 C17 1_555 1_555
H14 C17 1_555 1_555
C18 C15 1_555 1_555
H15 C18 1_555 1_555
H16 C18 1_555 1_555
H17 C18 1_555 1_555
C19 H18 1_555 1_555
F2 B1 1_555 1_555
N1 B1 1_555 1_555
N2 B1 1_555 1_555
C20 H19 1_555 1_555
Cl1 C20 1_555 1_555
Cl2 C20 1_555 1_555
Cl3 C20 1_555 1_555
B1A F1A 1_555 1_555
C1A C19 1_555 1_555
C2A C1A 1_555 1_555
C3A C2A 1_555 1_555
H1A C3A 1_555 1_555
C4A C3A 1_555 1_555
H2A C4A 1_555 1_555
C5A C4A 1_555 1_555
H3A C5A 1_555 1_555
C6A C5A 1_555 1_555
H4A C6A 1_555 1_555
C7A C2A 1_555 1_555
C8A C7A 1_555 1_555
C9A C8A 1_555 1_555
C10A C9A 1_555 1_555
H5A C10A 1_555 1_555
C11A C10A 1_555 1_555
H6A C11A 1_555 1_555
C12A C11A 1_555 1_555
C13A C12A 1_555 1_555
H7A C13A 1_555 1_555
C14A C9A 1_555 1_555
H8A C14A 1_555 1_555
C15A C12A 1_555 1_555
C16A C15A 1_555 1_555
H9A C16A 1_555 1_555
H10A C16A 1_555 1_555
H11A C16A 1_555 1_555
C17A C15A 1_555 1_555
H12A C17A 1_555 1_555
H13A C17A 1_555 1_555
H14A C17A 1_555 1_555
C18A C15A 1_555 1_555
H15A C18A 1_555 1_555
H16A C18A 1_555 1_555
H17A C18A 1_555 1_555
C19A C1 1_555 1_555
H18A C19A 1_555 1_555
F2A B1A 1_555 1_555
N1A N1 1_555 1_555
N2A B1A 1_555 1_555
C1 N2 1_555 1_555
C6 C7 1_555 1_555
C8 N2 1_555 1_555
C13 C14 1_555 1_555
C19 N1 1_555 1_555
B1A N1A 1_555 1_555
C1A N2A 1_555 1_555
C6A C7A 1_555 1_555
C8A N2A 1_555 1_555
C13A C14A 1_555 1_555
C19A N1A 1_555 1_555

#END
