
#######################################################################
#
#                 Cambridge Crystallographic Data Centre
#                                CCDC 
#
#######################################################################
#
# If this CIF has been generated from an entry in the Cambridge 
# Structural Database, then it will include bibliographic, chemical, 
# crystal, experimental, refinement or atomic coordinate data resulting 
# from the CCDC's data processing and validation procedures.
#
#######################################################################

data_ABUVAX
_chemical_formula_moiety         'C23 H18 O2 S1'
_chemical_name_systematic        
8-methyl-3-((4-methylphenyl)sulfanyl)-4-phenyl-2H-chromen-2-one
_symmetry_cell_setting           orthorhombic
_symmetry_space_group_name_H-M   'P 21 21 21'
_symmetry_Int_Tables_number      19
_space_group_name_Hall           'P 2ac 2ab'
loop_
_symmetry_equiv_pos_site_id
_symmetry_equiv_pos_as_xyz
1 x,y,z
2 1/2-x,-y,1/2+z
3 -x,1/2+y,1/2-z
4 1/2+x,1/2-y,-z
_cell_length_a                   9.4070(8)
_cell_length_b                   13.2405(11)
_cell_length_c                   15.2351(14)
_cell_angle_alpha                90
_cell_angle_beta                 90
_cell_angle_gamma                90
_cell_volume                     1897.58
_exptl_crystal_colour            yellow
_exptl_crystal_description       block
_cell_formula_units_Z            4
loop_
_atom_site_label
_atom_site_type_symbol
_atom_site_fract_x
_atom_site_fract_y
_atom_site_fract_z
C1 C 0.4136(3) 0.7366(2) 0.73557(18)
C2 C 0.5501(3) 0.7585(2) 0.7649(2)
C3 C 0.6272(4) 0.6899(3) 0.8264(2)
H1 H 0.5686 0.6767 0.8767
H2 H 0.7141 0.7213 0.8449
H3 H 0.6483 0.6275 0.7971
C4 C 0.6104(4) 0.8458(3) 0.7316(2)
H4 H 0.7009 0.8641 0.7503
C5 C 0.5418(4) 0.9065(3) 0.6720(3)
H5 H 0.5860 0.9647 0.6515
C6 C 0.4085(3) 0.8817(2) 0.6426(2)
H6 H 0.3628 0.9224 0.6016
C7 C 0.3414(3) 0.79456(19) 0.67452(18)
C8 C 0.2007(3) 0.76237(19) 0.64656(18)
C9 C 0.1422(3) 0.67933(19) 0.68322(17)
C10 C 0.2173(3) 0.6207(2) 0.74994(19)
C11 C 0.1256(3) 0.82256(18) 0.57827(17)
C12 C 0.1725(3) 0.8199(2) 0.4922(2)
H7 H 0.2494 0.7794 0.4769
C13 C 0.1056(4) 0.8771(3) 0.4292(2)
H8 H 0.1376 0.8754 0.3714
C14 C -0.0085(4) 0.9369(2) 0.4513(2)
H9 H -0.0539 0.9752 0.4085
C15 C -0.0551(4) 0.9399(2) 0.5359(2)
H10 H -0.1323 0.9803 0.5507
C16 C 0.0113(3) 0.8836(2) 0.59973(19)
H11 H -0.0206 0.8865 0.6574
C17 C -0.0081(3) 0.5144(2) 0.6238(2)
C18 C -0.1012(4) 0.4411(3) 0.6525(3)
H12 H -0.1726 0.4572 0.6924
C19 C -0.0876(5) 0.3436(3) 0.6215(3)
H13 H -0.1533 0.2953 0.6394
C20 C 0.0191(5) 0.3155(3) 0.5655(3)
C21 C 0.0347(6) 0.2074(3) 0.5349(3)
H14 H -0.0458 0.1892 0.4996
H15 H 0.0398 0.1635 0.5850
H16 H 0.1200 0.2008 0.5008
C22 C 0.1098(4) 0.3904(3) 0.5372(3)
H17 H 0.1825 0.3745 0.4983
C23 C 0.0943(4) 0.4893(3) 0.5660(3)
H18 H 0.1555 0.5390 0.5451
O1 O 0.35265(19) 0.65082(14) 0.77031(13)
O2 O 0.1725(2) 0.54870(17) 0.78874(16)
S1 S -0.03328(7) 0.64092(6) 0.65953(6)
loop_
_geom_bond_atom_site_label_1
_geom_bond_atom_site_label_2
_geom_bond_site_symmetry_1
_geom_bond_site_symmetry_2
C1 C2 1_555 1_555
C2 C3 1_555 1_555
C3 H1 1_555 1_555
H2 C3 1_555 1_555
H3 C3 1_555 1_555
C4 C2 1_555 1_555
H4 C4 1_555 1_555
C5 C4 1_555 1_555
H5 C5 1_555 1_555
C6 C5 1_555 1_555
H6 C6 1_555 1_555
C7 C1 1_555 1_555
C8 C7 1_555 1_555
C9 C8 1_555 1_555
C10 C9 1_555 1_555
C11 C8 1_555 1_555
C12 C11 1_555 1_555
H7 C12 1_555 1_555
C13 C12 1_555 1_555
H8 C13 1_555 1_555
C14 C13 1_555 1_555
H9 C14 1_555 1_555
C15 C14 1_555 1_555
H10 C15 1_555 1_555
C16 C11 1_555 1_555
H11 C16 1_555 1_555
C17 C18 1_555 1_555
C18 H12 1_555 1_555
C19 C18 1_555 1_555
H13 C19 1_555 1_555
C20 C19 1_555 1_555
C21 C20 1_555 1_555
H14 C21 1_555 1_555
H15 C21 1_555 1_555
H16 C21 1_555 1_555
C22 C20 1_555 1_555
H17 C22 1_555 1_555
C23 C17 1_555 1_555
H18 C23 1_555 1_555
O1 C1 1_555 1_555
O2 C10 1_555 1_555
S1 C9 1_555 1_555
C6 C7 1_555 1_555
C10 O1 1_555 1_555
C15 C16 1_555 1_555
C17 S1 1_555 1_555
C22 C23 1_555 1_555

#END
