
#######################################################################
#
#                 Cambridge Crystallographic Data Centre
#                                CCDC 
#
#######################################################################
#
# If this CIF has been generated from an entry in the Cambridge 
# Structural Database, then it will include bibliographic, chemical, 
# crystal, experimental, refinement or atomic coordinate data resulting 
# from the CCDC's data processing and validation procedures.
#
#######################################################################

data_ABUVAW
_chemical_formula_moiety         'C22 H11 Cl1 N2 O4'
_chemical_name_systematic        
'Methyl 13-chloro-7,12-dioxo-7,12-dihydronaphtho[2,3-b]phenazine-6-carboxylate'
_symmetry_cell_setting           monoclinic
_symmetry_space_group_name_H-M   'P 21/c'
_symmetry_Int_Tables_number      14
_space_group_name_Hall           '-P 2ybc'
loop_
_symmetry_equiv_pos_site_id
_symmetry_equiv_pos_as_xyz
1 x,y,z
2 -x,1/2+y,1/2-z
3 -x,-y,-z
4 x,1/2-y,1/2+z
_cell_length_a                   18.4007(12)
_cell_length_b                   5.1306(3)
_cell_length_c                   17.9799(12)
_cell_angle_alpha                90
_cell_angle_beta                 92.708(6)
_cell_angle_gamma                90
_cell_volume                     1695.53
_cell_formula_units_Z            4
loop_
_atom_site_label
_atom_site_type_symbol
_atom_site_fract_x
_atom_site_fract_y
_atom_site_fract_z
Cl1 Cl 0.42032(5) 0.3967(2) 0.04754(5)
O1 O 0.33196(17) 0.0099(7) 0.10139(17)
O2 O 0.09292(12) 0.2213(5) -0.06976(13)
O3 O 0.14865(14) 0.3878(5) -0.21786(13)
O4 O 0.11612(12) 0.7177(4) -0.14441(12)
N1 N 0.40226(14) 0.7626(5) -0.07055(14)
N2 N 0.27870(14) 0.8167(5) -0.17006(13)
C1 C 0.34184(16) 0.4199(6) -0.00685(16)
C2 C 0.28143(16) 0.2662(6) 0.00158(16)
C3 C 0.27959(19) 0.0603(6) 0.06093(17)
C4 C 0.21135(18) -0.0905(6) 0.06823(16)
C5 C 0.2097(2) -0.2833(7) 0.12307(19)
H1 H 0.2505 -0.3117 0.1546
C6 C 0.1480(2) -0.4316(8) 0.1307(2)
H2 H 0.1474 -0.5610 0.1668
C7 C 0.0869(2) -0.3880(8) 0.0845(2)
H3 H 0.0456 -0.4894 0.0897
C8 C 0.0866(2) -0.1958(7) 0.0309(2)
H4 H 0.0451 -0.1654 0.0006
C9 C 0.14964(17) -0.0463(6) 0.02227(17)
C10 C 0.14859(17) 0.1613(6) -0.03503(16)
C11 C 0.21801(16) 0.3042(6) -0.04767(15)
C12 C 0.21889(15) 0.4796(6) -0.10510(15)
C13 C 0.28071(16) 0.6394(6) -0.11469(15)
C14 C 0.33794(17) 0.9680(6) -0.17560(16)
C15 C 0.33865(19) 1.1631(7) -0.23182(17)
H5 H 0.2983 1.1868 -0.2643
C16 C 0.3989(2) 1.3151(7) -0.23769(18)
H6 H 0.3997 1.4405 -0.2750
C17 C 0.46051(19) 1.2854(7) -0.18790(19)
H7 H 0.5008 1.3924 -0.1930
C18 C 0.46169(18) 1.1052(7) -0.13347(19)
H8 H 0.5025 1.0886 -0.1013
C19 C 0.40036(16) 0.9395(6) -0.12500(17)
C20 C 0.34301(15) 0.6137(6) -0.06475(16)
C21 C 0.15627(17) 0.5165(6) -0.16274(16)
C22 C 0.0568(2) 0.7859(9) -0.1954(2)
H9 H 0.0316 0.9341 -0.1766
H10 H 0.0238 0.6414 -0.2007
H11 H 0.0753 0.8278 -0.2430
loop_
_geom_bond_atom_site_label_1
_geom_bond_atom_site_label_2
_geom_bond_site_symmetry_1
_geom_bond_site_symmetry_2
Cl1 C1 1_555 1_555
O1 C3 1_555 1_555
O2 C10 1_555 1_555
O3 C21 1_555 1_555
O4 C21 1_555 1_555
N1 C19 1_555 1_555
N2 C13 1_555 1_555
C1 C2 1_555 1_555
C2 C3 1_555 1_555
C3 C4 1_555 1_555
C4 C5 1_555 1_555
C5 H1 1_555 1_555
C6 C5 1_555 1_555
H2 C6 1_555 1_555
C7 C6 1_555 1_555
H3 C7 1_555 1_555
C8 C7 1_555 1_555
H4 C8 1_555 1_555
C9 C4 1_555 1_555
C10 C9 1_555 1_555
C11 C2 1_555 1_555
C12 C11 1_555 1_555
C13 C12 1_555 1_555
C14 N2 1_555 1_555
C15 C14 1_555 1_555
H5 C15 1_555 1_555
C16 C15 1_555 1_555
H6 C16 1_555 1_555
C17 C16 1_555 1_555
H7 C17 1_555 1_555
C18 C17 1_555 1_555
H8 C18 1_555 1_555
C19 C14 1_555 1_555
C20 N1 1_555 1_555
C21 C12 1_555 1_555
C22 O4 1_555 1_555
H9 C22 1_555 1_555
H10 C22 1_555 1_555
H11 C22 1_555 1_555
C1 C20 1_555 1_555
C8 C9 1_555 1_555
C10 C11 1_555 1_555
C13 C20 1_555 1_555
C18 C19 1_555 1_555

#END
