
#######################################################################
#
#                 Cambridge Crystallographic Data Centre
#                                CCDC 
#
#######################################################################
#
# If this CIF has been generated from an entry in the Cambridge 
# Structural Database, then it will include bibliographic, chemical, 
# crystal, experimental, refinement or atomic coordinate data resulting 
# from the CCDC's data processing and validation procedures.
#
#######################################################################

data_ACAKIY
_chemical_formula_moiety         'C18 H21 N1 O1'
_chemical_name_systematic        'N-o-tolyl 4-t-butylbenzamide'
_symmetry_cell_setting           triclinic
_symmetry_space_group_name_H-M   'P -1'
_symmetry_Int_Tables_number      2
_space_group_name_Hall           '-P 1'
loop_
_symmetry_equiv_pos_site_id
_symmetry_equiv_pos_as_xyz
1 x,y,z
2 -x,-y,-z
_cell_length_a                   10.094(4)
_cell_length_b                   15.829(10)
_cell_length_c                   10.054(6)
_cell_angle_alpha                93.932(7)
_cell_angle_beta                 91.00(5)
_cell_angle_gamma                89.18(2)
_cell_volume                     1602.24
_cell_formula_units_Z            4
loop_
_atom_site_label
_atom_site_type_symbol
_atom_site_fract_x
_atom_site_fract_y
_atom_site_fract_z
O1 O -0.2964(6) -0.0016(4) 0.1609(8)
N1 N -0.0794(6) 0.0290(5) 0.2039(8)
H1 H -0.0002(6) 0.0087(5) 0.2095(8)
C1 C -0.0988(9) 0.1189(7) 0.2130(12)
C2 C -0.1632(10) 0.1617(8) 0.3186(12)
C3 C -0.1667(11) 0.2491(8) 0.3217(17)
H3 H -0.2074(11) 0.2785(8) 0.3935(17)
C4 C -0.1134(14) 0.2952(11) 0.2251(20)
H4 H -0.1215(14) 0.3539(11) 0.2279(20)
C5 C -0.0490(13) 0.2511(10) 0.1261(18)
H5 H -0.0091(13) 0.2804(10) 0.0608(18)
C6 C -0.0403(9) 0.1633(8) 0.1185(11)
H6 H 0.0053(9) 0.1347(8) 0.0492(11)
C7 C -0.2197(10) 0.1125(6) 0.4251(10)
H7 H -0.2065(10) 0.0530(6) 0.4030(10)
H8 H -0.3128(10) 0.1248(6) 0.4323(10)
H9 H -0.1761(10) 0.1280(6) 0.5087(10)
C8 C -0.1827(11) -0.0253(7) 0.1866(11)
C9 C -0.1518(9) -0.1178(7) 0.1987(13)
C10 C -0.0496(11) -0.1427(7) 0.2796(13)
H10 H 0.0058(11) -0.1015(7) 0.3195(13)
C11 C -0.0258(9) -0.2262(8) 0.3039(13)
H11 H 0.0464(9) -0.2399(8) 0.3572(13)
C12 C -0.1066(11) -0.2897(8) 0.2509(13)
C13 C -0.2079(11) -0.2643(7) 0.1665(12)
H12 H -0.2620(11) -0.3053(7) 0.1241(12)
C14 C -0.2309(9) -0.1800(7) 0.1437(11)
H13 H -0.3021(9) -0.1657(7) 0.0895(11)
C15 C -0.0969(14) -0.3834(8) 0.2726(16)
C16 C 0.0070(15) -0.3997(7) 0.3783(15)
H14 H 0.0891(15) -0.3748(7) 0.3556(15)
H15 H 0.0196(15) -0.4596(7) 0.3834(15)
H16 H -0.0216(15) -0.3749(7) 0.4630(15)
C17 C -0.0380(14) -0.4300(6) 0.1537(13)
H17 H 0.0426(14) -0.4031(6) 0.1314(13)
H18 H -0.0994(14) -0.4294(6) 0.0798(13)
H19 H -0.0190(14) -0.4875(6) 0.1733(13)
C18 C -0.2175(11) -0.4216(7) 0.3113(18)
H20 H -0.2520(11) -0.3905(7) 0.3886(18)
H21 H -0.1996(11) -0.4791(7) 0.3315(18)
H22 H -0.2814(11) -0.4208(7) 0.2395(18)
O2 O 0.1997(6) -0.0050(4) 0.2407(8)
N2 N 0.4172(6) -0.0383(5) 0.2143(8)
H2 H 0.4945(6) -0.0187(5) 0.2009(8)
C19 C 0.4049(10) -0.1281(7) 0.2266(14)
C20 C 0.4755(10) -0.1663(8) 0.3216(13)
C21 C 0.4607(12) -0.2541(9) 0.3314(15)
H23 H 0.5088(12) -0.2822(9) 0.3951(15)
C22 C 0.3762(15) -0.2969(9) 0.2475(18)
H24 H 0.3652(15) -0.3546(9) 0.2550(18)
C23 C 0.3070(12) -0.2579(10) 0.1527(17)
H25 H 0.2501(12) -0.2895(10) 0.0959(17)
C24 C 0.3186(10) -0.1718(8) 0.1381(13)
H26 H 0.2713(10) -0.1448(8) 0.0727(13)
C25 C 0.5649(9) -0.1176(6) 0.4211(10)
H27 H 0.6062(9) -0.1560(6) 0.4795(10)
H28 H 0.5133(9) -0.0762(6) 0.4725(10)
H29 H 0.6319(9) -0.0897(6) 0.3744(10)
C26 C 0.3111(11) 0.0175(7) 0.2230(10)
C27 C 0.3478(9) 0.1088(6) 0.2178(10)
C28 C 0.4611(8) 0.1405(6) 0.1653(10)
H30 H 0.5241(8) 0.1028(6) 0.1282(10)
C29 C 0.4833(9) 0.2256(6) 0.1664(11)
H31 H 0.5602(9) 0.2434(6) 0.1278(11)
C30 C 0.3963(10) 0.2874(7) 0.2227(11)
C31 C 0.2836(10) 0.2552(7) 0.2745(11)
H32 H 0.2199(10) 0.2929(7) 0.3097(11)
C32 C 0.2609(8) 0.1696(6) 0.2765(10)
H33 H 0.1858(8) 0.1517(6) 0.3182(10)
C33 C 0.4233(12) 0.3827(7) 0.2238(15)
C34 C 0.4864(13) 0.4084(6) 0.3540(12)
H34 H 0.4287(13) 0.3953(6) 0.4245(12)
H35 H 0.5023(13) 0.4681(6) 0.3591(12)
H36 H 0.5689(13) 0.3783(6) 0.3628(12)
C35 C 0.5151(12) 0.4038(6) 0.1151(13)
H37 H 0.4755(12) 0.3875(6) 0.0299(13)
H38 H 0.5977(12) 0.3738(6) 0.1248(13)
H39 H 0.5308(12) 0.4637(6) 0.1213(13)
C36 C 0.2926(9) 0.4319(6) 0.2047(15)
H40 H 0.2532(9) 0.4142(6) 0.1200(15)
H41 H 0.3101(9) 0.4915(6) 0.2077(15)
H42 H 0.2330(9) 0.4207(6) 0.2746(15)
loop_
_geom_bond_atom_site_label_1
_geom_bond_atom_site_label_2
_geom_bond_site_symmetry_1
_geom_bond_site_symmetry_2
O1 C8 1_555 1_555
O2 C26 1_555 1_555
N1 H1 1_555 1_555
N2 H2 1_555 1_555
C1 N1 1_555 1_555
C2 C1 1_555 1_555
C3 C2 1_555 1_555
H3 C3 1_555 1_555
C4 C3 1_555 1_555
H4 C4 1_555 1_555
C5 C4 1_555 1_555
H5 C5 1_555 1_555
C6 C1 1_555 1_555
H6 C6 1_555 1_555
C7 C2 1_555 1_555
H7 C7 1_555 1_555
H8 C7 1_555 1_555
H9 C7 1_555 1_555
C8 N1 1_555 1_555
C9 C8 1_555 1_555
C10 C9 1_555 1_555
H10 C10 1_555 1_555
C11 C10 1_555 1_555
H11 C11 1_555 1_555
C12 C11 1_555 1_555
C13 C12 1_555 1_555
H12 C13 1_555 1_555
C14 C9 1_555 1_555
H13 C14 1_555 1_555
C15 C12 1_555 1_555
C16 C15 1_555 1_555
H14 C16 1_555 1_555
H15 C16 1_555 1_555
H16 C16 1_555 1_555
C17 C15 1_555 1_555
H17 C17 1_555 1_555
H18 C17 1_555 1_555
H19 C17 1_555 1_555
C18 C15 1_555 1_555
H20 C18 1_555 1_555
H21 C18 1_555 1_555
H22 C18 1_555 1_555
C19 N2 1_555 1_555
C20 C19 1_555 1_555
C21 C20 1_555 1_555
H23 C21 1_555 1_555
C22 C21 1_555 1_555
H24 C22 1_555 1_555
C23 C22 1_555 1_555
H25 C23 1_555 1_555
C24 C19 1_555 1_555
H26 C24 1_555 1_555
C25 C20 1_555 1_555
H27 C25 1_555 1_555
H28 C25 1_555 1_555
H29 C25 1_555 1_555
C26 N2 1_555 1_555
C27 C26 1_555 1_555
C28 C27 1_555 1_555
H30 C28 1_555 1_555
C29 C28 1_555 1_555
H31 C29 1_555 1_555
C30 C29 1_555 1_555
C31 C30 1_555 1_555
H32 C31 1_555 1_555
C32 C27 1_555 1_555
H33 C32 1_555 1_555
C33 C30 1_555 1_555
C34 C33 1_555 1_555
H34 C34 1_555 1_555
H35 C34 1_555 1_555
H36 C34 1_555 1_555
C35 C33 1_555 1_555
H37 C35 1_555 1_555
H38 C35 1_555 1_555
H39 C35 1_555 1_555
C36 C33 1_555 1_555
H40 C36 1_555 1_555
H41 C36 1_555 1_555
H42 C36 1_555 1_555
C5 C6 1_555 1_555
C13 C14 1_555 1_555
C23 C24 1_555 1_555
C31 C32 1_555 1_555

#END
