
#######################################################################
#
#                 Cambridge Crystallographic Data Centre
#                                CCDC 
#
#######################################################################
#
# If this CIF has been generated from an entry in the Cambridge 
# Structural Database, then it will include bibliographic, chemical, 
# crystal, experimental, refinement or atomic coordinate data resulting 
# from the CCDC's data processing and validation procedures.
#
#######################################################################

data_ACAKEU
_chemical_formula_moiety         'C17 H19 N1 O1'
_chemical_name_systematic        'N-phenyl 4-t-butylbenzamide'
_symmetry_cell_setting           orthorhombic
_symmetry_space_group_name_H-M   'P b c a'
_symmetry_Int_Tables_number      61
_space_group_name_Hall           '-P 2ac 2ab'
loop_
_symmetry_equiv_pos_site_id
_symmetry_equiv_pos_as_xyz
1 x,y,z
2 1/2-x,1/2+y,z
3 x,1/2-y,1/2+z
4 1/2+x,y,1/2-z
5 -x,-y,-z
6 1/2+x,1/2-y,-z
7 -x,1/2+y,1/2-z
8 1/2-x,-y,1/2+z
_cell_length_a                   12.6531(11)
_cell_length_b                   9.2906(15)
_cell_length_c                   25.595(3)
_cell_angle_alpha                90
_cell_angle_beta                 90
_cell_angle_gamma                90
_cell_volume                     3008.82
_cell_formula_units_Z            8
loop_
_atom_site_label
_atom_site_type_symbol
_atom_site_fract_x
_atom_site_fract_y
_atom_site_fract_z
O1 O 0.1699(2) 0.0447(3) 0.64003(11)
N1 N 0.2647(3) 0.2443(3) 0.65880(13)
H1 H 0.2752(3) 0.3316(3) 0.64895(13)
C1 C 0.0966(4) 0.3775(5) 0.4188(2)
C2 C 0.1515(6) 0.5159(7) 0.4044(2)
H2 H 0.1237(30) 0.5510(31) 0.3719(11)
H3 H 0.2260(8) 0.4986(13) 0.4008(20)
H4 H 0.1399(34) 0.5861(18) 0.4313(10)
C3 C 0.1212(6) 0.2672(7) 0.3791(2)
H5 H 0.1003(39) 0.3013(24) 0.3453(3)
H6 H 0.0835(31) 0.1802(20) 0.3871(12)
H7 H 0.1958(8) 0.2482(40) 0.3792(14)
C4 C -0.0209(5) 0.4110(6) 0.4149(2)
H8 H -0.0357(6) 0.4535(34) 0.3815(6)
H9 H -0.0404(7) 0.4768(29) 0.4421(8)
H10 H -0.0607(5) 0.3236(8) 0.4185(14)
C5 C 0.1243(3) 0.3245(4) 0.4732(2)
C6 C 0.2113(4) 0.3763(4) 0.5003(2)
H11 H 0.2538(4) 0.4454(4) 0.4845(2)
C7 C 0.2372(3) 0.3293(4) 0.5499(2)
H12 H 0.2957(3) 0.3685(4) 0.5667(2)
C8 C 0.1779(4) 0.2253(4) 0.5750(2)
C9 C 0.0915(4) 0.1704(4) 0.5479(2)
H13 H 0.0500(4) 0.0994(4) 0.5634(2)
C10 C 0.0661(4) 0.2195(4) 0.4985(2)
H14 H 0.0076(4) 0.1805(4) 0.4816(2)
C11 C 0.2027(3) 0.1652(5) 0.6271(2)
C12 C 0.3151(4) 0.2040(4) 0.7063(2)
C13 C 0.4003(4) 0.2825(5) 0.7228(2)
H15 H 0.4221(4) 0.3616(5) 0.7033(2)
C14 C 0.4546(4) 0.2470(6) 0.7678(2)
H16 H 0.5124(4) 0.3019(6) 0.7781(2)
C15 C 0.4241(5) 0.1320(7) 0.7971(2)
H17 H 0.4607(5) 0.1069(7) 0.8273(2)
C16 C 0.3382(5) 0.0544(6) 0.7810(2)
H18 H 0.3167(5) -0.0244(6) 0.8007(2)
C17 C 0.2821(4) 0.0892(5) 0.7363(2)
H19 H 0.2230(4) 0.0359(5) 0.7267(2)
loop_
_geom_bond_atom_site_label_1
_geom_bond_atom_site_label_2
_geom_bond_site_symmetry_1
_geom_bond_site_symmetry_2
O1 C11 1_555 1_555
N1 H1 1_555 1_555
C1 C2 1_555 1_555
C2 H2 1_555 1_555
H3 C2 1_555 1_555
H4 C2 1_555 1_555
C3 C1 1_555 1_555
H5 C3 1_555 1_555
H6 C3 1_555 1_555
H7 C3 1_555 1_555
C4 C1 1_555 1_555
H8 C4 1_555 1_555
H9 C4 1_555 1_555
H10 C4 1_555 1_555
C5 C1 1_555 1_555
C6 C5 1_555 1_555
H11 C6 1_555 1_555
C7 C6 1_555 1_555
H12 C7 1_555 1_555
C8 C7 1_555 1_555
C9 C8 1_555 1_555
H13 C9 1_555 1_555
C10 C5 1_555 1_555
H14 C10 1_555 1_555
C11 N1 1_555 1_555
C12 N1 1_555 1_555
C13 C12 1_555 1_555
H15 C13 1_555 1_555
C14 C13 1_555 1_555
H16 C14 1_555 1_555
C15 C14 1_555 1_555
H17 C15 1_555 1_555
C16 C15 1_555 1_555
H18 C16 1_555 1_555
C17 C12 1_555 1_555
H19 C17 1_555 1_555
C8 C11 1_555 1_555
C9 C10 1_555 1_555
C16 C17 1_555 1_555

#END
