
#######################################################################
#
#                 Cambridge Crystallographic Data Centre
#                                CCDC 
#
#######################################################################
#
# If this CIF has been generated from an entry in the Cambridge 
# Structural Database, then it will include bibliographic, chemical, 
# crystal, experimental, refinement or atomic coordinate data resulting 
# from the CCDC's data processing and validation procedures.
#
#######################################################################

data_ACAMUP
_chemical_formula_moiety         'C28 H22 O2'
_chemical_name_systematic        
3-{2-[(4-ethenylphenyl)methoxy]naphthalen-1-yl}-1-phenylprop-2-en-1-one
_symmetry_cell_setting           orthorhombic
_symmetry_space_group_name_H-M   'P c a 21'
_symmetry_Int_Tables_number      29
_space_group_name_Hall           'P 2c -2ac'
loop_
_symmetry_equiv_pos_site_id
_symmetry_equiv_pos_as_xyz
1 x,y,z
2 -x,-y,1/2+z
3 1/2-x,y,1/2+z
4 1/2+x,-y,z
_cell_length_a                   18.544(2)
_cell_length_b                   15.174(2)
_cell_length_c                   28.663(3)
_cell_angle_alpha                90
_cell_angle_beta                 90
_cell_angle_gamma                90
_cell_volume                     8065.39
_exptl_crystal_colour            yellow
_exptl_crystal_description       prism
_cell_formula_units_Z            16
loop_
_atom_site_label
_atom_site_type_symbol
_atom_site_fract_x
_atom_site_fract_y
_atom_site_fract_z
O1 O 0.2387(6) 0.3187(7) -0.7269(4)
C1 C 0.1694(4) 0.1593(5) -0.8734(4)
C2 C 0.1453(5) 0.1474(6) -0.8279(4)
C3 C 0.0925(5) 0.0849(6) -0.8184(3)
C4 C 0.0638(4) 0.0343(5) -0.8543(4)
H1 H 0.0285 -0.0075 -0.8479
C5 C 0.0879(5) 0.0462(6) -0.8998(4)
H2 H 0.0688 0.0124 -0.9238
C6 C 0.1407(5) 0.1087(6) -0.9093(3)
C7 C 0.2192(4) 0.1862(5) -0.9677(5)
H3 H 0.2368 0.1939 -0.9978
C8 C 0.2225(9) 0.2243(10) -0.8871(6)
H4 H 0.2427 0.2611 -0.8647
O2 O 0.0715(5) 0.0716(6) -0.7741(4)
C9 C 0.1599(4) 0.1188(5) -0.9558(5)
H5 H 0.1376 0.0859 -0.9791
C10 C 0.0174(5) -0.0452(6) -0.5327(3)
H6 H 0.0507 -0.0831 -0.5463
H7 H 0.0109 -0.0456 -0.5005
C11 C -0.0211(5) 0.0099(5) -0.5593(3)
H8 H -0.0551 0.0492 -0.5476
C12 C 0.1467(9) 0.2538(12) -0.5664(6)
H9 H 0.1376 0.2510 -0.5346
C13 C 0.1037(10) 0.2103(10) -0.5974(6)
H10 H 0.0649 0.1773 -0.5866
C14 C 0.1170(8) 0.2146(9) -0.6440(5)
H11 H 0.0866 0.1847 -0.6643
C15 C 0.1743(8) 0.2619(9) -0.6623(5)
C16 C 0.2020(9) 0.3005(11) -0.5830(6)
H12 H 0.2316 0.3297 -0.5618
C17 C 0.1929(9) 0.2702(11) -0.7112(6)
C18 C 0.1552(8) 0.2122(9) -0.7455(5)
H13 H 0.1153 0.1805 -0.7353
C19 C 0.1750(8) 0.2034(9) -0.7889(5)
H14 H 0.2144 0.2377 -0.7973
C20 C 0.2430(10) 0.2321(10) -0.9316(6)
H15 H 0.2778 0.2746 -0.9379
C21 C 0.2177(8) 0.3077(9) -0.6305(5)
H16 H 0.2561 0.3420 -0.6408
C22 C 0.0624(8) -0.0433(10) -0.6827(6)
H17 H 0.1008 -0.0731 -0.6964
C23 C 0.0558(9) -0.0442(10) -0.6358(6)
H18 H 0.0894 -0.0745 -0.6178
C24 C -0.0022(9) 0.0007(10) -0.6138(6)
C25 C -0.0502(8) 0.0452(10) -0.6426(6)
H19 H -0.0883 0.0765 -0.6295
C26 C -0.0418(8) 0.0434(10) -0.6907(6)
H20 H -0.0751 0.0723 -0.7095
C27 C 0.0145(7) 0.0001(8) -0.7107(5)
C28 C 0.0240(8) 0.0017(9) -0.7621(6)
H21 H 0.0439 -0.0540 -0.7726
H22 H -0.0223 0.0102 -0.7772
O3 O 0.4471(5) 0.4212(6) -0.2373(4)
O4 O 0.6225(7) 0.1812(7) -0.2861(4)
C29 C 0.5728(7) 0.2285(9) -0.2969(5)
C30 C 0.5342(8) 0.2862(9) -0.2661(5)
H23 H 0.4946 0.3174 -0.2774
C31 C 0.5542(8) 0.2962(9) -0.2212(5)
H24 H 0.5948 0.2641 -0.2126
C32 C 0.6265(9) 0.2681(12) -0.0802(5)
H25 H 0.6617 0.2267 -0.0729
C33 C 0.6033(8) 0.2772(10) -0.1257(5)
H26 H 0.6248 0.2440 -0.1491
C34 C 0.5484(7) 0.3351(9) -0.1367(5)
C35 C 0.5236(7) 0.3477(8) -0.1850(5)
C36 C 0.4698(7) 0.4103(8) -0.1919(5)
C37 C 0.4394(7) 0.4591(9) -0.1548(5)
H27 H 0.4024 0.4990 -0.1606
C38 C 0.3336(8) 0.4529(8) -0.3702(5)
H28 H 0.2951 0.4254 -0.3850
C39 C 0.3374(7) 0.4507(8) -0.3231(5)
H29 H 0.3022 0.4207 -0.3062
C40 C 0.3932(7) 0.4925(9) -0.2996(5)
C41 C 0.4002(7) 0.4934(9) -0.2477(5)
H30 H 0.4209 0.5486 -0.2371
H31 H 0.3536 0.4854 -0.2329
C42 C 0.4962(7) 0.2799(9) -0.3664(5)
H32 H 0.4675 0.3111 -0.3455
C43 C 0.4797(8) 0.2813(9) -0.4142(5)
H33 H 0.4404 0.3127 -0.4256
C44 C 0.5244(9) 0.2340(10) -0.4440(6)
H34 H 0.5143 0.2336 -0.4758
C45 C 0.5834(8) 0.1873(11) -0.4278(6)
H35 H 0.6134 0.1571 -0.4482
C46 C 0.5963(9) 0.1869(11) -0.3806(6)
H36 H 0.6349 0.1542 -0.3693
C47 C 0.5555(7) 0.2319(8) -0.3500(5)
C48 C 0.3303(4) 0.4599(7) -0.4755(2)
H37 H 0.2926 0.4275 -0.4627
H38 H 0.3338 0.4667 -0.5076
C49 C 0.3798(4) 0.4967(6) -0.4475(2)
H39 H 0.4159 0.5280 -0.4626
C50 C 0.4438(8) 0.5376(9) -0.3271(6)
H40 H 0.4810 0.5686 -0.3128
C51 C 0.4391(8) 0.5366(10) -0.3750(5)
H41 H 0.4740 0.5655 -0.3926
C52 C 0.3850(8) 0.4946(9) -0.3968(5)
C53 C 0.5202(7) 0.3877(9) -0.1005(5)
C54 C 0.5465(8) 0.3780(10) -0.0543(5)
H42 H 0.5274 0.4123 -0.0304
C55 C 0.5973(8) 0.3210(11) -0.0453(5)
H43 H 0.6143 0.3155 -0.0149
C56 C 0.4634(8) 0.4481(9) -0.1120(5)
H44 H 0.4426 0.4810 -0.0881
O5 O 0.2080(5) 0.5631(6) -0.2386(4)
O6 O 0.3631(7) 0.8320(8) -0.2840(4)
C57 C 0.3598(10) 0.6706(12) -0.0486(6)
H45 H 0.3767 0.6759 -0.0182
C58 C 0.2845(7) 0.6393(8) -0.1876(5)
C59 C 0.3112(8) 0.6537(9) -0.1409(5)
C60 C 0.3688(8) 0.7104(10) -0.1302(6)
H46 H 0.3912 0.7412 -0.1542
C61 C 0.3933(9) 0.7218(10) -0.0850(6)
H47 H 0.4302 0.7612 -0.0783
C62 C 0.3062(9) 0.6169(11) -0.0572(6)
H48 H 0.2846 0.5864 -0.0328
C63 C 0.2813(8) 0.6049(10) -0.1025(5)
C64 C 0.2268(9) 0.5444(9) -0.1132(5)
H49 H 0.2068 0.5126 -0.0887
C65 C 0.2019(8) 0.5293(9) -0.1553(5)
H50 H 0.1657 0.4877 -0.1599
C66 C 0.2311(8) 0.5779(9) -0.1942(5)
C67 C 0.2993(8) 0.8546(11) -0.4210(6)
H51 H 0.3028 0.9082 -0.4366
C68 C 0.2797(8) 0.7789(12) -0.4448(6)
H52 H 0.2698 0.7822 -0.4766
C69 C 0.2746(10) 0.6987(10) -0.4224(6)
H53 H 0.2624 0.6477 -0.4385
C70 C 0.2881(8) 0.6970(10) -0.3758(6)
H54 H 0.2843 0.6438 -0.3599
C71 C 0.1560(8) 0.4960(10) -0.2472(5)
H55 H 0.1101 0.5123 -0.2334
H56 H 0.1717 0.4409 -0.2334
C72 C 0.1430(8) 0.5579(10) -0.3274(6)
H57 H 0.1464 0.6136 -0.3140
C73 C 0.1329(9) 0.5508(11) -0.3745(6)
H58 H 0.1279 0.6018 -0.3922
C74 C 0.1298(8) 0.4726(14) -0.3959(6)
C75 C 0.1342(7) 0.3957(11) -0.3679(6)
H59 H 0.1298 0.3401 -0.3812
C76 C 0.1453(7) 0.4051(10) -0.3193(5)
H60 H 0.1507 0.3552 -0.3008
C77 C 0.1190(8) 0.4800(4) -0.4473(2)
H61 H 0.1229 0.5351 -0.4613
C78 C 0.1037(10) 0.4099(4) -0.4739(3)
H62 H 0.0996 0.3544 -0.4604
H63 H 0.0972 0.4168 -0.5059
C79 C 0.1481(7) 0.4858(9) -0.2996(5)
C80 C 0.3130(7) 0.8495(11) -0.3754(5)
H64 H 0.3269 0.9004 -0.3597
C81 C 0.3077(7) 0.7728(10) -0.3509(5)
C82 C 0.3241(9) 0.7697(10) -0.2987(5)
C83 C 0.2965(8) 0.7012(10) -0.2704(5)
H65 H 0.2669 0.6587 -0.2839
C84 C 0.3115(8) 0.6956(9) -0.2248(5)
H66 H 0.3462 0.7358 -0.2149
O7 O 0.3304(5) 0.0665(6) -0.7710(4)
O8 O 0.4812(7) 0.3314(8) -0.7266(4)
C85 C 0.4824(9) 0.1860(11) -0.9595(6)
H67 H 0.4967 0.1982 -0.9899
C86 C 0.4348(7) 0.1570(9) -0.8685(5)
C87 C 0.4062(7) 0.1454(9) -0.8212(5)
C88 C 0.3523(7) 0.0811(8) -0.8154(5)
C89 C 0.3242(7) 0.0338(9) -0.8526(5)
H68 H 0.2887 -0.0082 -0.8472
C90 C 0.3479(8) 0.0481(10) -0.8969(6)
H69 H 0.3279 0.0169 -0.9217
C91 C 0.4044(8) 0.1120(10) -0.9053(5)
C92 C 0.4285(9) 0.1259(11) -0.9513(6)
H70 H 0.4082 0.0947 -0.9759
C93 C 0.4332(8) 0.2029(10) -0.7841(5)
H71 H 0.4675 0.2441 -0.7932
C94 C 0.5161(9) 0.2291(10) -0.9219(5)
H72 H 0.5548 0.2669 -0.9272
C95 C 0.4918(8) 0.2152(10) -0.8787(5)
H73 H 0.5136 0.2453 -0.8541
C96 C 0.2700(7) -0.0113(9) -0.7114(5)
C97 C 0.2779(7) -0.0065(9) -0.7621(5)
H74 H 0.2319 0.0061 -0.7767
H75 H 0.2962 -0.0618 -0.7744
C98 C 0.4378(8) 0.3517(10) -0.6356(5)
H76 H 0.4545 0.4012 -0.6514
C99 C 0.4213(8) 0.3577(12) -0.5870(6)
H77 H 0.4260 0.4115 -0.5717
C100 C 0.3988(9) 0.2853(12) -0.5628(6)
H78 H 0.3871 0.2885 -0.5313
C101 C 0.3941(9) 0.2082(12) -0.5869(6)
H79 H 0.3823 0.1571 -0.5707
C102 C 0.4063(8) 0.2023(10) -0.6356(5)
H80 H 0.3987 0.1495 -0.6512
C103 C 0.4291(7) 0.2743(10) -0.6589(5)
C104 C 0.4461(9) 0.2774(12) -0.7099(6)
C105 C 0.4154(7) 0.2044(9) -0.7397(5)
H81 H 0.3850 0.1620 -0.7271
C106 C 0.2240(10) 0.0009(5) -0.5330(2)
H82 H 0.2255 0.0602 -0.5411
H83 H 0.2163 -0.0155 -0.5021
C107 C 0.2329(9) -0.0611(5) -0.5658(2)
H84 H 0.2313 -0.1202 -0.5574
C108 C 0.2640(8) -0.0977(10) -0.6915(6)
H85 H 0.2674 -0.1467 -0.7110
C109 C 0.2537(8) -0.1097(12) -0.6455(6)
H86 H 0.2520 -0.1665 -0.6332
C110 C 0.2454(8) -0.0365(13) -0.6159(6)
C111 C 0.2519(8) 0.0463(11) -0.6337(6)
H87 H 0.2480 0.0948 -0.6141
C112 C 0.2645(8) 0.0587(10) -0.6819(6)
H88 H 0.2690 0.1155 -0.6937
loop_
_geom_bond_atom_site_label_1
_geom_bond_atom_site_label_2
_geom_bond_site_symmetry_1
_geom_bond_site_symmetry_2
O1 C17 1_555 1_555
C1 C2 1_555 1_555
C2 C3 1_555 1_555
C3 C4 1_555 1_555
C4 H1 1_555 1_555
C5 C4 1_555 1_555
H2 C5 1_555 1_555
C6 C1 1_555 1_555
C7 H3 1_555 1_555
C8 C1 1_555 1_555
H4 C8 1_555 1_555
O2 C3 1_555 1_555
C9 C6 1_555 1_555
H5 C9 1_555 1_555
C10 H6 1_555 1_555
H7 C10 1_555 1_555
C11 C10 1_555 1_555
H8 C11 1_555 1_555
C12 H9 1_555 1_555
C13 C12 1_555 1_555
H10 C13 1_555 1_555
C14 C13 1_555 1_555
H11 C14 1_555 1_555
C15 C14 1_555 1_555
C16 C12 1_555 1_555
H12 C16 1_555 1_555
C17 C15 1_555 1_555
C18 C17 1_555 1_555
H13 C18 1_555 1_555
C19 C2 1_555 1_555
H14 C19 1_555 1_555
C20 C7 1_555 1_555
H15 C20 1_555 1_555
C21 C15 1_555 1_555
H16 C21 1_555 1_555
C22 H17 1_555 1_555
C23 C22 1_555 1_555
H18 C23 1_555 1_555
C24 C11 1_555 1_555
C25 C24 1_555 1_555
H19 C25 1_555 1_555
C26 C25 1_555 1_555
H20 C26 1_555 1_555
C27 C22 1_555 1_555
C28 O2 1_555 1_555
H21 C28 1_555 1_555
H22 C28 1_555 1_555
O3 C36 1_555 1_555
O4 C29 1_555 1_555
C29 C30 1_555 1_555
C30 H23 1_555 1_555
C31 C30 1_555 1_555
H24 C31 1_555 1_555
C32 H25 1_555 1_555
C33 C32 1_555 1_555
H26 C33 1_555 1_555
C34 C33 1_555 1_555
C35 C31 1_555 1_555
C36 C35 1_555 1_555
C37 C36 1_555 1_555
H27 C37 1_555 1_555
C38 H28 1_555 1_555
C39 C38 1_555 1_555
H29 C39 1_555 1_555
C40 C39 1_555 1_555
C41 O3 1_555 1_555
H30 C41 1_555 1_555
H31 C41 1_555 1_555
C42 H32 1_555 1_555
C43 C42 1_555 1_555
H33 C43 1_555 1_555
C44 C43 1_555 1_555
H34 C44 1_555 1_555
C45 C44 1_555 1_555
H35 C45 1_555 1_555
C46 C45 1_555 1_555
H36 C46 1_555 1_555
C47 C29 1_555 1_555
C48 H37 1_555 1_555
H38 C48 1_555 1_555
C49 C48 1_555 1_555
H39 C49 1_555 1_555
C50 C40 1_555 1_555
H40 C50 1_555 1_555
C51 C50 1_555 1_555
H41 C51 1_555 1_555
C52 C38 1_555 1_555
C53 C34 1_555 1_555
C54 C53 1_555 1_555
H42 C54 1_555 1_555
C55 C32 1_555 1_555
H43 C55 1_555 1_555
C56 C37 1_555 1_555
H44 C56 1_555 1_555
O5 C66 1_555 1_555
O6 C82 1_555 1_555
C57 H45 1_555 1_555
C58 C59 1_555 1_555
C59 C60 1_555 1_555
C60 H46 1_555 1_555
C61 C57 1_555 1_555
H47 C61 1_555 1_555
C62 C57 1_555 1_555
H48 C62 1_555 1_555
C63 C59 1_555 1_555
C64 C63 1_555 1_555
H49 C64 1_555 1_555
C65 C64 1_555 1_555
H50 C65 1_555 1_555
C66 C58 1_555 1_555
C67 H51 1_555 1_555
C68 C67 1_555 1_555
H52 C68 1_555 1_555
C69 C68 1_555 1_555
H53 C69 1_555 1_555
C70 C69 1_555 1_555
H54 C70 1_555 1_555
C71 O5 1_555 1_555
H55 C71 1_555 1_555
H56 C71 1_555 1_555
C72 H57 1_555 1_555
C73 C72 1_555 1_555
H58 C73 1_555 1_555
C74 C73 1_555 1_555
C75 C74 1_555 1_555
H59 C75 1_555 1_555
C76 C75 1_555 1_555
H60 C76 1_555 1_555
C77 C74 1_555 1_555
H61 C77 1_555 1_555
C78 C77 1_555 1_555
H62 C78 1_555 1_555
H63 C78 1_555 1_555
C79 C71 1_555 1_555
C80 C67 1_555 1_555
H64 C80 1_555 1_555
C81 C70 1_555 1_555
C82 C81 1_555 1_555
C83 C82 1_555 1_555
H65 C83 1_555 1_555
C84 C58 1_555 1_555
H66 C84 1_555 1_555
O7 C88 1_555 1_555
O8 C104 1_555 1_555
C85 H67 1_555 1_555
C86 C87 1_555 1_555
C87 C88 1_555 1_555
C88 C89 1_555 1_555
C89 H68 1_555 1_555
C90 C89 1_555 1_555
H69 C90 1_555 1_555
C91 C86 1_555 1_555
C92 C85 1_555 1_555
H70 C92 1_555 1_555
C93 C87 1_555 1_555
H71 C93 1_555 1_555
C94 C85 1_555 1_555
H72 C94 1_555 1_555
C95 C86 1_555 1_555
H73 C95 1_555 1_555
C96 C97 1_555 1_555
C97 O7 1_555 1_555
H74 C97 1_555 1_555
H75 C97 1_555 1_555
C98 H76 1_555 1_555
C99 C98 1_555 1_555
H77 C99 1_555 1_555
C100 C99 1_555 1_555
H78 C100 1_555 1_555
C101 C100 1_555 1_555
H79 C101 1_555 1_555
C102 C101 1_555 1_555
H80 C102 1_555 1_555
C103 C98 1_555 1_555
C104 C103 1_555 1_555
C105 C93 1_555 1_555
H81 C105 1_555 1_555
C106 H82 1_555 1_555
H83 C106 1_555 1_555
C107 C106 1_555 1_555
H84 C107 1_555 1_555
C108 C96 1_555 1_555
H85 C108 1_555 1_555
C109 C108 1_555 1_555
H86 C109 1_555 1_555
C110 C107 1_555 1_555
C111 C110 1_555 1_555
H87 C111 1_555 1_555
C112 C96 1_555 1_555
H88 C112 1_555 1_555
C5 C6 1_555 1_555
C7 C9 1_555 1_555
C8 C20 1_555 1_555
C16 C21 1_555 1_555
C18 C19 1_555 1_555
C23 C24 1_555 1_555
C26 C27 1_555 1_555
C27 C28 1_555 1_555
C34 C35 1_555 1_555
C40 C41 1_555 1_555
C42 C47 1_555 1_555
C46 C47 1_555 1_555
C49 C52 1_555 1_555
C51 C52 1_555 1_555
C53 C56 1_555 1_555
C54 C55 1_555 1_555
C60 C61 1_555 1_555
C62 C63 1_555 1_555
C65 C66 1_555 1_555
C72 C79 1_555 1_555
C76 C79 1_555 1_555
C80 C81 1_555 1_555
C83 C84 1_555 1_555
C90 C91 1_555 1_555
C91 C92 1_555 1_555
C94 C95 1_555 1_555
C102 C103 1_555 1_555
C104 C105 1_555 1_555
C109 C110 1_555 1_555
C111 C112 1_555 1_555

#END
