
#######################################################################
#
#                 Cambridge Crystallographic Data Centre
#                                CCDC 
#
#######################################################################
#
# If this CIF has been generated from an entry in the Cambridge 
# Structural Database, then it will include bibliographic, chemical, 
# crystal, experimental, refinement or atomic coordinate data resulting 
# from the CCDC's data processing and validation procedures.
#
#######################################################################

data_ACAMOJ
_chemical_formula_moiety         'C22 H18 O2'
_chemical_name_systematic        
1-phenyl-3-{2-[(prop-2-en-1-yl)oxy]naphthalen-1-yl}prop-2-en-1-one
_symmetry_cell_setting           orthorhombic
_symmetry_space_group_name_H-M   'P 21 21 21'
_symmetry_Int_Tables_number      19
_space_group_name_Hall           'P 2ac 2ab'
loop_
_symmetry_equiv_pos_site_id
_symmetry_equiv_pos_as_xyz
1 x,y,z
2 1/2-x,-y,1/2+z
3 -x,1/2+y,1/2-z
4 1/2+x,1/2-y,-z
_cell_length_a                   4.247(3)
_cell_length_b                   16.287(12)
_cell_length_c                   24.172(15)
_cell_angle_alpha                90
_cell_angle_beta                 90
_cell_angle_gamma                90
_cell_volume                     1672
_exptl_crystal_colour            green
_exptl_crystal_description       prism
_cell_formula_units_Z            4
loop_
_atom_site_label
_atom_site_type_symbol
_atom_site_fract_x
_atom_site_fract_y
_atom_site_fract_z
O1 O 0.5541(6) 0.24416(11) 0.75623(8)
C1 C 0.8257(8) 0.3150(2) 0.95056(12)
H1 H 0.8959 0.3159 0.9870
C2 C 0.6465(9) 0.3793(2) 0.93024(12)
H2 H 0.5949 0.4232 0.9530
O2 O 0.0032(5) 0.52232(10) 0.75654(7)
C3 C 0.5444(8) 0.37790(16) 0.87589(11)
H3 H 0.4250 0.4213 0.8623
C4 C 0.6176(6) 0.31274(14) 0.84147(10)
C5 C 0.7973(7) 0.24838(17) 0.86273(11)
H4 H 0.8483 0.2041 0.8402
C6 C 0.8998(8) 0.2497(2) 0.91656(12)
H5 H 1.0197 0.2064 0.9302
C7 C 0.5065(6) 0.30716(14) 0.78268(10)
C8 C 0.3363(8) 0.37690(15) 0.75862(10)
H6 H 0.3196 0.4250 0.7792
C9 C 0.2062(6) 0.37451(14) 0.70929(10)
H7 H 0.2366 0.3253 0.6905
C10 C 0.0232(6) 0.43498(14) 0.67877(9)
C11 C -0.0614(6) 0.41972(14) 0.62195(9)
C12 C 0.0407(7) 0.34906(16) 0.59236(10)
H8 H 0.1659 0.3104 0.6102
C13 C -0.0410(8) 0.33664(18) 0.53830(11)
H9 H 0.0298 0.2899 0.5200
C14 C -0.2301(8) 0.39342(19) 0.51013(11)
H10 H -0.2849 0.3843 0.4734
C15 C -0.3336(8) 0.46223(18) 0.53694(11)
H11 H -0.4601 0.4997 0.5182
C16 C -0.2510(7) 0.47737(16) 0.59277(10)
C17 C -0.3570(7) 0.54843(15) 0.62076(11)
H12 H -0.4868 0.5853 0.6022
C18 C -0.2745(7) 0.56418(16) 0.67381(10)
H13 H -0.3438 0.6120 0.6910
C19 C -0.0838(6) 0.50824(14) 0.70296(9)
C20 C -0.1087(7) 0.59490(15) 0.78458(10)
H14 H -0.3369 0.5971 0.7836
H15 H -0.0263 0.6439 0.7669
C21 C 0.0040(7) 0.58955(18) 0.84259(11)
H16 H -0.0601 0.5449 0.8638
C22 C 0.1885(8) 0.6441(2) 0.86555(13)
H17 H 0.2562 0.6893 0.8453
H18 H 0.2519 0.6376 0.9021
loop_
_geom_bond_atom_site_label_1
_geom_bond_atom_site_label_2
_geom_bond_site_symmetry_1
_geom_bond_site_symmetry_2
O1 C7 1_555 1_555
C1 H1 1_555 1_555
C2 C1 1_555 1_555
H2 C2 1_555 1_555
O2 C19 1_555 1_555
C3 C2 1_555 1_555
H3 C3 1_555 1_555
C4 C3 1_555 1_555
C5 C4 1_555 1_555
H4 C5 1_555 1_555
C6 C1 1_555 1_555
H5 C6 1_555 1_555
C7 C4 1_555 1_555
C8 C7 1_555 1_555
H6 C8 1_555 1_555
C9 C8 1_555 1_555
H7 C9 1_555 1_555
C10 C9 1_555 1_555
C11 C10 1_555 1_555
C12 C11 1_555 1_555
H8 C12 1_555 1_555
C13 C12 1_555 1_555
H9 C13 1_555 1_555
C14 C13 1_555 1_555
H10 C14 1_555 1_555
C15 C14 1_555 1_555
H11 C15 1_555 1_555
C16 C11 1_555 1_555
C17 C16 1_555 1_555
H12 C17 1_555 1_555
C18 C17 1_555 1_555
H13 C18 1_555 1_555
C19 C10 1_555 1_555
C20 O2 1_555 1_555
H14 C20 1_555 1_555
H15 C20 1_555 1_555
C21 C20 1_555 1_555
H16 C21 1_555 1_555
C22 C21 1_555 1_555
H17 C22 1_555 1_555
H18 C22 1_555 1_555
C5 C6 1_555 1_555
C15 C16 1_555 1_555
C18 C19 1_555 1_555

#END
