
#######################################################################
#
#                 Cambridge Crystallographic Data Centre
#                                CCDC 
#
#######################################################################
#
# If this CIF has been generated from an entry in the Cambridge 
# Structural Database, then it will include bibliographic, chemical, 
# crystal, experimental, refinement or atomic coordinate data resulting 
# from the CCDC's data processing and validation procedures.
#
#######################################################################

data_ACAWUZ
_chemical_formula_moiety         'C15 H23 N1 O1'
_chemical_name_systematic        N-(1-phenylheptyl)acetamide
_symmetry_cell_setting           monoclinic
_symmetry_space_group_name_H-M   'P 21/c'
_symmetry_Int_Tables_number      14
_space_group_name_Hall           '-P 2ybc'
loop_
_symmetry_equiv_pos_site_id
_symmetry_equiv_pos_as_xyz
1 x,y,z
2 -x,1/2+y,1/2-z
3 -x,-y,-z
4 x,1/2-y,1/2+z
_cell_length_a                   14.8264(17)
_cell_length_b                   10.4299(10)
_cell_length_c                   9.5439(5)
_cell_angle_alpha                90
_cell_angle_beta                 93.909(8)
_cell_angle_gamma                90
_cell_volume                     1472.41
_exptl_crystal_colour            colorless
_cell_formula_units_Z            4
loop_
_atom_site_label
_atom_site_type_symbol
_atom_site_fract_x
_atom_site_fract_y
_atom_site_fract_z
O1 O 0.84201(15) 0.31708(19) 0.20553(15)
C1 C 0.84960(16) 0.3144(2) 0.3342(2)
N1 N 0.80822(15) 0.2271(2) 0.40833(15)
H1 H 0.8160 0.2297 0.4984
C2 C 0.80124(19) 0.0065(3) 0.3144(2)
C3 C 0.4788(2) 0.3146(2) 0.5697(3)
H2 H 0.4633 0.3605 0.4830
H3 H 0.5185 0.3694 0.6284
C4 C 0.75053(18) 0.1278(2) 0.34465(19)
H4 H 0.7252 0.1611 0.2544
C5 C 0.90662(19) 0.4102(2) 0.4159(2)
H5 H 0.9331 0.4682 0.3524
H6 H 0.9536 0.3665 0.4712
H7 H 0.8697 0.4574 0.4767
C6 C 0.67079(18) 0.1026(2) 0.4360(2)
H8 H 0.6324 0.0369 0.3916
H9 H 0.6941 0.0699 0.5265
C7 C 0.52982(19) 0.1945(2) 0.5357(3)
H10 H 0.4901 0.1389 0.4782
H11 H 0.5468 0.1494 0.6224
C8 C 0.6143(2) 0.2207(3) 0.4590(3)
H12 H 0.5966 0.2586 0.3684
H13 H 0.6512 0.2828 0.5123
C9 C 0.3932(2) 0.2915(3) 0.6440(4)
H14 H 0.3515 0.2421 0.5826
H15 H 0.4079 0.2404 0.7274
C10 C 0.8183(3) -0.1778(4) 0.1688(4)
H16 H 0.7991 -0.2255 0.0900
C11 C 0.7749(3) -0.0667(3) 0.1983(3)
H17 H 0.7264 -0.0397 0.1388
C12 C 0.8896(3) -0.2190(3) 0.2543(5)
H18 H 0.9192 -0.2947 0.2342
C13 C 0.3464(3) 0.4124(3) 0.6863(4)
H19 H 0.2927 0.3906 0.7318
H20 H 0.3305 0.4630 0.6043
H21 H 0.3863 0.4607 0.7499
C14 C 0.8732(3) -0.0360(3) 0.4012(3)
H22 H 0.8918 0.0112 0.4807
C15 C 0.9178(3) -0.1474(4) 0.3717(5)
H23 H 0.9667 -0.1746 0.4302
loop_
_geom_bond_atom_site_label_1
_geom_bond_atom_site_label_2
_geom_bond_site_symmetry_1
_geom_bond_site_symmetry_2
O1 C1 1_555 1_555
C1 N1 1_555 1_555
N1 H1 1_555 1_555
C2 C4 1_555 1_555
C3 H2 1_555 1_555
H3 C3 1_555 1_555
C4 N1 1_555 1_555
H4 C4 1_555 1_555
C5 C1 1_555 1_555
H5 C5 1_555 1_555
H6 C5 1_555 1_555
H7 C5 1_555 1_555
C6 C4 1_555 1_555
H8 C6 1_555 1_555
H9 C6 1_555 1_555
C7 C3 1_555 1_555
H10 C7 1_555 1_555
H11 C7 1_555 1_555
C8 C6 1_555 1_555
H12 C8 1_555 1_555
H13 C8 1_555 1_555
C9 C3 1_555 1_555
H14 C9 1_555 1_555
H15 C9 1_555 1_555
C10 H16 1_555 1_555
C11 C2 1_555 1_555
H17 C11 1_555 1_555
C12 C10 1_555 1_555
H18 C12 1_555 1_555
C13 C9 1_555 1_555
H19 C13 1_555 1_555
H20 C13 1_555 1_555
H21 C13 1_555 1_555
C14 C2 1_555 1_555
H22 C14 1_555 1_555
C15 C12 1_555 1_555
H23 C15 1_555 1_555
C7 C8 1_555 1_555
C10 C11 1_555 1_555
C14 C15 1_555 1_555

#END
