
#######################################################################
#
#                 Cambridge Crystallographic Data Centre
#                                CCDC 
#
#######################################################################
#
# If this CIF has been generated from an entry in the Cambridge 
# Structural Database, then it will include bibliographic, chemical, 
# crystal, experimental, refinement or atomic coordinate data resulting 
# from the CCDC's data processing and validation procedures.
#
#######################################################################

data_ACELAV
_chemical_name_common            tetraacetyldiazidoacetylhexaazaisowurtzitane
_chemical_formula_moiety         'C18 H22 N12 O6,0.5(C3 H6 O1)'
_chemical_name_systematic        
1,3,8,10-tetraacetyl-4,7-bis(triaz-1-enylacetyl)-octahydro-1H-5,2,6-(epiminomethanetriylimino)imidazo[4,5-b]pyrazine
_symmetry_cell_setting           monoclinic
_symmetry_space_group_name_H-M   'P 21/n'
_symmetry_Int_Tables_number      14
_space_group_name_Hall           '-P 2yn'
loop_
_symmetry_equiv_pos_site_id
_symmetry_equiv_pos_as_xyz
1 x,y,z
2 1/2-x,1/2+y,1/2-z
3 -x,-y,-z
4 1/2+x,1/2-y,1/2+z
_cell_length_a                   12.333(3)
_cell_length_b                   9.230(2)
_cell_length_c                   21.264(4)
_cell_angle_alpha                90
_cell_angle_beta                 94.27(3)
_cell_angle_gamma                90
_cell_volume                     2413.84
_exptl_crystal_colour            colorless
_exptl_crystal_description       prismatic
_chemical_melting_point          245deg.C(dec.)
_cell_formula_units_Z            4
_exptl_crystal_recrystallization_method water/acetone
loop_
_atom_site_label
_atom_site_type_symbol
_atom_site_fract_x
_atom_site_fract_y
_atom_site_fract_z
C19 C -0.0989(7) -0.0268(13) 0.4888(5)
O7 O 0.0347(12) -0.0318(13) 0.3970(5)
C20 C 0.0132(12) -0.0164(14) 0.4552(7)
C19B C 0.0989(7) 0.0268(13) 0.5112(5)
C20B C -0.0132(12) 0.0164(14) 0.5448(7)
O7B O -0.0347(12) 0.0318(13) 0.6030(5)
O1 O 0.1218(3) 0.4170(4) 0.2176(2)
O2 O -0.1468(3) 0.3189(4) 0.0707(2)
O3 O -0.0748(3) -0.1679(4) 0.0223(2)
O4 O 0.2210(3) -0.2414(4) 0.1613(2)
O5 O -0.1646(3) 0.2058(4) 0.3122(2)
O6 O -0.0646(2) -0.3239(4) 0.2671(2)
N1 N 0.0921(3) 0.2017(4) 0.1723(2)
N2 N -0.1129(3) 0.1452(4) 0.1422(2)
N3 N -0.0696(3) -0.0845(4) 0.1207(2)
N4 N 0.1348(3) -0.0282(4) 0.1523(2)
N5 N -0.0359(3) 0.1361(4) 0.2491(2)
N6 N 0.0139(3) -0.1279(4) 0.2256(2)
N7 N -0.0229(4) 0.3171(6) 0.4050(2)
N8 N -0.0983(5) 0.4026(7) 0.4038(2)
N9 N -0.1669(6) 0.4795(10) 0.4111(3)
N10 N 0.1171(6) -0.3721(13) 0.3487(2)
N11 N 0.0906(7) -0.3407(9) 0.3988(2)
N12 N 0.0654(13) -0.3312(11) 0.4490(3)
C1 C 0.0809(3) 0.0957(5) 0.1217(2)
C2 C -0.0430(3) 0.0622(5) 0.1031(2)
C3 C 0.0760(3) 0.1285(5) 0.2318(2)
C4 C -0.1146(3) 0.0735(5) 0.2027(2)
C5 C -0.0851(3) -0.0882(5) 0.1887(2)
C6 C 0.1060(3) -0.0334(5) 0.2179(2)
C7 C 0.1135(3) 0.3452(5) 0.1689(2)
C8 C 0.1278(4) 0.4083(5) 0.1056(2)
C9 C -0.1610(3) 0.2695(5) 0.1225(2)
C10 C -0.2301(5) 0.3463(6) 0.1679(3)
C11 C -0.0884(3) -0.1913(5) 0.0776(2)
C12 C -0.1216(5) -0.3348(5) 0.1015(3)
C13 C 0.1913(3) -0.1382(5) 0.1277(2)
C14 C 0.2144(4) -0.1284(6) 0.0601(2)
C15 C -0.0693(4) 0.2033(5) 0.3018(2)
C16 C 0.0163(4) 0.2802(6) 0.3443(2)
C17 C 0.0156(4) -0.2491(6) 0.2632(2)
C18 C 0.1201(4) -0.2853(6) 0.2999(2)
loop_
_geom_bond_atom_site_label_1
_geom_bond_atom_site_label_2
_geom_bond_site_symmetry_1
_geom_bond_site_symmetry_2
O1 C7 1_555 1_555
O2 C9 1_555 1_555
O3 C11 1_555 1_555
O4 C13 1_555 1_555
O5 C15 1_555 1_555
O6 C17 1_555 1_555
N1 C1 1_555 1_555
N2 C2 1_555 1_555
N3 C2 1_555 1_555
N4 C1 1_555 1_555
N5 C3 1_555 1_555
N6 C5 1_555 1_555
N7 N8 1_555 1_555
N8 N9 1_555 1_555
N10 N11 1_555 1_555
N11 N12 1_555 1_555
C1 C2 1_555 1_555
C3 N1 1_555 1_555
C4 N2 1_555 1_555
C5 N3 1_555 1_555
C6 N4 1_555 1_555
C7 N1 1_555 1_555
C8 C7 1_555 1_555
C9 N2 1_555 1_555
C10 C9 1_555 1_555
C11 N3 1_555 1_555
C12 C11 1_555 1_555
C13 N4 1_555 1_555
C14 C13 1_555 1_555
C15 N5 1_555 1_555
C16 N7 1_555 1_555
C17 N6 1_555 1_555
C18 N10 1_555 1_555
C19 C20 1_555 1_555
O7 C20 1_555 1_555
C20 C19B 1_555 1_555
C19B C20B 1_555 1_555
C20B C19 1_555 1_555
O7B C20B 1_555 1_555
N5 C4 1_555 1_555
N6 C6 1_555 1_555
C3 C6 1_555 1_555
C4 C5 1_555 1_555
C15 C16 1_555 1_555
C17 C18 1_555 1_555

#END
