
#######################################################################
#
#                 Cambridge Crystallographic Data Centre
#                                CCDC 
#
#######################################################################
#
# If this CIF has been generated from an entry in the Cambridge 
# Structural Database, then it will include bibliographic, chemical, 
# crystal, experimental, refinement or atomic coordinate data resulting 
# from the CCDC's data processing and validation procedures.
#
#######################################################################

data_ACERUW
_chemical_formula_moiety         'C33 H49 N1 O10'
_chemical_name_systematic        
2-Hydroxy-N-(2,3,4,6-tetra-O-pivaloyl-\b-D-glucopyranosyl)benzylideneamine
_symmetry_cell_setting           orthorhombic
_symmetry_space_group_name_H-M   'P 21 21 21'
_symmetry_Int_Tables_number      19
_space_group_name_Hall           'P 2ac 2ab'
loop_
_symmetry_equiv_pos_site_id
_symmetry_equiv_pos_as_xyz
1 x,y,z
2 1/2-x,-y,1/2+z
3 -x,1/2+y,1/2-z
4 1/2+x,1/2-y,-z
_cell_length_a                   11.1774(8)
_cell_length_b                   11.2461(8)
_cell_length_c                   29.072(2)
_cell_angle_alpha                90
_cell_angle_beta                 90
_cell_angle_gamma                90
_cell_volume                     3654.41
_exptl_crystal_colour            yellow
_exptl_crystal_description       block
_cell_formula_units_Z            4
_exptl_crystal_recrystallization_method methanol
loop_
_atom_site_label
_atom_site_type_symbol
_atom_site_fract_x
_atom_site_fract_y
_atom_site_fract_z
O1 O 0.4846(2) 0.0678(2) 0.32925(8)
O2 O 0.3427(3) -0.1287(2) 0.20659(11)
H1 H 0.3647 -0.1003 0.2311
O3 O 0.6675(4) -0.1519(3) 0.21913(10)
O4 O 0.7043(2) 0.0363(2) 0.23790(7)
O5 O 0.9588(3) 0.1548(3) 0.31350(13)
O6 O 0.8424(2) -0.0061(2) 0.31857(8)
O7 O 0.7974(3) -0.0458(3) 0.43464(9)
O8 O 0.7512(2) 0.1222(2) 0.39812(7)
O9 O 0.5289(4) 0.0423(3) 0.49335(11)
O10 O 0.4772(3) -0.0058(3) 0.42283(9)
N1 N 0.4509(3) 0.0380(3) 0.25172(9)
C1 C 0.5344(3) 0.0859(3) 0.28507(11)
H2 H 0.5477 0.1709 0.2795
C2 C 0.6517(3) 0.0185(3) 0.28260(11)
H3 H 0.6376 -0.0664 0.2879
C3 C 0.7378(3) 0.0666(3) 0.31836(11)
H4 H 0.7590 0.1491 0.3112
C4 C 0.6781(3) 0.0599(3) 0.36517(10)
H5 H 0.6685 -0.0233 0.3745
C5 C 0.5569(3) 0.1214(3) 0.36397(11)
H6 H 0.5693 0.2051 0.3559
C6 C 0.4056(3) 0.1110(3) 0.22367(11)
H7 H 0.4252 0.1910 0.2266
C7 C 0.3249(3) 0.0762(3) 0.18736(12)
C8 C 0.2753(4) 0.1603(4) 0.15818(14)
H8 H 0.2931 0.2402 0.1627
C9 C 0.2016(4) 0.1290(4) 0.12308(15)
H9 H 0.1685 0.1869 0.1041
C10 C 0.1764(4) 0.0117(5) 0.11587(15)
H10 H 0.1276 -0.0103 0.0914
C11 C 0.2221(4) -0.0734(4) 0.14411(16)
H11 H 0.2024 -0.1529 0.1395
C12 C 0.2979(3) -0.0418(3) 0.17969(13)
C13 C 0.7044(4) -0.0566(4) 0.20851(13)
C14 C 0.7501(4) -0.0249(4) 0.16182(14)
C18 C 0.6919(13) 0.0900(12) 0.1438(5)
H21 H 0.6066 0.0806 0.1432
H22 H 0.7203 0.1061 0.1133
H23 H 0.7126 0.1550 0.1637
C19 C 0.7279(18) -0.1255(13) 0.1279(5)
H24 H 0.7542 -0.1993 0.1411
H25 H 0.7716 -0.1105 0.1000
H26 H 0.6440 -0.1302 0.1211
C20 C 0.8848(10) -0.0022(18) 0.1652(5)
H27 H 0.8998 0.0571 0.1883
H28 H 0.9143 0.0251 0.1361
H29 H 0.9248 -0.0747 0.1735
C21 C 0.9505(4) 0.0485(5) 0.31527(14)
C22 C 1.0512(4) -0.0380(5) 0.31326(17)
C23 C 1.0364(6) -0.1213(8) 0.2739(2)
H30 H 1.0240 -0.0767 0.2461
H31 H 0.9686 -0.1718 0.2793
H32 H 1.1071 -0.1692 0.2708
C24 C 1.1669(5) 0.0297(7) 0.3109(3)
H33 H 1.1687 0.0763 0.2832
H34 H 1.2327 -0.0251 0.3108
H35 H 1.1732 0.0813 0.3371
C25 C 1.0508(6) -0.1108(6) 0.3578(2)
H36 H 1.1098 -0.1725 0.3558
H37 H 0.9732 -0.1456 0.3622
H38 H 1.0690 -0.0597 0.3833
C26 C 0.8044(4) 0.0596(4) 0.43162(12)
C27 C 0.8742(4) 0.1404(4) 0.46397(13)
C28 C 0.9729(4) 0.2022(4) 0.43760(15)
H39 H 1.0099 0.2608 0.4569
H40 H 0.9398 0.2401 0.4109
H41 H 1.0316 0.1448 0.4283
C29 C 0.9262(6) 0.0665(5) 0.50238(18)
H42 H 0.9660 0.1176 0.5240
H43 H 0.9825 0.0107 0.4899
H44 H 0.8631 0.0243 0.5177
C30 C 0.7915(5) 0.2352(5) 0.48322(17)
H45 H 0.7288 0.1981 0.5007
H46 H 0.7572 0.2799 0.4584
H47 H 0.8362 0.2877 0.5028
C31 C 0.4889(4) 0.1160(4) 0.40845(13)
H48 H 0.5309 0.1610 0.4319
H49 H 0.4102 0.1509 0.4044
C32 C 0.4983(4) -0.0329(4) 0.46641(15)
C33 C 0.4775(5) -0.1612(4) 0.47734(15)
C34 C 0.5356(6) -0.1893(5) 0.52390(16)
H50 H 0.4988 -0.1420 0.5475
H51 H 0.6195 -0.1715 0.5225
H52 H 0.5250 -0.2721 0.5309
C35 C 0.3462(5) -0.1829(6) 0.4802(2)
H53 H 0.3099 -0.1228 0.4990
H54 H 0.3320 -0.2597 0.4936
H55 H 0.3122 -0.1803 0.4499
C36 C 0.5359(6) -0.2380(4) 0.44016(17)
H56 H 0.5249 -0.3205 0.4475
H57 H 0.6198 -0.2205 0.4387
H58 H 0.4995 -0.2212 0.4110
C15? C 0.6330(12) 0.0043(19) 0.1359(5)
H12? H 0.5788 -0.0615 0.1384
H13? H 0.6506 0.0186 0.1040
H14? H 0.5971 0.0739 0.1490
C16? C 0.8075(14) -0.1315(13) 0.1406(5)
H15? H 0.8744 -0.1560 0.1590
H16? H 0.8347 -0.1120 0.1102
H17? H 0.7504 -0.1951 0.1388
C17? C 0.8340(17) 0.0785(13) 0.1632(6)
H18? H 0.7989 0.1417 0.1808
H19? H 0.8491 0.1057 0.1324
H20? H 0.9080 0.0546 0.1772
loop_
_geom_bond_atom_site_label_1
_geom_bond_atom_site_label_2
_geom_bond_site_symmetry_1
_geom_bond_site_symmetry_2
O1 C1 1_555 1_555
O2 H1 1_555 1_555
O3 C13 1_555 1_555
O4 C2 1_555 1_555
O5 C21 1_555 1_555
O6 C3 1_555 1_555
O7 C26 1_555 1_555
O8 C4 1_555 1_555
O9 C32 1_555 1_555
O10 C31 1_555 1_555
N1 C1 1_555 1_555
C1 H2 1_555 1_555
C2 C1 1_555 1_555
H3 C2 1_555 1_555
C3 C2 1_555 1_555
H4 C3 1_555 1_555
C4 C3 1_555 1_555
H5 C4 1_555 1_555
C5 O1 1_555 1_555
H6 C5 1_555 1_555
C6 N1 1_555 1_555
H7 C6 1_555 1_555
C7 C6 1_555 1_555
C8 C7 1_555 1_555
H8 C8 1_555 1_555
C9 C8 1_555 1_555
H9 C9 1_555 1_555
C10 C9 1_555 1_555
H10 C10 1_555 1_555
C11 C10 1_555 1_555
H11 C11 1_555 1_555
C12 O2 1_555 1_555
C13 O4 1_555 1_555
C14 C13 1_555 1_555
C18 C14 1_555 1_555
H21 C18 1_555 1_555
H22 C18 1_555 1_555
H23 C18 1_555 1_555
C19 C14 1_555 1_555
H24 C19 1_555 1_555
H25 C19 1_555 1_555
H26 C19 1_555 1_555
C20 C14 1_555 1_555
H27 C20 1_555 1_555
H28 C20 1_555 1_555
H29 C20 1_555 1_555
C21 O6 1_555 1_555
C22 C21 1_555 1_555
C23 C22 1_555 1_555
H30 C23 1_555 1_555
H31 C23 1_555 1_555
H32 C23 1_555 1_555
C24 C22 1_555 1_555
H33 C24 1_555 1_555
H34 C24 1_555 1_555
H35 C24 1_555 1_555
C25 C22 1_555 1_555
H36 C25 1_555 1_555
H37 C25 1_555 1_555
H38 C25 1_555 1_555
C26 O8 1_555 1_555
C27 C26 1_555 1_555
C28 C27 1_555 1_555
H39 C28 1_555 1_555
H40 C28 1_555 1_555
H41 C28 1_555 1_555
C29 C27 1_555 1_555
H42 C29 1_555 1_555
H43 C29 1_555 1_555
H44 C29 1_555 1_555
C30 C27 1_555 1_555
H45 C30 1_555 1_555
H46 C30 1_555 1_555
H47 C30 1_555 1_555
C31 C5 1_555 1_555
H48 C31 1_555 1_555
H49 C31 1_555 1_555
C32 O10 1_555 1_555
C33 C32 1_555 1_555
C34 C33 1_555 1_555
H50 C34 1_555 1_555
H51 C34 1_555 1_555
H52 C34 1_555 1_555
C35 C33 1_555 1_555
H53 C35 1_555 1_555
H54 C35 1_555 1_555
H55 C35 1_555 1_555
C36 C33 1_555 1_555
H56 C36 1_555 1_555
H57 C36 1_555 1_555
H58 C36 1_555 1_555
C4 C5 1_555 1_555
C7 C12 1_555 1_555
C11 C12 1_555 1_555

#END
