
#######################################################################
#
#                 Cambridge Crystallographic Data Centre
#                                CCDC 
#
#######################################################################
#
# If this CIF has been generated from an entry in the Cambridge 
# Structural Database, then it will include bibliographic, chemical, 
# crystal, experimental, refinement or atomic coordinate data resulting 
# from the CCDC's data processing and validation procedures.
#
#######################################################################

data_ACETAE
_chemical_formula_moiety         'C14 H19 N3 O9'
_chemical_name_systematic        
'2,3,4,6-Tetra-O-acetyl-\b-D-glucopyranosyl azide'
_symmetry_cell_setting           orthorhombic
_symmetry_space_group_name_H-M   'P 21 21 21'
_symmetry_Int_Tables_number      19
_space_group_name_Hall           'P 2ac 2ab'
loop_
_symmetry_equiv_pos_site_id
_symmetry_equiv_pos_as_xyz
1 x,y,z
2 1/2-x,-y,1/2+z
3 -x,1/2+y,1/2-z
4 1/2+x,1/2-y,-z
_cell_length_a                   7.2970(3)
_cell_length_b                   14.7022(7)
_cell_length_c                   15.8692(7)
_cell_angle_alpha                90
_cell_angle_beta                 90
_cell_angle_gamma                90
_cell_volume                     1702.48
_exptl_crystal_colour            colorless
_exptl_crystal_description       block
_cell_formula_units_Z            4
_exptl_crystal_recrystallization_method 'hot methanol'
loop_
_atom_site_label
_atom_site_type_symbol
_atom_site_fract_x
_atom_site_fract_y
_atom_site_fract_z
O1 O 0.65273(17) 0.47618(8) 0.90833(7)
O2 O 0.57229(18) 0.68192(8) 0.78618(7)
O3 O 0.4611(3) 0.63612(10) 0.66020(9)
O4 O 0.23497(17) 0.65738(8) 0.86977(8)
O5 O 0.2330(2) 0.77203(10) 0.96414(9)
O6 O 0.29033(16) 0.57063(8) 1.03714(7)
O7 O 0.0174(2) 0.52221(12) 0.98786(9)
O8 O 0.47658(18) 0.36273(8) 1.03117(8)
O9 O 0.5337(3) 0.31062(12) 1.16092(10)
N1 N 0.7798(2) 0.51022(11) 0.77776(9)
N2 N 0.9457(2) 0.49310(11) 0.78559(10)
N3 N 1.0938(3) 0.47367(14) 0.78272(12)
C1 C 0.6965(2) 0.54914(11) 0.85326(10)
C2 C 0.5212(2) 0.59814(10) 0.82645(10)
C3 C 0.4061(2) 0.62418(11) 0.90266(10)
C4 C 0.3800(2) 0.54280(11) 0.96094(10)
C5 C 0.5732(2) 0.51091(11) 0.98431(10)
C6 C 0.5847(2) 0.44121(11) 1.05314(10)
C7 C 0.5298(3) 0.69370(12) 0.70319(11)
C8 C 0.5782(3) 0.78823(13) 0.67646(12)
C9 C 0.1665(2) 0.73464(11) 0.90391(10)
C10 C 0.0002(3) 0.76592(13) 0.85745(12)
C11 C 0.1068(2) 0.55505(12) 1.04335(11)
C12 C 0.0394(3) 0.58549(13) 1.12744(12)
C13 C 0.4660(3) 0.29960(12) 1.09301(11)
C14 C 0.3678(3) 0.21611(14) 1.06349(15)
H1 H 0.778(4) 0.588(2) 0.8803(19)
H2 H 0.458(4) 0.563(2) 0.7904(18)
H3 H 0.464(5) 0.671(2) 0.9342(18)
H4 H 0.313(4) 0.498(2) 0.9369(19)
H5 H 0.639(4) 0.567(2) 1.0034(18)
H6 H 0.716(4) 0.424(2) 1.0619(19)
H7 H 0.574(5) 0.788(2) 0.616(2)
H8 H -0.102(5) 0.757(2) 0.897(2)
H9 H 0.049(5) 0.648(2) 1.131(2)
H10 H 0.345(5) 0.183(2) 1.108(2)
H11 H 0.536(4) 0.468(2) 1.1034(19)
H12 H 0.695(5) 0.809(2) 0.700(2)
H13 H -0.014(5) 0.734(2) 0.809(2)
H14 H 0.110(5) 0.563(2) 1.173(2)
H15 H 0.444(5) 0.183(2) 1.022(2)
H16 H 0.487(5) 0.828(2) 0.698(2)
H17 H 0.007(5) 0.827(2) 0.849(2)
H18 H -0.078(5) 0.567(2) 1.133(2)
H19 H 0.255(5) 0.232(2) 1.036(2)
loop_
_geom_bond_atom_site_label_1
_geom_bond_atom_site_label_2
_geom_bond_site_symmetry_1
_geom_bond_site_symmetry_2
O1 C1 1_555 1_555
O2 C2 1_555 1_555
O3 C7 1_555 1_555
O4 C3 1_555 1_555
O5 C9 1_555 1_555
O6 C4 1_555 1_555
O7 C11 1_555 1_555
O8 C6 1_555 1_555
O9 C13 1_555 1_555
N1 N2 1_555 1_555
N2 N3 1_555 1_555
C1 N1 1_555 1_555
C2 C1 1_555 1_555
C3 C2 1_555 1_555
C4 C3 1_555 1_555
C5 O1 1_555 1_555
C6 C5 1_555 1_555
C7 O2 1_555 1_555
C8 C7 1_555 1_555
C9 O4 1_555 1_555
C10 C9 1_555 1_555
C11 O6 1_555 1_555
C12 C11 1_555 1_555
C13 O8 1_555 1_555
C14 C13 1_555 1_555
H1 C1 1_555 1_555
H2 C2 1_555 1_555
H3 C3 1_555 1_555
H4 C4 1_555 1_555
H5 C5 1_555 1_555
H6 C6 1_555 1_555
H7 C8 1_555 1_555
H8 C10 1_555 1_555
H9 C12 1_555 1_555
H10 C14 1_555 1_555
H11 C6 1_555 1_555
H12 C8 1_555 1_555
H13 C10 1_555 1_555
H14 C12 1_555 1_555
H15 C14 1_555 1_555
H16 C8 1_555 1_555
H17 C10 1_555 1_555
H18 C12 1_555 1_555
H19 C14 1_555 1_555
C4 C5 1_555 1_555

#END
