
#######################################################################
#
#                 Cambridge Crystallographic Data Centre
#                                CCDC 
#
#######################################################################
#
# If this CIF has been generated from an entry in the Cambridge 
# Structural Database, then it will include bibliographic, chemical, 
# crystal, experimental, refinement or atomic coordinate data resulting 
# from the CCDC's data processing and validation procedures.
#
#######################################################################

data_ACEXUC
_chemical_formula_moiety         'C40 H48 N2 O4,2(H2 O1)'
_chemical_name_systematic        
'9-(4-(1,2,3,4,5,6,7,8,9,10-Decahydro-3,3,6,6-tetramethyl-1,8-dioxoacridin-9-yl)phenyl)-1,2,3,4,5,6,7,8,9,10-decahydro-3,3,6,6-tetramethylacridine-1,8-dione dihydrate'
_symmetry_cell_setting           tetragonal
_symmetry_space_group_name_H-M   'P 42/n'
_symmetry_Int_Tables_number      86
_space_group_name_Hall           '-P 4bc'
loop_
_symmetry_equiv_pos_site_id
_symmetry_equiv_pos_as_xyz
1 x,y,z
2 -y,1/2+x,1/2+z
3 1/2+y,-x,1/2+z
4 1/2+x,1/2+y,-z
5 -x,-y,-z
6 y,1/2-x,1/2-z
7 1/2-y,x,1/2-z
8 1/2-x,1/2-y,z
_cell_length_a                   16.334(2)
_cell_length_b                   16.334(2)
_cell_length_c                   13.975(2)
_cell_angle_alpha                90
_cell_angle_beta                 90
_cell_angle_gamma                90
_cell_volume                     3728.52
_exptl_crystal_colour            colorless
_exptl_crystal_description       prism
_cell_formula_units_Z            4
_exptl_crystal_recrystallization_method ethanol/water
loop_
_atom_site_label
_atom_site_type_symbol
_atom_site_fract_x
_atom_site_fract_y
_atom_site_fract_z
O1 O 0.98071(15) 0.19059(15) 0.37361(16)
O2 O 0.82707(16) 0.47223(15) 0.37673(17)
N1 N 0.96109(15) 0.36523(15) 0.10665(17)
H1 H 0.9690 0.3703 0.0461
C1 C 0.78687(18) 0.2697(2) 0.2156(2)
H2 H 0.8116 0.2829 0.1576
C2 C 0.82533(18) 0.29042(18) 0.3004(2)
C3 C 0.78729(18) 0.26970(19) 0.38558(19)
H3 H 0.8124 0.2825 0.4434
C4 C 0.99006(17) 0.29589(19) 0.1521(2)
C5 C 1.0423(2) 0.2418(2) 0.0939(2)
H4 H 1.0970 0.2646 0.0912
H5 H 1.0210 0.2402 0.0291
C6 C 1.0473(2) 0.1548(2) 0.1321(3)
C7 C 1.0639(2) 0.1587(2) 0.2392(3)
H6 H 1.0630 0.1036 0.2652
H7 H 1.1181 0.1811 0.2497
C8 C 1.0022(2) 0.2103(2) 0.2921(2)
C9 C 0.97015(17) 0.28252(19) 0.2449(2)
C10 C 0.90774(17) 0.33456(18) 0.2969(2)
H8 H 0.9268 0.3440 0.3625
C11 C 0.89870(17) 0.41590(18) 0.2474(2)
C12 C 0.8555(2) 0.4815(2) 0.2954(2)
C13 C 0.8433(2) 0.5619(2) 0.2436(2)
H9 H 0.8910 0.5963 0.2535
H10 H 0.7963 0.5900 0.2705
C14 C 0.8299(2) 0.5500(2) 0.1358(2)
C15 C 0.90164(19) 0.50125(19) 0.0971(2)
H11 H 0.8898 0.4853 0.0317
H12 H 0.9498 0.5360 0.0960
C16 C 0.92027(18) 0.42620(19) 0.1541(2)
C17 C 0.9667(3) 0.1095(2) 0.1141(3)
H13 H 0.9710 0.0545 0.1378
H14 H 0.9556 0.1084 0.0467
H15 H 0.9230 0.1373 0.1466
C18 C 1.1154(3) 0.1098(3) 0.0788(3)
H16 H 1.1668 0.1367 0.0904
H17 H 1.1040 0.1102 0.0114
H18 H 1.1184 0.0543 0.1010
C19 C 0.7491(2) 0.5051(2) 0.1180(3)
H19 H 0.7416 0.4974 0.0505
H20 H 0.7046 0.5370 0.1431
H21 H 0.7504 0.4528 0.1493
C20 C 0.8274(3) 0.6340(2) 0.0864(3)
H22 H 0.8767 0.6636 0.1007
H23 H 0.7810 0.6643 0.1091
H24 H 0.8230 0.6265 0.0184
C1G C 0.71313(18) 0.2303(2) 0.2156(2)
H2G H 0.6884 0.2171 0.1576
C2G C 0.67467(18) 0.20958(18) 0.3004(2)
C3G C 0.71271(18) 0.23030(19) 0.38558(19)
H3G H 0.6876 0.2175 0.4434
C10G C 0.59226(17) 0.16544(18) 0.2969(2)
C9G C 0.52985(17) 0.21748(19) 0.2449(2)
C4G C 0.50994(17) 0.20411(19) 0.1521(2)
N1G N 0.53891(15) 0.13477(15) 0.10665(17)
H1G H 0.5310 0.1297 0.0461
C16G C 0.57973(18) 0.07380(19) 0.1541(2)
C11G C 0.60130(17) 0.08410(18) 0.2474(2)
H8G H 0.5732 0.1560 0.3625
C12G C 0.6445(2) 0.0185(2) 0.2954(2)
O2G O 0.67293(16) 0.02777(15) 0.37673(17)
C13G C 0.6567(2) -0.0619(2) 0.2436(2)
H9G H 0.6090 -0.0963 0.2535
H10G H 0.7037 -0.0900 0.2705
C14G C 0.6701(2) -0.0500(2) 0.1358(2)
C15G C 0.59836(19) -0.00125(19) 0.0971(2)
H11G H 0.6102 0.0147 0.0317
H12G H 0.5502 -0.0360 0.0960
C19G C 0.7509(2) -0.0051(2) 0.1180(3)
H19G H 0.7584 0.0026 0.0505
H20G H 0.7954 -0.0370 0.1431
H21G H 0.7496 0.0472 0.1493
C20G C 0.6726(3) -0.1340(2) 0.0864(3)
H22G H 0.6233 -0.1636 0.1007
H23G H 0.7190 -0.1643 0.1091
H24G H 0.6770 -0.1265 0.0184
C5G C 0.4577(2) 0.2582(2) 0.0939(2)
H4G H 0.4030 0.2354 0.0912
H5G H 0.4790 0.2598 0.0291
C6G C 0.4527(2) 0.3452(2) 0.1321(3)
C7G C 0.4361(2) 0.3413(2) 0.2392(3)
H6G H 0.4370 0.3964 0.2652
H7G H 0.3819 0.3189 0.2497
C8G C 0.4978(2) 0.2897(2) 0.2921(2)
O1G O 0.51929(15) 0.30941(15) 0.37361(16)
C17G C 0.5333(3) 0.3905(2) 0.1141(3)
H13G H 0.5290 0.4455 0.1378
H14G H 0.5444 0.3916 0.0467
H15G H 0.5770 0.3627 0.1466
C18G C 0.3846(3) 0.3902(3) 0.0788(3)
H16G H 0.3332 0.3633 0.0904
H17G H 0.3960 0.3898 0.0114
H18G H 0.3816 0.4457 0.1010
O3 O 0.93941(16) 0.35332(16) 0.89688(17)
H25 H 0.8939 0.3773 0.8876
H26 H 0.9353 0.3018 0.8899
loop_
_geom_bond_atom_site_label_1
_geom_bond_atom_site_label_2
_geom_bond_site_symmetry_1
_geom_bond_site_symmetry_2
O1 C8 1_555 1_555
O2 C12 1_555 1_555
N1 H1 1_555 1_555
C1 H2 1_555 1_555
C2 C1 1_555 1_555
C3 C2 1_555 1_555
H3 C3 1_555 1_555
C4 N1 1_555 1_555
C5 C4 1_555 1_555
H4 C5 1_555 1_555
H5 C5 1_555 1_555
C6 C5 1_555 1_555
C7 C6 1_555 1_555
H6 C7 1_555 1_555
H7 C7 1_555 1_555
C8 C7 1_555 1_555
C9 C4 1_555 1_555
C10 C2 1_555 1_555
H8 C10 1_555 1_555
C11 C10 1_555 1_555
C12 C11 1_555 1_555
C13 C12 1_555 1_555
H9 C13 1_555 1_555
H10 C13 1_555 1_555
C14 C13 1_555 1_555
C15 C14 1_555 1_555
H11 C15 1_555 1_555
H12 C15 1_555 1_555
C16 N1 1_555 1_555
C17 C6 1_555 1_555
H13 C17 1_555 1_555
H14 C17 1_555 1_555
H15 C17 1_555 1_555
C18 C6 1_555 1_555
H16 C18 1_555 1_555
H17 C18 1_555 1_555
H18 C18 1_555 1_555
C19 C14 1_555 1_555
H19 C19 1_555 1_555
H20 C19 1_555 1_555
H21 C19 1_555 1_555
C20 C14 1_555 1_555
H22 C20 1_555 1_555
H23 C20 1_555 1_555
H24 C20 1_555 1_555
O3 H25 1_555 1_555
H26 O3 1_555 1_555
C1G C1 1_555 1_555
H2G C1G 1_555 1_555
C2G C1G 1_555 1_555
C3G C3 1_555 1_555
H3G C3G 1_555 1_555
C10G C2G 1_555 1_555
C9G C10G 1_555 1_555
C4G C9G 1_555 1_555
N1G C4G 1_555 1_555
H1G N1G 1_555 1_555
C16G N1G 1_555 1_555
C11G C10G 1_555 1_555
H8G C10G 1_555 1_555
C12G C11G 1_555 1_555
O2G C12G 1_555 1_555
C13G C12G 1_555 1_555
H9G C13G 1_555 1_555
H10G C13G 1_555 1_555
C14G C13G 1_555 1_555
C15G C16G 1_555 1_555
H11G C15G 1_555 1_555
H12G C15G 1_555 1_555
C19G C14G 1_555 1_555
H19G C19G 1_555 1_555
H20G C19G 1_555 1_555
H21G C19G 1_555 1_555
C20G C14G 1_555 1_555
H22G C20G 1_555 1_555
H23G C20G 1_555 1_555
H24G C20G 1_555 1_555
C5G C4G 1_555 1_555
H4G C5G 1_555 1_555
H5G C5G 1_555 1_555
C6G C5G 1_555 1_555
C7G C6G 1_555 1_555
H6G C7G 1_555 1_555
H7G C7G 1_555 1_555
C8G C9G 1_555 1_555
O1G C8G 1_555 1_555
C17G C6G 1_555 1_555
H13G C17G 1_555 1_555
H14G C17G 1_555 1_555
H15G C17G 1_555 1_555
C18G C6G 1_555 1_555
H16G C18G 1_555 1_555
H17G C18G 1_555 1_555
H18G C18G 1_555 1_555
C8 C9 1_555 1_555
C9 C10 1_555 1_555
C11 C16 1_555 1_555
C15 C16 1_555 1_555
C2G C3G 1_555 1_555
C16G C11G 1_555 1_555
C14G C15G 1_555 1_555
C7G C8G 1_555 1_555

#END
