
#######################################################################
#
#                 Cambridge Crystallographic Data Centre
#                                CCDC 
#
#######################################################################
#
# If this CIF has been generated from an entry in the Cambridge 
# Structural Database, then it will include bibliographic, chemical, 
# crystal, experimental, refinement or atomic coordinate data resulting 
# from the CCDC's data processing and validation procedures.
#
#######################################################################

data_ACEZUD
_chemical_formula_moiety         'C20 H23 N1 O1'
_chemical_name_systematic        2,6-Diphenyl-3-isopropylpiperidin-4-one
_symmetry_cell_setting           monoclinic
_symmetry_space_group_name_H-M   'P 21/c'
_symmetry_Int_Tables_number      14
_space_group_name_Hall           '-P 2ybc'
loop_
_symmetry_equiv_pos_site_id
_symmetry_equiv_pos_as_xyz
1 x,y,z
2 -x,1/2+y,1/2-z
3 -x,-y,-z
4 x,1/2-y,1/2+z
_cell_length_a                   11.6008(8)
_cell_length_b                   13.459(3)
_cell_length_c                   12.0597(12)
_cell_angle_alpha                90
_cell_angle_beta                 118.611(9)
_cell_angle_gamma                90
_cell_volume                     1653.02
_exptl_crystal_colour            colorless
_exptl_crystal_description       prism
_chemical_melting_point          398-399K
_cell_formula_units_Z            4
_exptl_crystal_recrystallization_method 'absolute ethanol'
loop_
_atom_site_label
_atom_site_type_symbol
_atom_site_fract_x
_atom_site_fract_y
_atom_site_fract_z
N1 N 0.5202(2) 0.1941(2) 0.7886(3)
H1 H 0.4879 0.2562 0.7683
C1 C 0.6028(3) 0.1737(3) 0.7300(3)
H2 H 0.5458 0.1678 0.6386
C2 C 0.6728(3) 0.0727(3) 0.7803(4)
H3 H 0.7260 0.0812 0.8718
C3 C 0.5729(3) -0.0056(3) 0.7628(4)
C4 C 0.4696(4) 0.0224(3) 0.7980(4)
H4 H 0.5075 0.0215 0.8892
H5 H 0.3997 -0.0265 0.7638
C5 C 0.4124(3) 0.1247(3) 0.7489(4)
H6 H 0.3665 0.1222 0.6564
C6 C 0.3143(3) 0.1550(3) 0.7917(4)
C7 C 0.3469(4) 0.1622(3) 0.9170(4)
H7 H 0.4334 0.1508 0.9783
C8 C 0.2553(4) 0.1857(3) 0.9543(4)
H8 H 0.2793 0.1885 1.0397
C9 C 0.1284(4) 0.2048(3) 0.8649(5)
H9 H 0.0659 0.2210 0.8892
C10 C 0.0944(4) 0.1999(3) 0.7405(4)
H10 H 0.0083 0.2134 0.6798
C11 C 0.1856(4) 0.1755(3) 0.7035(4)
H11 H 0.1606 0.1726 0.6179
C12 C 0.6972(3) 0.2577(3) 0.7539(3)
C13 C 0.7737(3) 0.2965(3) 0.8731(4)
H12 H 0.7668 0.2699 0.9409
C14 C 0.8593(3) 0.3732(3) 0.8941(4)
H13 H 0.9099 0.3980 0.9753
C15 C 0.8703(4) 0.4131(3) 0.7959(5)
H14 H 0.9279 0.4655 0.8097
C16 C 0.7972(4) 0.3762(3) 0.6782(4)
H15 H 0.8055 0.4034 0.6115
C17 C 0.7100(3) 0.2986(3) 0.6550(3)
H16 H 0.6603 0.2742 0.5735
O1 O 0.5786(3) -0.0892(2) 0.7304(3)
C18 C 0.7701(4) 0.0440(3) 0.7332(4)
H17 H 0.8233 0.1033 0.7432
C19 C 0.7080(5) 0.0162(4) 0.5963(5)
H18 H 0.7752 0.0062 0.5725
H19 H 0.6505 0.0687 0.5462
H20 H 0.6585 -0.0439 0.5825
C20 C 0.8642(4) -0.0352(4) 0.8179(5)
H21 H 0.8193 -0.0978 0.8016
H22 H 0.8960 -0.0171 0.9048
H23 H 0.9369 -0.0407 0.8011
H24? H 0.5698 0.1911 0.8731
loop_
_geom_bond_atom_site_label_1
_geom_bond_atom_site_label_2
_geom_bond_site_symmetry_1
_geom_bond_site_symmetry_2
N1 H1 1_555 1_555
C1 N1 1_555 1_555
H2 C1 1_555 1_555
C2 C1 1_555 1_555
H3 C2 1_555 1_555
C3 C2 1_555 1_555
C4 C3 1_555 1_555
H4 C4 1_555 1_555
H5 C4 1_555 1_555
C5 N1 1_555 1_555
H6 C5 1_555 1_555
C6 C5 1_555 1_555
C7 C6 1_555 1_555
H7 C7 1_555 1_555
C8 C7 1_555 1_555
H8 C8 1_555 1_555
C9 C8 1_555 1_555
H9 C9 1_555 1_555
C10 C9 1_555 1_555
H10 C10 1_555 1_555
C11 C6 1_555 1_555
H11 C11 1_555 1_555
C12 C1 1_555 1_555
C13 C12 1_555 1_555
H12 C13 1_555 1_555
C14 C13 1_555 1_555
H13 C14 1_555 1_555
C15 C14 1_555 1_555
H14 C15 1_555 1_555
C16 C15 1_555 1_555
H15 C16 1_555 1_555
C17 C12 1_555 1_555
H16 C17 1_555 1_555
O1 C3 1_555 1_555
C18 C2 1_555 1_555
H17 C18 1_555 1_555
C19 C18 1_555 1_555
H18 C19 1_555 1_555
H19 C19 1_555 1_555
H20 C19 1_555 1_555
C20 C18 1_555 1_555
H21 C20 1_555 1_555
H22 C20 1_555 1_555
H23 C20 1_555 1_555
C4 C5 1_555 1_555
C10 C11 1_555 1_555
C16 C17 1_555 1_555

#END
