
#######################################################################
#
#                 Cambridge Crystallographic Data Centre
#                                CCDC 
#
#######################################################################
#
# If this CIF has been generated from an entry in the Cambridge 
# Structural Database, then it will include bibliographic, chemical, 
# crystal, experimental, refinement or atomic coordinate data resulting 
# from the CCDC's data processing and validation procedures.
#
#######################################################################

data_ACIDIC
_chemical_formula_moiety         'C29 H32 B10'
_chemical_name_systematic        
1-(4-(triphenylethenyl)phenyl)-2-methyl-1,2-dicarba-closo-dodecaborane(11)
_symmetry_cell_setting           orthorhombic
_symmetry_space_group_name_H-M   'P b c a'
_symmetry_Int_Tables_number      61
_space_group_name_Hall           '-P 2ac 2ab'
loop_
_symmetry_equiv_pos_site_id
_symmetry_equiv_pos_as_xyz
1 x,y,z
2 1/2-x,-y,1/2+z
3 -x,1/2+y,1/2-z
4 1/2+x,1/2-y,-z
5 -x,-y,-z
6 1/2+x,y,1/2-z
7 x,1/2-y,1/2+z
8 1/2-x,1/2+y,z
_cell_length_a                   14.753(18)
_cell_length_b                   16.377(19)
_cell_length_c                   24.58(3)
_cell_angle_alpha                90
_cell_angle_beta                 90
_cell_angle_gamma                90
_cell_volume                     5938.77
_exptl_crystal_colour            white
_exptl_crystal_description       block
_cell_formula_units_Z            8
loop_
_atom_site_label
_atom_site_type_symbol
_atom_site_fract_x
_atom_site_fract_y
_atom_site_fract_z
B1 B 0.2090(3) 0.3692(3) 0.42274(19)
H1 H 0.2623 0.3964 0.3972
B2 B 0.1078(3) 0.3595(3) 0.39998(16)
H2 H 0.0881 0.3806 0.3592
B3 B 0.0650(2) 0.2653(3) 0.42848(17)
H3 H 0.0150 0.2282 0.4064
B4 B 0.1365(3) 0.2134(3) 0.46951(15)
H4 H 0.1382 0.1467 0.4743
B5 B 0.2073(3) 0.3845(4) 0.4939(2)
H5 H 0.2598 0.4205 0.5148
B6 B 0.1312(5) 0.4359(3) 0.45242(18)
H6 H 0.1276 0.5024 0.4462
B7 B 0.0437(3) 0.3705(4) 0.4570(2)
H7 H -0.0236 0.3990 0.4543
B8 B 0.0615(3) 0.2824(3) 0.49912(18)
H8 H 0.0073 0.2564 0.5245
B9 B 0.1597(3) 0.2866(4) 0.52306(16)
H9 H 0.1769 0.2625 0.5635
B10 B 0.1063(3) 0.3878(3) 0.51530(15)
H10 H 0.0875 0.4262 0.5502
C1 C 0.38386(15) 0.06086(18) 0.22136(10)
C2 C 0.30280(15) 0.04997(18) 0.23301(10)
C3 C 0.26316(15) 0.10545(18) 0.27674(10)
C4 C 0.21306(17) 0.06650(19) 0.31643(11)
H11 H 0.2009 0.0108 0.3153
C5 C 0.18141(17) 0.11732(19) 0.35913(11)
H12 H 0.1482 0.0927 0.3868
C6 C 0.19760(15) 0.20998(18) 0.36339(10)
C7 C 0.24296(17) 0.25005(18) 0.32171(10)
H13 H 0.2514 0.3063 0.3215
C8 C 0.27512(17) 0.19922(18) 0.27988(10)
H14 H 0.3064 0.2242 0.2515
C9 C 0.16580(15) 0.26619(18) 0.41025(10)
C10 C 0.2211(2) 0.2785(3) 0.46720(13)
C11 C 0.3044(3) 0.2298(5) 0.4682(2)
H15 H 0.2903 0.1748 0.4788
H16 H 0.3463 0.2531 0.4937
H17 H 0.3312 0.2295 0.4326
C12 C 0.43960(15) 0.11534(18) 0.25704(10)
C13 C 0.44092(17) 0.1039(2) 0.31353(11)
H18 H 0.4087 0.0612 0.3292
C14 C 0.49099(19) 0.1573(2) 0.34618(12)
H19 H 0.4913 0.1503 0.3837
C15 C 0.5412(2) 0.2220(2) 0.32284(15)
H20 H 0.5734 0.2577 0.3450
C16 C 0.5425(2) 0.2320(2) 0.26718(14)
H21 H 0.5762 0.2739 0.2516
C17 C 0.49264(17) 0.1786(2) 0.23437(12)
H22 H 0.4944 0.1849 0.1968
C18 C 0.42329(17) 0.02097(19) 0.17170(11)
C19 C 0.49503(18) -0.0283(2) 0.17600(13)
H23 H 0.5209 -0.0379 0.2099
C20 C 0.5317(2) -0.0658(2) 0.12949(17)
H24 H 0.5804 -0.1014 0.1333
C21 C 0.4976(3) -0.0511(3) 0.07886(17)
H25 H 0.5228 -0.0760 0.0484
C22 C 0.4276(3) -0.0005(3) 0.07386(14)
H26 H 0.4037 0.0110 0.0397
C23 C 0.3906(2) 0.0349(2) 0.11969(11)
H27 H 0.3414 0.0698 0.1155
C24 C 0.24963(15) -0.01610(18) 0.20343(10)
C25 C 0.27661(17) -0.10370(18) 0.19107(11)
H28 H 0.3332 -0.1195 0.2041
C26 C 0.22824(19) -0.1643(2) 0.16273(12)
H29 H 0.2502 -0.2168 0.1565
C27 C 0.1508(2) -0.1392(2) 0.14657(13)
H30 H 0.1128 -0.1736 0.1269
C28 C 0.1217(2) -0.0540(3) 0.15955(15)
H31 H 0.0643 -0.0393 0.1474
C29 C 0.16989(18) 0.0066(2) 0.18772(13)
H32 H 0.1466 0.0584 0.1945
loop_
_geom_bond_atom_site_label_1
_geom_bond_atom_site_label_2
_geom_bond_site_symmetry_1
_geom_bond_site_symmetry_2
B1 H1 1_555 1_555
B2 B1 1_555 1_555
H2 B2 1_555 1_555
B3 B2 1_555 1_555
H3 B3 1_555 1_555
B4 B3 1_555 1_555
H4 B4 1_555 1_555
B5 B1 1_555 1_555
H5 B5 1_555 1_555
B6 B1 1_555 1_555
H6 B6 1_555 1_555
B7 B2 1_555 1_555
H7 B7 1_555 1_555
B8 B3 1_555 1_555
H8 B8 1_555 1_555
B9 B4 1_555 1_555
H9 B9 1_555 1_555
B10 B5 1_555 1_555
H10 B10 1_555 1_555
C1 C2 1_555 1_555
C2 C3 1_555 1_555
C3 C4 1_555 1_555
C4 H11 1_555 1_555
C5 C4 1_555 1_555
H12 C5 1_555 1_555
C6 C5 1_555 1_555
C7 C6 1_555 1_555
H13 C7 1_555 1_555
C8 C3 1_555 1_555
H14 C8 1_555 1_555
C9 B1 1_555 1_555
C10 B1 1_555 1_555
C11 C10 1_555 1_555
H15 C11 1_555 1_555
H16 C11 1_555 1_555
H17 C11 1_555 1_555
C12 C1 1_555 1_555
C13 C12 1_555 1_555
H18 C13 1_555 1_555
C14 C13 1_555 1_555
H19 C14 1_555 1_555
C15 C14 1_555 1_555
H20 C15 1_555 1_555
C16 C15 1_555 1_555
H21 C16 1_555 1_555
C17 C12 1_555 1_555
H22 C17 1_555 1_555
C18 C1 1_555 1_555
C19 C18 1_555 1_555
H23 C19 1_555 1_555
C20 C19 1_555 1_555
H24 C20 1_555 1_555
C21 C20 1_555 1_555
H25 C21 1_555 1_555
C22 C21 1_555 1_555
H26 C22 1_555 1_555
C23 C18 1_555 1_555
H27 C23 1_555 1_555
C24 C2 1_555 1_555
C25 C24 1_555 1_555
H28 C25 1_555 1_555
C26 C25 1_555 1_555
H29 C26 1_555 1_555
C27 C26 1_555 1_555
H30 C27 1_555 1_555
C28 C27 1_555 1_555
H31 C28 1_555 1_555
C29 C24 1_555 1_555
H32 C29 1_555 1_555
B2 B6 1_555 1_555
B2 C9 1_555 1_555
B3 B7 1_555 1_555
B3 C9 1_555 1_555
B4 B8 1_555 1_555
B4 C9 1_555 1_555
B4 C10 1_555 1_555
B5 B6 1_555 1_555
B5 B9 1_555 1_555
B5 C10 1_555 1_555
B6 B7 1_555 1_555
B6 B10 1_555 1_555
B7 B8 1_555 1_555
B7 B10 1_555 1_555
B8 B9 1_555 1_555
B8 B10 1_555 1_555
B9 B10 1_555 1_555
B9 C10 1_555 1_555
C6 C9 1_555 1_555
C7 C8 1_555 1_555
C9 C10 1_555 1_555
C16 C17 1_555 1_555
C22 C23 1_555 1_555
C28 C29 1_555 1_555

#END
