
#######################################################################
#
#                 Cambridge Crystallographic Data Centre
#                                CCDC 
#
#######################################################################
#
# If this CIF has been generated from an entry in the Cambridge 
# Structural Database, then it will include bibliographic, chemical, 
# crystal, experimental, refinement or atomic coordinate data resulting 
# from the CCDC's data processing and validation procedures.
#
#######################################################################

data_ACIJEC
_chemical_name_common            Vigabatrin
_chemical_formula_moiety         'C6 H11 N1 O2'
_chemical_name_systematic        4-Ammoniohex-5-enoate
_chemical_properties_biological  
'antiepileptic agent; irreversible inhibitor of GABA transaminase'
_symmetry_cell_setting           orthorhombic
_symmetry_space_group_name_H-M   'F d d 2'
_symmetry_Int_Tables_number      43
_space_group_name_Hall           'F 2 -2d'
loop_
_symmetry_equiv_pos_site_id
_symmetry_equiv_pos_as_xyz
1 x,y,z
2 -x,-y,z
3 1/4-x,1/4+y,1/4+z
4 3/4+x,3/4-y,1/4+z
5 x,1/2+y,1/2+z
6 -x,1/2-y,1/2+z
7 1/4-x,3/4+y,3/4+z
8 3/4+x,1/4-y,3/4+z
9 1/2+x,y,1/2+z
10 1/2-x,-y,1/2+z
11 3/4-x,1/4+y,3/4+z
12 1/4+x,3/4-y,3/4+z
13 1/2+x,1/2+y,z
14 1/2-x,1/2-y,z
15 3/4-x,3/4+y,1/4+z
16 1/4+x,1/4-y,1/4+z
_cell_length_a                   16.471(2)
_cell_length_b                   22.717(3)
_cell_length_c                   7.2027(7)
_cell_angle_alpha                90
_cell_angle_beta                 90
_cell_angle_gamma                90
_cell_volume                     2695.05
_exptl_crystal_colour            colorless
_cell_formula_units_Z            16
_exptl_crystal_recrystallization_method water
loop_
_atom_site_label
_atom_site_type_symbol
_atom_site_fract_x
_atom_site_fract_y
_atom_site_fract_z
O1 O 0.6179(2) 0.1477(1) 0.138(1)
O2 O 0.5380(2) 0.2143(1) 0.264(1)
N1 N 0.5067(3) 0.1703(2) 0.8446(7)
C1 C 0.5991(3) 0.1815(2) 0.2658(8)
C2 C 0.6539(3) 0.1832(3) 0.4361(7)
C3 C 0.6114(3) 0.1962(2) 0.6191(7)
C4 C 0.5433(3) 0.1547(2) 0.6600(7)
C5 C 0.5675(3) 0.0914(2) 0.651(1)
C6 C 0.5732(3) 0.0548(2) 0.781(1)
loop_
_geom_bond_atom_site_label_1
_geom_bond_atom_site_label_2
_geom_bond_site_symmetry_1
_geom_bond_site_symmetry_2
O1 C1 1_555 1_555
O2 C1 1_555 1_555
N1 C4 1_555 1_555
C1 C2 1_555 1_555
C2 C3 1_555 1_555
C3 C4 1_555 1_555
C4 C5 1_555 1_555
C5 C6 1_555 1_555

#END
