
#######################################################################
#
#                 Cambridge Crystallographic Data Centre
#                                CCDC 
#
#######################################################################
#
# If this CIF has been generated from an entry in the Cambridge 
# Structural Database, then it will include bibliographic, chemical, 
# crystal, experimental, refinement or atomic coordinate data resulting 
# from the CCDC's data processing and validation procedures.
#
#######################################################################

data_ACIWEP
_chemical_formula_moiety         'C16 H36 N1 1+,C16 H14 N4 O2,F1 1-'
_chemical_name_systematic        
"Tetra-n-butylammonium N,N'-bis((1H-pyrrol-2-yl)carbonyl)-o-phenylenediamine fluoride"
_symmetry_cell_setting           triclinic
_symmetry_space_group_name_H-M   'P -1'
_symmetry_Int_Tables_number      2
_space_group_name_Hall           '-P 1'
loop_
_symmetry_equiv_pos_site_id
_symmetry_equiv_pos_as_xyz
1 x,y,z
2 -x,-y,-z
_cell_length_a                   12.07(3)
_cell_length_b                   16.80(3)
_cell_length_c                   17.13(3)
_cell_angle_alpha                72.25(16)
_cell_angle_beta                 74.7(2)
_cell_angle_gamma                71.82(14)
_cell_volume                     3087.91
_exptl_crystal_colour            colorless
_exptl_crystal_description       block
_cell_formula_units_Z            4
_exptl_crystal_recrystallization_method acetonitrile
loop_
_atom_site_label
_atom_site_type_symbol
_atom_site_fract_x
_atom_site_fract_y
_atom_site_fract_z
F1 F 0.41426(15) 0.38611(11) 0.18065(11)
F2 F -0.07801(15) 0.88576(12) 0.17828(11)
N1 N 0.1676(2) 0.53028(16) -0.03956(16)
H1 H 0.0934 0.5387 -0.0436
N2 N 0.2001(2) 0.38029(16) 0.16483(16)
H2 H 0.2724 0.3830 0.1631
N3 N 0.2562(2) 0.35511(16) 0.32071(16)
H3 H 0.3146 0.3622 0.2779
N4 N 0.4179(2) 0.45391(17) 0.30092(18)
H4 H 0.4231 0.4393 0.2547
O1 O 0.04443(19) 0.43339(14) 0.09595(14)
O2 O 0.1758(2) 0.37958(15) 0.45185(15)
C1 C 0.2480(3) 0.5681(2) -0.0980(2)
H5 H 0.2339 0.6077 -0.1496
C2 C 0.3520(3) 0.5398(2) -0.0700(2)
H6 H 0.4237 0.5559 -0.0986
C3 C 0.3350(3) 0.4819(2) 0.0091(2)
H7 H 0.3928 0.4523 0.0434
C4 C 0.2188(3) 0.4766(2) 0.02734(19)
C5 C 0.1475(3) 0.4287(2) 0.09763(19)
C6 C 0.1470(3) 0.3258(2) 0.2375(2)
C7 C 0.0690(3) 0.2828(2) 0.2324(2)
H8 H 0.0497 0.2899 0.1800
C8 C 0.0191(3) 0.2295(2) 0.3030(2)
H9 H -0.0368 0.2024 0.2990
C9 C 0.0498(3) 0.2152(2) 0.3794(2)
H10 H 0.0163 0.1776 0.4273
C10 C 0.1289(3) 0.2556(2) 0.3856(2)
H11 H 0.1514 0.2450 0.4377
C11 C 0.1765(3) 0.3124(2) 0.3153(2)
C12 C 0.2509(3) 0.3869(2) 0.3872(2)
C13 C 0.3401(3) 0.4334(2) 0.3752(2)
C14 C 0.3587(3) 0.4681(2) 0.4319(2)
H12 H 0.3175 0.4648 0.4879
C15 C 0.4502(3) 0.5095(2) 0.3916(3)
H13 H 0.4831 0.5389 0.4156
C16 C 0.4840(3) 0.5000(2) 0.3113(2)
H14 H 0.5441 0.5221 0.2700
N5 N 0.0398(2) 0.62789(16) 0.24160(17)
C17 C -0.0369(3) 0.6866(2) 0.1773(2)
H15 H -0.0205 0.7443 0.1600
H16 H -0.1214 0.6936 0.2047
C18 C -0.0180(3) 0.6545(2) 0.0989(2)
H17 H 0.0587 0.6620 0.0627
H18 H -0.0155 0.5922 0.1149
C19 C -0.1192(3) 0.7053(2) 0.0512(2)
H19 H -0.1345 0.7675 0.0482
H20 H -0.0945 0.6979 -0.0066
C20 C -0.2328(3) 0.6768(3) 0.0913(2)
H21 H -0.2947 0.7114 0.0587
H22 H -0.2584 0.6848 0.1482
H23 H -0.2188 0.6156 0.0930
C21 C 0.0034(3) 0.5435(2) 0.2843(2)
H24 H 0.0627 0.5053 0.3188
H25 H 0.0072 0.5149 0.2406
C22 C -0.1193(3) 0.5509(2) 0.3395(2)
H26 H -0.1776 0.5997 0.3112
H27 H -0.1181 0.5621 0.3927
C23 C -0.1555(3) 0.4666(2) 0.3568(2)
H28 H -0.0884 0.4171 0.3727
H29 H -0.2231 0.4646 0.4044
C24 C -0.1907(3) 0.4579(2) 0.2818(2)
H30 H -0.2134 0.4034 0.2956
H31 H -0.1234 0.4584 0.2349
H32 H -0.2580 0.5062 0.2663
C25 C 0.1686(3) 0.6033(2) 0.1992(2)
H33 H 0.1729 0.5760 0.1544
H34 H 0.2138 0.5592 0.2406
C26 C 0.2296(3) 0.6765(2) 0.1616(2)
H35 H 0.2413 0.6970 0.2065
H36 H 0.1797 0.7255 0.1266
C27 C 0.3501(3) 0.6440(2) 0.1083(2)
H37 H 0.3920 0.5878 0.1403
H38 H 0.3368 0.6344 0.0576
C28 C 0.4274(3) 0.7067(2) 0.0828(2)
H39 H 0.5031 0.6832 0.0490
H40 H 0.4422 0.7154 0.1328
H41 H 0.3870 0.7621 0.0501
C29 C 0.0228(3) 0.6788(2) 0.3053(2)
H42 H -0.0626 0.6935 0.3302
H43 H 0.0452 0.7337 0.2756
C30 C 0.0926(3) 0.6340(2) 0.3757(2)
H44 H 0.1764 0.6092 0.3524
H45 H 0.0590 0.5863 0.4141
C31 C 0.0866(3) 0.6990(3) 0.4233(2)
H46 H 0.0028 0.7312 0.4368
H47 H 0.1139 0.6672 0.4766
C32 C 0.1602(3) 0.7630(3) 0.3760(2)
H48 H 0.1518 0.8029 0.4099
H49 H 0.1328 0.7957 0.3236
H50 H 0.2438 0.7320 0.3639
N6 N -0.3368(2) 1.03184(17) -0.03726(17)
H51 H -0.4103 1.0378 -0.0412
N7 N -0.2998(2) 0.88493(16) 0.16791(16)
H52 H -0.2298 0.8919 0.1662
N8 N -0.2284(2) 0.85382(16) 0.32006(16)
H53 H -0.1749 0.8646 0.2748
N9 N -0.0604(2) 0.94903(17) 0.29834(18)
H54 H -0.0569 0.9349 0.2522
O3 O -0.45395(18) 0.93034(14) 0.09847(14)
O4 O -0.2925(2) 0.86798(16) 0.45511(15)
C33 C 0.0078(3) 0.9943(2) 0.3076(3)
H55 H 0.0672 1.0165 0.2655
C34 C -0.0233(4) 1.0031(2) 0.3886(3)
H56 H 0.0113 1.0317 0.4123
C35 C -0.1151(3) 0.9622(2) 0.4297(2)
H57 H -0.1549 0.9584 0.4860
C36 C -0.1367(3) 0.9284(2) 0.3729(2)
C37 C -0.2251(3) 0.8805(2) 0.3869(2)
C38 C -0.3090(3) 0.8108(2) 0.3168(2)
C39 C -0.3501(3) 0.7504(2) 0.3873(2)
H58 H -0.3229 0.7383 0.4379
C40 C -0.4287(3) 0.7092(2) 0.3833(2)
H59 H -0.4566 0.6689 0.4311
C41 C -0.4679(3) 0.7263(2) 0.3094(2)
H60 H -0.5238 0.6983 0.3071
C42 C -0.4258(3) 0.7845(2) 0.2383(2)
H61 H -0.4518 0.7946 0.1876
C43 C -0.3465(3) 0.8273(2) 0.2413(2)
C44 C -0.3524(3) 0.9301(2) 0.1005(2)
C45 C -0.2840(3) 0.9807(2) 0.0296(2)
C46 C -0.1702(3) 0.9898(2) 0.0122(2)
H62 H -0.1127 0.9625 0.0470
C47 C -0.1546(3) 1.0473(2) -0.0675(2)
H63 H -0.0844 1.0656 -0.0960
C48 C -0.2583(3) 1.0716(2) -0.0960(2)
H64 H -0.2731 1.1098 -0.1480
N10 N -0.5542(2) 0.85819(16) 0.74609(17)
C49 C -0.4549(3) 0.8218(2) 0.7968(2)
H65 H -0.4512 0.7600 0.8236
H66 H -0.3784 0.8251 0.7583
C50 C -0.4691(3) 0.8680(2) 0.8642(2)
H67 H -0.4894 0.9313 0.8406
H68 H -0.5348 0.8538 0.9102
C51 C -0.3551(3) 0.8412(2) 0.8982(2)
H69 H -0.3735 0.8544 0.9534
H70 H -0.3225 0.7780 0.9061
C52 C -0.2620(3) 0.8864(3) 0.8411(3)
H71 H -0.1907 0.8672 0.8659
H72 H -0.2932 0.9490 0.8338
H73 H -0.2418 0.8724 0.7868
C53 C -0.6748(3) 0.8697(2) 0.8038(2)
H74 H -0.7375 0.8946 0.7695
H75 H -0.6816 0.9114 0.8360
C54 C -0.6965(3) 0.7858(2) 0.8646(2)
H76 H -0.6982 0.7459 0.8329
H77 H -0.6303 0.7578 0.8956
C55 C -0.8130(3) 0.8021(3) 0.9260(2)
H78 H -0.8200 0.7473 0.9676
H79 H -0.8116 0.8434 0.9563
C56 C -0.9189(4) 0.8371(3) 0.8858(3)
H80 H -0.9907 0.8464 0.9285
H81 H -0.9222 0.7959 0.8571
H82 H -0.9136 0.8921 0.8454
C57 C -0.5390(3) 0.7941(2) 0.6952(2)
H83 H -0.4637 0.7933 0.6542
H84 H -0.5317 0.7357 0.7331
C58 C -0.6389(3) 0.8128(2) 0.6486(2)
H85 H -0.6540 0.8734 0.6154
H86 H -0.7125 0.8046 0.6889
C59 C -0.6049(3) 0.7520(2) 0.5910(2)
H87 H -0.5375 0.7658 0.5464
H88 H -0.5784 0.6919 0.6233
C60 C -0.7071(3) 0.7588(3) 0.5516(2)
H89 H -0.6814 0.7187 0.5153
H90 H -0.7326 0.8179 0.5187
H91 H -0.7735 0.7440 0.5955
C61 C -0.5469(3) 0.9467(2) 0.6887(2)
H92 H -0.5447 0.9841 0.7228
H93 H -0.6205 0.9727 0.6652
C62 C -0.4407(3) 0.9475(2) 0.6163(2)
H94 H -0.4574 0.9317 0.5702
H95 H -0.3699 0.9041 0.6351
C63 C -0.4152(3) 1.0368(2) 0.5847(2)
H96 H -0.3631 1.0406 0.5291
H97 H -0.4908 1.0813 0.5782
C64 C -0.3569(4) 1.0557(3) 0.6421(3)
H98 H -0.3440 1.1139 0.6194
H99 H -0.2805 1.0133 0.6470
H100 H -0.4082 1.0524 0.6973
loop_
_geom_bond_atom_site_label_1
_geom_bond_atom_site_label_2
_geom_bond_site_symmetry_1
_geom_bond_site_symmetry_2
N1 H1 1_555 1_555
N2 H2 1_555 1_555
N3 H3 1_555 1_555
N4 H4 1_555 1_555
O1 C5 1_555 1_555
O2 C12 1_555 1_555
C1 N1 1_555 1_555
H5 C1 1_555 1_555
C2 C1 1_555 1_555
H6 C2 1_555 1_555
C3 C2 1_555 1_555
H7 C3 1_555 1_555
C4 N1 1_555 1_555
C5 N2 1_555 1_555
C6 N2 1_555 1_555
C7 C6 1_555 1_555
H8 C7 1_555 1_555
C8 C7 1_555 1_555
H9 C8 1_555 1_555
C9 C8 1_555 1_555
H10 C9 1_555 1_555
C10 C9 1_555 1_555
H11 C10 1_555 1_555
C11 N3 1_555 1_555
C12 N3 1_555 1_555
C13 N4 1_555 1_555
C14 C13 1_555 1_555
H12 C14 1_555 1_555
C15 C14 1_555 1_555
H13 C15 1_555 1_555
C16 N4 1_555 1_555
H14 C16 1_555 1_555
N5 C17 1_555 1_555
C17 H15 1_555 1_555
H16 C17 1_555 1_555
C18 C17 1_555 1_555
H17 C18 1_555 1_555
H18 C18 1_555 1_555
C19 C18 1_555 1_555
H19 C19 1_555 1_555
H20 C19 1_555 1_555
C20 C19 1_555 1_555
H21 C20 1_555 1_555
H22 C20 1_555 1_555
H23 C20 1_555 1_555
C21 N5 1_555 1_555
H24 C21 1_555 1_555
H25 C21 1_555 1_555
C22 C21 1_555 1_555
H26 C22 1_555 1_555
H27 C22 1_555 1_555
C23 C22 1_555 1_555
H28 C23 1_555 1_555
H29 C23 1_555 1_555
C24 C23 1_555 1_555
H30 C24 1_555 1_555
H31 C24 1_555 1_555
H32 C24 1_555 1_555
C25 N5 1_555 1_555
H33 C25 1_555 1_555
H34 C25 1_555 1_555
C26 C25 1_555 1_555
H35 C26 1_555 1_555
H36 C26 1_555 1_555
C27 C26 1_555 1_555
H37 C27 1_555 1_555
H38 C27 1_555 1_555
C28 C27 1_555 1_555
H39 C28 1_555 1_555
H40 C28 1_555 1_555
H41 C28 1_555 1_555
C29 N5 1_555 1_555
H42 C29 1_555 1_555
H43 C29 1_555 1_555
C30 C29 1_555 1_555
H44 C30 1_555 1_555
H45 C30 1_555 1_555
C31 C30 1_555 1_555
H46 C31 1_555 1_555
H47 C31 1_555 1_555
C32 C31 1_555 1_555
H48 C32 1_555 1_555
H49 C32 1_555 1_555
H50 C32 1_555 1_555
N6 H51 1_555 1_555
N7 H52 1_555 1_555
N8 H53 1_555 1_555
N9 H54 1_555 1_555
O3 C44 1_555 1_555
O4 C37 1_555 1_555
C33 N9 1_555 1_555
H55 C33 1_555 1_555
C34 C33 1_555 1_555
H56 C34 1_555 1_555
C35 C34 1_555 1_555
H57 C35 1_555 1_555
C36 N9 1_555 1_555
C37 N8 1_555 1_555
C38 N8 1_555 1_555
C39 C38 1_555 1_555
H58 C39 1_555 1_555
C40 C39 1_555 1_555
H59 C40 1_555 1_555
C41 C40 1_555 1_555
H60 C41 1_555 1_555
C42 C41 1_555 1_555
H61 C42 1_555 1_555
C43 N7 1_555 1_555
C44 N7 1_555 1_555
C45 N6 1_555 1_555
C46 C45 1_555 1_555
H62 C46 1_555 1_555
C47 C46 1_555 1_555
H63 C47 1_555 1_555
C48 N6 1_555 1_555
H64 C48 1_555 1_555
N10 C49 1_555 1_555
C49 H65 1_555 1_555
H66 C49 1_555 1_555
C50 C49 1_555 1_555
H67 C50 1_555 1_555
H68 C50 1_555 1_555
C51 C50 1_555 1_555
H69 C51 1_555 1_555
H70 C51 1_555 1_555
C52 C51 1_555 1_555
H71 C52 1_555 1_555
H72 C52 1_555 1_555
H73 C52 1_555 1_555
C53 N10 1_555 1_555
H74 C53 1_555 1_555
H75 C53 1_555 1_555
C54 C53 1_555 1_555
H76 C54 1_555 1_555
H77 C54 1_555 1_555
C55 C54 1_555 1_555
H78 C55 1_555 1_555
H79 C55 1_555 1_555
C56 C55 1_555 1_555
H80 C56 1_555 1_555
H81 C56 1_555 1_555
H82 C56 1_555 1_555
C57 N10 1_555 1_555
H83 C57 1_555 1_555
H84 C57 1_555 1_555
C58 C57 1_555 1_555
H85 C58 1_555 1_555
H86 C58 1_555 1_555
C59 C58 1_555 1_555
H87 C59 1_555 1_555
H88 C59 1_555 1_555
C60 C59 1_555 1_555
H89 C60 1_555 1_555
H90 C60 1_555 1_555
H91 C60 1_555 1_555
C61 N10 1_555 1_555
H92 C61 1_555 1_555
H93 C61 1_555 1_555
C62 C61 1_555 1_555
H94 C62 1_555 1_555
H95 C62 1_555 1_555
C63 C62 1_555 1_555
H96 C63 1_555 1_555
H97 C63 1_555 1_555
C64 C63 1_555 1_555
H98 C64 1_555 1_555
H99 C64 1_555 1_555
H100 C64 1_555 1_555
C3 C4 1_555 1_555
C4 C5 1_555 1_555
C6 C11 1_555 1_555
C10 C11 1_555 1_555
C12 C13 1_555 1_555
C15 C16 1_555 1_555
C35 C36 1_555 1_555
C36 C37 1_555 1_555
C38 C43 1_555 1_555
C42 C43 1_555 1_555
C44 C45 1_555 1_555
C47 C48 1_555 1_555

#END
