
#######################################################################
#
#                 Cambridge Crystallographic Data Centre
#                                CCDC 
#
#######################################################################
#
# If this CIF has been generated from an entry in the Cambridge 
# Structural Database, then it will include bibliographic, chemical, 
# crystal, experimental, refinement or atomic coordinate data resulting 
# from the CCDC's data processing and validation procedures.
#
#######################################################################

data_ACIYES
_chemical_formula_moiety         'C28 H25 F1 N2 O1,C1 H1 Cl3'
_chemical_name_systematic        
'(S)-(aR)-3-(2-Fluorophenyl)-1-(2-methoxy-1-naphthyl)-5,7,8,9,9a,10-hexahydropyrrolo[1,2-b][2,6]naphthyridine chloroform solvate'
_symmetry_cell_setting           orthorhombic
_symmetry_space_group_name_H-M   'P 21 21 21'
_symmetry_Int_Tables_number      19
_space_group_name_Hall           'P 2ac 2ab'
loop_
_symmetry_equiv_pos_site_id
_symmetry_equiv_pos_as_xyz
1 x,y,z
2 1/2+x,1/2-y,-z
3 -x,1/2+y,1/2-z
4 1/2-x,-y,1/2+z
_cell_length_a                   7.6323(1)
_cell_length_b                   17.2920(2)
_cell_length_c                   19.5494(2)
_cell_angle_alpha                90
_cell_angle_beta                 90
_cell_angle_gamma                90
_cell_volume                     2580.09
_exptl_crystal_colour            colorless
_exptl_crystal_description       prism
_chemical_melting_point          '117-118 deg.C'
_cell_formula_units_Z            4
loop_
_atom_site_label
_atom_site_type_symbol
_atom_site_fract_x
_atom_site_fract_y
_atom_site_fract_z
C1 C 0.3535(3) 0.29490(12) 0.25333(9)
H1 H 0.2333 0.2920 0.2344
H2 H 0.4272 0.3259 0.2219
C2 C 0.4302(3) 0.21386(11) 0.26280(9)
H3 H 0.3746 0.1763 0.2313
H4 H 0.5584 0.2138 0.2551
C3 C 0.3865(2) 0.19550(9) 0.33684(8)
H5 H 0.2599 0.1813 0.3407
C4 C 0.4969(2) 0.13495(9) 0.37220(8)
H6 H 0.6223 0.1449 0.3628
H7 H 0.4673 0.0832 0.3539
C5 C 0.4651(2) 0.13643(9) 0.44863(8)
C6 C 0.5063(2) 0.07311(9) 0.49040(8)
C7 C 0.5929(2) 0.00264(9) 0.46262(7)
C8 C 0.5037(2) -0.06988(9) 0.46184(7)
C9 C 0.3286(2) -0.07843(9) 0.48594(8)
H8 H 0.2693 -0.0351 0.5049
C10 C 0.2448(2) -0.14822(10) 0.48208(8)
H9 H 0.1279 -0.1528 0.4983
C11 C 0.3296(3) -0.21345(10) 0.45438(9)
H10 H 0.2705 -0.2617 0.4523
C12 C 0.3516(2) 0.33096(10) 0.32540(9)
H11 H 0.4288 0.3769 0.3273
H12 H 0.2314 0.3465 0.3385
C13 C 0.3405(2) 0.27182(10) 0.43904(8)
H13 H 0.2115 0.2761 0.4352
H14 H 0.3839 0.3181 0.4636
C14 C 0.3862(2) 0.20020(9) 0.47947(8)
C15 C 0.3436(2) 0.19647(9) 0.54872(8)
H15 H 0.2871 0.2389 0.5703
C16 C 0.3840(2) 0.13082(9) 0.58583(8)
C17 C 0.7624(2) 0.00691(9) 0.43750(8)
C18 C 1.0054(3) 0.08861(11) 0.41027(11)
H16 H 1.0930 0.0559 0.4328
H17 H 1.0401 0.1430 0.4144
H18 H 0.9974 0.0746 0.3618
C19 C 0.8468(2) -0.05900(10) 0.41073(8)
H19 H 0.9627 -0.0551 0.3934
C20 C 0.7616(2) -0.12842(10) 0.40981(8)
H20 H 0.8202 -0.1727 0.3924
C21 C 0.5884(2) -0.13582(9) 0.43416(8)
C22 C 0.4958(3) -0.20706(9) 0.43079(8)
H21 H 0.5516 -0.2511 0.4116
C23 C 0.3373(2) 0.11940(9) 0.65905(8)
C24 C 0.2784(2) 0.04721(10) 0.68110(8)
H22 H 0.2673 0.0064 0.6489
C25 C 0.2358(3) 0.03377(11) 0.74895(9)
H23 H 0.1950 -0.0157 0.7628
C26 C 0.2527(3) 0.09264(11) 0.79662(8)
H24 H 0.2230 0.0836 0.8431
C27 C 0.3129(2) 0.16451(12) 0.77658(9)
H25 H 0.3275 0.2048 0.8091
C28 C 0.3513(2) 0.17658(10) 0.70841(8)
F1 F 0.40969(15) 0.24766(6) 0.68981(5)
N1 N 0.41702(18) 0.26960(8) 0.37083(7)
N2 N 0.46748(17) 0.07009(8) 0.55748(6)
O1 O 0.84101(15) 0.07765(7) 0.44177(6)
C29 C 0.6793(3) 0.94771(11) 0.65413(10)
H26 H 0.6165 0.9898 0.6291
Cl1 Cl 0.87490(8) 0.92673(4) 0.60973(3)
Cl2 Cl 0.72665(8) 0.98078(3) 0.73722(3)
Cl3 Cl 0.54289(9) 0.86599(3) 0.65656(4)
loop_
_geom_bond_atom_site_label_1
_geom_bond_atom_site_label_2
_geom_bond_site_symmetry_1
_geom_bond_site_symmetry_2
C1 H1 1_555 1_555
H2 C1 1_555 1_555
C2 C1 1_555 1_555
H3 C2 1_555 1_555
H4 C2 1_555 1_555
C3 C2 1_555 1_555
H5 C3 1_555 1_555
C4 C3 1_555 1_555
H6 C4 1_555 1_555
H7 C4 1_555 1_555
C5 C4 1_555 1_555
C6 C5 1_555 1_555
C7 C6 1_555 1_555
C8 C7 1_555 1_555
C9 C8 1_555 1_555
H8 C9 1_555 1_555
C10 C9 1_555 1_555
H9 C10 1_555 1_555
C11 C10 1_555 1_555
H10 C11 1_555 1_555
C12 C1 1_555 1_555
H11 C12 1_555 1_555
H12 C12 1_555 1_555
C13 H13 1_555 1_555
H14 C13 1_555 1_555
C14 C5 1_555 1_555
C15 C14 1_555 1_555
H15 C15 1_555 1_555
C16 C15 1_555 1_555
C17 C7 1_555 1_555
C18 H16 1_555 1_555
H17 C18 1_555 1_555
H18 C18 1_555 1_555
C19 C17 1_555 1_555
H19 C19 1_555 1_555
C20 C19 1_555 1_555
H20 C20 1_555 1_555
C21 C8 1_555 1_555
C22 C11 1_555 1_555
H21 C22 1_555 1_555
C23 C16 1_555 1_555
C24 C23 1_555 1_555
H22 C24 1_555 1_555
C25 C24 1_555 1_555
H23 C25 1_555 1_555
C26 C25 1_555 1_555
H24 C26 1_555 1_555
C27 C26 1_555 1_555
H25 C27 1_555 1_555
C28 C23 1_555 1_555
C29 H26 1_555 1_555
Cl1 C29 1_555 1_555
Cl2 C29 1_555 1_555
Cl3 C29 1_555 1_555
F1 C28 1_555 1_555
N1 C3 1_555 1_555
N2 C6 1_555 1_555
O1 C17 1_555 1_555
C12 N1 1_555 1_555
C13 C14 1_555 1_555
C13 N1 1_555 1_555
C16 N2 1_555 1_555
C18 O1 1_555 1_555
C20 C21 1_555 1_555
C21 C22 1_555 1_555
C27 C28 1_555 1_555

#END
