
#######################################################################
#
#                 Cambridge Crystallographic Data Centre
#                                CCDC 
#
#######################################################################
#
# If this CIF has been generated from an entry in the Cambridge 
# Structural Database, then it will include bibliographic, chemical, 
# crystal, experimental, refinement or atomic coordinate data resulting 
# from the CCDC's data processing and validation procedures.
#
#######################################################################

data_ACLACT
_chemical_name_common            'N-Acetyl-lactosamine monohydrate'
_chemical_formula_moiety         'C14 H25 N1 O11,H2 O1'
_chemical_name_systematic        
'2-Acetamido-2-deoxy-4-(O-\b-D-galactopyranosyl)-\a-D-glucopyranose monohydrate'
_symmetry_cell_setting           orthorhombic
_symmetry_space_group_name_H-M   'P 21 21 21'
_symmetry_Int_Tables_number      19
_space_group_name_Hall           'P 2ac 2ab'
loop_
_symmetry_equiv_pos_site_id
_symmetry_equiv_pos_as_xyz
1 x,y,z
2 1/2+x,1/2-y,-z
3 -x,1/2+y,1/2-z
4 1/2-x,-y,1/2+z
_cell_length_a                   26.004(9)
_cell_length_b                   13.790(5)
_cell_length_c                   5.020(3)
_cell_angle_alpha                90
_cell_angle_beta                 90
_cell_angle_gamma                90
_cell_volume                     1800.15
_cell_formula_units_Z            4
loop_
_atom_site_label
_atom_site_type_symbol
_atom_site_fract_x
_atom_site_fract_y
_atom_site_fract_z
O1 O 0.83850 0.43810 -0.66180
H1 H 0.81500 0.41500 -0.68000
H2 H 0.84600 0.44900 -0.78400
C1 C 1.09420 0.16190 -0.27880
C2 C 1.08470 0.05340 -0.28520
C3 C 1.04990 0.02820 -0.51780
C4 C 1.00260 0.09180 -0.52680
C5 C 1.01660 0.19750 -0.50750
C6 C 0.97160 0.26520 -0.48500
O2 O 1.12130 0.18470 -0.04600
O3 O 1.13140 0.00150 -0.31140
O4 O 1.03640 -0.07200 -0.50330
O5 O 0.96780 0.06830 -0.31430
O6 O 1.04760 0.21310 -0.26930
O7 O 0.98810 0.36280 -0.50240
C7 C 1.21540 0.41160 0.21190
C8 C 1.16430 0.44170 0.10070
C9 C 1.12730 0.35750 0.05970
C10 C 1.15400 0.26950 -0.05750
C11 C 1.20390 0.24620 0.09030
C12 C 1.23440 0.16400 -0.02470
C13 C 1.15600 0.60740 0.27300
C14 C 1.13400 0.67280 0.48920
N1 N 1.13960 0.51650 0.26760
O8 O 1.20750 0.39280 0.49410
O9 O 1.08670 0.39210 -0.10980
O10 O 1.23560 0.32980 0.08370
O11 O 1.25330 0.18410 -0.28990
O12 O 1.18860 0.63830 0.11710
H3 H 1.11800 0.16900 -0.41700
H4 H 1.06800 0.03900 -0.17900
H5 H 1.07100 0.03800 -0.64300
H6 H 0.98500 0.08100 -0.64900
H7 H 1.04300 0.22100 -0.64100
H8 H 0.95900 0.24200 -0.32600
H9 H 0.93800 0.26100 -0.63500
H10 H 1.14700 0.04700 -0.31000
H11 H 1.06200 -0.09600 -0.47100
H12 H 0.96800 0.00000 -0.33000
H13 H 0.98700 0.39200 -0.38300
H14 H 1.25000 0.46700 0.22900
H15 H 1.16900 0.47300 -0.09700
H16 H 1.11200 0.33900 0.24800
H17 H 1.17000 0.27600 -0.21500
H18 H 1.19200 0.22500 0.29200
H19 H 1.21300 0.10200 -0.07400
H20 H 1.27300 0.16100 0.08600
H21 H 1.15100 0.74000 0.48200
H22 H 1.09400 0.66300 0.49300
H23 H 1.13100 0.62100 0.59000
H24 H 1.25000 0.36000 0.53700
H25 H 1.05900 0.34400 -0.12100
H26 H 1.27600 0.24000 -0.27100
H27 H 1.11000 0.50700 0.33100
loop_
_geom_bond_atom_site_label_1
_geom_bond_atom_site_label_2
_geom_bond_site_symmetry_1
_geom_bond_site_symmetry_2
O1 H1 1_555 1_555
H2 O1 1_555 1_555
C1 C2 1_555 1_555
C2 C3 1_555 1_555
C3 C4 1_555 1_555
C4 C5 1_555 1_555
C5 C6 1_555 1_555
C6 O7 1_555 1_555
O2 C1 1_555 1_555
O3 C2 1_555 1_555
O4 C3 1_555 1_555
O5 C4 1_555 1_555
O6 C1 1_555 1_555
O7 H13 1_555 1_555
C7 C8 1_555 1_555
C8 C9 1_555 1_555
C9 C10 1_555 1_555
C10 O2 1_555 1_555
C11 C10 1_555 1_555
C12 C11 1_555 1_555
C13 C14 1_555 1_555
C14 H21 1_555 1_555
N1 C8 1_555 1_555
O8 C7 1_555 1_555
O9 C9 1_555 1_555
O10 C7 1_555 1_555
O11 C12 1_555 1_555
O12 C13 1_555 1_555
H3 C1 1_555 1_555
H4 C2 1_555 1_555
H5 C3 1_555 1_555
H6 C4 1_555 1_555
H7 C5 1_555 1_555
H8 C6 1_555 1_555
H9 C6 1_555 1_555
H10 O3 1_555 1_555
H11 O4 1_555 1_555
H12 O5 1_555 1_555
H14 C7 1_555 1_555
H15 C8 1_555 1_555
H16 C9 1_555 1_555
H17 C10 1_555 1_555
H18 C11 1_555 1_555
H19 C12 1_555 1_555
H20 C12 1_555 1_555
H22 C14 1_555 1_555
H23 C14 1_555 1_555
H24 O8 1_555 1_555
H25 O9 1_555 1_555
H26 O11 1_555 1_555
H27 N1 1_555 1_555
C5 O6 1_555 1_555
C11 O10 1_555 1_555
C13 N1 1_555 1_555

#END
