
#######################################################################
#
#                 Cambridge Crystallographic Data Centre
#                                CCDC 
#
#######################################################################
#
# If this CIF has been generated from an entry in the Cambridge 
# Structural Database, then it will include bibliographic, chemical, 
# crystal, experimental, refinement or atomic coordinate data resulting 
# from the CCDC's data processing and validation procedures.
#
#######################################################################

data_ACMSEU
_chemical_formula_moiety         'C17 H16 O2 Se1'
_chemical_name_systematic        Diacetylmethylene-diphenylselenurane
_symmetry_cell_setting           monoclinic
_symmetry_space_group_name_H-M   'P 21/c'
_symmetry_Int_Tables_number      14
_space_group_name_Hall           '-P 2ybc'
loop_
_symmetry_equiv_pos_site_id
_symmetry_equiv_pos_as_xyz
1 x,y,z
2 -x,1/2+y,1/2-z
3 -x,-y,-z
4 x,1/2-y,1/2+z
_cell_length_a                   13.297(7)
_cell_length_b                   13.418(6)
_cell_length_c                   9.112(5)
_cell_angle_alpha                90
_cell_angle_beta                 111.7(1)
_cell_angle_gamma                90
_cell_volume                     1510.54
_chemical_melting_point          125-6deg.C
_cell_formula_units_Z            4
loop_
_atom_site_label
_atom_site_type_symbol
_atom_site_fract_x
_atom_site_fract_y
_atom_site_fract_z
C1 C 0.10280 -0.44430 -0.28470
C2 C 0.29900 -0.39490 0.35090
C3 C 0.28390 -0.49610 0.33260
C4 C 0.24710 -0.53780 0.18350
C5 C 0.31100 -0.56860 -0.18370
C6 C 0.32820 -0.67270 -0.18960
C7 C 0.37260 -0.48140 -0.18960
C8 C 0.42950 -0.71260 -0.20990
C9 C 0.47520 -0.49060 -0.22170
C10 C 0.01430 -0.40130 -0.26190
C11 C -0.04970 -0.33430 -0.36870
C12 C -0.03080 -0.30880 -0.50220
C13 C 0.05620 -0.35300 -0.52730
C14 C 0.12220 -0.41960 -0.42070
C15 C 0.22680 -0.47710 0.05400
C16 C 0.24130 -0.37470 0.07180
C17 C 0.27720 -0.33450 0.22260
H1 H 0.32300 -0.36300 0.44800
H2 H 0.29100 -0.52800 0.40100
H3 H 0.23800 -0.60700 0.16700
H4 H 0.42000 -0.70100 -0.30900
H5 H 0.49600 -0.70200 -0.10200
H6 H 0.42500 -0.77700 -0.18100
H7 H 0.46300 -0.53000 -0.31800
H8 H 0.52800 -0.52700 -0.13700
H9 H 0.49400 -0.43600 -0.23500
H10 H 0.01700 -0.42800 -0.16400
H11 H -0.09400 -0.31400 -0.35000
H12 H -0.09100 -0.27300 -0.59900
H13 H 0.07100 -0.33400 -0.61700
H14 H 0.17400 -0.44900 -0.42600
H15 H 0.23100 -0.34200 -0.01100
H16 H 0.28200 -0.27600 0.22000
O1 O 0.26630 -0.73350 -0.16870
O2 O 0.34520 -0.39830 -0.16510
Se1 Se 0.18139 -0.54634 -0.14504
loop_
_geom_bond_atom_site_label_1
_geom_bond_atom_site_label_2
_geom_bond_site_symmetry_1
_geom_bond_site_symmetry_2
C1 C10 1_555 1_555
C2 C3 1_555 1_555
C3 C4 1_555 1_555
C4 C15 1_555 1_555
C5 C6 1_555 1_555
C6 C8 1_555 1_555
C7 C5 1_555 1_555
C8 H4 1_555 1_555
C9 C7 1_555 1_555
C10 C11 1_555 1_555
C11 C12 1_555 1_555
C12 C13 1_555 1_555
C13 C14 1_555 1_555
C14 C1 1_555 1_555
C15 C16 1_555 1_555
C16 C17 1_555 1_555
C17 C2 1_555 1_555
H1 C2 1_555 1_555
H2 C3 1_555 1_555
H3 C4 1_555 1_555
H5 C8 1_555 1_555
H6 C8 1_555 1_555
H7 C9 1_555 1_555
H8 C9 1_555 1_555
H9 C9 1_555 1_555
H10 C10 1_555 1_555
H11 C11 1_555 1_555
H12 C12 1_555 1_555
H13 C13 1_555 1_555
H14 C14 1_555 1_555
H15 C16 1_555 1_555
H16 C17 1_555 1_555
O1 C6 1_555 1_555
O2 C7 1_555 1_555
Se1 C1 1_555 1_555
C5 Se1 1_555 1_555
C15 Se1 1_555 1_555

#END
