
#######################################################################
#
#                 Cambridge Crystallographic Data Centre
#                                CCDC 
#
#######################################################################
#
# If this CIF has been generated from an entry in the Cambridge 
# Structural Database, then it will include bibliographic, chemical, 
# crystal, experimental, refinement or atomic coordinate data resulting 
# from the CCDC's data processing and validation procedures.
#
#######################################################################

data_ACNPHA
_chemical_formula_moiety         'C16 H15 I1 O6'
_chemical_name_systematic        
Methyl-4-acetoxy-8-iodo-5,7-dimethoxy-2-naphthoate
_symmetry_cell_setting           monoclinic
_symmetry_space_group_name_H-M   'P 21/a'
_symmetry_Int_Tables_number      14
_space_group_name_Hall           '-P 2yab'
loop_
_symmetry_equiv_pos_site_id
_symmetry_equiv_pos_as_xyz
1 x,y,z
2 1/2-x,1/2+y,-z
3 -x,-y,-z
4 1/2+x,1/2-y,z
_cell_length_a                   7.741(4)
_cell_length_b                   20.586(10)
_cell_length_c                   10.627(6)
_cell_angle_alpha                90
_cell_angle_beta                 101.67(5)
_cell_angle_gamma                90
_cell_volume                     1658.47
_exptl_crystal_colour            colorless
_chemical_melting_point          163deg.C
_cell_formula_units_Z            4
loop_
_atom_site_label
_atom_site_type_symbol
_atom_site_fract_x
_atom_site_fract_y
_atom_site_fract_z
I1 I 0.30840 0.04177 0.09750
C1 C 0.28100 0.05100 0.28000
C2 C 0.28400 -0.00100 0.35800
O1 O 0.32700 -0.05870 0.31000
C3 C 0.34000 -0.11900 0.38400
H1 H 0.37200 -0.16100 0.35200
H2 H 0.22400 -0.12400 0.40900
H3 H 0.43300 -0.10900 0.46400
C4 C 0.25300 0.00000 0.48100
H4 H 0.28800 -0.03200 0.54500
C5 C 0.19700 0.05600 0.53100
O2 O 0.15500 0.06040 0.65000
C6 C 0.17900 0.00400 0.73200
H5 H 0.14800 0.00700 0.81700
H6 H 0.30700 -0.00900 0.74400
H7 H 0.10500 -0.03200 0.68300
C7 C 0.19100 0.11500 0.45700
C8 C 0.13800 0.17600 0.50600
O3 O 0.08000 0.18320 0.62100
C9 C 0.17800 0.18700 0.73600
O4 O 0.34900 0.19140 0.73500
C10 C 0.10200 0.18400 0.84000
C11 C 0.14400 0.23100 0.43700
H8 H 0.13000 0.25900 0.45700
C12 C 0.18800 0.23100 0.31200
C13 C 0.20900 0.29300 0.24800
O5 O 0.19600 0.34300 0.29500
O6 O 0.23200 0.28460 0.12800
C14 C 0.25100 0.34200 0.05600
H9 H 0.26900 0.33800 -0.03500
H10 H 0.35700 0.36700 0.10400
H11 H 0.14400 0.37000 0.05200
C15 C 0.23200 0.17200 0.26700
H12 H 0.22600 0.17200 0.17200
C16 C 0.23200 0.11300 0.33700
loop_
_geom_bond_atom_site_label_1
_geom_bond_atom_site_label_2
_geom_bond_site_symmetry_1
_geom_bond_site_symmetry_2
I1 C1 1_555 1_555
C1 C2 1_555 1_555
C2 O1 1_555 1_555
O1 C3 1_555 1_555
C3 H1 1_555 1_555
H2 C3 1_555 1_555
H3 C3 1_555 1_555
C4 C2 1_555 1_555
H4 C4 1_555 1_555
C5 C4 1_555 1_555
O2 C5 1_555 1_555
C6 O2 1_555 1_555
H5 C6 1_555 1_555
H6 C6 1_555 1_555
H7 C6 1_555 1_555
C7 C5 1_555 1_555
C8 C7 1_555 1_555
O3 C8 1_555 1_555
C9 O3 1_555 1_555
O4 C9 1_555 1_555
C10 C9 1_555 1_555
C11 C8 1_555 1_555
H8 C11 1_555 1_555
C12 C11 1_555 1_555
C13 C12 1_555 1_555
O5 C13 1_555 1_555
O6 C13 1_555 1_555
C14 O6 1_555 1_555
H9 C14 1_555 1_555
H10 C14 1_555 1_555
H11 C14 1_555 1_555
C15 C12 1_555 1_555
H12 C15 1_555 1_555
C16 C1 1_555 1_555
C7 C16 1_555 1_555
C15 C16 1_555 1_555

#END
