
#######################################################################
#
#                 Cambridge Crystallographic Data Centre
#                                CCDC 
#
#######################################################################
#
# If this CIF has been generated from an entry in the Cambridge 
# Structural Database, then it will include bibliographic, chemical, 
# crystal, experimental, refinement or atomic coordinate data resulting 
# from the CCDC's data processing and validation procedures.
#
#######################################################################

data_ACNPHC
_chemical_formula_moiety         'C13 H12 I2 O3'
_chemical_name_systematic        1,6-Di-iodo-2,4,5-trimethoxynaphthalene
_symmetry_cell_setting           monoclinic
_symmetry_space_group_name_H-M   'P 21/n'
_symmetry_Int_Tables_number      14
_space_group_name_Hall           '-P 2yn'
loop_
_symmetry_equiv_pos_site_id
_symmetry_equiv_pos_as_xyz
1 x,y,z
2 1/2-x,1/2+y,1/2-z
3 -x,-y,-z
4 1/2+x,1/2-y,1/2+z
_cell_length_a                   20.489(13)
_cell_length_b                   7.591(3)
_cell_length_c                   21.579(12)
_cell_angle_alpha                90
_cell_angle_beta                 118.98(3)
_cell_angle_gamma                90
_cell_volume                     2935.99
_chemical_melting_point          122-124deg.C
_cell_formula_units_Z            8
loop_
_atom_site_label
_atom_site_type_symbol
_atom_site_fract_x
_atom_site_fract_y
_atom_site_fract_z
I1 I 0.69811 0.49640 0.23917
C1 C 0.70730 0.40930 0.33590
C2 C 0.64180 0.39540 0.34080
O1 O 0.57790 0.44880 0.28120
C3 C 0.50930 0.43150 0.28060
H1 H 0.46800 0.46400 0.23700
H2 H 0.50900 0.49700 0.31800
H3 H 0.50100 0.30700 0.28900
C4 C 0.64400 0.33690 0.40370
H4 H 0.59700 0.32900 0.40500
C5 C 0.70980 0.29490 0.46080
O2 O 0.71390 0.23610 0.52280
C6 C 0.64580 0.24070 0.52580
H5 H 0.65300 0.20200 0.57100
H6 H 0.60800 0.16900 0.49000
H7 H 0.62600 0.36000 0.51900
C7 C 0.77780 0.30180 0.45730
C8 C 0.84870 0.25660 0.51450
O3 O 0.85810 0.20120 0.57910
C9 C 0.86170 0.34060 0.62590
H8 H 0.86900 0.29700 0.67100
H9 H 0.81600 0.41000 0.60700
H10 H 0.90200 0.42200 0.63600
C10 C 0.91220 0.25740 0.50770
I2 I 1.01354 0.16460 0.59038
C11 C 0.91000 0.30570 0.44300
H11 H 0.95500 0.30300 0.43900
C12 C 0.84160 0.35400 0.38840
H12 H 0.83800 0.39700 0.34400
C13 C 0.77470 0.35320 0.39190
I3 I 0.42755 -0.09080 0.32009
C14 C 0.54200 -0.14140 0.37960
C15 C 0.58010 -0.11390 0.34470
O4 O 0.55020 -0.04490 0.27890
C16 C 0.58790 -0.03850 0.24010
H13 H 0.55800 0.01200 0.19300
H14 H 0.59800 -0.16100 0.22900
H15 H 0.63300 0.02000 0.26200
C17 C 0.66050 -0.14260 0.38070
H16 H 0.68900 -0.12100 0.35700
C18 C 0.69620 -0.20010 0.45150
O5 O 0.76990 -0.23400 0.48530
C19 C 0.81500 -0.20300 0.45480
H17 H 0.86600 -0.23900 0.48400
H18 H 0.81500 -0.08200 0.44300
H19 H 0.79600 -0.27000 0.41100
C20 C 0.65360 -0.22430 0.48780
C21 C 0.68620 -0.28350 0.56120
O6 O 0.76340 -0.29740 0.60130
C22 C 0.80540 -0.14320 0.63230
H20 H 0.79800 -0.06200 0.59600
H21 H 0.85900 -0.17000 0.65800
H22 H 0.79300 -0.09100 0.66500
C23 C 0.64200 -0.31750 0.59240
I4 I 0.69271 -0.40080 0.69606
C24 C 0.56680 -0.29410 0.55360
H23 H 0.53500 -0.32000 0.57500
C25 C 0.53330 -0.23850 0.48490
H24 H 0.48000 -0.22700 0.45900
C26 C 0.57550 -0.20310 0.45110
loop_
_geom_bond_atom_site_label_1
_geom_bond_atom_site_label_2
_geom_bond_site_symmetry_1
_geom_bond_site_symmetry_2
I1 C1 1_555 1_555
C1 C2 1_555 1_555
C2 O1 1_555 1_555
O1 C3 1_555 1_555
C3 H1 1_555 1_555
H2 C3 1_555 1_555
H3 C3 1_555 1_555
C4 C2 1_555 1_555
H4 C4 1_555 1_555
C5 C4 1_555 1_555
O2 C5 1_555 1_555
C6 O2 1_555 1_555
H5 C6 1_555 1_555
H6 C6 1_555 1_555
H7 C6 1_555 1_555
C7 C5 1_555 1_555
C8 C7 1_555 1_555
O3 C8 1_555 1_555
C9 O3 1_555 1_555
H8 C9 1_555 1_555
H9 C9 1_555 1_555
H10 C9 1_555 1_555
C10 C8 1_555 1_555
I2 C10 1_555 1_555
C11 C10 1_555 1_555
H11 C11 1_555 1_555
C12 C11 1_555 1_555
H12 C12 1_555 1_555
C13 C1 1_555 1_555
I3 C14 1_555 1_555
C14 C15 1_555 1_555
C15 O4 1_555 1_555
O4 C16 1_555 1_555
C16 H13 1_555 1_555
H14 C16 1_555 1_555
H15 C16 1_555 1_555
C17 C15 1_555 1_555
H16 C17 1_555 1_555
C18 C17 1_555 1_555
O5 C18 1_555 1_555
C19 O5 1_555 1_555
H17 C19 1_555 1_555
H18 C19 1_555 1_555
H19 C19 1_555 1_555
C20 C18 1_555 1_555
C21 C20 1_555 1_555
O6 C21 1_555 1_555
C22 O6 1_555 1_555
H20 C22 1_555 1_555
H21 C22 1_555 1_555
H22 C22 1_555 1_555
C23 C21 1_555 1_555
I4 C23 1_555 1_555
C24 C23 1_555 1_555
H23 C24 1_555 1_555
C25 C24 1_555 1_555
H24 C25 1_555 1_555
C26 C14 1_555 1_555
C7 C13 1_555 1_555
C12 C13 1_555 1_555
C20 C26 1_555 1_555
C25 C26 1_555 1_555

#END
