
#######################################################################
#
#                 Cambridge Crystallographic Data Centre
#                                CCDC 
#
#######################################################################
#
# If this CIF has been generated from an entry in the Cambridge 
# Structural Database, then it will include bibliographic, chemical, 
# crystal, experimental, refinement or atomic coordinate data resulting 
# from the CCDC's data processing and validation procedures.
#
#######################################################################

data_ACONUD
_chemical_formula_moiety         'C20 H20 N1 P1 S1'
_chemical_name_systematic        
'N-(2,6-Dimethylphenyl)-P,P-diphenylphosphinothioic amide'
_symmetry_cell_setting           tetragonal
_symmetry_space_group_name_H-M   'P 41'
_symmetry_Int_Tables_number      76
_space_group_name_Hall           'P 4w'
loop_
_symmetry_equiv_pos_site_id
_symmetry_equiv_pos_as_xyz
1 x,y,z
2 -y,x,1/4+z
3 -x,-y,1/2+z
4 y,-x,3/4+z
_cell_length_a                   11.8572(2)
_cell_length_b                   11.8572(2)
_cell_length_c                   12.3816(3)
_cell_angle_alpha                90
_cell_angle_beta                 90
_cell_angle_gamma                90
_cell_volume                     1740.77
_exptl_crystal_colour            yellow
_exptl_crystal_description       block
_cell_formula_units_Z            4
loop_
_atom_site_label
_atom_site_type_symbol
_atom_site_fract_x
_atom_site_fract_y
_atom_site_fract_z
S1 S 1.04375(5) 0.54488(6) 0.14483(5)
P1 P 0.95714(5) 0.50044(5) 0.01772(5)
N1 N 1.02095(16) 0.53823(17) -0.09620(18)
H1 H 0.9848 0.5284 -0.1557
C1 C 1.13206(19) 0.5861(2) -0.1025(2)
C2 C 1.2237(2) 0.5144(2) -0.12177(18)
C3 C 1.3303(2) 0.5633(3) -0.1346(2)
H2 H 1.3925 0.5174 -0.1472
C4 C 1.3447(2) 0.6791(3) -0.1288(2)
H3 H 1.4157 0.7104 -0.1390
C5 C 1.2533(2) 0.7477(2) -0.1078(2)
H4 H 1.2639 0.8253 -0.1028
C6 C 1.1455(2) 0.7033(2) -0.0940(2)
C7 C 1.2076(2) 0.3896(2) -0.1312(2)
H5 H 1.1605 0.3734 -0.1924
H6 H 1.1723 0.3615 -0.0668
H7 H 1.2795 0.3538 -0.1406
C8 C 1.0473(3) 0.7808(2) -0.0727(3)
H8 H 1.0218 0.7710 0.0003
H9 H 0.9870 0.7633 -0.1217
H10 H 1.0705 0.8576 -0.0832
C9 C 0.81737(19) 0.56176(19) 0.0115(2)
C10 C 0.7451(2) 0.5429(2) 0.0984(2)
H11 H 0.7686 0.4984 0.1561
C11 C 0.6378(2) 0.5905(2) 0.0990(2)
H12 H 0.5899 0.5783 0.1572
C12 C 0.6025(2) 0.6560(2) 0.0128(2)
H13 H 0.5312 0.6887 0.0137
C13 C 0.6732(2) 0.6730(2) -0.0750(2)
H14 H 0.6487 0.7158 -0.1334
C14 C 0.7810(2) 0.6259(2) -0.0756(2)
H15 H 0.8285 0.6375 -0.1343
C15 C 0.92739(19) 0.3500(2) 0.0103(2)
C16 C 0.9346(2) 0.2832(2) 0.1026(3)
H16 H 0.9589 0.3139 0.1676
C17 C 0.9048(3) 0.1692(3) 0.0962(3)
H17 H 0.9097 0.1240 0.1574
C18 C 0.8687(2) 0.1237(2) 0.0007(3)
H18 H 0.8494 0.0478 -0.0026
C19 C 0.8607(2) 0.1900(2) -0.0910(3)
H19 H 0.8359 0.1588 -0.1557
C20 C 0.8900(2) 0.3031(2) -0.0860(2)
H20 H 0.8845 0.3478 -0.1475
loop_
_geom_bond_atom_site_label_1
_geom_bond_atom_site_label_2
_geom_bond_site_symmetry_1
_geom_bond_site_symmetry_2
S1 P1 1_555 1_555
P1 N1 1_555 1_555
N1 H1 1_555 1_555
C1 N1 1_555 1_555
C2 C1 1_555 1_555
C3 C2 1_555 1_555
H2 C3 1_555 1_555
C4 C3 1_555 1_555
H3 C4 1_555 1_555
C5 C4 1_555 1_555
H4 C5 1_555 1_555
C6 C1 1_555 1_555
C7 C2 1_555 1_555
H5 C7 1_555 1_555
H6 C7 1_555 1_555
H7 C7 1_555 1_555
C8 C6 1_555 1_555
H8 C8 1_555 1_555
H9 C8 1_555 1_555
H10 C8 1_555 1_555
C9 P1 1_555 1_555
C10 C9 1_555 1_555
H11 C10 1_555 1_555
C11 C10 1_555 1_555
H12 C11 1_555 1_555
C12 C11 1_555 1_555
H13 C12 1_555 1_555
C13 C12 1_555 1_555
H14 C13 1_555 1_555
C14 C9 1_555 1_555
H15 C14 1_555 1_555
C15 P1 1_555 1_555
C16 C15 1_555 1_555
H16 C16 1_555 1_555
C17 C16 1_555 1_555
H17 C17 1_555 1_555
C18 C17 1_555 1_555
H18 C18 1_555 1_555
C19 C18 1_555 1_555
H19 C19 1_555 1_555
C20 C15 1_555 1_555
H20 C20 1_555 1_555
C5 C6 1_555 1_555
C13 C14 1_555 1_555
C19 C20 1_555 1_555

#END
