
#######################################################################
#
#                 Cambridge Crystallographic Data Centre
#                                CCDC 
#
#######################################################################
#
# If this CIF has been generated from an entry in the Cambridge 
# Structural Database, then it will include bibliographic, chemical, 
# crystal, experimental, refinement or atomic coordinate data resulting 
# from the CCDC's data processing and validation procedures.
#
#######################################################################

data_ACOVEW
_chemical_formula_moiety         'C25 H28 O1 Si1'
_chemical_name_systematic        
t-butyl[2-(2-methoxyphenyl)ethenyl]diphenylsilane
_symmetry_cell_setting           monoclinic
_symmetry_space_group_name_H-M   'P 21/c'
_symmetry_Int_Tables_number      14
_space_group_name_Hall           '-P 2ybc'
loop_
_symmetry_equiv_pos_site_id
_symmetry_equiv_pos_as_xyz
1 x,y,z
2 -x,1/2+y,1/2-z
3 -x,-y,-z
4 x,1/2-y,1/2+z
_cell_length_a                   12.9542(8)
_cell_length_b                   22.6807(12)
_cell_length_c                   7.3450(5)
_cell_angle_alpha                90
_cell_angle_beta                 92.746(2)
_cell_angle_gamma                90
_cell_volume                     2155.56
_exptl_crystal_colour            colorless
_exptl_crystal_description       prism
_cell_formula_units_Z            4
loop_
_atom_site_label
_atom_site_type_symbol
_atom_site_fract_x
_atom_site_fract_y
_atom_site_fract_z
C1 C 0.21925(10) 0.42888(6) 0.71100(18)
C2 C 0.16044(10) 0.40814(6) 0.85420(19)
C3 C 0.16192(10) 0.34867(6) 0.9024(2)
H1 H 0.1222 0.3351 0.9994
C4 C 0.22165(10) 0.30931(6) 0.8082(2)
H2 H 0.2231 0.2689 0.8418
C5 C 0.27909(10) 0.32846(6) 0.6659(2)
H3 H 0.3196 0.3013 0.6013
C6 C 0.27720(10) 0.38769(6) 0.61808(19)
H4 H 0.3164 0.4005 0.5195
O1 O 0.10396(8) 0.44977(4) 0.93977(14)
C7 C 0.05584(13) 0.43231(7) 1.1030(2)
H5 H 0.0043 0.4017 1.074
H6 H 0.0219 0.4665 1.1557
H7 H 0.1084 0.4168 1.1908
C8 C 0.21979(10) 0.49219(6) 0.66183(18)
H8 H 0.1636 0.5157 0.6979
C9 C 0.29328(10) 0.51859(6) 0.57068(19)
H9 H 0.349 0.4942 0.538
Si1 Si 0.30084(3) 0.59729(2) 0.49886(5)
C10 C 0.32007(11) 0.59767(6) 0.24358(19)
C11 C 0.2192(5) 0.5791(4) 0.1340(8)
H10 H 0.234 0.5736 0.0054
H11 H 0.1668 0.6099 0.1443
H12 H 0.1934 0.542 0.1832
C12 C 0.3459(8) 0.6592(3) 0.168(2)
H13 H 0.4122 0.6726 0.2224
H14 H 0.2915 0.6871 0.197
H15 H 0.3504 0.6568 0.0349
C13 C 0.4071(7) 0.5551(3) 0.1997(13)
H16 H 0.4229 0.5591 0.0711
H17 H 0.3852 0.5145 0.2232
H18 H 0.4689 0.5643 0.2767
C14 C 0.41891(10) 0.63045(6) 0.61905(18)
C15 C 0.48553(10) 0.59589(6) 0.73030(19)
H19 H 0.4699 0.5554 0.7465
C16 C 0.57372(10) 0.61923(6) 0.81752(19)
H20 H 0.6175 0.5948 0.8926
C17 C 0.59793(11) 0.67822(7) 0.7949(2)
H21 H 0.6585 0.6942 0.8538
C18 C 0.53336(11) 0.71380(6) 0.6861(2)
H22 H 0.5494 0.7543 0.6709
C19 C 0.44525(10) 0.69012(6) 0.59947(19)
H23 H 0.4017 0.7149 0.5251
C20 C 0.18335(10) 0.63953(6) 0.56586(18)
C21 C 0.08396(10) 0.62697(6) 0.49193(19)
H24 H 0.0748 0.5956 0.4069
C22 C -0.00159(10) 0.65958(7) 0.5407(2)
H25 H -0.0681 0.6508 0.4874
C23 C 0.01008(11) 0.70473(6) 0.6666(2)
H26 H -0.0483 0.7269 0.6996
C24 C 0.10674(11) 0.71755(6) 0.7444(2)
H27 H 0.1149 0.7483 0.8319
C25 C 0.19208(10) 0.68528(6) 0.69382(19)
H28 H 0.2582 0.6945 0.7477
C26? C 0.2446(7) 0.5556(4) 0.1446(11)
H29? H 0.1737 0.5695 0.1583
H30? H 0.2525 0.516 0.1969
H31? H 0.2591 0.5544 0.0149
C27? C 0.3180(10) 0.6595(4) 0.170(3)
H32? H 0.3412 0.6594 0.0449
H33? H 0.3642 0.6845 0.2465
H34? H 0.2475 0.675 0.1707
C28? C 0.4310(6) 0.5722(4) 0.2242(14)
H35? H 0.437 0.5343 0.288
H36? H 0.4821 0.5999 0.2776
H37? H 0.4435 0.5665 0.0949
loop_
_geom_bond_atom_site_label_1
_geom_bond_atom_site_label_2
_geom_bond_site_symmetry_1
_geom_bond_site_symmetry_2
C1 C2 1_555 1_555
C2 C3 1_555 1_555
C3 H1 1_555 1_555
C4 C3 1_555 1_555
H2 C4 1_555 1_555
C5 C4 1_555 1_555
H3 C5 1_555 1_555
C6 C1 1_555 1_555
H4 C6 1_555 1_555
O1 C2 1_555 1_555
C7 O1 1_555 1_555
H5 C7 1_555 1_555
H6 C7 1_555 1_555
H7 C7 1_555 1_555
C8 C1 1_555 1_555
H8 C8 1_555 1_555
C9 C8 1_555 1_555
H9 C9 1_555 1_555
Si1 C9 1_555 1_555
C10 Si1 1_555 1_555
C11 C10 1_555 1_555
H10 C11 1_555 1_555
H11 C11 1_555 1_555
H12 C11 1_555 1_555
C12 C10 1_555 1_555
H13 C12 1_555 1_555
H14 C12 1_555 1_555
H15 C12 1_555 1_555
C13 C10 1_555 1_555
H16 C13 1_555 1_555
H17 C13 1_555 1_555
H18 C13 1_555 1_555
C14 Si1 1_555 1_555
C15 C14 1_555 1_555
H19 C15 1_555 1_555
C16 C15 1_555 1_555
H20 C16 1_555 1_555
C17 C16 1_555 1_555
H21 C17 1_555 1_555
C18 C17 1_555 1_555
H22 C18 1_555 1_555
C19 C14 1_555 1_555
H23 C19 1_555 1_555
C20 Si1 1_555 1_555
C21 C20 1_555 1_555
H24 C21 1_555 1_555
C22 C21 1_555 1_555
H25 C22 1_555 1_555
C23 C22 1_555 1_555
H26 C23 1_555 1_555
C24 C23 1_555 1_555
H27 C24 1_555 1_555
C25 C20 1_555 1_555
H28 C25 1_555 1_555
C5 C6 1_555 1_555
C18 C19 1_555 1_555
C24 C25 1_555 1_555

#END
