
#######################################################################
#
#                 Cambridge Crystallographic Data Centre
#                                CCDC 
#
#######################################################################
#
# If this CIF has been generated from an entry in the Cambridge 
# Structural Database, then it will include bibliographic, chemical, 
# crystal, experimental, refinement or atomic coordinate data resulting 
# from the CCDC's data processing and validation procedures.
#
#######################################################################

data_ACUKIV
_chemical_formula_moiety         'C28 H22 N2 2+,O4 S1 2-,2(H2 O1)'
_chemical_name_systematic        
'4-(2-(10-(2-(4-pyridinio)ethenyl)anthracen-9-yl)ethenyl)pyridinium sulfate dihydrate'
_symmetry_cell_setting           triclinic
_symmetry_space_group_name_H-M   'P -1'
_symmetry_Int_Tables_number      2
_space_group_name_Hall           '-P 1'
loop_
_symmetry_equiv_pos_site_id
_symmetry_equiv_pos_as_xyz
1 x,y,z
2 -x,-y,-z
_cell_length_a                   8.3018(17)
_cell_length_b                   9.4214(19)
_cell_length_c                   16.293(3)
_cell_angle_alpha                83.45(3)
_cell_angle_beta                 77.59(3)
_cell_angle_gamma                85.73(3)
_cell_volume                     1234.81
_exptl_crystal_colour            yellow
_exptl_crystal_description       needle
_cell_formula_units_Z            2
loop_
_atom_site_label
_atom_site_type_symbol
_atom_site_fract_x
_atom_site_fract_y
_atom_site_fract_z
C1 C 1.0288(4) 0.6197(3) 0.8882(2)
H1 H 0.9456 0.6862 0.9086
C2 C 1.0207(4) 0.5534(3) 0.8184(2)
H2 H 0.9311 0.5736 0.7924
C3 C 1.1474(4) 0.4553(3) 0.78644(19)
C4 C 1.2757(4) 0.4268(4) 0.8294(2)
H3 H 1.3615 0.3615 0.8102
C5 C 1.2774(4) 0.4940(4) 0.8998(2)
H4 H 1.3632 0.4732 0.9284
C6 C 1.1472(4) 0.3843(4) 0.7105(2)
H5 H 1.2440 0.3351 0.6865
C7 C 1.0190(4) 0.3856(3) 0.6737(2)
H6 H 0.9229 0.4341 0.6992
C8 C 1.0112(4) 0.3191(3) 0.5971(2)
C9 C 0.8760(4) 0.2354(3) 0.5991(2)
C10 C 0.7523(4) 0.2097(4) 0.6753(2)
H7 H 0.7621 0.2484 0.7239
C11 C 0.6232(5) 0.1310(4) 0.6773(2)
H8 H 0.5435 0.1181 0.7269
C12 C 0.6059(5) 0.0673(5) 0.6055(2)
H9 H 0.5165 0.0117 0.6082
C13 C 0.7201(5) 0.0875(4) 0.5329(2)
H10 H 0.7086 0.0437 0.4863
C14 C 0.8580(4) 0.1740(3) 0.52544(19)
C15 C 0.9771(4) 0.1971(3) 0.44986(19)
C16 C 1.1126(4) 0.2810(3) 0.4472(2)
C17 C 1.2327(4) 0.3085(4) 0.3708(2)
H11 H 1.2279 0.2626 0.3239
C18 C 1.3537(4) 0.4003(4) 0.3656(2)
H12 H 1.4302 0.4174 0.3151
C19 C 1.3639(4) 0.4700(4) 0.4362(2)
H13 H 1.4451 0.5351 0.4315
C20 C 1.2569(4) 0.4431(4) 0.5107(2)
H14 H 1.2671 0.4892 0.5568
C21 C 1.1285(4) 0.3456(3) 0.5206(2)
C22 C 0.9614(4) 0.1366(3) 0.3724(2)
H15 H 1.0486 0.0768 0.3482
C23 C 0.8362(4) 0.1592(3) 0.3347(2)
H16 H 0.7494 0.2196 0.3588
C24 C 0.8195(4) 0.0985(3) 0.25796(19)
C25 C 0.6797(4) 0.1332(4) 0.2244(2)
H17 H 0.5978 0.1963 0.2501
C26 C 0.6617(4) 0.0755(4) 0.1539(2)
H18 H 0.5678 0.0993 0.1317
C27 C 0.9160(4) -0.0497(4) 0.1455(2)
H19 H 0.9964 -0.1118 0.1177
C28 C 0.9394(4) 0.0052(4) 0.2153(2)
H20 H 1.0360 -0.0193 0.2349
N1 N 1.1553(3) 0.5895(3) 0.92707(16)
H21 H 1.1569 0.6372 0.9720
N2 N 0.7794(4) -0.0153(3) 0.11676(17)
H22 H 0.7633 -0.0540 0.0711
O1 O 0.8227(3) 0.2629(3) 0.95038(17)
O2 O 0.6631(3) 0.1204(2) 0.88824(16)
O3 O 0.5291(3) 0.2837(3) 0.98900(14)
O4 O 0.6668(3) 0.3728(2) 0.84970(15)
S1 S 0.66921(10) 0.25996(9) 0.91858(5)
O5 O 0.3734(3) 0.3335(3) 0.15949(17)
H23 H 0.4170 0.3172 0.1090
H24 H 0.3566 0.4235 0.1579
O6 O 0.7400(3) 0.8798(2) 0.97941(14)
H25 H 0.6589 0.8257 0.9877
H26 H 0.7127 0.9521 0.9483
loop_
_geom_bond_atom_site_label_1
_geom_bond_atom_site_label_2
_geom_bond_site_symmetry_1
_geom_bond_site_symmetry_2
C1 H1 1_555 1_555
C2 C1 1_555 1_555
H2 C2 1_555 1_555
C3 C2 1_555 1_555
C4 C3 1_555 1_555
H3 C4 1_555 1_555
C5 C4 1_555 1_555
H4 C5 1_555 1_555
C6 C3 1_555 1_555
H5 C6 1_555 1_555
C7 C6 1_555 1_555
H6 C7 1_555 1_555
C8 C7 1_555 1_555
C9 C8 1_555 1_555
C10 C9 1_555 1_555
H7 C10 1_555 1_555
C11 C10 1_555 1_555
H8 C11 1_555 1_555
C12 C11 1_555 1_555
H9 C12 1_555 1_555
C13 C12 1_555 1_555
H10 C13 1_555 1_555
C14 C9 1_555 1_555
C15 C14 1_555 1_555
C16 C15 1_555 1_555
C17 C16 1_555 1_555
H11 C17 1_555 1_555
C18 C17 1_555 1_555
H12 C18 1_555 1_555
C19 C18 1_555 1_555
H13 C19 1_555 1_555
C20 C19 1_555 1_555
H14 C20 1_555 1_555
C21 C8 1_555 1_555
C22 C15 1_555 1_555
H15 C22 1_555 1_555
C23 C22 1_555 1_555
H16 C23 1_555 1_555
C24 C23 1_555 1_555
C25 C24 1_555 1_555
H17 C25 1_555 1_555
C26 C25 1_555 1_555
H18 C26 1_555 1_555
C27 H19 1_555 1_555
C28 C24 1_555 1_555
H20 C28 1_555 1_555
N1 C1 1_555 1_555
H21 N1 1_555 1_555
N2 C26 1_555 1_555
H22 N2 1_555 1_555
O1 S1 1_555 1_555
O2 S1 1_555 1_555
O3 S1 1_555 1_555
O4 S1 1_555 1_555
O5 H23 1_555 1_555
H24 O5 1_555 1_555
O6 H25 1_555 1_555
H26 O6 1_555 1_555
C5 N1 1_555 1_555
C13 C14 1_555 1_555
C16 C21 1_555 1_555
C20 C21 1_555 1_555
C27 C28 1_555 1_555
C27 N2 1_555 1_555

#END
