
#######################################################################
#
#                 Cambridge Crystallographic Data Centre
#                                CCDC 
#
#######################################################################
#
# If this CIF has been generated from an entry in the Cambridge 
# Structural Database, then it will include bibliographic, chemical, 
# crystal, experimental, refinement or atomic coordinate data resulting 
# from the CCDC's data processing and validation procedures.
#
#######################################################################

data_ACUKUG
_chemical_formula_moiety         'C18 H15 N3'
_chemical_name_systematic        
(1-(6-(Azetidin-1-yl)-2-naphthyl)ethylidene)malononitrile
_symmetry_cell_setting           orthorhombic
_symmetry_space_group_name_H-M   'P 21 21 21'
_symmetry_Int_Tables_number      19
_space_group_name_Hall           'P 2ac 2ab'
loop_
_symmetry_equiv_pos_site_id
_symmetry_equiv_pos_as_xyz
1 x,y,z
2 1/2-x,-y,1/2+z
3 1/2+x,1/2-y,-z
4 -x,1/2+y,1/2-z
_cell_length_a                   7.4671(1)
_cell_length_b                   13.8866(2)
_cell_length_c                   28.0393(5)
_cell_angle_alpha                90
_cell_angle_beta                 90
_cell_angle_gamma                90
_cell_volume                     2907.47
_exptl_crystal_colour            yellow
_exptl_crystal_description       plate
_cell_formula_units_Z            8
loop_
_atom_site_label
_atom_site_type_symbol
_atom_site_fract_x
_atom_site_fract_y
_atom_site_fract_z
N1 N 0.3788(18) 0.3739(8) 0.6312(3)
N2 N 0.373(2) 0.5850(7) 0.7384(3)
N3 N 0.2226(16) 0.6717(6) 0.3388(3)
C1 C 0.3373(13) 0.6903(6) 0.5354(3)
C2 C 0.2887(13) 0.6167(6) 0.5656(3)
C3 C 0.2054(14) 0.5342(6) 0.5451(3)
C4 C 0.1753(13) 0.5275(6) 0.4971(3)
C5 C 0.1934(14) 0.5991(6) 0.4160(3)
C6 C 0.2458(14) 0.6742(6) 0.3872(3)
C7 C 0.3300(13) 0.7569(7) 0.4068(3)
C8 C 0.3583(13) 0.7619(6) 0.4545(3)
C9 C 0.3098(12) 0.6853(6) 0.4856(3)
C10 C 0.2251(12) 0.6029(6) 0.4653(3)
C11 C 0.1455(17) 0.5971(9) 0.3083(3)
C12 C 0.198(2) 0.6622(12) 0.2656(4)
C13 C 0.2789(19) 0.7368(9) 0.3009(3)
C14 C 0.3414(14) 0.5562(7) 0.6479(3)
C15 C 0.3118(13) 0.6282(6) 0.6169(3)
C16 C 0.3586(17) 0.4550(8) 0.6366(3)
C17 C 0.3572(17) 0.5738(8) 0.6982(3)
C18 C 0.2938(16) 0.7287(7) 0.6366(3)
H1 H 0.39503 0.74957 0.54905
H2 H 0.16928 0.47970 0.56650
H3 H 0.11460 0.46877 0.48422
H4 H 0.13391 0.54093 0.40177
H5 H 0.36909 0.81172 0.38540
H6 H 0.41626 0.82097 0.46790
H7 H 0.20914 0.53202 0.31038
H8 H 0.01438 0.58506 0.31376
H9 H 0.28687 0.63273 0.24270
H10 H 0.09295 0.68656 0.24645
H11 H 0.21910 0.80183 0.30134
H12 H 0.41248 0.74732 0.29805
H13 H 0.21350 0.76261 0.60990
H14 H 0.28300 0.74700 0.67240
H15 H 0.41837 0.75319 0.62832
N4 N 0.9074(17) 0.5241(8) 0.6470(3)
N5 N 0.8090(19) 0.3018(8) 0.7457(3)
N6 N 0.7390(15) 0.4531(6) 0.3550(3)
C19 C 0.7472(13) 0.3879(6) 0.5521(3)
C20 C 0.8011(13) 0.2992(6) 0.5700(3)
C21 C 0.8497(15) 0.2260(7) 0.5371(3)
C22 C 0.8500(14) 0.2422(7) 0.4899(3)
C23 C 0.7936(14) 0.3494(7) 0.4211(3)
C24 C 0.7360(14) 0.4378(7) 0.4034(3)
C25 C 0.6795(14) 0.5098(6) 0.4353(3)
C26 C 0.6819(14) 0.4941(6) 0.4832(3)
C27 C 0.7422(12) 0.4060(6) 0.5026(3)
C28 C 0.7986(13) 0.3318(6) 0.4706(3)
C29 C 0.7442(18) 0.3802(8) 0.3170(3)
C30 C 0.648(2) 0.4540(9) 0.2846(4)
C31 C 0.6226(18) 0.5200(8) 0.3283(3)
C32 C 0.8213(14) 0.3429(7) 0.6563(3)
C33 C 0.7944(14) 0.2763(6) 0.6211(3)
C34 C 0.8698(16) 0.4438(9) 0.6493(3)
C35 C 0.8101(18) 0.3188(8) 0.7058(3)
C36 C 0.7562(18) 0.1742(8) 0.6352(3)
H16 H 0.71216 0.44046 0.57494
H17 H 0.88737 0.16183 0.54963
H18 H 0.88550 0.18837 0.46804
H19 H 0.83267 0.29724 0.39837
H20 H 0.63798 0.57311 0.42267
H21 H 0.64023 0.54652 0.50560
H22 H 0.86761 0.36097 0.30702
H23 H 0.67233 0.32087 0.32412
H24 H 0.72924 0.48255 0.25874
H25 H 0.53640 0.43128 0.26920
H26 H 0.49711 0.52471 0.34002
H27 H 0.67322 0.58721 0.32472
H28 H 0.77580 0.10910 0.61210
H29 H 0.78435 0.14338 0.66677
H30 H 0.62196 0.17922 0.63203
loop_
_geom_bond_atom_site_label_1
_geom_bond_atom_site_label_2
_geom_bond_site_symmetry_1
_geom_bond_site_symmetry_2
N1 C16 1_555 1_555
N2 C17 1_555 1_555
N3 C6 1_555 1_555
N4 C34 1_555 1_555
N5 C35 1_555 1_555
N6 C24 1_555 1_555
C1 C2 1_555 1_555
C2 C3 1_555 1_555
C3 C4 1_555 1_555
C4 C10 1_555 1_555
C5 C6 1_555 1_555
C6 C7 1_555 1_555
C7 C8 1_555 1_555
C8 C9 1_555 1_555
C9 C1 1_555 1_555
C10 C5 1_555 1_555
C11 N3 1_555 1_555
C12 C11 1_555 1_555
C13 N3 1_555 1_555
C14 C15 1_555 1_555
C15 C2 1_555 1_555
C16 C14 1_555 1_555
C17 C14 1_555 1_555
C18 C15 1_555 1_555
C19 C20 1_555 1_555
C20 C21 1_555 1_555
C21 C22 1_555 1_555
C22 C28 1_555 1_555
C23 C24 1_555 1_555
C24 C25 1_555 1_555
C25 C26 1_555 1_555
C26 C27 1_555 1_555
C27 C19 1_555 1_555
C28 C23 1_555 1_555
C29 N6 1_555 1_555
C30 C29 1_555 1_555
C31 N6 1_555 1_555
C32 C33 1_555 1_555
C33 C20 1_555 1_555
C34 C32 1_555 1_555
C35 C32 1_555 1_555
C36 C33 1_555 1_555
H1 C1 1_555 1_555
H2 C3 1_555 1_555
H3 C4 1_555 1_555
H4 C5 1_555 1_555
H5 C7 1_555 1_555
H6 C8 1_555 1_555
H7 C11 1_555 1_555
H8 C11 1_555 1_555
H9 C12 1_555 1_555
H10 C12 1_555 1_555
H11 C13 1_555 1_555
H12 C13 1_555 1_555
H13 C18 1_555 1_555
H14 C18 1_555 1_555
H15 C18 1_555 1_555
H16 C19 1_555 1_555
H17 C21 1_555 1_555
H18 C22 1_555 1_555
H19 C23 1_555 1_555
H20 C25 1_555 1_555
H21 C26 1_555 1_555
H22 C29 1_555 1_555
H23 C29 1_555 1_555
H24 C30 1_555 1_555
H25 C30 1_555 1_555
H26 C31 1_555 1_555
H27 C31 1_555 1_555
H28 C36 1_555 1_555
H29 C36 1_555 1_555
H30 C36 1_555 1_555
C9 C10 1_555 1_555
C12 C13 1_555 1_555
C27 C28 1_555 1_555
C30 C31 1_555 1_555

#END
