
#######################################################################
#
#                 Cambridge Crystallographic Data Centre
#                                CCDC 
#
#######################################################################
#
# If this CIF has been generated from an entry in the Cambridge 
# Structural Database, then it will include bibliographic, chemical, 
# crystal, experimental, refinement or atomic coordinate data resulting 
# from the CCDC's data processing and validation procedures.
#
#######################################################################

data_ACULIV01
_chemical_formula_moiety         'C19 H17 N3'
_chemical_name_systematic        
(7-(Dimethylamino)-3,4-dihydrophenanthren-1(2H)-ylidene)malononitrile
_symmetry_cell_setting           monoclinic
_symmetry_space_group_name_H-M   'P 21/c'
_symmetry_Int_Tables_number      14
_space_group_name_Hall           '-P 2ybc'
loop_
_symmetry_equiv_pos_site_id
_symmetry_equiv_pos_as_xyz
1 x,y,z
2 -x,1/2+y,1/2-z
3 -x,-y,-z
4 x,1/2-y,1/2+z
_cell_length_a                   13.518(2)
_cell_length_b                   15.067(2)
_cell_length_c                   7.419(1)
_cell_angle_alpha                90
_cell_angle_beta                 90.58(2)
_cell_angle_gamma                90
_cell_volume                     1510.99
_exptl_crystal_colour            orange
_exptl_crystal_description       plate
_cell_formula_units_Z            4
loop_
_atom_site_label
_atom_site_type_symbol
_atom_site_fract_x
_atom_site_fract_y
_atom_site_fract_z
N1 N 1.0189(3) 0.6451(4) -0.1643(5)
N2 N 1.1474(3) 0.6226(3) 0.3589(6)
N3 N 0.3677(2) 0.6244(3) -0.2140(5)
C1 C 0.7163(3) 0.6304(2) 0.2161(4)
C2 C 0.8027(3) 0.5974(2) 0.1451(4)
C3 C 0.8006(3) 0.5547(3) -0.0272(5)
C4 C 0.7147(3) 0.5483(3) -0.1238(5)
C5 C 0.6261(3) 0.5862(2) -0.0615(4)
C6 C 0.5390(3) 0.5855(3) -0.1671(5)
C7 C 0.4525(3) 0.6233(3) -0.1096(5)
C8 C 0.4528(3) 0.6635(3) 0.0662(6)
C9 C 0.5365(3) 0.6644(3) 0.1707(5)
C10 C 0.6269(3) 0.6268(2) 0.1133(4)
C11 C 0.8954(3) 0.6039(2) 0.2464(5)
C12 C 0.8833(4) 0.6054(4) 0.4472(5)
C13 C 0.8144(4) 0.6810(4) 0.4916(5)
C14 C 0.7150(4) 0.6708(3) 0.4030(5)
C15 C 0.9851(3) 0.6160(3) 0.1717(5)
C16 C 1.0019(3) 0.6312(3) -0.0159(6)
C17 C 1.0746(3) 0.6201(3) 0.2801(6)
C18 C 0.3695(4) 0.5860(4) -0.3914(7)
C19 C 0.2776(4) 0.6647(5) -0.1566(10)
H1 H 0.868(3) 0.531(2) -0.074(5)
H2 H 0.712(3) 0.514(3) -0.242(5)
H3 H 0.544(3) 0.550(3) -0.290(5)
H4 H 0.395(3) 0.688(3) 0.113(6)
H5 H 0.536(3) 0.697(3) 0.294(6)
H6 H 0.943(3) 0.609(3) 0.492(6)
H7 H 0.852(3) 0.545(3) 0.484(6)
H8 H 0.859(3) 0.738(3) 0.457(6)
H9 H 0.803(3) 0.680(3) 0.623(7)
H10 H 0.672(3) 0.633(3) 0.473(6)
H11 H 0.676(3) 0.726(3) 0.386(6)
H12 H 0.427(4) 0.612(3) -0.459(6)
H13 H 0.395(4) 0.527(4) -0.387(6)
H14 H 0.299(4) 0.591(3) -0.438(6)
H15 H 0.253(4) 0.643(4) -0.042(8)
H16 H 0.230(5) 0.651(4) -0.221(8)
H17 H 0.281(4) 0.716(4) -0.094(8)
loop_
_geom_bond_atom_site_label_1
_geom_bond_atom_site_label_2
_geom_bond_site_symmetry_1
_geom_bond_site_symmetry_2
N1 C16 1_555 1_555
N2 C17 1_555 1_555
N3 C7 1_555 1_555
C1 C2 1_555 1_555
C2 C3 1_555 1_555
C3 C4 1_555 1_555
C4 C5 1_555 1_555
C5 C6 1_555 1_555
C6 C7 1_555 1_555
C7 C8 1_555 1_555
C8 C9 1_555 1_555
C9 C10 1_555 1_555
C10 C1 1_555 1_555
C11 C2 1_555 1_555
C12 C11 1_555 1_555
C13 C12 1_555 1_555
C14 C1 1_555 1_555
C15 C11 1_555 1_555
C16 C15 1_555 1_555
C17 C15 1_555 1_555
C18 N3 1_555 1_555
C19 N3 1_555 1_555
H1 C3 1_555 1_555
H2 C4 1_555 1_555
H3 C6 1_555 1_555
H4 C8 1_555 1_555
H5 C9 1_555 1_555
H6 C12 1_555 1_555
H7 C12 1_555 1_555
H8 C13 1_555 1_555
H9 C13 1_555 1_555
H10 C14 1_555 1_555
H11 C14 1_555 1_555
H12 C18 1_555 1_555
H13 C18 1_555 1_555
H14 C18 1_555 1_555
H15 C19 1_555 1_555
H16 C19 1_555 1_555
H17 C19 1_555 1_555
C5 C10 1_555 1_555
C13 C14 1_555 1_555

#END
