
#######################################################################
#
#                 Cambridge Crystallographic Data Centre
#                                CCDC 
#
#######################################################################
#
# If this CIF has been generated from an entry in the Cambridge 
# Structural Database, then it will include bibliographic, chemical, 
# crystal, experimental, refinement or atomic coordinate data resulting 
# from the CCDC's data processing and validation procedures.
#
#######################################################################

data_ACULIT
_chemical_formula_moiety         'C25 H21 N1 O4'
_chemical_name_systematic        
3-(Benzyloxy)-4-((1'S,2'R)-(2'-hydroxy-1',2'-diphenylethyl)amino)-3-cyclobutene-1,2-dione
_symmetry_cell_setting           monoclinic
_symmetry_space_group_name_H-M   'P 21'
_symmetry_Int_Tables_number      4
_space_group_name_Hall           'P 2yb'
loop_
_symmetry_equiv_pos_site_id
_symmetry_equiv_pos_as_xyz
1 x,y,z
2 -x,1/2+y,-z
_cell_length_a                   10.0399(16)
_cell_length_b                   8.8180(15)
_cell_length_c                   12.113(2)
_cell_angle_alpha                90
_cell_angle_beta                 108.320(3)
_cell_angle_gamma                90
_cell_volume                     1018.03
_exptl_crystal_colour            colorless
_exptl_crystal_description       prism
_chemical_melting_point          177-179deg.C
_cell_formula_units_Z            2
loop_
_atom_site_label
_atom_site_type_symbol
_atom_site_fract_x
_atom_site_fract_y
_atom_site_fract_z
O1 O 0.18339(11) 1.06165(14) -0.20899(9)
O2 O -0.04546(12) 0.67240(17) 0.05836(10)
O3 O 0.20544(12) 0.42426(17) 0.12004(9)
O4 O 0.28909(11) 0.54126(16) -0.10805(9)
N1 N 0.02879(12) 0.77858(16) -0.17037(10)
H1 H -0.0485(15) 0.833(2) -0.1704(11)
C1 C 0.26950(19) 0.9894(2) -0.40449(14)
H2 H 0.1906(18) 1.055(3) -0.4319(15)
C2 C 0.3499(2) 0.9785(3) -0.47894(16)
H3 H 0.317(2) 1.022(3) -0.5544(18)
C3 C 0.46365(19) 0.8858(3) -0.45383(17)
H4 H 0.518(2) 0.876(3) -0.508(2)
C4 C 0.5016(2) 0.8047(3) -0.3531(2)
H5 H 0.591(2) 0.725(4) -0.3312(18)
C5 C 0.42312(18) 0.8120(2) -0.27819(16)
H6 H 0.4517(17) 0.760(2) -0.1978(15)
C6 C 0.30610(14) 0.90468(19) -0.30375(12)
C7 C 0.21829(15) 0.90910(19) -0.22247(11)
H7 H 0.2751(12) 0.8687(18) -0.1468(10)
C8 C 0.08704(15) 0.80605(18) -0.26670(12)
H8 H 0.1177(13) 0.710(2) -0.2885(12)
C9 C -0.02430(14) 0.86574(19) -0.37207(12)
C10 C -0.11762(16) 0.9806(2) -0.36616(13)
H9 H -0.1107(14) 1.014(2) -0.2927(13)
C11 C -0.21619(17) 1.0343(2) -0.46521(16)
H10 H -0.2892(16) 1.118(2) -0.4606(14)
C12 C -0.22411(19) 0.9781(2) -0.57284(16)
H11 H -0.3005(19) 1.011(3) -0.6431(16)
C13 C -0.1318(2) 0.8663(3) -0.58051(14)
H12 H -0.130(2) 0.828(3) -0.6543(19)
C14 C -0.03366(19) 0.8105(2) -0.48117(14)
H13 H 0.0282(18) 0.739(3) -0.4852(16)
C15 C 0.08370(15) 0.6791(2) -0.08716(12)
C16 C 0.04458(16) 0.6337(2) 0.01613(14)
C17 C 0.16045(16) 0.5199(2) 0.04461(13)
C18 C 0.19357(16) 0.5751(2) -0.05796(12)
C19 C 0.3898(2) 0.4243(3) -0.04657(19)
H14 H 0.4192(15) 0.441(2) 0.0327(14)
H15 H 0.3395(18) 0.352(3) -0.0388(15)
C20 C 0.49331(18) 0.3977(2) -0.10776(14)
C21 C 0.6075(3) 0.4910(3) -0.09227(18)
H16 H 0.614(3) 0.569(4) -0.056(2)
C22 C 0.7047(2) 0.4616(4) -0.1506(2)
H17 H 0.7805 0.5262 -0.1417
C23 C 0.6873(2) 0.3375(4) -0.22064(19)
H18 H 0.761(2) 0.320(3) -0.2530(18)
C24 C 0.5787(2) 0.2466(3) -0.23426(19)
H19 H 0.5685 0.1619 -0.2820
C25 C 0.4815(2) 0.2744(2) -0.18000(17)
H20 H 0.4051(17) 0.217(2) -0.1865(14)
loop_
_geom_bond_atom_site_label_1
_geom_bond_atom_site_label_2
_geom_bond_site_symmetry_1
_geom_bond_site_symmetry_2
O1 C7 1_555 1_555
O2 C16 1_555 1_555
O3 C17 1_555 1_555
O4 C18 1_555 1_555
N1 H1 1_555 1_555
C1 H2 1_555 1_555
C2 C1 1_555 1_555
H3 C2 1_555 1_555
C3 C2 1_555 1_555
H4 C3 1_555 1_555
C4 C3 1_555 1_555
H5 C4 1_555 1_555
C5 C4 1_555 1_555
H6 C5 1_555 1_555
C6 C1 1_555 1_555
C7 C6 1_555 1_555
H7 C7 1_555 1_555
C8 N1 1_555 1_555
H8 C8 1_555 1_555
C9 C8 1_555 1_555
C10 C9 1_555 1_555
H9 C10 1_555 1_555
C11 C10 1_555 1_555
H10 C11 1_555 1_555
C12 C11 1_555 1_555
H11 C12 1_555 1_555
C13 C12 1_555 1_555
H12 C13 1_555 1_555
C14 C9 1_555 1_555
H13 C14 1_555 1_555
C15 N1 1_555 1_555
C16 C15 1_555 1_555
C17 C16 1_555 1_555
C18 C15 1_555 1_555
C19 O4 1_555 1_555
H14 C19 1_555 1_555
H15 C19 1_555 1_555
C20 C19 1_555 1_555
C21 C20 1_555 1_555
H16 C21 1_555 1_555
C22 C21 1_555 1_555
H17 C22 1_555 1_555
C23 C22 1_555 1_555
H18 C23 1_555 1_555
C24 C23 1_555 1_555
H19 C24 1_555 1_555
C25 C20 1_555 1_555
H20 C25 1_555 1_555
C5 C6 1_555 1_555
C7 C8 1_555 1_555
C13 C14 1_555 1_555
C17 C18 1_555 1_555
C24 C25 1_555 1_555

#END
