
#######################################################################
#
#                 Cambridge Crystallographic Data Centre
#                                CCDC 
#
#######################################################################
#
# If this CIF has been generated from an entry in the Cambridge 
# Structural Database, then it will include bibliographic, chemical, 
# crystal, experimental, refinement or atomic coordinate data resulting 
# from the CCDC's data processing and validation procedures.
#
#######################################################################

data_ACULER
_chemical_formula_moiety         'C21 H21 N3'
_chemical_name_systematic        
(1-(6-(4-Methylpiperidin-1-yl)-2-naphthyl)ethylidene)malononitrile
_symmetry_cell_setting           monoclinic
_symmetry_space_group_name_H-M   'P 21/c'
_symmetry_Int_Tables_number      14
_space_group_name_Hall           '-P 2ybc'
loop_
_symmetry_equiv_pos_site_id
_symmetry_equiv_pos_as_xyz
1 x,y,z
2 -x,1/2+y,1/2-z
3 -x,-y,-z
4 x,1/2-y,1/2+z
_cell_length_a                   11.312(2)
_cell_length_b                   7.372(1)
_cell_length_c                   21.323(3)
_cell_angle_alpha                90
_cell_angle_beta                 94.45(1)
_cell_angle_gamma                90
_cell_volume                     1772.81
_exptl_crystal_colour            orange
_exptl_crystal_description       plate
_chemical_melting_point          134.0deg.C
_cell_formula_units_Z            4
loop_
_atom_site_label
_atom_site_type_symbol
_atom_site_fract_x
_atom_site_fract_y
_atom_site_fract_z
N1 N 0.8008(6) 0.6063(8) 0.1591(3)
N2 N 1.0323(5) 0.1535(8) 0.1465(3)
N3 N 0.3327(4) 0.6789(6) 0.4444(2)
C1 C 0.8524(4) 0.2843(7) 0.1984(2)
C2 C 0.7917(4) 0.1882(6) 0.2391(2)
C3 C 0.8226(5) 0.4645(8) 0.1780(3)
C4 C 0.9512(5) 0.2109(8) 0.1691(3)
C5 C 0.8252(6) -0.0079(8) 0.2502(3)
C6 C 0.7002(4) 0.4348(6) 0.2978(2)
C7 C 0.6966(4) 0.2630(7) 0.2738(2)
C8 C 0.5994(5) 0.1488(7) 0.2868(3)
C9 C 0.5114(5) 0.2053(7) 0.3208(3)
C10 C 0.4212(4) 0.4459(7) 0.3829(2)
C11 C 0.4238(5) 0.6173(7) 0.4081(2)
C12 C 0.5202(5) 0.7321(7) 0.3949(2)
C13 C 0.6091(5) 0.6734(7) 0.3599(3)
C14 C 0.6079(4) 0.4986(6) 0.3344(2)
C15 C 0.5130(4) 0.3825(6) 0.3453(2)
C16 C 0.3524(5) 0.8485(9) 0.4783(3)
C17 C 0.2428(6) 0.9176(9) 0.5057(3)
C18 C 0.1888(6) 0.779(1) 0.5474(3)
C19 C 0.0762(6) 0.847(1) 0.5748(3)
C20 C 0.1657(6) 0.611(1) 0.5089(3)
C21 C 0.2722(6) 0.540(1) 0.4791(3)
H1 H 0.76944 0.51623 0.29302
H2 H 0.59791 0.02346 0.27154
H3 H 0.43669 0.13626 0.33005
H4 H 0.34917 0.35739 0.38704
H5 H 0.52134 0.85048 0.41296
H6 H 0.67656 0.76009 0.35085
H7 H 0.42163 0.81104 0.50846
H8 H 0.37919 0.93307 0.44886
H9 H 0.26354 1.02095 0.52821
H10 H 0.18871 0.94430 0.46893
H11 H 0.13937 0.51786 0.53300
H12 H 0.11242 0.68003 0.47518
H13 H 0.33681 0.50635 0.51622
H14 H 0.23202 0.50468 0.44276
H15 H 0.88744 -0.03384 0.23019
H16 H 0.81709 -0.03673 0.29337
H17 H 0.76033 -0.07397 0.24498
H18 H 0.05251 0.78168 0.61047
H19 H 0.10306 0.97629 0.59305
H20 H 0.01062 0.84662 0.53816
loop_
_geom_bond_atom_site_label_1
_geom_bond_atom_site_label_2
_geom_bond_site_symmetry_1
_geom_bond_site_symmetry_2
N1 C3 1_555 1_555
N2 C4 1_555 1_555
N3 C11 1_555 1_555
C1 C2 1_555 1_555
C2 C5 1_555 1_555
C3 C1 1_555 1_555
C4 C1 1_555 1_555
C5 H15 1_555 1_555
C6 C7 1_555 1_555
C7 C2 1_555 1_555
C8 C7 1_555 1_555
C9 C8 1_555 1_555
C10 C11 1_555 1_555
C11 C12 1_555 1_555
C12 C13 1_555 1_555
C13 C14 1_555 1_555
C14 C6 1_555 1_555
C15 C9 1_555 1_555
C16 N3 1_555 1_555
C17 C16 1_555 1_555
C18 C17 1_555 1_555
C19 C18 1_555 1_555
C20 C18 1_555 1_555
C21 N3 1_555 1_555
H1 C6 1_555 1_555
H2 C8 1_555 1_555
H3 C9 1_555 1_555
H4 C10 1_555 1_555
H5 C12 1_555 1_555
H6 C13 1_555 1_555
H7 C16 1_555 1_555
H8 C16 1_555 1_555
H9 C17 1_555 1_555
H10 C17 1_555 1_555
H11 C20 1_555 1_555
H12 C20 1_555 1_555
H13 C21 1_555 1_555
H14 C21 1_555 1_555
H16 C5 1_555 1_555
H17 C5 1_555 1_555
H18 C19 1_555 1_555
H19 C19 1_555 1_555
H20 C19 1_555 1_555
C10 C15 1_555 1_555
C14 C15 1_555 1_555
C20 C21 1_555 1_555

#END
