
#######################################################################
#
#                 Cambridge Crystallographic Data Centre
#                                CCDC 
#
#######################################################################
#
# If this CIF has been generated from an entry in the Cambridge 
# Structural Database, then it will include bibliographic, chemical, 
# crystal, experimental, refinement or atomic coordinate data resulting 
# from the CCDC's data processing and validation procedures.
#
#######################################################################

data_ACUQIY
_chemical_formula_moiety         'C24 H17 N2 O2 1+,C1 F3 O3 S1 1-,C1 H4 O1'
_chemical_name_systematic        
'4-Hydroxy-8,10-diphenyl-6-oxidopyrido(1,2-a)quinoxaline-5,11-di-ium trifluoromethanesulfonate methanol solvate'
_symmetry_cell_setting           triclinic
_symmetry_space_group_name_H-M   'P -1'
_symmetry_Int_Tables_number      2
_space_group_name_Hall           '-P 1'
loop_
_symmetry_equiv_pos_site_id
_symmetry_equiv_pos_as_xyz
1 x,y,z
2 -x,-y,-z
_cell_length_a                   7.633(3)
_cell_length_b                   10.495(4)
_cell_length_c                   15.251(6)
_cell_angle_alpha                98.61(3)
_cell_angle_beta                 90.52(3)
_cell_angle_gamma                93.99(3)
_cell_volume                     1204.8
_exptl_crystal_colour            colorless
_exptl_crystal_description       prisms
_chemical_melting_point          272-273deg.C
_cell_formula_units_Z            2
_exptl_crystal_recrystallization_method 'dichloromethane/ethyl acetate/methanol'
loop_
_atom_site_label
_atom_site_type_symbol
_atom_site_fract_x
_atom_site_fract_y
_atom_site_fract_z
N1 N 0.0865(3) 0.77752(19) 0.31756(13)
N2 N -0.0494(3) 0.5684(2) 0.39169(14)
H1 H -0.078(4) 0.4931(15) 0.4057(19)
O1 O -0.2927(3) 0.39560(18) 0.30510(13)
H2 H -0.385(3) 0.366(4) 0.278(3)
O2 O 0.0659(3) 0.66179(18) 0.52582(12)
C1 C -0.1156(3) 0.7105(3) 0.18840(16)
H3 H -0.0781 0.7844 0.1637
C2 C -0.2456(4) 0.6229(3) 0.14660(17)
H4 H -0.2956 0.6377 0.0928
C3 C -0.3028(4) 0.5149(3) 0.18210(17)
H5 H -0.3881 0.4552 0.1515
C4 C -0.2356(3) 0.4936(2) 0.26262(17)
C5 C 0.0319(3) 0.6659(2) 0.44766(16)
C6 C 0.1750(3) 0.8879(2) 0.46221(16)
H6 H 0.1769 0.8894 0.5240
C7 C 0.2541(3) 0.9925(2) 0.42667(16)
C8 C 0.2658(3) 0.9741(2) 0.33465(17)
H7 H 0.3287 1.0380 0.3081
C9 C 0.1898(3) 0.8670(2) 0.28019(16)
C10 C -0.0419(3) 0.6868(2) 0.26775(16)
C11 C -0.1046(3) 0.5817(2) 0.30667(16)
C12 C 0.0947(3) 0.7832(2) 0.40860(16)
C13 C 0.3345(3) 1.1105(2) 0.48281(16)
C14 C 0.3340(3) 1.1234(2) 0.57519(17)
H8 H 0.2787 1.0577 0.6030
C15 C 0.4144(4) 1.2323(3) 0.62625(18)
H9 H 0.4136 1.2395 0.6884
C16 C 0.4956(4) 1.3304(2) 0.58701(19)
H10 H 0.5505 1.4039 0.6220
C17 C 0.4950(4) 1.3193(3) 0.4959(2)
H11 H 0.5492 1.3861 0.4687
C18 C 0.4155(4) 1.2109(3) 0.44398(19)
H12 H 0.4162 1.2048 0.3819
C19 C 0.2326(3) 0.8439(2) 0.18473(16)
C20 C 0.2349(4) 0.9459(3) 0.13571(18)
H13 H 0.2014 1.0273 0.1617
C21 C 0.2871(5) 0.9260(3) 0.0482(2)
H14 H 0.2897 0.9947 0.0150
C22 C 0.3356(5) 0.8065(3) 0.00919(19)
H15 H 0.3695 0.7938 -0.0504
C23 C 0.3339(4) 0.7057(3) 0.05806(18)
H16 H 0.3676 0.6245 0.0318
C24 C 0.2830(3) 0.7240(2) 0.14501(17)
H17 H 0.2823 0.6551 0.1779
S1 S -0.75686(8) 0.33182(6) 0.22777(4)
C25 C -0.8159(4) 0.3325(3) 0.11117(19)
F1 F -0.9535(3) 0.3988(2) 0.10315(14)
F2 F -0.6837(3) 0.3892(2) 0.07128(12)
F3 F -0.8480(3) 0.21556(18) 0.06695(14)
O3 O -0.9018(3) 0.2596(3) 0.25922(17)
O4 O -0.7347(3) 0.4658(2) 0.26340(13)
O5 O -0.5960(3) 0.26643(18) 0.22182(13)
O6 O -1.1282(8) 0.0444(8) 0.2856(5)
H18 H -1.0575 0.1116 0.2774
C26 C -1.2549(6) 0.0536(4) 0.2226(3)
H19 H -1.3447 -0.0150 0.2230
H20 H -1.3057 0.1353 0.2357
H21 H -1.2029 0.0465 0.1652
O7? O -1.1898(13) 0.0951(9) 0.3073(4)
H22? H -1.1000 0.1468 0.2924
H23? H -1.3563 -0.0052 0.2249
H24? H -1.2876 0.1269 0.1970
H25? H -1.1672 0.0107 0.1870
loop_
_geom_bond_atom_site_label_1
_geom_bond_atom_site_label_2
_geom_bond_site_symmetry_1
_geom_bond_site_symmetry_2
N1 C9 1_555 1_555
N2 H1 1_555 1_555
O1 H2 1_555 1_555
O2 C5 1_555 1_555
C1 H3 1_555 1_555
C2 C1 1_555 1_555
H4 C2 1_555 1_555
C3 C2 1_555 1_555
H5 C3 1_555 1_555
C4 O1 1_555 1_555
C5 N2 1_555 1_555
C6 H6 1_555 1_555
C7 C6 1_555 1_555
C8 C7 1_555 1_555
H7 C8 1_555 1_555
C9 C8 1_555 1_555
C10 N1 1_555 1_555
C11 N2 1_555 1_555
C12 N1 1_555 1_555
C13 C7 1_555 1_555
C14 C13 1_555 1_555
H8 C14 1_555 1_555
C15 C14 1_555 1_555
H9 C15 1_555 1_555
C16 C15 1_555 1_555
H10 C16 1_555 1_555
C17 C16 1_555 1_555
H11 C17 1_555 1_555
C18 C13 1_555 1_555
H12 C18 1_555 1_555
C19 C9 1_555 1_555
C20 C19 1_555 1_555
H13 C20 1_555 1_555
C21 C20 1_555 1_555
H14 C21 1_555 1_555
C22 C21 1_555 1_555
H15 C22 1_555 1_555
C23 C22 1_555 1_555
H16 C23 1_555 1_555
C24 C19 1_555 1_555
H17 C24 1_555 1_555
S1 C25 1_555 1_555
C25 F1 1_555 1_555
F2 C25 1_555 1_555
F3 C25 1_555 1_555
O3 S1 1_555 1_555
O4 S1 1_555 1_555
O5 S1 1_555 1_555
O6 H18 1_555 1_555
C26 O6 1_555 1_555
H19 C26 1_555 1_555
H20 C26 1_555 1_555
H21 C26 1_555 1_555
C1 C10 1_555 1_555
C3 C4 1_555 1_555
C4 C11 1_555 1_555
C5 C12 1_555 1_555
C6 C12 1_555 1_555
C10 C11 1_555 1_555
C17 C18 1_555 1_555
C23 C24 1_555 1_555

#END
