
#######################################################################
#
#                 Cambridge Crystallographic Data Centre
#                                CCDC 
#
#######################################################################
#
# If this CIF has been generated from an entry in the Cambridge 
# Structural Database, then it will include bibliographic, chemical, 
# crystal, experimental, refinement or atomic coordinate data resulting 
# from the CCDC's data processing and validation procedures.
#
#######################################################################

data_ACUQEU
_chemical_formula_moiety         'C24 H16 N3 O3 1+,C1 F3 O3 S1 1-,H2 O1'
_chemical_name_systematic        
'8,10-Diphenyl-2-nitro-6-oxidopyrido(1,2-a)quinoxaline-5,11-di-ium trifluoromethanesulfonate monohydrate'
_symmetry_cell_setting           triclinic
_symmetry_space_group_name_H-M   'P -1'
_symmetry_Int_Tables_number      2
_space_group_name_Hall           '-P 1'
loop_
_symmetry_equiv_pos_site_id
_symmetry_equiv_pos_as_xyz
1 x,y,z
2 -x,-y,-z
_cell_length_a                   8.454(2)
_cell_length_b                   9.474(2)
_cell_length_c                   17.001(3)
_cell_angle_alpha                74.91(3)
_cell_angle_beta                 85.33(3)
_cell_angle_gamma                68.33(3)
_cell_volume                     1221.63
_exptl_crystal_colour            yellow
_exptl_crystal_description       plates
_chemical_melting_point          222deg.C
_cell_formula_units_Z            2
_exptl_crystal_recrystallization_method 'dichloromethane/ethyl acetate/methanol'
loop_
_atom_site_label
_atom_site_type_symbol
_atom_site_fract_x
_atom_site_fract_y
_atom_site_fract_z
O1 O 0.7671(4) 0.6053(4) -0.0110(2)
O2 O 0.8521(5) 0.7623(4) 0.0310(2)
O3 O 1.1238(4) 0.1244(3) 0.46642(14)
N1 N 1.1252(3) 0.4586(3) 0.30707(15)
N2 N 0.8331(4) 0.6375(4) 0.0398(2)
N3 N 1.0496(4) 0.1874(3) 0.3340(2)
H1 H 1.0312(48) 0.0999(46) 0.3435(23)
C1 C 0.9739(4) 0.5498(4) 0.1732(2)
H2 H 0.9820(4) 0.6490(4) 0.1646(2)
C2 C 0.8966(5) 0.5164(4) 0.1158(2)
C3 C 0.8783(5) 0.3736(4) 0.1266(2)
H3 H 0.8293(5) 0.3525(4) 0.0854(2)
C4 C 0.9335(5) 0.2632(4) 0.1989(2)
H4 H 0.9191(5) 0.1664(4) 0.2081(2)
C5 C 1.1010(4) 0.2161(4) 0.3991(2)
C6 C 1.1862(4) 0.3985(4) 0.4502(2)
H5 H 1.1928(4) 0.3310(4) 0.5023(2)
C7 C 1.2288(4) 0.5301(4) 0.4412(2)
C8 C 1.2357(4) 0.6132(4) 0.3599(2)
H6 H 1.2725(4) 0.6985(4) 0.3501(2)
C9 C 1.1914(4) 0.5756(4) 0.2946(2)
C10 C 1.0402(4) 0.4337(4) 0.2444(2)
C11 C 1.0113(4) 0.2939(4) 0.2594(2)
C12 C 1.1343(4) 0.3639(4) 0.3849(2)
C13 C 1.2767(4) 0.5734(4) 0.5108(2)
C14 C 1.3001(4) 0.4723(4) 0.5886(2)
H7 H 1.2839(4) 0.3766(4) 0.5969(2)
C15 C 1.3472(4) 0.5119(4) 0.6539(2)
H8 H 1.3631(4) 0.4426(4) 0.7059(2)
C16 C 1.3709(4) 0.6535(4) 0.6426(2)
H9 H 1.4017(4) 0.6807(4) 0.6869(2)
C17 C 1.3486(4) 0.7543(4) 0.5655(2)
H10 H 1.3650(4) 0.8499(4) 0.5576(2)
C18 C 1.3023(4) 0.7152(4) 0.4998(2)
H11 H 1.2880(4) 0.7842(4) 0.4477(2)
C19 C 1.2347(5) 0.6496(4) 0.2111(2)
C20 C 1.1803(6) 0.8123(5) 0.1849(2)
H12 H 1.1128(6) 0.8751(5) 0.2188(2)
C21 C 1.2259(8) 0.8807(6) 0.1093(3)
H13 H 1.1870(8) 0.9905(6) 0.0908(3)
C22 C 1.3281(9) 0.7888(8) 0.0609(3)
H14 H 1.3603(9) 0.8364(8) 0.0097(3)
C23 C 1.3843(7) 0.6272(7) 0.0866(3)
H15 H 1.4549(7) 0.5654(7) 0.0531(3)
C24 C 1.3364(5) 0.5560(5) 0.1621(2)
H16 H 1.3724(5) 0.4462(5) 0.1796(2)
F1 F 0.4330(16) 0.0768(19) 0.1428(7)
F2 F 0.6460(18) -0.1465(9) 0.1842(8)
F3 F 0.6731(21) 0.0808(22) 0.1708(9)
S1 S 0.49745(12) -0.00352(10) 0.29426(6)
O4 O 0.4275(4) 0.1583(4) 0.2946(2)
O5 O 0.6520(5) -0.0908(4) 0.3409(3)
O6 O 0.3793(4) -0.0825(3) 0.3042(2)
C25 C 0.5697(6) 0.0006(5) 0.1923(3)
O7 O 0.9553(3) -0.0710(3) 0.3682(2)
H17 H 0.8513(61) -0.0610(63) 0.3442(34)
H18 H 0.9590(82) -0.1024(67) 0.4267(26)
F4? F 0.4541(12) 0.0879(12) 0.1344(5)
F5? F 0.6153(22) -0.1385(12) 0.1762(8)
F6? F 0.7001(15) 0.0511(19) 0.1785(9)
loop_
_geom_bond_atom_site_label_1
_geom_bond_atom_site_label_2
_geom_bond_site_symmetry_1
_geom_bond_site_symmetry_2
O1 N2 1_555 1_555
O2 N2 1_555 1_555
O3 C5 1_555 1_555
N1 C9 1_555 1_555
N2 C2 1_555 1_555
N3 H1 1_555 1_555
C1 H2 1_555 1_555
C2 C1 1_555 1_555
C3 C2 1_555 1_555
H3 C3 1_555 1_555
C4 C3 1_555 1_555
H4 C4 1_555 1_555
C5 N3 1_555 1_555
C6 H5 1_555 1_555
C7 C6 1_555 1_555
C8 C7 1_555 1_555
H6 C8 1_555 1_555
C9 C8 1_555 1_555
C10 N1 1_555 1_555
C11 N3 1_555 1_555
C12 N1 1_555 1_555
C13 C7 1_555 1_555
C14 C13 1_555 1_555
H7 C14 1_555 1_555
C15 C14 1_555 1_555
H8 C15 1_555 1_555
C16 C15 1_555 1_555
H9 C16 1_555 1_555
C17 C16 1_555 1_555
H10 C17 1_555 1_555
C18 C13 1_555 1_555
H11 C18 1_555 1_555
C19 C9 1_555 1_555
C20 C19 1_555 1_555
H12 C20 1_555 1_555
C21 C20 1_555 1_555
H13 C21 1_555 1_555
C22 C21 1_555 1_555
H14 C22 1_555 1_555
C23 C22 1_555 1_555
H15 C23 1_555 1_555
C24 C19 1_555 1_555
H16 C24 1_555 1_555
F1 C25 1_555 1_555
F2 C25 1_555 1_555
F3 C25 1_555 1_555
S1 O4 1_555 1_555
O5 S1 1_555 1_555
O6 S1 1_555 1_555
C25 S1 1_555 1_555
O7 H17 1_555 1_555
H18 O7 1_555 1_555
C1 C10 1_555 1_555
C4 C11 1_555 1_555
C5 C12 1_555 1_555
C6 C12 1_555 1_555
C10 C11 1_555 1_555
C17 C18 1_555 1_555
C23 C24 1_555 1_555

#END
