
#######################################################################
#
#                 Cambridge Crystallographic Data Centre
#                                CCDC 
#
#######################################################################
#
# If this CIF has been generated from an entry in the Cambridge 
# Structural Database, then it will include bibliographic, chemical, 
# crystal, experimental, refinement or atomic coordinate data resulting 
# from the CCDC's data processing and validation procedures.
#
#######################################################################

data_ACURAT
_chemical_formula_moiety         'C19 H21 N1 O4'
_chemical_name_systematic        
'(R)-Ethyl 5-(diphenylamino)-3-hydroxy-5-oxopentanoate'
_symmetry_cell_setting           orthorhombic
_symmetry_space_group_name_H-M   'P 21 21 21'
_symmetry_Int_Tables_number      19
_space_group_name_Hall           'P 2ac 2ab'
loop_
_symmetry_equiv_pos_site_id
_symmetry_equiv_pos_as_xyz
1 x,y,z
2 1/2-x,-y,1/2+z
3 1/2+x,1/2-y,-z
4 -x,1/2+y,1/2-z
_cell_length_a                   8.6312(15)
_cell_length_b                   9.4698(19)
_cell_length_c                   21.819(3)
_cell_angle_alpha                90
_cell_angle_beta                 90
_cell_angle_gamma                90
_cell_volume                     1783.39
_exptl_crystal_colour            colorless
_cell_formula_units_Z            4
_exptl_crystal_recrystallization_method Hexane
loop_
_atom_site_label
_atom_site_type_symbol
_atom_site_fract_x
_atom_site_fract_y
_atom_site_fract_z
O1 O 0.0164(3) 1.1776(3) -0.14713(9)
O2 O 0.1320(3) 1.0640(3) -0.01475(8)
H1 H 0.0879 1.1430 -0.0161
O3 O 0.4648(4) 1.1774(3) 0.00453(11)
O4 O 0.5922(3) 0.9748(3) 0.01568(9)
N1 N -0.1274(4) 0.9777(4) -0.15302(8)
C1 C -0.1344(3) 0.8276(3) -0.15446(6)
C2 C -0.2251(3) 0.7544(4) -0.11248(7)
H2 H -0.2845 0.8047 -0.0830
C3 C -0.2289(3) 0.6077(4) -0.11361(9)
H3 H -0.2909 0.5577 -0.0849
C4 C -0.1420(4) 0.5342(3) -0.15673(9)
H4 H -0.1446 0.4339 -0.1575
C5 C -0.0514(3) 0.6074(3) -0.19872(7)
H5 H 0.0080 0.5571 -0.2282
C6 C -0.0476(3) 0.7541(3) -0.19758(6)
H6 H 0.0144 0.8041 -0.2263
C7 C 0.8039(6) 0.9334(5) 0.0820(2)
H7 H 0.8814 0.9763 0.1090
H8 H 0.8562 0.8823 0.0488
H9 H 0.7398 0.8675 0.1056
C8 C 0.7043(5) 1.0456(4) 0.05552(15)
H10 H 0.6501 1.0978 0.0885
H11 H 0.7675 1.1133 0.0316
C9 C 0.4771(5) 1.0531(5) -0.00666(12)
C10 C 0.3743(5) 0.9713(4) -0.04693(12)
H12 H 0.3433 0.8838 -0.0253
H13 H 0.4331 0.9433 -0.0840
C11 C 0.2302(5) 1.0487(4) -0.06665(10)
H14 H 0.2587 1.1440 -0.0829
C12 C 0.1425(5) 0.9654(4) -0.11590(14)
H15 H 0.2136 0.9427 -0.1501
H16 H 0.1047 0.8754 -0.0983
C13 C 0.0071(5) 1.0493(6) -0.13991(10)
C14 C -0.2660(4) 1.0514(3) -0.16736(9)
C15 C -0.3128(4) 1.1656(3) -0.13189(10)
H17 H -0.2496 1.1973 -0.0990
C16 C -0.4519(5) 1.2336(3) -0.14457(18)
H18 H -0.4838 1.3116 -0.1203
C17 C -0.5443(4) 1.1873(5) -0.1927(2)
H19 H -0.6393 1.2337 -0.2014
C18 C -0.4975(4) 1.0730(5) -0.22820(14)
H20 H -0.5607 1.0414 -0.2611
C19 C -0.3584(5) 1.0051(4) -0.21552(10)
H21 H -0.3265 0.9270 -0.2398
loop_
_geom_bond_atom_site_label_1
_geom_bond_atom_site_label_2
_geom_bond_site_symmetry_1
_geom_bond_site_symmetry_2
O1 C13 1_555 1_555
O2 H1 1_555 1_555
O3 C9 1_555 1_555
O4 C8 1_555 1_555
N1 C1 1_555 1_555
C1 C2 1_555 1_555
C2 H2 1_555 1_555
C3 C2 1_555 1_555
H3 C3 1_555 1_555
C4 C3 1_555 1_555
H4 C4 1_555 1_555
C5 C4 1_555 1_555
H5 C5 1_555 1_555
C6 C1 1_555 1_555
H6 C6 1_555 1_555
C7 H7 1_555 1_555
H8 C7 1_555 1_555
H9 C7 1_555 1_555
C8 C7 1_555 1_555
H10 C8 1_555 1_555
H11 C8 1_555 1_555
C9 O4 1_555 1_555
C10 C9 1_555 1_555
H12 C10 1_555 1_555
H13 C10 1_555 1_555
C11 O2 1_555 1_555
H14 C11 1_555 1_555
C12 C11 1_555 1_555
H15 C12 1_555 1_555
H16 C12 1_555 1_555
C13 N1 1_555 1_555
C14 N1 1_555 1_555
C15 C14 1_555 1_555
H17 C15 1_555 1_555
C16 C15 1_555 1_555
H18 C16 1_555 1_555
C17 C16 1_555 1_555
H19 C17 1_555 1_555
C18 C17 1_555 1_555
H20 C18 1_555 1_555
C19 C14 1_555 1_555
H21 C19 1_555 1_555
C5 C6 1_555 1_555
C10 C11 1_555 1_555
C12 C13 1_555 1_555
C18 C19 1_555 1_555

#END
