
#######################################################################
#
#                 Cambridge Crystallographic Data Centre
#                                CCDC 
#
#######################################################################
#
# If this CIF has been generated from an entry in the Cambridge 
# Structural Database, then it will include bibliographic, chemical, 
# crystal, experimental, refinement or atomic coordinate data resulting 
# from the CCDC's data processing and validation procedures.
#
#######################################################################

data_ACUTAW
_chemical_formula_moiety         'C15 H10 O2'
_chemical_name_systematic        2-phenyl-1-benzofuran-5-carbaldehyde
_symmetry_cell_setting           monoclinic
_symmetry_space_group_name_H-M   'P 21/n'
_symmetry_Int_Tables_number      14
_space_group_name_Hall           '-P 2yn'
loop_
_symmetry_equiv_pos_site_id
_symmetry_equiv_pos_as_xyz
1 x,y,z
2 1/2-x,1/2+y,1/2-z
3 -x,-y,-z
4 1/2+x,1/2-y,1/2+z
_cell_length_a                   8.3515(7)
_cell_length_b                   5.6087(4)
_cell_length_c                   23.3147(19)
_cell_angle_alpha                90
_cell_angle_beta                 98.894(8)
_cell_angle_gamma                90
_cell_volume                     1078.95
_exptl_crystal_colour            colorless
_exptl_crystal_description       needle
_cell_formula_units_Z            4
loop_
_atom_site_label
_atom_site_type_symbol
_atom_site_fract_x
_atom_site_fract_y
_atom_site_fract_z
O1 O 0.11587(13) 0.28300(18) 0.06961(4)
O2 O 0.47497(18) 0.8982(3) -0.09874(6)
C1 C 0.18063(18) 0.3695(3) 0.02338(6)
C2 C 0.32514(19) 0.5968(3) -0.05808(7)
C3 C 0.26049(17) 0.5850(3) 0.03805(6)
C4 C 0.1698(2) 0.2618(3) -0.03045(7)
H1 H 0.1156 0.1181 -0.0388
C5 C 0.08979(18) 0.3982(3) 0.16735(6)
C6 C 0.0009(2) 0.1930(3) 0.17371(7)
H2 H -0.0152 0.0810 0.1440
C7 C 0.33478(18) 0.7012(3) -0.00352(6)
H3 H 0.3893 0.8445 0.0049
C8 C 0.4015(2) 0.7117(4) -0.10349(7)
H4 H 0.3925 0.6343 -0.1391
C9 C 0.24106(19) 0.6309(3) 0.09716(7)
H5 H 0.2809 0.7615 0.1195
C10 C 0.15419(18) 0.4488(3) 0.11418(6)
C11 C 0.2438(2) 0.3798(3) -0.07066(7)
H6 H 0.2400 0.3140 -0.1075
C12 C 0.1142(2) 0.5606(3) 0.21322(7)
H7 H 0.1747 0.6978 0.2100
C13 C 0.0495(2) 0.5195(3) 0.26322(8)
H8 H 0.0665 0.6292 0.2934
C14 C -0.0399(2) 0.3174(4) 0.26877(8)
H9 H -0.0840 0.2909 0.3025
C15 C -0.0638(2) 0.1547(4) 0.22418(8)
H10 H -0.1240 0.0176 0.2279
loop_
_geom_bond_atom_site_label_1
_geom_bond_atom_site_label_2
_geom_bond_site_symmetry_1
_geom_bond_site_symmetry_2
O1 C1 1_555 1_555
O2 C8 1_555 1_555
C1 C3 1_555 1_555
C2 C7 1_555 1_555
C3 C7 1_555 1_555
C4 C1 1_555 1_555
H1 C4 1_555 1_555
C5 C6 1_555 1_555
C6 H2 1_555 1_555
C7 H3 1_555 1_555
C8 C2 1_555 1_555
H4 C8 1_555 1_555
C9 C3 1_555 1_555
H5 C9 1_555 1_555
C10 O1 1_555 1_555
C11 C2 1_555 1_555
H6 C11 1_555 1_555
C12 C5 1_555 1_555
H7 C12 1_555 1_555
C13 C12 1_555 1_555
H8 C13 1_555 1_555
C14 C13 1_555 1_555
H9 C14 1_555 1_555
C15 C6 1_555 1_555
H10 C15 1_555 1_555
C4 C11 1_555 1_555
C5 C10 1_555 1_555
C9 C10 1_555 1_555
C14 C15 1_555 1_555

#END
