
#######################################################################
#
#                 Cambridge Crystallographic Data Centre
#                                CCDC 
#
#######################################################################
#
# If this CIF has been generated from an entry in the Cambridge 
# Structural Database, then it will include bibliographic, chemical, 
# crystal, experimental, refinement or atomic coordinate data resulting 
# from the CCDC's data processing and validation procedures.
#
#######################################################################

data_ACUWOL01
_chemical_name_common            (8R,12S)-Isoandrographolide
_chemical_formula_moiety         'C20 H30 O5'
_chemical_name_systematic        
3-(7-Hydroxy-6-(hydroxymethyl)-3a,6,9a-trimethyldodecahydronaphtho[2,1-b]furan-2-yl)furan-2(5H)-one
_symmetry_cell_setting           orthorhombic
_symmetry_space_group_name_H-M   'P 21 21 21'
_symmetry_Int_Tables_number      19
_space_group_name_Hall           'P 2ac 2ab'
loop_
_symmetry_equiv_pos_site_id
_symmetry_equiv_pos_as_xyz
1 x,y,z
2 1/2-x,-y,1/2+z
3 -x,1/2+y,1/2-z
4 1/2+x,1/2-y,-z
_cell_length_a                   6.9717(7)
_cell_length_b                   11.4183(12)
_cell_length_c                   22.466(2)
_cell_angle_alpha                90
_cell_angle_beta                 90
_cell_angle_gamma                90
_cell_volume                     1788.41
_exptl_crystal_colour            colorless
_exptl_crystal_description       bar
_cell_formula_units_Z            4
loop_
_atom_site_label
_atom_site_type_symbol
_atom_site_fract_x
_atom_site_fract_y
_atom_site_fract_z
O1 O 0.36392(19) 0.24401(10) 0.43219(6)
H1 H 0.2492 0.2202 0.4363
O2 O 0.64322(18) 0.85598(10) 0.39247(5)
O3 O 0.95657(19) 1.08660(10) 0.25026(6)
O4 O 0.9761(2) 0.89781(11) 0.22435(6)
O5 O 0.49819(18) 0.32975(10) 0.53651(5)
H2 H 0.4612 0.2750 0.5136
C1 C 0.5271(3) 0.48660(15) 0.33102(8)
H3 H 0.4068 0.4943 0.3079
H4 H 0.6354 0.4893 0.3026
C2 C 0.5279(3) 0.36795(15) 0.36278(8)
H5 H 0.5162 0.3043 0.3331
H6 H 0.6509 0.3576 0.3841
C3 C 0.3640(3) 0.36035(15) 0.40645(8)
H7 H 0.2417 0.3702 0.3837
C4 C 0.3696(3) 0.45547(15) 0.45536(8)
C5 C 0.3891(3) 0.57716(15) 0.42390(8)
H8 H 0.2641 0.5884 0.4028
C6 C 0.4019(3) 0.68045(15) 0.46720(8)
H9 H 0.3151 0.6670 0.5014
H10 H 0.5345 0.6873 0.4826
C7 C 0.3459(3) 0.79249(15) 0.43560(8)
H11 H 0.3698 0.8593 0.4627
H12 H 0.2065 0.7902 0.4273
C8 C 0.4520(3) 0.81431(15) 0.37749(8)
C9 C 0.4935(2) 0.70592(15) 0.33932(8)
H13 H 0.3795 0.6903 0.3135
C10 C 0.5438(3) 0.59083(15) 0.37432(8)
C11 C 0.6573(3) 0.75360(16) 0.29991(8)
H14 H 0.7433 0.6897 0.2867
H15 H 0.6059 0.7945 0.2645
C12 C 0.7631(3) 0.83925(16) 0.34133(8)
H16 H 0.8840 0.8004 0.3549
C13 C 0.8157(3) 0.95684(16) 0.31543(8)
C14 C 0.7888(3) 1.06209(16) 0.33827(9)
H17 H 0.7221 1.0779 0.3742
C15 C 0.8780(3) 1.15192(17) 0.29955(9)
H18 H 0.7811 1.2090 0.2856
H19 H 0.9803 1.1945 0.3211
C16 C 0.9222(3) 0.97012(16) 0.25940(9)
C17 C 0.3452(3) 0.90915(16) 0.34269(9)
H20 H 0.3229 0.9769 0.3686
H21 H 0.2219 0.8782 0.3289
H22 H 0.4224 0.9332 0.3083
C18 C 0.1762(3) 0.45267(15) 0.48844(8)
H23 H 0.1619 0.3774 0.5089
H24 H 0.0714 0.4626 0.4598
H25 H 0.1721 0.5163 0.5177
C19 C 0.5297(3) 0.43304(15) 0.50109(8)
H26 H 0.6533 0.4250 0.4798
H27 H 0.5397 0.5017 0.5278
C20 C 0.7514(2) 0.59332(15) 0.39806(8)
H28 H 0.8407 0.6021 0.3647
H29 H 0.7787 0.5200 0.4191
H30 H 0.7667 0.6594 0.4255
loop_
_geom_bond_atom_site_label_1
_geom_bond_atom_site_label_2
_geom_bond_site_symmetry_1
_geom_bond_site_symmetry_2
O1 H1 1_555 1_555
O2 C8 1_555 1_555
O3 C15 1_555 1_555
O4 C16 1_555 1_555
O5 H2 1_555 1_555
C1 H3 1_555 1_555
H4 C1 1_555 1_555
C2 C1 1_555 1_555
H5 C2 1_555 1_555
H6 C2 1_555 1_555
C3 O1 1_555 1_555
H7 C3 1_555 1_555
C4 C3 1_555 1_555
C5 C4 1_555 1_555
H8 C5 1_555 1_555
C6 C5 1_555 1_555
H9 C6 1_555 1_555
H10 C6 1_555 1_555
C7 C6 1_555 1_555
H11 C7 1_555 1_555
H12 C7 1_555 1_555
C8 C7 1_555 1_555
C9 C8 1_555 1_555
H13 C9 1_555 1_555
C10 C1 1_555 1_555
C11 C9 1_555 1_555
H14 C11 1_555 1_555
H15 C11 1_555 1_555
C12 O2 1_555 1_555
H16 C12 1_555 1_555
C13 C12 1_555 1_555
C14 C13 1_555 1_555
H17 C14 1_555 1_555
C15 C14 1_555 1_555
H18 C15 1_555 1_555
H19 C15 1_555 1_555
C16 O3 1_555 1_555
C17 C8 1_555 1_555
H20 C17 1_555 1_555
H21 C17 1_555 1_555
H22 C17 1_555 1_555
C18 C4 1_555 1_555
H23 C18 1_555 1_555
H24 C18 1_555 1_555
H25 C18 1_555 1_555
C19 O5 1_555 1_555
H26 C19 1_555 1_555
H27 C19 1_555 1_555
C20 C10 1_555 1_555
H28 C20 1_555 1_555
H29 C20 1_555 1_555
H30 C20 1_555 1_555
C2 C3 1_555 1_555
C4 C19 1_555 1_555
C5 C10 1_555 1_555
C9 C10 1_555 1_555
C11 C12 1_555 1_555
C13 C16 1_555 1_555

#END
