
#######################################################################
#
#                 Cambridge Crystallographic Data Centre
#                                CCDC 
#
#######################################################################
#
# If this CIF has been generated from an entry in the Cambridge 
# Structural Database, then it will include bibliographic, chemical, 
# crystal, experimental, refinement or atomic coordinate data resulting 
# from the CCDC's data processing and validation procedures.
#
#######################################################################

data_ACUWOM
_chemical_formula_moiety         'C28 H28 O4'
_chemical_name_systematic        
3-(2-Allyl-3,4-dimethoxyphenyl)-1,5-diphenylpentane-1,5-dione
_symmetry_cell_setting           monoclinic
_symmetry_space_group_name_H-M   'P 21/c'
_symmetry_Int_Tables_number      14
_space_group_name_Hall           '-P 2ybc'
loop_
_symmetry_equiv_pos_site_id
_symmetry_equiv_pos_as_xyz
1 x,y,z
2 -x,1/2+y,1/2-z
3 -x,-y,-z
4 x,1/2-y,1/2+z
_cell_length_a                   19.4340(8)
_cell_length_b                   10.8561(4)
_cell_length_c                   11.2370(4)
_cell_angle_alpha                90
_cell_angle_beta                 105.6890(10)
_cell_angle_gamma                90
_cell_volume                     2282.43
_exptl_crystal_colour            colorless
_cell_formula_units_Z            4
loop_
_atom_site_label
_atom_site_type_symbol
_atom_site_fract_x
_atom_site_fract_y
_atom_site_fract_z
C1 C -0.00309(9) 0.48477(15) 0.21435(15)
H1 H -0.0395 0.4244 0.1888
C2 C 0.04777(9) 0.47239(16) 0.32667(15)
H2 H 0.0465 0.4032 0.3778
C3 C 0.10079(8) 0.56116(14) 0.36482(14)
H3 H 0.1350 0.5534 0.4428
C4 C 0.10384(8) 0.66159(14) 0.28899(13)
C5 C 0.16195(8) 0.75627(14) 0.32190(13)
C6 C 0.21446(8) 0.75208(14) 0.44867(13)
H4 H 0.2405 0.6727 0.4584
H5 H 0.1877 0.7555 0.5121
C7 C 0.26870(8) 0.85772(13) 0.47122(13)
H6 H 0.2847 0.8675 0.3943
C8 C 0.23694(7) 0.98048(13) 0.49542(12)
C9 C 0.20144(8) 0.98885(14) 0.58708(13)
H7 H 0.1968 0.9168 0.6322
C10 C 0.17241(8) 1.09841(14) 0.61541(13)
H8 H 0.1480 1.1007 0.6780
C11 C 0.17967(8) 1.20394(14) 0.55103(13)
C12 C 0.10477(9) 1.32446(17) 0.64435(15)
H9 H 0.0629 1.2723 0.6106
H10 H 0.0894 1.4100 0.6483
H11 H 0.1298 1.2961 0.7276
C13 C 0.24554(8) 1.08824(13) 0.43098(13)
C14 C 0.28312(9) 1.08736(14) 0.32863(14)
H12 H 0.2641 1.0183 0.2717
H13 H 0.2716 1.1648 0.2808
C15 C 0.36261(9) 1.07487(15) 0.37346(15)
H14 H 0.3874 1.1351 0.4304
C16 C 0.21741(8) 1.19858(13) 0.46109(13)
C17 C 0.27334(9) 1.39164(15) 0.45817(17)
H15 H 0.2605 1.4201 0.5321
H16 H 0.2742 1.4619 0.4039
H17 H 0.3207 1.3531 0.4825
C18 C -0.00104(9) 0.58504(15) 0.13885(15)
H18 H -0.0363 0.5938 0.0621
C19 C 0.05231(8) 0.67212(15) 0.17527(14)
H19 H 0.0540 0.7398 0.1226
C20 C 0.33545(8) 0.82888(14) 0.57722(13)
H20 H 0.3625 0.9061 0.6029
H21 H 0.3201 0.7978 0.6488
C21 C 0.38453(8) 0.73512(13) 0.54354(13)
C22 C 0.45632(8) 0.71350(13) 0.63256(13)
C23 C 0.50185(8) 0.62922(14) 0.59941(14)
H22 H 0.4868 0.5885 0.5219
C24 C 0.56864(9) 0.60373(15) 0.67733(15)
H23 H 0.5988 0.5449 0.6540
C25 C 0.59128(9) 0.66441(15) 0.78926(15)
H24 H 0.6373 0.6483 0.8428
C26 C 0.54670(9) 0.74861(16) 0.82299(15)
H25 H 0.5623 0.7900 0.9001
C27 C 0.47944(8) 0.77348(15) 0.74565(14)
H26 H 0.4492 0.8314 0.7699
C28 C 0.40115(11) 0.98901(18) 0.3417(2)
H27 H 0.3788 0.9267 0.2850
H28 H 0.4516 0.9888 0.3753
O1 O 0.15188(6) 1.31722(10) 0.56628(10)
O2 O 0.36714(6) 0.67865(10) 0.44582(10)
O3 O 0.22186(6) 1.30402(9) 0.39410(9)
O4 O 0.16747(6) 0.83320(11) 0.24569(10)
loop_
_geom_bond_atom_site_label_1
_geom_bond_atom_site_label_2
_geom_bond_site_symmetry_1
_geom_bond_site_symmetry_2
C1 H1 1_555 1_555
C2 C1 1_555 1_555
H2 C2 1_555 1_555
C3 C2 1_555 1_555
H3 C3 1_555 1_555
C4 C3 1_555 1_555
C5 C4 1_555 1_555
C6 C5 1_555 1_555
H4 C6 1_555 1_555
H5 C6 1_555 1_555
C7 C6 1_555 1_555
H6 C7 1_555 1_555
C8 C7 1_555 1_555
C9 C8 1_555 1_555
H7 C9 1_555 1_555
C10 C9 1_555 1_555
H8 C10 1_555 1_555
C11 C10 1_555 1_555
C12 H9 1_555 1_555
H10 C12 1_555 1_555
H11 C12 1_555 1_555
C13 C8 1_555 1_555
C14 C13 1_555 1_555
H12 C14 1_555 1_555
H13 C14 1_555 1_555
C15 C14 1_555 1_555
H14 C15 1_555 1_555
C16 C11 1_555 1_555
C17 H15 1_555 1_555
H16 C17 1_555 1_555
H17 C17 1_555 1_555
C18 C1 1_555 1_555
H18 C18 1_555 1_555
C19 C4 1_555 1_555
H19 C19 1_555 1_555
C20 C7 1_555 1_555
H20 C20 1_555 1_555
H21 C20 1_555 1_555
C21 C20 1_555 1_555
C22 C21 1_555 1_555
C23 C22 1_555 1_555
H22 C23 1_555 1_555
C24 C23 1_555 1_555
H23 C24 1_555 1_555
C25 C24 1_555 1_555
H24 C25 1_555 1_555
C26 C25 1_555 1_555
H25 C26 1_555 1_555
C27 C22 1_555 1_555
H26 C27 1_555 1_555
C28 C15 1_555 1_555
H27 C28 1_555 1_555
H28 C28 1_555 1_555
O1 C11 1_555 1_555
O2 C21 1_555 1_555
O3 C16 1_555 1_555
O4 C5 1_555 1_555
C12 O1 1_555 1_555
C13 C16 1_555 1_555
C17 O3 1_555 1_555
C18 C19 1_555 1_555
C26 C27 1_555 1_555

#END
