
#######################################################################
#
#                 Cambridge Crystallographic Data Centre
#                                CCDC 
#
#######################################################################
#
# If this CIF has been generated from an entry in the Cambridge 
# Structural Database, then it will include bibliographic, chemical, 
# crystal, experimental, refinement or atomic coordinate data resulting 
# from the CCDC's data processing and validation procedures.
#
#######################################################################

data_ACUWOL
_chemical_compound_source        'leaves of Andrographis paniculata'
_chemical_formula_moiety         'C20 H30 O5'
_chemical_name_systematic        Isoandrographolide
_chemical_properties_biological  
'parent plant exhibits antibacterial, anti-inflammatory, antimalarial, antithrombotic, hepatoprotective and immunostimulant properties'
_symmetry_cell_setting           orthorhombic
_symmetry_space_group_name_H-M   'P 21 21 21'
_symmetry_Int_Tables_number      19
_space_group_name_Hall           'P 2ac 2ab'
loop_
_symmetry_equiv_pos_site_id
_symmetry_equiv_pos_as_xyz
1 x,y,z
2 1/2-x,-y,1/2+z
3 -x,1/2+y,1/2-z
4 1/2+x,1/2-y,-z
_cell_length_a                   7.0036(10)
_cell_length_b                   11.4842(10)
_cell_length_c                   22.8308(10)
_cell_angle_alpha                90
_cell_angle_beta                 90
_cell_angle_gamma                90
_cell_volume                     1836.3
_exptl_crystal_colour            colorless
_exptl_crystal_description       prism
_chemical_melting_point          '198-200 deg.C'
_cell_formula_units_Z            4
loop_
_atom_site_label
_atom_site_type_symbol
_atom_site_fract_x
_atom_site_fract_y
_atom_site_fract_z
C1 C -0.0235(5) 0.0116(2) -0.16896(11)
H1 H 0.0952 0.0026 -0.1904
H2 H -0.1273 0.0088 -0.1970
C2 C -0.0242(5) 0.1306(2) -0.13869(11)
H3 H -0.0095 0.1915 -0.1678
H4 H -0.1454 0.1422 -0.1190
O1 O 0.1359(3) 0.25431(15) -0.06991(9)
H5 H 0.2724(13) 0.279(2) -0.0672(12)
C3 C 0.1371(4) 0.1382(2) -0.09446(11)
H6 H 0.2577 0.1278 -0.1156
C4 C 0.1264(3) 0.0444(2) -0.04617(10)
C5 C 0.1059(3) -0.0766(2) -0.07647(10)
H7 H 0.2286 -0.0890 -0.0961
C6 C 0.0883(4) -0.1789(2) -0.03346(10)
H8 H 0.1711 -0.1658 0.0000
H9 H -0.0421 -0.1844 -0.0194
C7 C 0.1440(4) -0.2913(2) -0.06373(11)
H10 H 0.1182 -0.3557 -0.0374
H11 H 0.2804 -0.2900 -0.0711
C8 C 0.0420(4) -0.3137(2) -0.12098(10)
C9 C 0.0025(3) -0.2062(2) -0.15916(9)
H12 H 0.1148 -0.1924 -0.1838
C10 C -0.0451(4) -0.0905(2) -0.12567(10)
C11 C -0.1591(4) -0.2534(2) -0.19838(10)
H13 H -0.2421 -0.1910 -0.2114
H14 H -0.1079 -0.2934 -0.2324
C12 C -0.2664(4) -0.3381(2) -0.15831(10)
H15 H -0.3845 -0.2998 -0.1457
O2 O -0.1491(3) -0.35499(14) -0.10738(7)
C13 C -0.3194(4) -0.4544(2) -0.18363(11)
C14 C -0.2934(5) -0.5591(3) -0.16213(12)
H16 H -0.2287 -0.5751 -0.1275
C15 C -0.3809(6) -0.6481(3) -0.20041(13)
H17 H -0.2858 -0.7031 -0.2141
H18 H -0.4805 -0.6903 -0.1799
O3 O -0.4586(3) -0.58241(17) -0.24818(9)
C16 C -0.4250(4) -0.4674(3) -0.23855(13)
O4 O -0.4779(3) -0.39543(19) -0.27272(9)
C17 C 0.1500(5) -0.4089(3) -0.15472(13)
H19 H 0.0873 -0.4232 -0.1914
H20 H 0.1517 -0.4792 -0.1320
H21 H 0.2787 -0.3838 -0.1619
C18 C 0.3168(4) 0.0465(2) -0.01242(12)
H22 H 0.4200 0.0305 -0.0389
H23 H 0.3144 -0.0116 0.0178
H24 H 0.3348 0.1219 0.0049
C19 C -0.0346(4) 0.0693(2) -0.00231(11)
H25 H -0.1529 0.0798 -0.0237
H26 H -0.0501 0.0021 0.0229
O5 O -0.0021(3) 0.17062(16) 0.03366(8)
H27 H 0.047(4) 0.2322(18) 0.0066(10)
C20 C -0.2529(4) -0.0905(2) -0.10340(12)
H28 H -0.2702 -0.1533 -0.0762
H29 H -0.3383 -0.1004 -0.1359
H30 H -0.2795 -0.0178 -0.0843
loop_
_geom_bond_atom_site_label_1
_geom_bond_atom_site_label_2
_geom_bond_site_symmetry_1
_geom_bond_site_symmetry_2
C1 H1 1_555 1_555
H2 C1 1_555 1_555
C2 C1 1_555 1_555
H3 C2 1_555 1_555
H4 C2 1_555 1_555
O1 H5 1_555 1_555
C3 C2 1_555 1_555
H6 C3 1_555 1_555
C4 C3 1_555 1_555
C5 C4 1_555 1_555
H7 C5 1_555 1_555
C6 C5 1_555 1_555
H8 C6 1_555 1_555
H9 C6 1_555 1_555
C7 C6 1_555 1_555
H10 C7 1_555 1_555
H11 C7 1_555 1_555
C8 C7 1_555 1_555
C9 C8 1_555 1_555
H12 C9 1_555 1_555
C10 C1 1_555 1_555
C11 C9 1_555 1_555
H13 C11 1_555 1_555
H14 C11 1_555 1_555
C12 C11 1_555 1_555
H15 C12 1_555 1_555
O2 C8 1_555 1_555
C13 C12 1_555 1_555
C14 C13 1_555 1_555
H16 C14 1_555 1_555
C15 C14 1_555 1_555
H17 C15 1_555 1_555
H18 C15 1_555 1_555
O3 C15 1_555 1_555
C16 C13 1_555 1_555
O4 C16 1_555 1_555
C17 C8 1_555 1_555
H19 C17 1_555 1_555
H20 C17 1_555 1_555
H21 C17 1_555 1_555
C18 C4 1_555 1_555
H22 C18 1_555 1_555
H23 C18 1_555 1_555
H24 C18 1_555 1_555
C19 C4 1_555 1_555
H25 C19 1_555 1_555
H26 C19 1_555 1_555
O5 C19 1_555 1_555
H27 O5 1_555 1_555
C20 C10 1_555 1_555
H28 C20 1_555 1_555
H29 C20 1_555 1_555
H30 C20 1_555 1_555
O1 C3 1_555 1_555
C5 C10 1_555 1_555
C9 C10 1_555 1_555
C12 O2 1_555 1_555
O3 C16 1_555 1_555

#END
