
#######################################################################
#
#                 Cambridge Crystallographic Data Centre
#                                CCDC 
#
#######################################################################
#
# If this CIF has been generated from an entry in the Cambridge 
# Structural Database, then it will include bibliographic, chemical, 
# crystal, experimental, refinement or atomic coordinate data resulting 
# from the CCDC's data processing and validation procedures.
#
#######################################################################

data_ACUXOO
_chemical_formula_moiety         'C21 H26 N2 O5'
_chemical_name_systematic        
'1-(2,4-dimethylpentan-3-yl) 6-methyl (R)-1-methyl-3-oxo-2,3-dihydro-1H-imidazo[1,5-a]indole-1,6-dicarboxylate'
_symmetry_cell_setting           monoclinic
_symmetry_space_group_name_H-M   'C 2'
_symmetry_Int_Tables_number      5
_space_group_name_Hall           'C 2y'
loop_
_symmetry_equiv_pos_site_id
_symmetry_equiv_pos_as_xyz
1 x,y,z
2 -x,y,-z
3 1/2+x,1/2+y,z
4 1/2-x,1/2+y,-z
_cell_length_a                   22.5768(11)
_cell_length_b                   8.5784(2)
_cell_length_c                   12.0175(6)
_cell_angle_alpha                90
_cell_angle_beta                 121.047(6)
_cell_angle_gamma                90
_cell_volume                     1994.04
_cell_formula_units_Z            4
loop_
_atom_site_label
_atom_site_type_symbol
_atom_site_fract_x
_atom_site_fract_y
_atom_site_fract_z
O1 O 0.09245(6) 0.61005(16) 0.34101(12)
O2 O 0.59867(6) 0.61591(14) 0.76083(10)
O3 O 0.57940(7) 0.67071(16) 0.92328(12)
O4 O 0.40450(6) 0.37261(13) 0.44295(11)
O5 O 0.14407(6) 0.47096(15) 0.25626(12)
N1 N 0.40022(7) 0.46925(16) 0.62021(13)
N2 N 0.50119(7) 0.40648(16) 0.64851(13)
H1 H 0.5331 0.3757 0.6320
C1 C 0.21316(9) 0.55162(18) 0.47414(17)
C2 C 0.44650(8) 0.50465(19) 0.74865(15)
C3 C 0.34093(9) 0.57105(18) 0.70505(15)
C4 C 0.21850(8) 0.6159(2) 0.58716(16)
H2 H 0.1781 0.6533 0.5842
C5 C 0.41320(9) 0.56625(19) 0.80540(16)
H3 H 0.4332 0.5994 0.8930
C6 C 0.33373(8) 0.50855(19) 0.58955(16)
C7 C 0.27106(8) 0.49634(19) 0.47414(15)
H4 H 0.2677 0.4523 0.3986
C8 C 0.14359(9) 0.54922(18) 0.35301(17)
C9 C 0.28146(9) 0.62528(19) 0.70189(16)
H5 H 0.2845 0.6679 0.7776
C10 C 0.56828(8) 0.59753(19) 0.82907(14)
C11 C 0.57180(10) 0.9555(2) 0.7244(2)
H6 H 0.5581 1.0500 0.6710
H7 H 0.5902 0.9840 0.8154
H8 H 0.5315 0.8876 0.6948
C12 C 0.07889(9) 0.4678(2) 0.13504(17)
H9 H 0.0840 0.4089 0.0706
H10 H 0.0644 0.5746 0.1040
H11 H 0.0439 0.4175 0.1481
C13 C 0.43304(8) 0.40938(17) 0.55678(15)
C14 C 0.54950(9) 0.32645(19) 0.87778(16)
H12 H 0.5180 0.2370 0.8482
H13 H 0.5571 0.3630 0.9614
H14 H 0.5938 0.2952 0.8878
C15 C 0.51751(8) 0.45868(18) 0.77710(15)
C16 C 0.77293(9) 0.7479(2) 0.8283(2)
H15 H 0.7570 0.8175 0.7536
H16 H 0.8122 0.6862 0.8395
H17 H 0.7873 0.8100 0.9067
C17 C 0.62759(9) 0.8692(2) 0.71192(17)
H18 H 0.6670 0.9432 0.7396
C18 C 0.60176(10) 0.8244(2) 0.57131(18)
H19 H 0.5653 0.7458 0.5427
H20 H 0.6401 0.7818 0.5649
H21 H 0.5833 0.9170 0.5160
C19 C 0.65538(8) 0.72910(19) 0.80389(16)
H22 H 0.6706 0.7642 0.8941
C20 C 0.71418(9) 0.63896(19) 0.80529(16)
H23 H 0.6955 0.5890 0.7183
C21 C 0.74086(12) 0.5102(3) 0.9077(2)
H24 H 0.7774 0.4516 0.9050
H25 H 0.7028 0.4396 0.8898
H26 H 0.7595 0.5567 0.9939
loop_
_geom_bond_atom_site_label_1
_geom_bond_atom_site_label_2
_geom_bond_site_symmetry_1
_geom_bond_site_symmetry_2
O1 C8 1_555 1_555
O2 C10 1_555 1_555
O3 C10 1_555 1_555
O4 C13 1_555 1_555
O5 C8 1_555 1_555
N1 C2 1_555 1_555
N2 H1 1_555 1_555
C1 C4 1_555 1_555
C2 C5 1_555 1_555
C3 C5 1_555 1_555
C4 H2 1_555 1_555
C5 H3 1_555 1_555
C6 N1 1_555 1_555
C7 C1 1_555 1_555
H4 C7 1_555 1_555
C8 C1 1_555 1_555
C9 C3 1_555 1_555
H5 C9 1_555 1_555
C10 C15 1_555 1_555
C11 H6 1_555 1_555
H7 C11 1_555 1_555
H8 C11 1_555 1_555
C12 O5 1_555 1_555
H9 C12 1_555 1_555
H10 C12 1_555 1_555
H11 C12 1_555 1_555
C13 N1 1_555 1_555
C14 H12 1_555 1_555
H13 C14 1_555 1_555
H14 C14 1_555 1_555
C15 N2 1_555 1_555
C16 H15 1_555 1_555
H16 C16 1_555 1_555
H17 C16 1_555 1_555
C17 C11 1_555 1_555
H18 C17 1_555 1_555
C18 C17 1_555 1_555
H19 C18 1_555 1_555
H20 C18 1_555 1_555
H21 C18 1_555 1_555
C19 O2 1_555 1_555
H22 C19 1_555 1_555
C20 C16 1_555 1_555
H23 C20 1_555 1_555
C21 C20 1_555 1_555
H24 C21 1_555 1_555
H25 C21 1_555 1_555
H26 C21 1_555 1_555
N2 C13 1_555 1_555
C2 C15 1_555 1_555
C3 C6 1_555 1_555
C4 C9 1_555 1_555
C6 C7 1_555 1_555
C14 C15 1_555 1_555
C17 C19 1_555 1_555
C19 C20 1_555 1_555

#END
