
#######################################################################
#
#                 Cambridge Crystallographic Data Centre
#                                CCDC 
#
#######################################################################
#
# If this CIF has been generated from an entry in the Cambridge 
# Structural Database, then it will include bibliographic, chemical, 
# crystal, experimental, refinement or atomic coordinate data resulting 
# from the CCDC's data processing and validation procedures.
#
#######################################################################

data_ACUXIH
_chemical_formula_moiety         'C29 H29 N1 O2'
_chemical_name_systematic        
5,6-Dimethoxy-8-methyl-11,13-diphenyl-12-azatetracyclo[9.3.1.0^2,7^.0^9,14^]pentadeca-2,4,6,12-tetraene
_symmetry_cell_setting           monoclinic
_symmetry_space_group_name_H-M   'P 21/c'
_symmetry_Int_Tables_number      14
_space_group_name_Hall           '-P 2ybc'
loop_
_symmetry_equiv_pos_site_id
_symmetry_equiv_pos_as_xyz
1 x,y,z
2 -x,1/2+y,1/2-z
3 -x,-y,-z
4 x,1/2-y,1/2+z
_cell_length_a                   8.0912(6)
_cell_length_b                   21.4653(15)
_cell_length_c                   12.8879(9)
_cell_angle_alpha                90
_cell_angle_beta                 97.626(4)
_cell_angle_gamma                90
_cell_volume                     2218.57
_exptl_crystal_colour            colorless
_cell_formula_units_Z            4
loop_
_atom_site_label
_atom_site_type_symbol
_atom_site_fract_x
_atom_site_fract_y
_atom_site_fract_z
O1 O 1.03491(13) 0.30840(5) 1.04564(9)
O2 O 1.11387(12) 0.38328(5) 0.89476(8)
N1 N 0.40765(15) 0.53250(5) 0.65240(9)
C1 C 0.1090(2) 0.35679(7) 0.44661(12)
H1 H 0.0317 0.3322 0.4022
C2 C 0.2769(2) 0.34234(7) 0.45928(12)
H2 H 0.3152 0.3078 0.4230
C3 C 0.39025(19) 0.37813(7) 0.52493(11)
H3 H 0.5054 0.3679 0.5328
C4 C 0.33633(18) 0.42882(7) 0.57909(11)
C5 C 0.45351(18) 0.46571(6) 0.65839(11)
C6 C 0.42849(18) 0.44328(7) 0.76881(11)
H4 H 0.4488 0.3979 0.7748
H5 H 0.3123 0.4515 0.7813
C7 C 0.55128(18) 0.47819(7) 0.85139(11)
H6 H 0.4871 0.4961 0.9055
C8 C 0.68358(18) 0.43465(6) 0.90483(11)
C9 C 0.84219(18) 0.43013(6) 0.87287(11)
C10 C 0.95436(18) 0.38632(7) 0.92199(11)
C11 C 0.91160(18) 0.34811(7) 1.00189(11)
C12 C 0.9963(2) 0.26978(9) 1.12849(15)
H7 H 0.9716 0.2958 1.1870
H8 H 1.0917 0.2428 1.1518
H9 H 0.8989 0.2441 1.1039
C13 C 0.64235(19) 0.39559(7) 0.98372(11)
H10 H 0.5343 0.3984 1.0045
C14 C 0.75462(19) 0.35266(7) 1.03282(11)
H11 H 0.7242 0.3267 1.0869
C15 C 0.62932(18) 0.53220(6) 0.79535(11)
H12 H 0.6908 0.5617 0.8467
C16 C 0.49501(18) 0.56491(7) 0.72395(11)
C17 C 0.63992(17) 0.45851(6) 0.64689(11)
H13 H 0.6574 0.4681 0.5740
H14 H 0.6752 0.4149 0.6622
C18 C 0.74658(17) 0.50302(6) 0.72297(11)
H15 H 0.7891 0.5372 0.6809
C19 C 0.89663(18) 0.47190(6) 0.78831(11)
H16 H 0.9535 0.4451 0.7403
C20 C 1.02249(19) 0.52109(7) 0.83566(12)
H17 H 0.9667 0.5506 0.8775
H18 H 1.0672 0.5435 0.7793
H19 H 1.1139 0.5006 0.8804
C21 C 0.0543(2) 0.40755(7) 0.49927(13)
H20 H -0.0608 0.4180 0.4902
C22 C 0.16644(18) 0.44302(7) 0.56493(12)
H21 H 0.1273 0.4775 0.6009
C23 C 0.46468(18) 0.63318(7) 0.72981(11)
C24 C 0.56127(19) 0.67199(7) 0.80048(12)
H22 H 0.6503 0.6549 0.8474
C25 C 0.5281(2) 0.73563(7) 0.80280(14)
H23 H 0.5936 0.7615 0.8520
C26 C 0.4008(2) 0.76138(7) 0.73402(14)
H24 H 0.3792 0.8049 0.7353
C27 C 0.3049(2) 0.72317(7) 0.66305(14)
H25 H 0.2172 0.7406 0.6156
C28 C 0.33614(19) 0.65992(7) 0.66103(13)
H26 H 0.2693 0.6343 0.6122
C29 C 1.1439(2) 0.32868(8) 0.83737(17)
H27 H 1.1006 0.2922 0.8708
H28 H 1.2641 0.3238 0.8364
H29 H 1.0877 0.3325 0.7655
loop_
_geom_bond_atom_site_label_1
_geom_bond_atom_site_label_2
_geom_bond_site_symmetry_1
_geom_bond_site_symmetry_2
O1 C11 1_555 1_555
O2 C10 1_555 1_555
N1 C5 1_555 1_555
C1 H1 1_555 1_555
C2 C1 1_555 1_555
H2 C2 1_555 1_555
C3 C2 1_555 1_555
H3 C3 1_555 1_555
C4 C3 1_555 1_555
C5 C4 1_555 1_555
C6 C5 1_555 1_555
H4 C6 1_555 1_555
H5 C6 1_555 1_555
C7 C6 1_555 1_555
H6 C7 1_555 1_555
C8 C7 1_555 1_555
C9 C8 1_555 1_555
C10 C9 1_555 1_555
C11 C10 1_555 1_555
C12 O1 1_555 1_555
H7 C12 1_555 1_555
H8 C12 1_555 1_555
H9 C12 1_555 1_555
C13 C8 1_555 1_555
H10 C13 1_555 1_555
C14 C11 1_555 1_555
H11 C14 1_555 1_555
C15 C7 1_555 1_555
H12 C15 1_555 1_555
C16 N1 1_555 1_555
C17 C5 1_555 1_555
H13 C17 1_555 1_555
H14 C17 1_555 1_555
C18 C15 1_555 1_555
H15 C18 1_555 1_555
C19 C9 1_555 1_555
H16 C19 1_555 1_555
C20 C19 1_555 1_555
H17 C20 1_555 1_555
H18 C20 1_555 1_555
H19 C20 1_555 1_555
C21 C1 1_555 1_555
H20 C21 1_555 1_555
C22 C4 1_555 1_555
H21 C22 1_555 1_555
C23 C16 1_555 1_555
C24 C23 1_555 1_555
H22 C24 1_555 1_555
C25 C24 1_555 1_555
H23 C25 1_555 1_555
C26 C25 1_555 1_555
H24 C26 1_555 1_555
C27 C26 1_555 1_555
H25 C27 1_555 1_555
C28 C23 1_555 1_555
H26 C28 1_555 1_555
C29 O2 1_555 1_555
H27 C29 1_555 1_555
H28 C29 1_555 1_555
H29 C29 1_555 1_555
C13 C14 1_555 1_555
C15 C16 1_555 1_555
C17 C18 1_555 1_555
C18 C19 1_555 1_555
C21 C22 1_555 1_555
C27 C28 1_555 1_555

#END
