
#######################################################################
#
#                 Cambridge Crystallographic Data Centre
#                                CCDC 
#
#######################################################################
#
# If this CIF has been generated from an entry in the Cambridge 
# Structural Database, then it will include bibliographic, chemical, 
# crystal, experimental, refinement or atomic coordinate data resulting 
# from the CCDC's data processing and validation procedures.
#
#######################################################################

data_ADAKAS
_chemical_formula_moiety         'C20 H12 F6 N2 S2'
_chemical_name_systematic        
2-(4-(2-(2,5-Dimethyl-3-thienyl)-3,3,4,4,5,5-hexafluorocyclopent-1-enyl)-5-methyl-2-thienylmethylene)propanedinitrile
_symmetry_cell_setting           monoclinic
_symmetry_space_group_name_H-M   'P 21/n'
_symmetry_Int_Tables_number      14
_space_group_name_Hall           '-P 2yn'
loop_
_symmetry_equiv_pos_site_id
_symmetry_equiv_pos_as_xyz
1 x,y,z
2 1/2-x,1/2+y,1/2-z
3 -x,-y,-z
4 1/2+x,1/2-y,1/2+z
_cell_length_a                   13.6074(15)
_cell_length_b                   8.4990(11)
_cell_length_c                   17.9494(19)
_cell_angle_alpha                90
_cell_angle_beta                 91.745(9)
_cell_angle_gamma                90
_cell_volume                     2074.87
_exptl_crystal_colour            yellow
_exptl_crystal_description       prism
_chemical_melting_point          '402.5 K'
_cell_formula_units_Z            4
_chemical_properties_physical    light-sensitive
_exptl_crystal_recrystallization_method chloroform
_exptl_crystal_preparation       photochromic
loop_
_atom_site_label
_atom_site_type_symbol
_atom_site_fract_x
_atom_site_fract_y
_atom_site_fract_z
S1 S 0.60503(9) 0.06523(17) 0.29149(7)
S2 S 0.78833(10) 0.05079(17) 0.59737(8)
F1 F 0.8712(2) 0.6173(4) 0.4724(3)
F2 F 0.7801(4) 0.6256(4) 0.5652(2)
F3 F 0.7460(4) 0.8368(5) 0.4315(3)
F4 F 0.6399(4) 0.7511(6) 0.4996(3)
F5 F 0.5687(3) 0.6430(4) 0.3823(3)
F6 F 0.7049(5) 0.6382(5) 0.3284(2)
N1 N 0.1842(3) 0.0423(7) 0.1983(3)
N2 N 0.4751(5) -0.1663(9) 0.1769(4)
C1 C 0.6778(3) 0.4378(6) 0.4158(3)
C2 C 0.7425(3) 0.4318(6) 0.4736(3)
C3 C 0.7785(4) 0.5947(6) 0.4929(3)
C4 C 0.7123(5) 0.7028(7) 0.4487(4)
C5 C 0.6593(4) 0.6046(7) 0.3929(3)
C6 C 0.6820(3) 0.1861(6) 0.3424(2)
C7 C 0.6311(3) 0.3093(6) 0.3724(3)
C8 C 0.5302(3) 0.3056(6) 0.3525(3)
H1 H 0.4857 0.3814 0.3676
C9 C 0.5037(3) 0.1800(6) 0.3088(3)
C10 C 0.4053(3) 0.1551(6) 0.2815(3)
H2 H 0.3592 0.2258 0.2989
C11 C 0.3693(4) 0.0454(7) 0.2346(3)
C12 C 0.2660(4) 0.0446(7) 0.2137(3)
C13 C 0.4271(5) -0.0745(9) 0.2027(4)
C14 C 0.7900(3) 0.1523(7) 0.3478(3)
H3 H 0.8261 0.2483 0.3416
H4 H 0.8069 0.0790 0.3096
H5 H 0.8063 0.1081 0.3959
C15 C 0.7194(3) 0.1829(6) 0.5461(3)
C16 C 0.7781(3) 0.2961(6) 0.5176(3)
C17 C 0.8795(3) 0.2737(6) 0.5388(3)
H6 H 0.9292 0.3414 0.5245
C18 C 0.8962(4) 0.1453(6) 0.5815(3)
C19 C 0.6102(4) 0.1667(7) 0.5419(3)
H7 H 0.5807 0.2691 0.5389
H8 H 0.5885 0.1135 0.5856
H9 H 0.5912 0.1068 0.4984
C20 C 0.9920(4) 0.0820(8) 0.6127(4)
H10 H 1.0387 0.1663 0.6180
H11 H 1.0168 0.0039 0.5796
H12 H 0.9817 0.0354 0.6606
loop_
_geom_bond_atom_site_label_1
_geom_bond_atom_site_label_2
_geom_bond_site_symmetry_1
_geom_bond_site_symmetry_2
S1 C6 1_555 1_555
S2 C15 1_555 1_555
F1 C3 1_555 1_555
F2 C3 1_555 1_555
F3 C4 1_555 1_555
F4 C4 1_555 1_555
F5 C5 1_555 1_555
F6 C5 1_555 1_555
N1 C12 1_555 1_555
N2 C13 1_555 1_555
C1 C2 1_555 1_555
C2 C3 1_555 1_555
C3 C4 1_555 1_555
C4 C5 1_555 1_555
C5 C1 1_555 1_555
C6 C7 1_555 1_555
C7 C1 1_555 1_555
C8 C7 1_555 1_555
H1 C8 1_555 1_555
C9 S1 1_555 1_555
C10 C9 1_555 1_555
H2 C10 1_555 1_555
C11 C10 1_555 1_555
C12 C11 1_555 1_555
C13 C11 1_555 1_555
C14 C6 1_555 1_555
H3 C14 1_555 1_555
H4 C14 1_555 1_555
H5 C14 1_555 1_555
C15 C16 1_555 1_555
C16 C2 1_555 1_555
C17 C16 1_555 1_555
H6 C17 1_555 1_555
C18 S2 1_555 1_555
C19 C15 1_555 1_555
H7 C19 1_555 1_555
H8 C19 1_555 1_555
H9 C19 1_555 1_555
C20 C18 1_555 1_555
H10 C20 1_555 1_555
H11 C20 1_555 1_555
H12 C20 1_555 1_555
C8 C9 1_555 1_555
C17 C18 1_555 1_555

#END
