
#######################################################################
#
#                 Cambridge Crystallographic Data Centre
#                                CCDC 
#
#######################################################################
#
# If this CIF has been generated from an entry in the Cambridge 
# Structural Database, then it will include bibliographic, chemical, 
# crystal, experimental, refinement or atomic coordinate data resulting 
# from the CCDC's data processing and validation procedures.
#
#######################################################################

data_ADALEX
_chemical_formula_moiety         'C11 H11 F2 N3 O2'
_chemical_name_systematic        
4-Difluoromethyl-1-(2,5-dimethoxyphenyl)-1H-1,2,3-triazole
_chemical_properties_biological  
'inhibitory activity against Mycobacterium tuberculosis'
_symmetry_cell_setting           monoclinic
_symmetry_space_group_name_H-M   'P 21/c'
_symmetry_Int_Tables_number      14
_space_group_name_Hall           '-P 2ybc'
loop_
_symmetry_equiv_pos_site_id
_symmetry_equiv_pos_as_xyz
1 x,y,z
2 -x,1/2+y,1/2-z
3 -x,-y,-z
4 x,1/2-y,1/2+z
_cell_length_a                   13.4574(6)
_cell_length_b                   11.4815(5)
_cell_length_c                   7.3719(2)
_cell_angle_alpha                90
_cell_angle_beta                 105.247(3)
_cell_angle_gamma                90
_cell_volume                     1098.95
_exptl_crystal_colour            colorless
_exptl_crystal_description       shard
_chemical_melting_point          '351-352 K'
_cell_formula_units_Z            4
_exptl_crystal_recrystallization_method 'aqueous ethanol'
loop_
_atom_site_label
_atom_site_type_symbol
_atom_site_fract_x
_atom_site_fract_y
_atom_site_fract_z
N1 N 0.24556(10) 0.76731(11) 0.21516(18)
N2 N 0.25076(10) 0.87928(11) 0.15679(18)
N3 N 0.15878(10) 0.92462(11) 0.13265(19)
C1 C 0.09560(12) 0.84281(14) 0.1761(2)
C2 C -0.01440(13) 0.86907(14) 0.1624(2)
H1 H -0.0524 0.8858 0.0291
F1 F -0.05715(8) 0.77552(9) 0.22864(16)
F2 F -0.02215(8) 0.96095(10) 0.27463(17)
C3 C 0.14916(12) 0.74227(14) 0.2272(2)
H2 H 0.1350 0.6622 0.2711
C4 C 0.33404(12) 0.69383(13) 0.2450(2)
C5 C 0.32268(12) 0.58104(14) 0.1701(2)
O1 O 0.22486(9) 0.54727(9) 0.08105(16)
C6 C 0.21121(14) 0.42979(14) 0.0163(2)
H3 H 0.2503 0.4168 -0.0769
H4 H 0.1380 0.4152 -0.0415
H5 H 0.2360 0.3767 0.1227
C7 C 0.41010(12) 0.51322(14) 0.1909(2)
H6 H 0.4042 0.4368 0.1399
C8 C 0.50675(13) 0.55602(14) 0.2860(2)
H7 H 0.5663 0.5091 0.2981
C9 C 0.51596(12) 0.66705(14) 0.3629(2)
O2 O 0.60716(8) 0.71525(10) 0.46465(16)
C10 C 0.69796(12) 0.64907(15) 0.4723(2)
H8 H 0.6929 0.5732 0.5302
H9 H 0.7582 0.6911 0.5473
H10 H 0.7051 0.6375 0.3446
C11 C 0.42913(12) 0.73624(14) 0.3421(2)
H11 H 0.4351 0.8124 0.3944
loop_
_geom_bond_atom_site_label_1
_geom_bond_atom_site_label_2
_geom_bond_site_symmetry_1
_geom_bond_site_symmetry_2
N1 N2 1_555 1_555
N2 N3 1_555 1_555
N3 C1 1_555 1_555
C1 C2 1_555 1_555
C2 H1 1_555 1_555
F1 C2 1_555 1_555
F2 C2 1_555 1_555
C3 N1 1_555 1_555
H2 C3 1_555 1_555
C4 N1 1_555 1_555
C5 C4 1_555 1_555
O1 C5 1_555 1_555
C6 O1 1_555 1_555
H3 C6 1_555 1_555
H4 C6 1_555 1_555
H5 C6 1_555 1_555
C7 C5 1_555 1_555
H6 C7 1_555 1_555
C8 C7 1_555 1_555
H7 C8 1_555 1_555
C9 C8 1_555 1_555
O2 C9 1_555 1_555
C10 O2 1_555 1_555
H8 C10 1_555 1_555
H9 C10 1_555 1_555
H10 C10 1_555 1_555
C11 C4 1_555 1_555
H11 C11 1_555 1_555
C1 C3 1_555 1_555
C9 C11 1_555 1_555

#END
