
#######################################################################
#
#                 Cambridge Crystallographic Data Centre
#                                CCDC 
#
#######################################################################
#
# If this CIF has been generated from an entry in the Cambridge 
# Structural Database, then it will include bibliographic, chemical, 
# crystal, experimental, refinement or atomic coordinate data resulting 
# from the CCDC's data processing and validation procedures.
#
#######################################################################

data_ADAMEY
_chemical_formula_moiety         'C18 H16 N4 O3'
_chemical_name_systematic        
1,5-Dimethy-4-((2-nitrobenzylidene)amino)-2-phenyl-1H-pyrazol-3(4H)-one
_symmetry_cell_setting           orthorhombic
_symmetry_space_group_name_H-M   'P 21 21 21'
_symmetry_Int_Tables_number      19
_space_group_name_Hall           'P 2ac 2ab'
loop_
_symmetry_equiv_pos_site_id
_symmetry_equiv_pos_as_xyz
1 x,y,z
2 1/2-x,-y,1/2+z
3 -x,1/2+y,1/2-z
4 1/2+x,1/2-y,-z
_cell_length_a                   6.8860(10)
_cell_length_b                   13.3820(10)
_cell_length_c                   17.872(2)
_cell_angle_alpha                90
_cell_angle_beta                 90
_cell_angle_gamma                90
_cell_volume                     1646.88
_exptl_crystal_colour            yellow
_exptl_crystal_description       rod
_cell_formula_units_Z            4
_exptl_crystal_recrystallization_method methanol
loop_
_atom_site_label
_atom_site_type_symbol
_atom_site_fract_x
_atom_site_fract_y
_atom_site_fract_z
O1 O 0.2942(3) 0.10700(14) 0.64522(11)
O2 O 0.1196(4) 0.31282(18) 0.80304(14)
O3 O -0.1181(4) 0.3846(2) 0.74796(17)
N1 N 0.5664(3) 0.04172(15) 0.58586(12)
N2 N 0.7372(3) 0.08166(16) 0.55613(12)
N3 N 0.5490(3) 0.30135(15) 0.63944(12)
N4 N 0.0519(5) 0.3784(2) 0.76375(16)
C1 C 0.3722(4) -0.10703(19) 0.59159(16)
H1 H 0.3720 -0.1013 0.6434
C2 C 0.2703(5) -0.1831(2) 0.55718(18)
H2 H 0.1975 -0.2274 0.5858
C3 C 0.2763(4) -0.1932(2) 0.48060(19)
H3 H 0.2098 -0.2454 0.4576
C4 C 0.3800(4) -0.1268(2) 0.43799(17)
H4 H 0.3840 -0.1344 0.3863
C5 C 0.4785(4) -0.04870(19) 0.47131(16)
H5 H 0.5469 -0.0027 0.4425
C6 C 0.4733(4) -0.04038(18) 0.54900(15)
C7 C 0.4602(4) 0.11804(19) 0.62143(15)
C8 C 0.5853(4) 0.20377(18) 0.61724(14)
C9 C 0.7499(4) 0.17774(19) 0.57977(14)
C10 C 0.3990(4) 0.32157(19) 0.67874(16)
H6 H 0.3188 0.2703 0.6956
C11 C 0.3533(4) 0.4263(2) 0.69727(15)
C12 C 0.4722(5) 0.50275(19) 0.67332(17)
H7 H 0.5866 0.4875 0.6481
C13 C 0.4244(5) 0.6021(2) 0.68612(17)
H8 H 0.5093 0.6523 0.6711
C14 C 0.2531(5) 0.6269(2) 0.72066(16)
H9 H 0.2207 0.6937 0.7277
C15 C 0.1302(5) 0.5535(2) 0.74468(15)
H10 H 0.0129 0.5693 0.7676
C16 C 0.1848(4) 0.4547(2) 0.73403(15)
C17 C 0.9020(4) 0.0148(2) 0.54373(18)
H11 H 0.9929 0.0460 0.5103
H12 H 0.8568 -0.0466 0.5221
H13 H 0.9646 0.0011 0.5906
C18 C 0.9244(5) 0.2388(2) 0.56588(19)
H14 H 0.9001 0.3065 0.5810
H15 H 0.9554 0.2372 0.5135
H16 H 1.0314 0.2124 0.5941
loop_
_geom_bond_atom_site_label_1
_geom_bond_atom_site_label_2
_geom_bond_site_symmetry_1
_geom_bond_site_symmetry_2
O1 C7 1_555 1_555
O2 N4 1_555 1_555
O3 N4 1_555 1_555
N1 N2 1_555 1_555
N2 C9 1_555 1_555
N3 C8 1_555 1_555
N4 C16 1_555 1_555
C1 H1 1_555 1_555
C2 C1 1_555 1_555
H2 C2 1_555 1_555
C3 C2 1_555 1_555
H3 C3 1_555 1_555
C4 C3 1_555 1_555
H4 C4 1_555 1_555
C5 C4 1_555 1_555
H5 C5 1_555 1_555
C6 N1 1_555 1_555
C7 N1 1_555 1_555
C8 C7 1_555 1_555
C9 C8 1_555 1_555
C10 N3 1_555 1_555
H6 C10 1_555 1_555
C11 C10 1_555 1_555
C12 C11 1_555 1_555
H7 C12 1_555 1_555
C13 C12 1_555 1_555
H8 C13 1_555 1_555
C14 C13 1_555 1_555
H9 C14 1_555 1_555
C15 C14 1_555 1_555
H10 C15 1_555 1_555
C16 C11 1_555 1_555
C17 N2 1_555 1_555
H11 C17 1_555 1_555
H12 C17 1_555 1_555
H13 C17 1_555 1_555
C18 C9 1_555 1_555
H14 C18 1_555 1_555
H15 C18 1_555 1_555
H16 C18 1_555 1_555
C1 C6 1_555 1_555
C5 C6 1_555 1_555
C15 C16 1_555 1_555

#END
