
#######################################################################
#
#                 Cambridge Crystallographic Data Centre
#                                CCDC 
#
#######################################################################
#
# If this CIF has been generated from an entry in the Cambridge 
# Structural Database, then it will include bibliographic, chemical, 
# crystal, experimental, refinement or atomic coordinate data resulting 
# from the CCDC's data processing and validation procedures.
#
#######################################################################

data_ADAPUS
_chemical_formula_moiety         'C23 H18 Cl1 N1 O6'
_chemical_name_systematic        
2-(2-(4-Chlorophenyl)-5-oxo-2,5-dihydrofuran-2-yl)-1-(2-oxo-1,3-oxazolidin-3-yl)-4-phenylbutane-1,4-dione
_symmetry_cell_setting           triclinic
_symmetry_space_group_name_H-M   'P 1'
_symmetry_Int_Tables_number      1
_space_group_name_Hall           'P 1'
loop_
_symmetry_equiv_pos_site_id
_symmetry_equiv_pos_as_xyz
1 x,y,z
_cell_length_a                   10.118(3)
_cell_length_b                   10.223(3)
_cell_length_c                   12.229(3)
_cell_angle_alpha                102.84(2)
_cell_angle_beta                 93.97(2)
_cell_angle_gamma                119.19(3)
_cell_volume                     1052.97
_cell_formula_units_Z            2
loop_
_atom_site_label
_atom_site_type_symbol
_atom_site_fract_x
_atom_site_fract_y
_atom_site_fract_z
Cl1 Cl 0.47369(19) 1.0139(2) 1.03386(11)
O1 O -0.3414(4) 0.6252(5) 0.5649(4)
O2 O -0.0855(3) 0.7385(3) 0.5748(2)
O3 O 0.2185(3) 0.7723(3) 0.2765(2)
O4 O 0.2353(3) 0.5909(3) 0.4653(3)
O5 O 0.6001(4) 1.0931(4) 0.5942(4)
O6 O 0.3726(4) 1.0669(4) 0.5473(4)
N1 N 0.3980(3) 0.8503(4) 0.5310(3)
C1 C -0.2300(4) 0.6116(5) 0.5646(3)
C2 C -0.2163(4) 0.4744(5) 0.5540(4)
H1 H -0.2974 0.3735 0.5459
C3 C -0.0706(4) 0.5165(4) 0.5577(3)
H2 H -0.0332 0.4487 0.5512
C4 C 0.0272(4) 0.6899(4) 0.5741(3)
C5 C 0.1113(4) 0.7371(4) 0.4742(3)
H3 H 0.1459 0.8470 0.4812
C6 C 0.0039(4) 0.6340(4) 0.3573(3)
H4 H -0.0321 0.5252 0.3514
H5 H -0.0858 0.6455 0.3516
C7 C 0.0814(4) 0.6745(4) 0.2593(3)
C8 C -0.0111(4) 0.5858(5) 0.1400(3)
C9 C -0.1693(5) 0.4803(6) 0.1145(4)
H6 H -0.2213 0.4614 0.1742
C10 C -0.2521(6) 0.4021(7) 0.0024(5)
H7 H -0.3589 0.3354 -0.0128
C11 C -0.1739(7) 0.4241(7) -0.0874(4)
H8 H -0.2267 0.3675 -0.1628
C12 C -0.0201(7) 0.5290(8) -0.0631(4)
H9 H 0.0313 0.5495 -0.1229
C13 C 0.0620(5) 0.6061(6) 0.0482(4)
H10 H 0.1687 0.6730 0.0621
C14 C 0.1414(4) 0.7750(4) 0.6904(3)
C15 C 0.1756(5) 0.9205(5) 0.7550(4)
H11 H 0.1286 0.9695 0.7285
C16 C 0.2808(7) 0.9951(6) 0.8603(4)
H12 H 0.3031 1.0931 0.9039
C17 C 0.3498(5) 0.9250(6) 0.8986(4)
C18 C 0.3210(5) 0.7819(5) 0.8357(4)
H13 H 0.3712 0.7356 0.8620
C19 C 0.2158(5) 0.7077(5) 0.7324(4)
H14 H 0.1944 0.6096 0.6897
C20 C 0.2495(4) 0.7192(4) 0.4867(3)
C21 C 0.5256(5) 0.8265(7) 0.5538(5)
H15 H 0.5334 0.7629 0.4857
H16 H 0.5162 0.7779 0.6148
C22 C 0.6615(6) 0.9924(8) 0.5897(7)
H17 H 0.7213 1.0160 0.6643
H18 H 0.7283 1.0066 0.5347
C23 C 0.4475(5) 1.0077(5) 0.5560(4)
Cl2 Cl -0.2468(3) -0.1210(3) -0.17040(16)
O7 O 0.5763(4) 0.5189(4) 0.2708(4)
O8 O 0.3277(3) 0.3759(3) 0.2756(2)
O9 O 0.0246(3) 0.2399(4) 0.5756(2)
O10 O 0.0275(3) -0.0399(3) 0.3771(3)
O11 O -0.3650(3) 0.0087(4) 0.2703(3)
O12 O -0.1499(3) 0.2440(3) 0.3300(3)
N2 N -0.1481(3) 0.0142(3) 0.3173(3)
C24 C 0.4712(4) 0.3994(5) 0.2809(4)
C25 C 0.4688(4) 0.2602(4) 0.2943(3)
H19 H 0.5544 0.2487 0.3026
C26 C 0.3249(4) 0.1527(4) 0.2929(3)
H20 H 0.2933 0.0538 0.3006
C27 C 0.2208(4) 0.2159(4) 0.2767(3)
C28 C 0.1355(3) 0.2257(3) 0.3770(3)
H21 H 0.0925 0.2921 0.3713
C29 C 0.2446(4) 0.2911(4) 0.4939(3)
H22 H 0.2924 0.2291 0.4964
H23 H 0.3263 0.3977 0.5025
C30 C 0.1635(4) 0.2904(4) 0.5928(3)
C31 C 0.2571(4) 0.3534(4) 0.7120(3)
C32 C 0.4152(5) 0.4334(6) 0.7375(4)
H24 H 0.4697 0.4494 0.6788
C33 C 0.4946(6) 0.4909(8) 0.8505(5)
H25 H 0.6023 0.5481 0.8663
C34 C 0.4202(7) 0.4663(7) 0.9382(4)
H26 H 0.4754 0.5020 1.0130
C35 C 0.2609(7) 0.3871(8) 0.9142(4)
H27 H 0.2078 0.3720 0.9738
C36 C 0.1783(6) 0.3293(6) 0.8014(4)
H28 H 0.0707 0.2748 0.7859
C37 C 0.1034(4) 0.1320(4) 0.1622(3)
C38 C 0.0315(5) 0.2019(6) 0.1227(4)
H29 H 0.0562 0.3016 0.1645
C39 C -0.0780(6) 0.1242(8) 0.0206(5)
H30 H -0.1269 0.1710 -0.0067
C40 C -0.1127(6) -0.0230(8) -0.0394(4)
C41 C -0.0443(7) -0.0962(6) -0.0011(5)
H31 H -0.0719 -0.1972 -0.0420
C42 C 0.0663(5) -0.0170(5) 0.0991(4)
H32 H 0.1166 -0.0635 0.1249
C43 C 0.0047(4) 0.0585(4) 0.3607(3)
C44 C -0.2662(4) -0.1526(5) 0.2884(4)
H33 H -0.2777 -0.1896 0.3556
H34 H -0.2431 -0.2162 0.2308
C45 C -0.4089(5) -0.1517(6) 0.2418(6)
H35 H -0.4405 -0.1992 0.1593
H36 H -0.4941 -0.2093 0.2768
C46 C -0.2115(4) 0.1046(4) 0.3080(3)
loop_
_geom_bond_atom_site_label_1
_geom_bond_atom_site_label_2
_geom_bond_site_symmetry_1
_geom_bond_site_symmetry_2
Cl1 C17 1_555 1_555
O1 C1 1_555 1_555
O2 C1 1_555 1_555
O3 C7 1_555 1_555
O4 C20 1_555 1_555
O5 C22 1_555 1_555
O6 C23 1_555 1_555
N1 C20 1_555 1_555
C1 C2 1_555 1_555
C2 H1 1_555 1_555
C3 C2 1_555 1_555
H2 C3 1_555 1_555
C4 O2 1_555 1_555
C5 C4 1_555 1_555
H3 C5 1_555 1_555
C6 C5 1_555 1_555
H4 C6 1_555 1_555
H5 C6 1_555 1_555
C7 C6 1_555 1_555
C8 C7 1_555 1_555
C9 C8 1_555 1_555
H6 C9 1_555 1_555
C10 C9 1_555 1_555
H7 C10 1_555 1_555
C11 C10 1_555 1_555
H8 C11 1_555 1_555
C12 C11 1_555 1_555
H9 C12 1_555 1_555
C13 C8 1_555 1_555
H10 C13 1_555 1_555
C14 C4 1_555 1_555
C15 C14 1_555 1_555
H11 C15 1_555 1_555
C16 C15 1_555 1_555
H12 C16 1_555 1_555
C17 C16 1_555 1_555
C18 C17 1_555 1_555
H13 C18 1_555 1_555
C19 C14 1_555 1_555
H14 C19 1_555 1_555
C20 C5 1_555 1_555
C21 N1 1_555 1_555
H15 C21 1_555 1_555
H16 C21 1_555 1_555
C22 C21 1_555 1_555
H17 C22 1_555 1_555
H18 C22 1_555 1_555
C23 O5 1_555 1_555
Cl2 C40 1_555 1_555
O7 C24 1_555 1_555
O8 C24 1_555 1_555
O9 C30 1_555 1_555
O10 C43 1_555 1_555
O11 C45 1_555 1_555
O12 C46 1_555 1_555
N2 C43 1_555 1_555
C24 C25 1_555 1_555
C25 H19 1_555 1_555
C26 C25 1_555 1_555
H20 C26 1_555 1_555
C27 O8 1_555 1_555
C28 C27 1_555 1_555
H21 C28 1_555 1_555
C29 C28 1_555 1_555
H22 C29 1_555 1_555
H23 C29 1_555 1_555
C30 C29 1_555 1_555
C31 C30 1_555 1_555
C32 C31 1_555 1_555
H24 C32 1_555 1_555
C33 C32 1_555 1_555
H25 C33 1_555 1_555
C34 C33 1_555 1_555
H26 C34 1_555 1_555
C35 C34 1_555 1_555
H27 C35 1_555 1_555
C36 C31 1_555 1_555
H28 C36 1_555 1_555
C37 C27 1_555 1_555
C38 C37 1_555 1_555
H29 C38 1_555 1_555
C39 C38 1_555 1_555
H30 C39 1_555 1_555
C40 C39 1_555 1_555
C41 C40 1_555 1_555
H31 C41 1_555 1_555
C42 C37 1_555 1_555
H32 C42 1_555 1_555
C43 C28 1_555 1_555
C44 N2 1_555 1_555
H33 C44 1_555 1_555
H34 C44 1_555 1_555
C45 C44 1_555 1_555
H35 C45 1_555 1_555
H36 C45 1_555 1_555
C46 O11 1_555 1_555
N1 C23 1_555 1_555
C3 C4 1_555 1_555
C12 C13 1_555 1_555
C18 C19 1_555 1_555
N2 C46 1_555 1_555
C26 C27 1_555 1_555
C35 C36 1_555 1_555
C41 C42 1_555 1_555

#END
