
#######################################################################
#
#                 Cambridge Crystallographic Data Centre
#                                CCDC 
#
#######################################################################
#
# If this CIF has been generated from an entry in the Cambridge 
# Structural Database, then it will include bibliographic, chemical, 
# crystal, experimental, refinement or atomic coordinate data resulting 
# from the CCDC's data processing and validation procedures.
#
#######################################################################

data_ADARIH
_chemical_formula_moiety         'C12 H23 N1,C6 H11 N1 O1'
_chemical_name_systematic        'Dicyclohexylamine cyclohexanone oxime'
_symmetry_cell_setting           orthorhombic
_symmetry_space_group_name_H-M   'P n a 21'
_symmetry_Int_Tables_number      33
_space_group_name_Hall           'P 2c -2n'
loop_
_symmetry_equiv_pos_site_id
_symmetry_equiv_pos_as_xyz
1 x,y,z
2 -x,-y,1/2+z
3 1/2+x,1/2-y,z
4 1/2-x,1/2+y,1/2+z
_cell_length_a                   29.599(6)
_cell_length_b                   11.359(2)
_cell_length_c                   5.1586(10)
_cell_angle_alpha                90
_cell_angle_beta                 90
_cell_angle_gamma                90
_cell_volume                     1734.4
_exptl_crystal_colour            colorless
_exptl_crystal_description       needle
_chemical_melting_point          58deg.C(dec.)
_cell_formula_units_Z            4
loop_
_atom_site_label
_atom_site_type_symbol
_atom_site_fract_x
_atom_site_fract_y
_atom_site_fract_z
O1 O 0.32558(6) 0.20740(15) -0.0708(4)
N1 N 0.30521(6) 0.10559(17) -0.1791(5)
C1 C 0.27735(8) 0.1321(2) -0.3629(6)
C2 C 0.26491(8) 0.2533(2) -0.4549(6)
C3 C 0.21338(8) 0.2667(3) -0.4673(6)
C4 C 0.19196(8) 0.1679(3) -0.6259(7)
C5 C 0.20409(9) 0.0486(3) -0.5094(7)
C6 C 0.25526(9) 0.0314(3) -0.5012(7)
H1 H 0.3443(13) 0.180(4) 0.074(11)
H3 H 0.2766(11) 0.265(3) -0.644(8)
H4 H 0.2792(9) 0.311(2) -0.338(6)
H5 H 0.2015(10) 0.265(3) -0.276(7)
H6 H 0.2057(9) 0.346(2) -0.539(6)
H7 H 0.1600(9) 0.179(2) -0.621(6)
H8 H 0.2033(11) 0.170(3) -0.814(8)
H9 H 0.1910(9) -0.014(3) -0.609(6)
H10 H 0.1931(10) 0.043(3) -0.320(7)
H11 H 0.2671(9) 0.032(3) -0.693(7)
H12 H 0.2613(9) -0.041(3) -0.420(7)
N2 N 0.38448(6) 0.16297(17) 0.3470(5)
C7 C 0.41017(8) 0.0510(2) 0.3611(5)
C8 C 0.43432(8) 0.0337(2) 0.6211(5)
C9 C 0.45906(8) -0.0847(2) 0.6313(6)
C10 C 0.42696(9) -0.1864(2) 0.5793(6)
C11 C 0.40268(9) -0.1698(2) 0.3212(6)
C12 C 0.37805(8) -0.0514(2) 0.3108(6)
C13 C 0.41173(7) 0.27190(19) 0.3537(5)
C14 C 0.38047(8) 0.3757(2) 0.4116(6)
C15 C 0.40585(8) 0.4933(2) 0.4109(5)
C16 C 0.43019(9) 0.5120(2) 0.1532(6)
C17 C 0.46156(8) 0.4084(2) 0.0964(6)
C18 C 0.43562(8) 0.2919(2) 0.0967(5)
H2 H 0.3656(8) 0.167(2) 0.484(6)
H13 H 0.4340(8) 0.056(2) 0.217(6)
H14 H 0.4567(8) 0.097(2) 0.652(6)
H15 H 0.4121(9) 0.039(2) 0.755(6)
H16 H 0.4727(9) -0.094(2) 0.801(7)
H17 H 0.4848(9) -0.085(2) 0.508(6)
H18 H 0.4425(7) -0.261(2) 0.585(6)
H19 H 0.4043(9) -0.188(2) 0.721(6)
H20 H 0.3807(8) -0.236(2) 0.295(6)
H21 H 0.4229(10) -0.173(3) 0.174(7)
H22 H 0.3541(8) -0.047(2) 0.436(6)
H23 H 0.3618(8) -0.043(2) 0.131(6)
H24 H 0.4362(7) 0.272(2) 0.488(5)
H25 H 0.3560(8) 0.379(2) 0.279(6)
H26 H 0.3664(9) 0.361(2) 0.574(7)
H27 H 0.4288(8) 0.496(2) 0.555(6)
H28 H 0.3842(8) 0.562(2) 0.446(6)
H29 H 0.4075(8) 0.520(2) 0.016(6)
H30 H 0.4466(8) 0.587(2) 0.161(6)
H31 H 0.4783(9) 0.419(2) -0.064(6)
H32 H 0.4842(10) 0.406(2) 0.244(7)
H33 H 0.4111(8) 0.292(2) -0.043(6)
H34 H 0.4567(8) 0.228(2) 0.065(6)
loop_
_geom_bond_atom_site_label_1
_geom_bond_atom_site_label_2
_geom_bond_site_symmetry_1
_geom_bond_site_symmetry_2
O1 N1 1_555 1_555
N1 C1 1_555 1_555
N2 C7 1_555 1_555
C1 C2 1_555 1_555
C2 C3 1_555 1_555
C3 C4 1_555 1_555
C4 C5 1_555 1_555
C5 C6 1_555 1_555
C6 C1 1_555 1_555
C7 C8 1_555 1_555
C8 C9 1_555 1_555
C9 C10 1_555 1_555
C10 C11 1_555 1_555
C11 C12 1_555 1_555
C12 C7 1_555 1_555
C13 N2 1_555 1_555
C14 C13 1_555 1_555
C15 C14 1_555 1_555
C16 C15 1_555 1_555
C17 C16 1_555 1_555
C18 C13 1_555 1_555
H1 O1 1_555 1_555
H2 N2 1_555 1_555
H3 C2 1_555 1_555
H4 C2 1_555 1_555
H5 C3 1_555 1_555
H6 C3 1_555 1_555
H7 C4 1_555 1_555
H8 C4 1_555 1_555
H9 C5 1_555 1_555
H10 C5 1_555 1_555
H11 C6 1_555 1_555
H12 C6 1_555 1_555
H13 C7 1_555 1_555
H14 C8 1_555 1_555
H15 C8 1_555 1_555
H16 C9 1_555 1_555
H17 C9 1_555 1_555
H18 C10 1_555 1_555
H19 C10 1_555 1_555
H20 C11 1_555 1_555
H21 C11 1_555 1_555
H22 C12 1_555 1_555
H23 C12 1_555 1_555
H24 C13 1_555 1_555
H25 C14 1_555 1_555
H26 C14 1_555 1_555
H27 C15 1_555 1_555
H28 C15 1_555 1_555
H29 C16 1_555 1_555
H30 C16 1_555 1_555
H31 C17 1_555 1_555
H32 C17 1_555 1_555
H33 C18 1_555 1_555
H34 C18 1_555 1_555
C17 C18 1_555 1_555

#END
