
#######################################################################
#
#                 Cambridge Crystallographic Data Centre
#                                CCDC 
#
#######################################################################
#
# If this CIF has been generated from an entry in the Cambridge 
# Structural Database, then it will include bibliographic, chemical, 
# crystal, experimental, refinement or atomic coordinate data resulting 
# from the CCDC's data processing and validation procedures.
#
#######################################################################

data_ADASEE
_chemical_formula_moiety         'C10 H10 Cl1 N2 1+,N1 O3 1-'
_chemical_name_systematic        
'7-Chloro-2,4-dimethyl-1,8-napthyridin-1-ium nitrate'
_symmetry_cell_setting           monoclinic
_symmetry_space_group_name_H-M   'P 21/n'
_symmetry_Int_Tables_number      14
_space_group_name_Hall           '-P 2yn'
loop_
_symmetry_equiv_pos_site_id
_symmetry_equiv_pos_as_xyz
1 x,y,z
2 1/2-x,1/2+y,1/2-z
3 -x,-y,-z
4 1/2+x,1/2-y,1/2+z
_cell_length_a                   9.477(5)
_cell_length_b                   7.592(4)
_cell_length_c                   16.017(9)
_cell_angle_alpha                90
_cell_angle_beta                 98.462(8)
_cell_angle_gamma                90
_cell_volume                     1139.87
_exptl_crystal_colour            colorless
_exptl_crystal_description       block
_cell_formula_units_Z            4
_exptl_crystal_recrystallization_method water
loop_
_atom_site_label
_atom_site_type_symbol
_atom_site_fract_x
_atom_site_fract_y
_atom_site_fract_z
Cl1 Cl 0.18813(9) 0.87290(13) 0.53864(6)
N1 N 0.4180(2) 0.5871(3) 0.32230(13)
H1 H 0.3324 0.5794 0.2959
N2 N 0.3204(2) 0.7237(3) 0.42795(14)
C1 C 0.4394(3) 0.6640(3) 0.40003(16)
C2 C 0.3403(3) 0.7948(4) 0.50248(18)
C3 C 0.4709(3) 0.8124(4) 0.55556(18)
H2 H 0.4761 0.8636 0.6087
C4 C 0.5895(3) 0.7519(4) 0.52667(17)
H3 H 0.6781 0.7608 0.5602
C5 C 0.5778(3) 0.6753(3) 0.44537(17)
C6 C 0.6934(3) 0.6072(4) 0.40744(19)
C7 C 0.6635(3) 0.5339(4) 0.3289(2)
H4 H 0.7379 0.4894 0.3034
C8 C 0.5240(3) 0.5237(4) 0.28588(17)
C9 C 0.8433(3) 0.6149(5) 0.4526(2)
H5 H 0.8441 0.6704 0.5065
H6 H 0.9011 0.6817 0.4196
H7 H 0.8806 0.4976 0.4605
C10 C 0.4889(4) 0.4452(5) 0.2001(2)
H8 H 0.3878 0.4514 0.1822
H9 H 0.5189 0.3244 0.2017
H10 H 0.5373 0.5094 0.1612
N3 N 0.0724(3) 0.4609(4) 0.26790(16)
O1 O 0.1545(2) 0.5570(4) 0.23273(14)
O2 O -0.0542(2) 0.4515(4) 0.23624(17)
O3 O 0.1205(3) 0.3772(4) 0.33069(17)
loop_
_geom_bond_atom_site_label_1
_geom_bond_atom_site_label_2
_geom_bond_site_symmetry_1
_geom_bond_site_symmetry_2
Cl1 C2 1_555 1_555
N1 H1 1_555 1_555
N2 C1 1_555 1_555
N3 O1 1_555 1_555
O2 N3 1_555 1_555
O3 N3 1_555 1_555
C1 N1 1_555 1_555
C2 N2 1_555 1_555
C3 C2 1_555 1_555
H2 C3 1_555 1_555
C4 C3 1_555 1_555
H3 C4 1_555 1_555
C5 C1 1_555 1_555
C6 C5 1_555 1_555
C7 C6 1_555 1_555
H4 C7 1_555 1_555
C8 N1 1_555 1_555
C9 C6 1_555 1_555
H5 C9 1_555 1_555
H6 C9 1_555 1_555
H7 C9 1_555 1_555
C10 C8 1_555 1_555
H8 C10 1_555 1_555
H9 C10 1_555 1_555
H10 C10 1_555 1_555
C4 C5 1_555 1_555
C7 C8 1_555 1_555

#END
