
#######################################################################
#
#                 Cambridge Crystallographic Data Centre
#                                CCDC 
#
#######################################################################
#
# If this CIF has been generated from an entry in the Cambridge 
# Structural Database, then it will include bibliographic, chemical, 
# crystal, experimental, refinement or atomic coordinate data resulting 
# from the CCDC's data processing and validation procedures.
#
#######################################################################

data_ADASAA
_chemical_formula_moiety         'C12 H10 N2 O2'
_chemical_name_systematic        2-Hydroxy-N-(2-pyridyl)benzamide
_symmetry_cell_setting           orthorhombic
_symmetry_space_group_name_H-M   'P 21 21 21'
_symmetry_Int_Tables_number      19
_space_group_name_Hall           'P 2ac 2ab'
loop_
_symmetry_equiv_pos_site_id
_symmetry_equiv_pos_as_xyz
1 x,y,z
2 1/2-x,-y,1/2+z
3 -x,1/2+y,1/2-z
4 1/2+x,1/2-y,-z
_cell_length_a                   6.1216(16)
_cell_length_b                   12.535(3)
_cell_length_c                   13.321(4)
_cell_angle_alpha                90
_cell_angle_beta                 90
_cell_angle_gamma                90
_cell_volume                     1022.18
_exptl_crystal_colour            colorless
_exptl_crystal_description       needle
_chemical_melting_point          '484-485 K'
_cell_formula_units_Z            4
_exptl_crystal_recrystallization_method ethanol
loop_
_atom_site_label
_atom_site_type_symbol
_atom_site_fract_x
_atom_site_fract_y
_atom_site_fract_z
N1 N 1.0593(6) 0.0508(3) 0.4239(3)
H1 H 1.0406 0.1143 0.4469
N2 N 1.3572(6) 0.0537(3) 0.5262(3)
O1 O 0.9183(6) -0.0704(2) 0.3171(3)
O2 O 0.8700(6) 0.2389(2) 0.4265(3)
H2 H 0.8406 0.3009 0.4409
C1 C 0.9106(8) 0.0175(3) 0.3557(3)
C2 C 0.7368(7) 0.0945(3) 0.3287(3)
C3 C 0.7180(7) 0.2007(3) 0.3616(3)
C4 C 0.5473(8) 0.2626(4) 0.3291(4)
H3 H 0.5381 0.3331 0.3507
C5 C 0.3906(9) 0.2239(4) 0.2660(4)
H4 H 0.2760 0.2673 0.2452
C6 C 0.4039(8) 0.1197(4) 0.2334(4)
H5 H 0.2988 0.0920 0.1903
C7 C 0.5746(7) 0.0575(4) 0.2656(3)
H6 H 0.5814 -0.0129 0.2438
C8 C 1.2375(7) -0.0039(3) 0.4615(3)
C9 C 1.2951(8) -0.1068(3) 0.4358(4)
H7 H 1.2126 -0.1457 0.3901
C10 C 1.4762(9) -0.1499(4) 0.4795(4)
H8 H 1.5171 -0.2193 0.4636
C11 C 1.5982(9) -0.0928(4) 0.5460(4)
H9 H 1.7222 -0.1219 0.5756
C12 C 1.5330(8) 0.0076(4) 0.5676(4)
H10 H 1.6143 0.0467 0.6137
loop_
_geom_bond_atom_site_label_1
_geom_bond_atom_site_label_2
_geom_bond_site_symmetry_1
_geom_bond_site_symmetry_2
N1 H1 1_555 1_555
N2 C8 1_555 1_555
O1 C1 1_555 1_555
O2 H2 1_555 1_555
C1 N1 1_555 1_555
C2 C1 1_555 1_555
C3 O2 1_555 1_555
C4 C3 1_555 1_555
H3 C4 1_555 1_555
C5 C4 1_555 1_555
H4 C5 1_555 1_555
C6 C5 1_555 1_555
H5 C6 1_555 1_555
C7 C2 1_555 1_555
H6 C7 1_555 1_555
C8 N1 1_555 1_555
C9 C8 1_555 1_555
H7 C9 1_555 1_555
C10 C9 1_555 1_555
H8 C10 1_555 1_555
C11 C10 1_555 1_555
H9 C11 1_555 1_555
C12 N2 1_555 1_555
H10 C12 1_555 1_555
C2 C3 1_555 1_555
C6 C7 1_555 1_555
C11 C12 1_555 1_555

#END
