
#######################################################################
#
#                 Cambridge Crystallographic Data Centre
#                                CCDC 
#
#######################################################################
#
# If this CIF has been generated from an entry in the Cambridge 
# Structural Database, then it will include bibliographic, chemical, 
# crystal, experimental, refinement or atomic coordinate data resulting 
# from the CCDC's data processing and validation procedures.
#
#######################################################################

data_ADATIJ
_chemical_formula_moiety         'C7 H10 N1 1+,C7 H4 N1 O3 S1 1-'
_chemical_name_systematic        '2,6-Dimethylpyridinium saccharinate'
_symmetry_cell_setting           monoclinic
_symmetry_space_group_name_H-M   'P 21/c'
_symmetry_Int_Tables_number      14
_space_group_name_Hall           '-P 2ybc'
loop_
_symmetry_equiv_pos_site_id
_symmetry_equiv_pos_as_xyz
1 x,y,z
2 -x,1/2+y,1/2-z
3 -x,-y,-z
4 x,1/2-y,1/2+z
_cell_length_a                   12.5366(18)
_cell_length_b                   8.2522(11)
_cell_length_c                   14.710(2)
_cell_angle_alpha                90
_cell_angle_beta                 113.674(2)
_cell_angle_gamma                90
_cell_volume                     1393.75
_exptl_crystal_colour            colorless
_exptl_crystal_description       block
_cell_formula_units_Z            4
loop_
_atom_site_label
_atom_site_type_symbol
_atom_site_fract_x
_atom_site_fract_y
_atom_site_fract_z
S1 S 0.79823(4) 0.29302(6) 0.16341(4)
O1 O 0.82928(17) 0.21998(19) 0.08862(14)
O2 O 0.87297(14) 0.25233(18) 0.26341(13)
O3 O 0.50148(12) 0.4078(2) 0.11922(13)
N1 N 0.66473(16) 0.2577(2) 0.14401(15)
C1 C 0.78682(15) 0.5064(2) 0.14980(13)
C2 C 0.86928(18) 0.6217(3) 0.15757(14)
H1 H 0.9454 0.5937 0.1689
C3 C 0.8328(2) 0.7824(3) 0.14758(16)
H2 H 0.8856 0.8642 0.1519
C4 C 0.7210(2) 0.8221(3) 0.13156(16)
H3 H 0.6993 0.9306 0.1258
C5 C 0.6396(2) 0.7047(2) 0.12369(16)
H4 H 0.5634 0.7326 0.1121
C6 C 0.67428(15) 0.5442(2) 0.13346(12)
C7 C 0.60497(17) 0.3956(2) 0.13099(15)
N2 N 0.31132(14) 0.2555(2) 0.11152(11)
C8 C 0.22973(19) 0.3617(3) 0.10856(14)
C9 C 0.1236(2) 0.2999(4) 0.10037(18)
H5 H 0.0639 0.3694 0.0976
C10 C 0.1073(2) 0.1357(4) 0.09644(19)
H6 H 0.0363 0.0940 0.0917
C11 C 0.1927(2) 0.0329(3) 0.09936(17)
H7 H 0.1803 -0.0784 0.0961
C12 C 0.29770(19) 0.0937(3) 0.10710(14)
C13 C 0.2598(2) 0.5362(3) 0.1168(2)
H8 H 0.3102 0.5612 0.1842
H9 H 0.1899 0.5996 0.0975
H10 H 0.2987 0.5611 0.0740
C14 C 0.3975(2) -0.0086(3) 0.1122(2)
H11 H 0.4593 0.0596 0.1116
H12 H 0.3730 -0.0801 0.0561
H13 H 0.4247 -0.0712 0.1723
H14 H 0.3761(12) 0.291(3) 0.1160(17)
loop_
_geom_bond_atom_site_label_1
_geom_bond_atom_site_label_2
_geom_bond_site_symmetry_1
_geom_bond_site_symmetry_2
S1 O1 1_555 1_555
O2 S1 1_555 1_555
O3 C7 1_555 1_555
N1 S1 1_555 1_555
N2 C8 1_555 1_555
C1 S1 1_555 1_555
C2 C1 1_555 1_555
H1 C2 1_555 1_555
C3 C2 1_555 1_555
H2 C3 1_555 1_555
C4 C3 1_555 1_555
H3 C4 1_555 1_555
C5 C4 1_555 1_555
H4 C5 1_555 1_555
C6 C1 1_555 1_555
C7 N1 1_555 1_555
C8 C9 1_555 1_555
C9 H5 1_555 1_555
C10 C9 1_555 1_555
H6 C10 1_555 1_555
C11 C10 1_555 1_555
H7 C11 1_555 1_555
C12 N2 1_555 1_555
C13 C8 1_555 1_555
H8 C13 1_555 1_555
H9 C13 1_555 1_555
H10 C13 1_555 1_555
C14 C12 1_555 1_555
H11 C14 1_555 1_555
H12 C14 1_555 1_555
H13 C14 1_555 1_555
H14 N2 1_555 1_555
C5 C6 1_555 1_555
C6 C7 1_555 1_555
C11 C12 1_555 1_555

#END
