
#######################################################################
#
#                 Cambridge Crystallographic Data Centre
#                                CCDC 
#
#######################################################################
#
# If this CIF has been generated from an entry in the Cambridge 
# Structural Database, then it will include bibliographic, chemical, 
# crystal, experimental, refinement or atomic coordinate data resulting 
# from the CCDC's data processing and validation procedures.
#
#######################################################################

data_ADATEF
_chemical_name_common            "N,N'-1,4-Piperazinediacetic acid dihydrate"
_chemical_formula_moiety         'C8 H14 N2 O4,2(H2 O1)'
_chemical_name_systematic        
"2,2'-(Piperazine-1,4-diium-1,4-diyl)diacetate dihydrate"
_chemical_properties_biological  'chelating agent'
_symmetry_cell_setting           orthorhombic
_symmetry_space_group_name_H-M   'P b c a'
_symmetry_Int_Tables_number      61
_space_group_name_Hall           '-P 2ac 2ab'
loop_
_symmetry_equiv_pos_site_id
_symmetry_equiv_pos_as_xyz
1 x,y,z
2 1/2-x,-y,1/2+z
3 -x,1/2+y,1/2-z
4 1/2+x,1/2-y,-z
5 -x,-y,-z
6 1/2+x,y,1/2-z
7 x,1/2-y,1/2+z
8 1/2-x,1/2+y,z
_cell_length_a                   6.5060(13)
_cell_length_b                   11.344(2)
_cell_length_c                   14.587(3)
_cell_angle_alpha                90
_cell_angle_beta                 90
_cell_angle_gamma                90
_cell_volume                     1076.58
_exptl_crystal_colour            colorless
_exptl_crystal_description       block
_cell_formula_units_Z            4
loop_
_atom_site_label
_atom_site_type_symbol
_atom_site_fract_x
_atom_site_fract_y
_atom_site_fract_z
O1 O 0.5704(2) 0.28216(14) 0.16326(10)
O2 O 0.4253(2) 0.26221(12) 0.02515(10)
N1 N 0.1255(2) 0.42028(13) 0.05626(11)
H3 H 0.090(3) 0.3505(19) 0.0302(14)
C1 C 0.4384(3) 0.30506(17) 0.10376(13)
C2 C 0.2748(3) 0.39524(18) 0.13150(14)
H4 H 0.340(3) 0.4671(18) 0.1485(13)
H5 H 0.200(3) 0.3581(16) 0.1857(14)
C3 C 0.2175(3) 0.49728(18) -0.01684(13)
H6 H 0.262(3) 0.5719(18) 0.0123(12)
H7 H 0.337(4) 0.4552(19) -0.0433(13)
C4 C -0.0652(3) 0.47784(18) 0.09269(14)
H8 H -0.025(3) 0.5480(17) 0.1244(14)
H9 H -0.123(3) 0.4218(19) 0.1355(16)
O1D O -0.5704(2) 0.71784(14) -0.16326(10)
O2D O -0.4253(2) 0.73779(12) -0.02515(10)
N1D N -0.1255(2) 0.57972(13) -0.05626(11)
H3D H -0.090(3) 0.6495(19) -0.0302(14)
C1D C -0.4384(3) 0.69494(17) -0.10376(13)
C2D C -0.2748(3) 0.60476(18) -0.13150(14)
H4D H -0.340(3) 0.5329(18) -0.1485(13)
H5D H -0.200(3) 0.6419(16) -0.1857(14)
C3D C -0.2175(3) 0.50272(18) 0.01684(13)
H6D H -0.262(3) 0.4281(18) -0.0123(12)
H7D H -0.337(4) 0.5448(19) 0.0433(13)
C4D C 0.0652(3) 0.52216(18) -0.09269(14)
H8D H 0.025(3) 0.4520(17) -0.1244(14)
H9D H 0.123(3) 0.5782(19) -0.1355(16)
O3 O 0.4501(4) 0.1503(2) 0.31935(17)
H1 H 0.345(7) 0.200(4) 0.331(2)
H2 H 0.484(5) 0.184(3) 0.264(3)
loop_
_geom_bond_atom_site_label_1
_geom_bond_atom_site_label_2
_geom_bond_site_symmetry_1
_geom_bond_site_symmetry_2
O1 C1 1_555 1_555
O2 C1 1_555 1_555
O3 H1 1_555 1_555
H2 O3 1_555 1_555
N1 H3 1_555 1_555
C1 C2 1_555 1_555
C2 N1 1_555 1_555
H4 C2 1_555 1_555
H5 C2 1_555 1_555
C3 N1 1_555 1_555
H6 C3 1_555 1_555
H7 C3 1_555 1_555
C4 N1 1_555 1_555
H8 C4 1_555 1_555
H9 C4 1_555 1_555
O1D C1D 1_555 1_555
O2D C1D 1_555 1_555
N1D H3D 1_555 1_555
C1D C2D 1_555 1_555
C2D N1D 1_555 1_555
H4D C2D 1_555 1_555
H5D C2D 1_555 1_555
C3D C4 1_555 1_555
H6D C3D 1_555 1_555
H7D C3D 1_555 1_555
C4D C3 1_555 1_555
H8D C4D 1_555 1_555
H9D C4D 1_555 1_555
N1D C3D 1_555 1_555
N1D C4D 1_555 1_555

#END
