
#######################################################################
#
#                 Cambridge Crystallographic Data Centre
#                                CCDC 
#
#######################################################################
#
# If this CIF has been generated from an entry in the Cambridge 
# Structural Database, then it will include bibliographic, chemical, 
# crystal, experimental, refinement or atomic coordinate data resulting 
# from the CCDC's data processing and validation procedures.
#
#######################################################################

data_ADAWIM
_chemical_formula_moiety         'C29 H25 N4 O2 P1'
_chemical_name_systematic        
'Ethyl 1-phenyl-5-(triphenylphosphoranylideneamino)-1H-1,2,3-triazole-4-carboxylate'
_symmetry_cell_setting           triclinic
_symmetry_space_group_name_H-M   'P -1'
_symmetry_Int_Tables_number      2
_space_group_name_Hall           '-P 1'
loop_
_symmetry_equiv_pos_site_id
_symmetry_equiv_pos_as_xyz
1 x,y,z
2 -x,-y,-z
_cell_length_a                   9.2719(9)
_cell_length_b                   10.1752(9)
_cell_length_c                   14.3413(13)
_cell_angle_alpha                83.5800(10)
_cell_angle_beta                 89.418(2)
_cell_angle_gamma                73.251(2)
_cell_volume                     1287.14
_exptl_crystal_colour            green
_exptl_crystal_description       plate
_cell_formula_units_Z            2
_exptl_crystal_recrystallization_method ethanol/dichloromethane
loop_
_atom_site_label
_atom_site_type_symbol
_atom_site_fract_x
_atom_site_fract_y
_atom_site_fract_z
C1 C 0.1755(2) -0.21884(19) 0.27443(14)
C2 C 0.1122(3) -0.2034(2) 0.36180(17)
H1 H 0.1613 -0.1762 0.4091
C3 C -0.0257(4) -0.2290(3) 0.3780(2)
H2 H -0.0695 -0.2183 0.4363
C4 C -0.0972(3) -0.2697(3) 0.3088(3)
H3 H -0.1897 -0.2861 0.3202
C5 C -0.0345(4) -0.2864(3) 0.2234(2)
H4 H -0.0840 -0.3144 0.1767
C6 C 0.1041(3) -0.2615(2) 0.20558(17)
H5 H 0.1477 -0.2738 0.1473
C7 C 0.3473(2) -0.06726(18) 0.26421(12)
C8 C 0.4865(2) -0.08785(19) 0.22201(13)
C9 C 0.5782(2) 0.0079(2) 0.21348(15)
C10 C 0.7806(4) 0.0704(3) 0.1389(2)
H6 H 0.8663 0.0334 0.1819
H7 H 0.7263 0.1620 0.1540
C11 C 0.8324(11) 0.0788(10) 0.0427(5)
H10 H 0.8997 -0.0089 0.0314
H11 H 0.8841 0.1483 0.0334
H12 H 0.7474 0.1024 0.0000
C13 C 0.0051(2) 0.2549(2) 0.30202(14)
C14 C -0.0812(3) 0.3734(3) 0.25081(18)
H16 H -0.0357 0.4246 0.2087
C15 C -0.2362(3) 0.4167(3) 0.2618(2)
H17 H -0.2940 0.4976 0.2276
C16 C -0.3042(3) 0.3409(3) 0.3226(2)
H18 H -0.4080 0.3703 0.3298
C17 C -0.2186(3) 0.2206(3) 0.3734(2)
H19 H -0.2649 0.1682 0.4139
C18 C -0.0658(3) 0.1789(3) 0.36383(17)
H20 H -0.0085 0.0989 0.3990
C19 C 0.2794(2) 0.26190(18) 0.38855(13)
C20 C 0.2150(3) 0.3958(2) 0.40960(16)
H21 H 0.1330 0.4534 0.3741
C21 C 0.2722(3) 0.4440(2) 0.48313(17)
H22 H 0.2296 0.5345 0.4959
C22 C 0.3908(3) 0.3599(3) 0.53726(16)
H23 H 0.4281 0.3929 0.5869
C23 C 0.4553(3) 0.2250(3) 0.51790(15)
H24 H 0.5358 0.1673 0.5546
C24 C 0.3995(2) 0.1767(2) 0.44378(14)
H25 H 0.4428 0.0864 0.4308
C25 C 0.2543(2) 0.2725(2) 0.18326(14)
C26 C 0.3095(3) 0.3864(2) 0.17523(16)
H26 H 0.3213 0.4275 0.2283
C27 C 0.3470(4) 0.4385(3) 0.0878(2)
H27 H 0.3816 0.5162 0.0819
C28 C 0.3332(4) 0.3755(4) 0.01007(19)
H28 H 0.3599 0.4102 -0.0482
C29 C 0.2808(4) 0.2625(3) 0.01720(18)
H29 H 0.2734 0.2199 -0.0359
C30 C 0.2389(3) 0.2112(3) 0.10313(15)
H30 H 0.2004 0.1359 0.1076
N1 N 0.3136(2) -0.18778(16) 0.25514(11)
N2 N 0.4266(2) -0.27647(18) 0.20987(14)
N3 N 0.5288(2) -0.21444(18) 0.19011(13)
N4 N 0.2512(2) 0.03135(17) 0.30705(13)
O1 O 0.5582(2) 0.10310(19) 0.25949(14)
O2 O 0.68243(19) -0.01843(17) 0.14879(11)
P1 P 0.20801(6) 0.19371(5) 0.29384(3)
H8? H 0.8849 0.0156 0.1367
H9? H 0.7696 0.1217 0.1929
C12? C 0.7359(11) 0.1695(8) 0.0572(6)
H13? H 0.8226 0.1930 0.0318
H14? H 0.6635 0.2512 0.0743
H15? H 0.6917 0.1306 0.0110
loop_
_geom_bond_atom_site_label_1
_geom_bond_atom_site_label_2
_geom_bond_site_symmetry_1
_geom_bond_site_symmetry_2
C1 C2 1_555 1_555
C2 H1 1_555 1_555
C3 C2 1_555 1_555
H2 C3 1_555 1_555
C4 C3 1_555 1_555
H3 C4 1_555 1_555
C5 C4 1_555 1_555
H4 C5 1_555 1_555
C6 C1 1_555 1_555
H5 C6 1_555 1_555
C7 C8 1_555 1_555
C8 C9 1_555 1_555
C9 O1 1_555 1_555
C10 H6 1_555 1_555
H7 C10 1_555 1_555
C11 C10 1_555 1_555
H10 C11 1_555 1_555
H11 C11 1_555 1_555
H12 C11 1_555 1_555
C13 C14 1_555 1_555
C14 H16 1_555 1_555
C15 C14 1_555 1_555
H17 C15 1_555 1_555
C16 C15 1_555 1_555
H18 C16 1_555 1_555
C17 C16 1_555 1_555
H19 C17 1_555 1_555
C18 C13 1_555 1_555
H20 C18 1_555 1_555
C19 C20 1_555 1_555
C20 H21 1_555 1_555
C21 C20 1_555 1_555
H22 C21 1_555 1_555
C22 C21 1_555 1_555
H23 C22 1_555 1_555
C23 C22 1_555 1_555
H24 C23 1_555 1_555
C24 C19 1_555 1_555
H25 C24 1_555 1_555
C25 C26 1_555 1_555
C26 H26 1_555 1_555
C27 C26 1_555 1_555
H27 C27 1_555 1_555
C28 C27 1_555 1_555
H28 C28 1_555 1_555
C29 C28 1_555 1_555
H29 C29 1_555 1_555
C30 C25 1_555 1_555
H30 C30 1_555 1_555
N1 C1 1_555 1_555
N2 N1 1_555 1_555
N3 C8 1_555 1_555
N4 C7 1_555 1_555
O2 C9 1_555 1_555
P1 C13 1_555 1_555
C5 C6 1_555 1_555
C7 N1 1_555 1_555
C10 O2 1_555 1_555
C17 C18 1_555 1_555
C19 P1 1_555 1_555
C23 C24 1_555 1_555
C25 P1 1_555 1_555
C29 C30 1_555 1_555
N2 N3 1_555 1_555
N4 P1 1_555 1_555

#END
