
#######################################################################
#
#                 Cambridge Crystallographic Data Centre
#                                CCDC 
#
#######################################################################
#
# If this CIF has been generated from an entry in the Cambridge 
# Structural Database, then it will include bibliographic, chemical, 
# crystal, experimental, refinement or atomic coordinate data resulting 
# from the CCDC's data processing and validation procedures.
#
#######################################################################

data_ADAWEI
_chemical_formula_moiety         'C18 H14 N2 O2 S1'
_chemical_name_systematic        
2-Ethoxy-3-phenyl-1-benzothieno(3,2-d)pyrimidin-4(3H)-one
_symmetry_cell_setting           monoclinic
_symmetry_space_group_name_H-M   'C 2/c'
_symmetry_Int_Tables_number      15
_space_group_name_Hall           '-C 2yn'
loop_
_symmetry_equiv_pos_site_id
_symmetry_equiv_pos_as_xyz
1 x,y,z
2 1/2+x,1/2+y,z
3 -x,y,1/2-z
4 1/2-x,1/2+y,1/2-z
5 -x,-y,-z
6 1/2-x,1/2-y,-z
7 x,-y,1/2+z
8 1/2+x,1/2-y,1/2+z
_cell_length_a                   22.4877(18)
_cell_length_b                   11.2298(9)
_cell_length_c                   14.8969(12)
_cell_angle_alpha                90
_cell_angle_beta                 126.2980(10)
_cell_angle_gamma                90
_cell_volume                     3031.94
_exptl_crystal_colour            colorless
_exptl_crystal_description       block
_chemical_melting_point          '463 K'
_cell_formula_units_Z            8
_exptl_crystal_recrystallization_method ethanol/dichloromethane
loop_
_atom_site_label
_atom_site_type_symbol
_atom_site_fract_x
_atom_site_fract_y
_atom_site_fract_z
C1 C -0.02951(7) -0.00160(12) 0.08998(11)
C2 C -0.07988(8) 0.09192(15) 0.04456(12)
H1 H -0.0645 0.1693 0.0704
C3 C -0.15289(9) 0.06803(18) -0.03936(14)
H2 H -0.1870 0.1299 -0.0713
C4 C -0.17585(8) -0.04851(18) -0.07664(13)
H3 H -0.2254 -0.0631 -0.1327
C5 C -0.12722(9) -0.14225(16) -0.03289(13)
H4 H -0.1433 -0.2195 -0.0583
C6 C -0.05263(8) -0.11815(13) 0.05129(11)
C7 C 0.04878(7) 0.00306(12) 0.17617(10)
C8 C 0.08178(8) -0.10584(12) 0.19779(11)
C9 C 0.15982(8) -0.12020(12) 0.27669(11)
C10 C 0.15544(7) 0.09391(11) 0.30399(10)
C11 C 0.27430(7) -0.01167(12) 0.41539(11)
C12 C 0.31985(8) 0.05726(13) 0.40266(12)
H5 H 0.3001 0.1036 0.3392
C13 C 0.39512(9) 0.05632(16) 0.48557(15)
H6 H 0.4261 0.1032 0.4783
C14 C 0.42440(9) -0.01378(16) 0.57889(15)
H7 H 0.4751 -0.0145 0.6340
C15 C 0.37891(9) -0.08225(14) 0.59035(13)
H8 H 0.3989 -0.1293 0.6535
C16 C 0.30339(8) -0.08216(12) 0.50884(12)
H9 H 0.2726 -0.1289 0.5168
C17 C 0.15953(8) 0.29895(11) 0.34532(12)
H10 H 0.1901 0.3505 0.4094
H11 H 0.1137 0.2850 0.3364
C18 C 0.14303(10) 0.36009(14) 0.24347(14)
H12 H 0.1859 0.3577 0.2440
H13 H 0.1298 0.4415 0.2430
H14 H 0.1029 0.3203 0.1782
N1 N 0.08543(6) 0.10562(10) 0.22964(9)
N2 N 0.19518(6) -0.01064(9) 0.33058(9)
O1 O 0.19509(6) -0.21130(9) 0.29867(10)
O2 O 0.19736(5) 0.18566(8) 0.36566(8)
S1 S 0.02024(2) -0.21962(3) 0.11776(3)
loop_
_geom_bond_atom_site_label_1
_geom_bond_atom_site_label_2
_geom_bond_site_symmetry_1
_geom_bond_site_symmetry_2
C1 C2 1_555 1_555
C2 H1 1_555 1_555
C3 C2 1_555 1_555
H2 C3 1_555 1_555
C4 C3 1_555 1_555
H3 C4 1_555 1_555
C5 C4 1_555 1_555
H4 C5 1_555 1_555
C6 C1 1_555 1_555
C7 C1 1_555 1_555
C8 C7 1_555 1_555
C9 C8 1_555 1_555
C10 N1 1_555 1_555
C11 C12 1_555 1_555
C12 H5 1_555 1_555
C13 C12 1_555 1_555
H6 C13 1_555 1_555
C14 C13 1_555 1_555
H7 C14 1_555 1_555
C15 C14 1_555 1_555
H8 C15 1_555 1_555
C16 C11 1_555 1_555
H9 C16 1_555 1_555
C17 H10 1_555 1_555
H11 C17 1_555 1_555
C18 C17 1_555 1_555
H12 C18 1_555 1_555
H13 C18 1_555 1_555
H14 C18 1_555 1_555
N1 C7 1_555 1_555
N2 C9 1_555 1_555
O1 C9 1_555 1_555
O2 C10 1_555 1_555
S1 C6 1_555 1_555
C5 C6 1_555 1_555
C8 S1 1_555 1_555
C10 N2 1_555 1_555
C11 N2 1_555 1_555
C15 C16 1_555 1_555
C17 O2 1_555 1_555

#END
