
#######################################################################
#
#                 Cambridge Crystallographic Data Centre
#                                CCDC 
#
#######################################################################
#
# If this CIF has been generated from an entry in the Cambridge 
# Structural Database, then it will include bibliographic, chemical, 
# crystal, experimental, refinement or atomic coordinate data resulting 
# from the CCDC's data processing and validation procedures.
#
#######################################################################

data_ADEMIG
_chemical_formula_moiety         'C9 H7 Cl1 N2 O2'
_chemical_name_systematic        
(3-(2-Chlorophenyl)-1,2,4-oxadiazol-5-yl)methanol
_symmetry_cell_setting           monoclinic
_symmetry_space_group_name_H-M   'P 21/n'
_symmetry_Int_Tables_number      14
_space_group_name_Hall           '-P 2yn'
loop_
_symmetry_equiv_pos_site_id
_symmetry_equiv_pos_as_xyz
1 x,y,z
2 1/2-x,1/2+y,1/2-z
3 -x,-y,-z
4 1/2+x,1/2-y,1/2+z
_cell_length_a                   7.4280(15)
_cell_length_b                   14.202(3)
_cell_length_c                   8.8050(18)
_cell_angle_alpha                90
_cell_angle_beta                 106.76(3)
_cell_angle_gamma                90
_cell_volume                     889.404
_exptl_crystal_colour            colorless
_exptl_crystal_description       Block
_cell_formula_units_Z            4
_exptl_crystal_recrystallization_method ethanol
loop_
_atom_site_label
_atom_site_type_symbol
_atom_site_fract_x
_atom_site_fract_y
_atom_site_fract_z
Cl1 Cl 0.98974(10) 0.60467(5) 1.25390(8)
O1 O 0.6049(3) 0.60845(13) 0.4271(2)
H1 H 0.5542 0.5615 0.3792
O2 O 0.6763(3) 0.68865(12) 0.7876(2)
N1 N 0.6071(3) 0.53892(14) 0.7618(2)
N2 N 0.7568(3) 0.64753(16) 0.9380(3)
C1 C 0.4965(4) 0.6430(2) 0.5231(3)
H2 H 0.3721 0.6151 0.4903
H3 H 0.4830 0.7108 0.5110
C2 C 0.5909(3) 0.61933(16) 0.6925(3)
C3 C 0.7127(3) 0.55880(16) 0.9152(3)
C4 C 0.7651(3) 0.48467(16) 1.0370(3)
C5 C 0.8854(3) 0.49710(17) 1.1898(3)
C6 C 0.9279(4) 0.4228(2) 1.2959(3)
H4 H 1.0089 0.4320 1.3972
C7 C 0.8501(4) 0.3348(2) 1.2514(3)
H5 H 0.8782 0.2850 1.3231
C8 C 0.7319(4) 0.32103(19) 1.1022(3)
H6 H 0.6795 0.2620 1.0723
C9 C 0.6905(4) 0.39446(16) 0.9965(3)
H7 H 0.6107 0.3840 0.8951
loop_
_geom_bond_atom_site_label_1
_geom_bond_atom_site_label_2
_geom_bond_site_symmetry_1
_geom_bond_site_symmetry_2
Cl1 C5 1_555 1_555
O1 H1 1_555 1_555
O2 N2 1_555 1_555
N1 C2 1_555 1_555
N2 C3 1_555 1_555
C1 O1 1_555 1_555
H2 C1 1_555 1_555
H3 C1 1_555 1_555
C2 O2 1_555 1_555
C3 N1 1_555 1_555
C4 C3 1_555 1_555
C5 C4 1_555 1_555
C6 C5 1_555 1_555
H4 C6 1_555 1_555
C7 C6 1_555 1_555
H5 C7 1_555 1_555
C8 C7 1_555 1_555
H6 C8 1_555 1_555
C9 C4 1_555 1_555
H7 C9 1_555 1_555
C1 C2 1_555 1_555
C8 C9 1_555 1_555

#END
