
#######################################################################
#
#                 Cambridge Crystallographic Data Centre
#                                CCDC 
#
#######################################################################
#
# If this CIF has been generated from an entry in the Cambridge 
# Structural Database, then it will include bibliographic, chemical, 
# crystal, experimental, refinement or atomic coordinate data resulting 
# from the CCDC's data processing and validation procedures.
#
#######################################################################

data_ADICUO
_chemical_formula_moiety         'C17 H24 N2 O6,C5 H12'
_chemical_name_systematic        
'methyl 3-(acetylamino)-N-(t-butoxycarbonyl)tyrosinate pentane solvate'
_symmetry_cell_setting           orthorhombic
_symmetry_space_group_name_H-M   'P 21 21 2'
_symmetry_Int_Tables_number      18
_space_group_name_Hall           'P 2 2ab'
loop_
_symmetry_equiv_pos_site_id
_symmetry_equiv_pos_as_xyz
1 x,y,z
2 -x,-y,z
3 1/2-x,1/2+y,-z
4 1/2+x,1/2-y,-z
_cell_length_a                   13.7749(14)
_cell_length_b                   21.091(2)
_cell_length_c                   7.3456(7)
_cell_angle_alpha                90
_cell_angle_beta                 90
_cell_angle_gamma                90
_cell_volume                     2134.09
_exptl_crystal_colour            colorless
_exptl_crystal_description       needle
_cell_formula_units_Z            4
loop_
_atom_site_label
_atom_site_type_symbol
_atom_site_fract_x
_atom_site_fract_y
_atom_site_fract_z
N1 N 0.3921(3) 0.16344(16) 0.4153(5)
H1 H 0.369(4) 0.135(2) 0.494(7)
N2 N 0.6452(3) 0.45925(16) 0.3160(5)
H2 H 0.602(5) 0.479(4) 0.248(10)
O1 O 0.4146(2) 0.16197(13) 0.7745(4)
H3 H 0.432(5) 0.167(3) 0.908(10)
O2 O 0.4402(3) 0.18224(14) 0.1256(4)
O3 O 0.6528(3) 0.35695(16) 0.0640(4)
O4 O 0.6870(2) 0.29375(14) 0.3012(5)
O5 O 0.8013(2) 0.45571(14) 0.4125(5)
O6 O 0.7347(2) 0.54542(13) 0.2900(5)
C1 C 0.4407(3) 0.21701(18) 0.6879(6)
C2 C 0.4277(3) 0.21893(18) 0.4999(6)
C3 C 0.4501(3) 0.27492(18) 0.4074(6)
H4 H 0.4397 0.2771 0.2797
C4 C 0.4870(3) 0.32725(19) 0.4971(6)
C5 C 0.5025(4) 0.3235(2) 0.6848(6)
H5 H 0.5291 0.3587 0.7484
C6 C 0.4792(4) 0.2684(2) 0.7783(6)
H6 H 0.4898 0.2662 0.9059
C7 C 0.4003(3) 0.1471(2) 0.2393(6)
C8 C 0.3619(5) 0.0841(2) 0.1830(7)
H7 H 0.3093 0.09 0.0947
H8 H 0.337 0.0616 0.29
H9 H 0.4141 0.0592 0.1271
C9 C 0.5139(3) 0.38737(19) 0.3983(6)
H10 H 0.49 0.4242 0.4689
H11 H 0.481 0.3879 0.2784
C10 C 0.6244(3) 0.39451(18) 0.3687(6)
H12 H 0.6588 0.3848 0.4853
C11 C 0.6565(3) 0.34775(19) 0.2245(6)
C12 C 0.7077(4) 0.2423(2) 0.1753(8)
H13 H 0.6469 0.2269 0.122
H14 H 0.7397 0.2076 0.2407
H15 H 0.7505 0.2576 0.0783
C13 C 0.7340(4) 0.4842(2) 0.3440(6)
C14 C 0.8251(4) 0.5828(2) 0.2984(8)
C15 C 0.8896(12) 0.5580(8) 0.142(3)
H16 H 0.9107 0.5147 0.1696
H17 H 0.9467 0.5854 0.1292
H18 H 0.8526 0.5582 0.0282
C16 C 0.7861(17) 0.6495(8) 0.255(3)
H19 H 0.7546 0.6491 0.1351
H20 H 0.8399 0.6798 0.2538
H21 H 0.7387 0.662 0.3477
C17 C 0.8728(16) 0.5831(9) 0.481(2)
H22 H 0.8233 0.5875 0.576
H23 H 0.9183 0.6187 0.4883
H24 H 0.908 0.5432 0.4987
C18? C 0.9130(19) 0.5511(10) 0.219(5)
H25? H 0.8995 0.5389 0.0924
H26? H 0.9287 0.5132 0.29
H27? H 0.968 0.5805 0.2216
C19? C 0.800(3) 0.6452(13) 0.208(5)
H28? H 0.7743 0.6372 0.0862
H29? H 0.8592 0.6712 0.1984
H30? H 0.7519 0.6677 0.2812
C20? C 0.842(3) 0.5928(16) 0.505(2)
H31? H 0.7806 0.6037 0.564
H32? H 0.8888 0.6273 0.5233
H33? H 0.8678 0.5537 0.5587
loop_
_geom_bond_atom_site_label_1
_geom_bond_atom_site_label_2
_geom_bond_site_symmetry_1
_geom_bond_site_symmetry_2
N1 H1 1_555 1_555
N2 H2 1_555 1_555
O1 H3 1_555 1_555
O2 C7 1_555 1_555
O3 C11 1_555 1_555
O4 C11 1_555 1_555
O5 C13 1_555 1_555
O6 C13 1_555 1_555
C1 O1 1_555 1_555
C2 N1 1_555 1_555
C3 C2 1_555 1_555
H4 C3 1_555 1_555
C4 C3 1_555 1_555
C5 C4 1_555 1_555
H5 C5 1_555 1_555
C6 C1 1_555 1_555
H6 C6 1_555 1_555
C7 N1 1_555 1_555
C8 C7 1_555 1_555
H7 C8 1_555 1_555
H8 C8 1_555 1_555
H9 C8 1_555 1_555
C9 C4 1_555 1_555
H10 C9 1_555 1_555
H11 C9 1_555 1_555
C10 N2 1_555 1_555
H12 C10 1_555 1_555
C11 C10 1_555 1_555
C12 O4 1_555 1_555
H13 C12 1_555 1_555
H14 C12 1_555 1_555
H15 C12 1_555 1_555
C13 N2 1_555 1_555
C14 O6 1_555 1_555
C15 C14 1_555 1_555
H16 C15 1_555 1_555
H17 C15 1_555 1_555
H18 C15 1_555 1_555
C16 C14 1_555 1_555
H19 C16 1_555 1_555
H20 C16 1_555 1_555
H21 C16 1_555 1_555
C17 C14 1_555 1_555
H22 C17 1_555 1_555
H23 C17 1_555 1_555
H24 C17 1_555 1_555
C1 C2 1_555 1_555
C5 C6 1_555 1_555
C9 C10 1_555 1_555

#END
