
#######################################################################
#
#                 Cambridge Crystallographic Data Centre
#                                CCDC 
#
#######################################################################
#
# If this CIF has been generated from an entry in the Cambridge 
# Structural Database, then it will include bibliographic, chemical, 
# crystal, experimental, refinement or atomic coordinate data resulting 
# from the CCDC's data processing and validation procedures.
#
#######################################################################

data_ADIDAT
_chemical_formula_moiety         'C25 H27 N3'
_chemical_name_systematic        
2,6-bis(1-(2,6-Dimethylphenylimino)ethyl)pyridine
_symmetry_cell_setting           monoclinic
_symmetry_space_group_name_H-M   'P 21/n'
_symmetry_Int_Tables_number      14
_space_group_name_Hall           '-P 2yn'
loop_
_symmetry_equiv_pos_site_id
_symmetry_equiv_pos_as_xyz
1 x,y,z
2 1/2-x,1/2+y,1/2-z
3 -x,-y,-z
4 1/2+x,1/2-y,1/2+z
_cell_length_a                   10.340(6)
_cell_length_b                   14.433(5)
_cell_length_c                   15.185(7)
_cell_angle_alpha                90
_cell_angle_beta                 105.92(2)
_cell_angle_gamma                90
_cell_volume                     2179.25
_exptl_crystal_colour            yellow
_exptl_crystal_description       block
_cell_formula_units_Z            4
_exptl_crystal_recrystallization_method ethanol/methanol
loop_
_atom_site_label
_atom_site_type_symbol
_atom_site_fract_x
_atom_site_fract_y
_atom_site_fract_z
N1 N 0.24509(11) 0.76484(7) -0.00215(7)
N2 N 0.17681(13) 0.56283(9) -0.13889(9)
N3 N 0.22111(13) 0.98389(9) 0.09485(9)
C1 C 0.17268(14) 0.70416(9) -0.06226(9)
C2 C 0.03544(15) 0.71403(10) -0.10135(10)
H1 H -0.0128 0.6695 -0.1414
C3 C -0.02789(15) 0.79125(11) -0.07961(11)
H2 H -0.1195 0.8002 -0.1058
C4 C 0.04590(15) 0.85506(10) -0.01857(10)
H3 H 0.0051 0.9077 -0.0031
C5 C 0.18227(14) 0.83920(9) 0.01941(9)
C6 C 0.24624(15) 0.62204(9) -0.08462(9)
C7 C 0.39431(16) 0.61589(12) -0.03964(14)
H4 H 0.4293 0.5603 -0.0592
H5 H 0.4099 0.6146 0.0257
H6 H 0.4385 0.6688 -0.0565
C8 C 0.26610(15) 0.90273(10) 0.08977(9)
C9 C 0.39338(18) 0.86447(13) 0.14983(13)
H7 H 0.4384 0.9113 0.1920
H8 H 0.4504 0.8449 0.1130
H9 H 0.3735 0.8124 0.1833
C10 C 0.23472(15) 0.47941(10) -0.16091(10)
C11 C 0.23720(19) 0.40144(11) -0.10691(12)
C12 C 0.2833(2) 0.31838(12) -0.13485(15)
H10 H 0.2863 0.2655 -0.0994
C13 C 0.3239(2) 0.31325(12) -0.21301(14)
H11 H 0.3534 0.2572 -0.2308
C14 C 0.3212(2) 0.39062(12) -0.26485(13)
H12 H 0.3500 0.3868 -0.3177
C15 C 0.27657(17) 0.47510(11) -0.24066(11)
C16 C 0.1892(3) 0.40681(17) -0.02265(17)
H13 H 0.1617 0.4691 -0.0148
H14 H 0.2607 0.3892 0.0297
H15 H 0.1143 0.3656 -0.0288
C17 C 0.2744(2) 0.55996(15) -0.29847(14)
H16 H 0.3064 0.5443 -0.3502
H17 H 0.3313 0.6067 -0.2627
H18 H 0.1840 0.5830 -0.3194
C18 C 0.28857(16) 1.04697(11) 0.16436(10)
C19 C 0.38258(18) 1.10893(12) 0.14852(12)
C20 C 0.4335(2) 1.17611(15) 0.21438(15)
H19 H 0.4966 1.2182 0.2052
C21 C 0.3922(3) 1.18164(18) 0.29294(16)
H20 H 0.4272 1.2271 0.3363
C22 C 0.3004(3) 1.12070(19) 0.30682(15)
H21 H 0.2729 1.1252 0.3601
C23 C 0.2460(2) 1.05173(14) 0.24407(12)
C24 C 0.4276(3) 1.10361(17) 0.06300(15)
H22 H 0.3823 1.0534 0.0256
H23 H 0.5230 1.0934 0.0788
H24 H 0.4065 1.1607 0.0297
C25 C 0.1448(3) 0.9837(2) 0.25999(17)
H25 H 0.1273 0.9967 0.3177
H26 H 0.1796 0.9220 0.2608
H27 H 0.0627 0.9890 0.2117
loop_
_geom_bond_atom_site_label_1
_geom_bond_atom_site_label_2
_geom_bond_site_symmetry_1
_geom_bond_site_symmetry_2
N1 C1 1_555 1_555
N2 C6 1_555 1_555
N3 C8 1_555 1_555
C1 C2 1_555 1_555
C2 H1 1_555 1_555
C3 C2 1_555 1_555
H2 C3 1_555 1_555
C4 C3 1_555 1_555
H3 C4 1_555 1_555
C5 N1 1_555 1_555
C6 C1 1_555 1_555
C7 C6 1_555 1_555
H4 C7 1_555 1_555
H5 C7 1_555 1_555
H6 C7 1_555 1_555
C8 C5 1_555 1_555
C9 C8 1_555 1_555
H7 C9 1_555 1_555
H8 C9 1_555 1_555
H9 C9 1_555 1_555
C10 N2 1_555 1_555
C11 C10 1_555 1_555
C12 C11 1_555 1_555
H10 C12 1_555 1_555
C13 C12 1_555 1_555
H11 C13 1_555 1_555
C14 C13 1_555 1_555
H12 C14 1_555 1_555
C15 C10 1_555 1_555
C16 C11 1_555 1_555
H13 C16 1_555 1_555
H14 C16 1_555 1_555
H15 C16 1_555 1_555
C17 C15 1_555 1_555
H16 C17 1_555 1_555
H17 C17 1_555 1_555
H18 C17 1_555 1_555
C18 N3 1_555 1_555
C19 C18 1_555 1_555
C20 C19 1_555 1_555
H19 C20 1_555 1_555
C21 C20 1_555 1_555
H20 C21 1_555 1_555
C22 C21 1_555 1_555
H21 C22 1_555 1_555
C23 C18 1_555 1_555
C24 C19 1_555 1_555
H22 C24 1_555 1_555
H23 C24 1_555 1_555
H24 C24 1_555 1_555
C25 C23 1_555 1_555
H25 C25 1_555 1_555
H26 C25 1_555 1_555
H27 C25 1_555 1_555
C4 C5 1_555 1_555
C14 C15 1_555 1_555
C22 C23 1_555 1_555

#END
