
#######################################################################
#
#                 Cambridge Crystallographic Data Centre
#                                CCDC 
#
#######################################################################
#
# If this CIF has been generated from an entry in the Cambridge 
# Structural Database, then it will include bibliographic, chemical, 
# crystal, experimental, refinement or atomic coordinate data resulting 
# from the CCDC's data processing and validation procedures.
#
#######################################################################

data_ADIFAX
_chemical_formula_moiety         'C16 H13 N5 O2'
_chemical_name_systematic        
6-(dimethylamino)-2-(4H-1,2,4-triazol-4-yl)-1H-benzo[de]isoquinoline-1,3(2H)-dione
_symmetry_cell_setting           monoclinic
_symmetry_space_group_name_H-M   'P 21/c'
_symmetry_Int_Tables_number      14
_space_group_name_Hall           '-P 2ybc'
loop_
_symmetry_equiv_pos_site_id
_symmetry_equiv_pos_as_xyz
1 x,y,z
2 -x,1/2+y,1/2-z
3 -x,-y,-z
4 x,1/2-y,1/2+z
_cell_length_a                   12.0954(4)
_cell_length_b                   15.9987(4)
_cell_length_c                   7.0636(2)
_cell_angle_alpha                90
_cell_angle_beta                 96.094(3)
_cell_angle_gamma                90
_cell_volume                     1359.16
_exptl_crystal_colour            'light yellow'
_exptl_crystal_description       needle
_cell_formula_units_Z            4
loop_
_atom_site_label
_atom_site_type_symbol
_atom_site_fract_x
_atom_site_fract_y
_atom_site_fract_z
O1 O 0.57861(9) 0.70979(7) 0.20486(16)
N1 N 0.64215(11) 0.86715(8) 0.22197(19)
C1 C 0.36186(13) 0.65772(9) 0.2851(2)
H1 H 0.4154 0.6149 0.2755
C2 C 0.20301(13) 0.78398(10) 0.32158(19)
C3 C 0.31505(12) 0.80477(9) 0.29464(19)
C4 C 0.25399(13) 0.63612(9) 0.3130(2)
H2 H 0.2359 0.5789 0.3280
O2 O 0.49496(10) 0.98541(7) 0.26298(19)
N2 N 0.06272(11) 0.67308(8) 0.33224(18)
C5 C 0.17091(12) 0.69663(10) 0.31968(19)
C6 C 0.39347(12) 0.74081(9) 0.27072(19)
C7 C 0.46065(14) 0.91406(9) 0.2673(2)
C8 C 0.50670(13) 0.75992(9) 0.2353(2)
C9 C 0.13128(13) 0.84993(10) 0.3625(2)
H3 H 0.0571 0.8372 0.3852
C10 C 0.34722(13) 0.89010(9) 0.2982(2)
C11 C 0.27372(14) 0.95249(9) 0.3354(2)
H4 H 0.2966 1.0093 0.3372
N3 N 0.53243(11) 0.84666(8) 0.23841(18)
C12 C 0.03961(14) 0.58580(10) 0.3742(2)
H5 H 0.0456 0.5517 0.2605
H6 H -0.0357 0.5811 0.4123
H7 H 0.0935 0.5661 0.4781
N4 N 0.81879(12) 0.89021(9) 0.3006(2)
C13 C -0.03215(13) 0.71397(11) 0.2237(2)
H8 H -0.0059 0.7619 0.1546
H9 H -0.0845 0.7332 0.3111
H10 H -0.0695 0.6742 0.1328
C14 C 0.72703(14) 0.86501(10) 0.3642(3)
H11 H 0.7205 0.8477 0.4912
C15 C 0.68618(14) 0.89538(11) 0.0652(3)
H12 H 0.6461 0.9035 -0.0565
N5 N 0.79204(12) 0.90965(10) 0.1071(2)
C16 C 0.16587(14) 0.93187(10) 0.3703(2)
H13 H 0.1159 0.9746 0.3997
loop_
_geom_bond_atom_site_label_1
_geom_bond_atom_site_label_2
_geom_bond_site_symmetry_1
_geom_bond_site_symmetry_2
O1 C8 1_555 1_555
N1 N3 1_555 1_555
C1 H1 1_555 1_555
C2 C3 1_555 1_555
C3 C6 1_555 1_555
C4 C1 1_555 1_555
H2 C4 1_555 1_555
O2 C7 1_555 1_555
N2 C5 1_555 1_555
C5 C2 1_555 1_555
C6 C1 1_555 1_555
C7 C10 1_555 1_555
C8 C6 1_555 1_555
C9 C2 1_555 1_555
H3 C9 1_555 1_555
C10 C3 1_555 1_555
C11 C10 1_555 1_555
H4 C11 1_555 1_555
N3 C7 1_555 1_555
C12 N2 1_555 1_555
H5 C12 1_555 1_555
H6 C12 1_555 1_555
H7 C12 1_555 1_555
N4 C14 1_555 1_555
C13 N2 1_555 1_555
H8 C13 1_555 1_555
H9 C13 1_555 1_555
H10 C13 1_555 1_555
C14 N1 1_555 1_555
H11 C14 1_555 1_555
C15 N1 1_555 1_555
H12 C15 1_555 1_555
N5 N4 1_555 1_555
C16 C9 1_555 1_555
H13 C16 1_555 1_555
C4 C5 1_555 1_555
C8 N3 1_555 1_555
C11 C16 1_555 1_555
C15 N5 1_555 1_555

#END
