
#######################################################################
#
#                 Cambridge Crystallographic Data Centre
#                                CCDC 
#
#######################################################################
#
# If this CIF has been generated from an entry in the Cambridge 
# Structural Database, then it will include bibliographic, chemical, 
# crystal, experimental, refinement or atomic coordinate data resulting 
# from the CCDC's data processing and validation procedures.
#
#######################################################################

data_ADIHUQ
_chemical_formula_moiety         'C15 H24 N2 O3 S1,C7 H9 N5,C1 H1 Cl3'
_chemical_name_systematic        
'N-2-(Methylsulfanyl)ethyl 1,5,7-trimethyl-2,4-dioxo-3-azabicyclo(3.3.1)nonan-7-carboxamide 9-ethyladenine chloroform solvate'
_symmetry_cell_setting           monoclinic
_symmetry_space_group_name_H-M   'P 21/c'
_symmetry_Int_Tables_number      14
_space_group_name_Hall           '-P 2ybc'
loop_
_symmetry_equiv_pos_site_id
_symmetry_equiv_pos_as_xyz
1 x,y,z
2 x,1/2-y,1/2+z
3 -x,-y,-z
4 -x,1/2+y,1/2-z
_cell_length_a                   15.486(14)
_cell_length_b                   23.042(25)
_cell_length_c                   8.378(9)
_cell_angle_alpha                90
_cell_angle_beta                 98.13(8)
_cell_angle_gamma                90
_cell_volume                     2959.46
_exptl_crystal_colour            colorless
_exptl_crystal_description       prism
_cell_formula_units_Z            4
loop_
_atom_site_label
_atom_site_type_symbol
_atom_site_fract_x
_atom_site_fract_y
_atom_site_fract_z
O1 O 0.6415(2) 0.88565(11) 0.3716(3)
O2 O 0.7311(2) 0.95067(11) -0.0779(3)
N1 N 0.7140(2) 0.76060(13) 0.1648(3)
H1 H 0.7280(2) 0.75288(13) 0.2656(3)
O3 O 0.7492(2) 0.80763(10) -0.0502(3)
N2 N 0.6912(2) 0.91587(12) 0.1486(3)
H2 H 0.6360(2) 0.91639(12) 0.0994(3)
C8 C 0.7534(2) 0.93253(15) 0.0579(4)
C9 C 0.8466(2) 0.9298(2) 0.1349(4)
C10 C 0.8498(2) 0.9414(2) 0.3152(4)
H12 H 0.8277(2) 0.9795(2) 0.3290(4)
H13 H 0.9091(2) 0.9400(2) 0.3655(4)
C11 C 0.7962(2) 0.89670(15) 0.3901(4)
C12 C 0.7041(2) 0.89840(14) 0.3071(4)
C13 C 0.8357(2) 0.83620(15) 0.3694(4)
H14 H 0.7990(2) 0.80775(15) 0.4087(4)
H15 H 0.8912(2) 0.83441(15) 0.4356(4)
C14 C 0.8476(2) 0.8182(2) 0.1974(4)
C15 C 0.8854(2) 0.8692(2) 0.1132(4)
H16 H 0.9467(2) 0.8712(2) 0.1495(4)
H17 H 0.8780(2) 0.8607(2) 0.0004(4)
C16 C 0.8997(2) 0.9745(2) 0.0593(5)
H18 H 0.8756(2) 1.0120(2) 0.0730(5)
H19 H 0.9588(2) 0.9734(2) 0.1108(5)
H20 H 0.8979(2) 0.9666(2) -0.0531(5)
C17 C 0.7974(2) 0.9082(2) 0.5709(4)
H21 H 0.7631(2) 0.8798(2) 0.6168(4)
H22 H 0.8565(2) 0.9059(2) 0.6219(4)
H23 H 0.7748(2) 0.9460(2) 0.5870(4)
C18 C 0.9130(2) 0.7680(2) 0.2067(5)
H24 H 0.9219(2) 0.7568(2) 0.1004(5)
H25 H 0.9676(2) 0.7786(2) 0.2675(5)
H26 H 0.8885(2) 0.7362(2) 0.2582(5)
C19 C 0.7649(2) 0.79583(15) 0.0930(5)
C20 C 0.6351(2) 0.7345(2) 0.0793(5)
H27 H 0.6237(2) 0.6985(2) 0.1289(5)
H28 H 0.6433(2) 0.7268(2) -0.0296(5)
C21 C 0.5593(3) 0.7725(2) 0.0833(5)
H29 H 0.5526(3) 0.7806(2) 0.1927(5)
H30 H 0.5714(3) 0.8083(2) 0.0335(5)
S1 S 0.45943(10) 0.74459(8) -0.0212(2)
C22 C 0.4429(7) 0.6812(4) 0.0913(12)
H31 H 0.3913(7) 0.6610(4) 0.0456(12)
H32 H 0.4438(7) 0.6845(4) 0.2052(12)
H33 H 0.4931(7) 0.6601(4) 0.0695(12)
N3 N 0.4142(2) 0.96679(13) -0.3924(4)
N4 N 0.3059(2) 0.93584(14) -0.2280(4)
N5 N 0.5118(2) 0.92233(13) 0.0165(4)
N6 N 0.3724(2) 0.9090(2) 0.0422(4)
N7 N 0.5610(2) 0.96596(14) -0.3023(3)
H3 H 0.5699(2) 0.97843(14) -0.3954(3)
H4 H 0.6045(2) 0.95982(14) -0.2283(3)
C1 C 0.3337(3) 0.9555(2) -0.3606(5)
H5 H 0.2896(3) 0.9625(2) -0.4505(5)
C2 C 0.3740(2) 0.9271(2) -0.1112(5)
C3 C 0.4598(2) 0.93586(14) -0.1269(4)
C4 C 0.4805(2) 0.9563(2) -0.2719(5)
C5 C 0.4566(3) 0.9070(2) 0.1108(5)
H6 H 0.4738(3) 0.8956(2) 0.2204(5)
C6 C 0.2946(3) 0.9035(2) 0.1324(6)
H7 H 0.2452(3) 0.9231(2) 0.0755(6)
H8 H 0.3055(3) 0.9184(2) 0.2398(6)
C7 C 0.2746(4) 0.8405(2) 0.1287(9)
H9 H 0.2250(4) 0.8324(2) 0.1811(9)
H10 H 0.2643(4) 0.8265(2) 0.0203(9)
H11 H 0.3248(4) 0.8217(2) 0.1853(9)
C23 C 1.1355(2) 0.86358(13) 0.6567(4)
H34 H 1.1879(2) 0.88228(13) 0.7130(4)
Cl1 Cl 1.0578(3) 0.8587(2) 0.7812(6)
Cl2 Cl 1.0959(2) 0.90266(14) 0.4838(5)
Cl3 Cl 1.1595(3) 0.79527(14) 0.5989(6)
C24? C 0.5776(13) 0.7071(12) 0.1377(29)
H35? H 0.5615(13) 0.7307(12) 0.2247(29)
H36? H 0.6053(13) 0.6726(12) 0.1872(29)
S2? S 0.4756(6) 0.6834(5) 0.0182(12)
C25? C 0.4018(18) 0.7370(17) 0.0456(43)
H37? H 0.3460(18) 0.7275(17) -0.0141(43)
H38? H 0.4216(18) 0.7733(17) 0.0081(43)
H39? H 0.3966(18) 0.7400(17) 0.1581(43)
C26? C 1.1547(7) 0.8663(8) 0.6844(22)
H40? H 1.2012(7) 0.8946(8) 0.7163(22)
Cl4? Cl 1.1132(13) 0.8612(8) 0.4743(19)
Cl5? Cl 1.0499(9) 0.8805(10) 0.7444(24)
Cl6? Cl 1.1798(17) 0.7945(10) 0.7164(24)
loop_
_geom_bond_atom_site_label_1
_geom_bond_atom_site_label_2
_geom_bond_site_symmetry_1
_geom_bond_site_symmetry_2
O1 C12 1_555 1_555
O2 C8 1_555 1_555
N1 H1 1_555 1_555
O3 C19 1_555 1_555
N2 H2 1_555 1_555
N3 C1 1_555 1_555
N4 C1 1_555 1_555
N5 C3 1_555 1_555
N6 C2 1_555 1_555
N7 H3 1_555 1_555
H4 N7 1_555 1_555
C1 H5 1_555 1_555
C2 N4 1_555 1_555
C3 C2 1_555 1_555
C4 N3 1_555 1_555
C5 N5 1_555 1_555
H6 C5 1_555 1_555
C6 N6 1_555 1_555
H7 C6 1_555 1_555
H8 C6 1_555 1_555
C7 C6 1_555 1_555
H9 C7 1_555 1_555
H10 C7 1_555 1_555
H11 C7 1_555 1_555
C8 N2 1_555 1_555
C9 C8 1_555 1_555
C10 C9 1_555 1_555
H12 C10 1_555 1_555
H13 C10 1_555 1_555
C11 C10 1_555 1_555
C12 N2 1_555 1_555
C13 C11 1_555 1_555
H14 C13 1_555 1_555
H15 C13 1_555 1_555
C14 C13 1_555 1_555
C15 C9 1_555 1_555
H16 C15 1_555 1_555
H17 C15 1_555 1_555
C16 C9 1_555 1_555
H18 C16 1_555 1_555
H19 C16 1_555 1_555
H20 C16 1_555 1_555
C17 C11 1_555 1_555
H21 C17 1_555 1_555
H22 C17 1_555 1_555
H23 C17 1_555 1_555
C18 C14 1_555 1_555
H24 C18 1_555 1_555
H25 C18 1_555 1_555
H26 C18 1_555 1_555
C19 N1 1_555 1_555
C20 N1 1_555 1_555
H27 C20 1_555 1_555
H28 C20 1_555 1_555
C21 C20 1_555 1_555
H29 C21 1_555 1_555
H30 C21 1_555 1_555
S1 C21 1_555 1_555
C22 S1 1_555 1_555
H31 C22 1_555 1_555
H32 C22 1_555 1_555
H33 C22 1_555 1_555
C23 H34 1_555 1_555
Cl1 C23 1_555 1_555
Cl2 C23 1_555 1_555
Cl3 C23 1_555 1_555
N6 C5 1_555 1_555
N7 C4 1_555 1_555
C3 C4 1_555 1_555
C11 C12 1_555 1_555
C14 C15 1_555 1_555
C14 C19 1_555 1_555

#END
