
#######################################################################
#
#                 Cambridge Crystallographic Data Centre
#                                CCDC 
#
#######################################################################
#
# If this CIF has been generated from an entry in the Cambridge 
# Structural Database, then it will include bibliographic, chemical, 
# crystal, experimental, refinement or atomic coordinate data resulting 
# from the CCDC's data processing and validation procedures.
#
#######################################################################

data_ADIMAC
_chemical_formula_moiety         'C24 H36 O4'
_chemical_name_systematic        '(+)-3,12-Dioxo-5\b-cholanic acid'
_symmetry_cell_setting           monoclinic
_symmetry_space_group_name_H-M   'P 21'
_symmetry_Int_Tables_number      4
_space_group_name_Hall           'P 2yb'
loop_
_symmetry_equiv_pos_site_id
_symmetry_equiv_pos_as_xyz
1 x,y,z
2 -x,1/2+y,-z
_cell_length_a                   12.9462(3)
_cell_length_b                   7.00360(10)
_cell_length_c                   23.5856(5)
_cell_angle_alpha                90
_cell_angle_beta                 96.1630(10)
_cell_angle_gamma                90
_cell_volume                     2126.15
_exptl_crystal_colour            colorless
_exptl_crystal_description       plate
_chemical_melting_point          '464 K'
_cell_formula_units_Z            4
_exptl_crystal_recrystallization_method acetone
loop_
_atom_site_label
_atom_site_type_symbol
_atom_site_fract_x
_atom_site_fract_y
_atom_site_fract_z
O1 O 0.87025(10) 0.4310(2) 0.53647(5)
C1 C 0.87621(12) 0.7449(3) 0.42406(7)
H1 H 0.9405 0.7845 0.4477
H2 H 0.8416 0.8619 0.4080
O2 O 0.58213(8) 0.77548(18) 0.26186(5)
C2 C 0.80411(13) 0.6466(3) 0.46269(7)
H3 H 0.7917 0.7321 0.4947
H4 H 0.7363 0.6183 0.4407
O3 O 0.33768(9) 0.28354(19) 0.00968(5)
C3 C 0.85391(12) 0.4642(3) 0.48551(7)
O4 O 0.26479(9) 0.5480(2) -0.02874(5)
H5 H 0.2169 0.4716 -0.0399
C4 C 0.88619(13) 0.3308(3) 0.44099(7)
H6 H 0.8233 0.2772 0.4190
H7 H 0.9259 0.2235 0.4600
C5 C 0.95368(11) 0.4303(3) 0.39935(7)
H8 H 1.0212 0.4634 0.4219
C6 C 0.97864(12) 0.2915(3) 0.35290(7)
H9 H 1.0033 0.1694 0.3707
H10 H 1.0354 0.3448 0.3328
C7 C 0.88391(12) 0.2528(2) 0.30960(7)
H11 H 0.9046 0.1688 0.2790
H12 H 0.8301 0.1855 0.3288
C8 C 0.83850(12) 0.4381(2) 0.28331(7)
H13 H 0.8921 0.4999 0.2619
C9 C 0.81135(11) 0.5765(2) 0.33002(6)
H14 H 0.7589 0.5100 0.3512
C10 C 0.90635(11) 0.6206(2) 0.37458(7)
C11 C 0.75775(12) 0.7592(2) 0.30395(7)
H15 H 0.7305 0.8338 0.3348
H16 H 0.8102 0.8388 0.2874
C12 C 0.66901(12) 0.7175(2) 0.25792(7)
C13 C 0.69787(11) 0.5877(2) 0.21010(7)
C14 C 0.74105(12) 0.4047(2) 0.24201(7)
H17 H 0.6859 0.3603 0.2656
C15 C 0.74515(13) 0.2585(3) 0.19451(7)
H18 H 0.7404 0.1268 0.2093
H19 H 0.8101 0.2713 0.1762
C16 C 0.64943(14) 0.3076(3) 0.15227(8)
H20 H 0.5956 0.2078 0.1535
H21 H 0.6693 0.3145 0.1130
C17 C 0.60672(12) 0.5034(2) 0.16992(7)
H22 H 0.5488 0.4770 0.1936
C18 C 0.77873(12) 0.6840(2) 0.17587(7)
H23 H 0.7481 0.7979 0.1567
H24 H 0.7998 0.5943 0.1474
H25 H 0.8397 0.7208 0.2019
C19 C 0.99081(12) 0.7308(3) 0.34701(7)
H26 H 1.0495 0.7568 0.3758
H27 H 0.9621 0.8517 0.3315
H28 H 1.0147 0.6541 0.3162
C20 C 0.56071(12) 0.6179(2) 0.11749(7)
H29 H 0.6153 0.6298 0.0908
C21 C 0.52524(13) 0.8181(3) 0.13156(7)
H30 H 0.4970 0.8825 0.0964
H31 H 0.5845 0.8909 0.1497
H32 H 0.4714 0.8098 0.1577
C22 C 0.46974(12) 0.5030(3) 0.08734(7)
H33 H 0.4939 0.3712 0.0812
H34 H 0.4141 0.4954 0.1130
C23 C 0.42318(13) 0.5837(3) 0.02998(7)
H35 H 0.3946 0.7125 0.0357
H36 H 0.4784 0.5960 0.0042
C24 C 0.33839(12) 0.4562(3) 0.00286(7)
O5 O -0.66168(10) 0.5185(3) -0.45751(7)
C25 C -0.39363(12) 0.5165(3) -0.43266(7)
H37 H -0.4022 0.5993 -0.4669
H38 H -0.3331 0.4326 -0.4361
O6 O -0.23295(9) 0.10443(17) -0.27219(5)
C26 C -0.49118(14) 0.3911(3) -0.43224(8)
H39 H -0.5039 0.3206 -0.4687
H40 H -0.4807 0.2968 -0.4009
O7 O 0.10212(8) 0.31591(18) -0.05246(5)
C27 C -0.58288(13) 0.5156(3) -0.42417(8)
O8 O 0.18457(9) 0.04580(19) -0.02581(5)
H41 H 0.2331 0.1213 -0.0149
C28 C -0.56843(12) 0.6442(3) -0.37314(8)
H42 H -0.5649 0.5659 -0.3380
H43 H -0.6292 0.7301 -0.3734
C29 C -0.46829(11) 0.7658(3) -0.37218(7)
H44 H -0.4783 0.8549 -0.4055
C30 C -0.45361(12) 0.8888(3) -0.31844(7)
H45 H -0.3998 0.9864 -0.3229
H46 H -0.5194 0.9562 -0.3139
C31 C -0.42156(12) 0.7719(3) -0.26486(7)
H47 H -0.4797 0.6875 -0.2571
H48 H -0.4071 0.8592 -0.2320
C32 C -0.32522(12) 0.6503(2) -0.27091(7)
H49 H -0.2651 0.7373 -0.2747
C33 C -0.34235(11) 0.5244(2) -0.32467(6)
H50 H -0.4042 0.4426 -0.3200
C34 C -0.37009(11) 0.6436(2) -0.37954(7)
C35 C -0.24963(12) 0.3862(3) -0.32913(6)
H51 H -0.2673 0.2955 -0.3609
H52 H -0.1879 0.4602 -0.3375
C36 C -0.22434(11) 0.2761(2) -0.27397(7)
C37 C -0.19819(12) 0.4000(2) -0.22162(6)
C38 C -0.29840(12) 0.5215(2) -0.21921(6)
H53 H -0.3570 0.4286 -0.2190
C39 C -0.28358(13) 0.6109(3) -0.15964(7)
H54 H -0.3514 0.6351 -0.1452
H55 H -0.2449 0.7328 -0.1601
C40 C -0.22069(13) 0.4611(3) -0.12266(7)
H56 H -0.2631 0.4085 -0.0938
H57 H -0.1576 0.5203 -0.1026
C41 C -0.19000(12) 0.2997(3) -0.16276(6)
H58 H -0.2456 0.2001 -0.1644
C42 C -0.10102(11) 0.5235(2) -0.22750(7)
H59 H -0.0404 0.4405 -0.2288
H60 H -0.0893 0.6098 -0.1947
H61 H -0.1118 0.5986 -0.2627
C43 C -0.28060(12) 0.7774(3) -0.39166(7)
H62 H -0.2185 0.7015 -0.3963
H63 H -0.2657 0.8661 -0.3597
H64 H -0.3008 0.8497 -0.4267
C44 C -0.08647(12) 0.2023(2) -0.14142(7)
H65 H -0.0307 0.3016 -0.1391
C45 C -0.05673(12) 0.0450(3) -0.18117(7)
H66 H 0.0095 -0.0119 -0.1657
H67 H -0.0497 0.0992 -0.2189
H68 H -0.1109 -0.0534 -0.1846
C46 C -0.09222(12) 0.1230(3) -0.08103(7)
H69 H -0.1082 0.2300 -0.0559
H70 H -0.1509 0.0318 -0.0825
C47 C 0.00574(13) 0.0223(3) -0.05376(7)
H71 H -0.0088 -0.0302 -0.0165
H72 H 0.0207 -0.0868 -0.0783
C48 C 0.10086(13) 0.1444(3) -0.04455(6)
loop_
_geom_bond_atom_site_label_1
_geom_bond_atom_site_label_2
_geom_bond_site_symmetry_1
_geom_bond_site_symmetry_2
O1 C3 1_555 1_555
C1 H1 1_555 1_555
H2 C1 1_555 1_555
O2 C12 1_555 1_555
C2 C1 1_555 1_555
H3 C2 1_555 1_555
H4 C2 1_555 1_555
O3 C24 1_555 1_555
C3 C2 1_555 1_555
O4 H5 1_555 1_555
C4 C3 1_555 1_555
H6 C4 1_555 1_555
H7 C4 1_555 1_555
C5 C4 1_555 1_555
H8 C5 1_555 1_555
C6 C5 1_555 1_555
H9 C6 1_555 1_555
H10 C6 1_555 1_555
C7 C6 1_555 1_555
H11 C7 1_555 1_555
H12 C7 1_555 1_555
C8 C7 1_555 1_555
H13 C8 1_555 1_555
C9 C8 1_555 1_555
H14 C9 1_555 1_555
C10 C1 1_555 1_555
C11 C9 1_555 1_555
H15 C11 1_555 1_555
H16 C11 1_555 1_555
C12 C11 1_555 1_555
C13 C12 1_555 1_555
C14 C8 1_555 1_555
H17 C14 1_555 1_555
C15 C14 1_555 1_555
H18 C15 1_555 1_555
H19 C15 1_555 1_555
C16 C15 1_555 1_555
H20 C16 1_555 1_555
H21 C16 1_555 1_555
C17 C13 1_555 1_555
H22 C17 1_555 1_555
C18 C13 1_555 1_555
H23 C18 1_555 1_555
H24 C18 1_555 1_555
H25 C18 1_555 1_555
C19 C10 1_555 1_555
H26 C19 1_555 1_555
H27 C19 1_555 1_555
H28 C19 1_555 1_555
C20 C17 1_555 1_555
H29 C20 1_555 1_555
C21 C20 1_555 1_555
H30 C21 1_555 1_555
H31 C21 1_555 1_555
H32 C21 1_555 1_555
C22 C20 1_555 1_555
H33 C22 1_555 1_555
H34 C22 1_555 1_555
C23 C22 1_555 1_555
H35 C23 1_555 1_555
H36 C23 1_555 1_555
C24 O4 1_555 1_555
O5 C27 1_555 1_555
C25 H37 1_555 1_555
H38 C25 1_555 1_555
O6 C36 1_555 1_555
C26 C25 1_555 1_555
H39 C26 1_555 1_555
H40 C26 1_555 1_555
O7 C48 1_555 1_555
C27 C26 1_555 1_555
O8 H41 1_555 1_555
C28 C27 1_555 1_555
H42 C28 1_555 1_555
H43 C28 1_555 1_555
C29 C28 1_555 1_555
H44 C29 1_555 1_555
C30 C29 1_555 1_555
H45 C30 1_555 1_555
H46 C30 1_555 1_555
C31 C30 1_555 1_555
H47 C31 1_555 1_555
H48 C31 1_555 1_555
C32 C31 1_555 1_555
H49 C32 1_555 1_555
C33 C32 1_555 1_555
H50 C33 1_555 1_555
C34 C25 1_555 1_555
C35 C33 1_555 1_555
H51 C35 1_555 1_555
H52 C35 1_555 1_555
C36 C35 1_555 1_555
C37 C36 1_555 1_555
C38 C32 1_555 1_555
H53 C38 1_555 1_555
C39 C38 1_555 1_555
H54 C39 1_555 1_555
H55 C39 1_555 1_555
C40 C39 1_555 1_555
H56 C40 1_555 1_555
H57 C40 1_555 1_555
C41 C37 1_555 1_555
H58 C41 1_555 1_555
C42 C37 1_555 1_555
H59 C42 1_555 1_555
H60 C42 1_555 1_555
H61 C42 1_555 1_555
C43 C34 1_555 1_555
H62 C43 1_555 1_555
H63 C43 1_555 1_555
H64 C43 1_555 1_555
C44 C41 1_555 1_555
H65 C44 1_555 1_555
C45 C44 1_555 1_555
H66 C45 1_555 1_555
H67 C45 1_555 1_555
H68 C45 1_555 1_555
C46 C44 1_555 1_555
H69 C46 1_555 1_555
H70 C46 1_555 1_555
C47 C46 1_555 1_555
H71 C47 1_555 1_555
H72 C47 1_555 1_555
C48 O8 1_555 1_555
C5 C10 1_555 1_555
C9 C10 1_555 1_555
C13 C14 1_555 1_555
C16 C17 1_555 1_555
C23 C24 1_555 1_555
C29 C34 1_555 1_555
C33 C34 1_555 1_555
C37 C38 1_555 1_555
C40 C41 1_555 1_555
C47 C48 1_555 1_555

#END
