
#######################################################################
#
#                 Cambridge Crystallographic Data Centre
#                                CCDC 
#
#######################################################################
#
# If this CIF has been generated from an entry in the Cambridge 
# Structural Database, then it will include bibliographic, chemical, 
# crystal, experimental, refinement or atomic coordinate data resulting 
# from the CCDC's data processing and validation procedures.
#
#######################################################################

data_ADINAF
_chemical_formula_moiety         'C28 H66 Mg3 N4 O4'
_chemical_name_systematic        
tetrakis(\m-1-(dimethylamino)-2-methylpropan-2-olato)-diethyl-tri-magnesium(ii)
_symmetry_cell_setting           monoclinic
_symmetry_space_group_name_H-M   'C 2/c'
_symmetry_Int_Tables_number      15
_space_group_name_Hall           '-C 2yn'
loop_
_symmetry_equiv_pos_site_id
_symmetry_equiv_pos_as_xyz
1 x,y,z
2 -x,y,1/2-z
3 1/2+x,1/2+y,z
4 1/2-x,1/2+y,1/2-z
5 -x,-y,-z
6 x,-y,1/2+z
7 1/2-x,1/2-y,-z
8 1/2+x,1/2-y,1/2+z
_cell_length_a                   14.1606(2)
_cell_length_b                   17.1661(2)
_cell_length_c                   15.1687(2)
_cell_angle_alpha                90
_cell_angle_beta                 100.537(1)
_cell_angle_gamma                90
_cell_volume                     3625.06
_exptl_crystal_colour            silver
_exptl_crystal_description       Block
_cell_formula_units_Z            4
_chemical_properties_physical    
'Air-sensitive, Moisture-sensitive, Hygroscopic'
loop_
_atom_site_label
_atom_site_type_symbol
_atom_site_fract_x
_atom_site_fract_y
_atom_site_fract_z
Mg1 Mg 0.0000 0.15807(4) 0.2500
Mg2 Mg 0.21069(3) 0.13921(3) 0.25339(3)
O1 O 0.09687(7) 0.20608(6) 0.19287(6)
N1 N 0.27622(9) 0.25823(7) 0.24352(9)
C1 C 0.11726(10) 0.26393(8) 0.13382(9)
C2 C 0.22786(11) 0.27656(9) 0.15077(10)
H1 H 0.2558 0.2435 0.1086
H2 H 0.2411 0.3316 0.1376
C3 C 0.06211(12) 0.33917(9) 0.14486(12)
H3 H -0.0070 0.3283 0.1338
H4 H 0.0761 0.3782 0.1018
H5 H 0.0820 0.3591 0.2060
C4 C 0.08778(13) 0.23697(11) 0.03629(10)
H6 H 0.0182 0.2282 0.0228
H7 H 0.1212 0.1884 0.0276
H8 H 0.1050 0.2771 -0.0039
C5 C 0.38108(12) 0.25812(11) 0.24722(14)
H9 H 0.4035 0.3117 0.2426
H10 H 0.3963 0.2272 0.1974
H11 H 0.4130 0.2354 0.3042
C6 C 0.25232(13) 0.31576(10) 0.30784(12)
H12 H 0.2834 0.3655 0.2993
H13 H 0.2751 0.2971 0.3691
H14 H 0.1825 0.3231 0.2980
O2 O 0.10808(7) 0.10253(6) 0.31813(6)
N2 N 0.29789(8) 0.09959(8) 0.39022(8)
C7 C 0.12849(10) 0.04830(8) 0.38839(9)
C8 C 0.23802(10) 0.03177(9) 0.40529(9)
H15 H 0.2582 0.0138 0.4679
H16 H 0.2505 -0.0112 0.3654
C9 C 0.09293(11) 0.07812(10) 0.47175(10)
H17 H 0.0236 0.0875 0.4570
H18 H 0.1260 0.1268 0.4920
H19 H 0.1065 0.0391 0.5196
C10 C 0.07805(12) -0.02922(9) 0.36117(11)
H20 H 0.0083 -0.0214 0.3497
H21 H 0.0956 -0.0671 0.4097
H22 H 0.0980 -0.0488 0.3067
C11 C 0.30307(12) 0.15668(11) 0.46298(11)
H23 H 0.3411 0.1351 0.5181
H24 H 0.2381 0.1685 0.4728
H25 H 0.3335 0.2045 0.4466
C12 C 0.39592(11) 0.07137(11) 0.38830(11)
H26 H 0.4270 0.0560 0.4489
H27 H 0.4332 0.1130 0.3667
H28 H 0.3926 0.0264 0.3481
C13 C 0.26284(11) 0.06091(9) 0.16102(10)
H29 H 0.2546 0.0077 0.1835
H30 H 0.2172 0.0656 0.1035
C14 C 0.36258(13) 0.06276(14) 0.13725(13)
H31 H 0.3681 0.0212 0.0941
H32 H 0.4109 0.0549 0.1916
H33 H 0.3731 0.1133 0.1106
Mg2A Mg -0.21069(3) 0.13921(3) 0.24661(3)
O1A O -0.09687(7) 0.20608(6) 0.30713(6)
N1A N -0.27622(9) 0.25823(7) 0.25648(9)
C1A C -0.11726(10) 0.26393(8) 0.36618(9)
C2A C -0.22786(11) 0.27656(9) 0.34923(10)
H1A H -0.2558 0.2435 0.3914
H2A H -0.2411 0.3316 0.3624
C3A C -0.06211(12) 0.33917(9) 0.35514(12)
H3A H 0.0070 0.3283 0.3662
H4A H -0.0761 0.3782 0.3982
H5A H -0.0820 0.3591 0.2940
C4A C -0.08778(13) 0.23697(11) 0.46371(10)
H6A H -0.0182 0.2282 0.4772
H7A H -0.1212 0.1884 0.4724
H8A H -0.1050 0.2771 0.5039
C5A C -0.38108(12) 0.25812(11) 0.25278(14)
H9A H -0.4035 0.3117 0.2574
H10A H -0.3963 0.2272 0.3026
H11A H -0.4130 0.2354 0.1958
C6A C -0.25232(13) 0.31576(10) 0.19216(12)
H12A H -0.2834 0.3655 0.2007
H13A H -0.2751 0.2971 0.1309
H14A H -0.1825 0.3231 0.2020
O2A O -0.10808(7) 0.10253(6) 0.18187(6)
N2A N -0.29789(8) 0.09959(8) 0.10978(8)
C7A C -0.12849(10) 0.04830(8) 0.11161(9)
C8A C -0.23802(10) 0.03177(9) 0.09471(9)
H15A H -0.2582 0.0138 0.0321
H16A H -0.2505 -0.0112 0.1346
C9A C -0.09293(11) 0.07812(10) 0.02825(10)
H17A H -0.0236 0.0875 0.0430
H18A H -0.1260 0.1268 0.0080
H19A H -0.1065 0.0391 -0.0196
C10A C -0.07805(12) -0.02922(9) 0.13883(11)
H20A H -0.0083 -0.0214 0.1503
H21A H -0.0956 -0.0671 0.0903
H22A H -0.0980 -0.0488 0.1933
C11A C -0.30307(12) 0.15668(11) 0.03702(11)
H23A H -0.3411 0.1351 -0.0181
H24A H -0.2381 0.1685 0.0272
H25A H -0.3335 0.2045 0.0534
C12A C -0.39592(11) 0.07137(11) 0.11170(11)
H26A H -0.4270 0.0560 0.0511
H27A H -0.4332 0.1130 0.1333
H28A H -0.3926 0.0264 0.1519
C13A C -0.26284(11) 0.06091(9) 0.33898(10)
H29A H -0.2546 0.0077 0.3165
H30A H -0.2172 0.0656 0.3965
C14A C -0.36258(13) 0.06276(14) 0.36275(13)
H31A H -0.3681 0.0212 0.4059
H32A H -0.4109 0.0549 0.3084
H33A H -0.3731 0.1133 0.3894
loop_
_geom_bond_atom_site_label_1
_geom_bond_atom_site_label_2
_geom_bond_site_symmetry_1
_geom_bond_site_symmetry_2
Mg1 O1 1_555 1_555
Mg2 O1 1_555 1_555
O1 C1 1_555 1_555
N1 Mg2 1_555 1_555
C1 C2 1_555 1_555
C2 N1 1_555 1_555
H1 C2 1_555 1_555
H2 C2 1_555 1_555
C3 C1 1_555 1_555
H3 C3 1_555 1_555
H4 C3 1_555 1_555
H5 C3 1_555 1_555
C4 C1 1_555 1_555
H6 C4 1_555 1_555
H7 C4 1_555 1_555
H8 C4 1_555 1_555
C5 N1 1_555 1_555
H9 C5 1_555 1_555
H10 C5 1_555 1_555
H11 C5 1_555 1_555
C6 N1 1_555 1_555
H12 C6 1_555 1_555
H13 C6 1_555 1_555
H14 C6 1_555 1_555
O2 Mg1 1_555 1_555
N2 Mg2 1_555 1_555
C7 O2 1_555 1_555
C8 N2 1_555 1_555
H15 C8 1_555 1_555
H16 C8 1_555 1_555
C9 C7 1_555 1_555
H17 C9 1_555 1_555
H18 C9 1_555 1_555
H19 C9 1_555 1_555
C10 C7 1_555 1_555
H20 C10 1_555 1_555
H21 C10 1_555 1_555
H22 C10 1_555 1_555
C11 N2 1_555 1_555
H23 C11 1_555 1_555
H24 C11 1_555 1_555
H25 C11 1_555 1_555
C12 N2 1_555 1_555
H26 C12 1_555 1_555
H27 C12 1_555 1_555
H28 C12 1_555 1_555
C13 Mg2 1_555 1_555
H29 C13 1_555 1_555
H30 C13 1_555 1_555
C14 C13 1_555 1_555
H31 C14 1_555 1_555
H32 C14 1_555 1_555
H33 C14 1_555 1_555
Mg2A O1A 1_555 1_555
O1A Mg1 1_555 1_555
N1A Mg2A 1_555 1_555
C1A O1A 1_555 1_555
C2A N1A 1_555 1_555
H1A C2A 1_555 1_555
H2A C2A 1_555 1_555
C3A C1A 1_555 1_555
H3A C3A 1_555 1_555
H4A C3A 1_555 1_555
H5A C3A 1_555 1_555
C4A C1A 1_555 1_555
H6A C4A 1_555 1_555
H7A C4A 1_555 1_555
H8A C4A 1_555 1_555
C5A N1A 1_555 1_555
H9A C5A 1_555 1_555
H10A C5A 1_555 1_555
H11A C5A 1_555 1_555
C6A N1A 1_555 1_555
H12A C6A 1_555 1_555
H13A C6A 1_555 1_555
H14A C6A 1_555 1_555
O2A Mg1 1_555 1_555
N2A Mg2A 1_555 1_555
C7A O2A 1_555 1_555
C8A N2A 1_555 1_555
H15A C8A 1_555 1_555
H16A C8A 1_555 1_555
C9A C7A 1_555 1_555
H17A C9A 1_555 1_555
H18A C9A 1_555 1_555
H19A C9A 1_555 1_555
C10A C7A 1_555 1_555
H20A C10A 1_555 1_555
H21A C10A 1_555 1_555
H22A C10A 1_555 1_555
C11A N2A 1_555 1_555
H23A C11A 1_555 1_555
H24A C11A 1_555 1_555
H25A C11A 1_555 1_555
C12A N2A 1_555 1_555
H26A C12A 1_555 1_555
H27A C12A 1_555 1_555
H28A C12A 1_555 1_555
C13A Mg2A 1_555 1_555
H29A C13A 1_555 1_555
H30A C13A 1_555 1_555
C14A C13A 1_555 1_555
H31A C14A 1_555 1_555
H32A C14A 1_555 1_555
H33A C14A 1_555 1_555
Mg2 O2 1_555 1_555
C7 C8 1_555 1_555
Mg2A O2A 1_555 1_555
C1A C2A 1_555 1_555
C7A C8A 1_555 1_555

#END
