
#######################################################################
#
#                 Cambridge Crystallographic Data Centre
#                                CCDC 
#
#######################################################################
#
# If this CIF has been generated from an entry in the Cambridge 
# Structural Database, then it will include bibliographic, chemical, 
# crystal, experimental, refinement or atomic coordinate data resulting 
# from the CCDC's data processing and validation procedures.
#
#######################################################################

data_ADIREL
_chemical_formula_moiety         'C24 H21 N3 O1'
_chemical_name_systematic        
(E)-3-Benzyl-1-(2-hydroxy-5-methylphenyl)-5-styryl-1H-1,2,4-triazole
_symmetry_cell_setting           orthorhombic
_symmetry_space_group_name_H-M   'P b c a'
_symmetry_Int_Tables_number      61
_space_group_name_Hall           '-P 2ac 2ab'
loop_
_symmetry_equiv_pos_site_id
_symmetry_equiv_pos_as_xyz
1 x,y,z
2 1/2-x,-y,1/2+z
3 -x,1/2+y,1/2-z
4 1/2+x,1/2-y,-z
5 -x,-y,-z
6 1/2+x,y,1/2-z
7 x,1/2-y,1/2+z
8 1/2-x,1/2+y,z
_cell_length_a                   11.727(3)
_cell_length_b                   14.613(4)
_cell_length_c                   24.316(6)
_cell_angle_alpha                90
_cell_angle_beta                 90
_cell_angle_gamma                90
_cell_volume                     4166.95
_exptl_crystal_colour            white
_chemical_melting_point          152-153deg.C
_cell_formula_units_Z            8
loop_
_atom_site_label
_atom_site_type_symbol
_atom_site_fract_x
_atom_site_fract_y
_atom_site_fract_z
N1 N 0.76062(15) 0.32069(10) 0.61658(7)
N2 N 0.89266(14) 0.28224(11) 0.55315(7)
N3 N 0.73289(14) 0.23897(10) 0.59132(6)
O1 O 0.57735(12) 0.19482(10) 0.51080(6)
C1 C 1.0206(2) 0.39959(13) 0.64755(10)
C2 C 1.1283(2) 0.38006(17) 0.62873(11)
H1 H 1.1438 0.3843 0.5913
C3 C 1.2140(3) 0.3541(2) 0.66458(19)
H2 H 1.2861 0.3397 0.6512
C4 C 1.1923(4) 0.3498(2) 0.7198(2)
H3 H 1.2500 0.3333 0.7440
C5 C 1.0858(4) 0.3698(2) 0.73918(14)
H4 H 1.0709 0.3671 0.7767
C6 C 1.0006(3) 0.39386(17) 0.70292(13)
H5 H 0.9280 0.4065 0.7163
C7 C 0.92580(19) 0.42468(13) 0.60834(9)
H6 H 0.8763 0.4694 0.6257
H7 H 0.9582 0.4525 0.5757
C8 C 0.85678(18) 0.34246(13) 0.59206(9)
C9 C 0.81270(17) 0.21685(14) 0.55373(8)
C10 C 0.81413(17) 0.13321(13) 0.52197(8)
H8 H 0.7588 0.0892 0.5290
C11 C 0.89090(18) 0.11681(14) 0.48343(8)
H9 H 0.9428 0.1637 0.4769
C12 C 0.90495(17) 0.03487(14) 0.44980(8)
C13 C 0.9818(2) 0.03674(15) 0.40643(9)
H10 H 1.0227 0.0900 0.3993
C14 C 0.9983(2) -0.03929(18) 0.37366(9)
H11 H 1.0495 -0.0368 0.3445
C15 C 0.9397(2) -0.11833(17) 0.38403(10)
H12 H 0.9504 -0.1693 0.3617
C16 C 0.8654(2) -0.12233(15) 0.42717(10)
H13 H 0.8263 -0.1764 0.4344
C17 C 0.84778(18) -0.04704(15) 0.46012(9)
H14 H 0.7973 -0.0508 0.4895
C18 C 0.62672(17) 0.19610(12) 0.60484(8)
C19 C 0.54853(17) 0.17779(13) 0.56361(8)
C20 C 0.44339(18) 0.14310(14) 0.57920(9)
H15 H 0.3900 0.1283 0.5523
C21 C 0.4166(2) 0.13017(14) 0.63378(10)
H16 H 0.3447 0.1082 0.6430
C22 C 0.4928(2) 0.14883(15) 0.67482(9)
C23 C 0.5996(2) 0.18139(13) 0.65928(8)
H17 H 0.6539 0.1935 0.6862
C24 C 0.4629(2) 0.13552(17) 0.73479(9)
H18 H 0.3863 0.1128 0.7377
H19 H 0.4687 0.1930 0.7537
H20 H 0.5146 0.0923 0.7510
H21 H 0.5188(14) 0.2003(17) 0.4891(8)
loop_
_geom_bond_atom_site_label_1
_geom_bond_atom_site_label_2
_geom_bond_site_symmetry_1
_geom_bond_site_symmetry_2
N1 N3 1_555 1_555
N2 C8 1_555 1_555
N3 C9 1_555 1_555
O1 C19 1_555 1_555
C1 C2 1_555 1_555
C2 H1 1_555 1_555
C3 C2 1_555 1_555
H2 C3 1_555 1_555
C4 C3 1_555 1_555
H3 C4 1_555 1_555
C5 C4 1_555 1_555
H4 C5 1_555 1_555
C6 C1 1_555 1_555
H5 C6 1_555 1_555
C7 C1 1_555 1_555
H6 C7 1_555 1_555
H7 C7 1_555 1_555
C8 N1 1_555 1_555
C9 N2 1_555 1_555
C10 C9 1_555 1_555
H8 C10 1_555 1_555
C11 C10 1_555 1_555
H9 C11 1_555 1_555
C12 C11 1_555 1_555
C13 C12 1_555 1_555
H10 C13 1_555 1_555
C14 C13 1_555 1_555
H11 C14 1_555 1_555
C15 C14 1_555 1_555
H12 C15 1_555 1_555
C16 C15 1_555 1_555
H13 C16 1_555 1_555
C17 C12 1_555 1_555
H14 C17 1_555 1_555
C18 N3 1_555 1_555
C19 C18 1_555 1_555
C20 C19 1_555 1_555
H15 C20 1_555 1_555
C21 C20 1_555 1_555
H16 C21 1_555 1_555
C22 C21 1_555 1_555
C23 C18 1_555 1_555
H17 C23 1_555 1_555
C24 C22 1_555 1_555
H18 C24 1_555 1_555
H19 C24 1_555 1_555
H20 C24 1_555 1_555
H21 O1 1_555 1_555
C5 C6 1_555 1_555
C7 C8 1_555 1_555
C16 C17 1_555 1_555
C22 C23 1_555 1_555

#END
