
#######################################################################
#
#                 Cambridge Crystallographic Data Centre
#                                CCDC 
#
#######################################################################
#
# If this CIF has been generated from an entry in the Cambridge 
# Structural Database, then it will include bibliographic, chemical, 
# crystal, experimental, refinement or atomic coordinate data resulting 
# from the CCDC's data processing and validation procedures.
#
#######################################################################

data_ADISEM
_chemical_formula_moiety         'C31 H25 N1 O1'
_chemical_name_systematic        
1',3',3'-Trimethyl-1',3'-dihydrospiro(benzo(f)naphtho(2,1-c)chromene-4,2'-indole)
_symmetry_cell_setting           monoclinic
_symmetry_space_group_name_H-M   'P 21/n'
_symmetry_Int_Tables_number      14
_space_group_name_Hall           '-P 2yn'
loop_
_symmetry_equiv_pos_site_id
_symmetry_equiv_pos_as_xyz
1 x,y,z
2 1/2-x,1/2+y,1/2-z
3 -x,-y,-z
4 1/2+x,1/2-y,1/2+z
_cell_length_a                   8.055(2)
_cell_length_b                   17.695(5)
_cell_length_c                   16.435(5)
_cell_angle_alpha                90
_cell_angle_beta                 103.862(6)
_cell_angle_gamma                90
_cell_volume                     2274.31
_exptl_crystal_colour            yellow
_chemical_melting_point          196-197deg.C
_cell_formula_units_Z            4
loop_
_atom_site_label
_atom_site_type_symbol
_atom_site_fract_x
_atom_site_fract_y
_atom_site_fract_z
O1 O 0.13676(18) 0.02758(7) 0.73405(9)
N1 N 0.0759(2) -0.03235(9) 0.84847(10)
C1 C 0.1302(3) 0.08867(11) 0.68165(13)
C2 C 0.1866(3) 0.07564(12) 0.60774(14)
H1 H 0.2357 0.0295 0.5996
C3 C 0.1688(3) 0.13057(12) 0.54882(14)
H2 H 0.2117 0.1230 0.5017
C4 C 0.0858(3) 0.19940(11) 0.55814(12)
C5 C 0.0474(3) 0.25328(12) 0.49216(13)
H3 H 0.0842 0.2446 0.4435
C6 C -0.0418(3) 0.31724(13) 0.49863(13)
H4 H -0.0646 0.3522 0.4552
C7 C -0.0992(3) 0.32992(12) 0.57175(13)
H5 H -0.1630 0.3730 0.5758
C8 C -0.0628(2) 0.27987(11) 0.63714(12)
H6 H -0.1022 0.2897 0.6848
C9 C 0.0336(2) 0.21346(10) 0.63395(11)
C10 C 0.0726(2) 0.15837(10) 0.70039(11)
C11 C 0.0479(2) 0.16708(10) 0.78719(11)
C12 C 0.0846(2) 0.23579(10) 0.83552(11)
C13 C 0.1676(2) 0.29904(11) 0.81030(12)
H7 H 0.1956 0.2980 0.7586
C14 C 0.2075(3) 0.36118(12) 0.85971(13)
H8 H 0.2634 0.4015 0.8416
C15 C 0.1653(3) 0.36527(13) 0.93782(13)
H9 H 0.1901 0.4086 0.9705
C16 C 0.0879(3) 0.30540(12) 0.96533(13)
H10 H 0.0604 0.3082 1.0171
C17 C 0.0486(2) 0.23889(11) 0.91675(11)
C18 C -0.0126(3) 0.17365(12) 0.94897(13)
H11 H -0.0438 0.1762 0.9998
C19 C -0.0266(3) 0.10702(12) 0.90681(12)
H12 H -0.0589 0.0637 0.9312
C20 C 0.0071(2) 0.10252(11) 0.82618(12)
C21 C 0.0110(3) 0.02552(11) 0.78617(12)
C22 C -0.1626(3) -0.00953(11) 0.73449(12)
C23 C -0.2173(3) 0.01577(13) 0.64278(14)
H13 H -0.1281 0.0043 0.6151
H14 H -0.2383 0.0692 0.6405
H15 H -0.3199 -0.0104 0.6153
C24 C -0.3086(3) 0.00817(13) 0.77781(16)
H16 H -0.4103 -0.0181 0.7495
H17 H -0.3302 0.0616 0.7757
H18 H -0.2761 -0.0080 0.8352
C25 C -0.1205(3) -0.09330(11) 0.74500(12)
C26 C -0.1990(3) -0.15535(12) 0.70193(13)
H19 H -0.2924 -0.1493 0.6565
C27 C -0.1373(3) -0.22746(12) 0.72698(14)
H20 H -0.1893 -0.2697 0.6981
C28 C 0.0006(3) -0.23615(11) 0.79448(14)
H21 H 0.0404 -0.2845 0.8109
C29 C 0.0812(3) -0.17392(11) 0.83852(13)
H22 H 0.1748 -0.1800 0.8838
C30 C 0.0187(3) -0.10283(10) 0.81318(12)
C31 C 0.2489(3) -0.02510(13) 0.90069(15)
H23 H 0.2625 -0.0579 0.9483
H24 H 0.2686 0.0262 0.9194
H25 H 0.3296 -0.0388 0.8687
loop_
_geom_bond_atom_site_label_1
_geom_bond_atom_site_label_2
_geom_bond_site_symmetry_1
_geom_bond_site_symmetry_2
O1 C1 1_555 1_555
N1 C21 1_555 1_555
C1 C2 1_555 1_555
C2 H1 1_555 1_555
C3 C2 1_555 1_555
H2 C3 1_555 1_555
C4 C3 1_555 1_555
C5 C4 1_555 1_555
H3 C5 1_555 1_555
C6 C5 1_555 1_555
H4 C6 1_555 1_555
C7 C6 1_555 1_555
H5 C7 1_555 1_555
C8 C7 1_555 1_555
H6 C8 1_555 1_555
C9 C4 1_555 1_555
C10 C1 1_555 1_555
C11 C10 1_555 1_555
C12 C11 1_555 1_555
C13 C12 1_555 1_555
H7 C13 1_555 1_555
C14 C13 1_555 1_555
H8 C14 1_555 1_555
C15 C14 1_555 1_555
H9 C15 1_555 1_555
C16 C15 1_555 1_555
H10 C16 1_555 1_555
C17 C12 1_555 1_555
C18 C17 1_555 1_555
H11 C18 1_555 1_555
C19 C18 1_555 1_555
H12 C19 1_555 1_555
C20 C11 1_555 1_555
C21 O1 1_555 1_555
C22 C21 1_555 1_555
C23 C22 1_555 1_555
H13 C23 1_555 1_555
H14 C23 1_555 1_555
H15 C23 1_555 1_555
C24 C22 1_555 1_555
H16 C24 1_555 1_555
H17 C24 1_555 1_555
H18 C24 1_555 1_555
C25 C22 1_555 1_555
C26 C25 1_555 1_555
H19 C26 1_555 1_555
C27 C26 1_555 1_555
H20 C27 1_555 1_555
C28 C27 1_555 1_555
H21 C28 1_555 1_555
C29 C28 1_555 1_555
H22 C29 1_555 1_555
C30 N1 1_555 1_555
C31 N1 1_555 1_555
H23 C31 1_555 1_555
H24 C31 1_555 1_555
H25 C31 1_555 1_555
C8 C9 1_555 1_555
C9 C10 1_555 1_555
C16 C17 1_555 1_555
C19 C20 1_555 1_555
C20 C21 1_555 1_555
C25 C30 1_555 1_555
C29 C30 1_555 1_555

#END
