
#######################################################################
#
#                 Cambridge Crystallographic Data Centre
#                                CCDC 
#
#######################################################################
#
# If this CIF has been generated from an entry in the Cambridge 
# Structural Database, then it will include bibliographic, chemical, 
# crystal, experimental, refinement or atomic coordinate data resulting 
# from the CCDC's data processing and validation procedures.
#
#######################################################################

data_ADITIR
_chemical_formula_moiety         'C33 H20 O2'
_chemical_name_systematic        
Spiro(benzo(c)chromene-6,4'-benzo(f)naphtho(2,1-c)chromene)
_symmetry_cell_setting           orthorhombic
_symmetry_space_group_name_H-M   'P b c a'
_symmetry_Int_Tables_number      61
_space_group_name_Hall           '-P 2ac 2ab'
loop_
_symmetry_equiv_pos_site_id
_symmetry_equiv_pos_as_xyz
1 x,y,z
2 1/2-x,-y,1/2+z
3 -x,1/2+y,1/2-z
4 1/2+x,1/2-y,-z
5 -x,-y,-z
6 1/2+x,y,1/2-z
7 x,1/2-y,1/2+z
8 1/2-x,1/2+y,z
_cell_length_a                   10.904(3)
_cell_length_b                   18.776(6)
_cell_length_c                   22.866(7)
_cell_angle_alpha                90
_cell_angle_beta                 90
_cell_angle_gamma                90
_cell_volume                     4681.44
_exptl_crystal_colour            yellow
_chemical_melting_point          220-221deg.C
_cell_formula_units_Z            8
loop_
_atom_site_label
_atom_site_type_symbol
_atom_site_fract_x
_atom_site_fract_y
_atom_site_fract_z
O1 O 0.15785(18) 0.14909(10) 0.53030(8)
O2 O 0.34119(19) 0.09057(10) 0.55803(7)
C1 C 0.1042(3) 0.14047(16) 0.58594(13)
C2 C 0.0018(3) 0.09448(16) 0.58827(15)
H1 H -0.0289 0.0737 0.5544
C3 C -0.0516(3) 0.08105(16) 0.64163(15)
H2 H -0.1213 0.0525 0.6436
C4 C -0.0019(3) 0.11018(16) 0.69387(14)
C5 C -0.0534(3) 0.09191(17) 0.74994(16)
H3 H -0.1220 0.0626 0.7516
C6 C -0.0030(4) 0.1171(2) 0.80120(16)
H4 H -0.0385 0.1059 0.8370
C7 C 0.1036(3) 0.16021(19) 0.79874(14)
H5 H 0.1392 0.1760 0.8333
C8 C 0.1553(3) 0.17921(16) 0.74608(13)
H6 H 0.2260 0.2069 0.7460
C9 C 0.1034(3) 0.15753(16) 0.69148(12)
C10 C 0.1517(3) 0.17742(15) 0.63426(12)
C11 C 0.2540(3) 0.22932(15) 0.62200(12)
C12 C 0.2743(3) 0.29620(15) 0.65381(11)
C13 C 0.1838(3) 0.32741(16) 0.69145(12)
H7 H 0.1109 0.3031 0.6984
C14 C 0.2028(3) 0.39278(18) 0.71761(13)
H8 H 0.1417 0.4122 0.7411
C15 C 0.3136(4) 0.43071(19) 0.70931(13)
H9 H 0.3265 0.4738 0.7284
C16 C 0.4024(3) 0.40329(17) 0.67259(13)
H10 H 0.4751 0.4283 0.6671
C17 C 0.3842(3) 0.33665(17) 0.64265(13)
C18 C 0.4684(3) 0.31256(17) 0.59888(13)
H11 H 0.5431 0.3357 0.5941
C19 C 0.4394(3) 0.25504(17) 0.56368(13)
H12 H 0.4916 0.2424 0.5332
C20 C 0.3297(3) 0.21470(15) 0.57375(13)
C21 C 0.2916(3) 0.15424(16) 0.53211(12)
C22 C 0.3256(3) 0.16246(16) 0.46698(12)
C23 C 0.3282(3) 0.22884(17) 0.43945(13)
H13 H 0.3174 0.2699 0.4616
C24 C 0.3469(3) 0.23457(19) 0.37918(14)
H14 H 0.3488 0.2791 0.3615
C25 C 0.3627(3) 0.17338(19) 0.34584(14)
H15 H 0.3749 0.1771 0.3057
C26 C 0.3605(3) 0.10640(18) 0.37234(13)
H16 H 0.3720 0.0658 0.3497
C27 C 0.3408(3) 0.09952(16) 0.43335(12)
C28 C 0.3375(3) 0.02926(15) 0.46345(12)
C29 C 0.3414(3) -0.03705(17) 0.43444(14)
H17 H 0.3427 -0.0381 0.3938
C30 C 0.3435(3) -0.10067(18) 0.46517(16)
H18 H 0.3470 -0.1436 0.4450
C31 C 0.3403(3) -0.10079(18) 0.52590(16)
H19 H 0.3403 -0.1438 0.5461
C32 C 0.3371(3) -0.03663(17) 0.55662(13)
H20 H 0.3358 -0.0362 0.5973
C33 C 0.3358(3) 0.02744(16) 0.52475(13)
loop_
_geom_bond_atom_site_label_1
_geom_bond_atom_site_label_2
_geom_bond_site_symmetry_1
_geom_bond_site_symmetry_2
O1 C1 1_555 1_555
O2 C21 1_555 1_555
C1 C2 1_555 1_555
C2 H1 1_555 1_555
C3 C2 1_555 1_555
H2 C3 1_555 1_555
C4 C3 1_555 1_555
C5 C4 1_555 1_555
H3 C5 1_555 1_555
C6 C5 1_555 1_555
H4 C6 1_555 1_555
C7 C6 1_555 1_555
H5 C7 1_555 1_555
C8 C7 1_555 1_555
H6 C8 1_555 1_555
C9 C4 1_555 1_555
C10 C1 1_555 1_555
C11 C10 1_555 1_555
C12 C11 1_555 1_555
C13 C12 1_555 1_555
H7 C13 1_555 1_555
C14 C13 1_555 1_555
H8 C14 1_555 1_555
C15 C14 1_555 1_555
H9 C15 1_555 1_555
C16 C15 1_555 1_555
H10 C16 1_555 1_555
C17 C12 1_555 1_555
C18 C17 1_555 1_555
H11 C18 1_555 1_555
C19 C18 1_555 1_555
H12 C19 1_555 1_555
C20 C11 1_555 1_555
C21 O1 1_555 1_555
C22 C21 1_555 1_555
C23 C22 1_555 1_555
H13 C23 1_555 1_555
C24 C23 1_555 1_555
H14 C24 1_555 1_555
C25 C24 1_555 1_555
H15 C25 1_555 1_555
C26 C25 1_555 1_555
H16 C26 1_555 1_555
C27 C22 1_555 1_555
C28 C27 1_555 1_555
C29 C28 1_555 1_555
H17 C29 1_555 1_555
C30 C29 1_555 1_555
H18 C30 1_555 1_555
C31 C30 1_555 1_555
H19 C31 1_555 1_555
C32 C31 1_555 1_555
H20 C32 1_555 1_555
C33 O2 1_555 1_555
C8 C9 1_555 1_555
C9 C10 1_555 1_555
C16 C17 1_555 1_555
C19 C20 1_555 1_555
C20 C21 1_555 1_555
C26 C27 1_555 1_555
C28 C33 1_555 1_555
C32 C33 1_555 1_555

#END
