
#######################################################################
#
#                 Cambridge Crystallographic Data Centre
#                                CCDC 
#
#######################################################################
#
# If this CIF has been generated from an entry in the Cambridge 
# Structural Database, then it will include bibliographic, chemical, 
# crystal, experimental, refinement or atomic coordinate data resulting 
# from the CCDC's data processing and validation procedures.
#
#######################################################################

data_ADITUD
_chemical_formula_moiety         'C41 H24 O2,0.5(C6 H14),C4 H8 O1'
_chemical_name_systematic        
"7-(2'-Hydroxy-1,1'-binaphthalen-2-yl)-1H-benzo(no)tetraphen-1-one tetrahydrofuran n-hexane solvate"
_symmetry_cell_setting           monoclinic
_symmetry_space_group_name_H-M   'P 21/c'
_symmetry_Int_Tables_number      14
_space_group_name_Hall           '-P 2ybc'
loop_
_symmetry_equiv_pos_site_id
_symmetry_equiv_pos_as_xyz
1 x,y,z
2 -x,1/2+y,1/2-z
3 -x,-y,-z
4 x,1/2-y,1/2+z
_cell_length_a                   11.825(3)
_cell_length_b                   31.454(7)
_cell_length_c                   9.276(2)
_cell_angle_alpha                90
_cell_angle_beta                 96.091(5)
_cell_angle_gamma                90
_cell_volume                     3430.67
_exptl_crystal_colour            red
_exptl_crystal_description       block
_cell_formula_units_Z            4
loop_
_atom_site_label
_atom_site_type_symbol
_atom_site_fract_x
_atom_site_fract_y
_atom_site_fract_z
O1 O 0.53271(10) 0.17147(4) 1.06967(12)
O2 O 0.18924(10) 0.15094(4) 0.60963(13)
C1 C 0.69923(12) 0.16454(5) 0.95193(16)
C2 C 0.60130(13) 0.18669(5) 0.97194(17)
C3 C 0.57254(14) 0.22458(5) 0.89490(18)
H1 H 0.5064 0.2399 0.9134
C4 C 0.63907(15) 0.23930(5) 0.79408(18)
H2 H 0.6175 0.2643 0.7407
C5 C 0.74027(14) 0.21758(5) 0.76815(17)
C6 C 0.80677(15) 0.23080(5) 0.65844(19)
H3 H 0.7836 0.2548 0.6003
C7 C 0.90419(15) 0.20953(6) 0.6347(2)
H4 H 0.9473 0.2184 0.5594
C8 C 0.94018(14) 0.17454(6) 0.72185(19)
H5 H 1.0092 0.1605 0.7073
C9 C 0.87674(13) 0.16051(5) 0.82754(18)
H6 H 0.9024 0.1368 0.8854
C10 C 0.77301(13) 0.18088(5) 0.85218(17)
C11 C 0.72136(12) 0.12180(5) 1.02001(16)
C12 C 0.65624(13) 0.08728(5) 0.96841(17)
C13 C 0.68087(14) 0.04600(5) 1.02564(18)
H7 H 0.6361 0.0225 0.9891
C14 C 0.76811(14) 0.03956(5) 1.13254(19)
H8 H 0.7845 0.0116 1.1677
C15 C 0.83416(13) 0.07425(5) 1.19110(17)
C16 C 0.92358(14) 0.06867(6) 1.30381(19)
H9 H 0.9406 0.0410 1.3406
C17 C 0.98571(14) 0.10252(6) 1.36039(19)
H10 H 1.0454 0.0982 1.4359
C18 C 0.96148(14) 0.14377(6) 1.30699(19)
H11 H 1.0043 0.1672 1.3475
C19 C 0.87639(13) 0.15023(5) 1.19681(18)
H12 H 0.8614 0.1782 1.1612
C20 C 0.81049(13) 0.11584(5) 1.13510(17)
C21 C 0.55692(13) 0.09299(5) 0.85592(17)
C22 C 0.57372(13) 0.10307(5) 0.71145(17)
C23 C 0.68382(14) 0.10313(5) 0.66175(18)
H13 H 0.7474 0.0940 0.7254
C24 C 0.69992(14) 0.11604(6) 0.52446(19)
H14 H 0.7740 0.1158 0.4937
C25 C 0.60658(14) 0.12959(6) 0.42906(18)
H15 H 0.6184 0.1388 0.3343
C26 C 0.49766(14) 0.12971(5) 0.47101(17)
C27 C 0.40219(15) 0.14288(6) 0.37153(18)
H16 H 0.4138 0.1499 0.2746
C28 C 0.29716(15) 0.14541(6) 0.41347(18)
H17 H 0.2352 0.1529 0.3445
C29 C 0.27624(13) 0.13682(5) 0.56304(18)
C30 C 0.36648(13) 0.11363(5) 0.65590(16)
C31 C 0.47809(13) 0.11549(5) 0.61311(16)
C32 C 0.34895(13) 0.09467(5) 0.79047(16)
C33 C 0.44551(13) 0.08818(5) 0.89491(17)
C34 C 0.42676(14) 0.07827(5) 1.04268(17)
H18 H 0.4902 0.0762 1.1142
C35 C 0.32135(14) 0.07184(5) 1.08140(18)
H19 H 0.3113 0.0680 1.1808
C36 C 0.22413(14) 0.07076(5) 0.97497(18)
C37 C 0.11631(14) 0.05821(5) 1.01209(19)
H20 H 0.1060 0.0536 1.1111
C38 C 0.02599(14) 0.05251(6) 0.9079(2)
H21 H -0.0466 0.0448 0.9347
C39 C 0.04214(14) 0.05820(5) 0.7616(2)
H22 H -0.0187 0.0529 0.6885
C40 C 0.14605(13) 0.07144(5) 0.72342(18)
H23 H 0.1559 0.0748 0.6237
C41 C 0.23788(13) 0.08015(5) 0.82852(17)
H39 H 0.466(2) 0.1846(8) 1.054(3)
O3 O 0.32790(11) 0.20815(5) 1.0363(2)
C42 C 0.30647(18) 0.24482(8) 1.1204(4)
H24 H 0.3171 0.2710 1.0644
H25 H 0.3596 0.2456 1.2103
C43 C 0.18773(19) 0.24193(7) 1.1562(3)
H26 H 0.1526 0.2704 1.1590
H27 H 0.1839 0.2277 1.2508
C44 C 0.13083(17) 0.21588(7) 1.0350(3)
H28 H 0.1035 0.2340 0.9512
H29 H 0.0657 0.1999 1.0666
C45 C 0.22327(17) 0.18597(6) 0.9967(2)
H30 H 0.2211 0.1590 1.0515
H31 H 0.2142 0.1795 0.8917
C46 C 0.2302(2) 0.01003(8) 1.4227(3)
H32 H 0.1635 0.0053 1.4750
H33 H 0.2258 -0.0085 1.3373
H34 H 0.2321 0.0398 1.3919
C47 C 0.3378(2) -0.00016(7) 1.5220(2)
H35 H 0.3404 0.0182 1.6091
H36 H 0.3341 -0.0301 1.5544
C48 C 0.44604(19) 0.00611(6) 1.4515(2)
H37 H 0.4516 0.0363 1.4234
H38 H 0.4417 -0.0111 1.3618
C46B C 0.7698(2) -0.01003(8) 1.5773(3)
H32B H 0.8365 -0.0053 1.5250
H33B H 0.7742 0.0085 1.6627
H34B H 0.7679 -0.0398 1.6081
C47B C 0.6622(2) 0.00016(7) 1.4780(2)
H35B H 0.6596 -0.0182 1.3909
H36B H 0.6659 0.0301 1.4456
C48B C 0.55396(19) -0.00611(6) 1.5485(2)
H37B H 0.5484 -0.0363 1.5766
H38B H 0.5583 0.0111 1.6382
loop_
_geom_bond_atom_site_label_1
_geom_bond_atom_site_label_2
_geom_bond_site_symmetry_1
_geom_bond_site_symmetry_2
O1 C2 1_555 1_555
O2 C29 1_555 1_555
O3 C42 1_555 1_555
C1 C2 1_555 1_555
C2 C3 1_555 1_555
C3 H1 1_555 1_555
C4 C3 1_555 1_555
H2 C4 1_555 1_555
C5 C4 1_555 1_555
C6 C5 1_555 1_555
H3 C6 1_555 1_555
C7 C6 1_555 1_555
H4 C7 1_555 1_555
C8 C7 1_555 1_555
H5 C8 1_555 1_555
C9 C8 1_555 1_555
H6 C9 1_555 1_555
C10 C1 1_555 1_555
C11 C1 1_555 1_555
C12 C11 1_555 1_555
C13 C12 1_555 1_555
H7 C13 1_555 1_555
C14 C13 1_555 1_555
H8 C14 1_555 1_555
C15 C14 1_555 1_555
C16 C15 1_555 1_555
H9 C16 1_555 1_555
C17 C16 1_555 1_555
H10 C17 1_555 1_555
C18 C17 1_555 1_555
H11 C18 1_555 1_555
C19 C18 1_555 1_555
H12 C19 1_555 1_555
C20 C11 1_555 1_555
C21 C12 1_555 1_555
C22 C21 1_555 1_555
C23 C22 1_555 1_555
H13 C23 1_555 1_555
C24 C23 1_555 1_555
H14 C24 1_555 1_555
C25 C24 1_555 1_555
H15 C25 1_555 1_555
C26 C25 1_555 1_555
C27 C26 1_555 1_555
H16 C27 1_555 1_555
C28 C27 1_555 1_555
H17 C28 1_555 1_555
C29 C28 1_555 1_555
C30 C29 1_555 1_555
C31 C22 1_555 1_555
C32 C30 1_555 1_555
C33 C21 1_555 1_555
C34 C33 1_555 1_555
H18 C34 1_555 1_555
C35 C34 1_555 1_555
H19 C35 1_555 1_555
C36 C35 1_555 1_555
C37 C36 1_555 1_555
H20 C37 1_555 1_555
C38 C37 1_555 1_555
H21 C38 1_555 1_555
C39 C38 1_555 1_555
H22 C39 1_555 1_555
C40 C39 1_555 1_555
H23 C40 1_555 1_555
C41 C32 1_555 1_555
C42 H24 1_555 1_555
H25 C42 1_555 1_555
C43 C42 1_555 1_555
H26 C43 1_555 1_555
H27 C43 1_555 1_555
C44 C43 1_555 1_555
H28 C44 1_555 1_555
H29 C44 1_555 1_555
C45 O3 1_555 1_555
H30 C45 1_555 1_555
H31 C45 1_555 1_555
C46 H32 1_555 1_555
H33 C46 1_555 1_555
H34 C46 1_555 1_555
C47 C46 1_555 1_555
H35 C47 1_555 1_555
H36 C47 1_555 1_555
C48 C47 1_555 1_555
H37 C48 1_555 1_555
H38 C48 1_555 1_555
H39 O1 1_555 1_555
C46B H32B 1_555 1_555
H33B C46B 1_555 1_555
H34B C46B 1_555 1_555
C47B C46B 1_555 1_555
H35B C47B 1_555 1_555
H36B C47B 1_555 1_555
C48B C48 1_555 1_555
H37B C48B 1_555 1_555
H38B C48B 1_555 1_555
C5 C10 1_555 1_555
C9 C10 1_555 1_555
C15 C20 1_555 1_555
C19 C20 1_555 1_555
C26 C31 1_555 1_555
C30 C31 1_555 1_555
C32 C33 1_555 1_555
C36 C41 1_555 1_555
C40 C41 1_555 1_555
C44 C45 1_555 1_555
C47B C48B 1_555 1_555

#END
