
#######################################################################
#
#                 Cambridge Crystallographic Data Centre
#                                CCDC 
#
#######################################################################
#
# If this CIF has been generated from an entry in the Cambridge 
# Structural Database, then it will include bibliographic, chemical, 
# crystal, experimental, refinement or atomic coordinate data resulting 
# from the CCDC's data processing and validation procedures.
#
#######################################################################

data_ADOJOS
_chemical_formula_moiety         'C19 H27 N1 O1 Si1'
_chemical_name_systematic        
(2-(t-Butyldimethylsilyloxy)-6-phenyl)-1-cyclohexene-1-carbonitrile
_symmetry_cell_setting           triclinic
_symmetry_space_group_name_H-M   'P -1'
_symmetry_Int_Tables_number      2
_space_group_name_Hall           '-P 1'
loop_
_symmetry_equiv_pos_site_id
_symmetry_equiv_pos_as_xyz
1 x,y,z
2 -x,-y,-z
_cell_length_a                   12.069(3)
_cell_length_b                   12.499(3)
_cell_length_c                   7.577(2)
_cell_angle_alpha                106.54(2)
_cell_angle_beta                 93.57(2)
_cell_angle_gamma                116.21(2)
_cell_volume                     959.266
_exptl_crystal_colour            colorless
_exptl_crystal_description       rhomboid
_cell_formula_units_Z            2
_exptl_crystal_recrystallization_method hexane
loop_
_atom_site_label
_atom_site_type_symbol
_atom_site_fract_x
_atom_site_fract_y
_atom_site_fract_z
Si1 Si 0.69211(6) 0.23064(8) 0.3374(1)
O1 O 0.5646(2) 0.2186(2) 0.2198(2)
N1 N 0.5385(3) 0.3505(3) -0.1059(4)
C1 C 0.4330(2) 0.3010(2) 0.1643(3)
C2 C 0.4727(2) 0.2488(3) 0.2687(3)
C3 C 0.4192(3) 0.2182(3) 0.4270(4)
C4 C 0.3472(8) 0.298(1) 0.510(1)
C5 C 0.2827(4) 0.3088(5) 0.3736(5)
C6 C 0.3281(2) 0.3365(3) 0.2004(4)
C7 C 0.4914(3) 0.3275(3) 0.0145(4)
C8 C 0.2213(2) 0.2725(2) 0.0275(3)
C9 C 0.1829(3) 0.3446(3) -0.0417(4)
C10 C 0.0826(3) 0.2855(3) -0.1973(5)
C11 C 0.0212(3) 0.1577(4) -0.2820(4)
C12 C 0.0585(3) 0.0844(3) -0.2165(5)
C13 C 0.1591(3) 0.1431(3) -0.0641(4)
C14 C 0.7659(4) 0.3710(5) 0.5528(6)
C15 C 0.6451(4) 0.0872(5) 0.4017(9)
C16 C 0.7962(2) 0.2361(3) 0.1669(4)
C17 C 0.8414(4) 0.3590(4) 0.1257(7)
C18 C 0.9128(3) 0.2308(3) 0.2486(5)
C19 C 0.7250(4) 0.1241(5) -0.0169(5)
H1 H 0.4858 0.2373 0.5244
H2 H 0.3605 0.1298 0.3851
H3 H 0.4084 0.3807 0.5924
H4 H 0.2907 0.2556 0.5796
H5 H 0.2633 0.3739 0.4343
H6 H 0.2059 0.2293 0.3245
H7 H 0.3641 0.4256 0.2293
H8 H 0.2249 0.4345 0.0170
H9 H 0.0570 0.3357 -0.2447
H10 H -0.0478 0.1185 -0.3869
H11 H 0.0155 -0.0055 -0.2750
H12 H 0.1862 0.0924 -0.0211
H13 H 0.8488 0.3874 0.5996
H14 H 0.7167 0.3567 0.6447
H15 H 0.7708 0.4426 0.5251
H16 H 0.6053 0.0134 0.2904
H17 H 0.7180 0.0906 0.4640
H18 H 0.5877 0.0830 0.4828
H19 H 0.8764 0.4293 0.2412
H20 H 0.7720 0.3579 0.0572
H21 H 0.9042 0.3671 0.0532
H22 H 0.9583 0.3010 0.3628
H23 H 0.8863 0.1537 0.2732
H24 H 0.9658 0.2345 0.1605
H25 H 0.6616 0.1346 -0.0788
H26 H 0.6869 0.0476 0.0097
H27 H 0.7826 0.1210 -0.0955
C20? C 0.2878(7) 0.2077(7) 0.410(1)
H28? H 0.4729 0.2832 0.5421
H29? H 0.4129 0.1393 0.4256
H30? H 0.2626 0.2051 0.5258
H31? H 0.2312 0.1311 0.3109
H32? H 0.3315 0.3828 0.4802
H33? H 0.1961 0.2899 0.3574
loop_
_geom_bond_atom_site_label_1
_geom_bond_atom_site_label_2
_geom_bond_site_symmetry_1
_geom_bond_site_symmetry_2
Si1 O1 1_555 1_555
O1 C2 1_555 1_555
N1 C7 1_555 1_555
C1 C2 1_555 1_555
C2 C3 1_555 1_555
C3 C4 1_555 1_555
C4 C5 1_555 1_555
C5 C6 1_555 1_555
C6 C1 1_555 1_555
C7 C1 1_555 1_555
C8 C6 1_555 1_555
C9 C8 1_555 1_555
C10 C9 1_555 1_555
C11 C10 1_555 1_555
C12 C11 1_555 1_555
C13 C8 1_555 1_555
C14 Si1 1_555 1_555
C15 Si1 1_555 1_555
C16 Si1 1_555 1_555
C17 C16 1_555 1_555
C18 C16 1_555 1_555
C19 C16 1_555 1_555
H1 C3 1_555 1_555
H2 C3 1_555 1_555
H3 C4 1_555 1_555
H4 C4 1_555 1_555
H5 C5 1_555 1_555
H6 C5 1_555 1_555
H7 C6 1_555 1_555
H8 C9 1_555 1_555
H9 C10 1_555 1_555
H10 C11 1_555 1_555
H11 C12 1_555 1_555
H12 C13 1_555 1_555
H13 C14 1_555 1_555
H14 C14 1_555 1_555
H15 C14 1_555 1_555
H16 C15 1_555 1_555
H17 C15 1_555 1_555
H18 C15 1_555 1_555
H19 C17 1_555 1_555
H20 C17 1_555 1_555
H21 C17 1_555 1_555
H22 C18 1_555 1_555
H23 C18 1_555 1_555
H24 C18 1_555 1_555
H25 C19 1_555 1_555
H26 C19 1_555 1_555
H27 C19 1_555 1_555
C12 C13 1_555 1_555

#END
