
#######################################################################
#
#                 Cambridge Crystallographic Data Centre
#                                CCDC 
#
#######################################################################
#
# If this CIF has been generated from an entry in the Cambridge 
# Structural Database, then it will include bibliographic, chemical, 
# crystal, experimental, refinement or atomic coordinate data resulting 
# from the CCDC's data processing and validation procedures.
#
#######################################################################

data_ADOKIP
_chemical_formula_moiety         'C36 H32 N4 O3 S3'
_chemical_name_systematic        
'((5-(Dimethylamino)-1-naphthyl)sulfonyl)(4-((3-ethyl-1,3-benzothiazol-3-ium-2-yl)methylene)-2-((3-ethyl-1,3-benzothiazol-2(3H)-ylidene)methyl)-3-oxocyclobut-1-en-1-yl)amide unknown solvate'
_symmetry_cell_setting           triclinic
_symmetry_space_group_name_H-M   'P -1'
_symmetry_Int_Tables_number      2
_space_group_name_Hall           '-P 1'
loop_
_symmetry_equiv_pos_site_id
_symmetry_equiv_pos_as_xyz
1 x,y,z
2 -x,-y,-z
_cell_length_a                   9.237(2)
_cell_length_b                   14.840(3)
_cell_length_c                   15.433(4)
_cell_angle_alpha                66.612(4)
_cell_angle_beta                 74.734(4)
_cell_angle_gamma                81.644(4)
_cell_volume                     1871.19
_exptl_crystal_colour            blue
_exptl_crystal_description       plate
_cell_formula_units_Z            2
loop_
_atom_site_label
_atom_site_type_symbol
_atom_site_fract_x
_atom_site_fract_y
_atom_site_fract_z
S1 S 0.03757(11) 0.23007(7) 0.36163(7)
S2 S 0.21875(11) 0.41144(7) 0.46322(7)
S3 S -0.21083(11) 0.56471(8) 0.03501(7)
O1 O -0.0617(3) 0.6360(2) 0.1462(2)
O2 O -0.1205(3) 0.2185(2) 0.3750(2)
N1 N 0.1962(3) 0.5918(2) 0.4471(2)
O3 O 0.1360(3) 0.2089(2) 0.28100(19)
N2 N 0.0676(4) 0.3347(2) 0.3611(2)
N3 N -0.2048(4) 0.3861(3) 0.0500(3)
C1 C -0.0433(4) 0.4515(3) 0.2138(3)
C2 C 0.0274(4) 0.4179(3) 0.2964(3)
C3 C 0.2385(4) 0.1476(3) 0.4850(3)
C4 C 0.1584(4) 0.6978(3) 0.4154(3)
H1 H 0.1503 0.7191 0.4697
H2 H 0.0591 0.7108 0.3984
C5 C 0.0908(4) 0.1498(3) 0.4705(3)
C6 C 0.3193(4) 0.5820(3) 0.5777(3)
H3 H 0.3088 0.6506 0.5642
N4 N 0.4331(4) 0.0176(3) 0.6892(3)
C7 C 0.1601(4) 0.5338(3) 0.4066(3)
C8 C -0.1645(4) 0.4418(3) 0.0921(3)
C9 C 0.0882(4) 0.5702(3) 0.3297(3)
H4 H 0.0698 0.6394 0.3038
C10 C 0.2702(4) 0.5424(3) 0.5223(3)
C11 C 0.0397(4) 0.5171(3) 0.2860(3)
C12 C -0.0166(4) 0.0894(3) 0.5396(3)
H5 H -0.1137 0.0924 0.5282
C13 C 0.2662(5) 0.0832(3) 0.5772(3)
C14 C -0.2875(4) 0.5391(3) -0.0443(3)
C15 C -0.0293(4) 0.5536(3) 0.2025(3)
C16 C -0.0976(4) 0.4006(3) 0.1718(3)
H6 H -0.0887 0.3309 0.1998
C17 C 0.3573(5) 0.2029(3) 0.4120(3)
H7 H 0.3400 0.2464 0.3507
C18 C 0.2887(4) 0.4416(3) 0.5425(3)
C19 C -0.3320(5) 0.4015(3) -0.0786(3)
H8 H -0.3254 0.3329 -0.0650
C20 C 0.4003(5) 0.4184(3) 0.6722(3)
H9 H 0.4460 0.3767 0.7236
C21 C 0.5245(5) 0.1323(3) 0.5216(3)
H10 H 0.6223 0.1277 0.5325
C22 C 0.0163(5) 0.0222(3) 0.6283(3)
H11 H -0.0574 -0.0211 0.6755
C23 C 0.3519(4) 0.3785(3) 0.6181(3)
H12 H 0.3617 0.3098 0.6325
C24 C 0.4136(5) 0.0794(3) 0.5950(3)
C25 C 0.4975(5) 0.1928(3) 0.4310(3)
H13 H 0.5777 0.2278 0.3813
C26 C -0.4073(5) 0.5669(3) -0.1720(3)
H14 H -0.4532 0.6102 -0.2228
C27 C -0.3966(5) 0.4671(3) -0.1524(3)
H15 H -0.4344 0.4432 -0.1904
C28 C -0.1672(6) 0.2800(4) 0.0768(4)
H16 H -0.1494 0.2632 0.0188
H17 H -0.0735 0.2636 0.1008
C29 C -0.2766(4) 0.4397(3) -0.0247(3)
C30 C 0.3832(4) 0.5184(3) 0.6523(3)
H18 H 0.4164 0.5437 0.6911
C31 C 0.1537(5) 0.0202(3) 0.6453(3)
H19 H 0.1748 -0.0251 0.7050
C32 C 0.2731(5) 0.7576(3) 0.3291(3)
H20 H 0.3691 0.7507 0.3475
H21 H 0.2384 0.8270 0.3075
H22 H 0.2863 0.7341 0.2764
C33 C 0.3621(6) 0.0574(4) 0.7640(3)
H23 H 0.4224 0.1097 0.7579
H24 H 0.3554 0.0050 0.8282
H25 H 0.2610 0.0844 0.7559
C34 C -0.3521(5) 0.6047(3) -0.1188(3)
H26 H -0.3583 0.6734 -0.1328
C35 C 0.5885(6) -0.0190(4) 0.6959(4)
H27 H 0.6329 -0.0462 0.6458
H28 H 0.5881 -0.0705 0.7599
H29 H 0.6477 0.0352 0.6863
C36 C -0.2869(7) 0.2226(4) 0.1511(4)
H30 H -0.2978 0.2343 0.2108
H31 H -0.2628 0.1526 0.1637
H32 H -0.3812 0.2419 0.1292
loop_
_geom_bond_atom_site_label_1
_geom_bond_atom_site_label_2
_geom_bond_site_symmetry_1
_geom_bond_site_symmetry_2
S1 O2 1_555 1_555
S2 C7 1_555 1_555
S3 C8 1_555 1_555
O1 C15 1_555 1_555
N1 C4 1_555 1_555
O3 S1 1_555 1_555
N2 S1 1_555 1_555
N3 C8 1_555 1_555
C1 C2 1_555 1_555
C2 N2 1_555 1_555
C3 C5 1_555 1_555
C4 H1 1_555 1_555
H2 C4 1_555 1_555
C5 S1 1_555 1_555
C6 H3 1_555 1_555
N4 C24 1_555 1_555
C7 N1 1_555 1_555
C8 C16 1_555 1_555
C9 C7 1_555 1_555
H4 C9 1_555 1_555
C10 N1 1_555 1_555
C11 C2 1_555 1_555
C12 C5 1_555 1_555
H5 C12 1_555 1_555
C13 C3 1_555 1_555
C14 S3 1_555 1_555
C15 C1 1_555 1_555
C16 C1 1_555 1_555
H6 C16 1_555 1_555
C17 C3 1_555 1_555
H7 C17 1_555 1_555
C18 S2 1_555 1_555
C19 H8 1_555 1_555
C20 H9 1_555 1_555
C21 H10 1_555 1_555
C22 C12 1_555 1_555
H11 C22 1_555 1_555
C23 C18 1_555 1_555
H12 C23 1_555 1_555
C24 C13 1_555 1_555
C25 C17 1_555 1_555
H13 C25 1_555 1_555
C26 H14 1_555 1_555
C27 C19 1_555 1_555
H15 C27 1_555 1_555
C28 N3 1_555 1_555
H16 C28 1_555 1_555
H17 C28 1_555 1_555
C29 N3 1_555 1_555
C30 C6 1_555 1_555
H18 C30 1_555 1_555
C31 C13 1_555 1_555
H19 C31 1_555 1_555
C32 C4 1_555 1_555
H20 C32 1_555 1_555
H21 C32 1_555 1_555
H22 C32 1_555 1_555
C33 N4 1_555 1_555
H23 C33 1_555 1_555
H24 C33 1_555 1_555
H25 C33 1_555 1_555
C34 C14 1_555 1_555
H26 C34 1_555 1_555
C35 N4 1_555 1_555
H27 C35 1_555 1_555
H28 C35 1_555 1_555
H29 C35 1_555 1_555
C36 C28 1_555 1_555
H30 C36 1_555 1_555
H31 C36 1_555 1_555
H32 C36 1_555 1_555
C6 C10 1_555 1_555
C9 C11 1_555 1_555
C10 C18 1_555 1_555
C11 C15 1_555 1_555
C14 C29 1_555 1_555
C19 C29 1_555 1_555
C20 C23 1_555 1_555
C20 C30 1_555 1_555
C21 C24 1_555 1_555
C21 C25 1_555 1_555
C22 C31 1_555 1_555
C26 C27 1_555 1_555
C26 C34 1_555 1_555

#END
