
#######################################################################
#
#                 Cambridge Crystallographic Data Centre
#                                CCDC 
#
#######################################################################
#
# If this CIF has been generated from an entry in the Cambridge 
# Structural Database, then it will include bibliographic, chemical, 
# crystal, experimental, refinement or atomic coordinate data resulting 
# from the CCDC's data processing and validation procedures.
#
#######################################################################

data_ADOMAJ
_chemical_formula_moiety         'C52 H60 N2 O12 P4,2(C1 H2 Cl2)'
_chemical_name_systematic        
"Octaethyl (biphenyl-4,4'-diylbis(9H-carbazole-9,3,6-triyl))tetrakis(phosphonate) dichloromethane solvate"
_symmetry_cell_setting           monoclinic
_symmetry_space_group_name_H-M   'P 21/c'
_symmetry_Int_Tables_number      14
_space_group_name_Hall           '-P 2ybc'
loop_
_symmetry_equiv_pos_site_id
_symmetry_equiv_pos_as_xyz
1 x,y,z
2 -x,1/2+y,1/2-z
3 -x,-y,-z
4 x,1/2-y,1/2+z
_cell_length_a                   13.204(2)
_cell_length_b                   10.4398(15)
_cell_length_c                   21.992(3)
_cell_angle_alpha                90
_cell_angle_beta                 99.421(2)
_cell_angle_gamma                90
_cell_volume                     2990.65
_exptl_crystal_colour            colorless
_exptl_crystal_description       block
_cell_formula_units_Z            2
loop_
_atom_site_label
_atom_site_type_symbol
_atom_site_fract_x
_atom_site_fract_y
_atom_site_fract_z
N1 N 1.03983(19) 0.5485(2) 0.28015(10)
P1 P 0.81273(6) 0.42945(8) 0.03197(3)
P2 P 1.40262(7) 0.74867(9) 0.18488(4)
O1 O 0.88100(18) 0.3942(2) -0.01155(9)
O2 O 0.7394(2) 0.5447(3) 0.00869(11)
O3 O 0.73575(19) 0.3232(2) 0.04611(10)
O4 O 1.4844(2) 0.7868(3) 0.23516(11)
O5 O 1.3633(2) 0.8570(2) 0.13729(10)
O6 O 1.43180(19) 0.6494(3) 0.13706(11)
C1 C 0.9749(2) 0.5162(3) 0.22591(12)
C2 C 0.8767(2) 0.4653(3) 0.21820(13)
C3 C 0.8281(2) 0.4437(3) 0.15869(13)
C4 C 0.8766(2) 0.4679(3) 0.10758(12)
C5 C 0.9753(2) 0.5187(3) 0.11568(12)
C6 C 1.0245(2) 0.5455(3) 0.17526(12)
C7 C 1.1238(2) 0.5986(3) 0.20031(12)
C8 C 1.2067(2) 0.6439(3) 0.17480(13)
C9 C 1.2939(2) 0.6867(3) 0.21379(13)
C10 C 1.2986(3) 0.6825(3) 0.27841(13)
C11 C 1.2174(2) 0.6387(3) 0.30460(13)
C12 C 1.1303(2) 0.5978(3) 0.26538(12)
C13 C 1.0207(2) 0.5336(3) 0.34177(12)
C14 C 1.0288(3) 0.6396(3) 0.37980(14)
C15 C 1.0209(3) 0.6255(3) 0.44180(14)
C16 C 1.0022(2) 0.5069(3) 0.46643(12)
C17 C 0.9881(3) 0.4031(3) 0.42611(14)
C18 C 0.9988(3) 0.4156(3) 0.36441(13)
C19 C 0.7860(6) 0.6569(6) -0.0159(4)
H1 H 0.8576 0.6650 0.0057
H2 H 0.7886 0.6416 -0.0600
C20 C 0.7370(9) 0.7696(7) -0.0107(5)
H3 H 0.7743 0.8389 -0.0274
H4 H 0.7344 0.7865 0.0329
H5 H 0.6670 0.7647 -0.0337
C21 C 0.6821(4) 0.2439(5) -0.00100(19)
H6 H 0.6348 0.2978 -0.0298
H7 H 0.7322 0.2051 -0.0245
C22 C 0.6254(5) 0.1456(6) 0.0213(2)
H8 H 0.5903 0.0949 -0.0134
H9 H 0.5745 0.1831 0.0439
H10 H 0.6719 0.0901 0.0490
C23 C 1.3439(4) 0.9845(4) 0.1587(2)
H11 H 1.3398 0.9820 0.2033
H12 H 1.2776 1.0167 0.1363
C24 C 1.4276(5) 1.0702(5) 0.1480(3)
H13 H 1.4144 1.1568 0.1620
H14 H 1.4314 1.0721 0.1038
H15 H 1.4928 1.0388 0.1709
C25 C 1.4768(5) 0.5303(5) 0.1577(3)
H16 H 1.4251 0.4755 0.1728
H17 H 1.5339 0.5449 0.1922
C26 C 1.5158(4) 0.4656(5) 0.1067(3)
H18 H 1.5483 0.3844 0.1214
H19 H 1.5664 0.5205 0.0915
H20 H 1.4587 0.4486 0.0732
H21 H 0.843(2) 0.445(3) 0.2510(14)
H22 H 0.764(2) 0.408(3) 0.1526(13)
H23 H 1.012(2) 0.532(3) 0.0826(14)
H24 H 1.203(2) 0.644(3) 0.1322(14)
H25 H 1.360(2) 0.713(3) 0.3035(14)
H26 H 1.220(3) 0.640(4) 0.3490(18)
H27 H 1.042(3) 0.723(4) 0.3633(17)
H28 H 1.029(3) 0.698(4) 0.4656(18)
H29 H 0.973(3) 0.321(4) 0.4407(16)
H30 H 0.992(3) 0.343(4) 0.3373(17)
N1B N 0.96017(19) 0.4515(2) 0.71985(10)
P1B P 1.18727(6) 0.57055(8) 0.96803(3)
P2B P 0.59738(7) 0.25133(9) 0.81512(4)
O1B O 1.11900(18) 0.6058(2) 1.01155(9)
O2B O 1.2606(2) 0.4553(3) 0.99131(11)
O3B O 1.26425(19) 0.6768(2) 0.95389(10)
O4B O 0.5156(2) 0.2132(3) 0.76484(11)
O5B O 0.6367(2) 0.1430(2) 0.86271(10)
O6B O 0.56820(19) 0.3506(3) 0.86294(11)
C1B C 1.0251(2) 0.4838(3) 0.77409(12)
C2B C 1.1233(2) 0.5347(3) 0.78180(13)
C3B C 1.1719(2) 0.5563(3) 0.84131(13)
C4B C 1.1234(2) 0.5321(3) 0.89242(12)
C5B C 1.0247(2) 0.4813(3) 0.88432(12)
C6B C 0.9755(2) 0.4545(3) 0.82474(12)
C7B C 0.8762(2) 0.4014(3) 0.79969(12)
C8B C 0.7933(2) 0.3561(3) 0.82520(13)
C9B C 0.7061(2) 0.3133(3) 0.78621(13)
C10B C 0.7014(3) 0.3175(3) 0.72159(13)
C11B C 0.7826(2) 0.3613(3) 0.69540(13)
C12B C 0.8697(2) 0.4022(3) 0.73462(12)
C13B C 0.9793(2) 0.4664(3) 0.65823(12)
C14B C 0.9712(3) 0.3604(3) 0.62020(14)
C15B C 0.9791(3) 0.3745(3) 0.55820(14)
C16B C 0.9978(2) 0.4931(3) 0.53357(12)
C17B C 1.0119(3) 0.5969(3) 0.57389(14)
C18B C 1.0012(3) 0.5844(3) 0.63559(13)
C19B C 1.2140(6) 0.3431(6) 1.0159(4)
H1B H 1.1424 0.3350 0.9943
H2B H 1.2114 0.3584 1.0600
C20B C 1.2630(9) 0.2304(7) 1.0107(5)
H3B H 1.2257 0.1611 1.0274
H4B H 1.2656 0.2135 0.9671
H5B H 1.3330 0.2353 1.0337
C21B C 1.3179(4) 0.7561(5) 1.00100(19)
H6B H 1.3652 0.7022 1.0298
H7B H 1.2678 0.7949 1.0245
C22B C 1.3746(5) 0.8544(6) 0.9787(2)
H8B H 1.4097 0.9051 1.0134
H9B H 1.4255 0.8169 0.9561
H10B H 1.3281 0.9099 0.9510
C23B C 0.6561(4) 0.0155(4) 0.8413(2)
H11B H 0.6602 0.0180 0.7967
H12B H 0.7224 -0.0167 0.8637
C24B C 0.5724(5) -0.0702(5) 0.8520(3)
H13B H 0.5856 -0.1568 0.8380
H14B H 0.5686 -0.0721 0.8962
H15B H 0.5072 -0.0388 0.8291
C25B C 0.5232(5) 0.4697(5) 0.8423(3)
H16B H 0.5749 0.5245 0.8272
H17B H 0.4661 0.4551 0.8078
C26B C 0.4842(4) 0.5344(5) 0.8933(3)
H18B H 0.4517 0.6156 0.8786
H19B H 0.4336 0.4795 0.9085
H20B H 0.5413 0.5514 0.9268
H21B H 1.157(2) 0.555(3) 0.7490(14)
H22B H 1.236(2) 0.592(3) 0.8474(13)
H23B H 0.988(2) 0.468(3) 0.9174(14)
H24B H 0.797(2) 0.356(3) 0.8678(14)
H25B H 0.640(2) 0.287(3) 0.6965(14)
H26B H 0.780(3) 0.360(4) 0.6510(18)
H27B H 0.958(3) 0.277(4) 0.6367(17)
H28B H 0.971(3) 0.302(4) 0.5344(18)
H29B H 1.027(3) 0.679(4) 0.5593(16)
H30B H 1.008(3) 0.657(4) 0.6627(17)
C27 C 1.7178(3) 0.8225(5) 0.2388(2)
H31 H 1.7147 0.9165 0.2443
H32 H 1.6501 0.7864 0.2433
Cl1 Cl 1.81082(12) 0.75920(13) 0.29527(9)
Cl2 Cl 1.74339(18) 0.78891(19) 0.16501(10)
loop_
_geom_bond_atom_site_label_1
_geom_bond_atom_site_label_2
_geom_bond_site_symmetry_1
_geom_bond_site_symmetry_2
N1 C1 1_555 1_555
P1 O1 1_555 1_555
P2 O4 1_555 1_555
O2 P1 1_555 1_555
O3 P1 1_555 1_555
O5 P2 1_555 1_555
O6 P2 1_555 1_555
C1 C2 1_555 1_555
C2 C3 1_555 1_555
C3 C4 1_555 1_555
C4 P1 1_555 1_555
C5 C4 1_555 1_555
C6 C1 1_555 1_555
C7 C6 1_555 1_555
C8 C7 1_555 1_555
C9 P2 1_555 1_555
C10 C9 1_555 1_555
C11 C10 1_555 1_555
C12 N1 1_555 1_555
C13 N1 1_555 1_555
C14 C13 1_555 1_555
C15 C14 1_555 1_555
C16 C15 1_555 1_555
C17 C16 1_555 1_555
C18 C13 1_555 1_555
C19 O2 1_555 1_555
H1 C19 1_555 1_555
H2 C19 1_555 1_555
C20 C19 1_555 1_555
H3 C20 1_555 1_555
H4 C20 1_555 1_555
H5 C20 1_555 1_555
C21 O3 1_555 1_555
H6 C21 1_555 1_555
H7 C21 1_555 1_555
C22 C21 1_555 1_555
H8 C22 1_555 1_555
H9 C22 1_555 1_555
H10 C22 1_555 1_555
C23 O5 1_555 1_555
H11 C23 1_555 1_555
H12 C23 1_555 1_555
C24 C23 1_555 1_555
H13 C24 1_555 1_555
H14 C24 1_555 1_555
H15 C24 1_555 1_555
C25 O6 1_555 1_555
H16 C25 1_555 1_555
H17 C25 1_555 1_555
C26 C25 1_555 1_555
H18 C26 1_555 1_555
H19 C26 1_555 1_555
H20 C26 1_555 1_555
H21 C2 1_555 1_555
H22 C3 1_555 1_555
H23 C5 1_555 1_555
H24 C8 1_555 1_555
H25 C10 1_555 1_555
H26 C11 1_555 1_555
H27 C14 1_555 1_555
H28 C15 1_555 1_555
H29 C17 1_555 1_555
H30 C18 1_555 1_555
C27 H31 1_555 1_555
H32 C27 1_555 1_555
Cl1 C27 1_555 1_555
Cl2 C27 1_555 1_555
N1B C1B 1_555 1_555
P1B O1B 1_555 1_555
P2B O4B 1_555 1_555
O2B P1B 1_555 1_555
O3B P1B 1_555 1_555
O5B P2B 1_555 1_555
O6B P2B 1_555 1_555
C1B C2B 1_555 1_555
C2B C3B 1_555 1_555
C3B C4B 1_555 1_555
C4B P1B 1_555 1_555
C5B C4B 1_555 1_555
C6B C1B 1_555 1_555
C7B C6B 1_555 1_555
C8B C7B 1_555 1_555
C9B P2B 1_555 1_555
C10B C9B 1_555 1_555
C11B C10B 1_555 1_555
C12B N1B 1_555 1_555
C13B N1B 1_555 1_555
C14B C13B 1_555 1_555
C15B C14B 1_555 1_555
C16B C16 1_555 1_555
C17B C16B 1_555 1_555
C18B C13B 1_555 1_555
C19B O2B 1_555 1_555
H1B C19B 1_555 1_555
H2B C19B 1_555 1_555
C20B C19B 1_555 1_555
H3B C20B 1_555 1_555
H4B C20B 1_555 1_555
H5B C20B 1_555 1_555
C21B O3B 1_555 1_555
H6B C21B 1_555 1_555
H7B C21B 1_555 1_555
C22B C21B 1_555 1_555
H8B C22B 1_555 1_555
H9B C22B 1_555 1_555
H10B C22B 1_555 1_555
C23B O5B 1_555 1_555
H11B C23B 1_555 1_555
H12B C23B 1_555 1_555
C24B C23B 1_555 1_555
H13B C24B 1_555 1_555
H14B C24B 1_555 1_555
H15B C24B 1_555 1_555
C25B O6B 1_555 1_555
H16B C25B 1_555 1_555
H17B C25B 1_555 1_555
C26B C25B 1_555 1_555
H18B C26B 1_555 1_555
H19B C26B 1_555 1_555
H20B C26B 1_555 1_555
H21B C2B 1_555 1_555
H22B C3B 1_555 1_555
H23B C5B 1_555 1_555
H24B C8B 1_555 1_555
H25B C10B 1_555 1_555
H26B C11B 1_555 1_555
H27B C14B 1_555 1_555
H28B C15B 1_555 1_555
H29B C17B 1_555 1_555
H30B C18B 1_555 1_555
C5 C6 1_555 1_555
C7 C12 1_555 1_555
C8 C9 1_555 1_555
C11 C12 1_555 1_555
C17 C18 1_555 1_555
C5B C6B 1_555 1_555
C7B C12B 1_555 1_555
C8B C9B 1_555 1_555
C11B C12B 1_555 1_555
C15B C16B 1_555 1_555
C17B C18B 1_555 1_555

#END
