
#######################################################################
#
#                 Cambridge Crystallographic Data Centre
#                                CCDC 
#
#######################################################################
#
# If this CIF has been generated from an entry in the Cambridge 
# Structural Database, then it will include bibliographic, chemical, 
# crystal, experimental, refinement or atomic coordinate data resulting 
# from the CCDC's data processing and validation procedures.
#
#######################################################################

data_ADOPUG
_chemical_formula_moiety         'C50 H59 B1 F2 N4 O10'
_chemical_name_systematic        
"Ethyl ((2-(2-((4-(bis(2-ethoxy-2-oxoethyl)amino)-4'-(5,5-difluoro-1,3,7,9-tetramethyl-5H-dipyrrolo[1,2-c:2',1'-f][1,3,2]diazaborinin-10-yl)biphenyl-3-yl)oxy)ethoxy)-4-methylphenyl)(2-ethoxy-2-oxoethyl)amino)acetate"
_symmetry_cell_setting           monoclinic
_symmetry_space_group_name_H-M   'C 2/c'
_symmetry_Int_Tables_number      15
_space_group_name_Hall           '-C 2yn'
loop_
_symmetry_equiv_pos_site_id
_symmetry_equiv_pos_as_xyz
1 x,y,z
2 -x,y,1/2-z
3 1/2+x,1/2+y,z
4 1/2-x,1/2+y,1/2-z
5 -x,-y,-z
6 x,-y,1/2+z
7 1/2-x,1/2-y,-z
8 1/2+x,1/2-y,1/2+z
_cell_length_a                   31.941(6)
_cell_length_b                   13.922(3)
_cell_length_c                   23.065(5)
_cell_angle_alpha                90
_cell_angle_beta                 101.67(3)
_cell_angle_gamma                90
_cell_volume                     10044.6
_cell_formula_units_Z            8
loop_
_atom_site_label
_atom_site_type_symbol
_atom_site_fract_x
_atom_site_fract_y
_atom_site_fract_z
O1 O 0.00080(15) 0.2433(3) 0.0420(2)
O2 O 0.03695(15) 0.4294(3) 0.0527(2)
O3 O -0.03901(16) 0.4735(3) 0.13356(19)
O4 O -0.01675(15) 0.3319(3) 0.1753(2)
C1 C -0.0293(2) 0.1719(4) 0.0434(3)
N1 N 0.04701(19) 0.5362(3) 0.1535(2)
N2 N 0.03195(18) 0.0767(3) 0.0932(2)
O5 O 0.04762(19) -0.1715(4) 0.1312(2)
C2 C -0.0832(2) 0.0166(4) 0.0421(3)
H1 H -0.1011 -0.0364 0.0410
O6 O 0.10881(18) 0.2605(3) 0.1541(2)
C3 C -0.0407(2) 0.0082(4) 0.0681(3)
H2 H -0.0306 -0.0502 0.0849
C4 C 0.1301(2) 0.5748(4) 0.0330(3)
O7 O 0.10468(18) 0.5488(4) 0.2646(2)
C5 C -0.0112(2) 0.3175(4) -0.0010(3)
H3 H -0.0335 0.3574 0.0093
H4 H -0.0217 0.2901 -0.0399
C6 C -0.0998(2) 0.1027(4) 0.0173(3)
C7 C 0.0526(2) -0.0150(4) 0.0897(3)
H5 H 0.0825 -0.0028 0.0898
H6 H 0.0403 -0.0435 0.0517
C8 C 0.2116(3) 0.6216(5) -0.0928(3)
C9 C 0.1353(2) 0.6287(5) 0.0832(3)
H7 H 0.1570 0.6743 0.0908
C10 C 0.1587(2) 0.5890(4) -0.0109(3)
C11 C 0.0768(2) 0.5478(4) 0.1146(3)
C12 C -0.0105(2) 0.4206(5) 0.1568(3)
O8 O 0.0678(2) 0.6712(3) 0.2901(2)
C13 C -0.0715(2) 0.1811(4) 0.0196(3)
H8 H -0.0820 0.2403 0.0044
C14 C 0.0712(2) 0.4928(4) 0.0615(3)
C15 C -0.0121(2) 0.0855(4) 0.0700(3)
C16 C 0.0973(2) 0.5051(4) 0.0220(3)
H9 H 0.0936 0.4678 -0.0121
C17 C 0.2441(2) 0.7281(6) -0.1577(3)
C18 C 0.1079(2) 0.6159(4) 0.1235(3)
H10 H 0.1113 0.6548 0.1569
C19 C 0.2275(3) 0.6402(5) -0.0328(3)
H11 H 0.2552 0.6625 -0.0197
C20 C 0.2237(2) 0.8175(5) -0.1512(3)
C21 C 0.0283(3) 0.3752(5) -0.0007(3)
H12 H 0.0521 0.3331 -0.0027
H13 H 0.0240 0.4179 -0.0346
C22 C 0.0438(2) 0.6105(5) 0.1939(3)
H14 H 0.0151 0.6102 0.2016
H15 H 0.0479 0.6714 0.1754
C23 C 0.0363(2) 0.4409(4) 0.1709(3)
H16 H 0.0467 0.4334 0.2131
H17 H 0.0508 0.3939 0.1509
C24 C 0.2410(2) 0.6401(6) -0.1347(3)
C25 C 0.0504(2) -0.0884(5) 0.1368(3)
O9 O 0.10098(18) 0.1865(4) 0.0662(3)
C26 C -0.1453(2) 0.1117(5) -0.0141(3)
H18 H -0.1505 0.1760 -0.0289
H19 H -0.1637 0.0978 0.0129
H20 H -0.1508 0.0672 -0.0465
C27 C 0.2000(2) 0.6241(5) 0.0077(3)
H21 H 0.2099 0.6374 0.0477
C28 C 0.1894(2) 0.8344(5) -0.1173(3)
H22 H 0.1805 0.9003 -0.1214
H23 H 0.2001 0.8202 -0.0762
H24 H 0.1655 0.7935 -0.1323
C29 C 0.0534(2) 0.1483(5) 0.1333(3)
H25 H 0.0643 0.1184 0.1714
H26 H 0.0327 0.1967 0.1391
C30 C 0.1450(3) 0.5699(5) -0.0712(3)
H27 H 0.1177 0.5454 -0.0850
O10 O 0.0535(3) -0.0482(4) 0.1891(3)
N3 N 0.2735(2) 0.7500(8) -0.1956(3)
C31 C 0.1715(3) 0.5869(5) -0.1105(3)
H28 H 0.1614 0.5742 -0.1505
C32 C 0.0752(3) 0.6046(6) 0.2525(3)
C33 C 0.0901(3) 0.1975(5) 0.1123(4)
C34 C -0.0623(2) 0.3018(5) 0.1685(3)
H29 H -0.0760 0.2989 0.1270
H30 H -0.0778 0.3468 0.1884
C35 C -0.0612(3) 0.2043(6) 0.1964(4)
H31 H -0.0899 0.1814 0.1936
H32 H -0.0472 0.2084 0.2373
H33 H -0.0458 0.1608 0.1761
N4 N 0.2961(3) 0.5905(13) -0.1914(6)
C36 C 0.1445(3) 0.3140(6) 0.1436(5)
H34 H 0.1355 0.3646 0.1150
H35 H 0.1648 0.2727 0.1295
C37 C 0.2419(3) 0.8849(7) -0.1832(3)
H36 H 0.2347 0.9496 -0.1861
C38 C 0.0544(8) -0.1183(6) 0.2342(5)
H37 H 0.0800 -0.1574 0.2393
H38 H 0.0295 -0.1598 0.2255
C39 C 0.3075(3) 0.4510(7) -0.1694(4)
H39 H 0.3185 0.3892 -0.1698
C40 C 0.2711(3) 0.8447(12) -0.2093(4)
C41 C 0.3203(5) 0.5171(14) -0.2003(6)
C42 C 0.0933(5) 0.6741(6) 0.3483(5)
H40 H 0.1221 0.6935 0.3461
H41 H 0.0948 0.6102 0.3653
C43 C 0.2774(6) 0.4709(13) -0.1352(5)
C44 C 0.2684(5) 0.5676(7) -0.1535(5)
C45 C 0.2978(3) 0.8856(12) -0.2497(5)
H42 H 0.3155 0.8360 -0.2608
H43 H 0.3155 0.9361 -0.2296
H44 H 0.2795 0.9109 -0.2845
C46 C 0.0540(13) -0.0562(8) 0.2897(7)
H45 H 0.0470 -0.0957 0.3205
H46 H 0.0331 -0.0061 0.2799
H47 H 0.0817 -0.0282 0.3031
F1 F 0.28698(19) 0.6605(6) -0.2787(3)
F2 F 0.34336(17) 0.6991(8) -0.2067(4)
C47 C 0.1645(4) 0.3571(10) 0.2068(6)
H48 H 0.1891 0.3953 0.2040
H49 H 0.1730 0.3057 0.2344
H50 H 0.1437 0.3966 0.2201
B1 B 0.2982(6) 0.6879(14) -0.2225(8)
C48 C 0.0759(7) 0.7420(10) 0.3877(5)
H51 H 0.0943 0.7422 0.4263
H52 H 0.0478 0.7220 0.3910
H53 H 0.0747 0.8055 0.3713
C49 C 0.3527(5) 0.498(2) -0.2349(9)
H54 H 0.3579 0.5556 -0.2554
H55 H 0.3429 0.4483 -0.2632
H56 H 0.3787 0.4782 -0.2091
C50 C 0.2536(6) 0.4327(10) -0.0972(8)
H57 H 0.2623 0.3676 -0.0879
H58 H 0.2238 0.4341 -0.1158
H59 H 0.2580 0.4700 -0.0614
loop_
_geom_bond_atom_site_label_1
_geom_bond_atom_site_label_2
_geom_bond_site_symmetry_1
_geom_bond_site_symmetry_2
O1 C1 1_555 1_555
O2 C14 1_555 1_555
O3 C12 1_555 1_555
O4 C12 1_555 1_555
C1 C13 1_555 1_555
N1 C11 1_555 1_555
N2 C7 1_555 1_555
O5 C25 1_555 1_555
C2 H1 1_555 1_555
O6 C33 1_555 1_555
C3 C2 1_555 1_555
H2 C3 1_555 1_555
C4 C9 1_555 1_555
O7 C32 1_555 1_555
C5 O1 1_555 1_555
H3 C5 1_555 1_555
H4 C5 1_555 1_555
C6 C2 1_555 1_555
C7 H5 1_555 1_555
H6 C7 1_555 1_555
C8 C19 1_555 1_555
C9 H7 1_555 1_555
C10 C4 1_555 1_555
C11 C14 1_555 1_555
C12 C23 1_555 1_555
O8 C32 1_555 1_555
C13 C6 1_555 1_555
H8 C13 1_555 1_555
C14 C16 1_555 1_555
C15 C1 1_555 1_555
C16 C4 1_555 1_555
H9 C16 1_555 1_555
C17 C20 1_555 1_555
C18 C9 1_555 1_555
H10 C18 1_555 1_555
C19 H11 1_555 1_555
C20 C28 1_555 1_555
C21 O2 1_555 1_555
H12 C21 1_555 1_555
H13 C21 1_555 1_555
C22 N1 1_555 1_555
H14 C22 1_555 1_555
H15 C22 1_555 1_555
C23 N1 1_555 1_555
H16 C23 1_555 1_555
H17 C23 1_555 1_555
C24 C8 1_555 1_555
C25 C7 1_555 1_555
O9 C33 1_555 1_555
C26 C6 1_555 1_555
H18 C26 1_555 1_555
H19 C26 1_555 1_555
H20 C26 1_555 1_555
C27 C10 1_555 1_555
H21 C27 1_555 1_555
C28 H22 1_555 1_555
H23 C28 1_555 1_555
H24 C28 1_555 1_555
C29 N2 1_555 1_555
H25 C29 1_555 1_555
H26 C29 1_555 1_555
C30 C10 1_555 1_555
H27 C30 1_555 1_555
O10 C25 1_555 1_555
N3 C17 1_555 1_555
C31 C8 1_555 1_555
H28 C31 1_555 1_555
C32 C22 1_555 1_555
C33 C29 1_555 1_555
C34 O4 1_555 1_555
H29 C34 1_555 1_555
H30 C34 1_555 1_555
C35 C34 1_555 1_555
H31 C35 1_555 1_555
H32 C35 1_555 1_555
H33 C35 1_555 1_555
N4 C41 1_555 1_555
C36 O6 1_555 1_555
H34 C36 1_555 1_555
H35 C36 1_555 1_555
C37 C20 1_555 1_555
H36 C37 1_555 1_555
C38 O10 1_555 1_555
H37 C38 1_555 1_555
H38 C38 1_555 1_555
C39 H39 1_555 1_555
C40 N3 1_555 1_555
C41 C39 1_555 1_555
C42 O8 1_555 1_555
H40 C42 1_555 1_555
H41 C42 1_555 1_555
C43 C39 1_555 1_555
C44 C24 1_555 1_555
C45 C40 1_555 1_555
H42 C45 1_555 1_555
H43 C45 1_555 1_555
H44 C45 1_555 1_555
C46 C38 1_555 1_555
H45 C46 1_555 1_555
H46 C46 1_555 1_555
H47 C46 1_555 1_555
F1 B1 1_555 1_555
F2 B1 1_555 1_555
C47 C36 1_555 1_555
H48 C47 1_555 1_555
H49 C47 1_555 1_555
H50 C47 1_555 1_555
B1 N3 1_555 1_555
C48 C42 1_555 1_555
H51 C48 1_555 1_555
H52 C48 1_555 1_555
H53 C48 1_555 1_555
C49 C41 1_555 1_555
H54 C49 1_555 1_555
H55 C49 1_555 1_555
H56 C49 1_555 1_555
C50 C43 1_555 1_555
H57 C50 1_555 1_555
H58 C50 1_555 1_555
H59 C50 1_555 1_555
N2 C15 1_555 1_555
C3 C15 1_555 1_555
C5 C21 1_555 1_555
C11 C18 1_555 1_555
C17 C24 1_555 1_555
C19 C27 1_555 1_555
C30 C31 1_555 1_555
N4 C44 1_555 1_555
N4 B1 1_555 1_555
C37 C40 1_555 1_555
C43 C44 1_555 1_555

#END
