
#######################################################################
#
#                 Cambridge Crystallographic Data Centre
#                                CCDC 
#
#######################################################################
#
# If this CIF has been generated from an entry in the Cambridge 
# Structural Database, then it will include bibliographic, chemical, 
# crystal, experimental, refinement or atomic coordinate data resulting 
# from the CCDC's data processing and validation procedures.
#
#######################################################################

data_ADOQAL
_chemical_formula_moiety         'C54 H34 Si2'
_chemical_name_systematic        
1,4-bis(2-(Diphenyl(2-(4-ethynylphenyl)ethynyl)silyl)ethynyl)benzene
_symmetry_cell_setting           triclinic
_symmetry_space_group_name_H-M   'P -1'
_symmetry_Int_Tables_number      2
_space_group_name_Hall           '-P 1'
loop_
_symmetry_equiv_pos_site_id
_symmetry_equiv_pos_as_xyz
1 x,y,z
2 -x,-y,-z
_cell_length_a                   8.0001(7)
_cell_length_b                   9.4959(9)
_cell_length_c                   14.7690(13)
_cell_angle_alpha                80.960(2)
_cell_angle_beta                 74.773(2)
_cell_angle_gamma                82.454(2)
_cell_volume                     1064.35
_exptl_crystal_colour            colorless
_exptl_crystal_description       block
_chemical_melting_point          180-182deg.C
_cell_formula_units_Z            1
loop_
_atom_site_label
_atom_site_type_symbol
_atom_site_fract_x
_atom_site_fract_y
_atom_site_fract_z
C1 C 0.0426(5) 1.2164(4) 0.4939(2)
C2 C 0.1734(4) 1.1650(3) 0.45056(18)
C3 C 0.3353(3) 1.0974(2) 0.40113(15)
C4 C 0.3381(3) 0.9877(3) 0.34875(17)
H1 H 0.2343 0.9614 0.3422
C5 C 0.4937(3) 0.9178(2) 0.30650(15)
H2 H 0.4946 0.8447 0.2711
C6 C 0.6493(3) 0.9551(2) 0.31599(13)
C7 C 0.6469(3) 1.0670(2) 0.36720(16)
H3 H 0.7508 1.0939 0.3730
C8 C 0.4912(4) 1.1379(3) 0.40917(17)
H4 H 0.4902 1.2129 0.4430
C9 C 0.8082(3) 0.8745(2) 0.27639(13)
C10 C 0.9384(3) 0.8003(2) 0.24504(13)
C11 C 1.2360(2) 0.6175(2) 0.29899(13)
C12 C 1.3141(2) 0.5792(2) 0.35877(13)
C13 C 1.0318(2) 0.5075(2) 0.18866(12)
C14 C 0.9145(4) 0.5162(3) 0.13360(18)
H5 H 0.8764 0.6053 0.1059
C15 C 0.8525(4) 0.3934(4) 0.1190(2)
H6 H 0.7724 0.4015 0.0825
C16 C 0.9082(4) 0.2617(3) 0.1578(2)
H7 H 0.8675 0.1798 0.1472
C17 C 1.0213(4) 0.2513(3) 0.2109(2)
H8 H 1.0598 0.1615 0.2373
C18 C 1.0826(3) 0.3719(3) 0.22751(17)
H9 H 1.1601 0.3614 0.2658
C19 C 1.2703(2) 0.7474(2) 0.09717(12)
C20 C 1.2247(3) 0.8731(2) 0.04298(15)
H10 H 1.1179 0.9249 0.0634
C21 C 1.3387(4) 0.9214(3) -0.04180(18)
H11 H 1.3071 1.0049 -0.0781
C22 C 1.4968(4) 0.8467(4) -0.07196(19)
H12 H 1.5725 0.8796 -0.1286
C23 C 1.5432(4) 0.7254(4) -0.0199(2)
H13 H 1.6507 0.6749 -0.0409
C24 C 1.4323(3) 0.6756(3) 0.06437(17)
H14 H 1.4669 0.5923 0.0998
C25 C 1.4088(2) 0.53799(19) 0.43050(12)
C26 C 1.3208(3) 0.5010(2) 0.52458(13)
H15 H 1.2003 0.5016 0.5410
C27 C 1.5877(3) 0.5362(2) 0.40698(13)
H16 H 1.6469 0.5604 0.3443
H17 H -0.066(7) 1.244(6) 0.544(3)
Si1 Si 1.11938(6) 0.66972(5) 0.20643(3)
C27A C 1.4123(3) 0.4638(2) 0.59302(13)
C25A C 1.5912(2) 0.46201(19) 0.56950(12)
C12A C 1.6859(2) 0.4208(2) 0.64123(13)
C11A C 1.7640(2) 0.3825(2) 0.70101(13)
Si1A Si 1.88062(6) 0.33028(5) 0.79357(3)
C10A C 2.0616(3) 0.1997(2) 0.75496(13)
C9A C 2.1918(3) 0.1255(2) 0.72361(13)
C6A C 2.3507(3) 0.0449(2) 0.68401(13)
C5A C 2.5063(3) 0.0822(2) 0.69350(15)
C4A C 2.6619(3) 0.0123(3) 0.65125(17)
C3A C 2.6647(3) -0.0974(2) 0.59887(15)
C2A C 2.8266(4) -0.1650(3) 0.54944(18)
C1A C 2.9574(5) -0.2164(4) 0.5061(2)
H17A H 3.066(7) -0.244(6) 0.456(3)
C8A C 2.5088(4) -0.1379(3) 0.59083(17)
C7A C 2.3531(3) -0.0670(2) 0.63280(16)
H3A H 2.2492 -0.0939 0.6270
H4A H 2.5098 -0.2129 0.5570
H1A H 2.7657 0.0386 0.6578
H2A H 2.5054 0.1553 0.7289
C13A C 1.9682(2) 0.4925(2) 0.81134(12)
C14A C 2.0855(4) 0.4838(3) 0.86640(18)
H5A H 2.1236 0.3947 0.8941
C15A C 2.1475(4) 0.6066(4) 0.8810(2)
H6A H 2.2276 0.5985 0.9175
C16A C 2.0918(4) 0.7383(3) 0.8422(2)
H7A H 2.1325 0.8202 0.8528
C17A C 1.9787(4) 0.7487(3) 0.7891(2)
H8A H 1.9402 0.8385 0.7627
C18A C 1.9174(3) 0.6281(3) 0.77249(17)
H9A H 1.8399 0.6386 0.7342
C19A C 1.7297(2) 0.2526(2) 0.90283(12)
C20A C 1.7753(3) 0.1269(2) 0.95702(15)
H10A H 1.8821 0.0751 0.9366
C21A C 1.6613(4) 0.0786(3) 1.04180(18)
H11A H 1.6929 -0.0049 1.0781
C22A C 1.5032(4) 0.1533(4) 1.07196(19)
H12A H 1.4275 0.1204 1.1286
C23A C 1.4568(4) 0.2746(4) 1.0199(2)
H13A H 1.3493 0.3251 1.0409
C24A C 1.5677(3) 0.3244(3) 0.93563(17)
H14A H 1.5331 0.4077 0.9002
C26A C 1.6792(3) 0.4990(2) 0.47542(13)
H15A H 1.7997 0.4984 0.4590
H16A H 1.3531 0.4396 0.6557
loop_
_geom_bond_atom_site_label_1
_geom_bond_atom_site_label_2
_geom_bond_site_symmetry_1
_geom_bond_site_symmetry_2
C1 C2 1_555 1_555
C2 C3 1_555 1_555
C3 C4 1_555 1_555
C4 H1 1_555 1_555
C5 C4 1_555 1_555
H2 C5 1_555 1_555
C6 C5 1_555 1_555
C7 C6 1_555 1_555
H3 C7 1_555 1_555
C8 C3 1_555 1_555
H4 C8 1_555 1_555
C9 C6 1_555 1_555
C10 C9 1_555 1_555
C11 C12 1_555 1_555
C12 C25 1_555 1_555
C13 C14 1_555 1_555
C14 H5 1_555 1_555
C15 C14 1_555 1_555
H6 C15 1_555 1_555
C16 C15 1_555 1_555
H7 C16 1_555 1_555
C17 C16 1_555 1_555
H8 C17 1_555 1_555
C18 C13 1_555 1_555
H9 C18 1_555 1_555
C19 C20 1_555 1_555
C20 H10 1_555 1_555
C21 C20 1_555 1_555
H11 C21 1_555 1_555
C22 C21 1_555 1_555
H12 C22 1_555 1_555
C23 C22 1_555 1_555
H13 C23 1_555 1_555
C24 C19 1_555 1_555
H14 C24 1_555 1_555
C25 C26 1_555 1_555
C26 H15 1_555 1_555
C27 C25 1_555 1_555
H16 C27 1_555 1_555
H17 C1 1_555 1_555
Si1 C10 1_555 1_555
C27A C26 1_555 1_555
C25A C27A 1_555 1_555
C12A C25A 1_555 1_555
C11A C12A 1_555 1_555
Si1A C11A 1_555 1_555
C10A Si1A 1_555 1_555
C9A C10A 1_555 1_555
C6A C9A 1_555 1_555
C5A C6A 1_555 1_555
C4A C5A 1_555 1_555
C3A C4A 1_555 1_555
C2A C3A 1_555 1_555
C1A C2A 1_555 1_555
H17A C1A 1_555 1_555
C8A C3A 1_555 1_555
C7A C6A 1_555 1_555
H3A C7A 1_555 1_555
H4A C8A 1_555 1_555
H1A C4A 1_555 1_555
H2A C5A 1_555 1_555
C13A Si1A 1_555 1_555
C14A C13A 1_555 1_555
H5A C14A 1_555 1_555
C15A C14A 1_555 1_555
H6A C15A 1_555 1_555
C16A C15A 1_555 1_555
H7A C16A 1_555 1_555
C17A C16A 1_555 1_555
H8A C17A 1_555 1_555
C18A C13A 1_555 1_555
H9A C18A 1_555 1_555
C19A Si1A 1_555 1_555
C20A C19A 1_555 1_555
H10A C20A 1_555 1_555
C21A C20A 1_555 1_555
H11A C21A 1_555 1_555
C22A C21A 1_555 1_555
H12A C22A 1_555 1_555
C23A C22A 1_555 1_555
H13A C23A 1_555 1_555
C24A C19A 1_555 1_555
H14A C24A 1_555 1_555
C26A C27 1_555 1_555
H15A C26A 1_555 1_555
H16A C27A 1_555 1_555
C7 C8 1_555 1_555
C11 Si1 1_555 1_555
C13 Si1 1_555 1_555
C17 C18 1_555 1_555
C19 Si1 1_555 1_555
C23 C24 1_555 1_555
C25A C26A 1_555 1_555
C8A C7A 1_555 1_555
C17A C18A 1_555 1_555
C23A C24A 1_555 1_555

#END
