
#######################################################################
#
#                 Cambridge Crystallographic Data Centre
#                                CCDC 
#
#######################################################################
#
# If this CIF has been generated from an entry in the Cambridge 
# Structural Database, then it will include bibliographic, chemical, 
# crystal, experimental, refinement or atomic coordinate data resulting 
# from the CCDC's data processing and validation procedures.
#
#######################################################################

data_ADUBUZ
_chemical_formula_moiety         'C22 H30 O4,C1 H2 Cl2'
_chemical_name_systematic        
"5',5',9'-trimethyl-14'-methylene-3'H,8'H-spiro[1,3-dioxolane-2,12'-tetracyclo[11.2.1.0^1,10^.0^4,9^]hexadecane]-3',8'-dione dichloromethane solvate"
_symmetry_cell_setting           orthorhombic
_symmetry_space_group_name_H-M   'P 21 21 21'
_symmetry_Int_Tables_number      19
_space_group_name_Hall           'P 2ac 2ab'
loop_
_symmetry_equiv_pos_site_id
_symmetry_equiv_pos_as_xyz
1 x,y,z
2 1/2-x,-y,1/2+z
3 -x,1/2+y,1/2-z
4 1/2+x,1/2-y,-z
_cell_length_a                   7.4292(18)
_cell_length_b                   12.851(3)
_cell_length_c                   23.312(6)
_cell_angle_alpha                90
_cell_angle_beta                 90
_cell_angle_gamma                90
_cell_volume                     2225.66
_exptl_crystal_colour            colorless
_exptl_crystal_description       prismatic
_cell_formula_units_Z            4
loop_
_atom_site_label
_atom_site_type_symbol
_atom_site_fract_x
_atom_site_fract_y
_atom_site_fract_z
Cl1 Cl 1.0229(5) 0.30664(16) 0.12668(11)
Cl2 Cl 0.9760(4) 0.28633(18) 0.00408(11)
C1 C 0.9609(17) 0.2284(6) 0.0698(4)
H1 H 0.8377 0.2057 0.0756
H2 H 1.0365 0.1669 0.0699
O1 O 0.3876(6) 0.7460(3) 0.96490(17)
O2 O -0.2213(6) 0.8589(4) 0.8288(2)
O3 O 0.4053(5) 0.5930(3) 0.78503(15)
O4 O 0.4239(5) 0.4430(3) 0.83376(15)
C2 C 0.3083(7) 0.8091(4) 0.9356(2)
C3 C 0.3324(8) 0.9232(4) 0.9461(3)
H3 H 0.3775 0.9566 0.9116
H4 H 0.4191 0.9340 0.9766
C4 C 0.1523(8) 0.9701(5) 0.9628(2)
H5 H 0.1683 1.0439 0.9699
H6 H 0.1116 0.9382 0.9982
C5 C 0.0068(8) 0.9558(4) 0.9168(2)
C6 C -0.0037(7) 0.8377(3) 0.9048(2)
H7 H -0.0405 0.8077 0.9416
C7 C -0.1482(7) 0.8030(4) 0.8637(2)
C8 C -0.1961(7) 0.6907(4) 0.8693(2)
H8 H -0.2871 0.6736 0.8410
H9 H -0.2476 0.6788 0.9070
C9 C -0.0343(6) 0.6186(4) 0.8612(2)
C10 C 0.1331(7) 0.6587(4) 0.8940(2)
H10 H 0.1037 0.6481 0.9345
C11 C 0.1731(6) 0.7769(4) 0.88910(19)
C12 C 0.2954(7) 0.5862(4) 0.8829(2)
H11 H 0.4040 0.6269 0.8885
H12 H 0.2944 0.5329 0.9124
C13 C 0.3115(7) 0.5313(4) 0.8250(2)
C14 C 0.1258(7) 0.5009(4) 0.8008(2)
H13 H 0.1363 0.4671 0.7633
C15 C 0.0229(8) 0.4343(4) 0.8427(2)
C16 C -0.0823(8) 0.5065(4) 0.8808(2)
H14 H -0.0491 0.4962 0.9207
H15 H -0.2104 0.4940 0.8768
C17 C 0.0136(7) 0.5984(4) 0.7976(2)
H16 H -0.0938 0.5875 0.7747
H17 H 0.0819 0.6558 0.7815
C18 C 0.0170(11) 0.3330(5) 0.8433(3)
H18 H -0.0578 0.2987 0.8691
H19 H 0.0876 0.2950 0.8179
C19 C 0.4906(9) 0.5208(5) 0.7466(3)
H20 H 0.6080 0.5463 0.7350
H21 H 0.4175 0.5101 0.7127
C20 C 0.5086(9) 0.4215(5) 0.7801(2)
H22 H 0.4486 0.3646 0.7605
H23 H 0.6343 0.4035 0.7855
C21 C 0.2524(7) 0.8089(4) 0.8308(2)
H24 H 0.3049 0.8770 0.8338
H25 H 0.1586 0.8100 0.8025
H26 H 0.3433 0.7598 0.8196
C22 C 0.0455(9) 1.0272(4) 0.8655(3)
H27 H -0.0392 1.0130 0.8354
H28 H 0.1654 1.0147 0.8518
H29 H 0.0344 1.0985 0.8772
C23 C -0.1727(9) 0.9905(5) 0.9432(3)
H30 H -0.2634 0.9926 0.9139
H31 H -0.1590 1.0585 0.9597
H32 H -0.2079 0.9421 0.9725
loop_
_geom_bond_atom_site_label_1
_geom_bond_atom_site_label_2
_geom_bond_site_symmetry_1
_geom_bond_site_symmetry_2
Cl1 C1 1_555 1_555
Cl2 C1 1_555 1_555
C1 H1 1_555 1_555
H2 C1 1_555 1_555
O1 C2 1_555 1_555
O2 C7 1_555 1_555
O3 C13 1_555 1_555
O4 C13 1_555 1_555
C2 C3 1_555 1_555
C3 H3 1_555 1_555
H4 C3 1_555 1_555
C4 C3 1_555 1_555
H5 C4 1_555 1_555
H6 C4 1_555 1_555
C5 C4 1_555 1_555
C6 C5 1_555 1_555
H7 C6 1_555 1_555
C7 C6 1_555 1_555
C8 C7 1_555 1_555
H8 C8 1_555 1_555
H9 C8 1_555 1_555
C9 C8 1_555 1_555
C10 C9 1_555 1_555
H10 C10 1_555 1_555
C11 C2 1_555 1_555
C12 C10 1_555 1_555
H11 C12 1_555 1_555
H12 C12 1_555 1_555
C13 C12 1_555 1_555
C14 C13 1_555 1_555
H13 C14 1_555 1_555
C15 C14 1_555 1_555
C16 C9 1_555 1_555
H14 C16 1_555 1_555
H15 C16 1_555 1_555
C17 C9 1_555 1_555
H16 C17 1_555 1_555
H17 C17 1_555 1_555
C18 C15 1_555 1_555
H18 C18 1_555 1_555
H19 C18 1_555 1_555
C19 O3 1_555 1_555
H20 C19 1_555 1_555
H21 C19 1_555 1_555
C20 O4 1_555 1_555
H22 C20 1_555 1_555
H23 C20 1_555 1_555
C21 C11 1_555 1_555
H24 C21 1_555 1_555
H25 C21 1_555 1_555
H26 C21 1_555 1_555
C22 C5 1_555 1_555
H27 C22 1_555 1_555
H28 C22 1_555 1_555
H29 C22 1_555 1_555
C23 C5 1_555 1_555
H30 C23 1_555 1_555
H31 C23 1_555 1_555
H32 C23 1_555 1_555
C6 C11 1_555 1_555
C10 C11 1_555 1_555
C14 C17 1_555 1_555
C15 C16 1_555 1_555
C19 C20 1_555 1_555

#END
