
#######################################################################
#
#                 Cambridge Crystallographic Data Centre
#                                CCDC 
#
#######################################################################
#
# If this CIF has been generated from an entry in the Cambridge 
# Structural Database, then it will include bibliographic, chemical, 
# crystal, experimental, refinement or atomic coordinate data resulting 
# from the CCDC's data processing and validation procedures.
#
#######################################################################

data_ADUCEK
_chemical_formula_moiety         'C25 H22 N2'
_chemical_name_systematic        
N,N-dimethyl-2'-(2-(quinolin-2-yl)vinyl)biphenyl-4-amine
_symmetry_cell_setting           triclinic
_symmetry_space_group_name_H-M   'P -1'
_symmetry_Int_Tables_number      2
_space_group_name_Hall           '-P 1'
loop_
_symmetry_equiv_pos_site_id
_symmetry_equiv_pos_as_xyz
1 x,y,z
2 -x,-y,-z
_cell_length_a                   8.1532(5)
_cell_length_b                   10.2921(7)
_cell_length_c                   12.9838(11)
_cell_angle_alpha                66.763(7)
_cell_angle_beta                 88.564(6)
_cell_angle_gamma                73.285(6)
_cell_volume                     953.984
_cell_formula_units_Z            2
loop_
_atom_site_label
_atom_site_type_symbol
_atom_site_fract_x
_atom_site_fract_y
_atom_site_fract_z
N1 N 0.08426(15) 0.28295(13) 0.10410(10)
C1 C 0.54951(16) 0.35383(14) -0.25686(12)
C2 C 0.43824(17) 0.31879(15) -0.32479(11)
C3 C 0.22905(18) 0.25626(15) -0.46011(11)
N2 N 0.12565(17) 0.22661(16) -0.52612(11)
C4 C 0.20022(18) 0.20365(15) 0.06184(11)
C5 C 0.53480(16) 0.32262(14) -0.14175(12)
C6 C 0.25970(18) 0.36104(16) -0.32714(12)
H1 H 0.2078 0.4107 -0.2829
C7 C 0.41124(17) 0.24740(15) -0.08047(11)
H2 H 0.3891 0.1770 -0.1014
C8 C -0.04682(18) 0.22930(16) 0.15228(11)
C9 C -0.05960(19) 0.09065(16) 0.16202(12)
C10 C 0.32903(18) 0.27295(16) 0.00274(12)
H3 H 0.3554 0.3404 0.0254
C11 C 0.64290(19) 0.36144(17) -0.08465(13)
H4 H 0.6347 0.3399 -0.0084
C12 C 0.40830(19) 0.21485(18) -0.45896(13)
H5 H 0.4606 0.1659 -0.5036
C13 C 0.15721(17) 0.33171(16) -0.39301(12)
H6 H 0.0383 0.3627 -0.3927
C14 C 0.67024(18) 0.42458(16) -0.30972(13)
H7 H 0.6804 0.4463 -0.3858
C15 C 0.76184(19) 0.43112(18) -0.13870(14)
H8 H 0.8323 0.4563 -0.0992
C16 C 0.0723(2) 0.00608(16) 0.12127(14)
H9 H 0.0723 -0.0877 0.1291
C17 C 0.50905(18) 0.24530(18) -0.39280(13)
H10 H 0.6279 0.2158 -0.3937
C18 C -0.1764(2) 0.31774(19) 0.19172(13)
H11 H -0.1690 0.4087 0.1863
C19 C -0.2022(2) 0.0462(2) 0.20977(15)
H12 H -0.2121 -0.0445 0.2164
C20 C 0.1992(2) 0.06198(16) 0.07065(14)
H13 H 0.2849 0.0078 0.0419
C21 C 0.77491(19) 0.46301(17) -0.25188(14)
H14 H 0.8540 0.5103 -0.2890
C22 C -0.3128(2) 0.2708(2) 0.23786(15)
H15 H -0.3973 0.3299 0.2637
C23 C -0.0479(2) 0.2293(2) -0.49908(16)
H16 H -0.0450 0.1599 -0.4230
H17 H -0.1015 0.2027 -0.5496
H18 H -0.1125 0.3272 -0.5067
C24 C -0.3255(2) 0.1345(2) 0.24629(15)
H19 H -0.4190 0.1038 0.2771
C25 C 0.2062(3) 0.1333(2) -0.58313(18)
H20 H 0.2807 0.1781 -0.6342
H21 H 0.1192 0.1218 -0.6244
H22 H 0.2722 0.0378 -0.5287
loop_
_geom_bond_atom_site_label_1
_geom_bond_atom_site_label_2
_geom_bond_site_symmetry_1
_geom_bond_site_symmetry_2
N1 C4 1_555 1_555
C1 C2 1_555 1_555
C2 C6 1_555 1_555
C3 N2 1_555 1_555
N2 C23 1_555 1_555
C4 C10 1_555 1_555
C5 C1 1_555 1_555
C6 H1 1_555 1_555
C7 C5 1_555 1_555
H2 C7 1_555 1_555
C8 N1 1_555 1_555
C9 C8 1_555 1_555
C10 C7 1_555 1_555
H3 C10 1_555 1_555
C11 C5 1_555 1_555
H4 C11 1_555 1_555
C12 C3 1_555 1_555
H5 C12 1_555 1_555
C13 C3 1_555 1_555
H6 C13 1_555 1_555
C14 C1 1_555 1_555
H7 C14 1_555 1_555
C15 C11 1_555 1_555
H8 C15 1_555 1_555
C16 C9 1_555 1_555
H9 C16 1_555 1_555
C17 C2 1_555 1_555
H10 C17 1_555 1_555
C18 C8 1_555 1_555
H11 C18 1_555 1_555
C19 C9 1_555 1_555
H12 C19 1_555 1_555
C20 C4 1_555 1_555
H13 C20 1_555 1_555
C21 C14 1_555 1_555
H14 C21 1_555 1_555
C22 C18 1_555 1_555
H15 C22 1_555 1_555
C23 H16 1_555 1_555
H17 C23 1_555 1_555
H18 C23 1_555 1_555
C24 C19 1_555 1_555
H19 C24 1_555 1_555
C25 N2 1_555 1_555
H20 C25 1_555 1_555
H21 C25 1_555 1_555
H22 C25 1_555 1_555
C6 C13 1_555 1_555
C12 C17 1_555 1_555
C15 C21 1_555 1_555
C16 C20 1_555 1_555
C22 C24 1_555 1_555

#END
