
#######################################################################
#
#                 Cambridge Crystallographic Data Centre
#                                CCDC 
#
#######################################################################
#
# If this CIF has been generated from an entry in the Cambridge 
# Structural Database, then it will include bibliographic, chemical, 
# crystal, experimental, refinement or atomic coordinate data resulting 
# from the CCDC's data processing and validation procedures.
#
#######################################################################

data_ADULOA
_chemical_formula_moiety         'C17 H15 N1 O2'
_chemical_name_systematic        2-Cyano-1,3-diphenyl-but-2-en-1,4-diol
_symmetry_cell_setting           orthorhombic
_symmetry_space_group_name_H-M   'P 21 21 21'
_symmetry_Int_Tables_number      19
_space_group_name_Hall           'P 2ac 2ab'
loop_
_symmetry_equiv_pos_site_id
_symmetry_equiv_pos_as_xyz
1 x,y,z
2 1/2-x,-y,1/2+z
3 1/2+x,1/2-y,-z
4 -x,1/2+y,1/2-z
_cell_length_a                   10.950(7)
_cell_length_b                   21.118(5)
_cell_length_c                   6.137(2)
_cell_angle_alpha                90
_cell_angle_beta                 90
_cell_angle_gamma                90
_cell_volume                     1419.13
_exptl_crystal_colour            colorless
_exptl_crystal_description       plate
_chemical_melting_point          396-398K
_cell_formula_units_Z            4
_exptl_crystal_recrystallization_method methanol
loop_
_atom_site_label
_atom_site_type_symbol
_atom_site_fract_x
_atom_site_fract_y
_atom_site_fract_z
O1 O 0.3222(2) 0.2651(1) -0.0230(5)
O2 O -0.0706(2) 0.1346(1) 0.2511(6)
N1 N -0.0591(3) 0.2625(2) 0.6185(7)
C1 C 0.2015(4) 0.2430(2) -0.0366(7)
C2 C 0.1273(3) 0.2642(2) 0.1584(7)
C3 C 0.0650(3) 0.2247(2) 0.2859(7)
C4 C 0.0535(3) 0.1522(2) 0.2630(8)
C5 C -0.0040(3) 0.2481(2) 0.4696(8)
C6 C 0.1288(3) 0.3338(2) 0.1972(8)
C7 C 0.1738(4) 0.3585(2) 0.3887(9)
C8 C 0.1740(4) 0.4241(2) 0.422(1)
C9 C 0.1291(5) 0.4637(2) 0.266(1)
C10 C 0.0855(5) 0.4395(2) 0.070(1)
C11 C 0.0855(4) 0.3743(2) 0.0377(9)
C12 C 0.1132(4) 0.1188(2) 0.4500(8)
C13 C 0.2395(4) 0.1171(2) 0.460(1)
C14 C 0.2999(5) 0.0881(2) 0.627(1)
C15 C 0.2329(6) 0.0590(2) 0.789(1)
C16 C 0.1091(5) 0.0598(2) 0.7872(9)
C17 C 0.0479(4) 0.0906(2) 0.6170(9)
H1 H 0.1638 0.2600 -0.1659
H2 H 0.1998 0.1981 -0.0457
H3 H 0.0959 0.1387 0.1313
H4 H 0.2067 0.3307 0.5011
H5 H 0.2090 0.4410 0.5557
H6 H 0.1261 0.5088 0.2916
H7 H 0.0601 0.4688 -0.0455
H8 H 0.0514 0.3564 -0.0963
H9 H 0.2855 0.1375 0.3471
H10 H 0.3904 0.0890 0.6304
H11 H 0.2780 0.0383 0.9115
H12 H 0.0633 0.0385 0.8991
H13 H -0.0382 0.0918 0.6121
H14 H 0.3595 0.2502 0.1160
H15 H -0.1237 0.1643 0.1782
loop_
_geom_bond_atom_site_label_1
_geom_bond_atom_site_label_2
_geom_bond_site_symmetry_1
_geom_bond_site_symmetry_2
O1 C1 1_555 1_555
O2 C4 1_555 1_555
N1 C5 1_555 1_555
C1 C2 1_555 1_555
C2 C3 1_555 1_555
C3 C4 1_555 1_555
C4 C12 1_555 1_555
C5 C3 1_555 1_555
C6 C2 1_555 1_555
C7 C6 1_555 1_555
C8 C7 1_555 1_555
C9 C8 1_555 1_555
C10 C9 1_555 1_555
C11 C6 1_555 1_555
C12 C13 1_555 1_555
C13 C14 1_555 1_555
C14 C15 1_555 1_555
C15 C16 1_555 1_555
C16 C17 1_555 1_555
C17 C12 1_555 1_555
H1 C1 1_555 1_555
H2 C1 1_555 1_555
H3 C4 1_555 1_555
H4 C7 1_555 1_555
H5 C8 1_555 1_555
H6 C9 1_555 1_555
H7 C10 1_555 1_555
H8 C11 1_555 1_555
H9 C13 1_555 1_555
H10 C14 1_555 1_555
H11 C15 1_555 1_555
H12 C16 1_555 1_555
H13 C17 1_555 1_555
H14 O1 1_555 1_555
H15 O2 1_555 1_555
C10 C11 1_555 1_555

#END
