
#######################################################################
#
#                 Cambridge Crystallographic Data Centre
#                                CCDC 
#
#######################################################################
#
# If this CIF has been generated from an entry in the Cambridge 
# Structural Database, then it will include bibliographic, chemical, 
# crystal, experimental, refinement or atomic coordinate data resulting 
# from the CCDC's data processing and validation procedures.
#
#######################################################################

data_ADULET
_chemical_formula_moiety         'C16 H14 Br2 N2 O5'
_chemical_name_systematic        '1,3-bis(4-bromophenyl)-2-nitrobutyl nitrate'
_symmetry_cell_setting           triclinic
_symmetry_space_group_name_H-M   'P -1'
_symmetry_Int_Tables_number      2
_space_group_name_Hall           '-P 1'
loop_
_symmetry_equiv_pos_site_id
_symmetry_equiv_pos_as_xyz
1 x,y,z
2 -x,-y,-z
_cell_length_a                   7.620(2)
_cell_length_b                   8.759(3)
_cell_length_c                   14.010(5)
_cell_angle_alpha                79.001(16)
_cell_angle_beta                 83.049(14)
_cell_angle_gamma                72.825(14)
_cell_volume                     874.881
_exptl_crystal_colour            colorless
_exptl_crystal_description       needle
_cell_formula_units_Z            2
loop_
_atom_site_label
_atom_site_type_symbol
_atom_site_fract_x
_atom_site_fract_y
_atom_site_fract_z
Br1 Br 1.3448(3) 0.3874(3) 0.55955(17)
Br2 Br 0.2035(3) -0.1341(3) 0.59047(18)
O1 O 0.7162(16) -0.0840(15) 0.9367(8)
O2 O 0.941(2) 0.1427(19) 0.9268(11)
C1 C 0.644(2) 0.193(2) 0.8775(12)
H1 H 0.5254 0.2004 0.9152
C2 C 0.707(2) 0.028(2) 0.8457(12)
H2 H 0.8305 0.0130 0.8126
C3 C 1.001(3) 0.311(2) 0.5909(11)
H3 H 1.0304 0.2792 0.5300
C4 C 1.114(2) 0.384(2) 0.6333(14)
C5 C 0.542(3) -0.099(2) 0.6365(14)
H4 H 0.5910 -0.1399 0.5795
N1 N 0.779(3) 0.202(2) 0.9460(13)
C6 C 0.353(2) -0.071(3) 0.6675(13)
O3 O 0.822(2) -0.3316(18) 1.0062(13)
C7 C 0.615(2) 0.340(2) 0.7965(13)
H5 H 0.5375 0.3230 0.7511
O4 O 0.717(2) 0.269(2) 1.0144(12)
O5 O 0.939(2) -0.2562(17) 0.8627(12)
C8 C 0.797(2) 0.355(2) 0.7362(13)
C9 C 0.846(2) 0.294(2) 0.6492(14)
H6 H 0.7723 0.2404 0.6295
C10 C 0.581(2) -0.002(2) 0.7815(12)
C11 C 0.294(3) -0.022(3) 0.7506(14)
H7 H 0.1709 -0.0118 0.7705
C12 C 0.650(3) -0.061(3) 0.6959(13)
H8 H 0.7746 -0.0748 0.6773
C13 C 0.397(2) 0.016(2) 0.8118(13)
H9 H 0.3462 0.0511 0.8702
C14 C 0.909(3) 0.428(3) 0.7675(17)
H10 H 0.8757 0.4697 0.8254
N2 N 0.837(2) -0.239(2) 0.9343(15)
C15 C 1.072(3) 0.442(3) 0.7154(15)
H11 H 1.1481 0.4912 0.7378
C16 C 0.508(3) 0.497(2) 0.8336(18)
H12 H 0.3899 0.4882 0.8621
H13 H 0.4922 0.5858 0.7802
H14 H 0.5753 0.5161 0.8818
loop_
_geom_bond_atom_site_label_1
_geom_bond_atom_site_label_2
_geom_bond_site_symmetry_1
_geom_bond_site_symmetry_2
Br1 C4 1_555 1_555
Br2 C6 1_555 1_555
O1 C2 1_555 1_555
O2 N1 1_555 1_555
C1 H1 1_555 1_555
C2 C1 1_555 1_555
H2 C2 1_555 1_555
C3 H3 1_555 1_555
C4 C3 1_555 1_555
C5 H4 1_555 1_555
N1 C1 1_555 1_555
C6 C5 1_555 1_555
O3 N2 1_555 1_555
C7 C1 1_555 1_555
H5 C7 1_555 1_555
O4 N1 1_555 1_555
O5 N2 1_555 1_555
C8 C7 1_555 1_555
C9 C3 1_555 1_555
H6 C9 1_555 1_555
C10 C2 1_555 1_555
C11 C6 1_555 1_555
H7 C11 1_555 1_555
C12 C5 1_555 1_555
H8 C12 1_555 1_555
C13 C10 1_555 1_555
H9 C13 1_555 1_555
C14 C8 1_555 1_555
H10 C14 1_555 1_555
N2 O1 1_555 1_555
C15 C4 1_555 1_555
H11 C15 1_555 1_555
C16 C7 1_555 1_555
H12 C16 1_555 1_555
H13 C16 1_555 1_555
H14 C16 1_555 1_555
C8 C9 1_555 1_555
C10 C12 1_555 1_555
C11 C13 1_555 1_555
C14 C15 1_555 1_555

#END
