
#######################################################################
#
#                 Cambridge Crystallographic Data Centre
#                                CCDC 
#
#######################################################################
#
# If this CIF has been generated from an entry in the Cambridge 
# Structural Database, then it will include bibliographic, chemical, 
# crystal, experimental, refinement or atomic coordinate data resulting 
# from the CCDC's data processing and validation procedures.
#
#######################################################################

data_ADUTIE
_chemical_formula_moiety         'C32 H21 N3'
_chemical_name_systematic        
9-(4-(4-Phenylquinazolin-2-yl)phenyl)-9H-carbazole
_symmetry_cell_setting           triclinic
_symmetry_space_group_name_H-M   'P -1'
_symmetry_Int_Tables_number      2
_space_group_name_Hall           '-P 1'
loop_
_symmetry_equiv_pos_site_id
_symmetry_equiv_pos_as_xyz
1 x,y,z
2 -x,-y,-z
_cell_length_a                   8.3887(17)
_cell_length_b                   8.7163(17)
_cell_length_c                   16.596(3)
_cell_angle_alpha                85.72(3)
_cell_angle_beta                 78.58(3)
_cell_angle_gamma                75.70(3)
_cell_volume                     1152.17
_exptl_crystal_colour            colorless
_exptl_crystal_description       block
_cell_formula_units_Z            2
loop_
_atom_site_label
_atom_site_type_symbol
_atom_site_fract_x
_atom_site_fract_y
_atom_site_fract_z
C1 C 0.4824(2) 0.5645(3) 0.86769(11)
C2 C 0.5631(3) 0.6850(3) 0.86758(13)
H1 H 0.6542 0.6941 0.8268
C3 C 0.5034(3) 0.7908(3) 0.93022(14)
H2 H 0.5545 0.8736 0.9316
C4 C 0.3677(3) 0.7762(3) 0.99164(14)
H3 H 0.3293 0.8503 1.0329
C5 C 0.2899(3) 0.6554(3) 0.99256(13)
H4 H 0.2006 0.6462 1.0344
C6 C 0.3466(2) 0.5460(3) 0.92970(11)
C7 C 0.2962(2) 0.4080(3) 0.91090(12)
C8 C 0.1762(2) 0.3275(3) 0.94976(14)
H5 H 0.1066 0.3631 0.9990
C9 C 0.1620(3) 0.1952(3) 0.91449(16)
H6 H 0.0823 0.1410 0.9402
C10 C 0.2651(3) 0.1411(3) 0.84071(16)
H7 H 0.2523 0.0518 0.8178
C11 C 0.3857(3) 0.2166(3) 0.80087(15)
H8 H 0.4546 0.1801 0.7516
C12 C 0.4002(2) 0.3493(3) 0.83722(12)
C13 C 0.6501(2) 0.4130(3) 0.74288(12)
C14 C 0.6203(2) 0.4238(3) 0.66375(12)
H9 H 0.5114 0.4578 0.6540
C15 C 0.7529(2) 0.3839(3) 0.59893(12)
H10 H 0.7321 0.3911 0.5456
C16 C 0.9162(2) 0.3333(2) 0.61178(11)
C17 C 0.9438(2) 0.3269(3) 0.69188(12)
H11 H 1.0526 0.2956 0.7018
C18 C 0.8120(2) 0.3663(3) 0.75672(12)
H12 H 0.8322 0.3614 0.8101
C19 C 1.0581(2) 0.2863(2) 0.54231(12)
C20 C 1.1395(2) 0.2157(2) 0.40654(11)
C21 C 1.0874(2) 0.1978(2) 0.32771(11)
C22 C 0.9665(3) 0.3183(3) 0.30098(14)
H13 H 0.9172 0.4066 0.3331
C23 C 0.9186(3) 0.3087(3) 0.22714(15)
H14 H 0.8383 0.3914 0.2095
C24 C 0.9878(3) 0.1789(4) 0.17938(15)
H15 H 0.9572 0.1741 0.1289
C25 C 1.1029(3) 0.0560(3) 0.20696(15)
H16 H 1.1473 -0.0340 0.1756
C26 C 1.1541(3) 0.0634(3) 0.28041(12)
H17 H 1.2326 -0.0207 0.2982
C27 C 1.3106(2) 0.1927(2) 0.41370(12)
C28 C 1.4504(2) 0.1492(3) 0.34961(13)
H18 H 1.4343 0.1317 0.2975
C29 C 1.6084(2) 0.1326(3) 0.36344(14)
H19 H 1.6993 0.1026 0.3208
C30 C 1.6357(3) 0.1601(3) 0.44066(15)
H20 H 1.7444 0.1489 0.4491
C31 C 1.5039(2) 0.2034(3) 0.50385(14)
H21 H 1.5231 0.2213 0.5553
C32 C 1.3386(2) 0.2213(3) 0.49165(12)
N1 N 0.51317(19) 0.4453(2) 0.81087(10)
N2 N 1.01634(17) 0.2635(2) 0.46928(9)
N3 N 1.21005(18) 0.2684(2) 0.55619(10)
loop_
_geom_bond_atom_site_label_1
_geom_bond_atom_site_label_2
_geom_bond_site_symmetry_1
_geom_bond_site_symmetry_2
C1 C2 1_555 1_555
C2 H1 1_555 1_555
C3 C2 1_555 1_555
H2 C3 1_555 1_555
C4 C3 1_555 1_555
H3 C4 1_555 1_555
C5 C4 1_555 1_555
H4 C5 1_555 1_555
C6 C1 1_555 1_555
C7 C6 1_555 1_555
C8 C7 1_555 1_555
H5 C8 1_555 1_555
C9 C8 1_555 1_555
H6 C9 1_555 1_555
C10 C9 1_555 1_555
H7 C10 1_555 1_555
C11 C10 1_555 1_555
H8 C11 1_555 1_555
C12 C7 1_555 1_555
C13 C14 1_555 1_555
C14 H9 1_555 1_555
C15 C14 1_555 1_555
H10 C15 1_555 1_555
C16 C15 1_555 1_555
C17 C16 1_555 1_555
H11 C17 1_555 1_555
C18 C13 1_555 1_555
H12 C18 1_555 1_555
C19 C16 1_555 1_555
C20 C21 1_555 1_555
C21 C22 1_555 1_555
C22 H13 1_555 1_555
C23 C22 1_555 1_555
H14 C23 1_555 1_555
C24 C23 1_555 1_555
H15 C24 1_555 1_555
C25 C24 1_555 1_555
H16 C25 1_555 1_555
C26 C21 1_555 1_555
H17 C26 1_555 1_555
C27 C20 1_555 1_555
C28 C27 1_555 1_555
H18 C28 1_555 1_555
C29 C28 1_555 1_555
H19 C29 1_555 1_555
C30 C29 1_555 1_555
H20 C30 1_555 1_555
C31 C30 1_555 1_555
H21 C31 1_555 1_555
C32 C27 1_555 1_555
N1 C1 1_555 1_555
N2 C19 1_555 1_555
N3 C19 1_555 1_555
C5 C6 1_555 1_555
C11 C12 1_555 1_555
C12 N1 1_555 1_555
C13 N1 1_555 1_555
C17 C18 1_555 1_555
C20 N2 1_555 1_555
C25 C26 1_555 1_555
C31 C32 1_555 1_555
C32 N3 1_555 1_555

#END
