
#######################################################################
#
#                 Cambridge Crystallographic Data Centre
#                                CCDC 
#
#######################################################################
#
# If this CIF has been generated from an entry in the Cambridge 
# Structural Database, then it will include bibliographic, chemical, 
# crystal, experimental, refinement or atomic coordinate data resulting 
# from the CCDC's data processing and validation procedures.
#
#######################################################################

data_AFAJID
_chemical_formula_moiety         'C21 H20 N2 O2'
_chemical_name_systematic        
3-(2,3-dimethylphenyl)-7a-hydroxy-2-phenyl-3,3a,4,7a-tetrahydro-5H-benzimidazol-5-one
_symmetry_cell_setting           rhombohedral
_symmetry_space_group_name_H-M   'R -3'
_symmetry_Int_Tables_number      148
_space_group_name_Hall           '-R 3'
loop_
_symmetry_equiv_pos_site_id
_symmetry_equiv_pos_as_xyz
1 x,y,z
2 -y,x-y,z
3 -x+y,-x,z
4 2/3+x,1/3+y,1/3+z
5 2/3-y,1/3+x-y,1/3+z
6 2/3-x+y,1/3-x,1/3+z
7 1/3+x,2/3+y,2/3+z
8 1/3-y,2/3+x-y,2/3+z
9 1/3-x+y,2/3-x,2/3+z
10 -x,-y,-z
11 y,-x+y,-z
12 x-y,x,-z
13 1/3-x,2/3-y,2/3-z
14 1/3+y,2/3-x+y,2/3-z
15 1/3+x-y,2/3+x,2/3-z
16 2/3-x,1/3-y,1/3-z
17 2/3+y,1/3-x+y,1/3-z
18 2/3+x-y,1/3+x,1/3-z
_cell_length_a                   21.748(2)
_cell_length_b                   21.748(2)
_cell_length_c                   19.3283(13)
_cell_angle_alpha                90
_cell_angle_beta                 90
_cell_angle_gamma                120
_cell_volume                     7917.04
_exptl_crystal_colour            colorless
_exptl_crystal_description       needle
_cell_formula_units_Z            18
_exptl_crystal_recrystallization_method 
'Re-crystallisation from solvent: heptane'
loop_
_atom_site_label
_atom_site_type_symbol
_atom_site_fract_x
_atom_site_fract_y
_atom_site_fract_z
O1 O 0.24081(12) -0.17341(12) 0.84145(11)
O2 O 0.41236(10) -0.06532(11) 1.03750(10)
H1 H 0.4550(10) -0.0601(16) 1.0373(15)
N1 N 0.33793(14) 0.01865(13) 0.94324(10)
N2 N 0.44805(13) 0.04087(13) 0.97140(10)
C1 C 0.41223(17) -0.06780(15) 0.91287(15)
H2 H 0.459163 -0.057962 0.903413
C2 C 0.3615(2) -0.10818(17) 0.86822(16)
H3 H 0.374242 -0.120714 0.825697
C3 C 0.2861(2) -0.13401(18) 0.88279(17)
C4 C 0.26791(15) -0.11381(15) 0.94995(14)
H4 H 0.255381 -0.152714 0.983492
H5 H 0.225347 -0.109026 0.943338
C5 C 0.32598(16) -0.04605(16) 0.98038(14)
H6 H 0.314175 -0.042778 1.029755
C6 C 0.40024(16) -0.03686(17) 0.97699(14)
C7 C 0.28107(17) 0.03589(15) 0.94463(15)
C8 C 0.40907(19) 0.06735(18) 0.95072(13)
C9 C 0.44155(17) 0.14350(18) 0.93439(14)
C10 C 0.41302(16) 0.16885(17) 0.88505(13)
H7 H 0.370187 0.136804 0.862007
C11 C 0.44670(18) 0.24027(19) 0.86951(15)
H8 H 0.426873 0.257095 0.835782
C12 C 0.50858(19) 0.28725(17) 0.90233(16)
H9 H 0.531424 0.336410 0.891485
C13 C 0.53758(16) 0.26269(19) 0.95131(16)
H10 H 0.580430 0.294949 0.974191
C14 C 0.50414(17) 0.19136(19) 0.96678(14)
H11 H 0.524412 0.174766 1.000262
C15 C 0.23831(18) 0.02068(15) 0.88819(16)
C16 C 0.17961(17) 0.03272(15) 0.89260(16)
C17 C 0.17038(17) 0.06252(16) 0.95197(18)
H12 H 0.132279 0.072011 0.954440
C18 C 0.21601(18) 0.07895(16) 1.00839(17)
H13 H 0.208845 0.099603 1.048680
C19 C 0.27157(17) 0.06532(16) 1.00589(15)
H14 H 0.302433 0.075463 1.044307
C20 C 0.25074(15) -0.00733(14) 0.82217(13)
H15 H 0.298349 -0.001701 0.822801
H16 H 0.246801 0.019119 0.783008
H17 H 0.215224 -0.057746 0.817444
C21 C 0.12722(16) 0.01271(15) 0.83441(15)
H18 H 0.089304 0.022124 0.848067
H19 H 0.106757 -0.037886 0.823894
H20 H 0.151415 0.040832 0.793302
loop_
_geom_bond_atom_site_label_1
_geom_bond_atom_site_label_2
_geom_bond_site_symmetry_1
_geom_bond_site_symmetry_2
O1 C3 1_555 1_555
O2 H1 1_555 1_555
N1 C5 1_555 1_555
N2 C6 1_555 1_555
C1 H2 1_555 1_555
C2 C1 1_555 1_555
H3 C2 1_555 1_555
C3 C2 1_555 1_555
C4 C3 1_555 1_555
H4 C4 1_555 1_555
H5 C4 1_555 1_555
C5 C4 1_555 1_555
H6 C5 1_555 1_555
C6 O2 1_555 1_555
C7 N1 1_555 1_555
C8 N1 1_555 1_555
C9 C8 1_555 1_555
C10 C9 1_555 1_555
H7 C10 1_555 1_555
C11 C10 1_555 1_555
H8 C11 1_555 1_555
C12 C11 1_555 1_555
H9 C12 1_555 1_555
C13 C12 1_555 1_555
H10 C13 1_555 1_555
C14 C9 1_555 1_555
H11 C14 1_555 1_555
C15 C7 1_555 1_555
C16 C15 1_555 1_555
C17 C16 1_555 1_555
H12 C17 1_555 1_555
C18 C17 1_555 1_555
H13 C18 1_555 1_555
C19 C7 1_555 1_555
H14 C19 1_555 1_555
C20 C15 1_555 1_555
H15 C20 1_555 1_555
H16 C20 1_555 1_555
H17 C20 1_555 1_555
C21 C16 1_555 1_555
H18 C21 1_555 1_555
H19 C21 1_555 1_555
H20 C21 1_555 1_555
N2 C8 1_555 1_555
C1 C6 1_555 1_555
C5 C6 1_555 1_555
C13 C14 1_555 1_555
C18 C19 1_555 1_555

#END
