
#######################################################################
#
#                 Cambridge Crystallographic Data Centre
#                                CCDC 
#
#######################################################################
#
# If this CIF has been generated from an entry in the Cambridge 
# Structural Database, then it will include bibliographic, chemical, 
# crystal, experimental, refinement or atomic coordinate data resulting 
# from the CCDC's data processing and validation procedures.
#
#######################################################################

data_AFAPIH
_chemical_formula_moiety         'C7 H6 F4 O2'
_chemical_name_systematic        
(1R,2R)-cis-3-(Trifluoromethyl)-6-fluoro-1,2-dihydrobenzene-1,2-diol
_symmetry_cell_setting           orthorhombic
_symmetry_space_group_name_H-M   'P 21 21 2'
_symmetry_Int_Tables_number      18
_space_group_name_Hall           'P 2 2ab'
loop_
_symmetry_equiv_pos_site_id
_symmetry_equiv_pos_as_xyz
1 x,y,z
2 -x,-y,z
3 1/2-x,1/2+y,-z
4 1/2+x,1/2-y,-z
_cell_length_a                   10.195(5)
_cell_length_b                   19.487(8)
_cell_length_c                   8.391(4)
_cell_angle_alpha                90
_cell_angle_beta                 90
_cell_angle_gamma                90
_cell_volume                     1667.04
_exptl_crystal_colour            colorless
_exptl_crystal_description       blocks
_chemical_melting_point          '96-98 deg.C'
_cell_formula_units_Z            8
loop_
_atom_site_label
_atom_site_type_symbol
_atom_site_fract_x
_atom_site_fract_y
_atom_site_fract_z
C1 C 0.2345(5) 0.9692(3) 0.3355(6)
H1 H 0.3030 0.9615 0.2555
O1 O 0.1481(4) 1.0203(2) 0.2782(4)
H2 H 0.1510 1.0213 0.1805
C2 C 0.1643(5) 0.9025(3) 0.3652(5)
H3 H 0.1439 0.8809 0.2626
O2 O 0.0450(3) 0.9129(2) 0.4513(4)
H4 H -0.0097 0.9304 0.3923
C3 C 0.2463(5) 0.8539(3) 0.4626(6)
C4 C 0.2263(8) 0.7798(4) 0.4449(8)
F1 F 0.3061(4) 0.7411(2) 0.5319(6)
F2 F 0.2455(8) 0.7596(3) 0.2965(6)
F3 F 0.1079(6) 0.7610(3) 0.4791(12)
C5 C 0.3262(6) 0.8793(4) 0.5732(7)
H5 H 0.3719 0.8490 0.6383
C6 C 0.3449(7) 0.9524(4) 0.5964(8)
H6 H 0.3884 0.9693 0.6856
C7 C 0.2987(6) 0.9935(3) 0.4878(7)
F4 F 0.3136(4) 1.0627(2) 0.4993(5)
C8 C 0.0547(6) 1.1249(3) -0.1673(7)
H7 H 0.0739 1.1585 -0.2511
O3 O -0.0379(5) 1.0775(3) -0.2273(5)
H8 H 0.0005 1.0464 -0.2738
C9 C 0.1821(6) 1.0888(3) -0.1223(5)
H9 H 0.2332 1.0797 -0.2189
O4 O 0.1574(4) 1.02563(17) -0.0408(4)
H10 H 0.1105 1.0011 -0.0962
C10 C 0.2619(5) 1.1327(3) -0.0100(6)
C11 C 0.4042(7) 1.1194(4) 0.0028(11)
F5 F 0.4625(5) 1.1330(5) -0.1361(7)
F6 F 0.4322(5) 1.0584(3) 0.0377(13)
F7 F 0.4667(5) 1.1592(4) 0.0974(7)
C12 C 0.2051(6) 1.1764(3) 0.0878(7)
H11 H 0.2564 1.2009 0.1596
C13 C 0.0657(7) 1.1871(4) 0.0859(9)
H12 H 0.0251 1.2118 0.1667
C14 C -0.0023(6) 1.1617(3) -0.0302(8)
F8 F -0.1354(4) 1.1713(3) -0.0379(6)
loop_
_geom_bond_atom_site_label_1
_geom_bond_atom_site_label_2
_geom_bond_site_symmetry_1
_geom_bond_site_symmetry_2
C1 H1 1_555 1_555
O1 C1 1_555 1_555
H2 O1 1_555 1_555
C2 C1 1_555 1_555
H3 C2 1_555 1_555
O2 C2 1_555 1_555
H4 O2 1_555 1_555
C3 C2 1_555 1_555
C4 C3 1_555 1_555
F1 C4 1_555 1_555
F2 C4 1_555 1_555
F3 C4 1_555 1_555
C5 C3 1_555 1_555
H5 C5 1_555 1_555
C6 C5 1_555 1_555
H6 C6 1_555 1_555
C7 C1 1_555 1_555
F4 C7 1_555 1_555
C8 H7 1_555 1_555
O3 C8 1_555 1_555
H8 O3 1_555 1_555
C9 C8 1_555 1_555
H9 C9 1_555 1_555
O4 C9 1_555 1_555
H10 O4 1_555 1_555
C10 C9 1_555 1_555
C11 C10 1_555 1_555
F5 C11 1_555 1_555
F6 C11 1_555 1_555
F7 C11 1_555 1_555
C12 C10 1_555 1_555
H11 C12 1_555 1_555
C13 C12 1_555 1_555
H12 C13 1_555 1_555
C14 C8 1_555 1_555
F8 C14 1_555 1_555
C6 C7 1_555 1_555
C13 C14 1_555 1_555

#END
