
#######################################################################
#
#                 Cambridge Crystallographic Data Centre
#                                CCDC 
#
#######################################################################
#
# If this CIF has been generated from an entry in the Cambridge 
# Structural Database, then it will include bibliographic, chemical, 
# crystal, experimental, refinement or atomic coordinate data resulting 
# from the CCDC's data processing and validation procedures.
#
#######################################################################

data_AFAYUD
_chemical_name_common            
5-((6-Chloropyridin-3-yl)methyl)-7-nitro-2,5-diazatricyclo[6.3.1.0$2,6!]dodec-6-en-1-ol
_chemical_formula_moiety         'C16 H19 Cl1 N4 O3'
_chemical_name_systematic        
1-[(6-Chloropyridin-3-yl)methyl]-10-nitro-1,2,3,5,6,7,8,9-omicronctahydro-5,9-methanoimidazo[1,2-a]azocin-5-ol
_symmetry_cell_setting           monoclinic
_symmetry_space_group_name_H-M   'P 21/c'
_symmetry_Int_Tables_number      14
_space_group_name_Hall           '-P 2ybc'
loop_
_symmetry_equiv_pos_site_id
_symmetry_equiv_pos_as_xyz
1 x,y,z
2 -x,1/2+y,1/2-z
3 -x,-y,-z
4 x,1/2-y,1/2+z
_cell_length_a                   13.3975(14)
_cell_length_b                   18.7124(18)
_cell_length_c                   6.5721(8)
_cell_angle_alpha                90
_cell_angle_beta                 97.897(10)
_cell_angle_gamma                90
_cell_volume                     1632
_exptl_crystal_colour            colorless
_exptl_crystal_description       prism
_cell_formula_units_Z            4
loop_
_atom_site_label
_atom_site_type_symbol
_atom_site_fract_x
_atom_site_fract_y
_atom_site_fract_z
Cl1 Cl -0.41200(9) 0.65584(9) 0.0781(3)
N1 N 0.1452(3) 0.65779(16) 0.7861(5)
N2 N 0.2189(2) 0.53441(15) 0.4048(5)
N3 N 0.0721(2) 0.59219(15) 0.3726(5)
N4 N -0.2457(2) 0.63479(18) 0.3227(6)
O1 O 0.1870(2) 0.69232(16) 0.9378(5)
O2 O 0.0505(2) 0.65481(15) 0.7522(5)
O3 O 0.35157(19) 0.45270(13) 0.4224(4)
H1 H 0.3216 0.4252 0.4901
C1 C 0.1637(3) 0.58526(18) 0.4877(6)
C2 C 0.1721(3) 0.5161(2) 0.1983(6)
H2 H 0.1769 0.4653 0.1716
H3 H 0.2017 0.5427 0.0949
C3 C 0.0639(3) 0.5387(2) 0.2069(7)
H4 H 0.0341 0.5594 0.0774
H5 H 0.0233 0.4984 0.2386
C4 C 0.2050(3) 0.62191(19) 0.6634(6)
C5 C 0.3162(3) 0.61790(18) 0.7288(6)
H6 H 0.3302 0.6297 0.8751
C6 C 0.3494(3) 0.54049(19) 0.6983(6)
H7 H 0.4208 0.5352 0.7467
H8 H 0.3123 0.5080 0.7752
C7 C 0.3281(3) 0.52359(18) 0.4689(6)
C8 C 0.3893(3) 0.57185(19) 0.3484(7)
H9 H 0.3741 0.5609 0.2032
H10 H 0.4605 0.5630 0.3904
C9 C 0.3664(3) 0.65028(19) 0.3831(7)
H11 H 0.4128 0.6797 0.3188
H12 H 0.2987 0.6609 0.3177
C10 C 0.3751(3) 0.6691(2) 0.6090(7)
H13 H 0.3502 0.7173 0.6229
H14 H 0.4455 0.6682 0.6680
C11 C 0.0317(3) 0.66343(18) 0.3105(6)
H15 H 0.0647 0.6811 0.1980
H16 H 0.0465 0.6963 0.4248
C12 C -0.0792(3) 0.66095(16) 0.2453(6)
C13 C -0.1215(3) 0.68244(19) 0.0504(6)
H17 H -0.0801 0.6977 -0.0435
C14 C -0.2246(3) 0.6813(2) -0.0049(7)
H18 H -0.2539 0.6961 -0.1346
C15 C -0.2822(3) 0.6576(2) 0.1372(8)
C16 C -0.1457(3) 0.6367(2) 0.3742(7)
H19 H -0.1190 0.6208 0.5044
loop_
_geom_bond_atom_site_label_1
_geom_bond_atom_site_label_2
_geom_bond_site_symmetry_1
_geom_bond_site_symmetry_2
Cl1 C15 1_555 1_555
N1 O1 1_555 1_555
N2 C1 1_555 1_555
N3 C1 1_555 1_555
N4 C15 1_555 1_555
O2 N1 1_555 1_555
O3 H1 1_555 1_555
C1 C4 1_555 1_555
C2 N2 1_555 1_555
H2 C2 1_555 1_555
H3 C2 1_555 1_555
C3 N3 1_555 1_555
H4 C3 1_555 1_555
H5 C3 1_555 1_555
C4 N1 1_555 1_555
C5 C4 1_555 1_555
H6 C5 1_555 1_555
C6 C5 1_555 1_555
H7 C6 1_555 1_555
H8 C6 1_555 1_555
C7 N2 1_555 1_555
C8 C7 1_555 1_555
H9 C8 1_555 1_555
H10 C8 1_555 1_555
C9 C8 1_555 1_555
H11 C9 1_555 1_555
H12 C9 1_555 1_555
C10 C5 1_555 1_555
H13 C10 1_555 1_555
H14 C10 1_555 1_555
C11 N3 1_555 1_555
H15 C11 1_555 1_555
H16 C11 1_555 1_555
C12 C11 1_555 1_555
C13 C12 1_555 1_555
H17 C13 1_555 1_555
C14 C13 1_555 1_555
H18 C14 1_555 1_555
C15 C14 1_555 1_555
C16 N4 1_555 1_555
H19 C16 1_555 1_555
O3 C7 1_555 1_555
C2 C3 1_555 1_555
C6 C7 1_555 1_555
C9 C10 1_555 1_555
C12 C16 1_555 1_555

#END
