
#######################################################################
#
#                 Cambridge Crystallographic Data Centre
#                                CCDC 
#
#######################################################################
#
# If this CIF has been generated from an entry in the Cambridge 
# Structural Database, then it will include bibliographic, chemical, 
# crystal, experimental, refinement or atomic coordinate data resulting 
# from the CCDC's data processing and validation procedures.
#
#######################################################################

data_AFAZEP
_chemical_name_common            (+)-yahazunol
_chemical_formula_moiety         'C21 H32 O3'
_chemical_name_systematic        
(+)-2-[(2-hydroxy-2,5,5,8a-tetramethyldecahydronaphthalen-1-yl)methyl]benzene-1,4-diol
_symmetry_cell_setting           triclinic
_symmetry_space_group_name_H-M   'P 1'
_symmetry_Int_Tables_number      1
_space_group_name_Hall           'P 1'
loop_
_symmetry_equiv_pos_site_id
_symmetry_equiv_pos_as_xyz
1 x,y,z
_cell_length_a                   6.2785(2)
_cell_length_b                   10.5538(4)
_cell_length_c                   14.3930(4)
_cell_angle_alpha                100.197(3)
_cell_angle_beta                 100.924(3)
_cell_angle_gamma                91.722(3)
_cell_volume                     919.639
_exptl_crystal_colour            colorless
_exptl_crystal_description       block
_cell_formula_units_Z            2
loop_
_atom_site_label
_atom_site_type_symbol
_atom_site_fract_x
_atom_site_fract_y
_atom_site_fract_z
O1 O 0.7172(3) 0.29776(18) 0.46406(14)
H1 H 0.817914 0.250137 0.463090
O2 O 0.3545(3) 0.16738(18) 0.36804(13)
H2 H 0.463451 0.216564 0.388530
O3 O 0.0087(3) 0.16262(19) -0.01598(13)
H3 H 0.103159 0.177428 -0.045650
C1 C 0.6100(4) 0.3100(2) 0.26268(19)
H4 H 0.666874 0.341203 0.212134
H5 H 0.710460 0.250455 0.287716
C2 C 0.2780(4) 0.1712(2) 0.27219(18)
C3 C 0.7770(4) 0.4183(2) 0.43626(18)
C4 C 0.3926(4) 0.2366(2) 0.21852(19)
C5 C 0.1027(4) 0.1647(2) 0.07919(19)
C6 C 0.5206(5) 0.8006(3) 0.3853(2)
C7 C 0.6046(4) 0.4263(3) 0.34483(19)
H6 H 0.464077 0.414326 0.363410
C8 C 0.8091(4) 0.5915(3) 0.2778(2)
H7 H 0.922359 0.628090 0.331507
H8 H 0.779868 0.651902 0.235039
H9 H 0.854422 0.513404 0.244045
C9 C 0.6016(4) 0.5614(3) 0.31441(19)
C10 C 0.3024(5) 0.2309(3) 0.1219(2)
H10 H 0.377254 0.272273 0.084651
C11 C 0.5710(5) 0.6625(3) 0.4035(2)
H11 H 0.439653 0.629817 0.421435
C12 C 0.0793(4) 0.1058(3) 0.2302(2)
H12 H 0.004695 0.063758 0.267141
C13 C 0.7519(5) 0.5263(3) 0.51838(19)
H13 H 0.869548 0.525944 0.572807
H14 H 0.616362 0.509631 0.538451
C14 C 1.0122(5) 0.4163(3) 0.4236(2)
H15 H 1.101372 0.393291 0.479237
H16 H 1.061366 0.500147 0.415984
H17 H 1.022091 0.354031 0.367416
C15 C 0.4023(5) 0.5601(3) 0.2328(2)
H18 H 0.425029 0.503112 0.175240
H19 H 0.274895 0.525775 0.251329
C16 C 0.3325(5) 0.7901(3) 0.2979(2)
H20 H 0.198903 0.765457 0.316651
H21 H 0.316838 0.874596 0.280635
C17 C -0.0104(5) 0.1021(3) 0.1338(2)
H22 H -0.144443 0.058178 0.106248
C18 C 0.7164(5) 0.8799(3) 0.3703(2)
H23 H 0.838101 0.877655 0.421518
H24 H 0.680016 0.967585 0.370242
H25 H 0.753345 0.843950 0.309786
C19 C 0.7533(5) 0.6594(3) 0.4907(2)
H26 H 0.892690 0.679632 0.475179
H27 H 0.733153 0.724045 0.544729
C20 C 0.4417(5) 0.8759(3) 0.4727(2)
H28 H 0.325923 0.826001 0.487089
H29 H 0.389929 0.956306 0.458226
H30 H 0.559875 0.892544 0.527296
C21 C 0.3600(5) 0.6942(3) 0.2095(2)
H31 H 0.480565 0.724977 0.184345
H32 H 0.229597 0.688337 0.160055
O4 O 0.0605(3) 0.13409(18) 0.48167(13)
H33 H 0.161680 0.147433 0.455321
O5 O 0.6785(3) 0.3394(2) 0.97840(14)
H34 H 0.774031 0.288545 0.974768
O6 O 0.3158(3) 0.20712(19) 0.87753(13)
H35 H 0.432222 0.249475 0.897596
C22 C 0.1346(4) 0.1529(3) 0.57985(19)
C23 C 0.3967(4) 0.2457(3) 0.72491(19)
C24 C 0.6071(4) 0.3245(3) 0.77294(19)
H36 H 0.675851 0.349353 0.723340
H37 H 0.704028 0.270401 0.806752
C25 C 0.2625(4) 0.1935(3) 0.77871(19)
C26 C 0.5209(5) 0.6840(3) 0.8830(2)
H38 H 0.384679 0.651446 0.896834
C27 C 0.7369(5) 0.4548(3) 0.94339(19)
C28 C 0.3303(4) 0.2222(2) 0.6251(2)
H39 H 0.418381 0.253410 0.587916
C29 C 0.0694(4) 0.1254(3) 0.7335(2)
H40 H -0.017911 0.092558 0.770338
C30 C 0.5772(4) 0.5759(3) 0.80448(19)
C31 C 0.7955(4) 0.6052(3) 0.77528(19)
H41 H 0.771790 0.655768 0.725447
H42 H 0.854725 0.525615 0.752011
H43 H 0.895648 0.652286 0.830235
C32 C 0.4679(5) 0.8155(3) 0.8518(2)
C33 C 0.5803(4) 0.4484(3) 0.84536(19)
H44 H 0.434550 0.436403 0.858908
C34 C 0.3929(5) 0.5595(3) 0.7152(2)
H45 H 0.430426 0.496619 0.664054
H46 H 0.260908 0.526414 0.730899
C35 C 0.9789(5) 0.4567(3) 0.9417(2)
H47 H 1.057840 0.438769 1.001383
H48 H 1.027815 0.540148 0.933186
H49 H 1.003446 0.392263 0.889374
C36 C 0.0022(5) 0.1049(3) 0.6344(2)
H50 H -0.129590 0.059564 0.604867
C37 C 0.6852(5) 0.6963(3) 0.9781(2)
H51 H 0.829031 0.719172 0.968295
H52 H 0.646863 0.764500 1.025542
C38 C 0.6877(5) 0.5694(3) 1.0153(2)
H53 H 0.796197 0.578807 1.074231
H54 H 0.547277 0.551713 1.030769
C39 C 0.6651(5) 0.8963(3) 0.8399(3)
H55 H 0.777422 0.903622 0.896398
H56 H 0.622671 0.980717 0.831251
H57 H 0.718450 0.854995 0.784659
C40 C 0.3499(5) 0.6862(3) 0.6792(2)
H58 H 0.477280 0.715546 0.657905
H59 H 0.229481 0.671478 0.624436
C41 C 0.2969(5) 0.7902(3) 0.7574(3)
H60 H 0.158061 0.765567 0.771531
H61 H 0.280983 0.869999 0.732813
C42 C 0.3629(6) 0.8975(3) 0.9288(3)
H62 H 0.246263 0.847054 0.942042
H63 H 0.307160 0.972193 0.905551
H64 H 0.470146 0.924302 0.986822
loop_
_geom_bond_atom_site_label_1
_geom_bond_atom_site_label_2
_geom_bond_site_symmetry_1
_geom_bond_site_symmetry_2
O1 H1 1_555 1_555
O2 H2 1_555 1_555
O3 H3 1_555 1_555
C1 H4 1_555 1_555
H5 C1 1_555 1_555
C2 O2 1_555 1_555
C3 O1 1_555 1_555
C4 C1 1_555 1_555
C5 O3 1_555 1_555
C6 C11 1_555 1_555
C7 C1 1_555 1_555
H6 C7 1_555 1_555
C8 H7 1_555 1_555
H8 C8 1_555 1_555
H9 C8 1_555 1_555
C9 C7 1_555 1_555
C10 C4 1_555 1_555
H10 C10 1_555 1_555
C11 C9 1_555 1_555
H11 C11 1_555 1_555
C12 C2 1_555 1_555
H12 C12 1_555 1_555
C13 C3 1_555 1_555
H13 C13 1_555 1_555
H14 C13 1_555 1_555
C14 C3 1_555 1_555
H15 C14 1_555 1_555
H16 C14 1_555 1_555
H17 C14 1_555 1_555
C15 C9 1_555 1_555
H18 C15 1_555 1_555
H19 C15 1_555 1_555
C16 C6 1_555 1_555
H20 C16 1_555 1_555
H21 C16 1_555 1_555
C17 C5 1_555 1_555
H22 C17 1_555 1_555
C18 C6 1_555 1_555
H23 C18 1_555 1_555
H24 C18 1_555 1_555
H25 C18 1_555 1_555
C19 C11 1_555 1_555
H26 C19 1_555 1_555
H27 C19 1_555 1_555
C20 C6 1_555 1_555
H28 C20 1_555 1_555
H29 C20 1_555 1_555
H30 C20 1_555 1_555
C21 C15 1_555 1_555
H31 C21 1_555 1_555
H32 C21 1_555 1_555
O4 H33 1_555 1_555
O5 H34 1_555 1_555
O6 H35 1_555 1_555
C22 O4 1_555 1_555
C23 C24 1_555 1_555
C24 H36 1_555 1_555
H37 C24 1_555 1_555
C25 O6 1_555 1_555
C26 H38 1_555 1_555
C27 O5 1_555 1_555
C28 C22 1_555 1_555
H39 C28 1_555 1_555
C29 C25 1_555 1_555
H40 C29 1_555 1_555
C30 C26 1_555 1_555
C31 C30 1_555 1_555
H41 C31 1_555 1_555
H42 C31 1_555 1_555
H43 C31 1_555 1_555
C32 C26 1_555 1_555
C33 C24 1_555 1_555
H44 C33 1_555 1_555
C34 C30 1_555 1_555
H45 C34 1_555 1_555
H46 C34 1_555 1_555
C35 C27 1_555 1_555
H47 C35 1_555 1_555
H48 C35 1_555 1_555
H49 C35 1_555 1_555
C36 C22 1_555 1_555
H50 C36 1_555 1_555
C37 C26 1_555 1_555
H51 C37 1_555 1_555
H52 C37 1_555 1_555
C38 C27 1_555 1_555
H53 C38 1_555 1_555
H54 C38 1_555 1_555
C39 C32 1_555 1_555
H55 C39 1_555 1_555
H56 C39 1_555 1_555
H57 C39 1_555 1_555
C40 C34 1_555 1_555
H58 C40 1_555 1_555
H59 C40 1_555 1_555
C41 C32 1_555 1_555
H60 C41 1_555 1_555
H61 C41 1_555 1_555
C42 C32 1_555 1_555
H62 C42 1_555 1_555
H63 C42 1_555 1_555
H64 C42 1_555 1_555
C2 C4 1_555 1_555
C3 C7 1_555 1_555
C5 C10 1_555 1_555
C8 C9 1_555 1_555
C12 C17 1_555 1_555
C13 C19 1_555 1_555
C16 C21 1_555 1_555
C23 C25 1_555 1_555
C23 C28 1_555 1_555
C27 C33 1_555 1_555
C29 C36 1_555 1_555
C30 C33 1_555 1_555
C37 C38 1_555 1_555
C40 C41 1_555 1_555

#END
