
#######################################################################
#
#                 Cambridge Crystallographic Data Centre
#                                CCDC 
#
#######################################################################
#
# If this CIF has been generated from an entry in the Cambridge 
# Structural Database, then it will include bibliographic, chemical, 
# crystal, experimental, refinement or atomic coordinate data resulting 
# from the CCDC's data processing and validation procedures.
#
#######################################################################

data_AFEGAW
_chemical_formula_moiety         'C38 H28 N4'
_chemical_name_systematic        
4'-(4,5-diphenyl-4H-1,2,4-triazol-3-yl)-N,N-diphenyl[1,1'-biphenyl]-4-amine
_symmetry_cell_setting           triclinic
_symmetry_space_group_name_H-M   'P -1'
_symmetry_Int_Tables_number      2
_space_group_name_Hall           '-P 1'
loop_
_symmetry_equiv_pos_site_id
_symmetry_equiv_pos_as_xyz
1 x,y,z
2 -x,-y,-z
_cell_length_a                   9.632(7)
_cell_length_b                   16.037(12)
_cell_length_c                   19.704(15)
_cell_angle_alpha                96.198(13)
_cell_angle_beta                 96.827(14)
_cell_angle_gamma                107.054(13)
_cell_volume                     2856.29
_exptl_crystal_colour            colorless
_exptl_crystal_description       block
_cell_formula_units_Z            4
_exptl_crystal_recrystallization_method Sublimation
loop_
_atom_site_label
_atom_site_type_symbol
_atom_site_fract_x
_atom_site_fract_y
_atom_site_fract_z
C1 C 1.26378(16) 1.17645(11) 0.09616(10)
C2 C 1.3124(2) 1.22411(15) 0.16231(9)
H1 H 1.2494 1.2175 0.1950
C3 C 1.4550(3) 1.28159(16) 0.17954(10)
H2 H 1.4875 1.3135 0.2238
C4 C 1.54914(17) 1.29141(14) 0.13063(15)
H3 H 1.6446 1.3299 0.1422
C5 C 1.5006(2) 1.24375(17) 0.06448(14)
H4 H 1.5635 1.2503 0.0317
C6 C 1.3579(2) 1.18627(15) 0.04724(10)
H5 H 1.3254 1.1544 0.0030
N1 N -0.0818(2) 0.63979(14) 0.13355(12)
C7 C -0.1680(3) 0.58732(18) 0.07074(16)
N2 N 1.0302(2) 1.06637(12) 0.11431(10)
C8 C -0.2692(3) 0.6148(2) 0.03201(18)
H6 H -0.2847 0.6679 0.0470
N3 N 0.8885(2) 1.06930(12) 0.01967(11)
C9 C -0.3481(4) 0.5641(3) -0.0289(2)
H7 H -0.4168 0.5832 -0.0548
N4 N 1.0288(2) 1.12403(12) 0.01842(11)
C10 C -0.3272(4) 0.4872(3) -0.0517(2)
H8 H -0.3809 0.4534 -0.0930
C11 C -0.2276(4) 0.4597(2) -0.0139(2)
H9 H -0.2126 0.4066 -0.0292
C12 C -0.1475(4) 0.5100(2) 0.0477(2)
H10 H -0.0791 0.4905 0.0733
C13 C -0.1544(3) 0.66590(18) 0.18611(14)
C14 C -0.0959(3) 0.74472(18) 0.22983(15)
H11 H -0.0050 0.7826 0.2250
C15 C -0.1686(3) 0.7682(2) 0.28019(16)
H12 H -0.1267 0.8217 0.3095
C16 C -0.3032(4) 0.7138(3) 0.28801(18)
H13 H -0.3534 0.7298 0.3221
C17 C -0.3621(4) 0.6354(2) 0.24471(18)
H14 H -0.4536 0.5981 0.2495
C18 C -0.2898(3) 0.6105(2) 0.19453(16)
H15 H -0.3313 0.5565 0.1660
C19 C 0.0635(3) 0.69188(16) 0.12882(14)
C20 C 0.1815(3) 0.69737(17) 0.17808(15)
H16 H 0.1666 0.6651 0.2145
C21 C 0.3211(3) 0.74998(16) 0.17422(14)
H17 H 0.3991 0.7532 0.2082
C22 C 0.3464(3) 0.79814(15) 0.12012(13)
C23 C 0.2281(3) 0.78936(16) 0.07043(14)
H18 H 0.2432 0.8197 0.0329
C24 C 0.0887(3) 0.73757(16) 0.07409(14)
H19 H 0.0113 0.7334 0.0395
C25 C 0.4916(3) 0.86060(15) 0.11562(13)
C26 C 0.6244(3) 0.84615(16) 0.13657(14)
H20 H 0.6243 0.7966 0.1572
C27 C 0.7560(3) 0.90341(16) 0.12748(14)
H21 H 0.8434 0.8922 0.1420
C28 C 0.7596(3) 0.97712(15) 0.09708(12)
C29 C 0.6284(3) 0.99387(16) 0.07897(13)
H22 H 0.6292 1.0448 0.0602
C30 C 0.4975(3) 0.93711(16) 0.08808(13)
H23 H 0.4109 0.9501 0.0756
C31 C 0.8916(2) 1.03628(15) 0.07730(13)
C32 C 1.1115(3) 1.12117(15) 0.07476(13)
C33 C 1.0849(2) 1.03849(15) 0.17571(13)
C34 C 1.1661(3) 0.98257(16) 0.17037(14)
H24 H 1.1848 0.9625 0.1274
C35 C 1.2202(3) 0.95604(17) 0.22860(16)
H25 H 1.2769 0.9182 0.2252
C36 C 1.1915(3) 0.98490(19) 0.29240(16)
H26 H 1.2290 0.9671 0.3321
C37 C 1.1078(3) 1.0397(2) 0.29661(15)
H27 H 1.0861 1.0585 0.3393
C38 C 1.0549(3) 1.06761(18) 0.23840(14)
H28 H 0.9991 1.1060 0.2416
N5 N -0.0383(2) 0.45290(13) 0.31052(12)
N6 N 0.8112(2) 1.08161(12) 0.45265(11)
N7 N 0.9654(2) 1.10394(14) 0.54880(12)
N8 N 0.8561(2) 1.02409(14) 0.54488(12)
C39 C -0.0417(3) 0.39354(15) 0.25201(14)
C40 C 0.0303(3) 0.42215(18) 0.19844(15)
H29 H 0.0827 0.4815 0.2009
C41 C 0.0250(4) 0.3631(2) 0.14116(17)
H30 H 0.0757 0.3828 0.1057
C42 C -0.0538(3) 0.27617(19) 0.13588(17)
H31 H -0.0594 0.2368 0.0966
C43 C -0.1250(3) 0.24767(17) 0.18968(16)
H32 H -0.1788 0.1885 0.1867
C44 C -0.1175(3) 0.30516(16) 0.24710(14)
H33 H -0.1642 0.2845 0.2835
C45 C -0.1563(3) 0.43497(15) 0.34907(15)
C46 C -0.2948(3) 0.42971(18) 0.32001(17)
H34 H -0.3132 0.4380 0.2742
C47 C -0.4089(3) 0.4118(2) 0.3590(2)
H35 H -0.5038 0.4077 0.3393
C48 C -0.3807(4) 0.4005(2) 0.4261(2)
H36 H -0.4567 0.3881 0.4522
C49 C -0.2438(4) 0.40710(19) 0.45490(18)
H37 H -0.2250 0.4000 0.5010
C50 C -0.1312(3) 0.42426(16) 0.41661(16)
H38 H -0.0367 0.4286 0.4370
C51 C 0.0761(3) 0.53258(15) 0.33218(13)
C52 C 0.2210(3) 0.53710(16) 0.33674(14)
H39 H 0.2454 0.4868 0.3223
C53 C 0.3318(3) 0.61485(15) 0.36235(14)
H40 H 0.4295 0.6160 0.3658
C54 C 0.2987(3) 0.69132(14) 0.38302(13)
C55 C 0.1521(3) 0.68651(15) 0.37611(14)
H41 H 0.1270 0.7371 0.3889
C56 C 0.0431(3) 0.60914(16) 0.35086(14)
H42 H -0.0546 0.6081 0.3462
C57 C 0.4158(3) 0.77466(15) 0.41240(13)
C58 C 0.5431(3) 0.77566(16) 0.45301(14)
H43 H 0.5541 0.7227 0.4639
C59 C 0.6540(3) 0.85289(16) 0.47776(14)
H44 H 0.7391 0.8517 0.5049
C60 C 0.6400(3) 0.93234(15) 0.46264(13)
C61 C 0.5111(3) 0.93272(15) 0.42481(14)
H45 H 0.4985 0.9860 0.4158
C62 C 0.3999(3) 0.85490(15) 0.40001(14)
H46 H 0.3131 0.8564 0.3746
C63 C 0.7666(3) 1.01183(15) 0.48777(14)
C64 C 0.9357(3) 1.13716(15) 0.49367(14)
C65 C 1.0316(3) 1.21959(15) 0.47708(14)
C66 C 1.1167(3) 1.28226(15) 0.53140(15)
H47 H 1.1083 1.2723 0.5766
C67 C 1.2130(3) 1.35884(16) 0.51966(18)
H48 H 1.2690 1.4008 0.5568
C68 C 1.2274(3) 1.37390(18) 0.45376(19)
H49 H 1.2928 1.4261 0.4458
C69 C 1.1450(3) 1.31186(18) 0.39934(17)
H50 H 1.1556 1.3219 0.3543
C70 C 1.0469(3) 1.23501(16) 0.41054(15)
H51 H 0.9909 1.1934 0.3732
C71 C 0.7354(3) 1.09432(15) 0.38976(14)
C72 C 0.7292(3) 1.04106(18) 0.32929(15)
H52 H 0.7791 0.9994 0.3287
C73 C 0.6488(4) 1.0500(2) 0.26995(17)
H53 H 0.6440 1.0140 0.2288
C74 C 0.5758(4) 1.1110(3) 0.2706(2)
H54 H 0.5209 1.1164 0.2302
C75 C 0.5833(3) 1.1640(2) 0.3305(2)
H55 H 0.5345 1.2062 0.3306
C76 C 0.6621(3) 1.15584(17) 0.39048(16)
H56 H 0.6659 1.1917 0.4315
loop_
_geom_bond_atom_site_label_1
_geom_bond_atom_site_label_2
_geom_bond_site_symmetry_1
_geom_bond_site_symmetry_2
C1 C2 1_555 1_555
C2 H1 1_555 1_555
C3 C2 1_555 1_555
H2 C3 1_555 1_555
C4 C3 1_555 1_555
H3 C4 1_555 1_555
C5 C4 1_555 1_555
H4 C5 1_555 1_555
C6 C1 1_555 1_555
H5 C6 1_555 1_555
N1 C7 1_555 1_555
C7 C8 1_555 1_555
N2 C31 1_555 1_555
C8 H6 1_555 1_555
N3 N4 1_555 1_555
C9 C8 1_555 1_555
H7 C9 1_555 1_555
N4 C32 1_555 1_555
C10 C9 1_555 1_555
H8 C10 1_555 1_555
C11 C10 1_555 1_555
H9 C11 1_555 1_555
C12 C7 1_555 1_555
H10 C12 1_555 1_555
C13 N1 1_555 1_555
C14 C13 1_555 1_555
H11 C14 1_555 1_555
C15 C14 1_555 1_555
H12 C15 1_555 1_555
C16 C15 1_555 1_555
H13 C16 1_555 1_555
C17 C16 1_555 1_555
H14 C17 1_555 1_555
C18 C13 1_555 1_555
H15 C18 1_555 1_555
C19 N1 1_555 1_555
C20 C19 1_555 1_555
H16 C20 1_555 1_555
C21 C20 1_555 1_555
H17 C21 1_555 1_555
C22 C21 1_555 1_555
C23 C22 1_555 1_555
H18 C23 1_555 1_555
C24 C19 1_555 1_555
H19 C24 1_555 1_555
C25 C22 1_555 1_555
C26 C25 1_555 1_555
H20 C26 1_555 1_555
C27 C26 1_555 1_555
H21 C27 1_555 1_555
C28 C27 1_555 1_555
C29 C28 1_555 1_555
H22 C29 1_555 1_555
C30 C25 1_555 1_555
H23 C30 1_555 1_555
C31 N3 1_555 1_555
C32 C1 1_555 1_555
C33 N2 1_555 1_555
C34 C33 1_555 1_555
H24 C34 1_555 1_555
C35 C34 1_555 1_555
H25 C35 1_555 1_555
C36 C35 1_555 1_555
H26 C36 1_555 1_555
C37 C36 1_555 1_555
H27 C37 1_555 1_555
C38 C33 1_555 1_555
H28 C38 1_555 1_555
N5 C39 1_555 1_555
N6 C63 1_555 1_555
N7 N8 1_555 1_555
N8 C63 1_555 1_555
C39 C40 1_555 1_555
C40 H29 1_555 1_555
C41 C40 1_555 1_555
H30 C41 1_555 1_555
C42 C41 1_555 1_555
H31 C42 1_555 1_555
C43 C42 1_555 1_555
H32 C43 1_555 1_555
C44 C39 1_555 1_555
H33 C44 1_555 1_555
C45 N5 1_555 1_555
C46 C45 1_555 1_555
H34 C46 1_555 1_555
C47 C46 1_555 1_555
H35 C47 1_555 1_555
C48 C47 1_555 1_555
H36 C48 1_555 1_555
C49 C48 1_555 1_555
H37 C49 1_555 1_555
C50 C45 1_555 1_555
H38 C50 1_555 1_555
C51 N5 1_555 1_555
C52 C51 1_555 1_555
H39 C52 1_555 1_555
C53 C52 1_555 1_555
H40 C53 1_555 1_555
C54 C53 1_555 1_555
C55 C54 1_555 1_555
H41 C55 1_555 1_555
C56 C51 1_555 1_555
H42 C56 1_555 1_555
C57 C54 1_555 1_555
C58 C57 1_555 1_555
H43 C58 1_555 1_555
C59 C58 1_555 1_555
H44 C59 1_555 1_555
C60 C59 1_555 1_555
C61 C60 1_555 1_555
H45 C61 1_555 1_555
C62 C57 1_555 1_555
H46 C62 1_555 1_555
C63 C60 1_555 1_555
C64 N6 1_555 1_555
C65 C64 1_555 1_555
C66 C65 1_555 1_555
H47 C66 1_555 1_555
C67 C66 1_555 1_555
H48 C67 1_555 1_555
C68 C67 1_555 1_555
H49 C68 1_555 1_555
C69 C68 1_555 1_555
H50 C69 1_555 1_555
C70 C65 1_555 1_555
H51 C70 1_555 1_555
C71 N6 1_555 1_555
C72 C71 1_555 1_555
H52 C72 1_555 1_555
C73 C72 1_555 1_555
H53 C73 1_555 1_555
C74 C73 1_555 1_555
H54 C74 1_555 1_555
C75 C74 1_555 1_555
H55 C75 1_555 1_555
C76 C71 1_555 1_555
H56 C76 1_555 1_555
C5 C6 1_555 1_555
N2 C32 1_555 1_555
C11 C12 1_555 1_555
C17 C18 1_555 1_555
C23 C24 1_555 1_555
C28 C31 1_555 1_555
C29 C30 1_555 1_555
C37 C38 1_555 1_555
N7 C64 1_555 1_555
C43 C44 1_555 1_555
C49 C50 1_555 1_555
C55 C56 1_555 1_555
C61 C62 1_555 1_555
C69 C70 1_555 1_555
C75 C76 1_555 1_555

#END
