
#######################################################################
#
#                 Cambridge Crystallographic Data Centre
#                                CCDC 
#
#######################################################################
#
# If this CIF has been generated from an entry in the Cambridge 
# Structural Database, then it will include bibliographic, chemical, 
# crystal, experimental, refinement or atomic coordinate data resulting 
# from the CCDC's data processing and validation procedures.
#
#######################################################################

data_AFENIK
_chemical_formula_moiety         'C33 H34 N3 O2 1+,2(C2 H3 N1),Cl1 1-'
_chemical_name_systematic        
'N-(2,2-Dimethyl-4,4,8,8-tetraphenylhexahydro-6H-[1,3]dioxolo[4,5-e][1,3]diazepin-6-ylidene)methanaminium chloride acetonitrile solvate'
_symmetry_cell_setting           orthorhombic
_symmetry_space_group_name_H-M   'P 21 21 21'
_symmetry_Int_Tables_number      19
_space_group_name_Hall           'P 2ac 2ab'
loop_
_symmetry_equiv_pos_site_id
_symmetry_equiv_pos_as_xyz
1 x,y,z
2 1/2-x,-y,1/2+z
3 -x,1/2+y,1/2-z
4 1/2+x,1/2-y,-z
_cell_length_a                   9.439(7)
_cell_length_b                   13.768(10)
_cell_length_c                   26.584(19)
_cell_angle_alpha                90
_cell_angle_beta                 90
_cell_angle_gamma                90
_cell_volume                     3454.75
_exptl_crystal_colour            white
_exptl_crystal_description       plate
_cell_formula_units_Z            4
loop_
_atom_site_label
_atom_site_type_symbol
_atom_site_fract_x
_atom_site_fract_y
_atom_site_fract_z
Cl1 Cl 0.97956(12) 0.74366(8) 0.21426(4)
O1 O 2.7952(3) 0.63942(18) 0.56840(9)
O2 O 2.5952(3) 0.57031(19) 0.53593(9)
N1 N 2.4715(4) 0.5463(2) 0.74026(11)
H1 H 2.4937 0.5884 0.7628
N2 N 2.5848(3) 0.6438(2) 0.68500(11)
H2 H 2.5377 0.6923 0.6966
N3 N 2.5374(3) 0.4798(2) 0.66442(10)
H3 H 2.5559 0.4244 0.6778
C1 C 2.3708(5) 0.4715(3) 0.75514(15)
H4 H 2.3438 0.4812 0.7896
H5 H 2.4138 0.4087 0.7515
H6 H 2.2883 0.4752 0.7341
C2 C 2.5322(4) 0.5563(3) 0.69588(13)
C3 C 2.7137(4) 0.6690(2) 0.65550(13)
C4 C 2.7196(4) 0.5991(3) 0.60947(13)
H7 H 2.7658 0.5384 0.6197
C5 C 2.5738(4) 0.5758(3) 0.58868(13)
H8 H 2.5083 0.6290 0.5964
C6 C 2.5149(4) 0.4804(2) 0.60908(12)
C7 C 2.7135(5) 0.6298(3) 0.52283(14)
C8 C 2.7982(5) 0.5769(4) 0.48452(17)
H9 H 2.8272 0.5153 0.4979
H10 H 2.8805 0.6145 0.4760
H11 H 2.7418 0.5669 0.4549
C9 C 2.6636(6) 0.7280(3) 0.50586(19)
H12 H 2.6098 0.7580 0.5323
H13 H 2.6051 0.7209 0.4765
H14 H 2.7439 0.7679 0.4979
C10 C 2.8464(3) 0.6591(2) 0.68860(9)
C11 C 2.8415(3) 0.6886(2) 0.73858(10)
H15 H 2.7562 0.7088 0.7526
C12 C 2.9641(4) 0.6880(3) 0.76754(8)
H16 H 2.9608 0.7077 0.8010
C13 C 3.0916(3) 0.6578(3) 0.74653(13)
H17 H 3.1736 0.6574 0.7659
C14 C 3.0965(3) 0.6283(3) 0.69656(14)
H18 H 3.1818 0.6082 0.6825
C15 C 2.9739(3) 0.6290(2) 0.66759(9)
H19 H 2.9771 0.6093 0.6342
C16 C 2.6966(3) 0.77507(13) 0.63790(10)
C17 C 2.8173(3) 0.8267(2) 0.62434(12)
H20 H 2.9060 0.7977 0.6268
C18 C 2.8053(3) 0.9216(2) 0.60708(13)
H21 H 2.8861 0.9562 0.5980
C19 C 2.6727(4) 0.96496(14) 0.60338(12)
H22 H 2.6647 1.0285 0.5918
C20 C 2.5521(3) 0.91334(19) 0.61694(12)
H23 H 2.4633 0.9423 0.6145
C21 C 2.5640(3) 0.81839(19) 0.63420(11)
H24 H 2.4833 0.7839 0.6433
C22 C 2.5969(3) 0.39238(16) 0.58674(10)
C23 C 2.7023(3) 0.34461(19) 0.61361(9)
H25 H 2.7272 0.3661 0.6456
C24 C 2.7704(3) 0.26471(19) 0.59272(13)
H26 H 2.8409 0.2327 0.6107
C25 C 2.7332(3) 0.23258(18) 0.54494(13)
H27 H 2.7788 0.1791 0.5310
C26 C 2.6278(4) 0.2804(2) 0.51807(9)
H28 H 2.6029 0.2589 0.4861
C27 C 2.5597(3) 0.3602(2) 0.53896(10)
H29 H 2.4892 0.3922 0.5210
C28 C 2.3551(2) 0.46902(18) 0.59778(9)
C29 C 2.2895(3) 0.52678(17) 0.56176(10)
H30 H 2.3409 0.5748 0.5453
C30 C 2.1473(3) 0.5127(2) 0.55042(10)
H31 H 2.1034 0.5514 0.5263
C31 C 2.0705(2) 0.4409(2) 0.57510(12)
H32 H 1.9753 0.4315 0.5675
C32 C 2.1361(3) 0.38315(18) 0.61111(11)
H33 H 2.0848 0.3351 0.6276
C33 C 2.2784(3) 0.39721(17) 0.62245(9)
H34 H 2.3223 0.3586 0.6466
N4 N 1.5924(11) 1.3873(6) 0.3939(4)
C34 C 1.7073(12) 1.3722(4) 0.3982(3)
C35 C 1.8569(9) 1.3511(5) 0.4058(3)
H35 H 1.8665 1.2926 0.4251
H36 H 1.9006 1.4040 0.4234
H37 H 1.9022 1.3428 0.3737
N5 N 3.2022(12) 0.8575(11) 0.6427(4)
C36 C 3.1402(17) 0.9190(8) 0.7309(6)
H38 H 3.1927 0.9762 0.7397
H39 H 3.1595 0.8685 0.7548
H40 H 3.0407 0.9335 0.7310
C37 C 3.1809(11) 0.8878(8) 0.6825(6)
loop_
_geom_bond_atom_site_label_1
_geom_bond_atom_site_label_2
_geom_bond_site_symmetry_1
_geom_bond_site_symmetry_2
O1 C4 1_555 1_555
O2 C5 1_555 1_555
N1 H1 1_555 1_555
N2 H2 1_555 1_555
N3 H3 1_555 1_555
C1 N1 1_555 1_555
H4 C1 1_555 1_555
H5 C1 1_555 1_555
H6 C1 1_555 1_555
C2 N1 1_555 1_555
C3 N2 1_555 1_555
C4 C3 1_555 1_555
H7 C4 1_555 1_555
C5 C4 1_555 1_555
H8 C5 1_555 1_555
C6 N3 1_555 1_555
C7 O1 1_555 1_555
C8 C7 1_555 1_555
H9 C8 1_555 1_555
H10 C8 1_555 1_555
H11 C8 1_555 1_555
C9 C7 1_555 1_555
H12 C9 1_555 1_555
H13 C9 1_555 1_555
H14 C9 1_555 1_555
C10 C3 1_555 1_555
C11 C10 1_555 1_555
H15 C11 1_555 1_555
C12 C11 1_555 1_555
H16 C12 1_555 1_555
C13 C12 1_555 1_555
H17 C13 1_555 1_555
C14 C13 1_555 1_555
H18 C14 1_555 1_555
C15 C10 1_555 1_555
H19 C15 1_555 1_555
C16 C3 1_555 1_555
C17 C16 1_555 1_555
H20 C17 1_555 1_555
C18 C17 1_555 1_555
H21 C18 1_555 1_555
C19 C18 1_555 1_555
H22 C19 1_555 1_555
C20 C19 1_555 1_555
H23 C20 1_555 1_555
C21 C16 1_555 1_555
H24 C21 1_555 1_555
C22 C6 1_555 1_555
C23 C22 1_555 1_555
H25 C23 1_555 1_555
C24 C23 1_555 1_555
H26 C24 1_555 1_555
C25 C24 1_555 1_555
H27 C25 1_555 1_555
C26 C25 1_555 1_555
H28 C26 1_555 1_555
C27 C22 1_555 1_555
H29 C27 1_555 1_555
C28 C6 1_555 1_555
C29 C28 1_555 1_555
H30 C29 1_555 1_555
C30 C29 1_555 1_555
H31 C30 1_555 1_555
C31 C30 1_555 1_555
H32 C31 1_555 1_555
C32 C31 1_555 1_555
H33 C32 1_555 1_555
C33 C28 1_555 1_555
H34 C33 1_555 1_555
N4 C34 1_555 1_555
C34 C35 1_555 1_555
C35 H35 1_555 1_555
H36 C35 1_555 1_555
H37 C35 1_555 1_555
N5 C37 1_555 1_555
C36 H38 1_555 1_555
H39 C36 1_555 1_555
H40 C36 1_555 1_555
C37 C36 1_555 1_555
O2 C7 1_555 1_555
N2 C2 1_555 1_555
N3 C2 1_555 1_555
C5 C6 1_555 1_555
C14 C15 1_555 1_555
C20 C21 1_555 1_555
C26 C27 1_555 1_555
C32 C33 1_555 1_555

#END
