
#######################################################################
#
#                 Cambridge Crystallographic Data Centre
#                                CCDC 
#
#######################################################################
#
# If this CIF has been generated from an entry in the Cambridge 
# Structural Database, then it will include bibliographic, chemical, 
# crystal, experimental, refinement or atomic coordinate data resulting 
# from the CCDC's data processing and validation procedures.
#
#######################################################################

data_AFERUZ
_chemical_formula_moiety         'C8 H6 Br1 N1 O2'
_chemical_name_systematic        5-Amino-4-bromo-2-benzofuran-1(3H)-one
_symmetry_cell_setting           monoclinic
_symmetry_space_group_name_H-M   'P 21/c'
_symmetry_Int_Tables_number      14
_space_group_name_Hall           '-P 2ybc'
loop_
_symmetry_equiv_pos_site_id
_symmetry_equiv_pos_as_xyz
1 x,y,z
2 -x,1/2+y,1/2-z
3 -x,-y,-z
4 x,1/2-y,1/2+z
_cell_length_a                   14.353(5)
_cell_length_b                   15.090(6)
_cell_length_c                   7.5017(18)
_cell_angle_alpha                90
_cell_angle_beta                 93.287(10)
_cell_angle_gamma                90
_cell_volume                     1622.1
_exptl_crystal_colour            orange
_exptl_crystal_description       plate
_cell_formula_units_Z            8
_exptl_crystal_recrystallization_method water/methanol
loop_
_atom_site_label
_atom_site_type_symbol
_atom_site_fract_x
_atom_site_fract_y
_atom_site_fract_z
Br1 Br 0.76354(4) 0.14582(4) 0.55865(7)
O1 O 0.7102(3) 0.4535(3) 0.5012(5)
O2 O 0.5859(3) 0.5183(3) 0.3634(6)
N1 N 0.5726(4) 0.0837(3) 0.3766(7)
H1 H 0.5214 0.0596 0.3282
H2 H 0.6183 0.0498 0.4202
C1 C 0.6238(4) 0.4504(4) 0.4145(7)
C2 C 0.5946(4) 0.3578(3) 0.3977(7)
C3 C 0.5141(3) 0.3199(4) 0.3205(7)
H5 H 0.4644 0.3560 0.2730
C4 C 0.5075(4) 0.2281(4) 0.3140(7)
H6 H 0.4525 0.2016 0.2614
C5 C 0.5810(4) 0.1726(4) 0.3840(7)
C6 C 0.6623(4) 0.2143(3) 0.4641(7)
C7 C 0.6675(3) 0.3056(4) 0.4689(6)
C8 C 0.7448(4) 0.3646(4) 0.5389(7)
H7 H 0.7575 0.3558 0.6688
H8 H 0.8027 0.3531 0.4771
Br2 Br 0.70712(4) 0.71950(4) -0.02499(8)
O3 O 0.9376(3) 0.5163(2) -0.1914(6)
O4 O 1.0792(3) 0.5531(3) -0.2830(7)
N2 N 0.8207(4) 0.8909(3) -0.0956(7)
H3 H 0.7636 0.8882 -0.0588
H4 H 0.8473 0.9427 -0.1108
C9 C 1.0050(4) 0.5772(4) -0.2323(8)
C10 C 0.9705(4) 0.6654(3) -0.2033(7)
C11 C 1.0098(4) 0.7477(4) -0.2266(7)
H9 H 1.0711 0.7528 -0.2669
C12 C 0.9592(4) 0.8218(4) -0.1906(8)
H10 H 0.9859 0.8785 -0.2073
C13 C 0.8672(4) 0.8159(4) -0.1287(7)
C14 C 0.8289(4) 0.7314(4) -0.1073(7)
C15 C 0.8796(4) 0.6578(4) -0.1420(7)
C16 C 0.8557(4) 0.5614(4) -0.1312(8)
H11 H 0.8438 0.5443 -0.0071
H12 H 0.7999 0.5473 -0.2096
loop_
_geom_bond_atom_site_label_1
_geom_bond_atom_site_label_2
_geom_bond_site_symmetry_1
_geom_bond_site_symmetry_2
Br1 C6 1_555 1_555
Br2 C14 1_555 1_555
O1 C1 1_555 1_555
O2 C1 1_555 1_555
O3 C9 1_555 1_555
O4 C9 1_555 1_555
N1 H1 1_555 1_555
H2 N1 1_555 1_555
N2 H3 1_555 1_555
H4 N2 1_555 1_555
C1 C2 1_555 1_555
C2 C3 1_555 1_555
C3 H5 1_555 1_555
C4 C3 1_555 1_555
H6 C4 1_555 1_555
C5 N1 1_555 1_555
C6 C5 1_555 1_555
C7 C2 1_555 1_555
C8 O1 1_555 1_555
H7 C8 1_555 1_555
H8 C8 1_555 1_555
C9 C10 1_555 1_555
C10 C11 1_555 1_555
C11 H9 1_555 1_555
C12 C11 1_555 1_555
H10 C12 1_555 1_555
C13 N2 1_555 1_555
C14 C13 1_555 1_555
C15 C10 1_555 1_555
C16 O3 1_555 1_555
H11 C16 1_555 1_555
H12 C16 1_555 1_555
C4 C5 1_555 1_555
C6 C7 1_555 1_555
C7 C8 1_555 1_555
C12 C13 1_555 1_555
C14 C15 1_555 1_555
C15 C16 1_555 1_555

#END
