
#######################################################################
#
#                 Cambridge Crystallographic Data Centre
#                                CCDC 
#
#######################################################################
#
# If this CIF has been generated from an entry in the Cambridge 
# Structural Database, then it will include bibliographic, chemical, 
# crystal, experimental, refinement or atomic coordinate data resulting 
# from the CCDC's data processing and validation procedures.
#
#######################################################################

data_AFETIP
_chemical_formula_moiety         'C9 H10 Br1 N1 O1'
_chemical_name_systematic        N-(4-Bromophenyl)propionamide
_symmetry_cell_setting           orthorhombic
_symmetry_space_group_name_H-M   'P b c a'
_symmetry_Int_Tables_number      61
_space_group_name_Hall           '-P 2ac 2ab'
loop_
_symmetry_equiv_pos_site_id
_symmetry_equiv_pos_as_xyz
1 x,y,z
2 1/2-x,-y,1/2+z
3 -x,1/2+y,1/2-z
4 1/2+x,1/2-y,-z
5 -x,-y,-z
6 1/2+x,y,1/2-z
7 x,1/2-y,1/2+z
8 1/2-x,1/2+y,z
_cell_length_a                   9.3879(19)
_cell_length_b                   9.2952(19)
_cell_length_c                   20.721(4)
_cell_angle_alpha                90
_cell_angle_beta                 90
_cell_angle_gamma                90
_cell_volume                     1808.16
_exptl_crystal_colour            colorless
_exptl_crystal_description       Plate
_cell_formula_units_Z            8
loop_
_atom_site_label
_atom_site_type_symbol
_atom_site_fract_x
_atom_site_fract_y
_atom_site_fract_z
Br1 Br 0.23826(4) 0.03223(3) 0.528300(15)
N1 N 0.3167(3) 0.4370(2) 0.30106(11)
H1 H 0.4042 0.4501 0.2932
O1 O 0.0960(2) 0.45235(19) 0.25674(9)
C1 C 0.2921(3) 0.3403(3) 0.35205(13)
C2 C 0.1577(3) 0.3134(3) 0.37778(14)
H2 H 0.0780 0.3580 0.3602
C3 C 0.1428(3) 0.2203(3) 0.42943(14)
H3 H 0.0530 0.2016 0.4464
C4 C 0.2612(3) 0.1554(3) 0.45556(15)
C5 C 0.3955(3) 0.1803(3) 0.43096(14)
H4 H 0.4746 0.1353 0.4489
C6 C 0.4107(3) 0.2730(3) 0.37931(14)
H5 H 0.5009 0.2908 0.3625
C7 C 0.2219(3) 0.4876(3) 0.25727(16)
C8 C 0.2844(3) 0.5911(3) 0.20894(15)
H6 H 0.3453 0.5384 0.1794
H7 H 0.3432 0.6607 0.2315
C9 C 0.1713(3) 0.6702(3) 0.17065(15)
H8 H 0.1148 0.6021 0.1471
H9 H 0.2162 0.7353 0.1410
H10 H 0.1113 0.7234 0.1996
loop_
_geom_bond_atom_site_label_1
_geom_bond_atom_site_label_2
_geom_bond_site_symmetry_1
_geom_bond_site_symmetry_2
Br1 C4 1_555 1_555
N1 H1 1_555 1_555
O1 C7 1_555 1_555
C1 N1 1_555 1_555
C2 C1 1_555 1_555
H2 C2 1_555 1_555
C3 C2 1_555 1_555
H3 C3 1_555 1_555
C4 C3 1_555 1_555
C5 C4 1_555 1_555
H4 C5 1_555 1_555
C6 C1 1_555 1_555
H5 C6 1_555 1_555
C7 N1 1_555 1_555
C8 C7 1_555 1_555
H6 C8 1_555 1_555
H7 C8 1_555 1_555
C9 C8 1_555 1_555
H8 C9 1_555 1_555
H9 C9 1_555 1_555
H10 C9 1_555 1_555
C5 C6 1_555 1_555

#END
