
#######################################################################
#
#                 Cambridge Crystallographic Data Centre
#                                CCDC 
#
#######################################################################
#
# If this CIF has been generated from an entry in the Cambridge 
# Structural Database, then it will include bibliographic, chemical, 
# crystal, experimental, refinement or atomic coordinate data resulting 
# from the CCDC's data processing and validation procedures.
#
#######################################################################

data_AFEVAJ
_chemical_formula_moiety         'C18 H14 N2 O2'
_chemical_name_systematic        
5-Methyl-2-((E)-2-(5-methylbenz(d)oxazol-2-yl)vinyl)benz(d)oxazole
_symmetry_cell_setting           monoclinic
_symmetry_space_group_name_H-M   'C 2/c'
_symmetry_Int_Tables_number      15
_space_group_name_Hall           '-C 2yn'
loop_
_symmetry_equiv_pos_site_id
_symmetry_equiv_pos_as_xyz
1 x,y,z
2 1/2+x,1/2+y,z
3 -x,y,1/2-z
4 1/2-x,1/2+y,1/2-z
5 -x,-y,-z
6 1/2-x,1/2-y,-z
7 x,-y,1/2+z
8 1/2+x,1/2-y,1/2+z
_cell_length_a                   22.153(4)
_cell_length_b                   4.7700(10)
_cell_length_c                   14.053(3)
_cell_angle_alpha                90
_cell_angle_beta                 100.94(3)
_cell_angle_gamma                90
_cell_volume                     1457.99
_exptl_crystal_colour            yellow
_exptl_crystal_description       needle
_cell_formula_units_Z            4
_exptl_crystal_recrystallization_method ethanol/dimethylformamide
loop_
_atom_site_label
_atom_site_type_symbol
_atom_site_fract_x
_atom_site_fract_y
_atom_site_fract_z
O1 O 0.04467(6) 0.2073(3) 0.87972(10)
N1 N 0.10077(8) 0.0570(4) 1.02211(13)
C1 C 0.22548(11) -0.5999(5) 0.8526(2)
H1 H 0.2142 -0.7097 0.7947
H2 H 0.2303 -0.7206 0.9082
H3 H 0.2635 -0.5049 0.8515
C2 C 0.17573(10) -0.3866(4) 0.85785(17)
C3 C 0.14015(11) -0.2845(5) 0.77202(18)
H7 H 0.1475 -0.3536 0.7134
C4 C 0.09443(11) -0.0849(5) 0.77017(17)
H8 H 0.0710 -0.0185 0.7126
C5 C 0.08615(9) 0.0078(5) 0.85917(15)
C6 C 0.11992(9) -0.0854(4) 0.94600(15)
C7 C 0.16546(10) -0.2896(4) 0.94564(17)
H9 H 0.1882 -0.3580 1.0035
C8 C 0.05734(10) 0.2229(5) 0.97847(16)
C9 C 0.02220(9) 0.4192(4) 1.02433(16)
H10 H 0.0311 0.4336 1.0915
O1D O -0.04467(6) 0.7927(3) 1.12028(10)
N1D N -0.10077(8) 0.9430(4) 0.97789(13)
C1D C -0.22548(11) 1.5999(5) 1.1474(2)
H1D H -0.2142 1.7097 1.2053
H2D H -0.2303 1.7206 1.0918
H3D H -0.2635 1.5049 1.1485
C2D C -0.17573(10) 1.3866(4) 1.14215(17)
C3D C -0.14015(11) 1.2845(5) 1.22798(18)
H7D H -0.1475 1.3536 1.2866
C4D C -0.09443(11) 1.0849(5) 1.22983(17)
H8D H -0.0710 1.0185 1.2874
C5D C -0.08615(9) 0.9922(5) 1.14083(15)
C6D C -0.11992(9) 1.0854(4) 1.05400(15)
C7D C -0.16546(10) 1.2896(4) 1.05436(17)
H9D H -0.1882 1.3580 0.9965
C8D C -0.05734(10) 0.7771(5) 1.02153(16)
C9D C -0.02220(9) 0.5808(4) 0.97567(16)
H10D H -0.0311 0.5664 0.9085
H4? H 0.2579 -0.5804 0.9082
H5? H 0.2417 -0.5695 0.7947
H6? H 0.2085 -0.7853 0.8514
loop_
_geom_bond_atom_site_label_1
_geom_bond_atom_site_label_2
_geom_bond_site_symmetry_1
_geom_bond_site_symmetry_2
O1 C5 1_555 1_555
N1 C6 1_555 1_555
C1 H1 1_555 1_555
H2 C1 1_555 1_555
H3 C1 1_555 1_555
C2 C1 1_555 1_555
C3 C2 1_555 1_555
H7 C3 1_555 1_555
C4 C3 1_555 1_555
H8 C4 1_555 1_555
C5 C4 1_555 1_555
C6 C5 1_555 1_555
C7 C2 1_555 1_555
H9 C7 1_555 1_555
C8 O1 1_555 1_555
C9 C8 1_555 1_555
H10 C9 1_555 1_555
O1D C5D 1_555 1_555
N1D C6D 1_555 1_555
C1D H1D 1_555 1_555
H2D C1D 1_555 1_555
H3D C1D 1_555 1_555
C2D C1D 1_555 1_555
C3D C2D 1_555 1_555
H7D C3D 1_555 1_555
C4D C3D 1_555 1_555
H8D C4D 1_555 1_555
C5D C4D 1_555 1_555
C6D C5D 1_555 1_555
C7D C2D 1_555 1_555
H9D C7D 1_555 1_555
C8D O1D 1_555 1_555
C9D C9 1_555 1_555
H10D C9D 1_555 1_555
N1 C8 1_555 1_555
C6 C7 1_555 1_555
N1D C8D 1_555 1_555
C6D C7D 1_555 1_555
C8D C9D 1_555 1_555

#END
