
#######################################################################
#
#                 Cambridge Crystallographic Data Centre
#                                CCDC 
#
#######################################################################
#
# If this CIF has been generated from an entry in the Cambridge 
# Structural Database, then it will include bibliographic, chemical, 
# crystal, experimental, refinement or atomic coordinate data resulting 
# from the CCDC's data processing and validation procedures.
#
#######################################################################

data_AFEWUE
_chemical_formula_moiety         'C14 H18 N2 O2 2+,2(Br1 1-),H2 O1'
_chemical_name_systematic        
'(1R,2R)/(1S,2S)-1,2-bis(2-hydroxyphenyl)ethylenediammonium dibromide monohydrate'
_symmetry_cell_setting           monoclinic
_symmetry_space_group_name_H-M   'P 21/c'
_symmetry_Int_Tables_number      14
_space_group_name_Hall           '-P 2ybc'
loop_
_symmetry_equiv_pos_site_id
_symmetry_equiv_pos_as_xyz
1 x,y,z
2 -x,1/2+y,1/2-z
3 -x,-y,-z
4 x,1/2-y,1/2+z
_cell_length_a                   5.4499(5)
_cell_length_b                   16.883(2)
_cell_length_c                   20.042(2)
_cell_angle_alpha                90
_cell_angle_beta                 95.321(8)
_cell_angle_gamma                90
_cell_volume                     1836.13
_exptl_crystal_colour            colorless
_exptl_crystal_description       plate
_cell_formula_units_Z            4
loop_
_atom_site_label
_atom_site_type_symbol
_atom_site_fract_x
_atom_site_fract_y
_atom_site_fract_z
Br1 Br -0.02139(12) 0.20389(4) 0.14353(3)
Br2 Br 0.22244(12) -0.09688(4) 0.17880(4)
O1 O 0.1756(8) 0.2625(3) 0.3199(2)
H1 H 0.0814 0.2971 0.3308
O2 O 0.8556(8) 0.0179(3) 0.2481(2)
H2 H 0.9143 -0.0205 0.2302
N1 N 0.5375(9) 0.2472(3) 0.2386(2)
H3 H 0.5854 0.2928 0.2580
H4 H 0.3762 0.2489 0.2266
H5 H 0.6181 0.2395 0.2025
N2 N 0.4404(10) 0.0871(3) 0.1949(2)
H6 H 0.4033 0.0362 0.1882
H7 H 0.5906 0.0965 0.1827
H8 H 0.3312 0.1169 0.1706
C1 C 0.5929(10) 0.1802(3) 0.2873(3)
H9 H 0.7665 0.1655 0.2862
C2 C 0.4339(10) 0.1066(3) 0.2677(3)
H10 H 0.2631 0.1191 0.2753
C3 C 0.5552(10) 0.2058(3) 0.3577(3)
C4 C 0.3491(11) 0.2476(4) 0.3722(3)
C5 C 0.3219(13) 0.2731(4) 0.4373(3)
H11 H 0.1841 0.3022 0.4463
C6 C 0.5030(15) 0.2544(5) 0.4885(3)
H12 H 0.4854 0.2713 0.5320
C7 C 0.7045(15) 0.2121(4) 0.4758(4)
H13 H 0.8232 0.1994 0.5105
C8 C 0.7338(13) 0.1876(4) 0.4108(3)
H14 H 0.8730 0.1588 0.4022
C9 C 0.5135(11) 0.0366(3) 0.3109(3)
C10 C 0.3794(12) 0.0146(4) 0.3634(3)
H15 H 0.2408 0.0436 0.3722
C11 C 0.4512(15) -0.0507(5) 0.4033(4)
H16 H 0.3621 -0.0646 0.4389
C12 C 0.6536(15) -0.0946(5) 0.3899(5)
H17 H 0.6986 -0.1388 0.4159
C13 C 0.7897(13) -0.0735(4) 0.3383(4)
H18 H 0.9262 -0.1035 0.3295
C14 C 0.7238(10) -0.0074(4) 0.2993(3)
O3 O 0.480(6) 0.0574(12) 0.0596(8)
O4? O 0.330(6) 0.0251(11) 0.0205(9)
O5? O 0.645(4) 0.0134(14) 0.0410(9)
loop_
_geom_bond_atom_site_label_1
_geom_bond_atom_site_label_2
_geom_bond_site_symmetry_1
_geom_bond_site_symmetry_2
O1 H1 1_555 1_555
O2 H2 1_555 1_555
N1 H3 1_555 1_555
H4 N1 1_555 1_555
H5 N1 1_555 1_555
N2 H6 1_555 1_555
H7 N2 1_555 1_555
H8 N2 1_555 1_555
C1 N1 1_555 1_555
H9 C1 1_555 1_555
C2 N2 1_555 1_555
H10 C2 1_555 1_555
C3 C1 1_555 1_555
C4 O1 1_555 1_555
C5 C4 1_555 1_555
H11 C5 1_555 1_555
C6 C5 1_555 1_555
H12 C6 1_555 1_555
C7 C6 1_555 1_555
H13 C7 1_555 1_555
C8 C3 1_555 1_555
H14 C8 1_555 1_555
C9 C2 1_555 1_555
C10 C9 1_555 1_555
H15 C10 1_555 1_555
C11 C10 1_555 1_555
H16 C11 1_555 1_555
C12 C11 1_555 1_555
H17 C12 1_555 1_555
C13 C12 1_555 1_555
H18 C13 1_555 1_555
C14 O2 1_555 1_555
C1 C2 1_555 1_555
C3 C4 1_555 1_555
C7 C8 1_555 1_555
C9 C14 1_555 1_555
C13 C14 1_555 1_555

#END
