
#######################################################################
#
#                 Cambridge Crystallographic Data Centre
#                                CCDC 
#
#######################################################################
#
# If this CIF has been generated from an entry in the Cambridge 
# Structural Database, then it will include bibliographic, chemical, 
# crystal, experimental, refinement or atomic coordinate data resulting 
# from the CCDC's data processing and validation procedures.
#
#######################################################################

data_AFEXIV
_chemical_formula_moiety         'C19 H23 N1 Si1'
_chemical_name_systematic        
6,8-dimethyl-6-phenyl-3,4,5,6-tetrahydro-2H-1,5-methano-1,6-benzazasilocine
_symmetry_cell_setting           triclinic
_symmetry_space_group_name_H-M   'P -1'
_symmetry_Int_Tables_number      2
_space_group_name_Hall           '-P 1'
loop_
_symmetry_equiv_pos_site_id
_symmetry_equiv_pos_as_xyz
1 x,y,z
2 -x,-y,-z
_cell_length_a                   8.0992(3)
_cell_length_b                   9.9826(3)
_cell_length_c                   10.9592(4)
_cell_angle_alpha                94.4146(12)
_cell_angle_beta                 93.3668(12)
_cell_angle_gamma                110.8140(11)
_cell_volume                     822.25
_exptl_crystal_colour            colorless
_exptl_crystal_description       block
_cell_formula_units_Z            2
loop_
_atom_site_label
_atom_site_type_symbol
_atom_site_fract_x
_atom_site_fract_y
_atom_site_fract_z
Si1 Si 0.26880(4) 0.31911(3) 0.76210(3)
C1 C 0.36648(15) 0.52028(12) 0.76720(10)
C2 C 0.28133(16) 0.60864(13) 0.81856(11)
H1 H 0.165820 0.564020 0.843697
C3 C 0.35778(18) 0.75837(13) 0.83446(11)
C4 C 0.52734(19) 0.82093(13) 0.79752(13)
H2 H 0.584331 0.922779 0.808823
C5 C 0.61448(18) 0.73820(14) 0.74482(13)
H3 H 0.729825 0.784061 0.719859
C6 C 0.53577(16) 0.58788(13) 0.72753(10)
C7 C 0.2599(2) 0.84881(16) 0.88783(15)
H4 H 0.345420 0.939302 0.929673
H5 H 0.181649 0.796133 0.946866
H6 H 0.188907 0.869842 0.821685
N1 N 0.63426(15) 0.51134(12) 0.66960(10)
C8 C 0.53019(19) 0.36645(16) 0.60982(12)
H7 H 0.607852 0.330271 0.561293
H8 H 0.434447 0.371990 0.552306
C9 C 0.44746(18) 0.25933(14) 0.70319(12)
H9 H 0.389960 0.161066 0.657746
C10 C 0.5949(2) 0.25598(15) 0.79689(14)
H10 H 0.540206 0.198910 0.863708
H11 H 0.667412 0.207560 0.755836
C11 C 0.71501(19) 0.40670(16) 0.85209(13)
H12 H 0.648625 0.447732 0.907346
H13 H 0.817705 0.400496 0.901718
C12 C 0.78133(18) 0.50580(17) 0.75231(14)
H14 H 0.851696 0.604154 0.791247
H15 H 0.860240 0.471286 0.703633
C13 C 0.07041(16) 0.24599(12) 0.64604(11)
C14 C -0.05830(18) 0.10903(14) 0.64950(12)
H16 H -0.047155 0.053674 0.714080
C15 C -0.2016(2) 0.05193(15) 0.56127(13)
H17 H -0.286709 -0.041622 0.565549
C16 C -0.22066(19) 0.13122(15) 0.46701(13)
H18 H -0.319759 0.093085 0.407113
C17 C -0.0951(2) 0.26589(15) 0.46045(13)
H19 H -0.106871 0.320127 0.395161
C18 C 0.04850(18) 0.32265(14) 0.54873(12)
H20 H 0.133841 0.415695 0.542923
C19 C 0.2044(2) 0.26151(16) 0.91603(13)
H21 H 0.309597 0.296960 0.975496
H22 H 0.153516 0.156067 0.910412
H23 H 0.116450 0.301285 0.942952
loop_
_geom_bond_atom_site_label_1
_geom_bond_atom_site_label_2
_geom_bond_site_symmetry_1
_geom_bond_site_symmetry_2
Si1 C1 1_555 1_555
C1 C2 1_555 1_555
C2 H1 1_555 1_555
C3 C2 1_555 1_555
C4 C3 1_555 1_555
H2 C4 1_555 1_555
C5 C4 1_555 1_555
H3 C5 1_555 1_555
C6 C1 1_555 1_555
C7 C3 1_555 1_555
H4 C7 1_555 1_555
H5 C7 1_555 1_555
H6 C7 1_555 1_555
N1 C6 1_555 1_555
C8 N1 1_555 1_555
H7 C8 1_555 1_555
H8 C8 1_555 1_555
C9 Si1 1_555 1_555
H9 C9 1_555 1_555
C10 C9 1_555 1_555
H10 C10 1_555 1_555
H11 C10 1_555 1_555
C11 C10 1_555 1_555
H12 C11 1_555 1_555
H13 C11 1_555 1_555
C12 N1 1_555 1_555
H14 C12 1_555 1_555
H15 C12 1_555 1_555
C13 Si1 1_555 1_555
C14 C13 1_555 1_555
H16 C14 1_555 1_555
C15 C14 1_555 1_555
H17 C15 1_555 1_555
C16 C15 1_555 1_555
H18 C16 1_555 1_555
C17 C16 1_555 1_555
H19 C17 1_555 1_555
C18 C13 1_555 1_555
H20 C18 1_555 1_555
C19 Si1 1_555 1_555
H21 C19 1_555 1_555
H22 C19 1_555 1_555
H23 C19 1_555 1_555
C5 C6 1_555 1_555
C8 C9 1_555 1_555
C11 C12 1_555 1_555
C17 C18 1_555 1_555

#END
