
#######################################################################
#
#                 Cambridge Crystallographic Data Centre
#                                CCDC 
#
#######################################################################
#
# If this CIF has been generated from an entry in the Cambridge 
# Structural Database, then it will include bibliographic, chemical, 
# crystal, experimental, refinement or atomic coordinate data resulting 
# from the CCDC's data processing and validation procedures.
#
#######################################################################

data_AFIHUU
_chemical_formula_moiety         'C29 H23 Cl1 N4 O4'
_chemical_name_systematic        
"Ethyl 8''-chloro-1'-methyl-2,12''-dioxo-1,2-dihydro-12''H-dispiro[indole-3,2'-pyrrolidine-3',6''-indolo[2,1-b]quinazoline]-4'-carboxylate"
_symmetry_cell_setting           triclinic
_symmetry_space_group_name_H-M   'P -1'
_symmetry_Int_Tables_number      2
_space_group_name_Hall           '-P 1'
loop_
_symmetry_equiv_pos_site_id
_symmetry_equiv_pos_as_xyz
1 x,y,z
2 -x,-y,-z
_cell_length_a                   8.9341(9)
_cell_length_b                   11.7697(12)
_cell_length_c                   13.3828(14)
_cell_angle_alpha                72.776(5)
_cell_angle_beta                 89.574(5)
_cell_angle_gamma                74.995(5)
_cell_volume                     1294.63
_exptl_crystal_colour            colorless
_exptl_crystal_description       Block
_cell_formula_units_Z            2
_exptl_crystal_recrystallization_method ethanol
loop_
_atom_site_label
_atom_site_type_symbol
_atom_site_fract_x
_atom_site_fract_y
_atom_site_fract_z
C1 C -0.0433(2) 0.42790(17) 0.28795(14)
C2 C -0.1275(2) 0.3468(2) 0.33683(17)
H1 H -0.2181 0.3749 0.3671
C3 C -0.0777(2) 0.2237(2) 0.34100(18)
H2 H -0.1331 0.1679 0.3740
C4 C 0.0570(2) 0.18699(16) 0.29445(13)
C5 C 0.13927(18) 0.26916(15) 0.24246(12)
C6 C 0.08974(19) 0.39168(15) 0.23894(13)
H3 H 0.1439 0.4479 0.2048
C7 C 0.28025(17) 0.20187(13) 0.19999(12)
C8 C 0.27475(18) 0.06884(14) 0.24454(12)
C9 C 0.0961(3) -0.04311(19) 0.33813(18)
C10 C 0.2124(3) -0.15153(17) 0.32853(15)
C11 C 0.3470(2) -0.13953(15) 0.27742(13)
C12 C 0.4550(3) -0.24456(18) 0.26869(17)
H4 H 0.5443 -0.2371 0.2341
C13 C 0.4304(3) -0.3585(2) 0.3106(2)
H5 H 0.5035 -0.4283 0.3049
C14 C 0.2976(4) -0.3709(2) 0.3616(2)
H6 H 0.2822 -0.4490 0.3899
C15 C 0.1884(3) -0.2690(2) 0.3706(2)
H7 H 0.0989 -0.2779 0.4044
C16 C 0.43389(18) 0.22977(15) 0.22466(14)
H8 H 0.5202 0.1596 0.2226
C17 C 0.4423(2) 0.34102(17) 0.13268(15)
H9 H 0.4313 0.4133 0.1558
H10 H 0.5408 0.3245 0.1015
C18 C 0.4471(2) 0.24906(17) 0.32997(15)
C19 C 0.4183(4) 0.1643(3) 0.51159(19)
H11 H 0.4540 0.0815 0.5601
H12 H 0.4909 0.2102 0.5196
C20 C 0.2652(5) 0.2240(6) 0.5358(3)
H13 H 0.2310 0.3065 0.4886
H14 H 0.2695 0.2268 0.6067
H15 H 0.1936 0.1782 0.5281
C21 C 0.3407(2) 0.41556(18) -0.05185(15)
H16 H 0.4363 0.3673 -0.0684
H17 H 0.3474 0.4983 -0.0619
H18 H 0.2566 0.4173 -0.0970
C22 C 0.27177(17) 0.24447(13) 0.07722(12)
C23 C 0.38921(18) 0.14670(14) 0.03777(13)
C24 C 0.12036(17) 0.24951(14) 0.02419(12)
C25 C -0.02790(19) 0.32460(17) 0.01850(14)
H19 H -0.0480 0.3877 0.0493
C26 C -0.1467(2) 0.3041(2) -0.03426(17)
H20 H -0.2474 0.3541 -0.0387
C27 C -0.1176(2) 0.2107(2) -0.08016(17)
H21 H -0.1995 0.1973 -0.1134
C28 C 0.0317(2) 0.13666(18) -0.07758(16)
H22 H 0.0520 0.0748 -0.1097
C29 C 0.14840(19) 0.15821(15) -0.02564(13)
N1 N 0.37705(16) -0.02506(12) 0.23485(11)
N2 N 0.13797(17) 0.06638(13) 0.29362(12)
N3 N 0.31307(16) 0.36062(12) 0.05689(11)
N4 N 0.30806(16) 0.10001(13) -0.01648(12)
H23 H 0.3491 0.0415 -0.0425
O1 O -0.0250(3) -0.04254(17) 0.37966(19)
O2 O 0.4841(2) 0.33332(18) 0.34553(14)
O3 O 0.4134(2) 0.15839(14) 0.40408(11)
O4 O 0.53071(13) 0.12214(12) 0.05120(11)
Cl1 Cl -0.10529(7) 0.58059(5) 0.28817(5)
loop_
_geom_bond_atom_site_label_1
_geom_bond_atom_site_label_2
_geom_bond_site_symmetry_1
_geom_bond_site_symmetry_2
C1 C2 1_555 1_555
C2 H1 1_555 1_555
C3 C2 1_555 1_555
H2 C3 1_555 1_555
C4 C3 1_555 1_555
C5 C4 1_555 1_555
C6 C1 1_555 1_555
H3 C6 1_555 1_555
C7 C5 1_555 1_555
C8 C7 1_555 1_555
C9 C10 1_555 1_555
C10 C11 1_555 1_555
C11 C12 1_555 1_555
C12 H4 1_555 1_555
C13 C12 1_555 1_555
H5 C13 1_555 1_555
C14 C13 1_555 1_555
H6 C14 1_555 1_555
C15 C10 1_555 1_555
H7 C15 1_555 1_555
C16 C7 1_555 1_555
H8 C16 1_555 1_555
C17 C16 1_555 1_555
H9 C17 1_555 1_555
H10 C17 1_555 1_555
C18 C16 1_555 1_555
C19 H11 1_555 1_555
H12 C19 1_555 1_555
C20 C19 1_555 1_555
H13 C20 1_555 1_555
H14 C20 1_555 1_555
H15 C20 1_555 1_555
C21 H16 1_555 1_555
H17 C21 1_555 1_555
H18 C21 1_555 1_555
C22 C7 1_555 1_555
C23 C22 1_555 1_555
C24 C22 1_555 1_555
C25 C24 1_555 1_555
H19 C25 1_555 1_555
C26 C25 1_555 1_555
H20 C26 1_555 1_555
C27 C26 1_555 1_555
H21 C27 1_555 1_555
C28 C27 1_555 1_555
H22 C28 1_555 1_555
C29 C24 1_555 1_555
N1 C8 1_555 1_555
N2 C4 1_555 1_555
N3 C17 1_555 1_555
N4 C23 1_555 1_555
H23 N4 1_555 1_555
O1 C9 1_555 1_555
O2 C18 1_555 1_555
O3 C18 1_555 1_555
O4 C23 1_555 1_555
Cl1 C1 1_555 1_555
C5 C6 1_555 1_555
C8 N2 1_555 1_555
C9 N2 1_555 1_555
C11 N1 1_555 1_555
C14 C15 1_555 1_555
C19 O3 1_555 1_555
C21 N3 1_555 1_555
C22 N3 1_555 1_555
C28 C29 1_555 1_555
C29 N4 1_555 1_555

#END
