
#######################################################################
#
#                 Cambridge Crystallographic Data Centre
#                                CCDC 
#
#######################################################################
#
# If this CIF has been generated from an entry in the Cambridge 
# Structural Database, then it will include bibliographic, chemical, 
# crystal, experimental, refinement or atomic coordinate data resulting 
# from the CCDC's data processing and validation procedures.
#
#######################################################################

data_AFIKEH01
_chemical_formula_moiety         'C26 H24 B1 F2 N3 O1'
_chemical_name_systematic        
2-((4-(5,5-difluoro-1,3,7,9-tetramethyl-5H-6,5-dipyrrolo[1,2-c:2',1'-f][1,3,2]diazaborinin-10-yl)phenyl)carbonoimidoyl)phenol
_symmetry_cell_setting           triclinic
_symmetry_space_group_name_H-M   'P -1'
_symmetry_Int_Tables_number      2
_space_group_name_Hall           '-P 1'
loop_
_symmetry_equiv_pos_site_id
_symmetry_equiv_pos_as_xyz
1 x,y,z
2 -x,-y,-z
_cell_length_a                   10.2704(4)
_cell_length_b                   10.7807(5)
_cell_length_c                   11.5645(6)
_cell_angle_alpha                73.4540(10)
_cell_angle_beta                 84.803(2)
_cell_angle_gamma                62.6970(10)
_cell_volume                     1089.47
_exptl_crystal_colour            orange
_cell_formula_units_Z            2
loop_
_atom_site_label
_atom_site_type_symbol
_atom_site_fract_x
_atom_site_fract_y
_atom_site_fract_z
C1 C 1.0815(3) -0.8501(3) -0.5301(2)
H1 H 1.1372 -0.9226 -0.5703
C2 C 1.1514(3) -0.7968(3) -0.4755(2)
H2 H 1.2547 -0.8321 -0.4781
C3 C 1.0696(3) -0.6918(3) -0.4172(2)
H3 H 1.1179 -0.6564 -0.3786
C4 C 0.9169(2) -0.6362(2) -0.41378(19)
C5 C 0.8477(3) -0.6920(3) -0.4697(2)
C6 C 0.9304(3) -0.7984(3) -0.5266(2)
H4 H 0.8835 -0.8364 -0.5637
C7 C 0.8344(2) -0.5217(2) -0.35604(19)
H5 H 0.8849 -0.4838 -0.3228
C8 C 0.6160(2) -0.3576(2) -0.2917(2)
C9 C 0.6762(3) -0.3373(3) -0.1998(2)
H6 H 0.7754 -0.4003 -0.1720
C10 C 0.5908(3) -0.2245(3) -0.1488(2)
H7 H 0.6322 -0.2117 -0.0856
C11 C 0.4464(2) -0.1304(2) -0.1888(2)
C12 C 0.3873(2) -0.1534(3) -0.2793(2)
H8 H 0.2881 -0.0904 -0.3071
C13 C 0.4697(3) -0.2659(3) -0.3296(2)
H9 H 0.4265 -0.2810 -0.3903
C14 C 0.3549(2) -0.0103(2) -0.13424(19)
C15 C 0.3526(2) 0.1257(2) -0.1810(2)
C16 C 0.4410(3) 0.1720(3) -0.2666(2)
C17 C 0.5649(3) 0.0868(3) -0.3336(3)
H10 H 0.6016 0.1509 -0.3877
H11 H 0.5307 0.0444 -0.3812
H12 H 0.6439 0.0091 -0.2760
C18 C 0.3934(3) 0.3169(3) -0.2737(2)
H13 H 0.4322 0.3777 -0.3236
C19 C 0.2787(3) 0.3595(3) -0.1954(2)
C20 C 0.1929(3) 0.5048(3) -0.1743(3)
H14 H 0.0882 0.5377 -0.1890
H15 H 0.2230 0.5739 -0.2294
H16 H 0.2109 0.4988 -0.0907
C21 C 0.1093(3) 0.0267(3) 0.1046(2)
C22 C -0.0027(3) 0.1169(3) 0.1752(2)
H17 H -0.0882 0.1907 0.1219
H18 H 0.0386 0.1645 0.2105
H19 H -0.0328 0.0551 0.2398
C23 C 0.1686(3) -0.1236(3) 0.1241(2)
H20 H 0.1445 -0.1873 0.1872
C24 C 0.2675(3) -0.1645(3) 0.0367(2)
C25 C 0.3564(3) -0.3179(3) 0.0304(2)
H21 H 0.3146 -0.3789 0.0817
H22 H 0.4578 -0.3538 0.0587
H23 H 0.3551 -0.3212 -0.0532
C26 C 0.2697(2) -0.0340(2) -0.03768(19)
N1 N 0.6948(2) -0.4701(2) -0.34871(17)
N2 N 0.25495(19) 0.2439(2) -0.13833(17)
N3 N 0.17071(19) 0.0811(2) 0.00793(16)
O1 O 0.70005(19) -0.6426(2) -0.46916(17)
B1 B 0.1291(3) 0.2428(3) -0.0535(2)
F1 F -0.00303(14) 0.31105(15) -0.12062(13)
F2 F 0.11579(14) 0.31427(15) 0.03220(12)
H24 H 0.667(4) -0.566(4) -0.423(3)
loop_
_geom_bond_atom_site_label_1
_geom_bond_atom_site_label_2
_geom_bond_site_symmetry_1
_geom_bond_site_symmetry_2
C1 H1 1_555 1_555
C2 C1 1_555 1_555
H2 C2 1_555 1_555
C3 C2 1_555 1_555
H3 C3 1_555 1_555
C4 C3 1_555 1_555
C5 C4 1_555 1_555
C6 C1 1_555 1_555
H4 C6 1_555 1_555
C7 C4 1_555 1_555
H5 C7 1_555 1_555
C8 C9 1_555 1_555
C9 H6 1_555 1_555
C10 C9 1_555 1_555
H7 C10 1_555 1_555
C11 C10 1_555 1_555
C12 C11 1_555 1_555
H8 C12 1_555 1_555
C13 C8 1_555 1_555
H9 C13 1_555 1_555
C14 C11 1_555 1_555
C15 C14 1_555 1_555
C16 C15 1_555 1_555
C17 C16 1_555 1_555
H10 C17 1_555 1_555
H11 C17 1_555 1_555
H12 C17 1_555 1_555
C18 C16 1_555 1_555
H13 C18 1_555 1_555
C19 C18 1_555 1_555
C20 C19 1_555 1_555
H14 C20 1_555 1_555
H15 C20 1_555 1_555
H16 C20 1_555 1_555
C21 C22 1_555 1_555
C22 H17 1_555 1_555
H18 C22 1_555 1_555
H19 C22 1_555 1_555
C23 C21 1_555 1_555
H20 C23 1_555 1_555
C24 C23 1_555 1_555
C25 C24 1_555 1_555
H21 C25 1_555 1_555
H22 C25 1_555 1_555
H23 C25 1_555 1_555
C26 C14 1_555 1_555
N1 C7 1_555 1_555
N2 C15 1_555 1_555
N3 C21 1_555 1_555
O1 C5 1_555 1_555
B1 N2 1_555 1_555
F1 B1 1_555 1_555
F2 B1 1_555 1_555
H24 O1 1_555 1_555
C5 C6 1_555 1_555
C8 N1 1_555 1_555
C12 C13 1_555 1_555
C19 N2 1_555 1_555
C24 C26 1_555 1_555
C26 N3 1_555 1_555
N3 B1 1_555 1_555

#END
