
#######################################################################
#
#                 Cambridge Crystallographic Data Centre
#                                CCDC 
#
#######################################################################
#
# If this CIF has been generated from an entry in the Cambridge 
# Structural Database, then it will include bibliographic, chemical, 
# crystal, experimental, refinement or atomic coordinate data resulting 
# from the CCDC's data processing and validation procedures.
#
#######################################################################

data_AFILEJ
_chemical_compound_source        'Aspergillus terreus'
_chemical_formula_moiety         'C27 H36 O8'
_chemical_name_systematic        'Asperterpene H'
_chemical_properties_biological  'tested for BACE1 inhibitory activity'
_symmetry_cell_setting           tetragonal
_symmetry_space_group_name_H-M   'I 4'
_symmetry_Int_Tables_number      79
_space_group_name_Hall           'I 4'
loop_
_symmetry_equiv_pos_site_id
_symmetry_equiv_pos_as_xyz
1 x,y,z
2 -x,-y,z
3 -y,x,z
4 y,-x,z
5 1/2+x,1/2+y,1/2+z
6 1/2-x,1/2-y,1/2+z
7 1/2-y,1/2+x,1/2+z
8 1/2+y,1/2-x,1/2+z
_cell_length_a                   27.2552(4)
_cell_length_b                   27.2552(4)
_cell_length_c                   7.0051(2)
_cell_angle_alpha                90
_cell_angle_beta                 90
_cell_angle_gamma                90
_cell_volume                     5203.71
_cell_formula_units_Z            8
loop_
_atom_site_label
_atom_site_type_symbol
_atom_site_fract_x
_atom_site_fract_y
_atom_site_fract_z
C1 C 0.21801(7) 0.50485(6) 0.5514(3)
H1 H 0.2477 0.5139 0.6189
H2 H 0.2269 0.4981 0.4198
C2 C 0.18223(7) 0.54843(7) 0.5559(3)
H3 H 0.1989 0.5774 0.5084
H4 H 0.1550 0.5416 0.4707
C3 C 0.16265(7) 0.55899(6) 0.7495(3)
C4 C 0.14084(7) 0.51586(7) 0.8616(3)
C5 C 0.17726(6) 0.47199(6) 0.8439(3)
H5 H 0.2066 0.4832 0.9122
C6 C 0.16213(6) 0.42587(6) 0.9495(3)
C7 C 0.20495(6) 0.39217(6) 0.9944(3)
H6 H 0.2295 0.4112 1.0650
C8 C 0.22856(6) 0.37545(6) 0.8029(3)
C9 C 0.24027(6) 0.42114(6) 0.6773(3)
H7 H 0.2646 0.4399 0.7501
C10 C 0.19695(6) 0.45763(6) 0.6415(3)
C11 C 0.26719(7) 0.40494(7) 0.4938(3)
H8 H 0.2456 0.3843 0.4188
H9 H 0.2750 0.4337 0.4181
C12 C 0.31384(7) 0.37720(7) 0.5365(3)
C13 C 0.30652(7) 0.33110(7) 0.6594(3)
C14 C 0.27799(6) 0.34797(6) 0.8438(3)
H10 H 0.2698 0.3182 0.9158
C15 C 0.31353(6) 0.37782(6) 0.9670(3)
C16 C 0.37387(7) 0.31284(7) 0.9194(3)
C17 C 0.35599(8) 0.30863(7) 0.7143(3)
C18 C 0.43036(8) 0.31714(9) 0.9162(4)
C19 C 0.08877(8) 0.50767(9) 0.7801(4)
H11 H 0.0738 0.4802 0.8431
H12 H 0.0909 0.5012 0.6457
H13 H 0.0693 0.5365 0.8011
C20 C 0.13693(11) 0.52928(9) 1.0718(4)
H14 H 0.1689 0.5370 1.1206
H15 H 0.1235 0.5021 1.1415
H16 H 0.1159 0.5573 1.0860
C21 C 0.19095(7) 0.33960(7) 0.7127(3)
H17 H 0.1974 0.3069 0.7570
H18 H 0.1939 0.3406 0.5762
H19 H 0.1584 0.3491 0.7492
C22 C 0.15731(7) 0.43653(7) 0.5089(3)
H20 H 0.1381 0.4629 0.4566
H21 H 0.1364 0.4149 0.5801
H22 H 0.1726 0.4186 0.4070
C23 C 0.35643(8) 0.39190(10) 0.4722(4)
H23 H 0.3585 0.4201 0.3981
H24 H 0.3846 0.3741 0.5007
C24 C 0.28077(9) 0.29054(8) 0.5402(4)
H25 H 0.3036 0.2772 0.4497
H26 H 0.2533 0.3044 0.4736
H27 H 0.2695 0.2650 0.6237
C25 C 0.35854(10) 0.26869(9) 1.0367(5)
H28 H 0.3699 0.2726 1.1655
H29 H 0.3726 0.2395 0.9825
H30 H 0.3234 0.2660 1.0363
C26 C 0.4964(2) 0.3709(3) 0.8545(17)
H31 H 0.5068 0.3885 0.7412
H32 H 0.5152 0.3407 0.8621
C27 C 0.5063(4) 0.4014(5) 1.027(2)
H33 H 0.4967 0.4346 1.0015
H34 H 0.5407 0.4003 1.0554
H35 H 0.4880 0.3890 1.1333
O1 O 0.16265(6) 0.60015(5) 0.8154(2)
O2 O 0.12090(5) 0.41522(5) 0.9965(3)
O3 O 0.19208(5) 0.35113(5) 1.1065(2)
H36 H 0.1624(4) 0.3490(10) 1.123(5)
O4 O 0.30620(5) 0.41731(4) 1.0342(2)
O5 O 0.35746(5) 0.35771(5) 1.0046(3)
O6 O 0.38075(7) 0.28572(7) 0.6034(3)
O7 O 0.45712(7) 0.28600(7) 0.9700(4)
O8 O 0.44364(6) 0.35906(7) 0.8393(5)
C28? C 0.4942(4) 0.3634(4) 0.770(2)
H37? H 0.4993 0.3412 0.6633
H38? H 0.5170 0.3548 0.8703
C29? C 0.5026(4) 0.4144(4) 0.708(3)
H39? H 0.4853 0.4203 0.5905
H40? H 0.5370 0.4196 0.6884
H41? H 0.4908 0.4365 0.8042
loop_
_geom_bond_atom_site_label_1
_geom_bond_atom_site_label_2
_geom_bond_site_symmetry_1
_geom_bond_site_symmetry_2
C1 H1 1_555 1_555
H2 C1 1_555 1_555
C2 C1 1_555 1_555
H3 C2 1_555 1_555
H4 C2 1_555 1_555
C3 C2 1_555 1_555
C4 C3 1_555 1_555
C5 C4 1_555 1_555
H5 C5 1_555 1_555
C6 C5 1_555 1_555
C7 C6 1_555 1_555
H6 C7 1_555 1_555
C8 C7 1_555 1_555
C9 C8 1_555 1_555
H7 C9 1_555 1_555
C10 C1 1_555 1_555
C11 C9 1_555 1_555
H8 C11 1_555 1_555
H9 C11 1_555 1_555
C12 C11 1_555 1_555
C13 C12 1_555 1_555
C14 C8 1_555 1_555
H10 C14 1_555 1_555
C15 C14 1_555 1_555
C16 C17 1_555 1_555
C17 C13 1_555 1_555
C18 C16 1_555 1_555
C19 C4 1_555 1_555
H11 C19 1_555 1_555
H12 C19 1_555 1_555
H13 C19 1_555 1_555
C20 C4 1_555 1_555
H14 C20 1_555 1_555
H15 C20 1_555 1_555
H16 C20 1_555 1_555
C21 C8 1_555 1_555
H17 C21 1_555 1_555
H18 C21 1_555 1_555
H19 C21 1_555 1_555
C22 C10 1_555 1_555
H20 C22 1_555 1_555
H21 C22 1_555 1_555
H22 C22 1_555 1_555
C23 C12 1_555 1_555
H23 C23 1_555 1_555
H24 C23 1_555 1_555
C24 C13 1_555 1_555
H25 C24 1_555 1_555
H26 C24 1_555 1_555
H27 C24 1_555 1_555
C25 C16 1_555 1_555
H28 C25 1_555 1_555
H29 C25 1_555 1_555
H30 C25 1_555 1_555
C26 H31 1_555 1_555
H32 C26 1_555 1_555
C27 C26 1_555 1_555
H33 C27 1_555 1_555
H34 C27 1_555 1_555
H35 C27 1_555 1_555
O1 C3 1_555 1_555
O2 C6 1_555 1_555
O3 C7 1_555 1_555
H36 O3 1_555 1_555
O4 C15 1_555 1_555
O5 C15 1_555 1_555
O6 C17 1_555 1_555
O7 C18 1_555 1_555
O8 C18 1_555 1_555
C5 C10 1_555 1_555
C9 C10 1_555 1_555
C13 C14 1_555 1_555
C16 O5 1_555 1_555
C26 O8 1_555 1_555

#END
