
#######################################################################
#
#                 Cambridge Crystallographic Data Centre
#                                CCDC 
#
#######################################################################
#
# If this CIF has been generated from an entry in the Cambridge 
# Structural Database, then it will include bibliographic, chemical, 
# crystal, experimental, refinement or atomic coordinate data resulting 
# from the CCDC's data processing and validation procedures.
#
#######################################################################

data_AFILUZ
_chemical_compound_source        'Aspergillus terreus'
_chemical_formula_moiety         'C26 H34 O8'
_chemical_name_systematic        'Asperterpene E'
_chemical_properties_biological  'tested for BACE1 inhibitory activity'
_symmetry_cell_setting           orthorhombic
_symmetry_space_group_name_H-M   'P 21 21 21'
_symmetry_Int_Tables_number      19
_space_group_name_Hall           'P 2ac 2ab'
loop_
_symmetry_equiv_pos_site_id
_symmetry_equiv_pos_as_xyz
1 x,y,z
2 1/2+x,1/2-y,-z
3 -x,1/2+y,1/2-z
4 1/2-x,-y,1/2+z
_cell_length_a                   8.0835(2)
_cell_length_b                   14.1264(3)
_cell_length_c                   21.1730(4)
_cell_angle_alpha                90
_cell_angle_beta                 90
_cell_angle_gamma                90
_cell_volume                     2417.76
_exptl_crystal_colour            colorless
_exptl_crystal_description       block
_cell_formula_units_Z            4
loop_
_atom_site_label
_atom_site_type_symbol
_atom_site_fract_x
_atom_site_fract_y
_atom_site_fract_z
O1 O -0.12097(17) 0.14255(9) 0.62729(6)
O2 O 0.30340(18) 0.16358(9) 0.58148(6)
O3 O 0.68782(18) 0.20681(10) 0.94805(6)
O4 O -0.07508(18) 0.09110(9) 0.81267(7)
H1 H -0.090(4) 0.0686(19) 0.8480(14)
O5 O 0.04249(18) 0.11953(10) 0.92421(6)
O6 O 0.0491(2) 0.33192(10) 0.55266(6)
O7 O 0.17959(19) 0.04569(9) 0.63510(7)
O8 O -0.26643(17) 0.16134(10) 0.71357(6)
C1 C 0.4153(3) 0.08650(14) 0.94465(10)
H2 H 0.3398 0.0390 0.9271
H3 H 0.3735 0.1080 0.9857
H4 H 0.5253 0.0585 0.9501
C2 C 0.4267(2) 0.17101(13) 0.89939(8)
C3 C 0.2602(2) 0.22762(12) 0.89945(8)
H5 H 0.2428 0.2470 0.9444
C4 C 0.2556(2) 0.32225(12) 0.86068(8)
C5 C 0.1930(2) 0.30616(12) 0.79175(8)
H6 H 0.2800 0.2663 0.7712
C6 C 0.0289(2) 0.24936(12) 0.78364(8)
C7 C 0.0123(2) 0.23085(12) 0.71123(8)
H7 H 0.1096 0.1904 0.7003
C8 C -0.1369(2) 0.17547(13) 0.68817(9)
C9 C 0.0163(2) 0.17269(14) 0.58890(8)
C10 C 0.1746(3) 0.11829(13) 0.60594(8)
C11 C 0.4648(3) 0.12043(16) 0.59213(10)
H8 H 0.4824 0.1119 0.6376
H9 H 0.5514 0.1617 0.5750
H10 H 0.4692 0.0588 0.5710
C12 C 0.5628(3) 0.23788(14) 0.92420(8)
C13 C 0.5338(3) 0.34258(14) 0.91664(9)
H11 H 0.6417 0.3755 0.9139
H12 H 0.4749 0.3669 0.9543
C14 C 0.4321(2) 0.36437(13) 0.85744(8)
H13 H 0.4898 0.3384 0.8200
H14 H 0.4243 0.4338 0.8521
C15 C 0.1490(3) 0.39272(13) 0.89849(9)
H15 H 0.2068 0.4102 0.9375
H16 H 0.0428 0.3632 0.9090
H17 H 0.1295 0.4496 0.8730
C16 C 0.1881(2) 0.39793(11) 0.75290(8)
H18 H 0.0900 0.4358 0.7649
H19 H 0.2883 0.4361 0.7616
C17 C 0.1803(2) 0.37363(12) 0.68363(8)
C18 C 0.0250(2) 0.31848(12) 0.66556(8)
C19 C 0.0621(2) 0.15200(12) 0.81525(9)
H20 H 0.1549 0.1210 0.7919
C20 C 0.1162(2) 0.16424(12) 0.88394(8)
C21 C 0.4862(2) 0.13415(14) 0.83464(9)
H21 H 0.5973 0.1072 0.8390
H22 H 0.4891 0.1866 0.8044
H23 H 0.4099 0.0853 0.8194
C22 C -0.1246(2) 0.29588(13) 0.81317(9)
H24 H -0.2244 0.2717 0.7924
H25 H -0.1184 0.3646 0.8075
H26 H -0.1288 0.2810 0.8583
C23 C 0.0361(2) 0.28088(13) 0.59763(8)
C24 C -0.0311(3) 0.14832(14) 0.52121(9)
H27 H -0.0551 0.0805 0.5181
H28 H 0.0606 0.1643 0.4929
H29 H -0.1295 0.1846 0.5091
C25 C -0.1291(3) 0.38330(13) 0.66706(9)
H30 H -0.1336 0.4168 0.7076
H31 H -0.2291 0.3448 0.6620
H32 H -0.1223 0.4294 0.6326
C26 C 0.3041(3) 0.39397(13) 0.64494(9)
H33 H 0.4004 0.4245 0.6607
H34 H 0.2967 0.3780 0.6014
loop_
_geom_bond_atom_site_label_1
_geom_bond_atom_site_label_2
_geom_bond_site_symmetry_1
_geom_bond_site_symmetry_2
O1 C8 1_555 1_555
O2 C10 1_555 1_555
O3 C12 1_555 1_555
O4 H1 1_555 1_555
O5 C20 1_555 1_555
O6 C23 1_555 1_555
O7 C10 1_555 1_555
O8 C8 1_555 1_555
C1 H2 1_555 1_555
H3 C1 1_555 1_555
H4 C1 1_555 1_555
C2 C1 1_555 1_555
C3 C2 1_555 1_555
H5 C3 1_555 1_555
C4 C3 1_555 1_555
C5 C4 1_555 1_555
H6 C5 1_555 1_555
C6 C5 1_555 1_555
C7 C6 1_555 1_555
H7 C7 1_555 1_555
C8 C7 1_555 1_555
C9 O1 1_555 1_555
C10 C9 1_555 1_555
C11 O2 1_555 1_555
H8 C11 1_555 1_555
H9 C11 1_555 1_555
H10 C11 1_555 1_555
C12 C2 1_555 1_555
C13 C12 1_555 1_555
H11 C13 1_555 1_555
H12 C13 1_555 1_555
C14 C4 1_555 1_555
H13 C14 1_555 1_555
H14 C14 1_555 1_555
C15 C4 1_555 1_555
H15 C15 1_555 1_555
H16 C15 1_555 1_555
H17 C15 1_555 1_555
C16 C5 1_555 1_555
H18 C16 1_555 1_555
H19 C16 1_555 1_555
C17 C16 1_555 1_555
C18 C7 1_555 1_555
C19 O4 1_555 1_555
H20 C19 1_555 1_555
C20 C3 1_555 1_555
C21 C2 1_555 1_555
H21 C21 1_555 1_555
H22 C21 1_555 1_555
H23 C21 1_555 1_555
C22 C6 1_555 1_555
H24 C22 1_555 1_555
H25 C22 1_555 1_555
H26 C22 1_555 1_555
C23 C9 1_555 1_555
C24 C9 1_555 1_555
H27 C24 1_555 1_555
H28 C24 1_555 1_555
H29 C24 1_555 1_555
C25 C18 1_555 1_555
H30 C25 1_555 1_555
H31 C25 1_555 1_555
H32 C25 1_555 1_555
C26 C17 1_555 1_555
H33 C26 1_555 1_555
H34 C26 1_555 1_555
C6 C19 1_555 1_555
C13 C14 1_555 1_555
C17 C18 1_555 1_555
C18 C23 1_555 1_555
C19 C20 1_555 1_555

#END
