
#######################################################################
#
#                 Cambridge Crystallographic Data Centre
#                                CCDC 
#
#######################################################################
#
# If this CIF has been generated from an entry in the Cambridge 
# Structural Database, then it will include bibliographic, chemical, 
# crystal, experimental, refinement or atomic coordinate data resulting 
# from the CCDC's data processing and validation procedures.
#
#######################################################################

data_AFISOY
_chemical_formula_moiety         'C40 H24 B2 F12 N2 O4,C36 H44 O10'
_chemical_name_systematic        
"[2]-(4,4'-(E)-Ethene-1,2-diylbis(1-(2-(3,5-bis(trifluoromethyl)phenyl)1,3,2-benzodioxaborol-2-yl)pyridinium))-(2,5,8,11,14,16,19,22,25,28-deca-oxa-1,15(1,5)-dinaphthalenacyclo-octacosaphane)-rotaxane"
_symmetry_cell_setting           monoclinic
_symmetry_space_group_name_H-M   'P 21/c'
_symmetry_Int_Tables_number      14
_space_group_name_Hall           '-P 2ybc'
loop_
_symmetry_equiv_pos_site_id
_symmetry_equiv_pos_as_xyz
1 x,y,z
2 -x,1/2+y,1/2-z
3 -x,-y,-z
4 x,1/2-y,1/2+z
_cell_length_a                   11.7382(12)
_cell_length_b                   16.517(3)
_cell_length_c                   17.832(4)
_cell_angle_alpha                90
_cell_angle_beta                 98.670(13)
_cell_angle_gamma                90
_cell_volume                     3417.76
_exptl_crystal_colour            amber
_exptl_crystal_description       prismatic
_cell_formula_units_Z            2
_exptl_crystal_recrystallization_method chloroform
loop_
_atom_site_label
_atom_site_type_symbol
_atom_site_fract_x
_atom_site_fract_y
_atom_site_fract_z
F1 F -0.5822(7) 0.1243(4) -0.2625(5)
F2 F -0.7144(5) 0.2135(4) -0.2720(4)
F3 F -0.6102(7) 0.2030(6) -0.3604(4)
F4 F -0.6016(6) 0.4369(4) -0.0928(4)
F5 F -0.5817(6) 0.5111(3) -0.1892(4)
F6 F -0.4418(6) 0.4993(4) -0.0961(4)
O1 O -0.1143(6) 0.3592(4) -0.1813(4)
O2 O -0.1505(6) 0.2728(6) -0.2864(4)
N1 N -0.1467(6) 0.2131(5) -0.1585(5)
B1 B -0.1870(10) 0.2920(7) -0.2119(6)
C1 C -0.0283(9) 0.3652(7) -0.2251(6)
C2 C 0.0674(10) 0.4160(9) -0.2123(9)
H1 H 0.0820 0.4507 -0.1695
C3 C 0.1433(11) 0.4118(14) -0.2696(13)
H2 H 0.2100 0.4451 -0.2634
C4 C 0.1245(15) 0.3639(16) -0.3304(12)
H3 H 0.1753 0.3653 -0.3671
C5 C 0.0264(13) 0.3099(11) -0.3402(8)
H4 H 0.0141 0.2725 -0.3811
C6 C -0.0495(10) 0.3148(9) -0.2873(7)
C7 C -0.0990(8) 0.1463(7) -0.1811(7)
H5 H -0.0882 0.1410 -0.2326
C8 C -0.0640(9) 0.0829(7) -0.1295(8)
H6 H -0.0333 0.0344 -0.1469
C9 C -0.0745(9) 0.0914(8) -0.0535(7)
C10 C -0.1245(10) 0.1604(8) -0.0306(7)
H7 H -0.1344 0.1680 0.0208
C11 C -0.1594(10) 0.2172(7) -0.0839(6)
H8 H -0.1960 0.2640 -0.0678
C12 C -0.0335(9) 0.0302(7) 0.0061(7)
H9 H -0.0569 0.0352 0.0547
C13 C -0.3216(8) 0.3061(7) -0.2136(5)
C14 C -0.4025(8) 0.2498(7) -0.2469(5)
H10 H -0.3780 0.2025 -0.2703
C15 C -0.5209(8) 0.2634(6) -0.2456(5)
C16 C -0.5597(8) 0.3313(6) -0.2108(6)
H11 H -0.6398 0.3390 -0.2103
C17 C -0.4810(8) 0.3875(6) -0.1769(5)
C18 C -0.3618(9) 0.3750(6) -0.1782(6)
H12 H -0.3078 0.4136 -0.1548
C19 C -0.6048(9) 0.2017(7) -0.2855(6)
C20 C -0.5243(9) 0.4594(6) -0.1397(6)
F1B F 0.5822(7) -0.1243(4) 0.2625(5)
F2B F 0.7144(5) -0.2135(4) 0.2720(4)
F3B F 0.6102(7) -0.2030(6) 0.3604(4)
F4B F 0.6016(6) -0.4369(4) 0.0928(4)
F5B F 0.5817(6) -0.5111(3) 0.1892(4)
F6B F 0.4418(6) -0.4993(4) 0.0961(4)
O1B O 0.1143(6) -0.3592(4) 0.1813(4)
O2B O 0.1505(6) -0.2728(6) 0.2864(4)
N1B N 0.1467(6) -0.2131(5) 0.1585(5)
B1B B 0.1870(10) -0.2920(7) 0.2119(6)
C1B C 0.0283(9) -0.3652(7) 0.2251(6)
C2B C -0.0674(10) -0.4160(9) 0.2123(9)
H1B H -0.0820 -0.4507 0.1695
C3B C -0.1433(11) -0.4118(14) 0.2696(13)
H2B H -0.2100 -0.4451 0.2634
C4B C -0.1245(15) -0.3639(16) 0.3304(12)
H3B H -0.1753 -0.3653 0.3671
C5B C -0.0264(13) -0.3099(11) 0.3402(8)
H4B H -0.0141 -0.2725 0.3811
C6B C 0.0495(10) -0.3148(9) 0.2873(7)
C7B C 0.0990(8) -0.1463(7) 0.1811(7)
H5B H 0.0882 -0.1410 0.2326
C8B C 0.0640(9) -0.0829(7) 0.1295(8)
H6B H 0.0333 -0.0344 0.1469
C9B C 0.0745(9) -0.0914(8) 0.0535(7)
C10B C 0.1245(10) -0.1604(8) 0.0306(7)
H7B H 0.1344 -0.1680 -0.0208
C11B C 0.1594(10) -0.2172(7) 0.0839(6)
H8B H 0.1960 -0.2640 0.0678
C12B C 0.0335(9) -0.0302(7) -0.0061(7)
H9B H 0.0569 -0.0352 -0.0547
C13B C 0.3216(8) -0.3061(7) 0.2136(5)
C14B C 0.4025(8) -0.2498(7) 0.2469(5)
H10B H 0.3780 -0.2025 0.2703
C15B C 0.5209(8) -0.2634(6) 0.2456(5)
C16B C 0.5597(8) -0.3313(6) 0.2108(6)
H11B H 0.6398 -0.3390 0.2103
C17B C 0.4810(8) -0.3875(6) 0.1769(5)
C18B C 0.3618(9) -0.3750(6) 0.1782(6)
H12B H 0.3078 -0.4136 0.1548
C19B C 0.6048(9) -0.2017(7) 0.2855(6)
C20B C 0.5243(9) -0.4594(6) 0.1397(6)
O3 O -0.1320(7) -0.3242(6) -0.0362(5)
O4 O -0.2501(6) -0.1905(5) 0.0211(4)
O5 O -0.3830(7) 0.1618(5) 0.0200(4)
O6 O -0.3039(6) 0.3225(5) 0.0129(4)
O7 O 0.058(2) -0.429(2) -0.1183(16)
C21 C -0.055(2) -0.399(2) -0.1403(17)
H13 H -0.0916 -0.4317 -0.1837
H14 H -0.0481 -0.3428 -0.1596
C22 C -0.1381(12) -0.3955(10) -0.0831(9)
H15 H -0.2175 -0.4002 -0.1108
H16 H -0.1239 -0.4434 -0.0496
C23 C -0.2024(11) -0.3298(8) 0.0201(7)
H17 H -0.1792 -0.3771 0.0530
H18 H -0.2836 -0.3374 -0.0035
C24 C -0.1919(10) -0.2548(8) 0.0664(7)
H19 H -0.2273 -0.2628 0.1128
H20 H -0.1096 -0.2409 0.0816
C25 C -0.2583(8) -0.1146(7) 0.0542(6)
C26 C -0.3156(8) -0.0542(8) 0.0051(6)
C27 C -0.3237(8) 0.0255(7) 0.0351(6)
C28 C -0.2789(9) 0.0406(8) 0.1125(6)
H21 H -0.2850 0.0933 0.1327
C29 C -0.2281(9) -0.0182(7) 0.1573(6)
H22 H -0.1992 -0.0068 0.2088
C30 C -0.2168(9) -0.0980(8) 0.1284(6)
H23 H -0.1807 -0.1393 0.1607
C31 C -0.3658(9) -0.0713(8) -0.0718(6)
H24 H -0.3607 -0.1241 -0.0921
C32 C -0.4208(9) -0.0114(9) -0.1152(6)
H25 H -0.4551 -0.0228 -0.1658
C33 C -0.4276(9) 0.0691(9) -0.0857(6)
H26 H -0.4638 0.1109 -0.1172
C34 C -0.3830(9) 0.0852(8) -0.0138(6)
C35 C -0.4430(10) 0.2267(9) -0.0204(8)
H27 H -0.5271 0.2169 -0.0267
H28 H -0.4198 0.2316 -0.0714
C36 C -0.4129(10) 0.3033(9) 0.0247(6)
H29 H -0.4674 0.3473 0.0066
H30 H -0.4153 0.2939 0.0793
C37 C -0.2477(15) 0.3850(7) 0.0621(9)
H31 H -0.2617 0.3759 0.1149
H32 H -0.2789 0.4388 0.0454
C38 C 0.1092(12) -0.3814(8) -0.0581(11)
H33 H 0.0807 -0.3250 -0.0635
H34 H 0.0926 -0.4034 -0.0093
O3B O 0.1320(7) 0.3242(6) 0.0362(5)
O4B O 0.2501(6) 0.1905(5) -0.0211(4)
O5B O 0.3830(7) -0.1618(5) -0.0200(4)
O6B O 0.3039(6) -0.3225(5) -0.0129(4)
O7B O -0.058(2) 0.429(2) 0.1183(16)
C21B C 0.055(2) 0.399(2) 0.1403(17)
H13B H 0.0916 0.4317 0.1837
H14B H 0.0481 0.3428 0.1596
C22B C 0.1381(12) 0.3955(10) 0.0831(9)
H15B H 0.2175 0.4002 0.1108
H16B H 0.1239 0.4434 0.0496
C23B C 0.2024(11) 0.3298(8) -0.0201(7)
H17B H 0.1792 0.3771 -0.0530
H18B H 0.2836 0.3374 0.0035
C24B C 0.1919(10) 0.2548(8) -0.0664(7)
H19B H 0.2273 0.2628 -0.1128
H20B H 0.1096 0.2409 -0.0816
C25B C 0.2583(8) 0.1146(7) -0.0542(6)
C26B C 0.3156(8) 0.0542(8) -0.0051(6)
C27B C 0.3237(8) -0.0255(7) -0.0351(6)
C28B C 0.2789(9) -0.0406(8) -0.1125(6)
H21B H 0.2850 -0.0933 -0.1327
C29B C 0.2281(9) 0.0182(7) -0.1573(6)
H22B H 0.1992 0.0068 -0.2088
C30B C 0.2168(9) 0.0980(8) -0.1284(6)
H23B H 0.1807 0.1393 -0.1607
C31B C 0.3658(9) 0.0713(8) 0.0718(6)
H24B H 0.3607 0.1241 0.0921
C32B C 0.4208(9) 0.0114(9) 0.1152(6)
H25B H 0.4551 0.0228 0.1658
C33B C 0.4276(9) -0.0691(9) 0.0857(6)
H26B H 0.4638 -0.1109 0.1172
C34B C 0.3830(9) -0.0852(8) 0.0138(6)
C35B C 0.4430(10) -0.2267(9) 0.0204(8)
H27B H 0.5271 -0.2169 0.0267
H28B H 0.4198 -0.2316 0.0714
C36B C 0.4129(10) -0.3033(9) -0.0247(6)
H29B H 0.4674 -0.3473 -0.0066
H30B H 0.4153 -0.2939 -0.0793
C37B C 0.2477(15) -0.3850(7) -0.0621(9)
H31B H 0.2617 -0.3759 -0.1149
H32B H 0.2789 -0.4388 -0.0454
C38B C -0.1092(12) 0.3814(8) 0.0581(11)
H33B H -0.0807 0.3250 0.0635
H34B H -0.0926 0.4034 0.0093
O8? O -0.046(3) 0.4521(17) 0.081(2)
C39? C -0.047(4) -0.454(3) -0.052(3)
H35? H -0.0264 -0.4437 0.0034
H36? H -0.0790 -0.5093 -0.0579
loop_
_geom_bond_atom_site_label_1
_geom_bond_atom_site_label_2
_geom_bond_site_symmetry_1
_geom_bond_site_symmetry_2
F1 C19 1_555 1_555
F2 C19 1_555 1_555
F3 C19 1_555 1_555
F4 C20 1_555 1_555
F5 C20 1_555 1_555
F6 C20 1_555 1_555
O1 B1 1_555 1_555
O2 B1 1_555 1_555
N1 B1 1_555 1_555
B1 C13 1_555 1_555
C1 O1 1_555 1_555
C2 C1 1_555 1_555
H1 C2 1_555 1_555
C3 C2 1_555 1_555
H2 C3 1_555 1_555
C4 C3 1_555 1_555
H3 C4 1_555 1_555
C5 C4 1_555 1_555
H4 C5 1_555 1_555
C6 O2 1_555 1_555
C7 N1 1_555 1_555
H5 C7 1_555 1_555
C8 C7 1_555 1_555
H6 C8 1_555 1_555
C9 C8 1_555 1_555
C10 C9 1_555 1_555
H7 C10 1_555 1_555
C11 N1 1_555 1_555
H8 C11 1_555 1_555
C12 C9 1_555 1_555
H9 C12 1_555 1_555
C13 C14 1_555 1_555
C14 H10 1_555 1_555
C15 C14 1_555 1_555
C16 C15 1_555 1_555
H11 C16 1_555 1_555
C17 C16 1_555 1_555
C18 C13 1_555 1_555
H12 C18 1_555 1_555
C19 C15 1_555 1_555
C20 C17 1_555 1_555
O3 C22 1_555 1_555
O4 C24 1_555 1_555
O5 C34 1_555 1_555
O6 C36 1_555 1_555
O7 C21 1_555 1_555
C21 H13 1_555 1_555
H14 C21 1_555 1_555
C22 C21 1_555 1_555
H15 C22 1_555 1_555
H16 C22 1_555 1_555
C23 O3 1_555 1_555
H17 C23 1_555 1_555
H18 C23 1_555 1_555
C24 C23 1_555 1_555
H19 C24 1_555 1_555
H20 C24 1_555 1_555
C25 O4 1_555 1_555
C26 C25 1_555 1_555
C27 C26 1_555 1_555
C28 C27 1_555 1_555
H21 C28 1_555 1_555
C29 C28 1_555 1_555
H22 C29 1_555 1_555
C30 C25 1_555 1_555
H23 C30 1_555 1_555
C31 C26 1_555 1_555
H24 C31 1_555 1_555
C32 C31 1_555 1_555
H25 C32 1_555 1_555
C33 C32 1_555 1_555
H26 C33 1_555 1_555
C34 C27 1_555 1_555
C35 O5 1_555 1_555
H27 C35 1_555 1_555
H28 C35 1_555 1_555
C36 C35 1_555 1_555
H29 C36 1_555 1_555
H30 C36 1_555 1_555
C37 O6 1_555 1_555
H31 C37 1_555 1_555
H32 C37 1_555 1_555
C38 O7 1_555 1_555
H33 C38 1_555 1_555
H34 C38 1_555 1_555
F1B C19B 1_555 1_555
F2B C19B 1_555 1_555
F3B C19B 1_555 1_555
F4B C20B 1_555 1_555
F5B C20B 1_555 1_555
F6B C20B 1_555 1_555
O1B B1B 1_555 1_555
O2B B1B 1_555 1_555
N1B B1B 1_555 1_555
B1B C13B 1_555 1_555
C1B O1B 1_555 1_555
C2B C1B 1_555 1_555
H1B C2B 1_555 1_555
C3B C2B 1_555 1_555
H2B C3B 1_555 1_555
C4B C3B 1_555 1_555
H3B C4B 1_555 1_555
C5B C4B 1_555 1_555
H4B C5B 1_555 1_555
C6B O2B 1_555 1_555
C7B N1B 1_555 1_555
H5B C7B 1_555 1_555
C8B C7B 1_555 1_555
H6B C8B 1_555 1_555
C9B C8B 1_555 1_555
C10B C9B 1_555 1_555
H7B C10B 1_555 1_555
C11B N1B 1_555 1_555
H8B C11B 1_555 1_555
C12B C12 1_555 1_555
H9B C12B 1_555 1_555
C13B C14B 1_555 1_555
C14B H10B 1_555 1_555
C15B C14B 1_555 1_555
C16B C15B 1_555 1_555
H11B C16B 1_555 1_555
C17B C16B 1_555 1_555
C18B C13B 1_555 1_555
H12B C18B 1_555 1_555
C19B C15B 1_555 1_555
C20B C17B 1_555 1_555
O3B C22B 1_555 1_555
O4B C24B 1_555 1_555
O5B C34B 1_555 1_555
O6B C36B 1_555 1_555
O7B C21B 1_555 1_555
C21B H13B 1_555 1_555
H14B C21B 1_555 1_555
C22B C21B 1_555 1_555
H15B C22B 1_555 1_555
H16B C22B 1_555 1_555
C23B O3B 1_555 1_555
H17B C23B 1_555 1_555
H18B C23B 1_555 1_555
C24B C23B 1_555 1_555
H19B C24B 1_555 1_555
H20B C24B 1_555 1_555
C25B O4B 1_555 1_555
C26B C25B 1_555 1_555
C27B C26B 1_555 1_555
C28B C27B 1_555 1_555
H21B C28B 1_555 1_555
C29B C28B 1_555 1_555
H22B C29B 1_555 1_555
C30B C25B 1_555 1_555
H23B C30B 1_555 1_555
C31B C26B 1_555 1_555
H24B C31B 1_555 1_555
C32B C31B 1_555 1_555
H25B C32B 1_555 1_555
C33B C32B 1_555 1_555
H26B C33B 1_555 1_555
C34B C27B 1_555 1_555
C35B O5B 1_555 1_555
H27B C35B 1_555 1_555
H28B C35B 1_555 1_555
C36B C35B 1_555 1_555
H29B C36B 1_555 1_555
H30B C36B 1_555 1_555
C37B C38 1_555 1_555
H31B C37B 1_555 1_555
H32B C37B 1_555 1_555
C38B C37 1_555 1_555
H33B C38B 1_555 1_555
H34B C38B 1_555 1_555
C1 C6 1_555 1_555
C5 C6 1_555 1_555
C10 C11 1_555 1_555
C17 C18 1_555 1_555
C29 C30 1_555 1_555
C33 C34 1_555 1_555
C1B C6B 1_555 1_555
C5B C6B 1_555 1_555
C9B C12B 1_555 1_555
C10B C11B 1_555 1_555
C17B C18B 1_555 1_555
O6B C37B 1_555 1_555
O7B C38B 1_555 1_555
C29B C30B 1_555 1_555
C33B C34B 1_555 1_555

#END
