
#######################################################################
#
#                 Cambridge Crystallographic Data Centre
#                                CCDC 
#
#######################################################################
#
# If this CIF has been generated from an entry in the Cambridge 
# Structural Database, then it will include bibliographic, chemical, 
# crystal, experimental, refinement or atomic coordinate data resulting 
# from the CCDC's data processing and validation procedures.
#
#######################################################################

data_AFIYIZ
_chemical_name_common            
'N$2!-(4-Methoxysalicylidene)arginine hemihydrate'
_chemical_formula_moiety         '2(C14 H20 N4 O4),H2 O1'
_chemical_name_systematic        
'(2S)-5-((Diaminomethylene)ammonio)-2-((4-methoxy-2-oxidobenzylidene)ammonio)pentanoate hemihydrate'
_symmetry_cell_setting           monoclinic
_symmetry_space_group_name_H-M   'P 21'
_symmetry_Int_Tables_number      4
_space_group_name_Hall           'P 2yb'
loop_
_symmetry_equiv_pos_site_id
_symmetry_equiv_pos_as_xyz
1 x,y,z
2 -x,1/2+y,-z
_cell_length_a                   10.1828(11)
_cell_length_b                   10.3414(11)
_cell_length_c                   15.5542(16)
_cell_angle_alpha                90
_cell_angle_beta                 102.688(2)
_cell_angle_gamma                90
_cell_volume                     1597.93
_exptl_crystal_colour            yellow
_exptl_crystal_description       block
_cell_formula_units_Z            2
loop_
_atom_site_label
_atom_site_type_symbol
_atom_site_fract_x
_atom_site_fract_y
_atom_site_fract_z
C1 C 0.1564(4) 1.2584(4) 0.5422(3)
H1 H 0.1669 1.3231 0.5874
H2 H 0.0660 1.2607 0.5074
H3 H 0.2185 1.2750 0.5051
C2 C 0.1744(3) 1.0292(4) 0.5285(2)
C3 C 0.2238(4) 0.9149(4) 0.5704(2)
H4 H 0.2572 0.9129 0.6310
C4 C 0.2224(3) 0.8064(4) 0.5214(2)
H5 H 0.2571 0.7303 0.5492
C5 C 0.1703(3) 0.8047(3) 0.4296(2)
C6 C 0.1152(4) 0.9209(3) 0.3871(2)
C7 C 0.1196(4) 1.0328(4) 0.4389(2)
H6 H 0.0853 1.1101 0.4127
C8 C 0.1721(3) 0.6905(3) 0.3831(2)
H7 H 0.2109 0.6185 0.4146
C9 C 0.1152(3) 0.5543(3) 0.2513(2)
H8 H 0.2055 0.5167 0.2598
C10 C 0.0613(4) 0.5805(3) 0.1526(2)
C11 C 0.0248(4) 0.4611(3) 0.2890(2)
H9 H 0.0645 0.4484 0.3510
H10 H -0.0618 0.5025 0.2849
C12 C 0.0006(4) 0.3291(3) 0.2457(2)
H11 H -0.0534 0.2779 0.2773
H12 H -0.0510 0.3401 0.1859
C13 C 0.1279(4) 0.2552(3) 0.2433(2)
H13 H 0.1827 0.3057 0.2120
H14 H 0.1792 0.2420 0.3030
C14 C 0.0664(3) 0.1157(3) 0.1148(2)
N1 N 0.1241(3) 0.6759(3) 0.29926(18)
N2 N 0.0979(3) 0.1312(3) 0.20033(17)
H15 H 0.1009 0.0637 0.2330
N3 N 0.0323(4) -0.0009(3) 0.0810(2)
N4 N 0.0709(3) 0.2127(3) 0.06010(18)
O1 O 0.1831(3) 1.1333(3) 0.58193(18)
O2 O 0.0628(3) 0.9232(2) 0.30397(14)
O3 O 0.0088(3) 0.6877(3) 0.13073(16)
O4 O 0.0710(3) 0.4893(2) 0.10247(15)
H16 H 0.081(3) 0.2932(15) 0.082(2)
H17 H 0.056(4) 0.205(4) 0.0015(7)
H18 H 0.021(4) -0.064(3) 0.118(2)
H19 H 0.003(3) -0.009(4) 0.0228(8)
H20 H 0.083(3) 0.744(2) 0.271(2)
C15 C 0.6713(5) -0.0130(4) 0.0132(3)
H21 H 0.6971 -0.0757 -0.0255
H22 H 0.5757 -0.0169 0.0082
H23 H 0.7165 -0.0313 0.0728
C16 C 0.6801(4) 0.2145(4) 0.0364(2)
C17 C 0.7369(4) 0.3301(4) 0.0165(2)
H24 H 0.7866 0.3324 -0.0270
C18 C 0.7196(4) 0.4378(4) 0.0602(2)
H25 H 0.7587 0.5146 0.0472
C19 C 0.6423(3) 0.4371(3) 0.1264(2)
C20 C 0.5796(4) 0.3217(3) 0.1448(2)
C21 C 0.6024(4) 0.2094(4) 0.0976(2)
H26 H 0.5639 0.1313 0.1086
C22 C 0.6243(3) 0.5520(3) 0.1693(2)
H27 H 0.6677 0.6254 0.1550
C23 C 0.5306(4) 0.6853(3) 0.2695(2)
H28 H 0.6141 0.7357 0.2800
C24 C 0.4951(3) 0.6572(3) 0.3579(2)
C25 C 0.4207(4) 0.7613(3) 0.2061(2)
H29 H 0.4490 0.7738 0.1510
H30 H 0.3392 0.7097 0.1935
C26 C 0.3882(4) 0.8927(3) 0.2403(2)
H31 H 0.3201 0.9348 0.1956
H32 H 0.3509 0.8803 0.2920
C27 C 0.5096(4) 0.9796(3) 0.2639(2)
H33 H 0.5780 0.9366 0.3078
H34 H 0.5460 0.9925 0.2119
C28 C 0.4773(3) 1.1249(3) 0.3797(2)
N5 N 0.5525(3) 0.5643(3) 0.22704(17)
N6 N 0.4817(4) 1.1051(3) 0.29785(19)
H35 H 0.4674 1.1695 0.2620
N7 N 0.4545(3) 1.2428(3) 0.40673(19)
N8 N 0.4954(4) 1.0294(3) 0.43757(19)
O5 O 0.7073(3) 0.1124(3) -0.01041(17)
O6 O 0.5054(3) 0.3186(3) 0.20185(19)
O7 O 0.5093(3) 0.7516(3) 0.40963(15)
O8 O 0.4554(3) 0.5477(2) 0.37124(16)
H36 H 0.459(4) 1.306(3) 0.3681(19)
H37 H 0.461(3) 1.251(3) 0.4649(8)
H38 H 0.492(4) 0.9466(15) 0.420(2)
H39 H 0.492(4) 1.045(4) 0.4935(10)
H40 H 0.513(3) 0.493(2) 0.241(2)
O9 O 0.8113(4) 0.8224(5) 0.2043(3)
H41 H 0.834(6) 0.892(5) 0.244(4)
H42 H 0.889(4) 0.783(6) 0.194(5)
loop_
_geom_bond_atom_site_label_1
_geom_bond_atom_site_label_2
_geom_bond_site_symmetry_1
_geom_bond_site_symmetry_2
C1 H1 1_555 1_555
H2 C1 1_555 1_555
H3 C1 1_555 1_555
C2 C3 1_555 1_555
C3 H4 1_555 1_555
C4 C3 1_555 1_555
H5 C4 1_555 1_555
C5 C4 1_555 1_555
C6 C5 1_555 1_555
C7 C2 1_555 1_555
H6 C7 1_555 1_555
C8 C5 1_555 1_555
H7 C8 1_555 1_555
C9 H8 1_555 1_555
C10 C9 1_555 1_555
C11 C9 1_555 1_555
H9 C11 1_555 1_555
H10 C11 1_555 1_555
C12 C11 1_555 1_555
H11 C12 1_555 1_555
H12 C12 1_555 1_555
C13 C12 1_555 1_555
H13 C13 1_555 1_555
H14 C13 1_555 1_555
C14 N2 1_555 1_555
N1 C8 1_555 1_555
N2 C13 1_555 1_555
H15 N2 1_555 1_555
N3 C14 1_555 1_555
N4 C14 1_555 1_555
O1 C1 1_555 1_555
O2 C6 1_555 1_555
O3 C10 1_555 1_555
O4 C10 1_555 1_555
H16 N4 1_555 1_555
H17 N4 1_555 1_555
H18 N3 1_555 1_555
H19 N3 1_555 1_555
H20 N1 1_555 1_555
C15 H21 1_555 1_555
H22 C15 1_555 1_555
H23 C15 1_555 1_555
C16 C17 1_555 1_555
C17 H24 1_555 1_555
C18 C17 1_555 1_555
H25 C18 1_555 1_555
C19 C18 1_555 1_555
C20 C19 1_555 1_555
C21 C16 1_555 1_555
H26 C21 1_555 1_555
C22 C19 1_555 1_555
H27 C22 1_555 1_555
C23 H28 1_555 1_555
C24 C23 1_555 1_555
C25 C23 1_555 1_555
H29 C25 1_555 1_555
H30 C25 1_555 1_555
C26 C25 1_555 1_555
H31 C26 1_555 1_555
H32 C26 1_555 1_555
C27 C26 1_555 1_555
H33 C27 1_555 1_555
H34 C27 1_555 1_555
C28 N6 1_555 1_555
N5 C22 1_555 1_555
N6 C27 1_555 1_555
H35 N6 1_555 1_555
N7 C28 1_555 1_555
N8 C28 1_555 1_555
O5 C15 1_555 1_555
O6 C20 1_555 1_555
O7 C24 1_555 1_555
O8 C24 1_555 1_555
H36 N7 1_555 1_555
H37 N7 1_555 1_555
H38 N8 1_555 1_555
H39 N8 1_555 1_555
H40 N5 1_555 1_555
O9 H41 1_555 1_555
H42 O9 1_555 1_555
C2 O1 1_555 1_555
C6 C7 1_555 1_555
C9 N1 1_555 1_555
C16 O5 1_555 1_555
C20 C21 1_555 1_555
C23 N5 1_555 1_555

#END
