
#######################################################################
#
#                 Cambridge Crystallographic Data Centre
#                                CCDC 
#
#######################################################################
#
# If this CIF has been generated from an entry in the Cambridge 
# Structural Database, then it will include bibliographic, chemical, 
# crystal, experimental, refinement or atomic coordinate data resulting 
# from the CCDC's data processing and validation procedures.
#
#######################################################################

data_AFIZOH
_chemical_formula_moiety         
'3(C1 H6 N3 1+),C24 H15 O9 S3 3-,2.46(C9 H14 O1),0.46(C6 F6),x(C1 H4 O1)'
_chemical_name_systematic        
'tris(Guanidinium) 1,3,5-tris(4-sulfonatophenyl)benzene bis(isophorone) hexafluorobenzene clathrate methanol solvate'
_symmetry_cell_setting           monoclinic
_symmetry_space_group_name_H-M   'P 21'
_symmetry_Int_Tables_number      4
_space_group_name_Hall           'P 2yb'
loop_
_symmetry_equiv_pos_site_id
_symmetry_equiv_pos_as_xyz
1 x,y,z
2 -x,1/2+y,-z
_cell_length_a                   23.775(19)
_cell_length_b                   7.455(6)
_cell_length_c                   24.128(19)
_cell_angle_alpha                90
_cell_angle_beta                 119.330(7)
_cell_angle_gamma                90
_cell_volume                     3728.32
_exptl_crystal_colour            colorless
_exptl_crystal_description       needle
_cell_formula_units_Z            2
_exptl_crystal_preparation       
'The crystal was exposed to 25% v/v hexafluorobenzene/hexane vapour for a total of 15 minutes (an 8 minute and a 7 minute exposure) at room temperature prior to data collection.'
loop_
_atom_site_label
_atom_site_type_symbol
_atom_site_fract_x
_atom_site_fract_y
_atom_site_fract_z
N1 N 0.1452(8) 0.083(3) 0.2890(9)
H16 H 0.132566 0.182615 0.299069
H17 H 0.131400 -0.021446 0.294747
N2 N 0.2073(11) 0.233(3) 0.2553(11)
H18 H 0.196587 0.337435 0.264307
H19 H 0.233539 0.227645 0.239339
N3 N 0.2056(11) -0.080(3) 0.2549(11)
H20 H 0.234030 -0.085032 0.241534
H21 H 0.190109 -0.179310 0.261790
C25 C 0.1848(11) 0.089(4) 0.2653(12)
N4 N 0.7195(9) 0.083(3) 0.8615(8)
H22 H 0.710345 0.181027 0.838479
H23 H 0.715058 -0.022810 0.843481
N5 N 0.7478(12) 0.230(3) 0.9533(11)
H24 H 0.739955 0.334598 0.934302
H25 H 0.761626 0.223369 0.994390
N6 N 0.7522(12) -0.079(3) 0.9562(10)
H26 H 0.765139 -0.082189 0.997209
H27 H 0.746656 -0.180272 0.935183
C26 C 0.7398(13) 0.094(4) 0.9229(11)
N7 N 0.1369(9) 0.089(3) 0.8539(8)
H28 H 0.158178 0.188904 0.870153
H29 H 0.156888 -0.015161 0.865823
N8 N 0.0475(11) 0.231(3) 0.7954(10)
H30 H 0.066701 0.335047 0.810239
H31 H 0.006159 0.228037 0.767140
N9 N 0.0424(11) -0.076(3) 0.7875(10)
H32 H 0.000963 -0.073918 0.759709
H33 H 0.062871 -0.179261 0.799734
C27 C 0.0778(12) 0.094(4) 0.8137(11)
O10 O -0.0939(8) -0.004(3) 0.4312(9)
C28 C -0.0635(9) 0.123(3) 0.4269(11)
C29 C -0.0883(12) 0.294(3) 0.3940(14)
H34 H -0.131342 0.323072 0.383281
C30 C -0.0578(9) 0.412(3) 0.3775(12)
C31 C 0.0121(9) 0.388(3) 0.3990(12)
H35 H 0.037154 0.462378 0.437498
H36 H 0.020755 0.435173 0.365471
C32 C 0.0370(8) 0.193(3) 0.4142(8)
C33 C 0.0082(9) 0.110(4) 0.4533(11)
H37 H 0.020174 -0.018263 0.459702
H38 H 0.029372 0.167695 0.495712
C34 C -0.0878(13) 0.581(4) 0.3425(13)
H39 H -0.053846 0.666209 0.348439
H40 H -0.114421 0.633696 0.359083
H41 H -0.114819 0.555087 0.297172
C35 C 0.1104(8) 0.186(4) 0.4524(11)
H42 H 0.124369 0.060312 0.460448
H43 H 0.125250 0.248125 0.492984
H44 H 0.128634 0.243968 0.428366
C36 C 0.0127(12) 0.080(4) 0.3531(10)
H45 H -0.021287 -0.001978 0.349497
H46 H 0.048536 0.009874 0.355126
H47 H -0.004743 0.159038 0.315985
O11 O 0.4362(11) 0.494(3) 0.5287(10)
C37 C 0.4255(15) 0.619(4) 0.4898(14)
C38 C 0.3869(15) 0.784(4) 0.4778(14)
H48 H 0.365018 0.797333 0.501582
C39 C 0.3794(13) 0.913(3) 0.4387(12)
C40 C 0.3999(16) 0.889(4) 0.3892(14)
H49 H 0.439087 0.961920 0.401559
H50 H 0.365445 0.936471 0.348243
C41 C 0.4142(11) 0.695(3) 0.3789(10)
C42 C 0.4511(13) 0.605(4) 0.4442(10)
H51 H 0.455088 0.476313 0.437074
H52 H 0.495335 0.655678 0.465581
C43 C 0.3445(15) 1.086(4) 0.4329(15)
H53 H 0.371672 1.187164 0.434788
H54 H 0.334764 1.095376 0.467862
H55 H 0.304126 1.088296 0.392232
C44 C 0.4547(15) 0.686(5) 0.3447(15)
H56 H 0.472352 0.564977 0.348677
H57 H 0.490213 0.772650 0.364105
H58 H 0.427309 0.715241 0.299616
C45 C 0.3533(13) 0.581(5) 0.3393(14)
H59 H 0.362544 0.489225 0.315712
H60 H 0.318330 0.658472 0.309268
H61 H 0.340297 0.522660 0.367643
O12 O 0.5266(9) -0.010(3) 1.0953(10)
C46 C 0.4896(12) 0.116(3) 1.0643(11)
C47 C 0.4775(16) 0.282(4) 1.0899(14)
H62 H 0.503144 0.296838 1.134609
C48 C 0.4369(15) 0.411(4) 1.0603(12)
C49 C 0.3907(14) 0.386(4) 0.9907(12)
H63 H 0.406863 0.456923 0.966590
H64 H 0.348629 0.438233 0.981327
C50 C 0.3793(10) 0.192(3) 0.9657(10)
C51 C 0.4453(12) 0.100(5) 0.9930(12)
H65 H 0.437924 -0.029077 0.982137
H66 H 0.468057 0.150006 0.971436
C52 C 0.4300(17) 0.581(5) 1.0892(16)
H67 H 0.442779 0.682739 1.072067
H68 H 0.457779 0.576244 1.135437
H69 H 0.384996 0.595768 1.079007
C53 C 0.3437(17) 0.179(5) 0.8924(12)
H70 H 0.347069 0.055710 0.879829
H71 H 0.363328 0.261657 0.875235
H72 H 0.298160 0.209632 0.875511
C54 C 0.3413(13) 0.083(5) 0.9910(14)
H73 H 0.366431 -0.022865 1.013913
H74 H 0.299977 0.044399 0.955222
H75 H 0.333316 0.157607 1.019848
F1 F 0.7310(13) 0.545(2) 0.4640(9)
F2 F 0.6030(14) 0.5469(14) 0.4027(13)
F3 F 0.5349(9) 0.548(3) 0.2689(15)
F4 F 0.5974(13) 0.548(4) 0.2046(9)
F5 F 0.7324(13) 0.547(4) 0.2689(13)
F6 F 0.7968(9) 0.545(4) 0.3953(15)
C55 C 0.6970(11) 0.5465(16) 0.4001(7)
C56 C 0.6300(11) 0.5470(12) 0.3654(11)
C57 C 0.5990(7) 0.5473(19) 0.2993(11)
C58 C 0.6349(11) 0.547(3) 0.2680(7)
C59 C 0.7019(11) 0.547(3) 0.3028(11)
C60 C 0.7330(7) 0.546(2) 0.3689(10)
S1 S 0.1306(3) 0.5799(16) 0.3148(3)
S2 S 0.6912(3) 0.5771(16) 0.8207(3)
S3 S 0.1805(3) 0.5793(16) 0.8709(3)
O1 O 0.0915(9) 0.429(2) 0.2967(8)
O2 O 0.1732(7) 0.583(3) 0.2888(7)
O3 O 0.0913(8) 0.752(2) 0.3015(8)
O4 O 0.7094(9) 0.424(2) 0.8006(8)
O5 O 0.7155(7) 0.580(3) 0.8882(7)
O6 O 0.7044(9) 0.749(2) 0.7936(8)
O7 O 0.2033(8) 0.428(2) 0.9120(7)
O8 O 0.1147(7) 0.586(2) 0.8301(6)
O9 O 0.2054(8) 0.751(2) 0.9081(7)
C1 C 0.2955(5) 0.544(2) 0.6028(4)
C2 C 0.3623(5) 0.544(2) 0.6302(5)
H1 H 0.381805 0.545399 0.604044
C3 C 0.4005(4) 0.543(2) 0.6960(5)
C4 C 0.3720(5) 0.541(2) 0.7344(4)
H2 H 0.398122 0.540506 0.779311
C5 C 0.3051(6) 0.541(2) 0.7069(5)
C6 C 0.2669(4) 0.543(2) 0.6411(5)
H3 H 0.221208 0.542578 0.622369
C7 C 0.2545(6) 0.548(2) 0.5316(4)
C8 C 0.1969(6) 0.644(2) 0.5044(5)
H4 H 0.182814 0.700486 0.530694
C9 C 0.1599(5) 0.656(2) 0.4386(6)
H5 H 0.120504 0.721635 0.420009
C10 C 0.1804(6) 0.573(3) 0.4001(4)
C11 C 0.2380(6) 0.478(2) 0.4273(5)
H6 H 0.252094 0.421209 0.400935
C12 C 0.2750(5) 0.465(2) 0.4930(6)
H7 H 0.314409 0.400068 0.511620
C13 C 0.4729(4) 0.547(2) 0.7272(6)
C14 C 0.5019(6) 0.641(2) 0.6980(5)
H8 H 0.476014 0.697935 0.658189
C15 C 0.5688(6) 0.651(2) 0.7269(6)
H9 H 0.588568 0.714543 0.706984
C16 C 0.6067(4) 0.567(3) 0.7851(6)
C17 C 0.5777(6) 0.474(2) 0.8143(5)
H10 H 0.603576 0.416462 0.854116
C18 C 0.5108(6) 0.464(2) 0.7854(6)
H11 H 0.491023 0.399853 0.805323
C19 C 0.2755(7) 0.555(2) 0.7486(6)
C20 C 0.3053(6) 0.644(2) 0.8066(6)
H12 H 0.345915 0.700415 0.820723
C21 C 0.2757(7) 0.651(2) 0.8440(5)
H13 H 0.296067 0.712184 0.883603
C22 C 0.2162(7) 0.569(2) 0.8233(6)
C23 C 0.1864(6) 0.480(2) 0.7653(6)
H14 H 0.145776 0.423332 0.751206
C24 C 0.2160(7) 0.473(2) 0.7280(5)
H15 H 0.195625 0.411562 0.688325
loop_
_geom_bond_atom_site_label_1
_geom_bond_atom_site_label_2
_geom_bond_site_symmetry_1
_geom_bond_site_symmetry_2
S1 O1 1_555 1_555
S2 O4 1_555 1_555
S3 O7 1_555 1_555
O2 S1 1_555 1_555
O3 S1 1_555 1_555
O5 S2 1_555 1_555
O6 S2 1_555 1_555
O8 S3 1_555 1_555
O9 S3 1_555 1_555
C1 C2 1_555 1_555
C2 H1 1_555 1_555
C3 C2 1_555 1_555
C4 C3 1_555 1_555
H2 C4 1_555 1_555
C5 C4 1_555 1_555
C6 C1 1_555 1_555
H3 C6 1_555 1_555
C7 C1 1_555 1_555
C8 C7 1_555 1_555
H4 C8 1_555 1_555
C9 C8 1_555 1_555
H5 C9 1_555 1_555
C10 S1 1_555 1_555
C11 C10 1_555 1_555
H6 C11 1_555 1_555
C12 C7 1_555 1_555
H7 C12 1_555 1_555
C13 C3 1_555 1_555
C14 C13 1_555 1_555
H8 C14 1_555 1_555
C15 C14 1_555 1_555
H9 C15 1_555 1_555
C16 S2 1_555 1_555
C17 C16 1_555 1_555
H10 C17 1_555 1_555
C18 C13 1_555 1_555
H11 C18 1_555 1_555
C19 C5 1_555 1_555
C20 C19 1_555 1_555
H12 C20 1_555 1_555
C21 C20 1_555 1_555
H13 C21 1_555 1_555
C22 S3 1_555 1_555
C23 C22 1_555 1_555
H14 C23 1_555 1_555
C24 C19 1_555 1_555
H15 C24 1_555 1_555
N1 H16 1_555 1_555
H17 N1 1_555 1_555
N2 H18 1_555 1_555
H19 N2 1_555 1_555
N3 H20 1_555 1_555
H21 N3 1_555 1_555
C25 N1 1_555 1_555
N4 H22 1_555 1_555
H23 N4 1_555 1_555
N5 H24 1_555 1_555
H25 N5 1_555 1_555
N6 H26 1_555 1_555
H27 N6 1_555 1_555
C26 N4 1_555 1_555
N7 H28 1_555 1_555
H29 N7 1_555 1_555
N8 H30 1_555 1_555
H31 N8 1_555 1_555
N9 H32 1_555 1_555
H33 N9 1_555 1_555
C27 N7 1_555 1_555
O10 C28 1_555 1_555
C28 C29 1_555 1_555
C29 H34 1_555 1_555
C30 C29 1_555 1_555
C31 C30 1_555 1_555
H35 C31 1_555 1_555
H36 C31 1_555 1_555
C32 C31 1_555 1_555
C33 C28 1_555 1_555
H37 C33 1_555 1_555
H38 C33 1_555 1_555
C34 C30 1_555 1_555
H39 C34 1_555 1_555
H40 C34 1_555 1_555
H41 C34 1_555 1_555
C35 C32 1_555 1_555
H42 C35 1_555 1_555
H43 C35 1_555 1_555
H44 C35 1_555 1_555
C36 C32 1_555 1_555
H45 C36 1_555 1_555
H46 C36 1_555 1_555
H47 C36 1_555 1_555
O11 C37 1_555 1_555
C37 C38 1_555 1_555
C38 H48 1_555 1_555
C39 C38 1_555 1_555
C40 C39 1_555 1_555
H49 C40 1_555 1_555
H50 C40 1_555 1_555
C41 C40 1_555 1_555
C42 C37 1_555 1_555
H51 C42 1_555 1_555
H52 C42 1_555 1_555
C43 C39 1_555 1_555
H53 C43 1_555 1_555
H54 C43 1_555 1_555
H55 C43 1_555 1_555
C44 C41 1_555 1_555
H56 C44 1_555 1_555
H57 C44 1_555 1_555
H58 C44 1_555 1_555
C45 C41 1_555 1_555
H59 C45 1_555 1_555
H60 C45 1_555 1_555
H61 C45 1_555 1_555
O12 C46 1_555 1_555
C46 C47 1_555 1_555
C47 H62 1_555 1_555
C48 C47 1_555 1_555
C49 C48 1_555 1_555
H63 C49 1_555 1_555
H64 C49 1_555 1_555
C50 C49 1_555 1_555
C51 C46 1_555 1_555
H65 C51 1_555 1_555
H66 C51 1_555 1_555
C52 C48 1_555 1_555
H67 C52 1_555 1_555
H68 C52 1_555 1_555
H69 C52 1_555 1_555
C53 C50 1_555 1_555
H70 C53 1_555 1_555
H71 C53 1_555 1_555
H72 C53 1_555 1_555
C54 C50 1_555 1_555
H73 C54 1_555 1_555
H74 C54 1_555 1_555
H75 C54 1_555 1_555
F1 C55 1_555 1_555
F2 C56 1_555 1_555
F3 C57 1_555 1_555
F4 C58 1_555 1_555
F5 C59 1_555 1_555
F6 C60 1_555 1_555
C55 C56 1_555 1_555
C56 C57 1_555 1_555
C57 C58 1_555 1_555
C58 C59 1_555 1_555
C59 C60 1_555 1_555
C60 C55 1_555 1_555
C5 C6 1_555 1_555
C9 C10 1_555 1_555
C11 C12 1_555 1_555
C15 C16 1_555 1_555
C17 C18 1_555 1_555
C21 C22 1_555 1_555
C23 C24 1_555 1_555
N2 C25 1_555 1_555
N3 C25 1_555 1_555
N5 C26 1_555 1_555
N6 C26 1_555 1_555
N8 C27 1_555 1_555
N9 C27 1_555 1_555
C32 C33 1_555 1_555
C41 C42 1_555 1_555
C50 C51 1_555 1_555

#END
