
#######################################################################
#
#                 Cambridge Crystallographic Data Centre
#                                CCDC 
#
#######################################################################
#
# If this CIF has been generated from an entry in the Cambridge 
# Structural Database, then it will include bibliographic, chemical, 
# crystal, experimental, refinement or atomic coordinate data resulting 
# from the CCDC's data processing and validation procedures.
#
#######################################################################

data_AFIZIB
_chemical_formula_moiety         
'3(C1 H6 N3 1+),C24 H15 O9 S3 3-,2.54(C9 H14 O1),0.36(C6 F6),x(C1 H4 O1)'
_chemical_name_systematic        
'tris(Guanidinium) 1,3,5-tris(4-sulfonatophenyl)benzene tris(isophorone) hexafluorobenzene clathrate methanol solvate'
_symmetry_cell_setting           monoclinic
_symmetry_space_group_name_H-M   'P 21'
_symmetry_Int_Tables_number      4
_space_group_name_Hall           'P 2yb'
loop_
_symmetry_equiv_pos_site_id
_symmetry_equiv_pos_as_xyz
1 x,y,z
2 -x,1/2+y,-z
_cell_length_a                   23.56(2)
_cell_length_b                   7.427(7)
_cell_length_c                   24.06(2)
_cell_angle_alpha                90
_cell_angle_beta                 119.054(8)
_cell_angle_gamma                90
_cell_volume                     3680.24
_exptl_crystal_colour            colorless
_exptl_crystal_description       needle
_cell_formula_units_Z            2
_exptl_crystal_preparation       
'The crystal was exposed to 25% v/v hexafluorobenzene/hexane vapour for 8 minutes at room temperature prior to data collection.'
loop_
_atom_site_label
_atom_site_type_symbol
_atom_site_fract_x
_atom_site_fract_y
_atom_site_fract_z
N1 N 0.1515(10) 0.092(4) 0.2956(9)
H16 H 0.142540 0.193578 0.308509
H17 H 0.137292 -0.010796 0.302420
N2 N 0.2062(12) 0.237(3) 0.2565(12)
H18 H 0.197504 0.339437 0.269221
H19 H 0.229394 0.236996 0.236760
N3 N 0.2045(12) -0.071(3) 0.2531(12)
H20 H 0.231223 -0.074687 0.237366
H21 H 0.189475 -0.171249 0.260498
C25 C 0.1860(12) 0.094(4) 0.2663(12)
N4 N 0.7243(11) 0.088(4) 0.8657(9)
H22 H 0.712982 0.186276 0.842241
H23 H 0.720774 -0.017703 0.847950
N5 N 0.7532(14) 0.236(3) 0.9562(12)
H24 H 0.743025 0.340918 0.936399
H25 H 0.768399 0.231918 0.997554
N6 N 0.7580(14) -0.068(3) 0.9577(12)
H26 H 0.770441 -0.073193 0.998538
H27 H 0.752948 -0.168489 0.936144
C26 C 0.7462(15) 0.100(4) 0.9266(12)
N7 N 0.1329(11) 0.090(4) 0.8522(10)
H28 H 0.153904 0.193357 0.864237
H29 H 0.153574 -0.011516 0.867765
N8 N 0.0450(13) 0.232(3) 0.7916(12)
H30 H 0.069537 0.328864 0.806023
H31 H 0.003433 0.243314 0.763916
N9 N 0.0349(13) -0.073(3) 0.7847(12)
H32 H -0.005656 -0.072021 0.753889
H33 H 0.054805 -0.175973 0.800104
C27 C 0.0676(14) 0.089(5) 0.8091(13)
O10 O -0.0929(10) -0.008(3) 0.4296(10)
C28 C -0.0640(8) 0.125(3) 0.4259(10)
C29 C -0.0887(12) 0.293(3) 0.3914(13)
H34 H -0.133574 0.316369 0.376016
C30 C -0.0561(10) 0.419(3) 0.3788(13)
C31 C 0.0139(11) 0.393(3) 0.3997(15)
H35 H 0.039623 0.468535 0.437684
H36 H 0.022537 0.436347 0.365557
C32 C 0.0378(9) 0.197(3) 0.4157(9)
C33 C 0.0085(8) 0.124(4) 0.4559(10)
H37 H 0.023670 -0.001515 0.467988
H38 H 0.026227 0.195277 0.495615
C34 C -0.0879(13) 0.588(4) 0.3437(12)
H39 H -0.056786 0.687501 0.360274
H40 H -0.125435 0.615396 0.349431
H41 H -0.102382 0.571615 0.298325
C35 C 0.1106(10) 0.189(4) 0.4556(13)
H42 H 0.124644 0.063047 0.463049
H43 H 0.124022 0.248787 0.496466
H44 H 0.130564 0.250208 0.433297
C36 C 0.0168(16) 0.078(5) 0.3566(12)
H45 H 0.012815 -0.047164 0.367222
H46 H 0.049382 0.085311 0.342515
H47 H -0.025189 0.119676 0.322438
O11 O 0.4385(15) 0.498(4) 0.5308(12)
C37 C 0.423(2) 0.616(5) 0.4881(17)
C38 C 0.391(2) 0.791(5) 0.4809(19)
H48 H 0.374505 0.814644 0.509389
C39 C 0.3817(16) 0.920(4) 0.4393(14)
C40 C 0.3986(17) 0.892(4) 0.3876(15)
H49 H 0.437264 0.965443 0.397035
H50 H 0.362253 0.936090 0.347158
C41 C 0.4127(14) 0.697(4) 0.3784(12)
C42 C 0.4499(16) 0.607(5) 0.4431(13)
H51 H 0.455087 0.478353 0.435927
H52 H 0.493928 0.660503 0.464901
C43 C 0.3473(19) 1.096(5) 0.4325(18)
H53 H 0.368310 1.191063 0.420549
H54 H 0.349300 1.127623 0.472960
H55 H 0.301778 1.085072 0.399397
C44 C 0.4508(19) 0.682(6) 0.3430(18)
H56 H 0.468695 0.560625 0.347971
H57 H 0.486347 0.770084 0.360261
H58 H 0.422092 0.707131 0.297746
C45 C 0.3523(16) 0.580(6) 0.3368(18)
H59 H 0.366087 0.457406 0.334064
H60 H 0.328700 0.632014 0.294039
H61 H 0.323871 0.576893 0.355915
O12 O 0.5265(12) -0.011(4) 1.0922(12)
C46 C 0.4910(17) 0.119(5) 1.0626(14)
C47 C 0.477(2) 0.280(5) 1.0895(18)
H62 H 0.497241 0.286364 1.134582
C48 C 0.4398(18) 0.418(5) 1.0574(15)
C49 C 0.3909(17) 0.392(4) 0.9892(14)
H63 H 0.403948 0.465306 0.962988
H64 H 0.348586 0.438424 0.982334
C50 C 0.3813(13) 0.197(4) 0.9653(12)
C51 C 0.4463(15) 0.102(6) 0.9928(14)
H65 H 0.437804 -0.028158 0.982718
H66 H 0.469361 0.146665 0.970393
C52 C 0.428(2) 0.575(6) 1.0902(18)
H67 H 0.451760 0.680906 1.087290
H68 H 0.444067 0.545508 1.134956
H69 H 0.381784 0.602001 1.069591
C53 C 0.349(2) 0.187(6) 0.8934(13)
H70 H 0.355421 0.065830 0.880812
H71 H 0.368618 0.276002 0.877741
H72 H 0.302582 0.210831 0.875042
C54 C 0.3383(15) 0.086(6) 0.9850(16)
H73 H 0.356092 -0.035770 0.997085
H74 H 0.293998 0.079352 0.949225
H75 H 0.337572 0.144161 1.021260
F1 F 0.732(2) 0.541(3) 0.4612(11)
F2 F 0.604(2) 0.5422(15) 0.4034(18)
F3 F 0.5321(11) 0.542(3) 0.265(2)
F4 F 0.592(2) 0.542(4) 0.2023(11)
F5 F 0.7373(18) 0.540(5) 0.272(2)
F6 F 0.7967(11) 0.540(4) 0.398(2)
C55 C 0.6977(15) 0.5415(18) 0.3974(9)
C56 C 0.6302(15) 0.5419(11) 0.3649(15)
C57 C 0.5970(10) 0.542(2) 0.2988(15)
C58 C 0.6312(15) 0.541(3) 0.2653(9)
C59 C 0.6987(15) 0.541(3) 0.2978(15)
C60 C 0.7319(10) 0.541(3) 0.3639(15)
S1 S 0.1353(4) 0.5841(18) 0.3189(3)
S2 S 0.6948(4) 0.5789(18) 0.8252(4)
S3 S 0.1756(3) 0.5822(18) 0.8689(3)
O1 O 0.0992(11) 0.436(3) 0.3034(10)
O2 O 0.1763(9) 0.592(3) 0.2912(8)
O3 O 0.0924(11) 0.753(3) 0.3042(10)
O4 O 0.7124(10) 0.427(3) 0.8042(9)
O5 O 0.7167(8) 0.581(3) 0.8927(8)
O6 O 0.7064(10) 0.754(3) 0.7961(9)
O7 O 0.1993(10) 0.428(3) 0.9110(8)
O8 O 0.1117(8) 0.588(3) 0.8289(7)
O9 O 0.2045(10) 0.755(3) 0.9070(8)
C1 C 0.2971(6) 0.546(3) 0.6040(4)
C2 C 0.3645(6) 0.548(3) 0.6322(6)
H1 H 0.384885 0.548245 0.606556
C3 C 0.4019(4) 0.550(3) 0.6981(6)
C4 C 0.3720(6) 0.549(3) 0.7357(4)
H2 H 0.397605 0.550163 0.780717
C5 C 0.3047(6) 0.547(3) 0.7074(6)
C6 C 0.2672(4) 0.545(3) 0.6415(6)
H3 H 0.221191 0.543589 0.622199
C7 C 0.2561(7) 0.549(3) 0.5324(5)
C8 C 0.1983(7) 0.645(3) 0.5067(6)
H4 H 0.184683 0.700164 0.533861
C9 C 0.1604(6) 0.661(3) 0.4411(6)
H5 H 0.120882 0.726698 0.423457
C10 C 0.1803(7) 0.580(3) 0.4013(5)
C11 C 0.2381(7) 0.484(3) 0.4271(6)
H6 H 0.251757 0.428793 0.399853
C12 C 0.2760(6) 0.468(3) 0.4926(6)
H7 H 0.315560 0.402259 0.510257
C13 C 0.4747(5) 0.554(3) 0.7282(7)
C14 C 0.5052(6) 0.649(3) 0.7004(6)
H8 H 0.480031 0.706740 0.660573
C15 C 0.5726(6) 0.659(3) 0.7307(7)
H9 H 0.593436 0.723359 0.711590
C16 C 0.6094(5) 0.574(3) 0.7889(7)
C17 C 0.5789(6) 0.479(3) 0.8168(6)
H10 H 0.604116 0.420598 0.856530
C18 C 0.5116(6) 0.469(3) 0.7864(7)
H11 H 0.490711 0.403978 0.805514
C19 C 0.2732(7) 0.560(3) 0.7482(7)
C20 C 0.3037(6) 0.648(3) 0.8065(7)
H12 H 0.344518 0.704368 0.820260
C21 C 0.2744(7) 0.653(3) 0.8446(6)
H13 H 0.295273 0.713427 0.884447
C22 C 0.2147(7) 0.570(3) 0.8245(6)
C23 C 0.1842(6) 0.482(3) 0.7662(7)
H14 H 0.143388 0.425408 0.752482
C24 C 0.2135(7) 0.477(3) 0.7281(6)
H15 H 0.192632 0.416348 0.688295
loop_
_geom_bond_atom_site_label_1
_geom_bond_atom_site_label_2
_geom_bond_site_symmetry_1
_geom_bond_site_symmetry_2
S1 O1 1_555 1_555
S2 O4 1_555 1_555
S3 O7 1_555 1_555
O2 S1 1_555 1_555
O3 S1 1_555 1_555
O5 S2 1_555 1_555
O6 S2 1_555 1_555
O8 S3 1_555 1_555
O9 S3 1_555 1_555
C1 C2 1_555 1_555
C2 H1 1_555 1_555
C3 C2 1_555 1_555
C4 C3 1_555 1_555
H2 C4 1_555 1_555
C5 C4 1_555 1_555
C6 C1 1_555 1_555
H3 C6 1_555 1_555
C7 C1 1_555 1_555
C8 C7 1_555 1_555
H4 C8 1_555 1_555
C9 C8 1_555 1_555
H5 C9 1_555 1_555
C10 S1 1_555 1_555
C11 C10 1_555 1_555
H6 C11 1_555 1_555
C12 C7 1_555 1_555
H7 C12 1_555 1_555
C13 C3 1_555 1_555
C14 C13 1_555 1_555
H8 C14 1_555 1_555
C15 C14 1_555 1_555
H9 C15 1_555 1_555
C16 S2 1_555 1_555
C17 C16 1_555 1_555
H10 C17 1_555 1_555
C18 C13 1_555 1_555
H11 C18 1_555 1_555
C19 C5 1_555 1_555
C20 C19 1_555 1_555
H12 C20 1_555 1_555
C21 C20 1_555 1_555
H13 C21 1_555 1_555
C22 S3 1_555 1_555
C23 C22 1_555 1_555
H14 C23 1_555 1_555
C24 C19 1_555 1_555
H15 C24 1_555 1_555
N1 H16 1_555 1_555
H17 N1 1_555 1_555
N2 H18 1_555 1_555
H19 N2 1_555 1_555
N3 H20 1_555 1_555
H21 N3 1_555 1_555
C25 N1 1_555 1_555
N4 H22 1_555 1_555
H23 N4 1_555 1_555
N5 H24 1_555 1_555
H25 N5 1_555 1_555
N6 H26 1_555 1_555
H27 N6 1_555 1_555
C26 N4 1_555 1_555
N7 H28 1_555 1_555
H29 N7 1_555 1_555
N8 H30 1_555 1_555
H31 N8 1_555 1_555
N9 H32 1_555 1_555
H33 N9 1_555 1_555
C27 N7 1_555 1_555
O10 C28 1_555 1_555
C28 C29 1_555 1_555
C29 H34 1_555 1_555
C30 C29 1_555 1_555
C31 C30 1_555 1_555
H35 C31 1_555 1_555
H36 C31 1_555 1_555
C32 C31 1_555 1_555
C33 C28 1_555 1_555
H37 C33 1_555 1_555
H38 C33 1_555 1_555
C34 C30 1_555 1_555
H39 C34 1_555 1_555
H40 C34 1_555 1_555
H41 C34 1_555 1_555
C35 C32 1_555 1_555
H42 C35 1_555 1_555
H43 C35 1_555 1_555
H44 C35 1_555 1_555
C36 C32 1_555 1_555
H45 C36 1_555 1_555
H46 C36 1_555 1_555
H47 C36 1_555 1_555
O11 C37 1_555 1_555
C37 C38 1_555 1_555
C38 H48 1_555 1_555
C39 C38 1_555 1_555
C40 C39 1_555 1_555
H49 C40 1_555 1_555
H50 C40 1_555 1_555
C41 C40 1_555 1_555
C42 C37 1_555 1_555
H51 C42 1_555 1_555
H52 C42 1_555 1_555
C43 C39 1_555 1_555
H53 C43 1_555 1_555
H54 C43 1_555 1_555
H55 C43 1_555 1_555
C44 C41 1_555 1_555
H56 C44 1_555 1_555
H57 C44 1_555 1_555
H58 C44 1_555 1_555
C45 C41 1_555 1_555
H59 C45 1_555 1_555
H60 C45 1_555 1_555
H61 C45 1_555 1_555
O12 C46 1_555 1_555
C46 C47 1_555 1_555
C47 H62 1_555 1_555
C48 C47 1_555 1_555
C49 C48 1_555 1_555
H63 C49 1_555 1_555
H64 C49 1_555 1_555
C50 C49 1_555 1_555
C51 C46 1_555 1_555
H65 C51 1_555 1_555
H66 C51 1_555 1_555
C52 C48 1_555 1_555
H67 C52 1_555 1_555
H68 C52 1_555 1_555
H69 C52 1_555 1_555
C53 C50 1_555 1_555
H70 C53 1_555 1_555
H71 C53 1_555 1_555
H72 C53 1_555 1_555
C54 C50 1_555 1_555
H73 C54 1_555 1_555
H74 C54 1_555 1_555
H75 C54 1_555 1_555
F1 C55 1_555 1_555
F2 C56 1_555 1_555
F3 C57 1_555 1_555
F4 C58 1_555 1_555
F5 C59 1_555 1_555
F6 C60 1_555 1_555
C55 C56 1_555 1_555
C56 C57 1_555 1_555
C57 C58 1_555 1_555
C58 C59 1_555 1_555
C59 C60 1_555 1_555
C60 C55 1_555 1_555
C5 C6 1_555 1_555
C9 C10 1_555 1_555
C11 C12 1_555 1_555
C15 C16 1_555 1_555
C17 C18 1_555 1_555
C21 C22 1_555 1_555
C23 C24 1_555 1_555
N2 C25 1_555 1_555
N3 C25 1_555 1_555
N5 C26 1_555 1_555
N6 C26 1_555 1_555
N8 C27 1_555 1_555
N9 C27 1_555 1_555
C32 C33 1_555 1_555
C41 C42 1_555 1_555
C50 C51 1_555 1_555

#END
