
#######################################################################
#
#                 Cambridge Crystallographic Data Centre
#                                CCDC 
#
#######################################################################
#
# If this CIF has been generated from an entry in the Cambridge 
# Structural Database, then it will include bibliographic, chemical, 
# crystal, experimental, refinement or atomic coordinate data resulting 
# from the CCDC's data processing and validation procedures.
#
#######################################################################

data_AFIZAT
_chemical_formula_moiety         
'3(C1 H6 N3 1+),C24 H15 O9 S3 3-,2.9(C9 H14 O1),0.63(C6 F6),x(C1 H4 O1)'
_chemical_name_systematic        
'tris(Guanidinium) 1,3,5-tris(4-sulfonatophenyl)benzene tris(isophorone) hexafluorobenzene clathrate methanol solvate'
_symmetry_cell_setting           hexagonal
_symmetry_space_group_name_H-M   'P 63'
_symmetry_Int_Tables_number      173
_space_group_name_Hall           'P 6c'
loop_
_symmetry_equiv_pos_site_id
_symmetry_equiv_pos_as_xyz
1 x,y,z
2 -y,x-y,z
3 -x+y,-x,z
4 -x,-y,1/2+z
5 y,-x+y,1/2+z
6 x-y,x,1/2+z
_cell_length_a                   24.012(5)
_cell_length_b                   24.012(5)
_cell_length_c                   7.3899(15)
_cell_angle_alpha                90
_cell_angle_beta                 90
_cell_angle_gamma                120
_cell_volume                     3690
_exptl_crystal_colour            colorless
_exptl_crystal_description       needle
_cell_formula_units_Z            2
_exptl_crystal_preparation       
'The crystal was exposed to 50% v/v hexafluorobenzene/hexane vapour for a total of 15 minutes (a 7 minute exposure followed 3 minute and 5 minute exposures) at room temperature prior to data collection.'
loop_
_atom_site_label
_atom_site_type_symbol
_atom_site_fract_x
_atom_site_fract_y
_atom_site_fract_z
N1 N 0.85661(19) 0.7146(2) 0.0875(8)
H6 H 0.870434 0.707497 0.190348
H7 H 0.870499 0.707910 -0.015903
N2 N 0.7938(3) 0.7456(3) 0.2416(6)
H8 H 0.807413 0.738601 0.345165
H9 H 0.766123 0.759424 0.240839
N3 N 0.7934(3) 0.7450(3) -0.0677(6)
H10 H 0.765105 0.758101 -0.067725
H11 H 0.807379 0.738218 -0.170798
C9 C 0.8150(2) 0.7354(2) 0.0882(10)
O4 O 0.5696(2) 0.4747(2) 0.4998(6)
C10 C 0.5769(2) 0.5138(3) 0.6168(10)
C11 C 0.6129(3) 0.5205(3) 0.7857(10)
H12 H 0.629254 0.492226 0.805794
C12 C 0.6230(3) 0.5642(3) 0.9095(8)
C13 C 0.6014(3) 0.6115(3) 0.8848(9)
H13 H 0.634943 0.653352 0.933621
H14 H 0.562017 0.597496 0.957681
C14 C 0.5872(3) 0.6215(2) 0.6899(8)
C15 C 0.5473(2) 0.5561(2) 0.6055(9)
H15 H 0.540023 0.561763 0.476539
H16 H 0.504810 0.534019 0.665879
C16 C 0.6581(3) 0.5688(3) 1.0797(13)
H17 H 0.697338 0.610901 1.086086
H18 H 0.669526 0.534869 1.081494
H19 H 0.630581 0.563505 1.183721
C17 C 0.6505(2) 0.6604(2) 0.5850(11)
H20 H 0.677835 0.641338 0.603963
H21 H 0.672913 0.704953 0.628579
H22 H 0.641211 0.659821 0.455705
C18 C 0.5498(3) 0.6581(3) 0.6879(9)
H23 H 0.576519 0.700980 0.740056
H24 H 0.510372 0.634374 0.759467
H25 H 0.538617 0.662165 0.562982
F1 F 0.3961(3) 0.6000(3) 0.5557(12)
F2 F 0.2668(3) 0.5375(3) 0.5542(11)
C19 C 0.3655(4) 0.6331(4) 0.5571(15)
C20 C 0.2994(4) 0.6007(4) 0.5576(15)
F1A F 0.4000(3) 0.7961(4) 0.5557(12)
F2A F 0.4625(3) 0.7293(4) 0.5542(11)
C19A C 0.3669(4) 0.7324(6) 0.5571(15)
C20A C 0.3993(4) 0.6987(6) 0.5576(15)
F1B F 0.2039(4) 0.6039(3) 0.5557(12)
F2B F 0.2707(4) 0.7332(3) 0.5542(11)
C19B C 0.2676(6) 0.6345(4) 0.5571(15)
C20B C 0.3013(6) 0.7006(4) 0.5576(15)
S1 S 0.87259(5) 0.68868(5) 0.5863(2)
O1 O 0.91195(18) 0.70686(18) 0.4232(5)
O2 O 0.82967(14) 0.71454(13) 0.5882(6)
O3 O 0.91108(18) 0.70319(18) 0.7499(5)
C1 C 0.7060(2) 0.4008(2) 0.5499(7)
C2 C 0.6388(2) 0.3721(2) 0.5502(7)
H1 H 0.619798 0.398591 0.550489
C3 C 0.7471(2) 0.4715(2) 0.5574(8)
C4 C 0.8053(3) 0.5001(3) 0.6518(8)
H2 H 0.819278 0.473751 0.708804
C5 C 0.8425(2) 0.5654(3) 0.6634(8)
H3 H 0.881947 0.584043 0.728098
C6 C 0.8229(2) 0.6042(2) 0.5816(9)
C7 C 0.7661(2) 0.5773(2) 0.4839(8)
H4 H 0.753305 0.604177 0.424280
C8 C 0.7282(2) 0.5111(3) 0.4737(8)
H5 H 0.688774 0.492520 0.408636
S1A S 0.31132(5) 0.18391(7) 0.5863(2)
O1A O 0.29314(18) 0.20509(25) 0.4232(5)
O2A O 0.28546(13) 0.11513(19) 0.5882(6)
O3A O 0.29681(18) 0.20789(25) 0.7499(5)
C1A C 0.5992(2) 0.3052(3) 0.5499(7)
C2A C 0.6279(2) 0.2667(3) 0.5502(7)
H1A H 0.601409 0.221207 0.550489
C3A C 0.5285(2) 0.2756(3) 0.5574(8)
C4A C 0.4999(3) 0.3052(4) 0.6518(8)
H2A H 0.526249 0.345527 0.708804
C5A C 0.4346(3) 0.2771(4) 0.6634(8)
H3A H 0.415957 0.297904 0.728098
C6A C 0.3958(2) 0.2187(3) 0.5816(9)
C7A C 0.4227(2) 0.1888(3) 0.4839(8)
H4A H 0.395823 0.149128 0.424280
C8A C 0.4889(3) 0.2171(4) 0.4737(8)
H5A H 0.507480 0.196254 0.408636
S1B S 0.81609(7) 0.12741(5) 0.5863(2)
O1B O 0.79491(25) 0.08805(18) 0.4232(5)
O2B O 0.88487(19) 0.17033(14) 0.5882(6)
O3B O 0.79211(25) 0.08892(18) 0.7499(5)
C1B C 0.6948(3) 0.2940(2) 0.5499(7)
C2B C 0.7333(3) 0.3612(2) 0.5502(7)
H1B H 0.778793 0.380202 0.550489
C3B C 0.7244(3) 0.2529(2) 0.5574(8)
C4B C 0.6948(4) 0.1947(3) 0.6518(8)
H2B H 0.654473 0.180722 0.708804
C5B C 0.7229(4) 0.1575(2) 0.6634(8)
H3B H 0.702096 0.118053 0.728098
C6B C 0.7813(3) 0.1771(2) 0.5816(9)
C7B C 0.8112(3) 0.2339(2) 0.4839(8)
H4B H 0.850872 0.246695 0.424280
C8B C 0.7829(4) 0.2718(2) 0.4737(8)
H5B H 0.803746 0.311226 0.408636
loop_
_geom_bond_atom_site_label_1
_geom_bond_atom_site_label_2
_geom_bond_site_symmetry_1
_geom_bond_site_symmetry_2
S1 O1 1_555 1_555
O2 S1 1_555 1_555
O3 S1 1_555 1_555
C1 C2 1_555 1_555
C2 H1 1_555 1_555
C3 C1 1_555 1_555
C4 C3 1_555 1_555
H2 C4 1_555 1_555
C5 C4 1_555 1_555
H3 C5 1_555 1_555
C6 S1 1_555 1_555
C7 C6 1_555 1_555
H4 C7 1_555 1_555
C8 C3 1_555 1_555
H5 C8 1_555 1_555
N1 H6 1_555 1_555
H7 N1 1_555 1_555
N2 H8 1_555 1_555
H9 N2 1_555 1_555
N3 H10 1_555 1_555
H11 N3 1_555 1_555
C9 N1 1_555 1_555
O4 C10 1_555 1_555
C10 C11 1_555 1_555
C11 H12 1_555 1_555
C12 C11 1_555 1_555
C13 C12 1_555 1_555
H13 C13 1_555 1_555
H14 C13 1_555 1_555
C14 C13 1_555 1_555
C15 C10 1_555 1_555
H15 C15 1_555 1_555
H16 C15 1_555 1_555
C16 C12 1_555 1_555
H17 C16 1_555 1_555
H18 C16 1_555 1_555
H19 C16 1_555 1_555
C17 C14 1_555 1_555
H20 C17 1_555 1_555
H21 C17 1_555 1_555
H22 C17 1_555 1_555
C18 C14 1_555 1_555
H23 C18 1_555 1_555
H24 C18 1_555 1_555
H25 C18 1_555 1_555
F1 C19 1_555 1_555
F2 C20 1_555 1_555
C19 C20 1_555 1_555
C20 C19B 1_555 1_555
S1A O1A 1_555 1_555
O2A S1A 1_555 1_555
O3A S1A 1_555 1_555
C1A C2 1_555 1_555
C2A C1A 1_555 1_555
H1A C2A 1_555 1_555
C3A C1A 1_555 1_555
C4A C3A 1_555 1_555
H2A C4A 1_555 1_555
C5A C4A 1_555 1_555
H3A C5A 1_555 1_555
C6A S1A 1_555 1_555
C7A C6A 1_555 1_555
H4A C7A 1_555 1_555
C8A C3A 1_555 1_555
H5A C8A 1_555 1_555
S1B O1B 1_555 1_555
O2B S1B 1_555 1_555
O3B S1B 1_555 1_555
C1B C2A 1_555 1_555
C2B C1 1_555 1_555
H1B C2B 1_555 1_555
C3B C1B 1_555 1_555
C4B C3B 1_555 1_555
H2B C4B 1_555 1_555
C5B C4B 1_555 1_555
H3B C5B 1_555 1_555
C6B S1B 1_555 1_555
C7B C6B 1_555 1_555
H4B C7B 1_555 1_555
C8B C3B 1_555 1_555
H5B C8B 1_555 1_555
F1A C19A 1_555 1_555
F2A C20A 1_555 1_555
C19A C20A 1_555 1_555
C20A C19 1_555 1_555
F1B C19B 1_555 1_555
F2B C20B 1_555 1_555
C19B C20B 1_555 1_555
C20B C19A 1_555 1_555
C5 C6 1_555 1_555
C7 C8 1_555 1_555
N2 C9 1_555 1_555
N3 C9 1_555 1_555
C14 C15 1_555 1_555
C5A C6A 1_555 1_555
C7A C8A 1_555 1_555
C1B C2B 1_555 1_555
C5B C6B 1_555 1_555
C7B C8B 1_555 1_555

#END
