
#######################################################################
#
#                 Cambridge Crystallographic Data Centre
#                                CCDC 
#
#######################################################################
#
# If this CIF has been generated from an entry in the Cambridge 
# Structural Database, then it will include bibliographic, chemical, 
# crystal, experimental, refinement or atomic coordinate data resulting 
# from the CCDC's data processing and validation procedures.
#
#######################################################################

data_AFOCOQ
_chemical_formula_moiety         'C26 H32 Br1 N3 O3'
_chemical_name_systematic        
't-butyl 3-(((3-bromobenzene-1-carbonyl)(2-t-butylphenyl)amino)methyl)-4,5-dihydro-3H-pyrazole-3-carboxylate'
_symmetry_cell_setting           monoclinic
_symmetry_space_group_name_H-M   'P 21'
_symmetry_Int_Tables_number      4
_space_group_name_Hall           'P 2yb'
loop_
_symmetry_equiv_pos_site_id
_symmetry_equiv_pos_as_xyz
1 x,y,z
2 -x,1/2+y,-z
_cell_length_a                   9.2512(19)
_cell_length_b                   9.908(2)
_cell_length_c                   13.364(3)
_cell_angle_alpha                90
_cell_angle_beta                 93.83(3)
_cell_angle_gamma                90
_cell_volume                     1222.22
_exptl_crystal_colour            yellow
_exptl_crystal_description       block
_chemical_melting_point          '109-111 deg.C'
_cell_formula_units_Z            2
loop_
_atom_site_label
_atom_site_type_symbol
_atom_site_fract_x
_atom_site_fract_y
_atom_site_fract_z
Br1 Br 0.25074(4) 0.64836(5) -0.14442(3)
O1 O 0.3128(3) 0.2423(2) 0.5007(2)
O2 O 0.1604(3) 0.3934(2) 0.42133(19)
O3 O 0.3211(3) 0.2825(3) 0.2426(2)
N1 N 0.3848(3) 0.5013(3) 0.2676(2)
N2 N 0.3310(3) 0.5959(3) 0.4778(2)
N3 N 0.3651(3) 0.6412(5) 0.5631(2)
C1 C 0.3718(4) 0.6420(5) 0.2394(2)
C2 C 0.2447(5) 0.7061(4) 0.2633(3)
H1 H 0.1746 0.6567 0.2970
C3 C 0.2184(5) 0.8386(4) 0.2394(3)
H2 H 0.1303 0.8804 0.2553
C4 C 0.3209(6) 0.9101(5) 0.1924(4)
H3 H 0.3043 1.0024 0.1761
C5 C 0.4495(5) 0.8481(4) 0.1684(3)
H4 H 0.5196 0.9001 0.1367
C6 C 0.4793(4) 0.7106(4) 0.1894(3)
C7 C 0.6251(4) 0.6559(6) 0.1563(3)
C8 C 0.6444(4) 0.5003(4) 0.1576(3)
H5 H 0.6489 0.4679 0.2271
H6 H 0.7344 0.4767 0.1270
H7 H 0.5622 0.4581 0.1196
C9 C 0.6441(5) 0.6973(4) 0.0456(3)
H8 H 0.5651 0.6587 0.0021
H9 H 0.7371 0.6633 0.0250
H10 H 0.6421 0.7959 0.0399
C10 C 0.7471(5) 0.7169(4) 0.2247(3)
H11 H 0.7431 0.8156 0.2200
H12 H 0.8407 0.6850 0.2038
H13 H 0.7356 0.6893 0.2941
C11 C 0.4762(4) 0.4677(4) 0.3582(3)
H14 H 0.5557 0.5347 0.3650
H15 H 0.5211 0.3786 0.3475
C12 C 0.4037(4) 0.4625(4) 0.4587(3)
C13 C 0.5188(4) 0.4483(4) 0.5461(3)
H16 H 0.6163 0.4726 0.5255
H17 H 0.5213 0.3554 0.5735
C14 C 0.4657(4) 0.5497(4) 0.6224(3)
H18 H 0.4147 0.5027 0.6751
H19 H 0.5481 0.6011 0.6546
C15 C 0.2876(4) 0.3513(4) 0.4621(3)
C16 C 0.0294(4) 0.3072(4) 0.4265(3)
C17 C -0.0880(4) 0.3918(4) 0.3707(3)
H20 H -0.0957 0.4792 0.4043
H21 H -0.1810 0.3444 0.3706
H22 H -0.0626 0.4062 0.3015
C18 C 0.0471(4) 0.1719(4) 0.3743(3)
H23 H 0.0827 0.1870 0.3078
H24 H -0.0466 0.1256 0.3673
H25 H 0.1168 0.1161 0.4143
C19 C -0.0058(5) 0.2915(4) 0.5360(3)
H26 H 0.0650 0.2310 0.5705
H27 H -0.1032 0.2535 0.5390
H28 H -0.0018 0.3800 0.5688
C20 C 0.3133(5) 0.4005(5) 0.2151(3)
C21 C 0.2195(4) 0.4365(4) 0.1212(3)
C22 C 0.0877(4) 0.3708(4) 0.1053(3)
H29 H 0.0570 0.3103 0.1548
C23 C -0.0007(6) 0.3919(6) 0.0180(3)
H30 H -0.0915 0.3473 0.0087
C24 C 0.0459(5) 0.4802(4) -0.0564(3)
H31 H -0.0131 0.4975 -0.1159
C25 C 0.1790(4) 0.5401(4) -0.0399(3)
C26 C 0.2662(4) 0.5219(4) 0.0459(3)
H32 H 0.3571 0.5665 0.0545
loop_
_geom_bond_atom_site_label_1
_geom_bond_atom_site_label_2
_geom_bond_site_symmetry_1
_geom_bond_site_symmetry_2
Br1 C25 1_555 1_555
O1 C15 1_555 1_555
O2 C15 1_555 1_555
O3 C20 1_555 1_555
N1 C1 1_555 1_555
N2 N3 1_555 1_555
N3 C14 1_555 1_555
C1 C2 1_555 1_555
C2 H1 1_555 1_555
C3 C2 1_555 1_555
H2 C3 1_555 1_555
C4 C3 1_555 1_555
H3 C4 1_555 1_555
C5 C4 1_555 1_555
H4 C5 1_555 1_555
C6 C1 1_555 1_555
C7 C6 1_555 1_555
C8 C7 1_555 1_555
H5 C8 1_555 1_555
H6 C8 1_555 1_555
H7 C8 1_555 1_555
C9 C7 1_555 1_555
H8 C9 1_555 1_555
H9 C9 1_555 1_555
H10 C9 1_555 1_555
C10 C7 1_555 1_555
H11 C10 1_555 1_555
H12 C10 1_555 1_555
H13 C10 1_555 1_555
C11 N1 1_555 1_555
H14 C11 1_555 1_555
H15 C11 1_555 1_555
C12 N2 1_555 1_555
C13 C12 1_555 1_555
H16 C13 1_555 1_555
H17 C13 1_555 1_555
C14 C13 1_555 1_555
H18 C14 1_555 1_555
H19 C14 1_555 1_555
C15 C12 1_555 1_555
C16 O2 1_555 1_555
C17 C16 1_555 1_555
H20 C17 1_555 1_555
H21 C17 1_555 1_555
H22 C17 1_555 1_555
C18 C16 1_555 1_555
H23 C18 1_555 1_555
H24 C18 1_555 1_555
H25 C18 1_555 1_555
C19 C16 1_555 1_555
H26 C19 1_555 1_555
H27 C19 1_555 1_555
H28 C19 1_555 1_555
C20 N1 1_555 1_555
C21 C20 1_555 1_555
C22 C21 1_555 1_555
H29 C22 1_555 1_555
C23 C22 1_555 1_555
H30 C23 1_555 1_555
C24 C23 1_555 1_555
H31 C24 1_555 1_555
C25 C24 1_555 1_555
C26 C21 1_555 1_555
H32 C26 1_555 1_555
C5 C6 1_555 1_555
C11 C12 1_555 1_555
C25 C26 1_555 1_555

#END
