
#######################################################################
#
#                 Cambridge Crystallographic Data Centre
#                                CCDC 
#
#######################################################################
#
# If this CIF has been generated from an entry in the Cambridge 
# Structural Database, then it will include bibliographic, chemical, 
# crystal, experimental, refinement or atomic coordinate data resulting 
# from the CCDC's data processing and validation procedures.
#
#######################################################################

data_AFOFUZ
_chemical_formula_moiety         'C8 H20 N1 1+,C31 H27 B11 Br5 1-,2(C3 H6 O1)'
_chemical_name_systematic        
'tetraethylammonium 2,3,4,5,6-pentakis(3-bromophenyl)-1-carba-closo-dodecaborate acetone solvate'
_symmetry_cell_setting           orthorhombic
_symmetry_space_group_name_H-M   'P b c m'
_symmetry_Int_Tables_number      57
_space_group_name_Hall           '-P 2c 2b'
loop_
_symmetry_equiv_pos_site_id
_symmetry_equiv_pos_as_xyz
1 x,y,z
2 -x,-y,1/2+z
3 -x,1/2+y,1/2-z
4 x,1/2-y,-z
5 -x,-y,-z
6 x,y,1/2-z
7 x,1/2-y,1/2+z
8 -x,1/2+y,z
_cell_length_a                   7.2360(3)
_cell_length_b                   26.5714(13)
_cell_length_c                   26.8768(9)
_cell_angle_alpha                90
_cell_angle_beta                 90
_cell_angle_gamma                90
_cell_volume                     5167.62
_exptl_crystal_description       prism
_cell_formula_units_Z            4
loop_
_atom_site_label
_atom_site_type_symbol
_atom_site_fract_x
_atom_site_fract_y
_atom_site_fract_z
O1 O 0.6952(13) 0.1093(3) 0.5672(3)
C1 C 0.9046(13) 0.0592(4) 0.6129(4)
H1 H 0.9195 0.0232 0.6062
H2 H 0.9177 0.0654 0.6487
H3 H 0.9994 0.0782 0.5948
C2 C 0.7195(14) 0.0757(3) 0.5964(3)
C3 C 0.5595(12) 0.0479(3) 0.6180(3)
H4 H 0.5668 0.0490 0.6544
H5 H 0.5624 0.0129 0.6067
H6 H 0.4440 0.0637 0.6070
N1 N 0.7709(13) 0.2500 0.5000
C4 C 0.8937(15) 0.2042(4) 0.5087(4)
H7 H 0.8142 0.1746 0.5150
H8 H 0.9691 0.2100 0.5389
C5 C 1.0251(18) 0.1922(5) 0.4644(5)
H9 H 0.9517 0.1851 0.4346
H10 H 1.1009 0.1628 0.4726
H11 H 1.1056 0.2212 0.4581
C6 C 0.6592(15) 0.2419(5) 0.4547(3)
H12 H 0.7431 0.2371 0.4260
H13 H 0.5843 0.2724 0.4482
C7 C 0.5302(19) 0.1963(7) 0.4587(5)
H14 H 0.4492 0.1951 0.4295
H15 H 0.4551 0.1992 0.4889
H16 H 0.6041 0.1654 0.4603
C4C C 0.8937(15) 0.2958(4) 0.4913(4)
H7C H 0.8142 0.3254 0.4850
H8C H 0.9691 0.2900 0.4611
C5C C 1.0251(18) 0.3078(5) 0.5356(5)
H9C H 0.9517 0.3149 0.5654
H10C H 1.1009 0.3372 0.5274
H11C H 1.1056 0.2788 0.5419
C6C C 0.6592(15) 0.2581(5) 0.5453(3)
H12C H 0.7431 0.2629 0.5740
H13C H 0.5843 0.2276 0.5518
C7C C 0.5302(19) 0.3037(7) 0.5413(5)
H14C H 0.4492 0.3049 0.5705
H15C H 0.4551 0.3008 0.5111
H16C H 0.6041 0.3346 0.5397
C8 C 0.2419(9) 0.4198(2) 0.8965(2)
H17 H 0.3720 0.4151 0.8962
C9 C 0.2434(9) 0.2546(3) 0.6643(2)
H18 H 0.3744 0.2569 0.6632
C10 C 0.2606(15) 0.5347(4) 0.7500
H19 H 0.3911 0.5308 0.7500
B1 B 0.2469(10) 0.3977(3) 0.8042(3)
B2 B 0.2460(10) 0.3339(3) 0.7164(3)
B3 B 0.2489(14) 0.4386(4) 0.7500
Br1 Br 0.2999(2) 0.44342(6) 0.99795(5)
Br2 Br 0.30449(19) 0.16712(4) 0.60732(5)
Br3 Br 0.3474(3) 0.63868(5) 0.7500
C11 C 0.1379(13) 0.3816(4) 0.7500
H20 H -0.0168 0.3829 0.7500
C12 C 0.1392(10) 0.4132(3) 0.8530(3)
C13 C 0.1517(11) 0.4335(3) 0.9405(3)
C14 C -0.0399(12) 0.4382(3) 0.9436(3)
H21 H -0.0980 0.4467 0.9742
C15 C -0.1417(11) 0.4303(3) 0.9016(3)
H22 H -0.2726 0.4330 0.9028
C16 C -0.0545(10) 0.4181(3) 0.8566(3)
H23 H -0.1279 0.4130 0.8278
C17 C 0.1396(10) 0.2923(3) 0.6887(3)
C18 C 0.1556(11) 0.2144(3) 0.6421(3)
C19 C -0.0342(11) 0.2073(3) 0.6451(3)
H24 H -0.0910 0.1780 0.6316
C20 C -0.1371(10) 0.2442(3) 0.6683(3)
H25 H -0.2675 0.2406 0.6703
C21 C -0.0531(10) 0.2864(3) 0.6889(3)
H26 H -0.1279 0.3119 0.7034
C22 C 0.1450(14) 0.4913(4) 0.7500
C23 C 0.1843(18) 0.5823(5) 0.7500
C24 C -0.0078(18) 0.5906(5) 0.7500
H27 H -0.0592 0.6235 0.7500
C25 C -0.1190(18) 0.5472(5) 0.7500
H28 H -0.2495 0.5510 0.7500
C26 C -0.0461(15) 0.4991(5) 0.7500
H29 H -0.1270 0.4709 0.7500
B4 B 0.4568(11) 0.4277(3) 0.7835(3)
H30 H 0.5254 0.4582 0.8055
B5 B 0.4559(16) 0.3244(5) 0.7500
H31 H 0.5262 0.2869 0.7500
B6 B 0.4559(11) 0.3639(3) 0.6962(3)
H32 H 0.5257 0.3527 0.6607
B7 B 0.5852(18) 0.3813(5) 0.7500
H33 H 0.7399 0.3811 0.7500
C8E C 0.2419(9) 0.4198(2) 0.6035(2)
H17E H 0.3720 0.4151 0.6038
C9E C 0.2434(9) 0.2546(3) 0.8357(2)
H18E H 0.3744 0.2569 0.8368
B1E B 0.2469(10) 0.3977(3) 0.6958(3)
B2E B 0.2460(10) 0.3339(3) 0.7836(3)
Br1E Br 0.2999(2) 0.44342(6) 0.50205(5)
Br2E Br 0.30449(19) 0.16712(4) 0.89268(5)
C12E C 0.1392(10) 0.4132(3) 0.6470(3)
C13E C 0.1517(11) 0.4335(3) 0.5595(3)
C14E C -0.0399(12) 0.4382(3) 0.5564(3)
H21E H -0.0980 0.4467 0.5258
C15E C -0.1417(11) 0.4303(3) 0.5984(3)
H22E H -0.2726 0.4330 0.5972
C16E C -0.0545(10) 0.4181(3) 0.6434(3)
H23E H -0.1279 0.4130 0.6722
C17E C 0.1396(10) 0.2923(3) 0.8113(3)
C18E C 0.1556(11) 0.2144(3) 0.8579(3)
C19E C -0.0342(11) 0.2073(3) 0.8549(3)
H24E H -0.0910 0.1780 0.8684
C20E C -0.1371(10) 0.2442(3) 0.8317(3)
H25E H -0.2675 0.2406 0.8297
C21E C -0.0531(10) 0.2864(3) 0.8111(3)
H26E H -0.1279 0.3119 0.7966
B4E B 0.4568(11) 0.4277(3) 0.7165(3)
H30E H 0.5254 0.4582 0.6945
B6E B 0.4559(11) 0.3639(3) 0.8038(3)
H32E H 0.5257 0.3527 0.8393
H34? H 0.1123 0.4254 0.8951
H35? H 0.1182 0.2638 0.6588
Br4? Br 0.1918(16) 0.1583(3) 0.6098(3)
Br5? Br 0.176(2) 0.6310(3) 0.7500
Br6? Br 0.2072(13) 0.4408(4) 0.9982(3)
C27? C 0.357(7) 0.372(2) 0.7500
H36? H 0.5094 0.3649 0.7500
C28? C 0.375(6) 0.2834(17) 0.6895(18)
C29? C 0.334(6) 0.2055(16) 0.6469(16)
C30? C 0.526(6) 0.2013(18) 0.6459(19)
H37? H 0.5843 0.1746 0.6284
C31? C 0.623(6) 0.2343(15) 0.6690(15)
H38? H 0.7521 0.2286 0.6723
C32? C 0.548(6) 0.2790(16) 0.6899(15)
H39? H 0.6249 0.3044 0.7036
C33? C 0.349(8) 0.484(3) 0.7500
C34? C 0.287(10) 0.573(4) 0.7500
C35? C 0.479(9) 0.582(3) 0.7500
H40? H 0.5238 0.6158 0.7500
C36? C 0.607(11) 0.542(2) 0.7500
H41? H 0.7357 0.5489 0.7500
C37? C 0.541(8) 0.493(3) 0.7500
H42? H 0.6250 0.4650 0.7500
C38? C 0.361(6) 0.4039(17) 0.8546(16)
C39? C 0.354(6) 0.425(2) 0.9382(17)
C40? C 0.535(6) 0.4307(15) 0.9449(17)
H43? H 0.5945 0.4387 0.9754
C41? C 0.631(7) 0.422(2) 0.896(2)
H44? H 0.7615 0.4263 0.8952
C42? C 0.552(6) 0.4099(16) 0.8560(18)
H45? H 0.6236 0.4048 0.8268
B8? B 0.043(6) 0.4192(18) 0.7192(17)
H46? H -0.0298 0.4490 0.6973
B9? B 0.038(6) 0.3568(18) 0.6974(17)
H47? H -0.0324 0.3436 0.6626
B10? B -0.094(9) 0.375(3) 0.7500
H48? H -0.2488 0.3754 0.7500
B11? B 0.041(8) 0.316(2) 0.7500
H49? H -0.0194 0.2768 0.7500
C43? C 0.220(13) 0.524(3) 0.7500
H50? H 0.0909 0.5172 0.7500
loop_
_geom_bond_atom_site_label_1
_geom_bond_atom_site_label_2
_geom_bond_site_symmetry_1
_geom_bond_site_symmetry_2
O1 C2 1_555 1_555
C1 H1 1_555 1_555
H2 C1 1_555 1_555
H3 C1 1_555 1_555
C2 C1 1_555 1_555
C3 C2 1_555 1_555
H4 C3 1_555 1_555
H5 C3 1_555 1_555
H6 C3 1_555 1_555
N1 C4 1_555 1_555
C4 H7 1_555 1_555
H8 C4 1_555 1_555
C5 C4 1_555 1_555
H9 C5 1_555 1_555
H10 C5 1_555 1_555
H11 C5 1_555 1_555
C6 N1 1_555 1_555
H12 C6 1_555 1_555
H13 C6 1_555 1_555
C7 C6 1_555 1_555
H14 C7 1_555 1_555
H15 C7 1_555 1_555
H16 C7 1_555 1_555
C8 H17 1_555 1_555
C9 H18 1_555 1_555
C10 H19 1_555 1_555
B1 B3 1_555 1_555
B2 C11 1_555 1_555
B3 C11 1_555 1_555
Br1 C13 1_555 1_555
Br2 C18 1_555 1_555
Br3 C23 1_555 1_555
C11 B1 1_555 1_555
H20 C11 1_555 1_555
C12 C8 1_555 1_555
C13 C8 1_555 1_555
C14 C13 1_555 1_555
H21 C14 1_555 1_555
C15 C14 1_555 1_555
H22 C15 1_555 1_555
C16 C12 1_555 1_555
H23 C16 1_555 1_555
C17 C9 1_555 1_555
C18 C9 1_555 1_555
C19 C18 1_555 1_555
H24 C19 1_555 1_555
C20 C19 1_555 1_555
H25 C20 1_555 1_555
C21 C17 1_555 1_555
H26 C21 1_555 1_555
C22 C10 1_555 1_555
C23 C10 1_555 1_555
C24 C23 1_555 1_555
H27 C24 1_555 1_555
C25 C24 1_555 1_555
H28 C25 1_555 1_555
C26 C22 1_555 1_555
H29 C26 1_555 1_555
B4 B1 1_555 1_555
H30 B4 1_555 1_555
B5 B2 1_555 1_555
H31 B5 1_555 1_555
B6 B2 1_555 1_555
H32 B6 1_555 1_555
B7 B4 1_555 1_555
H33 B7 1_555 1_555
C4C N1 1_555 1_555
H7C C4C 1_555 1_555
H8C C4C 1_555 1_555
C5C C4C 1_555 1_555
H9C C5C 1_555 1_555
H10C C5C 1_555 1_555
H11C C5C 1_555 1_555
C6C N1 1_555 1_555
H12C C6C 1_555 1_555
H13C C6C 1_555 1_555
C7C C6C 1_555 1_555
H14C C7C 1_555 1_555
H15C C7C 1_555 1_555
H16C C7C 1_555 1_555
C8E H17E 1_555 1_555
C9E H18E 1_555 1_555
B1E B2 1_555 1_555
B2E B1 1_555 1_555
Br1E C13E 1_555 1_555
Br2E C18E 1_555 1_555
C12E C8E 1_555 1_555
C13E C8E 1_555 1_555
C14E C13E 1_555 1_555
H21E C14E 1_555 1_555
C15E C14E 1_555 1_555
H22E C15E 1_555 1_555
C16E C12E 1_555 1_555
H23E C16E 1_555 1_555
C17E C9E 1_555 1_555
C18E C9E 1_555 1_555
C19E C18E 1_555 1_555
H24E C19E 1_555 1_555
C20E C19E 1_555 1_555
H25E C20E 1_555 1_555
C21E C17E 1_555 1_555
H26E C21E 1_555 1_555
B4E B3 1_555 1_555
H30E B4E 1_555 1_555
B6E B1 1_555 1_555
H32E B6E 1_555 1_555
B1 C12 1_555 1_555
B2 C17 1_555 1_555
B2 B2E 1_555 1_555
B3 C22 1_555 1_555
B3 B4 1_555 1_555
B3 B1E 1_555 1_555
C11 B1E 1_555 1_555
C11 B2E 1_555 1_555
C15 C16 1_555 1_555
C20 C21 1_555 1_555
C25 C26 1_555 1_555
B4 B4E 1_555 1_555
B4 B6E 1_555 1_555
B5 B6 1_555 1_555
B5 B7 1_555 1_555
B5 B2E 1_555 1_555
B5 B6E 1_555 1_555
B6 B7 1_555 1_555
B6 B1E 1_555 1_555
B6 B4E 1_555 1_555
B7 B4E 1_555 1_555
B7 B6E 1_555 1_555
B1E C12E 1_555 1_555
B1E B4E 1_555 1_555
B2E C17E 1_555 1_555
B2E B6E 1_555 1_555
C15E C16E 1_555 1_555
C20E C21E 1_555 1_555

#END
