
#######################################################################
#
#                 Cambridge Crystallographic Data Centre
#                                CCDC 
#
#######################################################################
#
# If this CIF has been generated from an entry in the Cambridge 
# Structural Database, then it will include bibliographic, chemical, 
# crystal, experimental, refinement or atomic coordinate data resulting 
# from the CCDC's data processing and validation procedures.
#
#######################################################################

data_AFOFOT
_chemical_formula_moiety         'C8 H20 N1 1+,C38 H44 B11 O7 1-'
_chemical_name_systematic        
'tetraethylammonium 1-methoxycarbonyl-2,3,4,5,6-pentakis(4-methoxyphenyl)-1-carba-closo-dodecaborate'
_symmetry_cell_setting           orthorhombic
_symmetry_space_group_name_H-M   'P b c n'
_symmetry_Int_Tables_number      60
_space_group_name_Hall           '-P 2n 2ab'
loop_
_symmetry_equiv_pos_site_id
_symmetry_equiv_pos_as_xyz
1 x,y,z
2 1/2-x,1/2-y,1/2+z
3 1/2+x,1/2-y,-z
4 -x,y,1/2-z
5 -x,-y,-z
6 1/2+x,1/2+y,1/2-z
7 1/2-x,1/2+y,z
8 x,-y,1/2+z
_cell_length_a                   23.6242(15)
_cell_length_b                   19.1081(9)
_cell_length_c                   22.3852(10)
_cell_angle_alpha                90
_cell_angle_beta                 90
_cell_angle_gamma                90
_cell_volume                     10105
_exptl_crystal_colour            colorless
_exptl_crystal_description       block
_cell_formula_units_Z            8
loop_
_atom_site_label
_atom_site_type_symbol
_atom_site_fract_x
_atom_site_fract_y
_atom_site_fract_z
O1 O 0.65249(9) 0.44273(11) 0.06871(11)
O2 O 0.72139(9) 0.50761(9) 0.10450(9)
O3 O 0.63975(15) 0.37146(17) -0.20140(11)
O4 O 0.48416(11) 0.20704(15) 0.09809(14)
O5 O 0.64530(13) 0.38374(14) 0.38670(10)
O6 O 0.88002(13) 0.62580(13) 0.28685(11)
O7 O 0.86918(12) 0.63035(12) -0.10097(11)
C1 C 0.74199(12) 0.38912(14) 0.09074(11)
C2 C 0.69976(13) 0.44806(14) 0.08670(11)
C3 C 0.68762(16) 0.56956(16) 0.09575(16)
H1 H 0.6817 0.5769 0.0538
H2 H 0.7069 0.6093 0.1124
H3 H 0.6517 0.5638 0.1153
C4 C 0.71915(14) 0.35138(13) -0.03704(13)
C5 C 0.75137(16) 0.35908(18) -0.08816(14)
H4 H 0.7906 0.3597 -0.0850
C6 C 0.72668(19) 0.36591(18) -0.14409(15)
H5 H 0.7492 0.3706 -0.1779
C7 C 0.66846(19) 0.36562(17) -0.14903(15)
C8 C 0.63664(18) 0.3581(2) -0.09837(15)
H6 H 0.5974 0.3577 -0.1012
C9 C 0.66168(15) 0.35127(16) -0.04373(14)
H7 H 0.6389 0.3464 -0.0101
C10 C 0.6693(3) 0.3685(3) -0.25403(18)
H8 H 0.6436 0.3737 -0.2869
H9 H 0.6882 0.3241 -0.2570
H10 H 0.6968 0.4055 -0.2550
C11 C 0.65104(13) 0.27897(14) 0.09221(12)
C12 C 0.63454(15) 0.22183(16) 0.05795(14)
H11 H 0.6611 0.1999 0.0338
C13 C 0.57958(16) 0.19674(18) 0.05886(17)
H12 H 0.5700 0.1583 0.0354
C14 C 0.53927(15) 0.22768(18) 0.09370(15)
C15 C 0.55500(15) 0.28469(18) 0.12806(16)
H13 H 0.5282 0.3066 0.1521
C16 C 0.60938(14) 0.30934(16) 0.12719(14)
H14 H 0.6187 0.3477 0.1508
C17 C 0.4674(2) 0.1461(3) 0.0674(3)
H15 H 0.4719 0.1532 0.0252
H16 H 0.4284 0.1363 0.0760
H17 H 0.4904 0.1074 0.0800
C18 C 0.71474(13) 0.35460(14) 0.21628(12)
C19 C 0.70871(15) 0.29988(15) 0.25588(14)
H18 H 0.7207 0.2557 0.2439
C20 C 0.68590(17) 0.30697(18) 0.31233(15)
H19 H 0.6833 0.2684 0.3375
C21 C 0.66728(16) 0.37051(17) 0.33076(13)
C22 C 0.67051(17) 0.42690(17) 0.29202(15)
H20 H 0.6569 0.4705 0.3037
C23 C 0.69386(14) 0.41826(15) 0.23639(13)
H21 H 0.6958 0.4568 0.2111
C24 C 0.6444(2) 0.3262(2) 0.42717(17)
H22 H 0.6169 0.2926 0.4141
H23 H 0.6346 0.3426 0.4664
H24 H 0.6811 0.3047 0.4283
C25 C 0.82119(12) 0.46676(14) 0.17321(12)
C26 C 0.82378(13) 0.46069(15) 0.23534(13)
H25 H 0.8123 0.4189 0.2528
C27 C 0.84251(14) 0.51347(16) 0.27175(14)
H26 H 0.8431 0.5071 0.3129
C28 C 0.86033(14) 0.57557(16) 0.24770(13)
C29 C 0.85813(15) 0.58467(16) 0.18662(14)
H27 H 0.8698 0.6267 0.1697
C30 C 0.83869(14) 0.53144(15) 0.15086(13)
H28 H 0.8371 0.5388 0.1098
C31 C 0.9133(2) 0.6797(2) 0.2630(2)
H29 H 0.8903 0.7091 0.2381
H30 H 0.9434 0.6600 0.2397
H31 H 0.9290 0.7071 0.2949
C32 C 0.81909(12) 0.46534(14) 0.01094(12)
C33 C 0.87569(13) 0.48366(15) 0.00097(13)
H32 H 0.9041 0.4583 0.0200
C34 C 0.89059(14) 0.53797(16) -0.03606(14)
H33 H 0.9286 0.5484 -0.0420
C35 C 0.84979(15) 0.57707(15) -0.06443(13)
C36 C 0.79415(15) 0.56029(16) -0.05651(14)
H34 H 0.7661 0.5857 -0.0760
C37 C 0.77953(13) 0.50527(15) -0.01932(13)
H35 H 0.7414 0.4947 -0.0145
C38 C 0.8274(2) 0.6749(2) -0.12640(18)
H36 H 0.8025 0.6477 -0.1511
H37 H 0.8455 0.7102 -0.1502
H38 H 0.8061 0.6968 -0.0951
B1 B 0.75088(15) 0.33837(17) 0.02550(14)
B2 B 0.71603(15) 0.30231(16) 0.09104(14)
B3 B 0.74859(14) 0.34177(15) 0.15665(14)
B4 B 0.80500(14) 0.40144(17) 0.13294(15)
B5 B 0.80488(14) 0.40043(16) 0.05179(14)
B6 B 0.82358(15) 0.31327(17) 0.02972(16)
H39 H 0.8483 0.3042 -0.0112
B7 B 0.76977(15) 0.25447(17) 0.05308(16)
H40 H 0.7593 0.2071 0.0275
B8 B 0.76811(15) 0.25580(17) 0.13197(16)
H41 H 0.7563 0.2093 0.1581
B9 B 0.82153(15) 0.31417(16) 0.15699(16)
H42 H 0.8444 0.3051 0.1991
B10 B 0.85523(15) 0.35050(18) 0.09320(15)
H43 H 0.9002 0.3654 0.0935
B11 B 0.83354(17) 0.26108(18) 0.09375(16)
H44 H 0.8643 0.2179 0.0947
N1 N 1.0000 0.3781(3) 0.2500
C39 C 1.0406(2) 0.3347(4) 0.2145(3)
H45 H 1.0628 0.3064 0.2417
H46 H 1.0665 0.3657 0.1936
C40 C 1.0117(3) 0.2860(5) 0.1683(4)
H47 H 0.9962 0.3136 0.1364
H48 H 0.9819 0.2603 0.1874
H49 H 1.0391 0.2539 0.1524
C41 C 0.9647(2) 0.4242(3) 0.2091(2)
H50 H 0.9413 0.3942 0.1843
H51 H 0.9394 0.4521 0.2337
C42 C 0.9974(3) 0.4728(4) 0.1690(3)
H52 H 0.9752 0.4835 0.1343
H53 H 1.0321 0.4506 0.1570
H54 H 1.0059 0.5152 0.1902
C39C C 0.9594(2) 0.3347(4) 0.2855(3)
H45C H 0.9372 0.3064 0.2583
H46C H 0.9335 0.3657 0.3064
C40C C 0.9883(3) 0.2860(5) 0.3317(4)
H47C H 1.0038 0.3136 0.3636
H48C H 1.0181 0.2603 0.3126
H49C H 0.9609 0.2539 0.3476
C41C C 1.0353(2) 0.4242(3) 0.2909(2)
H50C H 1.0587 0.3942 0.3157
H51C H 1.0606 0.4521 0.2663
C42C C 1.0026(3) 0.4728(4) 0.3310(3)
H52C H 1.0248 0.4835 0.3657
H53C H 0.9679 0.4506 0.3430
H54C H 0.9941 0.5152 0.3098
H55? H 0.4898 0.6736 0.0204
H56? H 0.5237 0.6212 0.0607
H57? H 0.5422 0.6336 -0.0057
H58? H 0.4718 0.4678 0.1412
H59? H 0.4493 0.5266 0.0985
H60? H 0.4387 0.4477 0.0830
C43? C 0.5180(6) 0.4782(7) 0.0672(9)
H61? H 0.5343 0.4316 0.0680
H62? H 0.5451 0.5111 0.0836
C44? C 0.4696(4) 0.5676(6) -0.0003(6)
H63? H 0.4565 0.5775 -0.0405
H64? H 0.4373 0.5650 0.0265
N2? N 0.5000 0.5000 0.0000
C45? C 0.5105(3) 0.6304(3) 0.0209(4)
H65? H 0.5370 0.6655 0.0333
H66? H 0.4964 0.6415 -0.0182
H67? H 0.4795 0.6289 0.0487
C46? C 0.4649(5) 0.4803(6) 0.1003(6)
H68? H 0.4306 0.4801 0.1234
H69? H 0.4820 0.4347 0.1018
H70? H 0.4906 0.5142 0.1165
C47? C 0.5418(5) 0.5540(6) 0.0193(8)
H71? H 0.5734 0.5553 -0.0085
H72? H 0.5564 0.5426 0.0586
C48? C 0.4492(6) 0.5019(9) 0.0258(9)
H73? H 0.4238 0.4680 0.0080
H74? H 0.4325 0.5481 0.0229
loop_
_geom_bond_atom_site_label_1
_geom_bond_atom_site_label_2
_geom_bond_site_symmetry_1
_geom_bond_site_symmetry_2
O1 C2 1_555 1_555
O2 C2 1_555 1_555
O3 C7 1_555 1_555
O4 C14 1_555 1_555
O5 C21 1_555 1_555
O6 C28 1_555 1_555
O7 C35 1_555 1_555
C1 C2 1_555 1_555
C3 O2 1_555 1_555
H1 C3 1_555 1_555
H2 C3 1_555 1_555
H3 C3 1_555 1_555
C4 C5 1_555 1_555
C5 H4 1_555 1_555
C6 C5 1_555 1_555
H5 C6 1_555 1_555
C7 C6 1_555 1_555
C8 C7 1_555 1_555
H6 C8 1_555 1_555
C9 C4 1_555 1_555
H7 C9 1_555 1_555
C10 O3 1_555 1_555
H8 C10 1_555 1_555
H9 C10 1_555 1_555
H10 C10 1_555 1_555
C11 C12 1_555 1_555
C12 H11 1_555 1_555
C13 C12 1_555 1_555
H12 C13 1_555 1_555
C14 C13 1_555 1_555
C15 C14 1_555 1_555
H13 C15 1_555 1_555
C16 C11 1_555 1_555
H14 C16 1_555 1_555
C17 O4 1_555 1_555
H15 C17 1_555 1_555
H16 C17 1_555 1_555
H17 C17 1_555 1_555
C18 C19 1_555 1_555
C19 H18 1_555 1_555
C20 C19 1_555 1_555
H19 C20 1_555 1_555
C21 C20 1_555 1_555
C22 C21 1_555 1_555
H20 C22 1_555 1_555
C23 C18 1_555 1_555
H21 C23 1_555 1_555
C24 O5 1_555 1_555
H22 C24 1_555 1_555
H23 C24 1_555 1_555
H24 C24 1_555 1_555
C25 C26 1_555 1_555
C26 H25 1_555 1_555
C27 C26 1_555 1_555
H26 C27 1_555 1_555
C28 C27 1_555 1_555
C29 C28 1_555 1_555
H27 C29 1_555 1_555
C30 C25 1_555 1_555
H28 C30 1_555 1_555
C31 O6 1_555 1_555
H29 C31 1_555 1_555
H30 C31 1_555 1_555
H31 C31 1_555 1_555
C32 C33 1_555 1_555
C33 H32 1_555 1_555
C34 C33 1_555 1_555
H33 C34 1_555 1_555
C35 C34 1_555 1_555
C36 C35 1_555 1_555
H34 C36 1_555 1_555
C37 C32 1_555 1_555
H35 C37 1_555 1_555
C38 O7 1_555 1_555
H36 C38 1_555 1_555
H37 C38 1_555 1_555
H38 C38 1_555 1_555
B1 C1 1_555 1_555
B2 C1 1_555 1_555
B3 C1 1_555 1_555
B4 C1 1_555 1_555
B5 C1 1_555 1_555
B6 B1 1_555 1_555
H39 B6 1_555 1_555
B7 B1 1_555 1_555
H40 B7 1_555 1_555
B8 B2 1_555 1_555
H41 B8 1_555 1_555
B9 B3 1_555 1_555
H42 B9 1_555 1_555
B10 B4 1_555 1_555
H43 B10 1_555 1_555
B11 B6 1_555 1_555
H44 B11 1_555 1_555
N1 C39 1_555 1_555
C39 H45 1_555 1_555
H46 C39 1_555 1_555
C40 C39 1_555 1_555
H47 C40 1_555 1_555
H48 C40 1_555 1_555
H49 C40 1_555 1_555
C41 N1 1_555 1_555
H50 C41 1_555 1_555
H51 C41 1_555 1_555
C42 C41 1_555 1_555
H52 C42 1_555 1_555
H53 C42 1_555 1_555
H54 C42 1_555 1_555
C39C N1 1_555 1_555
H45C C39C 1_555 1_555
H46C C39C 1_555 1_555
C40C C39C 1_555 1_555
H47C C40C 1_555 1_555
H48C C40C 1_555 1_555
H49C C40C 1_555 1_555
C41C N1 1_555 1_555
H50C C41C 1_555 1_555
H51C C41C 1_555 1_555
C42C C41C 1_555 1_555
H52C C42C 1_555 1_555
H53C C42C 1_555 1_555
H54C C42C 1_555 1_555
C4 B1 1_555 1_555
C8 C9 1_555 1_555
C11 B2 1_555 1_555
C15 C16 1_555 1_555
C18 B3 1_555 1_555
C22 C23 1_555 1_555
C25 B4 1_555 1_555
C29 C30 1_555 1_555
C32 B5 1_555 1_555
C36 C37 1_555 1_555
B1 B2 1_555 1_555
B1 B5 1_555 1_555
B2 B3 1_555 1_555
B2 B7 1_555 1_555
B3 B4 1_555 1_555
B3 B8 1_555 1_555
B4 B5 1_555 1_555
B4 B9 1_555 1_555
B5 B6 1_555 1_555
B5 B10 1_555 1_555
B6 B7 1_555 1_555
B6 B10 1_555 1_555
B7 B8 1_555 1_555
B7 B11 1_555 1_555
B8 B9 1_555 1_555
B8 B11 1_555 1_555
B9 B10 1_555 1_555
B9 B11 1_555 1_555
B10 B11 1_555 1_555

#END
