
#######################################################################
#
#                 Cambridge Crystallographic Data Centre
#                                CCDC 
#
#######################################################################
#
# If this CIF has been generated from an entry in the Cambridge 
# Structural Database, then it will include bibliographic, chemical, 
# crystal, experimental, refinement or atomic coordinate data resulting 
# from the CCDC's data processing and validation procedures.
#
#######################################################################

data_AFOGOU01
_chemical_formula_moiety         
'3(C1 H6 N3 1+),C24 H15 O9 S3 3-,3.7(C9 H14 O1),5.4(C1 H4 O1)'
_chemical_name_systematic        
'tris(Guanidinium) 1,3,5-tris(4-sulfonatophenyl)benzene tetrakis(isophorone) clathrate methanol solvate'
_symmetry_cell_setting           monoclinic
_symmetry_space_group_name_H-M   'P 21'
_symmetry_Int_Tables_number      4
_space_group_name_Hall           'P 2yb'
loop_
_symmetry_equiv_pos_site_id
_symmetry_equiv_pos_as_xyz
1 x,y,z
2 -x,1/2+y,-z
_cell_length_a                   22.955(5)
_cell_length_b                   7.4557(16)
_cell_length_c                   24.079(5)
_cell_angle_alpha                90
_cell_angle_beta                 117.366(3)
_cell_angle_gamma                90
_cell_volume                     3659.83
_exptl_crystal_colour            colorless
_exptl_crystal_description       needle
_cell_formula_units_Z            2
_exptl_crystal_preparation       
'single crystal was placed in a in-situ cell for single crystal-single crystal transformation experiments'
loop_
_atom_site_label
_atom_site_type_symbol
_atom_site_fract_x
_atom_site_fract_y
_atom_site_fract_z
N1 N 0.1645(4) 0.0769(16) 0.3096(4)
H16 H 0.153212 0.176552 0.321734
H17 H 0.155736 -0.027682 0.321021
N2 N 0.2086(5) 0.2299(14) 0.2565(5)
H18 H 0.198125 0.332541 0.267632
H19 H 0.228769 0.229140 0.233011
N3 N 0.2103(5) -0.0767(12) 0.2562(5)
H20 H 0.229879 -0.078130 0.232292
H21 H 0.200533 -0.178220 0.268717
C25 C 0.1948(5) 0.084(2) 0.2742(5)
N4 N 0.7319(4) 0.0799(16) 0.8744(4)
H22 H 0.722013 0.181865 0.853691
H23 H 0.722351 -0.022567 0.854019
N5 N 0.7756(6) 0.2255(14) 0.9669(5)
H24 H 0.766336 0.329625 0.947500
H25 H 0.795120 0.221718 1.008037
N6 N 0.7757(6) -0.0810(14) 0.9667(5)
H26 H 0.795112 -0.083207 1.007865
H27 H 0.765720 -0.182153 0.945498
C26 C 0.7609(6) 0.081(2) 0.9355(4)
N7 N 0.1143(4) 0.0733(16) 0.8463(4)
H28 H 0.133377 0.177265 0.860674
H29 H 0.135937 -0.027049 0.861581
N8 N 0.0233(5) 0.2198(14) 0.7807(5)
H30 H 0.043553 0.322036 0.795916
H31 H -0.017486 0.219642 0.750970
N9 N 0.0232(5) -0.0862(13) 0.7783(5)
H32 H 0.043745 -0.188870 0.792118
H33 H -0.017614 -0.085189 0.748564
C27 C 0.0540(5) 0.068(2) 0.8024(4)
O10 O 0.5474(4) 0.9543(14) 0.4547(5)
C28 C 0.4948(7) 0.8908(18) 0.4420(6)
C29 C 0.4592(7) 0.7771(19) 0.3867(6)
H34 H 0.479499 0.745916 0.361397
C30 C 0.4006(7) 0.7183(18) 0.3716(6)
C31 C 0.3659(7) 0.7518(18) 0.4085(6)
H35 H 0.371319 0.645887 0.435234
H36 H 0.318552 0.764524 0.379601
C32 C 0.3886(6) 0.9157(16) 0.4494(6)
C33 C 0.4630(5) 0.9116(17) 0.4838(6)
H37 H 0.478838 1.024217 0.507902
H38 H 0.477045 0.811088 0.514027
C34 C 0.3652(7) 0.598(2) 0.3143(7)
H39 H 0.321866 0.566243 0.309794
H40 H 0.360263 0.662306 0.276864
H41 H 0.390944 0.488751 0.319543
C35 C 0.3637(7) 0.919(2) 0.4988(8)
H42 H 0.379496 1.027133 0.524291
H43 H 0.315579 0.917708 0.477818
H44 H 0.379984 0.812521 0.525617
C36 C 0.3668(6) 1.087(2) 0.4108(6)
H45 H 0.382305 1.191292 0.438683
H46 H 0.385367 1.090612 0.381386
H47 H 0.318853 1.089845 0.387539
O11 O -0.0967(5) -0.0076(17) 0.4284(5)
C37 C -0.0601(9) 0.112(2) 0.4250(8)
C38 C -0.0869(8) 0.288(3) 0.3919(8)
H48 H -0.131929 0.314962 0.377776
C39 C -0.0519(8) 0.397(2) 0.3827(7)
C40 C 0.0202(8) 0.3791(18) 0.4074(7)
H49 H 0.042318 0.452872 0.445686
H50 H 0.032662 0.427775 0.376059
C41 C 0.0462(7) 0.181(2) 0.4233(7)
C42 C 0.0120(6) 0.090(3) 0.4583(6)
H51 H 0.022895 -0.038917 0.463203
H52 H 0.029017 0.143354 0.500626
C43 C -0.0780(8) 0.574(3) 0.3490(8)
H53 H -0.042256 0.640620 0.346749
H54 H -0.112682 0.550691 0.306570
H55 H -0.095812 0.645521 0.371850
C44 C 0.1178(7) 0.180(2) 0.4602(7)
H56 H 0.137549 0.238387 0.436431
H57 H 0.130496 0.244475 0.499506
H58 H 0.133341 0.055622 0.469257
C45 C 0.0243(6) 0.081(2) 0.3604(6)
H59 H -0.023616 0.084185 0.336624
H60 H 0.043484 0.140378 0.336240
H61 H 0.039323 -0.043307 0.368621
O12 O 0.4546(9) 0.446(3) 0.9113(9)
C46 C 0.4348(13) 0.383(4) 0.9473(11)
C47 C 0.3800(12) 0.259(4) 0.9283(12)
H62 H 0.358425 0.218278 0.886196
C48 C 0.3602(13) 0.203(4) 0.9679(12)
C49 C 0.3898(13) 0.252(4) 1.0322(11)
H63 H 0.413381 0.145232 1.056752
H64 H 0.353994 0.277873 1.043128
C50 C 0.4360(12) 0.405(3) 1.0540(11)
C51 C 0.4761(11) 0.395(4) 1.0191(10)
H65 H 0.504866 0.287878 1.033747
H66 H 0.504584 0.501793 1.029443
C52 C 0.3022(13) 0.073(5) 0.9501(14)
H67 H 0.295882 0.048507 0.986969
H68 H 0.262323 0.126499 0.917247
H69 H 0.311631 -0.040011 0.934810
C53 C 0.4848(15) 0.392(5) 1.1237(12)
H70 H 0.514199 0.496370 1.135701
H71 H 0.460889 0.390365 1.148434
H72 H 0.510716 0.282129 1.131352
C54 C 0.4009(14) 0.586(4) 1.0398(15)
H73 H 0.433451 0.683028 1.055066
H74 H 0.373715 0.598977 0.994506
H75 H 0.372967 0.593548 1.060615
O13 O 0.1284(10) 0.070(6) 0.9885(10)
C55 C 0.0803(13) 0.076(8) 0.9953(13)
C56 C 0.0768(14) 0.023(6) 1.0512(13)
H76 H 0.115706 -0.007438 1.087714
C57 C 0.0183(14) 0.018(6) 1.0517(13)
C58 C -0.0420(13) 0.045(7) 0.9963(12)
H77 H -0.056195 0.169999 0.997150
H78 H -0.075150 -0.034424 0.998982
C59 C -0.0447(13) 0.016(5) 0.9347(12)
C60 C 0.0158(12) 0.090(6) 0.9363(13)
H79 H 0.007742 0.218967 0.925615
H80 H 0.021747 0.031793 0.902366
C61 C -0.1037(14) 0.105(6) 0.8792(14)
H81 H -0.101816 0.079074 0.840197
H82 H -0.144724 0.057679 0.876653
H83 H -0.102056 0.235145 0.885718
C62 C -0.0491(18) -0.184(5) 0.9193(18)
H84 H -0.018196 0.137721 1.108887
H85 H 0.058351 0.092208 1.146758
C63 C 0.0237(16) 0.139(6) 1.1073(15)
S1 S 0.15120(11) 0.5743(5) 0.33289(11)
S2 S 0.70076(12) 0.5714(5) 0.83598(11)
S3 S 0.15331(12) 0.5679(5) 0.86147(11)
O1 O 0.1111(4) 0.4102(10) 0.3157(4)
O2 O 0.1972(3) 0.5738(12) 0.3075(3)
O3 O 0.1110(4) 0.7322(9) 0.3174(4)
O4 O 0.7229(4) 0.4093(10) 0.8161(4)
O5 O 0.7209(3) 0.5765(12) 0.9017(3)
O6 O 0.7185(4) 0.7315(10) 0.8141(4)
O7 O 0.1702(4) 0.4074(11) 0.9008(4)
O8 O 0.0854(3) 0.5726(12) 0.8165(3)
O9 O 0.1738(4) 0.7293(9) 0.8983(4)
C1 C 0.3034(5) 0.5358(16) 0.6126(5)
C2 C 0.3704(5) 0.5349(17) 0.6411(5)
H1 H 0.392861 0.537146 0.616366
C3 C 0.4070(5) 0.5307(18) 0.7073(6)
C4 C 0.3710(6) 0.5343(18) 0.7418(6)
H2 H 0.393860 0.537999 0.786223
C5 C 0.3048(5) 0.5327(17) 0.7128(6)
C6 C 0.2711(5) 0.5323(17) 0.6483(5)
H3 H 0.224524 0.529459 0.628235
C7 C 0.2670(5) 0.550(2) 0.5441(5)
C8 C 0.2105(6) 0.6428(17) 0.5152(6)
H4 H 0.194490 0.700372 0.540672
C9 C 0.1738(5) 0.6598(16) 0.4504(6)
H5 H 0.134678 0.728720 0.432215
C10 C 0.1967(4) 0.572(2) 0.4137(4)
C11 C 0.2536(5) 0.4693(15) 0.4403(6)
H6 H 0.268334 0.407346 0.414595
C12 C 0.2891(5) 0.4583(17) 0.5059(6)
H7 H 0.328072 0.388625 0.524649
C13 C 0.4790(6) 0.543(2) 0.7378(5)
C14 C 0.5139(7) 0.6329(16) 0.7126(6)
H8 H 0.490948 0.690401 0.673170
C15 C 0.5792(7) 0.6403(17) 0.7425(7)
H9 H 0.600916 0.701880 0.722836
C16 C 0.6161(5) 0.566(2) 0.7987(4)
C17 C 0.5835(6) 0.463(2) 0.8255(7)
H10 H 0.607698 0.399207 0.863374
C18 C 0.5157(7) 0.458(2) 0.7951(7)
H11 H 0.493324 0.394921 0.813903
C19 C 0.2687(6) 0.545(3) 0.7517(6)
C20 C 0.2930(7) 0.627(2) 0.8084(6)
H12 H 0.336294 0.674412 0.826646
C21 C 0.2567(7) 0.643(2) 0.8393(6)
H13 H 0.273410 0.713049 0.876289
C22 C 0.1972(5) 0.561(2) 0.8195(4)
C23 C 0.1737(6) 0.465(2) 0.7656(6)
H14 H 0.133757 0.399922 0.751398
C24 C 0.2095(7) 0.461(2) 0.7307(7)
H15 H 0.191770 0.399516 0.691937
H86? H -0.034387 -0.237831 0.898901
H87? H -0.010438 -0.245932 0.951106
H88? H -0.088794 -0.234430 0.918718
H89? H -0.050789 -0.200556 0.878173
loop_
_geom_bond_atom_site_label_1
_geom_bond_atom_site_label_2
_geom_bond_site_symmetry_1
_geom_bond_site_symmetry_2
S1 O1 1_555 1_555
S2 O4 1_555 1_555
S3 O7 1_555 1_555
O2 S1 1_555 1_555
O3 S1 1_555 1_555
O5 S2 1_555 1_555
O6 S2 1_555 1_555
O8 S3 1_555 1_555
O9 S3 1_555 1_555
C1 C2 1_555 1_555
C2 H1 1_555 1_555
C3 C2 1_555 1_555
C4 C3 1_555 1_555
H2 C4 1_555 1_555
C5 C4 1_555 1_555
C6 C1 1_555 1_555
H3 C6 1_555 1_555
C7 C1 1_555 1_555
C8 C7 1_555 1_555
H4 C8 1_555 1_555
C9 C8 1_555 1_555
H5 C9 1_555 1_555
C10 S1 1_555 1_555
C11 C10 1_555 1_555
H6 C11 1_555 1_555
C12 C7 1_555 1_555
H7 C12 1_555 1_555
C13 C3 1_555 1_555
C14 C13 1_555 1_555
H8 C14 1_555 1_555
C15 C14 1_555 1_555
H9 C15 1_555 1_555
C16 S2 1_555 1_555
C17 C16 1_555 1_555
H10 C17 1_555 1_555
C18 C13 1_555 1_555
H11 C18 1_555 1_555
C19 C5 1_555 1_555
C20 C19 1_555 1_555
H12 C20 1_555 1_555
C21 C20 1_555 1_555
H13 C21 1_555 1_555
C22 S3 1_555 1_555
C23 C22 1_555 1_555
H14 C23 1_555 1_555
C24 C19 1_555 1_555
H15 C24 1_555 1_555
N1 H16 1_555 1_555
H17 N1 1_555 1_555
N2 H18 1_555 1_555
H19 N2 1_555 1_555
N3 H20 1_555 1_555
H21 N3 1_555 1_555
C25 N1 1_555 1_555
N4 H22 1_555 1_555
H23 N4 1_555 1_555
N5 H24 1_555 1_555
H25 N5 1_555 1_555
N6 H26 1_555 1_555
H27 N6 1_555 1_555
C26 N4 1_555 1_555
N7 H28 1_555 1_555
H29 N7 1_555 1_555
N8 H30 1_555 1_555
H31 N8 1_555 1_555
N9 H32 1_555 1_555
H33 N9 1_555 1_555
C27 N7 1_555 1_555
O10 C28 1_555 1_555
C28 C29 1_555 1_555
C29 H34 1_555 1_555
C30 C29 1_555 1_555
C31 C30 1_555 1_555
H35 C31 1_555 1_555
H36 C31 1_555 1_555
C32 C31 1_555 1_555
C33 C28 1_555 1_555
H37 C33 1_555 1_555
H38 C33 1_555 1_555
C34 C30 1_555 1_555
H39 C34 1_555 1_555
H40 C34 1_555 1_555
H41 C34 1_555 1_555
C35 C32 1_555 1_555
H42 C35 1_555 1_555
H43 C35 1_555 1_555
H44 C35 1_555 1_555
C36 C32 1_555 1_555
H45 C36 1_555 1_555
H46 C36 1_555 1_555
H47 C36 1_555 1_555
O11 C37 1_555 1_555
C37 C38 1_555 1_555
C38 H48 1_555 1_555
C39 C38 1_555 1_555
C40 C39 1_555 1_555
H49 C40 1_555 1_555
H50 C40 1_555 1_555
C41 C40 1_555 1_555
C42 C37 1_555 1_555
H51 C42 1_555 1_555
H52 C42 1_555 1_555
C43 C39 1_555 1_555
H53 C43 1_555 1_555
H54 C43 1_555 1_555
H55 C43 1_555 1_555
C44 C41 1_555 1_555
H56 C44 1_555 1_555
H57 C44 1_555 1_555
H58 C44 1_555 1_555
C45 C41 1_555 1_555
H59 C45 1_555 1_555
H60 C45 1_555 1_555
H61 C45 1_555 1_555
O12 C46 1_555 1_555
C46 C47 1_555 1_555
C47 H62 1_555 1_555
C48 C47 1_555 1_555
C49 C48 1_555 1_555
H63 C49 1_555 1_555
H64 C49 1_555 1_555
C50 C49 1_555 1_555
C51 C46 1_555 1_555
H65 C51 1_555 1_555
H66 C51 1_555 1_555
C52 C48 1_555 1_555
H67 C52 1_555 1_555
H68 C52 1_555 1_555
H69 C52 1_555 1_555
C53 C50 1_555 1_555
H70 C53 1_555 1_555
H71 C53 1_555 1_555
H72 C53 1_555 1_555
C54 C50 1_555 1_555
H73 C54 1_555 1_555
H74 C54 1_555 1_555
H75 C54 1_555 1_555
O13 C55 1_555 1_555
C55 C56 1_555 1_555
C56 H76 1_555 1_555
C57 C56 1_555 1_555
C58 C57 1_555 1_555
H77 C58 1_555 1_555
H78 C58 1_555 1_555
C59 C58 1_555 1_555
C60 C55 1_555 1_555
H79 C60 1_555 1_555
H80 C60 1_555 1_555
C61 C59 1_555 1_555
H81 C61 1_555 1_555
H82 C61 1_555 1_555
H83 C61 1_555 1_555
C62 C59 1_555 1_555
H84 C63 1_555 1_555
H85 C63 1_555 1_555
C63 C57 1_555 1_555
C5 C6 1_555 1_555
C9 C10 1_555 1_555
C11 C12 1_555 1_555
C15 C16 1_555 1_555
C17 C18 1_555 1_555
C21 C22 1_555 1_555
C23 C24 1_555 1_555
N2 C25 1_555 1_555
N3 C25 1_555 1_555
N5 C26 1_555 1_555
N6 C26 1_555 1_555
N8 C27 1_555 1_555
N9 C27 1_555 1_555
C32 C33 1_555 1_555
C41 C42 1_555 1_555
C50 C51 1_555 1_555
C59 C60 1_555 1_555

#END
