
#######################################################################
#
#                 Cambridge Crystallographic Data Centre
#                                CCDC 
#
#######################################################################
#
# If this CIF has been generated from an entry in the Cambridge 
# Structural Database, then it will include bibliographic, chemical, 
# crystal, experimental, refinement or atomic coordinate data resulting 
# from the CCDC's data processing and validation procedures.
#
#######################################################################

data_AFUCEM
_chemical_formula_moiety         'C21 H21 N3 O1'
_chemical_name_systematic        
14-propyl-8,13,13b,14-tetrahydroindolo[2',3':3,4]pyrido[2,1-b]quinazolin-5(7H)-one
_symmetry_cell_setting           monoclinic
_symmetry_space_group_name_H-M   'P 21/c'
_symmetry_Int_Tables_number      14
_space_group_name_Hall           '-P 2ybc'
loop_
_symmetry_equiv_pos_site_id
_symmetry_equiv_pos_as_xyz
1 x,y,z
2 -x,1/2+y,1/2-z
3 -x,-y,-z
4 x,1/2-y,1/2+z
_cell_length_a                   15.913(6)
_cell_length_b                   8.626(4)
_cell_length_c                   13.089(5)
_cell_angle_alpha                90
_cell_angle_beta                 113.649(6)
_cell_angle_gamma                90
_cell_volume                     1645.78
_exptl_crystal_colour            yellow
_exptl_crystal_description       block
_cell_formula_units_Z            4
loop_
_atom_site_label
_atom_site_type_symbol
_atom_site_fract_x
_atom_site_fract_y
_atom_site_fract_z
C1 C 0.1856(2) 0.2319(4) 0.2088(3)
C2 C 0.1388(3) 0.1243(5) 0.1265(4)
H1 H 0.1413 0.0196 0.1446
C3 C 0.0892(3) 0.1710(6) 0.0197(4)
H2 H 0.0583 0.0984 -0.0351
C4 C 0.0851(3) 0.3263(6) -0.0070(4)
H3 H 0.0510 0.3580 -0.0799
C5 C 0.1305(3) 0.4340(6) 0.0724(4)
H4 H 0.1266 0.5384 0.0533
C6 C 0.1827(2) 0.3887(4) 0.1818(3)
C7 C 0.2978(3) 0.4369(4) 0.3652(3)
H5 H 0.3060 0.5145 0.4231
C8 C 0.2330(3) 0.1779(4) 0.3242(4)
C9 C 0.1857(3) 0.6406(4) 0.2709(4)
H6 H 0.1552 0.6845 0.1969
H7 H 0.2321 0.7139 0.3155
C10 C 0.1160(3) 0.6227(5) 0.3218(4)
H8 H 0.0700 0.5474 0.2791
H9 H 0.1463 0.5840 0.3974
C11 C 0.0697(3) 0.7749(6) 0.3233(5)
H10 H 0.1155 0.8520 0.3598
H11 H 0.0308 0.7624 0.3628
H12 H 0.0336 0.8071 0.2481
C12 C 0.3373(3) 0.2416(5) 0.5113(3)
H13 H 0.3132 0.1523 0.5358
H14 H 0.3458 0.3246 0.5646
C13 C 0.4294(3) 0.1998(5) 0.5087(4)
H15 H 0.4773 0.2108 0.5829
H16 H 0.4282 0.0924 0.4862
C14 C 0.4504(2) 0.3015(4) 0.4295(3)
C15 C 0.3903(2) 0.4064(4) 0.3639(3)
C16 C 0.5125(2) 0.4253(4) 0.3221(3)
C17 C 0.5301(2) 0.3110(4) 0.4045(3)
C18 C 0.6145(3) 0.2323(4) 0.4427(3)
H17 H 0.6286 0.1572 0.4980
C19 C 0.6758(3) 0.2688(5) 0.3963(4)
H18 H 0.7317 0.2168 0.4208
C20 C 0.6567(3) 0.3808(5) 0.3145(4)
H19 H 0.6997 0.4023 0.2849
C21 C 0.5753(3) 0.4608(5) 0.2760(4)
H20 H 0.5624 0.5361 0.2209
N1 N 0.2715(2) 0.2904(4) 0.4020(3)
N2 N 0.2313(2) 0.4966(3) 0.2622(3)
N3 N 0.4266(2) 0.4848(4) 0.2991(3)
O1 O 0.2348(2) 0.0415(3) 0.3500(3)
loop_
_geom_bond_atom_site_label_1
_geom_bond_atom_site_label_2
_geom_bond_site_symmetry_1
_geom_bond_site_symmetry_2
C1 C2 1_555 1_555
C2 H1 1_555 1_555
C3 C2 1_555 1_555
H2 C3 1_555 1_555
C4 C3 1_555 1_555
H3 C4 1_555 1_555
C5 C4 1_555 1_555
H4 C5 1_555 1_555
C6 C1 1_555 1_555
C7 H5 1_555 1_555
C8 C1 1_555 1_555
C9 H6 1_555 1_555
H7 C9 1_555 1_555
C10 C9 1_555 1_555
H8 C10 1_555 1_555
H9 C10 1_555 1_555
C11 C10 1_555 1_555
H10 C11 1_555 1_555
H11 C11 1_555 1_555
H12 C11 1_555 1_555
C12 H13 1_555 1_555
H14 C12 1_555 1_555
C13 C12 1_555 1_555
H15 C13 1_555 1_555
H16 C13 1_555 1_555
C14 C13 1_555 1_555
C15 C7 1_555 1_555
C16 C17 1_555 1_555
C17 C14 1_555 1_555
C18 C17 1_555 1_555
H17 C18 1_555 1_555
C19 C18 1_555 1_555
H18 C19 1_555 1_555
C20 C19 1_555 1_555
H19 C20 1_555 1_555
C21 C16 1_555 1_555
H20 C21 1_555 1_555
N1 C7 1_555 1_555
N2 C6 1_555 1_555
N3 C15 1_555 1_555
O1 C8 1_555 1_555
C5 C6 1_555 1_555
C7 N2 1_555 1_555
C8 N1 1_555 1_555
C9 N2 1_555 1_555
C12 N1 1_555 1_555
C14 C15 1_555 1_555
C16 N3 1_555 1_555
C20 C21 1_555 1_555

#END
