
#######################################################################
#
#                 Cambridge Crystallographic Data Centre
#                                CCDC 
#
#######################################################################
#
# If this CIF has been generated from an entry in the Cambridge 
# Structural Database, then it will include bibliographic, chemical, 
# crystal, experimental, refinement or atomic coordinate data resulting 
# from the CCDC's data processing and validation procedures.
#
#######################################################################

data_AFUZEJ
_chemical_formula_moiety         'C64 H57 N3 O6,C1 H2 Cl2'
_chemical_name_systematic        
"2,6,10-tris[2,6-bis(propan-2-yl)phenyl]-1H-isoquinolino[4',5',6':7,8,9]pyrrolo[3',4':4,5]pyreno[2,1,10-def]isoquinoline-1,3,5,7,9,11(2H,6H,10H)-hexone dichloromethane unknown solvate"
_symmetry_cell_setting           monoclinic
_symmetry_space_group_name_H-M   'P 21/c'
_symmetry_Int_Tables_number      14
_space_group_name_Hall           '-P 2ybc'
loop_
_symmetry_equiv_pos_site_id
_symmetry_equiv_pos_as_xyz
1 x,y,z
2 -x,1/2+y,1/2-z
3 -x,-y,-z
4 x,1/2-y,1/2+z
_cell_length_a                   22.793(5)
_cell_length_b                   19.106(4)
_cell_length_c                   14.475(3)
_cell_angle_alpha                90
_cell_angle_beta                 107.05(3)
_cell_angle_gamma                90
_cell_volume                     6026.57
_exptl_crystal_colour            colorless
_exptl_crystal_description       Prism
_cell_formula_units_Z            4
loop_
_atom_site_label
_atom_site_type_symbol
_atom_site_fract_x
_atom_site_fract_y
_atom_site_fract_z
Cl1 Cl 0.7468(2) 0.7654(2) 0.3001(3)
Cl2 Cl 0.6982(2) 0.9018(2) 0.2402(3)
C1 C 0.6992(6) 0.8307(7) 0.3169(10)
H1 H 0.657034 0.812036 0.304181
H2 H 0.713200 0.846721 0.384864
O1 O 0.76983(17) 0.83987(19) 0.5593(3)
O2 O 0.67872(19) 0.2575(2) 0.4502(4)
O3 O 0.61218(19) 0.7006(2) 0.3764(4)
O4 O 0.57614(19) 0.4634(2) 0.3291(4)
O5 O 0.9675(2) 0.7942(2) 0.7367(4)
O6 O 0.8739(2) 0.2103(2) 0.6314(4)
N1 N 0.7756(2) 0.2325(2) 0.5444(4)
N2 N 0.86881(19) 0.8173(2) 0.6435(3)
C2 C 0.7650(2) 0.5016(3) 0.5398(4)
C3 C 0.7304(2) 0.6220(3) 0.5110(4)
C4 C 0.8126(2) 0.4513(3) 0.5796(4)
C5 C 0.6961(2) 0.4024(2) 0.4684(4)
H3 H 0.657640 0.386062 0.428349
N3 N 0.5797(2) 0.5868(3) 0.3364(4)
C6 C 0.7974(3) 0.7204(3) 0.5838(4)
C7 C 0.7754(2) 0.5748(3) 0.5542(4)
C8 C 0.6736(3) 0.5978(3) 0.4503(4)
C9 C 0.7069(2) 0.4746(3) 0.4817(5)
C10 C 0.8721(2) 0.4738(3) 0.6385(4)
C11 C 0.6631(2) 0.5289(3) 0.4341(4)
C12 C 0.7274(3) 0.2789(3) 0.4966(5)
C13 C 0.8090(3) 0.7964(3) 0.5933(4)
C14 C 0.9036(2) 0.6953(3) 0.6773(4)
C15 C 0.8462(2) 0.6717(3) 0.6268(4)
C16 C 0.9513(3) 0.6474(3) 0.7159(4)
H4 H 0.990402 0.664258 0.752543
C17 C 0.9427(3) 0.5784(3) 0.7021(5)
H5 H 0.976245 0.547161 0.725548
C18 C 0.8811(3) 0.8923(3) 0.6511(5)
C19 C 0.7413(2) 0.6976(3) 0.5284(5)
H6 H 0.709444 0.730258 0.501307
C20 C 0.8361(3) 0.5976(3) 0.6143(4)
C21 C 0.8006(2) 0.3796(3) 0.5687(5)
C22 C 0.8478(2) 0.3295(3) 0.6085(4)
C23 C 0.6194(2) 0.6376(3) 0.3871(4)
C24 C 0.6030(3) 0.5172(4) 0.3623(5)
C25 C 0.8842(2) 0.5518(3) 0.6530(5)
C26 C 0.8349(3) 0.2542(3) 0.5979(6)
C27 C 0.9170(3) 0.4241(3) 0.6771(5)
H7 H 0.956941 0.438970 0.713301
C28 C 0.5250(3) 0.6014(3) 0.2598(5)
C29 C 0.9036(3) 1.0302(5) 0.6499(9)
H8 H 0.910905 1.079082 0.648446
C30 C 0.7393(3) 0.0188(4) 0.5217(6)
H9 H 0.732866 -0.030404 0.518123
C31 C 0.7401(3) 0.3564(3) 0.5123(5)
C32 C 0.7582(3) 0.0501(3) 0.4510(5)
H10 H 0.763390 0.022619 0.399267
C33 C 0.9047(3) 0.3533(4) 0.6637(5)
H11 H 0.935896 0.320425 0.692880
C34 C 0.9002(3) 0.9217(4) 0.5756(7)
C35 C 0.7624(3) 0.1565(3) 0.5317(5)
C36 C 0.9171(3) 0.7719(3) 0.6908(5)
C37 C 0.7697(3) 0.1185(4) 0.4528(5)
C38 C 0.8754(4) 0.9258(4) 0.7314(5)
C39 C 0.7285(4) 0.0554(4) 0.6003(7)
H12 H 0.713400 0.032119 0.646646
C40 C 0.7411(3) 0.1270(3) 0.6067(6)
C41 C 0.4190(4) 0.6312(5) 0.1147(8)
H13 H 0.382487 0.641298 0.064512
C42 C 0.9095(4) 0.9939(5) 0.5789(8)
H14 H 0.920295 1.016389 0.527744
C43 C 0.7312(5) 0.1686(4) 0.6901(6)
H15 H 0.736098 0.219329 0.676926
C44 C 0.5267(3) 0.6064(5) 0.1665(6)
C45 C 0.7896(5) 0.1569(4) 0.3772(7)
H16 H 0.785353 0.208369 0.386197
C46 C 0.9075(4) 0.8787(5) 0.4870(8)
H17 H 0.892566 0.830214 0.493083
C47 C 0.4693(4) 0.6091(5) 0.2830(8)
C48 C 0.8557(6) 0.8948(5) 0.8097(7)
H18 H 0.854788 0.843101 0.798554
C49 C 0.4728(4) 0.6234(5) 0.0929(7)
H19 H 0.474044 0.629418 0.028379
C50 C 0.4168(4) 0.6248(7) 0.2043(8)
H20 H 0.378492 0.631021 0.216869
C51 C 0.8882(4) 1.0053(5) 0.7263(8)
H21 H 0.885072 1.035861 0.776479
C52 C 0.7889(6) 0.9156(6) 0.8063(11)
H22 H 0.787464 0.965621 0.820398
H23 H 0.776141 0.888435 0.854573
H24 H 0.761117 0.905754 0.741856
C53 C 0.6660(5) 0.1586(6) 0.7017(10)
H25 H 0.635048 0.171109 0.641123
H26 H 0.661336 0.188806 0.753819
H27 H 0.660525 0.109621 0.717426
C54 C 0.7827(5) 0.1487(5) 0.7851(6)
H28 H 0.787063 0.097675 0.789496
H29 H 0.771540 0.166288 0.841278
H30 H 0.821687 0.169689 0.783788
C55 C 0.4654(4) 0.6067(8) 0.3800(10)
H31 H 0.508404 0.605831 0.424127
C56 C 0.5901(5) 0.6014(12) 0.1374(9)
H32 H 0.622234 0.587480 0.198010
C57 C 0.9747(5) 0.8726(8) 0.4887(9)
H33 H 0.989040 0.918027 0.472366
H34 H 0.978404 0.837539 0.441378
H35 H 0.999580 0.858479 0.553349
C58 C 0.8599(5) 0.1392(8) 0.3912(11)
H36 H 0.885790 0.172811 0.436301
H37 H 0.868361 0.142207 0.328738
H38 H 0.868804 0.091770 0.417209
C59 C 0.8660(5) 0.9090(8) 0.3945(9)
H39 H 0.825778 0.919374 0.402844
H40 H 0.861253 0.875153 0.341997
H41 H 0.884176 0.952231 0.378690
C60 C 0.7548(5) 0.1377(7) 0.2749(9)
H42 H 0.753758 0.086691 0.267987
H43 H 0.775212 0.158289 0.230471
H44 H 0.712786 0.155728 0.259782
C61 C 0.5837(7) 0.5418(9) 0.0725(11)
H45 H 0.540143 0.530830 0.044280
H46 H 0.604909 0.501235 0.108693
H47 H 0.601892 0.553297 0.020809
C62 C 0.4345(8) 0.5402(9) 0.3980(12)
H48 H 0.412336 0.518878 0.335971
H49 H 0.405536 0.551203 0.434311
H50 H 0.465556 0.507418 0.435215
C63 C 0.4323(9) 0.6710(11) 0.4104(16)
H51 H 0.457859 0.712875 0.415004
H52 H 0.425839 0.661682 0.473251
H53 H 0.392632 0.678568 0.361856
C64 C 0.8984(8) 0.9058(9) 0.9087(8)
H54 H 0.918860 0.861604 0.933340
H55 H 0.875214 0.922296 0.951762
H56 H 0.929325 0.940878 0.906138
C65 C 0.6100(13) 0.675(2) 0.1104(14)
H57 H 0.591237 0.684028 0.041284
H58 H 0.654740 0.677223 0.125410
H59 H 0.596283 0.711425 0.147816
loop_
_geom_bond_atom_site_label_1
_geom_bond_atom_site_label_2
_geom_bond_site_symmetry_1
_geom_bond_site_symmetry_2
Cl1 C1 1_555 1_555
Cl2 C1 1_555 1_555
C1 H1 1_555 1_555
H2 C1 1_555 1_555
O1 C13 1_555 1_555
O2 C12 1_555 1_555
O3 C23 1_555 1_555
O4 C24 1_555 1_555
O5 C36 1_555 1_555
O6 C26 1_555 1_555
N1 C12 1_555 1_555
N2 C13 1_555 1_555
C2 C4 1_555 1_555
C3 C7 1_555 1_555
C4 C10 1_555 1_555
C5 H3 1_555 1_555
N3 C23 1_555 1_555
C6 C13 1_555 1_555
C7 C2 1_555 1_555
C8 C3 1_555 1_555
C9 C2 1_555 1_555
C10 C25 1_555 1_555
C11 C8 1_555 1_555
C12 C31 1_555 1_555
C14 C15 1_555 1_555
C15 C6 1_555 1_555
C16 C14 1_555 1_555
H4 C16 1_555 1_555
C17 C16 1_555 1_555
H5 C17 1_555 1_555
C18 N2 1_555 1_555
C19 C3 1_555 1_555
H6 C19 1_555 1_555
C20 C7 1_555 1_555
C21 C4 1_555 1_555
C22 C21 1_555 1_555
C23 C8 1_555 1_555
C24 N3 1_555 1_555
C25 C17 1_555 1_555
C26 N1 1_555 1_555
C27 C10 1_555 1_555
H7 C27 1_555 1_555
C28 N3 1_555 1_555
C29 H8 1_555 1_555
C30 H9 1_555 1_555
C31 C5 1_555 1_555
C32 C30 1_555 1_555
H10 C32 1_555 1_555
C33 C22 1_555 1_555
H11 C33 1_555 1_555
C34 C18 1_555 1_555
C35 N1 1_555 1_555
C36 N2 1_555 1_555
C37 C32 1_555 1_555
C38 C18 1_555 1_555
C39 C30 1_555 1_555
H12 C39 1_555 1_555
C40 C35 1_555 1_555
C41 H13 1_555 1_555
C42 C29 1_555 1_555
H14 C42 1_555 1_555
C43 C40 1_555 1_555
H15 C43 1_555 1_555
C44 C28 1_555 1_555
C45 C37 1_555 1_555
H16 C45 1_555 1_555
C46 C34 1_555 1_555
H17 C46 1_555 1_555
C47 C28 1_555 1_555
C48 C38 1_555 1_555
H18 C48 1_555 1_555
C49 C41 1_555 1_555
H19 C49 1_555 1_555
C50 C41 1_555 1_555
H20 C50 1_555 1_555
C51 C29 1_555 1_555
H21 C51 1_555 1_555
C52 C48 1_555 1_555
H22 C52 1_555 1_555
H23 C52 1_555 1_555
H24 C52 1_555 1_555
C53 C43 1_555 1_555
H25 C53 1_555 1_555
H26 C53 1_555 1_555
H27 C53 1_555 1_555
C54 C43 1_555 1_555
H28 C54 1_555 1_555
H29 C54 1_555 1_555
H30 C54 1_555 1_555
C55 C47 1_555 1_555
H31 C55 1_555 1_555
C56 C44 1_555 1_555
H32 C56 1_555 1_555
C57 C46 1_555 1_555
H33 C57 1_555 1_555
H34 C57 1_555 1_555
H35 C57 1_555 1_555
C58 C45 1_555 1_555
H36 C58 1_555 1_555
H37 C58 1_555 1_555
H38 C58 1_555 1_555
C59 C46 1_555 1_555
H39 C59 1_555 1_555
H40 C59 1_555 1_555
H41 C59 1_555 1_555
C60 C45 1_555 1_555
H42 C60 1_555 1_555
H43 C60 1_555 1_555
H44 C60 1_555 1_555
C61 C56 1_555 1_555
H45 C61 1_555 1_555
H46 C61 1_555 1_555
H47 C61 1_555 1_555
C62 C55 1_555 1_555
H48 C62 1_555 1_555
H49 C62 1_555 1_555
H50 C62 1_555 1_555
C63 C55 1_555 1_555
H51 C63 1_555 1_555
H52 C63 1_555 1_555
H53 C63 1_555 1_555
C64 C48 1_555 1_555
H54 C64 1_555 1_555
H55 C64 1_555 1_555
H56 C64 1_555 1_555
C65 C56 1_555 1_555
H57 C65 1_555 1_555
H58 C65 1_555 1_555
H59 C65 1_555 1_555
C5 C9 1_555 1_555
C6 C19 1_555 1_555
C9 C11 1_555 1_555
C11 C24 1_555 1_555
C14 C36 1_555 1_555
C15 C20 1_555 1_555
C20 C25 1_555 1_555
C21 C31 1_555 1_555
C22 C26 1_555 1_555
C27 C33 1_555 1_555
C34 C42 1_555 1_555
C35 C37 1_555 1_555
C38 C51 1_555 1_555
C39 C40 1_555 1_555
C44 C49 1_555 1_555
C47 C50 1_555 1_555

#END
