
#######################################################################
#
#                 Cambridge Crystallographic Data Centre
#                                CCDC 
#
#######################################################################
#
# If this CIF has been generated from an entry in the Cambridge 
# Structural Database, then it will include bibliographic, chemical, 
# crystal, experimental, refinement or atomic coordinate data resulting 
# from the CCDC's data processing and validation procedures.
#
#######################################################################

data_AGADOE
_chemical_formula_moiety         'C30 H29 N3 O4 S1'
_chemical_name_systematic        
't-butyl [1-benzyl-3-(5-methyl-4-oxo-2-phenyl-4,5-dihydro-1,3-thiazol-5-yl)-2-oxo-2,3-dihydro-1H-indol-3-yl]carbamate'
_symmetry_cell_setting           monoclinic
_symmetry_space_group_name_H-M   'P 21'
_symmetry_Int_Tables_number      4
_space_group_name_Hall           'P 2yb'
loop_
_symmetry_equiv_pos_site_id
_symmetry_equiv_pos_as_xyz
1 x,y,z
2 -x,1/2+y,-z
_cell_length_a                   8.6306(4)
_cell_length_b                   10.9636(6)
_cell_length_c                   14.5139(7)
_cell_angle_alpha                90
_cell_angle_beta                 90.644(2)
_cell_angle_gamma                90
_cell_volume                     1373.25
_exptl_crystal_colour            colorless
_exptl_crystal_description       block
_cell_formula_units_Z            2
loop_
_atom_site_label
_atom_site_type_symbol
_atom_site_fract_x
_atom_site_fract_y
_atom_site_fract_z
S1 S 0.18423(6) 0.38570(5) 0.29561(3)
O1 O 0.1684(2) 0.63653(16) 0.11151(12)
O2 O 0.33100(18) 0.64569(15) 0.45038(11)
O3 O 0.6043(2) 0.76070(16) 0.31672(12)
O4 O 0.49992(18) 0.87738(18) 0.20154(11)
N1 N 0.1545(2) 0.42754(18) 0.11763(13)
N2 N 0.3678(2) 0.72077(17) 0.25262(13)
H1 H 0.2852 0.7550 0.2277
N3 N 0.5015(2) 0.49668(17) 0.40455(13)
C1 C 0.1133(3) 0.1795(2) 0.06578(17)
H2 H 0.0901 0.2405 0.0212
C2 C 0.1096(3) 0.0578(2) 0.04124(18)
H3 H 0.0846 0.0353 -0.0203
C3 C 0.1420(3) -0.0313(2) 0.10612(19)
H4 H 0.1413 -0.1148 0.0887
C4 C 0.1757(3) 0.0009(2) 0.19652(18)
H5 H 0.1955 -0.0608 0.2411
C5 C 0.1807(3) 0.1222(2) 0.22199(16)
H6 H 0.2038 0.1439 0.2840
C6 C 0.1514(3) 0.2132(2) 0.15626(16)
C7 C 0.1617(2) 0.3427(2) 0.17987(15)
C8 C 0.1958(3) 0.5450(2) 0.26211(15)
C9 C 0.1719(3) 0.5428(2) 0.15613(16)
C10 C 0.0645(3) 0.6188(2) 0.30499(17)
H7 H -0.0354 0.5826 0.2873
H8 H 0.0689 0.7031 0.2828
H9 H 0.0758 0.6178 0.3722
C11 C 0.3625(2) 0.5955(2) 0.28474(15)
C12 C 0.3937(3) 0.5868(2) 0.39089(14)
C13 C 0.5656(3) 0.4568(2) 0.32093(15)
C14 C 0.6854(3) 0.3756(2) 0.30828(17)
H10 H 0.7356 0.3367 0.3589
C15 C 0.7294(3) 0.3535(2) 0.2178(2)
H11 H 0.8119 0.2982 0.2065
C16 C 0.6562(3) 0.4097(2) 0.14391(18)
H12 H 0.6885 0.3923 0.0829
C17 C 0.5347(3) 0.4921(2) 0.15844(17)
H13 H 0.4853 0.5321 0.1081
C18 C 0.4890(3) 0.5135(2) 0.24721(15)
C19 C 0.5554(3) 0.4582(2) 0.49565(16)
H14 H 0.5576 0.3680 0.4981
H15 H 0.4811 0.4869 0.5424
C20 C 0.7157(3) 0.5071(2) 0.51954(15)
C21 C 0.7519(3) 0.6292(2) 0.50581(15)
H16 H 0.6761 0.6832 0.4809
C22 C 0.8987(3) 0.6725(2) 0.52847(15)
H17 H 0.9229 0.7562 0.5194
C23 C 1.0102(3) 0.5942(2) 0.56425(16)
H18 H 1.1108 0.6240 0.5792
C24 C 0.9748(3) 0.4727(2) 0.57814(17)
H19 H 1.0509 0.4192 0.6032
C25 C 0.8276(3) 0.4285(2) 0.55551(16)
H20 H 0.8038 0.3448 0.5647
C26 C 0.5030(3) 0.7847(2) 0.26177(15)
C27 C 0.6397(3) 0.9477(3) 0.18214(19)
C28 C 0.5873(4) 1.0318(4) 0.1041(2)
H21 H 0.5483 0.9827 0.0524
H22 H 0.6751 1.0812 0.0838
H23 H 0.5047 1.0855 0.1260
C29 C 0.7636(5) 0.8575(5) 0.1523(4)
H24 H 0.7916 0.8046 0.2043
H25 H 0.8555 0.9022 0.1321
H26 H 0.7235 0.8077 0.1013
C30 C 0.6872(6) 1.0209(3) 0.2640(3)
H27 H 0.6032 1.0767 0.2804
H28 H 0.7803 1.0680 0.2496
H29 H 0.7092 0.9661 0.3159
loop_
_geom_bond_atom_site_label_1
_geom_bond_atom_site_label_2
_geom_bond_site_symmetry_1
_geom_bond_site_symmetry_2
S1 C7 1_555 1_555
O1 C9 1_555 1_555
O2 C12 1_555 1_555
O3 C26 1_555 1_555
O4 C26 1_555 1_555
N1 C7 1_555 1_555
N2 H1 1_555 1_555
N3 C12 1_555 1_555
C1 H2 1_555 1_555
C2 C1 1_555 1_555
H3 C2 1_555 1_555
C3 C2 1_555 1_555
H4 C3 1_555 1_555
C4 C3 1_555 1_555
H5 C4 1_555 1_555
C5 C4 1_555 1_555
H6 C5 1_555 1_555
C6 C1 1_555 1_555
C7 C6 1_555 1_555
C8 S1 1_555 1_555
C9 N1 1_555 1_555
C10 C8 1_555 1_555
H7 C10 1_555 1_555
H8 C10 1_555 1_555
H9 C10 1_555 1_555
C11 N2 1_555 1_555
C12 C11 1_555 1_555
C13 N3 1_555 1_555
C14 C13 1_555 1_555
H10 C14 1_555 1_555
C15 C14 1_555 1_555
H11 C15 1_555 1_555
C16 C15 1_555 1_555
H12 C16 1_555 1_555
C17 C16 1_555 1_555
H13 C17 1_555 1_555
C18 C11 1_555 1_555
C19 N3 1_555 1_555
H14 C19 1_555 1_555
H15 C19 1_555 1_555
C20 C19 1_555 1_555
C21 C20 1_555 1_555
H16 C21 1_555 1_555
C22 C21 1_555 1_555
H17 C22 1_555 1_555
C23 C22 1_555 1_555
H18 C23 1_555 1_555
C24 C23 1_555 1_555
H19 C24 1_555 1_555
C25 C20 1_555 1_555
H20 C25 1_555 1_555
C26 N2 1_555 1_555
C27 O4 1_555 1_555
C28 C27 1_555 1_555
H21 C28 1_555 1_555
H22 C28 1_555 1_555
H23 C28 1_555 1_555
C29 C27 1_555 1_555
H24 C29 1_555 1_555
H25 C29 1_555 1_555
H26 C29 1_555 1_555
C30 C27 1_555 1_555
H27 C30 1_555 1_555
H28 C30 1_555 1_555
H29 C30 1_555 1_555
C5 C6 1_555 1_555
C8 C9 1_555 1_555
C8 C11 1_555 1_555
C13 C18 1_555 1_555
C17 C18 1_555 1_555
C24 C25 1_555 1_555

#END
