
#######################################################################
#
#                 Cambridge Crystallographic Data Centre
#                                CCDC 
#
#######################################################################
#
# If this CIF has been generated from an entry in the Cambridge 
# Structural Database, then it will include bibliographic, chemical, 
# crystal, experimental, refinement or atomic coordinate data resulting 
# from the CCDC's data processing and validation procedures.
#
#######################################################################

data_AGAHAR
_chemical_formula_moiety         'C18 H16 F4 N4'
_chemical_name_systematic        
7,7-Dicyano-2,3,5,6-tetrafluoro-8,8-bis(pyrrolidino)tetracyanoquinodimethane
_symmetry_cell_setting           monoclinic
_symmetry_space_group_name_H-M   'P 21/c'
_symmetry_Int_Tables_number      14
_space_group_name_Hall           '-P 2ybc'
loop_
_symmetry_equiv_pos_site_id
_symmetry_equiv_pos_as_xyz
1 x,y,z
2 x,1/2-y,1/2+z
3 -x,-y,-z
4 -x,1/2+y,1/2-z
_cell_length_a                   10.114(1)
_cell_length_b                   14.412(2)
_cell_length_c                   12.142(2)
_cell_angle_alpha                90
_cell_angle_beta                 113.634(6)
_cell_angle_gamma                90
_cell_volume                     1621.41
_exptl_crystal_colour            'pale yellow'
_exptl_crystal_description       'rectangular prism'
_cell_formula_units_Z            4
_exptl_crystal_recrystallization_method acetonitrile
loop_
_atom_site_label
_atom_site_type_symbol
_atom_site_fract_x
_atom_site_fract_y
_atom_site_fract_z
F1 F 0.48261(15) -0.10425(9) 1.32249(12)
F2 F 0.48984(15) -0.13046(9) 1.10997(12)
F3 F 0.08836(14) 0.07296(9) 0.93636(11)
F4 F 0.08538(15) 0.09878(9) 1.14922(11)
N1 N 0.2373(2) -0.07362(12) 1.40459(16)
N2 N 0.2770(2) 0.08667(13) 1.41291(17)
N3 N 0.4616(3) -0.15296(16) 0.8430(2)
N4 N 0.1002(3) 0.02353(16) 0.6977(2)
C1 C 0.3419(3) 0.17029(16) 1.3825(3)
C2 C 0.2443(3) 0.24724(18) 1.3884(3)
C3 C 0.2046(4) 0.21999(19) 1.4903(3)
C4 C 0.1975(3) 0.11449(17) 1.4881(2)
C5 C 0.2666(2) 0.00409(15) 1.3602(2)
C6 C 0.2467(3) -0.08784(17) 1.5287(2)
C7 C 0.2320(3) -0.19267(17) 1.5363(2)
C8 C 0.1297(3) -0.21815(18) 1.4084(2)
C9 C 0.1849(3) -0.15981(16) 1.3313(2)
C10 C 0.2831(3) -0.00267(15) 1.2445(2)
C11 C 0.3833(2) -0.06002(15) 1.2268(2)
C12 C 0.3860(2) -0.07339(15) 1.1157(2)
C13 C 0.2887(2) -0.03131(15) 1.0098(2)
C14 C 0.1891(2) 0.02772(15) 1.0304(2)
C15 C 0.1879(2) 0.04161(15) 1.1414(2)
C16 C 0.2879(3) -0.04686(16) 0.8926(2)
C17 C 0.3866(3) -0.10583(17) 0.8701(2)
C18 C 0.1833(3) -0.00667(17) 0.7873(2)
H1 H 0.443(3) 0.1795(18) 1.445(2)
H2 H 0.352(3) 0.1632(17) 1.307(2)
H3 H 0.282(3) 0.3077(18) 1.393(2)
H4 H 0.149(4) 0.246(2) 1.306(3)
H5 H 0.293(4) 0.244(3) 1.574(3)
H6 H 0.117(4) 0.245(2) 1.486(3)
H7 H 0.102(3) 0.0899(16) 1.451(2)
H8 H 0.245(3) 0.0889(16) 1.572(2)
H9 H 0.164(3) -0.0560(17) 1.539(2)
H10 H 0.341(3) -0.0617(16) 1.587(2)
H11 H 0.194(3) -0.2094(18) 1.599(2)
H12 H 0.329(3) -0.2228(17) 1.556(2)
H13 H 0.030(3) -0.1986(16) 1.393(2)
H14 H 0.132(3) -0.2832(18) 1.388(2)
H15 H 0.112(3) -0.1437(17) 1.253(2)
H16 H 0.267(3) -0.1921(17) 1.320(2)
loop_
_geom_bond_atom_site_label_1
_geom_bond_atom_site_label_2
_geom_bond_site_symmetry_1
_geom_bond_site_symmetry_2
F1 C11 1_555 1_555
F2 C12 1_555 1_555
F3 C14 1_555 1_555
F4 C15 1_555 1_555
N1 C5 1_555 1_555
N2 C1 1_555 1_555
N3 C17 1_555 1_555
N4 C18 1_555 1_555
C1 C2 1_555 1_555
C2 C3 1_555 1_555
C3 C4 1_555 1_555
C4 N2 1_555 1_555
C5 N2 1_555 1_555
C6 N1 1_555 1_555
C7 C6 1_555 1_555
C8 C7 1_555 1_555
C9 N1 1_555 1_555
C10 C5 1_555 1_555
C11 C10 1_555 1_555
C12 C11 1_555 1_555
C13 C12 1_555 1_555
C14 C13 1_555 1_555
C15 C10 1_555 1_555
C16 C13 1_555 1_555
C17 C16 1_555 1_555
C18 C16 1_555 1_555
H1 C1 1_555 1_555
H2 C1 1_555 1_555
H3 C2 1_555 1_555
H4 C2 1_555 1_555
H5 C3 1_555 1_555
H6 C3 1_555 1_555
H7 C4 1_555 1_555
H8 C4 1_555 1_555
H9 C6 1_555 1_555
H10 C6 1_555 1_555
H11 C7 1_555 1_555
H12 C7 1_555 1_555
H13 C8 1_555 1_555
H14 C8 1_555 1_555
H15 C9 1_555 1_555
H16 C9 1_555 1_555
C8 C9 1_555 1_555
C14 C15 1_555 1_555

#END
