
#######################################################################
#
#                 Cambridge Crystallographic Data Centre
#                                CCDC 
#
#######################################################################
#
# If this CIF has been generated from an entry in the Cambridge 
# Structural Database, then it will include bibliographic, chemical, 
# crystal, experimental, refinement or atomic coordinate data resulting 
# from the CCDC's data processing and validation procedures.
#
#######################################################################

data_AGALAX
_chemical_formula_moiety         'C15 H25 N2 O7 P1 S1'
_chemical_name_systematic        
'Ethyl methyl (1-((t-butylsulfonyl)amino)-1-(4-nitrophenyl)ethyl)phosphonate'
_symmetry_cell_setting           monoclinic
_symmetry_space_group_name_H-M   'C 2'
_symmetry_Int_Tables_number      5
_space_group_name_Hall           'C 2y'
loop_
_symmetry_equiv_pos_site_id
_symmetry_equiv_pos_as_xyz
1 x,y,z
2 -x,y,-z
3 1/2+x,1/2+y,z
4 1/2-x,1/2+y,-z
_cell_length_a                   19.234(4)
_cell_length_b                   12.276(3)
_cell_length_c                   10.907(2)
_cell_angle_alpha                90
_cell_angle_beta                 114.84(3)
_cell_angle_gamma                90
_cell_volume                     2337.07
_exptl_crystal_colour            colorless
_exptl_crystal_description       block
_cell_formula_units_Z            4
loop_
_atom_site_label
_atom_site_type_symbol
_atom_site_fract_x
_atom_site_fract_y
_atom_site_fract_z
S1 S 0.83241(5) 0.21232(8) 0.13838(7)
P1 P 0.88698(5) 0.20600(9) 0.55527(9)
O1 O 0.8539(2) 0.3225(3) 0.5527(5)
O2 O 0.8512(3) 0.1402(5) 0.6347(4)
O3 O 0.96911(14) 0.2031(3) 0.6034(2)
O4 O 0.8920(2) 0.1777(3) 0.1035(3)
O5 O 0.7622(2) 0.1527(3) 0.0859(3)
O6 O 0.8460(8) -0.3680(5) 0.3875(13)
O7 O 0.9410(7) -0.3365(5) 0.3485(10)
N1 N 0.86584(15) 0.2158(3) 0.3039(2)
H1 H 0.9043 0.2576 0.3472
N2 N 0.8891(7) -0.3036(6) 0.3738(8)
C1 C 0.8513(2) 0.0304(3) 0.3832(4)
C2 C 0.8099(4) -0.0464(5) 0.4191(6)
H2 H 0.7728 -0.0221 0.4462
C3 C 0.8215(5) -0.1554(6) 0.4162(7)
H3 H 0.7914 -0.2054 0.4361
C4 C 0.8793(4) -0.1886(4) 0.3828(6)
C5 C 0.9222(3) -0.1166(4) 0.3477(6)
H4 H 0.9603 -0.1413 0.3233
C6 C 0.9078(2) -0.0077(3) 0.3491(5)
H5 H 0.9371 0.0418 0.3264
C7 C 0.83434(19) 0.1520(4) 0.3829(4)
C8 C 0.7474(2) 0.1747(6) 0.3390(6)
H6 H 0.7187 0.1474 0.2493
H7 H 0.7393 0.2518 0.3405
H8 H 0.7308 0.1390 0.4003
C9 C 0.8111(4) 0.3531(4) 0.0859(5)
C10 C 0.7884(7) 0.3507(8) -0.0689(6)
H9 H 0.7766 0.4232 -0.1047
H10 H 0.7444 0.3049 -0.1124
H11 H 0.8304 0.3225 -0.0852
C11 C 0.7514(5) 0.3969(6) 0.1250(8)
H12 H 0.7411 0.4715 0.0968
H13 H 0.7691 0.3927 0.2213
H14 H 0.7053 0.3549 0.0823
C12 C 0.8844(5) 0.4166(6) 0.1483(8)
H15 H 0.8746 0.4916 0.1219
H16 H 0.9208 0.3875 0.1180
H17 H 0.9047 0.4112 0.2449
C13 C 0.8873(9) 0.1232(10) 0.7828(9)
H18 H 0.9270 0.1778 0.8214
H19 H 0.8488 0.1384 0.8160
C14 C 0.9176(10) 0.0296(18) 0.832(2)
H20 H 0.9384 0.0319 0.9285
H21 H 0.9577 0.0136 0.8038
H22 H 0.8790 -0.0260 0.7987
C15 C 0.8974(7) 0.4145(6) 0.5734(14)
H23 H 0.8664 0.4773 0.5675
H24 H 0.9171 0.4192 0.5060
H25 H 0.9393 0.4117 0.6614
loop_
_geom_bond_atom_site_label_1
_geom_bond_atom_site_label_2
_geom_bond_site_symmetry_1
_geom_bond_site_symmetry_2
S1 O4 1_555 1_555
P1 O1 1_555 1_555
O1 C15 1_555 1_555
O2 P1 1_555 1_555
O3 P1 1_555 1_555
O5 S1 1_555 1_555
O6 N2 1_555 1_555
O7 N2 1_555 1_555
N1 S1 1_555 1_555
H1 N1 1_555 1_555
N2 C4 1_555 1_555
C1 C2 1_555 1_555
C2 H2 1_555 1_555
C3 C2 1_555 1_555
H3 C3 1_555 1_555
C4 C3 1_555 1_555
C5 C4 1_555 1_555
H4 C5 1_555 1_555
C6 C1 1_555 1_555
H5 C6 1_555 1_555
C7 P1 1_555 1_555
C8 C7 1_555 1_555
H6 C8 1_555 1_555
H7 C8 1_555 1_555
H8 C8 1_555 1_555
C9 S1 1_555 1_555
C10 C9 1_555 1_555
H9 C10 1_555 1_555
H10 C10 1_555 1_555
H11 C10 1_555 1_555
C11 C9 1_555 1_555
H12 C11 1_555 1_555
H13 C11 1_555 1_555
H14 C11 1_555 1_555
C12 C9 1_555 1_555
H15 C12 1_555 1_555
H16 C12 1_555 1_555
H17 C12 1_555 1_555
C13 O2 1_555 1_555
H18 C13 1_555 1_555
H19 C13 1_555 1_555
C14 C13 1_555 1_555
H20 C14 1_555 1_555
H21 C14 1_555 1_555
H22 C14 1_555 1_555
C15 H23 1_555 1_555
H24 C15 1_555 1_555
H25 C15 1_555 1_555
N1 C7 1_555 1_555
C1 C7 1_555 1_555
C5 C6 1_555 1_555

#END
