
#######################################################################
#
#                 Cambridge Crystallographic Data Centre
#                                CCDC 
#
#######################################################################
#
# If this CIF has been generated from an entry in the Cambridge 
# Structural Database, then it will include bibliographic, chemical, 
# crystal, experimental, refinement or atomic coordinate data resulting 
# from the CCDC's data processing and validation procedures.
#
#######################################################################

data_AGAPOP
_chemical_formula_moiety         'C11 H17 N2 O2 S1 1+,C2 F3 O2 1-'
_chemical_name_systematic        
'4-((4-Methylphenyl)sulfonyl)piperazin-1-ium trifluoroacetate'
_symmetry_cell_setting           monoclinic
_symmetry_space_group_name_H-M   'P 21/n'
_symmetry_Int_Tables_number      14
_space_group_name_Hall           '-P 2yn'
loop_
_symmetry_equiv_pos_site_id
_symmetry_equiv_pos_as_xyz
1 x,y,z
2 1/2-x,1/2+y,1/2-z
3 -x,-y,-z
4 1/2+x,1/2-y,1/2+z
_cell_length_a                   7.8796(6)
_cell_length_b                   22.5891(15)
_cell_length_c                   9.4626(7)
_cell_angle_alpha                90
_cell_angle_beta                 110.446(3)
_cell_angle_gamma                90
_cell_volume                     1578.17
_exptl_crystal_colour            colorless
_exptl_crystal_description       prism
_chemical_melting_point          '518 K'
_cell_formula_units_Z            4
loop_
_atom_site_label
_atom_site_type_symbol
_atom_site_fract_x
_atom_site_fract_y
_atom_site_fract_z
C1 C 0.7630(2) 0.06870(8) 0.2940(2)
C2 C 0.6839(3) 0.01633(9) 0.3194(2)
H1 H 0.6086 -0.0057 0.2388
C3 C 0.7192(3) -0.00242(9) 0.4665(2)
H2 H 0.6670 -0.0373 0.4841
C4 C 0.8315(3) 0.03019(9) 0.5883(2)
C5 C 0.9097(3) 0.08191(9) 0.5598(2)
H3 H 0.9856 0.1038 0.6404
C6 C 0.8771(3) 0.10158(9) 0.4140(2)
H4 H 0.9307 0.1362 0.3967
C7 C 0.8684(3) 0.00917(10) 0.7478(2)
H5 H 0.9878 0.0212 0.8105
H6 H 0.8600 -0.0332 0.7488
H7 H 0.7809 0.0261 0.7855
C8 C 0.3628(2) 0.09780(8) 0.0749(2)
H8 H 0.3811 0.0860 0.1777
H9 H 0.3528 0.0623 0.0149
C9 C 0.1909(3) 0.13368(9) 0.0128(2)
H10 H 0.1691 0.1438 -0.0917
H11 H 0.0889 0.1106 0.0168
C10 C 0.3658(3) 0.22462(9) 0.1004(2)
H12 H 0.3766 0.2598 0.1617
H13 H 0.3462 0.2371 -0.0022
C11 C 0.5387(3) 0.18885(8) 0.1599(2)
H14 H 0.6391 0.2118 0.1521
H15 H 0.5646 0.1794 0.2654
N1 N 0.5186(2) 0.13357(7) 0.07164(17)
N2 N 0.2087(2) 0.18872(7) 0.10346(19)
O1 O 0.66600(18) 0.04597(6) 0.00690(15)
O2 O 0.84473(18) 0.13710(6) 0.10568(15)
S1 S 0.70876(6) 0.09536(2) 0.10835(5)
H16 H 0.222(3) 0.1792(10) 0.196(3)
H17 H 0.114(2) 0.2104(9) 0.066(2)
C12 C -0.0777(3) 0.32181(9) 0.1546(2)
C13 C -0.1238(2) 0.30961(9) -0.0157(2)
F1 F 0.0057(3) 0.37256(7) 0.19613(16)
F2 F 0.0210(2) 0.27979(6) 0.24299(14)
F3 F -0.2294(2) 0.32421(8) 0.18855(15)
O3 O -0.05244(19) 0.26533(6) -0.04921(15)
O4 O -0.22722(19) 0.34645(6) -0.10056(15)
loop_
_geom_bond_atom_site_label_1
_geom_bond_atom_site_label_2
_geom_bond_site_symmetry_1
_geom_bond_site_symmetry_2
C1 C2 1_555 1_555
C2 H1 1_555 1_555
C3 C2 1_555 1_555
H2 C3 1_555 1_555
C4 C3 1_555 1_555
C5 C4 1_555 1_555
H3 C5 1_555 1_555
C6 C1 1_555 1_555
H4 C6 1_555 1_555
C7 C4 1_555 1_555
H5 C7 1_555 1_555
H6 C7 1_555 1_555
H7 C7 1_555 1_555
C8 H8 1_555 1_555
H9 C8 1_555 1_555
C9 C8 1_555 1_555
H10 C9 1_555 1_555
H11 C9 1_555 1_555
C10 H12 1_555 1_555
H13 C10 1_555 1_555
C11 C10 1_555 1_555
H14 C11 1_555 1_555
H15 C11 1_555 1_555
N1 C8 1_555 1_555
N2 C9 1_555 1_555
O1 S1 1_555 1_555
O2 S1 1_555 1_555
S1 C1 1_555 1_555
H16 N2 1_555 1_555
H17 N2 1_555 1_555
C12 C13 1_555 1_555
C13 O3 1_555 1_555
F1 C12 1_555 1_555
F2 C12 1_555 1_555
F3 C12 1_555 1_555
O4 C13 1_555 1_555
C5 C6 1_555 1_555
C10 N2 1_555 1_555
C11 N1 1_555 1_555
N1 S1 1_555 1_555

#END
