
#######################################################################
#
#                 Cambridge Crystallographic Data Centre
#                                CCDC 
#
#######################################################################
#
# If this CIF has been generated from an entry in the Cambridge 
# Structural Database, then it will include bibliographic, chemical, 
# crystal, experimental, refinement or atomic coordinate data resulting 
# from the CCDC's data processing and validation procedures.
#
#######################################################################

data_AGARAE
_chemical_formula_moiety         'C18 H12 N2 O4 S2'
_chemical_name_systematic        
"3,9-diamino-dibenzo[d,d']benzo[1,2-b:4,5-b']bisthiophene 5,5,11,11-tetroxide"
_symmetry_cell_setting           monoclinic
_symmetry_space_group_name_H-M   'P 21/c'
_symmetry_Int_Tables_number      14
_space_group_name_Hall           '-P 2ybc'
loop_
_symmetry_equiv_pos_site_id
_symmetry_equiv_pos_as_xyz
1 x,y,z
2 -x,1/2+y,1/2-z
3 -x,-y,-z
4 x,1/2-y,1/2+z
_cell_length_a                   5.8666(2)
_cell_length_b                   10.0313(3)
_cell_length_c                   13.5015(4)
_cell_angle_alpha                90
_cell_angle_beta                 97.082(3)
_cell_angle_gamma                90
_cell_volume                     788.496
_exptl_crystal_colour            red
_exptl_crystal_description       needle
_cell_formula_units_Z            2
loop_
_atom_site_label
_atom_site_type_symbol
_atom_site_fract_x
_atom_site_fract_y
_atom_site_fract_z
S1 S 0.23776(9) 0.24091(5) 0.43963(4)
O1 O 0.1044(3) 0.12182(17) 0.45022(12)
O2 O 0.3291(3) 0.25729(16) 0.34573(13)
N1 N 0.9931(4) 0.1390(2) 0.67202(16)
C1 C -0.0862(4) 0.6141(2) 0.53163(16)
C2 C 0.1176(4) 0.5697(2) 0.58358(16)
H1 H 0.1933 0.6180 0.6386
C3 C 0.2067(4) 0.4508(2) 0.55134(16)
C4 C 0.4502(2) 0.26296(13) 0.53869(9)
C5 C 0.6422(2) 0.18345(12) 0.56504(10)
H2 H 0.6643 0.1049 0.5281
C6 C 0.8018(2) 0.21881(13) 0.64551(10)
C7 C 0.7695(2) 0.33369(14) 0.69963(9)
H3 H 0.8786 0.3579 0.7546
C8 C 0.5775(2) 0.41321(12) 0.67328(10)
H4 H 0.5554 0.4917 0.7103
C9 C 0.4179(2) 0.37785(13) 0.59281(10)
H5 H 1.112(6) 0.171(4) 0.707(3)
H6 H 1.021(6) 0.073(4) 0.631(3)
S1B S -0.23776(9) 0.75909(5) 0.56037(4)
O1B O -0.1044(3) 0.87818(17) 0.54978(12)
O2B O -0.3291(3) 0.74271(16) 0.65427(13)
N1B N -0.9931(4) 0.8610(2) 0.32798(16)
C1B C 0.0862(4) 0.3859(2) 0.46837(16)
C2B C -0.1176(4) 0.4303(2) 0.41642(16)
H1B H -0.1933 0.3820 0.3614
C3B C -0.2067(4) 0.5492(2) 0.44866(16)
C4B C -0.4502(2) 0.73704(13) 0.46131(9)
C5B C -0.6422(2) 0.81655(12) 0.43496(10)
H2B H -0.6643 0.8951 0.4719
C6B C -0.8018(2) 0.78119(13) 0.35449(10)
C7B C -0.7695(2) 0.66631(14) 0.30037(9)
H3B H -0.8786 0.6421 0.2454
C8B C -0.5775(2) 0.58679(12) 0.32672(10)
H4B H -0.5554 0.5083 0.2897
C9B C -0.4179(2) 0.62215(13) 0.40719(10)
H5B H -1.112(6) 0.829(4) 0.293(3)
H6B H -1.021(6) 0.927(4) 0.369(3)
loop_
_geom_bond_atom_site_label_1
_geom_bond_atom_site_label_2
_geom_bond_site_symmetry_1
_geom_bond_site_symmetry_2
S1 O1 1_555 1_555
O2 S1 1_555 1_555
N1 C6 1_555 1_555
C1 C2 1_555 1_555
C2 H1 1_555 1_555
C3 C2 1_555 1_555
C4 S1 1_555 1_555
C5 C4 1_555 1_555
H2 C5 1_555 1_555
C6 C5 1_555 1_555
C7 C6 1_555 1_555
H3 C7 1_555 1_555
C8 C7 1_555 1_555
H4 C8 1_555 1_555
C9 C3 1_555 1_555
H5 N1 1_555 1_555
H6 N1 1_555 1_555
S1B C1 1_555 1_555
O1B S1B 1_555 1_555
O2B S1B 1_555 1_555
N1B C6B 1_555 1_555
C1B S1 1_555 1_555
C2B C1B 1_555 1_555
H1B C2B 1_555 1_555
C3B C1 1_555 1_555
C4B S1B 1_555 1_555
C5B C4B 1_555 1_555
H2B C5B 1_555 1_555
C6B C5B 1_555 1_555
C7B C6B 1_555 1_555
H3B C7B 1_555 1_555
C8B C7B 1_555 1_555
H4B C8B 1_555 1_555
C9B C3B 1_555 1_555
H5B N1B 1_555 1_555
H6B N1B 1_555 1_555
C3 C1B 1_555 1_555
C4 C9 1_555 1_555
C8 C9 1_555 1_555
C2B C3B 1_555 1_555
C4B C9B 1_555 1_555
C8B C9B 1_555 1_555

#END
