
#######################################################################
#
#                 Cambridge Crystallographic Data Centre
#                                CCDC 
#
#######################################################################
#
# If this CIF has been generated from an entry in the Cambridge 
# Structural Database, then it will include bibliographic, chemical, 
# crystal, experimental, refinement or atomic coordinate data resulting 
# from the CCDC's data processing and validation procedures.
#
#######################################################################

data_AGEFEZ
_chemical_formula_moiety         'C26 H18 N2 O6 S2'
_chemical_name_systematic        
9,10-Dioxo-N,N'-diphenyl-9,10-dihydroanthracene-2,7-disulfonamide
_symmetry_cell_setting           monoclinic
_symmetry_space_group_name_H-M   'P 21/c'
_symmetry_Int_Tables_number      14
_space_group_name_Hall           '-P 2ybc'
loop_
_symmetry_equiv_pos_site_id
_symmetry_equiv_pos_as_xyz
1 x,y,z
2 -x,1/2+y,1/2-z
3 -x,-y,-z
4 x,1/2-y,1/2+z
_cell_length_a                   10.247(4)
_cell_length_b                   6.395(2)
_cell_length_c                   36.265(12)
_cell_angle_alpha                90
_cell_angle_beta                 104.511(12)
_cell_angle_gamma                90
_cell_volume                     2300.62
_exptl_crystal_colour            yellow
_exptl_crystal_description       needle
_cell_formula_units_Z            4
loop_
_atom_site_label
_atom_site_type_symbol
_atom_site_fract_x
_atom_site_fract_y
_atom_site_fract_z
S1 S 0.58554(13) 0.18230(18) 0.79332(3)
S2 S 0.28393(12) 1.46829(17) 0.92991(3)
O1 O 0.6506(3) -0.0105(4) 0.80672(8)
O2 O 0.4492(3) 0.1852(4) 0.77093(8)
O3 O 0.3522(3) 0.8677(5) 0.83377(8)
O4 O 0.7155(3) 0.6645(5) 0.96336(7)
O5 O 0.2258(3) 1.5295(4) 0.89183(7)
O6 O 0.3526(3) 1.6176(4) 0.95722(8)
N1 N 0.6729(4) 0.3019(5) 0.76842(9)
H1 H 0.6322 0.3522 0.7466
N2 N 0.1695(3) 1.3670(5) 0.94892(9)
H2 H 0.1538 1.4248 0.9688
C1 C 0.8998(6) 0.1581(8) 0.77943(12)
H3 H 0.8636 0.0292 0.7703
C2 C 1.0385(7) 0.1863(11) 0.79121(14)
H4 H 1.0954 0.0752 0.7896
C3 C 1.0928(6) 0.3734(12) 0.80505(14)
H5 H 1.1858 0.3900 0.8129
C4 C 1.0079(7) 0.5385(10) 0.80733(13)
H6 H 1.0444 0.6671 0.8165
C5 C 0.8700(6) 0.5145(8) 0.79609(12)
H7 H 0.8138 0.6253 0.7984
C6 C 0.8160(5) 0.3270(8) 0.78157(11)
C7 C 0.6861(4) 0.2840(7) 0.86814(11)
H8 H 0.7385 0.1643 0.8693
C8 C 0.5946(4) 0.3395(7) 0.83429(11)
C9 C 0.5143(4) 0.5151(6) 0.83231(11)
H9 H 0.4528 0.5501 0.8096
C10 C 0.5262(4) 0.6392(6) 0.86460(11)
C11 C 0.6200(4) 0.5845(6) 0.89853(11)
C12 C 0.6987(4) 0.4077(7) 0.90007(12)
H10 H 0.7603 0.3719 0.9227
C13 C 0.6374(4) 0.7168(7) 0.93335(12)
C14 C 0.5571(4) 0.9119(6) 0.93028(11)
C15 C 0.4591(4) 0.9599(6) 0.89736(11)
C16 C 0.4378(4) 0.8243(7) 0.86281(11)
C17 C 0.3778(4) 1.1325(7) 0.89652(11)
H11 H 0.3115 1.1640 0.8746
C18 C 0.3949(4) 1.2593(6) 0.92850(11)
C19 C 0.4951(4) 1.2139(7) 0.96133(11)
H12 H 0.5071 1.2998 0.9826
C20 C 0.5760(4) 1.0420(7) 0.96214(11)
H13 H 0.6434 1.0121 0.9839
C21 C 0.0947(4) 1.1849(7) 0.93340(12)
C22 C 0.0754(5) 1.0319(8) 0.95845(12)
H14 H 0.1091 1.0515 0.9845
C23 C 0.0068(5) 0.8506(8) 0.94520(17)
H15 H -0.0066 0.7488 0.9622
C24 C -0.0416(5) 0.8218(8) 0.90673(17)
H16 H -0.0871 0.6993 0.8975
C25 C -0.0229(5) 0.9733(8) 0.88214(14)
H17 H -0.0551 0.9522 0.8561
C26 C 0.0431(4) 1.1582(8) 0.89523(12)
H18 H 0.0521 1.2626 0.8782
loop_
_geom_bond_atom_site_label_1
_geom_bond_atom_site_label_2
_geom_bond_site_symmetry_1
_geom_bond_site_symmetry_2
S1 O1 1_555 1_555
S2 O5 1_555 1_555
O2 S1 1_555 1_555
O3 C16 1_555 1_555
O4 C13 1_555 1_555
O6 S2 1_555 1_555
N1 S1 1_555 1_555
H1 N1 1_555 1_555
N2 S2 1_555 1_555
H2 N2 1_555 1_555
C1 H3 1_555 1_555
C2 C1 1_555 1_555
H4 C2 1_555 1_555
C3 C2 1_555 1_555
H5 C3 1_555 1_555
C4 C3 1_555 1_555
H6 C4 1_555 1_555
C5 C4 1_555 1_555
H7 C5 1_555 1_555
C6 N1 1_555 1_555
C7 H8 1_555 1_555
C8 S1 1_555 1_555
C9 C8 1_555 1_555
H9 C9 1_555 1_555
C10 C9 1_555 1_555
C11 C10 1_555 1_555
C12 C7 1_555 1_555
H10 C12 1_555 1_555
C13 C11 1_555 1_555
C14 C13 1_555 1_555
C15 C14 1_555 1_555
C16 C10 1_555 1_555
C17 C15 1_555 1_555
H11 C17 1_555 1_555
C18 S2 1_555 1_555
C19 C18 1_555 1_555
H12 C19 1_555 1_555
C20 C14 1_555 1_555
H13 C20 1_555 1_555
C21 N2 1_555 1_555
C22 C21 1_555 1_555
H14 C22 1_555 1_555
C23 C22 1_555 1_555
H15 C23 1_555 1_555
C24 C23 1_555 1_555
H16 C24 1_555 1_555
C25 C24 1_555 1_555
H17 C25 1_555 1_555
C26 C21 1_555 1_555
H18 C26 1_555 1_555
C1 C6 1_555 1_555
C5 C6 1_555 1_555
C7 C8 1_555 1_555
C11 C12 1_555 1_555
C15 C16 1_555 1_555
C17 C18 1_555 1_555
C19 C20 1_555 1_555
C25 C26 1_555 1_555

#END
