
#######################################################################
#
#                 Cambridge Crystallographic Data Centre
#                                CCDC 
#
#######################################################################
#
# If this CIF has been generated from an entry in the Cambridge 
# Structural Database, then it will include bibliographic, chemical, 
# crystal, experimental, refinement or atomic coordinate data resulting 
# from the CCDC's data processing and validation procedures.
#
#######################################################################

data_AGEKAA
_chemical_formula_moiety         'C23 H18 Cl1 N1 O2'
_chemical_name_systematic        
3-(2-Chlorobenzyl)-3-(2-oxo-2-phenylethyl)-1,3-dihydro-2H-indol-2-one
_symmetry_cell_setting           monoclinic
_symmetry_space_group_name_H-M   'P 21'
_symmetry_Int_Tables_number      4
_space_group_name_Hall           'P 2yb'
loop_
_symmetry_equiv_pos_site_id
_symmetry_equiv_pos_as_xyz
1 x,y,z
2 -x,1/2+y,-z
_cell_length_a                   8.6010(3)
_cell_length_b                   8.4870(2)
_cell_length_c                   13.3739(4)
_cell_angle_alpha                90
_cell_angle_beta                 105.396(4)
_cell_angle_gamma                90
_cell_volume                     941.217
_cell_formula_units_Z            2
loop_
_atom_site_label
_atom_site_type_symbol
_atom_site_fract_x
_atom_site_fract_y
_atom_site_fract_z
Cl1 Cl 0.38118(15) 0.25349(16) 0.93596(8)
O1 O 0.0137(2) 0.0673(2) 0.49817(13)
N1 N 0.0077(3) -0.1376(2) 0.60707(14)
H1 H -0.0056 -0.2127 0.5624
C1 C -0.3216(3) 0.4023(3) 0.7114(2)
C2 C 0.0337(3) -0.0141(3) 0.76303(17)
C3 C 0.0180(3) 0.0150(3) 0.58394(17)
C4 C 0.0412(4) -0.2948(3) 0.8702(2)
H2 H 0.0415 -0.3878 0.9070
C5 C 0.4320(4) 0.1419(4) 0.8428(3)
C6 C 0.0233(4) -0.3009(3) 0.7640(2)
H3 H 0.0131 -0.3963 0.7286
C7 C 0.0279(3) 0.1142(3) 0.68289(16)
C8 C 0.1773(3) 0.2240(3) 0.70602(19)
H4 H 0.1766 0.2828 0.6437
H5 H 0.1687 0.2993 0.7589
C9 C 0.0213(3) -0.1601(3) 0.71367(16)
C10 C 0.0586(3) -0.1530(4) 0.92154(19)
H6 H 0.0732 -0.1521 0.9930
C11 C -0.5108(4) 0.5669(4) 0.7667(3)
H7 H -0.5403 0.6213 0.8191
C12 C -0.3669(4) 0.4853(4) 0.7892(3)
H8 H -0.2999 0.4857 0.8564
C13 C -0.6101(4) 0.5688(4) 0.6686(3)
H9 H -0.7062 0.6253 0.6540
C14 C 0.3356(3) 0.1385(3) 0.7420(2)
C15 C 0.0549(3) -0.0110(3) 0.86935(18)
H10 H 0.0665 0.0841 0.9051
C16 C -0.4257(4) 0.4042(4) 0.6116(2)
H11 H -0.3991 0.3493 0.5583
C17 C 0.3928(3) 0.0442(4) 0.6670(3)
H12 H 0.3338 0.0423 0.5978
C18 C 0.5306(4) -0.0397(5) 0.6979(4)
H13 H 0.5635 -0.1021 0.6501
C19 C -0.5682(4) 0.4878(5) 0.5923(3)
H14 H -0.6368 0.4886 0.5256
C20 C 0.6235(5) -0.0342(5) 0.7995(4)
H15 H 0.7183 -0.0925 0.8191
C21 C 0.5781(4) 0.0554(5) 0.8714(4)
H16 H 0.6428 0.0598 0.9392
O2 O -0.0726(2) 0.3265(2) 0.82354(12)
C22 C -0.1300(3) 0.2109(3) 0.65478(17)
H17 H -0.1284 0.2776 0.5961
H18 H -0.2191 0.1379 0.6317
C23 C -0.1659(3) 0.3145(3) 0.73830(17)
loop_
_geom_bond_atom_site_label_1
_geom_bond_atom_site_label_2
_geom_bond_site_symmetry_1
_geom_bond_site_symmetry_2
Cl1 C5 1_555 1_555
O1 C3 1_555 1_555
N1 H1 1_555 1_555
C1 C12 1_555 1_555
C2 C7 1_555 1_555
C3 N1 1_555 1_555
C4 H2 1_555 1_555
C5 C14 1_555 1_555
C6 C4 1_555 1_555
H3 C6 1_555 1_555
C7 C3 1_555 1_555
C8 C7 1_555 1_555
H4 C8 1_555 1_555
H5 C8 1_555 1_555
C9 N1 1_555 1_555
C10 C4 1_555 1_555
H6 C10 1_555 1_555
C11 H7 1_555 1_555
C12 C11 1_555 1_555
H8 C12 1_555 1_555
C13 C11 1_555 1_555
H9 C13 1_555 1_555
C14 C8 1_555 1_555
C15 C2 1_555 1_555
H10 C15 1_555 1_555
C16 C1 1_555 1_555
H11 C16 1_555 1_555
C17 C14 1_555 1_555
H12 C17 1_555 1_555
C18 C17 1_555 1_555
H13 C18 1_555 1_555
C19 C13 1_555 1_555
H14 C19 1_555 1_555
C20 C18 1_555 1_555
H15 C20 1_555 1_555
C21 C5 1_555 1_555
H16 C21 1_555 1_555
O2 C23 1_555 1_555
C22 C7 1_555 1_555
H17 C22 1_555 1_555
H18 C22 1_555 1_555
C23 C1 1_555 1_555
C2 C9 1_555 1_555
C6 C9 1_555 1_555
C10 C15 1_555 1_555
C16 C19 1_555 1_555
C20 C21 1_555 1_555
C22 C23 1_555 1_555

#END
