
#######################################################################
#
#                 Cambridge Crystallographic Data Centre
#                                CCDC 
#
#######################################################################
#
# If this CIF has been generated from an entry in the Cambridge 
# Structural Database, then it will include bibliographic, chemical, 
# crystal, experimental, refinement or atomic coordinate data resulting 
# from the CCDC's data processing and validation procedures.
#
#######################################################################

data_AGENIL
_chemical_formula_moiety         'C69 H78 O9'
_chemical_name_systematic        
1,2,5,6,9,10-Hexabutoxy-3,7,12-tris(4-methoxyphenyl)coronene
_symmetry_cell_setting           monoclinic
_symmetry_space_group_name_H-M   'C 2/c'
_symmetry_Int_Tables_number      15
_space_group_name_Hall           '-C 2yn'
loop_
_symmetry_equiv_pos_site_id
_symmetry_equiv_pos_as_xyz
1 x,y,z
2 -x,y,1/2-z
3 1/2+x,1/2+y,z
4 1/2-x,1/2+y,1/2-z
5 -x,-y,-z
6 x,-y,1/2+z
7 1/2-x,1/2-y,-z
8 1/2+x,1/2-y,1/2+z
_cell_length_a                   42.1835(12)
_cell_length_b                   8.6921(2)
_cell_length_c                   31.6239(8)
_cell_angle_alpha                90
_cell_angle_beta                 99.000(2)
_cell_angle_gamma                90
_cell_volume                     11452.6
_cell_formula_units_Z            8
loop_
_atom_site_label
_atom_site_type_symbol
_atom_site_fract_x
_atom_site_fract_y
_atom_site_fract_z
C1 C 0.8544(3) 0.642(2) 0.1741(6)
C2 C 0.8715(3) 0.7762(18) 0.1818(4)
H1 H 0.8744 0.8213 0.2095
C3 C 0.8848(3) 0.8468(16) 0.1484(6)
C4 C 0.8816(3) 0.7806(17) 0.1075(5)
C5 C 0.8629(2) 0.6408(15) 0.0999(6)
C6 C 0.8483(3) 0.5779(15) 0.1315(5)
C7 C 0.8275(3) 0.4516(17) 0.1212(5)
C8 C 0.8252(3) 0.3796(13) 0.0829(6)
C9 C 0.8418(3) 0.4370(14) 0.0495(5)
C10 C 0.8600(2) 0.5731(15) 0.0589(5)
C11 C 0.8756(2) 0.6392(13) 0.0264(5)
C12 C 0.8728(2) 0.5710(14) -0.0138(4)
C13 C 0.8547(3) 0.4332(15) -0.0213(4)
H2 H 0.8535 0.3848 -0.0484
C14 C 0.8389(2) 0.3673(13) 0.0086(5)
C15 C 0.8882(3) 0.6388(17) -0.0462(4)
C16 C 0.9054(3) 0.7698(18) -0.0392(5)
C17 C 0.9084(2) 0.8421(14) 0.0012(6)
C18 C 0.8940(2) 0.7792(14) 0.0355(5)
C19 C 0.8976(2) 0.8492(13) 0.0761(5)
C20 C 0.9160(2) 0.9918(12) 0.0841(5)
C21 C 0.9304(2) 1.0468(12) 0.0483(6)
C22 C 0.9258(3) 0.975(2) 0.0099(4)
H3 H 0.9353 1.0200 -0.0126
C23 C 0.9171(2) 1.0501(13) 0.1260(6)
C24 C 0.9027(3) 0.9839(17) 0.1574(5)
C25 C 0.8472(3) 0.559(2) 0.2121(6)
C26 C 0.8342(4) 0.625(2) 0.2415(7)
H4 H 0.8290 0.7305 0.2371
C27 C 0.8265(2) 0.557(2) 0.2807(5)
H5 H 0.8168 0.6156 0.3005
C28 C 0.8338(4) 0.409(3) 0.2874(6)
C29 C 0.8490(3) 0.3234(15) 0.2594(7)
H6 H 0.8545 0.2181 0.2643
C30 C 0.8556(3) 0.403(3) 0.2239(6)
H7 H 0.8669 0.3473 0.2051
C31 C 0.8130(3) 0.3909(19) 0.3548(4)
H8 H 0.8229 0.4908 0.3628
H9 H 0.8140 0.3260 0.3803
H10 H 0.7905 0.4061 0.3420
C32 C 0.7806(3) 0.4926(14) 0.1499(4)
H11 H 0.7664 0.4853 0.1219
H12 H 0.7868 0.6016 0.1551
C33 C 0.7638(3) 0.4344(16) 0.1846(5)
H13 H 0.7796 0.4208 0.2111
H14 H 0.7543 0.3327 0.1764
C34 C 0.7370(4) 0.547(2) 0.1936(7)
H15 H 0.7463 0.6503 0.2005
H16 H 0.7206 0.5567 0.1676
C35 C 0.7225(6) 0.495(3) 0.2274(7)
H17 H 0.7186 0.3845 0.2244
H18 H 0.7021 0.5491 0.2272
H19 H 0.7367 0.5159 0.2544
C36 C 0.8214(2) 0.1158(11) 0.0986(3)
H20 H 0.8273 0.1396 0.1294
H21 H 0.8411 0.0882 0.0870
C37 C 0.7981(3) -0.0155(13) 0.0927(4)
H22 H 0.7997 -0.0988 0.0737
C38 C 0.7736(4) -0.0040(18) 0.1180(4)
H23 H 0.7585 -0.0907 0.1104
H24 H 0.7615 0.0920 0.1099
C39 C 0.7834(3) -0.0039(17) 0.1668(5)
H25 H 0.7947 -0.1000 0.1757
H26 H 0.7643 0.0048 0.1805
H27 H 0.7977 0.0835 0.1752
C40 C 0.8214(3) 0.2208(14) -0.0044(3)
C41 C 0.7885(3) 0.2257(11) -0.0217(3)
H28 H 0.7775 0.3215 -0.0244
C42 C 0.7722(2) 0.0927(15) -0.0347(3)
H29 H 0.7502 0.0964 -0.0469
C43 C 0.7883(3) -0.0474(13) -0.0297(3)
C44 C 0.8202(3) -0.0541(11) -0.0141(3)
H30 H 0.8311 -0.1499 -0.0117
C45 C 0.8361(2) 0.0788(15) -0.0021(3)
H31 H 0.8584 0.0734 0.0084
C46 C 0.7838(2) -0.3153(10) -0.0286(3)
H32 H 0.8020 -0.3336 -0.0437
H33 H 0.7682 -0.3990 -0.0350
H34 H 0.7913 -0.3112 0.0023
C47 C 0.9129(3) 0.480(2) -0.0914(5)
H35 H 0.9147 0.3862 -0.0735
H36 H 0.9326 0.5426 -0.0839
C48 C 0.9071(4) 0.440(3) -0.1383(8)
H37 H 0.8954 0.3413 -0.1410
H38 H 0.8922 0.5188 -0.1527
C49 C 0.9320(5) 0.426(3) -0.1629(6)
H39 H 0.9474 0.3502 -0.1482
H40 H 0.9433 0.5265 -0.1613
C50 C 0.9256(4) 0.3840(18) -0.2068(5)
H41 H 0.9145 0.2846 -0.2096
H42 H 0.9459 0.3756 -0.2181
H43 H 0.9121 0.4624 -0.2229
C51 C 0.8978(4) 0.896(2) -0.1063(5)
H44 H 0.8862 0.8061 -0.1206
H45 H 0.9104 0.9420 -0.1270
C52 C 0.8738(5) 1.009(2) -0.0975(5)
H46 H 0.8853 1.1006 -0.0842
H47 H 0.8616 0.9645 -0.0762
C53 C 0.8495(4) 1.063(2) -0.1367(5)
H48 H 0.8612 1.1198 -0.1567
H49 H 0.8392 0.9725 -0.1519
C54 C 0.8252(4) 1.1615(18) -0.1242(5)
H50 H 0.8148 1.1090 -0.1026
H51 H 0.8092 1.1852 -0.1492
H52 H 0.8351 1.2571 -0.1121
C55 C 0.9510(3) 1.1882(15) 0.0531(3)
C56 C 0.9824(3) 1.1852(14) 0.0738(4)
H53 H 0.9910 1.0934 0.0873
C57 C 1.0016(3) 1.3154(18) 0.0747(4)
H54 H 1.0232 1.3115 0.0886
C58 C 0.9892(3) 1.4545(16) 0.0552(4)
C59 C 0.9572(4) 1.4544(15) 0.0355(4)
H55 H 0.9477 1.5469 0.0235
C60 C 0.9392(2) 1.3230(16) 0.0335(3)
H56 H 0.9180 1.3244 0.0181
C61 C 0.9967(3) 1.7270(13) 0.0436(4)
H57 H 0.9924 1.7198 0.0123
H58 H 1.0128 1.8074 0.0520
H59 H 0.9769 1.7527 0.0544
C62 C 0.9166(3) 1.3172(14) 0.1355(4)
H60 H 0.9031 1.3056 0.1583
H61 H 0.9021 1.3283 0.1078
C63 C 0.9367(4) 1.4602(17) 0.1439(5)
H62 H 0.9478 1.4785 0.1189
H63 H 0.9223 1.5486 0.1460
C64 C 0.9595(4) 1.4573(15) 0.1802(6)
H64 H 0.9750 1.3736 0.1777
H65 H 0.9489 1.4354 0.2053
C65 C 0.9790(4) 1.624(2) 0.1876(6)
H66 H 0.9979 1.6209 0.1729
H67 H 0.9860 1.6403 0.2183
H68 H 0.9648 1.7076 0.1759
C66 C 0.9353(3) 1.0381(12) 0.2248(4)
H69 H 0.9525 1.0869 0.2115
H70 H 0.9408 0.9283 0.2301
C67 C 0.9322(3) 1.1156(17) 0.2652(4)
H71 H 0.9184 1.0515 0.2808
H72 H 0.9210 1.2146 0.2584
C68 C 0.9634(4) 1.148(2) 0.2951(6)
H73 H 0.9773 1.2122 0.2797
H74 H 0.9585 1.2081 0.3198
C69 C 0.9806(4) 1.016(2) 0.3105(6)
H75 H 0.9655 0.9360 0.3166
H76 H 0.9952 1.0412 0.3367
H77 H 0.9929 0.9783 0.2888
O1 O 0.8297(2) 0.3180(10) 0.3247(4)
O2 O 0.8088(2) 0.3986(7) 0.1497(2)
O3 O 0.80619(13) 0.2486(9) 0.07600(18)
O4 O 0.76930(13) -0.1768(8) -0.04213(18)
O5 O 0.88491(15) 0.5667(9) -0.0863(3)
O6 O 0.92012(17) 0.8396(9) -0.0703(3)
O7 O 1.00872(17) 1.5823(9) 0.0611(2)
O8 O 0.93502(14) 1.1870(10) 0.13427(19)
O9 O 0.90436(14) 1.0523(7) 0.1967(3)
loop_
_geom_bond_atom_site_label_1
_geom_bond_atom_site_label_2
_geom_bond_site_symmetry_1
_geom_bond_site_symmetry_2
C1 C2 1_555 1_555
C2 H1 1_555 1_555
C3 C2 1_555 1_555
C4 C3 1_555 1_555
C5 C4 1_555 1_555
C6 C1 1_555 1_555
C7 C6 1_555 1_555
C8 C7 1_555 1_555
C9 C8 1_555 1_555
C10 C5 1_555 1_555
C11 C10 1_555 1_555
C12 C11 1_555 1_555
C13 C12 1_555 1_555
H2 C13 1_555 1_555
C14 C9 1_555 1_555
C15 C12 1_555 1_555
C16 C15 1_555 1_555
C17 C16 1_555 1_555
C18 C11 1_555 1_555
C19 C4 1_555 1_555
C20 C19 1_555 1_555
C21 C20 1_555 1_555
C22 C17 1_555 1_555
H3 C22 1_555 1_555
C23 C20 1_555 1_555
C24 C3 1_555 1_555
C25 C1 1_555 1_555
C26 C25 1_555 1_555
H4 C26 1_555 1_555
C27 C26 1_555 1_555
H5 C27 1_555 1_555
C28 C27 1_555 1_555
C29 C28 1_555 1_555
H6 C29 1_555 1_555
C30 C25 1_555 1_555
H7 C30 1_555 1_555
C31 H8 1_555 1_555
H9 C31 1_555 1_555
H10 C31 1_555 1_555
C32 H11 1_555 1_555
H12 C32 1_555 1_555
C33 C32 1_555 1_555
H13 C33 1_555 1_555
H14 C33 1_555 1_555
C34 C33 1_555 1_555
H15 C34 1_555 1_555
H16 C34 1_555 1_555
C35 C34 1_555 1_555
H17 C35 1_555 1_555
H18 C35 1_555 1_555
H19 C35 1_555 1_555
C36 H20 1_555 1_555
H21 C36 1_555 1_555
C37 C36 1_555 1_555
H22 C37 1_555 1_555
C38 C37 1_555 1_555
H23 C38 1_555 1_555
H24 C38 1_555 1_555
C39 C38 1_555 1_555
H25 C39 1_555 1_555
H26 C39 1_555 1_555
H27 C39 1_555 1_555
C40 C14 1_555 1_555
C41 C40 1_555 1_555
H28 C41 1_555 1_555
C42 C41 1_555 1_555
H29 C42 1_555 1_555
C43 C42 1_555 1_555
C44 C43 1_555 1_555
H30 C44 1_555 1_555
C45 C40 1_555 1_555
H31 C45 1_555 1_555
C46 H32 1_555 1_555
H33 C46 1_555 1_555
H34 C46 1_555 1_555
C47 H35 1_555 1_555
H36 C47 1_555 1_555
C48 C47 1_555 1_555
H37 C48 1_555 1_555
H38 C48 1_555 1_555
C49 C48 1_555 1_555
H39 C49 1_555 1_555
H40 C49 1_555 1_555
C50 C49 1_555 1_555
H41 C50 1_555 1_555
H42 C50 1_555 1_555
H43 C50 1_555 1_555
C51 H44 1_555 1_555
H45 C51 1_555 1_555
C52 C51 1_555 1_555
H46 C52 1_555 1_555
H47 C52 1_555 1_555
C53 C52 1_555 1_555
H48 C53 1_555 1_555
H49 C53 1_555 1_555
C54 C53 1_555 1_555
H50 C54 1_555 1_555
H51 C54 1_555 1_555
H52 C54 1_555 1_555
C55 C21 1_555 1_555
C56 C55 1_555 1_555
H53 C56 1_555 1_555
C57 C56 1_555 1_555
H54 C57 1_555 1_555
C58 C57 1_555 1_555
C59 C58 1_555 1_555
H55 C59 1_555 1_555
C60 C55 1_555 1_555
H56 C60 1_555 1_555
C61 H57 1_555 1_555
H58 C61 1_555 1_555
H59 C61 1_555 1_555
C62 H60 1_555 1_555
H61 C62 1_555 1_555
C63 C62 1_555 1_555
H62 C63 1_555 1_555
H63 C63 1_555 1_555
C64 C63 1_555 1_555
H64 C64 1_555 1_555
H65 C64 1_555 1_555
C65 C64 1_555 1_555
H66 C65 1_555 1_555
H67 C65 1_555 1_555
H68 C65 1_555 1_555
C66 H69 1_555 1_555
H70 C66 1_555 1_555
C67 C66 1_555 1_555
H71 C67 1_555 1_555
H72 C67 1_555 1_555
C68 C67 1_555 1_555
H73 C68 1_555 1_555
H74 C68 1_555 1_555
C69 C68 1_555 1_555
H75 C69 1_555 1_555
H76 C69 1_555 1_555
H77 C69 1_555 1_555
O1 C28 1_555 1_555
O2 C7 1_555 1_555
O3 C8 1_555 1_555
O4 C43 1_555 1_555
O5 C15 1_555 1_555
O6 C16 1_555 1_555
O7 C58 1_555 1_555
O8 C23 1_555 1_555
O9 C24 1_555 1_555
C5 C6 1_555 1_555
C9 C10 1_555 1_555
C13 C14 1_555 1_555
C17 C18 1_555 1_555
C18 C19 1_555 1_555
C21 C22 1_555 1_555
C23 C24 1_555 1_555
C29 C30 1_555 1_555
C31 O1 1_555 1_555
C32 O2 1_555 1_555
C36 O3 1_555 1_555
C44 C45 1_555 1_555
C46 O4 1_555 1_555
C47 O5 1_555 1_555
C51 O6 1_555 1_555
C59 C60 1_555 1_555
C61 O7 1_555 1_555
C62 O8 1_555 1_555
C66 O9 1_555 1_555

#END
