
#######################################################################
#
#                 Cambridge Crystallographic Data Centre
#                                CCDC 
#
#######################################################################
#
# If this CIF has been generated from an entry in the Cambridge 
# Structural Database, then it will include bibliographic, chemical, 
# crystal, experimental, refinement or atomic coordinate data resulting 
# from the CCDC's data processing and validation procedures.
#
#######################################################################

data_AGEQOS
_chemical_compound_source        'seeds of Caesalpinia minax Hance'
_chemical_formula_moiety         'C22 H26 O7'
_chemical_name_systematic        Macrocaesalmin
_chemical_properties_biological  
'antiviral activity against parainfluenza virus type 3, respiratory syncytial virus and influenza type A virus; folk remedy for fever, common cold and dysentery'
_symmetry_cell_setting           monoclinic
_symmetry_space_group_name_H-M   'C 2'
_symmetry_Int_Tables_number      5
_space_group_name_Hall           'C 2y'
loop_
_symmetry_equiv_pos_site_id
_symmetry_equiv_pos_as_xyz
1 x,y,z
2 -x,y,-z
3 1/2+x,1/2+y,z
4 1/2-x,1/2+y,-z
_cell_length_a                   21.400(3)
_cell_length_b                   8.5597(10)
_cell_length_c                   23.813(3)
_cell_angle_alpha                90
_cell_angle_beta                 106.599(3)
_cell_angle_gamma                90
_cell_volume                     4180.23
_exptl_crystal_colour            colorless
_exptl_crystal_description       prism
_cell_formula_units_Z            8
_exptl_crystal_recrystallization_method methanol
loop_
_atom_site_label
_atom_site_type_symbol
_atom_site_fract_x
_atom_site_fract_y
_atom_site_fract_z
O1 O 0.49044(13) 0.6023(4) 0.26049(11)
O2 O 0.41646(13) 0.5315(3) 0.02652(11)
O3 O 0.42226(12) 0.1999(3) 0.03270(10)
O4 O 0.39789(17) 0.0091(3) 0.08655(14)
O5 O 0.54545(12) 0.1730(3) 0.10620(11)
O6 O 0.63067(15) 0.0573(3) 0.16760(13)
O7 O 0.71767(15) 0.5846(4) 0.12168(13)
C1 C 0.48775(18) 0.6566(4) 0.21305(16)
C2 C 0.42087(17) 0.6843(4) 0.16909(16)
H1 H 0.3980 0.7640 0.1845
H2 H 0.4270 0.7234 0.1328
C3 C 0.37899(18) 0.5383(4) 0.15607(15)
H3 H 0.3437 0.5507 0.1737
H4 H 0.4053 0.4509 0.1755
C4 C 0.34881(18) 0.4942(4) 0.09063(16)
C5 C 0.40349(18) 0.4529(4) 0.06371(15)
C6 C 0.44403(16) 0.3022(4) 0.08343(14)
H5 H 0.4340 0.2560 0.1175
C7 C 0.51578(17) 0.3264(4) 0.09557(15)
H6 H 0.5256 0.3761 0.0620
C8 C 0.54620(16) 0.4202(4) 0.15209(14)
H7 H 0.5192 0.4035 0.1786
C9 C 0.54778(18) 0.5988(4) 0.14029(14)
H8 H 0.5067 0.6222 0.1105
C10 C 0.54724(17) 0.6989(4) 0.19423(14)
H9 H 0.5423 0.8082 0.1814
C11 C 0.6025(2) 0.6483(4) 0.11309(16)
H10 H 0.5861 0.6444 0.0707
H11 H 0.6154 0.7551 0.1243
C12 C 0.65956(19) 0.5451(5) 0.13283(16)
C13 C 0.66654(19) 0.4085(4) 0.16148(17)
C14 C 0.61204(18) 0.3369(4) 0.17861(15)
H12 H 0.6221 0.3328 0.2214
C15 C 0.7314(2) 0.3586(6) 0.1684(2)
H13 H 0.7506 0.2678 0.1870
C16 C 0.7597(2) 0.4657(6) 0.1436(2)
H14 H 0.8024 0.4602 0.1414
C17 C 0.5991(2) 0.1719(5) 0.15273(18)
C18 C 0.3076(2) 0.6264(5) 0.05635(18)
H15 H 0.2896 0.5951 0.0163
H16 H 0.3344 0.7173 0.0580
H17 H 0.2729 0.6503 0.0731
C19 C 0.3058(2) 0.3498(5) 0.0874(2)
H18 H 0.2865 0.3218 0.0472
H19 H 0.2721 0.3724 0.1055
H20 H 0.3319 0.2646 0.1076
C20 C 0.61023(18) 0.6876(5) 0.24452(15)
H21 H 0.6066 0.7516 0.2766
H22 H 0.6462 0.7232 0.2313
H23 H 0.6174 0.5810 0.2572
C21 C 0.4038(2) 0.0547(4) 0.04145(19)
C22 C 0.3917(3) -0.0395(6) -0.0132(2)
H24 H 0.3775 -0.1424 -0.0064
H25 H 0.4312 -0.0469 -0.0245
H26 H 0.3586 0.0100 -0.0440
O8 O 0.4596(2) 0.1849(4) 0.22564(14)
O9 O 0.39235(14) 0.2609(4) 0.42604(13)
O10 O 0.40957(13) 0.5944(3) 0.42352(11)
O11 O 0.4013(2) 0.7864(4) 0.35847(17)
O12 O 0.53309(12) 0.5880(3) 0.41706(11)
O13 O 0.62261(14) 0.6884(4) 0.40110(14)
O14 O 0.68816(17) 0.1366(5) 0.47944(16)
C23 C 0.4548(3) 0.1284(5) 0.2718(2)
C24 C 0.3894(3) 0.1144(6) 0.2831(2)
H27 H 0.3958 0.0723 0.3222
H28 H 0.3631 0.0403 0.2555
C25 C 0.3510(3) 0.2713(6) 0.2781(2)
H29 H 0.3793 0.3551 0.2728
H30 H 0.3144 0.2669 0.2430
C26 C 0.3250(2) 0.3140(6) 0.3296(3)
C27 C 0.38035(19) 0.3443(5) 0.38275(19)
C28 C 0.42597(17) 0.4840(4) 0.38351(16)
H31 H 0.4178 0.5294 0.3443
C29 C 0.49743(17) 0.4416(4) 0.40861(15)
H32 H 0.5045 0.3866 0.4460
C30 C 0.52399(17) 0.3447(4) 0.36590(15)
H33 H 0.4974 0.3690 0.3260
C31 C 0.51924(19) 0.1668(4) 0.37514(14)
H34 H 0.4775 0.1510 0.3836
C32 C 0.5139(2) 0.0745(4) 0.31801(17)
H35 H 0.5061 -0.0347 0.3262
C33 C 0.57146(19) 0.1023(5) 0.42893(16)
H36 H 0.5556 0.1090 0.4632
H37 H 0.5795 -0.0068 0.4225
C34 C 0.6328(2) 0.1907(6) 0.43959(19)
C35 C 0.64447(19) 0.3310(5) 0.41788(19)
C36 C 0.59235(18) 0.4165(4) 0.37406(16)
H38 H 0.6023 0.4222 0.3364
C37 C 0.7107(2) 0.3651(7) 0.4435(3)
H39 H 0.7336 0.4514 0.4363
C38 C 0.7339(3) 0.2471(10) 0.4806(3)
H40 H 0.7767 0.2416 0.5044
C39 C 0.5859(2) 0.5794(5) 0.39713(16)
C40 C 0.2808(3) 0.1816(8) 0.3413(3)
H41 H 0.3058 0.0873 0.3513
H42 H 0.2452 0.1643 0.3068
H43 H 0.2641 0.2111 0.3732
C41 C 0.2848(2) 0.4640(8) 0.3129(3)
H44 H 0.3119 0.5455 0.3049
H45 H 0.2683 0.4952 0.3447
H46 H 0.2490 0.4454 0.2786
C42 C 0.5765(3) 0.0769(6) 0.2993(2)
H47 H 0.5701 0.0177 0.2638
H48 H 0.6114 0.0316 0.3296
H49 H 0.5873 0.1828 0.2926
C43 C 0.4025(2) 0.7436(5) 0.4064(2)
C44 C 0.3970(3) 0.8450(6) 0.4549(2)
H50 H 0.3922 0.9517 0.4420
H51 H 0.4356 0.8348 0.4874
H52 H 0.3596 0.8145 0.4670
loop_
_geom_bond_atom_site_label_1
_geom_bond_atom_site_label_2
_geom_bond_site_symmetry_1
_geom_bond_site_symmetry_2
O1 C1 1_555 1_555
O2 C5 1_555 1_555
O3 C6 1_555 1_555
O4 C21 1_555 1_555
O5 C7 1_555 1_555
O6 C17 1_555 1_555
O7 C12 1_555 1_555
C1 C2 1_555 1_555
C2 H1 1_555 1_555
H2 C2 1_555 1_555
C3 C2 1_555 1_555
H3 C3 1_555 1_555
H4 C3 1_555 1_555
C4 C3 1_555 1_555
C5 C4 1_555 1_555
C6 C5 1_555 1_555
H5 C6 1_555 1_555
C7 C6 1_555 1_555
H6 C7 1_555 1_555
C8 C7 1_555 1_555
H7 C8 1_555 1_555
C9 C8 1_555 1_555
H8 C9 1_555 1_555
C10 C1 1_555 1_555
H9 C10 1_555 1_555
C11 C9 1_555 1_555
H10 C11 1_555 1_555
H11 C11 1_555 1_555
C12 C11 1_555 1_555
C13 C12 1_555 1_555
C14 C8 1_555 1_555
H12 C14 1_555 1_555
C15 C13 1_555 1_555
H13 C15 1_555 1_555
C16 O7 1_555 1_555
H14 C16 1_555 1_555
C17 O5 1_555 1_555
C18 C4 1_555 1_555
H15 C18 1_555 1_555
H16 C18 1_555 1_555
H17 C18 1_555 1_555
C19 C4 1_555 1_555
H18 C19 1_555 1_555
H19 C19 1_555 1_555
H20 C19 1_555 1_555
C20 C10 1_555 1_555
H21 C20 1_555 1_555
H22 C20 1_555 1_555
H23 C20 1_555 1_555
C21 O3 1_555 1_555
C22 C21 1_555 1_555
H24 C22 1_555 1_555
H25 C22 1_555 1_555
H26 C22 1_555 1_555
O8 C23 1_555 1_555
O9 C27 1_555 1_555
O10 C28 1_555 1_555
O11 C43 1_555 1_555
O12 C29 1_555 1_555
O13 C39 1_555 1_555
O14 C34 1_555 1_555
C23 C24 1_555 1_555
C24 H27 1_555 1_555
H28 C24 1_555 1_555
C25 C24 1_555 1_555
H29 C25 1_555 1_555
H30 C25 1_555 1_555
C26 C25 1_555 1_555
C27 C26 1_555 1_555
C28 C27 1_555 1_555
H31 C28 1_555 1_555
C29 C28 1_555 1_555
H32 C29 1_555 1_555
C30 C29 1_555 1_555
H33 C30 1_555 1_555
C31 C30 1_555 1_555
H34 C31 1_555 1_555
C32 C23 1_555 1_555
H35 C32 1_555 1_555
C33 C31 1_555 1_555
H36 C33 1_555 1_555
H37 C33 1_555 1_555
C34 C33 1_555 1_555
C35 C34 1_555 1_555
C36 C30 1_555 1_555
H38 C36 1_555 1_555
C37 C35 1_555 1_555
H39 C37 1_555 1_555
C38 O14 1_555 1_555
H40 C38 1_555 1_555
C39 O12 1_555 1_555
C40 C26 1_555 1_555
H41 C40 1_555 1_555
H42 C40 1_555 1_555
H43 C40 1_555 1_555
C41 C26 1_555 1_555
H44 C41 1_555 1_555
H45 C41 1_555 1_555
H46 C41 1_555 1_555
C42 C32 1_555 1_555
H47 C42 1_555 1_555
H48 C42 1_555 1_555
H49 C42 1_555 1_555
C43 O10 1_555 1_555
C44 C43 1_555 1_555
H50 C44 1_555 1_555
H51 C44 1_555 1_555
H52 C44 1_555 1_555
C9 C10 1_555 1_555
C13 C14 1_555 1_555
C14 C17 1_555 1_555
C15 C16 1_555 1_555
C31 C32 1_555 1_555
C35 C36 1_555 1_555
C36 C39 1_555 1_555
C37 C38 1_555 1_555

#END
