
#######################################################################
#
#                 Cambridge Crystallographic Data Centre
#                                CCDC 
#
#######################################################################
#
# If this CIF has been generated from an entry in the Cambridge 
# Structural Database, then it will include bibliographic, chemical, 
# crystal, experimental, refinement or atomic coordinate data resulting 
# from the CCDC's data processing and validation procedures.
#
#######################################################################

data_AGIDUR
_chemical_name_common            Naphthoquinones
_chemical_formula_moiety         'C12 H10 Cl1 N1 O2'
_chemical_name_systematic        2-Chloro-3-(ethylamino)-1,4-naphthoquinone
_symmetry_cell_setting           orthorhombic
_symmetry_space_group_name_H-M   'P c a 21'
_symmetry_Int_Tables_number      29
_space_group_name_Hall           'P 2c -2ac'
loop_
_symmetry_equiv_pos_site_id
_symmetry_equiv_pos_as_xyz
1 x,y,z
2 -x,-y,1/2+z
3 1/2+x,-y,z
4 1/2-x,y,1/2+z
_cell_length_a                   14.8140(17)
_cell_length_b                   4.5680(5)
_cell_length_c                   16.3347(18)
_cell_angle_alpha                90
_cell_angle_beta                 90
_cell_angle_gamma                90
_cell_volume                     1105.37
_exptl_crystal_colour            orange
_exptl_crystal_description       Plate
_cell_formula_units_Z            4
loop_
_atom_site_label
_atom_site_type_symbol
_atom_site_fract_x
_atom_site_fract_y
_atom_site_fract_z
Cl1 Cl 0.99814(10) 0.7476(4) 0.57657(15)
O1 O 1.1135(2) 0.3818(11) 0.4832(3)
O2 O 0.7810(3) 0.3741(11) 0.3593(3)
N1 N 0.8045(3) 0.6890(11) 0.4898(3)
H1 H 0.7581 0.6772 0.4583
C1 C 1.0370(3) 0.3761(13) 0.4562(4)
C2 C 0.9649(3) 0.5475(12) 0.4922(3)
C3 C 0.8773(3) 0.5424(11) 0.4626(3)
C4 C 0.8578(4) 0.3706(13) 0.3871(3)
C5 C 0.9105(6) 0.0186(17) 0.2842(5)
H2 H 0.8528 0.0162 0.2619
C6 C 0.9793(9) -0.152(2) 0.2489(5)
H3 H 0.9687 -0.2644 0.2023
C7 C 1.0643(7) -0.148(2) 0.2863(6)
H4 H 1.1093 -0.2695 0.2657
C8 C 1.0831(5) 0.0190(16) 0.3492(5)
H5 H 1.1412 0.0208 0.3706
C9 C 1.0165(4) 0.1942(14) 0.3842(4)
C10 C 0.9281(5) 0.1869(13) 0.3507(4)
C11 C 0.7904(4) 0.8599(15) 0.5614(5)
H6 H 0.7387 0.9867 0.5532
H7 H 0.8428 0.9828 0.5707
C12 C 0.7746(6) 0.673(2) 0.6351(6)
H8 H 0.7185 0.5706 0.6292
H9 H 0.7723 0.7946 0.6830
H10 H 0.8230 0.5345 0.6404
loop_
_geom_bond_atom_site_label_1
_geom_bond_atom_site_label_2
_geom_bond_site_symmetry_1
_geom_bond_site_symmetry_2
Cl1 C2 1_555 1_555
O1 C1 1_555 1_555
O2 C4 1_555 1_555
N1 H1 1_555 1_555
C1 C2 1_555 1_555
C2 C3 1_555 1_555
C3 N1 1_555 1_555
C4 C3 1_555 1_555
C5 H2 1_555 1_555
C6 C5 1_555 1_555
H3 C6 1_555 1_555
C7 C6 1_555 1_555
H4 C7 1_555 1_555
C8 C7 1_555 1_555
H5 C8 1_555 1_555
C9 C1 1_555 1_555
C10 C4 1_555 1_555
C11 N1 1_555 1_555
H6 C11 1_555 1_555
H7 C11 1_555 1_555
C12 C11 1_555 1_555
H8 C12 1_555 1_555
H9 C12 1_555 1_555
H10 C12 1_555 1_555
C5 C10 1_555 1_555
C8 C9 1_555 1_555
C9 C10 1_555 1_555

#END
