
#######################################################################
#
#                 Cambridge Crystallographic Data Centre
#                                CCDC 
#
#######################################################################
#
# If this CIF has been generated from an entry in the Cambridge 
# Structural Database, then it will include bibliographic, chemical, 
# crystal, experimental, refinement or atomic coordinate data resulting 
# from the CCDC's data processing and validation procedures.
#
#######################################################################

data_AGIVES
_chemical_formula_moiety         'C21 H34 B10 N1 O1 P1'
_chemical_name_systematic        
'P-(1,2-Dicarba-closo-dodecaboran-1-yl)-P-(9H-fluoren-9-yl)-N,N-di-isopropylphosphinic amide'
_symmetry_cell_setting           monoclinic
_symmetry_space_group_name_H-M   'P 21/n'
_symmetry_Int_Tables_number      14
_space_group_name_Hall           '-P 2yn'
loop_
_symmetry_equiv_pos_site_id
_symmetry_equiv_pos_as_xyz
1 x,y,z
2 1/2-x,1/2+y,1/2-z
3 -x,-y,-z
4 1/2+x,1/2-y,1/2+z
_cell_length_a                   11.2900(10)
_cell_length_b                   10.9564(9)
_cell_length_c                   21.1161(18)
_cell_angle_alpha                90
_cell_angle_beta                 105.089(2)
_cell_angle_gamma                90
_cell_volume                     2521.96
_exptl_crystal_colour            colorless
_exptl_crystal_description       block
_cell_formula_units_Z            4
_exptl_crystal_recrystallization_method toluene
loop_
_atom_site_label
_atom_site_type_symbol
_atom_site_fract_x
_atom_site_fract_y
_atom_site_fract_z
P1 P 0.13922(18) 0.35312(17) 0.29237(9)
C1 C -0.0122(7) 0.3902(6) 0.2318(4)
C2 C -0.0508(8) 0.2830(8) 0.1744(4)
H1 H 0.0060 0.2004 0.1778
C3 C 0.2241(7) 0.5000(7) 0.3029(4)
H2 H 0.2119 0.5389 0.2598
C4 C 0.2053(7) 0.5952(6) 0.3520(4)
C5 C 0.1019(8) 0.6618(7) 0.3532(4)
H3 H 0.0289 0.6498 0.3212
C6 C 0.1080(8) 0.7470(7) 0.4030(4)
H4 H 0.0391 0.7927 0.4039
C7 C 0.2161(9) 0.7637(8) 0.4509(4)
H5 H 0.2187 0.8194 0.4845
C8 C 0.3209(8) 0.6984(8) 0.4498(4)
H6 H 0.3942 0.7112 0.4816
C9 C 0.3139(8) 0.6137(7) 0.4000(4)
C10 C 0.4088(7) 0.5353(7) 0.3863(4)
C11 C 0.5313(7) 0.5194(8) 0.4201(4)
H7 H 0.5639 0.5592 0.4597
C12 C 0.6035(8) 0.4436(9) 0.3938(5)
H8 H 0.6861 0.4346 0.4152
C13 C 0.5555(8) 0.3818(8) 0.3369(5)
H9 H 0.6056 0.3297 0.3206
C14 C 0.4341(8) 0.3949(8) 0.3032(4)
H10 H 0.4025 0.3545 0.2637
C15 C 0.3601(7) 0.4699(7) 0.3297(4)
C16 C 0.0564(7) 0.3734(7) 0.4043(4)
H11 H 0.0281 0.4504 0.3819
C17 C -0.0545(8) 0.3087(8) 0.4146(4)
H12 H -0.1099 0.2905 0.3728
H13 H -0.0949 0.3601 0.4393
H14 H -0.0296 0.2341 0.4381
C18 C 0.1454(8) 0.4051(8) 0.4694(4)
H15 H 0.2153 0.4464 0.4617
H16 H 0.1717 0.3317 0.4938
H17 H 0.1055 0.4574 0.4940
C19 C 0.1710(8) 0.1810(7) 0.3885(4)
H18 H 0.1529 0.1725 0.4313
C20 C 0.3085(9) 0.1756(9) 0.4018(5)
H19 H 0.3441 0.2438 0.4286
H20 H 0.3310 0.1785 0.3610
H21 H 0.3379 0.1010 0.4243
C21 C 0.1077(11) 0.0750(9) 0.3472(5)
H22 H 0.0207 0.0816 0.3410
H23 H 0.1362 -0.0004 0.3691
H24 H 0.1263 0.0765 0.3054
N1 N 0.1184(6) 0.3032(6) 0.3614(3)
B1 B -0.1354(9) 0.2971(10) 0.2297(5)
H25 H -0.1378 0.2293 0.2677
B2 B -0.1407(8) 0.4571(9) 0.2436(5)
H26 H -0.1487 0.4945 0.2907
B3 B -0.0492(9) 0.5301(9) 0.1951(5)
H27 H 0.0029 0.6145 0.2110
B4 B 0.0105(9) 0.4128(9) 0.1536(4)
H28 H 0.1009 0.4196 0.1434
B5 B -0.2046(10) 0.2678(11) 0.1458(5)
H29 H -0.2537 0.1821 0.1294
B6 B -0.2644(9) 0.3823(12) 0.1885(5)
H30 H -0.3534 0.3714 0.1999
B7 B -0.2117(10) 0.5281(10) 0.1663(5)
H31 H -0.2662 0.6121 0.1634
B8 B -0.1202(10) 0.4999(10) 0.1114(5)
H32 H -0.1157 0.5654 0.0727
B9 B -0.1151(10) 0.3389(11) 0.0988(5)
H33 H -0.1065 0.2987 0.0524
B10 B -0.2525(10) 0.4110(12) 0.1071(6)
H34 H -0.3345 0.4194 0.0657
O1 O 0.1966(5) 0.2617(5) 0.2592(3)
loop_
_geom_bond_atom_site_label_1
_geom_bond_atom_site_label_2
_geom_bond_site_symmetry_1
_geom_bond_site_symmetry_2
P1 C1 1_555 1_555
C1 C2 1_555 1_555
C2 H1 1_555 1_555
C3 P1 1_555 1_555
H2 C3 1_555 1_555
C4 C3 1_555 1_555
C5 C4 1_555 1_555
H3 C5 1_555 1_555
C6 C5 1_555 1_555
H4 C6 1_555 1_555
C7 C6 1_555 1_555
H5 C7 1_555 1_555
C8 C7 1_555 1_555
H6 C8 1_555 1_555
C9 C4 1_555 1_555
C10 C9 1_555 1_555
C11 C10 1_555 1_555
H7 C11 1_555 1_555
C12 C11 1_555 1_555
H8 C12 1_555 1_555
C13 C12 1_555 1_555
H9 C13 1_555 1_555
C14 C13 1_555 1_555
H10 C14 1_555 1_555
C15 C3 1_555 1_555
C16 H11 1_555 1_555
C17 C16 1_555 1_555
H12 C17 1_555 1_555
H13 C17 1_555 1_555
H14 C17 1_555 1_555
C18 C16 1_555 1_555
H15 C18 1_555 1_555
H16 C18 1_555 1_555
H17 C18 1_555 1_555
C19 H18 1_555 1_555
C20 C19 1_555 1_555
H19 C20 1_555 1_555
H20 C20 1_555 1_555
H21 C20 1_555 1_555
C21 C19 1_555 1_555
H22 C21 1_555 1_555
H23 C21 1_555 1_555
H24 C21 1_555 1_555
N1 P1 1_555 1_555
B1 C1 1_555 1_555
H25 B1 1_555 1_555
B2 C1 1_555 1_555
H26 B2 1_555 1_555
B3 C1 1_555 1_555
H27 B3 1_555 1_555
B4 C1 1_555 1_555
H28 B4 1_555 1_555
B5 C2 1_555 1_555
H29 B5 1_555 1_555
B6 B1 1_555 1_555
H30 B6 1_555 1_555
B7 B2 1_555 1_555
H31 B7 1_555 1_555
B8 B3 1_555 1_555
H32 B8 1_555 1_555
B9 C2 1_555 1_555
H33 B9 1_555 1_555
B10 B5 1_555 1_555
H34 B10 1_555 1_555
O1 P1 1_555 1_555
C2 B1 1_555 1_555
C2 B4 1_555 1_555
C8 C9 1_555 1_555
C10 C15 1_555 1_555
C14 C15 1_555 1_555
C16 N1 1_555 1_555
C19 N1 1_555 1_555
B1 B2 1_555 1_555
B1 B5 1_555 1_555
B2 B3 1_555 1_555
B2 B6 1_555 1_555
B3 B4 1_555 1_555
B3 B7 1_555 1_555
B4 B8 1_555 1_555
B4 B9 1_555 1_555
B5 B6 1_555 1_555
B5 B9 1_555 1_555
B6 B7 1_555 1_555
B6 B10 1_555 1_555
B7 B8 1_555 1_555
B7 B10 1_555 1_555
B8 B9 1_555 1_555
B8 B10 1_555 1_555
B9 B10 1_555 1_555

#END
