
#######################################################################
#
#                 Cambridge Crystallographic Data Centre
#                                CCDC 
#
#######################################################################
#
# If this CIF has been generated from an entry in the Cambridge 
# Structural Database, then it will include bibliographic, chemical, 
# crystal, experimental, refinement or atomic coordinate data resulting 
# from the CCDC's data processing and validation procedures.
#
#######################################################################

data_AGIYOH
_chemical_formula_moiety         'C36 H32 N2'
_chemical_name_systematic        
N,N'-(hexane-1,6-diyl)bis[1-(anthracen-9-yl)methanimine]
_symmetry_cell_setting           monoclinic
_symmetry_space_group_name_H-M   'P 21'
_symmetry_Int_Tables_number      4
_space_group_name_Hall           'P 2yb'
loop_
_symmetry_equiv_pos_site_id
_symmetry_equiv_pos_as_xyz
1 x,y,z
2 -x,1/2+y,-z
_cell_length_a                   4.24760(10)
_cell_length_b                   30.3840(6)
_cell_length_c                   9.9596(2)
_cell_angle_alpha                90
_cell_angle_beta                 98.926(2)
_cell_angle_gamma                90
_cell_volume                     1269.81
_exptl_crystal_colour            'light yellow'
_exptl_crystal_description       needle
_cell_formula_units_Z            2
loop_
_atom_site_label
_atom_site_type_symbol
_atom_site_fract_x
_atom_site_fract_y
_atom_site_fract_z
N1 N 0.7272(3) 0.53823(4) 0.72012(11)
N2 N -0.0572(3) 0.46456(4) 0.03950(10)
C1 C 0.8740(4) 0.67937(5) 0.94217(14)
C2 C -0.2735(3) 0.38850(5) 0.19711(13)
H1 H -0.1886 0.4165 0.2154
C3 C 0.0679(3) 0.43140(4) -0.00875(12)
H2 H 0.2708 0.4345 -0.0317
C4 C 0.6012(3) 0.57126(4) 0.76906(12)
H3 H 0.3974 0.5681 0.7909
C5 C -0.3795(3) 0.32465(5) 0.04651(14)
C6 C 0.7399(3) 0.63625(5) 0.91798(13)
C7 C -0.2467(3) 0.36810(4) 0.06980(14)
C8 C 0.7600(3) 0.61464(4) 0.79346(13)
C9 C 1.0432(3) 0.67888(4) 0.72005(14)
C10 C -0.0915(3) 0.38786(4) -0.03070(13)
C11 C 1.0194(3) 0.69972(4) 0.84282(14)
H4 H 1.1027 0.7279 0.8586
C12 C -0.3563(3) 0.30300(4) -0.07470(15)
H5 H -0.4445 0.2751 -0.0893
C13 C 0.0731(4) 0.38412(5) -0.26082(14)
H6 H 0.1569 0.4124 -0.2508
C14 C 0.3183(4) 0.49191(4) 0.30843(13)
H7 H 0.1962 0.4649 0.3061
H8 H 0.5278 0.4846 0.2877
C15 C -0.4196(4) 0.36805(5) 0.29172(15)
H9 H -0.4336 0.3822 0.3733
C16 C -0.0704(3) 0.36535(4) -0.15349(14)
C17 C 0.1329(3) 0.50500(4) 0.05532(13)
H10 H 0.0367 0.5268 -0.0094
H11 H 0.3457 0.4989 0.0362
C18 C -0.5316(4) 0.30452(4) 0.14871(16)
H12 H -0.6189 0.2766 0.1334
C19 C 1.1963(4) 0.70012(5) 0.61911(15)
H13 H 1.2794 0.7283 0.6355
C20 C 0.9144(3) 0.63546(4) 0.69443(13)
C21 C 0.5160(3) 0.47981(4) 0.55979(13)
H14 H 0.3992 0.4523 0.5534
H15 H 0.7297 0.4736 0.5420
C22 C 0.5877(4) 0.63772(5) 1.14398(14)
H16 H 0.4944 0.6241 1.2116
C23 C 0.8563(3) 0.70059(5) 1.06895(14)
H17 H 0.9417 0.7286 1.0848
C24 C 0.5986(4) 0.61625(5) 1.02413(15)
H18 H 0.5125 0.5881 1.0114
C25 C -0.2047(3) 0.32193(4) -0.17464(14)
C26 C 1.0953(4) 0.63670(5) 0.47454(14)
H19 H 1.1141 0.6229 0.3929
C27 C -0.1821(4) 0.29937(4) -0.29855(15)
H20 H -0.2678 0.2713 -0.3123
C28 C 0.9479(3) 0.61550(4) 0.56693(13)
H21 H 0.8666 0.5874 0.5473
C29 C 0.3536(3) 0.51130(4) 0.45070(13)
H22 H 0.1443 0.5188 0.4711
H23 H 0.4773 0.5382 0.4533
C30 C 0.7178(4) 0.68066(5) 1.16614(14)
H24 H 0.7075 0.6951 1.2477
C31 C 0.1537(3) 0.52319(4) 0.19949(13)
H25 H 0.2694 0.5508 0.2053
H26 H -0.0600 0.5292 0.2176
C32 C 0.5362(3) 0.49774(4) 0.70396(13)
H27 H 0.3234 0.5038 0.7230
H28 H 0.6322 0.4758 0.7684
C33 C 1.2220(4) 0.67978(5) 0.50004(15)
H29 H 1.3219 0.6939 0.4354
C34 C -0.5519(4) 0.32523(5) 0.26783(15)
H30 H -0.6515 0.3115 0.3334
C35 C -0.0382(4) 0.31815(5) -0.39642(15)
H31 H -0.0228 0.3028 -0.4760
C36 C 0.0896(4) 0.36145(5) -0.37723(14)
H32 H 0.1856 0.3744 -0.4452
loop_
_geom_bond_atom_site_label_1
_geom_bond_atom_site_label_2
_geom_bond_site_symmetry_1
_geom_bond_site_symmetry_2
N1 C4 1_555 1_555
N2 C3 1_555 1_555
C1 C6 1_555 1_555
C2 H1 1_555 1_555
C3 H2 1_555 1_555
C4 H3 1_555 1_555
C5 C7 1_555 1_555
C6 C8 1_555 1_555
C7 C2 1_555 1_555
C8 C4 1_555 1_555
C9 C11 1_555 1_555
C10 C3 1_555 1_555
C11 C1 1_555 1_555
H4 C11 1_555 1_555
C12 C5 1_555 1_555
H5 C12 1_555 1_555
C13 H6 1_555 1_555
C14 H7 1_555 1_555
H8 C14 1_555 1_555
C15 C2 1_555 1_555
H9 C15 1_555 1_555
C16 C10 1_555 1_555
C17 N2 1_555 1_555
H10 C17 1_555 1_555
H11 C17 1_555 1_555
C18 C5 1_555 1_555
H12 C18 1_555 1_555
C19 C9 1_555 1_555
H13 C19 1_555 1_555
C20 C8 1_555 1_555
C21 H14 1_555 1_555
H15 C21 1_555 1_555
C22 H16 1_555 1_555
C23 C1 1_555 1_555
H17 C23 1_555 1_555
C24 C6 1_555 1_555
H18 C24 1_555 1_555
C25 C12 1_555 1_555
C26 H19 1_555 1_555
C27 C25 1_555 1_555
H20 C27 1_555 1_555
C28 C20 1_555 1_555
H21 C28 1_555 1_555
C29 C14 1_555 1_555
H22 C29 1_555 1_555
H23 C29 1_555 1_555
C30 C22 1_555 1_555
H24 C30 1_555 1_555
C31 C14 1_555 1_555
H25 C31 1_555 1_555
H26 C31 1_555 1_555
C32 N1 1_555 1_555
H27 C32 1_555 1_555
H28 C32 1_555 1_555
C33 C19 1_555 1_555
H29 C33 1_555 1_555
C34 C15 1_555 1_555
H30 C34 1_555 1_555
C35 C27 1_555 1_555
H31 C35 1_555 1_555
C36 C13 1_555 1_555
H32 C36 1_555 1_555
C7 C10 1_555 1_555
C9 C20 1_555 1_555
C13 C16 1_555 1_555
C16 C25 1_555 1_555
C17 C31 1_555 1_555
C18 C34 1_555 1_555
C21 C29 1_555 1_555
C21 C32 1_555 1_555
C22 C24 1_555 1_555
C23 C30 1_555 1_555
C26 C28 1_555 1_555
C26 C33 1_555 1_555
C35 C36 1_555 1_555

#END
