
#######################################################################
#
#                 Cambridge Crystallographic Data Centre
#                                CCDC 
#
#######################################################################
#
# If this CIF has been generated from an entry in the Cambridge 
# Structural Database, then it will include bibliographic, chemical, 
# crystal, experimental, refinement or atomic coordinate data resulting 
# from the CCDC's data processing and validation procedures.
#
#######################################################################

data_AGIZUO
_chemical_formula_moiety         'C24 H19 N1'
_chemical_name_systematic        
3,12-dimethyl-6-phenylindolo[2,1-a]isoquinoline
_symmetry_cell_setting           monoclinic
_symmetry_space_group_name_H-M   'P 21/n'
_symmetry_Int_Tables_number      14
_space_group_name_Hall           '-P 2yn'
loop_
_symmetry_equiv_pos_site_id
_symmetry_equiv_pos_as_xyz
1 x,y,z
2 1/2-x,1/2+y,1/2-z
3 -x,-y,-z
4 1/2+x,1/2-y,1/2+z
_cell_length_a                   6.08000(10)
_cell_length_b                   11.0808(2)
_cell_length_c                   25.3706(17)
_cell_angle_alpha                90
_cell_angle_beta                 93.031(2)
_cell_angle_gamma                90
_cell_volume                     1706.86
_exptl_crystal_colour            'light yellow'
_exptl_crystal_description       block
_cell_formula_units_Z            4
loop_
_atom_site_label
_atom_site_type_symbol
_atom_site_fract_x
_atom_site_fract_y
_atom_site_fract_z
N1 N 0.9811(2) 0.09723(13) 0.17418(6)
C1 C 1.1087(3) 0.04344(17) 0.13651(7)
C2 C 1.0906(3) 0.04356(19) 0.08144(8)
H1 H 0.9777 0.0852 0.0632
C3 C 1.2456(4) -0.0200(2) 0.05507(9)
H2 H 1.2365 -0.0213 0.0184
C4 C 1.4159(4) -0.0825(2) 0.08208(10)
H3 H 1.5212 -0.1221 0.0632
C5 C 1.4300(4) -0.0863(2) 0.13609(9)
H4 H 1.5425 -0.1294 0.1538
C6 C 1.2726(3) -0.02438(17) 0.16444(8)
C7 C 1.2377(3) -0.01702(17) 0.21925(7)
C8 C 1.0576(3) 0.05562(16) 0.22477(7)
C9 C 0.9334(3) 0.09068(16) 0.26968(7)
C10 C 0.9879(3) 0.05155(19) 0.32127(8)
H5 H 1.1105 0.0026 0.3278
C11 C 0.8617(4) 0.0848(2) 0.36240(8)
H6 H 0.9005 0.0571 0.3962
C12 C 0.6782(3) 0.15872(19) 0.35483(8)
C13 C 0.6242(3) 0.19842(18) 0.30428(8)
H7 H 0.5028 0.2486 0.2985
C14 C 0.7475(3) 0.16511(16) 0.26141(7)
C15 C 0.6946(3) 0.21113(17) 0.20924(7)
H8 H 0.5758 0.2635 0.2042
C16 C 0.8106(3) 0.18123(16) 0.16763(7)
C17 C 0.7737(3) 0.24300(16) 0.11597(7)
C18 C 0.5705(3) 0.2363(2) 0.08863(8)
H9 H 0.4573 0.1918 0.1024
C19 C 0.5355(4) 0.2956(2) 0.04088(8)
H10 H 0.3987 0.2909 0.0228
C20 C 0.7016(4) 0.3614(2) 0.02012(8)
H11 H 0.6781 0.4001 -0.0122
C21 C 0.9031(4) 0.3700(2) 0.04730(8)
H12 H 1.0152 0.4152 0.0334
C22 C 0.9393(3) 0.31181(18) 0.09500(8)
H13 H 1.0754 0.3186 0.1133
C23 C 1.3763(4) -0.0840(2) 0.26055(9)
H14 H 1.4213 -0.0297 0.2886
H15 H 1.5043 -0.1163 0.2450
H16 H 1.2919 -0.1487 0.2744
C24 C 0.5433(5) 0.1952(3) 0.40044(9)
H17 H 0.5552 0.2807 0.4058
H18 H 0.5969 0.1539 0.4318
H19 H 0.3918 0.1742 0.3927
loop_
_geom_bond_atom_site_label_1
_geom_bond_atom_site_label_2
_geom_bond_site_symmetry_1
_geom_bond_site_symmetry_2
N1 C1 1_555 1_555
C1 C2 1_555 1_555
C2 H1 1_555 1_555
C3 C2 1_555 1_555
H2 C3 1_555 1_555
C4 C3 1_555 1_555
H3 C4 1_555 1_555
C5 C4 1_555 1_555
H4 C5 1_555 1_555
C6 C1 1_555 1_555
C7 C6 1_555 1_555
C8 N1 1_555 1_555
C9 C8 1_555 1_555
C10 C9 1_555 1_555
H5 C10 1_555 1_555
C11 C10 1_555 1_555
H6 C11 1_555 1_555
C12 C11 1_555 1_555
C13 C12 1_555 1_555
H7 C13 1_555 1_555
C14 C9 1_555 1_555
C15 C14 1_555 1_555
H8 C15 1_555 1_555
C16 N1 1_555 1_555
C17 C16 1_555 1_555
C18 C17 1_555 1_555
H9 C18 1_555 1_555
C19 C18 1_555 1_555
H10 C19 1_555 1_555
C20 C19 1_555 1_555
H11 C20 1_555 1_555
C21 C20 1_555 1_555
H12 C21 1_555 1_555
C22 C17 1_555 1_555
H13 C22 1_555 1_555
C23 C7 1_555 1_555
H14 C23 1_555 1_555
H15 C23 1_555 1_555
H16 C23 1_555 1_555
C24 C12 1_555 1_555
H17 C24 1_555 1_555
H18 C24 1_555 1_555
H19 C24 1_555 1_555
C5 C6 1_555 1_555
C7 C8 1_555 1_555
C13 C14 1_555 1_555
C15 C16 1_555 1_555
C21 C22 1_555 1_555

#END
