
#######################################################################
#
#                 Cambridge Crystallographic Data Centre
#                                CCDC 
#
#######################################################################
#
# If this CIF has been generated from an entry in the Cambridge 
# Structural Database, then it will include bibliographic, chemical, 
# crystal, experimental, refinement or atomic coordinate data resulting 
# from the CCDC's data processing and validation procedures.
#
#######################################################################

data_AGIZUN
_chemical_formula_moiety         'C20 H22 O5'
_chemical_name_systematic        
4-(3-Furyl)-3b,8a,8b-trimethyloctahydro-1aH-oxireno[5',6']naphtho[2',1':1,3]cyclopropa[1,2-c]furan-6,7(8H)-dione
_symmetry_cell_setting           monoclinic
_symmetry_space_group_name_H-M   'P 21'
_symmetry_Int_Tables_number      4
_space_group_name_Hall           'P 2yb'
loop_
_symmetry_equiv_pos_site_id
_symmetry_equiv_pos_as_xyz
1 x,y,z
2 -x,1/2+y,-z
_cell_length_a                   8.0200(2)
_cell_length_b                   9.1995(2)
_cell_length_c                   12.0639(2)
_cell_angle_alpha                90
_cell_angle_beta                 97.3900(10)
_cell_angle_gamma                90
_cell_volume                     882.681
_exptl_crystal_colour            colorless
_exptl_crystal_description       block
_cell_formula_units_Z            2
loop_
_atom_site_label
_atom_site_type_symbol
_atom_site_fract_x
_atom_site_fract_y
_atom_site_fract_z
O1 O 0.98716(14) 0.74564(15) 0.96368(8)
O2 O 1.07384(14) 0.46681(13) 0.51575(10)
O3 O 0.75645(17) 0.28762(12) 0.52186(10)
O4 O 0.58777(14) 0.45171(11) 0.42910(9)
O5 O 0.56020(19) 0.73726(15) 0.12732(9)
C1 C 0.71742(18) 0.81487(16) 0.78976(11)
H1 H 0.6145 0.8580 0.7486
H2 H 0.6835 0.7467 0.8463
C2 C 0.8281(2) 0.93429(18) 0.84729(13)
H3 H 0.8456 1.0106 0.7921
H4 H 0.7701 0.9793 0.9063
C3 C 0.9951(2) 0.8769(2) 0.89832(12)
H5 H 1.0785 0.9514 0.9303
C4 C 1.06591(19) 0.7407(2) 0.86135(11)
C5 C 0.96898(17) 0.64817(16) 0.76808(11)
C6 C 1.08311(18) 0.61556(18) 0.67737(11)
H6 H 1.1281 0.7085 0.6523
H7 H 1.1797 0.5563 0.7109
C7 C 0.99576(18) 0.53662(15) 0.57723(11)
C8 C 0.80907(18) 0.54338(14) 0.55492(11)
C9 C 0.70314(16) 0.63636(13) 0.62599(10)
C10 C 0.81541(16) 0.73311(14) 0.70842(10)
H8 H 0.8626 0.8092 0.6621
C11 C 0.70769(16) 0.67397(14) 0.50540(10)
H9 H 0.7693 0.7634 0.4868
C12 C 0.57467(18) 0.61042(15) 0.41723(11)
H10 H 0.4605 0.6433 0.4314
C13 C 0.60425(19) 0.65302(16) 0.30179(11)
C14 C 0.7588(2) 0.6498(2) 0.25548(13)
H11 H 0.8649 0.6183 0.2916
C15 C 0.7248(3) 0.7002(2) 0.15040(14)
H12 H 0.8051 0.7088 0.0993
C16 C 0.4895(2) 0.70651(19) 0.22124(14)
H13 H 0.3742 0.7210 0.2288
C17 C 0.7216(2) 0.41270(16) 0.50299(12)
C18 C 1.2543(2) 0.7202(3) 0.88587(14)
H14 H 1.2959 0.7685 0.9564
H15 H 1.3087 0.7626 0.8252
H16 H 1.2802 0.6162 0.8919
C19 C 0.9198(2) 0.50393(17) 0.81957(12)
H17 H 1.0197 0.4594 0.8613
H18 H 0.8723 0.4380 0.7599
H19 H 0.8360 0.5225 0.8703
C20 C 0.54439(18) 0.57533(16) 0.66377(12)
H20 H 0.4651 0.6546 0.6715
H21 H 0.5722 0.5265 0.7360
H22 H 0.4931 0.5053 0.6083
loop_
_geom_bond_atom_site_label_1
_geom_bond_atom_site_label_2
_geom_bond_site_symmetry_1
_geom_bond_site_symmetry_2
O1 C3 1_555 1_555
O2 C7 1_555 1_555
O3 C17 1_555 1_555
O4 C12 1_555 1_555
O5 C15 1_555 1_555
C1 H1 1_555 1_555
H2 C1 1_555 1_555
C2 C1 1_555 1_555
H3 C2 1_555 1_555
H4 C2 1_555 1_555
C3 C2 1_555 1_555
H5 C3 1_555 1_555
C4 O1 1_555 1_555
C5 C4 1_555 1_555
C6 C5 1_555 1_555
H6 C6 1_555 1_555
H7 C6 1_555 1_555
C7 C6 1_555 1_555
C8 C7 1_555 1_555
C9 C8 1_555 1_555
C10 C1 1_555 1_555
H8 C10 1_555 1_555
C11 C8 1_555 1_555
H9 C11 1_555 1_555
C12 C11 1_555 1_555
H10 C12 1_555 1_555
C13 C12 1_555 1_555
C14 C13 1_555 1_555
H11 C14 1_555 1_555
C15 C14 1_555 1_555
H12 C15 1_555 1_555
C16 O5 1_555 1_555
H13 C16 1_555 1_555
C17 O4 1_555 1_555
C18 C4 1_555 1_555
H14 C18 1_555 1_555
H15 C18 1_555 1_555
H16 C18 1_555 1_555
C19 C5 1_555 1_555
H17 C19 1_555 1_555
H18 C19 1_555 1_555
H19 C19 1_555 1_555
C20 C9 1_555 1_555
H20 C20 1_555 1_555
H21 C20 1_555 1_555
H22 C20 1_555 1_555
C3 C4 1_555 1_555
C5 C10 1_555 1_555
C8 C17 1_555 1_555
C9 C10 1_555 1_555
C9 C11 1_555 1_555
C13 C16 1_555 1_555

#END
