
#######################################################################
#
#                 Cambridge Crystallographic Data Centre
#                                CCDC 
#
#######################################################################
#
# If this CIF has been generated from an entry in the Cambridge 
# Structural Database, then it will include bibliographic, chemical, 
# crystal, experimental, refinement or atomic coordinate data resulting 
# from the CCDC's data processing and validation procedures.
#
#######################################################################

data_AGOLEN
_chemical_formula_moiety         'C21 H20 Cl2 O2'
_chemical_name_systematic        
3,5-bis(2-Chlorophenyl)-4-formyl-2,6-dimethylcyclohexan-1-one
_symmetry_cell_setting           orthorhombic
_symmetry_space_group_name_H-M   'P 21 21 21'
_symmetry_Int_Tables_number      19
_space_group_name_Hall           'P 2ac 2ab'
loop_
_symmetry_equiv_pos_site_id
_symmetry_equiv_pos_as_xyz
1 x,y,z
2 1/2-x,-y,1/2+z
3 1/2+x,1/2-y,-z
4 -x,1/2+y,1/2-z
_cell_length_a                   7.635(2)
_cell_length_b                   12.1814(15)
_cell_length_c                   20.175(4)
_cell_angle_alpha                90
_cell_angle_beta                 90
_cell_angle_gamma                90
_cell_volume                     1876.38
_exptl_crystal_colour            colorless
_exptl_crystal_description       block
_cell_formula_units_Z            4
_exptl_crystal_recrystallization_method ethanol
loop_
_atom_site_label
_atom_site_type_symbol
_atom_site_fract_x
_atom_site_fract_y
_atom_site_fract_z
C1 C 0.8270(5) 0.1378(3) 0.1271(2)
C2 C 0.7519(5) 0.2517(3) 0.13446(19)
H1 H 0.7735 0.2921 0.0932
C3 C 0.5512(5) 0.2378(3) 0.14281(18)
H2 H 0.5325 0.1929 0.1825
C4 C 0.4734(5) 0.1736(3) 0.0836(2)
H3 H 0.5008 0.2124 0.0423
C5 C 0.5565(5) 0.0586(3) 0.0818(2)
H4 H 0.5385 0.0255 0.1255
C6 C 0.7571(5) 0.0690(3) 0.0712(2)
H5 H 0.7777 0.1080 0.0295
O1 O 0.9329(4) 0.1020(2) 0.16662(14)
C7 C 0.8348(7) 0.3150(4) 0.1910(2)
H6 H 0.9584 0.3217 0.1834
H7 H 0.8151 0.2765 0.2319
H8 H 0.7833 0.3867 0.1936
C8 C 0.2779(6) 0.1650(3) 0.0912(2)
H9 H 0.2349 0.1287 0.1283
O2 O 0.1740(4) 0.2016(3) 0.05289(15)
C9 C 0.8479(7) -0.0420(4) 0.0675(3)
H10 H 0.9712 -0.0313 0.0609
H11 H 0.8007 -0.0834 0.0312
H12 H 0.8291 -0.0813 0.1081
C10 C 0.4603(5) 0.3460(3) 0.1545(2)
C11 C 0.4850(6) 0.4343(4) 0.1119(2)
H13 H 0.5550 0.4251 0.0746
C12 C 0.4091(8) 0.5351(4) 0.1233(3)
H14 H 0.4296 0.5932 0.0945
C13 C 0.3021(8) 0.5491(5) 0.1778(3)
H15 H 0.2516 0.6173 0.1860
C14 C 0.2702(8) 0.4639(5) 0.2197(3)
H16 H 0.1961 0.4734 0.2559
C15 C 0.3484(6) 0.3629(4) 0.2084(2)
Cl1 Cl 0.30319(19) 0.25791(13) 0.26360(5)
C16 C 0.4697(6) -0.0153(3) 0.0319(2)
C17 C 0.3628(6) -0.1039(3) 0.0498(2)
C18 C 0.2843(7) -0.1714(4) 0.0038(3)
H17 H 0.2145 -0.2297 0.0176
C19 C 0.3096(8) -0.1524(4) -0.0621(3)
H18 H 0.2574 -0.1978 -0.0934
C20 C 0.4128(8) -0.0655(5) -0.0822(3)
H19 H 0.4301 -0.0524 -0.1271
C21 C 0.4906(6) 0.0021(4) -0.0357(2)
H20 H 0.5586 0.0608 -0.0500
Cl2 Cl 0.3244(2) -0.13281(11) 0.13299(7)
loop_
_geom_bond_atom_site_label_1
_geom_bond_atom_site_label_2
_geom_bond_site_symmetry_1
_geom_bond_site_symmetry_2
C1 C2 1_555 1_555
C2 H1 1_555 1_555
C3 C2 1_555 1_555
H2 C3 1_555 1_555
C4 C3 1_555 1_555
H3 C4 1_555 1_555
C5 C4 1_555 1_555
H4 C5 1_555 1_555
C6 C1 1_555 1_555
H5 C6 1_555 1_555
O1 C1 1_555 1_555
C7 C2 1_555 1_555
H6 C7 1_555 1_555
H7 C7 1_555 1_555
H8 C7 1_555 1_555
C8 C4 1_555 1_555
H9 C8 1_555 1_555
O2 C8 1_555 1_555
C9 C6 1_555 1_555
H10 C9 1_555 1_555
H11 C9 1_555 1_555
H12 C9 1_555 1_555
C10 C3 1_555 1_555
C11 C10 1_555 1_555
H13 C11 1_555 1_555
C12 C11 1_555 1_555
H14 C12 1_555 1_555
C13 C12 1_555 1_555
H15 C13 1_555 1_555
C14 C13 1_555 1_555
H16 C14 1_555 1_555
C15 C10 1_555 1_555
Cl1 C15 1_555 1_555
C16 C5 1_555 1_555
C17 C16 1_555 1_555
C18 C17 1_555 1_555
H17 C18 1_555 1_555
C19 C18 1_555 1_555
H18 C19 1_555 1_555
C20 C19 1_555 1_555
H19 C20 1_555 1_555
C21 C16 1_555 1_555
H20 C21 1_555 1_555
Cl2 C17 1_555 1_555
C5 C6 1_555 1_555
C14 C15 1_555 1_555
C20 C21 1_555 1_555

#END
