
#######################################################################
#
#                 Cambridge Crystallographic Data Centre
#                                CCDC 
#
#######################################################################
#
# If this CIF has been generated from an entry in the Cambridge 
# Structural Database, then it will include bibliographic, chemical, 
# crystal, experimental, refinement or atomic coordinate data resulting 
# from the CCDC's data processing and validation procedures.
#
#######################################################################

data_AGOQUL
_chemical_formula_moiety         'C52 H42 N2 O4 S2,2(C1 H1 Cl3)'
_chemical_name_systematic        
"2,10-bis[2,6-di-isopropylphenyl]thieno[3,2-h]thieno[3'',2'':7',8']isoquinolino[4',5',6':6,5,10]anthra[2,1,9-def]isoquinoline-1,3,9,11(2H,10H)-tetrone chloroform solvate"
_symmetry_cell_setting           monoclinic
_symmetry_space_group_name_H-M   'C 2/c'
_symmetry_Int_Tables_number      15
_space_group_name_Hall           '-C 2yn'
loop_
_symmetry_equiv_pos_site_id
_symmetry_equiv_pos_as_xyz
1 x,y,z
2 -x,y,1/2-z
3 1/2+x,1/2+y,z
4 1/2-x,1/2+y,1/2-z
5 -x,-y,-z
6 x,-y,1/2+z
7 1/2-x,1/2-y,-z
8 1/2+x,1/2-y,1/2+z
_cell_length_a                   20.391(8)
_cell_length_b                   14.282(5)
_cell_length_c                   19.210(8)
_cell_angle_alpha                90
_cell_angle_beta                 115.269(6)
_cell_angle_gamma                90
_cell_volume                     5059.11
_exptl_crystal_colour            colorless
_exptl_crystal_description       needle
_cell_formula_units_Z            4
loop_
_atom_site_label
_atom_site_type_symbol
_atom_site_fract_x
_atom_site_fract_y
_atom_site_fract_z
C1 C 0.5727(2) 0.2272(3) 0.6484(3)
C2 C 0.5729(3) 0.1387(3) 0.6780(3)
C3 C 0.5849(3) 0.1326(4) 0.7544(3)
H1 H 0.586544 0.072788 0.776633
C4 C 0.5947(3) 0.2123(4) 0.7990(3)
H2 H 0.600430 0.207226 0.850623
C5 C 0.5960(3) 0.2985(4) 0.7681(3)
H3 H 0.604413 0.352732 0.799475
C6 C 0.5852(3) 0.3085(4) 0.6917(3)
C7 C 0.5614(3) 0.0504(4) 0.6285(3)
H4 H 0.562553 0.069082 0.578875
C8 C 0.6232(5) -0.0197(5) 0.6693(6)
H5 H 0.669448 0.008700 0.676694
H6 H 0.614783 -0.076205 0.637715
H7 H 0.624654 -0.036249 0.719440
C9 C 0.4866(4) 0.0068(5) 0.6102(5)
H8 H 0.483645 -0.009524 0.658345
H9 H 0.480121 -0.049707 0.579055
H10 H 0.448388 0.052082 0.581567
C10 C 0.5903(4) 0.4048(4) 0.6598(3)
H11 H 0.580372 0.396753 0.604452
C11 C 0.5333(5) 0.4728(5) 0.6632(5)
H12 H 0.484658 0.448658 0.631223
H13 H 0.539247 0.534273 0.644017
H14 H 0.539755 0.478656 0.716567
C12 C 0.6655(5) 0.4442(6) 0.7013(5)
H15 H 0.676379 0.453809 0.755621
H16 H 0.668448 0.504240 0.678024
H17 H 0.700627 0.400357 0.697189
C13 C 0.4869(3) 0.2550(3) 0.5143(3)
C14 C 0.4724(3) 0.2604(3) 0.4323(2)
C15 C 0.4024(2) 0.2763(3) 0.3764(3)
C16 C 0.2734(3) 0.3070(4) 0.2952(3)
H18 H 0.222818 0.319227 0.273848
C17 C 0.3106(3) 0.2988(3) 0.2522(3)
H19 H 0.289184 0.306102 0.197823
C18 C 0.3858(2) 0.2778(3) 0.2967(3)
C19 C 0.4414(2) 0.2581(3) 0.2729(2)
C20 C 0.5134(2) 0.2510(3) 0.3294(3)
C21 C 0.5730(2) 0.2416(3) 0.3082(2)
C22 C 0.6402(2) 0.2146(3) 0.3644(3)
H20 H 0.678191 0.200362 0.349899
C23 C 0.6531(3) 0.2078(3) 0.4411(3)
H21 H 0.699589 0.188959 0.478326
C24 C 0.5992(2) 0.2280(3) 0.4641(3)
C25 C 0.6167(3) 0.2234(4) 0.5478(3)
N1 N 0.5581(2) 0.2351(3) 0.5663(2)
O1 O 0.43934(19) 0.2664(3) 0.53629(19)
O2 O 0.67679(18) 0.2087(3) 0.59681(18)
S1 S 0.32599(7) 0.29340(10) 0.39317(7)
C26 C 0.5283(2) 0.2476(3) 0.4089(3)
C1A C 0.4273(2) 0.2272(3) -0.1484(3)
C2A C 0.4271(3) 0.1387(3) -0.1780(3)
C3A C 0.4151(3) 0.1326(4) -0.2544(3)
H1A H 0.413456 0.072788 -0.276633
C4A C 0.4053(3) 0.2123(4) -0.2990(3)
H2A H 0.399570 0.207226 -0.350623
C5A C 0.4040(3) 0.2985(4) -0.2681(3)
H3A H 0.395587 0.352732 -0.299475
C6A C 0.4148(3) 0.3085(4) -0.1917(3)
C7A C 0.4386(3) 0.0504(4) -0.1285(3)
H4A H 0.437447 0.069082 -0.078875
C8A C 0.3768(5) -0.0197(5) -0.1693(6)
H5A H 0.330552 0.008700 -0.176694
H6A H 0.385217 -0.076205 -0.137715
H7A H 0.375346 -0.036249 -0.219440
C9A C 0.5134(4) 0.0068(5) -0.1102(5)
H8A H 0.516355 -0.009524 -0.158345
H9A H 0.519879 -0.049707 -0.079055
H10A H 0.551612 0.052082 -0.081567
C10A C 0.4097(4) 0.4048(4) -0.1598(3)
H11A H 0.419628 0.396753 -0.104452
C11A C 0.4667(5) 0.4728(5) -0.1632(5)
H12A H 0.515342 0.448658 -0.131223
H13A H 0.460753 0.534273 -0.144017
H14A H 0.460245 0.478656 -0.216567
C12A C 0.3345(5) 0.4442(6) -0.2013(5)
H15A H 0.323621 0.453809 -0.255621
H16A H 0.331552 0.504240 -0.178024
H17A H 0.299373 0.400357 -0.197189
C13A C 0.5131(3) 0.2550(3) -0.0143(3)
C14A C 0.5276(3) 0.2604(3) 0.0677(2)
C15A C 0.5976(2) 0.2763(3) 0.1236(3)
C16A C 0.7266(3) 0.3070(4) 0.2048(3)
H18A H 0.777182 0.319227 0.226152
C17A C 0.6894(3) 0.2988(3) 0.2478(3)
H19A H 0.710816 0.306102 0.302177
C18A C 0.6142(2) 0.2778(3) 0.2033(3)
C19A C 0.5586(2) 0.2581(3) 0.2271(2)
C20A C 0.4866(2) 0.2510(3) 0.1706(3)
C21A C 0.4270(2) 0.2416(3) 0.1918(2)
C22A C 0.3598(2) 0.2146(3) 0.1356(3)
H20A H 0.321809 0.200362 0.150101
C23A C 0.3469(3) 0.2078(3) 0.0589(3)
H21A H 0.300411 0.188959 0.021674
C24A C 0.4008(2) 0.2280(3) 0.0359(3)
C25A C 0.3833(3) 0.2234(4) -0.0478(3)
N1A N 0.4419(2) 0.2351(3) -0.0663(2)
O1A O 0.56066(19) 0.2664(3) -0.03629(19)
O2A O 0.32321(18) 0.2087(3) -0.09681(18)
S1A S 0.67401(7) 0.29340(10) 0.10683(7)
C26A C 0.4717(2) 0.2476(3) 0.0911(3)
C27 C 0.7032(5) 0.5411(6) 0.4804(4)
H22 H 0.662023 0.578103 0.481635
Cl1 Cl 0.6697(2) 0.4589(2) 0.4080(2)
Cl2 Cl 0.7603(3) 0.6132(3) 0.4659(3)
Cl3 Cl 0.7605(4) 0.5001(4) 0.5763(2)
H23? H 0.664739 0.590530 0.462478
Cl4? Cl 0.6942(8) 0.4598(6) 0.5440(8)
Cl5? Cl 0.7914(6) 0.5841(11) 0.5381(10)
Cl6? Cl 0.7347(11) 0.5054(12) 0.4074(8)
loop_
_geom_bond_atom_site_label_1
_geom_bond_atom_site_label_2
_geom_bond_site_symmetry_1
_geom_bond_site_symmetry_2
C1 C2 1_555 1_555
C2 C3 1_555 1_555
C3 H1 1_555 1_555
C4 C3 1_555 1_555
H2 C4 1_555 1_555
C5 C4 1_555 1_555
H3 C5 1_555 1_555
C6 C1 1_555 1_555
C7 C2 1_555 1_555
H4 C7 1_555 1_555
C8 C7 1_555 1_555
H5 C8 1_555 1_555
H6 C8 1_555 1_555
H7 C8 1_555 1_555
C9 C7 1_555 1_555
H8 C9 1_555 1_555
H9 C9 1_555 1_555
H10 C9 1_555 1_555
C10 C6 1_555 1_555
H11 C10 1_555 1_555
C11 C10 1_555 1_555
H12 C11 1_555 1_555
H13 C11 1_555 1_555
H14 C11 1_555 1_555
C12 C10 1_555 1_555
H15 C12 1_555 1_555
H16 C12 1_555 1_555
H17 C12 1_555 1_555
C13 C14 1_555 1_555
C14 C15 1_555 1_555
C15 C18 1_555 1_555
C16 H18 1_555 1_555
C17 C16 1_555 1_555
H19 C17 1_555 1_555
C18 C17 1_555 1_555
C19 C18 1_555 1_555
C20 C19 1_555 1_555
C21 C20 1_555 1_555
C22 C21 1_555 1_555
H20 C22 1_555 1_555
C23 C22 1_555 1_555
H21 C23 1_555 1_555
C24 C23 1_555 1_555
C25 C24 1_555 1_555
N1 C1 1_555 1_555
O1 C13 1_555 1_555
O2 C25 1_555 1_555
S1 C15 1_555 1_555
C26 C14 1_555 1_555
C27 H22 1_555 1_555
Cl1 C27 1_555 1_555
Cl2 C27 1_555 1_555
Cl3 C27 1_555 1_555
C1A C2A 1_555 1_555
C2A C3A 1_555 1_555
C3A H1A 1_555 1_555
C4A C3A 1_555 1_555
H2A C4A 1_555 1_555
C5A C4A 1_555 1_555
H3A C5A 1_555 1_555
C6A C1A 1_555 1_555
C7A C2A 1_555 1_555
H4A C7A 1_555 1_555
C8A C7A 1_555 1_555
H5A C8A 1_555 1_555
H6A C8A 1_555 1_555
H7A C8A 1_555 1_555
C9A C7A 1_555 1_555
H8A C9A 1_555 1_555
H9A C9A 1_555 1_555
H10A C9A 1_555 1_555
C10A C6A 1_555 1_555
H11A C10A 1_555 1_555
C11A C10A 1_555 1_555
H12A C11A 1_555 1_555
H13A C11A 1_555 1_555
H14A C11A 1_555 1_555
C12A C10A 1_555 1_555
H15A C12A 1_555 1_555
H16A C12A 1_555 1_555
H17A C12A 1_555 1_555
C13A C14A 1_555 1_555
C14A C15A 1_555 1_555
C15A C18A 1_555 1_555
C16A H18A 1_555 1_555
C17A C16A 1_555 1_555
H19A C17A 1_555 1_555
C18A C17A 1_555 1_555
C19A C21 1_555 1_555
C20A C19A 1_555 1_555
C21A C19 1_555 1_555
C22A C21A 1_555 1_555
H20A C22A 1_555 1_555
C23A C22A 1_555 1_555
H21A C23A 1_555 1_555
C24A C23A 1_555 1_555
C25A C24A 1_555 1_555
N1A C1A 1_555 1_555
O1A C13A 1_555 1_555
O2A C25A 1_555 1_555
S1A C15A 1_555 1_555
C26A C14A 1_555 1_555
C5 C6 1_555 1_555
C13 N1 1_555 1_555
C16 S1 1_555 1_555
C20 C26 1_555 1_555
C24 C26 1_555 1_555
C25 N1 1_555 1_555
C5A C6A 1_555 1_555
C13A N1A 1_555 1_555
C16A S1A 1_555 1_555
C18A C19A 1_555 1_555
C20A C21A 1_555 1_555
C20A C26A 1_555 1_555
C24A C26A 1_555 1_555
C25A N1A 1_555 1_555

#END
