
#######################################################################
#
#                 Cambridge Crystallographic Data Centre
#                                CCDC 
#
#######################################################################
#
# If this CIF has been generated from an entry in the Cambridge 
# Structural Database, then it will include bibliographic, chemical, 
# crystal, experimental, refinement or atomic coordinate data resulting 
# from the CCDC's data processing and validation procedures.
#
#######################################################################

data_AGOTEY
_chemical_formula_moiety         'C27 H37 Br1 N3 1+,F6 P1 1-'
_chemical_name_systematic        
'1,3-bis(2,6-di-isopropylphenyl)-5-bromomethyl-1,2,3-triazolium hexafluorophosphate'
_symmetry_cell_setting           monoclinic
_symmetry_space_group_name_H-M   'C 2/c'
_symmetry_Int_Tables_number      15
_space_group_name_Hall           '-C 2yn'
loop_
_symmetry_equiv_pos_site_id
_symmetry_equiv_pos_as_xyz
1 x,y,z
2 -x,y,1/2-z
3 1/2+x,1/2+y,z
4 1/2-x,1/2+y,1/2-z
5 -x,-y,-z
6 x,-y,1/2+z
7 1/2-x,1/2-y,-z
8 1/2+x,1/2-y,1/2+z
_cell_length_a                   28.344(3)
_cell_length_b                   10.3271(8)
_cell_length_c                   21.227(2)
_cell_angle_alpha                90
_cell_angle_beta                 106.160(3)
_cell_angle_gamma                90
_cell_volume                     5967.88
_exptl_crystal_colour            colorless
_exptl_crystal_description       block
_cell_formula_units_Z            8
loop_
_atom_site_label
_atom_site_type_symbol
_atom_site_fract_x
_atom_site_fract_y
_atom_site_fract_z
Br1 Br 0.597635(19) 0.32432(5) 0.49112(3)
N1 N 0.65517(10) 0.5542(3) 0.41411(13)
C1 C 0.57811(14) 0.5896(3) 0.36801(18)
H1 H 0.54373(14) 0.5804(3) 0.34897(18)
N2 N 0.65188(10) 0.6809(3) 0.40253(13)
C2 C 0.61072(13) 0.4941(3) 0.39398(17)
C3 C 0.60305(16) 0.3545(4) 0.4029(2)
H2 H 0.63100(16) 0.3044(4) 0.3961(2)
H3 H 0.57269(16) 0.3252(4) 0.3703(2)
N3 N 0.60438(10) 0.6996(3) 0.37474(14)
C4 C 0.70295(12) 0.4994(3) 0.44656(17)
C5 C 0.72855(14) 0.4365(3) 0.40784(18)
C6 C 0.77467(15) 0.3902(4) 0.4404(2)
H4 H 0.79321(15) 0.3447(4) 0.4165(2)
C7 C 0.72071(13) 0.5176(3) 0.51395(17)
C8 C 0.76794(14) 0.4702(4) 0.54356(19)
H5 H 0.78194(14) 0.4806(4) 0.58944(19)
C9 C 0.79428(15) 0.4086(4) 0.5069(2)
H6 H 0.82650(15) 0.3784(4) 0.5277(2)
C10 C 0.69191(14) 0.5883(4) 0.55451(18)
H7 H 0.65656(14) 0.5892(4) 0.52857(18)
C11 C 0.69541(17) 0.5203(5) 0.6191(2)
H8 H 0.6851(11) 0.4299(9) 0.6107(2)
H9 H 0.7294(3) 0.523(3) 0.6468(6)
H10 H 0.6740(9) 0.5639(19) 0.6416(7)
C12 C 0.70920(17) 0.7290(4) 0.5656(2)
H11 H 0.7045(10) 0.7721(9) 0.5232(2)
H12 H 0.6901(8) 0.7741(9) 0.5909(13)
H13 H 0.7441(3) 0.7310(4) 0.5899(13)
C13 C 0.70813(16) 0.4249(4) 0.33380(19)
H14 H 0.67207(16) 0.4430(4) 0.32241(19)
C14 C 0.7316(2) 0.5283(5) 0.3009(2)
H15 H 0.7168(9) 0.525(2) 0.2533(3)
H16 H 0.7261(11) 0.6139(5) 0.3174(12)
H17 H 0.7670(3) 0.5122(19) 0.3107(13)
C15 C 0.7149(2) 0.2908(5) 0.3077(3)
H18 H 0.7004(11) 0.2889(11) 0.2601(3)
H19 H 0.7500(2) 0.2708(14) 0.3180(15)
H20 H 0.6986(11) 0.2263(6) 0.3284(13)
C16 C 0.58588(13) 0.8303(3) 0.36040(18)
C17 C 0.56822(13) 0.8909(4) 0.40841(19)
C18 C 0.54732(15) 1.0129(4) 0.3915(2)
H21 H 0.53378(15) 1.0579(4) 0.4214(2)
C19 C 0.54595(16) 1.0691(4) 0.3324(2)
H22 H 0.53110(16) 1.1517(4) 0.3221(2)
C20 C 0.56566(15) 1.0082(4) 0.2879(2)
H23 H 0.56548(15) 1.0508(4) 0.2482(2)
C21 C 0.58587(14) 0.8846(4) 0.30050(19)
C22 C 0.60745(16) 0.8167(4) 0.2518(2)
H24 H 0.61105(16) 0.7229(4) 0.2640(2)
C23 C 0.6582(2) 0.8693(7) 0.2563(3)
H25 H 0.6724(7) 0.821(3) 0.2261(17)
H26 H 0.6558(3) 0.9613(13) 0.245(2)
H27 H 0.6793(5) 0.859(4) 0.3012(6)
C24 C 0.5740(2) 0.8260(6) 0.1816(2)
H28 H 0.5716(12) 0.9165(8) 0.1672(8)
H29 H 0.5878(8) 0.774(3) 0.1524(4)
H30 H 0.5412(5) 0.794(4) 0.1801(5)
C25 C 0.57033(15) 0.8283(4) 0.47405(19)
H31 H 0.59451(15) 0.7556(4) 0.48062(19)
C26 C 0.52067(17) 0.7697(5) 0.4741(2)
H32 H 0.4956(3) 0.8378(8) 0.4652(16)
H33 H 0.5115(6) 0.703(2) 0.4401(11)
H34 H 0.5232(4) 0.731(3) 0.5171(5)
C27 C 0.58860(19) 0.9221(5) 0.5315(2)
H35 H 0.6205(6) 0.957(2) 0.5308(9)
H36 H 0.5650(6) 0.9929(17) 0.5276(8)
H37 H 0.5920(11) 0.8760(8) 0.5728(2)
F1 F 0.56077(19) 0.4775(5) 0.11649(18)
P1 P 0.56473(5) 0.40958(15) 0.18328(6)
F2 F 0.53361(13) 0.5262(4) 0.2033(2)
F3 F 0.51716(16) 0.3313(5) 0.1515(2)
F4 F 0.56879(18) 0.3462(4) 0.25142(17)
F5 F 0.61202(10) 0.4934(3) 0.21486(16)
F6 F 0.59645(17) 0.3036(4) 0.1650(3)
loop_
_geom_bond_atom_site_label_1
_geom_bond_atom_site_label_2
_geom_bond_site_symmetry_1
_geom_bond_site_symmetry_2
Br1 C3 1_555 1_555
N1 N2 1_555 1_555
C1 H1 1_555 1_555
N2 N3 1_555 1_555
C2 N1 1_555 1_555
C3 C2 1_555 1_555
H2 C3 1_555 1_555
H3 C3 1_555 1_555
N3 C1 1_555 1_555
C4 N1 1_555 1_555
C5 C4 1_555 1_555
C6 C5 1_555 1_555
H4 C6 1_555 1_555
C7 C4 1_555 1_555
C8 C7 1_555 1_555
H5 C8 1_555 1_555
C9 C6 1_555 1_555
H6 C9 1_555 1_555
C10 C7 1_555 1_555
H7 C10 1_555 1_555
C11 C10 1_555 1_555
H8 C11 1_555 1_555
H9 C11 1_555 1_555
H10 C11 1_555 1_555
C12 C10 1_555 1_555
H11 C12 1_555 1_555
H12 C12 1_555 1_555
H13 C12 1_555 1_555
C13 C5 1_555 1_555
H14 C13 1_555 1_555
C14 C13 1_555 1_555
H15 C14 1_555 1_555
H16 C14 1_555 1_555
H17 C14 1_555 1_555
C15 C13 1_555 1_555
H18 C15 1_555 1_555
H19 C15 1_555 1_555
H20 C15 1_555 1_555
C16 N3 1_555 1_555
C17 C16 1_555 1_555
C18 C17 1_555 1_555
H21 C18 1_555 1_555
C19 C18 1_555 1_555
H22 C19 1_555 1_555
C20 C19 1_555 1_555
H23 C20 1_555 1_555
C21 C16 1_555 1_555
C22 C21 1_555 1_555
H24 C22 1_555 1_555
C23 C22 1_555 1_555
H25 C23 1_555 1_555
H26 C23 1_555 1_555
H27 C23 1_555 1_555
C24 C22 1_555 1_555
H28 C24 1_555 1_555
H29 C24 1_555 1_555
H30 C24 1_555 1_555
C25 C17 1_555 1_555
H31 C25 1_555 1_555
C26 C25 1_555 1_555
H32 C26 1_555 1_555
H33 C26 1_555 1_555
H34 C26 1_555 1_555
C27 C25 1_555 1_555
H35 C27 1_555 1_555
H36 C27 1_555 1_555
H37 C27 1_555 1_555
F1 P1 1_555 1_555
P1 F2 1_555 1_555
F3 P1 1_555 1_555
F4 P1 1_555 1_555
F5 P1 1_555 1_555
F6 P1 1_555 1_555
C1 C2 1_555 1_555
C8 C9 1_555 1_555
C20 C21 1_555 1_555

#END
