
#######################################################################
#
#                 Cambridge Crystallographic Data Centre
#                                CCDC 
#
#######################################################################
#
# If this CIF has been generated from an entry in the Cambridge 
# Structural Database, then it will include bibliographic, chemical, 
# crystal, experimental, refinement or atomic coordinate data resulting 
# from the CCDC's data processing and validation procedures.
#
#######################################################################

data_AGULIZ
_chemical_name_common            'adefovir pyridine-2,6-dicarboxylic acid'
_chemical_formula_moiety         'C8 H12 N5 O4 P1,C7 H5 N1 O4'
_chemical_name_systematic        
'hydrogen {[2-(6-amino-9H-purin-1-ium-9-yl)ethoxy]methyl}phosphonate pyridine-2,6-dicarboxylic acid'
_symmetry_cell_setting           triclinic
_symmetry_space_group_name_H-M   'P -1'
_symmetry_Int_Tables_number      2
_space_group_name_Hall           '-P 1'
loop_
_symmetry_equiv_pos_site_id
_symmetry_equiv_pos_as_xyz
1 x,y,z
2 -x,-y,-z
_cell_length_a                   7.0202(10)
_cell_length_b                   11.8680(18)
_cell_length_c                   11.9713(18)
_cell_angle_alpha                76.351(2)
_cell_angle_beta                 76.523(2)
_cell_angle_gamma                77.040(2)
_cell_volume                     927.297
_exptl_crystal_colour            colorless
_exptl_crystal_description       block
_cell_formula_units_Z            2
loop_
_atom_site_label
_atom_site_type_symbol
_atom_site_fract_x
_atom_site_fract_y
_atom_site_fract_z
C1 C 0.4333(4) 0.6191(2) 1.2402(2)
H1 H 0.4643 0.5624 1.1937
C2 C 0.3481(3) 0.7909(2) 1.2897(2)
C3 C 0.3809(3) 0.7011(2) 1.3850(2)
C4 C 0.3529(3) 0.7322(2) 1.4946(2)
C5 C 0.2667(4) 0.9318(2) 1.3919(2)
H2 H 0.2266 1.0105 1.3986
C6 C 0.3658(4) 0.7942(3) 1.0767(2)
H3 H 0.2526 0.8584 1.0779
H4 H 0.3413 0.7382 1.0365
C7 C 0.5499(4) 0.8415(3) 1.0101(2)
H5 H 0.5298 0.8832 0.9325
H6 H 0.5769 0.8965 1.0503
C8 C 0.8804(4) 0.7875(2) 0.9233(2)
H7 H 0.9283 0.8402 0.9569
H8 H 0.8431 0.8308 0.8498
N1 N 0.4343(3) 0.59298(19) 1.3529(2)
N2 N 0.3832(3) 0.73590(19) 1.19743(18)
N3 N 0.2926(3) 0.90715(19) 1.2883(2)
N4 N 0.2943(3) 0.85051(18) 1.49110(19)
N5 N 0.3789(4) 0.6583(2) 1.5925(2)
O1 O 0.7126(3) 0.74785(17) 1.00098(17)
O2 O 1.2454(3) 0.71439(16) 0.81592(16)
O3 O 0.9972(3) 0.57607(16) 0.85362(15)
O4 O 1.1372(3) 0.60601(18) 1.01750(16)
P1 P 1.07422(10) 0.66380(5) 0.89744(5)
H9 H 0.436(6) 0.589(4) 1.588(4)
H10 H 0.351(7) 0.679(4) 1.654(5)
H11 H 0.285(5) 0.878(3) 1.559(4)
H12 H 1.094(8) 0.539(5) 1.057(5)
C9 C 1.1978(4) 1.0083(2) 0.7673(2)
C10 C 1.1747(3) 1.1313(2) 0.69699(18)
C11 C 1.1447(4) 1.2234(2) 0.7557(2)
H13 H 1.1382 1.2080 0.8363
C12 C 1.1248(4) 1.3373(2) 0.6941(2)
H14 H 1.1073 1.4003 0.7314
C13 C 1.1315(4) 1.3556(2) 0.5751(2)
H15 H 1.1203 1.4314 0.5302
C14 C 1.1552(3) 1.2589(2) 0.52373(19)
C15 C 1.1448(4) 1.2757(2) 0.3966(2)
N6 N 1.1794(3) 1.14690(17) 0.58168(16)
O5 O 1.1782(4) 0.99096(19) 0.87265(17)
O6 O 1.2384(4) 0.92420(17) 0.70797(16)
O7 O 1.1191(4) 1.38501(18) 0.34389(19)
H16 H 1.239(9) 0.855(3) 0.754(5)
H17 H 1.095(5) 1.386(4) 0.278(2)
O8 O 1.1149(8) 1.1968(6) 0.3558(5)
O9? O 1.2187(18) 1.1976(9) 0.3419(8)
loop_
_geom_bond_atom_site_label_1
_geom_bond_atom_site_label_2
_geom_bond_site_symmetry_1
_geom_bond_site_symmetry_2
C1 H1 1_555 1_555
C2 C3 1_555 1_555
C3 C4 1_555 1_555
C4 N4 1_555 1_555
C5 H2 1_555 1_555
C6 H3 1_555 1_555
H4 C6 1_555 1_555
C7 C6 1_555 1_555
H5 C7 1_555 1_555
H6 C7 1_555 1_555
C8 H7 1_555 1_555
H8 C8 1_555 1_555
N1 C1 1_555 1_555
N2 C1 1_555 1_555
N3 C2 1_555 1_555
N4 C5 1_555 1_555
N5 C4 1_555 1_555
O1 C7 1_555 1_555
O2 P1 1_555 1_555
O3 P1 1_555 1_555
O4 P1 1_555 1_555
P1 C8 1_555 1_555
H9 N5 1_555 1_555
H10 N5 1_555 1_555
H11 N4 1_555 1_555
H12 O4 1_555 1_555
C9 C10 1_555 1_555
C10 C11 1_555 1_555
C11 H13 1_555 1_555
C12 C11 1_555 1_555
H14 C12 1_555 1_555
C13 C12 1_555 1_555
H15 C13 1_555 1_555
C14 C13 1_555 1_555
C15 C14 1_555 1_555
N6 C10 1_555 1_555
O5 C9 1_555 1_555
O6 C9 1_555 1_555
O7 C15 1_555 1_555
H16 O6 1_555 1_555
H17 O7 1_555 1_555
O8 C15 1_555 1_555
C2 N2 1_555 1_555
C3 N1 1_555 1_555
C5 N3 1_555 1_555
C6 N2 1_555 1_555
C8 O1 1_555 1_555
C14 N6 1_555 1_555

#END
