
#######################################################################
#
#                 Cambridge Crystallographic Data Centre
#                                CCDC 
#
#######################################################################
#
# If this CIF has been generated from an entry in the Cambridge 
# Structural Database, then it will include bibliographic, chemical, 
# crystal, experimental, refinement or atomic coordinate data resulting 
# from the CCDC's data processing and validation procedures.
#
#######################################################################

data_AGUTUT
_chemical_formula_moiety         'C8 H12 N5 O4 P1,C7 H6 O4,H2 O1'
_chemical_name_systematic        
'Adefovir 3,5-dihydroxybenzoic acid monohydrate'
_symmetry_cell_setting           monoclinic
_symmetry_space_group_name_H-M   'P 21/n'
_symmetry_Int_Tables_number      14
_space_group_name_Hall           '-P 2yn'
loop_
_symmetry_equiv_pos_site_id
_symmetry_equiv_pos_as_xyz
1 x,y,z
2 1/2-x,1/2+y,1/2-z
3 -x,-y,-z
4 1/2+x,1/2-y,1/2+z
_cell_length_a                   7.1660(5)
_cell_length_b                   12.0808(9)
_cell_length_c                   21.9062(16)
_cell_angle_alpha                90
_cell_angle_beta                 90.497(2)
_cell_angle_gamma                90
_cell_volume                     1896.37
_cell_formula_units_Z            4
loop_
_atom_site_label
_atom_site_type_symbol
_atom_site_fract_x
_atom_site_fract_y
_atom_site_fract_z
C1 C 0.8124(3) 0.3779(2) 0.37537(11)
C2 C 0.8646(3) 0.40641(19) 0.31638(12)
H1 H 0.8576 0.4797 0.3036
C3 C 0.9269(3) 0.32533(19) 0.27678(11)
C4 C 0.9332(3) 0.21509(18) 0.29533(11)
H2 H 0.9696 0.1601 0.2682
C5 C 0.8848(3) 0.18802(18) 0.35471(11)
C6 C 0.8249(3) 0.26863(19) 0.39535(11)
H3 H 0.7938 0.2500 0.4352
C7 C 0.8977(3) 0.0709(2) 0.37696(11)
H4 H 0.938(6) -0.062(4) 0.3480(19)
O1 O 0.9811(3) 0.35729(15) 0.22013(8)
H5 H 1.0377 0.3087 0.2047
O2 O 0.7483(3) 0.45414(16) 0.41548(9)
H6 H 0.7345 0.5111 0.3973
O3 O 0.8803(3) 0.04368(16) 0.42912(9)
O4 O 0.9309(3) -0.00084(16) 0.33258(9)
C8 C -0.1256(3) 0.12167(19) 0.81462(11)
C9 C -0.1785(3) 0.13580(18) 0.87590(10)
C10 C -0.1728(3) 0.24135(18) 0.90000(10)
C11 C -0.0817(4) 0.3193(2) 0.81441(12)
H7 H -0.0494 0.3810 0.7914
C12 C -0.2619(4) 0.1207(2) 0.96804(11)
H8 H -0.3015 0.0914 1.0050
C13 C -0.2427(3) 0.3194(2) 1.00455(12)
H9 H -0.3047 0.2906 1.0404
H10 H -0.3204 0.3777 0.9876
C14 C -0.0580(4) 0.3677(2) 1.02339(12)
H11 H 0.0097 0.3910 0.9874
H12 H -0.0781 0.4323 1.0488
C15 C 0.2182(3) 0.33515(19) 1.07868(12)
H13 H 0.1925 0.4014 1.1021
H14 H 0.2988 0.3549 1.0450
N1 N -0.1194(3) 0.02742(17) 0.78571(9)
H15 H -0.0849 0.0254 0.7482
H16 H -0.1498 -0.0327 0.8041
N2 N -0.0773(3) 0.21873(17) 0.78576(9)
N3 N -0.1269(3) 0.33640(16) 0.87101(10)
N4 N -0.2249(3) 0.23062(16) 0.95946(9)
N5 N -0.2360(3) 0.06052(16) 0.91893(9)
O5 O 0.0486(2) 0.28857(13) 1.05608(9)
O6 O 0.4974(2) 0.28805(14) 1.15581(10)
H17 H 0.4775 0.2691 1.1800
O7 O 0.3993(2) 0.14023(13) 1.08230(8)
H18 H 0.5094 0.1268 1.0895
O8 O 0.1887(2) 0.18803(14) 1.17025(8)
P1 P 0.33013(8) 0.23286(5) 1.12639(3)
O9 O 0.8053(3) 0.14465(16) 0.14055(11)
H19 H 0.7120 0.1893 0.1436
H20 H 0.9238 0.1737 0.1449
loop_
_geom_bond_atom_site_label_1
_geom_bond_atom_site_label_2
_geom_bond_site_symmetry_1
_geom_bond_site_symmetry_2
C1 C2 1_555 1_555
C2 H1 1_555 1_555
C3 C2 1_555 1_555
C4 C3 1_555 1_555
H2 C4 1_555 1_555
C5 C4 1_555 1_555
C6 C1 1_555 1_555
H3 C6 1_555 1_555
C7 C5 1_555 1_555
H4 O4 1_555 1_555
O1 C3 1_555 1_555
H5 O1 1_555 1_555
O2 C1 1_555 1_555
H6 O2 1_555 1_555
O3 C7 1_555 1_555
O4 C7 1_555 1_555
C8 C9 1_555 1_555
C9 C10 1_555 1_555
C10 N3 1_555 1_555
C11 H7 1_555 1_555
C12 H8 1_555 1_555
C13 H9 1_555 1_555
H10 C13 1_555 1_555
C14 C13 1_555 1_555
H11 C14 1_555 1_555
H12 C14 1_555 1_555
C15 H13 1_555 1_555
H14 C15 1_555 1_555
N1 C8 1_555 1_555
H15 N1 1_555 1_555
H16 N1 1_555 1_555
N2 C8 1_555 1_555
N3 C11 1_555 1_555
N4 C10 1_555 1_555
N5 C9 1_555 1_555
O5 C14 1_555 1_555
O6 H17 1_555 1_555
O7 H18 1_555 1_555
O8 P1 1_555 1_555
P1 C15 1_555 1_555
O9 H19 1_555 1_555
H20 O9 1_555 1_555
C5 C6 1_555 1_555
C11 N2 1_555 1_555
C12 N4 1_555 1_555
C12 N5 1_555 1_555
C13 N4 1_555 1_555
C15 O5 1_555 1_555
O6 P1 1_555 1_555
O7 P1 1_555 1_555

#END
