
#######################################################################
#
#                 Cambridge Crystallographic Data Centre
#                                CCDC 
#
#######################################################################
#
# If this CIF has been generated from an entry in the Cambridge 
# Structural Database, then it will include bibliographic, chemical, 
# crystal, experimental, refinement or atomic coordinate data resulting 
# from the CCDC's data processing and validation procedures.
#
#######################################################################

data_AHAQIL
_chemical_formula_moiety         'C50 H34 B2 N4 O2'
_chemical_name_systematic        
12,12''-Diphenyl-6,10''-dihydro-12H,12''H-dispiro[3,1-benzimidazo[1,2-c][1,3,2]benzoxazaborinine-6,5'-boranthrene-10',6''-[3,1]benzimidazo[1,2-c][1,3,2]benzoxazaborinine]
_symmetry_cell_setting           monoclinic
_symmetry_space_group_name_H-M   'C 2/c'
_symmetry_Int_Tables_number      15
_space_group_name_Hall           '-C 2yn'
loop_
_symmetry_equiv_pos_site_id
_symmetry_equiv_pos_as_xyz
1 x,y,z
2 -x,y,1/2-z
3 1/2+x,1/2+y,z
4 1/2-x,1/2+y,1/2-z
5 -x,-y,-z
6 x,-y,1/2+z
7 1/2-x,1/2-y,-z
8 1/2+x,1/2-y,1/2+z
_cell_length_a                   23.440(5)
_cell_length_b                   9.4816(19)
_cell_length_c                   18.355(4)
_cell_angle_alpha                90
_cell_angle_beta                 110.48(3)
_cell_angle_gamma                90
_cell_volume                     3821.54
_exptl_crystal_colour            colorless
_exptl_crystal_description       block
_cell_formula_units_Z            4
loop_
_atom_site_label
_atom_site_type_symbol
_atom_site_fract_x
_atom_site_fract_y
_atom_site_fract_z
O1 O 0.09641(6) 1.11227(14) 0.11781(7)
N1 N 0.07173(6) 0.86880(16) 0.14290(8)
C1 C 0.15396(7) 0.99410(19) 0.23817(9)
C2 C 0.11485(8) 0.87234(19) 0.21229(10)
C3 C 0.14052(8) 1.11148(18) 0.18566(9)
C4 C 0.06172(8) 0.9427(2) 0.00219(10)
N2 N 0.11737(8) 0.74745(17) 0.25045(9)
C5 C 0.01570(8) 0.95506(19) -0.07049(9)
C6 C 0.17649(9) 1.2323(2) 0.20837(11)
C7 C 0.20359(9) 1.0029(2) 0.30666(11)
C8 C 0.14853(9) 0.7098(2) 0.33053(12)
C9 C 0.02891(10) 0.9104(2) -0.13614(11)
C10 C 0.08417(11) 0.8535(3) -0.13060(14)
C11 C 0.22471(9) 1.2370(2) 0.27818(12)
C12 C 0.04487(9) 0.7349(2) 0.13245(11)
B1 B 0.05242(9) 0.9934(2) 0.08073(11)
C13 C 0.13075(10) 0.7698(3) 0.38738(12)
C14 C 0.07288(10) 0.6586(2) 0.19846(12)
C15 C 0.23920(10) 1.1215(3) 0.32679(12)
C16 C 0.12898(12) 0.8399(3) -0.05856(16)
C17 C -0.00148(11) 0.6765(3) 0.06979(15)
C18 C 0.19143(12) 0.6041(3) 0.34735(17)
C19 C -0.01740(13) 0.5391(3) 0.07856(18)
C20 C 0.11785(10) 0.8850(3) 0.00594(13)
C21 C 0.01258(15) 0.4624(3) 0.1466(2)
C22 C 0.05837(13) 0.5201(3) 0.20866(18)
C23 C 0.15665(13) 0.7225(4) 0.46334(14)
C24 C 0.19783(15) 0.6157(4) 0.48010(18)
C25 C 0.21577(15) 0.5570(4) 0.4232(2)
H1 H 0.1657(8) 1.314(2) 0.1752(11)
H2 H -0.0008(10) 0.921(2) -0.1823(13)
H3 H -0.0493(9) 0.500(2) 0.0356(12)
H4 H 0.2134(9) 0.929(2) 0.3428(12)
H5 H 0.2745(11) 1.120(3) 0.3846(14)
H6 H 0.2521(9) 1.326(2) 0.2939(11)
H7 H 0.1508(10) 0.879(2) 0.0628(14)
H8 H 0.1699(13) 0.798(3) -0.0469(15)
H9 H -0.0026(10) 0.373(3) 0.1477(13)
H10 H -0.0209(11) 0.739(3) 0.0345(14)
H11 H 0.0919(14) 0.826(3) -0.1697(17)
H12 H 0.0976(10) 0.841(3) 0.3720(13)
H13 H 0.2040(11) 0.562(3) 0.3006(14)
H14 H 0.0822(11) 0.475(3) 0.2608(15)
H15 H 0.2429(16) 0.481(4) 0.4251(18)
H16 H 0.2181(17) 0.578(4) 0.535(2)
H17 H 0.1390(13) 0.767(3) 0.4963(16)
O1D O -0.09641(6) 0.88773(14) -0.11781(7)
N1D N -0.07173(6) 1.13120(16) -0.14290(8)
C1D C -0.15396(7) 1.00590(19) -0.23817(9)
C2D C -0.11485(8) 1.12766(19) -0.21229(10)
C3D C -0.14052(8) 0.88852(18) -0.18566(9)
C4D C -0.06172(8) 1.0573(2) -0.00219(10)
N2D N -0.11737(8) 1.25255(17) -0.25045(9)
C5D C -0.01570(8) 1.04494(19) 0.07049(9)
C6D C -0.17649(9) 0.7677(2) -0.20837(11)
C7D C -0.20359(9) 0.9971(2) -0.30666(11)
C8D C -0.14853(9) 1.2902(2) -0.33053(12)
C9D C -0.02891(10) 1.0896(2) 0.13614(11)
C10D C -0.08417(11) 1.1465(3) 0.13060(14)
C11D C -0.22471(9) 0.7630(2) -0.27818(12)
C12D C -0.04487(9) 1.2651(2) -0.13245(11)
B1D B -0.05242(9) 1.0066(2) -0.08073(11)
C13D C -0.13075(10) 1.2302(3) -0.38738(12)
C14D C -0.07288(10) 1.3414(2) -0.19846(12)
C15D C -0.23920(10) 0.8785(3) -0.32679(12)
C16D C -0.12898(12) 1.1601(3) 0.05856(16)
C17D C 0.00148(11) 1.3235(3) -0.06979(15)
C18D C -0.19143(12) 1.3959(3) -0.34735(17)
C19D C 0.01740(13) 1.4609(3) -0.07856(18)
C20D C -0.11785(10) 1.1150(3) -0.00594(13)
C21D C -0.01258(15) 1.5376(3) -0.1466(2)
C22D C -0.05837(13) 1.4799(3) -0.20866(18)
C23D C -0.15665(13) 1.2775(4) -0.46334(14)
C24D C -0.19783(15) 1.3843(4) -0.48010(18)
C25D C -0.21577(15) 1.4430(4) -0.4232(2)
H1D H -0.1657(8) 0.686(2) -0.1752(11)
H2D H 0.0008(10) 1.079(2) 0.1823(13)
H3D H 0.0493(9) 1.500(2) -0.0356(12)
H4D H -0.2134(9) 1.071(2) -0.3428(12)
H5D H -0.2745(11) 0.880(3) -0.3846(14)
H6D H -0.2521(9) 0.674(2) -0.2939(11)
H7D H -0.1508(10) 1.121(2) -0.0628(14)
H8D H -0.1699(13) 1.202(3) 0.0469(15)
H9D H 0.0026(10) 1.627(3) -0.1477(13)
H10D H 0.0209(11) 1.261(3) -0.0345(14)
H11D H -0.0919(14) 1.174(3) 0.1697(17)
H12D H -0.0976(10) 1.159(3) -0.3720(13)
H13D H -0.2040(11) 1.438(3) -0.3006(14)
H14D H -0.0822(11) 1.525(3) -0.2608(15)
H15D H -0.2429(16) 1.519(4) -0.4251(18)
H16D H -0.2181(17) 1.422(4) -0.535(2)
H17D H -0.1390(13) 1.233(3) -0.4963(16)
loop_
_geom_bond_atom_site_label_1
_geom_bond_atom_site_label_2
_geom_bond_site_symmetry_1
_geom_bond_site_symmetry_2
O1 C3 1_555 1_555
N1 C2 1_555 1_555
C1 C2 1_555 1_555
C2 N2 1_555 1_555
C3 C1 1_555 1_555
C4 C5 1_555 1_555
N2 C8 1_555 1_555
C5 C9 1_555 1_555
C6 C3 1_555 1_555
C7 C1 1_555 1_555
C8 C13 1_555 1_555
C9 C10 1_555 1_555
C10 C16 1_555 1_555
C11 C6 1_555 1_555
C12 N1 1_555 1_555
B1 O1 1_555 1_555
C13 C23 1_555 1_555
C14 N2 1_555 1_555
C15 C7 1_555 1_555
C16 C20 1_555 1_555
C17 C12 1_555 1_555
C18 C8 1_555 1_555
C19 C17 1_555 1_555
C20 C4 1_555 1_555
C21 C19 1_555 1_555
C22 C14 1_555 1_555
C23 C24 1_555 1_555
C24 C25 1_555 1_555
C25 C18 1_555 1_555
H1 C6 1_555 1_555
H2 C9 1_555 1_555
H3 C19 1_555 1_555
H4 C7 1_555 1_555
H5 C15 1_555 1_555
H6 C11 1_555 1_555
H7 C20 1_555 1_555
H8 C16 1_555 1_555
H9 C21 1_555 1_555
H10 C17 1_555 1_555
H11 C10 1_555 1_555
H12 C13 1_555 1_555
H13 C18 1_555 1_555
H14 C22 1_555 1_555
H15 C25 1_555 1_555
H16 C24 1_555 1_555
H17 C23 1_555 1_555
O1D C3D 1_555 1_555
N1D C2D 1_555 1_555
C1D C2D 1_555 1_555
C2D N2D 1_555 1_555
C3D C1D 1_555 1_555
C4D C5D 1_555 1_555
N2D C8D 1_555 1_555
C5D B1 1_555 1_555
C6D C3D 1_555 1_555
C7D C1D 1_555 1_555
C8D C13D 1_555 1_555
C9D C5D 1_555 1_555
C10D C9D 1_555 1_555
C11D C6D 1_555 1_555
C12D N1D 1_555 1_555
B1D C5 1_555 1_555
C13D C23D 1_555 1_555
C14D N2D 1_555 1_555
C15D C7D 1_555 1_555
C16D C10D 1_555 1_555
C17D C12D 1_555 1_555
C18D C8D 1_555 1_555
C19D C17D 1_555 1_555
C20D C4D 1_555 1_555
C21D C19D 1_555 1_555
C22D C14D 1_555 1_555
C23D C24D 1_555 1_555
C24D C25D 1_555 1_555
C25D C18D 1_555 1_555
H1D C6D 1_555 1_555
H2D C9D 1_555 1_555
H3D C19D 1_555 1_555
H4D C7D 1_555 1_555
H5D C15D 1_555 1_555
H6D C11D 1_555 1_555
H7D C20D 1_555 1_555
H8D C16D 1_555 1_555
H9D C21D 1_555 1_555
H10D C17D 1_555 1_555
H11D C10D 1_555 1_555
H12D C13D 1_555 1_555
H13D C18D 1_555 1_555
H14D C22D 1_555 1_555
H15D C25D 1_555 1_555
H16D C24D 1_555 1_555
H17D C23D 1_555 1_555
N1 B1 1_555 1_555
C4 B1 1_555 1_555
C11 C15 1_555 1_555
C12 C14 1_555 1_555
C21 C22 1_555 1_555
O1D B1D 1_555 1_555
N1D B1D 1_555 1_555
C4D B1D 1_555 1_555
C11D C15D 1_555 1_555
C12D C14D 1_555 1_555
C16D C20D 1_555 1_555
C21D C22D 1_555 1_555

#END
