
#######################################################################
#
#                 Cambridge Crystallographic Data Centre
#                                CCDC 
#
#######################################################################
#
# If this CIF has been generated from an entry in the Cambridge 
# Structural Database, then it will include bibliographic, chemical, 
# crystal, experimental, refinement or atomic coordinate data resulting 
# from the CCDC's data processing and validation procedures.
#
#######################################################################

data_AHASUY
_chemical_formula_moiety         'C36 H33 N1 O3'
_chemical_name_systematic        
4,5-bis(4-methoxyphenyl)-1,7-dimethyl-3,8-diphenyl-5,8-dihydro-4H-furo[3,4-c]azepine
_symmetry_cell_setting           orthorhombic
_symmetry_space_group_name_H-M   'P b c a'
_symmetry_Int_Tables_number      61
_space_group_name_Hall           '-P 2ac 2ab'
loop_
_symmetry_equiv_pos_site_id
_symmetry_equiv_pos_as_xyz
1 x,y,z
2 1/2-x,-y,1/2+z
3 -x,1/2+y,1/2-z
4 1/2+x,1/2-y,-z
5 -x,-y,-z
6 1/2+x,y,1/2-z
7 x,1/2-y,1/2+z
8 1/2-x,1/2+y,z
_cell_length_a                   13.5729(8)
_cell_length_b                   20.4169(12)
_cell_length_c                   20.4865(12)
_cell_angle_alpha                90
_cell_angle_beta                 90
_cell_angle_gamma                90
_cell_volume                     5677.15
_exptl_crystal_colour            yellow
_exptl_crystal_description       block
_cell_formula_units_Z            8
loop_
_atom_site_label
_atom_site_type_symbol
_atom_site_fract_x
_atom_site_fract_y
_atom_site_fract_z
N1 N 0.32856(10) 0.13666(6) 0.59717(6)
O1 O 0.68380(9) 0.11820(7) 0.46034(6)
O2 O 0.36336(11) 0.04072(8) 0.88953(7)
O3 O 0.09539(8) 0.29179(5) 0.65272(5)
C1 C 0.42023(12) 0.13492(8) 0.56518(8)
C2 C 0.43270(13) 0.09089(8) 0.51317(8)
H1 H 0.3794 0.0635 0.5007
C3 C 0.52062(13) 0.08665(9) 0.47992(9)
H2 H 0.5275 0.0559 0.4455
C4 C 0.59893(12) 0.12660(8) 0.49605(8)
C5 C 0.58782(13) 0.17136(8) 0.54590(8)
H3 H 0.6409 0.1996 0.5570
C6 C 0.49952(13) 0.17550(8) 0.57997(8)
H4 H 0.4931 0.2067 0.6141
C7 C 0.32082(13) 0.14558(8) 0.71775(8)
C8 C 0.41198(14) 0.12042(10) 0.73564(9)
H5 H 0.4671 0.1269 0.7078
C9 C 0.42364(15) 0.08628(11) 0.79302(10)
H6 H 0.4867 0.0697 0.8045
C10 C 0.34468(15) 0.07586(9) 0.83388(8)
C11 C 0.25397(15) 0.10100(9) 0.81749(9)
H7 H 0.1991 0.0946 0.8456
C12 C 0.24295(14) 0.13577(8) 0.75956(8)
H8 H 0.1802 0.1532 0.7486
C13 C 0.10948(12) 0.14223(7) 0.49834(8)
C14 C 0.19210(13) 0.16545(8) 0.46531(8)
H9 H 0.2503 0.1757 0.4890
C15 C 0.18999(14) 0.17364(9) 0.39831(9)
H10 H 0.2467 0.1895 0.3763
C16 C 0.10586(15) 0.15885(9) 0.36319(9)
H11 H 0.1046 0.1647 0.3172
C17 C 0.02411(14) 0.13572(9) 0.39525(9)
H12 H -0.0339 0.1255 0.3714
C18 C 0.02629(13) 0.12725(8) 0.46253(8)
H13 H -0.0304 0.1109 0.4843
C19 C 0.24553(13) 0.32763(8) 0.70331(7)
C20 C 0.21220(15) 0.39257(8) 0.70017(8)
H14 H 0.1533 0.4025 0.6771
C21 C 0.26408(17) 0.44218(9) 0.73019(9)
H15 H 0.2400 0.4858 0.7282
C22 C 0.35061(16) 0.42910(9) 0.76311(9)
H16 H 0.3867 0.4637 0.7829
C23 C 0.38436(14) 0.36540(9) 0.76704(8)
H17 H 0.4438 0.3561 0.7897
C24 C 0.33172(13) 0.31504(8) 0.73806(8)
H18 H 0.3547 0.2713 0.7419
C25 C 0.27329(12) 0.07775(8) 0.59659(8)
H19 H 0.3084 0.0380 0.6029
C26 C 0.17672(12) 0.07352(8) 0.58797(7)
C27 C 0.11014(12) 0.13108(8) 0.57235(8)
H20 H 0.0419 0.1167 0.5840
C28 C 0.12803(12) 0.19330(8) 0.61031(7)
C29 C 0.21368(12) 0.21594(8) 0.64461(7)
C30 C 0.31062(12) 0.18126(8) 0.65243(7)
H21 H 0.3632 0.2155 0.6511
C31 C 0.05906(12) 0.24058(8) 0.61703(8)
C32 C 0.19098(12) 0.27622(8) 0.66938(7)
C33 C 0.12679(13) 0.00792(8) 0.58797(9)
H22 H 0.1750 -0.0262 0.5984
H23 H 0.0986 -0.0005 0.5448
H24 H 0.0742 0.0077 0.6207
C34 C 0.76281(13) 0.16117(10) 0.47462(9)
H25 H 0.8191 0.1507 0.4465
H26 H 0.7819 0.1561 0.5205
H27 H 0.7421 0.2065 0.4668
C35 C 0.28221(17) 0.00862(10) 0.91922(9)
H28 H 0.3047 -0.0148 0.9582
H29 H 0.2534 -0.0226 0.8883
H30 H 0.2325 0.0411 0.9316
C36 C -0.04446(13) 0.24661(9) 0.59450(9)
H31 H -0.0626 0.2075 0.5695
H32 H -0.0510 0.2855 0.5668
H33 H -0.0881 0.2508 0.6324
loop_
_geom_bond_atom_site_label_1
_geom_bond_atom_site_label_2
_geom_bond_site_symmetry_1
_geom_bond_site_symmetry_2
N1 C1 1_555 1_555
O1 C4 1_555 1_555
O2 C10 1_555 1_555
O3 C31 1_555 1_555
C1 C2 1_555 1_555
C2 H1 1_555 1_555
C3 C2 1_555 1_555
H2 C3 1_555 1_555
C4 C3 1_555 1_555
C5 C4 1_555 1_555
H3 C5 1_555 1_555
C6 C1 1_555 1_555
H4 C6 1_555 1_555
C7 C8 1_555 1_555
C8 H5 1_555 1_555
C9 C8 1_555 1_555
H6 C9 1_555 1_555
C10 C9 1_555 1_555
C11 C10 1_555 1_555
H7 C11 1_555 1_555
C12 C7 1_555 1_555
H8 C12 1_555 1_555
C13 C14 1_555 1_555
C14 H9 1_555 1_555
C15 C14 1_555 1_555
H10 C15 1_555 1_555
C16 C15 1_555 1_555
H11 C16 1_555 1_555
C17 C16 1_555 1_555
H12 C17 1_555 1_555
C18 C13 1_555 1_555
H13 C18 1_555 1_555
C19 C20 1_555 1_555
C20 H14 1_555 1_555
C21 C20 1_555 1_555
H15 C21 1_555 1_555
C22 C21 1_555 1_555
H16 C22 1_555 1_555
C23 C22 1_555 1_555
H17 C23 1_555 1_555
C24 C19 1_555 1_555
H18 C24 1_555 1_555
C25 N1 1_555 1_555
H19 C25 1_555 1_555
C26 C25 1_555 1_555
C27 C13 1_555 1_555
H20 C27 1_555 1_555
C28 C27 1_555 1_555
C29 C28 1_555 1_555
C30 N1 1_555 1_555
H21 C30 1_555 1_555
C31 C28 1_555 1_555
C32 O3 1_555 1_555
C33 C26 1_555 1_555
H22 C33 1_555 1_555
H23 C33 1_555 1_555
H24 C33 1_555 1_555
C34 O1 1_555 1_555
H25 C34 1_555 1_555
H26 C34 1_555 1_555
H27 C34 1_555 1_555
C35 O2 1_555 1_555
H28 C35 1_555 1_555
H29 C35 1_555 1_555
H30 C35 1_555 1_555
C36 C31 1_555 1_555
H31 C36 1_555 1_555
H32 C36 1_555 1_555
H33 C36 1_555 1_555
C5 C6 1_555 1_555
C7 C30 1_555 1_555
C11 C12 1_555 1_555
C17 C18 1_555 1_555
C19 C32 1_555 1_555
C23 C24 1_555 1_555
C26 C27 1_555 1_555
C29 C30 1_555 1_555
C29 C32 1_555 1_555

#END
