
#######################################################################
#
#                 Cambridge Crystallographic Data Centre
#                                CCDC 
#
#######################################################################
#
# If this CIF has been generated from an entry in the Cambridge 
# Structural Database, then it will include bibliographic, chemical, 
# crystal, experimental, refinement or atomic coordinate data resulting 
# from the CCDC's data processing and validation procedures.
#
#######################################################################

data_AHATEJ
_chemical_formula_moiety         'C35 H31 N1 O2'
_chemical_name_systematic        
5-(4-Methoxyphenyl)-1,7-dimethyl-3,4,8-triphenyl-5,8-dihydro-4H-furo[3,4-c]azepine
_symmetry_cell_setting           triclinic
_symmetry_space_group_name_H-M   'P -1'
_symmetry_Int_Tables_number      2
_space_group_name_Hall           '-P 1'
loop_
_symmetry_equiv_pos_site_id
_symmetry_equiv_pos_as_xyz
1 x,y,z
2 -x,-y,-z
_cell_length_a                   7.8773(4)
_cell_length_b                   12.4949(6)
_cell_length_c                   14.8807(7)
_cell_angle_alpha                105.7270(10)
_cell_angle_beta                 93.2970(10)
_cell_angle_gamma                104.3330(10)
_cell_volume                     1353.69
_exptl_crystal_colour            colorless
_exptl_crystal_description       block
_cell_formula_units_Z            2
loop_
_atom_site_label
_atom_site_type_symbol
_atom_site_fract_x
_atom_site_fract_y
_atom_site_fract_z
N1 N 0.55325(16) 0.79896(10) 0.15791(8)
C1 C 0.42896(19) 0.58594(12) 0.29024(10)
C2 C 0.3346(2) 0.49709(14) 0.32139(12)
H1 H 0.2298 0.5023 0.3458
C3 C 0.3935(3) 0.40057(15) 0.31685(14)
H2 H 0.3280 0.3412 0.3376
C4 C 0.5482(3) 0.39245(16) 0.28189(15)
H3 H 0.5892 0.3283 0.2798
C5 C 0.6429(2) 0.47982(15) 0.24974(15)
H4 H 0.7473 0.4740 0.2252
C6 C 0.5836(2) 0.57581(13) 0.25381(12)
H5 H 0.6484 0.6343 0.2318
C7 C 0.82212(19) 1.09242(13) 0.43084(11)
C8 C 0.9277(2) 1.13865(16) 0.51810(13)
H6 H 0.9236 1.0943 0.5595
C9 C 1.0386(3) 1.24991(19) 0.54366(15)
H7 H 1.1075 1.2798 0.6023
C10 C 1.0484(3) 1.31701(18) 0.48335(17)
H8 H 1.1231 1.3918 0.5010
C11 C 0.9464(2) 1.27213(16) 0.39687(15)
H9 H 0.9533 1.3165 0.3554
C12 C 0.8336(2) 1.16154(14) 0.37080(12)
H10 H 0.7643 1.1328 0.3123
C13 C 0.45435(19) 0.97687(12) 0.21174(10)
C14 C 0.3301(2) 0.99724(14) 0.27097(11)
H11 H 0.3215 0.9673 0.3218
C15 C 0.2181(2) 1.06178(16) 0.25553(14)
H12 H 0.1353 1.0752 0.2962
C16 C 0.2284(3) 1.10603(16) 0.18079(16)
H13 H 0.1537 1.1501 0.1710
C17 C 0.3498(3) 1.08505(17) 0.12007(15)
H14 H 0.3563 1.1142 0.0687
C18 C 0.4615(2) 1.02088(15) 0.13537(12)
H15 H 0.5430 1.0068 0.0940
C19 C 0.67221(18) 0.77506(12) 0.09382(9)
C20 C 0.8405(2) 0.84655(15) 0.10175(12)
H16 H 0.8779 0.9139 0.1520
C21 C 0.9553(2) 0.82089(15) 0.03702(13)
H17 H 1.0676 0.8711 0.0444
C22 C 0.9048(2) 0.72279(14) -0.03717(12)
C23 C 0.7402(2) 0.64861(15) -0.04532(12)
H18 H 0.7052 0.5806 -0.0950
C24 C 0.6259(2) 0.67345(13) 0.01905(11)
H19 H 0.5156 0.6213 0.0124
C25 C 0.36378(19) 0.69309(12) 0.29676(10)
H20 H 0.2642 0.6858 0.3334
C26 C 0.50108(19) 0.80211(12) 0.35339(10)
C27 C 0.59881(18) 0.89949(12) 0.32683(10)
C28 C 0.58721(19) 0.91189(12) 0.22921(10)
H21 H 0.7037 0.9581 0.2229
C29 C 0.37621(19) 0.72978(12) 0.13819(10)
H22 H 0.3185 0.7125 0.0776
C30 C 0.28600(19) 0.68766(12) 0.19909(10)
C31 C 1.1676(3) 0.7727(2) -0.10616(15)
H23 H 1.2270 0.7404 -0.1570
H24 H 1.2417 0.7917 -0.0474
H25 H 1.1430 0.8413 -0.1141
C32 C 0.0937(2) 0.62285(16) 0.17177(14)
H26 H 0.0553 0.6233 0.1095
H27 H 0.0254 0.6594 0.2155
H28 H 0.0775 0.5445 0.1729
C33 C 0.5067(3) 0.75766(16) 0.51387(12)
H29 H 0.5686 0.8020 0.5753
H30 H 0.5404 0.6870 0.4936
H31 H 0.3816 0.7402 0.5163
C34 C 0.5524(2) 0.82525(13) 0.44648(10)
C35 C 0.70035(19) 0.97637(12) 0.40636(10)
O1 O 1.0087(2) 0.69184(12) -0.10612(11)
O2 O 0.67347(14) 0.93077(9) 0.48063(7)
loop_
_geom_bond_atom_site_label_1
_geom_bond_atom_site_label_2
_geom_bond_site_symmetry_1
_geom_bond_site_symmetry_2
N1 C19 1_555 1_555
C1 C2 1_555 1_555
C2 H1 1_555 1_555
C3 C2 1_555 1_555
H2 C3 1_555 1_555
C4 C3 1_555 1_555
H3 C4 1_555 1_555
C5 C4 1_555 1_555
H4 C5 1_555 1_555
C6 C1 1_555 1_555
H5 C6 1_555 1_555
C7 C8 1_555 1_555
C8 H6 1_555 1_555
C9 C8 1_555 1_555
H7 C9 1_555 1_555
C10 C9 1_555 1_555
H8 C10 1_555 1_555
C11 C10 1_555 1_555
H9 C11 1_555 1_555
C12 C7 1_555 1_555
H10 C12 1_555 1_555
C13 C14 1_555 1_555
C14 H11 1_555 1_555
C15 C14 1_555 1_555
H12 C15 1_555 1_555
C16 C15 1_555 1_555
H13 C16 1_555 1_555
C17 C16 1_555 1_555
H14 C17 1_555 1_555
C18 C13 1_555 1_555
H15 C18 1_555 1_555
C19 C20 1_555 1_555
C20 H16 1_555 1_555
C21 C20 1_555 1_555
H17 C21 1_555 1_555
C22 C21 1_555 1_555
C23 C22 1_555 1_555
H18 C23 1_555 1_555
C24 C19 1_555 1_555
H19 C24 1_555 1_555
C25 C1 1_555 1_555
H20 C25 1_555 1_555
C26 C25 1_555 1_555
C27 C26 1_555 1_555
C28 N1 1_555 1_555
H21 C28 1_555 1_555
C29 N1 1_555 1_555
H22 C29 1_555 1_555
C30 C25 1_555 1_555
C31 H23 1_555 1_555
H24 C31 1_555 1_555
H25 C31 1_555 1_555
C32 C30 1_555 1_555
H26 C32 1_555 1_555
H27 C32 1_555 1_555
H28 C32 1_555 1_555
C33 H29 1_555 1_555
H30 C33 1_555 1_555
H31 C33 1_555 1_555
C34 C26 1_555 1_555
C35 C7 1_555 1_555
O1 C22 1_555 1_555
O2 C34 1_555 1_555
C5 C6 1_555 1_555
C11 C12 1_555 1_555
C13 C28 1_555 1_555
C17 C18 1_555 1_555
C23 C24 1_555 1_555
C27 C28 1_555 1_555
C27 C35 1_555 1_555
C29 C30 1_555 1_555
C31 O1 1_555 1_555
C33 C34 1_555 1_555
C35 O2 1_555 1_555

#END
