
#######################################################################
#
#                 Cambridge Crystallographic Data Centre
#                                CCDC 
#
#######################################################################
#
# If this CIF has been generated from an entry in the Cambridge 
# Structural Database, then it will include bibliographic, chemical, 
# crystal, experimental, refinement or atomic coordinate data resulting 
# from the CCDC's data processing and validation procedures.
#
#######################################################################

data_AHEGEA
_chemical_name_common            
2-(1-(4-(dimethylamino)phenyl)allylidene)propanedinitrile
_chemical_formula_moiety         'C14 H13 N3'
_chemical_name_systematic        
(1-(4-(Dimethylamino)phenyl)prop-2-en-1-ylidene)malononitrile
_symmetry_cell_setting           orthorhombic
_symmetry_space_group_name_H-M   'P b c a'
_symmetry_Int_Tables_number      61
_space_group_name_Hall           '-P 2ac 2ab'
loop_
_symmetry_equiv_pos_site_id
_symmetry_equiv_pos_as_xyz
1 x,y,z
2 1/2-x,-y,1/2+z
3 1/2+x,1/2-y,-z
4 -x,1/2+y,1/2-z
5 -x,-y,-z
6 1/2+x,y,1/2-z
7 1/2-x,1/2+y,z
8 x,1/2-y,1/2+z
_cell_length_a                   14.1701(6)
_cell_length_b                   8.0015(3)
_cell_length_c                   22.3043(8)
_cell_angle_alpha                90
_cell_angle_beta                 90
_cell_angle_gamma                90
_cell_volume                     2528.91
_exptl_crystal_colour            amber
_exptl_crystal_description       plate
_chemical_melting_point          '115-116 deg.C'
_cell_formula_units_Z            8
_exptl_crystal_recrystallization_method pentane/chloroform
loop_
_atom_site_label
_atom_site_type_symbol
_atom_site_fract_x
_atom_site_fract_y
_atom_site_fract_z
N1 N 0.86917(14) -0.1500(3) 0.47197(7)
N2 N 0.86105(17) -0.2558(3) 0.76089(8)
N3 N 0.89030(16) 0.1873(3) 0.85837(8)
C1 C 0.86895(13) 0.0785(2) 0.64169(8)
C2 C 0.93049(14) -0.0521(2) 0.62773(8)
C3 C 0.93205(15) -0.1260(3) 0.57213(8)
C4 C 0.86932(14) -0.0739(2) 0.52676(8)
C5 C 0.80711(15) 0.0576(3) 0.54085(9)
C6 C 0.80764(15) 0.1320(3) 0.59631(8)
C7 C 0.9341(2) -0.2810(4) 0.45849(12)
C8 C 0.8112(3) -0.0842(5) 0.42395(12)
C9 C 0.87436(14) 0.0635(3) 0.75225(8)
C10 C 0.87034(13) 0.1577(2) 0.70092(8)
C11 C 0.86988(15) 0.3402(3) 0.70606(11)
C12 C 0.88931(18) 0.4438(3) 0.66181(12)
C13 C 0.86774(15) -0.1146(3) 0.75444(9)
C14 C 0.88327(16) 0.1365(3) 0.81052(9)
H1 H 0.928(2) -0.383(4) 0.4860(13)
H2 H 0.9042(17) 0.409(2) 0.6210(10)
H3 H 0.8892(16) 0.565(3) 0.6683(9)
H4 H 0.9715(17) -0.092(2) 0.6592(9)
H5 H 0.916(2) -0.329(3) 0.4202(15)
H6 H 0.9757(17) -0.218(2) 0.5642(9)
H7 H 0.8571(19) 0.384(3) 0.7440(10)
H8 H 0.7670(15) 0.224(2) 0.6032(7)
H9 H 0.7660(19) 0.095(2) 0.5117(9)
H10 H 0.822(2) -0.151(3) 0.3882(13)
H11 H 0.826(2) 0.027(4) 0.4149(12)
H12 H 0.739(3) -0.101(4) 0.4367(13)
H13 H 1.006(3) -0.252(4) 0.4624(17)
loop_
_geom_bond_atom_site_label_1
_geom_bond_atom_site_label_2
_geom_bond_site_symmetry_1
_geom_bond_site_symmetry_2
N1 C4 1_555 1_555
N2 C13 1_555 1_555
N3 C14 1_555 1_555
C1 C2 1_555 1_555
C2 C3 1_555 1_555
C3 C4 1_555 1_555
C4 C5 1_555 1_555
C5 C6 1_555 1_555
C6 C1 1_555 1_555
C7 N1 1_555 1_555
C8 N1 1_555 1_555
C9 C10 1_555 1_555
C10 C1 1_555 1_555
C11 C10 1_555 1_555
C12 C11 1_555 1_555
C13 C9 1_555 1_555
C14 C9 1_555 1_555
H1 C7 1_555 1_555
H2 C12 1_555 1_555
H3 C12 1_555 1_555
H4 C2 1_555 1_555
H5 C7 1_555 1_555
H6 C3 1_555 1_555
H7 C11 1_555 1_555
H8 C6 1_555 1_555
H9 C5 1_555 1_555
H10 C8 1_555 1_555
H11 C8 1_555 1_555
H12 C8 1_555 1_555
H13 C7 1_555 1_555

#END
