
#######################################################################
#
#                 Cambridge Crystallographic Data Centre
#                                CCDC 
#
#######################################################################
#
# If this CIF has been generated from an entry in the Cambridge 
# Structural Database, then it will include bibliographic, chemical, 
# crystal, experimental, refinement or atomic coordinate data resulting 
# from the CCDC's data processing and validation procedures.
#
#######################################################################

data_AHESAH
_chemical_formula_moiety         'C19 H13 N5'
_chemical_name_systematic        5,6-Diphenyl-3-(pyrazin-2-yl)-1,2,4-triazine
_symmetry_cell_setting           monoclinic
_symmetry_space_group_name_H-M   'P 21/n'
_symmetry_Int_Tables_number      14
_space_group_name_Hall           '-P 2yn'
loop_
_symmetry_equiv_pos_site_id
_symmetry_equiv_pos_as_xyz
1 x,y,z
2 1/2+x,1/2-y,1/2+z
3 -x,-y,-z
4 1/2-x,1/2+y,1/2-z
_cell_length_a                   14.294(7)
_cell_length_b                   7.027(4)
_cell_length_c                   15.679(8)
_cell_angle_alpha                90
_cell_angle_beta                 105.149(9)
_cell_angle_gamma                90
_cell_volume                     1520.13
_exptl_crystal_colour            yellow
_exptl_crystal_description       block
_cell_formula_units_Z            4
_exptl_crystal_recrystallization_method ethanol
loop_
_atom_site_label
_atom_site_type_symbol
_atom_site_fract_x
_atom_site_fract_y
_atom_site_fract_z
N1 N 0.98351(9) 0.24003(19) 1.03192(8)
N2 N 0.85059(10) 0.3930(2) 1.11656(8)
N3 N 0.79627(9) 0.4035(2) 0.84562(8)
N4 N 0.77712(9) 0.4245(2) 0.75784(8)
N5 N 0.94756(8) 0.25663(17) 0.85054(7)
C1 C 0.99618(12) 0.2292(2) 1.11913(10)
H1 H 1.0514 0.1692 1.1532
C2 C 0.93073(12) 0.3034(2) 1.16047(10)
H2 H 0.9428 0.2905 1.2214
C3 C 0.83663(11) 0.4006(2) 1.02948(10)
H3 H 0.7811 0.4600 0.9958
C4 C 0.90150(10) 0.32335(19) 0.98660(9)
C5 C 0.88149(10) 0.3298(2) 0.88856(9)
C6 C 0.84139(10) 0.3626(2) 0.71559(9)
C7 C 0.92605(9) 0.26582(19) 0.76308(9)
C8 C 0.81818(10) 0.4025(2) 0.61957(9)
C9 C 0.72639(10) 0.3653(2) 0.56591(10)
H4 H 0.6792 0.3151 0.5906
C10 C 0.70403(11) 0.4015(2) 0.47640(10)
H5 H 0.6426 0.3736 0.4409
C11 C 0.77285(12) 0.4791(2) 0.43980(10)
H6 H 0.7578 0.5042 0.3795
C12 C 0.86400(12) 0.5198(3) 0.49217(10)
H7 H 0.9102 0.5734 0.4673
C13 C 0.88703(11) 0.4812(2) 0.58147(10)
H8 H 0.9489 0.5079 0.6164
C14 C 0.99261(10) 0.1683(2) 0.71832(9)
C15 C 0.95670(11) 0.0357(2) 0.65220(9)
H9 H 0.8908 0.0081 0.6352
C16 C 1.01963(13) -0.0554(2) 0.61158(10)
H10 H 0.9958 -0.1453 0.5678
C17 C 1.11739(13) -0.0136(2) 0.63566(10)
H11 H 1.1591 -0.0738 0.6076
C18 C 1.15289(11) 0.1172(2) 0.70123(10)
H12 H 1.2187 0.1458 0.7173
C19 C 1.09136(10) 0.2064(2) 0.74346(9)
H13 H 1.1162 0.2923 0.7889
loop_
_geom_bond_atom_site_label_1
_geom_bond_atom_site_label_2
_geom_bond_site_symmetry_1
_geom_bond_site_symmetry_2
N1 C1 1_555 1_555
N2 C2 1_555 1_555
N3 N4 1_555 1_555
N4 C6 1_555 1_555
N5 C5 1_555 1_555
C1 H1 1_555 1_555
C2 C1 1_555 1_555
H2 C2 1_555 1_555
C3 N2 1_555 1_555
H3 C3 1_555 1_555
C4 N1 1_555 1_555
C5 N3 1_555 1_555
C6 C7 1_555 1_555
C7 N5 1_555 1_555
C8 C6 1_555 1_555
C9 C8 1_555 1_555
H4 C9 1_555 1_555
C10 C9 1_555 1_555
H5 C10 1_555 1_555
C11 C10 1_555 1_555
H6 C11 1_555 1_555
C12 C11 1_555 1_555
H7 C12 1_555 1_555
C13 C8 1_555 1_555
H8 C13 1_555 1_555
C14 C7 1_555 1_555
C15 C14 1_555 1_555
H9 C15 1_555 1_555
C16 C15 1_555 1_555
H10 C16 1_555 1_555
C17 C16 1_555 1_555
H11 C17 1_555 1_555
C18 C17 1_555 1_555
H12 C18 1_555 1_555
C19 C14 1_555 1_555
H13 C19 1_555 1_555
C3 C4 1_555 1_555
C4 C5 1_555 1_555
C12 C13 1_555 1_555
C18 C19 1_555 1_555

#END
