
#######################################################################
#
#                 Cambridge Crystallographic Data Centre
#                                CCDC 
#
#######################################################################
#
# If this CIF has been generated from an entry in the Cambridge 
# Structural Database, then it will include bibliographic, chemical, 
# crystal, experimental, refinement or atomic coordinate data resulting 
# from the CCDC's data processing and validation procedures.
#
#######################################################################

data_AHIHEF
_chemical_name_common            '2,5-Dimethylfuran-3-carboxylic acid'
_chemical_formula_moiety         'C7 H8 O3'
_chemical_name_systematic        '2,5-Dimethyl-3-furoic acid'
_symmetry_cell_setting           triclinic
_symmetry_space_group_name_H-M   'P -1'
_symmetry_Int_Tables_number      2
_space_group_name_Hall           '-P 1'
loop_
_symmetry_equiv_pos_site_id
_symmetry_equiv_pos_as_xyz
1 x,y,z
2 -x,-y,-z
_cell_length_a                   5.061(2)
_cell_length_b                   8.435(4)
_cell_length_c                   9.110(3)
_cell_angle_alpha                109.23(4)
_cell_angle_beta                 90.81(4)
_cell_angle_gamma                105.97(4)
_cell_volume                     350.672
_exptl_crystal_colour            colorless
_exptl_crystal_description       block
_chemical_melting_point          '131-132 deg.C'
_cell_formula_units_Z            2
loop_
_atom_site_label
_atom_site_type_symbol
_atom_site_fract_x
_atom_site_fract_y
_atom_site_fract_z
O1 O 0.0337(3) 0.2937(2) 0.0018(2)
O2 O 0.2720(3) 0.5724(2) 0.13292(18)
O3 O 0.7274(3) 0.33425(18) 0.34091(17)
C1 C 0.2324(4) 0.4128(3) 0.1042(2)
C2 C 0.4037(4) 0.3452(3) 0.1829(2)
C3 C 0.3783(5) 0.1647(3) 0.1572(3)
C4 C 0.5758(5) 0.1631(3) 0.2547(3)
C5 C 0.6180(4) 0.4426(3) 0.2948(2)
C6 C 0.6631(7) 0.0239(4) 0.2894(4)
C7 C 0.7531(7) 0.6338(3) 0.3759(3)
H1 H -0.061(8) 0.341(5) -0.039(4)
H2 H 0.237(6) 0.067(4) 0.083(3)
H3 H 0.681(8) 0.035(5) 0.399(5)
H4 H 0.863(9) 0.037(5) 0.286(4)
H5 H 0.542(9) -0.086(6) 0.229(5)
H6 H 0.644(9) 0.687(6) 0.371(5)
H7 H 0.784(9) 0.666(6) 0.488(6)
H8 H 0.936(10) 0.683(5) 0.356(5)
loop_
_geom_bond_atom_site_label_1
_geom_bond_atom_site_label_2
_geom_bond_site_symmetry_1
_geom_bond_site_symmetry_2
O1 C1 1_555 1_555
O2 C1 1_555 1_555
O3 C4 1_555 1_555
C1 C2 1_555 1_555
C2 C3 1_555 1_555
C3 C4 1_555 1_555
C4 C6 1_555 1_555
C5 O3 1_555 1_555
C6 H3 1_555 1_555
C7 C5 1_555 1_555
H1 O1 1_555 1_555
H2 C3 1_555 1_555
H4 C6 1_555 1_555
H5 C6 1_555 1_555
H6 C7 1_555 1_555
H7 C7 1_555 1_555
H8 C7 1_555 1_555
C2 C5 1_555 1_555

#END
