
#######################################################################
#
#                 Cambridge Crystallographic Data Centre
#                                CCDC 
#
#######################################################################
#
# If this CIF has been generated from an entry in the Cambridge 
# Structural Database, then it will include bibliographic, chemical, 
# crystal, experimental, refinement or atomic coordinate data resulting 
# from the CCDC's data processing and validation procedures.
#
#######################################################################

data_AHIPEM
_chemical_formula_moiety         'C18 H22 N5 1+,Cl1 1-'
_chemical_name_systematic        
'2,4-Diamino-5-(1-naphthyl)-3,5-diaza-1-azoniaspiro(5.5)undeca-1,3-diene chloride'
_symmetry_cell_setting           monoclinic
_symmetry_space_group_name_H-M   'I 2/a'
_symmetry_Int_Tables_number      15
_space_group_name_Hall           '-I 2ya'
loop_
_symmetry_equiv_pos_site_id
_symmetry_equiv_pos_as_xyz
1 x,y,z
2 1/2+x,-y,z
3 1/2+x,1/2+y,1/2+z
4 x,1/2-y,1/2+z
5 -x,-y,-z
6 1/2-x,y,-z
7 1/2-x,1/2-y,1/2-z
8 -x,1/2+y,1/2-z
_cell_length_a                   24.862(4)
_cell_length_b                   7.3778(14)
_cell_length_c                   19.633(4)
_cell_angle_alpha                90
_cell_angle_beta                 101.823(6)
_cell_angle_gamma                90
_cell_volume                     3524.82
_exptl_crystal_colour            colorless
_exptl_crystal_description       prism
_chemical_melting_point          '508-509 K'
_cell_formula_units_Z            8
_exptl_crystal_recrystallization_method water/methanol
loop_
_atom_site_label
_atom_site_type_symbol
_atom_site_fract_x
_atom_site_fract_y
_atom_site_fract_z
C1 C 0.56136(10) 0.2232(4) 0.00190(12)
N1 N 0.55678(10) 0.1314(3) 0.05788(11)
H1 H 0.5771 0.1588 0.0975
H2 H 0.5335 0.0441 0.0548
N2 N 0.52821(9) 0.1751(3) -0.05896(10)
C2 C 0.54354(10) 0.2333(3) -0.11681(13)
N3 N 0.51588(10) 0.1807(3) -0.17842(11)
H3 H 0.4881 0.1094 -0.1813
H4 H 0.5256 0.2178 -0.2156
N4 N 0.58752(9) 0.3416(3) -0.11374(10)
H5 H 0.6074 0.3359 -0.1447
C3 C 0.60021(10) 0.4690(4) -0.05602(12)
N5 N 0.59798(9) 0.3601(3) 0.00714(10)
C4 C 0.62873(11) 0.4215(4) 0.07370(14)
C5 C 0.60993(14) 0.5612(4) 0.10914(15)
H6 H 0.5750 0.6079 0.0920
C6 C 0.64139(15) 0.6354(5) 0.17002(17)
H7 H 0.6280 0.7304 0.1929
C7 C 0.69313(16) 0.5629(5) 0.19520(18)
H8 H 0.7147 0.6111 0.2355
C8 C 0.71399(11) 0.4176(4) 0.16133(14)
C9 C 0.68026(12) 0.3433(4) 0.10014(14)
C10 C 0.70035(13) 0.1917(4) 0.06703(16)
H9 H 0.6795 0.1390 0.0272
C11 C 0.75161(14) 0.1279(6) 0.0966(2)
H10 H 0.7651 0.0288 0.0761
C12 C 0.78433(16) 0.2021(7) 0.1551(2)
H11 H 0.8190 0.1546 0.1728
C13 C 0.76559(14) 0.3438(6) 0.1865(2)
H12 H 0.7877 0.3936 0.2260
C14 C 0.65773(11) 0.5475(4) -0.05267(14)
H13 H 0.6685 0.6176 -0.0103
H14 H 0.6838 0.4491 -0.0512
C15 C 0.65981(12) 0.6686(4) -0.11528(16)
H15 H 0.6959 0.7238 -0.1092
H16 H 0.6542 0.5949 -0.1571
C16 C 0.61629(15) 0.8168(4) -0.12421(19)
H17 H 0.6169 0.8847 -0.1663
H18 H 0.6245 0.8998 -0.0852
C17 C 0.55942(13) 0.7361(4) -0.12847(17)
H19 H 0.5326 0.8330 -0.1321
H20 H 0.5499 0.6618 -0.1700
C18 C 0.55736(12) 0.6215(4) -0.06496(15)
H21 H 0.5210 0.5693 -0.0696
H22 H 0.5642 0.6978 -0.0238
Cl1 Cl 0.58605(3) 0.39422(11) -0.27703(3)
loop_
_geom_bond_atom_site_label_1
_geom_bond_atom_site_label_2
_geom_bond_site_symmetry_1
_geom_bond_site_symmetry_2
C1 N1 1_555 1_555
N1 H1 1_555 1_555
H2 N1 1_555 1_555
N2 C1 1_555 1_555
C2 N2 1_555 1_555
N3 C2 1_555 1_555
H3 N3 1_555 1_555
H4 N3 1_555 1_555
N4 C2 1_555 1_555
H5 N4 1_555 1_555
C3 N4 1_555 1_555
N5 C1 1_555 1_555
C4 N5 1_555 1_555
C5 C4 1_555 1_555
H6 C5 1_555 1_555
C6 C5 1_555 1_555
H7 C6 1_555 1_555
C7 C6 1_555 1_555
H8 C7 1_555 1_555
C8 C7 1_555 1_555
C9 C4 1_555 1_555
C10 C9 1_555 1_555
H9 C10 1_555 1_555
C11 C10 1_555 1_555
H10 C11 1_555 1_555
C12 C11 1_555 1_555
H11 C12 1_555 1_555
C13 C8 1_555 1_555
H12 C13 1_555 1_555
C14 C3 1_555 1_555
H13 C14 1_555 1_555
H14 C14 1_555 1_555
C15 C14 1_555 1_555
H15 C15 1_555 1_555
H16 C15 1_555 1_555
C16 C15 1_555 1_555
H17 C16 1_555 1_555
H18 C16 1_555 1_555
C17 C16 1_555 1_555
H19 C17 1_555 1_555
H20 C17 1_555 1_555
C18 C3 1_555 1_555
H21 C18 1_555 1_555
H22 C18 1_555 1_555
C3 N5 1_555 1_555
C8 C9 1_555 1_555
C12 C13 1_555 1_555
C17 C18 1_555 1_555

#END
