
#######################################################################
#
#                 Cambridge Crystallographic Data Centre
#                                CCDC 
#
#######################################################################
#
# If this CIF has been generated from an entry in the Cambridge 
# Structural Database, then it will include bibliographic, chemical, 
# crystal, experimental, refinement or atomic coordinate data resulting 
# from the CCDC's data processing and validation procedures.
#
#######################################################################

data_AHOFAE01
_chemical_formula_moiety         'C30 H48 O6'
_chemical_name_systematic        
'(22E)-3,7,11-Trihydroxy-6-oxoergost-22-en-16-yl acetate'
_chemical_properties_biological  'neurotrophic activity'
_symmetry_cell_setting           monoclinic
_symmetry_space_group_name_H-M   'P 21'
_symmetry_Int_Tables_number      4
_space_group_name_Hall           'P 2yb'
loop_
_symmetry_equiv_pos_site_id
_symmetry_equiv_pos_as_xyz
1 x,y,z
2 -x,1/2+y,-z
_cell_length_a                   6.1600(12)
_cell_length_b                   12.062(2)
_cell_length_c                   19.348(4)
_cell_angle_alpha                90
_cell_angle_beta                 93.85(3)
_cell_angle_gamma                90
_cell_volume                     1434.35
_chemical_melting_point          'decomposes at 250deg.C'
_cell_formula_units_Z            2
loop_
_atom_site_label
_atom_site_type_symbol
_atom_site_fract_x
_atom_site_fract_y
_atom_site_fract_z
O1 O 0.2763(10) 0.5598(5) -0.2906(3)
H1 H 0.3295 0.6151 -0.3097
O2 O 0.3661(8) 0.2770(4) -0.0974(3)
O3 O 0.4321(8) 0.2664(4) 0.0420(3)
H2 H 0.3551 0.2203 0.0189
O4 O -0.1753(8) 0.5966(4) 0.0322(3)
H3 H -0.2548 0.6438 0.0500
O5 O 0.2573(10) 0.3884(5) 0.2881(3)
O6 O 0.5229(12) 0.2639(6) 0.3097(3)
C1 C 0.0998(13) 0.6432(6) -0.1142(4)
H4 H -0.0376 0.6769 -0.1007
H5 H 0.2200 0.6940 -0.0991
C2 C 0.0906(13) 0.6328(7) -0.1928(4)
H6 H 0.0783 0.7076 -0.2137
H7 H -0.0406 0.5901 -0.2088
C3 C 0.2935(14) 0.5747(7) -0.2175(4)
H8 H 0.4242 0.6213 -0.2046
C4 C 0.3223(12) 0.4623(7) -0.1829(4)
H9 H 0.1977 0.4140 -0.1975
H10 H 0.4567 0.4269 -0.1976
C5 C 0.3366(11) 0.4744(6) -0.1048(4)
H11 H 0.4654 0.5225 -0.0920
C6 C 0.3712(10) 0.3672(6) -0.0670(5)
C7 C 0.4090(11) 0.3721(6) 0.0107(4)
H12 H 0.5521 0.4103 0.0201
C8 C 0.2403(11) 0.4445(6) 0.0441(4)
H13 H 0.1020 0.4014 0.0456
C9 C 0.1932(11) 0.5511(6) 0.0024(4)
H14 H 0.3374 0.5893 0.0033
C10 C 0.1344(11) 0.5309(6) -0.0754(4)
C11 C 0.0485(11) 0.6324(6) 0.0399(4)
H15 H 0.0557 0.7049 0.0152
C12 C 0.1205(12) 0.6543(6) 0.1142(4)
H16 H 0.0082 0.6995 0.1354
H17 H 0.2565 0.6982 0.1160
C13 C 0.1601(12) 0.5482(6) 0.1574(4)
C14 C 0.3192(12) 0.4745(6) 0.1172(4)
H18 H 0.4503 0.5220 0.1122
C15 C 0.3934(11) 0.3858(7) 0.1707(4)
H19 H 0.5399 0.3577 0.1618
H20 H 0.2902 0.3228 0.1693
C16 C 0.3970(12) 0.4459(7) 0.2411(4)
H21 H 0.5491 0.4518 0.2623
C17 C 0.2985(13) 0.5625(7) 0.2270(4)
H22 H 0.4239 0.6104 0.2158
C18 C -0.0511(12) 0.4884(7) 0.1702(5)
H23 H -0.1479 0.5388 0.1933
H24 H -0.0194 0.4236 0.1997
H25 H -0.1221 0.4644 0.1258
C19 C -0.0679(11) 0.4572(7) -0.0879(5)
H26 H -0.0476 0.3884 -0.0613
H27 H -0.0893 0.4397 -0.1374
H28 H -0.1959 0.4966 -0.0730
C20 C 0.2061(15) 0.6166(8) 0.2916(5)
H29 H 0.0921 0.5663 0.3086
C21 C 0.1030(19) 0.7301(8) 0.2764(6)
H30 H 0.0421 0.7587 0.3184
H31 H -0.0132 0.7228 0.2395
H32 H 0.2141 0.7814 0.2616
C22 C 0.3846(17) 0.6269(9) 0.3471(5)
H33 H 0.5072 0.6701 0.3367
C23 C 0.3888(17) 0.5821(11) 0.4093(6)
H35 H 0.2841 0.5294 0.4222
C29 C 0.586(4) 0.615(2) 0.4648(12)
H47 H 0.5179 0.6593 0.5012
C30 C 0.665(5) 0.513(3) 0.5000(16)
H48 H 0.7810 0.5343 0.5360
C31 C 0.462(5) 0.454(3) 0.5408(16)
H49 H 0.3592 0.5114 0.5536
H50 H 0.5217 0.4161 0.5826
H51 H 0.3857 0.4001 0.5099
C32 C 0.776(6) 0.426(3) 0.4445(18)
H52 H 0.6769 0.4161 0.4032
H53 H 0.8023 0.3535 0.4670
H54 H 0.9145 0.4562 0.4311
C33 C 0.770(5) 0.693(3) 0.4363(17)
H55 H 0.9045 0.6859 0.4663
H56 H 0.7209 0.7703 0.4363
H57 H 0.7983 0.6709 0.3890
C34 C 0.3402(18) 0.2954(8) 0.3177(4)
C35 C 0.1773(19) 0.2438(9) 0.3625(5)
H58 H 0.1835 0.1629 0.3583
H59 H 0.0309 0.2697 0.3475
H60 H 0.2115 0.2650 0.4109
H34? H 0.2498 0.5518 0.4165
C24? C 0.534(5) 0.563(3) 0.4709(14)
H36? H 0.4659 0.6013 0.5099
C25? C 0.593(4) 0.447(2) 0.4966(13)
H37? H 0.4563 0.4018 0.4961
C26? C 0.699(4) 0.445(3) 0.5693(14)
H38? H 0.8148 0.3889 0.5723
H39? H 0.5902 0.4266 0.6021
H40? H 0.7617 0.5179 0.5806
C27? C 0.733(7) 0.395(4) 0.457(2)
H41? H 0.8813 0.4199 0.4699
H42? H 0.6959 0.4134 0.4080
H43? H 0.7224 0.3149 0.4633
C28? C 0.758(4) 0.639(2) 0.4542(13)
H44? H 0.8277 0.6072 0.4148
H45? H 0.8613 0.6391 0.4951
H46? H 0.7144 0.7159 0.4432
loop_
_geom_bond_atom_site_label_1
_geom_bond_atom_site_label_2
_geom_bond_site_symmetry_1
_geom_bond_site_symmetry_2
O1 H1 1_555 1_555
O2 C6 1_555 1_555
O3 H2 1_555 1_555
O4 H3 1_555 1_555
O5 C16 1_555 1_555
O6 C34 1_555 1_555
C1 H4 1_555 1_555
H5 C1 1_555 1_555
C2 C1 1_555 1_555
H6 C2 1_555 1_555
H7 C2 1_555 1_555
C3 O1 1_555 1_555
H8 C3 1_555 1_555
C4 C3 1_555 1_555
H9 C4 1_555 1_555
H10 C4 1_555 1_555
C5 C4 1_555 1_555
H11 C5 1_555 1_555
C6 C5 1_555 1_555
C7 O3 1_555 1_555
H12 C7 1_555 1_555
C8 C7 1_555 1_555
H13 C8 1_555 1_555
C9 C8 1_555 1_555
H14 C9 1_555 1_555
C10 C1 1_555 1_555
C11 O4 1_555 1_555
H15 C11 1_555 1_555
C12 C11 1_555 1_555
H16 C12 1_555 1_555
H17 C12 1_555 1_555
C13 C12 1_555 1_555
C14 C8 1_555 1_555
H18 C14 1_555 1_555
C15 C14 1_555 1_555
H19 C15 1_555 1_555
H20 C15 1_555 1_555
C16 C15 1_555 1_555
H21 C16 1_555 1_555
C17 C13 1_555 1_555
H22 C17 1_555 1_555
C18 C13 1_555 1_555
H23 C18 1_555 1_555
H24 C18 1_555 1_555
H25 C18 1_555 1_555
C19 C10 1_555 1_555
H26 C19 1_555 1_555
H27 C19 1_555 1_555
H28 C19 1_555 1_555
C20 C17 1_555 1_555
H29 C20 1_555 1_555
C21 C20 1_555 1_555
H30 C21 1_555 1_555
H31 C21 1_555 1_555
H32 C21 1_555 1_555
C22 C20 1_555 1_555
H33 C22 1_555 1_555
C23 C22 1_555 1_555
H35 C23 1_555 1_555
C29 C23 1_555 1_555
H47 C29 1_555 1_555
C30 C29 1_555 1_555
H48 C30 1_555 1_555
C31 C30 1_555 1_555
H49 C31 1_555 1_555
H50 C31 1_555 1_555
H51 C31 1_555 1_555
C32 C30 1_555 1_555
H52 C32 1_555 1_555
H53 C32 1_555 1_555
H54 C32 1_555 1_555
C33 C29 1_555 1_555
H55 C33 1_555 1_555
H56 C33 1_555 1_555
H57 C33 1_555 1_555
C34 O5 1_555 1_555
C35 C34 1_555 1_555
H58 C35 1_555 1_555
H59 C35 1_555 1_555
H60 C35 1_555 1_555
C2 C3 1_555 1_555
C5 C10 1_555 1_555
C6 C7 1_555 1_555
C9 C10 1_555 1_555
C9 C11 1_555 1_555
C13 C14 1_555 1_555
C16 C17 1_555 1_555

#END
