
#######################################################################
#
#                 Cambridge Crystallographic Data Centre
#                                CCDC 
#
#######################################################################
#
# If this CIF has been generated from an entry in the Cambridge 
# Structural Database, then it will include bibliographic, chemical, 
# crystal, experimental, refinement or atomic coordinate data resulting 
# from the CCDC's data processing and validation procedures.
#
#######################################################################

data_AHOKEO
_chemical_name_common            
'meso-Pentafluorophenyl ether bridged [28]hexaphyrin n-hexane solvate'
_chemical_formula_moiety         'C66 H15 F29 N6 O1,C6 H14'
_chemical_name_systematic        
'4,5,6,7-Tetrafluoro-14,19,24,29,34-pentakis(pentafluorophenyl)-9-oxa-12,38,39,40,41,42-hexa-azanonacyclo[33.2.1.1^10,13^.1^15,18^.1^20,23^.1^25,28^.1^30,33^.0^2,11^.0^3,8^]tritetraconta-1(37),2(11),3,5,7,10(43),12,14,16,18,20,22,24,26,28(40),29,31,33,35-nonadecaene n-hexane solvate'
_symmetry_cell_setting           triclinic
_symmetry_space_group_name_H-M   'P -1'
_symmetry_Int_Tables_number      2
_space_group_name_Hall           '-P 1'
loop_
_symmetry_equiv_pos_site_id
_symmetry_equiv_pos_as_xyz
1 x,y,z
2 -x,-y,-z
_cell_length_a                   14.19(3)
_cell_length_b                   14.83(3)
_cell_length_c                   17.49(4)
_cell_angle_alpha                71.79(7)
_cell_angle_beta                 88.10(9)
_cell_angle_gamma                67.33(9)
_cell_volume                     3210.07
_exptl_crystal_colour            blue
_exptl_crystal_description       prism
_cell_formula_units_Z            2
loop_
_atom_site_label
_atom_site_type_symbol
_atom_site_fract_x
_atom_site_fract_y
_atom_site_fract_z
C1 C 0.0461(5) 0.8777(5) 0.1381(3)
C2 C -0.0640(5) 0.9159(5) 0.1209(4)
C3 C -0.1085(5) 0.9381(5) 0.1856(4)
H1 H -0.1798 0.9644 0.1919
C4 C -0.0248(5) 0.9132(5) 0.2432(4)
C5 C -0.0295(5) 0.9125(5) 0.3237(4)
C6 C 0.0575(5) 0.8819(5) 0.3766(4)
C7 C 0.0699(5) 0.8549(5) 0.4617(4)
H2 H 0.0161 0.8644 0.4960
C8 C 0.1714(5) 0.8134(5) 0.4861(4)
H3 H 0.2012 0.7865 0.5405
C9 C 0.2261(5) 0.8168(5) 0.4161(3)
C10 C 0.3308(5) 0.7898(5) 0.4086(3)
C11 C 0.3669(5) 0.8371(5) 0.3365(3)
C12 C 0.3184(5) 0.9389(5) 0.2826(3)
H4 H 0.2499 0.9852 0.2827
C13 C 0.3872(5) 0.9595(5) 0.2298(3)
H5 H 0.3749 1.0230 0.1880
C14 C 0.4784(5) 0.8710(5) 0.2481(3)
C15 C 0.5728(5) 0.8565(5) 0.2140(3)
C16 C 0.6539(5) 0.7615(5) 0.2281(3)
C17 C 0.7604(5) 0.7428(5) 0.2191(4)
H6 H 0.7881 0.7936 0.1985
C18 C 0.8131(5) 0.6399(5) 0.2453(4)
H7 H 0.8855 0.6041 0.2502
C19 C 0.7377(5) 0.5937(5) 0.2647(4)
C20 C 0.7585(5) 0.4891(5) 0.2750(4)
C21 C 0.6841(5) 0.4569(5) 0.2575(4)
C22 C 0.6941(5) 0.3595(5) 0.2516(4)
H8 H 0.7533 0.2968 0.2692
C23 C 0.6040(5) 0.3727(5) 0.2166(4)
H9 H 0.5898 0.3206 0.2048
C24 C 0.5339(5) 0.4775(5) 0.2000(3)
C25 C 0.4350(5) 0.5260(5) 0.1612(3)
C26 C 0.3681(4) 0.6289(5) 0.1532(3)
C27 C 0.3713(5) 0.6989(5) 0.1906(3)
H10 H 0.4273 0.6884 0.2254
C28 C 0.2812(5) 0.7845(5) 0.1692(3)
H11 H 0.2639 0.8433 0.1863
C29 C 0.2189(4) 0.7702(5) 0.1175(3)
C30 C 0.1134(5) 0.8322(5) 0.0885(3)
C31 C -0.1309(5) 0.9344(5) 0.3577(4)
C32 C -0.1763(5) 0.8629(6) 0.3752(4)
C33 C -0.2694(6) 0.8802(7) 0.4059(4)
C34 C -0.3217(5) 0.9717(7) 0.4209(4)
C35 C -0.2796(5) 1.0456(7) 0.4037(4)
C36 C -0.1857(5) 1.0251(6) 0.3736(4)
C37 C 0.4066(5) 0.7128(5) 0.4776(3)
C38 C 0.4036(5) 0.6174(5) 0.5192(4)
C39 C 0.4786(6) 0.5434(5) 0.5796(4)
C40 C 0.5580(6) 0.5651(6) 0.6005(4)
C41 C 0.5620(5) 0.6582(6) 0.5633(3)
C42 C 0.4860(5) 0.7318(5) 0.5032(3)
C43 C 0.5846(5) 0.9501(5) 0.1599(4)
C44 C 0.5753(5) 1.0337(5) 0.1836(4)
C45 C 0.5829(5) 1.1220(5) 0.1302(5)
C46 C 0.5927(6) 1.1309(6) 0.0511(4)
C47 C 0.6042(5) 1.0501(6) 0.0249(4)
C48 C 0.6012(5) 0.9612(5) 0.0788(4)
C49 C 0.8677(5) 0.4136(6) 0.2921(5)
C50 C 0.9204(7) 0.3790(7) 0.3667(5)
C51 C 1.0240(8) 0.3122(10) 0.3814(8)
C52 C 1.0743(8) 0.2807(8) 0.3190(11)
C53 C 1.0241(8) 0.3177(8) 0.2457(10)
C54 C 0.9219(6) 0.3806(7) 0.2329(6)
C55 C 0.3989(5) 0.4628(5) 0.1265(3)
C56 C 0.3791(5) 0.3794(5) 0.1747(4)
C57 C 0.3486(6) 0.3192(5) 0.1445(4)
C58 C 0.3311(6) 0.3449(6) 0.0622(4)
C59 C 0.3475(6) 0.4272(6) 0.0123(4)
C60 C 0.3798(5) 0.4854(5) 0.0441(4)
C61 C 0.0632(5) 0.8450(5) 0.0111(4)
C62 C 0.1178(5) 0.8230(6) -0.0543(4)
C63 C 0.0695(6) 0.8402(6) -0.1272(4)
C64 C -0.0341(6) 0.8800(6) -0.1381(4)
C65 C -0.0912(5) 0.9047(6) -0.0772(4)
C66 C -0.0431(5) 0.8874(5) -0.0037(4)
N1 N 0.0677(4) 0.8791(4) 0.2122(3)
N2 N 0.1537(4) 0.8598(4) 0.3514(3)
H12 H 0.1671 0.8715 0.3006
N3 N 0.4631(4) 0.7978(4) 0.3130(3)
H13 H 0.5089 0.7346 0.3359
N4 N 0.6418(4) 0.6693(4) 0.2566(3)
N5 N 0.5854(4) 0.5247(4) 0.2289(3)
H14 H 0.5585 0.5890 0.2289
N6 N 0.2740(4) 0.6768(4) 0.1079(3)
H15 H 0.2523 0.6506 0.0769
F1 F -0.1261(3) 0.7716(3) 0.3623(3)
F2 F -0.3092(4) 0.8083(4) 0.4214(3)
F3 F -0.4129(3) 0.9919(4) 0.4492(3)
F4 F -0.3315(3) 1.1373(4) 0.4143(3)
F5 F -0.1464(3) 1.0992(3) 0.3576(2)
F6 F 0.3299(3) 0.5917(3) 0.4965(2)
F7 F 0.4751(4) 0.4498(3) 0.6138(2)
F8 F 0.6313(3) 0.4916(3) 0.6579(2)
F9 F 0.6395(3) 0.6792(4) 0.5841(2)
F10 F 0.4923(3) 0.8239(3) 0.46919(19)
F11 F 0.5640(3) 1.0274(3) 0.2612(2)
F12 F 0.5767(4) 1.1994(3) 0.1574(3)
F13 F 0.5910(3) 1.2210(3) -0.0010(3)
F14 F 0.6117(4) 1.0605(4) -0.0536(2)
F15 F 0.6087(3) 0.8857(3) 0.0492(2)
F16 F 0.8720(4) 0.4109(5) 0.4268(3)
F17 F 1.0729(5) 0.2802(7) 0.4536(5)
F18 F 1.1744(4) 0.2191(5) 0.3313(6)
F19 F 1.0750(4) 0.2922(5) 0.1828(6)
F20 F 0.8763(4) 0.4137(5) 0.1576(4)
F21 F 0.3949(3) 0.3519(3) 0.2554(2)
F22 F 0.3325(4) 0.2375(3) 0.1937(3)
F23 F 0.2999(4) 0.2866(4) 0.0318(3)
F24 F 0.3317(4) 0.4523(4) -0.0684(2)
F25 F 0.3958(3) 0.5670(3) -0.0077(2)
F26 F 0.2199(3) 0.7894(3) -0.0494(2)
F27 F 0.1242(3) 0.8197(3) -0.1881(2)
F28 F -0.0829(3) 0.9016(3) -0.2110(2)
F29 F -0.1947(3) 0.9472(3) -0.0882(2)
O1 O -0.1086(3) 0.9200(3) 0.0517(3)
C67 C 0.1146(10) 0.5903(12) 0.3797(8)
H16 H 0.0687 0.5568 0.4053
H17 H 0.0959 0.6558 0.3903
H18 H 0.1856 0.5449 0.4019
C68 C 0.1043(9) 0.6111(10) 0.2882(10)
H19 H 0.0364 0.6671 0.2650
H20 H 0.1574 0.6360 0.2641
C69 C 0.1138(10) 0.5259(13) 0.2661(12)
H21 H 0.0569 0.5065 0.2890
H22 H 0.1778 0.4694 0.2969
C70 C 0.1159(17) 0.5197(16) 0.1868(15)
H23 H 0.1841 0.5169 0.1701
H24 H 0.1156 0.4513 0.1923
C71 C 0.0475(14) 0.5876(17) 0.1229(12)
H25 H 0.0419 0.6569 0.1211
H26 H -0.0196 0.5845 0.1372
C72 C 0.0556(16) 0.5865(13) 0.0358(11)
H27 H 0.1154 0.6006 0.0155
H28 H -0.0067 0.6397 0.0019
H29 H 0.0633 0.5186 0.0342
loop_
_geom_bond_atom_site_label_1
_geom_bond_atom_site_label_2
_geom_bond_site_symmetry_1
_geom_bond_site_symmetry_2
C1 C2 1_555 1_555
C2 C3 1_555 1_555
C3 H1 1_555 1_555
C4 C3 1_555 1_555
C5 C4 1_555 1_555
C6 C5 1_555 1_555
C7 C6 1_555 1_555
H2 C7 1_555 1_555
C8 C7 1_555 1_555
H3 C8 1_555 1_555
C9 C8 1_555 1_555
C10 C9 1_555 1_555
C11 C10 1_555 1_555
C12 C11 1_555 1_555
H4 C12 1_555 1_555
C13 C12 1_555 1_555
H5 C13 1_555 1_555
C14 C13 1_555 1_555
C15 C14 1_555 1_555
C16 C15 1_555 1_555
C17 C16 1_555 1_555
H6 C17 1_555 1_555
C18 C17 1_555 1_555
H7 C18 1_555 1_555
C19 C18 1_555 1_555
C20 C19 1_555 1_555
C21 C20 1_555 1_555
C22 C21 1_555 1_555
H8 C22 1_555 1_555
C23 C22 1_555 1_555
H9 C23 1_555 1_555
C24 C23 1_555 1_555
C25 C24 1_555 1_555
C26 C25 1_555 1_555
C27 C26 1_555 1_555
H10 C27 1_555 1_555
C28 C27 1_555 1_555
H11 C28 1_555 1_555
C29 C28 1_555 1_555
C30 C1 1_555 1_555
C31 C5 1_555 1_555
C32 C31 1_555 1_555
C33 C32 1_555 1_555
C34 C33 1_555 1_555
C35 C34 1_555 1_555
C36 C31 1_555 1_555
C37 C10 1_555 1_555
C38 C37 1_555 1_555
C39 C38 1_555 1_555
C40 C39 1_555 1_555
C41 C40 1_555 1_555
C42 C37 1_555 1_555
C43 C15 1_555 1_555
C44 C43 1_555 1_555
C45 C44 1_555 1_555
C46 C45 1_555 1_555
C47 C46 1_555 1_555
C48 C43 1_555 1_555
C49 C20 1_555 1_555
C50 C49 1_555 1_555
C51 C50 1_555 1_555
C52 C51 1_555 1_555
C53 C52 1_555 1_555
C54 C49 1_555 1_555
C55 C25 1_555 1_555
C56 C55 1_555 1_555
C57 C56 1_555 1_555
C58 C57 1_555 1_555
C59 C58 1_555 1_555
C60 C55 1_555 1_555
C61 C30 1_555 1_555
C62 C61 1_555 1_555
C63 C62 1_555 1_555
C64 C63 1_555 1_555
C65 C64 1_555 1_555
C66 C61 1_555 1_555
N1 C1 1_555 1_555
N2 C6 1_555 1_555
H12 N2 1_555 1_555
N3 C11 1_555 1_555
H13 N3 1_555 1_555
N4 C16 1_555 1_555
N5 C21 1_555 1_555
H14 N5 1_555 1_555
N6 C26 1_555 1_555
H15 N6 1_555 1_555
F1 C32 1_555 1_555
F2 C33 1_555 1_555
F3 C34 1_555 1_555
F4 C35 1_555 1_555
F5 C36 1_555 1_555
F6 C38 1_555 1_555
F7 C39 1_555 1_555
F8 C40 1_555 1_555
F9 C41 1_555 1_555
F10 C42 1_555 1_555
F11 C44 1_555 1_555
F12 C45 1_555 1_555
F13 C46 1_555 1_555
F14 C47 1_555 1_555
F15 C48 1_555 1_555
F16 C50 1_555 1_555
F17 C51 1_555 1_555
F18 C52 1_555 1_555
F19 C53 1_555 1_555
F20 C54 1_555 1_555
F21 C56 1_555 1_555
F22 C57 1_555 1_555
F23 C58 1_555 1_555
F24 C59 1_555 1_555
F25 C60 1_555 1_555
F26 C62 1_555 1_555
F27 C63 1_555 1_555
F28 C64 1_555 1_555
F29 C65 1_555 1_555
O1 C2 1_555 1_555
C67 H16 1_555 1_555
H17 C67 1_555 1_555
H18 C67 1_555 1_555
C68 C67 1_555 1_555
H19 C68 1_555 1_555
H20 C68 1_555 1_555
C69 C68 1_555 1_555
H21 C69 1_555 1_555
H22 C69 1_555 1_555
C70 C69 1_555 1_555
H23 C70 1_555 1_555
H24 C70 1_555 1_555
C71 C70 1_555 1_555
H25 C71 1_555 1_555
H26 C71 1_555 1_555
C72 C71 1_555 1_555
H27 C72 1_555 1_555
H28 C72 1_555 1_555
H29 C72 1_555 1_555
C4 N1 1_555 1_555
C9 N2 1_555 1_555
C14 N3 1_555 1_555
C19 N4 1_555 1_555
C24 N5 1_555 1_555
C29 C30 1_555 1_555
C29 N6 1_555 1_555
C35 C36 1_555 1_555
C41 C42 1_555 1_555
C47 C48 1_555 1_555
C53 C54 1_555 1_555
C59 C60 1_555 1_555
C65 C66 1_555 1_555
C66 O1 1_555 1_555

#END
