
#######################################################################
#
#                 Cambridge Crystallographic Data Centre
#                                CCDC 
#
#######################################################################
#
# If this CIF has been generated from an entry in the Cambridge 
# Structural Database, then it will include bibliographic, chemical, 
# crystal, experimental, refinement or atomic coordinate data resulting 
# from the CCDC's data processing and validation procedures.
#
#######################################################################

data_AHUFIT
_chemical_name_common            
'(Z)-1,2-Diphenyl-2,5-hexadien-3-yl 4-methylphenyl sulfone'
_chemical_formula_moiety         'C25 H24 O2 S1'
_chemical_name_systematic        
(Z)-5,6-diphenyl-4-(p-tolylsulfonyl)-1,4-hexadiene
_symmetry_cell_setting           monoclinic
_symmetry_space_group_name_H-M   'P 21/c'
_symmetry_Int_Tables_number      14
_space_group_name_Hall           '-P 2ybc'
loop_
_symmetry_equiv_pos_site_id
_symmetry_equiv_pos_as_xyz
1 x,y,z
2 -x,1/2+y,1/2-z
3 -x,-y,-z
4 x,1/2-y,1/2+z
_cell_length_a                   10.9061(2)
_cell_length_b                   18.1560(4)
_cell_length_c                   10.6758(2)
_cell_angle_alpha                90
_cell_angle_beta                 100.1800(10)
_cell_angle_gamma                90
_cell_volume                     2080.65
_chemical_melting_point          '89-90 deg.C'
_cell_formula_units_Z            4
loop_
_atom_site_label
_atom_site_type_symbol
_atom_site_fract_x
_atom_site_fract_y
_atom_site_fract_z
C1 C 0.59492(16) 0.34389(10) 0.04030(19)
H1 H 0.5184 0.3551 -0.0096
C2 C 0.70210(19) 0.35813(10) -0.0066(2)
H2 H 0.6976 0.3777 -0.0878
C3 C 0.81485(19) 0.34344(11) 0.0666(3)
H3 H 0.8876 0.3535 0.0356
C4 C 0.82157(18) 0.31409(12) 0.1849(3)
H4 H 0.8988 0.3042 0.2345
C5 C 0.71244(17) 0.29865(10) 0.2322(2)
H5 H 0.7175 0.2784 0.3130
C6 C 0.59761(14) 0.31333(8) 0.15935(17)
C7 C 0.47771(15) 0.29532(10) 0.20535(17)
H6 H 0.4287 0.3399 0.2051
H7 H 0.4972 0.2776 0.2923
C8 C 0.40090(13) 0.23754(8) 0.12341(13)
C9 C 0.46430(13) 0.16419(9) 0.12843(14)
C10 C 0.55747(16) 0.14892(10) 0.05928(17)
H8 H 0.5806 0.1843 0.0049
C11 C 0.61595(18) 0.08125(11) 0.0712(2)
H9 H 0.6779 0.0711 0.0240
C12 C 0.5834(2) 0.02865(12) 0.1521(2)
H10 H 0.6222 -0.0172 0.1585
C13 C 0.4946(2) 0.04405(11) 0.2225(2)
H11 H 0.4733 0.0089 0.2783
C14 C 0.43551(16) 0.11182(10) 0.21170(16)
H12 H 0.3756 0.1221 0.2614
C15 C 0.28538(13) 0.25135(8) 0.06135(13)
C16 C 0.21335(15) 0.32231(9) 0.07125(15)
H13 H 0.1263 0.3102 0.0683
H14 H 0.2439 0.3449 0.1532
C17 C 0.22276(16) 0.37692(9) -0.03058(16)
H15 H 0.1918 0.3631 -0.1141
C18 C 0.2708(2) 0.44235(10) -0.0121(2)
H16 H 0.3027 0.4582 0.0700
H17 H 0.2732 0.4733 -0.0810
C19 C 0.12034(13) 0.12966(8) 0.04816(14)
C20 C 0.16081(15) 0.05881(9) 0.07870(16)
H18 H 0.2296 0.0401 0.0487
C21 C 0.09893(17) 0.01590(10) 0.15372(18)
H19 H 0.1261 -0.0320 0.1731
C22 C -0.00216(16) 0.04230(10) 0.20070(17)
C23 C -0.0664(2) -0.00403(13) 0.2869(2)
H20 H -0.0862 -0.0514 0.2485
H21 H -0.1416 0.0200 0.2996
H22 H -0.0122 -0.0102 0.3674
C24 C -0.04243(17) 0.11294(11) 0.1676(2)
H23 H -0.1113 0.1315 0.1976
C25 C 0.01677(15) 0.15646(10) 0.09141(18)
H24 H -0.0126 0.2036 0.0691
O1 O 0.28495(10) 0.13970(6) -0.09888(10)
O2 O 0.10948(11) 0.22686(7) -0.13038(11)
S1 S 0.20061(3) 0.18558(2) -0.04501(3)
loop_
_geom_bond_atom_site_label_1
_geom_bond_atom_site_label_2
_geom_bond_site_symmetry_1
_geom_bond_site_symmetry_2
C1 H1 1_555 1_555
C2 C1 1_555 1_555
H2 C2 1_555 1_555
C3 C2 1_555 1_555
H3 C3 1_555 1_555
C4 C3 1_555 1_555
H4 C4 1_555 1_555
C5 C4 1_555 1_555
H5 C5 1_555 1_555
C6 C1 1_555 1_555
C7 C6 1_555 1_555
H6 C7 1_555 1_555
H7 C7 1_555 1_555
C8 C7 1_555 1_555
C9 C8 1_555 1_555
C10 C9 1_555 1_555
H8 C10 1_555 1_555
C11 C10 1_555 1_555
H9 C11 1_555 1_555
C12 C11 1_555 1_555
H10 C12 1_555 1_555
C13 C12 1_555 1_555
H11 C13 1_555 1_555
C14 C9 1_555 1_555
H12 C14 1_555 1_555
C15 C8 1_555 1_555
C16 C15 1_555 1_555
H13 C16 1_555 1_555
H14 C16 1_555 1_555
C17 C16 1_555 1_555
H15 C17 1_555 1_555
C18 C17 1_555 1_555
H16 C18 1_555 1_555
H17 C18 1_555 1_555
C19 C20 1_555 1_555
C20 H18 1_555 1_555
C21 C20 1_555 1_555
H19 C21 1_555 1_555
C22 C21 1_555 1_555
C23 C22 1_555 1_555
H20 C23 1_555 1_555
H21 C23 1_555 1_555
H22 C23 1_555 1_555
C24 C22 1_555 1_555
H23 C24 1_555 1_555
C25 C19 1_555 1_555
H24 C25 1_555 1_555
O1 S1 1_555 1_555
O2 S1 1_555 1_555
S1 C15 1_555 1_555
C5 C6 1_555 1_555
C13 C14 1_555 1_555
C19 S1 1_555 1_555
C24 C25 1_555 1_555

#END
