
#######################################################################
#
#                 Cambridge Crystallographic Data Centre
#                                CCDC 
#
#######################################################################
#
# If this CIF has been generated from an entry in the Cambridge 
# Structural Database, then it will include bibliographic, chemical, 
# crystal, experimental, refinement or atomic coordinate data resulting 
# from the CCDC's data processing and validation procedures.
#
#######################################################################

data_AHUFAL
_chemical_name_common            
'(E)-1-(4-Fluorophenyl)-1-phenyl-1,4-pentadien-2-yl 4-methylphenyl sulfone'
_chemical_formula_moiety         'C24 H21 F1 O2 S1'
_chemical_name_systematic        
(E)-1-phenyl-1-(p-fluorophenyl)-2-(p-tolylsulfonyl)-1,4-pentadiene
_symmetry_cell_setting           monoclinic
_symmetry_space_group_name_H-M   'P 21/c'
_symmetry_Int_Tables_number      14
_space_group_name_Hall           '-P 2ybc'
loop_
_symmetry_equiv_pos_site_id
_symmetry_equiv_pos_as_xyz
1 x,y,z
2 -x,1/2+y,1/2-z
3 -x,-y,-z
4 x,1/2-y,1/2+z
_cell_length_a                   9.8991(20)
_cell_length_b                   9.6219(20)
_cell_length_c                   21.8129(15)
_cell_angle_alpha                90
_cell_angle_beta                 95.575(10)
_cell_angle_gamma                90
_cell_volume                     2067.81
_exptl_crystal_colour            colorless
_exptl_crystal_description       block
_chemical_melting_point          '134-135 deg.C'
_cell_formula_units_Z            4
loop_
_atom_site_label
_atom_site_type_symbol
_atom_site_fract_x
_atom_site_fract_y
_atom_site_fract_z
F1 F 0.1387(2) 0.09769(19) 0.02744(10)
S1 S 0.40639(5) 0.80031(5) 0.20911(3)
C1 C 0.3445(2) 0.7609(2) 0.27946(11)
C2 C 0.24430(19) 0.6051(2) 0.14696(9)
C3 C 0.37165(19) 0.6490(2) 0.16221(10)
C4 C 0.21854(19) 0.4695(2) 0.11463(9)
C5 C 0.11796(19) 0.6796(2) 0.16009(10)
C6 C 0.0786(2) 0.8012(2) 0.12947(11)
H1 H 0.1337 0.8395 0.1017
C7 C 0.2450(2) 0.3454(2) 0.14477(11)
H2 H 0.2817 0.3463 0.1857
C8 C 0.2318(2) 0.8281(3) 0.29796(14)
H3 H 0.1832 0.8903 0.2716
C9 C 0.4139(3) 0.6664(2) 0.31819(13)
H4 H 0.4892 0.6202 0.3058
C10 C 0.2185(3) 0.2198(2) 0.11572(13)
H5 H 0.2364 0.1364 0.1365
C11 C 0.1657(3) 0.2213(3) 0.05621(14)
C12 C -0.1231(3) 0.8105(3) 0.18062(17)
H6 H -0.2035 0.8548 0.1878
C13 C 0.4973(2) 0.5783(3) 0.14307(13)
H7 H 0.5660 0.5760 0.1780
H8 H 0.4752 0.4830 0.1315
C14 C 0.1385(3) 0.3395(3) 0.02436(13)
H9 H 0.1034 0.3367 -0.0167
C15 C 0.1638(3) 0.4648(3) 0.05402(11)
H10 H 0.1438 0.5473 0.0328
C16 C 0.0334(2) 0.6238(3) 0.20032(13)
H11 H 0.0569 0.5410 0.2206
C17 C 0.1927(3) 0.8025(3) 0.35487(17)
H12 H 0.1174 0.8488 0.3672
C18 C -0.0865(3) 0.6906(3) 0.21070(16)
H13 H -0.1422 0.6530 0.2384
C19 C 0.3714(3) 0.6410(3) 0.37515(14)
H14 H 0.4176 0.5763 0.4010
C20 C 0.2612(3) 0.7101(3) 0.39476(15)
C21 C -0.0413(3) 0.8662(3) 0.13970(14)
H15 H -0.0667 0.9478 0.1188
O1 O 0.55082(16) 0.80955(19) 0.22045(8)
O2 O 0.33556(18) 0.91976(16) 0.18331(9)
C22 C 0.5537(4) 0.6486(6) 0.0909(2)
H16 H 0.6280 0.6023 0.0777
C23 C 0.2200(5) 0.6838(5) 0.45821(17)
H17 H 0.2618 0.7517 0.4862
H18 H 0.2488 0.5925 0.4715
H19 H 0.1231 0.6905 0.4575
C24 C 0.5241(8) 0.7550(9) 0.0612(3)
C25? C 0.5401(15) 0.6059(19) 0.0313(7)
loop_
_geom_bond_atom_site_label_1
_geom_bond_atom_site_label_2
_geom_bond_site_symmetry_1
_geom_bond_site_symmetry_2
F1 C11 1_555 1_555
S1 C1 1_555 1_555
C1 C8 1_555 1_555
C2 C3 1_555 1_555
C3 S1 1_555 1_555
C4 C2 1_555 1_555
C5 C2 1_555 1_555
C6 C5 1_555 1_555
H1 C6 1_555 1_555
C7 C4 1_555 1_555
H2 C7 1_555 1_555
C8 H3 1_555 1_555
C9 C1 1_555 1_555
H4 C9 1_555 1_555
C10 C7 1_555 1_555
H5 C10 1_555 1_555
C11 C10 1_555 1_555
C12 H6 1_555 1_555
C13 C3 1_555 1_555
H7 C13 1_555 1_555
H8 C13 1_555 1_555
C14 C11 1_555 1_555
H9 C14 1_555 1_555
C15 C4 1_555 1_555
H10 C15 1_555 1_555
C16 C5 1_555 1_555
H11 C16 1_555 1_555
C17 C8 1_555 1_555
H12 C17 1_555 1_555
C18 C12 1_555 1_555
H13 C18 1_555 1_555
C19 C9 1_555 1_555
H14 C19 1_555 1_555
C20 C17 1_555 1_555
C21 C6 1_555 1_555
H15 C21 1_555 1_555
O1 S1 1_555 1_555
O2 S1 1_555 1_555
C22 C13 1_555 1_555
H16 C22 1_555 1_555
C23 C20 1_555 1_555
H17 C23 1_555 1_555
H18 C23 1_555 1_555
H19 C23 1_555 1_555
C24 C22 1_555 1_555
C12 C21 1_555 1_555
C14 C15 1_555 1_555
C16 C18 1_555 1_555
C19 C20 1_555 1_555

#END
