
#######################################################################
#
#                 Cambridge Crystallographic Data Centre
#                                CCDC 
#
#######################################################################
#
# If this CIF has been generated from an entry in the Cambridge 
# Structural Database, then it will include bibliographic, chemical, 
# crystal, experimental, refinement or atomic coordinate data resulting 
# from the CCDC's data processing and validation procedures.
#
#######################################################################

data_AHUMOH
_chemical_formula_moiety         'C8 H22 B10'
_chemical_name_systematic        
3-(2,3-Dimethylbut-1-en-3-yl)-1,2-dicarba-closo-dodecaborane(11)
_symmetry_cell_setting           orthorhombic
_symmetry_space_group_name_H-M   'P n a 21'
_symmetry_Int_Tables_number      33
_space_group_name_Hall           'P 2c -2n'
loop_
_symmetry_equiv_pos_site_id
_symmetry_equiv_pos_as_xyz
1 x,y,z
2 -x,-y,1/2+z
3 1/2+x,1/2-y,z
4 1/2-x,1/2+y,1/2+z
_cell_length_a                   20.5058(13)
_cell_length_b                   9.8955(6)
_cell_length_c                   7.2533(4)
_cell_angle_alpha                90
_cell_angle_beta                 90
_cell_angle_gamma                90
_cell_volume                     1471.8
_exptl_crystal_description       block
_cell_formula_units_Z            4
loop_
_atom_site_label
_atom_site_type_symbol
_atom_site_fract_x
_atom_site_fract_y
_atom_site_fract_z
C1 C 0.1860(4) 0.1564(7) 1.0146(9)
H1 H 0.1938 0.2478 1.0981
C2 C 0.1871(3) 0.1578(5) 0.7934(9)
H2 H 0.1948 0.2528 0.7177
B1 B 0.25221(18) 0.0907(4) 0.8967(14)
H3 H 0.3015 0.1343 0.8920
B2 B 0.2194(4) 0.0126(11) 1.0953(11)
H4 H 0.2484 0.0034 1.2223
B3 B 0.1324(4) 0.0452(8) 1.0861(10)
H5 H 0.1021 0.0567 1.2103
B4 B 0.11293(17) 0.1442(3) 0.9021(12)
B5 B 0.2185(4) 0.0154(10) 0.7118(10)
H6 H 0.2463 0.0079 0.5826
B6 B 0.2367(2) -0.0820(4) 0.9020(13)
H7 H 0.2760 -0.1575 0.8975
B7 B 0.1655(5) -0.1031(10) 1.0349(14)
H8 H 0.1589 -0.1899 1.1277
B8 B 0.1007(2) -0.0308(4) 0.8989(16)
H9 H 0.0510 -0.0724 0.8930
B9 B 0.1353(4) 0.0413(10) 0.7067(12)
H10 H 0.1097 0.0492 0.5739
B10 B 0.1633(4) -0.1115(6) 0.7924(14)
H11 H 0.1543 -0.2079 0.7212
C3 C 0.0601(8) 0.2706(13) 0.8729(16)
C4 C -0.0066(12) 0.232(3) 0.961(6)
H12 H -0.0370 0.3050 0.9426
H13 H -0.0009 0.2167 1.0902
H14 H -0.0231 0.1520 0.9032
C5 C 0.0337(9) 0.292(2) 0.6771(17)
H15 H 0.0032 0.3653 0.6771
H16 H 0.0123 0.2109 0.6362
H17 H 0.0692 0.3123 0.5954
C6 C 0.0840(10) 0.3968(19) 0.974(2)
C7 C 0.0697(13) 0.381(3) 1.161(2)
H18 H 0.0491 0.3033 1.2024
H19 H 0.0809 0.4490 1.2441
C8 C 0.1124(10) 0.459(2) 0.795(4)
H20 H 0.1326 0.5440 0.8228
H21 H 0.0780 0.4726 0.7072
H22 H 0.1443 0.3987 0.7436
C9? C 0.0588(5) 0.2543(14) 0.9476(18)
C10? C 0.0457(13) 0.278(3) 1.155(2)
H23? H 0.0126 0.3456 1.1688
H24? H 0.0851 0.3074 1.2136
H25? H 0.0312 0.1950 1.2100
C11? C -0.0080(7) 0.201(3) 0.880(5)
H26? H -0.0412 0.2664 0.9080
H27? H -0.0178 0.1174 0.9400
H28? H -0.0063 0.1873 0.7487
C12? C 0.0805(4) 0.3783(10) 0.8392(18)
C13? C 0.1062(5) 0.4948(11) 0.922(3)
H29? H 0.1106 0.4989 1.0499
H30? H 0.1188 0.5679 0.8501
C14? C 0.0795(11) 0.384(3) 0.6278(19)
H31? H 0.0967 0.4688 0.5870
H32? H 0.0355 0.3741 0.5849
H33? H 0.1057 0.3116 0.5792
loop_
_geom_bond_atom_site_label_1
_geom_bond_atom_site_label_2
_geom_bond_site_symmetry_1
_geom_bond_site_symmetry_2
C1 H1 1_555 1_555
C2 C1 1_555 1_555
H2 C2 1_555 1_555
B1 C1 1_555 1_555
H3 B1 1_555 1_555
B2 C1 1_555 1_555
H4 B2 1_555 1_555
B3 C1 1_555 1_555
H5 B3 1_555 1_555
B4 C1 1_555 1_555
B5 C2 1_555 1_555
H6 B5 1_555 1_555
B6 B1 1_555 1_555
H7 B6 1_555 1_555
B7 B2 1_555 1_555
H8 B7 1_555 1_555
B8 B3 1_555 1_555
H9 B8 1_555 1_555
B9 C2 1_555 1_555
H10 B9 1_555 1_555
B10 B5 1_555 1_555
H11 B10 1_555 1_555
C3 B4 1_555 1_555
C4 C3 1_555 1_555
H12 C4 1_555 1_555
H13 C4 1_555 1_555
H14 C4 1_555 1_555
C5 C3 1_555 1_555
H15 C5 1_555 1_555
H16 C5 1_555 1_555
H17 C5 1_555 1_555
C6 C3 1_555 1_555
C7 C6 1_555 1_555
H18 C7 1_555 1_555
H19 C7 1_555 1_555
C8 C6 1_555 1_555
H20 C8 1_555 1_555
H21 C8 1_555 1_555
H22 C8 1_555 1_555
C2 B1 1_555 1_555
C2 B4 1_555 1_555
B1 B2 1_555 1_555
B1 B5 1_555 1_555
B2 B3 1_555 1_555
B2 B6 1_555 1_555
B3 B4 1_555 1_555
B3 B7 1_555 1_555
B4 B8 1_555 1_555
B4 B9 1_555 1_555
B5 B6 1_555 1_555
B5 B9 1_555 1_555
B6 B7 1_555 1_555
B6 B10 1_555 1_555
B7 B8 1_555 1_555
B7 B10 1_555 1_555
B8 B9 1_555 1_555
B8 B10 1_555 1_555
B9 B10 1_555 1_555

#END
