
#######################################################################
#
#                 Cambridge Crystallographic Data Centre
#                                CCDC 
#
#######################################################################
#
# If this CIF has been generated from an entry in the Cambridge 
# Structural Database, then it will include bibliographic, chemical, 
# crystal, experimental, refinement or atomic coordinate data resulting 
# from the CCDC's data processing and validation procedures.
#
#######################################################################

data_AHUVOO01
_chemical_formula_moiety         'C20 H28 N2 O4'
_chemical_name_systematic        
2,2'-Azino-bis(1-carboxy-7,7-dimethylbicyclo(2.2.1)heptane)
_symmetry_cell_setting           monoclinic
_symmetry_space_group_name_H-M   'C 2'
_symmetry_Int_Tables_number      5
_space_group_name_Hall           'C 2y'
loop_
_symmetry_equiv_pos_site_id
_symmetry_equiv_pos_as_xyz
1 x,y,z
2 -x,y,-z
3 1/2+x,1/2+y,z
4 1/2-x,1/2+y,-z
_cell_length_a                   11.414(3)
_cell_length_b                   7.580(4)
_cell_length_c                   21.887(3)
_cell_angle_alpha                90
_cell_angle_beta                 99.919(18)
_cell_angle_gamma                90
_cell_volume                     1865.32
_cell_formula_units_Z            4
loop_
_atom_site_label
_atom_site_type_symbol
_atom_site_fract_x
_atom_site_fract_y
_atom_site_fract_z
O1 O 0.31593(48) 0.07331 0.38580(25)
O2 O 0.16826(50) 0.08850(91) 0.30983(27)
O3 O -0.29850(43) -0.56186(78) 0.11346(22)
O4 O -0.15736(48) -0.57532(91) 0.19384(22)
N1 N 0.06362(37) -0.19814(90) 0.26455(19)
N2 N -0.02336(39) -0.30165(96) 0.22666(19)
C1 C 0.24193(61) -0.0010(10) 0.35070(29)
C2 C 0.22960(48) -0.20024(97) 0.35094(25)
C3 C 0.33782(49) -0.2953(11) 0.33000(26)
C4 C 0.33038(53) -0.4840(11) 0.35441(27)
C5 C 0.21895(54) -0.48038(99) 0.38460(24)
C6 C 0.11188(50) -0.47051(96) 0.33151(25)
C7 C 0.12380(43) -0.28366(97) 0.30924(22)
C8 C 0.22382(50) -0.29360(99) 0.41343(23)
C9 C 0.33303(57) -0.2639(11) 0.46433(26)
C10 C 0.11347(58) -0.2444(11) 0.44105(28)
C11 C -0.21636(58) -0.4920(11) 0.14566(26)
C12 C -0.17277(46) -0.31014(96) 0.13170(22)
C13 C -0.11130(52) -0.3101(11) 0.07383(25)
C14 C -0.11354(54) -0.1142(11) 0.05343(25)
C15 C -0.17092(55) -0.0247(10) 0.10248(25)
C16 C -0.07752(52) -0.0299(11) 0.16326(25)
C17 C -0.08280(46) -0.21913(95) 0.18112(23)
C18 C -0.26526(47) -0.15919(98) 0.11535(24)
C19 C -0.36218(49) -0.1949(11) 0.05867(26)
C20 C -0.32523(50) -0.1080(12) 0.17037(28)
H1 H 0.10984 0.03085 0.27753
H2 H -0.0930 -0.51579 0.21953
H3 H 0.42151 -0.23126 0.34964
H4 H 0.33080 -0.29070 0.27907
H5 H 0.41097 -0.52128 0.38608
H6 H 0.32122 -0.58114 0.31527
H7 H 0.21612 -0.58850 0.41703
H8 H 0.02997 -0.49521 0.34786
H9 H 0.12054 -0.56600 0.29495
H10 H 0.36560 -0.12894 0.46478
H11 H 0.40446 -0.35277 0.45908
H12 H 0.30526 -0.29002 0.50944
H13 H 0.03554 -0.29382 0.41243
H14 H 0.10900 -0.10373 0.44612
H15 H 0.12159 -0.30458 0.48746
H16 H -0.15833 -0.39199 0.03606
H17 H -0.01982 -0.35736 0.08436
H18 H -0.16449 -0.10165 0.00642
H19 H -0.02344 -0.06910 0.05249
H20 H -0.20542 0.10402 0.08750
H21 H -0.10162 0.05873 0.19886
H22 H -0.01291 0.01010 0.15673
H23 H -0.32392 -0.25809 0.02175
H24 H -0.40403 -0.07309 0.04090
H25 H -0.43459 -0.28831 0.06748
H26 H -0.26822 -0.14379 0.21262
H27 H -0.40711 -0.19327 0.16685
H28 H -0.35580 0.02344 0.17383
loop_
_geom_bond_atom_site_label_1
_geom_bond_atom_site_label_2
_geom_bond_site_symmetry_1
_geom_bond_site_symmetry_2
O1 C1 1_555 1_555
O2 C1 1_555 1_555
O3 C11 1_555 1_555
O4 C11 1_555 1_555
N1 N2 1_555 1_555
N2 C17 1_555 1_555
C1 C2 1_555 1_555
C2 C3 1_555 1_555
C3 C4 1_555 1_555
C4 C5 1_555 1_555
C5 C6 1_555 1_555
C6 C7 1_555 1_555
C7 N1 1_555 1_555
C8 C2 1_555 1_555
C9 C8 1_555 1_555
C10 C8 1_555 1_555
C11 C12 1_555 1_555
C12 C13 1_555 1_555
C13 C14 1_555 1_555
C14 C15 1_555 1_555
C15 C16 1_555 1_555
C16 C17 1_555 1_555
C17 C12 1_555 1_555
C18 C12 1_555 1_555
C19 C18 1_555 1_555
C20 C18 1_555 1_555
H1 O2 1_555 1_555
H2 O4 1_555 1_555
H3 C3 1_555 1_555
H4 C3 1_555 1_555
H5 C4 1_555 1_555
H6 C4 1_555 1_555
H7 C5 1_555 1_555
H8 C6 1_555 1_555
H9 C6 1_555 1_555
H10 C9 1_555 1_555
H11 C9 1_555 1_555
H12 C9 1_555 1_555
H13 C10 1_555 1_555
H14 C10 1_555 1_555
H15 C10 1_555 1_555
H16 C13 1_555 1_555
H17 C13 1_555 1_555
H18 C14 1_555 1_555
H19 C14 1_555 1_555
H20 C15 1_555 1_555
H21 C16 1_555 1_555
H22 C16 1_555 1_555
H23 C19 1_555 1_555
H24 C19 1_555 1_555
H25 C19 1_555 1_555
H26 C20 1_555 1_555
H27 C20 1_555 1_555
H28 C20 1_555 1_555
C2 C7 1_555 1_555
C5 C8 1_555 1_555
C15 C18 1_555 1_555

#END
