
#######################################################################
#
#                 Cambridge Crystallographic Data Centre
#                                CCDC 
#
#######################################################################
#
# If this CIF has been generated from an entry in the Cambridge 
# Structural Database, then it will include bibliographic, chemical, 
# crystal, experimental, refinement or atomic coordinate data resulting 
# from the CCDC's data processing and validation procedures.
#
#######################################################################

data_AJAYUF
_chemical_name_common            
"4'-(Ammoniomethyl)benzo-15-crown-5 dicyanodiborohydride chloroform solvate"
_chemical_formula_moiety         'C15 H24 N1 O5 1+,C2 H5 B2 N2 1-,C1 H1 Cl3'
_chemical_name_systematic        
'1^4^-(Ammoniomethyl)-1(1,2)-benzena-2,5,8,11,14-pentaoxacyclotetradecaphane (\m~2~-cyano)-cyano-pentahydrido-diborate chloroform solvate'
_symmetry_cell_setting           triclinic
_symmetry_space_group_name_H-M   'P -1'
_symmetry_Int_Tables_number      2
_space_group_name_Hall           '-P 1'
loop_
_symmetry_equiv_pos_site_id
_symmetry_equiv_pos_as_xyz
1 x,y,z
2 -x,-y,-z
_cell_length_a                   10.0597(11)
_cell_length_b                   11.7649(14)
_cell_length_c                   12.5398(15)
_cell_angle_alpha                98.497(2)
_cell_angle_beta                 106.385(3)
_cell_angle_gamma                109.668(3)
_cell_volume                     1291.47
_exptl_crystal_colour            colorless
_exptl_crystal_description       block
_cell_formula_units_Z            2
loop_
_atom_site_label
_atom_site_type_symbol
_atom_site_fract_x
_atom_site_fract_y
_atom_site_fract_z
B1 B -0.1052(8) 0.4037(7) 0.1544(7)
N2 N 0.0981(5) 0.5341(4) 0.3685(4)
C16 C 0.0123(6) 0.4775(5) 0.2773(6)
N3 N 0.3185(4) 0.8555(5) 0.5012(4)
C19 C 0.2698(5) 0.7531(6) 0.4936(4)
B2 B 0.2073(8) 0.6095(6) 0.4899(6)
H27 H -0.221(6) 0.350(4) 0.170(4)
H28 H 0.146(5) 0.608(4) 0.543(4)
H29 H -0.074(8) 0.328(7) 0.121(6)
H30 H 0.297(7) 0.576(5) 0.514(5)
H31 H -0.121(10) 0.474(8) 0.100(8)
C1 C 1.3366(4) 1.1396(4) 0.4373(4)
H1 H 1.3681 1.0887 0.3899
H2 H 1.3856 1.2261 0.4372
O1 O 0.7028(3) 0.9711(3) 0.2428(3)
O2 O 0.8144(3) 0.8227(3) 0.3144(2)
O3 O 0.6339(3) 0.6335(3) 0.3752(3)
O4 O 0.3668(3) 0.6718(3) 0.2599(3)
C2 C 1.0732(4) 0.9780(4) 0.3752(4)
H3 H 1.1139 0.9218 0.3991
O5 O 0.4105(3) 0.9199(3) 0.2362(3)
C3 C 0.8570(4) 1.0221(4) 0.2905(3)
C4 C 1.1690(4) 1.0986(4) 0.3867(4)
C5 C 0.9189(4) 0.9391(4) 0.3289(4)
N1 N 1.3851(3) 1.1282(3) 0.5572(3)
H4 H 1.4853 1.1551 0.5858
H5 H 1.3435 1.0484 0.5571
H6 H 1.3556 1.1744 0.6007
C6 C 0.8649(5) 0.7290(4) 0.3489(4)
H7 H 0.9176 0.7532 0.4318
H8 H 0.9326 0.7168 0.3108
C7 C 1.1062(5) 1.1795(4) 0.3493(4)
H9 H 1.1689 1.2611 0.3562
C8 C 0.9507(5) 1.1409(4) 0.3014(4)
H10 H 0.9103 1.1969 0.2766
C9 C 0.7256(5) 0.6122(4) 0.3136(5)
H11 H 0.6712 0.5908 0.2312
H12 H 0.7520 0.5433 0.3309
C10 C 0.3816(6) 0.5567(5) 0.2285(5)
H13 H 0.4231 0.5575 0.1675
H14 H 0.2831 0.4878 0.2001
C11 C 0.2794(5) 0.6935(6) 0.1616(5)
H15 H 0.1788 0.6272 0.1296
H16 H 0.3253 0.6934 0.1032
C12 C 0.2693(5) 0.8165(6) 0.1938(5)
H17 H 0.2036 0.8276 0.1265
H18 H 0.2233 0.8153 0.2522
C13 C 0.4837(6) 0.5394(5) 0.3316(5)
H19 H 0.4414 0.5400 0.3922
H20 H 0.4874 0.4580 0.3111
C14 C 0.6262(4) 1.0455(4) 0.2003(4)
H21 H 0.6611 1.0792 0.1425
H22 H 0.6434 1.1146 0.2625
C15 C 0.4613(5) 0.9595(5) 0.1482(5)
H23 H 0.4034 1.0031 0.1108
H24 H 0.4468 0.8873 0.0906
C17 C 0.2621(6) 0.2157(6) 0.9895(6)
H25 H 0.2320 0.1467 0.9216
Cl1 Cl 0.1864(7) 0.3232(5) 0.9531(3)
Cl2 Cl 0.4586(4) 0.2880(5) 1.0547(4)
Cl3 Cl 0.2011(8) 0.1576(8) 1.1002(9)
C18? C 0.2621(6) 0.2157(6) 0.9895(6)
H26? H 0.2664 0.1864 0.9137
Cl4? Cl 0.1652(7) 0.0897(9) 1.0055(13)
Cl5? Cl 0.4411(13) 0.2955(16) 1.0641(14)
Cl6? Cl 0.1587(19) 0.2975(18) 0.9577(14)
loop_
_geom_bond_atom_site_label_1
_geom_bond_atom_site_label_2
_geom_bond_site_symmetry_1
_geom_bond_site_symmetry_2
B1 C16 1_555 1_555
C1 H1 1_555 1_555
H2 C1 1_555 1_555
O1 C3 1_555 1_555
O2 C5 1_555 1_555
O3 C9 1_555 1_555
O4 C10 1_555 1_555
C2 H3 1_555 1_555
O5 C12 1_555 1_555
C3 C5 1_555 1_555
C4 C1 1_555 1_555
C5 C2 1_555 1_555
N1 C1 1_555 1_555
H4 N1 1_555 1_555
H5 N1 1_555 1_555
H6 N1 1_555 1_555
C6 O2 1_555 1_555
H7 C6 1_555 1_555
H8 C6 1_555 1_555
C7 C4 1_555 1_555
H9 C7 1_555 1_555
C8 C3 1_555 1_555
H10 C8 1_555 1_555
C9 C6 1_555 1_555
H11 C9 1_555 1_555
H12 C9 1_555 1_555
C10 H13 1_555 1_555
H14 C10 1_555 1_555
C11 O4 1_555 1_555
H15 C11 1_555 1_555
H16 C11 1_555 1_555
C12 C11 1_555 1_555
H17 C12 1_555 1_555
H18 C12 1_555 1_555
C13 O3 1_555 1_555
H19 C13 1_555 1_555
H20 C13 1_555 1_555
C14 O1 1_555 1_555
H21 C14 1_555 1_555
H22 C14 1_555 1_555
C15 O5 1_555 1_555
H23 C15 1_555 1_555
H24 C15 1_555 1_555
N2 C16 1_555 1_555
C17 H25 1_555 1_555
Cl1 C17 1_555 1_555
Cl2 C17 1_555 1_555
Cl3 C17 1_555 1_555
N3 C19 1_555 1_555
C19 B2 1_555 1_555
B2 N2 1_555 1_555
H27 B1 1_555 1_555
H28 B2 1_555 1_555
H29 B1 1_555 1_555
H30 B2 1_555 1_555
H31 B1 1_555 1_555
C2 C4 1_555 1_555
C7 C8 1_555 1_555
C10 C13 1_555 1_555
C14 C15 1_555 1_555

#END
