
#######################################################################
#
#                 Cambridge Crystallographic Data Centre
#                                CCDC 
#
#######################################################################
#
# If this CIF has been generated from an entry in the Cambridge 
# Structural Database, then it will include bibliographic, chemical, 
# crystal, experimental, refinement or atomic coordinate data resulting 
# from the CCDC's data processing and validation procedures.
#
#######################################################################

data_AJEGOM
_chemical_name_common            
1,8-bis[4-(4-pentyl-cyclohexyl)-phenyl]-10-methoxyanthracene
_chemical_formula_moiety         'C49 H60 O1'
_chemical_name_systematic        
10-Methoxy-1,8-bis(4-(4-pentylcyclohexyl)phenyl)anthracene
_symmetry_cell_setting           triclinic
_symmetry_space_group_name_H-M   'P -1'
_symmetry_Int_Tables_number      2
_space_group_name_Hall           '-P 1'
loop_
_symmetry_equiv_pos_site_id
_symmetry_equiv_pos_as_xyz
1 x,y,z
2 -x,-y,-z
_cell_length_a                   9.1104(18)
_cell_length_b                   10.615(2)
_cell_length_c                   20.583(4)
_cell_angle_alpha                100.94(3)
_cell_angle_beta                 90.97(3)
_cell_angle_gamma                93.65(3)
_cell_volume                     1949.52
_exptl_crystal_colour            yellow
_exptl_crystal_description       needle
_cell_formula_units_Z            2
_exptl_crystal_recrystallization_method chloroform/methanol
loop_
_atom_site_label
_atom_site_type_symbol
_atom_site_fract_x
_atom_site_fract_y
_atom_site_fract_z
O1 O 0.9030(2) 0.2431(2) 0.22942(12)
C1 C 0.5009(3) 0.4022(3) 0.36694(16)
C2 C 0.5701(3) 0.3660(3) 0.41926(17)
H1 H 0.5282 0.3815 0.4607
C3 C 0.7041(4) 0.3053(3) 0.41167(19)
H2 H 0.7475 0.2802 0.4480
C4 C 0.7696(4) 0.2834(3) 0.35341(18)
H3 H 0.8584 0.2443 0.3497
C5 C 0.7043(3) 0.3194(3) 0.29684(17)
C6 C 0.7706(3) 0.2989(3) 0.23524(18)
C7 C 0.7046(4) 0.3286(3) 0.17933(17)
C8 C 0.7673(4) 0.2988(4) 0.11539(19)
H4 H 0.8560 0.2597 0.1107
C9 C 0.6991(4) 0.3270(4) 0.0623(2)
H5 H 0.7402 0.3051 0.0209
C10 C 0.5670(4) 0.3887(4) 0.06776(19)
H6 H 0.5236 0.4083 0.0300
C11 C 0.5001(4) 0.4210(3) 0.12695(17)
C12 C 0.5659(3) 0.3873(3) 0.18537(16)
C13 C 0.5004(3) 0.4075(3) 0.24650(16)
H7 H 0.4093 0.4426 0.2500
C14 C 0.5658(3) 0.3773(3) 0.30307(16)
C15 C 1.0275(4) 0.3343(4) 0.2381(2)
H8 H 1.1162 0.2895 0.2332
H9 H 1.0273 0.3868 0.2816
H10 H 1.0227 0.3877 0.2055
C16 C 0.3611(3) 0.4676(3) 0.37851(15)
C17 C 0.2479(3) 0.4174(3) 0.41093(15)
H11 H 0.2588 0.3402 0.4250
C18 C 0.1188(3) 0.4772(3) 0.42341(15)
H12 H 0.0449 0.4395 0.4455
C19 C 0.0970(3) 0.5932(3) 0.40358(15)
C20 C 0.2113(3) 0.6447(3) 0.37123(17)
H13 H 0.2009 0.7223 0.3575
C21 C 0.3394(3) 0.5844(3) 0.35886(16)
H14 H 0.4136 0.6220 0.3369
C22 C -0.0454(3) 0.6575(3) 0.41550(16)
H15 H -0.1081 0.6056 0.4401
C23 C -0.1274(3) 0.6623(3) 0.35100(16)
H16 H -0.0657 0.7096 0.3246
H17 H -0.1469 0.5754 0.3261
C24 C -0.2717(3) 0.7257(3) 0.36294(17)
H18 H -0.3187 0.7284 0.3206
H19 H -0.3365 0.6741 0.3860
C25 C -0.2510(3) 0.8608(3) 0.40318(16)
H20 H -0.1898 0.9127 0.3780
C26 C -0.1681(4) 0.8570(3) 0.46741(17)
H21 H -0.1476 0.9443 0.4916
H22 H -0.2305 0.8116 0.4944
C27 C -0.0248(4) 0.7921(3) 0.45705(17)
H23 H 0.0188 0.7875 0.4998
H24 H 0.0430 0.8439 0.4354
C28 C -0.3957(4) 0.9245(3) 0.41669(17)
H25 H -0.4596 0.8700 0.4386
H26 H -0.3754 1.0055 0.4473
C29 C -0.4779(4) 0.9504(3) 0.35690(18)
H27 H -0.4972 0.8700 0.3257
H28 H -0.4160 1.0072 0.3355
C30 C -0.6225(4) 1.0106(3) 0.37338(18)
H29 H -0.6820 0.9554 0.3966
H30 H -0.6022 1.0925 0.4033
C31 C -0.7099(4) 1.0327(4) 0.3150(2)
H31 H -0.7141 0.9549 0.2813
H32 H -0.6588 1.1004 0.2968
C32 C -0.8638(5) 1.0688(4) 0.3296(2)
H33 H -0.9128 1.0798 0.2896
H34 H -0.8611 1.1478 0.3615
H35 H -0.9162 1.0020 0.3472
C33 C 0.3646(4) 0.4934(3) 0.13153(17)
C34 C 0.2451(4) 0.4527(4) 0.08890(17)
H36 H 0.2487 0.3783 0.0569
C35 C 0.1203(4) 0.5207(4) 0.09296(18)
H37 H 0.0415 0.4902 0.0637
C36 C 0.1083(4) 0.6322(4) 0.13869(19)
C37 C 0.2305(4) 0.6744(4) 0.1797(2)
H38 H 0.2286 0.7507 0.2105
C38 C 0.3543(4) 0.6068(3) 0.17628(19)
H39 H 0.4338 0.6383 0.2050
C39 C -0.0398(6) 0.6979(5) 0.1490(3)
H40 H -0.1046 0.6386 0.1685
C40 C -0.1130(6) 0.7041(6) 0.0835(3)
H41 H -0.1292 0.6180 0.0573
H42 H -0.0494 0.7544 0.0593
C41 C -0.2627(6) 0.7665(6) 0.0948(3)
H43 H -0.2956 0.7864 0.0531
H44 H -0.3336 0.7022 0.1057
C42 C -0.2684(5) 0.8759(6) 0.1425(2)
H45 H -0.2091 0.9390 0.1232
C43 C -0.1840(6) 0.8745(6) 0.2037(2)
H46 H -0.2431 0.8271 0.2310
H47 H -0.1675 0.9623 0.2278
C44 C -0.0365(6) 0.8160(6) 0.1942(3)
H48 H 0.0324 0.8768 0.1790
H49 H 0.0003 0.8030 0.2368
C45 C -0.4103(5) 0.9384(5) 0.1532(2)
H50 H -0.4679 0.8915 0.1813
H51 H -0.3872 1.0242 0.1788
C46 C -0.5065(5) 0.9515(6) 0.0983(2)
H52 H -0.5361 0.8660 0.0738
H53 H -0.4499 0.9958 0.0689
C47 C -0.6436(5) 1.0219(5) 0.1154(2)
H54 H -0.6964 0.9807 0.1471
H55 H -0.6132 1.1088 0.1376
C48 C -0.7448(6) 1.0302(7) 0.0630(3)
H56 H -0.7753 0.9433 0.0407
H57 H -0.6922 1.0716 0.0313
C49 C -0.8781(5) 1.0988(5) 0.0802(2)
H58 H -0.9382 1.0948 0.0410
H59 H -0.8509 1.1871 0.0994
H60 H -0.9324 1.0594 0.1115
loop_
_geom_bond_atom_site_label_1
_geom_bond_atom_site_label_2
_geom_bond_site_symmetry_1
_geom_bond_site_symmetry_2
O1 C6 1_555 1_555
C1 C2 1_555 1_555
C2 H1 1_555 1_555
C3 C2 1_555 1_555
H2 C3 1_555 1_555
C4 C3 1_555 1_555
H3 C4 1_555 1_555
C5 C4 1_555 1_555
C6 C5 1_555 1_555
C7 C6 1_555 1_555
C8 C7 1_555 1_555
H4 C8 1_555 1_555
C9 C8 1_555 1_555
H5 C9 1_555 1_555
C10 C9 1_555 1_555
H6 C10 1_555 1_555
C11 C10 1_555 1_555
C12 C7 1_555 1_555
C13 C12 1_555 1_555
H7 C13 1_555 1_555
C14 C1 1_555 1_555
C15 O1 1_555 1_555
H8 C15 1_555 1_555
H9 C15 1_555 1_555
H10 C15 1_555 1_555
C16 C1 1_555 1_555
C17 C16 1_555 1_555
H11 C17 1_555 1_555
C18 C17 1_555 1_555
H12 C18 1_555 1_555
C19 C18 1_555 1_555
C20 C19 1_555 1_555
H13 C20 1_555 1_555
C21 C16 1_555 1_555
H14 C21 1_555 1_555
C22 C19 1_555 1_555
H15 C22 1_555 1_555
C23 C22 1_555 1_555
H16 C23 1_555 1_555
H17 C23 1_555 1_555
C24 C23 1_555 1_555
H18 C24 1_555 1_555
H19 C24 1_555 1_555
C25 C24 1_555 1_555
H20 C25 1_555 1_555
C26 C25 1_555 1_555
H21 C26 1_555 1_555
H22 C26 1_555 1_555
C27 C22 1_555 1_555
H23 C27 1_555 1_555
H24 C27 1_555 1_555
C28 C25 1_555 1_555
H25 C28 1_555 1_555
H26 C28 1_555 1_555
C29 C28 1_555 1_555
H27 C29 1_555 1_555
H28 C29 1_555 1_555
C30 C29 1_555 1_555
H29 C30 1_555 1_555
H30 C30 1_555 1_555
C31 C30 1_555 1_555
H31 C31 1_555 1_555
H32 C31 1_555 1_555
C32 C31 1_555 1_555
H33 C32 1_555 1_555
H34 C32 1_555 1_555
H35 C32 1_555 1_555
C33 C11 1_555 1_555
C34 C33 1_555 1_555
H36 C34 1_555 1_555
C35 C34 1_555 1_555
H37 C35 1_555 1_555
C36 C35 1_555 1_555
C37 C36 1_555 1_555
H38 C37 1_555 1_555
C38 C33 1_555 1_555
H39 C38 1_555 1_555
C39 C36 1_555 1_555
H40 C39 1_555 1_555
C40 C39 1_555 1_555
H41 C40 1_555 1_555
H42 C40 1_555 1_555
C41 C40 1_555 1_555
H43 C41 1_555 1_555
H44 C41 1_555 1_555
C42 C41 1_555 1_555
H45 C42 1_555 1_555
C43 C42 1_555 1_555
H46 C43 1_555 1_555
H47 C43 1_555 1_555
C44 C39 1_555 1_555
H48 C44 1_555 1_555
H49 C44 1_555 1_555
C45 C42 1_555 1_555
H50 C45 1_555 1_555
H51 C45 1_555 1_555
C46 C45 1_555 1_555
H52 C46 1_555 1_555
H53 C46 1_555 1_555
C47 C46 1_555 1_555
H54 C47 1_555 1_555
H55 C47 1_555 1_555
C48 C47 1_555 1_555
H56 C48 1_555 1_555
H57 C48 1_555 1_555
C49 C48 1_555 1_555
H58 C49 1_555 1_555
H59 C49 1_555 1_555
H60 C49 1_555 1_555
C5 C14 1_555 1_555
C11 C12 1_555 1_555
C13 C14 1_555 1_555
C20 C21 1_555 1_555
C26 C27 1_555 1_555
C37 C38 1_555 1_555
C43 C44 1_555 1_555

#END
