
#######################################################################
#
#                 Cambridge Crystallographic Data Centre
#                                CCDC 
#
#######################################################################
#
# If this CIF has been generated from an entry in the Cambridge 
# Structural Database, then it will include bibliographic, chemical, 
# crystal, experimental, refinement or atomic coordinate data resulting 
# from the CCDC's data processing and validation procedures.
#
#######################################################################

data_AJERAJ
_chemical_formula_moiety         'C64 H62 N4'
_chemical_name_systematic        
5,15-bis(3,5-Di-t-butylphenyl)-10,20-bis(phenylethynyl)porphyrin
_symmetry_cell_setting           triclinic
_symmetry_space_group_name_H-M   'P -1'
_symmetry_Int_Tables_number      2
_space_group_name_Hall           '-P 1'
loop_
_symmetry_equiv_pos_site_id
_symmetry_equiv_pos_as_xyz
1 x,y,z
2 -x,-y,-z
_cell_length_a                   9.9598(19)
_cell_length_b                   10.496(2)
_cell_length_c                   13.925(3)
_cell_angle_alpha                86.236(4)
_cell_angle_beta                 80.266(4)
_cell_angle_gamma                82.765(4)
_cell_volume                     1421.85
_exptl_crystal_colour            purple
_exptl_crystal_description       needle
_cell_formula_units_Z            1
_exptl_crystal_recrystallization_method dichloromethane/acetonitrile
loop_
_atom_site_label
_atom_site_type_symbol
_atom_site_fract_x
_atom_site_fract_y
_atom_site_fract_z
N1 N 0.4997(4) 0.8413(3) 0.5981(3)
H1 H 0.4940 0.9116 0.5616
N2 N 0.3805(4) 0.9196(3) 0.4184(3)
C1 C 0.5695(5) 0.8204(4) 0.6753(3)
C2 C 0.5537(6) 0.6929(5) 0.7151(4)
H2 H 0.5907 0.6530 0.7689
C3 C 0.4771(6) 0.6413(5) 0.6622(4)
H3 H 0.4511 0.5578 0.6718
C4 C 0.4409(5) 0.7342(4) 0.5880(4)
C5 C 0.3646(5) 0.7155(4) 0.5160(4)
C6 C 0.3377(5) 0.8019(5) 0.4380(4)
C7 C 0.2576(6) 0.7764(5) 0.3646(4)
H4 H 0.2154 0.7020 0.3608
C8 C 0.2563(6) 0.8818(5) 0.3030(4)
H5 H 0.2137 0.8929 0.2472
C9 C 0.3299(5) 0.9725(4) 0.3367(3)
C10 C 0.3527(5) 1.0946(5) 0.2919(3)
C11 C 0.3101(6) 0.5928(5) 0.5201(4)
C12 C 0.2674(6) 0.4937(5) 0.5260(4)
C13 C 0.2183(6) 0.3674(5) 0.5331(4)
C14 C 0.2721(6) 0.2699(5) 0.5915(4)
H6 H 0.3410 0.2849 0.6265
C15 C 0.1152(6) 0.3433(5) 0.4811(4)
H7 H 0.0781 0.4072 0.4393
C16 C 0.2265(7) 0.1512(5) 0.5990(5)
H8 H 0.2655 0.0850 0.6381
C17 C 0.0704(7) 0.2243(6) 0.4930(4)
H9 H -0.0007 0.2083 0.4605
C18 C 0.1249(8) 0.1287(6) 0.5501(5)
H10 H 0.0929 0.0475 0.5558
C19 C 0.2853(6) 1.1365(5) 0.2057(4)
C20 C 0.1439(6) 1.1470(5) 0.2137(4)
H11 H 0.0914 1.1283 0.2745
C21 C 0.3627(6) 1.1657(4) 0.1160(4)
H12 H 0.4586 1.1596 0.1104
C22 C 0.0761(6) 1.1849(6) 0.1337(4)
C23 C 0.3015(6) 1.2037(5) 0.0341(4)
C24 C 0.1597(6) 1.2114(6) 0.0466(4)
H13 H 0.1172 1.2366 -0.0081
C25 C -0.0782(7) 1.2010(8) 0.1463(5)
C26 C -0.1491(10) 1.1396(11) 0.2354(9)
H14 H -0.1029 1.0541 0.2459
H15 H -0.2433 1.1337 0.2283
H16 H -0.1479 1.1907 0.2908
C27 C -0.1397(14) 1.3240(12) 0.1232(13)
H17 H -0.2385 1.3240 0.1324
H18 H -0.1063 1.3481 0.0558
H19 H -0.1171 1.3852 0.1655
C28 C -0.1218(15) 1.1113(16) 0.0638(12)
H20 H -0.0845 1.0225 0.0739
H21 H -0.0852 1.1424 -0.0013
H22 H -0.2209 1.1172 0.0711
C29 C 0.3836(7) 1.2398(6) -0.0623(4)
C30 C 0.3606(9) 1.1477(8) -0.1410(5)
H23 H 0.4134 1.1703 -0.2035
H24 H 0.2640 1.1563 -0.1463
H25 H 0.3903 1.0595 -0.1217
C31 C 0.3428(10) 1.3783(8) -0.0936(6)
H26 H 0.3979 1.3990 -0.1557
H27 H 0.3579 1.4346 -0.0449
H28 H 0.2466 1.3899 -0.1003
C32 C 0.5416(8) 1.2160(9) -0.0616(5)
H29 H 0.5902 1.2415 -0.1249
H30 H 0.5680 1.1255 -0.0475
H31 H 0.5645 1.2664 -0.0120
N1A N 0.5003(4) 1.1587(3) 0.4019(3)
H1A H 0.5060 1.0884 0.4384
N2A N 0.6195(4) 1.0804(3) 0.5816(3)
C1A C 0.4305(5) 1.1796(4) 0.3247(3)
C2A C 0.4463(6) 1.3071(5) 0.2849(4)
H2A H 0.4093 1.3470 0.2311
C3A C 0.5229(6) 1.3587(5) 0.3378(4)
H3A H 0.5489 1.4422 0.3282
C4A C 0.5591(5) 1.2658(4) 0.4120(4)
C5A C 0.6354(5) 1.2845(4) 0.4840(4)
C6A C 0.6623(5) 1.1981(5) 0.5620(4)
C7A C 0.7424(6) 1.2236(5) 0.6354(4)
H4A H 0.7846 1.2980 0.6392
C8A C 0.7437(6) 1.1182(5) 0.6970(4)
H5A H 0.7863 1.1071 0.7528
C9A C 0.6701(5) 1.0275(4) 0.6633(3)
C10A C 0.6473(5) 0.9054(5) 0.7081(3)
C11A C 0.6899(6) 1.4072(5) 0.4799(4)
C12A C 0.7326(6) 1.5063(5) 0.4740(4)
C13A C 0.7817(6) 1.6326(5) 0.4669(4)
C14A C 0.7279(6) 1.7301(5) 0.4085(4)
H6A H 0.6590 1.7151 0.3735
C15A C 0.8848(6) 1.6567(5) 0.5189(4)
H7A H 0.9219 1.5928 0.5607
C16A C 0.7735(7) 1.8488(5) 0.4010(5)
H8A H 0.7345 1.9150 0.3619
C17A C 0.9296(7) 1.7757(6) 0.5070(4)
H9A H 1.0007 1.7917 0.5395
C18A C 0.8751(8) 1.8713(6) 0.4499(5)
H10A H 0.9071 1.9525 0.4442
C19A C 0.7147(6) 0.8635(5) 0.7943(4)
C20A C 0.8561(6) 0.8530(5) 0.7863(4)
H11A H 0.9086 0.8717 0.7255
C21A C 0.6373(6) 0.8343(4) 0.8840(4)
H12A H 0.5414 0.8404 0.8896
C22A C 0.9239(6) 0.8151(6) 0.8663(4)
C23A C 0.6985(6) 0.7963(5) 0.9659(4)
C24A C 0.8403(6) 0.7886(6) 0.9534(4)
H13A H 0.8828 0.7634 1.0081
C25A C 1.0782(7) 0.7990(8) 0.8537(5)
C26A C 1.1491(10) 0.8604(11) 0.7646(9)
H14A H 1.1029 0.9459 0.7541
H15A H 1.2433 0.8663 0.7717
H16A H 1.1479 0.8093 0.7092
C27A C 1.1397(14) 0.6760(12) 0.8768(13)
H17A H 1.2385 0.6760 0.8676
H18A H 1.1063 0.6519 0.9442
H19A H 1.1171 0.6148 0.8345
C28A C 1.1218(15) 0.8887(16) 0.9362(12)
H20A H 1.0845 0.9775 0.9261
H21A H 1.0852 0.8576 1.0013
H22A H 1.2209 0.8828 0.9289
C29A C 0.6164(7) 0.7602(6) 1.0623(4)
C30A C 0.6394(9) 0.8523(8) 1.1410(5)
H23A H 0.5866 0.8297 1.2035
H24A H 0.7360 0.8437 1.1463
H25A H 0.6097 0.9405 1.1217
C31A C 0.6572(10) 0.6217(8) 1.0936(6)
H26A H 0.6021 0.6010 1.1557
H27A H 0.6421 0.5654 1.0449
H28A H 0.7534 0.6101 1.1003
C32A C 0.4584(8) 0.7840(9) 1.0616(5)
H29A H 0.4098 0.7585 1.1249
H30A H 0.4320 0.8745 1.0475
H31A H 0.4355 0.7336 1.0120
C33? C -0.125(4) 1.110(3) 0.176(3)
C34? C -0.121(3) 1.3362(18) 0.2041(19)
C35? C -0.117(3) 1.263(3) 0.048(2)
C36? C 0.495(6) 1.131(5) -0.084(4)
C37? C 0.294(5) 1.274(6) -0.138(4)
C38? C 0.445(7) 1.358(5) -0.035(5)
H32? H -0.2235 1.1246 0.1789
H33? H -0.1041 1.0889 0.2416
H34? H -0.0867 1.0400 0.1344
H35? H -0.0753 1.4043 0.1668
H36? H -0.0933 1.3249 0.2679
H37? H -0.2195 1.3590 0.2115
H38? H -0.0526 1.3227 0.0203
H39? H -0.2091 1.3088 0.0598
H40? H -0.1147 1.1962 0.0025
H41? H 0.5050 1.0805 -0.0243
H42? H 0.5801 1.1652 -0.1102
H43? H 0.4709 1.0776 -0.1311
H44? H 0.3509 1.2927 -0.2001
H45? H 0.2299 1.3483 -0.1193
H46? H 0.2446 1.2018 -0.1446
H47? H 0.5169 1.3299 0.0039
H48? H 0.3740 1.4150 0.0026
H49? H 0.4841 1.4041 -0.0938
loop_
_geom_bond_atom_site_label_1
_geom_bond_atom_site_label_2
_geom_bond_site_symmetry_1
_geom_bond_site_symmetry_2
N1 H1 1_555 1_555
N2 C6 1_555 1_555
C1 N1 1_555 1_555
C2 C1 1_555 1_555
H2 C2 1_555 1_555
C3 C2 1_555 1_555
H3 C3 1_555 1_555
C4 N1 1_555 1_555
C5 C4 1_555 1_555
C6 C5 1_555 1_555
C7 C6 1_555 1_555
H4 C7 1_555 1_555
C8 C7 1_555 1_555
H5 C8 1_555 1_555
C9 N2 1_555 1_555
C10 C9 1_555 1_555
C11 C5 1_555 1_555
C12 C11 1_555 1_555
C13 C12 1_555 1_555
C14 C13 1_555 1_555
H6 C14 1_555 1_555
C15 C13 1_555 1_555
H7 C15 1_555 1_555
C16 C14 1_555 1_555
H8 C16 1_555 1_555
C17 C15 1_555 1_555
H9 C17 1_555 1_555
C18 C16 1_555 1_555
H10 C18 1_555 1_555
C19 C10 1_555 1_555
C20 C19 1_555 1_555
H11 C20 1_555 1_555
C21 C19 1_555 1_555
H12 C21 1_555 1_555
C22 C20 1_555 1_555
C23 C21 1_555 1_555
C24 C22 1_555 1_555
H13 C24 1_555 1_555
C25 C22 1_555 1_555
C26 C25 1_555 1_555
H14 C26 1_555 1_555
H15 C26 1_555 1_555
H16 C26 1_555 1_555
C27 C25 1_555 1_555
H17 C27 1_555 1_555
H18 C27 1_555 1_555
H19 C27 1_555 1_555
C28 C25 1_555 1_555
H20 C28 1_555 1_555
H21 C28 1_555 1_555
H22 C28 1_555 1_555
C29 C23 1_555 1_555
C30 C29 1_555 1_555
H23 C30 1_555 1_555
H24 C30 1_555 1_555
H25 C30 1_555 1_555
C31 C29 1_555 1_555
H26 C31 1_555 1_555
H27 C31 1_555 1_555
H28 C31 1_555 1_555
C32 C29 1_555 1_555
H29 C32 1_555 1_555
H30 C32 1_555 1_555
H31 C32 1_555 1_555
N1A H1A 1_555 1_555
N2A C6A 1_555 1_555
C1A C10 1_555 1_555
C2A C1A 1_555 1_555
H2A C2A 1_555 1_555
C3A C2A 1_555 1_555
H3A C3A 1_555 1_555
C4A N1A 1_555 1_555
C5A C4A 1_555 1_555
C6A C5A 1_555 1_555
C7A C6A 1_555 1_555
H4A C7A 1_555 1_555
C8A C7A 1_555 1_555
H5A C8A 1_555 1_555
C9A N2A 1_555 1_555
C10A C1 1_555 1_555
C11A C5A 1_555 1_555
C12A C11A 1_555 1_555
C13A C12A 1_555 1_555
C14A C13A 1_555 1_555
H6A C14A 1_555 1_555
C15A C13A 1_555 1_555
H7A C15A 1_555 1_555
C16A C14A 1_555 1_555
H8A C16A 1_555 1_555
C17A C15A 1_555 1_555
H9A C17A 1_555 1_555
C18A C16A 1_555 1_555
H10A C18A 1_555 1_555
C19A C10A 1_555 1_555
C20A C19A 1_555 1_555
H11A C20A 1_555 1_555
C21A C19A 1_555 1_555
H12A C21A 1_555 1_555
C22A C20A 1_555 1_555
C23A C21A 1_555 1_555
C24A C22A 1_555 1_555
H13A C24A 1_555 1_555
C25A C22A 1_555 1_555
C26A C25A 1_555 1_555
H14A C26A 1_555 1_555
H15A C26A 1_555 1_555
H16A C26A 1_555 1_555
C27A C25A 1_555 1_555
H17A C27A 1_555 1_555
H18A C27A 1_555 1_555
H19A C27A 1_555 1_555
C28A C25A 1_555 1_555
H20A C28A 1_555 1_555
H21A C28A 1_555 1_555
H22A C28A 1_555 1_555
C29A C23A 1_555 1_555
C30A C29A 1_555 1_555
H23A C30A 1_555 1_555
H24A C30A 1_555 1_555
H25A C30A 1_555 1_555
C31A C29A 1_555 1_555
H26A C31A 1_555 1_555
H27A C31A 1_555 1_555
H28A C31A 1_555 1_555
C32A C29A 1_555 1_555
H29A C32A 1_555 1_555
H30A C32A 1_555 1_555
H31A C32A 1_555 1_555
C3 C4 1_555 1_555
C8 C9 1_555 1_555
C17 C18 1_555 1_555
C23 C24 1_555 1_555
N1A C1A 1_555 1_555
C3A C4A 1_555 1_555
C8A C9A 1_555 1_555
C9A C10A 1_555 1_555
C17A C18A 1_555 1_555
C23A C24A 1_555 1_555

#END
