
#######################################################################
#
#                 Cambridge Crystallographic Data Centre
#                                CCDC 
#
#######################################################################
#
# If this CIF has been generated from an entry in the Cambridge 
# Structural Database, then it will include bibliographic, chemical, 
# crystal, experimental, refinement or atomic coordinate data resulting 
# from the CCDC's data processing and validation procedures.
#
#######################################################################

data_AJEVAN
_chemical_formula_moiety         'C7 H8 N2 O1'
_chemical_name_systematic        2-(Hydrazonomethyl)phenol
_symmetry_cell_setting           monoclinic
_symmetry_space_group_name_H-M   'P 21/c'
_symmetry_Int_Tables_number      14
_space_group_name_Hall           '-P 2ybc'
loop_
_symmetry_equiv_pos_site_id
_symmetry_equiv_pos_as_xyz
1 x,y,z
2 -x,1/2+y,1/2-z
3 -x,-y,-z
4 x,1/2-y,1/2+z
_cell_length_a                   14.1010(11)
_cell_length_b                   6.0062(5)
_cell_length_c                   8.1979(6)
_cell_angle_alpha                90
_cell_angle_beta                 102.5250(10)
_cell_angle_gamma                90
_cell_volume                     677.785
_exptl_crystal_colour            yellow
_exptl_crystal_description       block
_cell_formula_units_Z            4
_exptl_crystal_recrystallization_method ethanol
loop_
_atom_site_label
_atom_site_type_symbol
_atom_site_fract_x
_atom_site_fract_y
_atom_site_fract_z
C1 C 0.22022(10) -0.1162(2) 0.13139(16)
C2 C 0.27892(11) -0.2576(3) 0.24310(18)
H1 H 0.2554 -0.3958 0.2670
C3 C 0.37226(12) -0.1944(3) 0.3192(2)
H2 H 0.4111 -0.2898 0.3948
C4 C 0.40836(11) 0.0097(3) 0.2837(2)
H3 H 0.4715 0.0513 0.3339
C5 C 0.34970(11) 0.1512(3) 0.17277(19)
H4 H 0.3743 0.2881 0.1487
C6 C 0.25465(9) 0.0945(2) 0.09582(16)
C7 C 0.19290(10) 0.2536(2) -0.01248(16)
H5 H 0.2190 0.3883 -0.0376
N1 N 0.10354(8) 0.21085(19) -0.07344(14)
N2 N 0.04759(9) 0.3659(2) -0.17427(15)
H6 H 0.0693 0.4889 -0.2059
H7 H -0.0089 0.3460 -0.1530
O1 O 0.12928(7) -0.18636(16) 0.05811(13)
H8 H 0.0993 -0.0840 0.0039
loop_
_geom_bond_atom_site_label_1
_geom_bond_atom_site_label_2
_geom_bond_site_symmetry_1
_geom_bond_site_symmetry_2
C1 C2 1_555 1_555
C2 H1 1_555 1_555
C3 C2 1_555 1_555
H2 C3 1_555 1_555
C4 C3 1_555 1_555
H3 C4 1_555 1_555
C5 C4 1_555 1_555
H4 C5 1_555 1_555
C6 C1 1_555 1_555
C7 C6 1_555 1_555
H5 C7 1_555 1_555
N1 C7 1_555 1_555
N2 N1 1_555 1_555
H6 N2 1_555 1_555
H7 N2 1_555 1_555
O1 C1 1_555 1_555
H8 O1 1_555 1_555
C5 C6 1_555 1_555

#END
