
#######################################################################
#
#                 Cambridge Crystallographic Data Centre
#                                CCDC 
#
#######################################################################
#
# If this CIF has been generated from an entry in the Cambridge 
# Structural Database, then it will include bibliographic, chemical, 
# crystal, experimental, refinement or atomic coordinate data resulting 
# from the CCDC's data processing and validation procedures.
#
#######################################################################

data_AJIWIB
_chemical_formula_moiety         'C26 H21 Cl1 N2 O2'
_chemical_name_systematic        
3-benzoyl-1-(2-chloro-1-phenylvinyl)-1,5,6,10b-tetrahydropyrazolo[5,1-a]isoquinolin-2(3H)-one
_symmetry_cell_setting           orthorhombic
_symmetry_space_group_name_H-M   'P 21 21 21'
_symmetry_Int_Tables_number      19
_space_group_name_Hall           'P 2ac 2ab'
loop_
_symmetry_equiv_pos_site_id
_symmetry_equiv_pos_as_xyz
1 x,y,z
2 1/2-x,-y,1/2+z
3 -x,1/2+y,1/2-z
4 1/2+x,1/2-y,-z
_cell_length_a                   9.5286(2)
_cell_length_b                   10.2653(3)
_cell_length_c                   21.7873(5)
_cell_angle_alpha                90
_cell_angle_beta                 90
_cell_angle_gamma                90
_cell_volume                     2131.1
_exptl_crystal_colour            yellow
_exptl_crystal_description       block
_cell_formula_units_Z            4
loop_
_atom_site_label
_atom_site_type_symbol
_atom_site_fract_x
_atom_site_fract_y
_atom_site_fract_z
C1 C -0.0052(3) 0.6025(2) 1.01864(11)
H1 H -0.103 0.6252 1.0077
H2 H -0.0041 0.569 1.0613
C2 C 0.0510(3) 0.5003(2) 0.97494(11)
H3 H 0.1466 0.4741 0.9878
H4 H -0.0099 0.4223 0.9762
C3 C 0.0556(2) 0.5531(2) 0.91059(11)
C4 C 0.0538(2) 0.4694(2) 0.86017(12)
H5 H 0.0528 0.3779 0.8667
C5 C 0.0536(3) 0.5174(3) 0.80091(11)
H6 H 0.0527 0.459 0.7671
C6 C 0.0547(3) 0.6512(3) 0.79081(11)
H7 H 0.0521 0.6847 0.7502
C7 C 0.0596(3) 0.7350(2) 0.84048(11)
H8 H 0.0622 0.8264 0.8335
C8 C 0.0608(2) 0.6881(2) 0.90050(11)
C9 C 0.0718(2) 0.7844(2) 0.95278(10)
H9 H 0.1585 0.8374 0.946
C10 C -0.0516(2) 0.8796(2) 0.96054(10)
H10 H -0.1411 0.8317 0.9525
C11 C -0.0436(2) 0.9117(2) 1.02864(11)
C12 C 0.1052(2) 0.8157(3) 1.11403(10)
C13 C 0.0675(2) 0.9183(2) 1.15940(10)
C14 C 0.1788(3) 0.9889(3) 1.18387(11)
H11 H 0.2714 0.975 1.1691
C15 C 0.1547(3) 1.0794(3) 1.22975(12)
H12 H 0.2301 1.13 1.2454
C16 C 0.0212(3) 1.0960(3) 1.25278(12)
H13 H 0.005 1.1572 1.2847
C17 C -0.0891(3) 1.0240(3) 1.22967(12)
H14 H -0.1806 1.035 1.2462
C18 C -0.0672(3) 0.9355(2) 1.18232(11)
H15 H -0.1435 0.8873 1.1658
C19 C -0.0513(3) 1.0039(2) 0.92303(10)
C20 C -0.1740(3) 1.0416(2) 0.90063(11)
H16 H -0.2509 0.9833 0.9044
C21 C 0.0815(2) 1.0796(2) 0.91561(11)
C22 C 0.1432(3) 1.0905(2) 0.85779(11)
H17 H 0.0989 1.0511 0.8234
C23 C 0.2679(3) 1.1578(2) 0.84961(12)
H18 H 0.3091 1.1632 0.81
C24 C 0.3324(3) 1.2171(2) 0.89933(13)
H19 H 0.4176 1.2638 0.8939
C25 C 0.2723(3) 1.2079(2) 0.95672(12)
H20 H 0.316 1.2492 0.9907
C26 C 0.1487(3) 1.1389(2) 0.96534(11)
H21 H 0.1094 1.132 1.0053
Cl1 Cl -0.20423(7) 1.18999(6) 0.86502(3)
N1 N 0.0403(2) 0.81580(19) 1.05609(9)
N2 N 0.0862(2) 0.71848(18) 1.01337(8)
O1 O -0.09652(19) 1.00295(17) 1.05443(7)
O2 O 0.1911(2) 0.73275(18) 1.12588(8)
loop_
_geom_bond_atom_site_label_1
_geom_bond_atom_site_label_2
_geom_bond_site_symmetry_1
_geom_bond_site_symmetry_2
C1 H1 1_555 1_555
H2 C1 1_555 1_555
C2 C1 1_555 1_555
H3 C2 1_555 1_555
H4 C2 1_555 1_555
C3 C2 1_555 1_555
C4 C3 1_555 1_555
H5 C4 1_555 1_555
C5 C4 1_555 1_555
H6 C5 1_555 1_555
C6 C5 1_555 1_555
H7 C6 1_555 1_555
C7 C6 1_555 1_555
H8 C7 1_555 1_555
C8 C3 1_555 1_555
C9 C8 1_555 1_555
H9 C9 1_555 1_555
C10 C9 1_555 1_555
H10 C10 1_555 1_555
C11 C10 1_555 1_555
C12 C13 1_555 1_555
C13 C14 1_555 1_555
C14 H11 1_555 1_555
C15 C14 1_555 1_555
H12 C15 1_555 1_555
C16 C15 1_555 1_555
H13 C16 1_555 1_555
C17 C16 1_555 1_555
H14 C17 1_555 1_555
C18 C13 1_555 1_555
H15 C18 1_555 1_555
C19 C10 1_555 1_555
C20 C19 1_555 1_555
H16 C20 1_555 1_555
C21 C19 1_555 1_555
C22 C21 1_555 1_555
H17 C22 1_555 1_555
C23 C22 1_555 1_555
H18 C23 1_555 1_555
C24 C23 1_555 1_555
H19 C24 1_555 1_555
C25 C24 1_555 1_555
H20 C25 1_555 1_555
C26 C21 1_555 1_555
H21 C26 1_555 1_555
Cl1 C20 1_555 1_555
N1 C11 1_555 1_555
N2 C1 1_555 1_555
O1 C11 1_555 1_555
O2 C12 1_555 1_555
C7 C8 1_555 1_555
C9 N2 1_555 1_555
C12 N1 1_555 1_555
C17 C18 1_555 1_555
C25 C26 1_555 1_555
N1 N2 1_555 1_555

#END
