
#######################################################################
#
#                 Cambridge Crystallographic Data Centre
#                                CCDC 
#
#######################################################################
#
# If this CIF has been generated from an entry in the Cambridge 
# Structural Database, then it will include bibliographic, chemical, 
# crystal, experimental, refinement or atomic coordinate data resulting 
# from the CCDC's data processing and validation procedures.
#
#######################################################################

data_AJOBUY
_chemical_formula_moiety         'C38 H32 O8,C1 H1 Cl3'
_chemical_name_systematic        
"15b-hydroxy-2,3,8,9-tetramethoxy-10b,10c,15b,16a-tetrahydro-6H-spiro[dibenzo[3',4':7',8']cycloocta[1',2':3,4]cyclopenta[1,2-a]indene-16,2'-indene]-1',3',11(5H)-trione chloroform solvate"
_symmetry_cell_setting           orthorhombic
_symmetry_space_group_name_H-M   'P n a 21'
_symmetry_Int_Tables_number      33
_space_group_name_Hall           'P 2c -2n'
loop_
_symmetry_equiv_pos_site_id
_symmetry_equiv_pos_as_xyz
1 x,y,z
2 -x,-y,1/2+z
3 1/2-x,1/2+y,1/2+z
4 1/2+x,1/2-y,z
_cell_length_a                   27.33(2)
_cell_length_b                   11.483(9)
_cell_length_c                   10.837(8)
_cell_angle_alpha                90
_cell_angle_beta                 90
_cell_angle_gamma                90
_cell_volume                     3400.98
_exptl_crystal_colour            colorless
_exptl_crystal_description       block
_cell_formula_units_Z            4
loop_
_atom_site_label
_atom_site_type_symbol
_atom_site_fract_x
_atom_site_fract_y
_atom_site_fract_z
C1 C 0.3264(2) 0.1283(6) 0.4192(6)
H1 H 0.3280 0.1967 0.3685
H2 H 0.3114 0.1473 0.4967
H3 H 0.3074 0.0696 0.3781
C2 C 0.3814(3) -0.2516(5) 0.3346(7)
H4 H 0.3768 -0.2727 0.2496
H5 H 0.3599 -0.2973 0.3854
H6 H 0.4147 -0.2661 0.3580
C3 C 0.43269(16) 0.3974(4) 0.0612(4)
C4 C 0.3989(2) 0.0589(4) 0.3313(5)
C5 C 0.42504(17) 0.1422(4) 0.2727(5)
H7 H 0.4264 0.2164 0.3069
C6 C 0.44997(16) 0.1209(4) 0.1628(5)
C7 C 0.44863(17) 0.0080(4) 0.1156(5)
C8 C 0.42206(18) -0.0773(4) 0.1781(6)
H8 H 0.4206 -0.1520 0.1453
C9 C 0.39797(19) -0.0541(4) 0.2867(6)
C10 C 0.4772(2) -0.0274(4) 0.0014(5)
H9 H 0.4664 -0.1048 -0.0219
H10 H 0.5113 -0.0337 0.0249
C11 C 0.47458(18) 0.0501(4) -0.1149(5)
H11 H 0.5001 0.1086 -0.1100
H12 H 0.4812 0.0023 -0.1868
C12 C 0.47892(17) 0.2131(4) 0.0975(5)
H13 H 0.5067(17) 0.175(4) 0.058(5)
C13 C 0.45113(17) 0.2838(4) -0.0043(4)
H14 H 0.4766(16) 0.310(4) -0.062(5)
C14 C 0.42648(18) 0.1100(4) -0.1326(4)
C15 C 0.41447(18) 0.2191(4) -0.0832(4)
C16 C 0.37011(18) 0.2677(4) -0.1163(5)
H15 H 0.3630 0.3431 -0.0906
C17 C 0.33614(18) 0.2088(4) -0.1857(5)
C18 C 0.3468(2) 0.1004(4) -0.2288(5)
C19 C 0.39114(19) 0.0507(4) -0.2038(5)
H16 H 0.3981 -0.0232 -0.2341
C20 C 0.3202(2) -0.0716(4) -0.3360(6)
H17 H 0.3475 -0.0689 -0.3916
H18 H 0.2921 -0.1016 -0.3784
H19 H 0.3280 -0.1212 -0.2674
C21 C 0.2779(2) 0.3650(5) -0.1698(7)
H20 H 0.2784 0.3651 -0.0812
H21 H 0.2458 0.3856 -0.1982
H22 H 0.3012 0.4205 -0.2002
C22 C 0.50003(18) 0.3115(4) 0.1824(4)
H23 H 0.4978(17) 0.288(4) 0.269(5)
C23 C 0.47280(16) 0.4244(4) 0.1639(4)
C24 C 0.55274(18) 0.3343(5) 0.1492(5)
C25 C 0.55699(17) 0.4603(4) 0.1175(4)
C26 C 0.51206(17) 0.5105(4) 0.1297(4)
C27 C 0.5087(2) 0.6323(4) 0.1179(5)
H24 H 0.4789 0.6705 0.1263
C28 C 0.5507(2) 0.6923(5) 0.0938(6)
H25 H 0.5492 0.7731 0.0889
C29 C 0.5939(2) 0.6397(5) 0.0768(7)
H26 H 0.6212 0.6834 0.0548
C30 C 0.59809(19) 0.5214(5) 0.0920(6)
H27 H 0.6282 0.4843 0.0849
C31 C 0.42913(18) 0.5021(4) -0.0290(4)
C32 C 0.38170(16) 0.3985(4) 0.1200(4)
C33 C 0.38450(17) 0.5657(4) -0.0041(4)
C34 C 0.35741(17) 0.5091(4) 0.0867(5)
C35 C 0.31234(18) 0.5527(4) 0.1268(5)
H28 H 0.2941 0.5144 0.1868
C36 C 0.2962(2) 0.6544(5) 0.0737(6)
H29 H 0.2666 0.6862 0.0989
C37 C 0.3237(2) 0.7116(5) -0.0180(6)
H30 H 0.3113 0.7790 -0.0537
C38 C 0.3681(2) 0.6704(5) -0.0557(6)
H31 H 0.3867 0.7105 -0.1136
O1 O 0.37437(15) 0.0857(3) 0.4403(4)
O2 O 0.37073(18) -0.1328(4) 0.3503(4)
O3 O 0.30978(14) 0.0445(3) -0.2914(3)
O4 O 0.29021(13) 0.2521(3) -0.2139(4)
O5 O 0.58552(13) 0.2636(3) 0.1522(4)
O6 O 0.44661(13) 0.4655(3) 0.2708(3)
O7 O 0.45914(12) 0.5240(3) -0.1072(3)
O8 O 0.36249(13) 0.3238(3) 0.1780(4)
H32 H 0.4774(19) 0.481(4) 0.313(5)
C39 C 0.2563(2) 0.0600(5) 0.0040(7)
H33 H 0.265(2) 0.104(5) -0.071(7)
Cl1 Cl 0.22301(7) -0.06275(16) -0.0375(2)
Cl2 Cl 0.31096(7) 0.02114(17) 0.07943(19)
Cl3 Cl 0.22152(9) 0.14935(17) 0.1004(3)
loop_
_geom_bond_atom_site_label_1
_geom_bond_atom_site_label_2
_geom_bond_site_symmetry_1
_geom_bond_site_symmetry_2
C1 H1 1_555 1_555
H2 C1 1_555 1_555
H3 C1 1_555 1_555
C2 H4 1_555 1_555
H5 C2 1_555 1_555
H6 C2 1_555 1_555
C3 C13 1_555 1_555
C4 C5 1_555 1_555
C5 H7 1_555 1_555
C6 C5 1_555 1_555
C7 C6 1_555 1_555
C8 C7 1_555 1_555
H8 C8 1_555 1_555
C9 C4 1_555 1_555
C10 C7 1_555 1_555
H9 C10 1_555 1_555
H10 C10 1_555 1_555
C11 C10 1_555 1_555
H11 C11 1_555 1_555
H12 C11 1_555 1_555
C12 C6 1_555 1_555
H13 C12 1_555 1_555
C13 C12 1_555 1_555
H14 C13 1_555 1_555
C14 C11 1_555 1_555
C15 C13 1_555 1_555
C16 C15 1_555 1_555
H15 C16 1_555 1_555
C17 C16 1_555 1_555
C18 C17 1_555 1_555
C19 C14 1_555 1_555
H16 C19 1_555 1_555
C20 H17 1_555 1_555
H18 C20 1_555 1_555
H19 C20 1_555 1_555
C21 H20 1_555 1_555
H21 C21 1_555 1_555
H22 C21 1_555 1_555
C22 C12 1_555 1_555
H23 C22 1_555 1_555
C23 C3 1_555 1_555
C24 C22 1_555 1_555
C25 C24 1_555 1_555
C26 C23 1_555 1_555
C27 C26 1_555 1_555
H24 C27 1_555 1_555
C28 C27 1_555 1_555
H25 C28 1_555 1_555
C29 C28 1_555 1_555
H26 C29 1_555 1_555
C30 C25 1_555 1_555
H27 C30 1_555 1_555
C31 C3 1_555 1_555
C32 C3 1_555 1_555
C33 C31 1_555 1_555
C34 C32 1_555 1_555
C35 C34 1_555 1_555
H28 C35 1_555 1_555
C36 C35 1_555 1_555
H29 C36 1_555 1_555
C37 C36 1_555 1_555
H30 C37 1_555 1_555
C38 C33 1_555 1_555
H31 C38 1_555 1_555
O1 C1 1_555 1_555
O2 C2 1_555 1_555
O3 C18 1_555 1_555
O4 C17 1_555 1_555
O5 C24 1_555 1_555
O6 C23 1_555 1_555
O7 C31 1_555 1_555
O8 C32 1_555 1_555
H32 O6 1_555 1_555
C39 H33 1_555 1_555
Cl1 C39 1_555 1_555
Cl2 C39 1_555 1_555
Cl3 C39 1_555 1_555
C4 O1 1_555 1_555
C8 C9 1_555 1_555
C9 O2 1_555 1_555
C14 C15 1_555 1_555
C18 C19 1_555 1_555
C20 O3 1_555 1_555
C21 O4 1_555 1_555
C22 C23 1_555 1_555
C25 C26 1_555 1_555
C29 C30 1_555 1_555
C33 C34 1_555 1_555
C37 C38 1_555 1_555

#END
