
#######################################################################
#
#                 Cambridge Crystallographic Data Centre
#                                CCDC 
#
#######################################################################
#
# If this CIF has been generated from an entry in the Cambridge 
# Structural Database, then it will include bibliographic, chemical, 
# crystal, experimental, refinement or atomic coordinate data resulting 
# from the CCDC's data processing and validation procedures.
#
#######################################################################

data_AJOFOW
_chemical_formula_moiety         
'C24 H24 N2 O2,C15 H22 N4 O3,0.5(C2 D2 Cl4),2(H2 O1)'
_chemical_name_systematic        
"(1R,5S,7r)-1,5,7-Trimethyl-7-([4-(pyridin-2-yl)phenyl]ethynyl)-3-azabicyclo[3.3.1]nonane-2,4-dione N,N'-(4-(methylcarbamoyl)pyridine-2,6-diyl)bis(2-methylpropanamide) 1,1,2,2-tetrachloro-1,2-dideuteroethane solvate dihydrate"
_symmetry_cell_setting           monoclinic
_symmetry_space_group_name_H-M   'P 21/c'
_symmetry_Int_Tables_number      14
_space_group_name_Hall           '-P 2ybc'
loop_
_symmetry_equiv_pos_site_id
_symmetry_equiv_pos_as_xyz
1 x,y,z
2 -x,1/2+y,1/2-z
3 -x,-y,-z
4 x,1/2-y,1/2+z
_cell_length_a                   14.1615(14)
_cell_length_b                   18.6189(18)
_cell_length_c                   15.8078(14)
_cell_angle_alpha                90
_cell_angle_beta                 105.047(2)
_cell_angle_gamma                90
_cell_volume                     4025.16
_exptl_crystal_colour            'light yellow'
_exptl_crystal_description       plate
_cell_formula_units_Z            4
loop_
_atom_site_label
_atom_site_type_symbol
_atom_site_fract_x
_atom_site_fract_y
_atom_site_fract_z
C1 C 1.04078(15) 0.23401(11) 0.57633(12)
C2 C 1.14675(15) 0.24780(10) 0.57899(12)
C3 C 1.01726(16) 0.36141(11) 0.60649(14)
C4 C 1.21112(15) 0.23883(11) 0.67349(13)
H1 H 1.1995 0.1903 0.6943
H2 H 1.2805 0.2411 0.6720
C5 C 0.95480(16) 0.23902(12) 0.82780(13)
C6 C 1.12232(16) 0.37784(11) 0.60684(15)
C7 C 0.78582(15) 0.20560(11) 0.88275(13)
C8 C 1.15661(16) 0.32423(11) 0.54752(13)
H3 H 1.1166 0.3298 0.4864
H4 H 1.2257 0.3339 0.5488
C9 C 1.19528(16) 0.29410(12) 0.74105(13)
N1 N 0.63457(16) 0.24494(13) 0.91679(14)
C10 C 1.03925(16) 0.25762(12) 0.79700(13)
C11 C 0.6739(2) 0.11899(14) 0.92485(15)
H5 H 0.7162 0.0807 0.9192
C12 C 1.10739(16) 0.27554(12) 0.77056(13)
C13 C 1.18841(16) 0.37035(12) 0.70075(14)
H6 H 1.1641 0.4035 0.7393
H7 H 1.2552 0.3861 0.7008
C14 C 0.89889(17) 0.29309(12) 0.85239(14)
H8 H 0.9181 0.3418 0.8507
C15 C 0.69492(17) 0.18861(13) 0.90926(13)
C16 C 1.18057(16) 0.19285(12) 0.52104(14)
H9 H 1.1723 0.1443 0.5418
H10 H 1.2497 0.2010 0.5238
H11 H 1.1414 0.1981 0.4604
C17 C 0.81602(17) 0.27655(12) 0.87919(14)
H12 H 0.7790 0.3142 0.8955
C18 C 0.92568(18) 0.16784(12) 0.83231(15)
H13 H 0.9635 0.1302 0.8172
C19 C 0.84238(18) 0.15167(13) 0.85854(15)
H14 H 0.8231 0.1029 0.8602
C20 C 1.12763(19) 0.45522(12) 0.57518(19)
H15 H 1.0883 0.4595 0.5145
H16 H 1.1958 0.4675 0.5784
H17 H 1.1022 0.4881 0.6124
C21 C 1.28411(18) 0.29174(15) 0.82148(15)
H18 H 1.2882 0.2443 0.8490
H19 H 1.2767 0.3285 0.8636
H20 H 1.3439 0.3009 0.8030
C22 C 0.5878(3) 0.10669(19) 0.94930(18)
H21 H 0.5705 0.0588 0.9596
C23 C 0.5526(2) 0.2294(2) 0.94201(18)
H22 H 0.5108 0.2679 0.9481
C24 C 0.5269(2) 0.1618(2) 0.95902(18)
H23 H 0.4689 0.1529 0.9770
N2 N 0.98364(12) 0.29265(9) 0.58457(11)
H24 H 0.9203 0.2854 0.5750
O1 O 1.00362(11) 0.17422(8) 0.56779(10)
O2 O 0.96243(12) 0.40569(8) 0.62535(12)
C25 C 0.26929(15) 0.69027(10) 0.34893(13)
C26 C 0.38636(15) 0.77565(11) 0.32818(13)
N3 N 0.21316(12) 0.74155(9) 0.37102(11)
C27 C 0.24306(15) 0.80963(11) 0.37029(13)
C28 C 0.35519(15) 0.70486(11) 0.32506(13)
H25 H 0.3914 0.6675 0.3072
C29 C 0.48277(15) 0.79145(11) 0.30918(13)
C30 C 0.27896(16) 0.55681(11) 0.34703(14)
C31 C 0.33035(16) 0.82932(11) 0.35144(14)
H26 H 0.3508 0.8781 0.3545
C32 C 0.10330(17) 0.97233(11) 0.41537(15)
H27 H 0.0413 0.9439 0.4024
C33 C 0.17773(17) 0.93271(11) 0.37799(15)
C34 C 0.58571(16) 0.88156(12) 0.26617(15)
H28 H 0.5773 0.9297 0.2402
H29 H 0.6056 0.8482 0.2260
H30 H 0.6362 0.8829 0.3219
C35 C 0.21535(17) 0.49116(11) 0.34840(16)
H31 H 0.1624 0.5045 0.3768
C36 C 0.08177(17) 1.04587(11) 0.37400(15)
H32 H 0.1429 1.0729 0.3826
H33 H 0.0373 1.0717 0.4015
H34 H 0.0512 1.0406 0.3112
C37 C 0.2761(2) 0.43067(13) 0.40067(17)
H35 H 0.3322 0.4206 0.3770
H36 H 0.2357 0.3874 0.3964
H37 H 0.2994 0.4451 0.4622
C38 C 0.1437(2) 0.97853(13) 0.51512(16)
H38 H 0.1527 0.9304 0.5410
H39 H 0.0975 1.0055 0.5395
H40 H 0.2067 1.0036 0.5285
C39 C 0.1688(2) 0.46875(14) 0.25377(19)
H41 H 0.1300 0.5087 0.2222
H42 H 0.1263 0.4271 0.2532
H43 H 0.2203 0.4561 0.2252
N4 N 0.23218(13) 0.62063(9) 0.35040(11)
H44 H 0.1713 0.6176 0.3539
N5 N 0.49427(13) 0.85771(10) 0.28143(12)
H45 H 0.4448 0.8878 0.2721
N6 N 0.18010(13) 0.86018(9) 0.39238(12)
H46 H 0.1370 0.8433 0.4186
O3 O 0.23120(13) 0.96397(9) 0.34046(13)
O4 O 0.36273(12) 0.55137(8) 0.34062(11)
O5 O 0.54785(11) 0.74511(8) 0.32014(11)
O6 O 0.56679(12) 0.59295(9) 0.35076(12)
H47 H 0.5618 0.6385 0.3382
H48 H 0.5097 0.5761 0.3513
O7 O 0.38262(14) 0.51114(10) 0.75998(13)
H49 H 0.3917 0.4761 0.7266
H50 H 0.3229 0.5097 0.7650
Cl2 Cl 0.4183(4) 0.5671(2) 0.0651(3)
Cl3 Cl 0.59508(7) 0.58832(5) -0.00389(5)
C41 C 0.5188(5) 0.5251(3) 0.0358(3)
D2 D 0.5595 0.4985 0.0875
Cl2B Cl 0.5817(4) 0.4329(2) -0.0651(3)
Cl3B Cl 0.40492(7) 0.41168(5) 0.00389(5)
C41B C 0.4812(5) 0.4749(3) -0.0358(3)
D2B D 0.4405 0.5015 -0.0875
Cl1? Cl 0.41264(18) 0.56846(13) 0.06003(17)
C40? C 0.4733(5) 0.4897(4) 0.0368(4)
D1? D 0.5254 0.4776 0.0909
loop_
_geom_bond_atom_site_label_1
_geom_bond_atom_site_label_2
_geom_bond_site_symmetry_1
_geom_bond_site_symmetry_2
C1 C2 1_555 1_555
C2 C4 1_555 1_555
C3 C6 1_555 1_555
C4 H1 1_555 1_555
H2 C4 1_555 1_555
C5 C10 1_555 1_555
C6 C8 1_555 1_555
C7 C15 1_555 1_555
C8 C2 1_555 1_555
H3 C8 1_555 1_555
H4 C8 1_555 1_555
C9 C4 1_555 1_555
N1 C15 1_555 1_555
C10 C12 1_555 1_555
C11 H5 1_555 1_555
C12 C9 1_555 1_555
C13 C6 1_555 1_555
H6 C13 1_555 1_555
H7 C13 1_555 1_555
C14 C5 1_555 1_555
H8 C14 1_555 1_555
C15 C11 1_555 1_555
C16 C2 1_555 1_555
H9 C16 1_555 1_555
H10 C16 1_555 1_555
H11 C16 1_555 1_555
C17 C7 1_555 1_555
H12 C17 1_555 1_555
C18 C5 1_555 1_555
H13 C18 1_555 1_555
C19 C7 1_555 1_555
H14 C19 1_555 1_555
C20 C6 1_555 1_555
H15 C20 1_555 1_555
H16 C20 1_555 1_555
H17 C20 1_555 1_555
C21 C9 1_555 1_555
H18 C21 1_555 1_555
H19 C21 1_555 1_555
H20 C21 1_555 1_555
C22 C11 1_555 1_555
H21 C22 1_555 1_555
C23 N1 1_555 1_555
H22 C23 1_555 1_555
C24 C22 1_555 1_555
H23 C24 1_555 1_555
N2 C1 1_555 1_555
H24 N2 1_555 1_555
O1 C1 1_555 1_555
O2 C3 1_555 1_555
C25 N3 1_555 1_555
C26 C28 1_555 1_555
N3 C27 1_555 1_555
C27 C31 1_555 1_555
C28 C25 1_555 1_555
H25 C28 1_555 1_555
C29 C26 1_555 1_555
C30 C35 1_555 1_555
C31 C26 1_555 1_555
H26 C31 1_555 1_555
C32 H27 1_555 1_555
C33 C32 1_555 1_555
C34 H28 1_555 1_555
H29 C34 1_555 1_555
H30 C34 1_555 1_555
C35 H31 1_555 1_555
C36 C32 1_555 1_555
H32 C36 1_555 1_555
H33 C36 1_555 1_555
H34 C36 1_555 1_555
C37 C35 1_555 1_555
H35 C37 1_555 1_555
H36 C37 1_555 1_555
H37 C37 1_555 1_555
C38 C32 1_555 1_555
H38 C38 1_555 1_555
H39 C38 1_555 1_555
H40 C38 1_555 1_555
C39 C35 1_555 1_555
H41 C39 1_555 1_555
H42 C39 1_555 1_555
H43 C39 1_555 1_555
N4 C25 1_555 1_555
H44 N4 1_555 1_555
N5 C29 1_555 1_555
H45 N5 1_555 1_555
N6 C27 1_555 1_555
H46 N6 1_555 1_555
O3 C33 1_555 1_555
O4 C30 1_555 1_555
O5 C29 1_555 1_555
O6 H47 1_555 1_555
H48 O6 1_555 1_555
O7 H49 1_555 1_555
H50 O7 1_555 1_555
Cl2 C41 1_555 1_555
Cl3 C41 1_555 1_555
C41 D2 1_555 1_555
Cl2B C41B 1_555 1_555
Cl3B C41B 1_555 1_555
C41B C41 1_555 1_555
D2B C41B 1_555 1_555
C3 N2 1_555 1_555
C9 C13 1_555 1_555
C14 C17 1_555 1_555
C18 C19 1_555 1_555
C23 C24 1_555 1_555
C30 N4 1_555 1_555
C33 N6 1_555 1_555
C34 N5 1_555 1_555

#END
