
#######################################################################
#
#                 Cambridge Crystallographic Data Centre
#                                CCDC 
#
#######################################################################
#
# If this CIF has been generated from an entry in the Cambridge 
# Structural Database, then it will include bibliographic, chemical, 
# crystal, experimental, refinement or atomic coordinate data resulting 
# from the CCDC's data processing and validation procedures.
#
#######################################################################

data_AJOQEX
_chemical_formula_moiety         
'3(C8 H15 N2 1+),C36 H36 N24 O12,3(Br1 1-),H2 O1'
_chemical_name_systematic        
'[2]-(3-Butyl-1-methyl-1H-imidazol-3-ium)-(cucurbit[6]uril)-pseudorotaxane bis(3-butyl-1-methyl-1H-imidazol-3-ium) tribromide monohydrate'
_symmetry_cell_setting           orthorhombic
_symmetry_space_group_name_H-M   'P c a 21'
_symmetry_Int_Tables_number      29
_space_group_name_Hall           'P 2c -2ac'
loop_
_symmetry_equiv_pos_site_id
_symmetry_equiv_pos_as_xyz
1 x,y,z
2 -x,-y,1/2+z
3 1/2-x,y,1/2+z
4 1/2+x,-y,z
_cell_length_a                   17.4425(9)
_cell_length_b                   16.5302(9)
_cell_length_c                   24.3072(12)
_cell_angle_alpha                90
_cell_angle_beta                 90
_cell_angle_gamma                90
_cell_volume                     7008.45
_exptl_crystal_colour            colorless
_exptl_crystal_description       block
_cell_formula_units_Z            4
loop_
_atom_site_label
_atom_site_type_symbol
_atom_site_fract_x
_atom_site_fract_y
_atom_site_fract_z
O1 O 0.3508(3) 0.0272(3) 0.5081(2)
O2 O 0.5170(3) 0.2942(3) 0.3783(2)
O3 O 0.2583(3) 0.1664(3) 0.58276(18)
O4 O 0.4225(3) 0.4348(3) 0.45195(19)
O5 O 0.0727(3) 0.2558(3) 0.5274(2)
O6 O 0.2434(3) 0.5278(3) 0.4083(2)
O7 O -0.0274(3) 0.2032(3) 0.4089(2)
O8 O 0.1536(2) 0.4629(3) 0.28925(18)
O9 O 0.0651(3) 0.0639(3) 0.3349(2)
O10 O 0.2400(3) 0.3312(3) 0.20808(18)
O11 O 0.2486(3) -0.0226(3) 0.3843(2)
O12 O 0.4251(3) 0.2386(3) 0.2603(2)
N1 N 0.4357(3) 0.0543(3) 0.4376(2)
N2 N 0.5104(3) 0.1560(3) 0.3875(2)
N3 N 0.4428(3) 0.1272(3) 0.5144(2)
N4 N 0.5097(3) 0.2312(3) 0.4623(2)
N5 N 0.3763(3) 0.2270(3) 0.5698(2)
N6 N 0.4407(3) 0.3328(3) 0.5154(2)
N7 N 0.2739(3) 0.3049(3) 0.5749(2)
N8 N 0.3371(3) 0.4108(3) 0.5220(2)
N9 N 0.1544(3) 0.3639(3) 0.5404(2)
N10 N 0.2196(3) 0.4766(3) 0.4955(2)
N11 N 0.0569(3) 0.3768(3) 0.4835(2)
N12 N 0.1228(3) 0.4901(3) 0.4376(2)
N13 N -0.0146(3) 0.3417(3) 0.4012(2)
N14 N 0.0584(3) 0.4467(3) 0.3541(2)
N15 N -0.0203(3) 0.2682(3) 0.3244(2)
N16 N 0.0562(3) 0.3715(3) 0.2776(2)
N17 N 0.0543(3) 0.1718(3) 0.2741(2)
N18 N 0.1207(3) 0.2738(3) 0.2198(2)
N19 N 0.1545(3) 0.0895(3) 0.2673(2)
N20 N 0.2227(3) 0.1926(3) 0.2166(2)
N21 N 0.2724(3) 0.0253(3) 0.2971(3)
N22 N 0.3402(3) 0.1325(3) 0.2500(2)
N23 N 0.3695(3) 0.0126(3) 0.3545(2)
N24 N 0.4385(3) 0.1177(3) 0.3071(2)
C1 C 0.5075(4) 0.0969(3) 0.4318(3)
H1 H 0.5510 0.0594 0.4302
C2 C 0.4123(4) -0.0136(4) 0.4025(3)
H2 H 0.4576 -0.0428 0.3906
H3 H 0.3808 -0.0505 0.4238
C3 C 0.5126(4) 0.1349(4) 0.3297(3)
H4 H 0.5354 0.1792 0.3094
H5 H 0.5452 0.0879 0.3250
C4 C 0.5106(4) 0.1502(4) 0.4840(3)
H6 H 0.5573 0.1399 0.5054
C5 C 0.4030(4) 0.0655(4) 0.4888(3)
C6 C 0.5123(4) 0.2339(4) 0.4062(3)
C7 C 0.4075(4) 0.3081(4) 0.5679(3)
H7 H 0.4429 0.3179 0.5985
C8 C 0.4229(4) 0.1559(4) 0.5691(3)
H8 H 0.3960 0.1130 0.5884
H9 H 0.4698 0.1669 0.5892
C9 C 0.5145(4) 0.3051(4) 0.4949(3)
H10 H 0.5484 0.2956 0.5259
H11 H 0.5371 0.3474 0.4726
C10 C 0.3356(4) 0.3619(4) 0.5721(3)
H12 H 0.3373 0.3960 0.6050
C11 C 0.2978(4) 0.2261(4) 0.5767(3)
C12 C 0.4021(4) 0.3955(4) 0.4921(3)
C13 C 0.1555(3) 0.4487(4) 0.5271(3)
H13 H 0.1482 0.4819 0.5600
C14 C 0.1950(4) 0.3291(5) 0.5862(3)
H14 H 0.1669 0.2820 0.5988
H15 H 0.1954 0.3681 0.6160
C15 C 0.2966(3) 0.4849(4) 0.5167(3)
H16 H 0.3252 0.5203 0.4924
H17 H 0.2941 0.5108 0.5524
C16 C 0.0869(4) 0.4583(4) 0.4866(3)
H18 H 0.0484 0.4959 0.5011
C17 C 0.0915(4) 0.3248(4) 0.5180(3)
C18 C 0.2000(4) 0.4999(4) 0.4429(3)
C19 C -0.0127(3) 0.4016(4) 0.3588(3)
H19 H -0.0570 0.4379 0.3611
C20 C -0.0177(4) 0.3599(5) 0.4591(3)
H20 H -0.0406 0.3144 0.4782
H21 H -0.0507 0.4064 0.4646
C21 C 0.0806(4) 0.5129(4) 0.3887(3)
H22 H 0.0348 0.5418 0.3999
H23 H 0.1119 0.5499 0.3674
C22 C -0.0152(4) 0.3491(4) 0.3051(3)
H24 H -0.0597 0.3632 0.2824
C23 C -0.0208(3) 0.2634(4) 0.3812(3)
C24 C 0.0959(3) 0.4296(4) 0.3054(3)
C25 C 0.0885(3) 0.1936(4) 0.2229(3)
H25 H 0.0529 0.1841 0.1924
C26 C -0.0208(4) 0.1981(4) 0.2906(3)
H26 H -0.0509 0.2092 0.2580
H27 H -0.0457 0.1544 0.3105
C27 C 0.0773(4) 0.3473(4) 0.2227(3)
H28 H 0.0310 0.3409 0.2011
H29 H 0.1072 0.3904 0.2061
C28 C 0.1588(4) 0.1370(4) 0.2187(3)
H30 H 0.1564 0.1033 0.1856
C29 C 0.0879(4) 0.1042(4) 0.2960(3)
C30 C 0.2008(4) 0.2726(4) 0.2147(3)
C31 C 0.3388(3) 0.0472(4) 0.2642(3)
H31 H 0.3446 0.0123 0.2318
C32 C 0.1956(4) 0.0138(4) 0.2745(3)
H32 H 0.1997 -0.0131 0.2391
H33 H 0.1665 -0.0210 0.2988
C33 C 0.2992(4) 0.1698(4) 0.2030(3)
H34 H 0.3272 0.2172 0.1908
H35 H 0.2979 0.1316 0.1726
C34 C 0.4061(4) 0.0390(4) 0.3040(3)
H36 H 0.4436 -0.0007 0.2909
C35 C 0.2922(4) 0.0024(4) 0.3499(3)
C36 C 0.4033(4) 0.1720(4) 0.2714(3)
N25 N 0.1345(3) 0.0934(4) 0.4789(2)
N26 N 0.1368(4) 0.0174(4) 0.5510(3)
C37 C 0.1794(4) 0.0520(5) 0.5123(4)
H37 H 0.2324 0.0477 0.5092
C38 C 0.0609(4) 0.0875(5) 0.4975(4)
H38 H 0.0176 0.1116 0.4823
C39 C 0.0639(4) 0.0386(5) 0.5434(4)
H39 H 0.0225 0.0232 0.5651
C40 C 0.1598(5) 0.1409(5) 0.4315(3)
H40 H 0.1196 0.1790 0.4220
H41 H 0.1666 0.1047 0.4005
C41 C 0.2321(5) 0.1864(5) 0.4403(3)
H42 H 0.2705 0.1487 0.4536
H43 H 0.2233 0.2256 0.4693
C42 C 0.2665(9) 0.2322(7) 0.3896(5)
H44 H 0.3161 0.2541 0.3995
H45 H 0.2741 0.1941 0.3597
C43 C 0.2190(9) 0.2951(9) 0.3714(7)
H46 H 0.1664 0.2810 0.3779
H47 H 0.2269 0.3037 0.3328
H48 H 0.2312 0.3437 0.3912
C44 C 0.1675(6) -0.0315(6) 0.5972(4)
H49 H 0.1626 -0.0880 0.5886
H50 H 0.1392 -0.0197 0.6301
H51 H 0.2206 -0.0186 0.6027
N27 N 0.1587(4) 0.4921(4) 0.7428(3)
N28 N 0.0542(3) 0.4263(3) 0.7619(3)
C45 C 0.0911(4) 0.4685(5) 0.7234(4)
H52 H 0.0724 0.4798 0.6884
C46 C 0.1654(5) 0.4627(5) 0.7950(3)
H53 H 0.2072 0.4696 0.8183
C47 C 0.1008(4) 0.4222(5) 0.8066(3)
H54 H 0.0899 0.3959 0.8394
C48 C 0.2162(5) 0.5382(5) 0.7121(3)
H55 H 0.1979 0.5468 0.6749
H56 H 0.2631 0.5068 0.7099
C49 C 0.2335(5) 0.6189(5) 0.7381(4)
H57 H 0.1859 0.6481 0.7434
H58 H 0.2561 0.6100 0.7740
C50 C 0.2866(5) 0.6698(7) 0.7047(4)
H59 H 0.2650 0.6765 0.6682
H60 H 0.3349 0.6414 0.7007
C51 C 0.3023(8) 0.7534(8) 0.7291(6)
H61 H 0.2550 0.7771 0.7413
H62 H 0.3252 0.7874 0.7015
H63 H 0.3367 0.7483 0.7597
C52 C -0.0208(4) 0.3917(5) 0.7556(3)
H64 H -0.0324 0.3861 0.7172
H65 H -0.0581 0.4264 0.7726
H66 H -0.0221 0.3395 0.7729
N29 N 0.3231(5) 0.7597(4) 0.5529(4)
N30 N 0.4200(4) 0.7862(4) 0.6023(3)
C53 C 0.3783(6) 0.7272(5) 0.5809(3)
H67 H 0.3871 0.6720 0.5852
C54 C 0.3291(6) 0.8402(6) 0.5538(5)
H68 H 0.2973 0.8761 0.5351
C55 C 0.3889(5) 0.8611(6) 0.5864(4)
H69 H 0.4055 0.9127 0.5960
C56 C 0.2597(7) 0.7127(7) 0.5281(5)
H70 H 0.2171 0.7132 0.5537
H71 H 0.2766 0.6570 0.5247
C57 C 0.2298(9) 0.7398(10) 0.4722(7)
H72 H 0.1893 0.7033 0.4608
H73 H 0.2076 0.7933 0.4759
C58 C 0.2871(8) 0.7421(10) 0.4301(7)
H74 H 0.3132 0.6904 0.4276
H75 H 0.3248 0.7836 0.4380
C59 C 0.2447(14) 0.7611(10) 0.3757(8)
H76 H 0.2083 0.7191 0.3681
H77 H 0.2812 0.7642 0.3462
H78 H 0.2184 0.8119 0.3791
C60 C 0.4863(5) 0.7771(6) 0.6391(4)
H79 H 0.4760 0.8037 0.6734
H80 H 0.5307 0.8009 0.6223
H81 H 0.4957 0.7206 0.6456
Br1 Br 0.45740(4) 0.53104(4) 0.60568(4)
Br2 Br 0.09875(5) 0.75476(10) 0.63897(6)
Br3 Br 0.48189(5) 0.99516(6) 0.68241(4)
O13 O 0.1077(6) 0.5894(6) 0.6003(5)
loop_
_geom_bond_atom_site_label_1
_geom_bond_atom_site_label_2
_geom_bond_site_symmetry_1
_geom_bond_site_symmetry_2
O1 C5 1_555 1_555
O2 C6 1_555 1_555
O3 C11 1_555 1_555
O4 C12 1_555 1_555
O5 C17 1_555 1_555
O6 C18 1_555 1_555
O7 C23 1_555 1_555
O8 C24 1_555 1_555
O9 C29 1_555 1_555
O10 C30 1_555 1_555
O11 C35 1_555 1_555
O12 C36 1_555 1_555
N1 C1 1_555 1_555
N2 C1 1_555 1_555
N3 C4 1_555 1_555
N4 C4 1_555 1_555
N5 C7 1_555 1_555
N6 C7 1_555 1_555
N7 C10 1_555 1_555
N8 C10 1_555 1_555
N9 C13 1_555 1_555
N10 C13 1_555 1_555
N11 C16 1_555 1_555
N12 C16 1_555 1_555
N13 C19 1_555 1_555
N14 C19 1_555 1_555
N15 C22 1_555 1_555
N16 C22 1_555 1_555
N17 C25 1_555 1_555
N18 C25 1_555 1_555
N19 C28 1_555 1_555
N20 C28 1_555 1_555
N21 C31 1_555 1_555
N22 C31 1_555 1_555
N23 C2 1_555 1_555
N24 C3 1_555 1_555
C1 H1 1_555 1_555
C2 N1 1_555 1_555
H2 C2 1_555 1_555
H3 C2 1_555 1_555
C3 N2 1_555 1_555
H4 C3 1_555 1_555
H5 C3 1_555 1_555
C4 C1 1_555 1_555
H6 C4 1_555 1_555
C5 N1 1_555 1_555
C6 N2 1_555 1_555
C7 H7 1_555 1_555
C8 N3 1_555 1_555
H8 C8 1_555 1_555
H9 C8 1_555 1_555
C9 N4 1_555 1_555
H10 C9 1_555 1_555
H11 C9 1_555 1_555
C10 C7 1_555 1_555
H12 C10 1_555 1_555
C11 N5 1_555 1_555
C12 N6 1_555 1_555
C13 H13 1_555 1_555
C14 N7 1_555 1_555
H14 C14 1_555 1_555
H15 C14 1_555 1_555
C15 N8 1_555 1_555
H16 C15 1_555 1_555
H17 C15 1_555 1_555
C16 C13 1_555 1_555
H18 C16 1_555 1_555
C17 N9 1_555 1_555
C18 N10 1_555 1_555
C19 H19 1_555 1_555
C20 N11 1_555 1_555
H20 C20 1_555 1_555
H21 C20 1_555 1_555
C21 N12 1_555 1_555
H22 C21 1_555 1_555
H23 C21 1_555 1_555
C22 C19 1_555 1_555
H24 C22 1_555 1_555
C23 N13 1_555 1_555
C24 N14 1_555 1_555
C25 H25 1_555 1_555
C26 N15 1_555 1_555
H26 C26 1_555 1_555
H27 C26 1_555 1_555
C27 N16 1_555 1_555
H28 C27 1_555 1_555
H29 C27 1_555 1_555
C28 C25 1_555 1_555
H30 C28 1_555 1_555
C29 N17 1_555 1_555
C30 N18 1_555 1_555
C31 H31 1_555 1_555
C32 N19 1_555 1_555
H32 C32 1_555 1_555
H33 C32 1_555 1_555
C33 N20 1_555 1_555
H34 C33 1_555 1_555
H35 C33 1_555 1_555
C34 N23 1_555 1_555
H36 C34 1_555 1_555
C35 N21 1_555 1_555
C36 N22 1_555 1_555
N25 C37 1_555 1_555
N26 C37 1_555 1_555
C37 H37 1_555 1_555
C38 N25 1_555 1_555
H38 C38 1_555 1_555
C39 N26 1_555 1_555
H39 C39 1_555 1_555
C40 N25 1_555 1_555
H40 C40 1_555 1_555
H41 C40 1_555 1_555
C41 C40 1_555 1_555
H42 C41 1_555 1_555
H43 C41 1_555 1_555
C42 C41 1_555 1_555
H44 C42 1_555 1_555
H45 C42 1_555 1_555
C43 C42 1_555 1_555
H46 C43 1_555 1_555
H47 C43 1_555 1_555
H48 C43 1_555 1_555
C44 N26 1_555 1_555
H49 C44 1_555 1_555
H50 C44 1_555 1_555
H51 C44 1_555 1_555
N27 C45 1_555 1_555
N28 C45 1_555 1_555
C45 H52 1_555 1_555
C46 N27 1_555 1_555
H53 C46 1_555 1_555
C47 N28 1_555 1_555
H54 C47 1_555 1_555
C48 N27 1_555 1_555
H55 C48 1_555 1_555
H56 C48 1_555 1_555
C49 C48 1_555 1_555
H57 C49 1_555 1_555
H58 C49 1_555 1_555
C50 C49 1_555 1_555
H59 C50 1_555 1_555
H60 C50 1_555 1_555
C51 C50 1_555 1_555
H61 C51 1_555 1_555
H62 C51 1_555 1_555
H63 C51 1_555 1_555
C52 N28 1_555 1_555
H64 C52 1_555 1_555
H65 C52 1_555 1_555
H66 C52 1_555 1_555
N29 C53 1_555 1_555
N30 C53 1_555 1_555
C53 H67 1_555 1_555
C54 N29 1_555 1_555
H68 C54 1_555 1_555
C55 N30 1_555 1_555
H69 C55 1_555 1_555
C56 N29 1_555 1_555
H70 C56 1_555 1_555
H71 C56 1_555 1_555
C57 C56 1_555 1_555
H72 C57 1_555 1_555
H73 C57 1_555 1_555
C58 C57 1_555 1_555
H74 C58 1_555 1_555
H75 C58 1_555 1_555
C59 C58 1_555 1_555
H76 C59 1_555 1_555
H77 C59 1_555 1_555
H78 C59 1_555 1_555
C60 N30 1_555 1_555
H79 C60 1_555 1_555
H80 C60 1_555 1_555
H81 C60 1_555 1_555
N3 C5 1_555 1_555
N4 C6 1_555 1_555
N5 C8 1_555 1_555
N6 C9 1_555 1_555
N7 C11 1_555 1_555
N8 C12 1_555 1_555
N9 C14 1_555 1_555
N10 C15 1_555 1_555
N11 C17 1_555 1_555
N12 C18 1_555 1_555
N13 C20 1_555 1_555
N14 C21 1_555 1_555
N15 C23 1_555 1_555
N16 C24 1_555 1_555
N17 C26 1_555 1_555
N18 C27 1_555 1_555
N19 C29 1_555 1_555
N20 C30 1_555 1_555
N21 C32 1_555 1_555
N22 C33 1_555 1_555
N23 C35 1_555 1_555
N24 C34 1_555 1_555
N24 C36 1_555 1_555
C31 C34 1_555 1_555
C38 C39 1_555 1_555
C46 C47 1_555 1_555
C54 C55 1_555 1_555

#END
