
#######################################################################
#
#                 Cambridge Crystallographic Data Centre
#                                CCDC 
#
#######################################################################
#
# If this CIF has been generated from an entry in the Cambridge 
# Structural Database, then it will include bibliographic, chemical, 
# crystal, experimental, refinement or atomic coordinate data resulting 
# from the CCDC's data processing and validation procedures.
#
#######################################################################

data_AJORAU
_chemical_formula_moiety         'C18 H11 Br1 O5'
_chemical_name_systematic        
7-(6-Bromo-1,3-benzodioxol-5-yl)naphtho[2,3-d][1,3]dioxol-5-ol
_symmetry_cell_setting           triclinic
_symmetry_space_group_name_H-M   'P 1'
_symmetry_Int_Tables_number      1
_space_group_name_Hall           'P 1'
loop_
_symmetry_equiv_pos_site_id
_symmetry_equiv_pos_as_xyz
1 x,y,z
_cell_length_a                   7.2841(15)
_cell_length_b                   9.0015(18)
_cell_length_c                   11.683(2)
_cell_angle_alpha                105.25(3)
_cell_angle_beta                 90.58(3)
_cell_angle_gamma                96.87(3)
_cell_volume                     733.057
_exptl_crystal_colour            colorless
_exptl_crystal_description       plate
_cell_formula_units_Z            2
loop_
_atom_site_label
_atom_site_type_symbol
_atom_site_fract_x
_atom_site_fract_y
_atom_site_fract_z
Br1 Br 0.11877(4) 0.11550(4) 0.20436(3)
O1 O -0.5466(8) 0.4347(6) 0.1816(5)
O2 O 0.0579(9) 0.5277(5) 0.7251(5)
H1 H 0.0497 0.6055 0.7023
O3 O 0.0759(8) -0.1573(6) 0.7388(4)
O4 O -0.4160(8) 0.3215(6) 0.0058(5)
O5 O 0.1546(9) 0.0693(6) 0.8888(4)
C1 C -0.3332(12) 0.3571(8) 0.3137(7)
H2 H -0.3867 0.4046 0.3836
C2 C -0.0903(10) 0.1263(8) 0.4550(6)
H3 H -0.1216 0.0359 0.3943
C3 C -0.3228(10) 0.2925(7) 0.0982(6)
C4 C -0.0987(10) 0.2131(7) 0.2084(6)
C5 C 0.0850(11) 0.2468(7) 0.7715(6)
H4 H 0.1194 0.3360 0.8326
C6 C -0.1050(9) 0.2685(8) 0.4339(6)
C7 C -0.0288(10) 0.1160(7) 0.5667(5)
C8 C -0.1682(10) 0.2188(8) 0.0951(6)
H5 H -0.1128 0.1758 0.0247
C9 C 0.0970(10) 0.1051(8) 0.7883(6)
C10 C 0.0490(10) -0.0307(7) 0.6991(6)
C11 C 0.1368(11) -0.0922(8) 0.8631(6)
H6 H 0.0473 -0.1285 0.9137
H7 H 0.2548 -0.1254 0.8775
C12 C 0.0068(11) 0.3991(8) 0.6346(6)
C13 C -0.4017(11) 0.3625(8) 0.2039(6)
C14 C -0.0594(10) 0.4064(7) 0.5257(6)
H8 H -0.0741 0.5020 0.5125
C15 C 0.0199(11) 0.2577(8) 0.6601(6)
C16 C -0.1774(9) 0.2757(8) 0.3148(6)
C17 C -0.0120(11) -0.0311(8) 0.5876(6)
H9 H -0.0411 -0.1231 0.5283
C18 C -0.5780(10) 0.3886(10) 0.0549(6)
H10 H -0.5951 0.4778 0.0259
H11 H -0.6876 0.3130 0.0327
Br2 Br 0.43294(4) -0.12748(4) 0.11927(3)
O6 O 1.1017(8) -0.4450(7) 0.1438(5)
O7 O 0.4941(9) -0.5398(5) -0.4014(5)
H12 H 0.4905 -0.6180 -0.3776
O8 O 0.4746(8) 0.1436(5) -0.4166(4)
O9 O 0.9678(8) -0.3303(6) 0.3197(5)
O10 O 0.3965(8) -0.0815(5) -0.5653(4)
C19 C 0.6524(11) -0.2237(8) 0.1151(7)
C20 C 0.8855(10) -0.3674(8) 0.0124(6)
H13 H 0.9400 -0.4142 -0.0574
C21 C 0.6580(10) -0.2813(8) -0.1091(6)
C22 C 0.5038(11) 0.0191(8) -0.3730(6)
C23 C 0.8744(10) -0.3085(8) 0.2229(7)
C24 C 0.6424(10) -0.1385(7) -0.1301(6)
H14 H 0.6731 -0.0477 -0.0698
C25 C 0.4652(11) -0.2638(8) -0.4523(6)
H15 H 0.4326 -0.3538 -0.5130
C26 C 0.5791(9) -0.1307(7) -0.2446(6)
C27 C 0.7203(11) -0.2351(8) 0.2234(6)
H16 H 0.6633 -0.1945 0.2937
C28 C 0.4161(11) 0.0858(7) -0.5387(6)
H17 H 0.5071 0.1225 -0.5883
H18 H 0.2989 0.1205 -0.5529
C29 C 0.4573(11) -0.1185(8) -0.4650(6)
C30 C 0.5645(9) 0.0198(7) -0.2642(6)
H19 H 0.5953 0.1114 -0.2047
C31 C 0.7291(10) -0.2897(7) 0.0085(5)
C32 C 0.6076(11) -0.4168(7) -0.1986(6)
H20 H 0.6156 -0.5124 -0.1836
C33 C 0.5458(11) -0.4120(7) -0.3095(6)
C34 C 1.1260(11) -0.3986(9) 0.2704(7)
H21 H 1.1406 -0.4882 0.2995
H22 H 1.2364 -0.3243 0.2939
C35 C 0.5298(10) -0.2638(7) -0.3338(6)
C36 C 0.9552(11) -0.3728(8) 0.1192(7)
loop_
_geom_bond_atom_site_label_1
_geom_bond_atom_site_label_2
_geom_bond_site_symmetry_1
_geom_bond_site_symmetry_2
Br1 C4 1_555 1_555
O1 C13 1_555 1_555
O2 H1 1_555 1_555
O3 C10 1_555 1_555
O4 C3 1_555 1_555
O5 C9 1_555 1_555
C1 H2 1_555 1_555
C2 H3 1_555 1_555
C3 C8 1_555 1_555
C4 C8 1_555 1_555
C5 H4 1_555 1_555
C6 C2 1_555 1_555
C7 C2 1_555 1_555
C8 H5 1_555 1_555
C9 C5 1_555 1_555
C10 C9 1_555 1_555
C11 O3 1_555 1_555
H6 C11 1_555 1_555
H7 C11 1_555 1_555
C12 O2 1_555 1_555
C13 C1 1_555 1_555
C14 C6 1_555 1_555
H8 C14 1_555 1_555
C15 C5 1_555 1_555
C16 C1 1_555 1_555
C17 C7 1_555 1_555
H9 C17 1_555 1_555
C18 O1 1_555 1_555
H10 C18 1_555 1_555
H11 C18 1_555 1_555
Br2 C19 1_555 1_555
O6 C34 1_555 1_555
O7 H12 1_555 1_555
O8 C22 1_555 1_555
O9 C23 1_555 1_555
O10 C28 1_555 1_555
C19 C27 1_555 1_555
C20 H13 1_555 1_555
C21 C24 1_555 1_555
C22 C29 1_555 1_555
C23 C27 1_555 1_555
C24 H14 1_555 1_555
C25 H15 1_555 1_555
C26 C24 1_555 1_555
C27 H16 1_555 1_555
C28 O8 1_555 1_555
H17 C28 1_555 1_555
H18 C28 1_555 1_555
C29 O10 1_555 1_555
C30 C22 1_555 1_555
H19 C30 1_555 1_555
C31 C19 1_555 1_555
C32 C21 1_555 1_555
H20 C32 1_555 1_555
C33 O7 1_555 1_555
C34 O9 1_555 1_555
H21 C34 1_555 1_555
H22 C34 1_555 1_555
C35 C25 1_555 1_555
C36 O6 1_555 1_555
O4 C18 1_555 1_555
O5 C11 1_555 1_555
C3 C13 1_555 1_555
C4 C16 1_555 1_555
C6 C16 1_555 1_555
C7 C15 1_555 1_555
C10 C17 1_555 1_555
C12 C14 1_555 1_555
C12 C15 1_555 1_555
C20 C31 1_555 1_555
C20 C36 1_555 1_555
C21 C31 1_555 1_555
C23 C36 1_555 1_555
C25 C29 1_555 1_555
C26 C30 1_555 1_555
C26 C35 1_555 1_555
C32 C33 1_555 1_555
C33 C35 1_555 1_555

#END
