
#######################################################################
#
#                 Cambridge Crystallographic Data Centre
#                                CCDC 
#
#######################################################################
#
# If this CIF has been generated from an entry in the Cambridge 
# Structural Database, then it will include bibliographic, chemical, 
# crystal, experimental, refinement or atomic coordinate data resulting 
# from the CCDC's data processing and validation procedures.
#
#######################################################################

data_AJUNOJ
_chemical_name_common            
'5-(((2-Aminocyclohexyl)amino)methyl)-10,15,20,25,30,35-hexakis(hydroxymethyl)-2,4,7,9,12,14,17,19,22,24,27,29,32,34-tetradecaoxaoctacyclo[31.2.2.2$3,6!.2$8,11!.2$13,16!.2$18,21!.2$23,26!.2$28,31!]nonatetracontane-36,37,38,39,40,41,42,43,44,45,46,47,48,49-tetradecol hydrate'
_chemical_formula_moiety         'C48 H82 N2 O34,7.5(H2 O1)'
_chemical_name_systematic        
'Mono-(6-deoxy-6-(2-aminocyclohexylamino))-\b-cyclodextrin hydrate'
_symmetry_cell_setting           triclinic
_symmetry_space_group_name_H-M   'P 1'
_symmetry_Int_Tables_number      1
_space_group_name_Hall           'P 1'
loop_
_symmetry_equiv_pos_site_id
_symmetry_equiv_pos_as_xyz
1 x,y,z
_cell_length_a                   9.9461(19)
_cell_length_b                   12.038(2)
_cell_length_c                   14.418(3)
_cell_angle_alpha                106.355(3)
_cell_angle_beta                 103.637(3)
_cell_angle_gamma                91.494(2)
_cell_volume                     1601.8
_exptl_crystal_colour            colorless
_exptl_crystal_description       rod
_cell_formula_units_Z            1
_exptl_crystal_recrystallization_method water
loop_
_atom_site_label
_atom_site_type_symbol
_atom_site_fract_x
_atom_site_fract_y
_atom_site_fract_z
O1 O 0.6361(3) 0.8422(2) 1.1590(2)
O2 O 0.4619(3) 0.7223(2) 1.03127(19)
O3 O 0.4774(3) 0.5575(2) 1.1419(2)
H1 H 0.3992 0.5562 1.1033
O4 O 0.3830(3) 0.7049(2) 1.2985(2)
H2 H 0.3281 0.7511 1.3205
O5 O 0.3682(2) 0.9443(2) 1.29102(18)
O6 O 0.7247(3) 1.0435(3) 1.3212(2)
H3 H 0.7520 1.1133 1.3538
O7 O 0.4095(3) 1.1229(2) 1.4157(2)
O8 O 0.2034(3) 0.8522(2) 1.38332(19)
H4 H 0.2000 0.8381 1.4366
O9 O 0.0046(3) 1.0124(2) 1.3984(2)
H5 H -0.0577 1.0380 1.3618
O10 O 0.0592(3) 1.2184(2) 1.34671(19)
O11 O 0.3776(3) 1.3620(3) 1.4890(2)
H6 H 0.3903 1.4350 1.5092
O12 O 0.0857(3) 1.4169(2) 1.36103(18)
O13 O -0.1671(3) 1.2571(3) 1.4336(2)
H7 H -0.2023 1.3006 1.4763
O14 O -0.3373(3) 1.3217(3) 1.2689(2)
H8 H -0.3750 1.3079 1.2077
O15 O -0.1836(2) 1.3407(2) 1.12545(17)
O16 O 0.2321(3) 1.4758(3) 1.2267(3)
H9 H 0.2723 1.5389 1.2286
O17 O -0.2096(2) 1.4531(2) 1.01651(18)
O18 O -0.4641(3) 1.2667(3) 1.0641(2)
H10 H -0.5478 1.2766 1.0628
O19 O -0.4753(3) 1.1551(3) 0.8579(2)
H11 H -0.4509 1.1132 0.8085
O20 O -0.2336(2) 1.1966(2) 0.79932(17)
O21 O 0.0432(3) 1.5027(3) 0.9681(2)
H12 H 0.0263 1.5638 1.0072
O22 O -0.1235(2) 1.2155(2) 0.67802(18)
O23 O -0.4739(2) 1.0882(2) 0.6527(2)
H13 H -0.5110 1.1475 0.6439
O24 O -0.3606(2) 0.8960(2) 0.55083(19)
H14 H -0.3133 0.8394 0.5381
O25 O -0.0659(2) 0.9059(2) 0.61796(17)
O26 O 0.1746(3) 1.2360(2) 0.7254(2)
H15 H 0.1944 1.2215 0.7805
O27 O 0.1221(2) 0.8502(2) 0.55226(18)
O28 O -0.2165(3) 0.6973(2) 0.5171(2)
H16 H -0.2634 0.6593 0.4597
O29 O -0.0288(3) 0.5533(2) 0.6006(2)
H17 H 0.0254 0.5420 0.6507
O30 O 0.2272(2) 0.6769(2) 0.72416(18)
O31 O 0.3935(3) 0.8047(2) 0.5707(2)
H18 H 0.4645 0.8403 0.5665
O32 O 0.4637(3) 0.6571(2) 0.76744(19)
O33 O 0.1578(3) 0.4656(2) 0.7368(3)
H19 H 0.1548 0.3932 0.7264
O34 O 0.2974(3) 0.5079(3) 0.9481(2)
H20 H 0.2140 0.5055 0.9510
N1 N 0.7334(3) 0.7126(3) 0.8872(3)
H37 H 0.7235 0.6837 0.8202
N2 N 0.9343(4) 0.6940(3) 1.0556(3)
H38 H 0.9408 0.7191 1.1224
H39 H 0.8446 0.6616 1.0354
C1 C 0.5278(4) 0.6768(3) 1.1854(3)
H40 H 0.6094 0.6827 1.2430
C2 C 0.4211(4) 0.7495(3) 1.2251(3)
H41 H 0.3370 0.7423 1.1689
C3 C 0.4793(4) 0.8766(3) 1.2688(3)
H42 H 0.5540 0.8868 1.3315
C4 C 0.5379(4) 0.9191(3) 1.1944(3)
H43 H 0.4595 0.9184 1.1361
C5 C 0.5774(4) 0.7262(3) 1.1118(3)
H44 H 0.6487 0.6781 1.0860
C6 C 0.6130(4) 1.0390(4) 1.2374(3)
H45 H 0.6496 1.0603 1.1859
H46 H 0.5475 1.0958 1.2582
C7 C 0.2395(4) 0.9756(3) 1.4150(3)
H47 H 0.2517 1.0046 1.4890
C8 C 0.1229(4) 1.0358(3) 1.3656(3)
H48 H 0.1025 1.0023 1.2914
C9 C 0.1705(4) 1.1646(3) 1.3949(3)
H49 H 0.1886 1.1984 1.4690
C10 C 0.3051(4) 1.1799(3) 1.3630(3)
H50 H 0.2877 1.1409 1.2896
C11 C 0.3780(4) 1.0014(3) 1.3929(3)
H51 H 0.4531 0.9701 1.4351
C12 C 0.3641(4) 1.3033(4) 1.3855(3)
H52 H 0.4562 1.3048 1.3705
H53 H 0.3018 1.3430 1.3434
C13 C -0.1188(4) 1.3372(4) 1.3895(3)
H54 H -0.1360 1.4176 1.4251
C14 C -0.1924(4) 1.3091(3) 1.2787(3)
H55 H -0.1808 1.2268 1.2439
C15 C -0.1305(3) 1.3900(3) 1.2313(2)
H56 H -0.1600 1.4699 1.2537
C16 C 0.0288(4) 1.3949(3) 1.2550(3)
H57 H 0.0569 1.3194 1.2179
C17 C 0.0358(4) 1.3326(3) 1.3995(3)
H58 H 0.0849 1.3498 1.4717
C18 C 0.0898(4) 1.4931(3) 1.2273(3)
H59 H 0.0365 1.4944 1.1603
H60 H 0.0851 1.5684 1.2762
C19 C -0.4020(4) 1.3183(3) 1.0053(3)
H61 H -0.4711 1.3630 0.9721
C20 C -0.3554(4) 1.2271(3) 0.9258(3)
H62 H -0.2919 1.1782 0.9582
C21 C -0.2787(3) 1.2867(3) 0.8703(3)
H63 H -0.3436 1.3319 0.8345
C22 C -0.1566(3) 1.3685(3) 0.9442(3)
H64 H -0.0918 1.3227 0.9794
C23 C -0.2758(3) 1.4024(3) 1.0738(2)
H65 H -0.3080 1.4654 1.1231
C24 C -0.0766(4) 1.4361(3) 0.8968(3)
H66 H -0.0477 1.3813 0.8412
H67 H -0.1376 1.4887 0.8688
C25 C -0.3462(3) 1.1014(3) 0.6264(3)
H68 H -0.3660 1.1116 0.5582
C26 C -0.2748(3) 0.9918(3) 0.6256(3)
H69 H -0.2616 0.9783 0.6924
C27 C -0.1342(3) 1.0063(3) 0.6045(2)
H70 H -0.1459 1.0092 0.5345
C28 C -0.0470(3) 1.1163(3) 0.6791(3)
H71 H -0.0229 1.1074 0.7478
C29 C -0.2530(3) 1.2072(3) 0.7015(2)
H72 H -0.2995 1.2791 0.6981
C30 C 0.0840(4) 1.1425(3) 0.6499(3)
H73 H 0.1340 1.0719 0.6381
H74 H 0.0586 1.1633 0.5867
C31 C -0.0713(4) 0.7074(3) 0.5255(3)
H75 H -0.0517 0.6553 0.4637
C32 C 0.0078(4) 0.6738(3) 0.6159(3)
H76 H -0.0205 0.7205 0.6762
C33 C 0.1634(4) 0.7001(3) 0.6324(3)
H77 H 0.1960 0.6488 0.5760
C34 C 0.1976(3) 0.8272(3) 0.6422(3)
H78 H 0.1656 0.8763 0.6999
C35 C -0.0251(3) 0.8330(3) 0.5366(2)
H79 H -0.0717 0.8524 0.4744
C36 C 0.3485(4) 0.8648(3) 0.6562(3)
H80 H 0.3610 0.9497 0.6666
H81 H 0.4053 0.8480 0.7161
C37 C 0.2971(4) 0.5175(3) 0.7824(3)
H82 H 0.3617 0.4551 0.7776
C38 C 0.3161(4) 0.5848(3) 0.8907(3)
H83 H 0.2453 0.6422 0.8957
C39 C 0.4601(4) 0.6501(3) 0.9336(3)
H84 H 0.5330 0.5947 0.9369
C40 C 0.4836(4) 0.7275(3) 0.8699(3)
H85 H 0.4133 0.7854 0.8723
C41 C 0.3294(4) 0.5978(3) 0.7241(3)
H86 H 0.3235 0.5508 0.6538
C42 C 0.6270(4) 0.7927(3) 0.9000(3)
H87 H 0.6290 0.8457 0.8587
H88 H 0.6473 0.8406 0.9708
C43 C 0.8779(4) 0.7683(4) 0.9124(3)
H89 H 0.9328 0.7073 0.8803
C44 C 0.9425(4) 0.7997(4) 1.0253(3)
H90 H 0.8889 0.8586 1.0612
C45 C 1.0945(4) 0.8493(4) 1.0515(4)
H91 H 1.1499 0.7874 1.0235
H92 H 1.1311 0.8750 1.1251
C46 C 1.1115(5) 0.9522(5) 1.0111(5)
H93 H 1.0638 1.0174 1.0438
H94 H 1.2114 0.9791 1.0267
C47 C 1.0502(5) 0.9165(5) 0.8982(4)
H95 H 1.1021 0.8550 0.8650
H96 H 1.0595 0.9843 0.8732
C48 C 0.8954(5) 0.8710(5) 0.8722(4)
H97 H 0.8425 0.9343 0.9016
H98 H 0.8575 0.8463 0.7988
O35 O 0.4770(5) 1.5819(3) 1.5254(3)
H21 H 0.5223 1.5752 1.4821
H22 H 0.4384 1.6439 1.5353
O36 O 0.2638(4) 1.3230(3) 1.0523(3)
H23 H 0.2467 1.3669 1.0157
H24 H 0.2502 1.3633 1.1065
O37 O -0.1061(4) 0.7645(3) 1.2718(3)
H25 H -0.0276 0.8009 1.3018
H26 H -0.1570 0.8180 1.2656
O38 O 0.2578(3) 1.1361(3) 0.8713(3)
H27 H 0.3447 1.1394 0.8814
H28 H 0.2500 1.1751 0.9278
O39 O -0.4023(3) 0.5400(3) 0.3619(2)
H29 H -0.4740 0.5525 0.3234
H30 H -0.3823 0.4737 0.3338
O40 O -0.5978(3) 1.2785(2) 0.6516(2)
H31 H -0.6682 1.2753 0.6739
H32 H -0.6211 1.2977 0.5988
O41 O -0.3241(6) 1.3409(7) 1.5463(4)
H33 H -0.3985 1.3143 1.5538
H34 H -0.3364 1.4103 1.5487
O42 O -0.2838(6) 1.5663(7) 1.6677(5)
H35 H -0.3523 1.6029 1.6524
H36 H -0.2129 1.5921 1.6552
H99? H -0.3406 1.3808 1.5507
H100? H -0.2872 1.4889 1.5691
O43? O -0.2729(10) 1.4288(11) 1.5871(8)
loop_
_geom_bond_atom_site_label_1
_geom_bond_atom_site_label_2
_geom_bond_site_symmetry_1
_geom_bond_site_symmetry_2
O1 C4 1_555 1_555
O2 C5 1_555 1_555
O3 H1 1_555 1_555
O4 H2 1_555 1_555
O5 C3 1_555 1_555
O6 H3 1_555 1_555
O7 C10 1_555 1_555
O8 H4 1_555 1_555
O9 H5 1_555 1_555
O10 C9 1_555 1_555
O11 H6 1_555 1_555
O12 C16 1_555 1_555
O13 H7 1_555 1_555
O14 H8 1_555 1_555
O15 C15 1_555 1_555
O16 H9 1_555 1_555
O17 C22 1_555 1_555
O18 H10 1_555 1_555
O19 H11 1_555 1_555
O20 C21 1_555 1_555
O21 H12 1_555 1_555
O22 C28 1_555 1_555
O23 H13 1_555 1_555
O24 H14 1_555 1_555
O25 C27 1_555 1_555
O26 H15 1_555 1_555
O27 C34 1_555 1_555
O28 H16 1_555 1_555
O29 H17 1_555 1_555
O30 C33 1_555 1_555
O31 H18 1_555 1_555
O32 C40 1_555 1_555
O33 H19 1_555 1_555
O34 H20 1_555 1_555
O35 H21 1_555 1_555
H22 O35 1_555 1_555
O36 H23 1_555 1_555
H24 O36 1_555 1_555
O37 H25 1_555 1_555
H26 O37 1_555 1_555
O38 H27 1_555 1_555
H28 O38 1_555 1_555
O39 H29 1_555 1_555
H30 O39 1_555 1_555
O40 H31 1_555 1_555
H32 O40 1_555 1_555
O41 H33 1_555 1_555
H34 O41 1_555 1_555
O42 H35 1_555 1_555
H36 O42 1_555 1_555
N1 H37 1_555 1_555
N2 H38 1_555 1_555
H39 N2 1_555 1_555
C1 O3 1_555 1_555
H40 C1 1_555 1_555
C2 O4 1_555 1_555
H41 C2 1_555 1_555
C3 C2 1_555 1_555
H42 C3 1_555 1_555
C4 C3 1_555 1_555
H43 C4 1_555 1_555
C5 O1 1_555 1_555
H44 C5 1_555 1_555
C6 O6 1_555 1_555
H45 C6 1_555 1_555
H46 C6 1_555 1_555
C7 O8 1_555 1_555
H47 C7 1_555 1_555
C8 O9 1_555 1_555
H48 C8 1_555 1_555
C9 C8 1_555 1_555
H49 C9 1_555 1_555
C10 C9 1_555 1_555
H50 C10 1_555 1_555
C11 O5 1_555 1_555
H51 C11 1_555 1_555
C12 O11 1_555 1_555
H52 C12 1_555 1_555
H53 C12 1_555 1_555
C13 O13 1_555 1_555
H54 C13 1_555 1_555
C14 O14 1_555 1_555
H55 C14 1_555 1_555
C15 C14 1_555 1_555
H56 C15 1_555 1_555
C16 C15 1_555 1_555
H57 C16 1_555 1_555
C17 O10 1_555 1_555
H58 C17 1_555 1_555
C18 O16 1_555 1_555
H59 C18 1_555 1_555
H60 C18 1_555 1_555
C19 O18 1_555 1_555
H61 C19 1_555 1_555
C20 O19 1_555 1_555
H62 C20 1_555 1_555
C21 C20 1_555 1_555
H63 C21 1_555 1_555
C22 C21 1_555 1_555
H64 C22 1_555 1_555
C23 O15 1_555 1_555
H65 C23 1_555 1_555
C24 O21 1_555 1_555
H66 C24 1_555 1_555
H67 C24 1_555 1_555
C25 O23 1_555 1_555
H68 C25 1_555 1_555
C26 O24 1_555 1_555
H69 C26 1_555 1_555
C27 C26 1_555 1_555
H70 C27 1_555 1_555
C28 C27 1_555 1_555
H71 C28 1_555 1_555
C29 O20 1_555 1_555
H72 C29 1_555 1_555
C30 O26 1_555 1_555
H73 C30 1_555 1_555
H74 C30 1_555 1_555
C31 O28 1_555 1_555
H75 C31 1_555 1_555
C32 O29 1_555 1_555
H76 C32 1_555 1_555
C33 C32 1_555 1_555
H77 C33 1_555 1_555
C34 C33 1_555 1_555
H78 C34 1_555 1_555
C35 O25 1_555 1_555
H79 C35 1_555 1_555
C36 O31 1_555 1_555
H80 C36 1_555 1_555
H81 C36 1_555 1_555
C37 O33 1_555 1_555
H82 C37 1_555 1_555
C38 O34 1_555 1_555
H83 C38 1_555 1_555
C39 O2 1_555 1_555
H84 C39 1_555 1_555
C40 C39 1_555 1_555
H85 C40 1_555 1_555
C41 O30 1_555 1_555
H86 C41 1_555 1_555
C42 N1 1_555 1_555
H87 C42 1_555 1_555
H88 C42 1_555 1_555
C43 N1 1_555 1_555
H89 C43 1_555 1_555
C44 N2 1_555 1_555
H90 C44 1_555 1_555
C45 C44 1_555 1_555
H91 C45 1_555 1_555
H92 C45 1_555 1_555
C46 C45 1_555 1_555
H93 C46 1_555 1_555
H94 C46 1_555 1_555
C47 C46 1_555 1_555
H95 C47 1_555 1_555
H96 C47 1_555 1_555
C48 C43 1_555 1_555
H97 C48 1_555 1_555
H98 C48 1_555 1_555
O7 C11 1_555 1_555
O12 C17 1_555 1_555
O17 C23 1_555 1_555
O22 C29 1_555 1_555
O27 C35 1_555 1_555
O32 C41 1_555 1_555
C1 C2 1_555 1_555
C1 C5 1_555 1_555
C4 C6 1_555 1_555
C7 C8 1_555 1_555
C7 C11 1_555 1_555
C10 C12 1_555 1_555
C13 C14 1_555 1_555
C13 C17 1_555 1_555
C16 C18 1_555 1_555
C19 C20 1_555 1_555
C19 C23 1_555 1_555
C22 C24 1_555 1_555
C25 C26 1_555 1_555
C25 C29 1_555 1_555
C28 C30 1_555 1_555
C31 C32 1_555 1_555
C31 C35 1_555 1_555
C34 C36 1_555 1_555
C37 C38 1_555 1_555
C37 C41 1_555 1_555
C38 C39 1_555 1_555
C40 C42 1_555 1_555
C43 C44 1_555 1_555
C47 C48 1_555 1_555

#END
