
#######################################################################
#
#                 Cambridge Crystallographic Data Centre
#                                CCDC 
#
#######################################################################
#
# If this CIF has been generated from an entry in the Cambridge 
# Structural Database, then it will include bibliographic, chemical, 
# crystal, experimental, refinement or atomic coordinate data resulting 
# from the CCDC's data processing and validation procedures.
#
#######################################################################

data_AJURAZ
_chemical_name_common            
(6R*,11aR*)-trans-N-Benzyl-N-(11-methylene-5-oxo-2,3,5,6,11,11a-hexahydro-1H-pyrrolo[2,1-b][3]benzazepin-6-yl)propanamide
_chemical_formula_moiety         'C24 H26 N2 O2'
_chemical_name_systematic        
(6R*,11aR*)-trans-6-(N-Benzyl-N-propanoylamino)-11-methylene-5-oxo-2,3,5,6,11,11a-hexahydro-1H-benzo[d]pyrrolo[1,2-a]azepine
_symmetry_cell_setting           monoclinic
_symmetry_space_group_name_H-M   'P 21/n'
_symmetry_Int_Tables_number      14
_space_group_name_Hall           '-P 2yn'
loop_
_symmetry_equiv_pos_site_id
_symmetry_equiv_pos_as_xyz
1 x,y,z
2 1/2-x,1/2+y,1/2-z
3 -x,-y,-z
4 1/2+x,1/2-y,1/2+z
_cell_length_a                   9.641(1)
_cell_length_b                   16.342(3)
_cell_length_c                   12.793(1)
_cell_angle_alpha                90
_cell_angle_beta                 93.38(1)
_cell_angle_gamma                90
_cell_volume                     2012.07
_exptl_crystal_colour            white
_exptl_crystal_description       'irregular prism'
_chemical_melting_point          '160.1-162.9 deg.C'
_cell_formula_units_Z            4
loop_
_atom_site_label
_atom_site_type_symbol
_atom_site_fract_x
_atom_site_fract_y
_atom_site_fract_z
C1 C 0.3178(3) 0.43004(19) -0.1982(2)
H1 H 0.4107 0.4189 -0.2197
H2 H 0.3164 0.4841 -0.1670
C2 C 0.2127(3) 0.4242(2) -0.2905(2)
H3 H 0.1308 0.4565 -0.2782
H4 H 0.2524 0.4439 -0.3538
C3 C 0.1766(4) 0.3358(2) -0.3004(2)
N1 N 0.20796(19) 0.30420(12) -0.19344(13)
C4 C 0.1668(2) 0.22815(17) -0.16994(17)
C5 C 0.2200(2) 0.19247(15) -0.06361(17)
C6 C 0.3764(2) 0.18599(13) -0.06397(15)
C7 C 0.4399(3) 0.10993(17) -0.07194(19)
C8 C 0.5808(3) 0.1034(2) -0.08264(19)
C9 C 0.6612(3) 0.17219(19) -0.08465(19)
C10 C 0.6007(2) 0.24800(17) -0.07453(16)
C11 C 0.4591(2) 0.25666(13) -0.06372(14)
C12 C 0.3971(2) 0.33783(13) -0.04885(16)
C13 C 0.2738(2) 0.36609(14) -0.12170(18)
O1 O 0.1067(2) 0.18334(12) -0.23591(13)
N2 N 0.17796(18) 0.23560(11) 0.03012(13)
C14 C 0.0517(2) 0.27320(16) 0.02573(18)
C15 C 0.0096(3) 0.31489(19) 0.1242(2)
H5 H -0.0164 0.2736 0.1739
H6 H 0.0887 0.3446 0.1554
C16 C -0.1087(3) 0.3728(2) 0.1046(3)
H7 H -0.1869 0.3439 0.0728
H8 H -0.0817 0.4156 0.0587
H9 H -0.1336 0.3960 0.1698
O2 O -0.02449(17) 0.27525(12) -0.05601(13)
C17 C 0.2528(3) 0.21262(16) 0.13050(18)
C18 C 0.2190(2) 0.12873(13) 0.16965(16)
C19 C 0.1126(3) 0.08027(16) 0.12316(19)
C20 C 0.0875(3) 0.00282(17) 0.1619(2)
H10 H 0.0177 -0.0294 0.1301
C21 C 0.1651(4) -0.0265(2) 0.2469(3)
C22 C 0.2687(4) 0.0210(2) 0.2961(2)
C23 C 0.2968(3) 0.09819(18) 0.25755(19)
C24 C 0.4531(3) 0.38782(18) 0.0253(2)
H11 H 0.085(3) 0.3227(15) -0.325(2)
H12 H 0.238(4) 0.3026(18) -0.351(3)
H13 H 0.1858(19) 0.1381(12) -0.0651(15)
H14 H 0.380(3) 0.0657(16) -0.0709(19)
H15 H 0.623(2) 0.0483(16) -0.0862(18)
H16 H 0.765(3) 0.1686(14) -0.0916(19)
H17 H 0.656(2) 0.2954(12) -0.0774(15)
H18 H 0.200(2) 0.3872(14) -0.0820(18)
H19 H 0.238(2) 0.2538(13) 0.1831(17)
H20 H 0.351(2) 0.2164(12) 0.1232(16)
H21 H 0.0534(19) 0.1010(12) 0.0610(16)
H22 H 0.153(3) -0.0828(19) 0.279(2)
H23 H 0.325(3) 0.0060(16) 0.361(2)
H24 H 0.366(2) 0.1332(15) 0.2901(18)
H25 H 0.538(3) 0.3684(15) 0.077(2)
H26 H 0.410(2) 0.4401(15) 0.0342(18)
loop_
_geom_bond_atom_site_label_1
_geom_bond_atom_site_label_2
_geom_bond_site_symmetry_1
_geom_bond_site_symmetry_2
C1 H1 1_555 1_555
H2 C1 1_555 1_555
C2 C1 1_555 1_555
H3 C2 1_555 1_555
H4 C2 1_555 1_555
C3 C2 1_555 1_555
N1 C3 1_555 1_555
C4 N1 1_555 1_555
C5 C4 1_555 1_555
C6 C5 1_555 1_555
C7 C6 1_555 1_555
C8 C7 1_555 1_555
C9 C8 1_555 1_555
C10 C9 1_555 1_555
C11 C6 1_555 1_555
C12 C11 1_555 1_555
C13 C1 1_555 1_555
O1 C4 1_555 1_555
N2 C5 1_555 1_555
C14 N2 1_555 1_555
C15 C14 1_555 1_555
H5 C15 1_555 1_555
H6 C15 1_555 1_555
C16 C15 1_555 1_555
H7 C16 1_555 1_555
H8 C16 1_555 1_555
H9 C16 1_555 1_555
O2 C14 1_555 1_555
C17 N2 1_555 1_555
C18 C17 1_555 1_555
C19 C18 1_555 1_555
C20 C19 1_555 1_555
H10 C20 1_555 1_555
C21 C20 1_555 1_555
C22 C21 1_555 1_555
C23 C18 1_555 1_555
C24 C12 1_555 1_555
H11 C3 1_555 1_555
H12 C3 1_555 1_555
H13 C5 1_555 1_555
H14 C7 1_555 1_555
H15 C8 1_555 1_555
H16 C9 1_555 1_555
H17 C10 1_555 1_555
H18 C13 1_555 1_555
H19 C17 1_555 1_555
H20 C17 1_555 1_555
H21 C19 1_555 1_555
H22 C21 1_555 1_555
H23 C22 1_555 1_555
H24 C23 1_555 1_555
H25 C24 1_555 1_555
H26 C24 1_555 1_555
N1 C13 1_555 1_555
C10 C11 1_555 1_555
C12 C13 1_555 1_555
C22 C23 1_555 1_555

#END
