
#######################################################################
#
#                 Cambridge Crystallographic Data Centre
#                                CCDC 
#
#######################################################################
#
# If this CIF has been generated from an entry in the Cambridge 
# Structural Database, then it will include bibliographic, chemical, 
# crystal, experimental, refinement or atomic coordinate data resulting 
# from the CCDC's data processing and validation procedures.
#
#######################################################################

data_AKADIA
_chemical_formula_moiety         'C37 H45 N3'
_chemical_name_systematic        
2,8-bis(1-(2,6-Dimethylphenylimino)ethyl)quinoline
_symmetry_cell_setting           monoclinic
_symmetry_space_group_name_H-M   'P 21/c'
_symmetry_Int_Tables_number      14
_space_group_name_Hall           '-P 2ybc'
loop_
_symmetry_equiv_pos_site_id
_symmetry_equiv_pos_as_xyz
1 x,y,z
2 -x,1/2+y,1/2-z
3 -x,-y,-z
4 x,1/2-y,1/2+z
_cell_length_a                   16.460(3)
_cell_length_b                   22.290(5)
_cell_length_c                   9.0084(18)
_cell_angle_alpha                90
_cell_angle_beta                 93.53(3)
_cell_angle_gamma                90
_cell_volume                     3298.85
_exptl_crystal_colour            yellow
_exptl_crystal_description       block
_chemical_melting_point          132-134deg.C
_cell_formula_units_Z            4
loop_
_atom_site_label
_atom_site_type_symbol
_atom_site_fract_x
_atom_site_fract_y
_atom_site_fract_z
N1 N 0.2217(3) 0.5657(2) 0.2692(6)
N2 N 0.0862(3) 0.4485(3) 0.1649(6)
C1 C 0.1834(4) 0.6580(3) 0.1426(8)
C2 C 0.2359(4) 0.6243(3) 0.2383(7)
C3 C 0.1570(4) 0.5396(3) 0.2030(8)
C4 C 0.1440(4) 0.4746(3) 0.2366(8)
N3 N 0.3884(3) 0.6446(3) 0.5289(6)
C5 C 0.3068(4) 0.6526(3) 0.3055(8)
C6 C 0.0697(4) 0.3862(3) 0.1803(8)
C7 C 0.1008(4) 0.5706(3) 0.1076(8)
H1 H 0.0556 0.5507 0.0645
C8 C 0.3685(4) 0.6203(3) 0.4040(8)
C9 C 0.1123(4) 0.6288(3) 0.0788(8)
H2 H 0.0746 0.6500 0.0181
C10 C 0.2030(5) 0.4453(3) 0.3498(9)
H3 H 0.1886 0.4039 0.3609
H4 H 0.2007 0.4655 0.4437
H5 H 0.2572 0.4481 0.3166
C11 C 0.3204(5) 0.7116(4) 0.2762(9)
H6 H 0.3649 0.7309 0.3234
C12 C 0.4533(4) 0.6228(3) 0.6262(7)
C13 C 0.2007(5) 0.7180(3) 0.1111(8)
H7 H 0.1659 0.7397 0.0461
C14 C 0.0089(4) 0.3675(3) 0.2725(8)
C15 C 0.5312(4) 0.6452(4) 0.6087(9)
C16 C 0.4089(5) 0.5664(4) 0.3441(8)
H8 H 0.4464 0.5500 0.4193
H9 H 0.4379 0.5776 0.2591
H10 H 0.3686 0.5368 0.3154
C17 C 0.4365(5) 0.5852(3) 0.7446(8)
C18 C 0.5009(6) 0.5709(4) 0.8456(9)
H11 H 0.4915 0.5458 0.9252
C19 C 0.5915(5) 0.6293(4) 0.7126(10)
H12 H 0.6439 0.6438 0.7027
C20 C 0.2676(5) 0.7441(4) 0.1748(10)
H13 H 0.2794 0.7837 0.1523
C21 C 0.5776(5) 0.5927(4) 0.8309(11)
H14 H 0.6197 0.5829 0.9001
C22 C 0.1101(5) 0.3456(4) 0.0927(9)
C23 C 0.3508(5) 0.5613(4) 0.7599(10)
H15 H 0.3147 0.5812 0.6844
C24 C -0.0365(5) 0.4119(4) 0.3623(9)
H16 H -0.0247 0.4520 0.3245
C25 C 0.1743(5) 0.3673(4) -0.0120(10)
H17 H 0.2041 0.4002 0.0390
C26 C 0.0875(6) 0.2865(4) 0.0965(12)
H18 H 0.1124 0.2587 0.0370
C27 C 0.5486(5) 0.6881(4) 0.4863(9)
H19 H 0.5125 0.6775 0.3997
C28 C -0.0100(6) 0.3071(4) 0.2728(10)
H20 H -0.0499 0.2932 0.3328
C29 C 0.0286(7) 0.2680(4) 0.1872(12)
H21 H 0.0150 0.2275 0.1899
C30 C 0.6349(6) 0.6854(6) 0.4382(12)
H22 H 0.6473 0.6451 0.4095
H23 H 0.6719 0.6975 0.5193
H24 H 0.6404 0.7119 0.3553
C31 C 0.5277(7) 0.7519(4) 0.5298(12)
H25 H 0.4727 0.7533 0.5592
H26 H 0.5333 0.7781 0.4465
H27 H 0.5640 0.7646 0.6113
C32 C 0.2370(7) 0.3200(6) -0.0482(15)
H28 H 0.2754 0.3371 -0.1123
H29 H 0.2100 0.2867 -0.0974
H30 H 0.2652 0.3065 0.0421
C33 C 0.1341(6) 0.3931(5) -0.1534(11)
H31 H 0.1752 0.4069 -0.2165
H32 H 0.0999 0.4261 -0.1293
H33 H 0.1018 0.3627 -0.2042
C34 C 0.3480(6) 0.4938(6) 0.7283(15)
H34 H 0.3662 0.4863 0.6309
H35 H 0.2932 0.4796 0.7334
H36 H 0.3828 0.4732 0.8010
C35 C 0.3202(6) 0.5759(7) 0.9101(12)
H37 H 0.3215 0.6185 0.9251
H38 H 0.3543 0.5567 0.9863
H39 H 0.2654 0.5616 0.9145
C36 C -0.0088(8) 0.4108(6) 0.5221(12)
H40 H 0.0491 0.4165 0.5321
H41 H -0.0224 0.3728 0.5644
H42 H -0.0351 0.4424 0.5734
C37 C -0.1289(7) 0.4042(7) 0.3509(15)
H43 H -0.1484 0.4054 0.2483
H44 H -0.1536 0.4360 0.4041
H45 H -0.1429 0.3663 0.3932
loop_
_geom_bond_atom_site_label_1
_geom_bond_atom_site_label_2
_geom_bond_site_symmetry_1
_geom_bond_site_symmetry_2
N1 C2 1_555 1_555
N2 C4 1_555 1_555
C1 C2 1_555 1_555
C2 C5 1_555 1_555
C3 N1 1_555 1_555
C4 C3 1_555 1_555
N3 C8 1_555 1_555
C5 C8 1_555 1_555
C6 N2 1_555 1_555
C7 C3 1_555 1_555
H1 C7 1_555 1_555
C8 C16 1_555 1_555
C9 C1 1_555 1_555
H2 C9 1_555 1_555
C10 C4 1_555 1_555
H3 C10 1_555 1_555
H4 C10 1_555 1_555
H5 C10 1_555 1_555
C11 C5 1_555 1_555
H6 C11 1_555 1_555
C12 N3 1_555 1_555
C13 C1 1_555 1_555
H7 C13 1_555 1_555
C14 C6 1_555 1_555
C15 C12 1_555 1_555
C16 H8 1_555 1_555
H9 C16 1_555 1_555
H10 C16 1_555 1_555
C17 C12 1_555 1_555
C18 C17 1_555 1_555
H11 C18 1_555 1_555
C19 C15 1_555 1_555
H12 C19 1_555 1_555
C20 C11 1_555 1_555
H13 C20 1_555 1_555
C21 C18 1_555 1_555
H14 C21 1_555 1_555
C22 C6 1_555 1_555
C23 C17 1_555 1_555
H15 C23 1_555 1_555
C24 C14 1_555 1_555
H16 C24 1_555 1_555
C25 C22 1_555 1_555
H17 C25 1_555 1_555
C26 C22 1_555 1_555
H18 C26 1_555 1_555
C27 C15 1_555 1_555
H19 C27 1_555 1_555
C28 C14 1_555 1_555
H20 C28 1_555 1_555
C29 C26 1_555 1_555
H21 C29 1_555 1_555
C30 C27 1_555 1_555
H22 C30 1_555 1_555
H23 C30 1_555 1_555
H24 C30 1_555 1_555
C31 C27 1_555 1_555
H25 C31 1_555 1_555
H26 C31 1_555 1_555
H27 C31 1_555 1_555
C32 C25 1_555 1_555
H28 C32 1_555 1_555
H29 C32 1_555 1_555
H30 C32 1_555 1_555
C33 C25 1_555 1_555
H31 C33 1_555 1_555
H32 C33 1_555 1_555
H33 C33 1_555 1_555
C34 C23 1_555 1_555
H34 C34 1_555 1_555
H35 C34 1_555 1_555
H36 C34 1_555 1_555
C35 C23 1_555 1_555
H37 C35 1_555 1_555
H38 C35 1_555 1_555
H39 C35 1_555 1_555
C36 C24 1_555 1_555
H40 C36 1_555 1_555
H41 C36 1_555 1_555
H42 C36 1_555 1_555
C37 C24 1_555 1_555
H43 C37 1_555 1_555
H44 C37 1_555 1_555
H45 C37 1_555 1_555
C7 C9 1_555 1_555
C13 C20 1_555 1_555
C19 C21 1_555 1_555
C28 C29 1_555 1_555

#END
