
#######################################################################
#
#                 Cambridge Crystallographic Data Centre
#                                CCDC 
#
#######################################################################
#
# If this CIF has been generated from an entry in the Cambridge 
# Structural Database, then it will include bibliographic, chemical, 
# crystal, experimental, refinement or atomic coordinate data resulting 
# from the CCDC's data processing and validation procedures.
#
#######################################################################

data_AKEBOJ
_chemical_formula_moiety         'C26 H30 N4'
_chemical_name_systematic        
4-((1'-(4-cyanobenzyl)-4,4'-bipiperidin-1-yl)methyl)benzonitrile
_symmetry_cell_setting           monoclinic
_symmetry_space_group_name_H-M   'P 21/n'
_symmetry_Int_Tables_number      14
_space_group_name_Hall           '-P 2yn'
loop_
_symmetry_equiv_pos_site_id
_symmetry_equiv_pos_as_xyz
1 x,y,z
2 1/2-x,1/2+y,1/2-z
3 -x,-y,-z
4 1/2+x,1/2-y,1/2+z
_cell_length_a                   7.1553(5)
_cell_length_b                   28.203(2)
_cell_length_c                   16.4056(13)
_cell_angle_alpha                90
_cell_angle_beta                 98.339(3)
_cell_angle_gamma                90
_cell_volume                     3275.66
_exptl_crystal_colour            colorless
_exptl_crystal_description       needle
_cell_formula_units_Z            6
loop_
_atom_site_label
_atom_site_type_symbol
_atom_site_fract_x
_atom_site_fract_y
_atom_site_fract_z
N1 N 1.6810(2) 0.18873(5) 1.44052(9)
N2 N 0.78278(16) 0.24452(4) 1.15226(7)
N3 N 0.23547(16) 0.10280(4) 0.83235(7)
N4 N -0.6583(2) 0.12111(5) 0.51512(9)
C1 C 1.5447(2) 0.20314(6) 1.40312(10)
C2 C 1.3796(2) 0.22252(6) 1.35322(9)
C3 C 1.4024(2) 0.25938(6) 1.29990(10)
H1 H 1.5248 0.2719 1.2974
C4 C 1.2479(2) 0.27802(6) 1.25033(10)
H2 H 1.2650 0.3035 1.2142
C5 C 1.0680(2) 0.26026(5) 1.25221(9)
C6 C 0.9017(2) 0.28106(6) 1.19640(10)
H3 H 0.8249 0.3002 1.2298
H4 H 0.9487 0.3025 1.1560
C7 C 0.8836(2) 0.21965(6) 1.09359(9)
H5 H 1.0039 0.2069 1.1228
H6 H 0.9140 0.2422 1.0512
C8 C 0.7651(2) 0.17936(6) 1.05231(9)
H7 H 0.7434 0.1557 1.0945
H8 H 0.8355 0.1636 1.0122
C9 C 0.5740(2) 0.19652(5) 1.00756(9)
H9 H 0.5986 0.2170 0.9605
C10 C 0.4474(2) 0.15524(5) 0.97234(9)
H10 H 0.4202 0.1353 1.0196
C11 C 0.5408(2) 0.12343(6) 0.91427(9)
H11 H 0.5766 0.1428 0.8686
H12 H 0.6575 0.1095 0.9447
C12 C 0.4095(2) 0.08402(6) 0.87917(9)
H13 H 0.4747 0.0638 0.8427
H14 H 0.3775 0.0640 0.9247
C13 C -0.2312(2) 0.06282(6) 0.74530(10)
H15 H -0.2485 0.0441 0.7917
C14 C -0.3850(2) 0.07372(6) 0.68755(10)
H16 H -0.5069 0.0623 0.6941
C15 C -0.3611(2) 0.10140(5) 0.61980(9)
C16 C -0.5245(2) 0.11252(6) 0.56040(10)
C17 C 1.1996(2) 0.20450(6) 1.35687(9)
H17 H 1.1824 0.1795 1.3938
C18 C 1.0466(2) 0.22331(6) 1.30632(9)
H18 H 0.9241 0.2108 1.3085
C19 C 0.2581(2) 0.17191(6) 0.92553(9)
H19 H 0.1884 0.1895 0.9638
H20 H 0.2822 0.1940 0.8814
C20 C 0.1362(2) 0.13126(5) 0.88754(9)
H21 H 0.1011 0.1108 0.9319
H22 H 0.0185 0.1441 0.8562
C21 C -0.0293(2) 0.10685(5) 0.66885(9)
H23 H 0.0926 0.1184 0.6627
C22 C -0.1818(2) 0.11810(5) 0.61039(9)
H24 H -0.1648 0.1370 0.5641
C23 C 0.4797(2) 0.22726(6) 1.06691(9)
H25 H 0.3657 0.2424 1.0364
H26 H 0.4391 0.2068 1.1102
C24 C 0.6112(2) 0.26545(6) 1.10723(10)
H27 H 0.6454 0.2873 1.0645
H28 H 0.5457 0.2841 1.1457
C25 C 0.1168(2) 0.06347(5) 0.79767(9)
H29 H 0.0710 0.0460 0.8432
H30 H 0.1947 0.0414 0.7699
C26 C -0.0513(2) 0.07877(5) 0.73674(9)
N5 N 2.13939(19) -0.04456(5) 0.96738(9)
N6 N 1.20234(17) -0.05927(5) 0.68995(7)
C27 C 1.9937(2) -0.05419(6) 0.93191(10)
C28 C 1.8118(2) -0.06598(6) 0.88670(9)
C29 C 1.6573(2) -0.03606(6) 0.89022(9)
H31 H 1.6703 -0.0085 0.9238
C30 C 1.4858(2) -0.04715(6) 0.84425(9)
H32 H 1.3805 -0.0270 0.8467
C31 C 1.4636(2) -0.08720(6) 0.79438(9)
C32 C 1.2746(2) -0.09825(6) 0.74450(10)
H33 H 1.2868 -0.1270 0.7110
H34 H 1.1825 -0.1053 0.7824
C33 C 1.3187(2) -0.05291(6) 0.62434(10)
H35 H 1.3197 -0.0827 0.5925
H36 H 1.4503 -0.0458 0.6491
C34 C 1.2442(2) -0.01287(6) 0.56674(9)
H37 H 1.3244 -0.0100 0.5226
H38 H 1.2531 0.0173 0.5979
C35 C 1.6174(2) -0.11708(6) 0.79322(9)
H39 H 1.6034 -0.1450 0.7606
C36 C 1.7903(2) -0.10682(6) 0.83870(10)
H40 H 1.8943 -0.1276 0.8372
C37 C 0.9224(2) -0.03037(6) 0.59684(9)
H41 H 0.9155 -0.0011 0.6296
H42 H 0.7922 -0.0392 0.5726
C38 C 1.0072(2) -0.06992(6) 0.65303(10)
H43 H 0.9290 -0.0748 0.6974
H44 H 1.0055 -0.0997 0.6211
C39 C 1.0392(2) -0.02074(6) 0.52764(9)
H45 H 1.0350 -0.0498 0.4926
N5B N -0.13939(19) 0.04456(5) 0.03262(9)
N6B N 0.79766(17) 0.05927(5) 0.31005(7)
C27B C 0.0063(2) 0.05419(6) 0.06809(10)
C28B C 0.1882(2) 0.06598(6) 0.11330(9)
C29B C 0.3427(2) 0.03606(6) 0.10978(9)
H31B H 0.3297 0.0085 0.0762
C30B C 0.5142(2) 0.04715(6) 0.15575(9)
H32B H 0.6195 0.0270 0.1533
C31B C 0.5364(2) 0.08720(6) 0.20562(9)
C32B C 0.7254(2) 0.09825(6) 0.25550(10)
H33B H 0.7132 0.1270 0.2890
H34B H 0.8175 0.1053 0.2176
C33B C 0.6813(2) 0.05291(6) 0.37566(10)
H35B H 0.6803 0.0827 0.4075
H36B H 0.5497 0.0458 0.3509
C34B C 0.7558(2) 0.01287(6) 0.43326(9)
H37B H 0.6756 0.0100 0.4774
H38B H 0.7469 -0.0173 0.4021
C35B C 0.3826(2) 0.11708(6) 0.20678(9)
H39B H 0.3966 0.1450 0.2394
C36B C 0.2097(2) 0.10682(6) 0.16130(10)
H40B H 0.1057 0.1276 0.1628
C37B C 1.0776(2) 0.03037(6) 0.40316(9)
H41B H 1.0845 0.0011 0.3704
H42B H 1.2078 0.0392 0.4274
C38B C 0.9928(2) 0.06992(6) 0.34697(10)
H43B H 1.0710 0.0748 0.3026
H44B H 0.9945 0.0997 0.3789
C39B C 0.9608(2) 0.02074(6) 0.47236(9)
H45B H 0.9650 0.0498 0.5074
loop_
_geom_bond_atom_site_label_1
_geom_bond_atom_site_label_2
_geom_bond_site_symmetry_1
_geom_bond_site_symmetry_2
N1 C1 1_555 1_555
N2 C6 1_555 1_555
N3 C12 1_555 1_555
N4 C16 1_555 1_555
C1 C2 1_555 1_555
C2 C3 1_555 1_555
C3 H1 1_555 1_555
C4 C3 1_555 1_555
H2 C4 1_555 1_555
C5 C4 1_555 1_555
C6 C5 1_555 1_555
H3 C6 1_555 1_555
H4 C6 1_555 1_555
C7 N2 1_555 1_555
H5 C7 1_555 1_555
H6 C7 1_555 1_555
C8 C7 1_555 1_555
H7 C8 1_555 1_555
H8 C8 1_555 1_555
C9 C8 1_555 1_555
H9 C9 1_555 1_555
C10 C9 1_555 1_555
H10 C10 1_555 1_555
C11 C10 1_555 1_555
H11 C11 1_555 1_555
H12 C11 1_555 1_555
C12 C11 1_555 1_555
H13 C12 1_555 1_555
H14 C12 1_555 1_555
C13 H15 1_555 1_555
C14 C13 1_555 1_555
H16 C14 1_555 1_555
C15 C14 1_555 1_555
C16 C15 1_555 1_555
C17 C2 1_555 1_555
H17 C17 1_555 1_555
C18 C5 1_555 1_555
H18 C18 1_555 1_555
C19 C10 1_555 1_555
H19 C19 1_555 1_555
H20 C19 1_555 1_555
C20 N3 1_555 1_555
H21 C20 1_555 1_555
H22 C20 1_555 1_555
C21 H23 1_555 1_555
C22 C15 1_555 1_555
H24 C22 1_555 1_555
C23 C9 1_555 1_555
H25 C23 1_555 1_555
H26 C23 1_555 1_555
C24 N2 1_555 1_555
H27 C24 1_555 1_555
H28 C24 1_555 1_555
C25 N3 1_555 1_555
H29 C25 1_555 1_555
H30 C25 1_555 1_555
C26 C13 1_555 1_555
N5 C27 1_555 1_555
N6 C32 1_555 1_555
C27 C28 1_555 1_555
C28 C29 1_555 1_555
C29 H31 1_555 1_555
C30 C29 1_555 1_555
H32 C30 1_555 1_555
C31 C30 1_555 1_555
C32 C31 1_555 1_555
H33 C32 1_555 1_555
H34 C32 1_555 1_555
C33 N6 1_555 1_555
H35 C33 1_555 1_555
H36 C33 1_555 1_555
C34 C33 1_555 1_555
H37 C34 1_555 1_555
H38 C34 1_555 1_555
C35 C31 1_555 1_555
H39 C35 1_555 1_555
C36 C28 1_555 1_555
H40 C36 1_555 1_555
C37 H41 1_555 1_555
H42 C37 1_555 1_555
C38 N6 1_555 1_555
H43 C38 1_555 1_555
H44 C38 1_555 1_555
C39 C34 1_555 1_555
H45 C39 1_555 1_555
N5B C27B 1_555 1_555
N6B C32B 1_555 1_555
C27B C28B 1_555 1_555
C28B C29B 1_555 1_555
C29B H31B 1_555 1_555
C30B C29B 1_555 1_555
H32B C30B 1_555 1_555
C31B C30B 1_555 1_555
C32B C31B 1_555 1_555
H33B C32B 1_555 1_555
H34B C32B 1_555 1_555
C33B N6B 1_555 1_555
H35B C33B 1_555 1_555
H36B C33B 1_555 1_555
C34B C33B 1_555 1_555
H37B C34B 1_555 1_555
H38B C34B 1_555 1_555
C35B C31B 1_555 1_555
H39B C35B 1_555 1_555
C36B C28B 1_555 1_555
H40B C36B 1_555 1_555
C37B H41B 1_555 1_555
H42B C37B 1_555 1_555
C38B N6B 1_555 1_555
H43B C38B 1_555 1_555
H44B C38B 1_555 1_555
C39B C39 1_555 1_555
H45B C39B 1_555 1_555
C17 C18 1_555 1_555
C19 C20 1_555 1_555
C21 C22 1_555 1_555
C21 C26 1_555 1_555
C23 C24 1_555 1_555
C25 C26 1_555 1_555
C35 C36 1_555 1_555
C37 C38 1_555 1_555
C37 C39 1_555 1_555
C34B C39B 1_555 1_555
C35B C36B 1_555 1_555
C37B C38B 1_555 1_555
C37B C39B 1_555 1_555

#END
