
#######################################################################
#
#                 Cambridge Crystallographic Data Centre
#                                CCDC 
#
#######################################################################
#
# If this CIF has been generated from an entry in the Cambridge 
# Structural Database, then it will include bibliographic, chemical, 
# crystal, experimental, refinement or atomic coordinate data resulting 
# from the CCDC's data processing and validation procedures.
#
#######################################################################

data_AKETOB
_chemical_formula_moiety         'C19 H21 Cl1 N2 O3 S1,C1 H1 Cl3'
_chemical_name_systematic        
'N-(2-(3-chloro-1,6-dimethyl-2-oxo-2,3-dihydro-1H-indol-3-yl)ethyl)-4-methylbenzenesulfonamide chloroform solvate'
_symmetry_cell_setting           triclinic
_symmetry_space_group_name_H-M   'P -1'
_symmetry_Int_Tables_number      2
_space_group_name_Hall           '-P 1'
loop_
_symmetry_equiv_pos_site_id
_symmetry_equiv_pos_as_xyz
1 x,y,z
2 -x,-y,-z
_cell_length_a                   9.4986(3)
_cell_length_b                   11.7221(3)
_cell_length_c                   11.7911(8)
_cell_angle_alpha                94.153(7)
_cell_angle_beta                 110.479(8)
_cell_angle_gamma                103.567(7)
_cell_volume                     1178.24
_exptl_crystal_colour            colorless
_exptl_crystal_description       platelet
_cell_formula_units_Z            2
loop_
_atom_site_label
_atom_site_type_symbol
_atom_site_fract_x
_atom_site_fract_y
_atom_site_fract_z
Cl1 Cl 0.37324(19) 0.0343(2) 0.10859(15)
Cl2 Cl 0.53879(16) 0.02444(12) 0.36215(14)
Cl3 Cl 0.6542(2) 0.21424(15) 0.25139(13)
C1 C 0.4880(5) 0.1150(4) 0.2546(4)
H1 H 0.4270 0.1616 0.2791
Cl4 Cl 0.29098(10) 0.73830(7) 0.28725(9)
S1 S 0.20364(10) 0.25776(7) 0.43182(7)
O1 O 0.3240(4) 0.2081(3) 0.4227(3)
O2 O 0.0648(3) 0.2448(3) 0.3264(2)
O3 O 0.4350(2) 0.5201(2) 0.2966(2)
N1 N 0.1797(3) 0.4280(2) 0.1693(2)
N2 N 0.2874(3) 0.3985(2) 0.4791(3)
H2 H 0.375(3) 0.413(4) 0.534(3)
C2 C 0.0069(6) 0.0475(4) 0.8245(4)
H3 H 0.0859 0.0834 0.9040
H4 H -0.0062 -0.0369 0.8125
H5 H -0.0902 0.0623 0.8193
C3 C 0.0559(4) 0.0999(3) 0.7272(3)
C4 C -0.0546(4) 0.0995(3) 0.6135(3)
H6 H -0.1599 0.0657 0.5975
C5 C -0.0119(4) 0.1482(3) 0.5232(3)
H7 H -0.0877 0.1478 0.4474
C6 C 0.1459(3) 0.1980(3) 0.5468(3)
C7 C 0.1983(4) 0.4810(3) 0.4914(3)
H8 H 0.2083 0.4962 0.5763
H9 H 0.0885 0.4453 0.4411
C8 C 0.2560(4) 0.5980(3) 0.4521(3)
H10 H 0.3686 0.6269 0.4944
H11 H 0.2109 0.6561 0.4782
C9 C 0.2165(3) 0.5901(2) 0.3143(3)
C10 C 0.0469(3) 0.5400(2) 0.2348(3)
C11 C -0.0837(4) 0.5713(3) 0.2365(3)
H12 H -0.0742 0.6359 0.2921
C12 C -0.2299(4) 0.5040(3) 0.1531(3)
H13 H -0.3190 0.5239 0.1534
C13 C -0.2455(4) 0.4080(3) 0.0696(3)
C14 C -0.4064(4) 0.3376(4) -0.0214(4)
H14 H -0.4318 0.3724 -0.0946
H15 H -0.4826 0.3391 0.0145
H16 H -0.4067 0.2567 -0.0416
C15 C -0.1138(4) 0.3764(3) 0.0685(3)
H17 H -0.1228 0.3120 0.0129
C16 C 0.0310(3) 0.4432(2) 0.1519(3)
C17 C 0.2073(5) 0.3324(3) 0.1024(3)
H18 H 0.3175 0.3401 0.1314
H19 H 0.1690 0.3366 0.0164
H20 H 0.1537 0.2572 0.1152
C18 C 0.2950(3) 0.5099(3) 0.2626(3)
C19 C 0.2581(4) 0.1990(3) 0.6593(3)
H21 H 0.3635 0.2320 0.6750
C20 C 0.2128(4) 0.1505(3) 0.7486(3)
H22 H 0.2887 0.1516 0.8246
loop_
_geom_bond_atom_site_label_1
_geom_bond_atom_site_label_2
_geom_bond_site_symmetry_1
_geom_bond_site_symmetry_2
Cl1 C1 1_555 1_555
Cl2 C1 1_555 1_555
Cl3 C1 1_555 1_555
C1 H1 1_555 1_555
Cl4 C9 1_555 1_555
S1 O1 1_555 1_555
O2 S1 1_555 1_555
O3 C18 1_555 1_555
N1 C16 1_555 1_555
N2 S1 1_555 1_555
H2 N2 1_555 1_555
C2 H3 1_555 1_555
H4 C2 1_555 1_555
H5 C2 1_555 1_555
C3 C2 1_555 1_555
C4 C3 1_555 1_555
H6 C4 1_555 1_555
C5 C4 1_555 1_555
H7 C5 1_555 1_555
C6 S1 1_555 1_555
C7 N2 1_555 1_555
H8 C7 1_555 1_555
H9 C7 1_555 1_555
C8 C7 1_555 1_555
H10 C8 1_555 1_555
H11 C8 1_555 1_555
C9 C8 1_555 1_555
C10 C9 1_555 1_555
C11 C10 1_555 1_555
H12 C11 1_555 1_555
C12 C11 1_555 1_555
H13 C12 1_555 1_555
C13 C12 1_555 1_555
C14 C13 1_555 1_555
H14 C14 1_555 1_555
H15 C14 1_555 1_555
H16 C14 1_555 1_555
C15 C13 1_555 1_555
H17 C15 1_555 1_555
C16 C10 1_555 1_555
C17 N1 1_555 1_555
H18 C17 1_555 1_555
H19 C17 1_555 1_555
H20 C17 1_555 1_555
C18 N1 1_555 1_555
C19 C6 1_555 1_555
H21 C19 1_555 1_555
C20 C3 1_555 1_555
H22 C20 1_555 1_555
C5 C6 1_555 1_555
C9 C18 1_555 1_555
C15 C16 1_555 1_555
C19 C20 1_555 1_555

#END
