
#######################################################################
#
#                 Cambridge Crystallographic Data Centre
#                                CCDC 
#
#######################################################################
#
# If this CIF has been generated from an entry in the Cambridge 
# Structural Database, then it will include bibliographic, chemical, 
# crystal, experimental, refinement or atomic coordinate data resulting 
# from the CCDC's data processing and validation procedures.
#
#######################################################################

data_AKITEV
_chemical_formula_moiety         'C23 H21 F1 N4'
_chemical_name_systematic        
N,N-dibenzyl-1-(4-(4-fluorophenyl)-2H-1,2,3-triazol-2-yl)methanamine
_symmetry_cell_setting           triclinic
_symmetry_space_group_name_H-M   'P -1'
_symmetry_Int_Tables_number      2
_space_group_name_Hall           '-P 1'
loop_
_symmetry_equiv_pos_site_id
_symmetry_equiv_pos_as_xyz
1 x,y,z
2 -x,-y,-z
_cell_length_a                   10.5273(12)
_cell_length_b                   11.4221(14)
_cell_length_c                   34.217(4)
_cell_angle_alpha                90.072(3)
_cell_angle_beta                 98.137(3)
_cell_angle_gamma                105.697(3)
_cell_volume                     3917.69
_exptl_crystal_colour            colorless
_exptl_crystal_description       prismatic
_cell_formula_units_Z            8
loop_
_atom_site_label
_atom_site_type_symbol
_atom_site_fract_x
_atom_site_fract_y
_atom_site_fract_z
F1 F 0.3477(2) 0.0432(2) -0.10437(7)
N1 N 1.0070(2) 0.2842(2) 0.12374(7)
N2 N 0.9572(3) 0.2187(2) 0.05338(7)
N3 N 0.9801(3) 0.1107(3) 0.04916(9)
N4 N 0.8514(2) 0.2326(2) 0.02976(7)
C1 C 0.8826(4) 0.0535(3) 0.02097(11)
H1 H 0.8703 -0.0253 0.0111
C2 C 0.8025(3) 0.1277(3) 0.00858(8)
C3 C 0.6848(3) 0.1053(3) -0.02176(8)
C4 C 0.6158(4) -0.0092(3) -0.03564(13)
H2 H 0.6448 -0.0750 -0.0259
C5 C 0.5038(5) -0.0298(4) -0.06375(14)
H3 H 0.4590 -0.1087 -0.0731
C6 C 0.4598(4) 0.0634(3) -0.07748(10)
C7 C 0.5298(4) 0.1773(3) -0.06644(11)
H4 H 0.5025 0.2425 -0.0775
C8 C 0.6432(4) 0.1986(3) -0.03852(11)
H5 H 0.6918 0.2783 -0.0311
C9 C 1.0343(3) 0.3104(3) 0.08430(8)
H6 H 1.1285 0.3197 0.0839
H7 H 1.0171 0.3878 0.0777
C10 C 0.8652(3) 0.2607(3) 0.12725(8)
H8 H 0.8169 0.1820 0.1147
H9 H 0.8302 0.3220 0.1134
C11 C 0.8418(3) 0.2623(3) 0.16960(8)
C12 C 0.8945(3) 0.3664(3) 0.19377(10)
H10 H 0.9460 0.4363 0.1838
C13 C 0.8716(4) 0.3678(3) 0.23234(11)
H11 H 0.9071 0.4385 0.2482
C14 C 0.7966(4) 0.2655(4) 0.24749(10)
H12 H 0.7804 0.2666 0.2735
C15 C 0.7460(3) 0.1620(3) 0.22405(10)
H13 H 0.6961 0.0919 0.2343
C16 C 0.7682(3) 0.1606(3) 0.18550(9)
H14 H 0.7327 0.0894 0.1699
C17 C 1.0667(3) 0.1910(3) 0.14166(9)
H15 H 1.0449 0.1209 0.1234
H16 H 1.0291 0.1648 0.1655
C18 C 1.2161(3) 0.2382(3) 0.15169(8)
C19 C 1.2722(3) 0.3382(3) 0.17659(10)
H17 H 1.2176 0.3812 0.1855
C20 C 1.4081(4) 0.3767(4) 0.18876(12)
H18 H 1.4437 0.4445 0.2059
C21 C 1.4906(4) 0.3161(4) 0.17580(13)
H19 H 1.5821 0.3413 0.1842
C22 C 1.4366(4) 0.2187(4) 0.15045(14)
H20 H 1.4921 0.1776 0.1411
C23 C 1.3000(4) 0.1788(3) 0.13811(11)
H21 H 1.2651 0.1118 0.1206
F2 F 0.3301(2) 0.54592(19) -0.09942(6)
N5 N 1.0015(2) 0.7840(2) 0.12394(7)
N6 N 0.9536(2) 0.7216(2) 0.05336(7)
N7 N 0.9825(3) 0.6173(2) 0.04697(8)
N8 N 0.8426(2) 0.7332(2) 0.03171(7)
C24 C 0.8841(3) 0.5601(3) 0.01914(10)
H22 H 0.8754 0.4837 0.0078
C25 C 0.7962(3) 0.6301(2) 0.00923(8)
C26 C 0.6740(3) 0.6083(2) -0.01945(8)
C27 C 0.6507(3) 0.5304(3) -0.05210(10)
H23 H 0.7145 0.4908 -0.0562
C28 C 0.5347(4) 0.5095(3) -0.07892(11)
H24 H 0.5208 0.4569 -0.1008
C29 C 0.4433(4) 0.5659(3) -0.07293(10)
C30 C 0.4574(4) 0.6429(3) -0.04084(11)
H25 H 0.3914 0.6801 -0.0371
C31 C 0.5748(3) 0.6630(3) -0.01411(10)
H26 H 0.5870 0.7147 0.0080
C32 C 1.0303(3) 0.8127(2) 0.08479(8)
H27 H 1.1246 0.8225 0.0845
H28 H 1.0129 0.8903 0.0786
C33 C 0.8594(3) 0.7620(3) 0.12739(8)
H29 H 0.8098 0.6847 0.1141
H30 H 0.8261 0.8253 0.1143
C34 C 0.8363(3) 0.7602(3) 0.16973(8)
C35 C 0.8855(3) 0.8633(3) 0.19471(10)
H31 H 0.9342 0.9352 0.1851
C36 C 0.8635(3) 0.8610(3) 0.23316(11)
H32 H 0.8966 0.9315 0.2493
C37 C 0.7934(3) 0.7563(3) 0.24833(10)
H33 H 0.7788 0.7554 0.2745
C38 C 0.7447(3) 0.6522(3) 0.22435(10)
H34 H 0.6976 0.5803 0.2343
C39 C 0.7663(3) 0.6551(3) 0.18537(9)
H35 H 0.7327 0.5846 0.1693
C40 C 1.0607(3) 0.6911(2) 0.14164(9)
H36 H 1.0408 0.6222 0.1230
H37 H 1.0207 0.6628 0.1650
C41 C 1.2093(3) 0.7378(3) 0.15297(8)
C42 C 1.2672(3) 0.8528(3) 0.17015(11)
H38 H 1.2144 0.9051 0.1726
C43 C 1.4015(4) 0.8911(4) 0.18369(12)
H39 H 1.4384 0.9691 0.1950
C44 C 1.4815(4) 0.8165(4) 0.18082(12)
H40 H 1.5726 0.8432 0.1898
C45 C 1.4251(4) 0.7017(4) 0.16446(11)
H41 H 1.4781 0.6491 0.1630
C46 C 1.2902(4) 0.6627(3) 0.15008(10)
H42 H 1.2541 0.5851 0.1384
F3 F 0.6725(2) 1.13119(19) 0.60021(6)
N9 N 0.0015(2) 1.0349(2) 0.37553(7)
N10 N 0.0521(3) 0.9985(2) 0.44632(7)
N11 N 0.0214(3) 0.8811(2) 0.45372(9)
N12 N 0.1636(2) 1.0655(2) 0.46770(7)
C47 C 0.1186(3) 0.8728(3) 0.48147(10)
H43 H 0.1263 0.8011 0.4932
C48 C 0.2081(3) 0.9867(3) 0.49068(8)
C49 C 0.3304(3) 1.0240(2) 0.51981(8)
C50 C 0.3493(3) 0.9581(3) 0.55293(9)
H44 H 0.2834 0.8882 0.5570
C51 C 0.4639(4) 0.9940(3) 0.58002(10)
H45 H 0.4753 0.9493 0.6023
C52 C 0.5598(4) 1.0954(3) 0.57367(10)
C53 C 0.5469(3) 1.1636(3) 0.54097(10)
H46 H 0.6142 1.2324 0.5370
C54 C 0.4306(3) 1.1265(3) 0.51425(9)
H47 H 0.4197 1.1716 0.4920
C55 C -0.0249(3) 1.0506(3) 0.41526(9)
H48 H -0.1190 1.0140 0.4160
H49 H -0.0067 1.1370 0.4214
C56 C 0.1427(3) 1.0834(3) 0.37154(9)
H50 H 0.1928 1.0311 0.3847
H51 H 0.1766 1.1636 0.3845
C57 C 0.1639(3) 1.0920(3) 0.32892(9)
C58 C 0.1129(3) 1.1691(3) 0.30424(10)
H52 H 0.0645 1.2166 0.3140
C59 C 0.1330(4) 1.1764(3) 0.26525(11)
H53 H 0.0986 1.2291 0.2490
C60 C 0.2035(3) 1.1062(3) 0.25040(10)
H54 H 0.2174 1.1113 0.2241
C61 C 0.2531(3) 1.0287(3) 0.27446(10)
H55 H 0.3005 0.9805 0.2645
C62 C 0.2332(3) 1.0215(3) 0.31347(9)
H56 H 0.2672 0.9682 0.3295
C63 C -0.0580(3) 0.9108(2) 0.35887(9)
H57 H -0.0349 0.8537 0.3776
H58 H -0.0211 0.9011 0.3350
C64 C -0.2072(3) 0.8817(3) 0.34921(9)
C65 C -0.2649(3) 0.9530(3) 0.32423(10)
H59 H -0.2108 1.0229 0.3151
C66 C -0.4010(4) 0.9237(4) 0.31235(11)
H60 H -0.4376 0.9727 0.2950
C67 C -0.4819(4) 0.8219(4) 0.32619(14)
H61 H -0.5738 0.8014 0.3185
C68 C -0.4261(4) 0.7515(4) 0.35133(14)
H62 H -0.4806 0.6824 0.3608
C69 C -0.2895(4) 0.7809(3) 0.36313(11)
H63 H -0.2533 0.7320 0.3806
F4 F 0.6489(2) 0.6157(2) 0.60358(7)
N13 N -0.0082(2) 0.53265(19) 0.37647(6)
N14 N 0.0373(2) 0.4899(2) 0.44680(7)
N15 N 0.0148(3) 0.3703(2) 0.45013(8)
N16 N 0.1434(2) 0.5567(2) 0.47050(7)
C70 C 0.1126(3) 0.3608(3) 0.47802(10)
H64 H 0.1256 0.2879 0.4874
C71 C 0.1925(3) 0.4754(2) 0.49114(8)
C72 C 0.3106(3) 0.5116(2) 0.52146(8)
C73 C 0.3810(4) 0.4303(3) 0.53410(11)
H65 H 0.3523 0.3507 0.5237
C74 C 0.4942(4) 0.4649(4) 0.56206(11)
H66 H 0.5409 0.4088 0.5705
C75 C 0.5365(4) 0.5810(3) 0.57706(10)
C76 C 0.4672(3) 0.6623(3) 0.56601(9)
H67 H 0.4953 0.7410 0.5771
C77 C 0.3547(3) 0.6275(3) 0.53813(9)
H68 H 0.3075 0.6838 0.5304
C78 C -0.0376(3) 0.5443(2) 0.41578(8)
H69 H -0.1321 0.5071 0.4157
H70 H -0.0202 0.6302 0.4226
C79 C 0.1345(3) 0.5799(3) 0.37365(8)
H71 H 0.1821 0.5251 0.3863
H72 H 0.1689 0.6585 0.3877
C80 C 0.1597(3) 0.5935(3) 0.33151(8)
C81 C 0.1081(3) 0.6718(3) 0.30705(10)
H73 H 0.0562 0.7159 0.3168
C82 C 0.1324(3) 0.6850(3) 0.26872(10)
H74 H 0.0976 0.7382 0.2528
C83 C 0.2074(3) 0.6204(3) 0.25390(10)
H75 H 0.2243 0.6296 0.2280
C84 C 0.2577(3) 0.5419(3) 0.27739(10)
H76 H 0.3085 0.4973 0.2673
C85 C 0.2339(3) 0.5286(3) 0.31570(9)
H77 H 0.2686 0.4746 0.3313
C86 C -0.0679(3) 0.4109(2) 0.35784(8)
H78 H -0.0488 0.3508 0.3761
H79 H -0.0272 0.4039 0.3345
C87 C -0.2164(3) 0.3839(3) 0.34613(8)
C88 C -0.2733(3) 0.4699(3) 0.32936(11)
H80 H -0.2197 0.5485 0.3275
C89 C -0.4074(4) 0.4432(4) 0.31518(12)
H81 H -0.4435 0.5031 0.3038
C90 C -0.4873(4) 0.3275(4) 0.31801(12)
H82 H -0.5782 0.3084 0.3087
C91 C -0.4319(4) 0.2410(4) 0.33460(11)
H83 H -0.4857 0.1623 0.3363
C92 C -0.2976(3) 0.2681(3) 0.34897(9)
H84 H -0.2617 0.2083 0.3606
loop_
_geom_bond_atom_site_label_1
_geom_bond_atom_site_label_2
_geom_bond_site_symmetry_1
_geom_bond_site_symmetry_2
F1 C6 1_555 1_555
N1 C9 1_555 1_555
N2 N3 1_555 1_555
N3 C1 1_555 1_555
N4 N2 1_555 1_555
C1 H1 1_555 1_555
C2 N4 1_555 1_555
C3 C2 1_555 1_555
C4 C3 1_555 1_555
H2 C4 1_555 1_555
C5 C4 1_555 1_555
H3 C5 1_555 1_555
C6 C5 1_555 1_555
C7 C6 1_555 1_555
H4 C7 1_555 1_555
C8 C3 1_555 1_555
H5 C8 1_555 1_555
C9 N2 1_555 1_555
H6 C9 1_555 1_555
H7 C9 1_555 1_555
C10 N1 1_555 1_555
H8 C10 1_555 1_555
H9 C10 1_555 1_555
C11 C10 1_555 1_555
C12 C11 1_555 1_555
H10 C12 1_555 1_555
C13 C12 1_555 1_555
H11 C13 1_555 1_555
C14 C13 1_555 1_555
H12 C14 1_555 1_555
C15 C14 1_555 1_555
H13 C15 1_555 1_555
C16 C11 1_555 1_555
H14 C16 1_555 1_555
C17 N1 1_555 1_555
H15 C17 1_555 1_555
H16 C17 1_555 1_555
C18 C17 1_555 1_555
C19 C18 1_555 1_555
H17 C19 1_555 1_555
C20 C19 1_555 1_555
H18 C20 1_555 1_555
C21 C20 1_555 1_555
H19 C21 1_555 1_555
C22 C21 1_555 1_555
H20 C22 1_555 1_555
C23 C18 1_555 1_555
H21 C23 1_555 1_555
F2 C29 1_555 1_555
N5 C32 1_555 1_555
N6 N7 1_555 1_555
N7 C24 1_555 1_555
N8 N6 1_555 1_555
C24 H22 1_555 1_555
C25 N8 1_555 1_555
C26 C25 1_555 1_555
C27 C26 1_555 1_555
H23 C27 1_555 1_555
C28 C27 1_555 1_555
H24 C28 1_555 1_555
C29 C28 1_555 1_555
C30 C29 1_555 1_555
H25 C30 1_555 1_555
C31 C26 1_555 1_555
H26 C31 1_555 1_555
C32 N6 1_555 1_555
H27 C32 1_555 1_555
H28 C32 1_555 1_555
C33 N5 1_555 1_555
H29 C33 1_555 1_555
H30 C33 1_555 1_555
C34 C33 1_555 1_555
C35 C34 1_555 1_555
H31 C35 1_555 1_555
C36 C35 1_555 1_555
H32 C36 1_555 1_555
C37 C36 1_555 1_555
H33 C37 1_555 1_555
C38 C37 1_555 1_555
H34 C38 1_555 1_555
C39 C34 1_555 1_555
H35 C39 1_555 1_555
C40 N5 1_555 1_555
H36 C40 1_555 1_555
H37 C40 1_555 1_555
C41 C40 1_555 1_555
C42 C41 1_555 1_555
H38 C42 1_555 1_555
C43 C42 1_555 1_555
H39 C43 1_555 1_555
C44 C43 1_555 1_555
H40 C44 1_555 1_555
C45 C44 1_555 1_555
H41 C45 1_555 1_555
C46 C41 1_555 1_555
H42 C46 1_555 1_555
F3 C52 1_555 1_555
N9 C55 1_555 1_555
N10 N11 1_555 1_555
N11 C47 1_555 1_555
N12 N10 1_555 1_555
C47 H43 1_555 1_555
C48 N12 1_555 1_555
C49 C48 1_555 1_555
C50 C49 1_555 1_555
H44 C50 1_555 1_555
C51 C50 1_555 1_555
H45 C51 1_555 1_555
C52 C51 1_555 1_555
C53 C52 1_555 1_555
H46 C53 1_555 1_555
C54 C49 1_555 1_555
H47 C54 1_555 1_555
C55 N10 1_555 1_555
H48 C55 1_555 1_555
H49 C55 1_555 1_555
C56 N9 1_555 1_555
H50 C56 1_555 1_555
H51 C56 1_555 1_555
C57 C56 1_555 1_555
C58 C57 1_555 1_555
H52 C58 1_555 1_555
C59 C58 1_555 1_555
H53 C59 1_555 1_555
C60 C59 1_555 1_555
H54 C60 1_555 1_555
C61 C60 1_555 1_555
H55 C61 1_555 1_555
C62 C57 1_555 1_555
H56 C62 1_555 1_555
C63 N9 1_555 1_555
H57 C63 1_555 1_555
H58 C63 1_555 1_555
C64 C63 1_555 1_555
C65 C64 1_555 1_555
H59 C65 1_555 1_555
C66 C65 1_555 1_555
H60 C66 1_555 1_555
C67 C66 1_555 1_555
H61 C67 1_555 1_555
C68 C67 1_555 1_555
H62 C68 1_555 1_555
C69 C64 1_555 1_555
H63 C69 1_555 1_555
F4 C75 1_555 1_555
N13 C78 1_555 1_555
N14 N15 1_555 1_555
N15 C70 1_555 1_555
N16 N14 1_555 1_555
C70 H64 1_555 1_555
C71 N16 1_555 1_555
C72 C71 1_555 1_555
C73 C72 1_555 1_555
H65 C73 1_555 1_555
C74 C73 1_555 1_555
H66 C74 1_555 1_555
C75 C74 1_555 1_555
C76 C75 1_555 1_555
H67 C76 1_555 1_555
C77 C72 1_555 1_555
H68 C77 1_555 1_555
C78 N14 1_555 1_555
H69 C78 1_555 1_555
H70 C78 1_555 1_555
C79 N13 1_555 1_555
H71 C79 1_555 1_555
H72 C79 1_555 1_555
C80 C79 1_555 1_555
C81 C80 1_555 1_555
H73 C81 1_555 1_555
C82 C81 1_555 1_555
H74 C82 1_555 1_555
C83 C82 1_555 1_555
H75 C83 1_555 1_555
C84 C83 1_555 1_555
H76 C84 1_555 1_555
C85 C80 1_555 1_555
H77 C85 1_555 1_555
C86 N13 1_555 1_555
H78 C86 1_555 1_555
H79 C86 1_555 1_555
C87 C86 1_555 1_555
C88 C87 1_555 1_555
H80 C88 1_555 1_555
C89 C88 1_555 1_555
H81 C89 1_555 1_555
C90 C89 1_555 1_555
H82 C90 1_555 1_555
C91 C90 1_555 1_555
H83 C91 1_555 1_555
C92 C87 1_555 1_555
H84 C92 1_555 1_555
C1 C2 1_555 1_555
C7 C8 1_555 1_555
C15 C16 1_555 1_555
C22 C23 1_555 1_555
C24 C25 1_555 1_555
C30 C31 1_555 1_555
C38 C39 1_555 1_555
C45 C46 1_555 1_555
C47 C48 1_555 1_555
C53 C54 1_555 1_555
C61 C62 1_555 1_555
C68 C69 1_555 1_555
C70 C71 1_555 1_555
C76 C77 1_555 1_555
C84 C85 1_555 1_555
C91 C92 1_555 1_555

#END
