
#######################################################################
#
#                 Cambridge Crystallographic Data Centre
#                                CCDC 
#
#######################################################################
#
# If this CIF has been generated from an entry in the Cambridge 
# Structural Database, then it will include bibliographic, chemical, 
# crystal, experimental, refinement or atomic coordinate data resulting 
# from the CCDC's data processing and validation procedures.
#
#######################################################################

data_AKOJAN
_chemical_formula_moiety         'C19 H7 F5 N4,C2 H6 O1 S1'
_chemical_name_systematic        
'2-(Pentafluorophenyl)-1H-imidazo[4,5-b]phenazine dimethyl sulfoxide solvate'
_symmetry_cell_setting           monoclinic
_symmetry_space_group_name_H-M   'P 21/c'
_symmetry_Int_Tables_number      14
_space_group_name_Hall           '-P 2ybc'
loop_
_symmetry_equiv_pos_site_id
_symmetry_equiv_pos_as_xyz
1 x,y,z
2 -x,1/2+y,1/2-z
3 -x,-y,-z
4 x,1/2-y,1/2+z
_cell_length_a                   7.0576(6)
_cell_length_b                   10.7369(12)
_cell_length_c                   24.894(2)
_cell_angle_alpha                90
_cell_angle_beta                 91.844(3)
_cell_angle_gamma                90
_cell_volume                     1885.41
_exptl_crystal_colour            orange
_exptl_crystal_description       block
_cell_formula_units_Z            4
loop_
_atom_site_label
_atom_site_type_symbol
_atom_site_fract_x
_atom_site_fract_y
_atom_site_fract_z
C1 C 0.6805(2) 0.02495(15) 1.15077(6)
C2 C 0.6194(3) -0.04540(16) 1.19335(6)
C3 C 0.5590(2) -0.16647(16) 1.18521(6)
C4 C 0.5601(2) -0.21612(15) 1.13428(7)
C5 C 0.6203(2) -0.14398(15) 1.09217(6)
C6 C 0.6825(2) -0.02124(15) 1.09821(6)
C7 C 0.7451(2) 0.05530(15) 1.05285(6)
C8 C 0.8486(2) 0.20713(14) 1.00651(6)
C9 C 0.8159(2) 0.10548(14) 0.96990(6)
C10 C 0.8487(2) 0.11192(15) 0.91608(6)
H1 H 0.8262 0.0428 0.8929
C11 C 0.9176(2) 0.22667(14) 0.89661(6)
C12 C 0.9522(2) 0.33043(15) 0.93317(6)
C13 C 0.9143(2) 0.31978(15) 0.98866(6)
H2 H 0.9336 0.3880 1.0125
C14 C 1.0549(2) 0.44878(15) 0.86281(6)
C15 C 1.0178(2) 0.34655(15) 0.82656(6)
C16 C 1.0572(3) 0.36277(17) 0.77088(7)
H3 H 1.0347 0.2963 0.7463
C17 C 1.1265(3) 0.47271(18) 0.75306(7)
H4 H 1.1501 0.4827 0.7160
C18 C 1.1643(2) 0.57343(16) 0.78921(7)
H5 H 1.2153 0.6489 0.7760
C19 C 1.1284(2) 0.56291(16) 0.84248(7)
H6 H 1.1522 0.6312 0.8660
F1 F 0.73957(16) 0.14050(9) 1.16267(4)
F2 F 0.61925(17) 0.00395(10) 1.24279(4)
F3 F 0.50073(15) -0.23521(10) 1.22639(4)
F4 F 0.50209(15) -0.33339(9) 1.12552(4)
F5 F 0.61523(15) -0.19839(9) 1.04333(4)
N1 N 0.8027(2) 0.17133(13) 1.05816(5)
N2 N 0.74962(19) 0.01036(13) 1.00108(5)
H7 H 0.7165 -0.0647 0.9901
N3 N 1.0204(2) 0.44023(13) 0.91540(5)
N4 N 0.9502(2) 0.23682(13) 0.84353(5)
C20 C 0.4076(3) 0.39920(17) 0.05044(8)
H8 H 0.5404 0.3748 0.0565
H9 H 0.3896 0.4846 0.0632
H10 H 0.3746 0.3948 0.0119
C21 C 0.3528(3) 0.32952(19) 0.15193(7)
H11 H 0.2929 0.2754 0.1782
H12 H 0.3275 0.4168 0.1607
H13 H 0.4899 0.3149 0.1530
O1 O 0.32459(19) 0.16563(11) 0.07433(5)
S1 S 0.25815(6) 0.29586(4) 0.086353(16)
loop_
_geom_bond_atom_site_label_1
_geom_bond_atom_site_label_2
_geom_bond_site_symmetry_1
_geom_bond_site_symmetry_2
C1 C2 1_555 1_555
C2 C3 1_555 1_555
C3 C4 1_555 1_555
C4 C5 1_555 1_555
C5 C6 1_555 1_555
C6 C1 1_555 1_555
C7 C6 1_555 1_555
C8 C9 1_555 1_555
C9 C10 1_555 1_555
C10 H1 1_555 1_555
C11 C10 1_555 1_555
C12 C11 1_555 1_555
C13 C8 1_555 1_555
H2 C13 1_555 1_555
C14 C15 1_555 1_555
C15 C16 1_555 1_555
C16 H3 1_555 1_555
C17 C16 1_555 1_555
H4 C17 1_555 1_555
C18 C17 1_555 1_555
H5 C18 1_555 1_555
C19 C14 1_555 1_555
H6 C19 1_555 1_555
F1 C1 1_555 1_555
F2 C2 1_555 1_555
F3 C3 1_555 1_555
F4 C4 1_555 1_555
F5 C5 1_555 1_555
N1 C7 1_555 1_555
N2 C7 1_555 1_555
H7 N2 1_555 1_555
N3 C12 1_555 1_555
N4 C11 1_555 1_555
C20 H8 1_555 1_555
H9 C20 1_555 1_555
H10 C20 1_555 1_555
C21 H11 1_555 1_555
H12 C21 1_555 1_555
H13 C21 1_555 1_555
O1 S1 1_555 1_555
S1 C20 1_555 1_555
C8 N1 1_555 1_555
C9 N2 1_555 1_555
C12 C13 1_555 1_555
C14 N3 1_555 1_555
C15 N4 1_555 1_555
C18 C19 1_555 1_555
C21 S1 1_555 1_555

#END
