
#######################################################################
#
#                 Cambridge Crystallographic Data Centre
#                                CCDC 
#
#######################################################################
#
# If this CIF has been generated from an entry in the Cambridge 
# Structural Database, then it will include bibliographic, chemical, 
# crystal, experimental, refinement or atomic coordinate data resulting 
# from the CCDC's data processing and validation procedures.
#
#######################################################################

data_AKOYUU
_chemical_formula_moiety         'C19 H17 Cl2 N1 O5'
_chemical_name_systematic        
"(2R,2'S)-(3,4-Dichlorophenyl)(tetrahydropyran-2-yl)acetic acid 7-nitrophenyl ester"
_symmetry_cell_setting           orthorhombic
_symmetry_space_group_name_H-M   'P 21 21 21'
_symmetry_Int_Tables_number      19
_space_group_name_Hall           'P 2ac 2ab'
loop_
_symmetry_equiv_pos_site_id
_symmetry_equiv_pos_as_xyz
1 x,y,z
2 1/2-x,-y,1/2+z
3 1/2+x,1/2-y,-z
4 -x,1/2+y,1/2-z
_cell_length_a                   6.844(1)
_cell_length_b                   11.516(2)
_cell_length_c                   23.922(6)
_cell_angle_alpha                90
_cell_angle_beta                 90
_cell_angle_gamma                90
_cell_volume                     1885.42
_cell_formula_units_Z            4
_exptl_crystal_recrystallization_method 'hexane/ethyl acetate 9:1'
loop_
_atom_site_label
_atom_site_type_symbol
_atom_site_fract_x
_atom_site_fract_y
_atom_site_fract_z
Cl1 Cl 0.3247(3) 0.6619(2) 0.8764(1)
Cl2 Cl -0.1091(3) 0.5640(2) 0.8775(1)
C1 C -0.2455(9) 0.5470(5) 1.1103(2)
C2 C -0.0367(9) 0.5186(5) 1.0947(2)
O1 O -0.3706(7) 0.5816(4) 1.0809(2)
O2 O -0.2731(6) 0.5234(4) 1.1660(2)
C3 C 0.0308(8) 0.5667(5) 1.0395(2)
C4 C -0.0656(9) 0.5507(5) 0.9893(2)
C5 C 0.0194(9) 0.5828(5) 0.9390(2)
C6 C 0.2055(9) 0.6316(5) 0.9389(2)
C7 C 0.3011(9) 0.6521(5) 0.9883(2)
C8 C 0.2144(9) 0.6195(5) 1.0380(2)
C9 C -0.4593(9) 0.5315(7) 1.1889(2)
C10 C -0.5435(11) 0.4310(8) 1.2071(3)
C11 C -0.7275(12) 0.4355(9) 1.2327(3)
C12 C -0.8146(11) 0.5419(9) 1.2384(3)
C13 C -0.7293(12) 0.6427(9) 1.2210(3)
C14 C -0.5472(12) 0.6389(7) 1.1953(3)
N1 N -1.0094(11) 0.5473(12) 1.2654(3)
O3 O -1.0831(11) 0.6444(10) 1.2710(4)
O4 O -1.0878(10) 0.4566(9) 1.2774(3)
O5 O -0.1673(6) 0.3316(4) 1.0731(2)
C15 C -0.0062(9) 0.3871(5) 1.1007(2)
C16 C 0.1846(9) 0.3433(5) 1.0772(3)
C17 C 0.1956(11) 0.2100(6) 1.0838(3)
C18 C 0.0172(11) 0.1529(6) 1.0594(3)
C19 C -0.1659(11) 0.2084(6) 1.0825(3)
H1 H 0.0456 0.5550 1.1232
H2 H -0.1898 0.5178 0.9892
H3 H 0.4231 0.6877 0.9884
H4 H 0.2802 0.6330 1.0713
H5 H -0.4795 0.3604 1.2025
H6 H -0.7886 0.3683 1.2454
H7 H -0.7926 0.7134 1.2262
H8 H -0.4864 0.7064 1.1829
H9 H -0.0113 0.3674 1.1405
H10 H 0.2929 0.3792 1.0968
H11 H 0.1943 0.3638 1.0380
H12 H 0.3114 0.1811 1.0650
H13 H 0.2061 0.1904 1.1231
H14 H 0.0180 0.0708 1.0685
H15 H 0.0190 0.1606 1.0191
H16 H -0.2794 0.1739 1.0648
H17 H -0.1742 0.1933 1.1223
loop_
_geom_bond_atom_site_label_1
_geom_bond_atom_site_label_2
_geom_bond_site_symmetry_1
_geom_bond_site_symmetry_2
Cl1 C6 1_555 1_555
Cl2 C5 1_555 1_555
C1 C2 1_555 1_555
C2 C3 1_555 1_555
O1 C1 1_555 1_555
O2 C1 1_555 1_555
C3 C4 1_555 1_555
C4 C5 1_555 1_555
C5 C6 1_555 1_555
C6 C7 1_555 1_555
C7 C8 1_555 1_555
C8 C3 1_555 1_555
C9 O2 1_555 1_555
C10 C9 1_555 1_555
C11 C10 1_555 1_555
C12 C11 1_555 1_555
C13 C12 1_555 1_555
C14 C9 1_555 1_555
N1 C12 1_555 1_555
O3 N1 1_555 1_555
O4 N1 1_555 1_555
O5 C15 1_555 1_555
C15 C2 1_555 1_555
C16 C15 1_555 1_555
C17 C16 1_555 1_555
C18 C17 1_555 1_555
C19 O5 1_555 1_555
H1 C2 1_555 1_555
H2 C4 1_555 1_555
H3 C7 1_555 1_555
H4 C8 1_555 1_555
H5 C10 1_555 1_555
H6 C11 1_555 1_555
H7 C13 1_555 1_555
H8 C14 1_555 1_555
H9 C15 1_555 1_555
H10 C16 1_555 1_555
H11 C16 1_555 1_555
H12 C17 1_555 1_555
H13 C17 1_555 1_555
H14 C18 1_555 1_555
H15 C18 1_555 1_555
H16 C19 1_555 1_555
H17 C19 1_555 1_555
C13 C14 1_555 1_555
C18 C19 1_555 1_555

#END
