
#######################################################################
#
#                 Cambridge Crystallographic Data Centre
#                                CCDC 
#
#######################################################################
#
# If this CIF has been generated from an entry in the Cambridge 
# Structural Database, then it will include bibliographic, chemical, 
# crystal, experimental, refinement or atomic coordinate data resulting 
# from the CCDC's data processing and validation procedures.
#
#######################################################################

data_AKOZUX
_chemical_formula_moiety         'C20 H18 F3 N1 O3 S1'
_chemical_name_systematic        
'(7R, 10aR)-2-methyl-7-(3-methylphenyl)-10a-(trifluoromethyl)-7,8,10,10a-tetrahydro-9H-pyrido[1,2-b][1,2]benzothiazol-9-one 5,5-dioxide'
_symmetry_cell_setting           monoclinic
_symmetry_space_group_name_H-M   'P 21'
_symmetry_Int_Tables_number      4
_space_group_name_Hall           'P 2yb'
loop_
_symmetry_equiv_pos_site_id
_symmetry_equiv_pos_as_xyz
1 x,y,z
2 -x,1/2+y,-z
_cell_length_a                   9.8700(4)
_cell_length_b                   10.0817(3)
_cell_length_c                   10.2033(5)
_cell_angle_alpha                90
_cell_angle_beta                 111.452(5)
_cell_angle_gamma                90
_cell_volume                     944.958
_exptl_crystal_colour            colorless
_exptl_crystal_description       block
_cell_formula_units_Z            2
_exptl_crystal_recrystallization_method 'ethyl acetate'
loop_
_atom_site_label
_atom_site_type_symbol
_atom_site_fract_x
_atom_site_fract_y
_atom_site_fract_z
S1 S 0.46089(8) 0.72388(7) 0.64865(8)
F1 F 0.6754(2) 0.69762(19) 0.9984(2)
F2 F 0.8327(2) 0.5704(2) 0.9662(2)
F3 F 0.6971(2) 0.4960(2) 1.0714(2)
O1 O 0.8276(3) 0.2725(2) 0.8293(3)
O2 O 0.5041(3) 0.8560(2) 0.6963(3)
N1 N 0.5996(3) 0.6182(2) 0.7142(2)
O3 O 0.3945(3) 0.7060(3) 0.5005(2)
C1 C 0.6583(3) 0.5633(3) 0.6097(3)
H1 H 0.5793 0.5187 0.5346
C2 C 0.7906(3) 0.7817(3) 0.6232(3)
H2 H 0.7935 0.7921 0.7148
C3 C 0.7202(3) 0.6719(3) 0.5452(3)
C4 C 0.5826(3) 0.5308(3) 0.8235(3)
C5 C 0.1758(4) 0.4828(4) 1.0174(4)
H3 H 0.1105 0.4131 0.9688
H4 H 0.1232 0.5489 1.0473
H5 H 0.2519 0.4468 1.0982
C6 C 0.3756(3) 0.5019(3) 0.9216(3)
H6 H 0.4256 0.4351 0.9831
C7 C 0.2410(4) 0.5446(3) 0.9207(4)
C8 C 0.8528(4) 0.8563(4) 0.4311(4)
H7 H 0.8979 0.9172 0.3919
C9 C 0.6036(4) 0.3840(3) 0.7945(4)
H8 H 0.6022 0.3307 0.8731
H9 H 0.5235 0.3555 0.7110
C10 C 0.7454(4) 0.3619(3) 0.7733(4)
C11 C 0.9282(5) 0.9969(4) 0.6501(5)
H10 H 0.8593 1.0436 0.6793
H11 H 0.9612 1.0540 0.5926
H12 H 1.0097 0.9703 0.7316
C12 C 0.7790(4) 0.4621(3) 0.6812(3)
H13 H 0.8013 0.4152 0.6086
H14 H 0.8659 0.5101 0.7378
C13 C 0.7161(4) 0.6560(3) 0.4090(3)
H15 H 0.6683 0.5837 0.3555
C14 C 0.4352(3) 0.5586(3) 0.8311(3)
C15 C 0.3595(3) 0.6587(3) 0.7415(3)
C16 C 0.6990(3) 0.5735(3) 0.9653(3)
C17 C 0.2268(3) 0.7042(4) 0.7389(4)
H16 H 0.1777 0.7718 0.6780
C18 C 0.1694(4) 0.6463(4) 0.8293(4)
H17 H 0.0802 0.6761 0.8294
C19 C 0.8570(3) 0.8764(3) 0.5671(3)
C20 C 0.7834(5) 0.7481(4) 0.3532(4)
H18 H 0.7818 0.7369 0.2622
loop_
_geom_bond_atom_site_label_1
_geom_bond_atom_site_label_2
_geom_bond_site_symmetry_1
_geom_bond_site_symmetry_2
S1 O2 1_555 1_555
F1 C16 1_555 1_555
F2 C16 1_555 1_555
F3 C16 1_555 1_555
O1 C10 1_555 1_555
N1 S1 1_555 1_555
O3 S1 1_555 1_555
C1 N1 1_555 1_555
H1 C1 1_555 1_555
C2 H2 1_555 1_555
C3 C1 1_555 1_555
C4 N1 1_555 1_555
C5 H3 1_555 1_555
H4 C5 1_555 1_555
H5 C5 1_555 1_555
C6 H6 1_555 1_555
C7 C5 1_555 1_555
C8 H7 1_555 1_555
C9 C4 1_555 1_555
H8 C9 1_555 1_555
H9 C9 1_555 1_555
C10 C9 1_555 1_555
C11 H10 1_555 1_555
H11 C11 1_555 1_555
H12 C11 1_555 1_555
C12 C1 1_555 1_555
H13 C12 1_555 1_555
H14 C12 1_555 1_555
C13 C3 1_555 1_555
H15 C13 1_555 1_555
C14 C4 1_555 1_555
C15 S1 1_555 1_555
C16 C4 1_555 1_555
C17 C15 1_555 1_555
H16 C17 1_555 1_555
C18 C7 1_555 1_555
H17 C18 1_555 1_555
C19 C2 1_555 1_555
C20 C8 1_555 1_555
H18 C20 1_555 1_555
C2 C3 1_555 1_555
C6 C7 1_555 1_555
C6 C14 1_555 1_555
C8 C19 1_555 1_555
C10 C12 1_555 1_555
C11 C19 1_555 1_555
C13 C20 1_555 1_555
C14 C15 1_555 1_555
C17 C18 1_555 1_555

#END
