
#######################################################################
#
#                 Cambridge Crystallographic Data Centre
#                                CCDC 
#
#######################################################################
#
# If this CIF has been generated from an entry in the Cambridge 
# Structural Database, then it will include bibliographic, chemical, 
# crystal, experimental, refinement or atomic coordinate data resulting 
# from the CCDC's data processing and validation procedures.
#
#######################################################################

data_AKUGOE
_chemical_formula_moiety         'C30 H35 N3 O2'
_chemical_name_systematic        
1-(16-(3,5-dimethyl-5,6-dihydroindolizin-6-yl)-4,13,15-trimethyl-11-oxa-3,14-diazapentacyclo[8.8.0.0^2,12^.0^3,7^.0^14,18^]octadeca-4,6,8,15,17-pentaen-10-yl)ethanol
_symmetry_cell_setting           monoclinic
_symmetry_space_group_name_H-M   'P 21'
_symmetry_Int_Tables_number      4
_space_group_name_Hall           'P 2yb'
loop_
_symmetry_equiv_pos_site_id
_symmetry_equiv_pos_as_xyz
1 x,y,z
2 -x,1/2+y,-z
_cell_length_a                   7.22530(10)
_cell_length_b                   13.6771(3)
_cell_length_c                   12.9015(2)
_cell_angle_alpha                90
_cell_angle_beta                 103.4850(10)
_cell_angle_gamma                90
_cell_volume                     1239.79
_exptl_crystal_description       Prism
_cell_formula_units_Z            2
loop_
_atom_site_label
_atom_site_type_symbol
_atom_site_fract_x
_atom_site_fract_y
_atom_site_fract_z
O1 O 0.6773(2) 0.49594(13) 0.62305(10)
H1 H 0.7204 0.4489 0.5970
O2 O 0.84579(18) 0.56618(11) 0.90246(10)
N1 N 0.9411(2) 0.35054(13) 0.90113(12)
N2 N 1.0166(2) 0.26009(13) 0.55649(13)
N3 N 0.5157(2) 0.51460(12) 0.99629(12)
C1 C 0.7779(3) 0.29332(18) 0.41936(19)
H2 H 0.6616 0.2913 0.3698
C2 C 1.0484(3) 0.27903(16) 0.86744(15)
C3 C 0.3558(3) 0.57988(16) 1.10725(16)
H3 H 0.3076 0.5919 1.1669
C4 C 0.8353(3) 0.10788(17) 0.63782(16)
H4 H 0.7867 0.0508 0.6603
C5 C 0.4805(3) 0.50693(15) 1.09722(15)
C6 C 0.3136(3) 0.63343(16) 1.01162(17)
H5 H 0.2317 0.6867 0.9968
C7 C 0.7574(3) 0.28460(16) 0.75519(14)
H6 H 0.6545 0.2713 0.6987
C8 C 0.9372(3) 0.23611(16) 0.77710(14)
C9 C 1.2492(3) 0.25648(16) 0.92440(16)
H7 H 1.3104 0.2206 0.8778
H8 H 1.2490 0.2180 0.9866
H9 H 1.3168 0.3164 0.9453
C10 C 1.0029(3) 0.15852(16) 0.71011(15)
H10 H 1.0760 0.1095 0.7582
C11 C 0.7570(3) 0.14506(17) 0.54173(16)
H11 H 0.6490 0.1159 0.4996
C12 C 1.1349(3) 0.20373(16) 0.64397(15)
H12 H 1.2223 0.2491 0.6900
C13 C 0.7634(3) 0.35418(15) 0.83202(14)
C14 C 0.6548(2) 0.45185(14) 0.96265(14)
H13 H 0.6597 0.3883 0.9983
C15 C 1.0718(4) 0.33956(18) 0.50701(19)
C16 C 0.8380(3) 0.22961(16) 0.50298(16)
C17 C 0.6316(3) 0.43601(15) 0.84257(14)
H14 H 0.4995 0.4223 0.8057
C18 C 0.5446(3) 0.60807(16) 0.77966(15)
H15 H 0.5291 0.6406 0.7149
C19 C 1.0460(3) 0.36455(16) 1.09898(15)
H16 H 1.1444 0.3169 1.1013
H17 H 0.9322 0.3325 1.1073
H18 H 1.0864 0.4109 1.1556
C20 C 0.9024(3) 0.6228(2) 0.69673(18)
H19 H 0.8044 0.6697 0.6692
H20 H 0.9780 0.6124 0.6456
H21 H 0.9819 0.6469 0.7620
C21 C 0.4145(3) 0.59344(15) 0.94378(16)
C22 C 0.5631(3) 0.42837(17) 1.17375(15)
H22 H 0.5172 0.4352 1.2375
H23 H 0.6993 0.4335 1.1911
H24 H 0.5259 0.3657 1.1421
C23 C 0.8123(3) 0.52706(18) 0.71795(15)
H25 H 0.9120 0.4773 0.7375
C24 C 0.4237(3) 0.63005(15) 0.84006(16)
H26 H 0.3311 0.6759 0.8110
C25 C 1.0060(3) 0.41814(15) 0.99106(14)
H27 H 1.1238 0.4496 0.9832
C26 C 0.8545(3) 0.49710(14) 0.98701(14)
H28 H 0.8780 0.5316 1.0554
C27 C 1.2527(3) 0.12807(19) 0.60212(17)
H29 H 1.3269 0.1597 0.5591
H30 H 1.1697 0.0809 0.5598
H31 H 1.3359 0.0957 0.6610
C28 C 0.9233(4) 0.3618(2) 0.4222(2)
H32 H 0.9200 0.4134 0.3749
C29 C 0.7042(3) 0.53491(16) 0.80771(14)
C30 C 1.2619(4) 0.3860(2) 0.5455(2)
H33 H 1.3593 0.3371 0.5527
H34 H 1.2684 0.4163 0.6133
H35 H 1.2805 0.4346 0.4951
loop_
_geom_bond_atom_site_label_1
_geom_bond_atom_site_label_2
_geom_bond_site_symmetry_1
_geom_bond_site_symmetry_2
O1 H1 1_555 1_555
O2 C26 1_555 1_555
N1 C2 1_555 1_555
N2 C12 1_555 1_555
N3 C5 1_555 1_555
C1 H2 1_555 1_555
C2 C8 1_555 1_555
C3 H3 1_555 1_555
C4 H4 1_555 1_555
C5 C3 1_555 1_555
C6 C3 1_555 1_555
H5 C6 1_555 1_555
C7 H6 1_555 1_555
C8 C7 1_555 1_555
C9 C2 1_555 1_555
H7 C9 1_555 1_555
H8 C9 1_555 1_555
H9 C9 1_555 1_555
C10 C4 1_555 1_555
H10 C10 1_555 1_555
C11 C4 1_555 1_555
H11 C11 1_555 1_555
C12 C10 1_555 1_555
H12 C12 1_555 1_555
C13 N1 1_555 1_555
C14 N3 1_555 1_555
H13 C14 1_555 1_555
C15 N2 1_555 1_555
C16 N2 1_555 1_555
C17 C13 1_555 1_555
H14 C17 1_555 1_555
C18 H15 1_555 1_555
C19 H16 1_555 1_555
H17 C19 1_555 1_555
H18 C19 1_555 1_555
C20 H19 1_555 1_555
H20 C20 1_555 1_555
H21 C20 1_555 1_555
C21 N3 1_555 1_555
C22 C5 1_555 1_555
H22 C22 1_555 1_555
H23 C22 1_555 1_555
H24 C22 1_555 1_555
C23 O1 1_555 1_555
H25 C23 1_555 1_555
C24 C18 1_555 1_555
H26 C24 1_555 1_555
C25 N1 1_555 1_555
H27 C25 1_555 1_555
C26 C14 1_555 1_555
H28 C26 1_555 1_555
C27 C12 1_555 1_555
H29 C27 1_555 1_555
H30 C27 1_555 1_555
H31 C27 1_555 1_555
C28 C1 1_555 1_555
H32 C28 1_555 1_555
C29 O2 1_555 1_555
C30 C15 1_555 1_555
H33 C30 1_555 1_555
H34 C30 1_555 1_555
H35 C30 1_555 1_555
C1 C16 1_555 1_555
C6 C21 1_555 1_555
C7 C13 1_555 1_555
C8 C10 1_555 1_555
C11 C16 1_555 1_555
C14 C17 1_555 1_555
C15 C28 1_555 1_555
C17 C29 1_555 1_555
C18 C29 1_555 1_555
C19 C25 1_555 1_555
C20 C23 1_555 1_555
C21 C24 1_555 1_555
C23 C29 1_555 1_555
C25 C26 1_555 1_555

#END
