
#######################################################################
#
#                 Cambridge Crystallographic Data Centre
#                                CCDC 
#
#######################################################################
#
# If this CIF has been generated from an entry in the Cambridge 
# Structural Database, then it will include bibliographic, chemical, 
# crystal, experimental, refinement or atomic coordinate data resulting 
# from the CCDC's data processing and validation procedures.
#
#######################################################################

data_AKUMAW
_chemical_formula_moiety         'C10 H13 N1 O2,0.5(H2 O1)'
_chemical_name_systematic        
'6-hydroxy-3,5-dimethyl-6,7-dihydroindolizin-8(5H)-one hemihydrate'
_symmetry_cell_setting           monoclinic
_symmetry_space_group_name_H-M   'P 21'
_symmetry_Int_Tables_number      4
_space_group_name_Hall           'P 2yb'
loop_
_symmetry_equiv_pos_site_id
_symmetry_equiv_pos_as_xyz
1 x,y,z
2 -x,1/2+y,-z
_cell_length_a                   7.9708(4)
_cell_length_b                   10.4075(6)
_cell_length_c                   11.9312(7)
_cell_angle_alpha                90
_cell_angle_beta                 95.083(2)
_cell_angle_gamma                90
_cell_volume                     985.873
_exptl_crystal_colour            red
_exptl_crystal_description       Rod
_cell_formula_units_Z            4
loop_
_atom_site_label
_atom_site_type_symbol
_atom_site_fract_x
_atom_site_fract_y
_atom_site_fract_z
N1 N 0.89218(14) 0.33954(13) 0.07174(10)
O1 O 1.22073(15) 0.38544(14) -0.01744(10)
H1 H 1.1681 0.3600 -0.0753
O2 O 1.11538(16) 0.57753(14) 0.24284(11)
C1 C 0.77332(19) 0.52004(17) 0.12750(14)
H2 H 0.7565 0.5989 0.1613
C2 C 0.92174(18) 0.45035(16) 0.13444(12)
C3 C 0.72889(18) 0.33897(17) 0.02670(13)
C4 C 0.65426(19) 0.45053(19) 0.06077(14)
H3 H 0.5430 0.4749 0.0421
C5 C 1.19348(19) 0.30028(18) 0.07257(13)
H4 H 1.2781 0.2318 0.0747
C6 C 1.22094(19) 0.3789(2) 0.18014(14)
H5 H 1.2232 0.3215 0.2444
H6 H 1.3295 0.4213 0.1821
C7 C 1.01848(18) 0.23938(16) 0.05947(12)
H7 H 1.0001 0.2045 -0.0169
C8 C 0.6553(2) 0.2332(2) -0.04522(16)
H8 H 0.7143 0.2267 -0.1117
H9 H 0.5385 0.2507 -0.0661
H10 H 0.6656 0.1537 -0.0043
C9 C 1.08625(19) 0.47796(17) 0.18954(12)
C10 C 1.0020(3) 0.12990(19) 0.14180(18)
H11 H 1.0266 0.1608 0.2173
H12 H 1.0797 0.0628 0.1271
H13 H 0.8891 0.0968 0.1331
N2 N 0.43172(17) 0.14814(15) 0.41671(12)
O3 O 0.1680(2) 0.32169(18) 0.45653(12)
H14 H 0.1055 0.3732 0.4840
O4 O 0.0649(2) -0.04987(19) 0.41755(12)
C11 C 0.3684(2) -0.0061(2) 0.28986(16)
H15 H 0.3151 -0.0736 0.2500
C12 C 0.1711(2) 0.0328(2) 0.44547(14)
C13 C 0.3163(2) 0.05229(18) 0.38574(14)
C14 C 0.2463(2) 0.24209(19) 0.54309(14)
H16 H 0.2426 0.2858 0.6156
C15 C 0.4276(2) 0.2239(2) 0.51979(15)
H17 H 0.4767 0.3085 0.5073
C16 C 0.5525(2) 0.1503(3) 0.34322(19)
C17 C 0.1525(3) 0.1159(2) 0.54658(16)
H18 H 0.1939 0.0692 0.6138
H19 H 0.0339 0.1334 0.5517
C18 C 0.5142(3) 0.0550(3) 0.26500(18)
H20 H 0.5765 0.0351 0.2050
C19 C 0.5327(3) 0.1584(3) 0.6156(2)
H21 H 0.4949 0.0714 0.6227
H22 H 0.5207 0.2038 0.6844
H23 H 0.6489 0.1585 0.6002
C20 C 0.6943(3) 0.2450(4) 0.3521(3)
H24 H 0.6513 0.3290 0.3664
H25 H 0.7473 0.2460 0.2829
H26 H 0.7753 0.2207 0.4128
O5 O 0.9589(3) 0.81280(14) 0.21860(12)
H27 H 1.003(4) 0.864(3) 0.269(2)
H28 H 1.005(5) 0.7404(18) 0.234(3)
loop_
_geom_bond_atom_site_label_1
_geom_bond_atom_site_label_2
_geom_bond_site_symmetry_1
_geom_bond_site_symmetry_2
N1 C2 1_555 1_555
O1 H1 1_555 1_555
O2 C9 1_555 1_555
C1 H2 1_555 1_555
C2 C1 1_555 1_555
C3 N1 1_555 1_555
C4 C1 1_555 1_555
H3 C4 1_555 1_555
C5 O1 1_555 1_555
H4 C5 1_555 1_555
C6 C5 1_555 1_555
H5 C6 1_555 1_555
H6 C6 1_555 1_555
C7 N1 1_555 1_555
H7 C7 1_555 1_555
C8 C3 1_555 1_555
H8 C8 1_555 1_555
H9 C8 1_555 1_555
H10 C8 1_555 1_555
C9 C2 1_555 1_555
C10 C7 1_555 1_555
H11 C10 1_555 1_555
H12 C10 1_555 1_555
H13 C10 1_555 1_555
N2 C13 1_555 1_555
O3 H14 1_555 1_555
O4 C12 1_555 1_555
C11 H15 1_555 1_555
C12 C13 1_555 1_555
C13 C11 1_555 1_555
C14 O3 1_555 1_555
H16 C14 1_555 1_555
C15 N2 1_555 1_555
H17 C15 1_555 1_555
C16 N2 1_555 1_555
C17 C12 1_555 1_555
H18 C17 1_555 1_555
H19 C17 1_555 1_555
C18 C11 1_555 1_555
H20 C18 1_555 1_555
C19 C15 1_555 1_555
H21 C19 1_555 1_555
H22 C19 1_555 1_555
H23 C19 1_555 1_555
C20 C16 1_555 1_555
H24 C20 1_555 1_555
H25 C20 1_555 1_555
H26 C20 1_555 1_555
O5 H27 1_555 1_555
H28 O5 1_555 1_555
C3 C4 1_555 1_555
C5 C7 1_555 1_555
C6 C9 1_555 1_555
C14 C15 1_555 1_555
C14 C17 1_555 1_555
C16 C18 1_555 1_555

#END
