
#######################################################################
#
#                 Cambridge Crystallographic Data Centre
#                                CCDC 
#
#######################################################################
#
# If this CIF has been generated from an entry in the Cambridge 
# Structural Database, then it will include bibliographic, chemical, 
# crystal, experimental, refinement or atomic coordinate data resulting 
# from the CCDC's data processing and validation procedures.
#
#######################################################################

data_AKUMEA
_chemical_formula_moiety         'C18 H18 O2'
_chemical_name_systematic        
1-(2-methylene-2,3-dihydro-1-benzofuran-3-yl)-3-phenylpropan-1-ol
_symmetry_cell_setting           orthorhombic
_symmetry_space_group_name_H-M   'P 21 21 21'
_symmetry_Int_Tables_number      19
_space_group_name_Hall           'P 2ac 2ab'
loop_
_symmetry_equiv_pos_site_id
_symmetry_equiv_pos_as_xyz
1 x,y,z
2 1/2-x,-y,1/2+z
3 -x,1/2+y,1/2-z
4 1/2+x,1/2-y,-z
_cell_length_a                   5.1618(3)
_cell_length_b                   14.9339(7)
_cell_length_c                   18.5553(9)
_cell_angle_alpha                90
_cell_angle_beta                 90
_cell_angle_gamma                90
_cell_volume                     1430.35
_exptl_crystal_colour            colorless
_exptl_crystal_description       prism
_cell_formula_units_Z            4
loop_
_atom_site_label
_atom_site_type_symbol
_atom_site_fract_x
_atom_site_fract_y
_atom_site_fract_z
O1 O 0.7429(3) 0.67709(10) 0.27048(7)
O2 O 0.8523(2) 0.72472(9) 0.02548(6)
H1 H 0.995(6) 0.743(2) 0.0125(16)
C1 C 1.0861(5) 0.58485(15) 0.23378(12)
H2 H 1.0705 0.5533 0.2768
H3 H 1.2115 0.5685 0.2003
C2 C 0.9308(4) 0.65259(12) 0.22028(9)
C3 C 0.9162(3) 0.71339(11) 0.15481(9)
H4 H 1.0785 0.7472 0.1513
C4 C 0.7030(4) 0.77667(12) 0.17701(9)
C5 C 0.5963(4) 0.85173(12) 0.14481(11)
H5 H 0.6497 0.8696 0.0992
C6 C 0.4084(5) 0.89989(14) 0.18167(12)
H6 H 0.3375 0.9509 0.1608
C7 C 0.3259(5) 0.87300(15) 0.24873(12)
H7 H 0.1993 0.9061 0.2724
C8 C 0.4273(5) 0.79770(15) 0.28168(12)
H8 H 0.3709 0.7790 0.3268
C9 C 0.6159(4) 0.75177(13) 0.24430(10)
C10 C 0.8736(3) 0.66244(11) 0.08363(8)
H9 H 1.0257 0.6247 0.0749
C11 C 0.6348(3) 0.60293(11) 0.08288(9)
H10 H 0.6358 0.5650 0.1253
H11 H 0.4808 0.6401 0.0848
C12 C 0.6247(4) 0.54467(12) 0.01589(10)
H12 H 0.6051 0.5836 -0.0256
H13 H 0.7902 0.5145 0.0111
C13 C 0.4135(4) 0.47453(11) 0.01281(10)
C14 C 0.3234(4) 0.43015(14) 0.07296(12)
H14 H 0.3895 0.4448 0.1181
C15 C 0.1354(5) 0.36385(16) 0.06723(17)
H15 H 0.0788 0.3339 0.1082
C16 C 0.0329(5) 0.34259(17) 0.00091(19)
H16 H -0.0947 0.2989 -0.0030
C17 C 0.1200(6) 0.38603(17) -0.05896(17)
H17 H 0.0517 0.3718 -0.1039
C18 C 0.3091(5) 0.45105(14) -0.05327(12)
H18 H 0.3675 0.4797 -0.0947
loop_
_geom_bond_atom_site_label_1
_geom_bond_atom_site_label_2
_geom_bond_site_symmetry_1
_geom_bond_site_symmetry_2
O1 C2 1_555 1_555
O2 H1 1_555 1_555
C1 H2 1_555 1_555
H3 C1 1_555 1_555
C2 C1 1_555 1_555
C3 C2 1_555 1_555
H4 C3 1_555 1_555
C4 C3 1_555 1_555
C5 C4 1_555 1_555
H5 C5 1_555 1_555
C6 C5 1_555 1_555
H6 C6 1_555 1_555
C7 C6 1_555 1_555
H7 C7 1_555 1_555
C8 C7 1_555 1_555
H8 C8 1_555 1_555
C9 O1 1_555 1_555
C10 O2 1_555 1_555
H9 C10 1_555 1_555
C11 C10 1_555 1_555
H10 C11 1_555 1_555
H11 C11 1_555 1_555
C12 C11 1_555 1_555
H12 C12 1_555 1_555
H13 C12 1_555 1_555
C13 C12 1_555 1_555
C14 C13 1_555 1_555
H14 C14 1_555 1_555
C15 C14 1_555 1_555
H15 C15 1_555 1_555
C16 C15 1_555 1_555
H16 C16 1_555 1_555
C17 C16 1_555 1_555
H17 C17 1_555 1_555
C18 C13 1_555 1_555
H18 C18 1_555 1_555
C3 C10 1_555 1_555
C4 C9 1_555 1_555
C8 C9 1_555 1_555
C17 C18 1_555 1_555

#END
