
#######################################################################
#
#                 Cambridge Crystallographic Data Centre
#                                CCDC 
#
#######################################################################
#
# If this CIF has been generated from an entry in the Cambridge 
# Structural Database, then it will include bibliographic, chemical, 
# crystal, experimental, refinement or atomic coordinate data resulting 
# from the CCDC's data processing and validation procedures.
#
#######################################################################

data_AKUPEB
_chemical_formula_moiety         'C40 H62 Ca1 N2 O4'
_chemical_name_systematic        
(1,2-Dimethoxyethane-O,O')-((R,R)-(-)-N,N'-bis(3,5-di-t-butylsalicylidene)cyclohexane-1,2-diamine-N,N',O,O')-calcium
_symmetry_cell_setting           orthorhombic
_symmetry_space_group_name_H-M   'P 21 21 21'
_symmetry_Int_Tables_number      19
_space_group_name_Hall           'P 2ac 2ab'
loop_
_symmetry_equiv_pos_site_id
_symmetry_equiv_pos_as_xyz
1 x,y,z
2 1/2-x,-y,1/2+z
3 -x,1/2+y,1/2-z
4 1/2+x,1/2-y,-z
_cell_length_a                   13.5397(9)
_cell_length_b                   15.6833(9)
_cell_length_c                   19.4490(12)
_cell_angle_alpha                90
_cell_angle_beta                 90
_cell_angle_gamma                90
_cell_volume                     4129.94
_exptl_crystal_colour            colorless
_exptl_crystal_description       cube
_chemical_melting_point          '255-257 deg.C'
_cell_formula_units_Z            4
_exptl_crystal_recrystallization_method toluene
loop_
_atom_site_label
_atom_site_type_symbol
_atom_site_fract_x
_atom_site_fract_y
_atom_site_fract_z
Ca1 Ca 0.95713(4) 0.26947(3) 0.99970(4)
N1 N 1.05694(19) 0.35781(16) 0.92654(14)
C1 C 1.0368(3) 0.1919(2) 1.14823(16)
C2 C 1.0982(2) 0.2621(2) 1.16743(18)
C3 C 1.0421(2) 0.1896(2) 0.85283(15)
N2 N 1.07907(19) 0.35395(18) 1.06510(14)
C4 C 1.0933(2) 0.2642(2) 0.82984(16)
C5 C 1.1449(3) 0.2634(3) 1.23155(19)
C6 C 1.1206(3) 0.3331(2) 1.12204(18)
C7 C 1.0465(3) 0.1153(2) 0.81010(16)
C8 C 1.1440(2) 0.2623(2) 0.76631(18)
C9 C 1.0300(3) 0.1217(2) 1.19542(17)
C10 C 0.9901(3) 0.0334(2) 0.83111(19)
C11 C 1.1353(3) 0.1983(3) 1.27824(18)
C12 C 1.1482(2) 0.1918(2) 0.72501(16)
C13 C 1.0981(2) 0.3434(2) 0.86810(18)
C14 C 1.0782(3) 0.1290(3) 1.25844(19)
C15 C 1.1034(4) 0.5164(3) 0.9211(2)
C16 C 1.0974(2) 0.1196(2) 0.74885(17)
C17 C 1.1126(4) 0.5103(3) 1.0721(2)
C18 C 1.1208(3) 0.4289(2) 1.02936(16)
C19 C 1.0648(3) 0.4409(2) 0.96094(16)
C20 C 1.1828(4) 0.2025(3) 1.3504(2)
C21 C 1.2053(3) 0.1937(2) 0.65671(17)
C22 C 1.1494(4) 0.5872(3) 1.0317(2)
C23 C 1.0931(4) 0.5969(3) 0.9642(2)
C24 C 1.2054(3) 0.1076(3) 0.6203(2)
H1 H 1.2433 0.1118 0.5775
H2 H 1.1373 0.0909 0.6098
H3 H 1.2355 0.0646 0.6503
C25 C 1.1923(5) 0.1175(4) 1.3835(3)
H4 H 1.1265 0.0952 1.3942
H5 H 1.2307 0.1229 1.4260
H6 H 1.2261 0.0784 1.3520
C26 C 1.3125(2) 0.2189(3) 0.66890(19)
H7 H 1.3149 0.2753 0.6905
H8 H 1.3476 0.2206 0.6249
H9 H 1.3439 0.1770 0.6992
C27 C 1.2912(7) 0.2298(6) 1.3408(4)
H10 H 1.2952 0.2922 1.3396
H11 H 1.3164 0.2064 1.2975
H12 H 1.3309 0.2082 1.3792
C28 C 1.1582(3) 0.2607(3) 0.60857(18)
H13 H 1.1558 0.3160 0.6320
H14 H 1.0911 0.2428 0.5965
H15 H 1.1979 0.2658 0.5667
C29 C 1.1338(10) 0.2631(7) 1.3919(3)
H16 H 1.0730 0.2380 1.4103
H17 H 1.1174 0.3134 1.3643
H18 H 1.1770 0.2800 1.4300
O1 O 0.99037(17) 0.19047(16) 1.08949(12)
O2 O 0.99505(16) 0.18874(16) 0.91142(11)
O3 O 0.83406(16) 0.34749(16) 1.06650(12)
O4 O 0.81688(16) 0.32112(17) 0.93168(12)
C30 C 0.8609(3) 0.0650(3) 1.1691(2)
H19 H 0.8233 0.0130 1.1590
H20 H 0.8522 0.1059 1.1315
H21 H 0.8371 0.0901 1.2121
C31 C 0.7435(3) 0.3707(3) 0.9650(2)
C32 C 0.8799(3) 0.0527(3) 0.8346(2)
H22 H 0.8442 0.0015 0.8493
H23 H 0.8564 0.0702 0.7891
H24 H 0.8682 0.0988 0.8676
C33 C 0.8364(3) 0.3448(3) 1.13926(18)
H25 H 0.8132 0.2889 1.1551
H26 H 0.7934 0.3895 1.1578
H27 H 0.9042 0.3541 1.1552
C34 C 1.0257(3) 0.0014(2) 0.90224(18)
H28 H 0.9884 -0.0497 0.9151
H29 H 1.0149 0.0461 0.9367
H30 H 1.0962 -0.0123 0.8999
C35 C 1.0088(3) 0.0042(3) 1.10871(18)
H31 H 1.0047 0.0470 1.0721
H32 H 0.9684 -0.0453 1.0964
H33 H 1.0777 -0.0136 1.1145
C36 C 0.8305(3) 0.3439(3) 0.86096(18)
H34 H 0.8610 0.4004 0.8581
H35 H 0.7663 0.3450 0.8377
H36 H 0.8734 0.3019 0.8387
C37 C 1.0067(3) -0.0400(3) 0.77981(19)
H37 H 0.9822 -0.0231 0.7344
H38 H 0.9710 -0.0907 0.7955
H39 H 1.0774 -0.0527 0.7769
C38 C 0.7384(3) 0.3460(3) 1.0375(2)
C39 C 0.9798(4) -0.0278(3) 1.2312(2)
H40 H 1.0496 -0.0415 1.2384
H41 H 0.9446 -0.0789 1.2156
H42 H 0.9509 -0.0078 1.2745
C40 C 0.9707(3) 0.0428(2) 1.17627(18)
H43 H 1.1745(19) 0.3095(19) 0.7548(13)
H44 H 1.100(2) 0.0696(19) 0.7226(14)
H45 H 1.198(2) 0.321(2) 1.2381(15)
H46 H 1.069(3) 0.084(2) 1.2856(18)
H47 H 1.166(2) 0.3708(19) 1.1389(15)
H48 H 1.139(2) 0.390(2) 0.8455(15)
H49 H 0.672(3) 0.368(2) 0.9398(19)
H50 H 0.765(3) 0.437(3) 0.9588(19)
H51 H 1.176(3) 0.504(2) 0.9158(17)
H52 H 1.063(3) 0.520(2) 0.8760(18)
H53 H 1.1848(18) 0.4174(14) 1.0182(11)
H54 H 0.700(2) 0.3782(19) 1.0586(15)
H55 H 0.710(3) 0.285(3) 1.043(2)
H56 H 1.017(2) 0.5970(17) 0.9809(14)
H57 H 1.146(2) 0.636(2) 1.0612(16)
H58 H 1.108(3) 0.652(2) 0.9346(19)
H59 H 1.039(3) 0.528(2) 1.0834(15)
H60 H 1.229(3) 0.579(2) 1.0255(17)
H61 H 1.156(2) 0.5003(19) 1.1128(16)
H62 H 0.994(2) 0.469(2) 0.9713(15)
loop_
_geom_bond_atom_site_label_1
_geom_bond_atom_site_label_2
_geom_bond_site_symmetry_1
_geom_bond_site_symmetry_2
Ca1 N1 1_555 1_555
N1 C13 1_555 1_555
C1 C2 1_555 1_555
C2 C5 1_555 1_555
C3 C4 1_555 1_555
N2 Ca1 1_555 1_555
C4 C8 1_555 1_555
C5 C11 1_555 1_555
C6 C2 1_555 1_555
C7 C3 1_555 1_555
C8 C12 1_555 1_555
C9 C1 1_555 1_555
C10 C7 1_555 1_555
C11 C14 1_555 1_555
C12 C16 1_555 1_555
C13 C4 1_555 1_555
C14 C9 1_555 1_555
C15 C19 1_555 1_555
C16 C7 1_555 1_555
C17 C18 1_555 1_555
C18 N2 1_555 1_555
C19 N1 1_555 1_555
C20 C11 1_555 1_555
C21 C12 1_555 1_555
C22 C17 1_555 1_555
C23 C15 1_555 1_555
C24 C21 1_555 1_555
H1 C24 1_555 1_555
H2 C24 1_555 1_555
H3 C24 1_555 1_555
C25 C20 1_555 1_555
H4 C25 1_555 1_555
H5 C25 1_555 1_555
H6 C25 1_555 1_555
C26 C21 1_555 1_555
H7 C26 1_555 1_555
H8 C26 1_555 1_555
H9 C26 1_555 1_555
C27 C20 1_555 1_555
H10 C27 1_555 1_555
H11 C27 1_555 1_555
H12 C27 1_555 1_555
C28 C21 1_555 1_555
H13 C28 1_555 1_555
H14 C28 1_555 1_555
H15 C28 1_555 1_555
C29 C20 1_555 1_555
H16 C29 1_555 1_555
H17 C29 1_555 1_555
H18 C29 1_555 1_555
O1 Ca1 1_555 1_555
O2 Ca1 1_555 1_555
O3 Ca1 1_555 1_555
O4 Ca1 1_555 1_555
C30 H19 1_555 1_555
H20 C30 1_555 1_555
H21 C30 1_555 1_555
C31 O4 1_555 1_555
C32 C10 1_555 1_555
H22 C32 1_555 1_555
H23 C32 1_555 1_555
H24 C32 1_555 1_555
C33 O3 1_555 1_555
H25 C33 1_555 1_555
H26 C33 1_555 1_555
H27 C33 1_555 1_555
C34 C10 1_555 1_555
H28 C34 1_555 1_555
H29 C34 1_555 1_555
H30 C34 1_555 1_555
C35 H31 1_555 1_555
H32 C35 1_555 1_555
H33 C35 1_555 1_555
C36 O4 1_555 1_555
H34 C36 1_555 1_555
H35 C36 1_555 1_555
H36 C36 1_555 1_555
C37 C10 1_555 1_555
H37 C37 1_555 1_555
H38 C37 1_555 1_555
H39 C37 1_555 1_555
C38 O3 1_555 1_555
C39 H40 1_555 1_555
H41 C39 1_555 1_555
H42 C39 1_555 1_555
C40 C9 1_555 1_555
H43 C8 1_555 1_555
H44 C16 1_555 1_555
H45 C5 1_555 1_555
H46 C14 1_555 1_555
H47 C6 1_555 1_555
H48 C13 1_555 1_555
H49 C31 1_555 1_555
H50 C31 1_555 1_555
H51 C15 1_555 1_555
H52 C15 1_555 1_555
H53 C18 1_555 1_555
H54 C38 1_555 1_555
H55 C38 1_555 1_555
H56 C23 1_555 1_555
H57 C22 1_555 1_555
H58 C23 1_555 1_555
H59 C17 1_555 1_555
H60 C22 1_555 1_555
H61 C17 1_555 1_555
H62 C19 1_555 1_555
C1 O1 1_555 1_555
C3 O2 1_555 1_555
N2 C6 1_555 1_555
C18 C19 1_555 1_555
C22 C23 1_555 1_555
C30 C40 1_555 1_555
C31 C38 1_555 1_555
C35 C40 1_555 1_555
C39 C40 1_555 1_555

#END
