
#######################################################################
#
#                 Cambridge Crystallographic Data Centre
#                                CCDC 
#
#######################################################################
#
# If this CIF has been generated from an entry in the Cambridge 
# Structural Database, then it will include bibliographic, chemical, 
# crystal, experimental, refinement or atomic coordinate data resulting 
# from the CCDC's data processing and validation procedures.
#
#######################################################################

data_AKUSOQ
_chemical_formula_moiety         'C20 H22 N2 O3 S1'
_chemical_name_systematic        
N-(1-(2,2-dimethylpropanoyl)-1H-indol-7-yl)-4-methylbenzenesulfonamide
_symmetry_cell_setting           monoclinic
_symmetry_space_group_name_H-M   'P 21/c'
_symmetry_Int_Tables_number      14
_space_group_name_Hall           '-P 2ybc'
loop_
_symmetry_equiv_pos_site_id
_symmetry_equiv_pos_as_xyz
1 x,y,z
2 -x,1/2+y,1/2-z
3 -x,-y,-z
4 x,1/2-y,1/2+z
_cell_length_a                   13.5634(4)
_cell_length_b                   9.0940(3)
_cell_length_c                   15.4845(4)
_cell_angle_alpha                90
_cell_angle_beta                 100.4945(11)
_cell_angle_gamma                90
_cell_volume                     1878
_exptl_crystal_colour            colorless
_exptl_crystal_description       Block
_cell_formula_units_Z            4
loop_
_atom_site_label
_atom_site_type_symbol
_atom_site_fract_x
_atom_site_fract_y
_atom_site_fract_z
C1 C 0.32812(12) 0.54981(18) 0.26566(10)
C2 C 0.40599(13) 0.4484(2) 0.27442(12)
H1 H 0.3930 0.3540 0.2503
C3 C 0.50256(14) 0.4818(2) 0.31767(13)
H2 H 0.5535 0.4109 0.3206
C4 C 0.52432(13) 0.6159(2) 0.35585(12)
H3 H 0.5898 0.6386 0.3845
C5 C 0.44727(12) 0.7187(2) 0.35140(11)
C6 C 0.34915(12) 0.68671(18) 0.30695(10)
N1 N 0.29144(10) 0.81668(14) 0.31136(9)
C7 C 0.35557(13) 0.9211(2) 0.35932(13)
H4 H 0.3363 1.0167 0.3724
C8 C 0.44795(13) 0.8658(2) 0.38380(13)
H5 H 0.5034 0.9150 0.4165
N2 N 0.23260(10) 0.50546(15) 0.21835(9)
H6 H 0.1835 0.4937 0.2468
S1 S 0.21221(3) 0.47581(4) 0.11218(3)
O1 O 0.11340(9) 0.41569(14) 0.09190(9)
O2 O 0.29556(9) 0.39539(14) 0.09158(8)
C9 C 0.21045(12) 0.64925(18) 0.06191(10)
C10 C 0.30005(13) 0.7168(2) 0.05415(11)
H7 H 0.3615 0.6695 0.0743
C11 C 0.29777(15) 0.8552(2) 0.01623(12)
H8 H 0.3583 0.9013 0.0106
C12 C 0.20785(16) 0.9267(2) -0.01351(11)
C13 C 0.11908(15) 0.8557(2) -0.00668(12)
H9 H 0.0576 0.9022 -0.0281
C14 C 0.11921(13) 0.7176(2) 0.03100(11)
H10 H 0.0586 0.6709 0.0356
C15 C 0.2061(2) 1.0792(2) -0.05225(14)
H11 H 0.2741 1.1097 -0.0548
H12 H 0.1769 1.1473 -0.0158
H13 H 0.1663 1.0786 -0.1110
C16 C 0.18731(12) 0.83198(17) 0.28840(10)
O3 O 0.13481(9) 0.72306(13) 0.28041(9)
C17 C 0.14046(13) 0.98506(18) 0.27040(11)
C18 C 0.19966(17) 1.0819(2) 0.21706(14)
H14 H 0.2616 1.1132 0.2541
H15 H 0.1600 1.1675 0.1956
H16 H 0.2149 1.0262 0.1677
C19 C 0.03572(14) 0.9608(2) 0.21638(13)
H17 H 0.0409 0.9069 0.1633
H18 H 0.0041 1.0551 0.2008
H19 H -0.0043 0.9048 0.2507
C20 C 0.12683(16) 1.0594(2) 0.35683(12)
H20 H 0.0897 0.9944 0.3889
H21 H 0.0902 1.1507 0.3438
H22 H 0.1921 1.0799 0.3922
loop_
_geom_bond_atom_site_label_1
_geom_bond_atom_site_label_2
_geom_bond_site_symmetry_1
_geom_bond_site_symmetry_2
C1 C2 1_555 1_555
C2 H1 1_555 1_555
C3 C2 1_555 1_555
H2 C3 1_555 1_555
C4 C3 1_555 1_555
H3 C4 1_555 1_555
C5 C4 1_555 1_555
C6 C1 1_555 1_555
N1 C6 1_555 1_555
C7 N1 1_555 1_555
H4 C7 1_555 1_555
C8 C5 1_555 1_555
H5 C8 1_555 1_555
N2 C1 1_555 1_555
H6 N2 1_555 1_555
S1 N2 1_555 1_555
O1 S1 1_555 1_555
O2 S1 1_555 1_555
C9 S1 1_555 1_555
C10 C9 1_555 1_555
H7 C10 1_555 1_555
C11 C10 1_555 1_555
H8 C11 1_555 1_555
C12 C11 1_555 1_555
C13 C12 1_555 1_555
H9 C13 1_555 1_555
C14 C9 1_555 1_555
H10 C14 1_555 1_555
C15 C12 1_555 1_555
H11 C15 1_555 1_555
H12 C15 1_555 1_555
H13 C15 1_555 1_555
C16 N1 1_555 1_555
O3 C16 1_555 1_555
C17 C16 1_555 1_555
C18 C17 1_555 1_555
H14 C18 1_555 1_555
H15 C18 1_555 1_555
H16 C18 1_555 1_555
C19 C17 1_555 1_555
H17 C19 1_555 1_555
H18 C19 1_555 1_555
H19 C19 1_555 1_555
C20 C17 1_555 1_555
H20 C20 1_555 1_555
H21 C20 1_555 1_555
H22 C20 1_555 1_555
C5 C6 1_555 1_555
C7 C8 1_555 1_555
C13 C14 1_555 1_555

#END
