
#######################################################################
#
#                 Cambridge Crystallographic Data Centre
#                                CCDC 
#
#######################################################################
#
# If this CIF has been generated from an entry in the Cambridge 
# Structural Database, then it will include bibliographic, chemical, 
# crystal, experimental, refinement or atomic coordinate data resulting 
# from the CCDC's data processing and validation procedures.
#
#######################################################################

data_AKUVIL
_chemical_name_common            
25,27:25',27'-bis(Crown-6)-26,26':28,28'--bis(3-oxapentane-1,5-dioxy)-bis(calix(4)arene)
_chemical_formula_moiety         'C84 H96 O18'
_chemical_name_systematic        
25,27:25',27'-bis(3,6,9,12-Tetraoxatetradecane-1,14-dioxy)-26,26':28,28'-bis(3-oxapentane-1,5-dioxy)-bis(calix(4)arene)
_symmetry_cell_setting           monoclinic
_symmetry_space_group_name_H-M   'P 21/c'
_symmetry_Int_Tables_number      14
_space_group_name_Hall           '-P 2ybc'
loop_
_symmetry_equiv_pos_site_id
_symmetry_equiv_pos_as_xyz
1 x,y,z
2 x,1/2-y,1/2+z
3 -x,-y,-z
4 -x,1/2+y,1/2-z
_cell_length_a                   10.7059(11)
_cell_length_b                   17.7934(17)
_cell_length_c                   19.005(2)
_cell_angle_alpha                90
_cell_angle_beta                 97.557(2)
_cell_angle_gamma                90
_cell_volume                     3588.9
_exptl_crystal_colour            yellow
_exptl_crystal_description       block
_cell_formula_units_Z            2
_exptl_crystal_recrystallization_method chloroform/methanol
loop_
_atom_site_label
_atom_site_type_symbol
_atom_site_fract_x
_atom_site_fract_y
_atom_site_fract_z
O1 O 0.2256(2) 0.23686(14) 0.23673(14)
O2 O 0.3074(3) 0.25642(18) 0.38728(16)
O3 O 0.5281(3) 0.18398(16) 0.48019(16)
O4 O 0.7183(3) 0.07440(17) 0.48082(16)
O5 O 0.6198(3) -0.04069(16) 0.37268(16)
O6 O 0.3696(2) -0.00093(14) 0.29426(14)
O7 O 0.0142(2) 0.04824(14) 0.18025(14)
O8 O -0.2319(3) -0.02929(18) 0.05421(17)
O9 O 0.3456(2) 0.10012(14) 0.11690(15)
C1 C 0.1629(4) 0.2341(2) 0.1675(2)
C2 C 0.0346(4) 0.2158(2) 0.1562(2)
C3 C -0.0233(4) 0.2142(2) 0.0865(2)
H1 H -0.1114 0.2026 0.0770
C4 C 0.0430(4) 0.2289(2) 0.0307(2)
H2 H 0.0007 0.2283 -0.0171
C5 C 0.1691(4) 0.2446(2) 0.0433(2)
H3 H 0.2146 0.2549 0.0041
C6 C 0.2317(4) 0.2456(2) 0.1116(2)
C7 C 0.0337(3) 0.0678(2) 0.2513(2)
C8 C 0.0819(4) 0.0144(2) 0.3012(2)
C9 C 0.0987(4) 0.0359(3) 0.3716(2)
H4 H 0.1304 -0.0001 0.4071
C10 C 0.0713(4) 0.1076(3) 0.3923(2)
H5 H 0.0829 0.1210 0.4416
C11 C 0.0273(4) 0.1595(2) 0.3419(2)
H6 H 0.0091 0.2095 0.3564
C12 C 0.0084(4) 0.1415(2) 0.2702(2)
C13 C 0.3229(4) -0.0405(2) 0.2336(2)
C14 C 0.4021(4) -0.0449(2) 0.1807(2)
C15 C 0.3629(4) -0.0901(2) 0.1215(2)
H7 H 0.4165 -0.0960 0.0852
C16 C 0.2477(5) -0.1263(2) 0.1148(3)
H8 H 0.2225 -0.1578 0.0745
C17 C 0.1694(4) -0.1173(2) 0.1659(3)
H9 H 0.0885 -0.1414 0.1597
C18 C 0.2039(4) -0.0744(2) 0.2261(2)
C19 C 0.4497(4) 0.1291(2) 0.1597(2)
C20 C 0.4604(4) 0.2070(2) 0.1678(2)
C21 C 0.5599(4) 0.2339(2) 0.2159(2)
H10 H 0.5691 0.2871 0.2229
C22 C 0.6446(4) 0.1867(3) 0.2531(2)
H11 H 0.7128 0.2067 0.2856
C23 C 0.6319(4) 0.1100(3) 0.2440(2)
H12 H 0.6922 0.0771 0.2701
C24 C 0.5333(4) 0.0793(2) 0.1977(2)
C25 C -0.0414(4) 0.2004(2) 0.2158(2)
H13 H -0.1243 0.1854 0.1952
H14 H -0.0499 0.2468 0.2404
C26 C 0.1122(4) -0.0648(2) 0.2796(2)
H15 H 0.1450 -0.0918 0.3217
H16 H 0.0345 -0.0886 0.2607
C27 C 0.5289(4) -0.0055(2) 0.1885(2)
H17 H 0.5683 -0.0174 0.1474
H18 H 0.5801 -0.0272 0.2287
C28 C 0.3724(4) 0.2621(2) 0.1254(2)
H19 H 0.4016 0.2682 0.0801
H20 H 0.3825 0.3098 0.1491
C29 C 0.2151(4) 0.3066(2) 0.2728(2)
H21 H 0.1330 0.3105 0.2876
H22 H 0.2250 0.3475 0.2410
C30 C 0.3132(4) 0.3116(2) 0.3358(2)
H23 H 0.3945 0.3091 0.3198
H24 H 0.3065 0.3599 0.3575
C31 C 0.3753(4) 0.1900(2) 0.3771(3)
H25 H 0.3673 0.1793 0.3272
H26 H 0.3377 0.1490 0.3997
C32 C 0.5128(4) 0.1935(3) 0.4055(2)
H27 H 0.5575 0.1546 0.3842
H28 H 0.5468 0.2411 0.3939
C33 C 0.6527(4) 0.1968(3) 0.5137(3)
H29 H 0.6562 0.1854 0.5633
H30 H 0.6719 0.2492 0.5097
C34 C 0.7521(5) 0.1516(3) 0.4838(3)
H31 H 0.7610 0.1693 0.4370
H32 H 0.8315 0.1578 0.5132
C35 C 0.7920(4) 0.0309(3) 0.4391(3)
H33 H 0.8750 0.0241 0.4643
H34 H 0.7998 0.0569 0.3956
C36 C 0.7317(4) -0.0442(3) 0.4228(3)
H35 H 0.7912 -0.0767 0.4044
H36 H 0.7113 -0.0660 0.4660
C37 C 0.5101(4) -0.0227(2) 0.4031(2)
H37 H 0.5067 0.0306 0.4105
H38 H 0.5132 -0.0469 0.4485
C38 C 0.3954(4) -0.0472(2) 0.3565(2)
H39 H 0.4060 -0.0983 0.3422
H40 H 0.3247 -0.0454 0.3827
C39 C -0.1081(4) 0.0196(3) 0.1564(2)
H41 H -0.1711 0.0566 0.1622
H42 H -0.1245 -0.0244 0.1830
C40 C -0.1104(5) 0.0007(3) 0.0811(3)
H43 H -0.0939 0.0448 0.0548
H44 H -0.0462 -0.0357 0.0756
C41 C -0.2297(4) -0.0554(3) -0.0150(3)
H45 H -0.1675 -0.0942 -0.0150
H46 H -0.2073 -0.0150 -0.0445
C42 C 0.3572(4) 0.0859(2) 0.0446(2)
H47 H 0.3757 0.1312 0.0207
H48 H 0.4223 0.0497 0.0403
C41B C 0.2297(4) 0.0554(3) 0.0150(3)
O8B O 0.2319(3) 0.02929(18) -0.05421(17)
C40B C 0.1104(5) -0.0007(3) -0.0811(3)
C39B C 0.1081(4) -0.0196(3) -0.1564(2)
O7B O -0.0142(2) -0.04824(14) -0.18025(14)
C7B C -0.0337(3) -0.0678(2) -0.2513(2)
C8B C -0.0819(4) -0.0144(2) -0.3012(2)
C9B C -0.0987(4) -0.0359(3) -0.3716(2)
H4B H -0.1304 0.0001 -0.4071
C10B C -0.0713(4) -0.1076(3) -0.3923(2)
H5B H -0.0829 -0.1210 -0.4416
C11B C -0.0273(4) -0.1595(2) -0.3419(2)
H6B H -0.0091 -0.2095 -0.3564
C12B C -0.0084(4) -0.1415(2) -0.2702(2)
C25B C 0.0414(4) -0.2004(2) -0.2158(2)
C2B C -0.0346(4) -0.2158(2) -0.1562(2)
C1B C -0.1629(4) -0.2341(2) -0.1675(2)
O1B O -0.2256(2) -0.23686(14) -0.23673(14)
C29B C -0.2151(4) -0.3066(2) -0.2728(2)
H21B H -0.1330 -0.3105 -0.2876
H22B H -0.2250 -0.3475 -0.2410
C30B C -0.3132(4) -0.3116(2) -0.3358(2)
O2B O -0.3074(3) -0.25642(18) -0.38728(16)
C31B C -0.3753(4) -0.1900(2) -0.3771(3)
H25B H -0.3673 -0.1793 -0.3272
H26B H -0.3377 -0.1490 -0.3997
C32B C -0.5128(4) -0.1935(3) -0.4055(2)
O3B O -0.5281(3) -0.18398(16) -0.48019(16)
C33B C -0.6527(4) -0.1968(3) -0.5137(3)
H29B H -0.6562 -0.1854 -0.5633
H30B H -0.6719 -0.2492 -0.5097
C34B C -0.7521(5) -0.1516(3) -0.4838(3)
O4B O -0.7183(3) -0.07440(17) -0.48082(16)
C35B C -0.7920(4) -0.0309(3) -0.4391(3)
H33B H -0.8750 -0.0241 -0.4643
H34B H -0.7998 -0.0569 -0.3956
C36B C -0.7317(4) 0.0442(3) -0.4228(3)
O5B O -0.6198(3) 0.04069(16) -0.37268(16)
C37B C -0.5101(4) 0.0227(2) -0.4031(2)
H37B H -0.5067 -0.0306 -0.4105
H38B H -0.5132 0.0469 -0.4485
C38B C -0.3954(4) 0.0472(2) -0.3565(2)
O6B O -0.3696(2) 0.00093(14) -0.29426(14)
C13B C -0.3229(4) 0.0405(2) -0.2336(2)
C14B C -0.4021(4) 0.0449(2) -0.1807(2)
C15B C -0.3629(4) 0.0901(2) -0.1215(2)
H7B H -0.4165 0.0960 -0.0852
C16B C -0.2477(5) 0.1263(2) -0.1148(3)
H8B H -0.2225 0.1578 -0.0745
C17B C -0.1694(4) 0.1173(2) -0.1659(3)
H9B H -0.0885 0.1414 -0.1597
C18B C -0.2039(4) 0.0744(2) -0.2261(2)
C26B C -0.1122(4) 0.0648(2) -0.2796(2)
H15B H -0.1450 0.0918 -0.3217
H16B H -0.0345 0.0886 -0.2607
C27B C -0.5289(4) 0.0055(2) -0.1885(2)
C24B C -0.5333(4) -0.0793(2) -0.1977(2)
C19B C -0.4497(4) -0.1291(2) -0.1597(2)
O9B O -0.3456(2) -0.10012(14) -0.11690(15)
C42B C -0.3572(4) -0.0859(2) -0.0446(2)
H47B H -0.3757 -0.1312 -0.0207
H48B H -0.4223 -0.0497 -0.0403
C20B C -0.4604(4) -0.2070(2) -0.1678(2)
C21B C -0.5599(4) -0.2339(2) -0.2159(2)
H10B H -0.5691 -0.2871 -0.2229
C22B C -0.6446(4) -0.1867(3) -0.2531(2)
H11B H -0.7128 -0.2067 -0.2856
C23B C -0.6319(4) -0.1100(3) -0.2440(2)
H12B H -0.6922 -0.0771 -0.2701
C28B C -0.3724(4) -0.2621(2) -0.1254(2)
C6B C -0.2317(4) -0.2456(2) -0.1116(2)
C5B C -0.1691(4) -0.2446(2) -0.0433(2)
C4B C -0.0430(4) -0.2289(2) -0.0307(2)
C3B C 0.0233(4) -0.2142(2) -0.0865(2)
H1B H 0.1114 -0.2026 -0.0770
H2B H -0.0007 -0.2283 0.0171
H3B H -0.2146 -0.2549 -0.0041
H19B H -0.4016 -0.2682 -0.0801
H20B H -0.3825 -0.3098 -0.1491
H17B H -0.5683 0.0174 -0.1474
H18B H -0.5801 0.0272 -0.2287
H39B H -0.4060 0.0983 -0.3422
H40B H -0.3247 0.0454 -0.3827
H35B H -0.7912 0.0767 -0.4044
H36B H -0.7113 0.0660 -0.4660
H31B H -0.7610 -0.1693 -0.4370
H32B H -0.8315 -0.1578 -0.5132
H27B H -0.5575 -0.1546 -0.3842
H28B H -0.5468 -0.2411 -0.3939
H23B H -0.3945 -0.3091 -0.3198
H24B H -0.3065 -0.3599 -0.3575
H13B H 0.1243 -0.1854 -0.1952
H14B H 0.0499 -0.2468 -0.2404
H41B H 0.1711 -0.0566 -0.1622
H42B H 0.1245 0.0244 -0.1830
H43B H 0.0939 -0.0448 -0.0548
H44B H 0.0462 0.0357 -0.0756
H45B H 0.1675 0.0942 0.0150
H46B H 0.2073 0.0150 0.0445
loop_
_geom_bond_atom_site_label_1
_geom_bond_atom_site_label_2
_geom_bond_site_symmetry_1
_geom_bond_site_symmetry_2
O1 C1 1_555 1_555
O2 C30 1_555 1_555
O3 C32 1_555 1_555
O4 C34 1_555 1_555
O5 C36 1_555 1_555
O6 C13 1_555 1_555
O7 C7 1_555 1_555
O8 C40 1_555 1_555
O9 C19 1_555 1_555
C1 C2 1_555 1_555
C2 C3 1_555 1_555
C3 H1 1_555 1_555
C4 C3 1_555 1_555
H2 C4 1_555 1_555
C5 C4 1_555 1_555
H3 C5 1_555 1_555
C6 C1 1_555 1_555
C7 C8 1_555 1_555
C8 C9 1_555 1_555
C9 H4 1_555 1_555
C10 C9 1_555 1_555
H5 C10 1_555 1_555
C11 C10 1_555 1_555
H6 C11 1_555 1_555
C12 C7 1_555 1_555
C13 C14 1_555 1_555
C14 C15 1_555 1_555
C15 H7 1_555 1_555
C16 C15 1_555 1_555
H8 C16 1_555 1_555
C17 C16 1_555 1_555
H9 C17 1_555 1_555
C18 C13 1_555 1_555
C19 C20 1_555 1_555
C20 C21 1_555 1_555
C21 H10 1_555 1_555
C22 C21 1_555 1_555
H11 C22 1_555 1_555
C23 C22 1_555 1_555
H12 C23 1_555 1_555
C24 C19 1_555 1_555
C25 C2 1_555 1_555
H13 C25 1_555 1_555
H14 C25 1_555 1_555
C26 C8 1_555 1_555
H15 C26 1_555 1_555
H16 C26 1_555 1_555
C27 C14 1_555 1_555
H17 C27 1_555 1_555
H18 C27 1_555 1_555
C28 C6 1_555 1_555
H19 C28 1_555 1_555
H20 C28 1_555 1_555
C29 O1 1_555 1_555
H21 C29 1_555 1_555
H22 C29 1_555 1_555
C30 C29 1_555 1_555
H23 C30 1_555 1_555
H24 C30 1_555 1_555
C31 O2 1_555 1_555
H25 C31 1_555 1_555
H26 C31 1_555 1_555
C32 C31 1_555 1_555
H27 C32 1_555 1_555
H28 C32 1_555 1_555
C33 O3 1_555 1_555
H29 C33 1_555 1_555
H30 C33 1_555 1_555
C34 C33 1_555 1_555
H31 C34 1_555 1_555
H32 C34 1_555 1_555
C35 O4 1_555 1_555
H33 C35 1_555 1_555
H34 C35 1_555 1_555
C36 C35 1_555 1_555
H35 C36 1_555 1_555
H36 C36 1_555 1_555
C37 O5 1_555 1_555
H37 C37 1_555 1_555
H38 C37 1_555 1_555
C38 O6 1_555 1_555
H39 C38 1_555 1_555
H40 C38 1_555 1_555
C39 O7 1_555 1_555
H41 C39 1_555 1_555
H42 C39 1_555 1_555
C40 C39 1_555 1_555
H43 C40 1_555 1_555
H44 C40 1_555 1_555
C41 O8 1_555 1_555
H45 C41 1_555 1_555
H46 C41 1_555 1_555
C42 O9 1_555 1_555
H47 C42 1_555 1_555
H48 C42 1_555 1_555
C41B C42 1_555 1_555
O8B C41B 1_555 1_555
C40B O8B 1_555 1_555
C39B C40B 1_555 1_555
O7B C39B 1_555 1_555
C7B O7B 1_555 1_555
C8B C7B 1_555 1_555
C9B C8B 1_555 1_555
H4B C9B 1_555 1_555
C10B C9B 1_555 1_555
H5B C10B 1_555 1_555
C11B C10B 1_555 1_555
H6B C11B 1_555 1_555
C12B C7B 1_555 1_555
C25B C12B 1_555 1_555
C2B C25B 1_555 1_555
C1B C2B 1_555 1_555
O1B C1B 1_555 1_555
C29B O1B 1_555 1_555
H21B C29B 1_555 1_555
H22B C29B 1_555 1_555
C30B C29B 1_555 1_555
O2B C30B 1_555 1_555
C31B O2B 1_555 1_555
H25B C31B 1_555 1_555
H26B C31B 1_555 1_555
C32B C31B 1_555 1_555
O3B C32B 1_555 1_555
C33B O3B 1_555 1_555
H29B C33B 1_555 1_555
H30B C33B 1_555 1_555
C34B C33B 1_555 1_555
O4B C34B 1_555 1_555
C35B O4B 1_555 1_555
H33B C35B 1_555 1_555
H34B C35B 1_555 1_555
C36B C35B 1_555 1_555
O5B C36B 1_555 1_555
C37B O5B 1_555 1_555
H37B C37B 1_555 1_555
H38B C37B 1_555 1_555
C38B C37B 1_555 1_555
O6B C38B 1_555 1_555
C13B O6B 1_555 1_555
C14B C13B 1_555 1_555
C15B C14B 1_555 1_555
H7B C15B 1_555 1_555
C16B C15B 1_555 1_555
H8B C16B 1_555 1_555
C17B C16B 1_555 1_555
H9B C17B 1_555 1_555
C18B C13B 1_555 1_555
C26B C8B 1_555 1_555
H15B C26B 1_555 1_555
H16B C26B 1_555 1_555
C27B C14B 1_555 1_555
C24B C27B 1_555 1_555
C19B C24B 1_555 1_555
O9B C19B 1_555 1_555
C42B C41 1_555 1_555
H47B C42B 1_555 1_555
H48B C42B 1_555 1_555
C20B C19B 1_555 1_555
C21B C20B 1_555 1_555
H10B C21B 1_555 1_555
C22B C21B 1_555 1_555
H11B C22B 1_555 1_555
C23B C24B 1_555 1_555
H12B C23B 1_555 1_555
C28B C20B 1_555 1_555
C6B C1B 1_555 1_555
C5B C6B 1_555 1_555
C4B C5B 1_555 1_555
C3B C2B 1_555 1_555
H1B C3B 1_555 1_555
H2B C4B 1_555 1_555
H3B C5B 1_555 1_555
H19B C28B 1_555 1_555
H20B C28B 1_555 1_555
H17B C27B 1_555 1_555
H18B C27B 1_555 1_555
H39B C38B 1_555 1_555
H40B C38B 1_555 1_555
H35B C36B 1_555 1_555
H36B C36B 1_555 1_555
H31B C34B 1_555 1_555
H32B C34B 1_555 1_555
H27B C32B 1_555 1_555
H28B C32B 1_555 1_555
H23B C30B 1_555 1_555
H24B C30B 1_555 1_555
H13B C25B 1_555 1_555
H14B C25B 1_555 1_555
H41B C39B 1_555 1_555
H42B C39B 1_555 1_555
H43B C40B 1_555 1_555
H44B C40B 1_555 1_555
H45B C41B 1_555 1_555
H46B C41B 1_555 1_555
C5 C6 1_555 1_555
C11 C12 1_555 1_555
C12 C25 1_555 1_555
C17 C18 1_555 1_555
C18 C26 1_555 1_555
C20 C28 1_555 1_555
C23 C24 1_555 1_555
C24 C27 1_555 1_555
C37 C38 1_555 1_555
C11B C12B 1_555 1_555
C17B C18B 1_555 1_555
C18B C26B 1_555 1_555
O9B C42B 1_555 1_555
C22B C23B 1_555 1_555
C28B C6B 1_555 1_555
C4B C3B 1_555 1_555

#END
