
#######################################################################
#
#                 Cambridge Crystallographic Data Centre
#                                CCDC 
#
#######################################################################
#
# If this CIF has been generated from an entry in the Cambridge 
# Structural Database, then it will include bibliographic, chemical, 
# crystal, experimental, refinement or atomic coordinate data resulting 
# from the CCDC's data processing and validation procedures.
#
#######################################################################

data_ALABEV
_chemical_formula_moiety         'C24 H22 N2 2+,C32 H38 O10,2(F6 P1 1-)'
_chemical_name_systematic        
"(2)-(N,N'-Dibenzyl-4,4'-bipyridinium 4,7,10,13,19,22,25,28,32,39-decaoxatetracyclo[14.14.10.1^3,29^.1^14,18^]dotetraconta-1,3(41),14(42),15,17,29-hexaene-34,36-diyne) pseudorotaxane bis(hexafluorophosphate)"
_symmetry_cell_setting           monoclinic
_symmetry_space_group_name_H-M   'P 21/c'
_symmetry_Int_Tables_number      14
_space_group_name_Hall           '-P 2ybc'
loop_
_symmetry_equiv_pos_site_id
_symmetry_equiv_pos_as_xyz
1 x,y,z
2 -x,1/2+y,1/2-z
3 -x,-y,-z
4 x,1/2-y,1/2+z
_cell_length_a                   12.789(3)
_cell_length_b                   26.622(6)
_cell_length_c                   20.717(4)
_cell_angle_alpha                90
_cell_angle_beta                 127.862(10)
_cell_angle_gamma                90
_cell_volume                     5568.67
_exptl_crystal_colour            red
_exptl_crystal_description       block
_cell_formula_units_Z            4
loop_
_atom_site_label
_atom_site_type_symbol
_atom_site_fract_x
_atom_site_fract_y
_atom_site_fract_z
C1 C 0.5864(5) 0.76947(19) 0.4209(3)
C2 C 0.5093(6) 0.55079(19) 0.2875(4)
C3 C 0.5606(5) 0.71443(19) 0.4060(3)
C4 C 0.4873(6) 0.56069(19) 0.3491(4)
H1 H 0.3972 0.5518 0.3266
H2 H 0.5471 0.5402 0.3973
C5 C 0.4118(6) 0.6468(2) 0.3325(4)
H3 H 0.3257 0.6354 0.2936
C6 C 0.6317(6) 0.6298(2) 0.4285(4)
H4 H 0.7001 0.6065 0.4564
C7 C 0.4354(5) 0.6972(2) 0.3481(4)
H5 H 0.3654 0.7198 0.3190
C8 C 0.6596(6) 0.6798(2) 0.4472(4)
H6 H 0.7461 0.6900 0.4880
C9 C 0.6252(7) 0.9329(2) 0.3116(5)
H7 H 0.5388 0.9214 0.2839
C10 C 0.7124(6) 0.7884(2) 0.4683(4)
H8 H 0.7847 0.7668 0.4947
C11 C 0.4846(6) 0.8032(2) 0.3860(4)
H9 H 0.3977 0.7916 0.3548
C12 C 0.7038(7) 0.9385(2) 0.3943(5)
C13 C 0.4200(7) 0.5666(2) 0.2081(4)
H10 H 0.3433 0.5828 0.1927
C14 C 0.5092(7) 0.8542(2) 0.3965(5)
H11 H 0.4385 0.8764 0.3733
C15 C 0.6554(7) 0.9264(2) 0.4428(5)
H12 H 0.7216 0.9362 0.4994
H13 H 0.5749 0.9451 0.4212
C16 C 0.5482(10) 0.5348(3) 0.1717(6)
H14 H 0.5609 0.5292 0.1327
C17 C 0.6189(6) 0.5268(2) 0.3071(4)
H15 H 0.6823 0.5157 0.3604
C18 C 0.7317(6) 0.8396(3) 0.4767(4)
H16 H 0.8176 0.8522 0.5097
C19 C 0.6716(10) 0.9440(3) 0.2680(5)
H17 H 0.6173 0.9398 0.2115
C20 C 0.8319(7) 0.9545(2) 0.4340(5)
H18 H 0.8883 0.9576 0.4906
C21 C 0.4391(10) 0.5596(3) 0.1511(5)
H19 H 0.3777 0.5717 0.0983
C22 C 0.6381(8) 0.5185(3) 0.2487(6)
H20 H 0.7133 0.5015 0.2630
C23 C 0.7998(11) 0.9614(3) 0.3096(7)
H21 H 0.8318 0.9699 0.2811
C24 C 0.8768(9) 0.9659(3) 0.3901(7)
H22 H 0.9634 0.9770 0.4177
N1 N 0.6289(5) 0.87169(16) 0.4380(3)
N2 N 0.5104(5) 0.61424(16) 0.3721(3)
C25 C 0.6373(6) 0.6993(2) 0.2812(4)
H23 H 0.5785 0.6724 0.2583
C26 C 0.8147(6) 0.7783(2) 0.3451(4)
C27 C 0.6878(6) 0.7301(2) 0.6236(4)
C28 C 0.6886(6) 0.8195(2) 0.6335(4)
C29 C 0.5926(6) 0.7469(2) 0.2577(4)
C30 C 0.5509(5) 0.7293(2) 0.5651(3)
H24 H 0.5045 0.6993 0.5435
C31 C 0.8602(6) 0.7302(2) 0.3705(4)
H25 H 0.9505 0.7240 0.4084
C32 C 0.5521(6) 0.8194(2) 0.5742(4)
H26 H 0.5052 0.8494 0.5576
C33 C 0.7710(6) 0.6912(2) 0.3394(4)
C34 C 0.7559(6) 0.7755(2) 0.6573(4)
H27 H 0.8476 0.7755 0.6961
C35 C 0.4868(6) 0.7751(2) 0.5404(4)
C36 C 0.8103(6) 0.6014(2) 0.6533(4)
H28 H 0.8828 0.6057 0.7110
H29 H 0.7735 0.5681 0.6454
C37 C 0.6791(7) 0.7871(2) 0.2874(4)
H30 H 0.6474 0.8195 0.2691
C38 C 0.0982(6) 0.7904(3) 0.2329(5)
H31 H 0.1184 0.8254 0.2491
H32 H 0.0079 0.7843 0.2125
C39 C 0.7056(6) 0.6403(2) 0.6265(4)
H33 H 0.6389 0.6393 0.5676
H34 H 0.6627 0.6335 0.6513
C40 C 0.9096(7) 0.8223(2) 0.3803(5)
H35 H 0.9110 0.8374 0.3382
H36 H 0.8804 0.8476 0.3999
C41 C 0.1516(6) 0.7568(3) 0.3557(4)
H37 H 0.0790 0.7335 0.3343
H38 H 0.1245 0.7894 0.3615
C42 C 0.7615(7) 0.8681(2) 0.6690(4)
H39 H 0.7561 0.8870 0.6270
H40 H 0.7195 0.8877 0.6867
C43 C 0.9421(6) 0.6309(2) 0.4230(5)
H41 H 0.9817 0.6540 0.4685
H42 H 0.9882 0.6342 0.3996
C44 C 0.1078(6) 0.7814(3) 0.1676(4)
H43 H 0.0856 0.7467 0.1499
H44 H 0.0456 0.8028 0.1213
C45 C 0.9452(7) 0.5668(2) 0.6239(4)
H45 H 0.8989 0.5350 0.6098
H46 H 1.0189 0.5662 0.6818
C46 C 0.2535(7) 0.7923(3) 0.1340(5)
H47 H 0.2051 0.8201 0.0969
H48 H 0.2207 0.7613 0.1027
C47 C 1.0203(7) 0.8926(3) 0.6923(5)
C48 C 0.9775(8) 0.9001(3) 0.7447(5)
H49 H 1.0552 0.9019 0.8016
H50 H 0.9307 0.9318 0.7305
C49 C 0.2715(6) 0.7389(3) 0.4371(4)
H51 H 0.2453 0.7239 0.4679
H52 H 0.3181 0.7138 0.4295
C50 C 0.9544(7) 0.5785(3) 0.4520(5)
H53 H 0.9060 0.5562 0.4051
H54 H 1.0469 0.5687 0.4858
C51 C 1.1241(8) 0.8462(3) 0.4934(5)
H55 H 1.1087 0.8743 0.4587
H56 H 1.2151 0.8352 0.5225
C52 C 1.0816(7) 0.8725(3) 0.5991(5)
C53 C 0.4017(8) 0.7979(3) 0.1766(5)
H57 H 0.4155 0.8104 0.1383
H58 H 0.4409 0.8216 0.2215
C54 C 1.0520(7) 0.8842(3) 0.6511(5)
C55 C 0.9961(8) 0.5728(3) 0.5769(5)
H59 H 1.0441 0.6043 0.5929
H60 H 1.0593 0.5461 0.5927
C56 C 1.1016(7) 0.8620(3) 0.5526(5)
O1 O 0.3546(4) 0.78059(17) 0.4798(3)
O2 O 0.7668(4) 0.68815(15) 0.6512(3)
O3 O 1.0358(5) 0.80599(18) 0.4444(3)
O4 O 0.8938(5) 0.86059(18) 0.7349(3)
O5 O 0.8060(4) 0.64241(14) 0.3632(3)
O6 O 0.4581(5) 0.75235(17) 0.2048(3)
O7 O 0.1834(4) 0.76026(15) 0.3013(3)
O8 O 0.2360(4) 0.7915(2) 0.1951(3)
O9 O 0.8581(4) 0.60631(14) 0.6075(2)
O10 O 0.9075(5) 0.57245(19) 0.4962(3)
F1 F 0.4678(6) 0.5515(3) 0.5295(5)
F2 F 0.3958(8) 0.6072(3) 0.5640(5)
F3 F 0.2025(6) 0.5956(5) 0.4466(5)
F4 F 0.3005(10) 0.5353(4) 0.5195(6)
F5 F 0.2828(7) 0.5464(3) 0.4060(5)
F6 F 0.3801(8) 0.6143(3) 0.4582(5)
P1 P 0.3342(2) 0.57467(8) 0.48634(16)
F7 F 0.2631(5) 0.9370(2) 0.3271(3)
F8 F 0.3508(9) 0.9236(4) 0.4521(4)
F9 F 0.3057(9) 1.0001(2) 0.4129(6)
F10 F 0.1127(8) 0.9761(4) 0.3217(4)
F11 F 0.1491(10) 0.9061(3) 0.3582(5)
F12 F 0.2053(5) 0.9638(2) 0.4494(3)
P2 P 0.23505(17) 0.95041(6) 0.38856(11)
loop_
_geom_bond_atom_site_label_1
_geom_bond_atom_site_label_2
_geom_bond_site_symmetry_1
_geom_bond_site_symmetry_2
C1 C3 1_555 1_555
C2 C4 1_555 1_555
C3 C7 1_555 1_555
C4 H1 1_555 1_555
H2 C4 1_555 1_555
C5 H3 1_555 1_555
C6 H4 1_555 1_555
C7 C5 1_555 1_555
H5 C7 1_555 1_555
C8 C3 1_555 1_555
H6 C8 1_555 1_555
C9 H7 1_555 1_555
C10 C1 1_555 1_555
H8 C10 1_555 1_555
C11 C1 1_555 1_555
H9 C11 1_555 1_555
C12 C9 1_555 1_555
C13 C2 1_555 1_555
H10 C13 1_555 1_555
C14 C11 1_555 1_555
H11 C14 1_555 1_555
C15 C12 1_555 1_555
H12 C15 1_555 1_555
H13 C15 1_555 1_555
C16 H14 1_555 1_555
C17 C2 1_555 1_555
H15 C17 1_555 1_555
C18 C10 1_555 1_555
H16 C18 1_555 1_555
C19 C9 1_555 1_555
H17 C19 1_555 1_555
C20 C12 1_555 1_555
H18 C20 1_555 1_555
C21 C13 1_555 1_555
H19 C21 1_555 1_555
C22 C16 1_555 1_555
H20 C22 1_555 1_555
C23 C19 1_555 1_555
H21 C23 1_555 1_555
C24 C20 1_555 1_555
H22 C24 1_555 1_555
N1 C14 1_555 1_555
N2 C4 1_555 1_555
C25 H23 1_555 1_555
C26 C31 1_555 1_555
C27 C30 1_555 1_555
C28 C32 1_555 1_555
C29 C25 1_555 1_555
C30 H24 1_555 1_555
C31 H25 1_555 1_555
C32 H26 1_555 1_555
C33 C25 1_555 1_555
C34 C27 1_555 1_555
H27 C34 1_555 1_555
C35 C30 1_555 1_555
C36 H28 1_555 1_555
H29 C36 1_555 1_555
C37 C26 1_555 1_555
H30 C37 1_555 1_555
C38 H31 1_555 1_555
H32 C38 1_555 1_555
C39 C36 1_555 1_555
H33 C39 1_555 1_555
H34 C39 1_555 1_555
C40 C26 1_555 1_555
H35 C40 1_555 1_555
H36 C40 1_555 1_555
C41 H37 1_555 1_555
H38 C41 1_555 1_555
C42 C28 1_555 1_555
H39 C42 1_555 1_555
H40 C42 1_555 1_555
C43 H41 1_555 1_555
H42 C43 1_555 1_555
C44 C38 1_555 1_555
H43 C44 1_555 1_555
H44 C44 1_555 1_555
C45 H45 1_555 1_555
H46 C45 1_555 1_555
C46 H47 1_555 1_555
H48 C46 1_555 1_555
C47 C48 1_555 1_555
C48 H49 1_555 1_555
H50 C48 1_555 1_555
C49 C41 1_555 1_555
H51 C49 1_555 1_555
H52 C49 1_555 1_555
C50 C43 1_555 1_555
H53 C50 1_555 1_555
H54 C50 1_555 1_555
C51 H55 1_555 1_555
H56 C51 1_555 1_555
C52 C54 1_555 1_555
C53 C46 1_555 1_555
H57 C53 1_555 1_555
H58 C53 1_555 1_555
C54 C47 1_555 1_555
C55 C45 1_555 1_555
H59 C55 1_555 1_555
H60 C55 1_555 1_555
C56 C51 1_555 1_555
O1 C35 1_555 1_555
O2 C27 1_555 1_555
O3 C40 1_555 1_555
O4 C42 1_555 1_555
O5 C33 1_555 1_555
O6 C29 1_555 1_555
O7 C38 1_555 1_555
O8 C44 1_555 1_555
O9 C36 1_555 1_555
O10 C50 1_555 1_555
F1 P1 1_555 1_555
F2 P1 1_555 1_555
F3 P1 1_555 1_555
F4 P1 1_555 1_555
F5 P1 1_555 1_555
F6 P1 1_555 1_555
F7 P2 1_555 1_555
F8 P2 1_555 1_555
F9 P2 1_555 1_555
F10 P2 1_555 1_555
F11 P2 1_555 1_555
F12 P2 1_555 1_555
C5 N2 1_555 1_555
C6 C8 1_555 1_555
C6 N2 1_555 1_555
C15 N1 1_555 1_555
C16 C21 1_555 1_555
C17 C22 1_555 1_555
C18 N1 1_555 1_555
C23 C24 1_555 1_555
C28 C34 1_555 1_555
C29 C37 1_555 1_555
C31 C33 1_555 1_555
C32 C35 1_555 1_555
C39 O2 1_555 1_555
C41 O7 1_555 1_555
C43 O5 1_555 1_555
C45 O9 1_555 1_555
C46 O8 1_555 1_555
C48 O4 1_555 1_555
C49 O1 1_555 1_555
C51 O3 1_555 1_555
C52 C56 1_555 1_555
C53 O6 1_555 1_555
C55 O10 1_555 1_555

#END
