
#######################################################################
#
#                 Cambridge Crystallographic Data Centre
#                                CCDC 
#
#######################################################################
#
# If this CIF has been generated from an entry in the Cambridge 
# Structural Database, then it will include bibliographic, chemical, 
# crystal, experimental, refinement or atomic coordinate data resulting 
# from the CCDC's data processing and validation procedures.
#
#######################################################################

data_ALACEX
_chemical_formula_moiety         'C12 H19 N1 O4 S1'
_chemical_name_systematic        
'methyl 3-t-butyl-7-hydroxy-5-oxodihydro-1H-pyrrolo[1,2-c][1,3]thiazole-7a(5H)-carboxylate'
_symmetry_cell_setting           monoclinic
_symmetry_space_group_name_H-M   'P 21'
_symmetry_Int_Tables_number      4
_space_group_name_Hall           'P 2yb'
loop_
_symmetry_equiv_pos_site_id
_symmetry_equiv_pos_as_xyz
1 x,y,z
2 -x,1/2+y,-z
_cell_length_a                   8.7753(1)
_cell_length_b                   21.3925(2)
_cell_length_c                   12.0847(1)
_cell_angle_alpha                90
_cell_angle_beta                 107.2930(12)
_cell_angle_gamma                90
_cell_volume                     2166.06
_exptl_crystal_colour            'pale colorless'
_exptl_crystal_description       block
_cell_formula_units_Z            6
loop_
_atom_site_label
_atom_site_type_symbol
_atom_site_fract_x
_atom_site_fract_y
_atom_site_fract_z
S1 S 0.98930(5) 0.40626(3) 0.75558(3)
C1 C 1.00358(18) 0.42633(7) 0.90677(13)
N1 N 0.89397(14) 0.47938(6) 0.89660(10)
C2 C 0.92572(18) 0.52920(8) 0.96991(12)
O1 O 1.02959(15) 0.53159(6) 1.06329(10)
C3 C 0.8105(2) 0.58101(8) 0.91668(13)
C4 C 0.76526(18) 0.56757(7) 0.78721(12)
C5 C 0.78836(17) 0.49492(7) 0.78073(12)
C6 C 0.8777(2) 0.47578(8) 0.69525(13)
C7 C 0.62547(19) 0.46306(8) 0.75266(13)
O2 O 0.56298(13) 0.46697(6) 0.83977(10)
C8 C 0.4079(2) 0.43781(11) 0.81910(19)
O3 O 0.55909(15) 0.43962(7) 0.65971(10)
O4 O 0.60988(13) 0.58813(6) 0.72922(9)
C9 C 0.9706(2) 0.36801(8) 0.97242(14)
C10 C 0.7979(2) 0.34618(9) 0.92696(18)
C11 C 1.0054(2) 0.38412(9) 1.10099(15)
C12 C 1.0847(3) 0.31626(9) 0.96169(18)
H1 H 1.1098 0.4401 0.9459
H2 H 0.8658 0.6205 0.9388
H3 H 0.7174 0.5780 0.9443
H4 H 0.8408 0.5890 0.7539
H5 H 0.9514 0.5086 0.6902
H6 H 0.8061 0.4685 0.6191
H7 H 0.3643 0.4519 0.8832
H8 H 0.3332 0.4490 0.7393
H9 H 0.4193 0.3922 0.8233
H10 H 0.7859 0.3060 0.9646
H11 H 0.7183 0.3782 0.9398
H12 H 0.7713 0.3390 0.8447
H13 H 0.9750 0.3499 1.1433
H14 H 1.1194 0.3941 1.1349
H15 H 0.9432 0.4196 1.1112
H16 H 1.0810 0.2816 1.0126
H17 H 1.1918 0.3330 0.9828
H18 H 1.0547 0.3014 0.8811
H19 H 0.6067 0.5912 0.6637
S2 S 0.44930(5) 0.71353(3) 0.20423(3)
C13 C 0.6098(2) 0.67754(8) 0.32126(13)
N2 N 0.55317(15) 0.61430(7) 0.33100(10)
C14 C 0.41584(18) 0.59110(8) 0.23865(12)
C15 C 0.3138(2) 0.64803(8) 0.19008(14)
C16 C 0.33667(19) 0.54295(8) 0.30327(13)
O5 O 0.28271(16) 0.48807(6) 0.23923(10)
C17 C 0.46867(19) 0.52801(8) 0.41429(13)
C18 C 0.57537(18) 0.58450(8) 0.43385(12)
O6 O 0.66976(14) 0.60182(6) 0.52528(9)
C19 C 0.4674(2) 0.55392(8) 0.14774(13)
O7 O 0.58884(16) 0.51677(7) 0.19966(10)
C20 C 0.6312(3) 0.46952(11) 0.12836(19)
O8 O 0.40315(16) 0.55529(7) 0.04484(10)
C21 C 0.7740(2) 0.68443(9) 0.29898(14)
C22 C 0.9007(2) 0.65093(11) 0.39596(16)
C23 C 0.7777(2) 0.65750(12) 0.18313(16)
C24 C 0.8118(3) 0.75441(11) 0.3040(2)
H20 H 0.6175 0.6996 0.3915
H21 H 0.2444 0.6559 0.2371
H22 H 0.2541 0.6422 0.1114
H23 H 0.2469 0.5641 0.3214
H24 H 0.4302 0.5214 0.4802
H25 H 0.5318 0.4929 0.4045
H26 H 0.7219 0.4462 0.1777
H27 H 0.6587 0.4880 0.0631
H28 H 0.5383 0.4405 0.1025
H29 H 1.0042 0.6587 0.3846
H30 H 0.9004 0.6681 0.4711
H31 H 0.8782 0.6065 0.3935
H32 H 0.8828 0.6649 0.1729
H33 H 0.6966 0.6770 0.1196
H34 H 0.7576 0.6135 0.1822
H35 H 0.9204 0.7609 0.2993
H36 H 0.8090 0.7710 0.3782
H37 H 0.7342 0.7751 0.2398
H38 H 0.1966 0.4961 0.1873
S3 S 0.49023(6) 0.76689(3) 0.82043(4)
C25 C 0.40949(19) 0.74216(8) 0.66862(14)
N3 N 0.30463(15) 0.68912(6) 0.67269(10)
C26 C 0.28496(18) 0.63889(7) 0.59987(13)
O9 O 0.32289(14) 0.63746(6) 0.51083(10)
C27 C 0.2090(2) 0.58678(7) 0.64948(13)
C28 C 0.26585(18) 0.60000(7) 0.77949(12)
C29 C 0.28312(18) 0.67297(7) 0.78531(12)
C30 C 0.43250(19) 0.69540(8) 0.87737(14)
C31 C 0.13091(18) 0.70024(7) 0.80332(13)
O10 O 0.01035(13) 0.69928(6) 0.70506(10)
C32 C -0.1402(2) 0.72326(9) 0.71129(16)
O11 O 0.11957(16) 0.71731(7) 0.89525(11)
O12 O 0.15844(13) 0.57679(6) 0.83664(9)
C33 C 0.3336(2) 0.79783(9) 0.58966(16)
C34 C 0.2878(3) 0.77750(10) 0.46298(17)
C35 C 0.1870(3) 0.82313(11) 0.6170(2)
C36 C 0.4615(3) 0.84909(11) 0.6078(2)
H39 H 0.4954 0.7248 0.6428
H40 H 0.0927 0.5898 0.6199
H41 H 0.2474 0.5467 0.6320
H42 H 0.3716 0.5811 0.8125
H43 H 0.4075 0.7042 0.9469
H44 H 0.5191 0.6640 0.8903
H45 H -0.2153 0.7098 0.6413
H46 H -0.1343 0.7679 0.7200
H47 H -0.1667 0.7046 0.7751
H48 H 0.2481 0.8120 0.4148
H49 H 0.3794 0.7610 0.4457
H50 H 0.2032 0.7477 0.4475
H51 H 0.1500 0.8590 0.5680
H52 H 0.2179 0.8349 0.6995
H53 H 0.1032 0.7908 0.6012
H54 H 0.4229 0.8809 0.5517
H55 H 0.4821 0.8678 0.6856
H56 H 0.5575 0.8319 0.5988
H57 H 0.2101 0.5715 0.9037
loop_
_geom_bond_atom_site_label_1
_geom_bond_atom_site_label_2
_geom_bond_site_symmetry_1
_geom_bond_site_symmetry_2
S1 C1 1_555 1_555
C1 N1 1_555 1_555
N1 C2 1_555 1_555
C2 O1 1_555 1_555
C3 C2 1_555 1_555
C4 C3 1_555 1_555
C5 N1 1_555 1_555
C6 S1 1_555 1_555
C7 C5 1_555 1_555
O2 C7 1_555 1_555
C8 O2 1_555 1_555
O3 C7 1_555 1_555
O4 C4 1_555 1_555
C9 C1 1_555 1_555
C10 C9 1_555 1_555
C11 C9 1_555 1_555
C12 C9 1_555 1_555
H1 C1 1_555 1_555
H2 C3 1_555 1_555
H3 C3 1_555 1_555
H4 C4 1_555 1_555
H5 C6 1_555 1_555
H6 C6 1_555 1_555
H7 C8 1_555 1_555
H8 C8 1_555 1_555
H9 C8 1_555 1_555
H10 C10 1_555 1_555
H11 C10 1_555 1_555
H12 C10 1_555 1_555
H13 C11 1_555 1_555
H14 C11 1_555 1_555
H15 C11 1_555 1_555
H16 C12 1_555 1_555
H17 C12 1_555 1_555
H18 C12 1_555 1_555
H19 O4 1_555 1_555
S2 C13 1_555 1_555
C13 N2 1_555 1_555
N2 C14 1_555 1_555
C14 C15 1_555 1_555
C15 S2 1_555 1_555
C16 C14 1_555 1_555
O5 C16 1_555 1_555
C17 C16 1_555 1_555
C18 N2 1_555 1_555
O6 C18 1_555 1_555
C19 C14 1_555 1_555
O7 C19 1_555 1_555
C20 O7 1_555 1_555
O8 C19 1_555 1_555
C21 C13 1_555 1_555
C22 C21 1_555 1_555
C23 C21 1_555 1_555
C24 C21 1_555 1_555
H20 C13 1_555 1_555
H21 C15 1_555 1_555
H22 C15 1_555 1_555
H23 C16 1_555 1_555
H24 C17 1_555 1_555
H25 C17 1_555 1_555
H26 C20 1_555 1_555
H27 C20 1_555 1_555
H28 C20 1_555 1_555
H29 C22 1_555 1_555
H30 C22 1_555 1_555
H31 C22 1_555 1_555
H32 C23 1_555 1_555
H33 C23 1_555 1_555
H34 C23 1_555 1_555
H35 C24 1_555 1_555
H36 C24 1_555 1_555
H37 C24 1_555 1_555
H38 O5 1_555 1_555
S3 C25 1_555 1_555
C25 N3 1_555 1_555
N3 C26 1_555 1_555
C26 O9 1_555 1_555
C27 C26 1_555 1_555
C28 C27 1_555 1_555
C29 N3 1_555 1_555
C30 S3 1_555 1_555
C31 C29 1_555 1_555
O10 C31 1_555 1_555
C32 O10 1_555 1_555
O11 C31 1_555 1_555
O12 C28 1_555 1_555
C33 C25 1_555 1_555
C34 C33 1_555 1_555
C35 C33 1_555 1_555
C36 C33 1_555 1_555
H39 C25 1_555 1_555
H40 C27 1_555 1_555
H41 C27 1_555 1_555
H42 C28 1_555 1_555
H43 C30 1_555 1_555
H44 C30 1_555 1_555
H45 C32 1_555 1_555
H46 C32 1_555 1_555
H47 C32 1_555 1_555
H48 C34 1_555 1_555
H49 C34 1_555 1_555
H50 C34 1_555 1_555
H51 C35 1_555 1_555
H52 C35 1_555 1_555
H53 C35 1_555 1_555
H54 C36 1_555 1_555
H55 C36 1_555 1_555
H56 C36 1_555 1_555
H57 O12 1_555 1_555
C4 C5 1_555 1_555
C5 C6 1_555 1_555
C17 C18 1_555 1_555
C28 C29 1_555 1_555
C29 C30 1_555 1_555

#END
