
#######################################################################
#
#                 Cambridge Crystallographic Data Centre
#                                CCDC 
#
#######################################################################
#
# If this CIF has been generated from an entry in the Cambridge 
# Structural Database, then it will include bibliographic, chemical, 
# crystal, experimental, refinement or atomic coordinate data resulting 
# from the CCDC's data processing and validation procedures.
#
#######################################################################

data_ALAJIG
_chemical_formula_moiety         'C20 H24 N2 O7'
_chemical_name_systematic        
1,2:4,5-Di-O-isopropylidene-3-C-(5-phenyl-1,2,4-oxadiazol-3-yl)-\b-D-psicopyranose
_symmetry_cell_setting           orthorhombic
_symmetry_space_group_name_H-M   'P 21 21 21'
_symmetry_Int_Tables_number      19
_space_group_name_Hall           'P 2ac 2ab'
loop_
_symmetry_equiv_pos_site_id
_symmetry_equiv_pos_as_xyz
1 x,y,z
2 1/2-x,-y,1/2+z
3 1/2+x,1/2-y,-z
4 -x,1/2+y,1/2-z
_cell_length_a                   10.3090(10)
_cell_length_b                   10.4740(10)
_cell_length_c                   18.646(3)
_cell_angle_alpha                90
_cell_angle_beta                 90
_cell_angle_gamma                90
_cell_volume                     2013.33
_exptl_crystal_colour            colorless
_chemical_melting_point          116-117deg.C
_cell_formula_units_Z            4
loop_
_atom_site_label
_atom_site_type_symbol
_atom_site_fract_x
_atom_site_fract_y
_atom_site_fract_z
O1 O 0.43106(15) 0.13850(14) 0.06380(8)
O2 O 0.11891(15) 0.20360(14) 0.02872(8)
O3 O 0.23317(14) 0.14501(14) 0.12617(8)
O4 O 0.45264(14) 0.40175(13) 0.08020(7)
H1 H 0.4965 0.3529 0.0558
O5 O 0.51687(14) 0.38035(14) 0.22484(8)
O6 O 0.64714(14) 0.24522(15) 0.16197(8)
O7 O 0.10225(16) 0.51034(17) 0.19743(8)
N1 N 0.20607(19) 0.4232(2) 0.20587(10)
N2 N 0.19860(16) 0.49461(17) 0.09264(9)
C1 C 0.2480(2) 0.2403(2) 0.01357(12)
H2 H 0.2527 0.3303 0.0016
C2 C 0.3212(2) 0.21227(19) 0.08284(11)
C3 C 0.36935(19) 0.33017(18) 0.12533(10)
C4 C 0.4373(2) 0.2835(2) 0.19430(11)
H4 H 0.3721 0.2561 0.2293
C5 C 0.5328(2) 0.1758(2) 0.18088(12)
H5 H 0.5480 0.1294 0.2258
C6 C 0.4974(2) 0.0830(2) 0.12331(13)
H6 H 0.5759 0.0424 0.1060
H7 H 0.4428 0.0171 0.1439
C7 C 0.2573(2) 0.4178(2) 0.14262(11)
C8 C 0.1059(2) 0.5475(2) 0.12872(11)
C9 C 0.0085(2) 0.6396(2) 0.10368(11)
C10 C 0.0650(2) 0.7115(2) 0.15092(12)
H8 H 0.0543 0.7010 0.2001
C11 C 0.1539(2) 0.7985(2) 0.12529(14)
H9 H 0.2034 0.8463 0.1571
C12 C 0.1693(2) 0.8144(2) 0.05278(15)
H10 H 0.2287 0.8738 0.0356
C13 C 0.0974(2) 0.7432(3) 0.00553(14)
C14 C 0.0089(2) 0.6553(2) 0.03076(12)
H12 H 0.0392 0.6065 0.0014
C15 C 0.1234(2) 0.1083(2) 0.08284(12)
C16 C 0.1461(2) 0.0218(2) 0.05032(14)
H13 H 0.2276 0.0222 0.0254
H14 H 0.0774 0.0410 0.0172
C17 C 0.0034(2) 0.1181(3) 0.12730(15)
H16 H 0.0086 0.0589 0.1665
H18 H 0.0046 0.2033 0.1457
C18 C 0.6508(2) 0.3502(2) 0.20988(14)
C19 C 0.7175(3) 0.3129(3) 0.27893(15)
H19 H 0.6724 0.2423 0.3003
H20 H 0.7169 0.3841 0.3114
H21 H 0.8055 0.2887 0.2690
C20 C 0.7151(3) 0.4612(3) 0.17393(18)
H22 H 0.8020 0.4382 0.1607
H23 H 0.7173 0.5325 0.2063
H24 H 0.6672 0.4841 0.1317
H3? H 0.2830 0.1909 0.0260
H11? H 0.1083 0.7542 0.0436
H15? H 0.1475 0.0849 0.0876
H17? H 0.0708 0.0983 0.0983
loop_
_geom_bond_atom_site_label_1
_geom_bond_atom_site_label_2
_geom_bond_site_symmetry_1
_geom_bond_site_symmetry_2
O1 C2 1_555 1_555
O2 C1 1_555 1_555
O3 C2 1_555 1_555
O4 H1 1_555 1_555
O5 C4 1_555 1_555
O6 C5 1_555 1_555
O7 N1 1_555 1_555
N1 C7 1_555 1_555
N2 C7 1_555 1_555
C1 H2 1_555 1_555
C2 C1 1_555 1_555
C3 O4 1_555 1_555
C4 C3 1_555 1_555
H4 C4 1_555 1_555
C5 C4 1_555 1_555
H5 C5 1_555 1_555
C6 O1 1_555 1_555
H6 C6 1_555 1_555
H7 C6 1_555 1_555
C7 C3 1_555 1_555
C8 O7 1_555 1_555
C9 C8 1_555 1_555
C10 C9 1_555 1_555
H8 C10 1_555 1_555
C11 C10 1_555 1_555
H9 C11 1_555 1_555
C12 C11 1_555 1_555
H10 C12 1_555 1_555
C13 C12 1_555 1_555
C14 C9 1_555 1_555
H12 C14 1_555 1_555
C15 O2 1_555 1_555
C16 C15 1_555 1_555
H13 C16 1_555 1_555
H14 C16 1_555 1_555
C17 C15 1_555 1_555
H16 C17 1_555 1_555
H18 C17 1_555 1_555
C18 O5 1_555 1_555
C19 C18 1_555 1_555
H19 C19 1_555 1_555
H20 C19 1_555 1_555
H21 C19 1_555 1_555
C20 C18 1_555 1_555
H22 C20 1_555 1_555
H23 C20 1_555 1_555
H24 C20 1_555 1_555
O3 C15 1_555 1_555
O6 C18 1_555 1_555
N2 C8 1_555 1_555
C2 C3 1_555 1_555
C5 C6 1_555 1_555
C13 C14 1_555 1_555

#END
