
#######################################################################
#
#                 Cambridge Crystallographic Data Centre
#                                CCDC 
#
#######################################################################
#
# If this CIF has been generated from an entry in the Cambridge 
# Structural Database, then it will include bibliographic, chemical, 
# crystal, experimental, refinement or atomic coordinate data resulting 
# from the CCDC's data processing and validation procedures.
#
#######################################################################

data_ALAQAG
_chemical_formula_moiety         'C16 H23 F1 N5 O6 P1'
_chemical_name_systematic        
(R~P~)-6-Ethoxy-9-(7-fluoro-2-isopropoxy-7-methyl-2-oxidotetrahydro-4H-furo[3,2-d][1,3,2]dioxaphosphinin-6-yl)-9H-purin-2-amine
_chemical_properties_biological  
'tested for anti-HCV NS5B polymerase inhibitory activity'
_symmetry_cell_setting           orthorhombic
_symmetry_space_group_name_H-M   'P 21 21 21'
_symmetry_Int_Tables_number      19
_space_group_name_Hall           'P 2ac 2ab'
loop_
_symmetry_equiv_pos_site_id
_symmetry_equiv_pos_as_xyz
1 x,y,z
2 1/2+x,1/2-y,-z
3 -x,1/2+y,1/2-z
4 1/2-x,-y,1/2+z
_cell_length_a                   11.3544(13)
_cell_length_b                   12.4153(14)
_cell_length_c                   14.1622(15)
_cell_angle_alpha                90
_cell_angle_beta                 90
_cell_angle_gamma                90
_cell_volume                     1996.42
_cell_formula_units_Z            4
loop_
_atom_site_label
_atom_site_type_symbol
_atom_site_fract_x
_atom_site_fract_y
_atom_site_fract_z
C1 C 0.2555(2) 0.83827(19) 0.78326(17)
C2 C 0.1938(2) 0.9120(2) 0.64894(17)
C3 C 0.2700(2) 1.0255(2) 0.76243(18)
C4 C 0.2878(2) 0.93680(19) 0.82096(17)
C5 C 0.3333(2) 0.82033(19) 0.92511(17)
H1 H 0.3610 0.7881 0.9801
C6 C 0.2826(3) 1.2144(2) 0.7297(2)
H2 H 0.2744 1.2798 0.7666
H3 H 0.2103 1.2039 0.6944
C7 C 0.3837(3) 1.2265(2) 0.6621(2)
H4 H 0.4558 1.2338 0.6970
H5 H 0.3718 1.2894 0.6239
H6 H 0.3881 1.1641 0.6223
C8 C 0.2857(2) 0.64618(18) 0.84428(17)
H7 H 0.3230 0.6174 0.9013
C9 C 0.1647(2) 0.59037(19) 0.83228(17)
C10 C 0.1676(2) 0.56883(18) 0.72778(16)
H8 H 0.1524 0.6364 0.6941
C11 C 0.3245(3) 0.5338(2) 0.6094(2)
H9 H 0.3123 0.6037 0.5803
H10 H 0.4058 0.5123 0.6002
C12 C 0.2940(2) 0.5370(2) 0.71253(17)
H11 H 0.3080 0.4660 0.7406
C13 C 0.0594(3) 0.6481(3) 0.8722(2)
H12 H -0.0097 0.6046 0.8635
H13 H 0.0494 0.7157 0.8403
H14 H 0.0714 0.6608 0.9384
C14 C -0.0316(3) 0.6077(3) 0.4951(2)
H15 H -0.0835 0.5450 0.4886
C15 C -0.0061(4) 0.6550(4) 0.4010(3)
H16 H 0.0552 0.7078 0.4069
H17 H -0.0760 0.6886 0.3766
H18 H 0.0189 0.5992 0.3586
C16 C -0.0817(4) 0.6858(4) 0.5660(4)
H19 H -0.0922 0.6500 0.6255
H20 H -0.1563 0.7120 0.5439
H21 H -0.0284 0.7452 0.5737
N1 N 0.28432(18) 0.76254(15) 0.85124(14)
N2 N 0.20704(19) 0.82043(16) 0.69836(14)
N3 N 0.22347(19) 1.01316(16) 0.67699(14)
N4 N 0.3370(2) 0.92399(17) 0.91070(15)
N5 N 0.1485(2) 0.90323(19) 0.56147(16)
H22 H 0.1295 0.8410 0.5396
H23 H 0.1386 0.9599 0.5274
O1 O 0.30100(19) 1.12352(13) 0.79270(13)
O2 O 0.08771(16) 0.48743(14) 0.69318(11)
O3 O 0.24398(19) 0.45382(16) 0.57040(13)
O4 O 0.35659(15) 0.61669(14) 0.76480(12)
O5 O 0.0411(2) 0.37249(17) 0.55075(14)
O6 O 0.0849(2) 0.57405(18) 0.53123(15)
F1 F 0.17654(15) 0.48997(12) 0.87802(10)
P1 P 0.10640(7) 0.46627(6) 0.58365(5)
loop_
_geom_bond_atom_site_label_1
_geom_bond_atom_site_label_2
_geom_bond_site_symmetry_1
_geom_bond_site_symmetry_2
C1 C4 1_555 1_555
C2 N2 1_555 1_555
C3 C4 1_555 1_555
C4 N4 1_555 1_555
C5 H1 1_555 1_555
C6 H2 1_555 1_555
H3 C6 1_555 1_555
C7 C6 1_555 1_555
H4 C7 1_555 1_555
H5 C7 1_555 1_555
H6 C7 1_555 1_555
C8 H7 1_555 1_555
C9 C8 1_555 1_555
C10 C9 1_555 1_555
H8 C10 1_555 1_555
C11 H9 1_555 1_555
H10 C11 1_555 1_555
C12 C10 1_555 1_555
H11 C12 1_555 1_555
C13 C9 1_555 1_555
H12 C13 1_555 1_555
H13 C13 1_555 1_555
H14 C13 1_555 1_555
C14 H15 1_555 1_555
C15 C14 1_555 1_555
H16 C15 1_555 1_555
H17 C15 1_555 1_555
H18 C15 1_555 1_555
C16 C14 1_555 1_555
H19 C16 1_555 1_555
H20 C16 1_555 1_555
H21 C16 1_555 1_555
N1 C1 1_555 1_555
N2 C1 1_555 1_555
N3 C2 1_555 1_555
N4 C5 1_555 1_555
N5 C2 1_555 1_555
H22 N5 1_555 1_555
H23 N5 1_555 1_555
O1 C3 1_555 1_555
O2 C10 1_555 1_555
O3 C11 1_555 1_555
O4 C8 1_555 1_555
O5 P1 1_555 1_555
O6 C14 1_555 1_555
F1 C9 1_555 1_555
P1 O2 1_555 1_555
C3 N3 1_555 1_555
C5 N1 1_555 1_555
C6 O1 1_555 1_555
C8 N1 1_555 1_555
C11 C12 1_555 1_555
C12 O4 1_555 1_555
O3 P1 1_555 1_555
O6 P1 1_555 1_555

#END
