
#######################################################################
#
#                 Cambridge Crystallographic Data Centre
#                                CCDC 
#
#######################################################################
#
# If this CIF has been generated from an entry in the Cambridge 
# Structural Database, then it will include bibliographic, chemical, 
# crystal, experimental, refinement or atomic coordinate data resulting 
# from the CCDC's data processing and validation procedures.
#
#######################################################################

data_ALAWAN
_chemical_formula_moiety         'C18 H15 N1'
_chemical_name_systematic        
7-methyl-3-phenyl-1,2-dihydrocyclobuta[c]quinoline
_symmetry_cell_setting           triclinic
_symmetry_space_group_name_H-M   'P -1'
_symmetry_Int_Tables_number      2
_space_group_name_Hall           '-P 1'
loop_
_symmetry_equiv_pos_site_id
_symmetry_equiv_pos_as_xyz
1 x,y,z
2 -x,-y,-z
_cell_length_a                   7.122(3)
_cell_length_b                   10.191(5)
_cell_length_c                   13.013(7)
_cell_angle_alpha                96.170(8)
_cell_angle_beta                 96.565(8)
_cell_angle_gamma                98.798(9)
_cell_volume                     919.712
_cell_formula_units_Z            2
loop_
_atom_site_label
_atom_site_type_symbol
_atom_site_fract_x
_atom_site_fract_y
_atom_site_fract_z
N1 N 0.255(3) 0.507(2) 0.9005(15)
C1 C 0.298(3) 0.558(3) 1.0106(17)
C2 C 0.185(3) 0.384(3) 0.854(2)
C3 C 0.259(4) 0.503(4) 1.187(3)
C4 C 0.166(4) 0.342(3) 0.742(2)
C5 C 0.356(3) 0.690(3) 1.026(3)
C6 C 0.237(4) 0.447(6) 1.081(2)
C7 C 0.169(4) 0.314(4) 1.041(2)
C8 C 0.329(4) 0.639(3) 1.217(3)
C9 C 0.148(3) 0.285(2) 0.9274(19)
C10 C 0.360(3) 0.721(3) 1.1523(18)
C11 C 0.350(5) 0.713(4) 1.336(3)
C12 C 0.181(6) 0.430(5) 0.672(3)
C13 C 0.131(4) 0.198(4) 0.708(3)
C14 C 0.106(6) 0.147(3) 0.937(3)
C15 C 0.090(7) 0.249(5) 0.534(3)
C16 C 0.121(6) 0.181(6) 0.580(3)
C17 C 0.145(5) 0.391(5) 0.569(2)
C18 C 0.119(6) 0.171(4) 1.082(3)
loop_
_geom_bond_atom_site_label_1
_geom_bond_atom_site_label_2
_geom_bond_site_symmetry_1
_geom_bond_site_symmetry_2
N1 C1 1_555 1_555
C1 C5 1_555 1_555
C2 N1 1_555 1_555
C3 C6 1_555 1_555
C4 C2 1_555 1_555
C5 C10 1_555 1_555
C6 C1 1_555 1_555
C7 C6 1_555 1_555
C8 C3 1_555 1_555
C9 C2 1_555 1_555
C10 C8 1_555 1_555
C11 C8 1_555 1_555
C12 C4 1_555 1_555
C13 C4 1_555 1_555
C14 C9 1_555 1_555
C15 C16 1_555 1_555
C16 C13 1_555 1_555
C17 C12 1_555 1_555
C18 C7 1_555 1_555
C7 C9 1_555 1_555
C14 C18 1_555 1_555
C15 C17 1_555 1_555

#END
