
#######################################################################
#
#                 Cambridge Crystallographic Data Centre
#                                CCDC 
#
#######################################################################
#
# If this CIF has been generated from an entry in the Cambridge 
# Structural Database, then it will include bibliographic, chemical, 
# crystal, experimental, refinement or atomic coordinate data resulting 
# from the CCDC's data processing and validation procedures.
#
#######################################################################

data_ALEBUQ
_chemical_formula_moiety         'C11 H11 N1 O2 S1'
_chemical_name_systematic        
1-(Prop-2-yn-1-yl)-4,6,7,8-tetrahydro-2H-3,1-benzothiazine-2,5(1H)-dione
_symmetry_cell_setting           orthorhombic
_symmetry_space_group_name_H-M   'P 21 21 21'
_symmetry_Int_Tables_number      19
_space_group_name_Hall           'P 2ac 2ab'
loop_
_symmetry_equiv_pos_site_id
_symmetry_equiv_pos_as_xyz
1 x,y,z
2 1/2-x,-y,1/2+z
3 1/2+x,1/2-y,-z
4 -x,1/2+y,1/2-z
_cell_length_a                   5.189(4)
_cell_length_b                   8.661(6)
_cell_length_c                   23.498(17)
_cell_angle_alpha                90
_cell_angle_beta                 90
_cell_angle_gamma                90
_cell_volume                     1056.05
_exptl_crystal_colour            colorless
_exptl_crystal_description       prism
_cell_formula_units_Z            4
loop_
_atom_site_label
_atom_site_type_symbol
_atom_site_fract_x
_atom_site_fract_y
_atom_site_fract_z
C1 C 0.1739(5) 0.4572(3) 0.05449(12)
C2 C 0.4759(5) 0.2178(3) 0.08907(13)
H1 H 0.4857 0.1136 0.1041
H2 H 0.5921 0.2250 0.0568
C3 C 0.5566(5) 0.3302(3) 0.13393(10)
C4 C 0.6908(7) 0.2704(3) 0.18407(12)
C5 C 0.7712(15) 0.3845(5) 0.22752(19)
H3 H 0.6628 0.3696 0.2607
H4 H 0.9460 0.3593 0.2388
C6 C 0.7657(15) 0.5377(5) 0.2142(3)
H5 H 0.9414 0.5672 0.2052
H6 H 0.7198 0.5922 0.2488
C7 C 0.6048(7) 0.6001(4) 0.16939(13)
H7 H 0.7007 0.6796 0.1495
H8 H 0.4555 0.6488 0.1866
C8 C 0.5138(5) 0.4830(3) 0.12690(10)
C9 C 0.3947(6) 0.7010(3) 0.06239(13)
H9 H 0.5683 0.7370 0.0701
H10 H 0.3669 0.7070 0.0216
C10 C 0.2112(7) 0.8035(3) 0.09099(15)
C11 C 0.06608(12) 0.88762(7) 0.11537(3)
H11 H -0.0469 0.9531 0.1343
N1 N 0.37345(12) 0.53773(7) 0.08041(3)
O1 O 0.01508(12) 0.52022(7) 0.02488(3)
O2 O 0.73471(12) 0.13237(7) 0.18962(3)
S1 S 0.15260(12) 0.25704(7) 0.06614(3)
loop_
_geom_bond_atom_site_label_1
_geom_bond_atom_site_label_2
_geom_bond_site_symmetry_1
_geom_bond_site_symmetry_2
C1 N1 1_555 1_555
C2 H1 1_555 1_555
H2 C2 1_555 1_555
C3 C2 1_555 1_555
C4 C3 1_555 1_555
C5 C4 1_555 1_555
H3 C5 1_555 1_555
H4 C5 1_555 1_555
C6 C5 1_555 1_555
H5 C6 1_555 1_555
H6 C6 1_555 1_555
C7 C6 1_555 1_555
H7 C7 1_555 1_555
H8 C7 1_555 1_555
C8 C3 1_555 1_555
C9 H9 1_555 1_555
H10 C9 1_555 1_555
C10 C9 1_555 1_555
C11 C10 1_555 1_555
H11 C11 1_555 1_555
N1 C8 1_555 1_555
O1 C1 1_555 1_555
O2 C4 1_555 1_555
S1 C1 1_555 1_555
C2 S1 1_555 1_555
C7 C8 1_555 1_555
C9 N1 1_555 1_555

#END
