
#######################################################################
#
#                 Cambridge Crystallographic Data Centre
#                                CCDC 
#
#######################################################################
#
# If this CIF has been generated from an entry in the Cambridge 
# Structural Database, then it will include bibliographic, chemical, 
# crystal, experimental, refinement or atomic coordinate data resulting 
# from the CCDC's data processing and validation procedures.
#
#######################################################################

data_ALESIT
_chemical_formula_moiety         'C22 H16 F6 S2'
_chemical_name_systematic        
1-(2,5-Dimethyl-3-thienyl)-2-(3-methyl-5-phenyl-2-thienyl)perfluorocyclopentene
_symmetry_cell_setting           triclinic
_symmetry_space_group_name_H-M   'P -1'
_symmetry_Int_Tables_number      2
_space_group_name_Hall           '-P 1'
loop_
_symmetry_equiv_pos_site_id
_symmetry_equiv_pos_as_xyz
1 x,y,z
2 -x,-y,-z
_cell_length_a                   8.640(5)
_cell_length_b                   11.444(5)
_cell_length_c                   11.945(3)
_cell_angle_alpha                103.79(3)
_cell_angle_beta                 96.08(3)
_cell_angle_gamma                111.55(3)
_cell_volume                     1042.09
_exptl_crystal_colour            yellow
_exptl_crystal_description       prism
_chemical_melting_point          356K
_cell_formula_units_Z            2
_chemical_properties_physical    light-sensitive
_exptl_crystal_recrystallization_method hexane
_exptl_crystal_preparation       photochromic
loop_
_atom_site_label
_atom_site_type_symbol
_atom_site_fract_x
_atom_site_fract_y
_atom_site_fract_z
S1 S 0.31571(11) 0.27312(8) 0.00075(7)
S2 S 0.40768(13) 0.27364(10) 0.52349(7)
F1 F 0.1702(3) 0.48540(19) 0.08674(18)
F2 F -0.0483(3) 0.3021(2) -0.00114(15)
F3 F -0.2173(3) 0.3367(3) 0.15447(19)
F4 F -0.0523(3) 0.5426(2) 0.18725(19)
F5 F -0.0981(3) 0.3835(2) 0.36982(18)
F6 F 0.1294(3) 0.5510(2) 0.37489(18)
C1 C 0.1302(4) 0.3104(3) 0.1699(2)
C2 C 0.1209(4) 0.3405(3) 0.2848(2)
C3 C 0.0245(4) 0.4258(3) 0.3093(3)
C4 C -0.0543(4) 0.4261(3) 0.1880(3)
C5 C 0.0499(4) 0.3792(3) 0.1059(3)
C6 C 0.2026(4) 0.2256(3) 0.1061(2)
C7 C 0.1902(4) 0.1037(3) 0.1110(2)
C8 C 0.2713(4) 0.0503(3) 0.0287(3)
H1 H 0.2738 -0.0319 0.0201
C9 C 0.3453(4) 0.1292(3) -0.0367(2)
C10 C 0.4284(4) 0.1020(3) -0.1356(3)
C11 C 0.5605(4) 0.2020(3) -0.1580(3)
H2 H 0.6023 0.2874 -0.1074
C12 C 0.6304(5) 0.1753(4) -0.2552(3)
H3 H 0.7185 0.2429 -0.2696
C13 C 0.5697(5) 0.0492(4) -0.3305(3)
H4 H 0.6164 0.0317 -0.3960
C14 C 0.4399(5) -0.0513(4) -0.3091(3)
H5 H 0.3995 -0.1365 -0.3600
C15 C 0.3695(4) -0.0260(3) -0.2124(3)
H6 H 0.2824 -0.0944 -0.1982
C16 C 0.0964(4) 0.0296(3) 0.1887(3)
H7 H 0.0509 0.0826 0.2378
H8 H 0.1735 0.0100 0.2373
H9 H 0.0050 -0.0509 0.1404
C17 C 0.3651(4) 0.3244(3) 0.4032(3)
C18 C 0.1990(4) 0.3082(3) 0.3820(2)
C19 C 0.1078(4) 0.2570(3) 0.4652(3)
H10 H -0.0058 0.2425 0.4636
C20 C 0.2025(5) 0.2318(4) 0.5461(3)
C21 C 0.5035(4) 0.3775(4) 0.3404(3)
H11 H 0.4593 0.4010 0.2760
H12 H 0.5449 0.3115 0.3105
H13 H 0.5951 0.4540 0.3943
C22 C 0.1485(7) 0.1750(5) 0.6446(4)
H14 H 0.0308 0.1580 0.6433
H15 H 0.2171 0.2366 0.7191
H16 H 0.1632 0.0942 0.6341
loop_
_geom_bond_atom_site_label_1
_geom_bond_atom_site_label_2
_geom_bond_site_symmetry_1
_geom_bond_site_symmetry_2
S1 C6 1_555 1_555
S2 C17 1_555 1_555
F1 C5 1_555 1_555
F2 C5 1_555 1_555
F3 C4 1_555 1_555
F4 C4 1_555 1_555
F5 C3 1_555 1_555
F6 C3 1_555 1_555
C1 C2 1_555 1_555
C2 C3 1_555 1_555
C3 C4 1_555 1_555
C4 C5 1_555 1_555
C5 C1 1_555 1_555
C6 C1 1_555 1_555
C7 C6 1_555 1_555
C8 C7 1_555 1_555
H1 C8 1_555 1_555
C9 S1 1_555 1_555
C10 C9 1_555 1_555
C11 C10 1_555 1_555
H2 C11 1_555 1_555
C12 C11 1_555 1_555
H3 C12 1_555 1_555
C13 C12 1_555 1_555
H4 C13 1_555 1_555
C14 C13 1_555 1_555
H5 C14 1_555 1_555
C15 C10 1_555 1_555
H6 C15 1_555 1_555
C16 C7 1_555 1_555
H7 C16 1_555 1_555
H8 C16 1_555 1_555
H9 C16 1_555 1_555
C17 C18 1_555 1_555
C18 C2 1_555 1_555
C19 C18 1_555 1_555
H10 C19 1_555 1_555
C20 S2 1_555 1_555
C21 C17 1_555 1_555
H11 C21 1_555 1_555
H12 C21 1_555 1_555
H13 C21 1_555 1_555
C22 C20 1_555 1_555
H14 C22 1_555 1_555
H15 C22 1_555 1_555
H16 C22 1_555 1_555
C8 C9 1_555 1_555
C14 C15 1_555 1_555
C19 C20 1_555 1_555

#END
