
#######################################################################
#
#                 Cambridge Crystallographic Data Centre
#                                CCDC 
#
#######################################################################
#
# If this CIF has been generated from an entry in the Cambridge 
# Structural Database, then it will include bibliographic, chemical, 
# crystal, experimental, refinement or atomic coordinate data resulting 
# from the CCDC's data processing and validation procedures.
#
#######################################################################

data_ALOCEJ
_chemical_name_common            
1-(Dimethylsulfoxide-O)-1-boratricyclo[4.3.1.1$4,8!]undecane
_chemical_formula_moiety         'C12 H23 B1 O1 S1'
_chemical_name_systematic        1-(Dimethylsulfoxide-O)-1-borahomoadamantane
_symmetry_cell_setting           monoclinic
_symmetry_space_group_name_H-M   'P 21/c'
_symmetry_Int_Tables_number      14
_space_group_name_Hall           '-P 2ybc'
loop_
_symmetry_equiv_pos_site_id
_symmetry_equiv_pos_as_xyz
1 x,y,z
2 x,1/2-y,1/2+z
3 -x,-y,-z
4 -x,1/2+y,1/2-z
_cell_length_a                   16.105(2)
_cell_length_b                   12.5800(16)
_cell_length_c                   13.6124(17)
_cell_angle_alpha                90
_cell_angle_beta                 114.530(2)
_cell_angle_gamma                90
_cell_volume                     2508.97
_exptl_crystal_colour            colorless
_exptl_crystal_description       irregular
_chemical_melting_point          73-75deg.C
_cell_formula_units_Z            8
_exptl_crystal_recrystallization_method sublimation
loop_
_atom_site_label
_atom_site_type_symbol
_atom_site_fract_x
_atom_site_fract_y
_atom_site_fract_z
S1 S 0.18056(3) 0.41257(4) 0.35469(4)
O1 O 0.15603(9) 0.29881(10) 0.30952(11)
B1 B 0.06607(15) 0.28561(18) 0.19122(18)
C1 C 0.05248(14) 0.15829(16) 0.18049(18)
C2 C -0.01941(14) 0.34276(17) 0.20237(18)
C3 C 0.09746(14) 0.33918(18) 0.10471(17)
C4 C 0.02942(15) 0.33281(19) -0.01486(18)
C5 C -0.06348(14) 0.27814(17) -0.04386(17)
C6 C -0.05752(15) 0.15848(17) -0.01991(18)
C7 C -0.04223(13) 0.12807(16) 0.09514(17)
C8 C -0.11594(14) 0.18102(17) 0.12189(19)
C9 C -0.11053(14) 0.30226(17) 0.11554(17)
C10 C -0.12512(15) 0.33447(18) 0.00154(18)
C11 C 0.21260(17) 0.3949(2) 0.49518(19)
C12 C 0.29098(18) 0.4351(2) 0.3581(3)
H1 H 0.0979(14) 0.1219(16) 0.1636(17)
H2 H 0.0564(14) 0.1282(16) 0.2509(17)
H3 H -0.0207(13) 0.3284(16) 0.2706(17)
H4 H -0.0167(15) 0.4198(19) 0.2015(18)
H5 H 0.1120(14) 0.4141(18) 0.1235(17)
H6 H 0.1563(15) 0.3038(17) 0.1131(17)
H7 H 0.0142(16) 0.4038(19) -0.043(2)
H8 H 0.0592(15) 0.2967(18) -0.0560(18)
H9 H -0.0924(14) 0.2853(16) -0.1218(18)
H10 H -0.0112(16) 0.1248(18) -0.0371(18)
H11 H -0.1155(15) 0.1251(17) -0.0691(18)
H12 H -0.0470(13) 0.0543(16) 0.0991(16)
H13 H -0.1093(13) 0.1606(16) 0.1934(17)
H14 H -0.1766(15) 0.1596(17) 0.0697(17)
H15 H -0.1621(15) 0.3293(17) 0.1276(17)
H16 H -0.1882(17) 0.3194(18) -0.0452(19)
H17 H -0.1168(13) 0.4095(16) -0.0002(16)
H18 H 0.1607(19) 0.375(2) 0.503(2)
H19 H 0.2351(17) 0.463(2) 0.529(2)
H20 H 0.2563(17) 0.3404(19) 0.5214(19)
H21 H 0.3257(19) 0.378(2) 0.395(2)
H22 H 0.3087(18) 0.503(2) 0.393(2)
H23 H 0.2809(17) 0.439(2) 0.285(2)
S2 S 0.34460(3) 0.09001(4) 0.45341(4)
O2 O 0.37420(9) 0.20252(10) 0.50126(11)
B2 B 0.46229(14) 0.21015(17) 0.61962(18)
C13 C 0.54460(14) 0.14224(17) 0.61180(18)
C14 C 0.48594(14) 0.33540(16) 0.63127(17)
C15 C 0.42526(14) 0.16386(18) 0.70453(17)
C16 C 0.49198(15) 0.16513(19) 0.82470(17)
C17 C 0.58858(14) 0.21015(17) 0.85675(17)
C18 C 0.64739(15) 0.14489(18) 0.81388(18)
C19 C 0.63760(14) 0.17397(16) 0.70059(17)
C20 C 0.65267(14) 0.29355(17) 0.69553(19)
C21 C 0.58185(13) 0.35671(16) 0.71923(17)
C22 C 0.59131(15) 0.32913(17) 0.83296(17)
C23 C 0.23478(16) 0.0726(2) 0.4527(2)
C24 C 0.31128(17) 0.11253(19) 0.31322(19)
H24 H 0.5449(15) 0.1516(18) 0.5401(19)
H25 H 0.5367(14) 0.0674(18) 0.6175(17)
H26 H 0.4406(16) 0.3779(18) 0.6432(19)
H27 H 0.4866(16) 0.3641(18) 0.565(2)
H28 H 0.4061(15) 0.0918(19) 0.6834(18)
H29 H 0.3702(16) 0.2025(19) 0.6953(19)
H30 H 0.4658(14) 0.2053(16) 0.8689(17)
H31 H 0.4977(15) 0.0928(19) 0.8543(18)
H32 H 0.6153(14) 0.2012(16) 0.9337(18)
H33 H 0.7091(16) 0.1566(17) 0.8606(17)
H34 H 0.6367(14) 0.0705(18) 0.8159(17)
H35 H 0.6867(14) 0.1370(16) 0.6895(16)
H36 H 0.6498(15) 0.3083(18) 0.6238(19)
H37 H 0.7154(15) 0.3114(17) 0.7490(18)
H38 H 0.5930(14) 0.4290(17) 0.7160(16)
H39 H 0.6502(16) 0.3574(18) 0.8839(19)
H40 H 0.5447(16) 0.3663(19) 0.8484(19)
H41 H 0.2006(17) 0.136(2) 0.424(2)
H42 H 0.2089(16) 0.010(2) 0.416(2)
H43 H 0.2444(15) 0.0677(18) 0.526(2)
H44 H 0.3656(19) 0.1241(19) 0.304(2)
H45 H 0.2840(16) 0.047(2) 0.277(2)
H46 H 0.2718(16) 0.169(2) 0.2933(19)
loop_
_geom_bond_atom_site_label_1
_geom_bond_atom_site_label_2
_geom_bond_site_symmetry_1
_geom_bond_site_symmetry_2
S1 O1 1_555 1_555
O1 B1 1_555 1_555
B1 C1 1_555 1_555
C1 C7 1_555 1_555
C2 B1 1_555 1_555
C3 B1 1_555 1_555
C4 C3 1_555 1_555
C5 C4 1_555 1_555
C6 C5 1_555 1_555
C7 C6 1_555 1_555
C8 C7 1_555 1_555
C9 C2 1_555 1_555
C10 C5 1_555 1_555
C11 S1 1_555 1_555
C12 S1 1_555 1_555
H1 C1 1_555 1_555
H2 C1 1_555 1_555
H3 C2 1_555 1_555
H4 C2 1_555 1_555
H5 C3 1_555 1_555
H6 C3 1_555 1_555
H7 C4 1_555 1_555
H8 C4 1_555 1_555
H9 C5 1_555 1_555
H10 C6 1_555 1_555
H11 C6 1_555 1_555
H12 C7 1_555 1_555
H13 C8 1_555 1_555
H14 C8 1_555 1_555
H15 C9 1_555 1_555
H16 C10 1_555 1_555
H17 C10 1_555 1_555
H18 C11 1_555 1_555
H19 C11 1_555 1_555
H20 C11 1_555 1_555
H21 C12 1_555 1_555
H22 C12 1_555 1_555
H23 C12 1_555 1_555
S2 O2 1_555 1_555
O2 B2 1_555 1_555
B2 C13 1_555 1_555
C13 C19 1_555 1_555
C14 B2 1_555 1_555
C15 B2 1_555 1_555
C16 C15 1_555 1_555
C17 C16 1_555 1_555
C18 C17 1_555 1_555
C19 C18 1_555 1_555
C20 C19 1_555 1_555
C21 C14 1_555 1_555
C22 C17 1_555 1_555
C23 S2 1_555 1_555
C24 S2 1_555 1_555
H24 C13 1_555 1_555
H25 C13 1_555 1_555
H26 C14 1_555 1_555
H27 C14 1_555 1_555
H28 C15 1_555 1_555
H29 C15 1_555 1_555
H30 C16 1_555 1_555
H31 C16 1_555 1_555
H32 C17 1_555 1_555
H33 C18 1_555 1_555
H34 C18 1_555 1_555
H35 C19 1_555 1_555
H36 C20 1_555 1_555
H37 C20 1_555 1_555
H38 C21 1_555 1_555
H39 C22 1_555 1_555
H40 C22 1_555 1_555
H41 C23 1_555 1_555
H42 C23 1_555 1_555
H43 C23 1_555 1_555
H44 C24 1_555 1_555
H45 C24 1_555 1_555
H46 C24 1_555 1_555
C8 C9 1_555 1_555
C9 C10 1_555 1_555
C20 C21 1_555 1_555
C21 C22 1_555 1_555

#END
