
#######################################################################
#
#                 Cambridge Crystallographic Data Centre
#                                CCDC 
#
#######################################################################
#
# If this CIF has been generated from an entry in the Cambridge 
# Structural Database, then it will include bibliographic, chemical, 
# crystal, experimental, refinement or atomic coordinate data resulting 
# from the CCDC's data processing and validation procedures.
#
#######################################################################

data_ALORID
_chemical_formula_moiety         'C28 H22 Mg1 N2 O10,C12 H8 N2'
_chemical_name_systematic        
'Diaqua-bis(isophthalato-O)-(1,10-phenanthroline)-magnesium(ii) 1,10-phenanthroline solvate'
_symmetry_cell_setting           monoclinic
_symmetry_space_group_name_H-M   'C 2'
_symmetry_Int_Tables_number      5
_space_group_name_Hall           'C 2y'
loop_
_symmetry_equiv_pos_site_id
_symmetry_equiv_pos_as_xyz
1 x,y,z
2 -x,y,-z
3 1/2+x,1/2+y,z
4 1/2-x,1/2+y,-z
_cell_length_a                   24.5856(16)
_cell_length_b                   10.1598(6)
_cell_length_c                   7.1460(4)
_cell_angle_alpha                90
_cell_angle_beta                 105.226(2)
_cell_angle_gamma                90
_cell_volume                     1722.31
_exptl_crystal_colour            colorless
_exptl_crystal_description       block
_cell_formula_units_Z            2
loop_
_atom_site_label
_atom_site_type_symbol
_atom_site_fract_x
_atom_site_fract_y
_atom_site_fract_z
Mg1 Mg 0.0000 0.35983(11) 0.5000
O1 O 0.06665(7) 0.23271(17) 0.5916(3)
O2 O 0.11080(7) 0.21772(18) 0.3563(2)
O3 O 0.30668(8) -0.1792(2) 0.7507(3)
H1 H 0.3312(17) -0.218(4) 0.694(6)
O4 O 0.27342(8) -0.0905(2) 0.4561(3)
O5 O -0.01483(7) 0.3632(2) 0.7713(2)
H2 H -0.0446 0.3215 0.7682
H3 H -0.016(3) 0.462(7) 0.850(8)
N1 N 0.05504(8) 0.5328(2) 0.6001(3)
C1 C 0.10865(11) 0.5326(3) 0.7004(4)
H4 H 0.1271 0.4503 0.7326
C2 C 0.13952(11) 0.6477(3) 0.7611(4)
H5 H 0.1780 0.6430 0.8323
C3 C 0.11352(10) 0.7668(3) 0.7166(4)
H6 H 0.1337 0.8459 0.7579
C4 C 0.05670(10) 0.7718(2) 0.6095(3)
C5 C 0.02911(9) 0.6510(2) 0.5541(3)
C6 C 0.02711(10) 0.8922(2) 0.5531(4)
H7 H 0.0458 0.9736 0.5908
C7 C 0.10718(10) 0.1986(2) 0.5280(4)
C8 C 0.15460(10) 0.1242(2) 0.6639(3)
C9 C 0.19322(10) 0.0549(2) 0.5915(4)
H8 H 0.1915 0.0604 0.4574
C10 C 0.23457(10) -0.0226(2) 0.7129(4)
C11 C 0.23869(10) -0.0258(3) 0.9104(4)
H9 H 0.2667 -0.0785 0.9944
C12 C 0.20154(11) 0.0488(3) 0.9847(4)
H10 H 0.2053 0.0497 1.1205
C13 C 0.15910(10) 0.1217(3) 0.8620(4)
H11 H 0.1332 0.1698 0.9132
C14 C 0.27286(10) -0.1001(2) 0.6236(4)
O1A O -0.06665(7) 0.23271(17) 0.4084(3)
O2A O -0.11080(7) 0.21772(18) 0.6437(2)
O3A O -0.30668(8) -0.1792(2) 0.2493(3)
H1A H -0.3312(17) -0.218(4) 0.306(6)
O4A O -0.27342(8) -0.0905(2) 0.5439(3)
O5A O 0.01483(7) 0.3632(2) 0.2287(2)
H2A H 0.0446 0.3215 0.2318
H3A H 0.016(3) 0.462(7) 0.150(8)
N1A N -0.05504(8) 0.5328(2) 0.3999(3)
C1A C -0.10865(11) 0.5326(3) 0.2996(4)
H4A H -0.1271 0.4503 0.2674
C2A C -0.13952(11) 0.6477(3) 0.2389(4)
H5A H -0.1780 0.6430 0.1677
C3A C -0.11352(10) 0.7668(3) 0.2834(4)
H6A H -0.1337 0.8459 0.2421
C4A C -0.05670(10) 0.7718(2) 0.3905(3)
C5A C -0.02911(9) 0.6510(2) 0.4459(3)
C6A C -0.02711(10) 0.8922(2) 0.4469(4)
H7A H -0.0458 0.9736 0.4092
C7A C -0.10718(10) 0.1986(2) 0.4720(4)
C8A C -0.15460(10) 0.1242(2) 0.3361(3)
C9A C -0.19322(10) 0.0549(2) 0.4085(4)
H8A H -0.1915 0.0604 0.5426
C10A C -0.23457(10) -0.0226(2) 0.2871(4)
C11A C -0.23869(10) -0.0258(3) 0.0896(4)
H9A H -0.2667 -0.0785 0.0056
C12A C -0.20154(11) 0.0488(3) 0.0153(4)
H10A H -0.2053 0.0497 -0.1205
C13A C -0.15910(10) 0.1217(3) 0.1380(4)
H11A H -0.1332 0.1698 0.0868
C14A C -0.27286(10) -0.1001(2) 0.3764(4)
N2 N 0.94543(9) 0.6104(2) 0.8894(3)
C15 C 0.89172(13) 0.6129(5) 0.7902(5)
H12 H 0.8734 0.5314 0.7505
C16 C 0.8609(2) 0.7274(9) 0.7414(7)
H13 H 0.8222 0.7240 0.6723
C17 C 0.8860(3) 0.8418(7) 0.7922(7)
H14 H 0.8653 0.9210 0.7577
C18 C 0.9429(2) 0.8478(4) 0.8963(5)
C19 C 0.9739(3) 0.9679(4) 0.9502(5)
H15 H 0.9556 1.0496 0.9114
C20 C 0.97091(12) 0.7273(3) 0.9444(4)
N2A N 1.05457(9) 0.6104(2) 1.1106(3)
C15A C 1.10828(13) 0.6129(5) 1.2098(5)
H12A H 1.1266 0.5314 1.2495
C16A C 1.1391(2) 0.7274(9) 1.2586(7)
H13A H 1.1778 0.7240 1.3277
C17A C 1.1140(3) 0.8418(7) 1.2078(7)
H14A H 1.1347 0.9210 1.2423
C18A C 1.0571(2) 0.8478(4) 1.1037(5)
C19A C 1.0261(3) 0.9679(4) 1.0498(5)
H15A H 1.0444 1.0496 1.0886
C20A C 1.02909(12) 0.7273(3) 1.0556(4)
loop_
_geom_bond_atom_site_label_1
_geom_bond_atom_site_label_2
_geom_bond_site_symmetry_1
_geom_bond_site_symmetry_2
Mg1 O1 1_555 1_555
O1 C7 1_555 1_555
O2 C7 1_555 1_555
O3 H1 1_555 1_555
O4 C14 1_555 1_555
O5 Mg1 1_555 1_555
H2 O5 1_555 1_555
H3 O5 1_555 1_555
N1 Mg1 1_555 1_555
N2 C15 1_555 1_555
C1 N1 1_555 1_555
H4 C1 1_555 1_555
C2 C1 1_555 1_555
H5 C2 1_555 1_555
C3 C2 1_555 1_555
H6 C3 1_555 1_555
C4 C3 1_555 1_555
C5 N1 1_555 1_555
C6 C4 1_555 1_555
H7 C6 1_555 1_555
C7 C8 1_555 1_555
C8 C9 1_555 1_555
C9 H8 1_555 1_555
C10 C9 1_555 1_555
C11 C10 1_555 1_555
H9 C11 1_555 1_555
C12 C11 1_555 1_555
H10 C12 1_555 1_555
C13 C8 1_555 1_555
H11 C13 1_555 1_555
C14 O3 1_555 1_555
C15 H12 1_555 1_555
C16 C15 1_555 1_555
H13 C16 1_555 1_555
C17 C16 1_555 1_555
H14 C17 1_555 1_555
C18 C17 1_555 1_555
C19 C18 1_555 1_555
H15 C19 1_555 1_555
C20 N2 1_555 1_555
O1A Mg1 1_555 1_555
O2A C7A 1_555 1_555
O3A H1A 1_555 1_555
O4A C14A 1_555 1_555
O5A Mg1 1_555 1_555
H2A O5A 1_555 1_555
H3A O5A 1_555 1_555
N1A Mg1 1_555 1_555
N2A C15A 1_555 1_555
C1A N1A 1_555 1_555
H4A C1A 1_555 1_555
C2A C1A 1_555 1_555
H5A C2A 1_555 1_555
C3A C2A 1_555 1_555
H6A C3A 1_555 1_555
C4A C3A 1_555 1_555
C5A C5 1_555 1_555
C6A C6 1_555 1_555
H7A C6A 1_555 1_555
C7A O1A 1_555 1_555
C8A C7A 1_555 1_555
C9A C8A 1_555 1_555
H8A C9A 1_555 1_555
C10A C9A 1_555 1_555
C11A C10A 1_555 1_555
H9A C11A 1_555 1_555
C12A C11A 1_555 1_555
H10A C12A 1_555 1_555
C13A C8A 1_555 1_555
H11A C13A 1_555 1_555
C14A O3A 1_555 1_555
C15A H12A 1_555 1_555
C16A C15A 1_555 1_555
H13A C16A 1_555 1_555
C17A C16A 1_555 1_555
H14A C17A 1_555 1_555
C18A C17A 1_555 1_555
C19A C19 1_555 1_555
H15A C19A 1_555 1_555
C20A C20 1_555 1_555
C4 C5 1_555 1_555
C10 C14 1_555 1_555
C12 C13 1_555 1_555
C18 C20 1_555 1_555
N1A C5A 1_555 1_555
N2A C20A 1_555 1_555
C4A C5A 1_555 1_555
C4A C6A 1_555 1_555
C10A C14A 1_555 1_555
C12A C13A 1_555 1_555
C18A C19A 1_555 1_555
C18A C20A 1_555 1_555

#END
