
#######################################################################
#
#                 Cambridge Crystallographic Data Centre
#                                CCDC 
#
#######################################################################
#
# If this CIF has been generated from an entry in the Cambridge 
# Structural Database, then it will include bibliographic, chemical, 
# crystal, experimental, refinement or atomic coordinate data resulting 
# from the CCDC's data processing and validation procedures.
#
#######################################################################

data_ALUCEQ
_chemical_formula_moiety         'C54 H88 Li2 N6 O2,2(C4 H8 O1)'
_chemical_name_systematic        
'bis(\m~2~-1-(2-((1-(3,5-Di-t-butyl-2-oxidophenyl)pentyl)amino)ethyl)-3-isopropyl-1,3-dihydro-2H-imidazol-2-ylidene-C,N,O:O)-di-lithium tetrahydrofuran solvate'
_symmetry_cell_setting           triclinic
_symmetry_space_group_name_H-M   'P -1'
_symmetry_Int_Tables_number      2
_space_group_name_Hall           '-P 1'
loop_
_symmetry_equiv_pos_site_id
_symmetry_equiv_pos_as_xyz
1 x,y,z
2 -x,-y,-z
_cell_length_a                   10.132(6)
_cell_length_b                   11.482(6)
_cell_length_c                   14.418(8)
_cell_angle_alpha                102.244(5)
_cell_angle_beta                 106.510(9)
_cell_angle_gamma                99.210(4)
_cell_volume                     1527.52
_exptl_crystal_colour            colorless
_exptl_crystal_description       block
_chemical_melting_point          '224-226 deg.C (dec.)'
_cell_formula_units_Z            1
loop_
_atom_site_label
_atom_site_type_symbol
_atom_site_fract_x
_atom_site_fract_y
_atom_site_fract_z
O1 O 0.4835(3) 0.5947(3) 0.57588(19)
N1 N 0.5277(3) 0.3688(3) 0.6404(2)
H1 H 0.4968 0.2905 0.5963
N2 N 0.8602(3) 0.4289(3) 0.7066(3)
N3 N 0.9507(3) 0.5815(3) 0.6656(3)
C1 C 0.4720(4) 0.6279(4) 0.6653(3)
C2 C 0.4952(4) 0.7545(4) 0.7187(3)
C3 C 0.4795(4) 0.7813(4) 0.8133(3)
H2 H 0.4954 0.8652 0.8477
C4 C 0.4423(4) 0.6939(4) 0.8611(3)
C5 C 0.4213(4) 0.5724(4) 0.8078(3)
H3 H 0.3983 0.5095 0.8380
C6 C 0.4324(4) 0.5389(4) 0.7125(3)
C7 C 0.3974(4) 0.4047(4) 0.6526(3)
H4 H 0.3373 0.4015 0.5834
C8 C 0.6284(4) 0.3575(4) 0.7317(3)
H5 H 0.5817 0.2930 0.7557
H6 H 0.6551 0.4358 0.7848
C9 C 0.7612(4) 0.3259(4) 0.7154(3)
H7 H 0.8112 0.2963 0.7722
H8 H 0.7333 0.2578 0.6534
C10 C 0.8224(4) 0.5056(4) 0.6486(3)
C11 C 1.0036(4) 0.4555(4) 0.7567(3)
H9 H 1.0523 0.4145 0.8013
C12 C 1.0607(5) 0.5517(4) 0.7294(3)
H10 H 1.1583 0.5911 0.7503
C13 C 0.9671(5) 0.6854(5) 0.6219(4)
H11 H 0.8702 0.6950 0.5879
C14 C 1.0390(7) 0.6645(6) 0.5447(5)
H12 H 1.1314 0.6482 0.5748
H13 H 1.0521 0.7375 0.5204
H14 H 0.9805 0.5939 0.4884
C15 C 1.0455(6) 0.8029(5) 0.7054(4)
H15 H 1.1458 0.8026 0.7317
H16 H 1.0045 0.8079 0.7596
H17 H 1.0365 0.8739 0.6785
C16 C 0.5349(5) 0.8567(4) 0.6707(3)
C17 C 0.4132(5) 0.8446(4) 0.5735(3)
H18 H 0.3310 0.8643 0.5906
H19 H 0.3872 0.7604 0.5304
H20 H 0.4443 0.9014 0.5377
C18 C 0.5609(6) 0.9851(4) 0.7396(4)
H21 H 0.6404 0.9970 0.8011
H22 H 0.4757 0.9942 0.7570
H23 H 0.5834 1.0464 0.7050
C19 C 0.6723(5) 0.8483(5) 0.6475(4)
H24 H 0.6921 0.9085 0.6113
H25 H 0.6618 0.7657 0.6059
H26 H 0.7507 0.8652 0.7106
C20 C 0.4267(4) 0.7329(4) 0.9644(3)
C21 C 0.5726(5) 0.7964(5) 1.0448(3)
H27 H 0.6334 0.7380 1.0487
H28 H 0.5605 0.8249 1.1102
H29 H 0.6166 0.8665 1.0264
C22 C 0.3589(6) 0.6248(5) 0.9953(4)
H30 H 0.2636 0.5868 0.9472
H31 H 0.3528 0.6543 1.0626
H32 H 0.4170 0.5643 0.9960
C23 C 0.3300(6) 0.8231(5) 0.9655(4)
H33 H 0.3696 0.8951 0.9473
H34 H 0.3231 0.8487 1.0329
H35 H 0.2354 0.7830 0.9169
C24 C 0.3069(5) 0.3160(4) 0.6876(4)
H36 H 0.2230 0.3471 0.6931
H37 H 0.3623 0.3129 0.7554
C25 C 0.2570(5) 0.1854(4) 0.6165(4)
H38 H 0.2017 0.1883 0.5486
H39 H 0.3408 0.1541 0.6111
C26 C 0.1678(5) 0.0987(5) 0.6513(4)
H40 H 0.2206 0.1025 0.7216
H41 H 0.1543 0.0144 0.6098
C27 C 0.0235(6) 0.1219(5) 0.6470(5)
H42 H 0.0347 0.2061 0.6858
H43 H -0.0237 0.0644 0.6756
H44 H -0.0338 0.1102 0.5770
Li1 Li 0.6045(7) 0.4821(7) 0.5624(5)
O1A O 0.5165(3) 0.4053(3) 0.42412(19)
N1A N 0.4723(3) 0.6312(3) 0.3596(2)
H1A H 0.5032 0.7095 0.4037
N2A N 0.1398(3) 0.5711(3) 0.2934(3)
N3A N 0.0493(3) 0.4185(3) 0.3344(3)
C1A C 0.5280(4) 0.3721(4) 0.3347(3)
C2A C 0.5048(4) 0.2455(4) 0.2813(3)
C3A C 0.5205(4) 0.2187(4) 0.1867(3)
H2A H 0.5046 0.1348 0.1523
C4A C 0.5577(4) 0.3061(4) 0.1389(3)
C5A C 0.5787(4) 0.4276(4) 0.1922(3)
H3A H 0.6017 0.4905 0.1620
C6A C 0.5676(4) 0.4611(4) 0.2875(3)
C7A C 0.6026(4) 0.5953(4) 0.3474(3)
H4A H 0.6627 0.5985 0.4166
C8A C 0.3716(4) 0.6425(4) 0.2683(3)
H5A H 0.4183 0.7070 0.2443
H6A H 0.3449 0.5642 0.2152
C9A C 0.2388(4) 0.6741(4) 0.2846(3)
H7A H 0.1888 0.7037 0.2278
H8A H 0.2667 0.7422 0.3466
C10A C 0.1776(4) 0.4944(4) 0.3514(3)
C11A C -0.0036(4) 0.5445(4) 0.2433(3)
H9A H -0.0523 0.5855 0.1987
C12A C -0.0607(5) 0.4483(4) 0.2706(3)
H10A H -0.1583 0.4089 0.2497
C13A C 0.0329(5) 0.3146(5) 0.3781(4)
H11A H 0.1298 0.3050 0.4121
C14A C -0.0390(7) 0.3355(6) 0.4553(5)
H12A H -0.1314 0.3518 0.4252
H13A H -0.0521 0.2625 0.4796
H14A H 0.0195 0.4061 0.5116
C15A C -0.0455(6) 0.1971(5) 0.2946(4)
H15A H -0.1458 0.1974 0.2683
H16A H -0.0045 0.1921 0.2404
H17A H -0.0365 0.1261 0.3215
C16A C 0.4651(5) 0.1433(4) 0.3293(3)
C17A C 0.5868(5) 0.1554(4) 0.4265(3)
H18A H 0.6690 0.1357 0.4094
H19A H 0.6128 0.2396 0.4696
H20A H 0.5557 0.0986 0.4623
C18A C 0.4391(6) 0.0149(4) 0.2604(4)
H21A H 0.3596 0.0030 0.1989
H22A H 0.5243 0.0058 0.2430
H23A H 0.4166 -0.0464 0.2950
C19A C 0.3277(5) 0.1517(5) 0.3525(4)
H24A H 0.3079 0.0915 0.3887
H25A H 0.3382 0.2343 0.3941
H26A H 0.2493 0.1348 0.2894
C20A C 0.5733(4) 0.2671(4) 0.0356(3)
C21A C 0.4274(5) 0.2036(5) -0.0448(3)
H27A H 0.3666 0.2620 -0.0487
H28A H 0.4395 0.1751 -0.1102
H29A H 0.3834 0.1335 -0.0264
C22A C 0.6411(6) 0.3752(5) 0.0047(4)
H30A H 0.7364 0.4132 0.0528
H31A H 0.6472 0.3457 -0.0626
H32A H 0.5830 0.4357 0.0040
C23A C 0.6700(6) 0.1769(5) 0.0345(4)
H33A H 0.6304 0.1049 0.0527
H34A H 0.6769 0.1513 -0.0329
H35A H 0.7646 0.2170 0.0831
C24A C 0.6931(5) 0.6840(4) 0.3124(4)
H36A H 0.7770 0.6529 0.3069
H37A H 0.6377 0.6871 0.2446
C25A C 0.7430(5) 0.8146(4) 0.3835(4)
H38A H 0.7983 0.8117 0.4514
H39A H 0.6592 0.8459 0.3889
C26A C 0.8322(5) 0.9013(5) 0.3487(4)
H40A H 0.7794 0.8975 0.2784
H41A H 0.8457 0.9856 0.3902
C27A C 0.9765(6) 0.8781(5) 0.3530(5)
H42A H 0.9653 0.7939 0.3142
H43A H 1.0237 0.9356 0.3244
H44A H 1.0338 0.8898 0.4230
Li1A Li 0.3955(7) 0.5179(7) 0.4376(5)
O2 O 0.9514(6) 0.7124(5) 1.0728(3)
C28 C 0.9118(9) 0.6362(7) 0.9759(5)
H45 H 0.8413 0.5613 0.9683
H46 H 0.9955 0.6113 0.9631
C29 C 0.8513(6) 0.7009(5) 0.9043(4)
H47 H 0.7466 0.6797 0.8833
H48 H 0.8804 0.6811 0.8439
C30 C 0.9110(7) 0.8353(5) 0.9616(4)
H49 H 0.9866 0.8729 0.9387
H50 H 0.8357 0.8814 0.9523
C31 C 0.9696(7) 0.8348(6) 1.0698(4)
H51 H 1.0714 0.8768 1.0980
H52 H 0.9188 0.8783 1.1100
loop_
_geom_bond_atom_site_label_1
_geom_bond_atom_site_label_2
_geom_bond_site_symmetry_1
_geom_bond_site_symmetry_2
O1 C1 1_555 1_555
O2 C28 1_555 1_555
N1 H1 1_555 1_555
N2 C9 1_555 1_555
N3 C10 1_555 1_555
C1 C2 1_555 1_555
C2 C3 1_555 1_555
C3 H2 1_555 1_555
C4 C3 1_555 1_555
C5 C4 1_555 1_555
H3 C5 1_555 1_555
C6 C1 1_555 1_555
C7 N1 1_555 1_555
H4 C7 1_555 1_555
C8 N1 1_555 1_555
H5 C8 1_555 1_555
H6 C8 1_555 1_555
C9 C8 1_555 1_555
H7 C9 1_555 1_555
H8 C9 1_555 1_555
C10 N2 1_555 1_555
C11 N2 1_555 1_555
H9 C11 1_555 1_555
C12 N3 1_555 1_555
H10 C12 1_555 1_555
C13 N3 1_555 1_555
H11 C13 1_555 1_555
C14 C13 1_555 1_555
H12 C14 1_555 1_555
H13 C14 1_555 1_555
H14 C14 1_555 1_555
C15 C13 1_555 1_555
H15 C15 1_555 1_555
H16 C15 1_555 1_555
H17 C15 1_555 1_555
C16 C2 1_555 1_555
C17 C16 1_555 1_555
H18 C17 1_555 1_555
H19 C17 1_555 1_555
H20 C17 1_555 1_555
C18 C16 1_555 1_555
H21 C18 1_555 1_555
H22 C18 1_555 1_555
H23 C18 1_555 1_555
C19 C16 1_555 1_555
H24 C19 1_555 1_555
H25 C19 1_555 1_555
H26 C19 1_555 1_555
C20 C4 1_555 1_555
C21 C20 1_555 1_555
H27 C21 1_555 1_555
H28 C21 1_555 1_555
H29 C21 1_555 1_555
C22 C20 1_555 1_555
H30 C22 1_555 1_555
H31 C22 1_555 1_555
H32 C22 1_555 1_555
C23 C20 1_555 1_555
H33 C23 1_555 1_555
H34 C23 1_555 1_555
H35 C23 1_555 1_555
C24 C7 1_555 1_555
H36 C24 1_555 1_555
H37 C24 1_555 1_555
C25 C24 1_555 1_555
H38 C25 1_555 1_555
H39 C25 1_555 1_555
C26 C25 1_555 1_555
H40 C26 1_555 1_555
H41 C26 1_555 1_555
C27 C26 1_555 1_555
H42 C27 1_555 1_555
H43 C27 1_555 1_555
H44 C27 1_555 1_555
C28 H45 1_555 1_555
H46 C28 1_555 1_555
C29 C28 1_555 1_555
H47 C29 1_555 1_555
H48 C29 1_555 1_555
C30 C29 1_555 1_555
H49 C30 1_555 1_555
H50 C30 1_555 1_555
C31 O2 1_555 1_555
H51 C31 1_555 1_555
H52 C31 1_555 1_555
Li1 O1 1_555 1_555
O1A Li1 1_555 1_555
N1A H1A 1_555 1_555
N2A C9A 1_555 1_555
N3A C10A 1_555 1_555
C1A O1A 1_555 1_555
C2A C1A 1_555 1_555
C3A C2A 1_555 1_555
H2A C3A 1_555 1_555
C4A C3A 1_555 1_555
C5A C4A 1_555 1_555
H3A C5A 1_555 1_555
C6A C1A 1_555 1_555
C7A N1A 1_555 1_555
H4A C7A 1_555 1_555
C8A N1A 1_555 1_555
H5A C8A 1_555 1_555
H6A C8A 1_555 1_555
C9A C8A 1_555 1_555
H7A C9A 1_555 1_555
H8A C9A 1_555 1_555
C10A N2A 1_555 1_555
C11A N2A 1_555 1_555
H9A C11A 1_555 1_555
C12A N3A 1_555 1_555
H10A C12A 1_555 1_555
C13A N3A 1_555 1_555
H11A C13A 1_555 1_555
C14A C13A 1_555 1_555
H12A C14A 1_555 1_555
H13A C14A 1_555 1_555
H14A C14A 1_555 1_555
C15A C13A 1_555 1_555
H15A C15A 1_555 1_555
H16A C15A 1_555 1_555
H17A C15A 1_555 1_555
C16A C2A 1_555 1_555
C17A C16A 1_555 1_555
H18A C17A 1_555 1_555
H19A C17A 1_555 1_555
H20A C17A 1_555 1_555
C18A C16A 1_555 1_555
H21A C18A 1_555 1_555
H22A C18A 1_555 1_555
H23A C18A 1_555 1_555
C19A C16A 1_555 1_555
H24A C19A 1_555 1_555
H25A C19A 1_555 1_555
H26A C19A 1_555 1_555
C20A C4A 1_555 1_555
C21A C20A 1_555 1_555
H27A C21A 1_555 1_555
H28A C21A 1_555 1_555
H29A C21A 1_555 1_555
C22A C20A 1_555 1_555
H30A C22A 1_555 1_555
H31A C22A 1_555 1_555
H32A C22A 1_555 1_555
C23A C20A 1_555 1_555
H33A C23A 1_555 1_555
H34A C23A 1_555 1_555
H35A C23A 1_555 1_555
C24A C7A 1_555 1_555
H36A C24A 1_555 1_555
H37A C24A 1_555 1_555
C25A C24A 1_555 1_555
H38A C25A 1_555 1_555
H39A C25A 1_555 1_555
C26A C25A 1_555 1_555
H40A C26A 1_555 1_555
H41A C26A 1_555 1_555
C27A C26A 1_555 1_555
H42A C27A 1_555 1_555
H43A C27A 1_555 1_555
H44A C27A 1_555 1_555
Li1A O1 1_555 1_555
N1 Li1 1_555 1_555
C5 C6 1_555 1_555
C6 C7 1_555 1_555
C10 Li1 1_555 1_555
C11 C12 1_555 1_555
C30 C31 1_555 1_555
O1A Li1A 1_555 1_555
N1A Li1A 1_555 1_555
C5A C6A 1_555 1_555
C6A C7A 1_555 1_555
C10A Li1A 1_555 1_555
C11A C12A 1_555 1_555

#END
