
#######################################################################
#
#                 Cambridge Crystallographic Data Centre
#                                CCDC 
#
#######################################################################
#
# If this CIF has been generated from an entry in the Cambridge 
# Structural Database, then it will include bibliographic, chemical, 
# crystal, experimental, refinement or atomic coordinate data resulting 
# from the CCDC's data processing and validation procedures.
#
#######################################################################

data_ALUREE
_chemical_formula_moiety         'C40 H34 O10,C4 H8 O2'
_chemical_name_systematic        
'(+-)-2,17-Diacetyl-1,18-dihydroxy-4,6,9,10,13,15-hexamethoxy(7)helicene ethyl acetate solvate'
_symmetry_cell_setting           monoclinic
_symmetry_space_group_name_H-M   'P 21/n'
_symmetry_Int_Tables_number      14
_space_group_name_Hall           '-P 2yn'
loop_
_symmetry_equiv_pos_site_id
_symmetry_equiv_pos_as_xyz
1 x,y,z
2 1/2+x,1/2-y,1/2+z
3 -x,-y,-z
4 1/2-x,1/2+y,1/2-z
_cell_length_a                   14.802(2)
_cell_length_b                   16.017(2)
_cell_length_c                   17.246(2)
_cell_angle_alpha                90
_cell_angle_beta                 113.003(2)
_cell_angle_gamma                90
_cell_volume                     3763.63
_exptl_crystal_colour            orange
_exptl_crystal_description       Plate
_cell_formula_units_Z            4
loop_
_atom_site_label
_atom_site_type_symbol
_atom_site_fract_x
_atom_site_fract_y
_atom_site_fract_z
O1 O 0.46539(12) 0.35580(11) 0.72027(9)
H1 H 0.470(2) 0.312(2) 0.756(2)
O2 O 0.43720(14) 0.22030(12) 0.78372(10)
O3 O 0.21168(13) 0.24694(11) 0.40728(9)
O4 O 0.32799(14) 0.52734(12) 0.36236(9)
O5 O 0.60138(13) 0.69425(12) 0.74702(10)
O6 O 0.59432(12) 0.62247(12) 0.89698(9)
O7 O 0.24430(12) 0.33001(11) 0.86939(9)
O8 O 0.04374(12) 0.27819(11) 0.56468(9)
O9 O 0.13760(13) 0.59890(12) 0.42881(10)
O10 O 0.23007(12) 0.57928(10) 0.58559(9)
H2 H 0.211(3) 0.607(2) 0.529(2)
C1 C 0.39305(16) 0.33126(15) 0.64684(12)
C2 C 0.35079(17) 0.25276(16) 0.63966(13)
C3 C 0.28472(17) 0.22374(16) 0.55868(14)
H3 H 0.2530 0.1713 0.5536
C4 C 0.26762(17) 0.27148(16) 0.48924(13)
C5 C 0.30665(16) 0.35408(16) 0.49583(13)
C6 C 0.36292(16) 0.38817(15) 0.57708(12)
C7 C 0.28919(17) 0.40252(16) 0.42212(13)
H4 H 0.2471 0.3818 0.3686
C8 C 0.33251(18) 0.47820(16) 0.42818(13)
C9 C 0.38586(17) 0.51731(16) 0.50959(13)
C10 C 0.39070(16) 0.47585(15) 0.58290(12)
C11 C 0.43227(18) 0.59507(17) 0.51449(14)
H5 H 0.4268 0.6231 0.4643
C12 C 0.48511(18) 0.63033(16) 0.59108(14)
H6 H 0.5247 0.6780 0.5947
C13 C 0.48060(17) 0.59557(16) 0.66486(13)
C14 C 0.42074(16) 0.52516(15) 0.65963(12)
C15 C 0.53712(17) 0.63250(16) 0.74639(14)
C16 C 0.53104(17) 0.59865(16) 0.81654(13)
C17 C 0.45488(16) 0.54040(15) 0.80992(13)
C18 C 0.39236(16) 0.50947(15) 0.72959(12)
C19 C 0.44361(17) 0.51141(16) 0.88346(13)
H7 H 0.4845 0.5334 0.9368
C20 C 0.37556(17) 0.45287(16) 0.87879(13)
H8 H 0.3744 0.4293 0.9290
C21 C 0.30553(16) 0.42646(15) 0.79873(12)
C22 C 0.30671(16) 0.46268(15) 0.72450(12)
C23 C 0.23705(17) 0.36130(15) 0.79337(12)
C24 C 0.17288(16) 0.33204(15) 0.71701(13)
H9 H 0.1355 0.2830 0.7137
C25 C 0.16311(16) 0.37673(15) 0.64220(12)
C26 C 0.22148(16) 0.44690(14) 0.64601(12)
C27 C 0.08979(16) 0.35099(15) 0.56190(13)
C28 C 0.07185(16) 0.39841(15) 0.49185(13)
H10 H 0.0268 0.3792 0.4387
C29 C 0.11975(16) 0.47602(16) 0.49771(13)
C30 C 0.19111(16) 0.50183(14) 0.57567(13)
C31 C 0.37076(19) 0.20118(17) 0.71467(15)
C32 C 0.3093(2) 0.1257(2) 0.71111(18)
H11 H 0.3336 0.0985 0.7664
H12 H 0.3134 0.0866 0.6689
H13 H 0.2409 0.1426 0.6957
C33 C 0.1768(2) 0.16308(18) 0.39701(16)
H14 H 0.1387 0.1520 0.3371
H15 H 0.1350 0.1549 0.4286
H16 H 0.2327 0.1247 0.4182
C34 C 0.2717(2) 0.4962(2) 0.27926(14)
H17 H 0.2736 0.5367 0.2373
H18 H 0.2035 0.4876 0.2727
H19 H 0.2995 0.4430 0.2710
C35 C 0.6088(2) 0.76568(19) 0.80001(17)
H20 H 0.6568 0.8051 0.7949
H21 H 0.6301 0.7475 0.8587
H22 H 0.5446 0.7930 0.7824
C36 C 0.6909(2) 0.5897(2) 0.92058(16)
H23 H 0.7320 0.6085 0.9776
H24 H 0.7190 0.6094 0.8810
H25 H 0.6882 0.5286 0.9194
C37 C 0.1817(2) 0.26210(18) 0.86840(15)
H26 H 0.1938 0.2457 0.9264
H27 H 0.1952 0.2147 0.8386
H28 H 0.1130 0.2792 0.8395
C38 C -0.0304(2) 0.24992(18) 0.48708(14)
H29 H -0.0578 0.1970 0.4965
H30 H -0.0015 0.2417 0.4453
H31 H -0.0828 0.2917 0.4663
C39 C 0.09794(17) 0.53033(16) 0.42395(13)
C40 C 0.0277(2) 0.49941(18) 0.33869(14)
H32 H 0.0207 0.5420 0.2959
H33 H -0.0365 0.4883 0.3406
H34 H 0.0534 0.4479 0.3243
loop_
_geom_bond_atom_site_label_1
_geom_bond_atom_site_label_2
_geom_bond_site_symmetry_1
_geom_bond_site_symmetry_2
O1 H1 1_555 1_555
O2 C31 1_555 1_555
O3 C4 1_555 1_555
O4 C8 1_555 1_555
O5 C15 1_555 1_555
O6 C16 1_555 1_555
O7 C23 1_555 1_555
O8 C27 1_555 1_555
O9 C39 1_555 1_555
O10 H2 1_555 1_555
C1 O1 1_555 1_555
C2 C1 1_555 1_555
C3 C2 1_555 1_555
H3 C3 1_555 1_555
C4 C3 1_555 1_555
C5 C4 1_555 1_555
C6 C1 1_555 1_555
C7 C5 1_555 1_555
H4 C7 1_555 1_555
C8 C7 1_555 1_555
C9 C8 1_555 1_555
C10 C6 1_555 1_555
C11 C9 1_555 1_555
H5 C11 1_555 1_555
C12 C11 1_555 1_555
H6 C12 1_555 1_555
C13 C12 1_555 1_555
C14 C10 1_555 1_555
C15 C13 1_555 1_555
C16 C15 1_555 1_555
C17 C16 1_555 1_555
C18 C14 1_555 1_555
C19 C17 1_555 1_555
H7 C19 1_555 1_555
C20 C19 1_555 1_555
H8 C20 1_555 1_555
C21 C20 1_555 1_555
C22 C18 1_555 1_555
C23 C21 1_555 1_555
C24 C23 1_555 1_555
H9 C24 1_555 1_555
C25 C24 1_555 1_555
C26 C22 1_555 1_555
C27 C25 1_555 1_555
C28 C27 1_555 1_555
H10 C28 1_555 1_555
C29 C28 1_555 1_555
C30 O10 1_555 1_555
C31 C2 1_555 1_555
C32 C31 1_555 1_555
H11 C32 1_555 1_555
H12 C32 1_555 1_555
H13 C32 1_555 1_555
C33 O3 1_555 1_555
H14 C33 1_555 1_555
H15 C33 1_555 1_555
H16 C33 1_555 1_555
C34 O4 1_555 1_555
H17 C34 1_555 1_555
H18 C34 1_555 1_555
H19 C34 1_555 1_555
C35 O5 1_555 1_555
H20 C35 1_555 1_555
H21 C35 1_555 1_555
H22 C35 1_555 1_555
C36 O6 1_555 1_555
H23 C36 1_555 1_555
H24 C36 1_555 1_555
H25 C36 1_555 1_555
C37 O7 1_555 1_555
H26 C37 1_555 1_555
H27 C37 1_555 1_555
H28 C37 1_555 1_555
C38 O8 1_555 1_555
H29 C38 1_555 1_555
H30 C38 1_555 1_555
H31 C38 1_555 1_555
C39 C29 1_555 1_555
C40 C39 1_555 1_555
H32 C40 1_555 1_555
H33 C40 1_555 1_555
H34 C40 1_555 1_555
C5 C6 1_555 1_555
C9 C10 1_555 1_555
C13 C14 1_555 1_555
C17 C18 1_555 1_555
C21 C22 1_555 1_555
C25 C26 1_555 1_555
C26 C30 1_555 1_555
C29 C30 1_555 1_555

#END
