
#######################################################################
#
#                 Cambridge Crystallographic Data Centre
#                                CCDC 
#
#######################################################################
#
# If this CIF has been generated from an entry in the Cambridge 
# Structural Database, then it will include bibliographic, chemical, 
# crystal, experimental, refinement or atomic coordinate data resulting 
# from the CCDC's data processing and validation procedures.
#
#######################################################################

data_AMAGAW
_chemical_formula_moiety         'C39 H39 N3 O3,C9 H14 N1 O1 1+,F6 P1 1-'
_chemical_name_systematic        
'(S,S,S)-1,3,5-tris(4-Phenyl-1,3-oxazolin-2-ylmethyl)-2,4,6-trimethylbenzene 2(S)-ammonio-1(R)-phenylpropano-1-ol clathrate hexafluorophosphate'
_symmetry_cell_setting           monoclinic
_symmetry_space_group_name_H-M   'P 21'
_symmetry_Int_Tables_number      4
_space_group_name_Hall           'P 2yb'
loop_
_symmetry_equiv_pos_site_id
_symmetry_equiv_pos_as_xyz
1 x,y,z
2 -x,1/2+y,-z
_cell_length_a                   10.9999(3)
_cell_length_b                   12.3577(2)
_cell_length_c                   16.7301(3)
_cell_angle_alpha                90
_cell_angle_beta                 93.9350(10)
_cell_angle_gamma                90
_cell_volume                     2268.82
_exptl_crystal_colour            colorless
_exptl_crystal_description       cube
_cell_formula_units_Z            2
_exptl_crystal_recrystallization_method dichloromethane/hexane
loop_
_atom_site_label
_atom_site_type_symbol
_atom_site_fract_x
_atom_site_fract_y
_atom_site_fract_z
P1 P 0.31997(18) 0.68256(17) 0.75534(12)
F1 F 0.3293(7) 0.7562(7) 0.8320(4)
F2 F 0.2671(6) 0.7753(6) 0.7043(4)
F3 F 0.3121(7) 0.6047(6) 0.6852(4)
F4 F 0.4535(4) 0.7082(5) 0.7365(4)
F5 F 0.1881(4) 0.6593(5) 0.7788(3)
F6 F 0.3688(5) 0.5846(4) 0.8118(3)
O1 O 1.1466(3) 0.3281(4) 0.9121(2)
O2 O 0.4941(4) 0.1779(4) 0.9759(3)
O3 O 0.8314(5) -0.2663(3) 0.6702(2)
N1 N 0.9871(4) 0.2697(3) 0.8316(2)
N2 N 0.5988(4) 0.1743(4) 0.8654(3)
N3 N 0.8210(4) -0.0833(3) 0.6811(2)
C1 C 0.9876(5) -0.0258(4) 0.8642(3)
C2 C 0.8865(6) -0.0926(4) 0.8528(3)
C3 C 0.7779(6) -0.0666(5) 0.8879(3)
C4 C 0.7751(6) 0.0234(5) 0.9391(3)
C5 C 0.8779(6) 0.0875(4) 0.9543(3)
C6 C 0.9844(5) 0.0639(4) 0.9152(3)
C7 C 1.1010(6) -0.0466(6) 0.8193(4)
H1 H 1.1616 0.0069 0.8343
H2 H 1.0805 -0.0425 0.7627
H3 H 1.1324 -0.1173 0.8326
C8 C 0.6637(7) -0.1327(6) 0.8674(4)
H4 H 0.6821 -0.1905 0.8318
H5 H 0.6020 -0.0871 0.8419
H6 H 0.6348 -0.1624 0.9156
C9 C 0.8731(7) 0.1824(5) 1.0112(3)
H7 H 0.9507 0.2183 1.0152
H8 H 0.8543 0.1568 1.0631
H9 H 0.8113 0.2322 0.9913
C10 C 1.0914(6) 0.1411(5) 0.9275(4)
H10 H 1.1079 0.1535 0.9844
H11 H 1.1630 0.1075 0.9074
C11 C 1.0699(5) 0.2474(4) 0.8865(3)
C12 C 1.1117(5) 0.4211(5) 0.8640(4)
H12 H 1.1756 0.4402 0.8294
H13 H 1.0962 0.4827 0.8978
C13 C 0.9966(5) 0.3884(4) 0.8148(3)
H14 H 1.0086 0.3990 0.7578
C14 C 0.8824(4) 0.4455(4) 0.8352(3)
C15 C 0.8113(5) 0.5026(4) 0.7788(3)
H15 H 0.8360 0.5077 0.7269
C16 C 0.7034(6) 0.5529(5) 0.7976(4)
H16 H 0.6579 0.5922 0.7587
C17 C 0.6651(5) 0.5444(5) 0.8727(4)
H17 H 0.5918 0.5758 0.8849
C18 C 0.7349(5) 0.4891(5) 0.9310(4)
H18 H 0.7095 0.4841 0.9828
C19 C 0.8430(5) 0.4408(5) 0.9120(3)
H19 H 0.8902 0.4045 0.9517
C20 C 0.6598(7) 0.0507(5) 0.9793(4)
H20 H 0.6106 -0.0141 0.9824
H21 H 0.6813 0.0750 1.0336
C21 C 0.5861(5) 0.1368(4) 0.9355(4)
C22 C 0.4492(6) 0.2707(7) 0.9289(5)
H22 H 0.4770 0.3380 0.9538
H23 H 0.3608 0.2710 0.9231
C23 C 0.5016(5) 0.2561(5) 0.8492(4)
H24 H 0.5395 0.3243 0.8343
C24 C 0.4102(5) 0.2224(5) 0.7817(4)
C25 C 0.3868(5) 0.1136(5) 0.7620(4)
H25 H 0.4281 0.0595 0.7913
C26 C 0.3027(6) 0.0851(6) 0.6992(4)
H26 H 0.2899 0.0127 0.6859
C27 C 0.2408(7) 0.1628(8) 0.6584(4)
H27 H 0.1839 0.1435 0.6173
C28 C 0.2596(6) 0.2728(7) 0.6761(4)
H28 H 0.2158 0.3260 0.6473
C29 C 0.3451(5) 0.3003(5) 0.7377(4)
H29 H 0.3589 0.3729 0.7496
C30 C 0.8912(7) -0.1931(4) 0.8004(3)
H30 H 0.9748 -0.2181 0.8012
H31 H 0.8434 -0.2498 0.8232
C31 C 0.8444(5) -0.1751(5) 0.7145(3)
C32 C 0.7767(7) -0.2309(5) 0.5924(4)
H32 H 0.6912 -0.2508 0.5862
H33 H 0.8186 -0.2628 0.5491
C33 C 0.7917(6) -0.1085(5) 0.5937(3)
H34 H 0.7136 -0.0750 0.5763
C34 C 0.8883(6) -0.0657(4) 0.5430(3)
C35 C 0.8571(7) -0.0074(5) 0.4742(4)
H35 H 0.7757 0.0061 0.4588
C36 C 0.9492(12) 0.0314(7) 0.4279(5)
H36 H 0.9289 0.0729 0.3826
C37 C 1.0679(13) 0.0089(9) 0.4488(7)
H37 H 1.1285 0.0343 0.4175
C38 C 1.0985(7) -0.0510(8) 0.5159(5)
H38 H 1.1799 -0.0671 0.5296
C39 C 1.0103(7) -0.0876(6) 0.5628(4)
H39 H 1.0323 -0.1277 0.6085
O4 O 0.6303(7) 0.1095(5) 0.6230(6)
H40 H 0.673(7) 0.118(7) 0.578(4)
N4 N 0.7942(4) 0.1385(3) 0.7524(3)
H41 H 0.879(4) 0.160(4) 0.792(3)
H42 H 0.741(5) 0.148(4) 0.786(3)
H43 H 0.809(4) 0.074(4) 0.732(3)
C40 C 0.6474(5) 0.2126(5) 0.6495(4)
H44 H 0.5926 0.2220 0.6927
C41 C 0.6140(5) 0.2997(5) 0.5894(4)
C42 C 0.6104(6) 0.2826(8) 0.5086(5)
H45 H 0.6281 0.2145 0.4887
C43 C 0.5803(9) 0.3670(14) 0.4566(5)
H46 H 0.5785 0.3557 0.4015
C44 C 0.5538(10) 0.4650(14) 0.4851(9)
H47 H 0.5340 0.5204 0.4489
C45 C 0.5549(7) 0.4866(7) 0.5652(8)
H48 H 0.5364 0.5551 0.5839
C46 C 0.5847(5) 0.4014(6) 0.6178(4)
H49 H 0.5851 0.4130 0.6727
C47 C 0.7767(4) 0.2244(4) 0.6885(3)
H50 H 0.7828 0.2953 0.7147
C48 C 0.8759(4) 0.2162(4) 0.6331(3)
H51 H 0.9532 0.2251 0.6627
H52 H 0.8659 0.2717 0.5930
H53 H 0.8729 0.1465 0.6077
loop_
_geom_bond_atom_site_label_1
_geom_bond_atom_site_label_2
_geom_bond_site_symmetry_1
_geom_bond_site_symmetry_2
P1 F1 1_555 1_555
F2 P1 1_555 1_555
F3 P1 1_555 1_555
F4 P1 1_555 1_555
F5 P1 1_555 1_555
F6 P1 1_555 1_555
O1 C11 1_555 1_555
O2 C21 1_555 1_555
O3 C31 1_555 1_555
N1 C11 1_555 1_555
N2 C21 1_555 1_555
N3 C31 1_555 1_555
C1 C2 1_555 1_555
C2 C3 1_555 1_555
C3 C4 1_555 1_555
C4 C5 1_555 1_555
C5 C6 1_555 1_555
C6 C1 1_555 1_555
C7 C1 1_555 1_555
H1 C7 1_555 1_555
H2 C7 1_555 1_555
H3 C7 1_555 1_555
C8 C3 1_555 1_555
H4 C8 1_555 1_555
H5 C8 1_555 1_555
H6 C8 1_555 1_555
C9 C5 1_555 1_555
H7 C9 1_555 1_555
H8 C9 1_555 1_555
H9 C9 1_555 1_555
C10 C6 1_555 1_555
H10 C10 1_555 1_555
H11 C10 1_555 1_555
C11 C10 1_555 1_555
C12 O1 1_555 1_555
H12 C12 1_555 1_555
H13 C12 1_555 1_555
C13 N1 1_555 1_555
H14 C13 1_555 1_555
C14 C13 1_555 1_555
C15 C14 1_555 1_555
H15 C15 1_555 1_555
C16 C15 1_555 1_555
H16 C16 1_555 1_555
C17 C16 1_555 1_555
H17 C17 1_555 1_555
C18 C17 1_555 1_555
H18 C18 1_555 1_555
C19 C14 1_555 1_555
H19 C19 1_555 1_555
C20 C4 1_555 1_555
H20 C20 1_555 1_555
H21 C20 1_555 1_555
C21 C20 1_555 1_555
C22 O2 1_555 1_555
H22 C22 1_555 1_555
H23 C22 1_555 1_555
C23 N2 1_555 1_555
H24 C23 1_555 1_555
C24 C23 1_555 1_555
C25 C24 1_555 1_555
H25 C25 1_555 1_555
C26 C25 1_555 1_555
H26 C26 1_555 1_555
C27 C26 1_555 1_555
H27 C27 1_555 1_555
C28 C27 1_555 1_555
H28 C28 1_555 1_555
C29 C24 1_555 1_555
H29 C29 1_555 1_555
C30 C2 1_555 1_555
H30 C30 1_555 1_555
H31 C30 1_555 1_555
C31 C30 1_555 1_555
C32 O3 1_555 1_555
H32 C32 1_555 1_555
H33 C32 1_555 1_555
C33 N3 1_555 1_555
H34 C33 1_555 1_555
C34 C33 1_555 1_555
C35 C34 1_555 1_555
H35 C35 1_555 1_555
C36 C35 1_555 1_555
H36 C36 1_555 1_555
C37 C36 1_555 1_555
H37 C37 1_555 1_555
C38 C37 1_555 1_555
H38 C38 1_555 1_555
C39 C34 1_555 1_555
H39 C39 1_555 1_555
O4 H40 1_555 1_555
N4 H41 1_555 1_555
H42 N4 1_555 1_555
H43 N4 1_555 1_555
C40 O4 1_555 1_555
H44 C40 1_555 1_555
C41 C40 1_555 1_555
C42 C41 1_555 1_555
H45 C42 1_555 1_555
C43 C42 1_555 1_555
H46 C43 1_555 1_555
C44 C43 1_555 1_555
H47 C44 1_555 1_555
C45 C44 1_555 1_555
H48 C45 1_555 1_555
C46 C41 1_555 1_555
H49 C46 1_555 1_555
C47 N4 1_555 1_555
H50 C47 1_555 1_555
C48 C47 1_555 1_555
H51 C48 1_555 1_555
H52 C48 1_555 1_555
H53 C48 1_555 1_555
C12 C13 1_555 1_555
C18 C19 1_555 1_555
C22 C23 1_555 1_555
C28 C29 1_555 1_555
C32 C33 1_555 1_555
C38 C39 1_555 1_555
C40 C47 1_555 1_555
C45 C46 1_555 1_555

#END
