
#######################################################################
#
#                 Cambridge Crystallographic Data Centre
#                                CCDC 
#
#######################################################################
#
# If this CIF has been generated from an entry in the Cambridge 
# Structural Database, then it will include bibliographic, chemical, 
# crystal, experimental, refinement or atomic coordinate data resulting 
# from the CCDC's data processing and validation procedures.
#
#######################################################################

data_AMALIL
_chemical_name_common            20120034
_chemical_formula_moiety         'C20 H28 O5'
_chemical_name_systematic        
"1-hydroxy-3,6,9a-trimethyl-2'-oxo-1,3,3a,4,5,5a,6,7,8,9,9a,9b-dodecahydrospiro[cyclopenta[a]naphthalene-2,3'-furan]-6-carboxylic acid"
_symmetry_cell_setting           monoclinic
_symmetry_space_group_name_H-M   'P 21'
_symmetry_Int_Tables_number      4
_space_group_name_Hall           'P 2yb'
loop_
_symmetry_equiv_pos_site_id
_symmetry_equiv_pos_as_xyz
1 x,y,z
2 -x,1/2+y,-z
_cell_length_a                   7.3279(3)
_cell_length_b                   11.0973(4)
_cell_length_c                   10.9945(4)
_cell_angle_alpha                90
_cell_angle_beta                 91.171(2)
_cell_angle_gamma                90
_cell_volume                     893.885
_exptl_crystal_colour            colorless
_exptl_crystal_description       prism
_cell_formula_units_Z            2
loop_
_atom_site_label
_atom_site_type_symbol
_atom_site_fract_x
_atom_site_fract_y
_atom_site_fract_z
O1 O 0.3449(3) 0.68227(17) 0.09009(17)
O2 O -0.0842(3) 1.02674(18) 0.8359(2)
O3 O 0.1128(3) 1.15001(16) 0.7555(2)
C1 C 0.3633(4) 0.9495(3) 0.8042(2)
H1 H 0.3520 0.9397 0.8914
H2 H 0.4082 1.0303 0.7894
C2 C 0.5021(4) 0.8580(3) 0.7577(2)
H3 H 0.6200 0.8728 0.7964
H4 H 0.4637 0.7773 0.7794
C3 C 0.5198(3) 0.8664(3) 0.6203(2)
H5 H 0.6057 0.8057 0.5940
H6 H 0.5695 0.9447 0.6001
C4 C 0.0153(3) 0.9394(3) 0.5317(2)
H7 H -0.0380 0.8595 0.5338
H8 H -0.0686 0.9948 0.5697
C5 C 0.0431(4) 0.9769(2) 0.4001(2)
H9 H -0.0721 0.9729 0.3552
H10 H 0.0873 1.0592 0.3972
O4 O 0.6593(2) 0.80681(18) 0.36917(18)
H11 H 0.7143 0.7572 0.3285
C6 C 0.5865(4) 0.9439(3) 0.1630(3)
H12 H 0.6174 1.0177 0.1979
C7 C 0.6685(4) 0.8942(3) 0.0720(3)
H13 H 0.7692 0.9280 0.0347
O5 O 0.5897(3) 0.78429(17) 0.03588(17)
C8 C 0.4446(4) 0.7666(2) 0.1073(2)
C9 C 0.4345(3) 0.8639(2) 0.2030(2)
C10 C 0.4744(3) 0.8079(2) 0.3330(2)
H14 H 0.4269 0.7253 0.3348
C11 C 0.3605(3) 0.88676(19) 0.4154(2)
H15 H 0.4142 0.9676 0.4151
C12 C 0.3388(3) 0.8490(2) 0.5502(2)
C13 C 0.1974(3) 0.9392(2) 0.6031(2)
H16 H 0.2496 1.0189 0.5874
C14 C 0.1757(3) 0.9355(2) 0.7436(2)
C15 C 0.0677(3) 1.0485(2) 0.7772(2)
C16 C 0.1809(3) 0.8929(2) 0.3425(2)
H17 H 0.1279 0.8118 0.3429
C17 C 0.2384(4) 0.9191(2) 0.2113(2)
H18 H 0.1574 0.8736 0.1561
C18 C 0.2294(5) 1.0512(3) 0.1742(3)
H19 H 0.1045 1.0774 0.1723
H20 H 0.2801 1.0607 0.0949
H21 H 0.2980 1.0988 0.2319
C19 C 0.2802(4) 0.7159(2) 0.5555(3)
H22 H 0.3620 0.6680 0.5085
H23 H 0.1583 0.7079 0.5228
H24 H 0.2837 0.6889 0.6384
C20 C 0.0767(4) 0.8231(2) 0.7922(3)
H25 H 0.0507 0.8344 0.8766
H26 H 0.1533 0.7536 0.7832
H27 H -0.0353 0.8114 0.7470
H28 H -0.165(5) 1.079(4) 0.844(4)
loop_
_geom_bond_atom_site_label_1
_geom_bond_atom_site_label_2
_geom_bond_site_symmetry_1
_geom_bond_site_symmetry_2
O1 C8 1_555 1_555
O2 C15 1_555 1_555
O3 C15 1_555 1_555
C1 H1 1_555 1_555
H2 C1 1_555 1_555
C2 C1 1_555 1_555
H3 C2 1_555 1_555
H4 C2 1_555 1_555
C3 C2 1_555 1_555
H5 C3 1_555 1_555
H6 C3 1_555 1_555
C4 H7 1_555 1_555
H8 C4 1_555 1_555
C5 C4 1_555 1_555
H9 C5 1_555 1_555
H10 C5 1_555 1_555
O4 H11 1_555 1_555
C6 H12 1_555 1_555
C7 C6 1_555 1_555
H13 C7 1_555 1_555
O5 C7 1_555 1_555
C8 O5 1_555 1_555
C9 C6 1_555 1_555
C10 O4 1_555 1_555
H14 C10 1_555 1_555
C11 C10 1_555 1_555
H15 C11 1_555 1_555
C12 C3 1_555 1_555
C13 C4 1_555 1_555
H16 C13 1_555 1_555
C14 C1 1_555 1_555
C15 C14 1_555 1_555
C16 C5 1_555 1_555
H17 C16 1_555 1_555
C17 C9 1_555 1_555
H18 C17 1_555 1_555
C18 C17 1_555 1_555
H19 C18 1_555 1_555
H20 C18 1_555 1_555
H21 C18 1_555 1_555
C19 C12 1_555 1_555
H22 C19 1_555 1_555
H23 C19 1_555 1_555
H24 C19 1_555 1_555
C20 C14 1_555 1_555
H25 C20 1_555 1_555
H26 C20 1_555 1_555
H27 C20 1_555 1_555
H28 O2 1_555 1_555
C8 C9 1_555 1_555
C9 C10 1_555 1_555
C11 C12 1_555 1_555
C11 C16 1_555 1_555
C12 C13 1_555 1_555
C13 C14 1_555 1_555
C16 C17 1_555 1_555

#END
