
#######################################################################
#
#                 Cambridge Crystallographic Data Centre
#                                CCDC 
#
#######################################################################
#
# If this CIF has been generated from an entry in the Cambridge 
# Structural Database, then it will include bibliographic, chemical, 
# crystal, experimental, refinement or atomic coordinate data resulting 
# from the CCDC's data processing and validation procedures.
#
#######################################################################

data_AMAWIW
_chemical_formula_moiety         'C25 H29 N1 O5 S1'
_chemical_name_systematic        
5,5,8a-trimethyl-3-((4-methylphenyl)sulfonyl)-2-(4-nitrophenyl)-4a,5,6,7,8,8a-hexahydro-4H-chromene
_symmetry_cell_setting           orthorhombic
_symmetry_space_group_name_H-M   'P b c n'
_symmetry_Int_Tables_number      60
_space_group_name_Hall           '-P 2n 2ab'
loop_
_symmetry_equiv_pos_site_id
_symmetry_equiv_pos_as_xyz
1 x,y,z
2 1/2-x,1/2-y,1/2+z
3 -x,y,1/2-z
4 1/2+x,1/2-y,-z
5 -x,-y,-z
6 1/2+x,1/2+y,1/2-z
7 x,-y,1/2+z
8 1/2-x,1/2+y,z
_cell_length_a                   18.8743(11)
_cell_length_b                   10.8665(5)
_cell_length_c                   22.3032(11)
_cell_angle_alpha                90
_cell_angle_beta                 90
_cell_angle_gamma                90
_cell_volume                     4574.33
_exptl_crystal_colour            colorless
_cell_formula_units_Z            8
loop_
_atom_site_label
_atom_site_type_symbol
_atom_site_fract_x
_atom_site_fract_y
_atom_site_fract_z
C1 C 0.44630(13) 0.5432(2) 0.31640(10)
C2 C 0.42567(13) 0.4283(2) 0.29725(10)
H1 H 0.3866 0.4187 0.2722
C3 C 0.46415(12) 0.3278(2) 0.31600(9)
H2 H 0.4514 0.2493 0.3033
C4 C 0.52207(11) 0.34305(19) 0.35386(8)
C5 C 0.54041(13) 0.4601(2) 0.37322(10)
H3 H 0.5784 0.4701 0.3993
C6 C 0.50296(13) 0.5616(2) 0.35417(10)
H4 H 0.5156 0.6403 0.3665
C7 C 0.56474(12) 0.23296(18) 0.37004(9)
C8 C 0.57289(11) 0.18153(17) 0.42415(8)
C9 C 0.62001(12) 0.07224(18) 0.43489(9)
H5 H 0.5913 0.0003 0.4433
H6 H 0.6500 0.0875 0.4694
C10 C 0.66584(11) 0.04854(17) 0.37978(8)
H7 H 0.6991 0.1177 0.3782
C11 C 0.62161(12) 0.05881(19) 0.32268(9)
C12 C 0.71292(12) -0.06842(19) 0.38321(10)
C13 C 0.75700(13) -0.0732(2) 0.32559(10)
H8 H 0.7904 -0.0055 0.3260
H9 H 0.7841 -0.1491 0.3253
C14 C 0.71374(14) -0.0664(2) 0.26852(11)
H10 H 0.6836 -0.1385 0.2656
H11 H 0.7453 -0.0659 0.2342
C15 C 0.66813(14) 0.0489(2) 0.26765(10)
H12 H 0.6985 0.1207 0.2654
H13 H 0.6385 0.0480 0.2321
C16 C 0.55701(14) -0.0251(2) 0.32002(12)
H14 H 0.5382 -0.0359 0.3597
H15 H 0.5706 -0.1036 0.3040
H16 H 0.5216 0.0114 0.2947
C17 C 0.67115(15) -0.1878(2) 0.39141(13)
H17 H 0.7031 -0.2533 0.4015
H18 H 0.6469 -0.2075 0.3548
H19 H 0.6372 -0.1775 0.4231
C18 C 0.76268(14) -0.0557(3) 0.43674(11)
H20 H 0.7972 -0.1204 0.4357
H21 H 0.7359 -0.0611 0.4732
H22 H 0.7862 0.0225 0.4350
C19 C 0.43681(13) 0.24513(18) 0.46135(9)
C20 C 0.40100(14) 0.3563(2) 0.46309(10)
H23 H 0.4229 0.4267 0.4778
C21 C 0.33178(15) 0.3605(2) 0.44243(12)
H24 H 0.3072 0.4347 0.4438
C22 C 0.29855(15) 0.2578(3) 0.41987(12)
C23 C 0.33592(14) 0.1481(2) 0.41801(12)
H25 H 0.3143 0.0783 0.4023
C24 C 0.40461(13) 0.1406(2) 0.43902(10)
H26 H 0.4289 0.0661 0.4381
C25 C 0.22270(18) 0.2631(4) 0.39799(18)
H27 H 0.1951 0.2022 0.4186
H28 H 0.2215 0.2472 0.3557
H29 H 0.2035 0.3433 0.4058
N1 N 0.40797(13) 0.6517(2) 0.29403(11)
O1 O 0.42920(14) 0.75345(18) 0.30686(12)
O2 O 0.35548(14) 0.6347(2) 0.26381(13)
O3 O 0.54821(10) 0.35634(14) 0.50352(7)
O4 O 0.52876(9) 0.14022(14) 0.53107(7)
O5 O 0.59479(8) 0.18612(14) 0.31961(6)
S1 S 0.52491(3) 0.23573(5) 0.48653(2)
loop_
_geom_bond_atom_site_label_1
_geom_bond_atom_site_label_2
_geom_bond_site_symmetry_1
_geom_bond_site_symmetry_2
C1 C2 1_555 1_555
C2 H1 1_555 1_555
C3 C2 1_555 1_555
H2 C3 1_555 1_555
C4 C3 1_555 1_555
C5 C4 1_555 1_555
H3 C5 1_555 1_555
C6 C1 1_555 1_555
H4 C6 1_555 1_555
C7 C4 1_555 1_555
C8 C7 1_555 1_555
C9 C8 1_555 1_555
H5 C9 1_555 1_555
H6 C9 1_555 1_555
C10 C9 1_555 1_555
H7 C10 1_555 1_555
C11 C10 1_555 1_555
C12 C10 1_555 1_555
C13 C12 1_555 1_555
H8 C13 1_555 1_555
H9 C13 1_555 1_555
C14 C13 1_555 1_555
H10 C14 1_555 1_555
H11 C14 1_555 1_555
C15 C11 1_555 1_555
H12 C15 1_555 1_555
H13 C15 1_555 1_555
C16 C11 1_555 1_555
H14 C16 1_555 1_555
H15 C16 1_555 1_555
H16 C16 1_555 1_555
C17 C12 1_555 1_555
H17 C17 1_555 1_555
H18 C17 1_555 1_555
H19 C17 1_555 1_555
C18 C12 1_555 1_555
H20 C18 1_555 1_555
H21 C18 1_555 1_555
H22 C18 1_555 1_555
C19 C20 1_555 1_555
C20 H23 1_555 1_555
C21 C20 1_555 1_555
H24 C21 1_555 1_555
C22 C21 1_555 1_555
C23 C22 1_555 1_555
H25 C23 1_555 1_555
C24 C19 1_555 1_555
H26 C24 1_555 1_555
C25 C22 1_555 1_555
H27 C25 1_555 1_555
H28 C25 1_555 1_555
H29 C25 1_555 1_555
N1 C1 1_555 1_555
O1 N1 1_555 1_555
O2 N1 1_555 1_555
O3 S1 1_555 1_555
O4 S1 1_555 1_555
O5 C7 1_555 1_555
S1 C8 1_555 1_555
C5 C6 1_555 1_555
C11 O5 1_555 1_555
C14 C15 1_555 1_555
C19 S1 1_555 1_555
C23 C24 1_555 1_555

#END
