
#######################################################################
#
#                 Cambridge Crystallographic Data Centre
#                                CCDC 
#
#######################################################################
#
# If this CIF has been generated from an entry in the Cambridge 
# Structural Database, then it will include bibliographic, chemical, 
# crystal, experimental, refinement or atomic coordinate data resulting 
# from the CCDC's data processing and validation procedures.
#
#######################################################################

data_AMAWES
_chemical_formula_moiety         'C26 H29 F3 O3 S1'
_chemical_name_systematic        
5,5,8a-trimethyl-3-((4-methylphenyl)sulfonyl)-2-(4-(trifluoromethyl)phenyl)-4a,5,6,7,8,8a-hexahydro-4H-chromene
_symmetry_cell_setting           orthorhombic
_symmetry_space_group_name_H-M   'P b c n'
_symmetry_Int_Tables_number      60
_space_group_name_Hall           '-P 2n 2ab'
loop_
_symmetry_equiv_pos_site_id
_symmetry_equiv_pos_as_xyz
1 x,y,z
2 1/2-x,1/2-y,1/2+z
3 -x,y,1/2-z
4 1/2+x,1/2-y,-z
5 -x,-y,-z
6 1/2+x,1/2+y,1/2-z
7 x,-y,1/2+z
8 1/2-x,1/2+y,z
_cell_length_a                   19.064(10)
_cell_length_b                   10.973(6)
_cell_length_c                   22.586(10)
_cell_angle_alpha                90
_cell_angle_beta                 90
_cell_angle_gamma                90
_cell_volume                     4724.75
_exptl_crystal_colour            colorless
_cell_formula_units_Z            8
loop_
_atom_site_label
_atom_site_type_symbol
_atom_site_fract_x
_atom_site_fract_y
_atom_site_fract_z
C1 C 0.5991(3) 0.6278(4) 0.3041(2)
C2 C 0.55522(18) 0.5228(3) 0.32215(14)
C3 C 0.49827(19) 0.5394(3) 0.35780(15)
H1 H 0.4867 0.6169 0.3713
C4 C 0.45793(17) 0.4404(3) 0.37367(14)
H2 H 0.4189 0.4513 0.3978
C5 C 0.47507(15) 0.3257(3) 0.35409(13)
C6 C 0.53234(17) 0.3108(3) 0.31763(14)
H3 H 0.5437 0.2336 0.3037
C7 C 0.57273(19) 0.4088(3) 0.30158(14)
H4 H 0.6115 0.3983 0.2771
C8 C 0.43325(15) 0.2168(3) 0.36996(13)
C9 C 0.42351(15) 0.1680(2) 0.42337(12)
C10 C 0.37796(16) 0.0584(2) 0.43341(12)
H5 H 0.3471 0.0729 0.4668
H6 H 0.4070 -0.0117 0.4425
C11 C 0.33458(14) 0.0326(2) 0.37830(12)
H7 H 0.3016 0.1008 0.3753
C12 C 0.28833(15) -0.0829(3) 0.38174(14)
C13 C 0.24729(18) -0.0910(3) 0.32362(15)
H8 H 0.2209 -0.1665 0.3234
H9 H 0.2139 -0.0244 0.3222
C14 C 0.29228(19) -0.0862(3) 0.26882(16)
H10 H 0.2625 -0.0884 0.2340
H11 H 0.3227 -0.1570 0.2678
C15 C 0.33640(19) 0.0281(3) 0.26760(14)
H12 H 0.3060 0.0984 0.2637
H13 H 0.3671 0.0258 0.2333
C16 C 0.38034(16) 0.0414(3) 0.32310(13)
C17 C 0.44499(17) -0.0391(3) 0.32284(17)
H14 H 0.4778 -0.0092 0.2941
H15 H 0.4318 -0.1211 0.3129
H16 H 0.4663 -0.0381 0.3613
C18 C 0.32898(19) -0.2007(3) 0.39249(18)
H17 H 0.2966 -0.2656 0.4006
H18 H 0.3598 -0.1901 0.4257
H19 H 0.3560 -0.2203 0.3579
C19 C 0.23684(17) -0.0676(3) 0.43274(15)
H20 H 0.2034 -0.1330 0.4320
H21 H 0.2127 0.0088 0.4287
H22 H 0.2619 -0.0689 0.4696
C20 C 0.55209(15) 0.2525(2) 0.46689(13)
C21 C 0.57989(16) 0.3679(3) 0.47141(13)
H23 H 0.5527 0.4319 0.4857
C22 C 0.64779(17) 0.3873(3) 0.45475(14)
H24 H 0.6665 0.4652 0.4581
C23 C 0.68904(18) 0.2953(3) 0.43330(15)
C24 C 0.65985(18) 0.1802(3) 0.42884(15)
H25 H 0.6870 0.1166 0.4142
C25 C 0.59210(17) 0.1575(3) 0.44540(14)
H26 H 0.5733 0.0795 0.4422
C26 C 0.7639(2) 0.3177(4) 0.4152(2)
H27 H 0.7679 0.3111 0.3729
H28 H 0.7937 0.2583 0.4336
H29 H 0.7778 0.3979 0.4274
F1 F 0.66495(19) 0.6125(3) 0.3162(2)
F2 F 0.6013(3) 0.6444(4) 0.24851(15)
F3 F 0.58570(18) 0.7282(2) 0.32957(19)
O1 O 0.46367(12) 0.12955(19) 0.52993(9)
O2 O 0.43422(12) 0.33967(18) 0.50403(10)
O3 O 0.40637(11) 0.16741(19) 0.31961(9)
S1 S 0.46470(4) 0.22575(6) 0.48718(3)
loop_
_geom_bond_atom_site_label_1
_geom_bond_atom_site_label_2
_geom_bond_site_symmetry_1
_geom_bond_site_symmetry_2
C1 C2 1_555 1_555
C2 C3 1_555 1_555
C3 H1 1_555 1_555
C4 C3 1_555 1_555
H2 C4 1_555 1_555
C5 C4 1_555 1_555
C6 C5 1_555 1_555
H3 C6 1_555 1_555
C7 C2 1_555 1_555
H4 C7 1_555 1_555
C8 C5 1_555 1_555
C9 C8 1_555 1_555
C10 C9 1_555 1_555
H5 C10 1_555 1_555
H6 C10 1_555 1_555
C11 C10 1_555 1_555
H7 C11 1_555 1_555
C12 C11 1_555 1_555
C13 C12 1_555 1_555
H8 C13 1_555 1_555
H9 C13 1_555 1_555
C14 C13 1_555 1_555
H10 C14 1_555 1_555
H11 C14 1_555 1_555
C15 C14 1_555 1_555
H12 C15 1_555 1_555
H13 C15 1_555 1_555
C16 C11 1_555 1_555
C17 C16 1_555 1_555
H14 C17 1_555 1_555
H15 C17 1_555 1_555
H16 C17 1_555 1_555
C18 C12 1_555 1_555
H17 C18 1_555 1_555
H18 C18 1_555 1_555
H19 C18 1_555 1_555
C19 C12 1_555 1_555
H20 C19 1_555 1_555
H21 C19 1_555 1_555
H22 C19 1_555 1_555
C20 C21 1_555 1_555
C21 H23 1_555 1_555
C22 C21 1_555 1_555
H24 C22 1_555 1_555
C23 C22 1_555 1_555
C24 C23 1_555 1_555
H25 C24 1_555 1_555
C25 C20 1_555 1_555
H26 C25 1_555 1_555
C26 C23 1_555 1_555
H27 C26 1_555 1_555
H28 C26 1_555 1_555
H29 C26 1_555 1_555
F1 C1 1_555 1_555
F2 C1 1_555 1_555
F3 C1 1_555 1_555
O1 S1 1_555 1_555
O2 S1 1_555 1_555
O3 C8 1_555 1_555
S1 C9 1_555 1_555
C6 C7 1_555 1_555
C15 C16 1_555 1_555
C16 O3 1_555 1_555
C20 S1 1_555 1_555
C24 C25 1_555 1_555

#END
