
#######################################################################
#
#                 Cambridge Crystallographic Data Centre
#                                CCDC 
#
#######################################################################
#
# If this CIF has been generated from an entry in the Cambridge 
# Structural Database, then it will include bibliographic, chemical, 
# crystal, experimental, refinement or atomic coordinate data resulting 
# from the CCDC's data processing and validation procedures.
#
#######################################################################

data_AMEXOF
_chemical_name_common            
4,6-bis(2-(6-Diethylaminocarbonylpyridyl))pyrimidine
_chemical_formula_moiety         'C24 H28 N6 O2'
_chemical_name_systematic        
'Pyrimidine-4,6-diylbis(N,N-diethyl 2-pyridyl-6-carboxamide)'
_symmetry_cell_setting           triclinic
_symmetry_space_group_name_H-M   'P -1'
_symmetry_Int_Tables_number      2
_space_group_name_Hall           '-P 1'
loop_
_symmetry_equiv_pos_site_id
_symmetry_equiv_pos_as_xyz
1 x,y,z
2 -x,-y,-z
_cell_length_a                   10.457(2)
_cell_length_b                   10.713(2)
_cell_length_c                   11.242(2)
_cell_angle_alpha                86.98(3)
_cell_angle_beta                 77.11(3)
_cell_angle_gamma                67.49(3)
_cell_volume                     1133.38
_exptl_crystal_colour            colorless
_exptl_crystal_description       block
_chemical_melting_point          123deg.C
_cell_formula_units_Z            2
loop_
_atom_site_label
_atom_site_type_symbol
_atom_site_fract_x
_atom_site_fract_y
_atom_site_fract_z
N1 N 0.5416(2) 1.15682(17) 0.31754(17)
C1 C 0.4578(3) 1.2452(2) 0.2530(2)
H1 H 0.447(3) 1.341(3) 0.263(2)
N2 N 0.3829(2) 1.22240(17) 0.18160(17)
C2 C 0.3940(2) 1.0942(2) 0.17461(18)
C3 C 0.4788(2) 0.9941(2) 0.23710(19)
H2 H 0.487(2) 0.907(3) 0.230(2)
C4 C 0.5519(2) 1.0291(2) 0.30845(18)
C5 C 0.6458(2) 0.9273(2) 0.37846(18)
N3 N 0.65746(19) 0.79922(17) 0.36571(15)
C6 C 0.7413(2) 0.7044(2) 0.42661(19)
C7 C 0.8157(3) 0.7334(2) 0.5018(2)
H3 H 0.871(3) 0.665(2) 0.544(2)
C8 C 0.8020(3) 0.8654(2) 0.5146(2)
H4 H 0.858(2) 0.889(2) 0.5637(19)
C9 C 0.7166(2) 0.9638(2) 0.4522(2)
H5 H 0.701(2) 1.058(2) 0.461(2)
C10 C 0.3123(2) 1.0633(2) 0.09552(18)
N4 N 0.30794(19) 0.93985(16) 0.10602(15)
C11 C 0.2400(2) 0.9046(2) 0.03528(18)
C12 C 0.1766(2) 0.9896(2) -0.0499(2)
H6 H 0.134(2) 0.955(2) -0.100(2)
C13 C 0.1768(3) 1.1172(2) -0.0566(2)
H7 H 0.130(3) 1.179(2) -0.114(2)
C14 C 0.2456(3) 1.1557(2) 0.0168(2)
H8 H 0.250(2) 1.242(3) 0.015(2)
C15 C 0.2443(2) 0.7632(2) 0.0456(2)
O1 O 0.2976(2) 0.68695(17) -0.04506(15)
N5 N 0.1925(2) 0.72451(16) 0.15481(16)
C16 C 0.1023(3) 0.8197(3) 0.2559(2)
H9 H 0.015(3) 0.794(2) 0.289(2)
H10 H 0.062(3) 0.914(3) 0.228(2)
C17 C 0.1723(4) 0.8188(3) 0.3591(3)
H11 H 0.103(3) 0.882(3) 0.425(3)
H12 H 0.260(3) 0.840(3) 0.330(3)
H13 H 0.206(3) 0.723(3) 0.393(3)
C18 C 0.2149(3) 0.5817(2) 0.1725(3)
H14 H 0.230(3) 0.563(2) 0.257(2)
H15 H 0.304(3) 0.532(3) 0.115(2)
C19 C 0.0917(4) 0.5482(3) 0.1572(4)
H16 H 0.111(3) 0.452(4) 0.177(3)
H17 H 0.071(4) 0.580(3) 0.071(3)
H18 H 0.007(4) 0.597(3) 0.218(3)
C20 C 0.7516(3) 0.5598(2) 0.4225(2)
O2 O 0.7792(3) 0.49418(19) 0.51204(18)
N6 N 0.7309(2) 0.50609(18) 0.32727(17)
C21 C 0.7115(3) 0.5690(3) 0.2098(2)
H19 H 0.777(3) 0.493(3) 0.144(2)
H20 H 0.749(3) 0.651(3) 0.204(2)
C22 C 0.5648(4) 0.6140(3) 0.1919(4)
H21 H 0.552(4) 0.666(4) 0.119(3)
H22 H 0.501(4) 0.656(3) 0.278(3)
H23 H 0.538(4) 0.530(4) 0.190(3)
C23 C 0.7399(4) 0.3657(3) 0.3347(3)
H24 H 0.681(3) 0.353(3) 0.282(2)
H25 H 0.694(3) 0.352(3) 0.424(3)
C24 C 0.8885(5) 0.2659(3) 0.2934(4)
H26 H 0.897(4) 0.168(4) 0.302(3)
H27 H 0.952(4) 0.282(3) 0.346(3)
H28 H 0.931(4) 0.283(4) 0.207(3)
loop_
_geom_bond_atom_site_label_1
_geom_bond_atom_site_label_2
_geom_bond_site_symmetry_1
_geom_bond_site_symmetry_2
N1 C1 1_555 1_555
C1 H1 1_555 1_555
N2 C1 1_555 1_555
C2 N2 1_555 1_555
C3 C2 1_555 1_555
H2 C3 1_555 1_555
C4 N1 1_555 1_555
C5 C4 1_555 1_555
N3 C5 1_555 1_555
C6 N3 1_555 1_555
C7 C6 1_555 1_555
H3 C7 1_555 1_555
C8 C7 1_555 1_555
H4 C8 1_555 1_555
C9 C5 1_555 1_555
H5 C9 1_555 1_555
C10 C2 1_555 1_555
N4 C10 1_555 1_555
C11 N4 1_555 1_555
C12 C11 1_555 1_555
H6 C12 1_555 1_555
C13 C12 1_555 1_555
H7 C13 1_555 1_555
C14 C10 1_555 1_555
H8 C14 1_555 1_555
C15 C11 1_555 1_555
O1 C15 1_555 1_555
N5 C15 1_555 1_555
C16 N5 1_555 1_555
H9 C16 1_555 1_555
H10 C16 1_555 1_555
C17 C16 1_555 1_555
H11 C17 1_555 1_555
H12 C17 1_555 1_555
H13 C17 1_555 1_555
C18 N5 1_555 1_555
H14 C18 1_555 1_555
H15 C18 1_555 1_555
C19 C18 1_555 1_555
H16 C19 1_555 1_555
H17 C19 1_555 1_555
H18 C19 1_555 1_555
C20 C6 1_555 1_555
O2 C20 1_555 1_555
N6 C20 1_555 1_555
C21 N6 1_555 1_555
H19 C21 1_555 1_555
H20 C21 1_555 1_555
C22 C21 1_555 1_555
H21 C22 1_555 1_555
H22 C22 1_555 1_555
H23 C22 1_555 1_555
C23 N6 1_555 1_555
H24 C23 1_555 1_555
H25 C23 1_555 1_555
C24 C23 1_555 1_555
H26 C24 1_555 1_555
H27 C24 1_555 1_555
H28 C24 1_555 1_555
C3 C4 1_555 1_555
C8 C9 1_555 1_555
C13 C14 1_555 1_555

#END
