
#######################################################################
#
#                 Cambridge Crystallographic Data Centre
#                                CCDC 
#
#######################################################################
#
# If this CIF has been generated from an entry in the Cambridge 
# Structural Database, then it will include bibliographic, chemical, 
# crystal, experimental, refinement or atomic coordinate data resulting 
# from the CCDC's data processing and validation procedures.
#
#######################################################################

data_AMILEP
_chemical_formula_moiety         'C13 H9 N1 O5'
_chemical_name_systematic        '5-(4-carboxyphenoxy)nicotinic acid'
_symmetry_cell_setting           triclinic
_symmetry_space_group_name_H-M   'P -1'
_symmetry_Int_Tables_number      2
_space_group_name_Hall           '-P 1'
loop_
_symmetry_equiv_pos_site_id
_symmetry_equiv_pos_as_xyz
1 x,y,z
2 -x,-y,-z
_cell_length_a                   7.6228(12)
_cell_length_b                   10.5401(16)
_cell_length_c                   14.669(2)
_cell_angle_alpha                94.801(2)
_cell_angle_beta                 91.188(2)
_cell_angle_gamma                105.664(2)
_cell_volume                     1129.68
_exptl_crystal_colour            yellow
_exptl_crystal_description       block
_cell_formula_units_Z            4
loop_
_atom_site_label
_atom_site_type_symbol
_atom_site_fract_x
_atom_site_fract_y
_atom_site_fract_z
C1 C -0.2219(2) 0.84948(16) 0.03660(11)
C2 C -0.1585(2) 0.98296(16) 0.08807(10)
C3 C -0.2487(2) 1.07929(17) 0.07837(12)
H1 H -0.3530 1.0582 0.0399
C4 C -0.0434(2) 1.22868(17) 0.17618(11)
H2 H -0.0019 1.3133 0.2061
C5 C 0.0538(2) 1.13823(16) 0.19083(11)
C6 C -0.0028(2) 1.01280(16) 0.14593(11)
H3 H 0.0608 0.9504 0.1540
C7 C 0.2907(2) 1.09943(16) 0.28565(11)
C8 C 0.1975(2) 1.00702(17) 0.34137(12)
H4 H 0.0739 0.9959 0.3500
C9 C 0.2905(2) 0.93139(17) 0.38411(11)
H5 H 0.2291 0.8686 0.4217
C10 C 0.4756(2) 0.94816(16) 0.37153(11)
C11 C 0.5655(2) 1.04158(17) 0.31481(12)
H6 H 0.6891 1.0534 0.3060
C12 C 0.4732(2) 1.11681(17) 0.27160(12)
H7 H 0.5336 1.1788 0.2333
C13 C 0.5749(2) 0.86811(17) 0.41817(11)
N1 N -0.1931(2) 1.20118(14) 0.12166(10)
O1 O -0.36836(16) 0.83144(12) -0.01562(8)
H8 H -0.3955 0.7564 -0.0417
O2 O -0.14177(17) 0.76496(12) 0.04310(9)
O3 O 0.20895(17) 1.18616(11) 0.24655(9)
O4 O 0.48900(17) 0.77686(13) 0.46379(9)
O5 O 0.74707(17) 0.89541(14) 0.40971(10)
H9 H 0.7900 0.8503 0.4420
C14 C 0.7412(3) 0.30062(18) 0.88118(12)
C15 C 0.6197(2) 0.38721(16) 0.86516(11)
C16 C 0.4688(2) 0.34002(16) 0.80572(11)
H10 H 0.4431 0.2555 0.7755
C17 C 0.3570(2) 0.42053(16) 0.79199(11)
C18 C 0.3952(2) 0.54413(16) 0.84028(11)
H11 H 0.3160 0.5964 0.8332
C19 C 0.6539(2) 0.51412(17) 0.90827(11)
H12 H 0.7579 0.5472 0.9466
C20 C 0.1232(2) 0.44958(16) 0.68993(12)
C21 C -0.0645(2) 0.41204(17) 0.68498(12)
H13 H -0.1287 0.3382 0.7126
C22 C -0.1566(2) 0.48489(17) 0.63875(12)
H14 H -0.2834 0.4605 0.6358
C23 C -0.0615(2) 0.59437(16) 0.59665(10)
C24 C 0.1279(2) 0.62864(17) 0.60047(11)
H15 H 0.1925 0.7008 0.5713
C25 C 0.2213(2) 0.55671(18) 0.64706(12)
H16 H 0.3481 0.5799 0.6496
C26 C -0.1614(2) 0.67191(17) 0.54715(11)
N2 N 0.54267(19) 0.59051(13) 0.89671(9)
O6 O 0.8922(2) 0.36453(14) 0.92862(11)
H17 H 0.9546 0.3136 0.9362
O7 O 0.7065(2) 0.18671(14) 0.85164(10)
O8 O 0.20474(18) 0.36795(12) 0.73451(10)
O9 O -0.33493(16) 0.63633(14) 0.54884(10)
H18 H -0.3772 0.6862 0.5208
O10 O -0.07470(17) 0.76716(13) 0.50576(9)
loop_
_geom_bond_atom_site_label_1
_geom_bond_atom_site_label_2
_geom_bond_site_symmetry_1
_geom_bond_site_symmetry_2
C1 C2 1_555 1_555
C2 C3 1_555 1_555
C3 H1 1_555 1_555
C4 H2 1_555 1_555
C5 C4 1_555 1_555
C6 C2 1_555 1_555
H3 C6 1_555 1_555
C7 C8 1_555 1_555
C8 H4 1_555 1_555
C9 C8 1_555 1_555
H5 C9 1_555 1_555
C10 C9 1_555 1_555
C11 C10 1_555 1_555
H6 C11 1_555 1_555
C12 C7 1_555 1_555
H7 C12 1_555 1_555
C13 C10 1_555 1_555
N1 C3 1_555 1_555
O1 C1 1_555 1_555
H8 O1 1_555 1_555
O2 C1 1_555 1_555
O3 C5 1_555 1_555
O4 C13 1_555 1_555
O5 C13 1_555 1_555
H9 O5 1_555 1_555
C14 C15 1_555 1_555
C15 C16 1_555 1_555
C16 H10 1_555 1_555
C17 C16 1_555 1_555
C18 C17 1_555 1_555
H11 C18 1_555 1_555
C19 C15 1_555 1_555
H12 C19 1_555 1_555
C20 C21 1_555 1_555
C21 H13 1_555 1_555
C22 C21 1_555 1_555
H14 C22 1_555 1_555
C23 C22 1_555 1_555
C24 C23 1_555 1_555
H15 C24 1_555 1_555
C25 C20 1_555 1_555
H16 C25 1_555 1_555
C26 C23 1_555 1_555
N2 C18 1_555 1_555
O6 C14 1_555 1_555
H17 O6 1_555 1_555
O7 C14 1_555 1_555
O8 C17 1_555 1_555
O9 C26 1_555 1_555
H18 O9 1_555 1_555
O10 C26 1_555 1_555
C4 N1 1_555 1_555
C5 C6 1_555 1_555
C7 O3 1_555 1_555
C11 C12 1_555 1_555
C19 N2 1_555 1_555
C20 O8 1_555 1_555
C24 C25 1_555 1_555

#END
