
#######################################################################
#
#                 Cambridge Crystallographic Data Centre
#                                CCDC 
#
#######################################################################
#
# If this CIF has been generated from an entry in the Cambridge 
# Structural Database, then it will include bibliographic, chemical, 
# crystal, experimental, refinement or atomic coordinate data resulting 
# from the CCDC's data processing and validation procedures.
#
#######################################################################

data_AMIVEY
_chemical_formula_moiety         'C14 H11 N3 O3'
_chemical_name_systematic        '(Isonicotinoylhydrazono)(phenyl)acetic acid'
_symmetry_cell_setting           monoclinic
_symmetry_space_group_name_H-M   'P 21/c'
_symmetry_Int_Tables_number      14
_space_group_name_Hall           '-P 2ybc'
loop_
_symmetry_equiv_pos_site_id
_symmetry_equiv_pos_as_xyz
1 x,y,z
2 -x,1/2+y,1/2-z
3 -x,-y,-z
4 x,1/2-y,1/2+z
_cell_length_a                   7.3422(7)
_cell_length_b                   17.5751(18)
_cell_length_c                   10.4566(11)
_cell_angle_alpha                90
_cell_angle_beta                 110.0520(10)
_cell_angle_gamma                90
_cell_volume                     1267.53
_exptl_crystal_colour            colorless
_exptl_crystal_description       block
_cell_formula_units_Z            4
loop_
_atom_site_label
_atom_site_type_symbol
_atom_site_fract_x
_atom_site_fract_y
_atom_site_fract_z
O1 O -0.2626(3) 0.41596(11) -0.34038(18)
H1 H -0.3490 0.3963 -0.4037
N1 N 0.1136(3) 0.35403(12) -0.0443(2)
N2 N 0.0461(3) 0.28263(13) -0.0288(2)
H2 H -0.0516 0.2640 -0.0928
N3 N 0.4791(3) 0.34982(13) 0.4551(2)
C1 C 0.1315(4) 0.24141(16) 0.0856(2)
C2 C 0.2529(4) 0.28210(16) 0.2130(2)
C3 C 0.0254(4) 0.39206(15) -0.1539(2)
O2 O 0.1069(3) 0.17265(12) 0.08659(18)
C4 C -0.1563(4) 0.36376(18) -0.2652(2)
C5 C 0.2100(4) 0.35461(16) 0.2479(3)
H3 H 0.1044 0.3813 0.1900
C6 C 0.1156(4) 0.46665(14) -0.1643(2)
O3 O -0.1959(3) 0.29487(12) -0.27486(18)
C7 C 0.4088(4) 0.24341(16) 0.3033(3)
H4 H 0.4389 0.1944 0.2837
C8 C 0.2191(4) 0.50732(16) -0.0466(3)
H5 H 0.2259 0.4885 0.0380
C9 C 0.3265(4) 0.38704(17) 0.3705(2)
H6 H 0.2975 0.4355 0.3938
C10 C 0.5188(4) 0.27886(18) 0.4228(3)
H7 H 0.6236 0.2529 0.4831
C11 C 0.1127(4) 0.49648(16) -0.2891(3)
H8 H 0.0472 0.4704 -0.3691
C12 C 0.3114(4) 0.57503(17) -0.0537(3)
H9 H 0.3774 0.6017 0.0255
C13 C 0.3055(4) 0.60285(18) -0.1777(3)
H10 H 0.3690 0.6480 -0.1823
C14 C 0.2054(5) 0.56393(18) -0.2954(3)
H11 H 0.2004 0.5832 -0.3794
loop_
_geom_bond_atom_site_label_1
_geom_bond_atom_site_label_2
_geom_bond_site_symmetry_1
_geom_bond_site_symmetry_2
O1 H1 1_555 1_555
N1 N2 1_555 1_555
N2 H2 1_555 1_555
N3 C9 1_555 1_555
C1 N2 1_555 1_555
C2 C1 1_555 1_555
C3 N1 1_555 1_555
O2 C1 1_555 1_555
C4 O1 1_555 1_555
C5 C2 1_555 1_555
H3 C5 1_555 1_555
C6 C3 1_555 1_555
O3 C4 1_555 1_555
C7 C2 1_555 1_555
H4 C7 1_555 1_555
C8 C6 1_555 1_555
H5 C8 1_555 1_555
C9 C5 1_555 1_555
H6 C9 1_555 1_555
C10 N3 1_555 1_555
H7 C10 1_555 1_555
C11 C6 1_555 1_555
H8 C11 1_555 1_555
C12 C8 1_555 1_555
H9 C12 1_555 1_555
C13 C12 1_555 1_555
H10 C13 1_555 1_555
C14 C11 1_555 1_555
H11 C14 1_555 1_555
C3 C4 1_555 1_555
C7 C10 1_555 1_555
C13 C14 1_555 1_555

#END
