
#######################################################################
#
#                 Cambridge Crystallographic Data Centre
#                                CCDC 
#
#######################################################################
#
# If this CIF has been generated from an entry in the Cambridge 
# Structural Database, then it will include bibliographic, chemical, 
# crystal, experimental, refinement or atomic coordinate data resulting 
# from the CCDC's data processing and validation procedures.
#
#######################################################################

data_AMIWUQ
_chemical_formula_moiety         'C17 H19 B1 F2 N4'
_chemical_name_systematic        
6-t-Butyl-3,3-difluoro-2,4-diphenyl-2,3-dihydro-1,2,4,5,3-tetrazaborinin-4-ium-3-ide
_symmetry_cell_setting           orthorhombic
_symmetry_space_group_name_H-M   'P n m a'
_symmetry_Int_Tables_number      62
_space_group_name_Hall           '-P 2ac 2n'
loop_
_symmetry_equiv_pos_site_id
_symmetry_equiv_pos_as_xyz
1 x,y,z
2 1/2-x,-y,1/2+z
3 -x,1/2+y,-z
4 1/2+x,1/2-y,1/2-z
5 -x,-y,-z
6 1/2+x,y,1/2-z
7 x,1/2-y,z
8 1/2-x,1/2+y,1/2+z
_cell_length_a                   16.6601(5)
_cell_length_b                   17.4301(5)
_cell_length_c                   5.6620(2)
_cell_angle_alpha                90
_cell_angle_beta                 90
_cell_angle_gamma                90
_cell_volume                     1644.17
_exptl_crystal_colour            orange
_exptl_crystal_description       block
_cell_formula_units_Z            4
loop_
_atom_site_label
_atom_site_type_symbol
_atom_site_fract_x
_atom_site_fract_y
_atom_site_fract_z
N1 N 0.31528(5) 0.68235(5) 0.91864(16)
N2 N 0.24251(5) 0.68170(5) 1.00980(16)
H1 H 0.4910(14) 0.7500 0.482(4)
C1 C 0.43596(11) 0.7500 0.5471(3)
H2 H 0.4068(9) 0.7019(9) 0.485(3)
C2 C 0.35330(9) 0.7500 0.9095(3)
C3 C 0.43971(9) 0.7500 0.8185(3)
C4 C 0.14199(7) 0.58762(7) 1.1230(2)
H3 H 0.1339 0.6144 1.2671
C5 C 0.16458(7) 0.51009(7) 0.6981(2)
H4 H 0.1719 0.4835 0.5533
C6 C 0.10007(7) 0.52070(7) 1.0759(2)
H5 H 0.0632 0.5013 1.1891
C7 C 0.19627(6) 0.61495(6) 0.9555(2)
C8 C 0.20716(6) 0.57710(7) 0.7418(2)
H6 H 0.2433 0.5968 0.6271
C9 C 0.11141(7) 0.48188(7) 0.8651(2)
H7 H 0.0827 0.4358 0.8350
B1 B 0.21192(11) 0.7500 1.1610(3)
F1 F 0.13004(5) 0.7500 1.17706(18)
F2 F 0.24855(6) 0.7500 1.37919(17)
C10 C 0.48423(7) 0.67842(7) 0.9037(2)
H8 H 0.4560 0.6325 0.8486
H9 H 0.4863 0.6783 1.0766
H10 H 0.5390 0.6786 0.8403
N1F N 0.31528(5) 0.81765(5) 0.91864(16)
N2F N 0.24251(5) 0.81830(5) 1.00980(16)
H2F H 0.4068(9) 0.7981(9) 0.485(3)
C4F C 0.14199(7) 0.91238(7) 1.1230(2)
H3F H 0.1339 0.8856 1.2671
C5F C 0.16458(7) 0.98991(7) 0.6981(2)
H4F H 0.1719 1.0165 0.5533
C6F C 0.10007(7) 0.97930(7) 1.0759(2)
H5F H 0.0632 0.9987 1.1891
C7F C 0.19627(6) 0.88505(6) 0.9555(2)
C8F C 0.20716(6) 0.92290(7) 0.7418(2)
H6F H 0.2433 0.9032 0.6271
C9F C 0.11141(7) 1.01812(7) 0.8651(2)
H7F H 0.0827 1.0642 0.8350
C10F C 0.48423(7) 0.82158(7) 0.9037(2)
H8F H 0.4560 0.8675 0.8486
H9F H 0.4863 0.8217 1.0766
H10F H 0.5390 0.8214 0.8403
loop_
_geom_bond_atom_site_label_1
_geom_bond_atom_site_label_2
_geom_bond_site_symmetry_1
_geom_bond_site_symmetry_2
N1 N2 1_555 1_555
N2 C7 1_555 1_555
H1 C1 1_555 1_555
C1 H2 1_555 1_555
C2 N1 1_555 1_555
C3 C1 1_555 1_555
C4 H3 1_555 1_555
C5 H4 1_555 1_555
C6 C4 1_555 1_555
H5 C6 1_555 1_555
C7 C4 1_555 1_555
C8 C5 1_555 1_555
H6 C8 1_555 1_555
C9 C5 1_555 1_555
H7 C9 1_555 1_555
B1 N2 1_555 1_555
F1 B1 1_555 1_555
F2 B1 1_555 1_555
C10 C3 1_555 1_555
H8 C10 1_555 1_555
H9 C10 1_555 1_555
H10 C10 1_555 1_555
N1F C2 1_555 1_555
N2F B1 1_555 1_555
H2F C1 1_555 1_555
C4F H3F 1_555 1_555
C5F H4F 1_555 1_555
C6F C4F 1_555 1_555
H5F C6F 1_555 1_555
C7F N2F 1_555 1_555
C8F C5F 1_555 1_555
H6F C8F 1_555 1_555
C9F C5F 1_555 1_555
H7F C9F 1_555 1_555
C10F C3 1_555 1_555
H8F C10F 1_555 1_555
H9F C10F 1_555 1_555
H10F C10F 1_555 1_555
C2 C3 1_555 1_555
C6 C9 1_555 1_555
C7 C8 1_555 1_555
N1F N2F 1_555 1_555
C4F C7F 1_555 1_555
C6F C9F 1_555 1_555
C7F C8F 1_555 1_555

#END
