
#######################################################################
#
#                 Cambridge Crystallographic Data Centre
#                                CCDC 
#
#######################################################################
#
# If this CIF has been generated from an entry in the Cambridge 
# Structural Database, then it will include bibliographic, chemical, 
# crystal, experimental, refinement or atomic coordinate data resulting 
# from the CCDC's data processing and validation procedures.
#
#######################################################################

data_AMIYAY
_chemical_formula_moiety         'C32 H10 B2 F17 N5,0.5(C7 H8)'
_chemical_name_systematic        
'3,3-difluoro-2,4-diphenyl-6-(((tris(pentafluorophenyl)-boranyl)-azanylidyne)methyl)-2,3-dihydro-1,2,4,5,3-tetrazaborinine-4-ium-3-ide toluene solvate'
_symmetry_cell_setting           monoclinic
_symmetry_space_group_name_H-M   'C 2/c'
_symmetry_Int_Tables_number      15
_space_group_name_Hall           '-C 2yn'
loop_
_symmetry_equiv_pos_site_id
_symmetry_equiv_pos_as_xyz
1 x,y,z
2 -x,y,1/2-z
3 1/2+x,1/2+y,z
4 1/2-x,1/2+y,1/2-z
5 -x,-y,-z
6 x,-y,1/2+z
7 1/2-x,1/2-y,-z
8 1/2+x,1/2-y,1/2+z
_cell_length_a                   32.728(4)
_cell_length_b                   8.7616(11)
_cell_length_c                   29.466(4)
_cell_angle_alpha                90
_cell_angle_beta                 112.024(3)
_cell_angle_gamma                90
_cell_volume                     7832.79
_exptl_crystal_colour            orange
_exptl_crystal_description       block
_cell_formula_units_Z            8
loop_
_atom_site_label
_atom_site_type_symbol
_atom_site_fract_x
_atom_site_fract_y
_atom_site_fract_z
F1 F 0.28285(7) 0.3157(3) 0.28247(8)
F2 F 0.29817(7) 0.0644(3) 0.30297(8)
F3 F 0.12439(9) 0.1089(3) 0.04003(9)
F4 F 0.13292(10) 0.0618(4) -0.04567(11)
F5 F 0.10874(12) 0.2819(5) -0.11585(11)
F6 F 0.07849(14) 0.5530(5) -0.09719(11)
F7 F 0.07048(11) 0.6037(3) -0.01242(9)
F8 F 0.01406(7) 0.2446(3) -0.00894(8)
F9 F -0.04728(8) 0.0774(3) 0.00494(11)
F10 F -0.04472(10) 0.0230(3) 0.09730(14)
F11 F 0.02101(10) 0.1453(3) 0.17539(11)
F12 F 0.08311(8) 0.3161(3) 0.16245(8)
F13 F 0.16174(7) 0.5930(3) 0.07615(8)
F14 F 0.17412(8) 0.8770(3) 0.11203(9)
F15 F 0.11591(9) 1.0003(3) 0.14780(9)
F16 F 0.04261(9) 0.8403(3) 0.14155(10)
F17 F 0.02748(7) 0.5654(2) 0.10228(9)
N1 N 0.22222(10) 0.1429(4) 0.26345(11)
N2 N 0.19017(10) 0.1860(4) 0.22336(11)
N3 N 0.23878(10) 0.1767(4) 0.17857(11)
N4 N 0.27155(10) 0.1342(3) 0.21770(11)
N5 N 0.13684(10) 0.3170(4) 0.11122(12)
C1 C 0.20832(14) 0.0759(5) 0.29971(16)
C2 C 0.23584(16) 0.0900(6) 0.34872(16)
H1 H 0.2634 0.1408 0.3578
C3 C 0.2223(2) 0.0286(10) 0.3838(2)
H2 H 0.2404 0.0391 0.4175
C4 C 0.1830(2) -0.0475(10) 0.3705(2)
H3 H 0.1744 -0.0922 0.3949
C5 C 0.1557(2) -0.0594(9) 0.3213(2)
H4 H 0.1282 -0.1106 0.3124
C6 C 0.16813(17) 0.0023(6) 0.28530(19)
H5 H 0.1496 -0.0056 0.2517
C7 C 0.20202(12) 0.2165(4) 0.18542(14)
C8 C 0.16692(12) 0.2717(4) 0.14335(14)
C9 C 0.30723(12) 0.0615(5) 0.20945(14)
C10 C 0.34984(14) 0.0816(6) 0.24299(17)
H6 H 0.3554 0.1411 0.2716
C11 C 0.38443(16) 0.0124(7) 0.2338(2)
H7 H 0.4139 0.0258 0.2562
C12 C 0.37573(18) -0.0753(7) 0.1923(2)
H8 H 0.3994 -0.1223 0.1863
C13 C 0.33333(18) -0.0953(7) 0.1597(2)
H9 H 0.3277 -0.1566 0.1314
C14 C 0.29856(15) -0.0263(6) 0.16791(17)
H10 H 0.2692 -0.0393 0.1453
C15 C 0.09775(12) 0.3606(5) 0.01834(14)
C16 C 0.11317(13) 0.2226(5) 0.00698(15)
C17 C 0.11733(15) 0.1959(6) -0.03682(17)
C18 C 0.10481(17) 0.3046(7) -0.07225(17)
C19 C 0.09007(18) 0.4426(6) -0.06260(16)
C20 C 0.08613(15) 0.4671(5) -0.01838(15)
C21 C 0.05292(12) 0.2846(4) 0.07643(15)
C22 C 0.01801(13) 0.2219(5) 0.03770(15)
C23 C -0.01458(14) 0.1336(5) 0.04431(19)
C24 C -0.01376(15) 0.1091(5) 0.0905(2)
C25 C 0.01951(16) 0.1699(5) 0.12975(18)
C26 C 0.05178(13) 0.2567(4) 0.12206(15)
C27 C 0.09462(12) 0.5633(4) 0.08786(13)
C28 C 0.13080(12) 0.6525(5) 0.09134(14)
C29 C 0.13834(12) 0.7978(4) 0.11002(14)
C30 C 0.10851(14) 0.8612(4) 0.12730(14)
C31 C 0.07178(14) 0.7799(4) 0.12441(14)
C32 C 0.06524(12) 0.6354(4) 0.10443(14)
B1 B 0.27132(14) 0.1657(5) 0.26947(15)
B2 B 0.09230(14) 0.3858(5) 0.07057(16)
C33 C 0.0000 0.4032(10) 0.2500
H11 H 0.0000 0.2948 0.2500
C34 C 0.00655(16) 0.4826(7) 0.2921(2)
H12 H 0.0110 0.4285 0.3215
C35 C 0.00675(18) 0.6410(7) 0.2925(2)
H13 H 0.0116 0.6939 0.3222
C36 C 0.0000 0.7231(10) 0.2500
C37 C 0.0000 0.8957(11) 0.2500
C34A C -0.00655(16) 0.4826(7) 0.2079(2)
H12A H -0.0110 0.4285 0.1785
C35A C -0.00675(18) 0.6410(7) 0.2075(2)
H13A H -0.0116 0.6939 0.1778
H14? H 0.0285 0.9330 0.2509
H15? H -0.0050 0.9330 0.2788
H16? H -0.0235 0.9330 0.2203
loop_
_geom_bond_atom_site_label_1
_geom_bond_atom_site_label_2
_geom_bond_site_symmetry_1
_geom_bond_site_symmetry_2
F1 B1 1_555 1_555
F2 B1 1_555 1_555
F3 C16 1_555 1_555
F4 C17 1_555 1_555
F5 C18 1_555 1_555
F6 C19 1_555 1_555
F7 C20 1_555 1_555
F8 C22 1_555 1_555
F9 C23 1_555 1_555
F10 C24 1_555 1_555
F11 C25 1_555 1_555
F12 C26 1_555 1_555
F13 C28 1_555 1_555
F14 C29 1_555 1_555
F15 C30 1_555 1_555
F16 C31 1_555 1_555
F17 C32 1_555 1_555
N1 N2 1_555 1_555
N2 C7 1_555 1_555
N3 N4 1_555 1_555
N4 C9 1_555 1_555
N5 C8 1_555 1_555
C1 N1 1_555 1_555
C2 C1 1_555 1_555
H1 C2 1_555 1_555
C3 C2 1_555 1_555
H2 C3 1_555 1_555
C4 C3 1_555 1_555
H3 C4 1_555 1_555
C5 C4 1_555 1_555
H4 C5 1_555 1_555
C6 C1 1_555 1_555
H5 C6 1_555 1_555
C7 N3 1_555 1_555
C8 C7 1_555 1_555
C9 C10 1_555 1_555
C10 H6 1_555 1_555
C11 C10 1_555 1_555
H7 C11 1_555 1_555
C12 C11 1_555 1_555
H8 C12 1_555 1_555
C13 C12 1_555 1_555
H9 C13 1_555 1_555
C14 C9 1_555 1_555
H10 C14 1_555 1_555
C15 C16 1_555 1_555
C16 C17 1_555 1_555
C17 C18 1_555 1_555
C18 C19 1_555 1_555
C19 C20 1_555 1_555
C20 C15 1_555 1_555
C21 C22 1_555 1_555
C22 C23 1_555 1_555
C23 C24 1_555 1_555
C24 C25 1_555 1_555
C25 C26 1_555 1_555
C26 C21 1_555 1_555
C27 C28 1_555 1_555
C28 C29 1_555 1_555
C29 C30 1_555 1_555
C30 C31 1_555 1_555
C31 C32 1_555 1_555
C32 C27 1_555 1_555
B1 N1 1_555 1_555
B2 N5 1_555 1_555
C33 H11 1_555 1_555
C34 C33 1_555 1_555
H12 C34 1_555 1_555
C35 C34 1_555 1_555
H13 C35 1_555 1_555
C36 C35 1_555 1_555
C37 C36 1_555 1_555
C34A C33 1_555 1_555
H12A C34A 1_555 1_555
C35A C36 1_555 1_555
H13A C35A 1_555 1_555
N4 B1 1_555 1_555
C5 C6 1_555 1_555
C13 C14 1_555 1_555
C15 B2 1_555 1_555
C21 B2 1_555 1_555
C27 B2 1_555 1_555
C34A C35A 1_555 1_555

#END
