
#######################################################################
#
#                 Cambridge Crystallographic Data Centre
#                                CCDC 
#
#######################################################################
#
# If this CIF has been generated from an entry in the Cambridge 
# Structural Database, then it will include bibliographic, chemical, 
# crystal, experimental, refinement or atomic coordinate data resulting 
# from the CCDC's data processing and validation procedures.
#
#######################################################################

data_AMOCOV
_chemical_formula_moiety         'C15 H10 F4 N3 1+,Br1 1-'
_chemical_name_systematic        
'3-Benzyl-1-(2,3,5,6-tetrafluoropyridin-4-yl)-1H-imidazol-3-ium bromide'
_symmetry_cell_setting           orthorhombic
_symmetry_space_group_name_H-M   'P n a 21'
_symmetry_Int_Tables_number      33
_space_group_name_Hall           'P 2c -2n'
loop_
_symmetry_equiv_pos_site_id
_symmetry_equiv_pos_as_xyz
1 x,y,z
2 -x,-y,1/2+z
3 1/2+x,1/2-y,z
4 1/2-x,1/2+y,1/2+z
_cell_length_a                   12.7109(3)
_cell_length_b                   9.5071(3)
_cell_length_c                   12.7444(4)
_cell_angle_alpha                90
_cell_angle_beta                 90
_cell_angle_gamma                90
_cell_volume                     1540.08
_exptl_crystal_colour            gold
_exptl_crystal_description       triangular
_cell_formula_units_Z            4
loop_
_atom_site_label
_atom_site_type_symbol
_atom_site_fract_x
_atom_site_fract_y
_atom_site_fract_z
Br1 Br 0.168836(12) 0.050994(16) 0.39407(2)
F1 F -0.05264(8) -0.22845(11) 0.39065(13)
F2 F 0.12381(11) -0.38393(13) 0.37733(14)
F3 F 0.21239(10) -0.19211(18) 0.06654(12)
F4 F 0.05247(9) -0.00661(16) 0.07587(9)
N1 N -0.09366(10) -0.02015(15) 0.23973(12)
N2 N -0.21923(11) 0.11899(15) 0.19690(12)
N3 N 0.16670(12) -0.2893(2) 0.22207(17)
C1 C -0.15223(13) 0.02667(18) 0.15938(14)
H1 H -0.1464 -0.0012 0.0897
C2 C -0.12620(14) 0.04594(17) 0.33172(13)
H2 H -0.0988 0.0329 0.3987
C3 C -0.20542(14) 0.13267(19) 0.30423(15)
H3 H -0.2436 0.1908 0.3489
C4 C -0.00825(12) -0.11518(17) 0.23182(14)
C5 C 0.01131(14) -0.21401(18) 0.30837(14)
C6 C 0.10146(17) -0.2955(2) 0.30032(19)
C7 C 0.14641(14) -0.1980(2) 0.14825(18)
C8 C 0.06278(13) -0.1066(2) 0.14976(15)
C9 C -0.29996(14) 0.1951(2) 0.13476(17)
H4 H -0.2792 0.1970 0.0615
H5 H -0.3050 0.2915 0.1593
C10 C -0.40589(13) 0.12445(19) 0.14499(16)
C11 C -0.46777(14) 0.1514(2) 0.23166(19)
H6 H -0.4459 0.2176 0.2808
C12 C -0.56223(16) 0.0809(2) 0.2462(2)
H7 H -0.6028 0.0982 0.3056
C13 C -0.5372(2) -0.0387(3) 0.0848(3)
H8 H -0.5623 -0.1009 0.0344
C14 C -0.59500(18) -0.0136(3) 0.1731(3)
H9 H -0.6578 -0.0618 0.1834
C15 C -0.43974(19) 0.0291(2) 0.0696(2)
H10 H -0.3991 0.0104 0.0105
loop_
_geom_bond_atom_site_label_1
_geom_bond_atom_site_label_2
_geom_bond_site_symmetry_1
_geom_bond_site_symmetry_2
F1 C5 1_555 1_555
F2 C6 1_555 1_555
F3 C7 1_555 1_555
F4 C8 1_555 1_555
N1 C1 1_555 1_555
N2 C1 1_555 1_555
N3 C6 1_555 1_555
C1 H1 1_555 1_555
C2 N1 1_555 1_555
H2 C2 1_555 1_555
C3 N2 1_555 1_555
H3 C3 1_555 1_555
C4 N1 1_555 1_555
C5 C4 1_555 1_555
C6 C5 1_555 1_555
C7 N3 1_555 1_555
C8 C4 1_555 1_555
C9 N2 1_555 1_555
H4 C9 1_555 1_555
H5 C9 1_555 1_555
C10 C9 1_555 1_555
C11 C10 1_555 1_555
H6 C11 1_555 1_555
C12 C11 1_555 1_555
H7 C12 1_555 1_555
C13 H8 1_555 1_555
C14 C12 1_555 1_555
H9 C14 1_555 1_555
C15 C10 1_555 1_555
H10 C15 1_555 1_555
C2 C3 1_555 1_555
C7 C8 1_555 1_555
C13 C14 1_555 1_555
C13 C15 1_555 1_555

#END
