
#######################################################################
#
#                 Cambridge Crystallographic Data Centre
#                                CCDC 
#
#######################################################################
#
# If this CIF has been generated from an entry in the Cambridge 
# Structural Database, then it will include bibliographic, chemical, 
# crystal, experimental, refinement or atomic coordinate data resulting 
# from the CCDC's data processing and validation procedures.
#
#######################################################################

data_AMOLOF
_chemical_formula_moiety         'C20 H15 N1 O2 S2'
_chemical_name_systematic        
4-(1,3-benzothiazol-2-ylsulfanyl)-2-benzyl-2-methylcyclopent-4-ene-1,3-dione
_symmetry_cell_setting           monoclinic
_symmetry_space_group_name_H-M   'P 21'
_symmetry_Int_Tables_number      4
_space_group_name_Hall           'P 2yb'
loop_
_symmetry_equiv_pos_site_id
_symmetry_equiv_pos_as_xyz
1 x,y,z
2 -x,1/2+y,-z
_cell_length_a                   11.902(2)
_cell_length_b                   6.5197(13)
_cell_length_c                   11.964(2)
_cell_angle_alpha                90
_cell_angle_beta                 102.915(4)
_cell_angle_gamma                90
_cell_volume                     904.891
_exptl_crystal_colour            yellow
_exptl_crystal_description       block
_cell_formula_units_Z            2
loop_
_atom_site_label
_atom_site_type_symbol
_atom_site_fract_x
_atom_site_fract_y
_atom_site_fract_z
C1 C 0.7817(2) -0.2126(5) 0.42994(19)
C2 C 0.7902(3) -0.3804(6) 0.3562(2)
H1 H 0.8550 -0.3983 0.3259
C3 C 0.7002(3) -0.5135(6) 0.3316(2)
H2 H 0.7040 -0.6225 0.2824
C4 C 0.6037(3) -0.4945(5) 0.3760(2)
H3 H 0.5449 -0.5910 0.3583
C5 C 0.5944(2) -0.3326(5) 0.4468(2)
H4 H 0.5288 -0.3173 0.4760
C6 C 0.68368(19) -0.1922(5) 0.47423(17)
C7 C 0.7779(2) 0.0802(4) 0.55412(19)
C8 C 0.72872(18) 0.2900(4) 0.73289(17)
C9 C 0.6845(2) 0.1307(4) 0.77649(19)
H5 H 0.6926 -0.0051 0.7559
C10 C 0.6211(2) 0.1974(4) 0.8614(2)
C11 C 0.6211(2) 0.4311(4) 0.8661(2)
C12 C 0.6995(2) 0.4839(5) 0.78602(19)
C13 C 0.4993(2) 0.5119(6) 0.8169(2)
H6 H 0.5001 0.6591 0.8178
H7 H 0.4480 0.4627 0.8625
H8 H 0.4733 0.4645 0.7394
C14 C 0.6646(2) 0.5140(5) 0.9881(2)
H9 H 0.6583 0.6624 0.9854
H10 H 0.6136 0.4645 1.0351
C15 C 0.7854(2) 0.4595(5) 1.04643(19)
C16 C 0.8733(3) 0.5987(6) 1.0520(2)
H11 H 0.8575 0.7251 1.0159
C17 C 0.9831(4) 0.5551(11) 1.1094(4)
H12 H 1.0413 0.6508 1.1106
C18 C 1.0082(4) 0.3739(12) 1.1645(4)
H13 H 1.0830 0.3474 1.2050
C19 C 0.9233(4) 0.2281(8) 1.1609(3)
H14 H 0.9406 0.1026 1.1976
C20 C 0.8110(3) 0.2720(6) 1.1011(2)
H15 H 0.7530 0.1750 1.0979
N1 N 0.68371(15) -0.0195(4) 0.54376(15)
O1 O 0.57551(16) 0.0841(3) 0.91812(17)
O2 O 0.73200(19) 0.6509(3) 0.76475(17)
S1 S 0.81014(6) 0.31189(12) 0.62906(5)
S2 S 0.87772(6) -0.01833(15) 0.48119(6)
loop_
_geom_bond_atom_site_label_1
_geom_bond_atom_site_label_2
_geom_bond_site_symmetry_1
_geom_bond_site_symmetry_2
C1 C2 1_555 1_555
C2 H1 1_555 1_555
C3 C2 1_555 1_555
H2 C3 1_555 1_555
C4 C3 1_555 1_555
H3 C4 1_555 1_555
C5 C4 1_555 1_555
H4 C5 1_555 1_555
C6 C1 1_555 1_555
C7 N1 1_555 1_555
C8 C9 1_555 1_555
C9 H5 1_555 1_555
C10 C9 1_555 1_555
C11 C10 1_555 1_555
C12 C8 1_555 1_555
C13 C11 1_555 1_555
H6 C13 1_555 1_555
H7 C13 1_555 1_555
H8 C13 1_555 1_555
C14 C11 1_555 1_555
H9 C14 1_555 1_555
H10 C14 1_555 1_555
C15 C14 1_555 1_555
C16 C15 1_555 1_555
H11 C16 1_555 1_555
C17 C16 1_555 1_555
H12 C17 1_555 1_555
C18 C17 1_555 1_555
H13 C18 1_555 1_555
C19 C18 1_555 1_555
H14 C19 1_555 1_555
C20 C15 1_555 1_555
H15 C20 1_555 1_555
N1 C6 1_555 1_555
O1 C10 1_555 1_555
O2 C12 1_555 1_555
S1 C7 1_555 1_555
S2 C1 1_555 1_555
C5 C6 1_555 1_555
C7 S2 1_555 1_555
C8 S1 1_555 1_555
C11 C12 1_555 1_555
C19 C20 1_555 1_555

#END
