
#######################################################################
#
#                 Cambridge Crystallographic Data Centre
#                                CCDC 
#
#######################################################################
#
# If this CIF has been generated from an entry in the Cambridge 
# Structural Database, then it will include bibliographic, chemical, 
# crystal, experimental, refinement or atomic coordinate data resulting 
# from the CCDC's data processing and validation procedures.
#
#######################################################################

data_ANAPAH
_chemical_formula_moiety         'C28 H30 N2 O4 S2'
_chemical_name_systematic        
"Dihexyl 2,2'-thieno[2,3-f][1]benzothiene-2,6-diylidenebis(cyanoacetate)"
_symmetry_cell_setting           monoclinic
_symmetry_space_group_name_H-M   'P 21/n'
_symmetry_Int_Tables_number      14
_space_group_name_Hall           '-P 2yn'
loop_
_symmetry_equiv_pos_site_id
_symmetry_equiv_pos_as_xyz
1 x,y,z
2 1/2-x,1/2+y,1/2-z
3 -x,-y,-z
4 1/2+x,1/2-y,1/2+z
_cell_length_a                   4.7550(13)
_cell_length_b                   36.910(10)
_cell_length_c                   7.954(2)
_cell_angle_alpha                90
_cell_angle_beta                 105.846(4)
_cell_angle_gamma                90
_cell_volume                     1342.93
_exptl_crystal_colour            black
_exptl_crystal_description       needle
_cell_formula_units_Z            2
loop_
_atom_site_label
_atom_site_type_symbol
_atom_site_fract_x
_atom_site_fract_y
_atom_site_fract_z
S1 S 0.6793(2) 0.03271(2) 0.17870(13)
O1 O 0.9518(7) 0.07494(7) -0.0233(4)
O2 O 1.2664(6) 0.12081(6) 0.0837(3)
N1 N 1.4515(9) 0.12415(9) 0.5247(5)
C1 C 0.9147(8) 0.06166(8) 0.3287(5)
C2 C 0.8994(8) 0.05481(9) 0.5036(5)
C3 C 0.7060(8) 0.02793(8) 0.5173(5)
C4 C 0.5641(8) 0.01208(9) 0.3473(5)
C5 C 0.3646(8) -0.01533(9) 0.3299(5)
C6 C 1.0919(9) 0.08744(9) 0.2809(5)
C7 C 1.2892(9) 0.10844(9) 0.4166(5)
C8 C 1.0925(9) 0.09327(9) 0.0975(5)
C9 C 1.2953(10) 0.12823(10) -0.0932(5)
C10 C 1.4652(10) 0.16356(10) -0.0810(5)
C11 C 1.2990(9) 0.19694(10) -0.0465(5)
C12 C 1.4540(9) 0.23249(9) -0.0656(5)
C13 C 1.2860(10) 0.26627(11) -0.0394(6)
C14 C 1.4353(13) 0.30167(11) -0.0665(7)
H1 H 1.0110 0.0682 0.6020
H2 H 0.2744 -0.0254 0.2157
H3 H 1.4008 0.1087 -0.1313
H4 H 1.1093 0.1301 -0.1771
H5 H 1.6416 0.1616 0.0136
H6 H 1.5196 0.1677 -0.1861
H7 H 1.1090 0.1970 -0.1271
H8 H 1.2762 0.1954 0.0698
H9 H 1.6428 0.2328 0.0200
H10 H 1.4861 0.2334 -0.1785
H11 H 1.0980 0.2658 -0.1207
H12 H 1.2635 0.2661 0.0766
H13 H 1.6238 0.3031 0.0186
H14 H 1.4598 0.3027 -0.1789
H15 H 1.3218 0.3219 -0.0471
S1B S 0.3207(2) -0.03271(2) 0.82130(13)
O1B O 0.0482(7) -0.07494(7) 1.0233(4)
O2B O -0.2664(6) -0.12081(6) 0.9163(3)
N1B N -0.4515(9) -0.12415(9) 0.4753(5)
C1B C 0.0853(8) -0.06166(8) 0.6713(5)
C2B C 0.1006(8) -0.05481(9) 0.4964(5)
C3B C 0.2940(8) -0.02793(8) 0.4827(5)
C4B C 0.4359(8) -0.01208(9) 0.6527(5)
C5B C 0.6354(8) 0.01533(9) 0.6701(5)
C6B C -0.0919(9) -0.08744(9) 0.7191(5)
C7B C -0.2892(9) -0.10844(9) 0.5834(5)
C8B C -0.0925(9) -0.09327(9) 0.9025(5)
C9B C -0.2953(10) -0.12823(10) 1.0932(5)
C10B C -0.4652(10) -0.16356(10) 1.0810(5)
C11B C -0.2990(9) -0.19694(10) 1.0465(5)
C12B C -0.4540(9) -0.23249(9) 1.0656(5)
C13B C -0.2860(10) -0.26627(11) 1.0394(6)
C14B C -0.4353(13) -0.30167(11) 1.0665(7)
H1B H -0.0110 -0.0682 0.3980
H2B H 0.7256 0.0254 0.7843
H3B H -0.4008 -0.1087 1.1313
H4B H -0.1093 -0.1301 1.1771
H5B H -0.6416 -0.1616 0.9864
H6B H -0.5196 -0.1677 1.1861
H7B H -0.1090 -0.1970 1.1271
H8B H -0.2762 -0.1954 0.9302
H9B H -0.6428 -0.2328 0.9800
H10B H -0.4861 -0.2334 1.1785
H11B H -0.0980 -0.2658 1.1207
H12B H -0.2635 -0.2661 0.9234
H13B H -0.6238 -0.3031 0.9814
H14B H -0.4598 -0.3027 1.1789
H15B H -0.3218 -0.3219 1.0471
loop_
_geom_bond_atom_site_label_1
_geom_bond_atom_site_label_2
_geom_bond_site_symmetry_1
_geom_bond_site_symmetry_2
S1 C1 1_555 1_555
O1 C8 1_555 1_555
O2 C8 1_555 1_555
N1 C7 1_555 1_555
C1 C2 1_555 1_555
C2 C3 1_555 1_555
C3 C4 1_555 1_555
C4 S1 1_555 1_555
C5 C4 1_555 1_555
C6 C1 1_555 1_555
C7 C6 1_555 1_555
C8 C6 1_555 1_555
C9 O2 1_555 1_555
C10 C9 1_555 1_555
C11 C10 1_555 1_555
C12 C11 1_555 1_555
C13 C12 1_555 1_555
C14 C13 1_555 1_555
H1 C2 1_555 1_555
H2 C5 1_555 1_555
H3 C9 1_555 1_555
H4 C9 1_555 1_555
H5 C10 1_555 1_555
H6 C10 1_555 1_555
H7 C11 1_555 1_555
H8 C11 1_555 1_555
H9 C12 1_555 1_555
H10 C12 1_555 1_555
H11 C13 1_555 1_555
H12 C13 1_555 1_555
H13 C14 1_555 1_555
H14 C14 1_555 1_555
H15 C14 1_555 1_555
S1B C1B 1_555 1_555
O1B C8B 1_555 1_555
O2B C8B 1_555 1_555
N1B C7B 1_555 1_555
C1B C2B 1_555 1_555
C2B C3B 1_555 1_555
C3B C5 1_555 1_555
C4B S1B 1_555 1_555
C5B C3 1_555 1_555
C6B C1B 1_555 1_555
C7B C6B 1_555 1_555
C8B C6B 1_555 1_555
C9B O2B 1_555 1_555
C10B C9B 1_555 1_555
C11B C10B 1_555 1_555
C12B C11B 1_555 1_555
C13B C12B 1_555 1_555
C14B C13B 1_555 1_555
H1B C2B 1_555 1_555
H2B C5B 1_555 1_555
H3B C9B 1_555 1_555
H4B C9B 1_555 1_555
H5B C10B 1_555 1_555
H6B C10B 1_555 1_555
H7B C11B 1_555 1_555
H8B C11B 1_555 1_555
H9B C12B 1_555 1_555
H10B C12B 1_555 1_555
H11B C13B 1_555 1_555
H12B C13B 1_555 1_555
H13B C14B 1_555 1_555
H14B C14B 1_555 1_555
H15B C14B 1_555 1_555
C3B C4B 1_555 1_555
C4B C5B 1_555 1_555

#END
