
#######################################################################
#
#                 Cambridge Crystallographic Data Centre
#                                CCDC 
#
#######################################################################
#
# If this CIF has been generated from an entry in the Cambridge 
# Structural Database, then it will include bibliographic, chemical, 
# crystal, experimental, refinement or atomic coordinate data resulting 
# from the CCDC's data processing and validation procedures.
#
#######################################################################

data_ANEJEK
_chemical_formula_moiety         'C23 H32 N4 O1 S1'
_chemical_name_systematic        
N-cyclohexyl-5-(cyclohexylideneamino)-3-(4-methoxyphenyl)-2-(methylimino)-2,3-dihydro-1,3-thiazol-4-amine
_symmetry_cell_setting           monoclinic
_symmetry_space_group_name_H-M   'I 2/c'
_symmetry_Int_Tables_number      15
_space_group_name_Hall           '-I 2yc'
loop_
_symmetry_equiv_pos_site_id
_symmetry_equiv_pos_as_xyz
1 x,y,z
2 -x,y,1/2-z
3 1/2+x,1/2+y,1/2+z
4 1/2-x,1/2+y,-z
5 -x,-y,-z
6 x,-y,1/2+z
7 1/2-x,1/2-y,1/2-z
8 1/2+x,1/2-y,z
_cell_length_a                   31.0815(9)
_cell_length_b                   5.6647(3)
_cell_length_c                   27.5962(11)
_cell_angle_alpha                90
_cell_angle_beta                 108.175(4)
_cell_angle_gamma                90
_cell_volume                     4616.38
_exptl_crystal_colour            colorless
_exptl_crystal_description       block
_cell_formula_units_Z            8
loop_
_atom_site_label
_atom_site_type_symbol
_atom_site_fract_x
_atom_site_fract_y
_atom_site_fract_z
S1 S 0.54693(4) 0.7334(3) 0.56942(5)
O1 O 0.80580(13) 0.8337(10) 0.57390(18)
N1 N 0.63083(13) 0.8571(9) 0.58582(17)
N2 N 0.65038(14) 1.0939(8) 0.65774(18)
N3 N 0.55015(14) 1.0341(9) 0.64634(18)
N4 N 0.60676(16) 0.5585(13) 0.5247(2)
C1 C 0.8223(2) 1.0192(18) 0.5490(3)
H1 H 0.8025 1.0353 0.5138
H2 H 0.8531 0.9810 0.5490
H3 H 0.8228 1.1681 0.5673
C2 C 0.76267(15) 0.8525(11) 0.57558(19)
C3 C 0.73380(19) 1.0344(12) 0.5541(3)
H4 H 0.7434 1.1587 0.5368
C4 C 0.69019(18) 1.0337(11) 0.5582(2)
H5 H 0.6701 1.1595 0.5438
C5 C 0.67606(15) 0.8546(10) 0.58267(19)
C6 C 0.70507(19) 0.6748(12) 0.6038(2)
H6 H 0.6953 0.5485 0.6205
C7 C 0.74868(19) 0.6769(13) 0.6009(2)
H7 H 0.7691 0.5544 0.6167
C8 C 0.62005(15) 0.9775(10) 0.6250(2)
C9 C 0.57111(15) 0.9354(11) 0.61956(19)
C10 C 0.59867(18) 0.7010(13) 0.5557(2)
C11 C 0.5706(3) 0.396(2) 0.4976(4)
H8 H 0.5488 0.4794 0.4693
H9 H 0.5552 0.3360 0.5211
H10 H 0.5837 0.2635 0.4840
C12 C 0.64320(16) 1.1980(9) 0.7030(2)
H11 H 0.6220 1.0954 0.7144
C13 C 0.68909(18) 1.2044(12) 0.7448(2)
H12 H 0.7013 1.0421 0.7515
H13 H 0.7106 1.2998 0.7331
C14 C 0.6847(3) 1.3101(14) 0.7940(2)
H14 H 0.6664 1.2032 0.8081
H15 H 0.7152 1.3233 0.8195
C15 C 0.6629(3) 1.5495(14) 0.7853(3)
H16 H 0.6837 1.6629 0.7767
H17 H 0.6578 1.6041 0.8171
C16 C 0.6178(2) 1.5469(11) 0.7423(2)
H18 H 0.6059 1.7098 0.7358
H19 H 0.5956 1.4506 0.7527
C17 C 0.62373(18) 1.4447(10) 0.6933(2)
H20 H 0.5940 1.4400 0.6663
H21 H 0.6442 1.5471 0.6815
C18 C 0.50199(17) 0.9857(12) 0.6363(2)
C19 C 0.4913(3) 0.873(3) 0.6796(4)
H22 H 0.5075 0.9569 0.7116
H23 H 0.5018 0.7073 0.6830
C20 C 0.4389(3) 0.880(2) 0.6715(4)
H24 H 0.4246 0.7378 0.6522
H25 H 0.4337 0.8754 0.7051
C21 C 0.4166(4) 1.101(2) 0.6425(4)
H26 H 0.3842 1.1063 0.6403
H27 H 0.4316 1.2445 0.6605
C22 C 0.4215(3) 1.089(3) 0.5894(5)
H28 H 0.4023 1.2094 0.5667
H29 H 0.4129 0.9311 0.5741
C23 C 0.4722(3) 1.139(3) 0.5979(5)
H30 H 0.4786 1.1171 0.5652
H31 H 0.4788 1.3053 0.6085
loop_
_geom_bond_atom_site_label_1
_geom_bond_atom_site_label_2
_geom_bond_site_symmetry_1
_geom_bond_site_symmetry_2
S1 C9 1_555 1_555
O1 C1 1_555 1_555
N1 C5 1_555 1_555
N2 C8 1_555 1_555
N3 C9 1_555 1_555
N4 C10 1_555 1_555
C1 H1 1_555 1_555
H2 C1 1_555 1_555
H3 C1 1_555 1_555
C2 O1 1_555 1_555
C3 C2 1_555 1_555
H4 C3 1_555 1_555
C4 C3 1_555 1_555
H5 C4 1_555 1_555
C5 C4 1_555 1_555
C6 C5 1_555 1_555
H6 C6 1_555 1_555
C7 C2 1_555 1_555
H7 C7 1_555 1_555
C8 N1 1_555 1_555
C9 C8 1_555 1_555
C10 S1 1_555 1_555
C11 N4 1_555 1_555
H8 C11 1_555 1_555
H9 C11 1_555 1_555
H10 C11 1_555 1_555
C12 N2 1_555 1_555
H11 C12 1_555 1_555
C13 C12 1_555 1_555
H12 C13 1_555 1_555
H13 C13 1_555 1_555
C14 C13 1_555 1_555
H14 C14 1_555 1_555
H15 C14 1_555 1_555
C15 C14 1_555 1_555
H16 C15 1_555 1_555
H17 C15 1_555 1_555
C16 C15 1_555 1_555
H18 C16 1_555 1_555
H19 C16 1_555 1_555
C17 C12 1_555 1_555
H20 C17 1_555 1_555
H21 C17 1_555 1_555
C18 N3 1_555 1_555
C19 C18 1_555 1_555
H22 C19 1_555 1_555
H23 C19 1_555 1_555
C20 C19 1_555 1_555
H24 C20 1_555 1_555
H25 C20 1_555 1_555
C21 C20 1_555 1_555
H26 C21 1_555 1_555
H27 C21 1_555 1_555
C22 C21 1_555 1_555
H28 C22 1_555 1_555
H29 C22 1_555 1_555
C23 C18 1_555 1_555
H30 C23 1_555 1_555
H31 C23 1_555 1_555
N1 C10 1_555 1_555
C6 C7 1_555 1_555
C16 C17 1_555 1_555
C22 C23 1_555 1_555

#END
