
#######################################################################
#
#                 Cambridge Crystallographic Data Centre
#                                CCDC 
#
#######################################################################
#
# If this CIF has been generated from an entry in the Cambridge 
# Structural Database, then it will include bibliographic, chemical, 
# crystal, experimental, refinement or atomic coordinate data resulting 
# from the CCDC's data processing and validation procedures.
#
#######################################################################

data_ANELEM
_chemical_name_common            
"tetraethyl 4,4',4'',4'''-(((benzene-1,2,4,5-tetrayltetrakis(methylene))-tetrakis(tosylazanediyl))tetrakis(methylene))tetrabenzoate"
_chemical_formula_moiety         'C78 H82 N4 O16 S4'
_chemical_name_systematic        
'ethyl 4-((((4-methylphenyl)sulfonyl)(2,4,5-tris(((4-(ethoxycarbonyl)benzyl)((4-methylphenyl)sulfonyl)amino)methyl)benzyl)amino)methyl)benzoate'
_symmetry_cell_setting           monoclinic
_symmetry_space_group_name_H-M   'P 21/n'
_symmetry_Int_Tables_number      14
_space_group_name_Hall           '-P 2yn'
loop_
_symmetry_equiv_pos_site_id
_symmetry_equiv_pos_as_xyz
1 x,y,z
2 1/2-x,1/2+y,1/2-z
3 -x,-y,-z
4 1/2+x,1/2-y,1/2+z
_cell_length_a                   16.465(1)
_cell_length_b                   10.748(1)
_cell_length_c                   20.381(2)
_cell_angle_alpha                90
_cell_angle_beta                 100.75(1)
_cell_angle_gamma                90
_cell_volume                     3543.44
_exptl_crystal_colour            colorless
_exptl_crystal_description       blocks
_cell_formula_units_Z            2
loop_
_atom_site_label
_atom_site_type_symbol
_atom_site_fract_x
_atom_site_fract_y
_atom_site_fract_z
C1 C 0.50561(12) 0.4653(2) 0.56709(11)
C2 C 0.47681(13) 0.3792(2) 0.51616(11)
C3 C 0.47199(12) 0.4179(2) 0.45042(11)
H1 H 0.4521 0.3605 0.4157
C4 C 0.50656(13) 0.4362(2) 0.64031(11)
H2 H 0.5071 0.5154 0.6652
H3 H 0.4551 0.3914 0.6440
N1 N 0.57855(10) 0.35985(17) 0.67187(9)
C5 C 0.65890(12) 0.4248(2) 0.68138(11)
H4 H 0.6905 0.4050 0.7264
H5 H 0.6490 0.5156 0.6793
C6 C 0.71019(13) 0.3902(2) 0.63020(11)
C7 C 0.76582(13) 0.4751(2) 0.61333(12)
H6 H 0.7692 0.5559 0.6326
C8 C 0.81688(14) 0.4446(2) 0.56866(12)
H7 H 0.8540 0.5048 0.5570
C9 C 0.81395(13) 0.3269(2) 0.54109(11)
C10 C 0.75868(13) 0.2409(2) 0.55818(11)
H8 H 0.7563 0.1594 0.5399
C11 C 0.70686(14) 0.2729(2) 0.60177(11)
H9 H 0.6685 0.2136 0.6123
C12 C 0.86973(14) 0.2866(3) 0.49579(12)
O1 O 0.91525(10) 0.37974(16) 0.47852(9)
O2 O 0.87484(9) 0.18072(17) 0.47758(8)
C13 C 0.97363(16) 0.3468(3) 0.43510(15)
H10 H 0.9583 0.2658 0.4132
H11 H 1.0303 0.3400 0.4617
C14 C 0.97036(15) 0.4465(3) 0.38398(13)
H12 H 1.0090 0.4267 0.3542
H13 H 0.9141 0.4523 0.3578
H14 H 0.9858 0.5262 0.4062
S1 S 0.56104(4) 0.26697(6) 0.73239(3)
O3 O 0.63993(8) 0.21421(14) 0.76209(7)
O4 O 0.49391(8) 0.18725(14) 0.70280(7)
C15 C 0.52484(13) 0.3601(2) 0.79180(11)
C16 C 0.57853(14) 0.4123(2) 0.84506(11)
H15 H 0.6361 0.3952 0.8513
C17 C 0.54842(14) 0.4887(2) 0.88883(12)
H16 H 0.5859 0.5240 0.9252
C18 C 0.46426(14) 0.5161(2) 0.88150(11)
C19 C 0.41136(14) 0.4619(2) 0.82802(12)
H17 H 0.3538 0.4784 0.8220
C20 C 0.44061(14) 0.3845(2) 0.78315(12)
H18 H 0.4034 0.3485 0.7469
C21 C 0.43144(14) 0.6019(2) 0.92828(12)
H19 H 0.4733 0.6134 0.9688
H20 H 0.3814 0.5659 0.9401
H21 H 0.4181 0.6826 0.9065
C22 C 0.45271(12) 0.2473(2) 0.53021(11)
H22 H 0.4893 0.1884 0.5123
H23 H 0.4607 0.2345 0.5791
N2 N 0.36592(10) 0.22026(17) 0.49998(9)
C23 C 0.30069(13) 0.2978(2) 0.51751(12)
H24 H 0.2492 0.2822 0.4848
H25 H 0.3159 0.3862 0.5132
C24 C 0.28322(13) 0.2775(2) 0.58723(12)
C25 C 0.24024(14) 0.3667(2) 0.61547(12)
H26 H 0.2224 0.4401 0.5910
C26 C 0.22251(13) 0.3511(2) 0.67891(12)
H27 H 0.1922 0.4128 0.6975
C27 C 0.24946(13) 0.2440(2) 0.71525(12)
C28 C 0.29183(13) 0.1544(2) 0.68659(13)
H28 H 0.3101 0.0811 0.7110
C29 C 0.30811(13) 0.1697(2) 0.62306(12)
H29 H 0.3364 0.1064 0.6038
C30 C 0.23983(15) 0.2290(3) 0.78599(13)
O5 O 0.18983(9) 0.31317(15) 0.80536(8)
O6 O 0.27652(10) 0.15016(17) 0.82278(9)
C31 C 0.18413(14) 0.3114(2) 0.87606(12)
H30 H 0.1584 0.3898 0.8874
H31 H 0.2405 0.3068 0.9034
C32 C 0.13404(14) 0.2030(2) 0.89295(13)
H32 H 0.1317 0.2052 0.9406
H33 H 0.0779 0.2081 0.8667
H34 H 0.1599 0.1252 0.8826
S2 S 0.34427(4) 0.09052(6) 0.45885(3)
O7 O 0.25551(8) 0.07851(15) 0.44704(8)
O8 O 0.39490(9) -0.00790(14) 0.49255(7)
C33 C 0.37534(14) 0.1171(2) 0.38225(11)
C34 C 0.32684(14) 0.1926(2) 0.33517(12)
H35 H 0.2750 0.2224 0.3427
C35 C 0.35442(15) 0.2240(2) 0.27752(12)
H36 H 0.3212 0.2761 0.2456
C36 C 0.42962(16) 0.1812(2) 0.26507(13)
C37 C 0.47527(15) 0.1006(2) 0.31144(13)
H37 H 0.5255 0.0667 0.3028
C38 C 0.44850(14) 0.0688(2) 0.37015(12)
H38 H 0.4804 0.0143 0.4015
C39 C 0.46216(16) 0.2225(2) 0.20455(12)
H39 H 0.4165 0.2275 0.1662
H40 H 0.5032 0.1624 0.1950
H41 H 0.4881 0.3044 0.2129
C1B C 0.49439(12) 0.5347(2) 0.43291(11)
C2B C 0.52319(13) 0.6208(2) 0.48384(11)
C3B C 0.52801(12) 0.5821(2) 0.54958(11)
H1B H 0.5479 0.6395 0.5843
C4B C 0.49344(13) 0.5638(2) 0.35969(11)
H2B H 0.4929 0.4846 0.3348
H3B H 0.5449 0.6086 0.3560
N1B N 0.42145(10) 0.64015(17) 0.32813(9)
C5B C 0.34110(12) 0.5752(2) 0.31862(11)
H4B H 0.3095 0.5950 0.2736
H5B H 0.3510 0.4844 0.3207
C6B C 0.28981(13) 0.6098(2) 0.36980(11)
C7B C 0.23418(13) 0.5249(2) 0.38667(12)
H6B H 0.2308 0.4441 0.3674
C8B C 0.18312(14) 0.5554(2) 0.43134(12)
H7B H 0.1460 0.4952 0.4430
C9B C 0.18605(13) 0.6731(2) 0.45891(11)
C10B C 0.24132(13) 0.7591(2) 0.44182(11)
H8B H 0.2437 0.8406 0.4601
C11B C 0.29314(14) 0.7271(2) 0.39823(11)
H9B H 0.3315 0.7864 0.3877
C12B C 0.13027(14) 0.7134(3) 0.50421(12)
O1B O 0.08475(10) 0.62026(16) 0.52148(9)
O2B O 0.12516(9) 0.81928(17) 0.52242(8)
C13B C 0.02637(16) 0.6532(3) 0.56490(15)
H10B H 0.0417 0.7342 0.5868
H11B H -0.0303 0.6600 0.5383
C14B C 0.02964(15) 0.5535(3) 0.61602(13)
H12B H -0.0090 0.5733 0.6458
H13B H 0.0859 0.5477 0.6422
H14B H 0.0142 0.4738 0.5938
S1B S 0.43896(4) 0.73303(6) 0.26761(3)
O3B O 0.36007(8) 0.78579(14) 0.23791(7)
O4B O 0.50609(8) 0.81275(14) 0.29720(7)
C15B C 0.47516(13) 0.6399(2) 0.20820(11)
C16B C 0.42147(14) 0.5877(2) 0.15494(11)
H15B H 0.3639 0.6048 0.1487
C17B C 0.45158(14) 0.5113(2) 0.11117(12)
H16B H 0.4141 0.4760 0.0748
C18B C 0.53574(14) 0.4839(2) 0.11850(11)
C19B C 0.58864(14) 0.5381(2) 0.17198(12)
H17B H 0.6462 0.5216 0.1780
C20B C 0.55939(14) 0.6155(2) 0.21685(12)
H18B H 0.5966 0.6515 0.2531
C21B C 0.56856(14) 0.3981(2) 0.07172(12)
H19B H 0.5267 0.3866 0.0312
H20B H 0.6186 0.4341 0.0599
H21B H 0.5819 0.3174 0.0935
C22B C 0.54729(12) 0.7527(2) 0.46979(11)
H22B H 0.5107 0.8116 0.4877
H23B H 0.5393 0.7655 0.4209
N2B N 0.63408(10) 0.77974(17) 0.50002(9)
C23B C 0.69931(13) 0.7022(2) 0.48249(12)
H24B H 0.7508 0.7178 0.5152
H25B H 0.6841 0.6138 0.4868
C24B C 0.71678(13) 0.7225(2) 0.41277(12)
C25B C 0.75976(14) 0.6333(2) 0.38453(12)
H26B H 0.7776 0.5599 0.4090
C26B C 0.77749(13) 0.6489(2) 0.32109(12)
H27B H 0.8078 0.5872 0.3025
C27B C 0.75054(13) 0.7560(2) 0.28475(12)
C28B C 0.70817(13) 0.8456(2) 0.31341(13)
H28B H 0.6899 0.9189 0.2890
C29B C 0.69189(13) 0.8303(2) 0.37694(12)
H29B H 0.6636 0.8936 0.3962
C30B C 0.76017(15) 0.7710(3) 0.21401(13)
O5B O 0.81017(9) 0.68683(15) 0.19464(8)
O6B O 0.72348(10) 0.84984(17) 0.17722(9)
C31B C 0.81587(14) 0.6886(2) 0.12394(12)
H30B H 0.8416 0.6102 0.1126
H31B H 0.7595 0.6932 0.0966
C32B C 0.86596(14) 0.7970(2) 0.10705(13)
H32B H 0.8683 0.7948 0.0594
H33B H 0.9221 0.7919 0.1333
H34B H 0.8401 0.8748 0.1174
S2B S 0.65573(4) 0.90948(6) 0.54115(3)
O7B O 0.74449(8) 0.92149(15) 0.55296(8)
O8B O 0.60510(9) 1.00790(14) 0.50745(7)
C33B C 0.62466(14) 0.8829(2) 0.61775(11)
C34B C 0.67316(14) 0.8074(2) 0.66483(12)
H35B H 0.7250 0.7776 0.6573
C35B C 0.64558(15) 0.7760(2) 0.72248(12)
H36B H 0.6788 0.7239 0.7544
C36B C 0.57038(16) 0.8188(2) 0.73493(13)
C37B C 0.52473(15) 0.8994(2) 0.68856(13)
H37B H 0.4745 0.9333 0.6972
C38B C 0.55150(14) 0.9312(2) 0.62985(12)
H38B H 0.5196 0.9857 0.5985
C39B C 0.53784(16) 0.7775(2) 0.79545(12)
H39B H 0.5835 0.7725 0.8338
H40B H 0.4968 0.8376 0.8050
H41B H 0.5119 0.6956 0.7871
loop_
_geom_bond_atom_site_label_1
_geom_bond_atom_site_label_2
_geom_bond_site_symmetry_1
_geom_bond_site_symmetry_2
C1 C2 1_555 1_555
C2 C3 1_555 1_555
C3 H1 1_555 1_555
C4 C1 1_555 1_555
H2 C4 1_555 1_555
H3 C4 1_555 1_555
N1 C4 1_555 1_555
C5 N1 1_555 1_555
H4 C5 1_555 1_555
H5 C5 1_555 1_555
C6 C5 1_555 1_555
C7 C6 1_555 1_555
H6 C7 1_555 1_555
C8 C7 1_555 1_555
H7 C8 1_555 1_555
C9 C8 1_555 1_555
C10 C9 1_555 1_555
H8 C10 1_555 1_555
C11 C6 1_555 1_555
H9 C11 1_555 1_555
C12 C9 1_555 1_555
O1 C12 1_555 1_555
O2 C12 1_555 1_555
C13 O1 1_555 1_555
H10 C13 1_555 1_555
H11 C13 1_555 1_555
C14 C13 1_555 1_555
H12 C14 1_555 1_555
H13 C14 1_555 1_555
H14 C14 1_555 1_555
S1 N1 1_555 1_555
O3 S1 1_555 1_555
O4 S1 1_555 1_555
C15 S1 1_555 1_555
C16 C15 1_555 1_555
H15 C16 1_555 1_555
C17 C16 1_555 1_555
H16 C17 1_555 1_555
C18 C17 1_555 1_555
C19 C18 1_555 1_555
H17 C19 1_555 1_555
C20 C15 1_555 1_555
H18 C20 1_555 1_555
C21 C18 1_555 1_555
H19 C21 1_555 1_555
H20 C21 1_555 1_555
H21 C21 1_555 1_555
C22 C2 1_555 1_555
H22 C22 1_555 1_555
H23 C22 1_555 1_555
N2 C22 1_555 1_555
C23 N2 1_555 1_555
H24 C23 1_555 1_555
H25 C23 1_555 1_555
C24 C23 1_555 1_555
C25 C24 1_555 1_555
H26 C25 1_555 1_555
C26 C25 1_555 1_555
H27 C26 1_555 1_555
C27 C26 1_555 1_555
C28 C27 1_555 1_555
H28 C28 1_555 1_555
C29 C24 1_555 1_555
H29 C29 1_555 1_555
C30 C27 1_555 1_555
O5 C30 1_555 1_555
O6 C30 1_555 1_555
C31 O5 1_555 1_555
H30 C31 1_555 1_555
H31 C31 1_555 1_555
C32 C31 1_555 1_555
H32 C32 1_555 1_555
H33 C32 1_555 1_555
H34 C32 1_555 1_555
S2 N2 1_555 1_555
O7 S2 1_555 1_555
O8 S2 1_555 1_555
C33 S2 1_555 1_555
C34 C33 1_555 1_555
H35 C34 1_555 1_555
C35 C34 1_555 1_555
H36 C35 1_555 1_555
C36 C35 1_555 1_555
C37 C36 1_555 1_555
H37 C37 1_555 1_555
C38 C33 1_555 1_555
H38 C38 1_555 1_555
C39 C36 1_555 1_555
H39 C39 1_555 1_555
H40 C39 1_555 1_555
H41 C39 1_555 1_555
C1B C3 1_555 1_555
C2B C1B 1_555 1_555
C3B C1 1_555 1_555
H1B C3B 1_555 1_555
C4B C1B 1_555 1_555
H2B C4B 1_555 1_555
H3B C4B 1_555 1_555
N1B C4B 1_555 1_555
C5B N1B 1_555 1_555
H4B C5B 1_555 1_555
H5B C5B 1_555 1_555
C6B C5B 1_555 1_555
C7B C6B 1_555 1_555
H6B C7B 1_555 1_555
C8B C7B 1_555 1_555
H7B C8B 1_555 1_555
C9B C8B 1_555 1_555
C10B C9B 1_555 1_555
H8B C10B 1_555 1_555
C11B C6B 1_555 1_555
H9B C11B 1_555 1_555
C12B C9B 1_555 1_555
O1B C12B 1_555 1_555
O2B C12B 1_555 1_555
C13B O1B 1_555 1_555
H10B C13B 1_555 1_555
H11B C13B 1_555 1_555
C14B C13B 1_555 1_555
H12B C14B 1_555 1_555
H13B C14B 1_555 1_555
H14B C14B 1_555 1_555
S1B N1B 1_555 1_555
O3B S1B 1_555 1_555
O4B S1B 1_555 1_555
C15B S1B 1_555 1_555
C16B C15B 1_555 1_555
H15B C16B 1_555 1_555
C17B C16B 1_555 1_555
H16B C17B 1_555 1_555
C18B C17B 1_555 1_555
C19B C18B 1_555 1_555
H17B C19B 1_555 1_555
C20B C15B 1_555 1_555
H18B C20B 1_555 1_555
C21B C18B 1_555 1_555
H19B C21B 1_555 1_555
H20B C21B 1_555 1_555
H21B C21B 1_555 1_555
C22B C2B 1_555 1_555
H22B C22B 1_555 1_555
H23B C22B 1_555 1_555
N2B C22B 1_555 1_555
C23B N2B 1_555 1_555
H24B C23B 1_555 1_555
H25B C23B 1_555 1_555
C24B C23B 1_555 1_555
C25B C24B 1_555 1_555
H26B C25B 1_555 1_555
C26B C25B 1_555 1_555
H27B C26B 1_555 1_555
C27B C26B 1_555 1_555
C28B C27B 1_555 1_555
H28B C28B 1_555 1_555
C29B C24B 1_555 1_555
H29B C29B 1_555 1_555
C30B C27B 1_555 1_555
O5B C30B 1_555 1_555
O6B C30B 1_555 1_555
C31B O5B 1_555 1_555
H30B C31B 1_555 1_555
H31B C31B 1_555 1_555
C32B C31B 1_555 1_555
H32B C32B 1_555 1_555
H33B C32B 1_555 1_555
H34B C32B 1_555 1_555
S2B N2B 1_555 1_555
O7B S2B 1_555 1_555
O8B S2B 1_555 1_555
C33B S2B 1_555 1_555
C34B C33B 1_555 1_555
H35B C34B 1_555 1_555
C35B C34B 1_555 1_555
H36B C35B 1_555 1_555
C36B C35B 1_555 1_555
C37B C36B 1_555 1_555
H37B C37B 1_555 1_555
C38B C33B 1_555 1_555
H38B C38B 1_555 1_555
C39B C36B 1_555 1_555
H39B C39B 1_555 1_555
H40B C39B 1_555 1_555
H41B C39B 1_555 1_555
C10 C11 1_555 1_555
C19 C20 1_555 1_555
C28 C29 1_555 1_555
C37 C38 1_555 1_555
C2B C3B 1_555 1_555
C10B C11B 1_555 1_555
C19B C20B 1_555 1_555
C28B C29B 1_555 1_555
C37B C38B 1_555 1_555

#END
