
#######################################################################
#
#                 Cambridge Crystallographic Data Centre
#                                CCDC 
#
#######################################################################
#
# If this CIF has been generated from an entry in the Cambridge 
# Structural Database, then it will include bibliographic, chemical, 
# crystal, experimental, refinement or atomic coordinate data resulting 
# from the CCDC's data processing and validation procedures.
#
#######################################################################

data_ANIDAE
_chemical_formula_moiety         'C24 H20 N2 O1'
_chemical_name_systematic        
2-((4-Methoxyphenyl)ethynyl)-3-methyl-1-(6-methylpyridin-2-yl)-1H-indole
_symmetry_cell_setting           triclinic
_symmetry_space_group_name_H-M   'P -1'
_symmetry_Int_Tables_number      2
_space_group_name_Hall           '-P 1'
loop_
_symmetry_equiv_pos_site_id
_symmetry_equiv_pos_as_xyz
1 x,y,z
2 -x,-y,-z
_cell_length_a                   9.5769(19)
_cell_length_b                   9.900(2)
_cell_length_c                   11.220(2)
_cell_angle_alpha                89.35(3)
_cell_angle_beta                 87.07(3)
_cell_angle_gamma                64.40(3)
_cell_volume                     958.032
_exptl_crystal_colour            colorless
_exptl_crystal_description       block
_cell_formula_units_Z            2
loop_
_atom_site_label
_atom_site_type_symbol
_atom_site_fract_x
_atom_site_fract_y
_atom_site_fract_z
O1 O -0.4715(3) 0.2310(3) 1.3338(2)
N1 N 0.2326(3) 0.2871(3) 0.7710(2)
C1 C 0.2227(4) 0.2628(4) 0.8943(3)
N2 N 0.1389(4) 0.2496(4) 0.5930(3)
C2 C 0.3661(5) 0.2256(4) 0.9404(3)
C3 C 0.4011(6) 0.1906(6) 1.0685(4)
H1 H 0.3096 0.1974 1.1126
H2 H 0.4338 0.2610 1.1009
H3 H 0.4822 0.0910 1.0744
C4 C 0.4666(4) 0.2283(4) 0.8446(3)
C5 C 0.6235(5) 0.2014(5) 0.8367(4)
H4 H 0.6811 0.1768 0.9045
C6 C 0.6903(5) 0.2114(5) 0.7296(4)
H5 H 0.7945 0.1923 0.7243
C7 C 0.6046(5) 0.2504(5) 0.6263(4)
H6 H 0.6523 0.2583 0.5540
C8 C 0.4501(5) 0.2770(4) 0.6311(3)
H7 H 0.3934 0.3017 0.5628
C9 C 0.3830(4) 0.2660(4) 0.7396(3)
C10 C 0.0231(5) 0.2863(5) 0.5165(4)
C11 C -0.1224(5) 0.4003(5) 0.5414(4)
H8 H -0.1999 0.4221 0.4877
C12 C -0.1523(5) 0.4813(5) 0.6458(4)
H9 H -0.2499 0.5588 0.6632
C13 C -0.0345(4) 0.4461(5) 0.7255(4)
H10 H -0.0509 0.4986 0.7971
C14 C 0.1065(4) 0.3309(4) 0.6937(3)
C15 C 0.0609(6) 0.1927(6) 0.4047(4)
H11 H 0.1675 0.1203 0.4031
H12 H 0.0441 0.2560 0.3363
H13 H -0.0046 0.1418 0.4032
C16 C 0.0898(5) 0.2643(4) 0.9559(3)
C17 C -0.0100(5) 0.2556(4) 1.0218(3)
C18 C -0.1268(4) 0.2466(5) 1.1011(3)
C19 C -0.2581(5) 0.3743(5) 1.1395(4)
H14 H -0.2706 0.4674 1.1115
C20 C -0.3691(5) 0.3664(5) 1.2174(4)
H15 H -0.4548 0.4534 1.2423
C21 C -0.3534(4) 0.2282(4) 1.2591(3)
C22 C -0.2243(4) 0.1001(4) 1.2229(3)
H16 H -0.2131 0.0075 1.2514
C23 C -0.1123(5) 0.1077(5) 1.1452(3)
H17 H -0.0261 0.0204 1.1216
C24 C -0.4714(5) 0.0894(5) 1.3624(4)
H18 H -0.5588 0.1050 1.4158
H19 H -0.3774 0.0273 1.4000
H20 H -0.4780 0.0412 1.2906
loop_
_geom_bond_atom_site_label_1
_geom_bond_atom_site_label_2
_geom_bond_site_symmetry_1
_geom_bond_site_symmetry_2
O1 C21 1_555 1_555
N1 C1 1_555 1_555
C1 C2 1_555 1_555
N2 C10 1_555 1_555
C2 C3 1_555 1_555
C3 H1 1_555 1_555
H2 C3 1_555 1_555
H3 C3 1_555 1_555
C4 C2 1_555 1_555
C5 C4 1_555 1_555
H4 C5 1_555 1_555
C6 C5 1_555 1_555
H5 C6 1_555 1_555
C7 C6 1_555 1_555
H6 C7 1_555 1_555
C8 C7 1_555 1_555
H7 C8 1_555 1_555
C9 N1 1_555 1_555
C10 C11 1_555 1_555
C11 H8 1_555 1_555
C12 C11 1_555 1_555
H9 C12 1_555 1_555
C13 C12 1_555 1_555
H10 C13 1_555 1_555
C14 N1 1_555 1_555
C15 C10 1_555 1_555
H11 C15 1_555 1_555
H12 C15 1_555 1_555
H13 C15 1_555 1_555
C16 C1 1_555 1_555
C17 C16 1_555 1_555
C18 C17 1_555 1_555
C19 C18 1_555 1_555
H14 C19 1_555 1_555
C20 C19 1_555 1_555
H15 C20 1_555 1_555
C21 C20 1_555 1_555
C22 C21 1_555 1_555
H16 C22 1_555 1_555
C23 C18 1_555 1_555
H17 C23 1_555 1_555
C24 O1 1_555 1_555
H18 C24 1_555 1_555
H19 C24 1_555 1_555
H20 C24 1_555 1_555
N2 C14 1_555 1_555
C4 C9 1_555 1_555
C8 C9 1_555 1_555
C13 C14 1_555 1_555
C22 C23 1_555 1_555

#END
