
#######################################################################
#
#                 Cambridge Crystallographic Data Centre
#                                CCDC 
#
#######################################################################
#
# If this CIF has been generated from an entry in the Cambridge 
# Structural Database, then it will include bibliographic, chemical, 
# crystal, experimental, refinement or atomic coordinate data resulting 
# from the CCDC's data processing and validation procedures.
#
#######################################################################

data_ANIQOF
_chemical_formula_moiety         'C35 H34 Br1 N1 O5 Si1,C1 H2 Cl2'
_chemical_name_systematic        
'8-(4-bromophenyl)-13-((t-butyl(dimethyl)silyl)oxy)-4,7-diphenyl-11-oxa-4-azatetracyclo[5.5.1.0^1,9^.0^2,6^]tridec-8-ene-3,5,12-trione dichloromethane solvate'
_symmetry_cell_setting           orthorhombic
_symmetry_space_group_name_H-M   'P 21 21 21'
_symmetry_Int_Tables_number      19
_space_group_name_Hall           'P 2ac 2ab'
loop_
_symmetry_equiv_pos_site_id
_symmetry_equiv_pos_as_xyz
1 x,y,z
2 1/2-x,-y,1/2+z
3 1/2+x,1/2-y,-z
4 -x,1/2+y,1/2-z
_cell_length_a                   10.41794(18)
_cell_length_b                   11.5188(3)
_cell_length_c                   29.8214(6)
_cell_angle_alpha                90
_cell_angle_beta                 90
_cell_angle_gamma                90
_cell_volume                     3578.63
_exptl_crystal_colour            'light colorless'
_exptl_crystal_description       block
_cell_formula_units_Z            4
loop_
_atom_site_label
_atom_site_type_symbol
_atom_site_fract_x
_atom_site_fract_y
_atom_site_fract_z
Br1 Br 1.00708(5) 0.58925(5) 0.12930(2)
Si1 Si 0.14422(15) 0.06378(13) 0.17700(5)
O1 O 0.3868(4) 0.1604(4) 0.01274(12)
O2 O 0.1915(4) 0.1024(3) 0.03421(12)
O3 O 0.2375(4) 0.4260(3) 0.01253(12)
O4 O 0.3655(4) 0.5913(3) 0.14407(12)
O5 O 0.2048(3) 0.1786(3) 0.15054(11)
N1 N 0.3175(4) 0.5284(3) 0.07306(14)
C1 C 0.4911(6) 0.2373(4) 0.02730(15)
H1 H 0.4966 0.3054 0.0083
H2 H 0.5730 0.1971 0.0268
C2 C 0.4540(4) 0.2697(4) 0.07422(15)
C3 C 0.3173(4) 0.2337(4) 0.08166(15)
C4 C 0.2861(5) 0.1577(4) 0.04191(16)
C5 C 0.5007(5) 0.3175(3) 0.11179(13)
C6 C 0.3908(4) 0.3089(4) 0.14677(15)
C7 C 0.3237(4) 0.1928(4) 0.13073(16)
H3 H 0.3789 0.1246 0.1346
C8 C 0.2827(4) 0.3958(4) 0.13146(15)
H4 H 0.2139 0.3995 0.1538
C9 C 0.3281(4) 0.5163(4) 0.11905(15)
C10 C 0.2595(5) 0.4341(4) 0.05190(16)
C11 C 0.2333(5) 0.3456(4) 0.08762(16)
H5 H 0.1418 0.3267 0.0894
C12 C 0.3569(5) 0.6295(4) 0.04760(17)
C13 C 0.3016(7) 0.7348(6) 0.0569(3)
H6 H 0.2438 0.7431 0.0804
C14 C 0.3352(10) 0.8300(6) 0.0296(3)
H7 H 0.2953 0.9012 0.0342
C15 C 0.4225(9) 0.8203(8) -0.0026(3)
H8 H 0.4474 0.8854 -0.0188
C16 C 0.4752(9) 0.7156(8) -0.0118(3)
H9 H 0.5316 0.7086 -0.0358
C17 C 0.4466(7) 0.6172(6) 0.0143(2)
H10 H 0.4869 0.5464 0.0091
C18 C 0.6244(4) 0.3781(4) 0.11766(14)
C19 C 0.6420(5) 0.4607(5) 0.15187(16)
H11 H 0.5770 0.4734 0.1726
C20 C 0.7539(5) 0.5224(5) 0.15492(17)
H12 H 0.7645 0.5772 0.1775
C21 C 0.8514(4) 0.5029(4) 0.12415(16)
C22 C 0.8388(4) 0.4227(5) 0.09073(16)
H13 H 0.9058 0.4097 0.0707
C23 C 0.7238(5) 0.3604(5) 0.08694(17)
H14 H 0.7135 0.3069 0.0638
C24 C 0.4272(4) 0.3046(4) 0.19584(15)
C25 C 0.3660(5) 0.3716(5) 0.22799(16)
H15 H 0.3050 0.4262 0.2195
C26 C 0.3966(6) 0.3564(6) 0.27380(17)
H16 H 0.3553 0.4011 0.2954
C27 C 0.4869(6) 0.2762(5) 0.28667(16)
H17 H 0.5049 0.2656 0.3169
C28 C 0.5508(6) 0.2117(6) 0.25493(19)
H18 H 0.6136 0.1589 0.2636
C29 C 0.5206(5) 0.2257(5) 0.20946(16)
H19 H 0.5635 0.1817 0.1881
C30 C 0.2611(10) 0.0180(9) 0.2220(3)
H20 H 0.3410 -0.0041 0.2085
H21 H 0.2264 -0.0468 0.2383
H22 H 0.2753 0.0815 0.2423
C31 C 0.1269(15) -0.0558(7) 0.1363(4)
H23 H 0.0716 -0.0317 0.1123
H24 H 0.0905 -0.1222 0.1509
H25 H 0.2097 -0.0757 0.1244
C32 C -0.0090(7) 0.1213(6) 0.2016(3)
C33 C -0.0912(14) 0.1833(15) 0.1711(7)
H26 H -0.0803 0.2653 0.1754
H27 H -0.1790 0.1626 0.1767
H28 H -0.0691 0.1633 0.1408
C34 C 0.0331(15) 0.2156(15) 0.2378(7)
H29 H 0.0895 0.1804 0.2594
H30 H -0.0416 0.2449 0.2529
H31 H 0.0768 0.2784 0.2232
C35 C -0.071(2) 0.020(2) 0.2284(11)
H32 H -0.0855 -0.0444 0.2088
H33 H -0.1513 0.0458 0.2408
H34 H -0.0145 -0.0025 0.2522
Cl3 Cl 0.6888(6) -0.2320(4) 0.09922(17)
C40 C 0.671(3) -0.1173(19) 0.0747(10)
H46 H 0.6121 -0.1333 0.0504
H47 H 0.7536 -0.1010 0.0608
Cl4 Cl 0.6189(8) 0.0192(6) 0.0990(3)
C36? C -0.097(3) 0.037(4) 0.2241(19)
H35? H -0.0760 -0.0401 0.2148
H36? H -0.1840 0.0546 0.2161
H37? H -0.0870 0.0436 0.2560
C37? C -0.093(2) 0.122(2) 0.1514(11)
H38? H -0.0789 0.1944 0.1362
H39? H -0.1827 0.1123 0.1572
H40? H -0.0631 0.0594 0.1328
C38? C -0.021(2) 0.234(2) 0.2189(12)
H41? H 0.0571 0.2544 0.2342
H42? H -0.0912 0.2361 0.2396
H43? H -0.0360 0.2872 0.1949
Cl1? Cl 0.5810(9) -0.0098(6) 0.1013(3)
Cl2? Cl 0.7712(7) -0.1861(5) 0.11227(17)
C39? C 0.699(3) -0.091(2) 0.0724(10)
H44? H 0.7632 -0.0401 0.0596
H45? H 0.6600 -0.1358 0.0484
loop_
_geom_bond_atom_site_label_1
_geom_bond_atom_site_label_2
_geom_bond_site_symmetry_1
_geom_bond_site_symmetry_2
Br1 C21 1_555 1_555
Si1 O5 1_555 1_555
O1 C1 1_555 1_555
O2 C4 1_555 1_555
O3 C10 1_555 1_555
O4 C9 1_555 1_555
O5 C7 1_555 1_555
N1 C9 1_555 1_555
C1 H1 1_555 1_555
H2 C1 1_555 1_555
C2 C1 1_555 1_555
C3 C2 1_555 1_555
C4 O1 1_555 1_555
C5 C2 1_555 1_555
C6 C5 1_555 1_555
C7 C3 1_555 1_555
H3 C7 1_555 1_555
C8 C6 1_555 1_555
H4 C8 1_555 1_555
C9 C8 1_555 1_555
C10 N1 1_555 1_555
C11 C3 1_555 1_555
H5 C11 1_555 1_555
C12 N1 1_555 1_555
C13 C12 1_555 1_555
H6 C13 1_555 1_555
C14 C13 1_555 1_555
H7 C14 1_555 1_555
C15 C14 1_555 1_555
H8 C15 1_555 1_555
C16 C15 1_555 1_555
H9 C16 1_555 1_555
C17 C12 1_555 1_555
H10 C17 1_555 1_555
C18 C5 1_555 1_555
C19 C18 1_555 1_555
H11 C19 1_555 1_555
C20 C19 1_555 1_555
H12 C20 1_555 1_555
C21 C20 1_555 1_555
C22 C21 1_555 1_555
H13 C22 1_555 1_555
C23 C18 1_555 1_555
H14 C23 1_555 1_555
C24 C6 1_555 1_555
C25 C24 1_555 1_555
H15 C25 1_555 1_555
C26 C25 1_555 1_555
H16 C26 1_555 1_555
C27 C26 1_555 1_555
H17 C27 1_555 1_555
C28 C27 1_555 1_555
H18 C28 1_555 1_555
C29 C24 1_555 1_555
H19 C29 1_555 1_555
C30 Si1 1_555 1_555
H20 C30 1_555 1_555
H21 C30 1_555 1_555
H22 C30 1_555 1_555
C31 Si1 1_555 1_555
H23 C31 1_555 1_555
H24 C31 1_555 1_555
H25 C31 1_555 1_555
C32 Si1 1_555 1_555
C33 C32 1_555 1_555
H26 C33 1_555 1_555
H27 C33 1_555 1_555
H28 C33 1_555 1_555
C34 C32 1_555 1_555
H29 C34 1_555 1_555
H30 C34 1_555 1_555
H31 C34 1_555 1_555
C35 C32 1_555 1_555
H32 C35 1_555 1_555
H33 C35 1_555 1_555
H34 C35 1_555 1_555
Cl3 C40 1_555 1_555
C40 H46 1_555 1_555
H47 C40 1_555 1_555
Cl4 C40 1_555 1_555
C3 C4 1_555 1_555
C6 C7 1_555 1_555
C8 C11 1_555 1_555
C10 C11 1_555 1_555
C16 C17 1_555 1_555
C22 C23 1_555 1_555
C28 C29 1_555 1_555

#END
