
#######################################################################
#
#                 Cambridge Crystallographic Data Centre
#                                CCDC 
#
#######################################################################
#
# If this CIF has been generated from an entry in the Cambridge 
# Structural Database, then it will include bibliographic, chemical, 
# crystal, experimental, refinement or atomic coordinate data resulting 
# from the CCDC's data processing and validation procedures.
#
#######################################################################

data_ANIVAV
_chemical_formula_moiety         'C15 H12 Cl1 N1 O3'
_chemical_name_systematic        
N-(2-Chlorophenyl)-2,3-dihydro-1,4-benzodioxine-2-carboxamide
_symmetry_cell_setting           triclinic
_symmetry_space_group_name_H-M   'P -1'
_symmetry_Int_Tables_number      2
_space_group_name_Hall           '-P 1'
loop_
_symmetry_equiv_pos_site_id
_symmetry_equiv_pos_as_xyz
1 x,y,z
2 -x,-y,-z
_cell_length_a                   7.6290(15)
_cell_length_b                   9.0020(18)
_cell_length_c                   10.377(2)
_cell_angle_alpha                89.00(3)
_cell_angle_beta                 72.14(2)
_cell_angle_gamma                87.08(3)
_cell_volume                     677.428
_exptl_crystal_colour            colorless
_exptl_crystal_description       block
_cell_formula_units_Z            2
loop_
_atom_site_label
_atom_site_type_symbol
_atom_site_fract_x
_atom_site_fract_y
_atom_site_fract_z
Cl1 Cl -0.01212(18) 0.94370(15) 0.33592(11)
N1 N -0.2918(5) 0.9931(3) 0.1964(3)
H1 H -0.1744 0.9974 0.1614
O1 O -0.5624(4) 1.0728(3) 0.1609(3)
O2 O -0.3708(4) 1.4010(3) 0.1078(3)
O3 O -0.0949(4) 1.1700(3) 0.0051(3)
C1 C -0.4512(8) 0.7275(5) 0.5442(5)
H2 H -0.4845 0.6675 0.6209
C2 C -0.5742(7) 0.7585(5) 0.4739(5)
H3 H -0.6908 0.7200 0.5036
C3 C -0.5260(6) 0.8471(5) 0.3583(5)
H4 H -0.6097 0.8676 0.3106
C4 C -0.3517(6) 0.9049(4) 0.3144(4)
C5 C -0.2311(6) 0.8719(4) 0.3872(4)
C6 C -0.2790(8) 0.7843(5) 0.5022(4)
H5 H -0.1959 0.7640 0.5505
C7 C -0.3948(6) 1.0712(4) 0.1317(4)
C8 C -0.2823(5) 1.1577(4) 0.0078(4)
H6 H -0.2802 1.1012 -0.0726
C9 C -0.3716(7) 1.3088(5) -0.0030(4)
H7 H -0.3053 1.3554 -0.0877
H8 H -0.4976 1.2979 -0.0027
C10 C -0.2069(6) 1.3954(4) 0.1359(4)
C11 C -0.1776(6) 1.5014(4) 0.2214(5)
H9 H -0.2673 1.5765 0.2558
C12 C -0.0179(7) 1.4965(5) 0.2556(5)
H10 H 0.0000 1.5681 0.3133
C13 C 0.1170(6) 1.3858(5) 0.2049(4)
H11 H 0.2254 1.3833 0.2283
C14 C 0.0912(6) 1.2798(4) 0.1204(4)
H12 H 0.1826 1.2061 0.0852
C15 C -0.0715(5) 1.2831(4) 0.0876(4)
loop_
_geom_bond_atom_site_label_1
_geom_bond_atom_site_label_2
_geom_bond_site_symmetry_1
_geom_bond_site_symmetry_2
Cl1 C5 1_555 1_555
N1 H1 1_555 1_555
O1 C7 1_555 1_555
O2 C9 1_555 1_555
O3 C8 1_555 1_555
C1 H2 1_555 1_555
C2 C1 1_555 1_555
H3 C2 1_555 1_555
C3 C2 1_555 1_555
H4 C3 1_555 1_555
C4 N1 1_555 1_555
C5 C4 1_555 1_555
C6 C1 1_555 1_555
H5 C6 1_555 1_555
C7 N1 1_555 1_555
C8 C7 1_555 1_555
H6 C8 1_555 1_555
C9 C8 1_555 1_555
H7 C9 1_555 1_555
H8 C9 1_555 1_555
C10 O2 1_555 1_555
C11 C10 1_555 1_555
H9 C11 1_555 1_555
C12 C11 1_555 1_555
H10 C12 1_555 1_555
C13 C12 1_555 1_555
H11 C13 1_555 1_555
C14 C13 1_555 1_555
H12 C14 1_555 1_555
C15 O3 1_555 1_555
C3 C4 1_555 1_555
C5 C6 1_555 1_555
C10 C15 1_555 1_555
C14 C15 1_555 1_555

#END
