
#######################################################################
#
#                 Cambridge Crystallographic Data Centre
#                                CCDC 
#
#######################################################################
#
# If this CIF has been generated from an entry in the Cambridge 
# Structural Database, then it will include bibliographic, chemical, 
# crystal, experimental, refinement or atomic coordinate data resulting 
# from the CCDC's data processing and validation procedures.
#
#######################################################################

data_ANOHOB
_chemical_formula_moiety         'C41 H66 B1 Li1 N2 O2'
_chemical_name_systematic        
((1,3-bis(2,6-Di-isopropylphenyl)-2,3-dihydro-1H-imidazol-4-yl-2-ylidene)(triethyl)borate)-bis(tetrahydrofuran)-lithium
_symmetry_cell_setting           monoclinic
_symmetry_space_group_name_H-M   'P 21/n'
_symmetry_Int_Tables_number      14
_space_group_name_Hall           '-P 2yn'
loop_
_symmetry_equiv_pos_site_id
_symmetry_equiv_pos_as_xyz
1 x,y,z
2 1/2-x,1/2+y,1/2-z
3 -x,-y,-z
4 1/2+x,1/2-y,1/2+z
_cell_length_a                   11.7165(7)
_cell_length_b                   17.9698(11)
_cell_length_c                   19.7863(12)
_cell_angle_alpha                90
_cell_angle_beta                 101.5390(10)
_cell_angle_gamma                90
_cell_volume                     4081.67
_exptl_crystal_colour            colorless
_exptl_crystal_description       plate
_cell_formula_units_Z            4
loop_
_atom_site_label
_atom_site_type_symbol
_atom_site_fract_x
_atom_site_fract_y
_atom_site_fract_z
Li1 Li 0.7740(3) 0.7150(2) 0.1168(2)
N1 N 0.80147(12) 0.85427(9) 0.20960(8)
N2 N 0.97093(12) 0.82195(8) 0.19903(7)
C1 C 0.85646(15) 0.80153(10) 0.17903(9)
C2 C 0.87952(15) 0.90478(11) 0.24619(10)
H1 H 0.8592 0.9451 0.2707
C3 C 0.98939(15) 0.88687(10) 0.24103(9)
C4 C 1.05913(15) 0.77694(10) 0.17684(10)
C5 C 1.11503(16) 0.72094(11) 0.22051(10)
C6 C 1.1948(2) 0.67651(13) 0.19669(13)
H2 H 1.2341 0.6397 0.2252
C7 C 1.2170(2) 0.68581(15) 0.13154(14)
H3 H 1.2702 0.6549 0.1162
C8 C 1.1613(2) 0.74009(14) 0.08951(13)
H4 H 1.1770 0.7457 0.0455
C9 C 1.08122(16) 0.78748(11) 0.11098(10)
C10 C 1.01905(18) 0.84521(13) 0.06062(11)
H5 H 0.9814 0.8807 0.0868
C11 C 1.1019(2) 0.88892(15) 0.02465(13)
H6 H 1.0583 0.9249 -0.0060
H7 H 1.1403 0.8553 -0.0012
H8 H 1.1589 0.9140 0.0586
C12 C 0.9242(2) 0.80885(17) 0.00675(13)
H9 H 0.8855 0.8462 -0.0243
H10 H 0.8688 0.7849 0.0293
H11 H 0.9587 0.7726 -0.0186
C13 C 1.08662(19) 0.70660(13) 0.29079(11)
H12 H 1.0568 0.7530 0.3066
C14 C 1.1923(3) 0.68287(18) 0.34462(14)
H13 H 1.2516 0.7204 0.3485
H14 H 1.2219 0.6367 0.3309
H15 H 1.1700 0.6766 0.3884
C15 C 0.9915(3) 0.64841(18) 0.28534(16)
H16 H 0.9735 0.6402 0.3300
H17 H 1.0177 0.6027 0.2685
H18 H 0.9230 0.6655 0.2541
C16 C 0.67714(15) 0.86423(11) 0.19794(10)
C17 C 0.61247(17) 0.82574(13) 0.23824(12)
C18 C 0.49277(19) 0.84037(17) 0.22618(14)
H19 H 0.4462 0.8153 0.2516
C19 C 0.4434(2) 0.89091(19) 0.17764(16)
H20 H 0.3640 0.9005 0.1712
C20 C 0.5088(2) 0.92758(17) 0.13833(14)
H21 H 0.4730 0.9615 0.1053
C21 C 0.62816(17) 0.91504(13) 0.14680(12)
C22 C 0.6991(2) 0.95381(14) 0.10153(12)
H22 H 0.7806 0.9390 0.1174
C23 C 0.6628(3) 0.92993(19) 0.02684(14)
H23 H 0.7101 0.9551 -0.0004
H24 H 0.5825 0.9424 0.0102
H25 H 0.6729 0.8771 0.0235
C24 C 0.6936(3) 1.03791(17) 0.10706(19)
H26 H 0.7403 1.0602 0.0778
H27 H 0.7226 1.0527 0.1540
H28 H 0.6143 1.0541 0.0929
C25 C 0.6655(2) 0.76839(15) 0.29070(14)
H29 H 0.7503 0.7743 0.2987
C26 C 0.6291(4) 0.7769(2) 0.35988(17)
H30 H 0.6665 0.7393 0.3911
H31 H 0.5461 0.7716 0.3536
H32 H 0.6516 0.8252 0.3786
C27 C 0.6370(4) 0.69097(19) 0.2638(2)
H33 H 0.6720 0.6554 0.2980
H34 H 0.6668 0.6838 0.2225
H35 H 0.5541 0.6842 0.2538
B1 B 1.10845(19) 0.93660(13) 0.26901(13)
C28 C 1.0740(2) 1.00454(13) 0.31681(12)
H36 H 1.1358 1.0413 0.3223
H37 H 1.0040 1.0282 0.2914
C29 C 1.0534(2) 0.98510(17) 0.38795(13)
H38 H 1.0335 1.0294 0.4102
H39 H 1.1229 0.9637 0.4149
H40 H 0.9907 0.9499 0.3838
C30 C 1.15037(18) 0.97191(13) 0.20162(11)
H41 H 1.2245 0.9967 0.2174
H42 H 1.1638 0.9312 0.1720
C31 C 1.0678(2) 1.02680(15) 0.15832(14)
H43 H 1.1012 1.0438 0.1205
H44 H 1.0555 1.0685 0.1863
H45 H 0.9947 1.0028 0.1407
C32 C 1.21298(17) 0.88561(13) 0.31341(12)
H46 H 1.1829 0.8600 0.3493
H47 H 1.2344 0.8480 0.2830
C33 C 1.3228(2) 0.92780(17) 0.34696(14)
H48 H 1.3791 0.8934 0.3713
H49 H 1.3036 0.9639 0.3787
H50 H 1.3548 0.9526 0.3120
O1 O 0.62203(15) 0.71652(11) 0.05735(9)
C34 C 0.5090(15) 0.7163(11) 0.0726(6)
H51 H 0.4927 0.7637 0.0922
H52 H 0.5024 0.6773 0.1055
C35 C 0.4272(8) 0.7029(11) 0.0068(6)
H53 H 0.3838 0.6574 0.0095
H54 H 0.3724 0.7438 -0.0032
C36 C 0.4879(12) 0.6974(9) -0.0412(6)
H55 H 0.4898 0.7447 -0.0647
H56 H 0.4548 0.6601 -0.0748
C37 C 0.6049(11) 0.6759(8) -0.0060(6)
H57 H 0.6096 0.6227 0.0025
H58 H 0.6624 0.6897 -0.0329
O2 O 0.82354(18) 0.61526(10) 0.11037(12)
C38 C 0.7508(17) 0.5554(9) 0.1198(12)
H59 H 0.6704 0.5689 0.1016
H60 H 0.7588 0.5458 0.1687
C39 C 0.7766(13) 0.4922(7) 0.0880(11)
H61 H 0.7938 0.4520 0.1212
H62 H 0.7106 0.4775 0.0526
C40 C 0.8740(15) 0.5064(9) 0.0582(9)
H63 H 0.8512 0.5079 0.0083
H64 H 0.9323 0.4678 0.0709
C41 C 0.9219(16) 0.5809(8) 0.0856(12)
H65 H 0.9888 0.5749 0.1230
H66 H 0.9444 0.6107 0.0495
C42? C 0.5134(17) 0.7416(15) 0.0689(7)
C43? C 0.4363(10) 0.7514(9) 0.0012(8)
C44? C 0.4888(13) 0.7276(11) -0.0466(8)
C45? C 0.6076(12) 0.7083(11) -0.0146(7)
C46? C 0.7802(18) 0.5523(9) 0.1454(9)
C47? C 0.827(2) 0.4890(8) 0.1238(11)
C48? C 0.8954(17) 0.5103(10) 0.0769(11)
C49? C 0.900(2) 0.5936(10) 0.0706(14)
H67? H 0.5228 0.7884 0.0937
H68? H 0.4806 0.7054 0.0960
H69? H 0.3647 0.7237 -0.0004
H70? H 0.4166 0.8036 -0.0063
H71? H 0.4887 0.7660 -0.0810
H72? H 0.4487 0.6843 -0.0691
H73? H 0.6237 0.6573 -0.0258
H74? H 0.6616 0.7405 -0.0320
H75? H 0.8039 0.5575 0.1951
H76? H 0.6958 0.5503 0.1337
H77? H 0.8738 0.4634 0.1628
H78? H 0.7651 0.4558 0.1018
H79? H 0.8635 0.4889 0.0321
H80? H 0.9737 0.4910 0.0920
H81? H 0.9779 0.6125 0.0886
H82? H 0.8751 0.6096 0.0232
loop_
_geom_bond_atom_site_label_1
_geom_bond_atom_site_label_2
_geom_bond_site_symmetry_1
_geom_bond_site_symmetry_2
Li1 C1 1_555 1_555
N1 C1 1_555 1_555
N2 C1 1_555 1_555
C2 N1 1_555 1_555
H1 C2 1_555 1_555
C3 N2 1_555 1_555
C4 N2 1_555 1_555
C5 C4 1_555 1_555
C6 C5 1_555 1_555
H2 C6 1_555 1_555
C7 C6 1_555 1_555
H3 C7 1_555 1_555
C8 C7 1_555 1_555
H4 C8 1_555 1_555
C9 C4 1_555 1_555
C10 C9 1_555 1_555
H5 C10 1_555 1_555
C11 C10 1_555 1_555
H6 C11 1_555 1_555
H7 C11 1_555 1_555
H8 C11 1_555 1_555
C12 C10 1_555 1_555
H9 C12 1_555 1_555
H10 C12 1_555 1_555
H11 C12 1_555 1_555
C13 C5 1_555 1_555
H12 C13 1_555 1_555
C14 C13 1_555 1_555
H13 C14 1_555 1_555
H14 C14 1_555 1_555
H15 C14 1_555 1_555
C15 C13 1_555 1_555
H16 C15 1_555 1_555
H17 C15 1_555 1_555
H18 C15 1_555 1_555
C16 N1 1_555 1_555
C17 C16 1_555 1_555
C18 C17 1_555 1_555
H19 C18 1_555 1_555
C19 C18 1_555 1_555
H20 C19 1_555 1_555
C20 C19 1_555 1_555
H21 C20 1_555 1_555
C21 C16 1_555 1_555
C22 C21 1_555 1_555
H22 C22 1_555 1_555
C23 C22 1_555 1_555
H23 C23 1_555 1_555
H24 C23 1_555 1_555
H25 C23 1_555 1_555
C24 C22 1_555 1_555
H26 C24 1_555 1_555
H27 C24 1_555 1_555
H28 C24 1_555 1_555
C25 C17 1_555 1_555
H29 C25 1_555 1_555
C26 C25 1_555 1_555
H30 C26 1_555 1_555
H31 C26 1_555 1_555
H32 C26 1_555 1_555
C27 C25 1_555 1_555
H33 C27 1_555 1_555
H34 C27 1_555 1_555
H35 C27 1_555 1_555
B1 C3 1_555 1_555
C28 B1 1_555 1_555
H36 C28 1_555 1_555
H37 C28 1_555 1_555
C29 C28 1_555 1_555
H38 C29 1_555 1_555
H39 C29 1_555 1_555
H40 C29 1_555 1_555
C30 B1 1_555 1_555
H41 C30 1_555 1_555
H42 C30 1_555 1_555
C31 C30 1_555 1_555
H43 C31 1_555 1_555
H44 C31 1_555 1_555
H45 C31 1_555 1_555
C32 B1 1_555 1_555
H46 C32 1_555 1_555
H47 C32 1_555 1_555
C33 C32 1_555 1_555
H48 C33 1_555 1_555
H49 C33 1_555 1_555
H50 C33 1_555 1_555
O1 Li1 1_555 1_555
C34 O1 1_555 1_555
H51 C34 1_555 1_555
H52 C34 1_555 1_555
C35 C34 1_555 1_555
H53 C35 1_555 1_555
H54 C35 1_555 1_555
C36 C35 1_555 1_555
H55 C36 1_555 1_555
H56 C36 1_555 1_555
C37 O1 1_555 1_555
H57 C37 1_555 1_555
H58 C37 1_555 1_555
O2 Li1 1_555 1_555
C38 O2 1_555 1_555
H59 C38 1_555 1_555
H60 C38 1_555 1_555
C39 C38 1_555 1_555
H61 C39 1_555 1_555
H62 C39 1_555 1_555
C40 C39 1_555 1_555
H63 C40 1_555 1_555
H64 C40 1_555 1_555
C41 O2 1_555 1_555
H65 C41 1_555 1_555
H66 C41 1_555 1_555
C2 C3 1_555 1_555
C8 C9 1_555 1_555
C20 C21 1_555 1_555
C36 C37 1_555 1_555
C40 C41 1_555 1_555

#END
