
#######################################################################
#
#                 Cambridge Crystallographic Data Centre
#                                CCDC 
#
#######################################################################
#
# If this CIF has been generated from an entry in the Cambridge 
# Structural Database, then it will include bibliographic, chemical, 
# crystal, experimental, refinement or atomic coordinate data resulting 
# from the CCDC's data processing and validation procedures.
#
#######################################################################

data_ANOKIZ
_chemical_formula_moiety         'C19 H14 Cl1 N1 O3'
_chemical_name_systematic        
'methyl 4-benzoyl-5-(4-chlorophenyl)-1H-pyrrole-2-carboxylate'
_symmetry_cell_setting           monoclinic
_symmetry_space_group_name_H-M   'P 21/c'
_symmetry_Int_Tables_number      14
_space_group_name_Hall           '-P 2ybc'
loop_
_symmetry_equiv_pos_site_id
_symmetry_equiv_pos_as_xyz
1 x,y,z
2 -x,1/2+y,1/2-z
3 -x,-y,-z
4 x,1/2-y,1/2+z
_cell_length_a                   12.9597(11)
_cell_length_b                   9.6741(8)
_cell_length_c                   13.3527(11)
_cell_angle_alpha                90
_cell_angle_beta                 100.796(2)
_cell_angle_gamma                90
_cell_volume                     1644.44
_exptl_crystal_colour            colorless
_exptl_crystal_description       prismatic
_cell_formula_units_Z            4
loop_
_atom_site_label
_atom_site_type_symbol
_atom_site_fract_x
_atom_site_fract_y
_atom_site_fract_z
Cl1 Cl 0.17258(5) 1.17985(7) 0.04254(4)
N1 N 0.54785(11) 0.68732(13) 0.11344(10)
O1 O 0.62597(10) 1.01779(15) 0.31785(12)
O2 O 0.59625(10) 0.40574(13) 0.06921(10)
O3 O 0.75849(9) 0.44357(12) 0.15639(10)
C1 C 0.54970(12) 0.81697(15) 0.15123(12)
C2 C 0.64360(12) 0.62554(16) 0.14151(11)
C3 C 0.70922(12) 0.71858(16) 0.19810(12)
H1 H 0.7796 0.7043 0.2265
C4 C 0.65146(12) 0.83960(16) 0.20585(12)
C5 C 0.68662(12) 0.95517(17) 0.27506(13)
C6 C 0.79992(12) 0.99487(15) 0.29590(12)
C7 C 0.86546(14) 0.97428(18) 0.22714(15)
H2 H 0.8410 0.9282 0.1662
C8 C 0.96810(16) 1.0224(2) 0.2489(2)
H3 H 1.0122 1.0089 0.2023
C9 C 1.00476(16) 1.0897(2) 0.3387(2)
H4 H 1.0736 1.1216 0.3529
C10 C 0.94055(16) 1.1100(2) 0.40740(18)
H5 H 0.9656 1.1558 0.4684
C11 C 0.83890(14) 1.06293(19) 0.38660(14)
H6 H 0.7956 1.0768 0.4339
C12 C 0.66076(12) 0.48204(16) 0.11709(12)
C13 C 0.78320(18) 0.29990(19) 0.14828(17)
H7 H 0.7431 0.2460 0.1877
H8 H 0.8568 0.2857 0.1736
H9 H 0.7663 0.2719 0.0781
C14 C 0.45750(12) 0.90746(17) 0.12823(12)
C15 C 0.46821(15) 1.04889(17) 0.11266(13)
H10 H 0.5350 1.0873 0.1201
C16 C 0.38136(16) 1.13245(19) 0.08642(13)
H11 H 0.3892 1.2267 0.0765
C17 C 0.28320(16) 1.0748(2) 0.07512(13)
C18 C 0.26981(14) 0.9360(2) 0.09074(15)
H12 H 0.2027 0.8985 0.0834
C19 C 0.35731(13) 0.85300(18) 0.11752(14)
H13 H 0.3488 0.7591 0.1285
H14 H 0.4983(15) 0.656(2) 0.0737(14)
loop_
_geom_bond_atom_site_label_1
_geom_bond_atom_site_label_2
_geom_bond_site_symmetry_1
_geom_bond_site_symmetry_2
Cl1 C17 1_555 1_555
N1 C1 1_555 1_555
O1 C5 1_555 1_555
O2 C12 1_555 1_555
O3 C12 1_555 1_555
C1 C4 1_555 1_555
C2 N1 1_555 1_555
C3 C2 1_555 1_555
H1 C3 1_555 1_555
C4 C3 1_555 1_555
C5 C4 1_555 1_555
C6 C5 1_555 1_555
C7 C6 1_555 1_555
H2 C7 1_555 1_555
C8 C7 1_555 1_555
H3 C8 1_555 1_555
C9 C8 1_555 1_555
H4 C9 1_555 1_555
C10 C9 1_555 1_555
H5 C10 1_555 1_555
C11 C6 1_555 1_555
H6 C11 1_555 1_555
C12 C2 1_555 1_555
C13 O3 1_555 1_555
H7 C13 1_555 1_555
H8 C13 1_555 1_555
H9 C13 1_555 1_555
C14 C1 1_555 1_555
C15 C14 1_555 1_555
H10 C15 1_555 1_555
C16 C15 1_555 1_555
H11 C16 1_555 1_555
C17 C16 1_555 1_555
C18 C17 1_555 1_555
H12 C18 1_555 1_555
C19 C14 1_555 1_555
H13 C19 1_555 1_555
H14 N1 1_555 1_555
C10 C11 1_555 1_555
C18 C19 1_555 1_555

#END
