
#######################################################################
#
#                 Cambridge Crystallographic Data Centre
#                                CCDC 
#
#######################################################################
#
# If this CIF has been generated from an entry in the Cambridge 
# Structural Database, then it will include bibliographic, chemical, 
# crystal, experimental, refinement or atomic coordinate data resulting 
# from the CCDC's data processing and validation procedures.
#
#######################################################################

data_ANTMET01
_chemical_name_common            'Bi(anthracene-9,10-dimethylene) photoisomer'
_chemical_formula_moiety         'C32 H24'
_chemical_name_systematic        
9,9':10,10'-Diethano-9,9':10,10'-bi-9,10-dihydroanthracene
_symmetry_cell_setting           monoclinic
_symmetry_space_group_name_H-M   'P 21/c'
_symmetry_Int_Tables_number      14
_space_group_name_Hall           '-P 2ybc'
loop_
_symmetry_equiv_pos_site_id
_symmetry_equiv_pos_as_xyz
1 x,y,z
2 -x,1/2+y,1/2-z
3 -x,-y,-z
4 x,1/2-y,1/2+z
_cell_length_a                   9.87(5)
_cell_length_b                   13.00(7)
_cell_length_c                   8.51(4)
_cell_angle_alpha                90
_cell_angle_beta                 111.8(4)
_cell_angle_gamma                90
_cell_volume                     1013.83
_exptl_crystal_colour            colorless
_cell_formula_units_Z            2
_chemical_properties_physical    'Compound is unstable'
loop_
_atom_site_label
_atom_site_type_symbol
_atom_site_fract_x
_atom_site_fract_y
_atom_site_fract_z
C1 C 0.2853(8) -0.0572(7) 0.3492(11)
C2 C 0.3864(9) -0.1385(8) 0.3601(14)
C3 C 0.3460(10) -0.2144(9) 0.2287(13)
C4 C 0.2131(9) -0.2061(5) 0.1003(11)
C5 C 0.2810(7) 0.1439(6) 0.0174(9)
C6 C 0.3786(9) 0.1199(7) -0.0626(11)
C7 C 0.3376(8) 0.0432(7) -0.1934(12)
C8 C 0.2021(8) -0.0052(6) -0.2364(9)
C9 C 0.0396(7) 0.0317(4) 0.1945(8)
C10 C 0.0380(7) 0.1171(4) 0.0513(7)
C11 C 0.1457(6) 0.0953(4) -0.0282(7)
C12 C -0.1082(8) -0.0186(5) 0.1538(8)
C13 C 0.1497(6) -0.0527(4) 0.2160(8)
C14 C 0.1124(7) -0.1284(5) 0.0892(8)
C15 C 0.0779(11) 0.1214(6) 0.3258(9)
C16 C 0.0737(11) 0.2008(5) 0.1893(10)
H1 H 0.3030(2) -0.0002(14) 0.4415(24)
H2 H 0.4879(26) -0.1425(17) 0.4625(29)
H3 H 0.4047(24) -0.2734(16) 0.2261(26)
H4 H 0.1825(17) -0.2664(12) 0.0(22)
H5 H 0.3127(18) 0.2031(13) 0.1129(21)
H6 H 0.4797(22) 0.1546(14) -0.0268(23)
H7 H 0.4040(21) 0.0243(14) -0.2512(22)
H8 H 0.1754(18) -0.0616(14) -0.3276(24)
H9 H 0.1628(27) 0.1158(18) 0.4293(33)
H10 H 0.0311(27) 0.1310(21) 0.3877(33)
H11 H 0.0176(31) 0.2541(20) 0.1778(35)
H12 H 0.1488(28) 0.2504(19) 0.2044(31)
C14B C -0.1124(7) 0.1284(5) -0.0892(8)
C12B C 0.1082(8) 0.0186(5) -0.1538(8)
C8B C -0.2021(8) 0.0052(6) 0.2364(9)
C11B C -0.1457(6) -0.0953(4) 0.0282(7)
C10B C -0.0380(7) -0.1171(4) -0.0513(7)
C4B C -0.2131(9) 0.2061(5) -0.1003(11)
C13B C -0.1497(6) 0.0527(4) -0.2160(8)
C9B C -0.0396(7) -0.0317(4) -0.1945(8)
C7B C -0.3376(8) -0.0432(7) 0.1934(12)
H8B H -0.1754(18) 0.0616(14) 0.3276(24)
C5B C -0.2810(7) -0.1439(6) -0.0174(9)
C16B C -0.0737(11) -0.2008(5) -0.1893(10)
C3B C -0.3460(10) 0.2144(9) -0.2287(13)
H4B H -0.1825(17) 0.2664(12) 0.0(22)
C1B C -0.2853(8) 0.0572(7) -0.3492(11)
C15B C -0.0779(11) -0.1214(6) -0.3258(9)
C6B C -0.3786(9) -0.1199(7) 0.0626(11)
H7B H -0.4040(21) -0.0243(14) 0.2512(22)
H5B H -0.3127(18) -0.2031(13) -0.1129(21)
H11B H -0.0176(31) -0.2541(20) -0.1778(35)
H12B H -0.1488(28) -0.2504(19) -0.2044(31)
C2B C -0.3864(9) 0.1385(8) -0.3601(14)
H3B H -0.4047(24) 0.2734(16) -0.2261(26)
H1B H -0.3030(2) 0.0002(14) -0.4415(24)
H9B H -0.1628(27) -0.1158(18) -0.4293(33)
H10B H -0.0311(27) -0.1310(21) -0.3877(33)
H6B H -0.4797(22) -0.1546(14) 0.0268(23)
H2B H -0.4879(26) 0.1425(17) -0.4625(29)
loop_
_geom_bond_atom_site_label_1
_geom_bond_atom_site_label_2
_geom_bond_site_symmetry_1
_geom_bond_site_symmetry_2
C1 C2 1_555 1_555
C2 C3 1_555 1_555
C3 C4 1_555 1_555
C4 C14 1_555 1_555
C5 C6 1_555 1_555
C6 C7 1_555 1_555
C7 C8 1_555 1_555
C8 H8 1_555 1_555
C9 C10 1_555 1_555
C10 C11 1_555 1_555
C11 C5 1_555 1_555
C12 C9 1_555 1_555
C13 C1 1_555 1_555
C14 C13 1_555 1_555
C15 C9 1_555 1_555
C16 C10 1_555 1_555
H1 C1 1_555 1_555
H2 C2 1_555 1_555
H3 C3 1_555 1_555
H4 C4 1_555 1_555
H5 C5 1_555 1_555
H6 C6 1_555 1_555
H7 C7 1_555 1_555
H9 C15 1_555 1_555
H10 C15 1_555 1_555
H11 C16 1_555 1_555
H12 C16 1_555 1_555
C14B C10 1_555 1_555
C12B C8 1_555 1_555
C8B C12 1_555 1_555
C11B C12 1_555 1_555
C10B C14 1_555 1_555
C4B C14B 1_555 1_555
C13B C14B 1_555 1_555
C9B C12B 1_555 1_555
C7B C8B 1_555 1_555
H8B C8B 1_555 1_555
C5B C11B 1_555 1_555
C16B C10B 1_555 1_555
C3B C4B 1_555 1_555
H4B C4B 1_555 1_555
C1B C13B 1_555 1_555
C15B C9B 1_555 1_555
C6B C7B 1_555 1_555
H7B C7B 1_555 1_555
H5B C5B 1_555 1_555
H11B C16B 1_555 1_555
H12B C16B 1_555 1_555
C2B C3B 1_555 1_555
H3B C3B 1_555 1_555
H1B C1B 1_555 1_555
H9B C15B 1_555 1_555
H10B C15B 1_555 1_555
H6B C6B 1_555 1_555
H2B C2B 1_555 1_555
C9 C13 1_555 1_555
C11 C12B 1_555 1_555
C15 C16 1_555 1_555
C11B C10B 1_555 1_555
C10B C9B 1_555 1_555
C13B C9B 1_555 1_555
C5B C6B 1_555 1_555
C16B C15B 1_555 1_555
C1B C2B 1_555 1_555

#END
