
#######################################################################
#
#                 Cambridge Crystallographic Data Centre
#                                CCDC 
#
#######################################################################
#
# If this CIF has been generated from an entry in the Cambridge 
# Structural Database, then it will include bibliographic, chemical, 
# crystal, experimental, refinement or atomic coordinate data resulting 
# from the CCDC's data processing and validation procedures.
#
#######################################################################

data_ANUHOI
_chemical_formula_moiety         'C39 H28 O1'
_chemical_name_systematic        
2,7-bis(2'-methylbiphenyl-4-yl)-9H-fluoren-9-one
_symmetry_cell_setting           monoclinic
_symmetry_space_group_name_H-M   'P 21/c'
_symmetry_Int_Tables_number      14
_space_group_name_Hall           '-P 2ybc'
loop_
_symmetry_equiv_pos_site_id
_symmetry_equiv_pos_as_xyz
1 x,y,z
2 -x,1/2+y,1/2-z
3 -x,-y,-z
4 x,1/2-y,1/2+z
_cell_length_a                   7.6772(6)
_cell_length_b                   15.0035(13)
_cell_length_c                   47.276(3)
_cell_angle_alpha                90
_cell_angle_beta                 95.0780(10)
_cell_angle_gamma                90
_cell_volume                     5424.11
_exptl_crystal_colour            orange
_exptl_crystal_description       plate
_cell_formula_units_Z            8
loop_
_atom_site_label
_atom_site_type_symbol
_atom_site_fract_x
_atom_site_fract_y
_atom_site_fract_z
O1 O -0.0789(5) 0.3982(3) 0.21976(8)
C1 C 0.0519(8) 0.3685(4) 0.23236(12)
C2 C 0.0827(8) 0.3481(4) 0.26296(12)
C3 C -0.0273(8) 0.3552(4) 0.28464(11)
H1 H -0.1396 0.3779 0.2807
C4 C 0.0272(7) 0.3290(4) 0.31189(11)
C5 C 0.2005(8) 0.2993(4) 0.31700(13)
H2 H 0.2411 0.2828 0.3354
C6 C 0.3123(8) 0.2938(4) 0.29603(13)
H3 H 0.4267 0.2745 0.3003
C7 C 0.2536(7) 0.3172(4) 0.26857(12)
C8 C 0.3407(8) 0.3149(4) 0.24254(12)
C9 C 0.5050(8) 0.2901(4) 0.23606(13)
H4 H 0.5885 0.2721 0.2504
C10 C 0.5449(8) 0.2920(4) 0.20832(13)
H5 H 0.6564 0.2748 0.2043
C11 C 0.4275(8) 0.3182(4) 0.18614(12)
C12 C 0.2615(8) 0.3455(4) 0.19282(12)
H6 H 0.1795 0.3648 0.1785
C13 C 0.2193(7) 0.3438(4) 0.22028(12)
C14 C -0.0848(8) 0.3330(4) 0.33565(12)
C15 C -0.0591(7) 0.2774(4) 0.35864(12)
H7 H 0.0319 0.2363 0.3592
C16 C -0.1635(8) 0.2800(4) 0.38111(12)
H8 H -0.1415 0.2410 0.3963
C17 C -0.3004(7) 0.3403(4) 0.38114(12)
C18 C -0.3267(8) 0.3969(4) 0.35824(12)
H9 H -0.4157 0.4390 0.3580
C19 C -0.2241(8) 0.3929(4) 0.33548(12)
H10 H -0.2485 0.4304 0.3200
C20 C -0.4160(8) 0.3407(4) 0.40453(13)
C21 C -0.3577(9) 0.3385(4) 0.43359(14)
C22 C -0.4792(10) 0.3356(5) 0.45351(13)
H11 H -0.4397 0.3360 0.4727
C23 C -0.6561(10) 0.3322(5) 0.44601(17)
H12 H -0.7346 0.3271 0.4598
C24 C -0.7127(9) 0.3364(5) 0.41871(17)
H13 H -0.8325 0.3355 0.4135
C25 C -0.5983(8) 0.3420(4) 0.39770(14)
H14 H -0.6426 0.3468 0.3788
C26 C -0.1633(8) 0.3436(5) 0.44388(13)
H15 H -0.1495 0.3736 0.4619
H16 H -0.1023 0.3761 0.4303
H17 H -0.1162 0.2845 0.4459
C27 C 0.4753(8) 0.3170(5) 0.15629(13)
C28 C 0.6026(9) 0.2604(5) 0.14807(13)
H18 H 0.6577 0.2217 0.1614
C29 C 0.6507(9) 0.2595(5) 0.12063(14)
H19 H 0.7414 0.2223 0.1163
C30 C 0.5680(9) 0.3125(5) 0.09918(15)
C31 C 0.4369(8) 0.3700(5) 0.10811(14)
H20 H 0.3792 0.4083 0.0949
C32 C 0.3926(8) 0.3709(4) 0.13551(13)
H21 H 0.3041 0.4090 0.1403
C33 C 0.603(15) 0.312(10) 0.069(3)
C34 C 0.772(6) 0.319(2) 0.0600(6)
C35 C 0.791(12) 0.319(5) 0.0318(9)
H22 H 0.9036 0.3224 0.0259
C36 C 0.649(8) 0.315(4) 0.0114(9)
H23 H 0.6651 0.3174 -0.0078
C37 C 0.484(3) 0.3056(10) 0.0204(4)
H24 H 0.3882 0.3010 0.0071
C38 C 0.459(4) 0.304(2) 0.0487(8)
H25 H 0.3471 0.2961 0.0544
C39 C 0.930(3) 0.3253(17) 0.0807(6)
H26 H 0.9918 0.2695 0.0812
H27 H 0.8955 0.3386 0.0992
H28 H 1.0056 0.3717 0.0749
O2 O 0.4072(6) 0.0093(3) 0.22240(8)
C47 C 0.5394(8) 0.0365(4) 0.23555(13)
C48 C 0.5717(8) 0.0545(4) 0.26655(12)
C49 C 0.4608(8) 0.0474(4) 0.28776(12)
H36 H 0.3468 0.0277 0.2834
C50 C 0.5181(8) 0.0697(4) 0.31569(12)
C51 C 0.6909(8) 0.0988(4) 0.32052(13)
H37 H 0.7325 0.1142 0.3389
C52 C 0.8040(8) 0.1060(5) 0.29927(12)
H38 H 0.9183 0.1257 0.3034
C53 C 0.7434(7) 0.0834(4) 0.27219(12)
C54 C 0.8268(8) 0.0879(4) 0.24527(12)
C55 C 0.9908(8) 0.1142(4) 0.23931(13)
H39 H 1.0717 0.1326 0.2539
C56 C 1.0366(8) 0.1136(4) 0.21134(13)
H40 H 1.1483 0.1310 0.2075
C57 C 0.9138(8) 0.0865(4) 0.18891(13)
C58 C 0.7479(8) 0.0595(4) 0.19562(13)
H41 H 0.6654 0.0406 0.1813
C59 C 0.7062(8) 0.0608(4) 0.22326(13)
C60 C 0.4045(8) 0.0687(4) 0.33922(12)
C61 C 0.4348(8) 0.1226(4) 0.36231(13)
H42 H 0.5257 0.1636 0.3624
C62 C 0.3401(8) 0.1200(4) 0.38523(13)
H43 H 0.3671 0.1584 0.4004
C63 C 0.1997(8) 0.0585(4) 0.38603(13)
C64 C 0.1640(8) 0.0054(4) 0.36240(13)
H44 H 0.0707 -0.0342 0.3620
C65 C 0.2617(8) 0.0093(4) 0.33955(13)
H45 H 0.2338 -0.0278 0.3240
C66 C 0.0866(8) 0.0594(4) 0.41019(14)
C67 C 0.1504(8) 0.0592(4) 0.43847(14)
C68 C 0.0363(11) 0.0595(5) 0.45988(16)
H46 H 0.0799 0.0601 0.4789
C69 C -0.1449(11) 0.0590(5) 0.45250(18)
H47 H -0.2222 0.0565 0.4666
C70 C -0.2071(9) 0.0622(5) 0.42429(19)
H48 H -0.3267 0.0658 0.4192
C71 C -0.0936(9) 0.0602(4) 0.40401(14)
H49 H -0.1382 0.0593 0.3851
C72 C 0.3446(8) 0.0537(5) 0.44816(13)
H50 H 0.4016 0.0157 0.4355
H51 H 0.3596 0.0296 0.4670
H52 H 0.3951 0.1122 0.4480
C73 C 0.9650(8) 0.0877(4) 0.15955(13)
C74 C 1.0983(8) 0.1437(5) 0.15132(14)
H53 H 1.1534 0.1821 0.1647
C75 C 1.1499(9) 0.1442(5) 0.12460(14)
H54 H 1.2382 0.1826 0.1200
C76 C 1.0718(9) 0.0877(5) 0.10417(14)
C77 C 0.9382(8) 0.0324(5) 0.11168(14)
H55 H 0.8827 -0.0054 0.0981
C78 C 0.8876(8) 0.0324(4) 0.13835(14)
H56 H 0.7981 -0.0057 0.1427
C79 C 1.1316(14) 0.0863(5) 0.07473(18)
C80 C 1.283(15) 0.079(6) 0.0646(9)
C81 C 1.313(11) 0.081(4) 0.0368(8)
H57 H 1.4257 0.0757 0.0311
C82 C 1.169(12) 0.090(5) 0.0174(17)
H58 H 1.1850 0.0906 -0.0018
C83 C 1.000(4) 0.0999(16) 0.0257(8)
H59 H 0.9048 0.1076 0.0124
C84 C 0.981(6) 0.097(3) 0.0548(13)
H60 H 0.8706 0.1029 0.0613
C85 C 1.437(4) 0.0687(15) 0.0856(6)
H61 H 1.4837 0.1263 0.0908
H62 H 1.5247 0.0341 0.0773
H63 H 1.4026 0.0389 0.1022
C40? C 0.65(3) 0.31(3) 0.073(8)
C41? C 0.545(11) 0.318(5) 0.048(2)
C42? C 0.80(3) 0.324(12) 0.021(3)
H29? H 0.8445 0.3245 0.0041
C43? C 0.617(17) 0.322(8) 0.0217(18)
H30? H 0.5452 0.3236 0.0048
C44? C 0.907(8) 0.325(2) 0.0463(10)
H31? H 1.0272 0.3292 0.0456
C45? C 0.835(11) 0.320(5) 0.0718(18)
H32? H 0.9071 0.3215 0.0886
C46? C 0.348(7) 0.312(3) 0.0442(12)
H33? H 0.3078 0.2816 0.0603
H34? H 0.3117 0.2788 0.0272
H35? H 0.2992 0.3705 0.0428
C86? C 1.055(7) 0.083(3) 0.0486(12)
C87? C 1.128(11) 0.075(5) 0.0240(15)
H64? H 1.0588 0.0737 0.0069
C88? C 1.309(10) 0.069(4) 0.0242(12)
H65? H 1.3646 0.0642 0.0076
C89? C 1.403(5) 0.0703(19) 0.0511(8)
H66? H 1.5241 0.0654 0.0523
C90? C 1.320(15) 0.079(5) 0.0757(13)
H67? H 1.3861 0.0796 0.0932
C91? C 0.860(4) 0.0896(16) 0.0468(5)
H68? H 0.8116 0.0316 0.0495
H69? H 0.8172 0.1121 0.0285
H70? H 0.8260 0.1292 0.0613
loop_
_geom_bond_atom_site_label_1
_geom_bond_atom_site_label_2
_geom_bond_site_symmetry_1
_geom_bond_site_symmetry_2
O1 C1 1_555 1_555
C1 C2 1_555 1_555
C2 C3 1_555 1_555
C3 H1 1_555 1_555
C4 C3 1_555 1_555
C5 C4 1_555 1_555
H2 C5 1_555 1_555
C6 C5 1_555 1_555
H3 C6 1_555 1_555
C7 C2 1_555 1_555
C8 C7 1_555 1_555
C9 C8 1_555 1_555
H4 C9 1_555 1_555
C10 C9 1_555 1_555
H5 C10 1_555 1_555
C11 C10 1_555 1_555
C12 C11 1_555 1_555
H6 C12 1_555 1_555
C13 C1 1_555 1_555
C14 C4 1_555 1_555
C15 C14 1_555 1_555
H7 C15 1_555 1_555
C16 C15 1_555 1_555
H8 C16 1_555 1_555
C17 C16 1_555 1_555
C18 C17 1_555 1_555
H9 C18 1_555 1_555
C19 C14 1_555 1_555
H10 C19 1_555 1_555
C20 C17 1_555 1_555
C21 C20 1_555 1_555
C22 C21 1_555 1_555
H11 C22 1_555 1_555
C23 C22 1_555 1_555
H12 C23 1_555 1_555
C24 C23 1_555 1_555
H13 C24 1_555 1_555
C25 C20 1_555 1_555
H14 C25 1_555 1_555
C26 C21 1_555 1_555
H15 C26 1_555 1_555
H16 C26 1_555 1_555
H17 C26 1_555 1_555
C27 C11 1_555 1_555
C28 C27 1_555 1_555
H18 C28 1_555 1_555
C29 C28 1_555 1_555
H19 C29 1_555 1_555
C30 C29 1_555 1_555
C31 C30 1_555 1_555
H20 C31 1_555 1_555
C32 C27 1_555 1_555
H21 C32 1_555 1_555
C33 C30 1_555 1_555
C34 C33 1_555 1_555
C35 C34 1_555 1_555
H22 C35 1_555 1_555
C36 C35 1_555 1_555
H23 C36 1_555 1_555
C37 C36 1_555 1_555
H24 C37 1_555 1_555
C38 C33 1_555 1_555
H25 C38 1_555 1_555
C39 C34 1_555 1_555
H26 C39 1_555 1_555
H27 C39 1_555 1_555
H28 C39 1_555 1_555
O2 C47 1_555 1_555
C47 C48 1_555 1_555
C48 C49 1_555 1_555
C49 H36 1_555 1_555
C50 C49 1_555 1_555
C51 C50 1_555 1_555
H37 C51 1_555 1_555
C52 C51 1_555 1_555
H38 C52 1_555 1_555
C53 C48 1_555 1_555
C54 C53 1_555 1_555
C55 C54 1_555 1_555
H39 C55 1_555 1_555
C56 C55 1_555 1_555
H40 C56 1_555 1_555
C57 C56 1_555 1_555
C58 C57 1_555 1_555
H41 C58 1_555 1_555
C59 C47 1_555 1_555
C60 C50 1_555 1_555
C61 C60 1_555 1_555
H42 C61 1_555 1_555
C62 C61 1_555 1_555
H43 C62 1_555 1_555
C63 C62 1_555 1_555
C64 C63 1_555 1_555
H44 C64 1_555 1_555
C65 C60 1_555 1_555
H45 C65 1_555 1_555
C66 C63 1_555 1_555
C67 C66 1_555 1_555
C68 C67 1_555 1_555
H46 C68 1_555 1_555
C69 C68 1_555 1_555
H47 C69 1_555 1_555
C70 C69 1_555 1_555
H48 C70 1_555 1_555
C71 C66 1_555 1_555
H49 C71 1_555 1_555
C72 C67 1_555 1_555
H50 C72 1_555 1_555
H51 C72 1_555 1_555
H52 C72 1_555 1_555
C73 C57 1_555 1_555
C74 C73 1_555 1_555
H53 C74 1_555 1_555
C75 C74 1_555 1_555
H54 C75 1_555 1_555
C76 C75 1_555 1_555
C77 C76 1_555 1_555
H55 C77 1_555 1_555
C78 C73 1_555 1_555
H56 C78 1_555 1_555
C79 C76 1_555 1_555
C80 C79 1_555 1_555
C81 C80 1_555 1_555
H57 C81 1_555 1_555
C82 C81 1_555 1_555
H58 C82 1_555 1_555
C83 C82 1_555 1_555
H59 C83 1_555 1_555
C84 C79 1_555 1_555
H60 C84 1_555 1_555
C85 C80 1_555 1_555
H61 C85 1_555 1_555
H62 C85 1_555 1_555
H63 C85 1_555 1_555
C6 C7 1_555 1_555
C8 C13 1_555 1_555
C12 C13 1_555 1_555
C18 C19 1_555 1_555
C24 C25 1_555 1_555
C31 C32 1_555 1_555
C37 C38 1_555 1_555
C52 C53 1_555 1_555
C54 C59 1_555 1_555
C58 C59 1_555 1_555
C64 C65 1_555 1_555
C70 C71 1_555 1_555
C77 C78 1_555 1_555
C83 C84 1_555 1_555

#END
