
#######################################################################
#
#                 Cambridge Crystallographic Data Centre
#                                CCDC 
#
#######################################################################
#
# If this CIF has been generated from an entry in the Cambridge 
# Structural Database, then it will include bibliographic, chemical, 
# crystal, experimental, refinement or atomic coordinate data resulting 
# from the CCDC's data processing and validation procedures.
#
#######################################################################

data_APADIG
_chemical_formula_moiety         'C30 H39 N5 S1 Si1'
_chemical_name_systematic        
"3'-amino-3,7-bis(diethylamino)-5,5-dimethyl-1'H,5H-spiro[dibenzo[b,e]siline-10,4'-quinazoline]-2'(3'H)-thione unknown solvate"
_symmetry_cell_setting           triclinic
_symmetry_space_group_name_H-M   'P -1'
_symmetry_Int_Tables_number      2
_space_group_name_Hall           '-P 1'
loop_
_symmetry_equiv_pos_site_id
_symmetry_equiv_pos_as_xyz
1 x,y,z
2 -x,-y,-z
_cell_length_a                   11.709(6)
_cell_length_b                   17.325(10)
_cell_length_c                   17.761(10)
_cell_angle_alpha                105.979(8)
_cell_angle_beta                 103.227(9)
_cell_angle_gamma                99.347(9)
_cell_volume                     3272.61
_exptl_crystal_colour            colorless
_exptl_crystal_description       block
_cell_formula_units_Z            4
loop_
_atom_site_label
_atom_site_type_symbol
_atom_site_fract_x
_atom_site_fract_y
_atom_site_fract_z
S1 S 1.21475(16) 0.82903(12) 0.34143(12)
Si1 Si 0.57623(17) 0.73700(12) 0.27128(12)
N1 N 0.9747(5) 0.7698(3) 0.2978(4)
N2 N 1.0889(5) 0.6920(3) 0.3490(3)
H1 H 1.1599 0.6870 0.3723
N3 N 0.9632(5) 0.8451(3) 0.2795(4)
H2 H 1.0276 0.8830 0.2877
H3 H 0.8920 0.8525 0.2603
N4 N 0.7436(6) 0.8925(4) 0.5855(4)
N5 N 0.5596(9) 0.6351(6) -0.0368(5)
C1 C 1.0848(5) 0.7589(4) 0.3274(4)
C2 C 0.9895(6) 0.6283(4) 0.3380(4)
C3 C 1.0058(7) 0.5571(4) 0.3540(5)
H4 H 1.0843 0.5513 0.3744
C4 C 0.9065(7) 0.4935(4) 0.3401(4)
H5 H 0.9173 0.4454 0.3525
C5 C 0.7910(7) 0.5017(4) 0.3078(4)
H6 H 0.7230 0.4588 0.2972
C6 C 0.7772(7) 0.5747(4) 0.2914(4)
H7 H 0.6993 0.5801 0.2685
C7 C 0.8754(6) 0.6386(4) 0.3079(4)
C8 C 0.8564(5) 0.7210(4) 0.2951(4)
C9 C 0.8205(6) 0.7696(4) 0.3693(4)
C10 C 0.7029(6) 0.7744(4) 0.3680(4)
C11 C 0.6769(6) 0.8132(4) 0.4410(4)
H8 H 0.5963 0.8131 0.4401
C12 C 0.7671(6) 0.8510(4) 0.5134(4)
C13 C 0.8857(6) 0.8458(4) 0.5136(4)
H9 H 0.9493 0.8694 0.5624
C14 C 0.9082(6) 0.8058(4) 0.4421(4)
H10 H 0.9883 0.8034 0.4435
C15 C 0.7725(6) 0.7025(4) 0.2082(4)
C16 C 0.6506(6) 0.7037(4) 0.1904(4)
C17 C 0.5807(7) 0.6793(4) 0.1085(5)
H11 H 0.4979 0.6782 0.0973
C18 C 0.6284(7) 0.6568(5) 0.0433(4)
C19 C 0.7515(8) 0.6574(5) 0.0636(5)
H12 H 0.7884 0.6436 0.0216
C20 C 0.8205(7) 0.6779(5) 0.1442(4)
H13 H 0.9018 0.6749 0.1553
C21 C 0.4578(7) 0.6498(6) 0.2685(5)
H14 H 0.3935 0.6331 0.2176
H15 H 0.4252 0.6672 0.3142
H16 H 0.4929 0.6035 0.2721
C22 C 0.5051(9) 0.8229(6) 0.2573(6)
H17 H 0.5676 0.8732 0.2723
H18 H 0.4518 0.8316 0.2917
H19 H 0.4588 0.8086 0.2005
C23 C 0.8391(8) 0.9401(5) 0.6593(5)
H20 H 0.8111 0.9864 0.6891
H21 H 0.9084 0.9637 0.6437
C24 C 0.8819(10) 0.8955(7) 0.7163(7)
H22 H 0.8483 0.9091 0.7620
H23 H 0.9695 0.9119 0.7364
H24 H 0.8561 0.8364 0.6878
C25 C 0.6214(8) 0.8847(6) 0.5918(5)
H25 H 0.6218 0.8868 0.6476
H26 H 0.5710 0.8309 0.5543
C26 C 0.5682(10) 0.9515(7) 0.5718(10)
H27 H 0.6298 1.0031 0.5936
H28 H 0.5023 0.9577 0.5958
H29 H 0.5379 0.9373 0.5129
C27 C 0.6070(15) 0.5946(11) -0.1062(8)
H30 H 0.6519 0.5550 -0.0921
H31 H 0.5401 0.5651 -0.1561
C28 C 0.689(2) 0.6634(15) -0.1189(13)
H32 H 0.6481 0.7074 -0.1218
H33 H 0.7091 0.6424 -0.1694
H34 H 0.7624 0.6848 -0.0735
C29 C 0.4291(9) 0.6264(6) -0.0574(6)
H35 H 0.4013 0.6311 -0.1120
H36 H 0.4125 0.6726 -0.0187
C30 C 0.3574(10) 0.5483(6) -0.0566(7)
H37 H 0.3735 0.5018 -0.0942
H38 H 0.2721 0.5470 -0.0731
H39 H 0.3797 0.5447 -0.0018
S2 S 0.34864(16) 0.68047(11) 0.47322(11)
Si2 Si 0.14171(18) 0.75852(12) 0.82623(11)
N6 N 0.2990(5) 0.7357(3) 0.6142(3)
N7 N 0.2786(5) 0.8156(3) 0.5304(3)
H40 H 0.2835 0.8231 0.4847
N8 N 0.3168(5) 0.6618(3) 0.6284(3)
H41 H 0.3317 0.6235 0.5911
H42 H 0.3129 0.6545 0.6743
N9 N -0.2460(6) 0.5881(5) 0.5868(4)
N10 N 0.6027(7) 0.8765(5) 0.9869(5)
C31 C 0.3051(5) 0.7469(4) 0.5423(4)
C32 C 0.2436(5) 0.8770(4) 0.5847(4)
C33 C 0.2272(6) 0.9478(4) 0.5697(4)
H43 H 0.2382 0.9558 0.5213
C34 C 0.1952(7) 1.0075(4) 0.6230(5)
H44 H 0.1797 1.0546 0.6102
C35 C 0.1858(7) 0.9978(4) 0.6971(4)
H45 H 0.1680 1.0397 0.7358
C36 C 0.2029(6) 0.9261(4) 0.7135(4)
H46 H 0.1956 0.9193 0.7630
C37 C 0.2310(5) 0.8639(4) 0.6566(4)
C38 C 0.2431(5) 0.7828(3) 0.6741(3)
C39 C 0.1150(6) 0.7305(4) 0.6565(4)
C40 C 0.0579(6) 0.7210(4) 0.7174(5)
C41 C -0.0608(6) 0.6751(4) 0.6921(4)
H47 H -0.0974 0.6684 0.7325
C42 C -0.1310(6) 0.6373(4) 0.6084(4)
C43 C -0.0708(6) 0.6487(4) 0.5509(4)
H48 H -0.1119 0.6250 0.4948
C44 C 0.0469(6) 0.6938(4) 0.5750(4)
H49 H 0.0832 0.7002 0.5343
C45 C 0.3322(6) 0.8038(4) 0.7597(4)
C46 C 0.3006(6) 0.7974(4) 0.8296(4)
C47 C 0.3912(7) 0.8221(4) 0.9033(5)
H50 H 0.3693 0.8182 0.9501
C48 C 0.5146(8) 0.8526(5) 0.9117(5)
C49 C 0.5439(7) 0.8569(6) 0.8426(5)
H51 H 0.6250 0.8759 0.8453
C50 C 0.4543(6) 0.8331(5) 0.7681(4)
H52 H 0.4771 0.8369 0.7216
C51 C 0.0833(9) 0.8390(6) 0.8858(5)
H53 H 0.0856 0.8843 0.8635
H54 H 0.1328 0.8593 0.9423
H55 H 0.0006 0.8161 0.8830
C52 C 0.1290(8) 0.6714(6) 0.8686(5)
H56 H 0.1930 0.6858 0.9193
H57 H 0.1361 0.6221 0.8295
H58 H 0.0512 0.6609 0.8792
C53 C -0.3125(7) 0.5454(5) 0.5006(5)
H59 H -0.3762 0.4991 0.4972
H60 H -0.2570 0.5220 0.4724
C54 C -0.3696(8) 0.5981(7) 0.4558(6)
H61 H -0.4402 0.6089 0.4727
H62 H -0.3936 0.5693 0.3974
H63 H -0.3118 0.6501 0.4685
C55 C -0.3146(10) 0.5925(8) 0.6421(7)
H64 H -0.2671 0.5842 0.6911
H65 H -0.3867 0.5465 0.6174
C56 C -0.3546(14) 0.6713(12) 0.6683(10)
H66 H -0.2980 0.7080 0.7196
H67 H -0.4344 0.6588 0.6756
H68 H -0.3574 0.6979 0.6268
C57 C 0.5730(9) 0.8751(5) 1.0607(5)
H69 H 0.6447 0.8722 1.1001
H70 H 0.5101 0.8249 1.0483
C58 C 0.5296(12) 0.9490(7) 1.0994(7)
H71 H 0.5836 0.9991 1.1020
H72 H 0.5284 0.9507 1.1543
H73 H 0.4487 0.9450 1.0669
C59 C 0.7175(12) 0.9305(10) 1.0015(9)
H74 H 0.7425 0.9691 1.0575
H75 H 0.7092 0.9630 0.9641
C60 C 0.817(2) 0.8832(18) 0.9894(18)
H76 H 0.8507 0.8714 1.0390
H77 H 0.8803 0.9169 0.9772
H78 H 0.7820 0.8317 0.9443
loop_
_geom_bond_atom_site_label_1
_geom_bond_atom_site_label_2
_geom_bond_site_symmetry_1
_geom_bond_site_symmetry_2
S1 C1 1_555 1_555
Si1 C10 1_555 1_555
N1 N3 1_555 1_555
N2 H1 1_555 1_555
N3 H2 1_555 1_555
H3 N3 1_555 1_555
N4 C12 1_555 1_555
N5 C18 1_555 1_555
C1 N1 1_555 1_555
C2 N2 1_555 1_555
C3 C2 1_555 1_555
H4 C3 1_555 1_555
C4 C3 1_555 1_555
H5 C4 1_555 1_555
C5 C4 1_555 1_555
H6 C5 1_555 1_555
C6 C5 1_555 1_555
H7 C6 1_555 1_555
C7 C2 1_555 1_555
C8 N1 1_555 1_555
C9 C8 1_555 1_555
C10 C9 1_555 1_555
C11 C10 1_555 1_555
H8 C11 1_555 1_555
C12 C11 1_555 1_555
C13 C12 1_555 1_555
H9 C13 1_555 1_555
C14 C9 1_555 1_555
H10 C14 1_555 1_555
C15 C8 1_555 1_555
C16 Si1 1_555 1_555
C17 C16 1_555 1_555
H11 C17 1_555 1_555
C18 C17 1_555 1_555
C19 C18 1_555 1_555
H12 C19 1_555 1_555
C20 C15 1_555 1_555
H13 C20 1_555 1_555
C21 Si1 1_555 1_555
H14 C21 1_555 1_555
H15 C21 1_555 1_555
H16 C21 1_555 1_555
C22 Si1 1_555 1_555
H17 C22 1_555 1_555
H18 C22 1_555 1_555
H19 C22 1_555 1_555
C23 N4 1_555 1_555
H20 C23 1_555 1_555
H21 C23 1_555 1_555
C24 C23 1_555 1_555
H22 C24 1_555 1_555
H23 C24 1_555 1_555
H24 C24 1_555 1_555
C25 N4 1_555 1_555
H25 C25 1_555 1_555
H26 C25 1_555 1_555
C26 C25 1_555 1_555
H27 C26 1_555 1_555
H28 C26 1_555 1_555
H29 C26 1_555 1_555
C27 N5 1_555 1_555
H30 C27 1_555 1_555
H31 C27 1_555 1_555
C28 C27 1_555 1_555
H32 C28 1_555 1_555
H33 C28 1_555 1_555
H34 C28 1_555 1_555
C29 N5 1_555 1_555
H35 C29 1_555 1_555
H36 C29 1_555 1_555
C30 C29 1_555 1_555
H37 C30 1_555 1_555
H38 C30 1_555 1_555
H39 C30 1_555 1_555
S2 C31 1_555 1_555
Si2 C40 1_555 1_555
N6 N8 1_555 1_555
N7 H40 1_555 1_555
N8 H41 1_555 1_555
H42 N8 1_555 1_555
N9 C42 1_555 1_555
N10 C48 1_555 1_555
C31 N6 1_555 1_555
C32 N7 1_555 1_555
C33 C32 1_555 1_555
H43 C33 1_555 1_555
C34 C33 1_555 1_555
H44 C34 1_555 1_555
C35 C34 1_555 1_555
H45 C35 1_555 1_555
C36 C35 1_555 1_555
H46 C36 1_555 1_555
C37 C32 1_555 1_555
C38 N6 1_555 1_555
C39 C38 1_555 1_555
C40 C39 1_555 1_555
C41 C40 1_555 1_555
H47 C41 1_555 1_555
C42 C41 1_555 1_555
C43 C42 1_555 1_555
H48 C43 1_555 1_555
C44 C39 1_555 1_555
H49 C44 1_555 1_555
C45 C38 1_555 1_555
C46 Si2 1_555 1_555
C47 C46 1_555 1_555
H50 C47 1_555 1_555
C48 C47 1_555 1_555
C49 C48 1_555 1_555
H51 C49 1_555 1_555
C50 C45 1_555 1_555
H52 C50 1_555 1_555
C51 Si2 1_555 1_555
H53 C51 1_555 1_555
H54 C51 1_555 1_555
H55 C51 1_555 1_555
C52 Si2 1_555 1_555
H56 C52 1_555 1_555
H57 C52 1_555 1_555
H58 C52 1_555 1_555
C53 N9 1_555 1_555
H59 C53 1_555 1_555
H60 C53 1_555 1_555
C54 C53 1_555 1_555
H61 C54 1_555 1_555
H62 C54 1_555 1_555
H63 C54 1_555 1_555
C55 N9 1_555 1_555
H64 C55 1_555 1_555
H65 C55 1_555 1_555
C56 C55 1_555 1_555
H66 C56 1_555 1_555
H67 C56 1_555 1_555
H68 C56 1_555 1_555
C57 N10 1_555 1_555
H69 C57 1_555 1_555
H70 C57 1_555 1_555
C58 C57 1_555 1_555
H71 C58 1_555 1_555
H72 C58 1_555 1_555
H73 C58 1_555 1_555
C59 N10 1_555 1_555
H74 C59 1_555 1_555
H75 C59 1_555 1_555
C60 C59 1_555 1_555
H76 C60 1_555 1_555
H77 C60 1_555 1_555
H78 C60 1_555 1_555
N2 C1 1_555 1_555
C6 C7 1_555 1_555
C7 C8 1_555 1_555
C13 C14 1_555 1_555
C15 C16 1_555 1_555
C19 C20 1_555 1_555
N7 C31 1_555 1_555
C36 C37 1_555 1_555
C37 C38 1_555 1_555
C43 C44 1_555 1_555
C45 C46 1_555 1_555
C49 C50 1_555 1_555

#END
