
#######################################################################
#
#                 Cambridge Crystallographic Data Centre
#                                CCDC 
#
#######################################################################
#
# If this CIF has been generated from an entry in the Cambridge 
# Structural Database, then it will include bibliographic, chemical, 
# crystal, experimental, refinement or atomic coordinate data resulting 
# from the CCDC's data processing and validation procedures.
#
#######################################################################

data_APAVOE
_chemical_compound_source        fungus
_chemical_name_common            'Asperchalasine E'
_chemical_formula_moiety         'C24 H35 N1 O4,H2 O1'
_chemical_name_systematic        
'2,16-dihydroxy-12-isobutyl-9,10-dimethyl-5-methylene-19-oxa-13-azapentacyclo[14.2.1.0^1,6^.0^7,15^.0^11,15^]nonadec-8-en-14-one hydrate unknown solvate'
_symmetry_cell_setting           cubic
_symmetry_space_group_name_H-M   'I 2 3'
_symmetry_Int_Tables_number      197
_space_group_name_Hall           'I 2 2 3'
loop_
_symmetry_equiv_pos_site_id
_symmetry_equiv_pos_as_xyz
1 x,y,z
2 z,x,y
3 y,z,x
4 -y,-z,x
5 z,-x,-y
6 -y,z,-x
7 -z,-x,y
8 -z,x,-y
9 y,-z,-x
10 x,-y,-z
11 -x,y,-z
12 -x,-y,z
13 1/2+x,1/2+y,1/2+z
14 1/2+z,1/2+x,1/2+y
15 1/2+y,1/2+z,1/2+x
16 1/2-y,1/2-z,1/2+x
17 1/2+z,1/2-x,1/2-y
18 1/2-y,1/2+z,1/2-x
19 1/2-z,1/2-x,1/2+y
20 1/2-z,1/2+x,1/2-y
21 1/2+y,1/2-z,1/2-x
22 1/2+x,1/2-y,1/2-z
23 1/2-x,1/2+y,1/2-z
24 1/2-x,1/2-y,1/2+z
_cell_length_a                   25.1308(6)
_cell_length_b                   25.1308(6)
_cell_length_c                   25.1308(6)
_cell_angle_alpha                90
_cell_angle_beta                 90
_cell_angle_gamma                90
_cell_volume                     15871.5
_exptl_crystal_colour            colorless
_exptl_crystal_description       block
_cell_formula_units_Z            24
_exptl_crystal_recrystallization_method 'Vapour deposition'
loop_
_atom_site_label
_atom_site_type_symbol
_atom_site_fract_x
_atom_site_fract_y
_atom_site_fract_z
O1 O 0.54904(6) 0.97022(6) 0.06287(6)
O2 O 0.48010(7) 0.07281(7) 0.16575(7)
H1 H 0.4716 0.0626 0.1351
O3 O 0.55601(6) 0.12282(5) -0.00074(5)
H2 H 0.5230 0.1281 -0.0002
O4 O 0.64779(6) 0.02680(5) 0.05594(5)
C1 C 0.54889(12) 0.07743(10) 0.23088(9)
H3 H 0.5374 0.1139 0.2405
H4 H 0.5290 0.0521 0.2536
C2 C 0.53554(10) 0.06692(8) 0.17280(8)
H5 H 0.5454 0.0293 0.1642
C3 C 0.56763(9) 0.10376(8) 0.13687(8)
C4 C 0.62806(9) 0.09811(8) 0.14728(8)
H6 H 0.6380 0.0604 0.1395
C5 C 0.65851(9) 0.13347(8) 0.10828(8)
H7 H 0.6503 0.1712 0.1179
C6 C 0.63798(8) 0.12462(7) 0.05042(7)
C7 C 0.66603(8) 0.16234(8) 0.01051(8)
H8 H 0.6391 0.1872 -0.0049
C8 C 0.68816(8) 0.12633(8) -0.03467(8)
H9 H 0.7276 0.1315 -0.0368
C9 C 0.66419(9) 0.13634(8) -0.08972(8)
H10 H 0.6694 0.1742 -0.0991
H11 H 0.6254 0.1298 -0.0880
C10 C 0.68784(12) 0.10181(11) -0.13416(10)
H12 H 0.6866 0.0638 -0.1225
C11 C 0.60800(13) 0.07174(10) 0.24171(9)
H13 H 0.6190 0.0344 0.2356
H14 H 0.6154 0.0806 0.2794
C12 C 0.63975(12) 0.10831(9) 0.20566(9)
O5 O 0.55651(5) 0.08723(5) 0.08321(5)
C13 C 0.57656(8) 0.12906(7) 0.05041(8)
C14 C 0.71806(10) 0.12844(9) 0.10667(9)
H15 H 0.7363 0.1047 0.1297
C15 C 0.74435(10) 0.15843(10) 0.07174(10)
C16 C 0.80381(12) 0.15604(15) 0.06403(14)
H16 H 0.8191 0.1304 0.0891
H17 H 0.8192 0.1913 0.0704
H18 H 0.8118 0.1448 0.0275
C17 C 0.71046(9) 0.19528(9) 0.03772(9)
H19 H 0.6921 0.2200 0.0630
C18 C 0.65563(14) 0.10712(12) -0.18523(10)
H20 H 0.6183 0.0986 -0.1780
H21 H 0.6696 0.0825 -0.2120
H22 H 0.6583 0.1437 -0.1985
N1 N 0.67758(7) 0.07286(7) -0.01591(7)
H23 H 0.6861 0.0446 -0.0347
C19 C 0.65423(7) 0.06901(7) 0.03145(8)
C20 C 0.74080(11) 0.23055(10) -0.00168(12)
H24 H 0.7645 0.2545 0.0179
H25 H 0.7154 0.2516 -0.0225
H26 H 0.7618 0.2081 -0.0257
C21 C 0.55577(9) 0.17975(7) 0.07806(8)
H27 H 0.5212 0.1909 0.0629
H28 H 0.5815 0.2094 0.0745
C22 C 0.54971(10) 0.16283(8) 0.13687(8)
H29 H 0.5123 0.1663 0.1488
H30 H 0.5727 0.1846 0.1603
C23 C 0.67252(15) 0.14521(12) 0.22419(10)
H31 H 0.6769 0.1496 0.2615
H32 H 0.6916 0.1673 0.2002
C24 C 0.74543(16) 0.1166(3) -0.14483(17)
H33 H 0.7583 0.0971 -0.1761
H34 H 0.7672 0.1072 -0.1138
H35 H 0.7480 0.1549 -0.1514
loop_
_geom_bond_atom_site_label_1
_geom_bond_atom_site_label_2
_geom_bond_site_symmetry_1
_geom_bond_site_symmetry_2
O2 H1 1_555 1_555
O3 H2 1_555 1_555
O4 C19 1_555 1_555
C1 H3 1_555 1_555
H4 C1 1_555 1_555
C2 O2 1_555 1_555
H5 C2 1_555 1_555
C3 C2 1_555 1_555
C4 C3 1_555 1_555
H6 C4 1_555 1_555
C5 C4 1_555 1_555
H7 C5 1_555 1_555
C6 C5 1_555 1_555
C7 C6 1_555 1_555
H8 C7 1_555 1_555
C8 C7 1_555 1_555
H9 C8 1_555 1_555
C9 C8 1_555 1_555
H10 C9 1_555 1_555
H11 C9 1_555 1_555
C10 C9 1_555 1_555
H12 C10 1_555 1_555
C11 C1 1_555 1_555
H13 C11 1_555 1_555
H14 C11 1_555 1_555
C12 C4 1_555 1_555
O5 C3 1_555 1_555
C13 O3 1_555 1_555
C14 C5 1_555 1_555
H15 C14 1_555 1_555
C15 C14 1_555 1_555
C16 C15 1_555 1_555
H16 C16 1_555 1_555
H17 C16 1_555 1_555
H18 C16 1_555 1_555
C17 C7 1_555 1_555
H19 C17 1_555 1_555
C18 C10 1_555 1_555
H20 C18 1_555 1_555
H21 C18 1_555 1_555
H22 C18 1_555 1_555
N1 C8 1_555 1_555
H23 N1 1_555 1_555
C19 C6 1_555 1_555
C20 C17 1_555 1_555
H24 C20 1_555 1_555
H25 C20 1_555 1_555
H26 C20 1_555 1_555
C21 C13 1_555 1_555
H27 C21 1_555 1_555
H28 C21 1_555 1_555
C22 C3 1_555 1_555
H29 C22 1_555 1_555
H30 C22 1_555 1_555
C23 C12 1_555 1_555
H31 C23 1_555 1_555
H32 C23 1_555 1_555
C24 C10 1_555 1_555
H33 C24 1_555 1_555
H34 C24 1_555 1_555
H35 C24 1_555 1_555
C1 C2 1_555 1_555
C6 C13 1_555 1_555
C11 C12 1_555 1_555
O5 C13 1_555 1_555
C15 C17 1_555 1_555
N1 C19 1_555 1_555
C21 C22 1_555 1_555

#END
