
#######################################################################
#
#                 Cambridge Crystallographic Data Centre
#                                CCDC 
#
#######################################################################
#
# If this CIF has been generated from an entry in the Cambridge 
# Structural Database, then it will include bibliographic, chemical, 
# crystal, experimental, refinement or atomic coordinate data resulting 
# from the CCDC's data processing and validation procedures.
#
#######################################################################

data_APEKUD
_chemical_formula_moiety         'C20 H28 O4'
_chemical_name_systematic        
2-(hydroxymethyl)-3,3-dimethyl-10'-methylene-3'-oxaspiro[cyclohexane-1,5'-tricyclo[7.2.1.0^1,6^]dodecane]-2',11'-dione
_symmetry_cell_setting           monoclinic
_symmetry_space_group_name_H-M   'P 21/c'
_symmetry_Int_Tables_number      14
_space_group_name_Hall           '-P 2ybc'
loop_
_symmetry_equiv_pos_site_id
_symmetry_equiv_pos_as_xyz
1 x,y,z
2 -x,1/2+y,1/2-z
3 -x,-y,-z
4 x,1/2-y,1/2+z
_cell_length_a                   18.2790(11)
_cell_length_b                   6.5834(3)
_cell_length_c                   15.0980(7)
_cell_angle_alpha                90
_cell_angle_beta                 96.080(5)
_cell_angle_gamma                90
_cell_volume                     1806.64
_exptl_crystal_colour            'light colorless'
_exptl_crystal_description       block
_cell_formula_units_Z            4
loop_
_atom_site_label
_atom_site_type_symbol
_atom_site_fract_x
_atom_site_fract_y
_atom_site_fract_z
O1 O 0.72388(13) 0.5843(3) 0.64093(11)
O2 O 0.78817(16) 0.4524(4) 0.75616(11)
O3 O 0.74272(19) 0.7703(4) 0.37779(14)
H1 H 0.7560 0.8508 0.3413
O4 O 0.90710(16) 0.6808(3) 0.63832(17)
C1 C 0.67823(15) 0.2364(4) 0.53219(19)
H2 H 0.6925 0.1085 0.5072
H3 H 0.6899 0.2290 0.5963
C2 C 0.59586(18) 0.2643(6) 0.5110(3)
H4 H 0.5701 0.1534 0.5364
H5 H 0.5807 0.3903 0.5369
C3 C 0.57637(17) 0.2690(6) 0.4109(3)
H6 H 0.5236 0.2874 0.3985
H7 H 0.5886 0.1383 0.3866
C4 C 0.61525(15) 0.4362(5) 0.3624(2)
C5 C 0.69994(13) 0.4245(4) 0.39257(15)
H8 H 0.7139 0.2916 0.3704
C6 C 0.74552(16) 0.5715(4) 0.34411(16)
H9 H 0.7962 0.5257 0.3497
H10 H 0.7276 0.5721 0.2813
C7 C 0.77912(19) 0.4717(4) 0.67584(16)
C8 C 0.83152(14) 0.3755(3) 0.61782(14)
C9 C 0.80678(13) 0.3686(3) 0.51515(14)
H11 H 0.8318 0.4813 0.4885
C10 C 0.72311(13) 0.4091(3) 0.49561(14)
C11 C 0.83426(13) 0.1731(4) 0.47451(17)
H12 H 0.8017 0.0628 0.4869
H13 H 0.8310 0.1896 0.4104
C12 C 0.91297(14) 0.1131(4) 0.50828(17)
H14 H 0.9468 0.1914 0.4765
H15 H 0.9202 -0.0293 0.4952
C13 C 0.93138(15) 0.1482(4) 0.60954(17)
H16 H 0.9628 0.0400 0.6372
C14 C 0.85979(15) 0.1677(4) 0.65286(16)
H17 H 0.8688 0.1669 0.7173
H18 H 0.8255 0.0599 0.6337
C15 C 0.90361(18) 0.4986(4) 0.63008(16)
C16 C 0.96484(17) 0.3528(5) 0.62761(17)
C17 C 1.0354(3) 0.4041(10) 0.6443(3)
H19 H 1.044(2) 0.541(7) 0.656(3)
H20 H 1.076(3) 0.288(7) 0.651(3)
C18 C 0.60318(19) 0.3903(7) 0.2619(2)
H21 H 0.6223 0.5001 0.2294
H22 H 0.5515 0.3754 0.2439
H23 H 0.6282 0.2668 0.2497
C19 C 0.5795(2) 0.6425(6) 0.3763(3)
H24 H 0.5783 0.6662 0.4389
H25 H 0.5302 0.6429 0.3471
H26 H 0.6075 0.7477 0.3516
C20 C 0.71149(17) 0.6090(4) 0.54418(15)
H27 H 0.7450 0.7108 0.5255
H28 H 0.6617 0.6566 0.5279
loop_
_geom_bond_atom_site_label_1
_geom_bond_atom_site_label_2
_geom_bond_site_symmetry_1
_geom_bond_site_symmetry_2
O1 C7 1_555 1_555
O2 C7 1_555 1_555
O3 H1 1_555 1_555
O4 C15 1_555 1_555
C1 H2 1_555 1_555
H3 C1 1_555 1_555
C2 C1 1_555 1_555
H4 C2 1_555 1_555
H5 C2 1_555 1_555
C3 C2 1_555 1_555
H6 C3 1_555 1_555
H7 C3 1_555 1_555
C4 C3 1_555 1_555
C5 C4 1_555 1_555
H8 C5 1_555 1_555
C6 O3 1_555 1_555
H9 C6 1_555 1_555
H10 C6 1_555 1_555
C7 C8 1_555 1_555
C8 C9 1_555 1_555
C9 H11 1_555 1_555
C10 C1 1_555 1_555
C11 C9 1_555 1_555
H12 C11 1_555 1_555
H13 C11 1_555 1_555
C12 C11 1_555 1_555
H14 C12 1_555 1_555
H15 C12 1_555 1_555
C13 C12 1_555 1_555
H16 C13 1_555 1_555
C14 C8 1_555 1_555
H17 C14 1_555 1_555
H18 C14 1_555 1_555
C15 C8 1_555 1_555
C16 C13 1_555 1_555
C17 C16 1_555 1_555
H19 C17 1_555 1_555
H20 C17 1_555 1_555
C18 C4 1_555 1_555
H21 C18 1_555 1_555
H22 C18 1_555 1_555
H23 C18 1_555 1_555
C19 C4 1_555 1_555
H24 C19 1_555 1_555
H25 C19 1_555 1_555
H26 C19 1_555 1_555
C20 O1 1_555 1_555
H27 C20 1_555 1_555
H28 C20 1_555 1_555
C5 C6 1_555 1_555
C5 C10 1_555 1_555
C9 C10 1_555 1_555
C10 C20 1_555 1_555
C13 C14 1_555 1_555
C15 C16 1_555 1_555

#END
