
#######################################################################
#
#                 Cambridge Crystallographic Data Centre
#                                CCDC 
#
#######################################################################
#
# If this CIF has been generated from an entry in the Cambridge 
# Structural Database, then it will include bibliographic, chemical, 
# crystal, experimental, refinement or atomic coordinate data resulting 
# from the CCDC's data processing and validation procedures.
#
#######################################################################

data_APITOK
_chemical_formula_moiety         'C1 H6 N3 1+,C1 H2 N5 O1 1-'
_chemical_name_systematic        
'guanidinium 4-amino-5-oxo-4,5-dihydrotetrazol-1-ide'
_symmetry_cell_setting           monoclinic
_symmetry_space_group_name_H-M   'C 2/c'
_symmetry_Int_Tables_number      15
_space_group_name_Hall           '-C 2yn'
loop_
_symmetry_equiv_pos_site_id
_symmetry_equiv_pos_as_xyz
1 x,y,z
2 -x,y,1/2-z
3 1/2+x,1/2+y,z
4 1/2-x,1/2+y,1/2-z
5 -x,-y,-z
6 x,-y,1/2+z
7 1/2-x,1/2-y,-z
8 1/2+x,1/2-y,1/2+z
_cell_length_a                   12.7785(11)
_cell_length_b                   6.4100(6)
_cell_length_c                   16.5787(15)
_cell_angle_alpha                90
_cell_angle_beta                 93.3030(10)
_cell_angle_gamma                90
_cell_volume                     1355.71
_cell_formula_units_Z            8
loop_
_atom_site_label
_atom_site_type_symbol
_atom_site_fract_x
_atom_site_fract_y
_atom_site_fract_z
N1 N 0.12491(12) 0.1271(3) 0.40069(9)
N2 N 0.10477(13) -0.0005(3) 0.33691(9)
N3 N 0.09534(15) -0.1845(3) 0.36705(10)
N4 N 0.11000(13) -0.1822(3) 0.44902(10)
N5 N 0.14156(13) 0.3389(3) 0.38696(10)
H1 H 0.2023 0.3767 0.4116
H2 H 0.0898 0.4120 0.4070
O1 O 0.14737(11) 0.0904(2) 0.54036(7)
C1 C 0.12890(13) 0.0168(3) 0.47019(11)
N6 N 0.11117(14) 0.5209(3) 0.58094(10)
H3 H 0.1104 0.6079 0.5414
H4 H 0.1039 0.3896 0.5715
N7 N 0.13456(13) 0.7898(3) 0.67026(10)
H5 H 0.1338 0.8767 0.6307
H6 H 0.1426 0.8341 0.7192
N8 N 0.12413(14) 0.4551(3) 0.71638(10)
H7 H 0.1318 0.4992 0.7654
H8 H 0.1169 0.3239 0.7069
C2 C 0.12345(14) 0.5887(4) 0.65589(11)
loop_
_geom_bond_atom_site_label_1
_geom_bond_atom_site_label_2
_geom_bond_site_symmetry_1
_geom_bond_site_symmetry_2
N1 N2 1_555 1_555
N2 N3 1_555 1_555
N3 N4 1_555 1_555
N4 C1 1_555 1_555
N5 N1 1_555 1_555
H1 N5 1_555 1_555
H2 N5 1_555 1_555
O1 C1 1_555 1_555
C1 N1 1_555 1_555
N6 H3 1_555 1_555
H4 N6 1_555 1_555
N7 H5 1_555 1_555
H6 N7 1_555 1_555
N8 H7 1_555 1_555
H8 N8 1_555 1_555
C2 N6 1_555 1_555
N7 C2 1_555 1_555
N8 C2 1_555 1_555

#END
