
#######################################################################
#
#                 Cambridge Crystallographic Data Centre
#                                CCDC 
#
#######################################################################
#
# If this CIF has been generated from an entry in the Cambridge 
# Structural Database, then it will include bibliographic, chemical, 
# crystal, experimental, refinement or atomic coordinate data resulting 
# from the CCDC's data processing and validation procedures.
#
#######################################################################

data_APIWAZ
_chemical_formula_moiety         'C21 H42 N3 1+,C2 F6 N1 O4 S2 1-'
_chemical_name_systematic        
'1,2,3-tris(dipropylamino)cyclopropenium bis((trifluoromethyl)sulfonyl)amide'
_symmetry_cell_setting           monoclinic
_symmetry_space_group_name_H-M   'I 2'
_symmetry_Int_Tables_number      5
_space_group_name_Hall           'I 2y'
loop_
_symmetry_equiv_pos_site_id
_symmetry_equiv_pos_as_xyz
1 x,y,z
2 -x,y,-z
3 1/2+x,1/2+y,1/2+z
4 1/2-x,1/2+y,1/2-z
_cell_length_a                   19.2495(4)
_cell_length_b                   10.09683(17)
_cell_length_c                   34.2770(7)
_cell_angle_alpha                90
_cell_angle_beta                 105.887(2)
_cell_angle_gamma                90
_cell_volume                     6407.57
_cell_formula_units_Z            8
loop_
_atom_site_label
_atom_site_type_symbol
_atom_site_fract_x
_atom_site_fract_y
_atom_site_fract_z
S1 S 0.54439(4) 0.59970(7) 0.75314(2)
S2 S 0.48843(4) 0.85519(7) 0.75634(2)
F1 F 0.64959(11) 0.7423(2) 0.74016(7)
F2 F 0.59340(13) 0.6235(3) 0.68923(6)
F3 F 0.35859(12) 0.7921(3) 0.76044(8)
O1 O 0.57881(12) 0.6024(2) 0.79567(6)
O2 O 0.51161(13) 0.4789(2) 0.73546(7)
F4 F 0.44273(14) 0.7312(3) 0.81202(7)
F5 F 0.66699(13) 0.5329(3) 0.74061(8)
F6 F 0.41352(16) 0.9364(3) 0.80426(9)
O3 O 0.55210(14) 0.8971(3) 0.78629(9)
O4 O 0.45276(16) 0.9472(3) 0.72562(9)
N1 N 0.49209(14) 0.7176(3) 0.73542(8)
C1 C 0.61777(18) 0.6269(4) 0.72929(10)
C2 C 0.42205(19) 0.8268(4) 0.78480(11)
S3 S 0.81571(4) 0.59801(8) 0.49835(2)
S4 S 0.68696(4) 0.46365(8) 0.49463(2)
F7 F 0.73084(14) 0.3398(3) 0.43869(7)
F8 F 0.82599(16) 0.7545(3) 0.56077(6)
F9 F 0.73598(14) 0.2226(2) 0.49181(7)
O5 O 0.79279(12) 0.6194(2) 0.45559(6)
F10 F 0.63345(13) 0.2627(3) 0.44892(9)
F11 F 0.73665(14) 0.7989(3) 0.50928(8)
F12 F 0.84472(17) 0.8494(3) 0.50857(8)
O6 O 0.88986(13) 0.5660(3) 0.51667(8)
O7 O 0.64706(13) 0.5517(3) 0.46401(9)
O8 O 0.65370(17) 0.4181(3) 0.52443(10)
N2 N 0.76719(15) 0.5054(3) 0.51664(8)
C3 C 0.8041(2) 0.7589(4) 0.52067(10)
C4 C 0.69811(18) 0.3137(4) 0.46709(11)
N3 N 1.03400(13) 0.5449(3) 0.59379(7)
N4 N 0.86458(14) 0.4162(3) 0.61126(8)
N5 N 0.94435(14) 0.7281(3) 0.65874(8)
C5 C 0.97928(15) 0.5547(3) 0.61053(8)
C6 C 0.94649(15) 0.6236(3) 0.63547(8)
C7 C 1.03554(16) 0.4420(3) 0.56397(9)
H1 H 1.0380 0.4837 0.5389
H2 H 0.9909 0.3917 0.5583
C8 C 1.00091(17) 0.8292(3) 0.66551(9)
H3 H 0.9816 0.9126 0.6719
H4 H 1.0153 0.8413 0.6407
C9 C 1.08160(16) 0.6591(3) 0.59576(9)
H5 H 1.1268 0.6291 0.5914
H6 H 1.0923 0.6972 0.6227
C10 C 0.86442(16) 0.3043(3) 0.58409(9)
H7 H 0.8761 0.3364 0.5600
H8 H 0.8162 0.2669 0.5757
C11 C 1.06726(19) 0.7927(4) 0.69987(10)
H9 H 1.0531 0.7820 0.7248
H10 H 1.0863 0.7086 0.6937
C12 C 1.09899(18) 0.3476(4) 0.57816(11)
H11 H 1.1437 0.3975 0.5854
H12 H 1.0949 0.3003 0.6021
C13 C 0.91625(15) 0.5063(3) 0.61749(9)
C14 C 0.89135(17) 0.7357(4) 0.68226(10)
H13 H 0.9120 0.7857 0.7069
H14 H 0.8812 0.6470 0.6901
C15 C 0.82097(19) 0.8007(4) 0.65901(12)
H15 H 0.8023 0.7561 0.6332
H16 H 0.8300 0.8924 0.6536
C16 C 0.80231(17) 0.4384(3) 0.62742(10)
H17 H 0.7601 0.4558 0.6050
H18 H 0.8113 0.5168 0.6444
C17 C 0.78590(18) 0.3233(4) 0.65196(10)
H19 H 0.8307 0.2868 0.6688
H20 H 0.7612 0.2541 0.6337
C18 C 0.9175(2) 0.1958(3) 0.60327(10)
H21 H 0.9072 0.1647 0.6279
H22 H 0.9663 0.2310 0.6105
C19 C 0.7388(2) 0.3686(5) 0.67862(11)
H23 H 0.6974 0.4148 0.6623
H24 H 0.7661 0.4266 0.6994
H25 H 0.7232 0.2929 0.6909
C20 C 1.1004(2) 0.2491(4) 0.54489(14)
H26 H 1.1066 0.2958 0.5217
H27 H 1.0558 0.2008 0.5374
H28 H 1.1398 0.1886 0.5545
C21 C 1.0497(2) 0.7655(4) 0.56485(11)
H29 H 1.0026 0.7909 0.5675
H30 H 1.0433 0.7305 0.5377
C22 C 0.7650(2) 0.7946(5) 0.68286(16)
H31 H 0.7232 0.8449 0.6690
H32 H 0.7852 0.8309 0.7094
H33 H 0.7514 0.7041 0.6852
C23 C 1.1261(2) 0.8975(5) 0.70618(14)
H34 H 1.1416 0.9058 0.6819
H35 H 1.1663 0.8719 0.7283
H36 H 1.1074 0.9809 0.7122
C24 C 0.9121(3) 0.0808(4) 0.57388(13)
H37 H 0.9215 0.1121 0.5494
H38 H 0.8644 0.0437 0.5677
H39 H 0.9469 0.0142 0.5860
C25 C 1.0983(3) 0.8865(4) 0.57077(15)
H40 H 1.0785 0.9502 0.5499
H41 H 1.1456 0.8608 0.5693
H42 H 1.1017 0.9252 0.5968
N6 N 0.44500(14) 0.2596(3) 0.66057(7)
N7 N 0.40244(14) 0.6148(3) 0.63999(8)
N8 N 0.53316(14) 0.4459(3) 0.59580(8)
C26 C 0.45373(15) 0.3733(3) 0.64294(8)
C27 C 0.57744(16) 0.3297(3) 0.59336(9)
H43 H 0.5875 0.2819 0.6188
H44 H 0.6232 0.3594 0.5897
C28 C 0.39432(17) 0.2463(3) 0.68532(9)
H45 H 0.3801 0.3338 0.6920
H46 H 0.4184 0.2022 0.7105
C29 C 0.49646(18) 0.1517(3) 0.66176(9)
H47 H 0.5085 0.1485 0.6361
H48 H 0.4738 0.0683 0.6651
C30 C 0.43758(16) 0.5062(3) 0.63490(9)
C31 C 0.48657(15) 0.4431(3) 0.61824(8)
C32 C 0.41895(18) 0.7427(3) 0.62404(10)
H49 H 0.4536 0.7286 0.6086
H50 H 0.4411 0.8006 0.6466
C33 C 0.35560(15) 0.6123(4) 0.66740(8)
H51 H 0.3502 0.7018 0.6764
H52 H 0.3788 0.5600 0.6911
C34 C 0.5421(2) 0.2360(4) 0.55907(11)
H53 H 0.5278 0.2848 0.5338
H54 H 0.4989 0.1984 0.5640
C35 C 0.53524(18) 0.5581(3) 0.56894(10)
H55 H 0.4901 0.6064 0.5637
H56 H 0.5397 0.5247 0.5432
C36 C 0.28146(17) 0.5553(4) 0.64794(10)
H57 H 0.2862 0.4651 0.6393
H58 H 0.2578 0.6070 0.6242
C37 C 0.56542(19) 0.1672(4) 0.69580(11)
H59 H 0.5540 0.1665 0.7217
H60 H 0.5876 0.2518 0.6931
C38 C 0.2355(2) 0.5566(5) 0.67805(12)
H61 H 0.1885 0.5214 0.6652
H62 H 0.2309 0.6459 0.6866
H63 H 0.2584 0.5033 0.7012
C39 C 0.5973(2) 0.6524(4) 0.58669(13)
H64 H 0.6425 0.6039 0.5936
H65 H 0.5912 0.6919 0.6113
C40 C 0.3732(3) 0.9306(4) 0.57585(13)
H66 H 0.3302 0.9727 0.5598
H67 H 0.4023 0.9027 0.5586
H68 H 0.4001 0.9920 0.5957
C41 C 0.3274(2) 0.1688(4) 0.66415(13)
H69 H 0.3414 0.0822 0.6566
H70 H 0.3019 0.2147 0.6395
C42 C 0.3528(2) 0.8104(4) 0.59725(12)
H71 H 0.3216 0.8382 0.6136
H72 H 0.3262 0.7480 0.5771
C43 C 0.5934(3) 0.1251(5) 0.55546(16)
H73 H 0.5706 0.0693 0.5329
H74 H 0.6055 0.0738 0.5800
H75 H 0.6366 0.1624 0.5512
C44 C 0.6187(3) 0.0558(5) 0.69497(16)
H76 H 0.6349 0.0636 0.6710
H77 H 0.5952 -0.0282 0.6949
H78 H 0.6593 0.0619 0.7185
C45 C 0.5995(3) 0.7608(5) 0.55605(19)
H79 H 0.6079 0.7217 0.5322
H80 H 0.6378 0.8217 0.5678
H81 H 0.5543 0.8073 0.5488
C46 C 0.2773(3) 0.1523(6) 0.6915(2)
H82 H 0.2371 0.0973 0.6782
H83 H 0.2600 0.2376 0.6969
H84 H 0.3033 0.1117 0.7166
loop_
_geom_bond_atom_site_label_1
_geom_bond_atom_site_label_2
_geom_bond_site_symmetry_1
_geom_bond_site_symmetry_2
S1 O1 1_555 1_555
S2 O3 1_555 1_555
F1 C1 1_555 1_555
F2 C1 1_555 1_555
F3 C2 1_555 1_555
O2 S1 1_555 1_555
F4 C2 1_555 1_555
F5 C1 1_555 1_555
F6 C2 1_555 1_555
O4 S2 1_555 1_555
N1 S1 1_555 1_555
C1 S1 1_555 1_555
C2 S2 1_555 1_555
S3 O5 1_555 1_555
S4 O7 1_555 1_555
F7 C4 1_555 1_555
F8 C3 1_555 1_555
F9 C4 1_555 1_555
F10 C4 1_555 1_555
F11 C3 1_555 1_555
F12 C3 1_555 1_555
O6 S3 1_555 1_555
O8 S4 1_555 1_555
N2 S3 1_555 1_555
C3 S3 1_555 1_555
C4 S4 1_555 1_555
N3 C5 1_555 1_555
N4 C10 1_555 1_555
N5 C6 1_555 1_555
C5 C6 1_555 1_555
C6 C13 1_555 1_555
C7 N3 1_555 1_555
H1 C7 1_555 1_555
H2 C7 1_555 1_555
C8 N5 1_555 1_555
H3 C8 1_555 1_555
H4 C8 1_555 1_555
C9 N3 1_555 1_555
H5 C9 1_555 1_555
H6 C9 1_555 1_555
C10 H7 1_555 1_555
H8 C10 1_555 1_555
C11 C8 1_555 1_555
H9 C11 1_555 1_555
H10 C11 1_555 1_555
C12 C7 1_555 1_555
H11 C12 1_555 1_555
H12 C12 1_555 1_555
C13 N4 1_555 1_555
C14 N5 1_555 1_555
H13 C14 1_555 1_555
H14 C14 1_555 1_555
C15 C14 1_555 1_555
H15 C15 1_555 1_555
H16 C15 1_555 1_555
C16 N4 1_555 1_555
H17 C16 1_555 1_555
H18 C16 1_555 1_555
C17 C16 1_555 1_555
H19 C17 1_555 1_555
H20 C17 1_555 1_555
C18 C10 1_555 1_555
H21 C18 1_555 1_555
H22 C18 1_555 1_555
C19 C17 1_555 1_555
H23 C19 1_555 1_555
H24 C19 1_555 1_555
H25 C19 1_555 1_555
C20 C12 1_555 1_555
H26 C20 1_555 1_555
H27 C20 1_555 1_555
H28 C20 1_555 1_555
C21 C9 1_555 1_555
H29 C21 1_555 1_555
H30 C21 1_555 1_555
C22 C15 1_555 1_555
H31 C22 1_555 1_555
H32 C22 1_555 1_555
H33 C22 1_555 1_555
C23 C11 1_555 1_555
H34 C23 1_555 1_555
H35 C23 1_555 1_555
H36 C23 1_555 1_555
C24 C18 1_555 1_555
H37 C24 1_555 1_555
H38 C24 1_555 1_555
H39 C24 1_555 1_555
C25 C21 1_555 1_555
H40 C25 1_555 1_555
H41 C25 1_555 1_555
H42 C25 1_555 1_555
N6 C26 1_555 1_555
N7 C30 1_555 1_555
N8 C27 1_555 1_555
C26 C30 1_555 1_555
C27 H43 1_555 1_555
H44 C27 1_555 1_555
C28 N6 1_555 1_555
H45 C28 1_555 1_555
H46 C28 1_555 1_555
C29 N6 1_555 1_555
H47 C29 1_555 1_555
H48 C29 1_555 1_555
C30 C31 1_555 1_555
C31 N8 1_555 1_555
C32 N7 1_555 1_555
H49 C32 1_555 1_555
H50 C32 1_555 1_555
C33 N7 1_555 1_555
H51 C33 1_555 1_555
H52 C33 1_555 1_555
C34 C27 1_555 1_555
H53 C34 1_555 1_555
H54 C34 1_555 1_555
C35 N8 1_555 1_555
H55 C35 1_555 1_555
H56 C35 1_555 1_555
C36 C33 1_555 1_555
H57 C36 1_555 1_555
H58 C36 1_555 1_555
C37 C29 1_555 1_555
H59 C37 1_555 1_555
H60 C37 1_555 1_555
C38 C36 1_555 1_555
H61 C38 1_555 1_555
H62 C38 1_555 1_555
H63 C38 1_555 1_555
C39 C35 1_555 1_555
H64 C39 1_555 1_555
H65 C39 1_555 1_555
C40 H66 1_555 1_555
H67 C40 1_555 1_555
H68 C40 1_555 1_555
C41 C28 1_555 1_555
H69 C41 1_555 1_555
H70 C41 1_555 1_555
C42 C32 1_555 1_555
H71 C42 1_555 1_555
H72 C42 1_555 1_555
C43 C34 1_555 1_555
H73 C43 1_555 1_555
H74 C43 1_555 1_555
H75 C43 1_555 1_555
C44 C37 1_555 1_555
H76 C44 1_555 1_555
H77 C44 1_555 1_555
H78 C44 1_555 1_555
C45 C39 1_555 1_555
H79 C45 1_555 1_555
H80 C45 1_555 1_555
H81 C45 1_555 1_555
C46 C41 1_555 1_555
H82 C46 1_555 1_555
H83 C46 1_555 1_555
H84 C46 1_555 1_555
S2 N1 1_555 1_555
S4 N2 1_555 1_555
C5 C13 1_555 1_555
C26 C31 1_555 1_555
C40 C42 1_555 1_555

#END
