
#######################################################################
#
#                 Cambridge Crystallographic Data Centre
#                                CCDC 
#
#######################################################################
#
# If this CIF has been generated from an entry in the Cambridge 
# Structural Database, then it will include bibliographic, chemical, 
# crystal, experimental, refinement or atomic coordinate data resulting 
# from the CCDC's data processing and validation procedures.
#
#######################################################################

data_APIWIG
_chemical_formula_moiety         'C30 H44 Ba2 Cl4 N4 O28'
_chemical_name_systematic        
bis(\m~2~-Perchlorato-O,O,O',O'')-(\m~2~-perchlorato-O,O,O')-bis(13-methyl-18-nitro-2,5,8,11-tetraoxa-13-azabicyclo(13.4.0)nonadeca-1(18),14,16-triene)(perchlorato-O,O')-di-barium(ii)
_symmetry_cell_setting           triclinic
_symmetry_space_group_name_H-M   'P -1'
_symmetry_Int_Tables_number      2
_space_group_name_Hall           '-P 1'
loop_
_symmetry_equiv_pos_site_id
_symmetry_equiv_pos_as_xyz
1 x,y,z
2 -x,-y,-z
_cell_length_a                   10.5563(4)
_cell_length_b                   13.4472(5)
_cell_length_c                   16.1110(7)
_cell_angle_alpha                90.005(2)
_cell_angle_beta                 97.529(2)
_cell_angle_gamma                92.111(2)
_cell_volume                     2265.72
_exptl_crystal_colour            colorless
_exptl_crystal_description       block
_cell_formula_units_Z            2
loop_
_atom_site_label
_atom_site_type_symbol
_atom_site_fract_x
_atom_site_fract_y
_atom_site_fract_z
Ba1 Ba 0.77615(4) 0.16388(3) 0.26653(3)
Ba2 Ba 0.45859(4) 0.41688(3) 0.22958(3)
Cl1 Cl 0.9337(4) 0.2742(3) 0.4640(3)
O1 O 1.0686(16) 0.2713(13) 0.4866(11)
O2 O 0.9063(9) 0.3199(8) 0.3813(6)
O3 O 0.8744(12) 0.1741(7) 0.4482(6)
O4 O 0.8730(14) 0.3236(12) 0.5242(9)
Cl2 Cl 0.4396(2) 0.19094(19) 0.10459(15)
O5 O 0.5345(6) 0.2031(8) 0.1769(4)
O6 O 0.4986(9) 0.1783(6) 0.0329(4)
O7 O 0.3507(7) 0.1112(6) 0.1132(5)
O8 O 0.3757(8) 0.2866(6) 0.0941(6)
Cl3 Cl 0.7422(2) 0.39497(15) 0.14330(13)
O9 O 0.6208(6) 0.4270(4) 0.1025(4)
O10 O 0.7318(6) 0.3840(5) 0.2319(4)
O11 O 0.8393(7) 0.4664(5) 0.1285(5)
O12 O 0.7701(8) 0.2997(5) 0.1129(5)
Cl4 Cl 0.4983(2) 0.23441(15) 0.38579(14)
O13 O 0.478(3) 0.226(2) 0.4658(18)
O14 O 0.6042(12) 0.3034(11) 0.3586(8)
O15 O 0.5363(14) 0.1392(9) 0.3570(8)
O16 O 0.3858(10) 0.2629(9) 0.3341(8)
O17 O 0.6752(6) -0.0242(4) 0.1962(3)
O18 O 0.8300(7) 0.0898(4) 0.1092(4)
O19 O 1.0215(6) 0.1786(5) 0.2200(4)
O20 O 0.9647(5) 0.0285(4) 0.3207(4)
O21 O 0.5090(5) 0.6166(4) 0.1775(3)
O22 O 0.2924(5) 0.5079(4) 0.1034(3)
O23 O 0.1967(6) 0.4026(6) 0.2303(4)
O24 O 0.3417(7) 0.5344(5) 0.3343(5)
O25 O 0.8610(6) 0.7719(4) 0.0315(4)
O26 O 1.0241(5) 0.6961(4) 0.0950(4)
N1 N 0.7125(6) -0.0319(5) 0.3631(4)
N2 N 0.2192(15) -0.1324(17) 0.1975(16)
O27 O 0.202(3) -0.1160(16) 0.1197(17)
O28 O 0.1353(19) -0.1589(18) 0.241(2)
N3 N 0.6182(6) 0.5733(5) 0.3320(4)
N4 N 0.9136(6) 0.7241(4) 0.0894(4)
C1 C 0.6701(10) -0.0360(6) 0.1075(5)
H1 H 0.6071 0.0089 0.0779
H2 H 0.6441 -0.1054 0.0908
C2 C 0.5721(8) -0.0602(5) 0.2329(5)
C3 C 0.4558(9) -0.0860(6) 0.1886(6)
H3 H 0.4441 -0.0850 0.1291
C4 C 0.3556(8) -0.1135(6) 0.2323(7)
C5 C 0.3701(9) -0.1193(6) 0.3174(7)
H4 H 0.3005 -0.1404 0.3458
C6 C 0.4878(9) -0.0941(6) 0.3617(6)
H5 H 0.4981 -0.0974 0.4211
C7 C 0.5918(7) -0.0639(6) 0.3218(5)
C8 C 0.8144(8) -0.1018(6) 0.3502(6)
H6 H 0.8030 -0.1235 0.2908
H7 H 0.8052 -0.1616 0.3851
C9 C 0.9472(8) -0.0560(7) 0.3721(6)
H8 H 0.9601 -0.0355 0.4317
H9 H 1.0112 -0.1058 0.3639
C10 C 1.0938(8) 0.0643(7) 0.3307(6)
H10 H 1.1474 0.0151 0.3074
H11 H 1.1251 0.0730 0.3910
C11 C 1.1055(14) 0.1650(14) 0.2851(11)
H12 H 1.0991 0.2192 0.3258
H13 H 1.1917 0.1712 0.2674
C12 C 1.0419(13) 0.1136(10) 0.1436(9)
H14 H 1.1245 0.1331 0.1243
H15 H 1.0449 0.0427 0.1602
C13 C 0.9467(11) 0.1251(7) 0.0812(7)
H16 H 0.9626 0.0869 0.0313
H17 H 0.9409 0.1962 0.0658
C14 C 0.7993(10) -0.0112(6) 0.0858(6)
H18 H 0.8625 -0.0553 0.1162
H19 H 0.8008 -0.0201 0.0249
C15 C 0.7116(10) -0.0127(9) 0.4538(5)
H20 H 0.6914 -0.0749 0.4816
H21 H 0.6469 0.0358 0.4611
H22 H 0.7959 0.0138 0.4784
C16 C 0.4452(7) 0.6408(6) 0.0953(5)
H23 H 0.4803 0.6026 0.0516
H24 H 0.4569 0.7127 0.0840
C17 C 0.6373(7) 0.6413(5) 0.1939(5)
C18 C 0.7071(7) 0.6807(5) 0.1339(5)
H25 H 0.6672 0.6977 0.0797
C19 C 0.8387(7) 0.6942(5) 0.1566(5)
C20 C 0.8995(7) 0.6739(6) 0.2338(5)
H26 H 0.9895 0.6843 0.2463
C21 C 0.8270(8) 0.6373(6) 0.2945(5)
H27 H 0.8674 0.6249 0.3495
C22 C 0.6962(7) 0.6189(5) 0.2748(5)
C23 C 0.5271(9) 0.6450(7) 0.3596(5)
H28 H 0.4938 0.6860 0.3111
H29 H 0.5741 0.6902 0.4024
C24 C 0.4156(10) 0.5960(9) 0.3954(6)
H30 H 0.4475 0.5554 0.4445
H31 H 0.3613 0.6476 0.4144
C25 C 0.2154(19) 0.4843(18) 0.3496(11)
H32 H 0.2343 0.4251 0.3848
H33 H 0.1704 0.5308 0.3822
C26 C 0.1293(16) 0.4534(13) 0.2764(12)
H34 H 0.0573 0.4116 0.2925
H35 H 0.0942 0.5120 0.2454
C27 C 0.1354(12) 0.3793(9) 0.1393(9)
H36 H 0.1753 0.3217 0.1163
H37 H 0.0423 0.3649 0.1367
C28 C 0.1616(8) 0.4721(6) 0.0928(6)
H38 H 0.1340 0.4600 0.0325
H39 H 0.1084 0.5251 0.1111
C29 C 0.3053(7) 0.6134(6) 0.0959(5)
H40 H 0.2732 0.6463 0.1435
H41 H 0.2550 0.6355 0.0434
C30 C 0.6914(9) 0.5247(7) 0.4038(5)
H42 H 0.7442 0.5749 0.4379
H43 H 0.7465 0.4756 0.3835
H44 H 0.6322 0.4913 0.4378
C31? C 0.229(3) 0.526(2) 0.3637(18)
C32? C 0.176(2) 0.4329(19) 0.3240(18)
C33? C 1.125(2) 0.116(2) 0.2609(15)
C34? C 0.1230(16) 0.4789(13) 0.1809(12)
C35? C 1.0256(18) 0.2098(15) 0.1458(12)
Cl5? Cl 0.939(3) 0.278(3) 0.484(2)
H45? H 0.1743 0.5830 0.3459
H46? H 0.2394 0.5216 0.4255
H47? H 1.1473 0.0677 0.2194
H48? H 1.2018 0.1595 0.2782
H49? H 0.0820 0.4325 0.3252
H50? H 0.2087 0.3784 0.3610
H51? H 1.1154 0.2179 0.1345
H52? H 0.9850 0.2749 0.1380
H53? H 0.1448 0.5460 0.2051
H54? H 0.0300 0.4652 0.1795
N5? N 0.2399(19) -0.1338(16) 0.1681(16)
O29? O 0.883(3) 0.259(3) 0.396(2)
O30? O 0.885(3) 0.258(2) 0.555(2)
O31? O 1.049(5) 0.227(4) 0.487(4)
O32? O 0.976(3) 0.387(2) 0.494(2)
O33? O 0.539(3) 0.237(2) 0.4738(17)
O34? O 0.408(2) 0.3124(18) 0.3926(17)
O35? O 0.423(3) 0.1451(19) 0.3760(19)
O36? O 0.5853(19) 0.2476(19) 0.3408(13)
O37? O 0.2382(18) -0.146(2) 0.0899(16)
O38? O 0.143(2) -0.144(2) 0.207(2)
loop_
_geom_bond_atom_site_label_1
_geom_bond_atom_site_label_2
_geom_bond_site_symmetry_1
_geom_bond_site_symmetry_2
Ba1 O2 1_555 1_555
Ba2 O5 1_555 1_555
Cl1 O1 1_555 1_555
O2 Cl1 1_555 1_555
O3 Ba1 1_555 1_555
O4 Cl1 1_555 1_555
Cl2 O5 1_555 1_555
O5 Ba1 1_555 1_555
O6 Cl2 1_555 1_555
O7 Cl2 1_555 1_555
O8 Ba2 1_555 1_555
Cl3 O9 1_555 1_555
O9 Ba2 1_555 1_555
O10 Ba1 1_555 1_555
O11 Cl3 1_555 1_555
O12 Ba1 1_555 1_555
Cl4 O13 1_555 1_555
O14 Ba1 1_555 1_555
O15 Ba1 1_555 1_555
O16 Ba2 1_555 1_555
O17 Ba1 1_555 1_555
O18 Ba1 1_555 1_555
O19 Ba1 1_555 1_555
O20 Ba1 1_555 1_555
O21 Ba2 1_555 1_555
O22 Ba2 1_555 1_555
O23 Ba2 1_555 1_555
O24 Ba2 1_555 1_555
O25 N4 1_555 1_555
O26 N4 1_555 1_555
N1 Ba1 1_555 1_555
N2 O27 1_555 1_555
O28 N2 1_555 1_555
N3 Ba2 1_555 1_555
N4 C19 1_555 1_555
C1 O17 1_555 1_555
H1 C1 1_555 1_555
H2 C1 1_555 1_555
C2 O17 1_555 1_555
C3 C2 1_555 1_555
H3 C3 1_555 1_555
C4 N2 1_555 1_555
C5 C4 1_555 1_555
H4 C5 1_555 1_555
C6 C5 1_555 1_555
H5 C6 1_555 1_555
C7 N1 1_555 1_555
C8 N1 1_555 1_555
H6 C8 1_555 1_555
H7 C8 1_555 1_555
C9 O20 1_555 1_555
H8 C9 1_555 1_555
H9 C9 1_555 1_555
C10 O20 1_555 1_555
H10 C10 1_555 1_555
H11 C10 1_555 1_555
C11 O19 1_555 1_555
H12 C11 1_555 1_555
H13 C11 1_555 1_555
C12 O19 1_555 1_555
H14 C12 1_555 1_555
H15 C12 1_555 1_555
C13 O18 1_555 1_555
H16 C13 1_555 1_555
H17 C13 1_555 1_555
C14 O18 1_555 1_555
H18 C14 1_555 1_555
H19 C14 1_555 1_555
C15 N1 1_555 1_555
H20 C15 1_555 1_555
H21 C15 1_555 1_555
H22 C15 1_555 1_555
C16 O21 1_555 1_555
H23 C16 1_555 1_555
H24 C16 1_555 1_555
C17 O21 1_555 1_555
C18 C17 1_555 1_555
H25 C18 1_555 1_555
C19 C18 1_555 1_555
C20 C19 1_555 1_555
H26 C20 1_555 1_555
C21 C20 1_555 1_555
H27 C21 1_555 1_555
C22 N3 1_555 1_555
C23 N3 1_555 1_555
H28 C23 1_555 1_555
H29 C23 1_555 1_555
C24 O24 1_555 1_555
H30 C24 1_555 1_555
H31 C24 1_555 1_555
C25 O24 1_555 1_555
H32 C25 1_555 1_555
H33 C25 1_555 1_555
C26 O23 1_555 1_555
H34 C26 1_555 1_555
H35 C26 1_555 1_555
C27 O23 1_555 1_555
H36 C27 1_555 1_555
H37 C27 1_555 1_555
C28 O22 1_555 1_555
H38 C28 1_555 1_555
H39 C28 1_555 1_555
C29 O22 1_555 1_555
H40 C29 1_555 1_555
H41 C29 1_555 1_555
C30 N3 1_555 1_555
H42 C30 1_555 1_555
H43 C30 1_555 1_555
H44 C30 1_555 1_555
Ba2 O10 1_555 1_555
Ba2 O14 1_555 1_555
Cl1 O3 1_555 1_555
Cl2 O8 1_555 1_555
Cl3 O10 1_555 1_555
Cl3 O12 1_555 1_555
Cl4 O14 1_555 1_555
Cl4 O15 1_555 1_555
Cl4 O16 1_555 1_555
C1 C14 1_555 1_555
C2 C7 1_555 1_555
C3 C4 1_555 1_555
C6 C7 1_555 1_555
C8 C9 1_555 1_555
C10 C11 1_555 1_555
C12 C13 1_555 1_555
C16 C29 1_555 1_555
C17 C22 1_555 1_555
C21 C22 1_555 1_555
C23 C24 1_555 1_555
C25 C26 1_555 1_555
C27 C28 1_555 1_555

#END
