
#######################################################################
#
#                 Cambridge Crystallographic Data Centre
#                                CCDC 
#
#######################################################################
#
# If this CIF has been generated from an entry in the Cambridge 
# Structural Database, then it will include bibliographic, chemical, 
# crystal, experimental, refinement or atomic coordinate data resulting 
# from the CCDC's data processing and validation procedures.
#
#######################################################################

data_APIXEE
_chemical_formula_moiety         'C16 H9 N3 O2'
_chemical_name_systematic        
1-phenyl-1H-naphtho[2,3-d][1,2,3]triazole-4,9-dione
_symmetry_cell_setting           monoclinic
_symmetry_space_group_name_H-M   'C c'
_symmetry_Int_Tables_number      9
_space_group_name_Hall           'C -2yc'
loop_
_symmetry_equiv_pos_site_id
_symmetry_equiv_pos_as_xyz
1 x,y,z
2 x,-y,1/2+z
3 1/2+x,1/2+y,z
4 1/2+x,1/2-y,1/2+z
_cell_length_a                   23.897(17)
_cell_length_b                   6.420(5)
_cell_length_c                   8.292(6)
_cell_angle_alpha                90
_cell_angle_beta                 95.275(11)
_cell_angle_gamma                90
_cell_volume                     1266.76
_exptl_crystal_colour            colorless
_exptl_crystal_description       prism
_cell_formula_units_Z            4
loop_
_atom_site_label
_atom_site_type_symbol
_atom_site_fract_x
_atom_site_fract_y
_atom_site_fract_z
C1 C 0.52559(17) 0.2576(6) 0.9083(6)
C2 C 0.5876(2) 0.2559(5) 0.8859(6)
C3 C 0.60327(19) 0.2582(5) 0.7280(5)
H1 H 0.5750 0.2612 0.6395
C4 C 0.6598(2) 0.2562(5) 0.6980(7)
H2 H 0.6702 0.2593 0.5902
C5 C 0.7009(2) 0.2495(5) 0.8294(6)
H3 H 0.7395 0.2489 0.8111
C6 C 0.68530(18) 0.2439(6) 0.9868(6)
H4 H 0.7136 0.2368 1.0748
C7 C 0.62916(18) 0.2483(5) 1.0180(6)
C8 C 0.61522(18) 0.2437(5) 1.1903(6)
C9 C 0.55475(17) 0.2435(6) 1.2091(6)
C10 C 0.51425(18) 0.2509(5) 1.0811(6)
C11 C 0.40727(19) 0.2434(6) 1.0802(6)
C12 C 0.3725(2) 0.0834(7) 1.1187(8)
H5 H 0.3862 -0.0266 1.1881
C13 C 0.3173(2) 0.0870(8) 1.0540(8)
H6 H 0.2927 -0.0217 1.0794
C14 C 0.2973(2) 0.2472(8) 0.9523(8)
H7 H 0.2592 0.2489 0.9082
C15 C 0.3331(2) 0.4017(8) 0.9166(9)
H8 H 0.3197 0.5109 0.8460
C16 C 0.3884(2) 0.4029(7) 0.9809(7)
H9 H 0.4129 0.5127 0.9566
N1 N 0.52966(17) 0.2291(5) 1.3519(5)
N2 N 0.47510(14) 0.2283(5) 1.3163(5)
N3 N 0.46485(14) 0.2417(4) 1.1508(5)
O1 O 0.48948(13) 0.2668(4) 0.7952(4)
O2 O 0.65134(13) 0.2412(4) 1.3053(4)
loop_
_geom_bond_atom_site_label_1
_geom_bond_atom_site_label_2
_geom_bond_site_symmetry_1
_geom_bond_site_symmetry_2
C1 C2 1_555 1_555
C2 C3 1_555 1_555
C3 H1 1_555 1_555
C4 C3 1_555 1_555
H2 C4 1_555 1_555
C5 C4 1_555 1_555
H3 C5 1_555 1_555
C6 C5 1_555 1_555
H4 C6 1_555 1_555
C7 C2 1_555 1_555
C8 C7 1_555 1_555
C9 C8 1_555 1_555
C10 C1 1_555 1_555
C11 C12 1_555 1_555
C12 H5 1_555 1_555
C13 C12 1_555 1_555
H6 C13 1_555 1_555
C14 C13 1_555 1_555
H7 C14 1_555 1_555
C15 C14 1_555 1_555
H8 C15 1_555 1_555
C16 C11 1_555 1_555
H9 C16 1_555 1_555
N1 C9 1_555 1_555
N2 N1 1_555 1_555
N3 C10 1_555 1_555
O1 C1 1_555 1_555
O2 C8 1_555 1_555
C6 C7 1_555 1_555
C9 C10 1_555 1_555
C11 N3 1_555 1_555
C15 C16 1_555 1_555
N2 N3 1_555 1_555

#END
