
#######################################################################
#
#                 Cambridge Crystallographic Data Centre
#                                CCDC 
#
#######################################################################
#
# If this CIF has been generated from an entry in the Cambridge 
# Structural Database, then it will include bibliographic, chemical, 
# crystal, experimental, refinement or atomic coordinate data resulting 
# from the CCDC's data processing and validation procedures.
#
#######################################################################

data_APOLOH
_chemical_name_common            'PDB Chemical Component code: MAG'
_chemical_formula_moiety         'C9 H17 N1 O6,H2 O1'
_chemical_name_systematic        
'Methyl 2-acetamido-2-deoxy-\b-D-glucopyranoside monohydrate'
_symmetry_cell_setting           orthorhombic
_symmetry_space_group_name_H-M   'P 21 21 21'
_symmetry_Int_Tables_number      19
_space_group_name_Hall           'P 2ac 2ab'
loop_
_symmetry_equiv_pos_site_id
_symmetry_equiv_pos_as_xyz
1 x,y,z
2 1/2-x,-y,1/2+z
3 -x,1/2+y,1/2-z
4 1/2+x,1/2-y,-z
_cell_length_a                   4.68860(10)
_cell_length_b                   14.4501(3)
_cell_length_c                   34.7880(7)
_cell_angle_alpha                90
_cell_angle_beta                 90
_cell_angle_gamma                90
_cell_volume                     2356.91
_exptl_crystal_colour            colorless
_exptl_crystal_description       rod
_cell_formula_units_Z            8
loop_
_atom_site_label
_atom_site_type_symbol
_atom_site_fract_x
_atom_site_fract_y
_atom_site_fract_z
O1 O 0.5019(4) 1.01643(12) 0.10252(5)
O2 O -0.0147(4) 0.77214(12) 0.04674(4)
H1 H -0.1664 0.7412 0.0462
O3 O -0.1213(4) 0.70071(12) 0.12345(5)
H2 H -0.1207 0.6606 0.1060
O4 O 0.3512(4) 0.89756(12) 0.13984(5)
O5 O 0.2345(5) 0.85070(13) 0.21745(4)
H3 H 0.3906 0.8790 0.2161
O6 O 0.4770(4) 0.96829(13) 0.00669(5)
N1 N 0.0838(5) 0.96940(14) 0.04438(5)
H4 H -0.0896 0.9914 0.0477
C1 C 0.2700(6) 0.95948(17) 0.11017(7)
H5 H 0.1024 0.9974 0.1185
C2 C 0.1996(6) 0.90667(17) 0.07315(6)
H6 H 0.3809 0.8800 0.0628
C3 C -0.0065(6) 0.82680(17) 0.08098(6)
H7 H -0.2010 0.8524 0.0862
C4 C 0.0894(6) 0.76899(17) 0.11538(7)
H8 H 0.2756 0.7383 0.1095
C5 C 0.1244(6) 0.83421(17) 0.14954(7)
H9 H -0.0567 0.8693 0.1539
C6 C 0.2140(6) 0.78608(17) 0.18643(7)
H10 H 0.0728 0.7376 0.1930
H11 H 0.4010 0.7557 0.1825
C7 C 0.5551(7) 1.08176(17) 0.13314(7)
H12 H 0.7092 1.1238 0.1256
H13 H 0.6105 1.0483 0.1565
H14 H 0.3816 1.1176 0.1382
C8 C 0.2308(6) 0.99501(17) 0.01305(7)
C9 C 0.0792(6) 1.05925(18) -0.01432(7)
H15 H 0.2151 1.1045 -0.0245
H16 H -0.0740 1.0916 -0.0007
H17 H -0.0021 1.0233 -0.0356
O7 O 0.9086(4) 0.76022(12) 0.32909(5)
O8 O 0.4687(4) 1.01843(12) 0.39090(4)
H18 H 0.3092 1.0156 0.4018
O9 O 0.3359(4) 1.08765(12) 0.31410(5)
H19 H 0.3011 1.1201 0.3336
O10 O 0.8057(4) 0.89217(12) 0.29652(5)
O11 O 0.7373(4) 0.95967(13) 0.22034(4)
H20 H 0.8870 0.9278 0.2215
O12 O 0.9940(5) 0.79804(15) 0.42041(5)
N2 N 0.5606(5) 0.81929(14) 0.39308(5)
H21 H 0.3772 0.8065 0.3940
C10 C 0.7037(6) 0.82856(17) 0.32456(7)
H22 H 0.5186 0.8008 0.3161
C11 C 0.6663(6) 0.87963(17) 0.36277(7)
H23 H 0.8569 0.9039 0.3709
C12 C 0.4651(6) 0.96231(17) 0.35726(6)
H24 H 0.2670 0.9389 0.3530
C13 C 0.5527(6) 1.02200(17) 0.32311(7)
H25 H 0.7339 1.0553 0.3293
C14 C 0.5973(6) 0.96175(17) 0.28769(6)
H26 H 0.4132 0.9317 0.2802
C15 C 0.7151(6) 1.01601(18) 0.25401(7)
H27 H 0.5886 1.0693 0.2486
H28 H 0.9059 1.0404 0.2608
C16 C 0.9410(7) 0.70406(18) 0.29520(7)
H29 H 1.0601 0.6502 0.3012
H30 H 1.0319 0.7406 0.2749
H31 H 0.7531 0.6831 0.2865
C17 C 0.7351(6) 0.78257(18) 0.41962(7)
C18 C 0.5983(6) 0.71994(18) 0.44908(7)
H32 H 0.6764 0.7337 0.4746
H33 H 0.6379 0.6552 0.4425
H34 H 0.3917 0.7302 0.4493
O13 O 0.5067(5) 0.67786(13) 0.03237(5)
H35 H 0.347(4) 0.698(2) 0.0390(7)
H36 H 0.525(6) 0.6853(19) 0.0085(3)
O14 O 0.0227(4) 0.55444(13) 0.07407(5)
H37 H 0.027(6) 0.550(2) 0.0501(3)
H38 H 0.182(4) 0.542(2) 0.0832(7)
loop_
_geom_bond_atom_site_label_1
_geom_bond_atom_site_label_2
_geom_bond_site_symmetry_1
_geom_bond_site_symmetry_2
O1 C1 1_555 1_555
O2 H1 1_555 1_555
O3 H2 1_555 1_555
O4 C1 1_555 1_555
O5 H3 1_555 1_555
O6 C8 1_555 1_555
N1 H4 1_555 1_555
C1 H5 1_555 1_555
C2 N1 1_555 1_555
H6 C2 1_555 1_555
C3 O2 1_555 1_555
H7 C3 1_555 1_555
C4 O3 1_555 1_555
H8 C4 1_555 1_555
C5 O4 1_555 1_555
H9 C5 1_555 1_555
C6 O5 1_555 1_555
H10 C6 1_555 1_555
H11 C6 1_555 1_555
C7 O1 1_555 1_555
H12 C7 1_555 1_555
H13 C7 1_555 1_555
H14 C7 1_555 1_555
C8 N1 1_555 1_555
C9 C8 1_555 1_555
H15 C9 1_555 1_555
H16 C9 1_555 1_555
H17 C9 1_555 1_555
O7 C10 1_555 1_555
O8 H18 1_555 1_555
O9 H19 1_555 1_555
O10 C10 1_555 1_555
O11 H20 1_555 1_555
O12 C17 1_555 1_555
N2 H21 1_555 1_555
C10 H22 1_555 1_555
C11 N2 1_555 1_555
H23 C11 1_555 1_555
C12 O8 1_555 1_555
H24 C12 1_555 1_555
C13 O9 1_555 1_555
H25 C13 1_555 1_555
C14 O10 1_555 1_555
H26 C14 1_555 1_555
C15 O11 1_555 1_555
H27 C15 1_555 1_555
H28 C15 1_555 1_555
C16 O7 1_555 1_555
H29 C16 1_555 1_555
H30 C16 1_555 1_555
H31 C16 1_555 1_555
C17 N2 1_555 1_555
C18 C17 1_555 1_555
H32 C18 1_555 1_555
H33 C18 1_555 1_555
H34 C18 1_555 1_555
O13 H35 1_555 1_555
H36 O13 1_555 1_555
O14 H37 1_555 1_555
H38 O14 1_555 1_555
C1 C2 1_555 1_555
C2 C3 1_555 1_555
C3 C4 1_555 1_555
C4 C5 1_555 1_555
C5 C6 1_555 1_555
C10 C11 1_555 1_555
C11 C12 1_555 1_555
C12 C13 1_555 1_555
C13 C14 1_555 1_555
C14 C15 1_555 1_555

#END
