
#######################################################################
#
#                 Cambridge Crystallographic Data Centre
#                                CCDC 
#
#######################################################################
#
# If this CIF has been generated from an entry in the Cambridge 
# Structural Database, then it will include bibliographic, chemical, 
# crystal, experimental, refinement or atomic coordinate data resulting 
# from the CCDC's data processing and validation procedures.
#
#######################################################################

data_APOQUS
_chemical_formula_moiety         '2(C1 H6 N3 1+),C12 H8 N2 O6 S2 2-,3(C14 H12)'
_chemical_name_systematic        
"bis(Guanidinium) 4,4'-azobenzenedisulfonate tris(stilbene) clathrate"
_symmetry_cell_setting           monoclinic
_symmetry_space_group_name_H-M   'P 21/n'
_symmetry_Int_Tables_number      14
_space_group_name_Hall           '-P 2yn'
loop_
_symmetry_equiv_pos_site_id
_symmetry_equiv_pos_as_xyz
1 x,y,z
2 1/2-x,1/2+y,1/2-z
3 -x,-y,-z
4 1/2+x,1/2-y,1/2+z
_cell_length_a                   7.6038(5)
_cell_length_b                   30.2564(19)
_cell_length_c                   11.4283(7)
_cell_angle_alpha                90
_cell_angle_beta                 90.043(1)
_cell_angle_gamma                90
_cell_volume                     2629.24
_exptl_crystal_colour            orange
_exptl_crystal_description       plate
_cell_formula_units_Z            2
_exptl_crystal_recrystallization_method methanol
loop_
_atom_site_label
_atom_site_type_symbol
_atom_site_fract_x
_atom_site_fract_y
_atom_site_fract_z
S1 S 0.52318(6) 0.202568(13) 0.88588(4)
C4 C 0.5131(2) 0.14461(5) 0.90662(13)
C5 C 0.4858(2) 0.05489(6) 0.94519(14)
C7 C 0.4238(2) 0.11858(6) 0.82609(16)
H3 H 0.3723 0.1314 0.7584
C9 C 0.5883(2) 0.12605(6) 1.00641(15)
H4 H 0.6489 0.1442 1.0609
C10 C 0.5745(2) 0.08132(6) 1.02575(15)
H5 H 0.6253 0.0685 1.0937
C14 C 0.4110(3) 0.07361(7) 0.84599(16)
H8 H 0.3506 0.0554 0.7914
N4 N 0.4657(2) 0.00807(5) 0.95588(13)
O1 O 0.68485(16) 0.21763(4) 0.94176(11)
O2 O 0.52032(18) 0.21064(4) 0.76062(10)
O3 O 0.36766(16) 0.22062(4) 0.94429(12)
S1B S 0.47682(6) -0.202568(13) 1.11412(4)
C4B C 0.4869(2) -0.14461(5) 1.09338(13)
C5B C 0.5142(2) -0.05489(6) 1.05481(14)
C7B C 0.5762(2) -0.11858(6) 1.17391(16)
H3B H 0.6277 -0.1314 1.2416
C9B C 0.4117(2) -0.12605(6) 0.99359(15)
H4B H 0.3511 -0.1442 0.9391
C10B C 0.4255(2) -0.08132(6) 0.97425(15)
H5B H 0.3747 -0.0685 0.9063
C14B C 0.5890(3) -0.07361(7) 1.15401(16)
H8B H 0.6494 -0.0554 1.2086
N4B N 0.5343(2) -0.00807(5) 1.04412(13)
O1B O 0.31515(16) -0.21763(4) 1.05824(11)
O2B O 0.47968(18) -0.21064(4) 1.23938(10)
O3B O 0.63234(16) -0.22062(4) 1.05571(12)
C1 C -0.0238(3) 0.08623(6) 0.21320(17)
C3 C 0.0177(3) 0.17336(7) 0.13707(18)
H1 H 0.0332 0.2030 0.1119
C6 C -0.0797(3) -0.09052(7) 0.42989(18)
H2 H -0.1377 -0.0960 0.5020
C8 C 0.0145(3) -0.03908(6) 0.27932(17)
C12 C 0.0879(3) -0.07442(7) 0.22059(19)
H7 H 0.1461 -0.0695 0.1482
C16 C -0.0050(3) -0.12487(7) 0.3684(2)
H10 H -0.0116 -0.1542 0.3978
C17 C -0.0700(3) -0.04787(7) 0.38617(19)
H11 H -0.1212 -0.0242 0.4290
C18 C -0.0650(3) 0.16443(7) 0.24143(19)
H12 H -0.1075 0.1881 0.2882
C20 C 0.0573(3) 0.09559(7) 0.10688(19)
H14 H 0.0990 0.0720 0.0595
C21 C 0.0778(3) 0.13880(8) 0.06933(19)
H15 H 0.1336 0.1447 -0.0034
C23 C -0.0867(3) 0.12143(7) 0.27857(18)
H17 H -0.1457 0.1158 0.3503
C24 C -0.0443(3) 0.04148(7) 0.26397(19)
H18 H -0.1182 0.0389 0.3306
C26 C 0.0788(3) -0.11652(7) 0.2645(2)
H20 H 0.1311 -0.1402 0.2225
C28 C 0.0289(3) 0.00531(7) 0.22639(19)
H22 H 0.0988 0.0077 0.1578
C2 C 0.0247(2) 0.23749(5) 0.73047(15)
N1 N 0.1737(2) 0.24276(5) 0.67230(14)
H23 H 0.1717 0.2519 0.5992
H24 H 0.2748 0.2371 0.7067
N2 N 0.0281(2) 0.22342(5) 0.83988(12)
H25 H -0.0709 0.2197 0.8785
H26 H 0.1293 0.2178 0.8741
N3 N -0.1269(2) 0.24596(6) 0.67933(15)
H27 H -0.2258 0.2422 0.7180
H28 H -0.1293 0.2553 0.6065
C11 C 0.9839(3) 0.48857(6) 0.95238(16)
H6 H 0.9518 0.5050 0.8848
C13 C 0.9923(2) 0.44002(6) 0.93923(15)
C15 C 0.9238(3) 0.42130(7) 0.83781(17)
H9 H 0.8809 0.4401 0.7776
C19 C 1.0585(3) 0.41156(7) 1.02465(17)
H13 H 1.1096 0.4234 1.0937
C22 C 0.9166(3) 0.37625(7) 0.82255(19)
H16 H 0.8693 0.3643 0.7525
C25 C 0.9783(3) 0.34849(7) 0.90904(19)
H19 H 0.9712 0.3173 0.8996
C27 C 1.0505(3) 0.36634(7) 1.00972(19)
H21 H 1.0949 0.3473 1.0689
C11B C 1.0161(3) 0.51143(6) 1.04762(16)
H6B H 1.0482 0.4950 1.1152
C13B C 1.0077(2) 0.55998(6) 1.06077(15)
C15B C 1.0762(3) 0.57870(7) 1.16219(17)
H9B H 1.1191 0.5599 1.2224
C19B C 0.9415(3) 0.58844(7) 0.97535(17)
H13B H 0.8904 0.5766 0.9063
C22B C 1.0834(3) 0.62375(7) 1.17745(19)
H16B H 1.1307 0.6357 1.2475
C25B C 1.0217(3) 0.65151(7) 1.09096(19)
H19B H 1.0288 0.6827 1.1004
C27B C 0.9495(3) 0.63366(7) 0.99028(19)
H21B H 0.9051 0.6527 0.9311
loop_
_geom_bond_atom_site_label_1
_geom_bond_atom_site_label_2
_geom_bond_site_symmetry_1
_geom_bond_site_symmetry_2
S1 C4 1_555 1_555
C1 C20 1_555 1_555
C2 N1 1_555 1_555
C3 H1 1_555 1_555
C4 C7 1_555 1_555
C5 C10 1_555 1_555
C6 H2 1_555 1_555
C7 H3 1_555 1_555
C8 C12 1_555 1_555
C9 C4 1_555 1_555
H4 C9 1_555 1_555
C10 C9 1_555 1_555
H5 C10 1_555 1_555
C11 H6 1_555 1_555
C12 H7 1_555 1_555
C13 C11 1_555 1_555
C14 C5 1_555 1_555
H8 C14 1_555 1_555
C15 C13 1_555 1_555
H9 C15 1_555 1_555
C16 C6 1_555 1_555
H10 C16 1_555 1_555
C17 C6 1_555 1_555
H11 C17 1_555 1_555
C18 C3 1_555 1_555
H12 C18 1_555 1_555
C19 C13 1_555 1_555
H13 C19 1_555 1_555
C20 H14 1_555 1_555
C21 C3 1_555 1_555
H15 C21 1_555 1_555
C22 C15 1_555 1_555
H16 C22 1_555 1_555
C23 C1 1_555 1_555
H17 C23 1_555 1_555
C24 C1 1_555 1_555
H18 C24 1_555 1_555
C25 C22 1_555 1_555
H19 C25 1_555 1_555
C26 C12 1_555 1_555
H20 C26 1_555 1_555
C27 C19 1_555 1_555
H21 C27 1_555 1_555
C28 C8 1_555 1_555
H22 C28 1_555 1_555
N1 H23 1_555 1_555
H24 N1 1_555 1_555
N2 C2 1_555 1_555
H25 N2 1_555 1_555
H26 N2 1_555 1_555
N3 C2 1_555 1_555
H27 N3 1_555 1_555
H28 N3 1_555 1_555
N4 C5 1_555 1_555
O1 S1 1_555 1_555
O2 S1 1_555 1_555
O3 S1 1_555 1_555
S1B C4B 1_555 1_555
C4B C7B 1_555 1_555
C5B C10B 1_555 1_555
C7B H3B 1_555 1_555
C9B C4B 1_555 1_555
H4B C9B 1_555 1_555
C10B C9B 1_555 1_555
H5B C10B 1_555 1_555
C11B C11 1_555 1_555
H6B C11B 1_555 1_555
C13B C11B 1_555 1_555
C14B C5B 1_555 1_555
H8B C14B 1_555 1_555
C15B C13B 1_555 1_555
H9B C15B 1_555 1_555
C19B C13B 1_555 1_555
H13B C19B 1_555 1_555
C22B C15B 1_555 1_555
H16B C22B 1_555 1_555
C25B C22B 1_555 1_555
H19B C25B 1_555 1_555
C27B C19B 1_555 1_555
H21B C27B 1_555 1_555
N4B N4 1_555 1_555
O1B S1B 1_555 1_555
O2B S1B 1_555 1_555
O3B S1B 1_555 1_555
C7 C14 1_555 1_555
C8 C17 1_555 1_555
C16 C26 1_555 1_555
C18 C23 1_555 1_555
C20 C21 1_555 1_555
C24 C28 1_555 1_555
C25 C27 1_555 1_555
C5B N4B 1_555 1_555
C7B C14B 1_555 1_555
C25B C27B 1_555 1_555

#END
