
#######################################################################
#
#                 Cambridge Crystallographic Data Centre
#                                CCDC 
#
#######################################################################
#
# If this CIF has been generated from an entry in the Cambridge 
# Structural Database, then it will include bibliographic, chemical, 
# crystal, experimental, refinement or atomic coordinate data resulting 
# from the CCDC's data processing and validation procedures.
#
#######################################################################

data_APORIH
_chemical_formula_moiety         '2(C1 H6 N3 1+),C10 H6 O6 S2 2-,0.5(C14 H14)'
_chemical_name_systematic        
'bis(Guanidinium) naphthalene-2,6-disulfonate hemikis(1,2-diphenylethane) clathrate'
_symmetry_cell_setting           triclinic
_symmetry_space_group_name_H-M   'P 1'
_symmetry_Int_Tables_number      1
_space_group_name_Hall           'P 1'
loop_
_symmetry_equiv_pos_site_id
_symmetry_equiv_pos_as_xyz
1 x,y,z
_cell_length_a                   7.1652(5)
_cell_length_b                   12.5807(10)
_cell_length_c                   25.0454(19)
_cell_angle_alpha                94.260(1)
_cell_angle_beta                 91.019(1)
_cell_angle_gamma                91.299(1)
_cell_volume                     2250.43
_exptl_crystal_colour            colorless
_exptl_crystal_description       rod
_cell_formula_units_Z            4
_exptl_crystal_recrystallization_method methanol
loop_
_atom_site_label
_atom_site_type_symbol
_atom_site_fract_x
_atom_site_fract_y
_atom_site_fract_z
S1 S 0.74918(17) 0.31386(9) 0.91931(4)
O1 O 0.9066(6) 0.2702(3) 0.94645(15)
O2 O 0.5674(6) 0.2716(3) 0.93675(16)
O3 O 0.7528(6) 0.4287(3) 0.92305(15)
S2 S 0.75105(19) 0.18603(9) 0.58064(4)
O4 O 0.9294(6) 0.2281(3) 0.56631(15)
O5 O 0.7444(6) 0.0679(3) 0.57719(14)
O6 O 0.5953(6) 0.2311(3) 0.55221(15)
C1 C 0.7673(7) 0.2741(3) 0.85087(19)
C2 C 0.8595(8) 0.1743(4) 0.8352(2)
H1 H 0.9103 0.1323 0.8616
C3 C 0.8718(8) 0.1422(4) 0.7825(2)
H2 H 0.9355 0.0786 0.7726
C4 C 0.7931(8) 0.2001(4) 0.7420(2)
C5 C 0.8017(7) 0.1668(4) 0.6880(2)
H3 H 0.8580 0.1013 0.6770
C6 C 0.7268(8) 0.2307(4) 0.64975(18)
C7 C 0.6438(8) 0.3238(4) 0.66350(18)
H4 H 0.5938 0.3646 0.6364
C8 C 0.6313(8) 0.3601(4) 0.71701(19)
H5 H 0.5739 0.4260 0.7267
C9 C 0.7044(8) 0.2984(4) 0.75693(19)
C10 C 0.6935(8) 0.3331(4) 0.81317(19)
H6 H 0.6340 0.3979 0.8237
S3 S 0.21086(19) 0.31719(9) 0.41861(4)
O7 O 0.3691(7) 0.2743(3) 0.44550(16)
O8 O 0.0325(6) 0.2760(3) 0.43739(16)
O9 O 0.2164(6) 0.4326(3) 0.42102(14)
S4 S 0.28911(17) 0.18260(9) 0.08155(5)
O10 O 0.4678(5) 0.2242(3) 0.06575(15)
O11 O 0.2802(6) 0.0651(3) 0.07880(14)
O12 O 0.1323(6) 0.2279(3) 0.05356(15)
C11 C 0.2250(7) 0.2742(3) 0.35051(19)
C12 C 0.2068(9) 0.1589(4) 0.3369(2)
H7 H 0.1907 0.1107 0.3640
C13 C 0.2136(9) 0.1232(4) 0.2845(2)
H8 H 0.2022 0.0487 0.2753
C14 C 0.2371(8) 0.1931(4) 0.2428(2)
C15 C 0.2465(7) 0.1573(4) 0.1889(2)
H9 H 0.2367 0.0832 0.1785
C16 C 0.2703(7) 0.2304(4) 0.15005(19)
C17 C 0.2873(8) 0.3370(4) 0.16391(19)
H10 H 0.3021 0.3851 0.1367
C18 C 0.2834(9) 0.3761(4) 0.2165(2)
H11 H 0.2998 0.4503 0.2257
C19 C 0.2546(8) 0.3044(4) 0.25695(19)
C20 C 0.2480(8) 0.3439(4) 0.31250(19)
H12 H 0.2598 0.4182 0.3222
S5 S 0.75600(17) 0.81390(9) 0.91931(4)
O13 O 0.9187(6) 0.7697(3) 0.94443(14)
O14 O 0.5783(6) 0.7721(3) 0.93965(16)
O15 O 0.7604(6) 0.9291(3) 0.92274(15)
S6 S 0.74391(19) 0.68617(9) 0.58066(4)
O16 O 0.9165(6) 0.7279(3) 0.56258(16)
O17 O 0.7339(6) 0.5683(3) 0.57773(14)
O18 O 0.5836(7) 0.7313(3) 0.55555(16)
C21 C 0.7604(7) 0.7734(4) 0.8507(2)
C22 C 0.7842(9) 0.6592(4) 0.8354(2)
H13 H 0.7992 0.6103 0.8622
C23 C 0.7847(9) 0.6250(4) 0.7841(2)
H14 H 0.8020 0.5514 0.7748
C24 C 0.7601(8) 0.6949(4) 0.7421(2)
C25 C 0.7582(8) 0.6590(4) 0.6886(2)
H15 H 0.7709 0.5853 0.6783
C26 C 0.7372(7) 0.7327(4) 0.64980(17)
C27 C 0.7127(8) 0.8382(4) 0.66235(18)
H16 H 0.6975 0.8856 0.6348
C28 C 0.7101(9) 0.8767(5) 0.7165(2)
H17 H 0.6898 0.9499 0.7260
C29 C 0.7381(8) 0.8053(4) 0.7564(2)
C30 C 0.7395(8) 0.8418(4) 0.8129(2)
H18 H 0.7255 0.9154 0.8231
S7 S 0.21709(19) 0.81673(9) 0.41874(4)
O19 O 0.3809(6) 0.7731(3) 0.44246(15)
O20 O 0.0432(6) 0.7773(3) 0.44075(16)
O21 O 0.2267(6) 0.9318(3) 0.42162(13)
S8 S 0.28308(17) 0.68317(9) 0.08123(4)
O22 O 0.4570(6) 0.7235(3) 0.06121(15)
O23 O 0.2701(5) 0.5653(3) 0.07861(14)
O24 O 0.1201(6) 0.7296(3) 0.05726(15)
C31 C 0.2122(7) 0.7747(3) 0.35046(18)
C32 C 0.1255(8) 0.6714(4) 0.33324(19)
H19 H 0.0712 0.6281 0.3586
C33 C 0.1235(8) 0.6379(4) 0.28031(18)
H20 H 0.0672 0.5706 0.2692
C34 C 0.2019(7) 0.6997(4) 0.2416(2)
C35 C 0.2030(7) 0.6656(4) 0.18676(19)
H21 H 0.1490 0.5982 0.1746
C36 C 0.2823(7) 0.7298(4) 0.15080(19)
C37 C 0.3688(8) 0.8246(4) 0.16647(19)
H22 H 0.4248 0.8657 0.1405
C38 C 0.3759(8) 0.8613(4) 0.2193(2)
H23 H 0.4372 0.9274 0.2300
C39 C 0.2903(8) 0.7993(4) 0.25845(19)
C40 C 0.2967(8) 0.8347(4) 0.31402(18)
H24 H 0.3596 0.8998 0.3257
C41 C 0.6783(10) 0.4755(5) 0.2981(2)
H25 H 0.6691 0.4542 0.3336
C42 C 0.6362(9) 0.5819(5) 0.2871(3)
H26 H 0.5936 0.6308 0.3147
C43 C 0.6578(9) 0.6133(4) 0.2359(2)
H27 H 0.6280 0.6837 0.2280
C44 C 0.7208(10) 0.5447(5) 0.1973(3)
H28 H 0.7388 0.5675 0.1624
C45 C 0.7612(10) 0.4371(5) 0.2080(3)
H29 H 0.8083 0.3897 0.1804
C46 C 0.7327(9) 0.4027(5) 0.2574(3)
C47 C 0.7493(11) 0.2886(6) 0.2746(3)
H30 H 0.8696 0.2829 0.2941
H31 H 0.6479 0.2746 0.2997
C48 C 0.7390(11) 0.2068(6) 0.2296(3)
H32 H 0.8350 0.2248 0.2036
H33 H 0.6157 0.2112 0.2115
C49 C 0.7653(10) 0.0915(5) 0.2427(3)
C50 C 0.7438(10) 0.0556(6) 0.2943(3)
H34 H 0.7042 0.1039 0.3226
C51 C 0.7779(10) -0.0444(6) 0.3040(3)
H35 H 0.7614 -0.0665 0.3391
C52 C 0.8376(10) -0.1178(5) 0.2636(3)
H36 H 0.8621 -0.1893 0.2708
C53 C 0.8599(10) -0.0832(5) 0.2129(3)
H37 H 0.8987 -0.1318 0.1846
C54 C 0.8272(9) 0.0177(5) 0.2034(2)
H38 H 0.8471 0.0398 0.1684
C55 C 0.3264(9) 0.9838(5) 0.7983(2)
H39 H 0.3477 0.9634 0.8336
C56 C 0.3584(10) 1.0846(5) 0.7874(2)
H40 H 0.3997 1.1358 0.8151
C57 C 0.3308(10) 1.1158(5) 0.7341(3)
H41 H 0.3553 1.1871 0.7255
C58 C 0.2687(10) 1.0404(6) 0.6964(3)
H42 H 0.2483 1.0605 0.6610
C59 C 0.2352(10) 0.9415(6) 0.7060(3)
H43 H 0.1927 0.8921 0.6777
C60 C 0.2605(9) 0.9064(5) 0.7574(3)
C61 C 0.2463(10) 0.7930(5) 0.7725(3)
H44 H 0.3453 0.7822 0.7995
H45 H 0.1245 0.7822 0.7896
C62 C 0.2633(10) 0.7091(5) 0.7269(3)
H46 H 0.3895 0.7155 0.7118
H47 H 0.1716 0.7235 0.6984
C63 C 0.2320(9) 0.5949(4) 0.7419(3)
C64 C 0.2655(11) 0.5649(5) 0.7927(3)
H48 H 0.3119 0.6161 0.8197
C65 C 0.2309(10) 0.4560(5) 0.8054(3)
H49 H 0.2512 0.4357 0.8407
C66 C 0.1682(10) 0.3823(5) 0.7653(3)
H50 H 0.1437 0.3107 0.7732
C67 C 0.1416(9) 0.4105(5) 0.7157(3)
H51 H 0.0986 0.3588 0.6884
C68 C 0.1778(10) 0.5199(5) 0.7029(3)
H52 H 0.1634 0.5387 0.6670
C69 C 0.7196(9) 0.5123(4) 0.4466(2)
N1 N 0.7090(8) 0.4044(4) 0.4454(2)
H53 H 0.8118 0.3674 0.4446
H54 H 0.5994 0.3715 0.4455
N2 N 0.8785(7) 0.5605(4) 0.44653(17)
H55 H 0.8848 0.6303 0.4454
H56 H 0.9817 0.5240 0.4476
N3 N 0.5581(8) 0.5642(4) 0.44505(19)
H57 H 0.5593 0.6340 0.4439
H58 H 0.4511 0.5285 0.4452
C70 C 0.2363(9) 0.4927(4) 0.5543(2)
N4 N 0.2438(8) 0.5952(4) 0.5544(2)
H59 H 0.3526 0.6290 0.5536
H60 H 0.1402 0.6315 0.5553
N5 N 0.0676(7) 0.4417(4) 0.55294(19)
H61 H -0.0353 0.4785 0.5522
H62 H 0.0609 0.3717 0.5529
N6 N 0.3901(7) 0.4389(4) 0.55298(19)
H63 H 0.4989 0.4726 0.5522
H64 H 0.3849 0.3689 0.5529
C71 C 0.7278(9) 0.0119(4) 0.4476(2)
N7 N 0.7192(8) -0.0960(3) 0.4487(2)
H65 H 0.8228 -0.1323 0.4490
H66 H 0.6102 -0.1295 0.4492
N8 N 0.8887(8) 0.0593(4) 0.44694(19)
H67 H 0.8964 0.1287 0.4445
H68 H 0.9911 0.0224 0.4489
N9 N 0.5691(8) 0.0647(4) 0.44468(19)
H69 H 0.5724 0.1341 0.4422
H70 H 0.4611 0.0301 0.4452
C72 C 0.2476(8) -0.0074(4) 0.5533(2)
N10 N 0.2503(8) 0.0963(4) 0.55078(19)
H71 H 0.3574 0.1312 0.5484
H72 H 0.1451 0.1310 0.5515
N11 N 0.0768(7) -0.0585(4) 0.5541(2)
H73 H 0.0697 -0.1284 0.5540
H74 H -0.0258 -0.0213 0.5547
N12 N 0.3994(7) -0.0602(4) 0.55236(19)
H75 H 0.5078 -0.0267 0.5500
H76 H 0.3948 -0.1299 0.5541
C73 C 0.7753(8) 0.4888(4) 1.0541(2)
N13 N 0.7839(6) 0.5905(4) 1.05233(19)
H77 H 0.8932 0.6239 1.0524
H78 H 0.6806 0.6268 1.0511
N14 N 0.6063(6) 0.4380(4) 1.05237(19)
H79 H 0.5037 0.4747 1.0501
H80 H 0.5990 0.3683 1.0536
N15 N 0.9303(7) 0.4340(4) 1.0560(2)
H81 H 1.0397 0.4673 1.0560
H82 H 0.9241 0.3643 1.0572
C74 C 0.2592(8) 0.5079(4) 0.9490(2)
N16 N 0.2484(8) 0.4015(4) 0.9497(2)
H83 H 0.3506 0.3640 0.9478
H84 H 0.1390 0.3690 0.9519
N17 N 0.4163(7) 0.5555(4) 0.94573(19)
H85 H 0.5192 0.5186 0.9438
H86 H 0.4223 0.6254 0.9453
N18 N 0.0952(7) 0.5606(4) 0.94816(19)
H87 H 0.0959 0.6299 0.9453
H88 H -0.0115 0.5253 0.9505
C75 C 0.2673(8) 0.0072(4) 0.9480(2)
N19 N 0.2576(8) -0.1003(4) 0.9451(2)
H89 H 0.3604 -0.1371 0.9424
H90 H 0.1485 -0.1336 0.9460
N20 N 0.4279(8) 0.0556(4) 0.9467(2)
H91 H 0.5304 0.0184 0.9440
H92 H 0.4348 0.1257 0.9486
N21 N 0.1065(7) 0.0619(4) 0.94822(18)
H93 H 0.1103 0.1317 0.9475
H94 H -0.0017 0.0276 0.9491
C76 C 0.7863(8) -0.0107(4) 1.0554(2)
N22 N 0.7905(7) 0.0922(4) 1.05620(19)
H95 H 0.8983 0.1271 1.0563
H96 H 0.6856 0.1272 1.0566
N23 N 0.6162(6) -0.0628(4) 1.05315(19)
H97 H 0.5130 -0.0263 1.0522
H98 H 0.6100 -0.1328 1.0526
N24 N 0.9406(7) -0.0648(4) 1.05476(19)
H99 H 1.0496 -0.0312 1.0548
H100 H 0.9352 -0.1349 1.0542
loop_
_geom_bond_atom_site_label_1
_geom_bond_atom_site_label_2
_geom_bond_site_symmetry_1
_geom_bond_site_symmetry_2
S1 O1 1_555 1_555
O2 S1 1_555 1_555
O3 S1 1_555 1_555
S2 O4 1_555 1_555
O5 S2 1_555 1_555
O6 S2 1_555 1_555
C1 S1 1_555 1_555
C2 C1 1_555 1_555
H1 C2 1_555 1_555
C3 C2 1_555 1_555
H2 C3 1_555 1_555
C4 C3 1_555 1_555
C5 C4 1_555 1_555
H3 C5 1_555 1_555
C6 S2 1_555 1_555
C7 C6 1_555 1_555
H4 C7 1_555 1_555
C8 C7 1_555 1_555
H5 C8 1_555 1_555
C9 C4 1_555 1_555
C10 C1 1_555 1_555
H6 C10 1_555 1_555
S3 O7 1_555 1_555
O8 S3 1_555 1_555
O9 S3 1_555 1_555
S4 O10 1_555 1_555
O11 S4 1_555 1_555
O12 S4 1_555 1_555
C11 S3 1_555 1_555
C12 C11 1_555 1_555
H7 C12 1_555 1_555
C13 C12 1_555 1_555
H8 C13 1_555 1_555
C14 C13 1_555 1_555
C15 C14 1_555 1_555
H9 C15 1_555 1_555
C16 S4 1_555 1_555
C17 C16 1_555 1_555
H10 C17 1_555 1_555
C18 C17 1_555 1_555
H11 C18 1_555 1_555
C19 C14 1_555 1_555
C20 C11 1_555 1_555
H12 C20 1_555 1_555
S5 O13 1_555 1_555
O14 S5 1_555 1_555
O15 S5 1_555 1_555
S6 O16 1_555 1_555
O17 S6 1_555 1_555
O18 S6 1_555 1_555
C21 S5 1_555 1_555
C22 C21 1_555 1_555
H13 C22 1_555 1_555
C23 C22 1_555 1_555
H14 C23 1_555 1_555
C24 C23 1_555 1_555
C25 C24 1_555 1_555
H15 C25 1_555 1_555
C26 S6 1_555 1_555
C27 C26 1_555 1_555
H16 C27 1_555 1_555
C28 C27 1_555 1_555
H17 C28 1_555 1_555
C29 C24 1_555 1_555
C30 C21 1_555 1_555
H18 C30 1_555 1_555
S7 O19 1_555 1_555
O20 S7 1_555 1_555
O21 S7 1_555 1_555
S8 O22 1_555 1_555
O23 S8 1_555 1_555
O24 S8 1_555 1_555
C31 S7 1_555 1_555
C32 C31 1_555 1_555
H19 C32 1_555 1_555
C33 C32 1_555 1_555
H20 C33 1_555 1_555
C34 C33 1_555 1_555
C35 C34 1_555 1_555
H21 C35 1_555 1_555
C36 S8 1_555 1_555
C37 C36 1_555 1_555
H22 C37 1_555 1_555
C38 C37 1_555 1_555
H23 C38 1_555 1_555
C39 C34 1_555 1_555
C40 C31 1_555 1_555
H24 C40 1_555 1_555
C41 H25 1_555 1_555
C42 C41 1_555 1_555
H26 C42 1_555 1_555
C43 C42 1_555 1_555
H27 C43 1_555 1_555
C44 C43 1_555 1_555
H28 C44 1_555 1_555
C45 C44 1_555 1_555
H29 C45 1_555 1_555
C46 C41 1_555 1_555
C47 C46 1_555 1_555
H30 C47 1_555 1_555
H31 C47 1_555 1_555
C48 C47 1_555 1_555
H32 C48 1_555 1_555
H33 C48 1_555 1_555
C49 C48 1_555 1_555
C50 C49 1_555 1_555
H34 C50 1_555 1_555
C51 C50 1_555 1_555
H35 C51 1_555 1_555
C52 C51 1_555 1_555
H36 C52 1_555 1_555
C53 C52 1_555 1_555
H37 C53 1_555 1_555
C54 C49 1_555 1_555
H38 C54 1_555 1_555
C55 H39 1_555 1_555
C56 C55 1_555 1_555
H40 C56 1_555 1_555
C57 C56 1_555 1_555
H41 C57 1_555 1_555
C58 C57 1_555 1_555
H42 C58 1_555 1_555
C59 C58 1_555 1_555
H43 C59 1_555 1_555
C60 C55 1_555 1_555
C61 C60 1_555 1_555
H44 C61 1_555 1_555
H45 C61 1_555 1_555
C62 C61 1_555 1_555
H46 C62 1_555 1_555
H47 C62 1_555 1_555
C63 C62 1_555 1_555
C64 C63 1_555 1_555
H48 C64 1_555 1_555
C65 C64 1_555 1_555
H49 C65 1_555 1_555
C66 C65 1_555 1_555
H50 C66 1_555 1_555
C67 C66 1_555 1_555
H51 C67 1_555 1_555
C68 C63 1_555 1_555
H52 C68 1_555 1_555
C69 N1 1_555 1_555
N1 H53 1_555 1_555
H54 N1 1_555 1_555
N2 C69 1_555 1_555
H55 N2 1_555 1_555
H56 N2 1_555 1_555
N3 C69 1_555 1_555
H57 N3 1_555 1_555
H58 N3 1_555 1_555
C70 N4 1_555 1_555
N4 H59 1_555 1_555
H60 N4 1_555 1_555
N5 C70 1_555 1_555
H61 N5 1_555 1_555
H62 N5 1_555 1_555
N6 C70 1_555 1_555
H63 N6 1_555 1_555
H64 N6 1_555 1_555
C71 N7 1_555 1_555
N7 H65 1_555 1_555
H66 N7 1_555 1_555
N8 C71 1_555 1_555
H67 N8 1_555 1_555
H68 N8 1_555 1_555
N9 C71 1_555 1_555
H69 N9 1_555 1_555
H70 N9 1_555 1_555
C72 N10 1_555 1_555
N10 H71 1_555 1_555
H72 N10 1_555 1_555
N11 C72 1_555 1_555
H73 N11 1_555 1_555
H74 N11 1_555 1_555
N12 C72 1_555 1_555
H75 N12 1_555 1_555
H76 N12 1_555 1_555
C73 N13 1_555 1_555
N13 H77 1_555 1_555
H78 N13 1_555 1_555
N14 C73 1_555 1_555
H79 N14 1_555 1_555
H80 N14 1_555 1_555
N15 C73 1_555 1_555
H81 N15 1_555 1_555
H82 N15 1_555 1_555
C74 N16 1_555 1_555
N16 H83 1_555 1_555
H84 N16 1_555 1_555
N17 C74 1_555 1_555
H85 N17 1_555 1_555
H86 N17 1_555 1_555
N18 C74 1_555 1_555
H87 N18 1_555 1_555
H88 N18 1_555 1_555
C75 N19 1_555 1_555
N19 H89 1_555 1_555
H90 N19 1_555 1_555
N20 C75 1_555 1_555
H91 N20 1_555 1_555
H92 N20 1_555 1_555
N21 C75 1_555 1_555
H93 N21 1_555 1_555
H94 N21 1_555 1_555
C76 N22 1_555 1_555
N22 H95 1_555 1_555
H96 N22 1_555 1_555
N23 C76 1_555 1_555
H97 N23 1_555 1_555
H98 N23 1_555 1_555
N24 C76 1_555 1_555
H99 N24 1_555 1_555
H100 N24 1_555 1_555
C5 C6 1_555 1_555
C8 C9 1_555 1_555
C9 C10 1_555 1_555
C15 C16 1_555 1_555
C18 C19 1_555 1_555
C19 C20 1_555 1_555
C25 C26 1_555 1_555
C28 C29 1_555 1_555
C29 C30 1_555 1_555
C35 C36 1_555 1_555
C38 C39 1_555 1_555
C39 C40 1_555 1_555
C45 C46 1_555 1_555
C53 C54 1_555 1_555
C59 C60 1_555 1_555
C67 C68 1_555 1_555

#END
