
#######################################################################
#
#                 Cambridge Crystallographic Data Centre
#                                CCDC 
#
#######################################################################
#
# If this CIF has been generated from an entry in the Cambridge 
# Structural Database, then it will include bibliographic, chemical, 
# crystal, experimental, refinement or atomic coordinate data resulting 
# from the CCDC's data processing and validation procedures.
#
#######################################################################

data_APOSII
_chemical_formula_moiety         '2(C1 H6 N3 1+),C14 H12 O8 S2 2-,C14 H14'
_chemical_name_systematic        
'bis(Guanidinium) 1,2-bis(4-sulfonatophenoxy)ethane 1,2-diphenylethane clathrate'
_symmetry_cell_setting           triclinic
_symmetry_space_group_name_H-M   'P -1'
_symmetry_Int_Tables_number      2
_space_group_name_Hall           '-P 1'
loop_
_symmetry_equiv_pos_site_id
_symmetry_equiv_pos_as_xyz
1 x,y,z
2 -x,-y,-z
_cell_length_a                   6.1532(8)
_cell_length_b                   7.2222(10)
_cell_length_c                   18.283(2)
_cell_angle_alpha                95.493(2)
_cell_angle_beta                 98.852(2)
_cell_angle_gamma                92.424(2)
_cell_volume                     797.782
_exptl_crystal_colour            colorless
_exptl_crystal_description       plate
_cell_formula_units_Z            1
_exptl_crystal_recrystallization_method methanol
loop_
_atom_site_label
_atom_site_type_symbol
_atom_site_fract_x
_atom_site_fract_y
_atom_site_fract_z
S1 S 0.79272(5) 0.74152(5) 0.387425(18)
C2 C 1.0002(2) 0.7145(2) 0.26504(8)
H1 H 1.1179 0.7871 0.2959
C3 C 0.8123(2) 0.66578(19) 0.29378(8)
C4 C 0.8447(2) 0.5504(2) 0.14717(8)
C5 C 0.6412(2) 0.5561(2) 0.24936(8)
H2 H 0.5133 0.5216 0.2692
C6 C 0.6581(3) 0.4976(2) 0.17624(8)
H3 H 0.5424 0.4215 0.1459
C7 C 1.0175(2) 0.6577(2) 0.19146(8)
H4 H 1.1457 0.6918 0.1717
C8 C 1.0267(3) 0.5417(2) 0.04017(8)
H5 H 1.1633 0.4926 0.0652
H6 H 1.0464 0.6791 0.0432
O1 O 0.55822(16) 0.72998(14) 0.39300(6)
O2 O 0.88630(17) 0.93290(14) 0.40098(6)
O3 O 0.84261(19) 0.48787(16) 0.07367(6)
O4 O 0.91685(18) 0.61617(15) 0.43342(6)
S1A S 1.20728(5) 0.25848(5) -0.387425(18)
C2A C 0.9998(2) 0.2855(2) -0.26504(8)
H1A H 0.8821 0.2129 -0.2959
C3A C 1.1877(2) 0.33422(19) -0.29378(8)
C4A C 1.1553(2) 0.4496(2) -0.14717(8)
C5A C 1.3588(2) 0.4439(2) -0.24936(8)
H2A H 1.4867 0.4784 -0.2692
C6A C 1.3419(3) 0.5024(2) -0.17624(8)
H3A H 1.4576 0.5785 -0.1459
C7A C 0.9825(2) 0.3423(2) -0.19146(8)
H4A H 0.8543 0.3082 -0.1717
C8A C 0.9733(3) 0.4583(2) -0.04017(8)
H5A H 0.8367 0.5074 -0.0652
H6A H 0.9536 0.3209 -0.0432
O1A O 1.44178(16) 0.27002(14) -0.39300(6)
O2A O 1.11370(17) 0.06710(14) -0.40098(6)
O3A O 1.15739(19) 0.51213(16) -0.07367(6)
O4A O 1.08315(18) 0.38383(15) -0.43342(6)
C1 C 0.4337(2) 0.2436(2) 0.42628(8)
N1 N 0.3175(2) 0.39458(18) 0.42451(7)
H14 H 0.3834 0.5043 0.4228
H15 H 0.1747 0.3848 0.4250
N2 N 0.3377(2) 0.07657(18) 0.42753(7)
H16 H 0.4165 -0.0223 0.4278
H17 H 0.1951 0.0644 0.4281
N3 N 0.6479(2) 0.26026(18) 0.42547(8)
H18 H 0.7258 0.1608 0.4258
H19 H 0.7128 0.3708 0.4246
C9 C 0.1323(3) 0.1493(2) 0.16183(10)
H7 H -0.0047 0.2055 0.1613
C10 C 0.5280(3) -0.0166(2) 0.16238(10)
H8 H 0.6645 -0.0738 0.1633
C11 C 0.3953(3) -0.0040(2) 0.09460(9)
C12 C 0.2672(3) 0.1356(2) 0.22854(10)
H9 H 0.2240 0.1830 0.2741
C13 C 0.1971(3) 0.0810(2) 0.09561(9)
H10 H 0.1041 0.0925 0.0499
C14 C 0.4643(3) 0.0529(3) 0.22868(10)
H11 H 0.5575 0.0434 0.2745
C15 C 0.4653(4) -0.0769(2) 0.02215(10)
H12 H 0.3416 -0.1544 -0.0085
H13 H 0.5899 -0.1578 0.0328
C9A C 0.8677(3) -0.1493(2) -0.16183(10)
H7A H 1.0047 -0.2055 -0.1613
C10A C 0.4720(3) 0.0166(2) -0.16238(10)
H8A H 0.3355 0.0738 -0.1633
C11A C 0.6047(3) 0.0040(2) -0.09460(9)
C12A C 0.7328(3) -0.1356(2) -0.22854(10)
H9A H 0.7760 -0.1830 -0.2741
C13A C 0.8029(3) -0.0810(2) -0.09561(9)
H10A H 0.8959 -0.0925 -0.0499
C14A C 0.5357(3) -0.0529(3) -0.22868(10)
H11A H 0.4425 -0.0434 -0.2745
C15A C 0.5347(4) 0.0769(2) -0.02215(10)
H12A H 0.6584 0.1544 0.0085
H13A H 0.4101 0.1578 -0.0328
loop_
_geom_bond_atom_site_label_1
_geom_bond_atom_site_label_2
_geom_bond_site_symmetry_1
_geom_bond_site_symmetry_2
S1 C3 1_555 1_555
C1 N1 1_555 1_555
C2 H1 1_555 1_555
C3 C2 1_555 1_555
C4 C6 1_555 1_555
C5 C3 1_555 1_555
H2 C5 1_555 1_555
C6 C5 1_555 1_555
H3 C6 1_555 1_555
C7 C2 1_555 1_555
H4 C7 1_555 1_555
C8 H5 1_555 1_555
H6 C8 1_555 1_555
C9 H7 1_555 1_555
C10 H8 1_555 1_555
C11 C10 1_555 1_555
C12 C9 1_555 1_555
H9 C12 1_555 1_555
C13 C9 1_555 1_555
H10 C13 1_555 1_555
C14 C10 1_555 1_555
H11 C14 1_555 1_555
C15 C11 1_555 1_555
H12 C15 1_555 1_555
H13 C15 1_555 1_555
N1 H14 1_555 1_555
H15 N1 1_555 1_555
N2 C1 1_555 1_555
H16 N2 1_555 1_555
H17 N2 1_555 1_555
N3 C1 1_555 1_555
H18 N3 1_555 1_555
H19 N3 1_555 1_555
O1 S1 1_555 1_555
O2 S1 1_555 1_555
O3 C4 1_555 1_555
O4 S1 1_555 1_555
S1A C3A 1_555 1_555
C2A H1A 1_555 1_555
C3A C2A 1_555 1_555
C4A C6A 1_555 1_555
C5A C3A 1_555 1_555
H2A C5A 1_555 1_555
C6A C5A 1_555 1_555
H3A C6A 1_555 1_555
C7A C2A 1_555 1_555
H4A C7A 1_555 1_555
C8A C8 1_555 1_555
H5A C8A 1_555 1_555
H6A C8A 1_555 1_555
C9A H7A 1_555 1_555
C10A H8A 1_555 1_555
C11A C10A 1_555 1_555
C12A C9A 1_555 1_555
H9A C12A 1_555 1_555
C13A C9A 1_555 1_555
H10A C13A 1_555 1_555
C14A C10A 1_555 1_555
H11A C14A 1_555 1_555
C15A C15 1_555 1_555
H12A C15A 1_555 1_555
H13A C15A 1_555 1_555
O1A S1A 1_555 1_555
O2A S1A 1_555 1_555
O3A C4A 1_555 1_555
O4A S1A 1_555 1_555
C4 C7 1_555 1_555
C8 O3 1_555 1_555
C11 C13 1_555 1_555
C12 C14 1_555 1_555
C4A C7A 1_555 1_555
C8A O3A 1_555 1_555
C11A C13A 1_555 1_555
C11A C15A 1_555 1_555
C12A C14A 1_555 1_555

#END
