
#######################################################################
#
#                 Cambridge Crystallographic Data Centre
#                                CCDC 
#
#######################################################################
#
# If this CIF has been generated from an entry in the Cambridge 
# Structural Database, then it will include bibliographic, chemical, 
# crystal, experimental, refinement or atomic coordinate data resulting 
# from the CCDC's data processing and validation procedures.
#
#######################################################################

data_APOZEK
_chemical_formula_moiety         'C39 H58 Br1 O10 P1'
_chemical_name_systematic        
Spiro(1(S)-bromo-4-(l-(1R,2S,5R)-menthyloxy)-3-oxa-2-oxobicyclo(3.1.0)hexane-6,2'-(3'-(\a-(R)-diethylphosphonylbenzyloxy)-4'-(l-(1R,2S,5R)menthyloxy)butyrolactone))
_symmetry_cell_setting           monoclinic
_symmetry_space_group_name_H-M   'P 21'
_symmetry_Int_Tables_number      4
_space_group_name_Hall           'P 2yb'
loop_
_symmetry_equiv_pos_site_id
_symmetry_equiv_pos_as_xyz
1 x,y,z
2 -x,1/2+y,-z
_cell_length_a                   12.858(3)
_cell_length_b                   25.130(5)
_cell_length_c                   14.125(3)
_cell_angle_alpha                90
_cell_angle_beta                 105.15(3)
_cell_angle_gamma                90
_cell_volume                     4405.47
_chemical_melting_point          '50-52 deg.C'
_cell_formula_units_Z            4
loop_
_atom_site_label
_atom_site_type_symbol
_atom_site_fract_x
_atom_site_fract_y
_atom_site_fract_z
Br1 Br 0.1580(1) -0.1577(1) 0.3608(1)
P1 P -0.3715(2) -0.0887(1) 0.4666(2)
O1 O 0.0780(4) -0.1661(3) 0.6478(4)
O2 O -0.0256(5) -0.2274(3) 0.5401(5)
O3 O -0.0226(6) -0.2473(3) 0.3861(5)
O4 O -0.1601(5) -0.0685(3) 0.2145(4)
O5 O -0.0634(5) -0.0461(3) 0.3705(5)
O6 O 0.1150(6) -0.0408(3) 0.4413(5)
O7 O -0.1885(4) -0.1364(2) 0.5013(4)
O8 O -0.3688(6) -0.0718(3) 0.3688(5)
O9 O -0.4310(6) -0.1418(3) 0.4693(5)
O10 O -0.4222(7) -0.0494(4) 0.5263(7)
C1 C 0.4183(10) -0.1519(10) 0.7194(12)
C2 C 0.0725(13) -0.2506(7) 0.9660(10)
C3 C -0.2675(8) -0.0462(4) 0.1734(7)
C4 C -0.2567(10) -0.0070(5) 0.0915(8)
C5 C -0.3739(10) 0.0112(6) 0.0365(9)
C6 C -0.4494(13) -0.0244(7) 0.0002(11)
C7 C -0.4578(9) -0.0721(5) 0.0817(11)
C8 C -0.3446(8) -0.0900(4) 0.1356(8)
C9 C -0.1804(12) 0.0397(6) 0.1302(11)
C10 C -0.2211(13) 0.0787(6) 0.1974(13)
C11 C -0.1530(14) 0.0708(7) 0.0453(14)
C12 C -0.5327(11) -0.1190(6) 0.0460(13)
C22 C -0.0247(8) -0.1797(4) 0.5960(7)
C23 C -0.0725(7) -0.1351(4) 0.5236(7)
C24 C -0.0418(7) -0.1555(4) 0.4324(7)
C25 C -0.0286(8) -0.2152(4) 0.4461(10)
C26 C -0.1427(8) -0.0843(4) 0.3121(6)
C27 C -0.0818(7) -0.1364(3) 0.3295(5)
C28 C 0.0307(7) -0.1248(4) 0.3830(7)
C29 C 0.0393(9) -0.0671(4) 0.4023(6)
C30 C -0.2378(7) -0.0957(4) 0.5480(7)
C31 C -0.2342(8) -0.1083(4) 0.6555(8)
C32 C -0.2008(14) -0.0688(6) 0.7233(11)
C33 C -0.2020(17) -0.0798(9) 0.8181(12)
C34 C -0.2357(17) -0.1287(9) 0.8442(12)
C35 C -0.2628(10) -0.1673(7) 0.7785(12)
C36 C -0.2616(8) -0.1563(5) 0.6817(7)
C37 C -0.5361(21) -0.0383(8) 0.5201(16)
C38 C -0.5921(21) -0.0308(10) 0.4347(18)
C39 C -0.4457(12) -0.1826(6) 0.3960(12)
C40 C -0.5526(15) -0.2006(10) 0.3645(17)
C41 C 0.1314(8) -0.2032(4) 0.7232(7)
C42 C 0.2466(9) -0.1847(5) 0.7621(10)
C43 C 0.3031(9) -0.2249(7) 0.8441(11)
C44 C 0.2492(12) -0.2262(7) 0.9238(10)
C45 C 0.1302(10) -0.2454(5) 0.8855(9)
C46 C 0.0754(8) -0.2061(5) 0.8057(8)
C47 C 0.3098(12) -0.1797(7) 0.6777(14)
C48 C 0.3132(17) -0.2328(12) 0.6220(15)
Br2 Br 0.4023(1) 0.1925(1) 0.3836(1)
P2 P 0.0435(3) 0.0386(1) 0.6180(2)
O11 O 0.3219(5) 0.2060(3) 0.6689(5)
O12 O 0.3242(6) 0.1216(3) 0.6111(6)
O13 O 0.4465(6) 0.0919(3) 0.5318(6)
O14 O 0.1817(5) 0.0548(3) 0.2991(4)
O15 O 0.0768(5) 0.1322(3) 0.2722(5)
O16 O 0.1405(6) 0.2151(3) 0.2934(5)
O17 O 0.0611(5) 0.1117(2) 0.4793(5)
C13 C 0.2599(8) 0.1689(4) 0.6079(7)
C14 C 0.2405(7) 0.1885(4) 0.5053(7)
C15 C 0.3175(7) 0.1603(4) 0.4618(8)
C16 C 0.3727(9) 0.1207(4) 0.5390(12)
C17 C 0.0992(8) 0.0814(4) 0.3250(7)
C18 C 0.1425(8) 0.0974(4) 0.4345(7)
C19 C 0.1984(7) 0.1494(4) 0.4225(6)
C20 C 0.1394(9) 0.1724(5) 0.3256(8)
C21 C 0.3317(9) 0.1962(5) 0.7731(8)
O18 O -0.0169(6) -0.0093(3) 0.6274(5)
O19 O 0.0484(7) 0.0837(4) 0.6955(6)
O20 O 0.1663(5) 0.0301(3) 0.6246(5)
C49 C 0.4491(11) 0.2056(6) 0.8300(8)
C50 C 0.4516(14) 0.2029(8) 0.9429(10)
C51 C 0.3744(18) 0.2417(8) 0.9747(12)
C52 C 0.2629(15) 0.2317(6) 0.9156(9)
C53 C 0.2572(12) 0.2345(6) 0.8051(8)
C54 C 0.5273(13) 0.1689(8) 0.7954(11)
C55 C 0.6453(11) 0.1873(9) 0.8372(12)
C56 C 0.5158(14) 0.1070(7) 0.8214(15)
C57 C 0.1795(17) 0.2693(9) 0.9438(12)
C58 C 0.1582(10) 0.0360(5) 0.1977(8)
C59 C 0.2641(13) 0.0354(6) 0.1685(10)
C60 C 0.2419(14) 0.0146(7) 0.0616(11)
C61 C 0.1962(15) -0.0405(8) 0.0548(10)
C62 C 0.0920(12) -0.0425(6) 0.0861(9)
C63 C 0.1122(10) -0.0201(5) 0.1918(7)
C64 C 0.3161(16) 0.0899(9) 0.1800(13)
C65 C 0.2530(21) 0.1346(8) 0.1140(13)
C66 C 0.4324(18) 0.0892(10) 0.1732(16)
C67 C 0.0376(13) -0.0979(7) 0.0805(10)
C68 C -0.0065(7) 0.0694(4) 0.5002(7)
C69 C -0.1170(8) 0.0926(4) 0.4949(8)
C70 C -0.1256(11) 0.1447(6) 0.5291(11)
C71 C -0.2225(14) 0.1644(6) 0.5372(14)
C72 C -0.3127(15) 0.1331(8) 0.5144(20)
C73 C -0.3053(12) 0.0839(7) 0.4831(15)
C74 C -0.2066(9) 0.0614(5) 0.4712(10)
C75 C -0.0282(17) 0.0848(8) 0.7503(14)
C76 C -0.0121(17) 0.1248(11) 0.8206(17)
C77 C 0.2287(13) -0.0107(8) 0.6835(12)
C78 C 0.2585(19) -0.0074(10) 0.7775(14)
loop_
_geom_bond_atom_site_label_1
_geom_bond_atom_site_label_2
_geom_bond_site_symmetry_1
_geom_bond_site_symmetry_2
Br1 C28 1_555 1_555
Br2 C15 1_555 1_555
P1 O8 1_555 1_555
P2 O18 1_555 1_555
O1 C22 1_555 1_555
O2 C22 1_555 1_555
O3 C25 1_555 1_555
O4 C3 1_555 1_555
O5 C26 1_555 1_555
O6 C29 1_555 1_555
O7 C23 1_555 1_555
O9 P1 1_555 1_555
O10 P1 1_555 1_555
O11 C13 1_555 1_555
O12 C13 1_555 1_555
O13 C16 1_555 1_555
O14 C17 1_555 1_555
O15 C17 1_555 1_555
O16 C20 1_555 1_555
O17 C18 1_555 1_555
C1 C47 1_555 1_555
C2 C45 1_555 1_555
C3 C4 1_555 1_555
C4 C5 1_555 1_555
C5 C6 1_555 1_555
C6 C7 1_555 1_555
C7 C8 1_555 1_555
C8 C3 1_555 1_555
C9 C4 1_555 1_555
C10 C9 1_555 1_555
C11 C9 1_555 1_555
C12 C7 1_555 1_555
C13 C14 1_555 1_555
C14 C15 1_555 1_555
C15 C16 1_555 1_555
C16 O12 1_555 1_555
C17 C18 1_555 1_555
C18 C19 1_555 1_555
C19 C14 1_555 1_555
C20 O15 1_555 1_555
C21 O11 1_555 1_555
O19 P2 1_555 1_555
O20 P2 1_555 1_555
C22 C23 1_555 1_555
C23 C24 1_555 1_555
C24 C25 1_555 1_555
C25 O2 1_555 1_555
C26 O4 1_555 1_555
C27 C24 1_555 1_555
C28 C24 1_555 1_555
C29 O5 1_555 1_555
C30 P1 1_555 1_555
C31 C30 1_555 1_555
C32 C31 1_555 1_555
C33 C32 1_555 1_555
C34 C33 1_555 1_555
C35 C34 1_555 1_555
C36 C31 1_555 1_555
C37 O10 1_555 1_555
C38 C37 1_555 1_555
C39 O9 1_555 1_555
C40 C39 1_555 1_555
C41 O1 1_555 1_555
C42 C41 1_555 1_555
C43 C42 1_555 1_555
C44 C43 1_555 1_555
C45 C44 1_555 1_555
C46 C41 1_555 1_555
C47 C42 1_555 1_555
C48 C47 1_555 1_555
C49 C21 1_555 1_555
C50 C49 1_555 1_555
C51 C50 1_555 1_555
C52 C51 1_555 1_555
C53 C21 1_555 1_555
C54 C49 1_555 1_555
C55 C54 1_555 1_555
C56 C54 1_555 1_555
C57 C52 1_555 1_555
C58 O14 1_555 1_555
C59 C58 1_555 1_555
C60 C59 1_555 1_555
C61 C60 1_555 1_555
C62 C61 1_555 1_555
C63 C58 1_555 1_555
C64 C59 1_555 1_555
C65 C64 1_555 1_555
C66 C64 1_555 1_555
C67 C62 1_555 1_555
C68 P2 1_555 1_555
C69 C68 1_555 1_555
C70 C69 1_555 1_555
C71 C70 1_555 1_555
C72 C71 1_555 1_555
C73 C72 1_555 1_555
C74 C69 1_555 1_555
C75 O19 1_555 1_555
C76 C75 1_555 1_555
C77 O20 1_555 1_555
C78 C77 1_555 1_555
O7 C30 1_555 1_555
O17 C68 1_555 1_555
C15 C19 1_555 1_555
C19 C20 1_555 1_555
C26 C27 1_555 1_555
C27 C28 1_555 1_555
C28 C29 1_555 1_555
C35 C36 1_555 1_555
C45 C46 1_555 1_555
C52 C53 1_555 1_555
C62 C63 1_555 1_555
C73 C74 1_555 1_555

#END
