
#######################################################################
#
#                 Cambridge Crystallographic Data Centre
#                                CCDC 
#
#######################################################################
#
# If this CIF has been generated from an entry in the Cambridge 
# Structural Database, then it will include bibliographic, chemical, 
# crystal, experimental, refinement or atomic coordinate data resulting 
# from the CCDC's data processing and validation procedures.
#
#######################################################################

data_APULOM
_chemical_formula_moiety         'C19 H19 O1 S1 1+,Cl1 O4 1-'
_chemical_name_systematic        
'1-(Phenoxathiinium-10-yl)cycloheptene perchlorate'
_symmetry_cell_setting           triclinic
_symmetry_space_group_name_H-M   'P -1'
_symmetry_Int_Tables_number      2
_space_group_name_Hall           '-P 1'
loop_
_symmetry_equiv_pos_site_id
_symmetry_equiv_pos_as_xyz
1 x,y,z
2 -x,-y,-z
_cell_length_a                   7.4800(15)
_cell_length_b                   10.651(2)
_cell_length_c                   12.722(3)
_cell_angle_alpha                66.52(3)
_cell_angle_beta                 83.04(3)
_cell_angle_gamma                77.92(3)
_cell_volume                     908.239
_exptl_crystal_colour            colorless
_exptl_crystal_description       'thin plate'
_chemical_melting_point          '155-156 deg.C'
_cell_formula_units_Z            2
loop_
_atom_site_label
_atom_site_type_symbol
_atom_site_fract_x
_atom_site_fract_y
_atom_site_fract_z
S1 S 0.30049(14) 0.97713(10) 0.83588(8)
O1 O 0.4326(4) 0.6638(3) 0.8733(3)
C1 C 0.2187(5) 0.8763(4) 0.7757(3)
C2 C 0.0689(6) 0.9405(5) 0.7054(4)
H1 H 0.0217 1.0344 0.6867
C3 C -0.0078(7) 0.8634(5) 0.6645(4)
H2 H -0.1063 0.9053 0.6167
C4 C 0.0619(7) 0.7225(5) 0.6944(4)
H3 H 0.0086 0.6703 0.6674
C5 C 0.2087(6) 0.6598(5) 0.7635(4)
H4 H 0.2545 0.5655 0.7833
C6 C 0.2883(6) 0.7372(4) 0.8037(4)
C7 C 0.5505(6) 0.7317(4) 0.8970(3)
C8 C 0.7138(6) 0.6490(5) 0.9432(4)
H5 H 0.7395 0.5556 0.9535
C9 C 0.8376(6) 0.7065(5) 0.9737(4)
H6 H 0.9457 0.6507 1.0065
C10 C 0.8035(6) 0.8455(5) 0.9561(4)
H7 H 0.8898 0.8834 0.9753
C11 C 0.6424(6) 0.9280(4) 0.9104(3)
H8 H 0.6190 1.0218 0.8983
C12 C 0.5140(5) 0.8699(4) 0.8822(3)
C13 C 0.3552(5) 1.1236(4) 0.7141(3)
C14 C 0.4986(7) 1.1001(5) 0.6269(4)
H9 H 0.6089 1.1280 0.6366
H10 H 0.5274 1.0012 0.6433
C15 C 0.4493(9) 1.1740(5) 0.5058(4)
H11 H 0.5475 1.1425 0.4600
H12 H 0.3414 1.1423 0.4972
C16 C 0.4122(8) 1.3265(5) 0.4534(4)
H13 H 0.3926 1.3549 0.3726
H14 H 0.5200 1.3603 0.4589
C17 C 0.2485(8) 1.3966(5) 0.5059(4)
H15 H 0.2240 1.4947 0.4573
H16 H 0.1425 1.3577 0.5055
C18 C 0.2703(8) 1.3825(4) 0.6277(4)
H17 H 0.3864 1.4077 0.6306
H18 H 0.1742 1.4485 0.6457
C19 C 0.2639(6) 1.2420(4) 0.7173(3)
H19 H 0.1881 1.2370 0.7819
Cl1 Cl 1.23866(15) 0.69388(11) 1.18314(9)
O2 O 1.4309(5) 0.6521(5) 1.1807(4)
O3 O 1.1859(6) 0.7995(5) 1.0786(4)
O4 O 1.1916(7) 0.7437(5) 1.2738(4)
O5 O 1.1459(6) 0.5819(4) 1.2078(3)
loop_
_geom_bond_atom_site_label_1
_geom_bond_atom_site_label_2
_geom_bond_site_symmetry_1
_geom_bond_site_symmetry_2
S1 C1 1_555 1_555
O1 C6 1_555 1_555
C1 C2 1_555 1_555
C2 H1 1_555 1_555
C3 C2 1_555 1_555
H2 C3 1_555 1_555
C4 C3 1_555 1_555
H3 C4 1_555 1_555
C5 C4 1_555 1_555
H4 C5 1_555 1_555
C6 C1 1_555 1_555
C7 O1 1_555 1_555
C8 C7 1_555 1_555
H5 C8 1_555 1_555
C9 C8 1_555 1_555
H6 C9 1_555 1_555
C10 C9 1_555 1_555
H7 C10 1_555 1_555
C11 C10 1_555 1_555
H8 C11 1_555 1_555
C12 S1 1_555 1_555
C13 S1 1_555 1_555
C14 C13 1_555 1_555
H9 C14 1_555 1_555
H10 C14 1_555 1_555
C15 C14 1_555 1_555
H11 C15 1_555 1_555
H12 C15 1_555 1_555
C16 C15 1_555 1_555
H13 C16 1_555 1_555
H14 C16 1_555 1_555
C17 C16 1_555 1_555
H15 C17 1_555 1_555
H16 C17 1_555 1_555
C18 C17 1_555 1_555
H17 C18 1_555 1_555
H18 C18 1_555 1_555
C19 C13 1_555 1_555
H19 C19 1_555 1_555
Cl1 O2 1_555 1_555
O3 Cl1 1_555 1_555
O4 Cl1 1_555 1_555
O5 Cl1 1_555 1_555
C5 C6 1_555 1_555
C7 C12 1_555 1_555
C11 C12 1_555 1_555
C18 C19 1_555 1_555

#END
