
#######################################################################
#
#                 Cambridge Crystallographic Data Centre
#                                CCDC 
#
#######################################################################
#
# If this CIF has been generated from an entry in the Cambridge 
# Structural Database, then it will include bibliographic, chemical, 
# crystal, experimental, refinement or atomic coordinate data resulting 
# from the CCDC's data processing and validation procedures.
#
#######################################################################

data_APUSAH
_chemical_formula_moiety         'C8 H9 F4 N3 O1'
_chemical_name_systematic        
N,N-dimethyl-3-(1,2,2,2-tetrafluoroethyl)-1H-pyrazole-5-carboxamide
_symmetry_cell_setting           monoclinic
_symmetry_space_group_name_H-M   'P 21/c'
_symmetry_Int_Tables_number      14
_space_group_name_Hall           '-P 2ybc'
loop_
_symmetry_equiv_pos_site_id
_symmetry_equiv_pos_as_xyz
1 x,y,z
2 -x,1/2+y,1/2-z
3 -x,-y,-z
4 x,1/2-y,1/2+z
_cell_length_a                   5.9791(17)
_cell_length_b                   6.0771(14)
_cell_length_c                   28.636(5)
_cell_angle_alpha                90
_cell_angle_beta                 92.351(19)
_cell_angle_gamma                90
_cell_volume                     1039.63
_cell_formula_units_Z            4
loop_
_atom_site_label
_atom_site_type_symbol
_atom_site_fract_x
_atom_site_fract_y
_atom_site_fract_z
F1 F -0.0950(8) -0.0258(5) 0.06637(11)
F2 F -0.4644(4) 0.2647(6) 0.06116(9)
F3 F -0.3272(5) 0.1937(5) -0.00433(7)
F4 F -0.2632(7) 0.4981(5) 0.03009(10)
O1 O 0.0738(4) 0.7494(3) 0.22867(6)
N1 N -0.0233(4) 0.3767(4) 0.17937(7)
H1 H -0.0491 0.3665 0.2086
N2 N -0.0983(5) 0.2311(4) 0.14710(8)
C1 C -0.0285(5) 0.3087(5) 0.10760(9)
C2 C 0.0945(5) 0.5002(5) 0.11373(9)
H2 H 0.1615 0.5841 0.0910
C3 C 0.0950(4) 0.5380(4) 0.16127(7)
N3 N 0.3624(4) 0.8271(4) 0.18339(8)
C4 C 0.1810(4) 0.7149(4) 0.19316(8)
C5 C 0.5075(6) 0.7742(7) 0.14502(14)
H3 H 0.4810 0.6252 0.1351
H4 H 0.6613 0.7904 0.1555
H5 H 0.4755 0.8722 0.1193
C6 C 0.4296(6) 1.0136(6) 0.21293(13)
H6 H 0.3161 1.0419 0.2349
H7 H 0.4487 1.1413 0.1938
H8 H 0.5683 0.9801 0.2295
C7 C -0.0962(6) 0.2034(5) 0.06243(11)
C8 C -0.2793(7) 0.2817(7) 0.03699(12)
F5? F 0.0869(6) 0.1774(13) 0.03412(17)
loop_
_geom_bond_atom_site_label_1
_geom_bond_atom_site_label_2
_geom_bond_site_symmetry_1
_geom_bond_site_symmetry_2
F1 C7 1_555 1_555
F2 C8 1_555 1_555
F3 C8 1_555 1_555
F4 C8 1_555 1_555
O1 C4 1_555 1_555
N1 H1 1_555 1_555
N2 N1 1_555 1_555
C1 N2 1_555 1_555
C2 C1 1_555 1_555
H2 C2 1_555 1_555
C3 N1 1_555 1_555
N3 C4 1_555 1_555
C4 C3 1_555 1_555
C5 N3 1_555 1_555
H3 C5 1_555 1_555
H4 C5 1_555 1_555
H5 C5 1_555 1_555
C6 N3 1_555 1_555
H6 C6 1_555 1_555
H7 C6 1_555 1_555
H8 C6 1_555 1_555
C7 C1 1_555 1_555
C8 C7 1_555 1_555
C2 C3 1_555 1_555

#END
