
#######################################################################
#
#                 Cambridge Crystallographic Data Centre
#                                CCDC 
#
#######################################################################
#
# If this CIF has been generated from an entry in the Cambridge 
# Structural Database, then it will include bibliographic, chemical, 
# crystal, experimental, refinement or atomic coordinate data resulting 
# from the CCDC's data processing and validation procedures.
#
#######################################################################

data_AQALUB
_chemical_formula_moiety         'C21 H19 N1 O4'
_chemical_name_systematic        
'ethyl 2-benzyl-4-(3-hydroxy-2-oxo-2,3-dihydro-1H-indol-3-yl)buta-2,3-dienoate unknown solvate'
_symmetry_cell_setting           orthorhombic
_symmetry_space_group_name_H-M   'P 21 21 21'
_symmetry_Int_Tables_number      19
_space_group_name_Hall           'P 2ac 2ab'
loop_
_symmetry_equiv_pos_site_id
_symmetry_equiv_pos_as_xyz
1 x,y,z
2 1/2-x,-y,1/2+z
3 1/2+x,1/2-y,-z
4 -x,1/2+y,1/2-z
_cell_length_a                   7.32516(19)
_cell_length_b                   13.4286(3)
_cell_length_c                   19.6168(6)
_cell_angle_alpha                90
_cell_angle_beta                 90
_cell_angle_gamma                90
_cell_volume                     1929.64
_exptl_crystal_colour            colorless
_cell_formula_units_Z            4
loop_
_atom_site_label
_atom_site_type_symbol
_atom_site_fract_x
_atom_site_fract_y
_atom_site_fract_z
O1 O -0.7054(3) -0.44932(13) -0.34297(9)
O2 O -0.1718(2) -0.72966(13) -0.50748(9)
O3 O -0.9574(3) -0.45796(14) -0.40697(11)
O4 O -0.4316(2) -0.72947(13) -0.38849(9)
H1 H -0.4907 -0.7333 -0.4239
N1 N 0.0165(3) -0.71758(15) -0.41469(11)
H2 H 0.1145 -0.7404 -0.4331
C1 C -0.5095(4) -0.53889(17) -0.44001(13)
C2 C -0.6772(3) -0.51267(17) -0.45376(13)
C3 C 0.1373(4) -0.68669(19) -0.29721(14)
H3 H 0.2554 -0.7078 -0.3068
C4 C -0.7964(3) -0.47054(17) -0.39951(14)
C5 C -0.2847(3) -0.66330(18) -0.39776(13)
C6 C -0.3424(3) -0.56161(18) -0.42417(12)
H4 H -0.2531 -0.5129 -0.4293
C7 C 0.0041(3) -0.68683(18) -0.34613(13)
C8 C -0.1418(3) -0.70710(17) -0.44756(13)
C9 C -0.8028(4) -0.41511(18) -0.55246(13)
C10 C -0.1733(4) -0.65491(17) -0.33296(13)
C11 C -0.9658(4) -0.3948(2) -0.58421(14)
H5 H -1.0521 -0.4452 -0.5888
C12 C -0.6759(4) -0.33895(19) -0.54613(14)
H6 H -0.5646 -0.3514 -0.5249
C13 C -0.0872(4) -0.6213(2) -0.21850(14)
H7 H -0.1164 -0.5994 -0.1749
C14 C 0.0882(4) -0.6535(2) -0.23227(14)
H8 H 0.1750 -0.6530 -0.1977
C15 C -0.8775(5) -0.2255(2) -0.60304(14)
H9 H -0.9023 -0.1623 -0.6200
C16 C -0.2208(4) -0.62133(19) -0.26887(14)
H10 H -0.3386 -0.5994 -0.2597
C17 C -1.0045(4) -0.3005(2) -0.60972(15)
H11 H -1.1155 -0.2881 -0.6311
C18 C -0.7601(4) -0.51844(19) -0.52460(14)
H12 H -0.8715 -0.5574 -0.5229
H13 H -0.6756 -0.5519 -0.5550
C19 C -0.7133(4) -0.2443(2) -0.57113(14)
H14 H -0.6276 -0.1937 -0.5663
C20 C -0.8129(5) -0.4086(2) -0.28715(15)
H15 H -0.9177 -0.4508 -0.2781
H16 H -0.8561 -0.3424 -0.2985
C21 C -0.6911(7) -0.4047(3) -0.22632(17)
H17 H -0.5879 -0.3630 -0.2360
H18 H -0.6497 -0.4707 -0.2155
H19 H -0.7574 -0.3780 -0.1883
loop_
_geom_bond_atom_site_label_1
_geom_bond_atom_site_label_2
_geom_bond_site_symmetry_1
_geom_bond_site_symmetry_2
O1 C4 1_555 1_555
O2 C8 1_555 1_555
O3 C4 1_555 1_555
O4 H1 1_555 1_555
N1 H2 1_555 1_555
C1 C2 1_555 1_555
C2 C4 1_555 1_555
C3 H3 1_555 1_555
C5 O4 1_555 1_555
C6 C1 1_555 1_555
H4 C6 1_555 1_555
C7 N1 1_555 1_555
C8 N1 1_555 1_555
C9 C11 1_555 1_555
C10 C5 1_555 1_555
C11 H5 1_555 1_555
C12 C9 1_555 1_555
H6 C12 1_555 1_555
C13 H7 1_555 1_555
C14 C3 1_555 1_555
H8 C14 1_555 1_555
C15 H9 1_555 1_555
C16 C10 1_555 1_555
H10 C16 1_555 1_555
C17 C11 1_555 1_555
H11 C17 1_555 1_555
C18 C2 1_555 1_555
H12 C18 1_555 1_555
H13 C18 1_555 1_555
C19 C12 1_555 1_555
H14 C19 1_555 1_555
C20 O1 1_555 1_555
H15 C20 1_555 1_555
H16 C20 1_555 1_555
C21 C20 1_555 1_555
H17 C21 1_555 1_555
H18 C21 1_555 1_555
H19 C21 1_555 1_555
C3 C7 1_555 1_555
C5 C6 1_555 1_555
C5 C8 1_555 1_555
C7 C10 1_555 1_555
C9 C18 1_555 1_555
C13 C14 1_555 1_555
C13 C16 1_555 1_555
C15 C17 1_555 1_555
C15 C19 1_555 1_555

#END
