
#######################################################################
#
#                 Cambridge Crystallographic Data Centre
#                                CCDC 
#
#######################################################################
#
# If this CIF has been generated from an entry in the Cambridge 
# Structural Database, then it will include bibliographic, chemical, 
# crystal, experimental, refinement or atomic coordinate data resulting 
# from the CCDC's data processing and validation procedures.
#
#######################################################################

data_AQEBUV
_chemical_formula_moiety         'C35 H29 I1 N2 O7 S1,0.5(C6 H14)'
_chemical_name_systematic        
'(E)-2-(2-(2,5-dioxopyrrolidin-1-yl)-2,4-diphenyl-3-tosyloxazolidin-5-ylidene)-2-iodoethyl benzoate hexane solvate'
_symmetry_cell_setting           monoclinic
_symmetry_space_group_name_H-M   'P 21/n'
_symmetry_Int_Tables_number      14
_space_group_name_Hall           '-P 2yn'
loop_
_symmetry_equiv_pos_site_id
_symmetry_equiv_pos_as_xyz
1 x,y,z
2 1/2-x,1/2+y,1/2-z
3 -x,-y,-z
4 1/2+x,1/2-y,1/2+z
_cell_length_a                   10.0257(8)
_cell_length_b                   21.929(2)
_cell_length_c                   15.9556(14)
_cell_angle_alpha                90
_cell_angle_beta                 91.711(7)
_cell_angle_gamma                90
_cell_volume                     3506.33
_exptl_crystal_colour            colorless
_exptl_crystal_description       block
_cell_formula_units_Z            4
_exptl_crystal_recrystallization_method 'pentane/ethyl acetate'
loop_
_atom_site_label
_atom_site_type_symbol
_atom_site_fract_x
_atom_site_fract_y
_atom_site_fract_z
O1 O 1.2044(6) -0.0151(3) 0.3325(5)
I1 I 1.08183(13) 0.05853(5) 0.17355(6)
S1 S 0.9084(2) 0.27905(11) 0.35901(15)
O2 O 0.9402(5) 0.1088(3) 0.4139(3)
O3 O 0.9455(6) 0.2930(3) 0.2762(4)
C1 C 0.8949(9) 0.2244(5) 0.5750(6)
H1 H 0.9777 0.2462 0.5730
C2 C 0.9560(8) 0.1698(4) 0.4419(5)
O4 O 1.2813(7) 0.0564(4) 0.4202(5)
C3 C 0.7398(8) 0.3007(4) 0.3648(5)
N1 N 1.0980(6) 0.1780(3) 0.4673(4)
O5 O 1.1896(6) 0.2172(4) 0.3469(5)
C4 C 0.6846(9) 0.3141(5) 0.4402(6)
H2 H 0.7361 0.3082 0.4912
C5 C 1.2016(8) 0.1992(4) 0.4176(6)
C6 C 0.9730(8) 0.1074(4) 0.3306(5)
C7 C 0.9292(9) 0.1667(4) 0.2907(5)
H3 H 0.9993 0.1825 0.2572
C8 C 0.8643(7) 0.1815(4) 0.5145(5)
C9 C 0.6649(10) 0.3085(5) 0.2923(6)
H4 H 0.7034 0.2990 0.2395
C10 C 0.7465(8) 0.1487(5) 0.5179(6)
H5 H 0.7243 0.1188 0.4758
C11 C 0.5545(10) 0.3352(5) 0.4418(6)
H6 H 0.5166 0.3446 0.4948
C12 C 1.2958(8) 0.1628(5) 0.5485(6)
H7 H 1.3138 0.1885 0.5962
H8 H 1.3466 0.1258 0.5549
C13 C 1.0325(9) 0.0594(5) 0.2990(6)
C14 C 0.6916(11) 0.2036(6) 0.6422(7)
H9 H 0.6301 0.2118 0.6858
C15 C 0.6611(9) 0.1605(6) 0.5832(7)
H10 H 0.5800 0.1376 0.5873
C16 C 1.4352(9) -0.0021(4) 0.3437(6)
C17 C 1.4511(10) -0.0375(5) 0.2733(7)
H11 H 1.3748 -0.0512 0.2408
C18 C 0.8015(10) 0.1618(4) 0.2381(6)
C19 C 1.3015(10) 0.0171(5) 0.3701(7)
C20 C 1.0694(9) 0.0035(5) 0.3486(7)
H12 H 1.0613 0.0119 0.4073
H13 H 1.0089 -0.0289 0.3337
C21 C 0.4782(9) 0.3435(5) 0.3689(7)
C22 C 1.3292(9) 0.1953(5) 0.4683(6)
H14 H 1.3632 0.2354 0.4800
H15 H 1.3950 0.1728 0.4386
C23 C 0.5364(11) 0.3303(5) 0.2951(7)
H16 H 0.4866 0.3362 0.2434
C24 C 0.6836(11) 0.1441(5) 0.2742(7)
H17 H 0.6812 0.1376 0.3336
C25 C 0.5722(18) 0.1467(6) 0.1409(11)
H18 H 0.4931 0.1403 0.1067
C26 C 1.6871(11) -0.0362(6) 0.2978(9)
H19 H 1.7746 -0.0486 0.2819
C27 C 1.5473(10) 0.0151(5) 0.3915(7)
H20 H 1.5360 0.0396 0.4406
C28 C 1.6721(12) -0.0016(6) 0.3686(9)
H21 H 1.7490 0.0100 0.4022
C29 C 1.5794(12) -0.0534(6) 0.2498(8)
H22 H 1.5925 -0.0763 0.1995
C30 C 0.8077(11) 0.2357(6) 0.6389(6)
H23 H 0.8290 0.2657 0.6810
C31 C 0.3378(10) 0.3686(6) 0.3711(8)
H24 H 0.3005 0.3711 0.3151
H25 H 0.2834 0.3424 0.4041
H26 H 0.3407 0.4085 0.3957
C32 C 0.8017(13) 0.1736(6) 0.1539(6)
H27 H 0.8829 0.1867 0.1291
C33 C 0.6869(19) 0.1664(8) 0.1047(8)
H28 H 0.6871 0.1757 0.0459
C34 C 0.5695(13) 0.1366(6) 0.2249(10)
H29 H 0.4881 0.1231 0.2491
N2 N 0.9164(6) 0.2045(3) 0.3666(4)
O6 O 0.9785(6) 0.3038(3) 0.4309(4)
O7 O 1.0856(6) 0.1179(3) 0.5860(4)
C35 C 1.1503(8) 0.1490(5) 0.5403(6)
C36 C 0.562(3) 1.0071(13) 0.017(2)
H30 H 0.5476 1.0044 0.0766
H31 H 0.5840 1.0483 0.0032
C37 C 0.672(3) 0.9647(14) -0.0039(19)
H32 H 0.6930 0.9671 -0.0621
H33 H 0.6564 0.9230 0.0118
C38 C 0.767(4) 0.996(2) 0.052(3)
H34 H 0.8521 0.9758 0.0473
H35 H 0.7754 1.0376 0.0350
H36 H 0.7390 0.9937 0.1084
C36B C 0.438(3) 0.9929(13) -0.017(2)
H30B H 0.4524 0.9956 -0.0766
H31B H 0.4160 0.9517 -0.0032
C37B C 0.328(3) 1.0353(14) 0.0039(19)
H32B H 0.3070 1.0329 0.0621
H33B H 0.3436 1.0770 -0.0118
C38B C 0.233(4) 1.004(2) -0.052(3)
H34B H 0.1479 1.0242 -0.0473
H35B H 0.2246 0.9624 -0.0350
H36B H 0.2610 1.0063 -0.1084
loop_
_geom_bond_atom_site_label_1
_geom_bond_atom_site_label_2
_geom_bond_site_symmetry_1
_geom_bond_site_symmetry_2
O1 C19 1_555 1_555
I1 C13 1_555 1_555
S1 O3 1_555 1_555
O2 C2 1_555 1_555
C1 H1 1_555 1_555
C2 N1 1_555 1_555
O4 C19 1_555 1_555
C3 S1 1_555 1_555
N1 C5 1_555 1_555
O5 C5 1_555 1_555
C4 C3 1_555 1_555
H2 C4 1_555 1_555
C5 C22 1_555 1_555
C6 O2 1_555 1_555
C7 C6 1_555 1_555
H3 C7 1_555 1_555
C8 C1 1_555 1_555
C9 C3 1_555 1_555
H4 C9 1_555 1_555
C10 C8 1_555 1_555
H5 C10 1_555 1_555
C11 C4 1_555 1_555
H6 C11 1_555 1_555
C12 H7 1_555 1_555
H8 C12 1_555 1_555
C13 C6 1_555 1_555
C14 H9 1_555 1_555
C15 C10 1_555 1_555
H10 C15 1_555 1_555
C16 C17 1_555 1_555
C17 H11 1_555 1_555
C18 C7 1_555 1_555
C19 C16 1_555 1_555
C20 O1 1_555 1_555
H12 C20 1_555 1_555
H13 C20 1_555 1_555
C21 C11 1_555 1_555
C22 C12 1_555 1_555
H14 C22 1_555 1_555
H15 C22 1_555 1_555
C23 C9 1_555 1_555
H16 C23 1_555 1_555
C24 C18 1_555 1_555
H17 C24 1_555 1_555
C25 H18 1_555 1_555
C26 H19 1_555 1_555
C27 C16 1_555 1_555
H20 C27 1_555 1_555
C28 C26 1_555 1_555
H21 C28 1_555 1_555
C29 C17 1_555 1_555
H22 C29 1_555 1_555
C30 C1 1_555 1_555
H23 C30 1_555 1_555
C31 C21 1_555 1_555
H24 C31 1_555 1_555
H25 C31 1_555 1_555
H26 C31 1_555 1_555
C32 C18 1_555 1_555
H27 C32 1_555 1_555
C33 C25 1_555 1_555
H28 C33 1_555 1_555
C34 C24 1_555 1_555
H29 C34 1_555 1_555
N2 S1 1_555 1_555
O6 S1 1_555 1_555
O7 C35 1_555 1_555
C35 N1 1_555 1_555
C36 H30 1_555 1_555
H31 C36 1_555 1_555
C37 C36 1_555 1_555
H32 C37 1_555 1_555
H33 C37 1_555 1_555
C38 C37 1_555 1_555
H34 C38 1_555 1_555
H35 C38 1_555 1_555
H36 C38 1_555 1_555
C36B C36 1_555 1_555
H30B C36B 1_555 1_555
H31B C36B 1_555 1_555
C37B C36B 1_555 1_555
H32B C37B 1_555 1_555
H33B C37B 1_555 1_555
C38B C37B 1_555 1_555
H34B C38B 1_555 1_555
H35B C38B 1_555 1_555
H36B C38B 1_555 1_555
C2 C8 1_555 1_555
C2 N2 1_555 1_555
C7 N2 1_555 1_555
C12 C35 1_555 1_555
C13 C20 1_555 1_555
C14 C15 1_555 1_555
C14 C30 1_555 1_555
C21 C23 1_555 1_555
C25 C34 1_555 1_555
C26 C29 1_555 1_555
C27 C28 1_555 1_555
C32 C33 1_555 1_555

#END
