
#######################################################################
#
#                 Cambridge Crystallographic Data Centre
#                                CCDC 
#
#######################################################################
#
# If this CIF has been generated from an entry in the Cambridge 
# Structural Database, then it will include bibliographic, chemical, 
# crystal, experimental, refinement or atomic coordinate data resulting 
# from the CCDC's data processing and validation procedures.
#
#######################################################################

data_AQEVEX
_chemical_formula_moiety         'C19 H33 N3 O3'
_chemical_name_systematic        
'(2S)-1-((2R,3R)-1-(2,2-Dimethyl-propionyl)-3-isopropyl-pyrrolidin-2-ylcarbonyl)pyrrolidine-2-carboxylic acid methylamide'
_symmetry_cell_setting           orthorhombic
_symmetry_space_group_name_H-M   'P 21 21 21'
_symmetry_Int_Tables_number      19
_space_group_name_Hall           'P 2ac 2ab'
loop_
_symmetry_equiv_pos_site_id
_symmetry_equiv_pos_as_xyz
1 x,y,z
2 1/2-x,-y,1/2+z
3 1/2+x,1/2-y,-z
4 -x,1/2+y,1/2-z
_cell_length_a                   9.889(2)
_cell_length_b                   10.452(8)
_cell_length_c                   19.499(14)
_cell_angle_alpha                90
_cell_angle_beta                 90
_cell_angle_gamma                90
_cell_volume                     2015.41
_exptl_crystal_colour            colorless
_exptl_crystal_description       prism
_cell_formula_units_Z            4
loop_
_atom_site_label
_atom_site_type_symbol
_atom_site_fract_x
_atom_site_fract_y
_atom_site_fract_z
O1 O 0.72139(18) -0.0134(3) 0.36469(10)
N1 N 0.59365(18) 0.2303(3) 0.29956(9)
N2 N 0.8657(2) 0.1320(4) 0.40205(10)
O2 O 0.64249(17) 0.3095(3) 0.40323(9)
C1 C 0.3960(3) 0.2488(5) 0.23430(15)
H1 H 0.3002 0.2291 0.2343
H2 H 0.411 0.3267 0.2083
C2 C 0.9311(2) 0.3251(4) 0.34783(13)
H3 H 1.0163 0.2938 0.3284
C3 C 0.8286(2) 0.2137(4) 0.34335(11)
H4 H 0.8406 0.1668 0.3003
N3 N 0.4344(2) 0.0655(4) 0.37405(12)
H5 H 0.5155 0.0517 0.3599
C4 C 0.8964(3) 0.4472(5) 0.31035(17)
H6 H 0.8081 0.4771 0.3266
O3 O 0.25793(18) 0.1996(4) 0.37236(13)
C5 C 0.8459(3) -0.0760(5) 0.46454(15)
C6 C 0.6803(2) 0.2565(4) 0.35122(11)
C7 C 0.4775(3) 0.1393(5) 0.20557(15)
H7 H 0.4798 0.1426 0.1559
H8 H 0.4398 0.0577 0.2197
C8 C 0.8077(2) 0.0177(5) 0.40763(12)
C9 C 0.6188(3) 0.1582(5) 0.23563(12)
H9 H 0.6616 0.0767 0.2452
H10 H 0.6758 0.2066 0.2045
C10 C 0.9555(3) 0.2029(6) 0.45024(16)
H11 H 1.0467 0.1688 0.449
H12 H 0.9216 0.1975 0.4968
C11 C 0.4502(2) 0.2615(4) 0.30741(14)
H13 H 0.4404 0.35 0.3231
C12 C 0.3746(2) 0.1723(5) 0.35543(14)
C13 C 0.9526(3) 0.3384(6) 0.42496(16)
H14 H 1.0373 0.3816 0.4348
H15 H 0.8792 0.3858 0.4459
C14 C 0.3706(3) -0.0303(5) 0.41730(17)
H16 H 0.4371 -0.0675 0.4471
H17 H 0.3317 -0.0959 0.389
H18 H 0.3009 0.0092 0.4443
C15 C 0.9963(3) -0.0967(6) 0.4725(2)
H19 H 1.0341 -0.1218 0.4292
H20 H 1.0122 -0.1626 0.5058
H21 H 1.038 -0.0186 0.4875
C16 C 0.7808(6) -0.0359(7) 0.53098(19)
H22 H 0.6856 -0.0237 0.5239
H23 H 0.8205 0.0428 0.5464
H24 H 0.7948 -0.1011 0.5649
C17 C 0.7879(5) -0.2067(7) 0.4438(3)
H25 H 0.8285 -0.2339 0.4015
H26 H 0.6918 -0.1997 0.4379
H27 H 0.8072 -0.2682 0.479
C18 C 0.8881(5) 0.4278(6) 0.23299(18)
H28 H 0.8661 0.5076 0.2113
H29 H 0.8193 0.3659 0.2228
H30 H 0.9736 0.3978 0.2162
C19 C 1.0006(4) 0.5512(6) 0.3249(2)
H31 H 0.9765 0.6276 0.3004
H32 H 1.0882 0.5227 0.3102
H33 H 1.0026 0.5687 0.3732
loop_
_geom_bond_atom_site_label_1
_geom_bond_atom_site_label_2
_geom_bond_site_symmetry_1
_geom_bond_site_symmetry_2
O1 C8 1_555 1_555
N1 C6 1_555 1_555
N2 C3 1_555 1_555
O2 C6 1_555 1_555
C1 H1 1_555 1_555
H2 C1 1_555 1_555
C2 H3 1_555 1_555
C3 C2 1_555 1_555
H4 C3 1_555 1_555
N3 H5 1_555 1_555
C4 C2 1_555 1_555
H6 C4 1_555 1_555
O3 C12 1_555 1_555
C5 C8 1_555 1_555
C6 C3 1_555 1_555
C7 C1 1_555 1_555
H7 C7 1_555 1_555
H8 C7 1_555 1_555
C8 N2 1_555 1_555
C9 N1 1_555 1_555
H9 C9 1_555 1_555
H10 C9 1_555 1_555
C10 N2 1_555 1_555
H11 C10 1_555 1_555
H12 C10 1_555 1_555
C11 N1 1_555 1_555
H13 C11 1_555 1_555
C12 N3 1_555 1_555
C13 C2 1_555 1_555
H14 C13 1_555 1_555
H15 C13 1_555 1_555
C14 N3 1_555 1_555
H16 C14 1_555 1_555
H17 C14 1_555 1_555
H18 C14 1_555 1_555
C15 C5 1_555 1_555
H19 C15 1_555 1_555
H20 C15 1_555 1_555
H21 C15 1_555 1_555
C16 C5 1_555 1_555
H22 C16 1_555 1_555
H23 C16 1_555 1_555
H24 C16 1_555 1_555
C17 C5 1_555 1_555
H25 C17 1_555 1_555
H26 C17 1_555 1_555
H27 C17 1_555 1_555
C18 C4 1_555 1_555
H28 C18 1_555 1_555
H29 C18 1_555 1_555
H30 C18 1_555 1_555
C19 C4 1_555 1_555
H31 C19 1_555 1_555
H32 C19 1_555 1_555
H33 C19 1_555 1_555
C1 C11 1_555 1_555
C7 C9 1_555 1_555
C10 C13 1_555 1_555
C11 C12 1_555 1_555

#END
