
#######################################################################
#
#                 Cambridge Crystallographic Data Centre
#                                CCDC 
#
#######################################################################
#
# If this CIF has been generated from an entry in the Cambridge 
# Structural Database, then it will include bibliographic, chemical, 
# crystal, experimental, refinement or atomic coordinate data resulting 
# from the CCDC's data processing and validation procedures.
#
#######################################################################

data_AQIBEJ
_chemical_formula_moiety         'C40 H48 O14,C12 H14 N2 2+,2(F6 P1 1-)'
_chemical_name_systematic        
"12-methyl-5,9,16,23,26,29,32,35,38,41,44,47,50-tridecaoxahexacyclo[18.17.13.1^3,36^.1^18,22^.0^6,15^.0^8,13^]dopentaconta-1,3(51),6(15),7,11,13,18(52),19,21,36-decaen-10-one 1,1'-dimethyl-4,4'-bipyridinium bis(hexafluorophosphate) clathrate"
_symmetry_cell_setting           triclinic
_symmetry_space_group_name_H-M   'P -1'
_symmetry_Int_Tables_number      2
_space_group_name_Hall           '-P 1'
loop_
_symmetry_equiv_pos_site_id
_symmetry_equiv_pos_as_xyz
1 x,y,z
2 -x,-y,-z
_cell_length_a                   13.5950(13)
_cell_length_b                   20.8235(19)
_cell_length_c                   23.687(2)
_cell_angle_alpha                74.639(2)
_cell_angle_beta                 84.656(2)
_cell_angle_gamma                76.364(2)
_cell_volume                     6280.5
_exptl_crystal_colour            colorless
_exptl_crystal_description       block
_cell_formula_units_Z            4
loop_
_atom_site_label
_atom_site_type_symbol
_atom_site_fract_x
_atom_site_fract_y
_atom_site_fract_z
C1 C 0.5121(4) 0.7115(3) 0.7752(2)
C2 C 0.4418(4) 0.6722(3) 0.7983(2)
H1 H 0.4553 0.6368 0.8319
C3 C 0.3503(4) 0.6867(2) 0.7703(2)
C4 C 0.3293(4) 0.7404(2) 0.7212(2)
H2 H 0.2680 0.7500 0.7029
C5 C 0.4004(4) 0.7803(2) 0.6991(2)
C6 C 0.4914(4) 0.7661(2) 0.7255(2)
H3 H 0.5388 0.7924 0.7105
C7 C 0.6319(4) 0.6450(3) 0.8479(2)
H4 H 0.6247 0.6031 0.8398
H5 H 0.5876 0.6526 0.8812
C8 C 0.7387(4) 0.6395(3) 0.8613(3)
H6 H 0.7461 0.6841 0.8630
H7 H 0.7521 0.6090 0.8999
C9 C 0.8282(5) 0.6672(3) 0.7699(3)
H8 H 0.8248 0.7095 0.7807
H9 H 0.7748 0.6750 0.7428
C10 C 0.9272(5) 0.6469(3) 0.7412(3)
H10 H 0.9409 0.6852 0.7103
H11 H 0.9801 0.6340 0.7695
C11 C 1.0124(4) 0.5797(3) 0.6790(2)
H12 H 1.0742 0.5677 0.7006
H13 H 1.0135 0.6211 0.6485
C12 C 1.0069(4) 0.5233(3) 0.6523(2)
H14 H 1.0652 0.5149 0.6262
H15 H 1.0065 0.4816 0.6826
C13 C 0.9142(4) 0.5010(3) 0.5828(2)
H16 H 0.9286 0.4535 0.6046
H17 H 0.9655 0.5071 0.5517
C14 C 0.8119(4) 0.5198(3) 0.5574(2)
H18 H 0.7874 0.5690 0.5474
H19 H 0.8151 0.5040 0.5221
C15 C 0.6448(4) 0.5035(2) 0.5878(2)
C16 C 0.5824(4) 0.4686(2) 0.6295(2)
H20 H 0.6100 0.4361 0.6625
C17 C 0.4804(4) 0.4831(2) 0.6209(2)
C18 C 0.4374(4) 0.5326(2) 0.5719(2)
H21 H 0.3681 0.5423 0.5665
C19 C 0.4998(4) 0.5669(2) 0.5314(2)
C20 C 0.6041(4) 0.5522(2) 0.5388(2)
H22 H 0.6457 0.5749 0.5111
C21 C 0.4363(5) 0.8800(3) 0.6320(2)
H23 H 0.5030 0.8577 0.6202
H24 H 0.4435 0.8987 0.6644
C22 C 0.3891(5) 0.9365(3) 0.5816(2)
H25 H 0.3169 0.9503 0.5894
H26 H 0.4189 0.9757 0.5767
C23 C 0.3701(5) 0.9643(3) 0.4801(2)
H27 H 0.3929 1.0054 0.4788
H28 H 0.2967 0.9751 0.4811
C24 C 0.4096(4) 0.9391(3) 0.4272(2)
H29 H 0.3955 0.9763 0.3923
H30 H 0.4824 0.9223 0.4292
C25 C 0.4051(4) 0.8567(3) 0.3774(2)
H31 H 0.4765 0.8367 0.3836
H32 H 0.3990 0.8920 0.3410
C26 C 0.3526(5) 0.8033(3) 0.3730(2)
H33 H 0.2803 0.8221 0.3697
H34 H 0.3773 0.7871 0.3383
C27 C 0.3453(4) 0.6895(3) 0.4161(2)
H35 H 0.3874 0.6735 0.3851
H36 H 0.2751 0.7000 0.4054
C28 C 0.3611(4) 0.6354(2) 0.4726(2)
H37 H 0.3245 0.6528 0.5045
H38 H 0.3367 0.5961 0.4701
C29 C 0.2802(4) 0.6392(3) 0.7910(2)
H39 H 0.2845 0.6199 0.8329
H40 H 0.2108 0.6631 0.7822
C30 C 0.2573(3) 0.5369(2) 0.7713(2)
C31 C 0.1772(3) 0.5322(2) 0.8111(2)
H41 H 0.1570 0.5644 0.8331
C32 C 0.1256(3) 0.4790(2) 0.8189(2)
C33 C 0.0438(3) 0.4700(2) 0.8613(2)
C34 C 0.0089(4) 0.5171(3) 0.8999(2)
H42 H -0.0414 0.5008 0.9276
H43 H -0.0198 0.5618 0.8766
H44 H 0.0652 0.5190 0.9205
C35 C 0.0007(4) 0.4165(3) 0.8653(2)
H45 H -0.0503 0.4092 0.8937
C36 C 0.0299(4) 0.3706(3) 0.8281(2)
C37 C 0.1575(4) 0.4330(2) 0.7846(2)
C38 C 0.2381(3) 0.4364(2) 0.74421(19)
H46 H 0.2573 0.4047 0.7218
C39 C 0.2893(4) 0.4879(2) 0.7380(2)
C40 C 0.4095(4) 0.4493(3) 0.6660(2)
H47 H 0.3555 0.4405 0.6470
H48 H 0.4459 0.4064 0.6900
O1 O 0.6056(3) 0.70093(19) 0.79799(16)
O2 O 0.8137(3) 0.6155(2) 0.82087(17)
O3 O 0.9277(3) 0.59071(19) 0.71709(17)
O4 O 0.9161(3) 0.54341(18) 0.62054(15)
O5 O 0.7449(2) 0.48760(17) 0.60092(14)
O6 O 0.3731(3) 0.83181(17) 0.64991(15)
O7 O 0.4056(3) 0.91331(17) 0.53070(15)
O8 O 0.3630(3) 0.88580(17) 0.42411(15)
O9 O 0.3714(3) 0.74871(16) 0.42358(14)
O10 O 0.4675(3) 0.61657(16) 0.48242(14)
O11 O 0.3118(2) 0.58660(16) 0.76039(14)
O12 O 0.3692(2) 0.49788(16) 0.70113(14)
O13 O 0.1094(2) 0.37979(17) 0.78880(14)
O14 O -0.0098(3) 0.3246(2) 0.82677(16)
C41 C 0.7359(4) 0.3888(3) 0.8755(2)
H49 H 0.7497 0.4089 0.9052
H50 H 0.7965 0.3585 0.8660
H51 H 0.6842 0.3635 0.8898
C42 C 0.7689(4) 0.4677(3) 0.7839(3)
H52 H 0.8375 0.4491 0.7898
C43 C 0.7400(4) 0.5201(3) 0.7351(2)
H53 H 0.7888 0.5366 0.7087
C44 C 0.6386(4) 0.5481(3) 0.7252(2)
C45 C 0.5698(4) 0.5205(3) 0.7656(2)
H54 H 0.5007 0.5377 0.7604
C46 C 0.6032(4) 0.4676(3) 0.8137(2)
H55 H 0.5561 0.4490 0.8402
C47 C 0.6061(4) 0.6051(3) 0.6740(2)
C48 C 0.6753(4) 0.6412(3) 0.6403(2)
H56 H 0.7422 0.6306 0.6515
C49 C 0.6450(4) 0.6920(3) 0.5909(2)
H57 H 0.6918 0.7152 0.5685
C50 C 0.4797(4) 0.6769(3) 0.6064(2)
H58 H 0.4129 0.6895 0.5947
C51 C 0.5059(4) 0.6256(2) 0.6565(2)
H59 H 0.4567 0.6045 0.6786
C52 C 0.5188(5) 0.7605(3) 0.5192(2)
H60 H 0.5104 0.7382 0.4899
H61 H 0.5709 0.7857 0.5063
H62 H 0.4563 0.7911 0.5254
N1 N 0.7013(3) 0.4430(2) 0.82270(18)
N2 N 0.5479(3) 0.7087(2) 0.57465(18)
C53 C 0.4149(4) 0.1961(3) 0.7796(2)
H63 H 0.4750 0.1973 0.7980
H64 H 0.3984 0.2368 0.7478
C54 C 0.4322(4) 0.1330(2) 0.7572(2)
C55 C 0.5006(4) 0.0762(3) 0.7830(2)
H65 H 0.5376 0.0769 0.8138
C56 C 0.5161(4) 0.0164(3) 0.7637(2)
C57 C 0.4593(4) 0.0159(2) 0.7182(2)
H66 H 0.4680 -0.0235 0.7051
C58 C 0.3895(4) 0.0742(3) 0.6924(2)
C59 C 0.3756(4) 0.1329(3) 0.7115(2)
H67 H 0.3289 0.1720 0.6939
C60 C 0.2694(4) 0.1269(3) 0.6164(2)
H68 H 0.3052 0.1621 0.5964
H69 H 0.2204 0.1447 0.6440
C61 C 0.2170(4) 0.1077(3) 0.5735(2)
H70 H 0.1738 0.1480 0.5501
H71 H 0.2664 0.0871 0.5475
C62 C 0.0894(5) 0.0516(4) 0.5656(3)
H72 H 0.1268 0.0383 0.5321
H73 H 0.0410 0.0942 0.5516
C63 C 0.0359(6) -0.0018(4) 0.5979(3)
H74 H -0.0015 -0.0141 0.5709
H75 H 0.0843 -0.0422 0.6171
C64 C -0.0951(7) -0.0185(4) 0.6681(4)
H76 H -0.0552 -0.0604 0.6917
H77 H -0.1282 -0.0303 0.6389
C65 C -0.1728(5) 0.0143(3) 0.7060(3)
H78 H -0.2117 0.0566 0.6825
H79 H -0.2190 -0.0156 0.7225
C66 C -0.2005(5) 0.0529(3) 0.7928(3)
H80 H -0.2320 0.0166 0.8157
H81 H -0.2530 0.0897 0.7724
C67 C -0.1461(5) 0.0784(3) 0.8327(3)
H82 H -0.1094 0.1116 0.8095
H83 H -0.1949 0.1003 0.8582
C68 C -0.0082(4) 0.0341(3) 0.8978(3)
C69 C 0.0029(4) 0.0980(3) 0.8993(2)
H84 H -0.0390 0.1373 0.8780
C70 C 0.0792(4) 0.1022(3) 0.9338(2)
C71 C 0.1405(4) 0.0436(3) 0.9648(2)
H85 H 0.1907 0.0471 0.9873
C72 C 0.1295(4) -0.0206(3) 0.9637(3)
C73 C 0.0559(5) -0.0256(3) 0.9310(3)
H86 H 0.0474 -0.0684 0.9304
C74 C 0.0979(4) 0.1701(3) 0.9337(2)
H87 H 0.0388 0.2060 0.9205
H88 H 0.1127 0.1708 0.9728
C75 C 0.2245(4) 0.2337(3) 0.8933(2)
C76 C 0.3074(4) 0.2401(2) 0.8532(2)
C77 C 0.3579(4) 0.2913(2) 0.8481(2)
H89 H 0.4122 0.2956 0.8215
C78 C 0.3263(4) 0.3368(2) 0.8835(2)
C79 C 0.2471(4) 0.3322(2) 0.9230(2)
C80 C 0.1954(4) 0.2795(3) 0.9275(2)
H90 H 0.1408 0.2757 0.9540
C81 C 0.2193(4) 0.3817(3) 0.9583(2)
C82 C 0.1370(4) 0.3768(3) 1.0027(2)
H91 H 0.1286 0.4131 1.0218
H92 H 0.1531 0.3336 1.0310
H93 H 0.0753 0.3803 0.9842
C83 C 0.2729(4) 0.4312(3) 0.9489(2)
H94 H 0.2558 0.4630 0.9712
C84 C 0.3546(4) 0.4369(3) 0.9062(2)
C85 C 0.6096(5) -0.0978(3) 0.7695(3)
H95 H 0.6248 -0.0859 0.7277
H96 H 0.5513 -0.1185 0.7762
C86 C 0.6980(6) -0.1467(3) 0.8005(3)
H97 H 0.7258 -0.1801 0.7781
H98 H 0.7497 -0.1220 0.8014
C87 C 0.6717(8) -0.1477(5) 0.8993(5)
H99 H 0.6268 -0.1030 0.8876
H100 H 0.7383 -0.1411 0.9042
C88 C 0.6300(8) -0.1902(5) 0.9617(5)
H101 H 0.6823 -0.2277 0.9815
H102 H 0.6015 -0.1609 0.9876
C89 C 0.1850(5) -0.1414(3) 0.9956(3)
H103 H 0.1882 -0.1465 0.9559
H104 H 0.1203 -0.1489 1.0137
C90 C 0.2702(7) -0.1923(4) 1.0301(4)
H105 H 0.2777 -0.1800 1.0660
H106 H 0.2557 -0.2375 1.0404
C91 C 0.4379(8) -0.2437(5) 1.0195(5)
H107 H 0.4108 -0.2830 1.0400
H108 H 0.4685 -0.2295 1.0483
C92 C 0.5140(9) -0.2635(6) 0.9786(5)
H109 H 0.5725 -0.2916 1.0004
H110 H 0.4893 -0.2923 0.9596
O15 O 0.3397(3) 0.06764(17) 0.64704(15)
O16 O 0.1572(3) 0.06025(19) 0.60386(16)
O17 O -0.0324(4) 0.0239(2) 0.6407(2)
O18 O -0.1291(3) 0.0283(3) 0.7520(2)
O19 O -0.0780(3) 0.0220(2) 0.86647(19)
O20 O 0.1827(3) 0.17997(17) 0.89447(15)
O21 O 0.3313(2) 0.19217(17) 0.82180(15)
O22 O 0.3804(3) 0.38809(17) 0.87494(15)
O23 O 0.4030(3) 0.4817(2) 0.89362(18)
O24 O 0.5876(3) -0.03752(18) 0.79123(17)
O25 O 0.6771(5) -0.1807(3) 0.8567(2)
O26 O 0.5450(6) -0.2166(4) 0.9377(3)
O27 O 0.1952(3) -0.07486(19) 0.99500(18)
O28 O 0.3600(4) -0.1921(2) 0.9952(2)
C93 C -0.0171(5) 0.1802(4) 0.6954(3)
H111 H -0.0691 0.1865 0.6702
C94 C 0.0415(5) 0.1167(3) 0.7154(3)
H112 H 0.0294 0.0802 0.7035
C95 C 0.1184(5) 0.1057(3) 0.7529(3)
C96 C 0.1357(4) 0.1615(3) 0.7694(2)
H113 H 0.1870 0.1558 0.7948
C97 C 0.0759(5) 0.2245(3) 0.7477(3)
H114 H 0.0880 0.2621 0.7578
C98 C 0.1832(5) 0.0364(3) 0.7761(3)
C99 C 0.1929(6) -0.0141(4) 0.7470(3)
H115 H 0.1608 -0.0044 0.7118
C100 C 0.2494(6) -0.0784(4) 0.7694(4)
H116 H 0.2570 -0.1113 0.7484
C101 C 0.3476(6) -0.1650(4) 0.8459(3)
H117 H 0.2996 -0.1933 0.8605
H118 H 0.3871 -0.1653 0.8775
H119 H 0.3914 -0.1824 0.8166
C102 C 0.2902(6) -0.0454(4) 0.8483(3)
H120 H 0.3251 -0.0558 0.8827
C103 C 0.2354(5) 0.0200(4) 0.8260(3)
H121 H 0.2342 0.0536 0.8455
C104 C -0.0631(5) 0.3023(3) 0.6889(3)
H122 H -0.1187 0.2994 0.6681
H123 H -0.0224 0.3302 0.6628
H124 H -0.0889 0.3223 0.7209
N3 N -0.0011(4) 0.2336(3) 0.7115(2)
N4 N 0.2928(5) -0.0943(3) 0.8197(3)
F1 F 0.8262(4) 0.2694(3) 0.0960(3)
F2 F 0.7745(5) 0.3860(3) 0.0695(3)
F3 F 0.7601(5) 0.3281(4) 0.0114(3)
F4 F 0.8776(4) 0.3914(3) -0.0051(2)
F5 F 0.9294(7) 0.2801(4) 0.0184(5)
F6 F 0.9363(5) 0.3347(4) 0.0842(3)
P1 P 0.85438(15) 0.32796(12) 0.04447(8)
F7 F 0.3014(3) 0.15813(19) 0.43050(16)
F8 F 0.1553(3) 0.1285(2) 0.42700(15)
F9 F 0.1718(3) 0.23612(19) 0.38345(19)
F10 F 0.1556(3) 0.1684(2) 0.32867(15)
F11 F 0.3039(3) 0.1965(2) 0.33142(17)
F12 F 0.2865(4) 0.0897(2) 0.37389(17)
P2 P 0.22927(11) 0.16254(7) 0.37907(6)
F13 F 0.6489(2) 0.19986(16) 0.81384(15)
F14 F 0.5815(2) 0.29138(16) 0.74199(14)
F15 F 0.6116(2) 0.30535(18) 0.82967(14)
F16 F 0.7081(2) 0.34178(15) 0.75045(14)
F17 F 0.7753(2) 0.25036(17) 0.82143(14)
F18 F 0.7455(2) 0.23625(17) 0.73418(14)
P3 P 0.67852(10) 0.27098(7) 0.78177(6)
F19 F 0.1577(3) 0.27359(16) 0.61754(15)
F20 F 0.1374(3) 0.36501(18) 0.65493(15)
F21 F 0.2941(3) 0.3028(2) 0.64342(19)
F22 F 0.2461(3) 0.40830(17) 0.58555(14)
F23 F 0.2643(3) 0.31775(18) 0.54708(15)
F24 F 0.1106(2) 0.38002(17) 0.56019(15)
P4 P 0.20304(11) 0.34078(7) 0.60168(6)
loop_
_geom_bond_atom_site_label_1
_geom_bond_atom_site_label_2
_geom_bond_site_symmetry_1
_geom_bond_site_symmetry_2
C1 C2 1_555 1_555
C2 H1 1_555 1_555
C3 C2 1_555 1_555
C4 C3 1_555 1_555
H2 C4 1_555 1_555
C5 C4 1_555 1_555
C6 C1 1_555 1_555
H3 C6 1_555 1_555
C7 H4 1_555 1_555
H5 C7 1_555 1_555
C8 C7 1_555 1_555
H6 C8 1_555 1_555
H7 C8 1_555 1_555
C9 H8 1_555 1_555
H9 C9 1_555 1_555
C10 C9 1_555 1_555
H10 C10 1_555 1_555
H11 C10 1_555 1_555
C11 H12 1_555 1_555
H13 C11 1_555 1_555
C12 C11 1_555 1_555
H14 C12 1_555 1_555
H15 C12 1_555 1_555
C13 H16 1_555 1_555
H17 C13 1_555 1_555
C14 C13 1_555 1_555
H18 C14 1_555 1_555
H19 C14 1_555 1_555
C15 C16 1_555 1_555
C16 H20 1_555 1_555
C17 C16 1_555 1_555
C18 C17 1_555 1_555
H21 C18 1_555 1_555
C19 C18 1_555 1_555
C20 C15 1_555 1_555
H22 C20 1_555 1_555
C21 H23 1_555 1_555
H24 C21 1_555 1_555
C22 C21 1_555 1_555
H25 C22 1_555 1_555
H26 C22 1_555 1_555
C23 H27 1_555 1_555
H28 C23 1_555 1_555
C24 C23 1_555 1_555
H29 C24 1_555 1_555
H30 C24 1_555 1_555
C25 H31 1_555 1_555
H32 C25 1_555 1_555
C26 C25 1_555 1_555
H33 C26 1_555 1_555
H34 C26 1_555 1_555
C27 H35 1_555 1_555
H36 C27 1_555 1_555
C28 C27 1_555 1_555
H37 C28 1_555 1_555
H38 C28 1_555 1_555
C29 C3 1_555 1_555
H39 C29 1_555 1_555
H40 C29 1_555 1_555
C30 C31 1_555 1_555
C31 H41 1_555 1_555
C32 C31 1_555 1_555
C33 C32 1_555 1_555
C34 C33 1_555 1_555
H42 C34 1_555 1_555
H43 C34 1_555 1_555
H44 C34 1_555 1_555
C35 C33 1_555 1_555
H45 C35 1_555 1_555
C36 C35 1_555 1_555
C37 C32 1_555 1_555
C38 C37 1_555 1_555
H46 C38 1_555 1_555
C39 C30 1_555 1_555
C40 C17 1_555 1_555
H47 C40 1_555 1_555
H48 C40 1_555 1_555
O1 C1 1_555 1_555
O2 C8 1_555 1_555
O3 C10 1_555 1_555
O4 C12 1_555 1_555
O5 C14 1_555 1_555
O6 C5 1_555 1_555
O7 C22 1_555 1_555
O8 C24 1_555 1_555
O9 C26 1_555 1_555
O10 C19 1_555 1_555
O11 C29 1_555 1_555
O12 C39 1_555 1_555
O13 C36 1_555 1_555
O14 C36 1_555 1_555
C41 H49 1_555 1_555
H50 C41 1_555 1_555
H51 C41 1_555 1_555
C42 H52 1_555 1_555
C43 C42 1_555 1_555
H53 C43 1_555 1_555
C44 C43 1_555 1_555
C45 C44 1_555 1_555
H54 C45 1_555 1_555
C46 C45 1_555 1_555
H55 C46 1_555 1_555
C47 C44 1_555 1_555
C48 C47 1_555 1_555
H56 C48 1_555 1_555
C49 C48 1_555 1_555
H57 C49 1_555 1_555
C50 H58 1_555 1_555
C51 C47 1_555 1_555
H59 C51 1_555 1_555
C52 H60 1_555 1_555
H61 C52 1_555 1_555
H62 C52 1_555 1_555
N1 C41 1_555 1_555
N2 C49 1_555 1_555
C53 H63 1_555 1_555
H64 C53 1_555 1_555
C54 C53 1_555 1_555
C55 C54 1_555 1_555
H65 C55 1_555 1_555
C56 C55 1_555 1_555
C57 C56 1_555 1_555
H66 C57 1_555 1_555
C58 C57 1_555 1_555
C59 C54 1_555 1_555
H67 C59 1_555 1_555
C60 H68 1_555 1_555
H69 C60 1_555 1_555
C61 C60 1_555 1_555
H70 C61 1_555 1_555
H71 C61 1_555 1_555
C62 H72 1_555 1_555
H73 C62 1_555 1_555
C63 C62 1_555 1_555
H74 C63 1_555 1_555
H75 C63 1_555 1_555
C64 H76 1_555 1_555
H77 C64 1_555 1_555
C65 C64 1_555 1_555
H78 C65 1_555 1_555
H79 C65 1_555 1_555
C66 H80 1_555 1_555
H81 C66 1_555 1_555
C67 C66 1_555 1_555
H82 C67 1_555 1_555
H83 C67 1_555 1_555
C68 C69 1_555 1_555
C69 H84 1_555 1_555
C70 C69 1_555 1_555
C71 C70 1_555 1_555
H85 C71 1_555 1_555
C72 C71 1_555 1_555
C73 C68 1_555 1_555
H86 C73 1_555 1_555
C74 C70 1_555 1_555
H87 C74 1_555 1_555
H88 C74 1_555 1_555
C75 C76 1_555 1_555
C76 C77 1_555 1_555
C77 H89 1_555 1_555
C78 C77 1_555 1_555
C79 C78 1_555 1_555
C80 C75 1_555 1_555
H90 C80 1_555 1_555
C81 C79 1_555 1_555
C82 C81 1_555 1_555
H91 C82 1_555 1_555
H92 C82 1_555 1_555
H93 C82 1_555 1_555
C83 C81 1_555 1_555
H94 C83 1_555 1_555
C84 C83 1_555 1_555
C85 H95 1_555 1_555
H96 C85 1_555 1_555
C86 C85 1_555 1_555
H97 C86 1_555 1_555
H98 C86 1_555 1_555
C87 H99 1_555 1_555
H100 C87 1_555 1_555
C88 C87 1_555 1_555
H101 C88 1_555 1_555
H102 C88 1_555 1_555
C89 H103 1_555 1_555
H104 C89 1_555 1_555
C90 C89 1_555 1_555
H105 C90 1_555 1_555
H106 C90 1_555 1_555
C91 H107 1_555 1_555
H108 C91 1_555 1_555
C92 C91 1_555 1_555
H109 C92 1_555 1_555
H110 C92 1_555 1_555
O15 C58 1_555 1_555
O16 C61 1_555 1_555
O17 C63 1_555 1_555
O18 C65 1_555 1_555
O19 C67 1_555 1_555
O20 C74 1_555 1_555
O21 C53 1_555 1_555
O22 C78 1_555 1_555
O23 C84 1_555 1_555
O24 C56 1_555 1_555
O25 C86 1_555 1_555
O26 C88 1_555 1_555
O27 C72 1_555 1_555
O28 C90 1_555 1_555
C93 H111 1_555 1_555
C94 C93 1_555 1_555
H112 C94 1_555 1_555
C95 C94 1_555 1_555
C96 C95 1_555 1_555
H113 C96 1_555 1_555
C97 C96 1_555 1_555
H114 C97 1_555 1_555
C98 C95 1_555 1_555
C99 C98 1_555 1_555
H115 C99 1_555 1_555
C100 C99 1_555 1_555
H116 C100 1_555 1_555
C101 H117 1_555 1_555
H118 C101 1_555 1_555
H119 C101 1_555 1_555
C102 H120 1_555 1_555
C103 C98 1_555 1_555
H121 C103 1_555 1_555
C104 H122 1_555 1_555
H123 C104 1_555 1_555
H124 C104 1_555 1_555
N3 C93 1_555 1_555
N4 C100 1_555 1_555
F1 P1 1_555 1_555
F2 P1 1_555 1_555
F3 P1 1_555 1_555
F4 P1 1_555 1_555
F5 P1 1_555 1_555
F6 P1 1_555 1_555
F7 P2 1_555 1_555
F8 P2 1_555 1_555
F9 P2 1_555 1_555
F10 P2 1_555 1_555
F11 P2 1_555 1_555
F12 P2 1_555 1_555
F13 P3 1_555 1_555
F14 P3 1_555 1_555
F15 P3 1_555 1_555
F16 P3 1_555 1_555
F17 P3 1_555 1_555
F18 P3 1_555 1_555
F19 P4 1_555 1_555
F20 P4 1_555 1_555
F21 P4 1_555 1_555
F22 P4 1_555 1_555
F23 P4 1_555 1_555
F24 P4 1_555 1_555
C5 C6 1_555 1_555
C7 O1 1_555 1_555
C9 O2 1_555 1_555
C11 O3 1_555 1_555
C13 O4 1_555 1_555
C15 O5 1_555 1_555
C19 C20 1_555 1_555
C21 O6 1_555 1_555
C23 O7 1_555 1_555
C25 O8 1_555 1_555
C27 O9 1_555 1_555
C28 O10 1_555 1_555
C30 O11 1_555 1_555
C37 O13 1_555 1_555
C38 C39 1_555 1_555
C40 O12 1_555 1_555
C42 N1 1_555 1_555
C46 N1 1_555 1_555
C50 C51 1_555 1_555
C50 N2 1_555 1_555
C52 N2 1_555 1_555
C58 C59 1_555 1_555
C60 O15 1_555 1_555
C62 O16 1_555 1_555
C64 O17 1_555 1_555
C66 O18 1_555 1_555
C68 O19 1_555 1_555
C72 C73 1_555 1_555
C75 O20 1_555 1_555
C76 O21 1_555 1_555
C79 C80 1_555 1_555
C84 O22 1_555 1_555
C85 O24 1_555 1_555
C87 O25 1_555 1_555
C89 O27 1_555 1_555
C91 O28 1_555 1_555
C92 O26 1_555 1_555
C97 N3 1_555 1_555
C101 N4 1_555 1_555
C102 C103 1_555 1_555
C102 N4 1_555 1_555
C104 N3 1_555 1_555

#END
