
#######################################################################
#
#                 Cambridge Crystallographic Data Centre
#                                CCDC 
#
#######################################################################
#
# If this CIF has been generated from an entry in the Cambridge 
# Structural Database, then it will include bibliographic, chemical, 
# crystal, experimental, refinement or atomic coordinate data resulting 
# from the CCDC's data processing and validation procedures.
#
#######################################################################

data_AQIJUH
_chemical_formula_moiety         'C36 H46 O4 S4'
_chemical_name_systematic        
7,7'-bis(4-(2-ethylhexyl)-2-thienyl)-2,2',3,3'-tetrahydro-5,5'-bithieno[3,4-b][1,4]dioxine
_symmetry_cell_setting           monoclinic
_symmetry_space_group_name_H-M   'P 21/c'
_symmetry_Int_Tables_number      14
_space_group_name_Hall           '-P 2ybc'
loop_
_symmetry_equiv_pos_site_id
_symmetry_equiv_pos_as_xyz
1 x,y,z
2 -x,1/2+y,1/2-z
3 -x,-y,-z
4 x,1/2-y,1/2+z
_cell_length_a                   22.433(3)
_cell_length_b                   4.9502(5)
_cell_length_c                   16.387(2)
_cell_angle_alpha                90
_cell_angle_beta                 111.351(4)
_cell_angle_gamma                90
_cell_volume                     1694.85
_exptl_crystal_colour            orange
_exptl_crystal_description       plate
_chemical_melting_point          '471 K'
_cell_formula_units_Z            2
loop_
_atom_site_label
_atom_site_type_symbol
_atom_site_fract_x
_atom_site_fract_y
_atom_site_fract_z
S1 S 0.56299(2) 0.29101(9) 0.46865(3)
S2 S 0.68255(3) 0.66885(10) 0.47285(3)
O1 O 0.53049(6) 0.0232(3) 0.67144(8)
O2 O 0.63294(6) 0.4210(3) 0.71969(8)
C1 C 0.52521(8) 0.0931(4) 0.52295(11)
C2 C 0.55101(9) 0.1476(4) 0.61142(11)
C3 C 0.59993(9) 0.3445(4) 0.63477(11)
C4 C 0.61315(8) 0.4430(4) 0.56448(11)
C5 C 0.66079(9) 0.6374(4) 0.56357(12)
C6 C 0.69575(10) 0.8131(4) 0.62859(13)
H1 H 0.6911 0.8250 0.6838
C7 C 0.73950(10) 0.9752(4) 0.60524(14)
C8 C 0.73667(10) 0.9209(4) 0.52255(14)
H2 H 0.7617 1.0118 0.4952
C9 C 0.57850(10) 0.0441(4) 0.75855(11)
H3 H 0.6152 -0.0741 0.7633
H4 H 0.5603 -0.0176 0.8021
C10 C 0.60115(10) 0.3314(4) 0.77799(12)
H5 H 0.5641 0.4503 0.7709
H6 H 0.6312 0.3451 0.8395
C11 C 0.78313(11) 1.1808(5) 0.66589(17)
H7 H 0.7581 1.2885 0.6930
H8 H 0.7988 1.3056 0.6309
C12 C 0.84127(13) 1.0576(7) 0.73922(18)
H9 H 0.8688 1.2174 0.7656
C13 C 0.8301(2) 0.9422(10) 0.8093(3)
H10 H 0.8720 0.8832 0.8521
H11 H 0.8044 0.7769 0.7874
C14 C 0.7970(2) 1.1039(11) 0.8595(3)
H12 H 0.7927 0.9919 0.9063
H13 H 0.7545 1.1595 0.8195
H14 H 0.8226 1.2644 0.8851
C15 C 0.8826(3) 0.8867(14) 0.7041(4)
H15 H 0.9183 0.8195 0.7560
H16 H 0.8565 0.7267 0.6766
C16 C 0.9102(6) 0.976(3) 0.6449(8)
H17 H 0.9305 1.1525 0.6671
H18 H 0.8745 1.0135 0.5891
C17 C 0.9580(5) 0.815(2) 0.6226(7)
H19 H 0.9976 0.8074 0.6755
H20 H 0.9415 0.6283 0.6101
C18 C 0.9757(10) 0.902(5) 0.5505(13)
H21 H 1.0063 0.7731 0.5424
H22 H 0.9954 1.0811 0.5632
H23 H 0.9374 0.9099 0.4970
S1B S 0.43701(2) -0.29101(9) 0.53135(3)
S2B S 0.31745(3) -0.66885(10) 0.52715(3)
O1B O 0.46951(6) -0.0232(3) 0.32856(8)
O2B O 0.36706(6) -0.4210(3) 0.28031(8)
C1B C 0.47479(8) -0.0931(4) 0.47705(11)
C2B C 0.44899(9) -0.1476(4) 0.38858(11)
C3B C 0.40007(9) -0.3445(4) 0.36523(11)
C4B C 0.38685(8) -0.4430(4) 0.43552(11)
C5B C 0.33921(9) -0.6374(4) 0.43643(12)
C6B C 0.30425(10) -0.8131(4) 0.37141(13)
H1B H 0.3089 -0.8250 0.3162
C7B C 0.26050(10) -0.9752(4) 0.39476(14)
C8B C 0.26333(10) -0.9209(4) 0.47745(14)
H2B H 0.2383 -1.0118 0.5048
C9B C 0.42150(10) -0.0441(4) 0.24145(11)
H3B H 0.3848 0.0741 0.2367
H4B H 0.4397 0.0176 0.1979
C10B C 0.39885(10) -0.3314(4) 0.22201(12)
H5B H 0.4359 -0.4503 0.2291
H6B H 0.3688 -0.3451 0.1605
C11B C 0.21687(11) -1.1808(5) 0.33411(17)
H7B H 0.2419 -1.2885 0.3070
H8B H 0.2012 -1.3056 0.3691
C12B C 0.15873(13) -1.0576(7) 0.26078(18)
H9B H 0.1312 -1.2174 0.2344
C13B C 0.1699(2) -0.9422(10) 0.1907(3)
H10B H 0.1280 -0.8832 0.1479
H11B H 0.1956 -0.7769 0.2126
C14B C 0.2030(2) -1.1039(11) 0.1405(3)
H12B H 0.2073 -0.9919 0.0937
H13B H 0.2455 -1.1595 0.1805
H14B H 0.1774 -1.2644 0.1149
C15B C 0.1174(3) -0.8867(14) 0.2959(4)
H15B H 0.0817 -0.8195 0.2440
H16B H 0.1435 -0.7267 0.3234
C16B C 0.0898(6) -0.976(3) 0.3551(8)
H17B H 0.0695 -1.1525 0.3329
H18B H 0.1255 -1.0135 0.4109
C17B C 0.0420(5) -0.815(2) 0.3774(7)
H19B H 0.0024 -0.8074 0.3245
H20B H 0.0585 -0.6283 0.3899
C18B C 0.0243(10) -0.902(5) 0.4495(13)
H21B H -0.0063 -0.7731 0.4576
H22B H 0.0046 -1.0811 0.4368
H23B H 0.0626 -0.9099 0.5030
H24? H 0.8235 0.8848 0.7523
C19? C 0.8637(4) 1.1923(17) 0.8237(5)
H25? H 0.8809 1.3696 0.8150
H26? H 0.9004 1.0861 0.8626
C20? C 0.8210(6) 1.245(3) 0.8737(9)
H27? H 0.8451 1.3391 0.9283
H28? H 0.8051 1.0724 0.8873
H29? H 0.7847 1.3563 0.8383
C21? C 0.8913(6) 0.959(3) 0.7036(9)
H30? H 0.9300 0.9179 0.7554
H31? H 0.8754 0.7832 0.6749
C22? C 0.9119(4) 1.097(2) 0.6476(6)
H32? H 0.9282 1.2746 0.6742
H33? H 0.8746 1.1317 0.5932
C23? C 0.9627(5) 0.965(2) 0.6232(7)
H34? H 0.9944 0.8751 0.6748
H35? H 0.9852 1.0998 0.6004
C24? C 0.9274(6) 0.747(3) 0.5492(9)
H36? H 0.9592 0.6527 0.5314
H37? H 0.8965 0.8386 0.4984
H38? H 0.9050 0.6158 0.5725
loop_
_geom_bond_atom_site_label_1
_geom_bond_atom_site_label_2
_geom_bond_site_symmetry_1
_geom_bond_site_symmetry_2
S1 C1 1_555 1_555
S2 C5 1_555 1_555
O1 C2 1_555 1_555
O2 C3 1_555 1_555
C1 C2 1_555 1_555
C2 C3 1_555 1_555
C3 C4 1_555 1_555
C4 S1 1_555 1_555
C5 C4 1_555 1_555
C6 C5 1_555 1_555
H1 C6 1_555 1_555
C7 C6 1_555 1_555
C8 S2 1_555 1_555
H2 C8 1_555 1_555
C9 O1 1_555 1_555
H3 C9 1_555 1_555
H4 C9 1_555 1_555
C10 O2 1_555 1_555
H5 C10 1_555 1_555
H6 C10 1_555 1_555
C11 C7 1_555 1_555
H7 C11 1_555 1_555
H8 C11 1_555 1_555
C12 C11 1_555 1_555
H9 C12 1_555 1_555
C13 C12 1_555 1_555
H10 C13 1_555 1_555
H11 C13 1_555 1_555
C14 C13 1_555 1_555
H12 C14 1_555 1_555
H13 C14 1_555 1_555
H14 C14 1_555 1_555
C15 C12 1_555 1_555
H15 C15 1_555 1_555
H16 C15 1_555 1_555
C16 C15 1_555 1_555
H17 C16 1_555 1_555
H18 C16 1_555 1_555
C17 C16 1_555 1_555
H19 C17 1_555 1_555
H20 C17 1_555 1_555
C18 C17 1_555 1_555
H21 C18 1_555 1_555
H22 C18 1_555 1_555
H23 C18 1_555 1_555
S1B C1B 1_555 1_555
S2B C5B 1_555 1_555
O1B C2B 1_555 1_555
O2B C3B 1_555 1_555
C1B C1 1_555 1_555
C2B C1B 1_555 1_555
C3B C2B 1_555 1_555
C4B S1B 1_555 1_555
C5B C4B 1_555 1_555
C6B C5B 1_555 1_555
H1B C6B 1_555 1_555
C7B C6B 1_555 1_555
C8B S2B 1_555 1_555
H2B C8B 1_555 1_555
C9B O1B 1_555 1_555
H3B C9B 1_555 1_555
H4B C9B 1_555 1_555
C10B O2B 1_555 1_555
H5B C10B 1_555 1_555
H6B C10B 1_555 1_555
C11B C7B 1_555 1_555
H7B C11B 1_555 1_555
H8B C11B 1_555 1_555
C12B C11B 1_555 1_555
H9B C12B 1_555 1_555
C13B C12B 1_555 1_555
H10B C13B 1_555 1_555
H11B C13B 1_555 1_555
C14B C13B 1_555 1_555
H12B C14B 1_555 1_555
H13B C14B 1_555 1_555
H14B C14B 1_555 1_555
C15B C12B 1_555 1_555
H15B C15B 1_555 1_555
H16B C15B 1_555 1_555
C16B C15B 1_555 1_555
H17B C16B 1_555 1_555
H18B C16B 1_555 1_555
C17B C16B 1_555 1_555
H19B C17B 1_555 1_555
H20B C17B 1_555 1_555
C18B C17B 1_555 1_555
H21B C18B 1_555 1_555
H22B C18B 1_555 1_555
H23B C18B 1_555 1_555
C7 C8 1_555 1_555
C9 C10 1_555 1_555
C3B C4B 1_555 1_555
C7B C8B 1_555 1_555
C9B C10B 1_555 1_555

#END
