
#######################################################################
#
#                 Cambridge Crystallographic Data Centre
#                                CCDC 
#
#######################################################################
#
# If this CIF has been generated from an entry in the Cambridge 
# Structural Database, then it will include bibliographic, chemical, 
# crystal, experimental, refinement or atomic coordinate data resulting 
# from the CCDC's data processing and validation procedures.
#
#######################################################################

data_AQILOD
_chemical_formula_moiety         'C11 H12 Cl1 N5 O3 S1'
_chemical_name_systematic        
5-amino-1-((2-chloro-1,3-thiazol-5-yl)methyl)-7a-methyl-6-nitro-1,2,3,7a-tetrahydro-7H-pyrrolo[1,2-a]imidazol-7-one
_symmetry_cell_setting           triclinic
_symmetry_space_group_name_H-M   'P -1'
_symmetry_Int_Tables_number      2
_space_group_name_Hall           '-P 1'
loop_
_symmetry_equiv_pos_site_id
_symmetry_equiv_pos_as_xyz
1 x,y,z
2 -x,-y,-z
_cell_length_a                   6.9360(7)
_cell_length_b                   8.4750(9)
_cell_length_c                   14.6483(15)
_cell_angle_alpha                73.356(2)
_cell_angle_beta                 81.104(2)
_cell_angle_gamma                66.263(2)
_cell_volume                     754.437
_exptl_crystal_colour            colorless
_exptl_crystal_description       prismatic
_cell_formula_units_Z            2
loop_
_atom_site_label
_atom_site_type_symbol
_atom_site_fract_x
_atom_site_fract_y
_atom_site_fract_z
Cl1 Cl 0.4089(5) 0.1996(5) 0.6498(3)
S1 S 0.4173(14) 0.2269(9) 0.4454(5)
C1 C 0.3502(14) 0.3241(11) 0.5377(10)
N1 N 0.0799(3) -0.0098(2) 0.13160(13)
N2 N 0.0963(2) 0.25445(19) 0.13983(11)
N3 N 0.2131(2) 0.3463(2) 0.24336(11)
N4 N 0.5542(2) -0.1287(2) 0.11037(11)
N5 N 0.2552(4) 0.4895(3) 0.51979(16)
O1 O 0.63360(19) 0.18731(19) 0.13224(11)
O2 O 0.4867(2) -0.24175(18) 0.10531(12)
O3 O 0.7442(2) -0.15787(19) 0.10370(11)
C2 C 0.4645(3) 0.1741(2) 0.13342(12)
C3 C 0.4114(3) 0.0349(2) 0.12328(13)
C4 C 0.1882(3) 0.0857(2) 0.13108(12)
C5 C 0.2530(2) 0.3260(2) 0.14512(13)
C6 C -0.0860(3) 0.3161(3) 0.20513(15)
H1 H -0.1134 0.2166 0.2490
H2 H -0.2115 0.3950 0.1702
C7 C -0.0173(3) 0.4144(3) 0.25763(15)
H3 H -0.0785 0.5419 0.2309
H4 H -0.0586 0.3886 0.3249
C8 C 0.3069(3) 0.4564(3) 0.26586(15)
H5 H 0.2295 0.5805 0.2358
H6 H 0.4514 0.4246 0.2404
C9 C 0.3032(3) 0.4326(3) 0.37029(15)
C10 C 0.2389(4) 0.5516(3) 0.42232(18)
H7 H 0.1846 0.6730 0.3938
C11 C 0.2312(3) 0.4933(2) 0.06622(14)
H8 H 0.2498 0.4663 0.0053
H9 H 0.3364 0.5363 0.0718
H10 H 0.0935 0.5828 0.0717
H11 H -0.051(3) 0.033(3) 0.1321(15)
H12 H 0.147(3) -0.108(2) 0.1207(16)
S2? S 0.3609(14) 0.2250(10) 0.4455(5)
Cl2? Cl 0.3210(7) 0.1799(6) 0.6580(3)
C12? C 0.295(3) 0.319(2) 0.5425(18)
loop_
_geom_bond_atom_site_label_1
_geom_bond_atom_site_label_2
_geom_bond_site_symmetry_1
_geom_bond_site_symmetry_2
Cl1 C1 1_555 1_555
S1 C1 1_555 1_555
C1 N5 1_555 1_555
N1 C4 1_555 1_555
N2 C4 1_555 1_555
N3 C5 1_555 1_555
N4 O2 1_555 1_555
N5 C10 1_555 1_555
O1 C2 1_555 1_555
O3 N4 1_555 1_555
C2 C3 1_555 1_555
C3 N4 1_555 1_555
C4 C3 1_555 1_555
C5 N2 1_555 1_555
C6 N2 1_555 1_555
H1 C6 1_555 1_555
H2 C6 1_555 1_555
C7 N3 1_555 1_555
H3 C7 1_555 1_555
H4 C7 1_555 1_555
C8 N3 1_555 1_555
H5 C8 1_555 1_555
H6 C8 1_555 1_555
C9 S1 1_555 1_555
C10 C9 1_555 1_555
H7 C10 1_555 1_555
C11 C5 1_555 1_555
H8 C11 1_555 1_555
H9 C11 1_555 1_555
H10 C11 1_555 1_555
H11 N1 1_555 1_555
H12 N1 1_555 1_555
C2 C5 1_555 1_555
C6 C7 1_555 1_555
C8 C9 1_555 1_555

#END
