
#######################################################################
#
#                 Cambridge Crystallographic Data Centre
#                                CCDC 
#
#######################################################################
#
# If this CIF has been generated from an entry in the Cambridge 
# Structural Database, then it will include bibliographic, chemical, 
# crystal, experimental, refinement or atomic coordinate data resulting 
# from the CCDC's data processing and validation procedures.
#
#######################################################################

data_AQORAA
_chemical_formula_moiety         'C35 H28 N2 S1'
_chemical_name_systematic        
1-(4-t-Butylphenyl)-2-(5-phenyl-2-thienyl)-1H-phenanthro[9,10-d]imidazole
_symmetry_cell_setting           triclinic
_symmetry_space_group_name_H-M   'P -1'
_symmetry_Int_Tables_number      2
_space_group_name_Hall           '-P 1'
loop_
_symmetry_equiv_pos_site_id
_symmetry_equiv_pos_as_xyz
1 x,y,z
2 -x,-y,-z
_cell_length_a                   9.2496(15)
_cell_length_b                   10.8416(17)
_cell_length_c                   14.733(2)
_cell_angle_alpha                97.111(3)
_cell_angle_beta                 108.074(2)
_cell_angle_gamma                97.119(3)
_cell_volume                     1372.94
_exptl_crystal_colour            yellow
_exptl_crystal_description       block
_chemical_melting_point          '280 deg.C'
_cell_formula_units_Z            2
_exptl_crystal_recrystallization_method dichloromethane/n-hexane
loop_
_atom_site_label
_atom_site_type_symbol
_atom_site_fract_x
_atom_site_fract_y
_atom_site_fract_z
S1 S -0.02480(5) 0.34063(4) 1.16902(3)
N1 N -0.18212(16) 0.39807(13) 0.97466(11)
N2 N -0.06312(16) 0.29306(13) 0.88680(10)
C1 C -0.24861(19) 0.40386(15) 0.87836(13)
C2 C -0.37641(19) 0.46438(15) 0.83653(13)
C3 C -0.17854(19) 0.33971(15) 0.82199(13)
C4 C -0.07142(19) 0.33133(15) 0.97750(13)
C5 C -0.2313(2) 0.32359(16) 0.71801(13)
C6 C 0.05000(19) 0.22597(15) 0.86490(13)
C7 C -0.3603(2) 0.38120(17) 0.67488(13)
C8 C 0.2693(2) 0.09700(16) 0.82094(13)
C9 C 0.2029(2) 0.22564(18) 1.18664(15)
H1 H 0.2870 0.1867 1.2124
C10 C -0.4472(2) 0.53084(16) 0.89350(15)
H2 H -0.4092 0.5379 0.9606
C11 C -0.4318(2) 0.45310(16) 0.73460(14)
C12 C 0.1783(2) 0.29176(16) 0.85354(14)
H3 H 0.1926 0.3793 0.8608
C13 C 0.2853(2) 0.22761(16) 0.83136(14)
H4 H 0.3711 0.2730 0.8231
C14 C 0.02438(19) 0.29881(15) 1.06718(13)
C15 C 0.1210(2) 0.27460(16) 1.24052(14)
C16 C 0.0308(2) 0.09664(16) 0.85539(15)
H5 H -0.0556 0.0520 0.8635
C17 C 0.1391(2) 0.03346(16) 0.83398(15)
H6 H 0.1250 -0.0540 0.8280
C18 C 0.1368(2) 0.26967(19) 1.34208(14)
C19 C 0.1495(2) 0.23904(18) 1.08928(15)
H7 H 0.1945 0.2103 1.0441
C20 C -0.5588(2) 0.51224(19) 0.69476(16)
H8 H -0.5974 0.5079 0.6279
C21 C -0.1683(3) 0.2525(2) 0.65772(15)
H9 H -0.0838 0.2151 0.6855
C22 C -0.5716(2) 0.58557(18) 0.85174(16)
H10 H -0.6189 0.6288 0.8899
C23 C 0.0990(3) 0.3623(2) 1.39927(16)
H11 H 0.0660 0.4324 1.3741
C24 C -0.4193(3) 0.3624(2) 0.57313(15)
H12 H -0.5038 0.3988 0.5435
C25 C 0.3879(3) 0.02610(19) 0.79507(17)
C26 C -0.2295(3) 0.2378(2) 0.55899(16)
H13 H -0.1860 0.1911 0.5203
C27 C -0.6262(2) 0.5756(2) 0.75176(17)
H14 H -0.7104 0.6129 0.7231
C28 C -0.3565(3) 0.2923(2) 0.51629(16)
H15 H -0.3987 0.2812 0.4491
C29 C 0.1094(3) 0.3521(3) 1.49372(18)
H16 H 0.0824 0.4149 1.5312
C30 C 0.1876(3) 0.1672(2) 1.38241(17)
H17 H 0.2140 0.1035 1.3454
C31 C 0.1589(3) 0.2509(3) 1.53218(19)
H18 H 0.1655 0.2441 1.5956
C32 C 0.1989(4) 0.1593(3) 1.4767(2)
H19 H 0.2342 0.0907 1.5032
C34 C 0.4184(12) 0.0643(8) 0.7083(6)
H23 H 0.4994 0.0241 0.6968
H24 H 0.4492 0.1542 0.7192
H25 H 0.3263 0.0393 0.6529
C35 C 0.5556(5) 0.0823(5) 0.8821(5)
H26 H 0.5493 0.0629 0.9427
H27 H 0.5786 0.1721 0.8867
H28 H 0.6356 0.0444 0.8670
C37 C 0.3780(7) -0.1023(4) 0.8107(6)
H32 H 0.4517 -0.1412 0.7886
H33 H 0.2759 -0.1477 0.7753
H34 H 0.3998 -0.1041 0.8786
C33? C 0.5018(12) 0.1010(8) 0.7717(11)
H20? H 0.5657 0.1601 0.8282
H21? H 0.4534 0.1460 0.7216
H22? H 0.5640 0.0481 0.7494
C36? C 0.2826(8) -0.0759(6) 0.6956(4)
H29? H 0.3485 -0.1243 0.6729
H30? H 0.2316 -0.0308 0.6463
H31? H 0.2069 -0.1316 0.7102
C38? C 0.4564(14) -0.0398(11) 0.8729(7)
H35? H 0.3764 -0.0922 0.8861
H36? H 0.5152 0.0204 0.9300
H37? H 0.5232 -0.0913 0.8542
loop_
_geom_bond_atom_site_label_1
_geom_bond_atom_site_label_2
_geom_bond_site_symmetry_1
_geom_bond_site_symmetry_2
S1 C14 1_555 1_555
N1 C1 1_555 1_555
N2 C3 1_555 1_555
C1 C2 1_555 1_555
C2 C10 1_555 1_555
C3 C1 1_555 1_555
C4 N1 1_555 1_555
C5 C3 1_555 1_555
C6 N2 1_555 1_555
C7 C5 1_555 1_555
C8 C13 1_555 1_555
C9 H1 1_555 1_555
C10 H2 1_555 1_555
C11 C2 1_555 1_555
C12 C6 1_555 1_555
H3 C12 1_555 1_555
C13 C12 1_555 1_555
H4 C13 1_555 1_555
C14 C4 1_555 1_555
C15 S1 1_555 1_555
C16 C6 1_555 1_555
H5 C16 1_555 1_555
C17 C8 1_555 1_555
H6 C17 1_555 1_555
C18 C15 1_555 1_555
C19 C9 1_555 1_555
H7 C19 1_555 1_555
C20 C11 1_555 1_555
H8 C20 1_555 1_555
C21 C5 1_555 1_555
H9 C21 1_555 1_555
C22 C10 1_555 1_555
H10 C22 1_555 1_555
C23 C18 1_555 1_555
H11 C23 1_555 1_555
C24 C7 1_555 1_555
H12 C24 1_555 1_555
C25 C8 1_555 1_555
C26 C21 1_555 1_555
H13 C26 1_555 1_555
C27 C20 1_555 1_555
H14 C27 1_555 1_555
C28 C24 1_555 1_555
H15 C28 1_555 1_555
C29 C23 1_555 1_555
H16 C29 1_555 1_555
C30 C18 1_555 1_555
H17 C30 1_555 1_555
C31 C29 1_555 1_555
H18 C31 1_555 1_555
C32 C30 1_555 1_555
H19 C32 1_555 1_555
C34 C25 1_555 1_555
H23 C34 1_555 1_555
H24 C34 1_555 1_555
H25 C34 1_555 1_555
C35 C25 1_555 1_555
H26 C35 1_555 1_555
H27 C35 1_555 1_555
H28 C35 1_555 1_555
C37 C25 1_555 1_555
H32 C37 1_555 1_555
H33 C37 1_555 1_555
H34 C37 1_555 1_555
N2 C4 1_555 1_555
C7 C11 1_555 1_555
C9 C15 1_555 1_555
C14 C19 1_555 1_555
C16 C17 1_555 1_555
C22 C27 1_555 1_555
C26 C28 1_555 1_555
C31 C32 1_555 1_555

#END
