
#######################################################################
#
#                 Cambridge Crystallographic Data Centre
#                                CCDC 
#
#######################################################################
#
# If this CIF has been generated from an entry in the Cambridge 
# Structural Database, then it will include bibliographic, chemical, 
# crystal, experimental, refinement or atomic coordinate data resulting 
# from the CCDC's data processing and validation procedures.
#
#######################################################################

data_AQOREE
_chemical_formula_moiety         'C45 H32 N2 S1'
_chemical_name_systematic        
1-(4-t-Butylphenyl)-2-(5-(pyren-1-yl)-2-thienyl)-1H-phenanthro[9,10-d]imidazole
_symmetry_cell_setting           monoclinic
_symmetry_space_group_name_H-M   'P 21/n'
_symmetry_Int_Tables_number      14
_space_group_name_Hall           '-P 2yn'
loop_
_symmetry_equiv_pos_site_id
_symmetry_equiv_pos_as_xyz
1 x,y,z
2 1/2-x,1/2+y,1/2-z
3 -x,-y,-z
4 1/2+x,1/2-y,1/2+z
_cell_length_a                   12.311(2)
_cell_length_b                   12.000(2)
_cell_length_c                   21.848(4)
_cell_angle_alpha                90
_cell_angle_beta                 90.00
_cell_angle_gamma                90
_cell_volume                     3227.65
_exptl_crystal_colour            yellow
_exptl_crystal_description       block
_chemical_melting_point          '249 deg.C'
_cell_formula_units_Z            4
_exptl_crystal_recrystallization_method dichloromethane/n-hexane
loop_
_atom_site_label
_atom_site_type_symbol
_atom_site_fract_x
_atom_site_fract_y
_atom_site_fract_z
S1 S 0.86457(3) 0.48350(3) 0.090438(17)
N1 N 0.89642(9) 0.26399(9) 0.17824(5)
N2 N 0.80422(10) 0.15466(10) 0.11321(5)
C1 C 0.82492(11) -0.02442(12) 0.17153(7)
C2 C 0.93024(11) 0.11683(11) 0.26224(6)
C3 C 0.83922(11) 0.09306(11) 0.16247(6)
C4 C 0.96544(11) 0.35588(11) 0.19527(6)
C5 C 0.76604(11) 0.82048(12) -0.03710(6)
C6 C 0.87493(12) 0.86003(12) -0.03738(7)
C7 C 0.84016(11) 0.25642(11) 0.12378(6)
C8 C 0.86167(11) -0.07005(11) 0.22745(7)
C9 C 1.10060(11) 0.53528(12) 0.22393(6)
C10 C 0.89464(11) 0.15772(11) 0.20376(6)
C11 C 0.91077(11) 0.00164(11) 0.27393(7)
C12 C 0.74275(11) 0.70891(12) -0.01871(6)
C13 C 0.68012(12) 0.89385(12) -0.05436(6)
C14 C 0.82894(12) 0.63978(12) 0.00045(6)
C15 C 0.93417(12) 0.68250(12) 0.00161(7)
H1 H 0.9905 0.6375 0.0155
C16 C 0.97596(12) 0.18315(12) 0.30842(7)
H2 H 0.9894 0.2581 0.3008
C17 C 0.81080(12) 0.52387(12) 0.02096(7)
C18 C 0.82110(11) 0.34768(11) 0.08123(7)
C19 C 0.77818(12) -0.09293(12) 0.12676(7)
H3 H 0.7545 -0.0620 0.0901
C20 C 1.06836(12) 0.36213(12) 0.16979(7)
H4 H 1.0927 0.3068 0.1433
C21 C 0.76716(13) -0.20501(13) 0.13662(8)
H5 H 0.7361 -0.2500 0.1067
C22 C 0.95705(12) 0.78961(13) -0.01728(7)
H6 H 1.0284 0.8150 -0.0166
C23 C 0.84767(12) -0.18590(12) 0.23583(8)
H7 H 0.8698 -0.2183 0.2724
C24 C 0.57107(12) 0.85634(13) -0.05403(7)
C25 C 0.76722(12) 0.33635(13) 0.02698(7)
H8 H 0.7376 0.2694 0.0136
C26 C 0.92971(12) 0.43737(12) 0.23487(7)
H9 H 0.8607 0.4328 0.2520
C27 C 0.99694(12) 0.52587(12) 0.24907(7)
H10 H 0.9725 0.5804 0.2760
C28 C 0.93854(14) -0.03937(13) 0.33199(7)
H11 H 0.9267 -0.1143 0.3406
C29 C 0.70423(14) 1.00487(13) -0.07251(7)
C30 C 0.63101(12) 0.67495(13) -0.01777(7)
H12 H 0.6138 0.6031 -0.0051
C31 C 0.76101(13) 0.43613(13) -0.00662(7)
H13 H 0.7261 0.4416 -0.0442
C32 C 0.61895(16) 1.07425(15) -0.09008(8)
H14 H 0.6337 1.1471 -0.1020
C33 C 0.80244(13) -0.25157(13) 0.19147(8)
H15 H 0.7952 -0.3278 0.1980
C34 C 1.13421(12) 0.45138(13) 0.18418(7)
H16 H 1.2031 0.4556 0.1668
C35 C 0.48871(14) 0.92932(15) -0.07228(8)
H17 H 0.4169 0.9054 -0.0725
C36 C 0.55028(13) 0.74431(14) -0.03473(7)
H18 H 0.4790 0.7187 -0.0339
C37 C 1.00105(14) 0.13938(13) 0.36450(7)
H19 H 1.0306 0.1847 0.3948
C38 C 0.81523(15) 1.04025(14) -0.07347(8)
H20 H 0.8315 1.1126 -0.0856
C39 C 0.98229(15) 0.02716(14) 0.37617(8)
H21 H 0.9996 -0.0026 0.4142
C40 C 1.17725(13) 0.63218(13) 0.23848(7)
C41 C 0.89590(14) 0.97203(13) -0.05745(8)
H22 H 0.9672 0.9975 -0.0593
C42 C 0.51344(16) 1.03671(16) -0.09001(8)
H23 H 0.4579 1.0844 -0.1021
C43 C 1.12926(16) 0.71350(17) 0.28493(10)
H24 H 1.0658 0.7481 0.2679
H25 H 1.1821 0.7696 0.2947
H26 H 1.1097 0.6739 0.3215
C44 C 1.28284(14) 0.58475(18) 0.26561(10)
H27 H 1.2662 0.5415 0.3014
H28 H 1.3304 0.6449 0.2766
H29 H 1.3179 0.5382 0.2358
C45 C 1.2026(2) 0.69567(17) 0.17962(9)
H30 H 1.2372 0.6465 0.1510
H31 H 1.2501 0.7569 0.1886
H32 H 1.1363 0.7235 0.1623
loop_
_geom_bond_atom_site_label_1
_geom_bond_atom_site_label_2
_geom_bond_site_symmetry_1
_geom_bond_site_symmetry_2
S1 C17 1_555 1_555
N1 C4 1_555 1_555
N2 C3 1_555 1_555
C1 C3 1_555 1_555
C2 C10 1_555 1_555
C3 C10 1_555 1_555
C4 C20 1_555 1_555
C5 C6 1_555 1_555
C6 C22 1_555 1_555
C7 N1 1_555 1_555
C8 C1 1_555 1_555
C9 C27 1_555 1_555
C10 N1 1_555 1_555
C11 C2 1_555 1_555
C12 C5 1_555 1_555
C13 C5 1_555 1_555
C14 C12 1_555 1_555
C15 C14 1_555 1_555
H1 C15 1_555 1_555
C16 C2 1_555 1_555
H2 C16 1_555 1_555
C17 C14 1_555 1_555
C18 S1 1_555 1_555
C19 C1 1_555 1_555
H3 C19 1_555 1_555
C20 H4 1_555 1_555
C21 C19 1_555 1_555
H5 C21 1_555 1_555
C22 C15 1_555 1_555
H6 C22 1_555 1_555
C23 C8 1_555 1_555
H7 C23 1_555 1_555
C24 C13 1_555 1_555
C25 C18 1_555 1_555
H8 C25 1_555 1_555
C26 C4 1_555 1_555
H9 C26 1_555 1_555
C27 C26 1_555 1_555
H10 C27 1_555 1_555
C28 C11 1_555 1_555
H11 C28 1_555 1_555
C29 C13 1_555 1_555
C30 C12 1_555 1_555
H12 C30 1_555 1_555
C31 C17 1_555 1_555
H13 C31 1_555 1_555
C32 C29 1_555 1_555
H14 C32 1_555 1_555
C33 C21 1_555 1_555
H15 C33 1_555 1_555
C34 C9 1_555 1_555
H16 C34 1_555 1_555
C35 C24 1_555 1_555
H17 C35 1_555 1_555
C36 C24 1_555 1_555
H18 C36 1_555 1_555
C37 C16 1_555 1_555
H19 C37 1_555 1_555
C38 C29 1_555 1_555
H20 C38 1_555 1_555
C39 C28 1_555 1_555
H21 C39 1_555 1_555
C40 C9 1_555 1_555
C41 C6 1_555 1_555
H22 C41 1_555 1_555
C42 C32 1_555 1_555
H23 C42 1_555 1_555
C43 C40 1_555 1_555
H24 C43 1_555 1_555
H25 C43 1_555 1_555
H26 C43 1_555 1_555
C44 C40 1_555 1_555
H27 C44 1_555 1_555
H28 C44 1_555 1_555
H29 C44 1_555 1_555
C45 C40 1_555 1_555
H30 C45 1_555 1_555
H31 C45 1_555 1_555
H32 C45 1_555 1_555
N2 C7 1_555 1_555
C7 C18 1_555 1_555
C8 C11 1_555 1_555
C20 C34 1_555 1_555
C23 C33 1_555 1_555
C25 C31 1_555 1_555
C30 C36 1_555 1_555
C35 C42 1_555 1_555
C37 C39 1_555 1_555
C38 C41 1_555 1_555

#END
