
#######################################################################
#
#                 Cambridge Crystallographic Data Centre
#                                CCDC 
#
#######################################################################
#
# If this CIF has been generated from an entry in the Cambridge 
# Structural Database, then it will include bibliographic, chemical, 
# crystal, experimental, refinement or atomic coordinate data resulting 
# from the CCDC's data processing and validation procedures.
#
#######################################################################

data_AQOVUX
_chemical_formula_moiety         'C7 H14 N3 O4 1+,Cl1 1-'
_chemical_name_systematic        'Alanyl-glycyl-glycine hydrochloride'
_symmetry_cell_setting           orthorhombic
_symmetry_space_group_name_H-M   'P 21 21 21'
_symmetry_Int_Tables_number      19
_space_group_name_Hall           'P 2ac 2ab'
loop_
_symmetry_equiv_pos_site_id
_symmetry_equiv_pos_as_xyz
1 x,y,z
2 1/2-x,-y,1/2+z
3 -x,1/2+y,1/2-z
4 1/2+x,1/2-y,-z
_cell_length_a                   5.2258(5)
_cell_length_b                   8.7007(9)
_cell_length_c                   22.970(2)
_cell_angle_alpha                90
_cell_angle_beta                 90
_cell_angle_gamma                90
_cell_volume                     1044.4
_exptl_crystal_colour            colorless
_exptl_crystal_description       block
_cell_formula_units_Z            4
loop_
_atom_site_label
_atom_site_type_symbol
_atom_site_fract_x
_atom_site_fract_y
_atom_site_fract_z
O1 O 0.6354(4) 0.2185(2) 0.04697(9)
O2 O 0.8267(4) 0.0131(3) 0.21160(9)
O3 O 0.6092(5) -0.2594(3) 0.32138(9)
O4 O 0.8237(4) -0.3303(3) 0.24111(10)
H1 H 0.923(10) -0.382(6) 0.268(2)
N1 N 0.8832(6) 0.4909(3) 0.02787(12)
H2 H 0.983(8) 0.576(5) 0.0258(16)
H3 H 0.917(9) 0.438(5) -0.0021(17)
H4 H 0.718(9) 0.525(5) 0.0307(18)
N2 N 0.9685(5) 0.1235(3) 0.10041(11)
H5 H 1.113(8) 0.149(4) 0.1190(16)
N3 N 0.5483(5) -0.1490(3) 0.17117(12)
H6 H 0.500(7) -0.197(4) 0.1396(16)
C1 C 0.8402(6) 0.2354(3) 0.07299(13)
C2 C 0.9669(6) 0.3926(4) 0.07771(14)
H7 H 1.138(7) 0.385(3) 0.0728(13)
C3 C 0.8968(7) 0.4721(4) 0.13423(13)
H8 H 0.9732 0.5749 0.1350
H9 H 0.9615 0.4118 0.1671
H10 H 0.7102 0.4808 0.1371
C4 C 0.8645(7) -0.0304(3) 0.10781(13)
H11 H 1.0033 -0.1067 0.1027
H12 H 0.7342 -0.0496 0.0774
C5 C 0.7433(6) -0.0517(3) 0.16751(13)
C6 C 0.4426(5) -0.1887(4) 0.22775(13)
H13 H 0.2982 -0.2608 0.2220
H14 H 0.3736 -0.0945 0.2461
C7 C 0.6342(7) -0.2616(3) 0.26888(13)
Cl1 Cl 0.37687(14) 0.68926(8) 0.05423(3)
loop_
_geom_bond_atom_site_label_1
_geom_bond_atom_site_label_2
_geom_bond_site_symmetry_1
_geom_bond_site_symmetry_2
O1 C1 1_555 1_555
O2 C5 1_555 1_555
O3 C7 1_555 1_555
O4 H1 1_555 1_555
N1 H2 1_555 1_555
H3 N1 1_555 1_555
H4 N1 1_555 1_555
N2 H5 1_555 1_555
N3 H6 1_555 1_555
C1 N2 1_555 1_555
C2 N1 1_555 1_555
H7 C2 1_555 1_555
C3 C2 1_555 1_555
H8 C3 1_555 1_555
H9 C3 1_555 1_555
H10 C3 1_555 1_555
C4 N2 1_555 1_555
H11 C4 1_555 1_555
H12 C4 1_555 1_555
C5 N3 1_555 1_555
C6 N3 1_555 1_555
H13 C6 1_555 1_555
H14 C6 1_555 1_555
C7 O4 1_555 1_555
C1 C2 1_555 1_555
C4 C5 1_555 1_555
C6 C7 1_555 1_555

#END
