
#######################################################################
#
#                 Cambridge Crystallographic Data Centre
#                                CCDC 
#
#######################################################################
#
# If this CIF has been generated from an entry in the Cambridge 
# Structural Database, then it will include bibliographic, chemical, 
# crystal, experimental, refinement or atomic coordinate data resulting 
# from the CCDC's data processing and validation procedures.
#
#######################################################################

data_AQOWAE
_chemical_formula_moiety         'C9 H18 N3 O4 1+,Cl1 1-'
_chemical_name_systematic        'glycyl-glycyl-valine hydrochloride'
_symmetry_cell_setting           orthorhombic
_symmetry_space_group_name_H-M   'P 21 21 21'
_symmetry_Int_Tables_number      19
_space_group_name_Hall           'P 2ac 2ab'
loop_
_symmetry_equiv_pos_site_id
_symmetry_equiv_pos_as_xyz
1 x,y,z
2 1/2-x,-y,1/2+z
3 -x,1/2+y,1/2-z
4 1/2+x,1/2-y,-z
_cell_length_a                   6.9890(8)
_cell_length_b                   8.2684(10)
_cell_length_c                   21.834(3)
_cell_angle_alpha                90
_cell_angle_beta                 90
_cell_angle_gamma                90
_cell_volume                     1261.74
_exptl_crystal_colour            colorless
_exptl_crystal_description       plate
_cell_formula_units_Z            4
loop_
_atom_site_label
_atom_site_type_symbol
_atom_site_fract_x
_atom_site_fract_y
_atom_site_fract_z
O1 O 0.88247(13) 0.21185(11) 0.80008(4)
O2 O 0.25346(14) 0.11938(10) 0.88398(4)
O3 O -0.02803(14) 0.57366(10) 0.82543(4)
O4 O -0.23272(15) 0.53718(12) 0.90324(4)
H1 H -0.310(3) 0.592(2) 0.8803(9)
N1 N 1.07264(17) -0.06723(14) 0.79599(6)
H2 H 1.086(2) -0.026(2) 0.7598(9)
H3 H 1.135(2) -0.014(2) 0.8233(8)
H4 H 1.128(3) -0.168(2) 0.7952(9)
N2 N 0.59881(16) 0.10170(14) 0.82712(6)
H5 H 0.541(2) 0.023(2) 0.8356(7)
N3 N 0.24653(17) 0.39363(13) 0.87986(5)
H6 H 0.304(2) 0.475(2) 0.8670(7)
C1 C 0.8696(2) -0.07471(17) 0.81313(7)
H7 H 0.811(2) -0.144(2) 0.7860(8)
H8 H 0.855(3) -0.123(2) 0.8530(8)
C2 C 0.78320(19) 0.09412(15) 0.81222(6)
C3 C 0.50062(19) 0.25549(15) 0.82776(7)
H9 H 0.463(2) 0.283(2) 0.7863(8)
H10 H 0.584(2) 0.3293(18) 0.8429(7)
C4 C 0.32195(18) 0.24988(15) 0.86702(6)
C5 C 0.06865(19) 0.41304(15) 0.91271(6)
H11 H 0.011(2) 0.3051(19) 0.9167(7)
C6 C -0.06748(19) 0.51627(15) 0.87508(6)
C7 C 0.0958(2) 0.48289(18) 0.97780(6)
H12 H -0.028(2) 0.4704(17) 0.9965(6)
C8 C 0.1626(3) 0.6583(2) 0.97688(8)
H13 H 0.075(3) 0.725(2) 0.9570(8)
H14 H 0.288(3) 0.665(2) 0.9579(8)
H15 H 0.171(3) 0.696(2) 1.0193(9)
C9 C 0.2343(3) 0.3764(2) 1.01359(8)
H16 H 0.205(3) 0.263(3) 1.0120(9)
H17 H 0.367(3) 0.384(2) 0.9961(8)
H18 H 0.239(3) 0.413(2) 1.0546(10)
Cl1 Cl 0.46354(5) 0.71662(4) 0.833359(15)
loop_
_geom_bond_atom_site_label_1
_geom_bond_atom_site_label_2
_geom_bond_site_symmetry_1
_geom_bond_site_symmetry_2
O1 C2 1_555 1_555
O2 C4 1_555 1_555
O3 C6 1_555 1_555
O4 H1 1_555 1_555
N1 H2 1_555 1_555
H3 N1 1_555 1_555
H4 N1 1_555 1_555
N2 H5 1_555 1_555
N3 H6 1_555 1_555
C1 N1 1_555 1_555
H7 C1 1_555 1_555
H8 C1 1_555 1_555
C2 N2 1_555 1_555
C3 N2 1_555 1_555
H9 C3 1_555 1_555
H10 C3 1_555 1_555
C4 N3 1_555 1_555
C5 N3 1_555 1_555
H11 C5 1_555 1_555
C6 O4 1_555 1_555
C7 C5 1_555 1_555
H12 C7 1_555 1_555
C8 C7 1_555 1_555
H13 C8 1_555 1_555
H14 C8 1_555 1_555
H15 C8 1_555 1_555
C9 C7 1_555 1_555
H16 C9 1_555 1_555
H17 C9 1_555 1_555
H18 C9 1_555 1_555
C1 C2 1_555 1_555
C3 C4 1_555 1_555
C5 C6 1_555 1_555

#END
