
#######################################################################
#
#                 Cambridge Crystallographic Data Centre
#                                CCDC 
#
#######################################################################
#
# If this CIF has been generated from an entry in the Cambridge 
# Structural Database, then it will include bibliographic, chemical, 
# crystal, experimental, refinement or atomic coordinate data resulting 
# from the CCDC's data processing and validation procedures.
#
#######################################################################

data_ARAGUW
_chemical_formula_moiety         'C34 H31 N1 O4'
_chemical_name_systematic        
4,8-bis(4-methoxyphenyl)-6-methyl-1,2-diphenyl-1,2,4,5-tetrahydrofuro[3,4-d][1,2]oxazepine
_symmetry_cell_setting           monoclinic
_symmetry_space_group_name_H-M   'P 21/c'
_symmetry_Int_Tables_number      14
_space_group_name_Hall           '-P 2ybc'
loop_
_symmetry_equiv_pos_site_id
_symmetry_equiv_pos_as_xyz
1 x,y,z
2 -x,1/2+y,1/2-z
3 -x,-y,-z
4 x,1/2-y,1/2+z
_cell_length_a                   13.3634(5)
_cell_length_b                   24.9001(9)
_cell_length_c                   7.9690(3)
_cell_angle_alpha                90
_cell_angle_beta                 98.6120(10)
_cell_angle_gamma                90
_cell_volume                     2621.79
_exptl_crystal_colour            colorless
_exptl_crystal_description       block
_cell_formula_units_Z            4
loop_
_atom_site_label
_atom_site_type_symbol
_atom_site_fract_x
_atom_site_fract_y
_atom_site_fract_z
N1 N -0.17383(10) 0.60513(5) 0.16586(17)
O1 O -0.52411(10) 0.40688(6) 0.48987(18)
O2 O -0.20603(8) 0.57297(4) 0.29566(14)
O3 O 0.13677(8) 0.53047(4) 0.14543(14)
O4 O 0.35555(9) 0.73829(5) -0.05645(17)
C1 C -0.27580(13) 0.46142(7) 0.4673(2)
H1 H -0.2112 0.4611 0.5360
C2 C -0.35596(14) 0.43538(7) 0.5232(2)
H2 H -0.3459 0.4177 0.6301
C3 C -0.45044(13) 0.43476(7) 0.4255(2)
C4 C -0.46448(14) 0.46117(8) 0.2712(2)
H3 H -0.5291 0.4613 0.2027
C5 C -0.38349(13) 0.48752(8) 0.2171(2)
H4 H -0.3939 0.5058 0.1112
C6 C -0.28801(12) 0.48801(6) 0.3125(2)
C7 C -0.20275(12) 0.51685(6) 0.2448(2)
H5 H -0.2149 0.5149 0.1180
C8 C -0.09807(12) 0.49486(7) 0.3081(2)
H6 H -0.0852 0.4983 0.4333
H7 H -0.0975 0.4561 0.2808
C9 C -0.01255(12) 0.52155(6) 0.2365(2)
C10 C 0.00256(12) 0.57757(6) 0.1997(2)
C11 C -0.06921(12) 0.62353(6) 0.2184(2)
H8 H -0.0559 0.6517 0.1350
C12 C -0.05044(12) 0.64991(6) 0.3945(2)
C13 C 0.04159(13) 0.64376(7) 0.5006(2)
H9 H 0.0924 0.6215 0.4656
C14 C 0.06036(13) 0.66954(7) 0.6563(2)
H10 H 0.1234 0.6646 0.7273
C15 C -0.01235(14) 0.70247(7) 0.7088(2)
H11 H 0.0005 0.7205 0.8150
C16 C -0.10393(14) 0.70875(7) 0.6047(2)
H12 H -0.1544 0.7313 0.6397
C17 C -0.12316(13) 0.68261(7) 0.4497(2)
H13 H -0.1869 0.6871 0.3803
C18 C -0.34682(13) 0.64057(8) 0.1465(2)
H14 H -0.3607 0.6164 0.2325
C19 C -0.42176(14) 0.67490(8) 0.0705(3)
H15 H -0.4863 0.6746 0.1069
C20 C -0.40448(14) 0.70960(8) -0.0573(3)
H16 H -0.4563 0.7331 -0.1083
C21 C -0.31058(14) 0.70949(7) -0.1093(2)
H17 H -0.2980 0.7329 -0.1979
C22 C -0.23441(13) 0.67581(7) -0.0343(2)
H18 H -0.1704 0.6761 -0.0724
C23 C -0.25114(12) 0.64139(6) 0.0969(2)
C24 C 0.07017(12) 0.49532(7) 0.2019(2)
C25 C 0.09419(12) 0.58095(6) 0.1454(2)
C26 C 0.15807(12) 0.62368(7) 0.0923(2)
C27 C 0.14335(12) 0.67803(7) 0.1237(2)
H19 H 0.0885 0.6884 0.1799
C28 C 0.20682(13) 0.71724(7) 0.0748(2)
H20 H 0.1947 0.7540 0.0967
C29 C 0.28778(12) 0.70293(7) -0.0058(2)
C30 C 0.30385(13) 0.64902(7) -0.0390(2)
H21 H 0.3588 0.6388 -0.0951
C31 C 0.24019(12) 0.61038(7) 0.0096(2)
H22 H 0.2523 0.5737 -0.0136
C32 C -0.62200(15) 0.40568(9) 0.3904(3)
H23 H -0.6679 0.3845 0.4493
H24 H -0.6175 0.3893 0.2800
H25 H -0.6479 0.4424 0.3735
C33 C 0.34956(15) 0.79306(7) -0.0057(3)
H26 H 0.4023 0.8140 -0.0492
H27 H 0.3594 0.7952 0.1185
H28 H 0.2829 0.8076 -0.0515
C34 C 0.10558(13) 0.43872(7) 0.2230(2)
H29 H 0.0532 0.4168 0.2637
H30 H 0.1677 0.4373 0.3056
H31 H 0.1191 0.4248 0.1136
loop_
_geom_bond_atom_site_label_1
_geom_bond_atom_site_label_2
_geom_bond_site_symmetry_1
_geom_bond_site_symmetry_2
N1 O2 1_555 1_555
O1 C3 1_555 1_555
O2 C7 1_555 1_555
O3 C24 1_555 1_555
O4 C29 1_555 1_555
C1 H1 1_555 1_555
C2 C1 1_555 1_555
H2 C2 1_555 1_555
C3 C2 1_555 1_555
C4 C3 1_555 1_555
H3 C4 1_555 1_555
C5 C4 1_555 1_555
H4 C5 1_555 1_555
C6 C1 1_555 1_555
C7 C6 1_555 1_555
H5 C7 1_555 1_555
C8 C7 1_555 1_555
H6 C8 1_555 1_555
H7 C8 1_555 1_555
C9 C8 1_555 1_555
C10 C9 1_555 1_555
C11 N1 1_555 1_555
H8 C11 1_555 1_555
C12 C11 1_555 1_555
C13 C12 1_555 1_555
H9 C13 1_555 1_555
C14 C13 1_555 1_555
H10 C14 1_555 1_555
C15 C14 1_555 1_555
H11 C15 1_555 1_555
C16 C15 1_555 1_555
H12 C16 1_555 1_555
C17 C12 1_555 1_555
H13 C17 1_555 1_555
C18 H14 1_555 1_555
C19 C18 1_555 1_555
H15 C19 1_555 1_555
C20 C19 1_555 1_555
H16 C20 1_555 1_555
C21 C20 1_555 1_555
H17 C21 1_555 1_555
C22 C21 1_555 1_555
H18 C22 1_555 1_555
C23 N1 1_555 1_555
C24 C9 1_555 1_555
C25 O3 1_555 1_555
C26 C25 1_555 1_555
C27 C26 1_555 1_555
H19 C27 1_555 1_555
C28 C27 1_555 1_555
H20 C28 1_555 1_555
C29 C28 1_555 1_555
C30 C29 1_555 1_555
H21 C30 1_555 1_555
C31 C26 1_555 1_555
H22 C31 1_555 1_555
C32 O1 1_555 1_555
H23 C32 1_555 1_555
H24 C32 1_555 1_555
H25 C32 1_555 1_555
C33 O4 1_555 1_555
H26 C33 1_555 1_555
H27 C33 1_555 1_555
H28 C33 1_555 1_555
C34 C24 1_555 1_555
H29 C34 1_555 1_555
H30 C34 1_555 1_555
H31 C34 1_555 1_555
C5 C6 1_555 1_555
C10 C11 1_555 1_555
C10 C25 1_555 1_555
C16 C17 1_555 1_555
C18 C23 1_555 1_555
C22 C23 1_555 1_555
C30 C31 1_555 1_555

#END
