
#######################################################################
#
#                 Cambridge Crystallographic Data Centre
#                                CCDC 
#
#######################################################################
#
# If this CIF has been generated from an entry in the Cambridge 
# Structural Database, then it will include bibliographic, chemical, 
# crystal, experimental, refinement or atomic coordinate data resulting 
# from the CCDC's data processing and validation procedures.
#
#######################################################################

data_ARALOW
_chemical_formula_moiety         'C56 H48 N2 O2'
_chemical_name_systematic        
6,15-Dihexyl-7,16-diphenyl-6,15-dihydroindeno[1,2-b]indeno[2',1':5,6]indolo[2,3-h]carbazole-9,18-dione
_symmetry_cell_setting           monoclinic
_symmetry_space_group_name_H-M   'P 21/c'
_symmetry_Int_Tables_number      14
_space_group_name_Hall           '-P 2ybc'
loop_
_symmetry_equiv_pos_site_id
_symmetry_equiv_pos_as_xyz
1 x,y,z
2 -x,1/2+y,1/2-z
3 -x,-y,-z
4 x,1/2-y,1/2+z
_cell_length_a                   10.9788(8)
_cell_length_b                   25.286(3)
_cell_length_c                   16.0994(7)
_cell_angle_alpha                90
_cell_angle_beta                 100.188(6)
_cell_angle_gamma                90
_cell_volume                     4398.88
_exptl_crystal_colour            orange
_exptl_crystal_description       plate
_cell_formula_units_Z            4
_exptl_crystal_preparation       Luminescent
loop_
_atom_site_label
_atom_site_type_symbol
_atom_site_fract_x
_atom_site_fract_y
_atom_site_fract_z
C1 C 0.0681(3) 0.45397(13) 0.00294(16)
C2 C 0.0290(3) 0.47400(13) 0.07631(16)
C3 C 0.0397(3) 0.47973(13) -0.07503(16)
C4 C 0.2331(3) 0.31545(13) 0.11440(18)
N1 N 0.0686(3) 0.43882(12) 0.14267(14)
C5 C 0.2372(3) 0.32194(13) 0.02793(17)
C6 C 0.1322(3) 0.40465(13) 0.02622(16)
C7 C 0.0846(3) 0.45592(13) -0.14972(16)
O1 O 0.3227(2) 0.26761(10) -0.07112(14)
C8 C 0.1873(3) 0.36577(13) -0.01590(18)
H1 H 0.1904 0.3694 -0.0730
C9 C 0.3035(3) 0.27656(13) -0.0002(2)
C10 C 0.2992(3) 0.26628(13) 0.14377(19)
C11 C 0.1291(3) 0.39712(14) 0.11332(17)
C12 C 0.2054(3) 0.46282(14) -0.16036(18)
H2 H 0.2588 0.4836 -0.1225
C13 C 0.1799(3) 0.35275(13) 0.15821(18)
H3 H 0.1777 0.3487 0.2153
C14 C 0.3446(3) 0.24363(14) 0.0766(2)
C15 C 0.1685(4) 0.40927(17) -0.2836(2)
H4 H 0.1968 0.3936 -0.3289
C16 C 0.0483(4) 0.40248(16) -0.2741(2)
H5 H -0.0052 0.3825 -0.3131
C17 C 0.0065(3) 0.42526(14) -0.20696(18)
H6 H -0.0749 0.4200 -0.2000
C18 C 0.2472(3) 0.43889(16) -0.2272(2)
H7 H 0.3292 0.4430 -0.2337
C19 C 0.4165(3) 0.19900(15) 0.0873(2)
H8 H 0.4480 0.1846 0.0424
C20 C 0.3931(4) 0.19717(17) 0.2319(3)
H9 H 0.4082 0.1805 0.2842
C21 C 0.3229(3) 0.24259(16) 0.2223(2)
H10 H 0.2922 0.2570 0.2676
C22 C 0.4412(4) 0.17586(16) 0.1662(3)
H11 H 0.4906 0.1458 0.1749
C23 C 0.0423(12) 0.3115(5) 0.5089(7)
H12 H 0.0041 0.2871 0.4664
H13 H 0.0125 0.3049 0.5605
H14 H 0.1304 0.3069 0.5181
C24 C 0.0911(7) 0.4472(4) 0.2916(5)
H15 H 0.1084 0.4844 0.2846
H16 H 0.1676 0.4277 0.2935
C25 C 0.0420(9) 0.4391(4) 0.3778(5)
H17 H 0.1013 0.4588 0.4179
H18 H -0.0330 0.4602 0.3697
C26 C 0.0016(10) 0.4294(4) 0.2210(5)
H19 H -0.0742 0.4498 0.2156
H20 H -0.0177 0.3923 0.2267
C27 C 0.0501(10) 0.3749(4) 0.3955(5)
H21 H 0.0472 0.3423 0.3634
H22 H 0.1335 0.3890 0.4032
C28 C 0.0119(14) 0.3648(4) 0.4812(6)
H23 H 0.0543 0.3895 0.5225
H24 H -0.0764 0.3704 0.4766
C1B C -0.0681(3) 0.54603(13) -0.00294(16)
C2B C -0.0290(3) 0.52600(13) -0.07631(16)
C3B C -0.0397(3) 0.52027(13) 0.07503(16)
C4B C -0.2331(3) 0.68455(13) -0.11440(18)
N1B N -0.0686(3) 0.56118(12) -0.14267(14)
C5B C -0.2372(3) 0.67806(13) -0.02793(17)
C6B C -0.1322(3) 0.59535(13) -0.02622(16)
C7B C -0.0846(3) 0.54408(13) 0.14972(16)
O1B O -0.3227(2) 0.73239(10) 0.07112(14)
C8B C -0.1873(3) 0.63423(13) 0.01590(18)
H1B H -0.1904 0.6306 0.0730
C9B C -0.3035(3) 0.72344(13) 0.0002(2)
C10B C -0.2992(3) 0.73372(13) -0.14377(19)
C11B C -0.1291(3) 0.60288(14) -0.11332(17)
C12B C -0.2054(3) 0.53718(14) 0.16036(18)
H2B H -0.2588 0.5164 0.1225
C13B C -0.1799(3) 0.64725(13) -0.15821(18)
H3B H -0.1777 0.6513 -0.2153
C14B C -0.3446(3) 0.75637(14) -0.0766(2)
C15B C -0.1685(4) 0.59073(17) 0.2836(2)
H4B H -0.1968 0.6064 0.3289
C16B C -0.0483(4) 0.59752(16) 0.2741(2)
H5B H 0.0052 0.6175 0.3131
C17B C -0.0065(3) 0.57474(14) 0.20696(18)
H6B H 0.0749 0.5800 0.2000
C18B C -0.2472(3) 0.56111(16) 0.2272(2)
H7B H -0.3292 0.5570 0.2337
C19B C -0.4165(3) 0.80100(15) -0.0873(2)
H8B H -0.4480 0.8154 -0.0424
C20B C -0.3931(4) 0.80283(17) -0.2319(3)
H9B H -0.4082 0.8195 -0.2842
C21B C -0.3229(3) 0.75741(16) -0.2223(2)
H10B H -0.2922 0.7430 -0.2676
C22B C -0.4412(4) 0.82414(16) -0.1662(3)
H11B H -0.4906 0.8542 -0.1749
C23B C -0.0423(12) 0.6885(5) -0.5089(7)
H12B H -0.0041 0.7129 -0.4664
H13B H -0.0125 0.6951 -0.5605
H14B H -0.1304 0.6931 -0.5181
C24B C -0.0911(7) 0.5528(4) -0.2916(5)
H15B H -0.1084 0.5156 -0.2846
H16B H -0.1676 0.5723 -0.2935
C25B C -0.0420(9) 0.5609(4) -0.3778(5)
H17B H -0.1013 0.5412 -0.4179
H18B H 0.0330 0.5398 -0.3697
C26B C -0.0016(10) 0.5706(4) -0.2210(5)
H19B H 0.0742 0.5502 -0.2156
H20B H 0.0177 0.6077 -0.2267
C27B C -0.0501(10) 0.6251(4) -0.3955(5)
H21B H -0.0472 0.6577 -0.3634
H22B H -0.1335 0.6110 -0.4032
C28B C -0.0119(14) 0.6352(4) -0.4812(6)
H23B H -0.0543 0.6105 -0.5225
H24B H 0.0764 0.6296 -0.4766
N2 N 0.5089(3) 0.43199(12) 0.13572(15)
O2 O 0.2657(2) 0.61193(13) 0.34054(16)
C29 C 0.4539(3) 0.51169(14) 0.07190(17)
C30 C 0.3695(3) 0.54922(14) 0.20317(18)
H25 H 0.3450 0.5823 0.1812
C31 C 0.4210(3) 0.51196(14) 0.15571(18)
C32 C 0.5104(3) 0.46194(14) 0.06241(18)
C33 C 0.3560(3) 0.53534(15) 0.28361(18)
C34 C 0.3764(3) 0.60104(14) 0.02278(18)
C35 C 0.3923(3) 0.48579(16) 0.3184(2)
C36 C 0.3122(3) 0.53219(18) 0.4222(2)
C37 C 0.4569(3) 0.46230(15) 0.19145(19)
C38 C 0.4418(3) 0.55093(13) 0.00950(18)
C39 C 0.3056(3) 0.56683(19) 0.3473(2)
C40 C 0.3648(3) 0.48399(18) 0.4053(2)
C41 C 0.4415(3) 0.64585(16) 0.0524(2)
H26 H 0.5275 0.6452 0.0626
C42 C 0.2773(4) 0.5418(2) 0.4992(2)
H27 H 0.2425 0.5740 0.5103
C43 C 0.4429(3) 0.44863(16) 0.2737(2)
H28 H 0.4670 0.4157 0.2966
C44 C 0.1870(4) 0.6482(2) 0.0242(3)
H29 H 0.1009 0.6487 0.0154
C45 C 0.2481(3) 0.60286(16) 0.0095(2)
H30 H 0.2029 0.5728 -0.0097
C46 C 0.3806(4) 0.69146(17) 0.0671(2)
H31 H 0.4253 0.7215 0.0872
C47 C 0.2955(4) 0.5022(2) 0.5591(3)
H32 H 0.2726 0.5079 0.6113
C48 C 0.2522(4) 0.6925(2) 0.0517(3)
H33 H 0.2107 0.7236 0.0603
C49 C 0.3821(4) 0.4450(2) 0.4653(2)
H34 H 0.4169 0.4127 0.4544
C50 C 0.3468(4) 0.4545(2) 0.5430(3)
H35 H 0.3579 0.4284 0.5844
C51 C 0.6663(6) 0.3668(3) 0.1999(4)
H36 H 0.6773 0.3819 0.2561
H37 H 0.7300 0.3797 0.1703
C52 C 0.6868(16) 0.3132(6) 0.2414(9)
H38 H 0.7436 0.3400 0.2682
H39 H 0.6622 0.2910 0.2847
C53 C 0.7412(15) 0.2832(6) 0.1861(9)
H40 H 0.7238 0.3031 0.1338
H41 H 0.6886 0.2521 0.1766
C54 C 0.8262(11) 0.2398(5) 0.2340(9)
H42 H 0.7997 0.2308 0.1751
H43 H 0.7875 0.2155 0.2680
C55 C 0.9579(11) 0.2363(4) 0.2562(7)
H44 H 0.9826 0.2427 0.3156
H45 H 0.9952 0.2623 0.2251
H46 H 0.9844 0.2017 0.2428
C56 C 0.5340(5) 0.3757(2) 0.1494(3)
H47 H 0.5258 0.3579 0.0953
H48 H 0.4739 0.3606 0.1801
N2B N 0.4911(3) 0.56801(12) -0.13572(15)
O2B O 0.7343(2) 0.38807(13) -0.34054(16)
C29B C 0.5461(3) 0.48831(14) -0.07190(17)
C30B C 0.6305(3) 0.45078(14) -0.20317(18)
H25B H 0.6550 0.4177 -0.1812
C31B C 0.5790(3) 0.48804(14) -0.15571(18)
C32B C 0.4896(3) 0.53806(14) -0.06241(18)
C33B C 0.6440(3) 0.46466(15) -0.28361(18)
C34B C 0.6236(3) 0.39896(14) -0.02278(18)
C35B C 0.6077(3) 0.51421(16) -0.3184(2)
C36B C 0.6878(3) 0.46781(18) -0.4222(2)
C37B C 0.5431(3) 0.53770(15) -0.19145(19)
C38B C 0.5582(3) 0.44907(13) -0.00950(18)
C39B C 0.6944(3) 0.43317(19) -0.3473(2)
C40B C 0.6352(3) 0.51601(18) -0.4053(2)
C41B C 0.5585(3) 0.35415(16) -0.0524(2)
H26B H 0.4725 0.3548 -0.0626
C42B C 0.7227(4) 0.4582(2) -0.4992(2)
H27B H 0.7575 0.4260 -0.5103
C43B C 0.5571(3) 0.55137(16) -0.2737(2)
H28B H 0.5330 0.5843 -0.2966
C44B C 0.8130(4) 0.3518(2) -0.0242(3)
H29B H 0.8991 0.3513 -0.0154
C45B C 0.7519(3) 0.39714(16) -0.0095(2)
H30B H 0.7971 0.4272 0.0097
C46B C 0.6194(4) 0.30854(17) -0.0671(2)
H31B H 0.5747 0.2785 -0.0872
C47B C 0.7045(4) 0.4978(2) -0.5591(3)
H32B H 0.7274 0.4921 -0.6113
C48B C 0.7478(4) 0.3075(2) -0.0517(3)
H33B H 0.7893 0.2764 -0.0603
C49B C 0.6179(4) 0.5550(2) -0.4653(2)
H34B H 0.5831 0.5873 -0.4544
C50B C 0.6532(4) 0.5455(2) -0.5430(3)
H35B H 0.6421 0.5716 -0.5844
C51B C 0.3337(6) 0.6332(3) -0.1999(4)
H36B H 0.3227 0.6181 -0.2561
H37B H 0.2700 0.6203 -0.1703
C52B C 0.3132(16) 0.6868(6) -0.2414(9)
H38B H 0.2564 0.6600 -0.2682
H39B H 0.3378 0.7090 -0.2847
C53B C 0.2588(15) 0.7168(6) -0.1861(9)
H40B H 0.2762 0.6969 -0.1338
H41B H 0.3114 0.7479 -0.1766
C54B C 0.1738(11) 0.7602(5) -0.2340(9)
H42B H 0.2003 0.7692 -0.1751
H43B H 0.2125 0.7845 -0.2680
C55B C 0.0421(11) 0.7637(4) -0.2562(7)
H44B H 0.0174 0.7573 -0.3156
H45B H 0.0048 0.7377 -0.2251
H46B H 0.0156 0.7983 -0.2428
C56B C 0.4660(5) 0.6243(2) -0.1494(3)
H47B H 0.4742 0.6421 -0.0953
H48B H 0.5261 0.6394 -0.1801
C57? C -0.030(2) 0.3280(12) 0.484(2)
H49? H -0.0306 0.3335 0.5425
H50? H -0.0252 0.2908 0.4725
H51? H -0.1037 0.3424 0.4507
C58? C 0.084(2) 0.3560(9) 0.460(2)
H52? H 0.1448 0.3653 0.5087
H53? H 0.1227 0.3351 0.4209
C59? C 0.0175(18) 0.4038(9) 0.4174(10)
H54? H -0.0545 0.3885 0.3818
H55? H -0.0142 0.4209 0.4631
C60? C 0.8692(19) 0.2613(10) 0.1864(11)
H56? H 0.8586 0.2355 0.1411
H57? H 0.9149 0.2904 0.1672
H58? H 0.9771 0.2608 0.3022
H59? H 1.0324 0.2270 0.2363
H60? H 0.9212 0.2051 0.2751
C61? C 0.7958(14) 0.2865(8) 0.2472(11)
H61? H 0.8522 0.3107 0.2267
H62? H 0.8021 0.2921 0.3074
C62? C 0.6584(15) 0.2983(7) 0.2011(13)
H63? H 0.5975 0.2857 0.2333
H64? H 0.6413 0.2836 0.1446
C63? C 0.6177(17) 0.3937(5) 0.1744(9)
H65? H 0.6800 0.3915 0.1387
H66? H 0.6565 0.4050 0.2305
C64? C 0.5527(16) 0.3434(6) 0.1769(11)
H67? H 0.5298 0.3270 0.1219
H68? H 0.4818 0.3457 0.2051
C65? C -0.0406(8) 0.4202(4) 0.2571(5)
H69? H -0.1142 0.4365 0.2251
H70? H -0.0398 0.3837 0.2385
C66? C 0.0730(8) 0.4481(3) 0.2326(4)
H71? H 0.0703 0.4857 0.2440
H72? H 0.1488 0.4337 0.2650
C67? C -0.0534(9) 0.4199(4) 0.3439(5)
H73? H -0.1371 0.4100 0.3490
H74? H -0.0364 0.4548 0.3681
loop_
_geom_bond_atom_site_label_1
_geom_bond_atom_site_label_2
_geom_bond_site_symmetry_1
_geom_bond_site_symmetry_2
C1 C2 1_555 1_555
C2 N1 1_555 1_555
C3 C1 1_555 1_555
C4 C5 1_555 1_555
N1 C11 1_555 1_555
C5 C8 1_555 1_555
C6 C1 1_555 1_555
C7 C3 1_555 1_555
O1 C9 1_555 1_555
C8 C6 1_555 1_555
H1 C8 1_555 1_555
C9 C5 1_555 1_555
C10 C4 1_555 1_555
C11 C6 1_555 1_555
C12 C7 1_555 1_555
H2 C12 1_555 1_555
C13 C4 1_555 1_555
H3 C13 1_555 1_555
C14 C9 1_555 1_555
C15 H4 1_555 1_555
C16 C15 1_555 1_555
H5 C16 1_555 1_555
C17 C7 1_555 1_555
H6 C17 1_555 1_555
C18 C12 1_555 1_555
H7 C18 1_555 1_555
C19 C14 1_555 1_555
H8 C19 1_555 1_555
C20 H9 1_555 1_555
C21 C10 1_555 1_555
H10 C21 1_555 1_555
C22 C19 1_555 1_555
H11 C22 1_555 1_555
C23 H12 1_555 1_555
H13 C23 1_555 1_555
H14 C23 1_555 1_555
C24 H15 1_555 1_555
H16 C24 1_555 1_555
C25 C24 1_555 1_555
H17 C25 1_555 1_555
H18 C25 1_555 1_555
C26 N1 1_555 1_555
H19 C26 1_555 1_555
H20 C26 1_555 1_555
C27 C25 1_555 1_555
H21 C27 1_555 1_555
H22 C27 1_555 1_555
C28 C23 1_555 1_555
H23 C28 1_555 1_555
H24 C28 1_555 1_555
N2 C32 1_555 1_555
O2 C39 1_555 1_555
C29 C31 1_555 1_555
C30 H25 1_555 1_555
C31 C30 1_555 1_555
C32 C29 1_555 1_555
C33 C30 1_555 1_555
C34 C38 1_555 1_555
C35 C33 1_555 1_555
C36 C39 1_555 1_555
C37 N2 1_555 1_555
C38 C29 1_555 1_555
C39 C33 1_555 1_555
C40 C35 1_555 1_555
C41 C34 1_555 1_555
H26 C41 1_555 1_555
C42 C36 1_555 1_555
H27 C42 1_555 1_555
C43 C35 1_555 1_555
H28 C43 1_555 1_555
C44 H29 1_555 1_555
C45 C34 1_555 1_555
H30 C45 1_555 1_555
C46 C41 1_555 1_555
H31 C46 1_555 1_555
C47 C42 1_555 1_555
H32 C47 1_555 1_555
C48 C44 1_555 1_555
H33 C48 1_555 1_555
C49 C40 1_555 1_555
H34 C49 1_555 1_555
C50 C47 1_555 1_555
H35 C50 1_555 1_555
C51 H36 1_555 1_555
H37 C51 1_555 1_555
C52 C51 1_555 1_555
H38 C52 1_555 1_555
H39 C52 1_555 1_555
C53 C52 1_555 1_555
H40 C53 1_555 1_555
H41 C53 1_555 1_555
C54 C53 1_555 1_555
H42 C54 1_555 1_555
H43 C54 1_555 1_555
C55 C54 1_555 1_555
H44 C55 1_555 1_555
H45 C55 1_555 1_555
H46 C55 1_555 1_555
C56 N2 1_555 1_555
H47 C56 1_555 1_555
H48 C56 1_555 1_555
C1B C2B 1_555 1_555
C2B C3 1_555 1_555
C3B C2 1_555 1_555
C4B C5B 1_555 1_555
N1B C2B 1_555 1_555
C5B C8B 1_555 1_555
C6B C1B 1_555 1_555
C7B C3B 1_555 1_555
O1B C9B 1_555 1_555
C8B C6B 1_555 1_555
H1B C8B 1_555 1_555
C9B C5B 1_555 1_555
C10B C4B 1_555 1_555
C11B N1B 1_555 1_555
C12B C7B 1_555 1_555
H2B C12B 1_555 1_555
C13B C4B 1_555 1_555
H3B C13B 1_555 1_555
C14B C9B 1_555 1_555
C15B H4B 1_555 1_555
C16B C15B 1_555 1_555
H5B C16B 1_555 1_555
C17B C7B 1_555 1_555
H6B C17B 1_555 1_555
C18B C12B 1_555 1_555
H7B C18B 1_555 1_555
C19B C14B 1_555 1_555
H8B C19B 1_555 1_555
C20B H9B 1_555 1_555
C21B C10B 1_555 1_555
H10B C21B 1_555 1_555
C22B C19B 1_555 1_555
H11B C22B 1_555 1_555
C23B H12B 1_555 1_555
H13B C23B 1_555 1_555
H14B C23B 1_555 1_555
C24B H15B 1_555 1_555
H16B C24B 1_555 1_555
C25B C24B 1_555 1_555
H17B C25B 1_555 1_555
H18B C25B 1_555 1_555
C26B N1B 1_555 1_555
H19B C26B 1_555 1_555
H20B C26B 1_555 1_555
C27B C25B 1_555 1_555
H21B C27B 1_555 1_555
H22B C27B 1_555 1_555
C28B C23B 1_555 1_555
H23B C28B 1_555 1_555
H24B C28B 1_555 1_555
N2B C32B 1_555 1_555
O2B C39B 1_555 1_555
C29B C31B 1_555 1_555
C30B H25B 1_555 1_555
C31B C30B 1_555 1_555
C32B C38 1_555 1_555
C33B C30B 1_555 1_555
C34B C38B 1_555 1_555
C35B C33B 1_555 1_555
C36B C39B 1_555 1_555
C37B N2B 1_555 1_555
C38B C32 1_555 1_555
C39B C33B 1_555 1_555
C40B C35B 1_555 1_555
C41B C34B 1_555 1_555
H26B C41B 1_555 1_555
C42B C36B 1_555 1_555
H27B C42B 1_555 1_555
C43B C35B 1_555 1_555
H28B C43B 1_555 1_555
C44B H29B 1_555 1_555
C45B C34B 1_555 1_555
H30B C45B 1_555 1_555
C46B C41B 1_555 1_555
H31B C46B 1_555 1_555
C47B C42B 1_555 1_555
H32B C47B 1_555 1_555
C48B C44B 1_555 1_555
H33B C48B 1_555 1_555
C49B C40B 1_555 1_555
H34B C49B 1_555 1_555
C50B C47B 1_555 1_555
H35B C50B 1_555 1_555
C51B H36B 1_555 1_555
H37B C51B 1_555 1_555
C52B C51B 1_555 1_555
H38B C52B 1_555 1_555
H39B C52B 1_555 1_555
C53B C52B 1_555 1_555
H40B C53B 1_555 1_555
H41B C53B 1_555 1_555
C54B C53B 1_555 1_555
H42B C54B 1_555 1_555
H43B C54B 1_555 1_555
C55B C54B 1_555 1_555
H44B C55B 1_555 1_555
H45B C55B 1_555 1_555
H46B C55B 1_555 1_555
C56B N2B 1_555 1_555
H47B C56B 1_555 1_555
H48B C56B 1_555 1_555
C10 C14 1_555 1_555
C11 C13 1_555 1_555
C15 C18 1_555 1_555
C16 C17 1_555 1_555
C20 C21 1_555 1_555
C20 C22 1_555 1_555
C24 C26 1_555 1_555
C27 C28 1_555 1_555
C31 C37 1_555 1_555
C36 C40 1_555 1_555
C37 C43 1_555 1_555
C44 C45 1_555 1_555
C46 C48 1_555 1_555
C49 C50 1_555 1_555
C51 C56 1_555 1_555
C1B C3B 1_555 1_555
C6B C11B 1_555 1_555
C10B C14B 1_555 1_555
C11B C13B 1_555 1_555
C15B C18B 1_555 1_555
C16B C17B 1_555 1_555
C20B C21B 1_555 1_555
C20B C22B 1_555 1_555
C24B C26B 1_555 1_555
C27B C28B 1_555 1_555
C29B C32B 1_555 1_555
C29B C38B 1_555 1_555
C31B C37B 1_555 1_555
C36B C40B 1_555 1_555
C37B C43B 1_555 1_555
C44B C45B 1_555 1_555
C46B C48B 1_555 1_555
C49B C50B 1_555 1_555
C51B C56B 1_555 1_555

#END
