
#######################################################################
#
#                 Cambridge Crystallographic Data Centre
#                                CCDC 
#
#######################################################################
#
# If this CIF has been generated from an entry in the Cambridge 
# Structural Database, then it will include bibliographic, chemical, 
# crystal, experimental, refinement or atomic coordinate data resulting 
# from the CCDC's data processing and validation procedures.
#
#######################################################################

data_AREXOM
_chemical_formula_moiety         'C20 H20 B2 Cl2 N4'
_chemical_name_systematic        
5,10-dichloro-1,6-dimethyl-5,10-diphenyl-1,5,6,10-tetrahydro-4,9,5,10-diimidazo[2,1-c:2',1'-f][1,4,2,5]diazadiborinine
_symmetry_cell_setting           triclinic
_symmetry_space_group_name_H-M   'P -1'
_symmetry_Int_Tables_number      2
_space_group_name_Hall           '-P 1'
loop_
_symmetry_equiv_pos_site_id
_symmetry_equiv_pos_as_xyz
1 x,y,z
2 -x,-y,-z
_cell_length_a                   6.7243(2)
_cell_length_b                   8.4506(4)
_cell_length_c                   9.7798(4)
_cell_angle_alpha                76.647(3)
_cell_angle_beta                 85.978(2)
_cell_angle_gamma                66.7788(19)
_cell_volume                     496.768
_exptl_crystal_colour            colorless
_exptl_crystal_description       block
_cell_formula_units_Z            1
loop_
_atom_site_label
_atom_site_type_symbol
_atom_site_fract_x
_atom_site_fract_y
_atom_site_fract_z
B1 B 0.9897(3) 0.1255(2) 0.8465(2)
C1 C 0.8022(3) 0.3094(2) 0.77317(17)
C2 C 0.8183(3) 0.4132(2) 0.64261(18)
H1 H 0.9471 0.3741 0.5912
C3 C 0.6504(3) 0.5725(2) 0.5859(2)
H2 H 0.6652 0.6401 0.4965
C4 C 0.4627(3) 0.6324(2) 0.6594(2)
H3 H 0.3479 0.741 0.6207
C5 C 0.4424(3) 0.5334(2) 0.7899(2)
H4 H 0.3143 0.5746 0.8416
C6 C 0.6102(3) 0.3736(2) 0.8451(2)
H5 H 0.5937 0.3061 0.9341
C7 C 1.0838(3) 0.0389(2) 1.11412(17)
C8 C 1.1439(3) 0.2713(2) 0.9935(2)
H6 H 1.1511 0.3619 0.9175
C9 C 1.2035(3) 0.2463(2) 1.1278(2)
H7 H 1.2608 0.3147 1.1644
C10 C 1.2051(3) 0.0302(3) 1.35279(19)
H8 H 1.1564 -0.0673 1.3828
H9 H 1.1255 0.1235 1.4032
H10 H 1.3604 -0.013 1.3737
Cl1 Cl 1.23562(7) 0.06245(6) 0.73018(5)
N1 N 1.0704(2) 0.14245(17) 0.98515(15)
N2 N 1.1649(2) 0.10095(18) 1.20192(15)
B1A B 1.0103(3) -0.1255(2) 1.1535(2)
C1A C 1.1978(3) -0.3094(2) 1.22683(17)
C2A C 1.1817(3) -0.4132(2) 1.35739(18)
H1A H 1.0529 -0.3741 1.4088
C3A C 1.3496(3) -0.5725(2) 1.4141(2)
H2A H 1.3348 -0.6401 1.5035
C4A C 1.5373(3) -0.6324(2) 1.3406(2)
H3A H 1.6521 -0.741 1.3793
C5A C 1.5576(3) -0.5334(2) 1.2101(2)
H4A H 1.6857 -0.5746 1.1584
C6A C 1.3898(3) -0.3736(2) 1.1549(2)
H5A H 1.4063 -0.3061 1.0659
C7A C 0.9162(3) -0.0389(2) 0.88588(17)
C8A C 0.8561(3) -0.2713(2) 1.0065(2)
H6A H 0.8489 -0.3619 1.0825
C9A C 0.7965(3) -0.2463(2) 0.8722(2)
H7A H 0.7392 -0.3147 0.8356
C10A C 0.7949(3) -0.0302(3) 0.64721(19)
H8A H 0.8436 0.0673 0.6172
H9A H 0.8745 -0.1235 0.5968
H10A H 0.6396 0.013 0.6263
Cl1A Cl 0.76438(7) -0.06245(6) 1.26982(5)
N1A N 0.9296(2) -0.14245(17) 1.01485(15)
N2A N 0.8351(2) -0.10095(18) 0.79808(15)
loop_
_geom_bond_atom_site_label_1
_geom_bond_atom_site_label_2
_geom_bond_site_symmetry_1
_geom_bond_site_symmetry_2
B1 C1 1_555 1_555
C1 C2 1_555 1_555
C2 H1 1_555 1_555
C3 C2 1_555 1_555
H2 C3 1_555 1_555
C4 C3 1_555 1_555
H3 C4 1_555 1_555
C5 C4 1_555 1_555
H4 C5 1_555 1_555
C6 C1 1_555 1_555
H5 C6 1_555 1_555
C7 N1 1_555 1_555
C8 H6 1_555 1_555
C9 C8 1_555 1_555
H7 C9 1_555 1_555
C10 H8 1_555 1_555
H9 C10 1_555 1_555
H10 C10 1_555 1_555
Cl1 B1 1_555 1_555
N1 B1 1_555 1_555
N2 C7 1_555 1_555
B1A C7 1_555 1_555
C1A B1A 1_555 1_555
C2A C1A 1_555 1_555
H1A C2A 1_555 1_555
C3A C2A 1_555 1_555
H2A C3A 1_555 1_555
C4A C3A 1_555 1_555
H3A C4A 1_555 1_555
C5A C4A 1_555 1_555
H4A C5A 1_555 1_555
C6A C1A 1_555 1_555
H5A C6A 1_555 1_555
C7A B1 1_555 1_555
C8A H6A 1_555 1_555
C9A C8A 1_555 1_555
H7A C9A 1_555 1_555
C10A H8A 1_555 1_555
H9A C10A 1_555 1_555
H10A C10A 1_555 1_555
Cl1A B1A 1_555 1_555
N1A B1A 1_555 1_555
N2A C7A 1_555 1_555
C5 C6 1_555 1_555
C8 N1 1_555 1_555
C9 N2 1_555 1_555
C10 N2 1_555 1_555
C5A C6A 1_555 1_555
C7A N1A 1_555 1_555
C8A N1A 1_555 1_555
C9A N2A 1_555 1_555
C10A N2A 1_555 1_555

#END
