
#######################################################################
#
#                 Cambridge Crystallographic Data Centre
#                                CCDC 
#
#######################################################################
#
# If this CIF has been generated from an entry in the Cambridge 
# Structural Database, then it will include bibliographic, chemical, 
# crystal, experimental, refinement or atomic coordinate data resulting 
# from the CCDC's data processing and validation procedures.
#
#######################################################################

data_ARICAH
_chemical_formula_moiety         'C28 H32 O2'
_chemical_name_systematic        
3-methoxy-16-(1-phenylprop-2-en-1-yl)estra-1,3,5(10)-trien-17-one
_symmetry_cell_setting           orthorhombic
_symmetry_space_group_name_H-M   'P 21 21 21'
_symmetry_Int_Tables_number      19
_space_group_name_Hall           'P 2ac 2ab'
loop_
_symmetry_equiv_pos_site_id
_symmetry_equiv_pos_as_xyz
1 x,y,z
2 1/2-x,-y,1/2+z
3 -x,1/2+y,1/2-z
4 1/2+x,1/2-y,-z
_cell_length_a                   6.6085(6)
_cell_length_b                   10.5975(10)
_cell_length_c                   31.771(3)
_cell_angle_alpha                90
_cell_angle_beta                 90
_cell_angle_gamma                90
_cell_volume                     2225.04
_exptl_crystal_colour            colorless
_exptl_crystal_description       prismatic
_cell_formula_units_Z            4
loop_
_atom_site_label
_atom_site_type_symbol
_atom_site_fract_x
_atom_site_fract_y
_atom_site_fract_z
O1 O -0.1056(4) 0.3142(2) 0.84366(7)
O2 O 0.5634(4) -0.2133(2) 1.09837(7)
C1 C 0.2070(5) -0.0289(3) 1.03498(8)
H1 H 0.0818 0.0104 1.0375
C2 C 0.2866(5) -0.0887(3) 1.06970(9)
H2 H 0.2172 -0.0885 1.0952
C3 C 0.4697(5) -0.1485(3) 1.06615(9)
C4 C 0.5705(5) -0.1457(3) 1.02864(9)
H3 H 0.6953 -0.1857 1.0266
C5 C 0.4928(4) -0.0852(2) 0.99361(8)
C6 C 0.6126(5) -0.0858(3) 0.95351(10)
H4 H 0.6665 -0.1699 0.9491
H5 H 0.7263 -0.0287 0.9566
C7 C 0.4923(4) -0.0477(3) 0.91504(9)
H6 H 0.4041 -0.1165 0.9067
H7 H 0.5839 -0.0304 0.8919
C8 C 0.3664(4) 0.0688(2) 0.92428(8)
H8 H 0.4561 0.1346 0.9353
C9 C 0.2089(4) 0.0369(2) 0.95813(8)
H9 H 0.1193 -0.0268 0.9457
C10 C 0.3045(4) -0.0245(2) 0.99647(8)
C11 C 0.0745(5) 0.1515(3) 0.96835(9)
H10 H -0.0313 0.1257 0.9877
H11 H 0.1558 0.2152 0.9823
C12 C -0.0227(5) 0.2093(3) 0.92916(9)
H12 H -0.1209 0.1507 0.9177
H13 H -0.0936 0.2860 0.9369
C13 C 0.1340(5) 0.2396(2) 0.89597(9)
C14 C 0.2575(4) 0.1204(2) 0.88619(7)
H14 H 0.1588 0.0558 0.8781
C15 C 0.3724(4) 0.1541(3) 0.84585(8)
H15 H 0.4104 0.0786 0.8305
H16 H 0.4934 0.2023 0.8522
C16 C 0.2208(5) 0.2335(3) 0.82056(8)
H17 H 0.2894 0.3109 0.8115
C17 C 0.0561(5) 0.2701(2) 0.85255(9)
C18 C 0.2668(6) 0.3518(3) 0.90979(10)
H18 H 0.1855 0.4268 0.9111
H19 H 0.3740 0.3637 0.8898
H20 H 0.3233 0.3348 0.9370
C19 C 0.1312(4) 0.1694(3) 0.78127(9)
H21 H 0.0267 0.2258 0.7701
C20 C 0.0292(5) 0.0481(3) 0.79286(9)
H22 H 0.1121 -0.0174 0.8019
C21 C -0.1634(6) 0.0254(5) 0.79152(13)
H23 H -0.2526 0.0879 0.7827
H24 H -0.2124 -0.0534 0.7994
C22 C 0.2874(4) 0.1505(3) 0.74648(8)
C23 C 0.4341(6) 0.2397(3) 0.73791(11)
H25 H 0.4421 0.3113 0.7547
C24 C 0.5685(7) 0.2255(4) 0.70530(13)
H26 H 0.6657 0.2872 0.7003
C25 C 0.5600(6) 0.1202(3) 0.67995(11)
H27 H 0.6501 0.1105 0.6577
C26 C 0.4192(5) 0.0316(3) 0.68792(10)
H28 H 0.4132 -0.0404 0.6712
C27 C 0.2835(5) 0.0464(3) 0.72063(9)
H29 H 0.1867 -0.0158 0.7253
C28 C 0.4538(7) -0.2342(4) 1.13544(12)
H30 H 0.4268 -0.1549 1.1489
H31 H 0.5313 -0.2868 1.1540
H32 H 0.3282 -0.2752 1.1288
loop_
_geom_bond_atom_site_label_1
_geom_bond_atom_site_label_2
_geom_bond_site_symmetry_1
_geom_bond_site_symmetry_2
O1 C17 1_555 1_555
O2 C3 1_555 1_555
C1 H1 1_555 1_555
C2 C1 1_555 1_555
H2 C2 1_555 1_555
C3 C2 1_555 1_555
C4 C3 1_555 1_555
H3 C4 1_555 1_555
C5 C4 1_555 1_555
C6 C5 1_555 1_555
H4 C6 1_555 1_555
H5 C6 1_555 1_555
C7 C6 1_555 1_555
H6 C7 1_555 1_555
H7 C7 1_555 1_555
C8 C7 1_555 1_555
H8 C8 1_555 1_555
C9 C8 1_555 1_555
H9 C9 1_555 1_555
C10 C1 1_555 1_555
C11 C9 1_555 1_555
H10 C11 1_555 1_555
H11 C11 1_555 1_555
C12 C11 1_555 1_555
H12 C12 1_555 1_555
H13 C12 1_555 1_555
C13 C12 1_555 1_555
C14 C8 1_555 1_555
H14 C14 1_555 1_555
C15 C14 1_555 1_555
H15 C15 1_555 1_555
H16 C15 1_555 1_555
C16 C15 1_555 1_555
H17 C16 1_555 1_555
C17 C13 1_555 1_555
C18 C13 1_555 1_555
H18 C18 1_555 1_555
H19 C18 1_555 1_555
H20 C18 1_555 1_555
C19 C16 1_555 1_555
H21 C19 1_555 1_555
C20 C19 1_555 1_555
H22 C20 1_555 1_555
C21 C20 1_555 1_555
H23 C21 1_555 1_555
H24 C21 1_555 1_555
C22 C19 1_555 1_555
C23 C22 1_555 1_555
H25 C23 1_555 1_555
C24 C23 1_555 1_555
H26 C24 1_555 1_555
C25 C24 1_555 1_555
H27 C25 1_555 1_555
C26 C25 1_555 1_555
H28 C26 1_555 1_555
C27 C22 1_555 1_555
H29 C27 1_555 1_555
C28 O2 1_555 1_555
H30 C28 1_555 1_555
H31 C28 1_555 1_555
H32 C28 1_555 1_555
C5 C10 1_555 1_555
C9 C10 1_555 1_555
C13 C14 1_555 1_555
C16 C17 1_555 1_555
C26 C27 1_555 1_555

#END
