
#######################################################################
#
#                 Cambridge Crystallographic Data Centre
#                                CCDC 
#
#######################################################################
#
# If this CIF has been generated from an entry in the Cambridge 
# Structural Database, then it will include bibliographic, chemical, 
# crystal, experimental, refinement or atomic coordinate data resulting 
# from the CCDC's data processing and validation procedures.
#
#######################################################################

data_ARIWIJ
_chemical_formula_moiety         'C64 H80 B22,2(C1 H2 Cl2)'
_chemical_name_systematic        
"1,1'-(biphenyl-4,4'-diyl)-2,2'-bis(4-(dimesitylboryl)phenyl)bis(1,2-dicarba-closo-dodecaborane) dichloromethane solvate"
_symmetry_cell_setting           orthorhombic
_symmetry_space_group_name_H-M   'P b c n'
_symmetry_Int_Tables_number      60
_space_group_name_Hall           '-P 2n 2ab'
loop_
_symmetry_equiv_pos_site_id
_symmetry_equiv_pos_as_xyz
1 x,y,z
2 1/2-x,1/2-y,1/2+z
3 -x,y,1/2-z
4 1/2+x,1/2-y,-z
5 -x,-y,-z
6 1/2+x,1/2+y,1/2-z
7 x,-y,1/2+z
8 1/2-x,1/2+y,z
_cell_length_a                   14.5822(15)
_cell_length_b                   13.5478(14)
_cell_length_c                   38.859(4)
_cell_angle_alpha                90
_cell_angle_beta                 90
_cell_angle_gamma                90
_cell_volume                     7676.86
_exptl_crystal_colour            colorless
_exptl_crystal_description       Needle
_cell_formula_units_Z            4
loop_
_atom_site_label
_atom_site_type_symbol
_atom_site_fract_x
_atom_site_fract_y
_atom_site_fract_z
B1 B 0.6847(5) 0.2639(5) 0.59775(18)
C1 C 0.2847(4) 0.2709(4) 0.61756(13)
C2 C 0.2499(4) 0.2950(4) 0.65972(13)
C3 C 0.3227(4) 0.3030(4) 0.68667(13)
C4 C 0.3709(4) 0.3896(4) 0.69256(14)
H1 H 0.3576 0.4457 0.6797
C5 C 0.4391(4) 0.3927(4) 0.71764(14)
H2 H 0.4708 0.4515 0.7211
C6 C 0.4614(4) 0.3120(4) 0.73747(13)
C7 C 0.4106(4) 0.2272(4) 0.73208(15)
H3 H 0.4232 0.1712 0.7451
C8 C 0.3410(4) 0.2236(4) 0.70762(14)
H4 H 0.3062 0.1664 0.7054
C9 C 0.3853(4) 0.2627(4) 0.61050(13)
C10 C 0.4378(4) 0.1841(4) 0.62162(14)
H5 H 0.4098 0.1311 0.6326
C11 C 0.5320(4) 0.1838(4) 0.61654(14)
H6 H 0.5662 0.1307 0.6247
C12 C 0.5772(4) 0.2608(4) 0.59957(14)
C13 C 0.5228(5) 0.3360(4) 0.58727(15)
H7 H 0.5499 0.3870 0.5749
C14 C 0.4291(4) 0.3382(4) 0.59278(15)
H8 H 0.3948 0.3910 0.5845
C15 C 0.7368(4) 0.3102(4) 0.56584(13)
C16 C 0.7167(4) 0.2782(5) 0.53208(15)
C17 C 0.7667(5) 0.3156(5) 0.50429(16)
H9 H 0.7530 0.2933 0.4822
C18 C 0.8356(5) 0.3842(5) 0.50843(18)
C19 C 0.8543(4) 0.4151(4) 0.54120(16)
H10 H 0.9004 0.4616 0.5445
C20 C 0.8071(4) 0.3795(4) 0.56988(15)
C21 C 0.7383(4) 0.2236(4) 0.62997(14)
C22 C 0.8117(4) 0.1548(4) 0.62690(17)
C23 C 0.8588(4) 0.1232(5) 0.6560(2)
H11 H 0.9057 0.0774 0.6534
C24 C 0.8392(5) 0.1565(5) 0.6885(2)
C25 C 0.7673(5) 0.2242(5) 0.69188(16)
H12 H 0.7524 0.2477 0.7137
C26 C 0.7177(4) 0.2571(4) 0.66385(15)
C27 C 0.6446(5) 0.1977(6) 0.52438(19)
H13 H 0.5842 0.2241 0.5280
H14 H 0.6541 0.1425 0.5394
H15 H 0.6505 0.1766 0.5009
C28 C 0.8904(6) 0.4210(7) 0.47750(19)
H16 H 0.8635 0.4809 0.4690
H17 H 0.8896 0.3718 0.4597
H18 H 0.9526 0.4334 0.4844
C29 C 0.8343(5) 0.4211(5) 0.60496(15)
H19 H 0.8687 0.4809 0.6018
H20 H 0.8712 0.3737 0.6170
H21 H 0.7800 0.4349 0.6181
C30 C 0.8418(5) 0.1172(5) 0.59181(18)
H22 H 0.8671 0.1708 0.5787
H23 H 0.7898 0.0904 0.5799
H24 H 0.8874 0.0668 0.5947
C31 C 0.8935(7) 0.1222(8) 0.7196(2)
H25 H 0.8615 0.0691 0.7307
H26 H 0.9004 0.1761 0.7354
H27 H 0.9529 0.0999 0.7123
C32 C 0.6436(5) 0.3340(5) 0.67075(17)
H28 H 0.5850 0.3020 0.6723
H29 H 0.6427 0.3811 0.6523
H30 H 0.6565 0.3672 0.6920
B2 B 0.2079(5) 0.3267(5) 0.58969(19)
B3 B 0.2038(5) 0.1958(5) 0.59784(18)
B4 B 0.1257(5) 0.3859(6) 0.6148(2)
B5 B 0.1009(6) 0.2686(6) 0.5966(2)
B6 B 0.0667(6) 0.2953(6) 0.6394(2)
B7 B 0.1151(5) 0.1785(6) 0.6293(2)
B8 B 0.1544(5) 0.3670(6) 0.6590(2)
B9 B 0.1466(5) 0.2385(5) 0.66815(19)
B10 B 0.2319(5) 0.1785(5) 0.64211(17)
B11 B 0.2420(5) 0.3854(5) 0.62802(16)
H31 H 0.231(4) 0.354(4) 0.5676(15)
H32 H 0.231(4) 0.141(4) 0.5775(14)
H33 H 0.055(4) 0.259(4) 0.5734(15)
H34 H 0.096(4) 0.449(4) 0.6059(13)
H35 H 0.286(3) 0.441(3) 0.6275(8)
H36 H 0.275(3) 0.118(4) 0.6514(11)
H37 H 0.086(3) 0.114(4) 0.6297(12)
H38 H 0.006(4) 0.306(4) 0.6480(12)
H39 H 0.157(3) 0.411(4) 0.6791(13)
H40 H 0.136(3) 0.211(3) 0.6963(13)
B1B B 0.3153(5) 0.2639(5) 0.90225(18)
C1B C 0.7153(4) 0.2709(4) 0.88244(13)
C2B C 0.7501(4) 0.2950(4) 0.84028(13)
C3B C 0.6773(4) 0.3030(4) 0.81333(13)
C4B C 0.6291(4) 0.3896(4) 0.80744(14)
H1B H 0.6424 0.4457 0.8203
C5B C 0.5609(4) 0.3927(4) 0.78236(14)
H2B H 0.5292 0.4515 0.7789
C6B C 0.5386(4) 0.3120(4) 0.76253(13)
C7B C 0.5894(4) 0.2272(4) 0.76792(15)
H3B H 0.5768 0.1712 0.7549
C8B C 0.6590(4) 0.2236(4) 0.79238(14)
H4B H 0.6938 0.1664 0.7946
C9B C 0.6147(4) 0.2627(4) 0.88950(13)
C10B C 0.5622(4) 0.1841(4) 0.87838(14)
H5B H 0.5902 0.1311 0.8674
C11B C 0.4680(4) 0.1838(4) 0.88346(14)
H6B H 0.4338 0.1307 0.8753
C12B C 0.4228(4) 0.2608(4) 0.90043(14)
C13B C 0.4772(5) 0.3360(4) 0.91273(15)
H7B H 0.4501 0.3870 0.9251
C14B C 0.5709(4) 0.3382(4) 0.90722(15)
H8B H 0.6052 0.3910 0.9155
C15B C 0.2632(4) 0.3102(4) 0.93416(13)
C16B C 0.2833(4) 0.2782(5) 0.96792(15)
C17B C 0.2333(5) 0.3156(5) 0.99571(16)
H9B H 0.2470 0.2933 1.0178
C18B C 0.1644(5) 0.3842(5) 0.99157(18)
C19B C 0.1457(4) 0.4151(4) 0.95880(16)
H10B H 0.0996 0.4616 0.9555
C20B C 0.1929(4) 0.3795(4) 0.93012(15)
C21B C 0.2617(4) 0.2236(4) 0.87003(14)
C22B C 0.1883(4) 0.1548(4) 0.87310(17)
C23B C 0.1412(4) 0.1232(5) 0.8440(2)
H11B H 0.0943 0.0774 0.8466
C24B C 0.1608(5) 0.1565(5) 0.8115(2)
C25B C 0.2327(5) 0.2242(5) 0.80812(16)
H12B H 0.2476 0.2477 0.7863
C26B C 0.2823(4) 0.2571(4) 0.83615(15)
C27B C 0.3554(5) 0.1977(6) 0.97562(19)
H13B H 0.4158 0.2241 0.9720
H14B H 0.3459 0.1425 0.9606
H15B H 0.3495 0.1766 0.9991
C28B C 0.1096(6) 0.4210(7) 1.02250(19)
H16B H 0.1365 0.4809 1.0310
H17B H 0.1104 0.3718 1.0403
H18B H 0.0474 0.4334 1.0156
C29B C 0.1657(5) 0.4211(5) 0.89504(15)
H19B H 0.1313 0.4809 0.8982
H20B H 0.1288 0.3737 0.8830
H21B H 0.2200 0.4349 0.8819
C30B C 0.1582(5) 0.1172(5) 0.90819(18)
H22B H 0.1329 0.1708 0.9213
H23B H 0.2102 0.0904 0.9201
H24B H 0.1126 0.0668 0.9053
C31B C 0.1065(7) 0.1222(8) 0.7804(2)
H25B H 0.1385 0.0691 0.7693
H26B H 0.0996 0.1761 0.7646
H27B H 0.0471 0.0999 0.7877
C32B C 0.3564(5) 0.3340(5) 0.82925(17)
H28B H 0.4150 0.3020 0.8277
H29B H 0.3573 0.3811 0.8477
H30B H 0.3435 0.3672 0.8080
B2B B 0.7921(5) 0.3267(5) 0.91031(19)
B3B B 0.7962(5) 0.1958(5) 0.90216(18)
B4B B 0.8743(5) 0.3859(6) 0.8852(2)
B5B B 0.8991(6) 0.2686(6) 0.9034(2)
B6B B 0.9333(6) 0.2953(6) 0.8606(2)
B7B B 0.8849(5) 0.1785(6) 0.8707(2)
B8B B 0.8456(5) 0.3670(6) 0.8410(2)
B9B B 0.8534(5) 0.2385(5) 0.83185(19)
B10B B 0.7681(5) 0.1785(5) 0.85789(17)
B11B B 0.7580(5) 0.3854(5) 0.87198(16)
H31B H 0.769(4) 0.354(4) 0.9324(15)
H32B H 0.769(4) 0.141(4) 0.9225(14)
H33B H 0.945(4) 0.259(4) 0.9266(15)
H34B H 0.904(4) 0.449(4) 0.8941(13)
H35B H 0.714(3) 0.441(3) 0.8725(8)
H36B H 0.725(3) 0.118(4) 0.8486(11)
H37B H 0.914(3) 0.114(4) 0.8703(12)
H38B H 0.994(4) 0.306(4) 0.8520(12)
H39B H 0.843(3) 0.411(4) 0.8209(13)
H40B H 0.864(3) 0.211(3) 0.8037(13)
C33 C 0.8668(11) 0.4691(13) 0.7014(3)
H41 H 0.8792 0.4023 0.6937
H42 H 0.8199 0.4951 0.6861
Cl1 Cl 0.8165(2) 0.4591(2) 0.74198(6)
Cl2 Cl 0.9531(2) 0.5283(2) 0.69440(7)
loop_
_geom_bond_atom_site_label_1
_geom_bond_atom_site_label_2
_geom_bond_site_symmetry_1
_geom_bond_site_symmetry_2
B1 C12 1_555 1_555
C1 C2 1_555 1_555
C2 C3 1_555 1_555
C3 C4 1_555 1_555
C4 H1 1_555 1_555
C5 C4 1_555 1_555
H2 C5 1_555 1_555
C6 C5 1_555 1_555
C7 C6 1_555 1_555
H3 C7 1_555 1_555
C8 C3 1_555 1_555
H4 C8 1_555 1_555
C9 C1 1_555 1_555
C10 C9 1_555 1_555
H5 C10 1_555 1_555
C11 C10 1_555 1_555
H6 C11 1_555 1_555
C12 C11 1_555 1_555
C13 C12 1_555 1_555
H7 C13 1_555 1_555
C14 C9 1_555 1_555
H8 C14 1_555 1_555
C15 B1 1_555 1_555
C16 C15 1_555 1_555
C17 C16 1_555 1_555
H9 C17 1_555 1_555
C18 C17 1_555 1_555
C19 C18 1_555 1_555
H10 C19 1_555 1_555
C20 C15 1_555 1_555
C21 B1 1_555 1_555
C22 C21 1_555 1_555
C23 C22 1_555 1_555
H11 C23 1_555 1_555
C24 C23 1_555 1_555
C25 C24 1_555 1_555
H12 C25 1_555 1_555
C26 C21 1_555 1_555
C27 C16 1_555 1_555
H13 C27 1_555 1_555
H14 C27 1_555 1_555
H15 C27 1_555 1_555
C28 C18 1_555 1_555
H16 C28 1_555 1_555
H17 C28 1_555 1_555
H18 C28 1_555 1_555
C29 C20 1_555 1_555
H19 C29 1_555 1_555
H20 C29 1_555 1_555
H21 C29 1_555 1_555
C30 C22 1_555 1_555
H22 C30 1_555 1_555
H23 C30 1_555 1_555
H24 C30 1_555 1_555
C31 C24 1_555 1_555
H25 C31 1_555 1_555
H26 C31 1_555 1_555
H27 C31 1_555 1_555
C32 C26 1_555 1_555
H28 C32 1_555 1_555
H29 C32 1_555 1_555
H30 C32 1_555 1_555
B2 C1 1_555 1_555
B3 C1 1_555 1_555
B4 B2 1_555 1_555
B5 B2 1_555 1_555
B6 B4 1_555 1_555
B7 B3 1_555 1_555
B8 C2 1_555 1_555
B9 C2 1_555 1_555
B10 C1 1_555 1_555
B11 C1 1_555 1_555
H31 B2 1_555 1_555
H32 B3 1_555 1_555
H33 B5 1_555 1_555
H34 B4 1_555 1_555
H35 B11 1_555 1_555
H36 B10 1_555 1_555
H37 B7 1_555 1_555
H38 B6 1_555 1_555
H39 B8 1_555 1_555
H40 B9 1_555 1_555
C33 H41 1_555 1_555
H42 C33 1_555 1_555
Cl1 C33 1_555 1_555
Cl2 C33 1_555 1_555
B1B C12B 1_555 1_555
C1B C2B 1_555 1_555
C2B C3B 1_555 1_555
C3B C4B 1_555 1_555
C4B H1B 1_555 1_555
C5B C4B 1_555 1_555
H2B C5B 1_555 1_555
C6B C6 1_555 1_555
C7B C6B 1_555 1_555
H3B C7B 1_555 1_555
C8B C3B 1_555 1_555
H4B C8B 1_555 1_555
C9B C1B 1_555 1_555
C10B C9B 1_555 1_555
H5B C10B 1_555 1_555
C11B C10B 1_555 1_555
H6B C11B 1_555 1_555
C12B C11B 1_555 1_555
C13B C12B 1_555 1_555
H7B C13B 1_555 1_555
C14B C9B 1_555 1_555
H8B C14B 1_555 1_555
C15B B1B 1_555 1_555
C16B C15B 1_555 1_555
C17B C16B 1_555 1_555
H9B C17B 1_555 1_555
C18B C17B 1_555 1_555
C19B C18B 1_555 1_555
H10B C19B 1_555 1_555
C20B C15B 1_555 1_555
C21B B1B 1_555 1_555
C22B C21B 1_555 1_555
C23B C22B 1_555 1_555
H11B C23B 1_555 1_555
C24B C23B 1_555 1_555
C25B C24B 1_555 1_555
H12B C25B 1_555 1_555
C26B C21B 1_555 1_555
C27B C16B 1_555 1_555
H13B C27B 1_555 1_555
H14B C27B 1_555 1_555
H15B C27B 1_555 1_555
C28B C18B 1_555 1_555
H16B C28B 1_555 1_555
H17B C28B 1_555 1_555
H18B C28B 1_555 1_555
C29B C20B 1_555 1_555
H19B C29B 1_555 1_555
H20B C29B 1_555 1_555
H21B C29B 1_555 1_555
C30B C22B 1_555 1_555
H22B C30B 1_555 1_555
H23B C30B 1_555 1_555
H24B C30B 1_555 1_555
C31B C24B 1_555 1_555
H25B C31B 1_555 1_555
H26B C31B 1_555 1_555
H27B C31B 1_555 1_555
C32B C26B 1_555 1_555
H28B C32B 1_555 1_555
H29B C32B 1_555 1_555
H30B C32B 1_555 1_555
B2B C1B 1_555 1_555
B3B C1B 1_555 1_555
B4B B2B 1_555 1_555
B5B B2B 1_555 1_555
B6B B4B 1_555 1_555
B7B B3B 1_555 1_555
B8B C2B 1_555 1_555
B9B C2B 1_555 1_555
B10B C1B 1_555 1_555
B11B C1B 1_555 1_555
H31B B2B 1_555 1_555
H32B B3B 1_555 1_555
H33B B5B 1_555 1_555
H34B B4B 1_555 1_555
H35B B11B 1_555 1_555
H36B B10B 1_555 1_555
H37B B7B 1_555 1_555
H38B B6B 1_555 1_555
H39B B8B 1_555 1_555
H40B B9B 1_555 1_555
C2 B10 1_555 1_555
C2 B11 1_555 1_555
C7 C8 1_555 1_555
C13 C14 1_555 1_555
C19 C20 1_555 1_555
C25 C26 1_555 1_555
B2 B3 1_555 1_555
B2 B11 1_555 1_555
B3 B5 1_555 1_555
B3 B10 1_555 1_555
B4 B5 1_555 1_555
B4 B8 1_555 1_555
B4 B11 1_555 1_555
B5 B6 1_555 1_555
B5 B7 1_555 1_555
B6 B7 1_555 1_555
B6 B8 1_555 1_555
B6 B9 1_555 1_555
B7 B9 1_555 1_555
B7 B10 1_555 1_555
B8 B9 1_555 1_555
B8 B11 1_555 1_555
B9 B10 1_555 1_555
C2B B10B 1_555 1_555
C2B B11B 1_555 1_555
C5B C6B 1_555 1_555
C7B C8B 1_555 1_555
C13B C14B 1_555 1_555
C19B C20B 1_555 1_555
C25B C26B 1_555 1_555
B2B B3B 1_555 1_555
B2B B11B 1_555 1_555
B3B B5B 1_555 1_555
B3B B10B 1_555 1_555
B4B B5B 1_555 1_555
B4B B8B 1_555 1_555
B4B B11B 1_555 1_555
B5B B6B 1_555 1_555
B5B B7B 1_555 1_555
B6B B7B 1_555 1_555
B6B B8B 1_555 1_555
B6B B9B 1_555 1_555
B7B B9B 1_555 1_555
B7B B10B 1_555 1_555
B8B B9B 1_555 1_555
B8B B11B 1_555 1_555
B9B B10B 1_555 1_555

#END
