
#######################################################################
#
#                 Cambridge Crystallographic Data Centre
#                                CCDC 
#
#######################################################################
#
# If this CIF has been generated from an entry in the Cambridge 
# Structural Database, then it will include bibliographic, chemical, 
# crystal, experimental, refinement or atomic coordinate data resulting 
# from the CCDC's data processing and validation procedures.
#
#######################################################################

data_ARORAC
_chemical_formula_moiety         'C60 H32 B2 N14 O2'
_chemical_name_systematic        
"14d,14d'-(diazene-1,2-diylbis(4,1-phenyleneoxy))bis(14dH-5,9c,10,14c,14e,15-hexaaza-14d-boradibenzo[2,3:5,6]-s-indaceno[1,8,7-bcde]fluoranthene) unknown solvate"
_symmetry_cell_setting           triclinic
_symmetry_space_group_name_H-M   'P -1'
_symmetry_Int_Tables_number      2
_space_group_name_Hall           '-P 1'
loop_
_symmetry_equiv_pos_site_id
_symmetry_equiv_pos_as_xyz
1 x,y,z
2 -x,-y,-z
_cell_length_a                   10.671(3)
_cell_length_b                   11.787(3)
_cell_length_c                   12.167(3)
_cell_angle_alpha                90.260(4)
_cell_angle_beta                 94.290(5)
_cell_angle_gamma                105.427(4)
_cell_volume                     1470.61
_exptl_crystal_colour            golden
_exptl_crystal_description       cuboid
_cell_formula_units_Z            1
_chemical_properties_physical    Light-sensitive
_exptl_crystal_recrystallization_method chloroform/methanol
_exptl_crystal_preparation       Luminescent
loop_
_atom_site_label
_atom_site_type_symbol
_atom_site_fract_x
_atom_site_fract_y
_atom_site_fract_z
B1 B 0.3187(4) 0.1446(3) -0.0019(3)
C1 C 0.2275(3) 0.2492(3) 0.1435(3)
C2 C 0.1077(3) 0.2594(3) 0.1726(3)
C3 C 0.0659(4) 0.3167(3) 0.2507(3)
H1 H 0.1253 0.3560 0.3073
C4 C -0.0601(4) 0.3194(4) 0.2503(3)
H2 H -0.0855 0.3607 0.3060
C5 C -0.1470(4) 0.2643(4) 0.1721(3)
H3 H -0.2335 0.2655 0.1749
C6 C -0.1130(3) 0.2042(3) 0.0849(3)
H4 H -0.1742 0.1690 0.0279
C7 C 0.0159(3) 0.1987(3) 0.0863(2)
C8 C 0.0824(3) 0.1496(3) 0.0098(2)
C9 C 0.1499(3) 0.1228(3) -0.1610(3)
C10 C 0.1625(3) 0.1379(3) -0.2803(2)
C11 C 0.0584(4) 0.1205(4) -0.3666(3)
H5 H -0.0295 0.0916 -0.3551
C12 C 0.1054(5) 0.1526(4) -0.4709(3)
H6 H 0.0440 0.1454 -0.5307
C13 C 0.2326(4) 0.1927(4) -0.4903(3)
H7 H 0.2569 0.2101 -0.5615
C14 C 0.3222(4) 0.2069(4) -0.4054(3)
H8 H 0.4097 0.2350 -0.4186
C15 C 0.2907(3) 0.1819(3) -0.2995(3)
C16 C 0.3656(3) 0.1925(3) -0.1924(3)
C17 C 0.5180(3) 0.2910(3) -0.0570(3)
C18 C 0.6150(3) 0.3820(3) -0.0054(3)
C19 C 0.7300(4) 0.4571(4) -0.0293(4)
H9 H 0.7555 0.4507 -0.1000
C20 C 0.8126(4) 0.5415(4) 0.0400(4)
H10 H 0.8956 0.5827 0.0226
C21 C 0.7610(5) 0.5603(4) 0.1396(5)
H11 H 0.8088 0.6214 0.1866
C22 C 0.6483(4) 0.4954(3) 0.1695(4)
H12 H 0.6206 0.5129 0.2366
C23 C 0.5692(3) 0.4022(3) 0.1055(3)
C24 C 0.4501(3) 0.3209(3) 0.1143(3)
C25 C 0.3824(3) 0.0250(3) 0.1420(2)
C26 C 0.5134(3) 0.0553(3) 0.1692(3)
H13 H 0.5714 0.0787 0.1150
C27 C 0.5597(4) 0.0510(3) 0.2788(3)
H14 H 0.6491 0.0721 0.2978
C28 C 0.4777(3) 0.0172(3) 0.3564(2)
C29 C 0.3443(4) -0.0241(4) 0.3297(3)
H15 H 0.2891 -0.0563 0.3838
C30 C 0.2907(3) -0.0169(3) 0.2162(3)
H16 H 0.2016 -0.0388 0.1958
N1 N 0.2101(2) 0.1747(2) 0.0558(2)
N2 N 0.0549(2) 0.1195(2) -0.0969(2)
N3 N 0.2814(2) 0.1474(2) -0.1188(2)
N4 N 0.4890(3) 0.2604(3) -0.1651(2)
N5 N 0.4290(3) 0.2476(2) 0.0210(2)
N6 N 0.3570(3) 0.3230(2) 0.1777(2)
N7 N 0.5406(3) 0.0170(3) 0.4719(3)
O1 O 0.3395(2) 0.03408(19) 0.03232(15)
B1A B 0.6813(4) -0.1446(3) 1.0019(3)
C1A C 0.7725(3) -0.2492(3) 0.8565(3)
C2A C 0.8923(3) -0.2594(3) 0.8274(3)
C3A C 0.9341(4) -0.3167(3) 0.7493(3)
H1A H 0.8747 -0.3560 0.6927
C4A C 1.0601(4) -0.3194(4) 0.7497(3)
H2A H 1.0855 -0.3607 0.6940
C5A C 1.1470(4) -0.2643(4) 0.8279(3)
H3A H 1.2335 -0.2655 0.8251
C6A C 1.1130(3) -0.2042(3) 0.9151(3)
H4A H 1.1742 -0.1690 0.9721
C7A C 0.9841(3) -0.1987(3) 0.9137(2)
C8A C 0.9176(3) -0.1496(3) 0.9902(2)
C9A C 0.8501(3) -0.1228(3) 1.1610(3)
C10A C 0.8375(3) -0.1379(3) 1.2803(2)
C11A C 0.9416(4) -0.1205(4) 1.3666(3)
H5A H 1.0295 -0.0916 1.3551
C12A C 0.8946(5) -0.1526(4) 1.4709(3)
H6A H 0.9560 -0.1454 1.5307
C13A C 0.7674(4) -0.1927(4) 1.4903(3)
H7A H 0.7431 -0.2101 1.5615
C14A C 0.6778(4) -0.2069(4) 1.4054(3)
H8A H 0.5903 -0.2350 1.4186
C15A C 0.7093(3) -0.1819(3) 1.2995(3)
C16A C 0.6344(3) -0.1925(3) 1.1924(3)
C17A C 0.4820(3) -0.2910(3) 1.0570(3)
C18A C 0.3850(3) -0.3820(3) 1.0054(3)
C19A C 0.2700(4) -0.4571(4) 1.0293(4)
H9A H 0.2445 -0.4507 1.1000
C20A C 0.1874(4) -0.5415(4) 0.9600(4)
H10A H 0.1044 -0.5827 0.9774
C21A C 0.2390(5) -0.5603(4) 0.8604(5)
H11A H 0.1912 -0.6214 0.8134
C22A C 0.3517(4) -0.4954(3) 0.8305(4)
H12A H 0.3794 -0.5129 0.7634
C23A C 0.4308(3) -0.4022(3) 0.8945(3)
C24A C 0.5499(3) -0.3209(3) 0.8857(3)
C25A C 0.6176(3) -0.0250(3) 0.8580(2)
C26A C 0.4866(3) -0.0553(3) 0.8308(3)
H13A H 0.4286 -0.0787 0.8850
C27A C 0.4403(4) -0.0510(3) 0.7212(3)
H14A H 0.3509 -0.0721 0.7022
C28A C 0.5223(3) -0.0172(3) 0.6436(2)
C29A C 0.6557(4) 0.0241(4) 0.6703(3)
H15A H 0.7109 0.0563 0.6162
C30A C 0.7093(3) 0.0169(3) 0.7838(3)
H16A H 0.7984 0.0388 0.8042
N1A N 0.7899(2) -0.1747(2) 0.9442(2)
N2A N 0.9451(2) -0.1195(2) 1.0969(2)
N3A N 0.7186(2) -0.1474(2) 1.1188(2)
N4A N 0.5110(3) -0.2604(3) 1.1651(2)
N5A N 0.5710(3) -0.2476(2) 0.9790(2)
N6A N 0.6430(3) -0.3230(2) 0.8223(2)
N7A N 0.4594(3) -0.0170(3) 0.5281(3)
O1A O 0.6605(2) -0.03408(19) 0.96768(15)
loop_
_geom_bond_atom_site_label_1
_geom_bond_atom_site_label_2
_geom_bond_site_symmetry_1
_geom_bond_site_symmetry_2
B1 N1 1_555 1_555
C1 C2 1_555 1_555
C2 C3 1_555 1_555
C3 H1 1_555 1_555
C4 C3 1_555 1_555
H2 C4 1_555 1_555
C5 C4 1_555 1_555
H3 C5 1_555 1_555
C6 C5 1_555 1_555
H4 C6 1_555 1_555
C7 C2 1_555 1_555
C8 C7 1_555 1_555
C9 C10 1_555 1_555
C10 C11 1_555 1_555
C11 H5 1_555 1_555
C12 C11 1_555 1_555
H6 C12 1_555 1_555
C13 C12 1_555 1_555
H7 C13 1_555 1_555
C14 C13 1_555 1_555
H8 C14 1_555 1_555
C15 C10 1_555 1_555
C16 C15 1_555 1_555
C17 C18 1_555 1_555
C18 C19 1_555 1_555
C19 H9 1_555 1_555
C20 C19 1_555 1_555
H10 C20 1_555 1_555
C21 C20 1_555 1_555
H11 C21 1_555 1_555
C22 C21 1_555 1_555
H12 C22 1_555 1_555
C23 C18 1_555 1_555
C24 C23 1_555 1_555
C25 C26 1_555 1_555
C26 H13 1_555 1_555
C27 C26 1_555 1_555
H14 C27 1_555 1_555
C28 C27 1_555 1_555
C29 C28 1_555 1_555
H15 C29 1_555 1_555
C30 C25 1_555 1_555
H16 C30 1_555 1_555
N1 C1 1_555 1_555
N2 C8 1_555 1_555
N3 B1 1_555 1_555
N4 C16 1_555 1_555
N5 B1 1_555 1_555
N6 C1 1_555 1_555
N7 C28 1_555 1_555
O1 B1 1_555 1_555
B1A N1A 1_555 1_555
C1A C2A 1_555 1_555
C2A C3A 1_555 1_555
C3A H1A 1_555 1_555
C4A C3A 1_555 1_555
H2A C4A 1_555 1_555
C5A C4A 1_555 1_555
H3A C5A 1_555 1_555
C6A C5A 1_555 1_555
H4A C6A 1_555 1_555
C7A C2A 1_555 1_555
C8A C7A 1_555 1_555
C9A C10A 1_555 1_555
C10A C11A 1_555 1_555
C11A H5A 1_555 1_555
C12A C11A 1_555 1_555
H6A C12A 1_555 1_555
C13A C12A 1_555 1_555
H7A C13A 1_555 1_555
C14A C13A 1_555 1_555
H8A C14A 1_555 1_555
C15A C10A 1_555 1_555
C16A C15A 1_555 1_555
C17A C18A 1_555 1_555
C18A C19A 1_555 1_555
C19A H9A 1_555 1_555
C20A C19A 1_555 1_555
H10A C20A 1_555 1_555
C21A C20A 1_555 1_555
H11A C21A 1_555 1_555
C22A C21A 1_555 1_555
H12A C22A 1_555 1_555
C23A C18A 1_555 1_555
C24A C23A 1_555 1_555
C25A C26A 1_555 1_555
C26A H13A 1_555 1_555
C27A C26A 1_555 1_555
H14A C27A 1_555 1_555
C28A C27A 1_555 1_555
C29A C28A 1_555 1_555
H15A C29A 1_555 1_555
C30A C25A 1_555 1_555
H16A C30A 1_555 1_555
N1A C1A 1_555 1_555
N2A C8A 1_555 1_555
N3A B1A 1_555 1_555
N4A C16A 1_555 1_555
N5A B1A 1_555 1_555
N6A C1A 1_555 1_555
N7A N7 1_555 1_555
O1A B1A 1_555 1_555
C6 C7 1_555 1_555
C8 N1 1_555 1_555
C9 N2 1_555 1_555
C9 N3 1_555 1_555
C14 C15 1_555 1_555
C16 N3 1_555 1_555
C17 N4 1_555 1_555
C17 N5 1_555 1_555
C22 C23 1_555 1_555
C24 N5 1_555 1_555
C24 N6 1_555 1_555
C25 O1 1_555 1_555
C29 C30 1_555 1_555
C6A C7A 1_555 1_555
C8A N1A 1_555 1_555
C9A N2A 1_555 1_555
C9A N3A 1_555 1_555
C14A C15A 1_555 1_555
C16A N3A 1_555 1_555
C17A N4A 1_555 1_555
C17A N5A 1_555 1_555
C22A C23A 1_555 1_555
C24A N5A 1_555 1_555
C24A N6A 1_555 1_555
C25A O1A 1_555 1_555
C28A N7A 1_555 1_555
C29A C30A 1_555 1_555

#END
