
#######################################################################
#
#                 Cambridge Crystallographic Data Centre
#                                CCDC 
#
#######################################################################
#
# If this CIF has been generated from an entry in the Cambridge 
# Structural Database, then it will include bibliographic, chemical, 
# crystal, experimental, refinement or atomic coordinate data resulting 
# from the CCDC's data processing and validation procedures.
#
#######################################################################

data_ARUFEA
_chemical_formula_moiety         'C94 H28 O4,C7 H8'
_chemical_name_systematic        
'trans-bis(5-methoxy-5-oxo-1-phenylpentane-1,1-diyl)-C70-fullerene toluene solvate'
_symmetry_cell_setting           triclinic
_symmetry_space_group_name_H-M   'P -1'
_symmetry_Int_Tables_number      2
_space_group_name_Hall           '-P 1'
loop_
_symmetry_equiv_pos_site_id
_symmetry_equiv_pos_as_xyz
1 x,y,z
2 -x,-y,-z
_cell_length_a                   9.9613(6)
_cell_length_b                   14.8330(11)
_cell_length_c                   21.1924(15)
_cell_angle_alpha                107.137(6)
_cell_angle_beta                 95.342(5)
_cell_angle_gamma                105.771(6)
_cell_volume                     2828.12
_exptl_crystal_colour            red
_exptl_crystal_description       block
_cell_formula_units_Z            2
loop_
_atom_site_label
_atom_site_type_symbol
_atom_site_fract_x
_atom_site_fract_y
_atom_site_fract_z
O1 O 1.1635(3) 0.81852(18) -0.02468(12)
C1 C 0.4908(3) 0.6777(2) 0.34604(14)
C2 C 0.6311(3) 0.3101(2) 0.09421(13)
C3 C 0.3641(3) 0.3633(2) 0.39099(14)
C4 C 0.5915(3) 0.6303(2) 0.13891(14)
C5 C 0.2944(3) 0.6159(2) 0.26126(15)
C6 C 0.6690(3) 0.4833(2) 0.09141(13)
C7 C 0.1868(3) 0.1749(2) 0.13906(14)
C8 C 0.8248(3) 0.6497(2) 0.31463(14)
C9 C 0.8664(3) 0.6049(2) 0.25666(14)
C10 C 0.3773(3) 0.2141(2) 0.07668(13)
C11 C 0.4344(3) 0.6873(2) 0.28504(15)
C12 C 0.5571(3) 0.2901(2) 0.37256(13)
C13 C 0.6129(3) 0.4641(2) 0.41223(13)
C14 C 0.8720(3) 0.5051(2) 0.24283(14)
C15 C 0.2099(3) 0.4141(2) 0.10988(14)
C16 C 0.4291(3) 0.4681(2) 0.06817(14)
C17 C 0.3343(3) 0.2917(2) 0.06455(13)
C18 C 0.8330(3) 0.6203(2) 0.19228(14)
C19 C 0.6974(3) 0.3342(2) 0.35904(14)
C20 C 0.3174(3) 0.1962(2) 0.31107(14)
C21 C 0.7260(3) 0.7063(2) 0.31338(14)
C22 C 0.5022(3) 0.1401(2) 0.26712(14)
C23 C 0.5407(3) 0.1677(2) 0.13601(13)
C24 C 0.1046(3) 0.3052(2) 0.19236(15)
C25 C 0.2671(3) 0.1432(2) 0.24010(14)
C26 C 0.4254(3) 0.5403(2) 0.39495(14)
C27 C 0.5872(3) 0.3791(2) 0.06928(13)
C28 C 0.4735(3) 0.6510(2) 0.16886(15)
C29 C 0.6752(3) 0.6196(2) 0.39012(13)
C30 C 0.4405(3) 0.3697(2) 0.05505(13)
C31 C 0.8113(3) 0.5032(2) 0.35240(14)
C32 C 0.7397(3) 0.2896(2) 0.30146(14)
C33 C 0.6584(3) 0.1903(2) 0.25256(14)
C34 C 0.8237(3) 0.4527(2) 0.17248(14)
C35 C 0.2135(3) 0.3147(2) 0.09294(14)
C36 C 0.7287(3) 0.4412(2) 0.38373(13)
C37 C 0.5238(3) 0.2228(2) 0.09133(13)
C38 C 0.1685(3) 0.1696(2) 0.20423(15)
C39 C 0.1669(3) 0.3017(2) 0.30577(15)
C40 C 0.2642(3) 0.5637(2) 0.30905(15)
C41 C 0.6335(3) 0.6864(2) 0.36017(14)
C42 C 0.1671(3) 0.4601(2) 0.17035(15)
C43 C 0.7605(3) 0.2983(2) 0.19444(14)
C44 C 0.3148(3) 0.4898(2) 0.09466(14)
C45 C 0.8516(3) 0.4557(2) 0.29035(14)
C46 C 0.3233(3) 0.4469(2) 0.38364(14)
C47 C 0.2673(3) 0.2734(2) 0.34317(14)
C48 C 0.3861(3) 0.6015(2) 0.36139(15)
C49 C 0.3368(3) 0.5831(2) 0.14563(14)
C50 C 0.8089(3) 0.3503(2) 0.26446(14)
C51 C 0.1280(3) 0.4093(2) 0.21583(15)
C52 C 0.7535(3) 0.3493(2) 0.14822(14)
C53 C 0.5763(3) 0.5495(2) 0.40983(13)
C54 C 0.5702(3) 0.5396(2) 0.09042(14)
C55 C 0.8735(3) 0.7183(2) 0.17943(15)
C56 C 0.5231(3) 0.7039(2) 0.23907(15)
C57 C 0.9439(3) 0.8954(2) 0.25578(16)
H1 H 0.8591 0.8997 0.2365
C58 C 0.4636(3) 0.2027(2) 0.32734(14)
C59 C 0.5065(3) 0.3714(2) 0.40460(13)
C60 C 0.3830(3) 0.1162(2) 0.21148(14)
C61 C 0.2011(3) 0.4092(2) 0.33112(15)
C62 C 0.1462(3) 0.2584(2) 0.13145(15)
C63 C 0.2467(3) 0.5655(2) 0.19344(16)
C64 C 1.1002(3) 0.8000(2) 0.26484(16)
H2 H 1.1211 0.7406 0.2517
C65 C 1.1212(4) 0.8124(3) 0.03186(17)
O2 O 1.1193(5) 0.8825(2) 0.07683(17)
C66 C 0.4007(3) 0.1232(2) 0.14907(14)
C67 C 0.1185(3) 0.2507(2) 0.23749(15)
C68 C 0.1788(3) 0.4633(2) 0.28835(15)
C69 C 0.8997(3) 0.7151(2) 0.10916(15)
H3 H 0.8998 0.7775 0.1031
H4 H 0.8233 0.6622 0.0759
C70 C 1.0389(4) 0.9778(2) 0.30470(18)
H5 H 1.0184 1.0374 0.3178
C71 C 0.9740(3) 0.8060(2) 0.23507(15)
C72 C 1.0830(3) 0.7073(2) 0.03230(15)
H6 H 1.1633 0.6831 0.0247
H7 H 1.0043 0.6656 -0.0044
C73 C 1.1949(3) 0.8829(2) 0.31423(17)
H8 H 1.2794 0.8788 0.3340
C74 C 1.0416(3) 0.6977(3) 0.09838(17)
H9 H 1.1156 0.7452 0.1355
H10 H 1.0363 0.6317 0.0990
C75 C 1.1645(4) 0.9718(3) 0.33423(18)
H11 H 1.2283 1.0271 0.3674
C76 C 0.7873(3) 0.5196(2) 0.14129(14)
C77 C 0.3014(3) 0.1533(2) 0.11245(14)
C78 C 0.7914(3) 0.5971(2) 0.36183(14)
C79 C 1.2016(5) 0.9161(3) -0.0308(2)
H12 H 1.2177 0.9112 -0.0755
H13 H 1.2866 0.9582 0.0011
H14 H 1.1259 0.9438 -0.0222
C80 C 0.6590(3) 0.2039(2) 0.18624(14)
C81 C 0.6179(3) 0.0919(2) 0.26486(14)
C82 C 0.7234(3) 0.6843(2) 0.19061(15)
C83 C 0.6724(3) 0.7172(2) 0.25484(15)
C84 C 0.6015(3) 0.0029(2) 0.20429(14)
C85 C 0.7158(4) -0.0028(2) 0.17254(16)
H15 H 0.8009 0.0492 0.1881
C86 C 0.4739(4) -0.0753(2) 0.18110(15)
H16 H 0.3965 -0.0720 0.2020
C87 C 0.4636(4) -0.1577(2) 0.12682(16)
H17 H 0.3790 -0.2101 0.1116
C88 C 0.5770(5) -0.1632(3) 0.09494(16)
H18 H 0.5684 -0.2188 0.0582
C89 C 0.7043(4) -0.0854(3) 0.11775(17)
H19 H 0.7811 -0.0888 0.0964
C90 C 0.6882(3) 0.0883(2) 0.33048(14)
H20 H 0.7025 0.1508 0.3659
H21 H 0.7806 0.0803 0.3259
C91 C 0.5988(3) 0.0030(2) 0.35031(14)
H22 H 0.5081 0.0128 0.3570
H23 H 0.5805 -0.0591 0.3139
C92 C 0.5739(3) -0.0729(2) 0.44212(14)
C93 C 0.6713(3) -0.0042(2) 0.41395(15)
H24 H 0.7517 -0.0275 0.4044
H25 H 0.7075 0.0616 0.4476
O3 O 0.6476(2) -0.10595(16) 0.48171(11)
O4 O 0.4467(2) -0.09537(19) 0.43224(12)
C94 C 0.5629(4) -0.1690(2) 0.51346(16)
H26 H 0.4846 -0.2188 0.4806
H27 H 0.5275 -0.1295 0.5484
H28 H 0.6204 -0.2005 0.5324
C95 C 1.1081(4) 0.7597(3) 0.44764(17)
H29 H 1.1703 0.7516 0.4178
C96 C 0.9592(5) 0.8529(4) 0.4996(2)
H30 H 0.9186 0.9036 0.5049
C97 C 0.9900(4) 0.7140(4) 0.5324(2)
H31 H 0.9693 0.6737 0.5588
C98 C 1.0791(4) 0.6974(4) 0.4852(2)
C99 C 0.9354(5) 0.7892(4) 0.5386(2)
H32 H 0.8784 0.8001 0.5706
C100 C 1.1388(5) 0.6159(4) 0.4749(2)
H33 H 1.1109 0.5741 0.4286
H34 H 1.1043 0.5776 0.5029
H35 H 1.2405 0.6422 0.4864
C101 C 1.0447(5) 0.8359(4) 0.4537(2)
H36 H 1.0615 0.8747 0.4262
loop_
_geom_bond_atom_site_label_1
_geom_bond_atom_site_label_2
_geom_bond_site_symmetry_1
_geom_bond_site_symmetry_2
O1 C65 1_555 1_555
C1 C11 1_555 1_555
C2 C27 1_555 1_555
C3 C46 1_555 1_555
C4 C28 1_555 1_555
C5 C11 1_555 1_555
C6 C27 1_555 1_555
C7 C38 1_555 1_555
C8 C9 1_555 1_555
C9 C14 1_555 1_555
C10 C17 1_555 1_555
C11 C56 1_555 1_555
C12 C19 1_555 1_555
C13 C36 1_555 1_555
C14 C34 1_555 1_555
C15 C35 1_555 1_555
C16 C30 1_555 1_555
C17 C30 1_555 1_555
C18 C9 1_555 1_555
C19 C32 1_555 1_555
C20 C25 1_555 1_555
C21 C8 1_555 1_555
C22 C33 1_555 1_555
C23 C37 1_555 1_555
C24 C51 1_555 1_555
C25 C38 1_555 1_555
C26 C46 1_555 1_555
C27 C30 1_555 1_555
C28 C49 1_555 1_555
C29 C41 1_555 1_555
C31 C36 1_555 1_555
C32 C33 1_555 1_555
C33 C80 1_555 1_555
C34 C52 1_555 1_555
C35 C17 1_555 1_555
C36 C19 1_555 1_555
C37 C2 1_555 1_555
C38 C67 1_555 1_555
C39 C47 1_555 1_555
C40 C5 1_555 1_555
C41 C1 1_555 1_555
C42 C15 1_555 1_555
C43 C50 1_555 1_555
C44 C15 1_555 1_555
C45 C14 1_555 1_555
C46 C61 1_555 1_555
C47 C3 1_555 1_555
C48 C1 1_555 1_555
C49 C44 1_555 1_555
C50 C32 1_555 1_555
C51 C42 1_555 1_555
C52 C2 1_555 1_555
C53 C13 1_555 1_555
C54 C4 1_555 1_555
C55 C18 1_555 1_555
C56 C28 1_555 1_555
C57 H1 1_555 1_555
C58 C12 1_555 1_555
C59 C3 1_555 1_555
C60 C22 1_555 1_555
C61 C39 1_555 1_555
C62 C7 1_555 1_555
C63 C5 1_555 1_555
C64 H2 1_555 1_555
C65 O2 1_555 1_555
C66 C23 1_555 1_555
C67 C24 1_555 1_555
C68 C40 1_555 1_555
C69 C55 1_555 1_555
H3 C69 1_555 1_555
H4 C69 1_555 1_555
C70 C57 1_555 1_555
H5 C70 1_555 1_555
C71 C55 1_555 1_555
C72 C65 1_555 1_555
H6 C72 1_555 1_555
H7 C72 1_555 1_555
C73 C64 1_555 1_555
H8 C73 1_555 1_555
C74 C69 1_555 1_555
H9 C74 1_555 1_555
H10 C74 1_555 1_555
C75 C70 1_555 1_555
H11 C75 1_555 1_555
C76 C6 1_555 1_555
C77 C7 1_555 1_555
C78 C8 1_555 1_555
C79 O1 1_555 1_555
H12 C79 1_555 1_555
H13 C79 1_555 1_555
H14 C79 1_555 1_555
C80 C23 1_555 1_555
C81 C22 1_555 1_555
C82 C4 1_555 1_555
C83 C21 1_555 1_555
C84 C81 1_555 1_555
C85 C84 1_555 1_555
H15 C85 1_555 1_555
C86 C84 1_555 1_555
H16 C86 1_555 1_555
C87 C86 1_555 1_555
H17 C87 1_555 1_555
C88 C87 1_555 1_555
H18 C88 1_555 1_555
C89 C85 1_555 1_555
H19 C89 1_555 1_555
C90 C81 1_555 1_555
H20 C90 1_555 1_555
H21 C90 1_555 1_555
C91 C90 1_555 1_555
H22 C91 1_555 1_555
H23 C91 1_555 1_555
C92 C93 1_555 1_555
C93 C91 1_555 1_555
H24 C93 1_555 1_555
H25 C93 1_555 1_555
O3 C92 1_555 1_555
O4 C92 1_555 1_555
C94 O3 1_555 1_555
H26 C94 1_555 1_555
H27 C94 1_555 1_555
H28 C94 1_555 1_555
C95 H29 1_555 1_555
C96 H30 1_555 1_555
C97 H31 1_555 1_555
C98 C95 1_555 1_555
C99 C96 1_555 1_555
H32 C99 1_555 1_555
C100 C98 1_555 1_555
H33 C100 1_555 1_555
H34 C100 1_555 1_555
H35 C100 1_555 1_555
C101 C95 1_555 1_555
H36 C101 1_555 1_555
C6 C54 1_555 1_555
C10 C37 1_555 1_555
C10 C77 1_555 1_555
C12 C59 1_555 1_555
C13 C59 1_555 1_555
C16 C44 1_555 1_555
C16 C54 1_555 1_555
C18 C76 1_555 1_555
C18 C82 1_555 1_555
C20 C47 1_555 1_555
C20 C58 1_555 1_555
C21 C41 1_555 1_555
C22 C58 1_555 1_555
C24 C62 1_555 1_555
C25 C60 1_555 1_555
C26 C48 1_555 1_555
C26 C53 1_555 1_555
C29 C53 1_555 1_555
C29 C78 1_555 1_555
C31 C45 1_555 1_555
C31 C78 1_555 1_555
C33 C81 1_555 1_555
C34 C76 1_555 1_555
C35 C62 1_555 1_555
C39 C67 1_555 1_555
C40 C48 1_555 1_555
C42 C63 1_555 1_555
C43 C52 1_555 1_555
C43 C80 1_555 1_555
C45 C50 1_555 1_555
C49 C63 1_555 1_555
C51 C68 1_555 1_555
C55 C82 1_555 1_555
C56 C83 1_555 1_555
C57 C71 1_555 1_555
C60 C66 1_555 1_555
C61 C68 1_555 1_555
C64 C71 1_555 1_555
C66 C77 1_555 1_555
C72 C74 1_555 1_555
C73 C75 1_555 1_555
C82 C83 1_555 1_555
C88 C89 1_555 1_555
C96 C101 1_555 1_555
C97 C98 1_555 1_555
C97 C99 1_555 1_555

#END
