
#######################################################################
#
#                 Cambridge Crystallographic Data Centre
#                                CCDC 
#
#######################################################################
#
# If this CIF has been generated from an entry in the Cambridge 
# Structural Database, then it will include bibliographic, chemical, 
# crystal, experimental, refinement or atomic coordinate data resulting 
# from the CCDC's data processing and validation procedures.
#
#######################################################################

data_ASAXOJ
_chemical_formula_moiety         'C17 H21 N1 O3 S1'
_chemical_name_systematic        
2-((1-(3,5-dimethoxyphenyl)propyl)sulfinyl)aniline
_symmetry_cell_setting           monoclinic
_symmetry_space_group_name_H-M   'P 21'
_symmetry_Int_Tables_number      4
_space_group_name_Hall           'P 2yb'
loop_
_symmetry_equiv_pos_site_id
_symmetry_equiv_pos_as_xyz
1 x,y,z
2 -x,1/2+y,-z
_cell_length_a                   7.8240(11)
_cell_length_b                   11.7499(16)
_cell_length_c                   9.3366(13)
_cell_angle_alpha                90
_cell_angle_beta                 108.384(2)
_cell_angle_gamma                90
_cell_volume                     814.52
_exptl_crystal_colour            colorless
_exptl_crystal_description       block
_cell_formula_units_Z            2
loop_
_atom_site_label
_atom_site_type_symbol
_atom_site_fract_x
_atom_site_fract_y
_atom_site_fract_z
S1 S 0.70455(5) 0.14462(4) 0.99009(4)
N1 N 0.7291(3) 0.37026(17) 0.8318(2)
H1 H 0.808(3) 0.344(2) 0.907(3)
H2 H 0.729(3) 0.437(2) 0.796(3)
O1 O 0.87184(19) 0.21363(14) 1.06400(16)
O2 O 0.21554(18) 0.07327(13) 0.36034(15)
O3 O 0.33088(19) -0.23729(12) 0.70389(16)
C1 C 0.7445(2) 0.08394(15) 0.82076(19)
H3 H 0.7739 0.1482 0.7623
C2 C 0.5773(2) 0.02584(16) 0.72050(19)
C3 C 0.4765(2) 0.08103(16) 0.5875(2)
H4 H 0.5119 0.1537 0.5623
C4 C 0.3245(2) 0.02802(17) 0.4933(2)
C5 C 0.2716(2) -0.07971(17) 0.5275(2)
H5 H 0.1688 -0.1162 0.4607
C6 C 0.3715(2) -0.13228(16) 0.6602(2)
C7 C 0.5232(2) -0.07969(16) 0.7583(2)
H6 H 0.5890 -0.1156 0.8503
C8 C 0.2612(3) 0.18394(19) 0.3196(3)
H7 H 0.2678 0.2376 0.4016
H8 H 0.1689 0.2093 0.2274
H9 H 0.3782 0.1807 0.3021
C9 C 0.1752(3) -0.29342(19) 0.6078(2)
H10 H 0.0696 -0.2444 0.5925
H11 H 0.1567 -0.3650 0.6547
H12 H 0.1923 -0.3094 0.5102
C10 C 0.9120(2) 0.00753(17) 0.8762(2)
H13 H 1.0075 0.0485 0.9545
H14 H 0.8812 -0.0619 0.9230
C11 C 0.9830(3) -0.0265(2) 0.7485(3)
H15 H 0.8876 -0.0651 0.6694
H16 H 1.0857 -0.0781 0.7873
H17 H 1.0215 0.0416 0.7065
C12 C 0.5269(2) 0.23963(17) 0.8991(2)
C13 C 0.5583(3) 0.34142(17) 0.8306(2)
C14 C 0.4085(3) 0.4085(2) 0.7573(3)
H18 H 0.4244 0.4764 0.7077
C15 C 0.2379(3) 0.3774(2) 0.7562(3)
H19 H 0.1383 0.4247 0.7066
C16 C 0.2092(3) 0.2782(2) 0.8263(3)
H20 H 0.0912 0.2578 0.8249
C17 C 0.3545(3) 0.20943(19) 0.8983(3)
H21 H 0.3367 0.1416 0.9471
loop_
_geom_bond_atom_site_label_1
_geom_bond_atom_site_label_2
_geom_bond_site_symmetry_1
_geom_bond_site_symmetry_2
S1 O1 1_555 1_555
N1 H1 1_555 1_555
H2 N1 1_555 1_555
O2 C4 1_555 1_555
O3 C6 1_555 1_555
C1 S1 1_555 1_555
H3 C1 1_555 1_555
C2 C1 1_555 1_555
C3 C2 1_555 1_555
H4 C3 1_555 1_555
C4 C3 1_555 1_555
C5 C4 1_555 1_555
H5 C5 1_555 1_555
C6 C5 1_555 1_555
C7 C2 1_555 1_555
H6 C7 1_555 1_555
C8 O2 1_555 1_555
H7 C8 1_555 1_555
H8 C8 1_555 1_555
H9 C8 1_555 1_555
C9 O3 1_555 1_555
H10 C9 1_555 1_555
H11 C9 1_555 1_555
H12 C9 1_555 1_555
C10 C1 1_555 1_555
H13 C10 1_555 1_555
H14 C10 1_555 1_555
C11 C10 1_555 1_555
H15 C11 1_555 1_555
H16 C11 1_555 1_555
H17 C11 1_555 1_555
C12 S1 1_555 1_555
C13 N1 1_555 1_555
C14 C13 1_555 1_555
H18 C14 1_555 1_555
C15 C14 1_555 1_555
H19 C15 1_555 1_555
C16 C15 1_555 1_555
H20 C16 1_555 1_555
C17 C12 1_555 1_555
H21 C17 1_555 1_555
C6 C7 1_555 1_555
C12 C13 1_555 1_555
C16 C17 1_555 1_555

#END
