
#######################################################################
#
#                 Cambridge Crystallographic Data Centre
#                                CCDC 
#
#######################################################################
#
# If this CIF has been generated from an entry in the Cambridge 
# Structural Database, then it will include bibliographic, chemical, 
# crystal, experimental, refinement or atomic coordinate data resulting 
# from the CCDC's data processing and validation procedures.
#
#######################################################################

data_ASENIW
_chemical_formula_moiety         
'C24 H22 N6 2+,C2 H3 N1,2(Cl1 O4 1-),0.5(H2 O1)'
_chemical_name_systematic        
'6-amino-9-(2-[(5a,10a,10b,10c-tetrahydropyren-1-ylmethyl)ammonio]ethyl)-9H-purin-1-ium diperchlorate acetonitrile solvate hemihydrate'
_symmetry_cell_setting           triclinic
_symmetry_space_group_name_H-M   'P -1'
_symmetry_Int_Tables_number      2
_space_group_name_Hall           '-P 1'
loop_
_symmetry_equiv_pos_site_id
_symmetry_equiv_pos_as_xyz
1 x,y,z
2 -x,-y,-z
_cell_length_a                   8.552(2)
_cell_length_b                   11.136(3)
_cell_length_c                   16.107(4)
_cell_angle_alpha                86.858(4)
_cell_angle_beta                 85.323(4)
_cell_angle_gamma                68.320(4)
_cell_volume                     1420.19
_exptl_crystal_colour            colorless
_exptl_crystal_description       hexagonal
_cell_formula_units_Z            2
loop_
_atom_site_label
_atom_site_type_symbol
_atom_site_fract_x
_atom_site_fract_y
_atom_site_fract_z
H1 H -0.440(6) 1.614(5) 0.198(3)
C1 C -0.0175(5) 0.9976(4) 0.1678(3)
H2 H -0.1382 1.0356 0.1809
H3 H 0.0026 0.9979 0.1077
C2 C 0.0693(5) 1.0774(4) 0.2055(3)
H4 H 0.0359 1.0880 0.2645
H5 H 0.1907 1.0331 0.1993
C3 C 0.0996(5) 1.2354(4) 0.0928(3)
H6 H 0.1977 1.1779 0.0667
C4 C -0.1122(5) 1.4035(4) 0.1217(2)
C5 C -0.2411(5) 1.5265(4) 0.1267(3)
C6 C -0.3462(5) 1.4393(4) 0.2487(3)
H7 H -0.4297 1.4570 0.2920
C7 C -0.1179(5) 1.3115(3) 0.1821(2)
C8 C -0.0077(7) 0.7730(4) 0.1549(3)
H8 H 0.0081 0.7875 0.0954
H9 H -0.1267 0.7915 0.1686
C9 C 0.0938(6) 0.6316(4) 0.1780(3)
C10 C 0.2347(7) 0.5632(5) 0.1269(3)
H10 H 0.2649 0.6034 0.0796
C11 C 0.3307(6) 0.4351(4) 0.1462(3)
H11 H 0.4249 0.3910 0.1117
C12 C 0.3861(6) 0.2368(5) 0.2356(3)
H12 H 0.4795 0.1911 0.2011
C13 C 0.3435(6) 0.1771(5) 0.3025(3)
H13 H 0.4086 0.0910 0.3137
C14 C 0.1525(7) 0.1835(5) 0.4281(3)
H14 H 0.2164 0.0975 0.4405
C15 C 0.0142(7) 0.2501(6) 0.4788(3)
H15 H -0.0169 0.2081 0.5250
C16 C -0.0806(7) 0.3800(5) 0.4623(3)
H16 H -0.1721 0.4232 0.4986
C17 C -0.1384(6) 0.5763(5) 0.3746(3)
H17 H -0.2313 0.6214 0.4096
C18 C -0.0969(6) 0.6376(5) 0.3052(3)
H18 H -0.1638 0.7230 0.2933
C19 C 0.2896(6) 0.3730(4) 0.2146(3)
C20 C 0.1954(6) 0.2442(4) 0.3595(3)
C21 C -0.0427(6) 0.4457(5) 0.3940(3)
C22 C 0.0485(5) 0.5723(4) 0.2501(3)
C23 C 0.1467(6) 0.4403(4) 0.2688(3)
C24 C 0.1051(6) 0.3749(4) 0.3389(3)
N1 N -0.3545(4) 1.5370(3) 0.1928(2)
N2 N 0.0485(5) 0.8623(3) 0.2014(2)
H19 H 0.0129 0.8613 0.2555
H20 H 0.1620 0.8331 0.1983
N3 N -0.2318(4) 1.3232(3) 0.2471(2)
N4 N -0.2545(4) 1.6241(3) 0.0746(2)
H21 H -0.3365 1.6969 0.0818
H22 H -0.1813 1.6152 0.0332
N5 N 0.0236(4) 1.3546(3) 0.0654(2)
N6 N 0.0212(4) 1.2037(3) 0.1630(2)
Cl1 Cl 0.34382(12) 0.85888(9) 0.99699(6)
O1 O 0.2285(4) 0.9899(3) 0.9910(2)
O2 O 0.5086(4) 0.8487(3) 0.9641(2)
O3 O 0.2848(4) 0.7783(3) 0.95200(19)
O4 O 0.3563(5) 0.8180(4) 1.0830(2)
Cl2 Cl 0.37398(13) 0.77965(10) 0.34297(6)
O5 O 0.4851(5) 0.8389(4) 0.3681(2)
O6 O 0.4145(4) 0.6550(3) 0.3809(2)
O7 O 0.3952(4) 0.7675(3) 0.25272(18)
O8 O 0.2041(4) 0.8593(3) 0.3639(2)
N7 N 0.8111(6) -0.0228(5) 0.3417(3)
C25 C 0.7413(7) 0.0624(6) 0.3798(3)
C26 C 0.6471(8) 0.1777(7) 0.4278(3)
H23 H 0.5685 0.2406 0.3933
H24 H 0.7240 0.2134 0.4466
H25 H 0.5869 0.1548 0.4751
O9 O 0.6041(8) 0.8998(7) 0.1581(5)
loop_
_geom_bond_atom_site_label_1
_geom_bond_atom_site_label_2
_geom_bond_site_symmetry_1
_geom_bond_site_symmetry_2
H1 N1 1_555 1_555
C1 H2 1_555 1_555
H3 C1 1_555 1_555
C2 C1 1_555 1_555
H4 C2 1_555 1_555
H5 C2 1_555 1_555
C3 H6 1_555 1_555
C4 C5 1_555 1_555
C5 N1 1_555 1_555
C6 H7 1_555 1_555
C7 C4 1_555 1_555
C8 H8 1_555 1_555
H9 C8 1_555 1_555
C9 C8 1_555 1_555
C10 C9 1_555 1_555
H10 C10 1_555 1_555
C11 C10 1_555 1_555
H11 C11 1_555 1_555
C12 H12 1_555 1_555
C13 C12 1_555 1_555
H13 C13 1_555 1_555
C14 H14 1_555 1_555
C15 C14 1_555 1_555
H15 C15 1_555 1_555
C16 C15 1_555 1_555
H16 C16 1_555 1_555
C17 H17 1_555 1_555
C18 C17 1_555 1_555
H18 C18 1_555 1_555
C19 C11 1_555 1_555
C20 C13 1_555 1_555
C21 C16 1_555 1_555
C22 C9 1_555 1_555
C23 C19 1_555 1_555
C24 C20 1_555 1_555
N1 C6 1_555 1_555
N2 C1 1_555 1_555
H19 N2 1_555 1_555
H20 N2 1_555 1_555
N3 C6 1_555 1_555
N4 C5 1_555 1_555
H21 N4 1_555 1_555
H22 N4 1_555 1_555
N5 C3 1_555 1_555
N6 C2 1_555 1_555
Cl1 O1 1_555 1_555
O2 Cl1 1_555 1_555
O3 Cl1 1_555 1_555
O4 Cl1 1_555 1_555
Cl2 O5 1_555 1_555
O6 Cl2 1_555 1_555
O7 Cl2 1_555 1_555
O8 Cl2 1_555 1_555
N7 C25 1_555 1_555
C25 C26 1_555 1_555
C26 H23 1_555 1_555
H24 C26 1_555 1_555
H25 C26 1_555 1_555
C3 N6 1_555 1_555
C4 N5 1_555 1_555
C7 N3 1_555 1_555
C7 N6 1_555 1_555
C8 N2 1_555 1_555
C12 C19 1_555 1_555
C14 C20 1_555 1_555
C17 C21 1_555 1_555
C18 C22 1_555 1_555
C21 C24 1_555 1_555
C22 C23 1_555 1_555
C23 C24 1_555 1_555

#END
