
#######################################################################
#
#                 Cambridge Crystallographic Data Centre
#                                CCDC 
#
#######################################################################
#
# If this CIF has been generated from an entry in the Cambridge 
# Structural Database, then it will include bibliographic, chemical, 
# crystal, experimental, refinement or atomic coordinate data resulting 
# from the CCDC's data processing and validation procedures.
#
#######################################################################

data_ASILUL
_chemical_formula_moiety         'C35 H23 N3 O3,0.5(C6 H14),C1 H4 O1'
_chemical_name_systematic        
'5-(12,17-bis(6-oxo-1,6-dihydropyridin-3-yl)pentacyclo[6.6.6.0^2,7^.0^9,14^.0^15,20^]icosa-2,4,6,9,11,13,15,17,19-nonaen-4-yl)pyridin-2(1H)-one n-hexane methanol solvate'
_symmetry_cell_setting           monoclinic
_symmetry_space_group_name_H-M   'P 21/c'
_symmetry_Int_Tables_number      14
_space_group_name_Hall           '-P 2ybc'
loop_
_symmetry_equiv_pos_site_id
_symmetry_equiv_pos_as_xyz
1 x,y,z
2 -x,1/2+y,1/2-z
3 -x,-y,-z
4 x,1/2-y,1/2+z
_cell_length_a                   10.4426(17)
_cell_length_b                   14.301(2)
_cell_length_c                   21.049(3)
_cell_angle_alpha                90
_cell_angle_beta                 91.010(5)
_cell_angle_gamma                90
_cell_volume                     3142.96
_exptl_crystal_colour            colorless
_exptl_crystal_description       polyhedron
_cell_formula_units_Z            4
loop_
_atom_site_label
_atom_site_type_symbol
_atom_site_fract_x
_atom_site_fract_y
_atom_site_fract_z
C1 C 0.5270(2) 0.35780(18) 0.77000(12)
H1 H 0.4604 0.3090 0.7612
C2 C 0.7013(2) 0.48363(18) 0.79294(13)
H2 H 0.7678 0.5325 0.8017
C3 C 0.5455(2) 0.37866(17) 0.84076(12)
C4 C 0.6430(2) 0.44422(18) 0.85309(12)
C5 C 0.6739(3) 0.46555(19) 0.91588(13)
H3 H 0.7416 0.5079 0.9254
C6 C 0.6053(3) 0.42473(19) 0.96492(13)
H4 H 0.6274 0.4396 1.0077
C7 C 0.5049(3) 0.36257(18) 0.95254(12)
C8 C 0.4768(2) 0.33969(18) 0.88925(12)
H5 H 0.4097 0.2969 0.8796
C9 C 0.4265(3) 0.32221(18) 1.00418(12)
C10 C 0.4699(3) 0.3152(2) 1.06798(14)
H6 H 0.5541 0.3356 1.0788
C11 C 0.3949(3) 0.2801(2) 1.11428(14)
H7 H 0.4279 0.2776 1.1566
C12 C 0.2692(3) 0.24706(19) 1.10166(13)
O1 O 0.19528(19) 0.21282(15) 1.14139(9)
N1 N 0.2324(2) 0.25323(16) 1.03934(10)
H8 H 0.1560 0.2319 1.0285
C13 C 0.3053(3) 0.2900(2) 0.99274(13)
H9 H 0.2707 0.2935 0.9508
C14 C 0.4950(2) 0.45157(18) 0.73996(12)
C15 C 0.5890(2) 0.51943(19) 0.75195(12)
C16 C 0.5769(3) 0.60613(18) 0.72434(12)
H10 H 0.6404 0.6526 0.7315
C17 C 0.4702(3) 0.62508(19) 0.68569(13)
H11 H 0.4631 0.6848 0.6662
C18 C 0.3739(3) 0.55949(18) 0.67475(12)
C19 C 0.3885(2) 0.47094(18) 0.70271(12)
H12 H 0.3249 0.4243 0.6959
C20 C 0.2627(3) 0.58200(19) 0.63314(12)
C21 C 0.2240(3) 0.6752(2) 0.61861(14)
H13 H 0.2670 0.7255 0.6393
C22 C 0.1279(3) 0.6949(2) 0.57626(14)
H14 H 0.1046 0.7581 0.5683
C23 C 0.0625(3) 0.6217(2) 0.54392(14)
O2 O -0.0220(2) 0.63213(15) 0.50088(11)
N2 N 0.0986(2) 0.53306(17) 0.56159(12)
H15 H 0.0565 0.4858 0.5446
C24 C 0.1949(3) 0.5135(2) 0.60349(13)
H16 H 0.2154 0.4500 0.6123
C25 C 0.6587(2) 0.33199(18) 0.74414(12)
C26 C 0.7524(2) 0.40062(19) 0.75595(12)
C27 C 0.8732(3) 0.3903(2) 0.73098(14)
H17 H 0.9367 0.4367 0.7385
C28 C 0.9013(3) 0.3115(2) 0.69480(14)
H18 H 0.9838 0.3054 0.6769
C29 C 0.8102(3) 0.24167(19) 0.68446(13)
C30 C 0.6880(3) 0.25296(19) 0.70972(12)
H19 H 0.6249 0.2059 0.7031
C31 C 0.8405(3) 0.1555(2) 0.64836(13)
C32 C 0.7982(3) 0.0670(2) 0.66892(15)
H20 H 0.7476 0.0635 0.7059
C33 C 0.8268(3) -0.0133(2) 0.63799(16)
H21 H 0.7972 -0.0713 0.6540
C34 C 0.9009(3) -0.0116(2) 0.58145(15)
O3 O 0.9301(2) -0.08245(15) 0.54971(11)
N3 N 0.9386(2) 0.07560(17) 0.56270(12)
H22 H 0.9840 0.0800 0.5280
C35 C 0.9102(3) 0.1566(2) 0.59433(14)
H23 H 0.9398 0.2146 0.5782
C36 C 0.1173(4) 0.2732(3) 1.3070(2)
H24 H 0.0962 0.3292 1.2822
H25 H 0.1508 0.2916 1.3490
H26 H 0.0400 0.2352 1.3121
O4 O 0.2111(2) 0.22027(17) 1.27499(12)
H27 H 0.196(6) 0.230(4) 1.220(3)
C37 C -0.2588(13) 0.4651(10) 0.5858(7)
H28 H -0.1860 0.4992 0.6046
H29 H -0.3073 0.4350 0.6195
H30 H -0.2273 0.4175 0.5565
C38 C -0.3450(7) 0.5329(6) 0.5498(4)
H31 H -0.2979 0.5638 0.5152
H32 H -0.3784 0.5815 0.5787
C39 C -0.4580(7) 0.4702(7) 0.5218(4)
H33 H -0.4224 0.4170 0.4978
H34 H -0.5096 0.4450 0.5569
C37B C -0.7412(13) 0.5349(10) 0.4142(7)
H28B H -0.8140 0.5008 0.3954
H29B H -0.6927 0.5650 0.3805
H30B H -0.7727 0.5825 0.4435
C38B C -0.6550(7) 0.4671(6) 0.4502(4)
H31B H -0.7021 0.4362 0.4848
H32B H -0.6216 0.4185 0.4213
C39B C -0.5420(7) 0.5298(7) 0.4782(4)
H33B H -0.5776 0.5830 0.5022
H34B H -0.4904 0.5550 0.4431
C40? C -0.2519(10) 0.5037(9) 0.5878(6)
H35? H -0.1967 0.4588 0.6103
H36? H -0.2011 0.5387 0.5571
H37? H -0.2890 0.5472 0.6184
C41? C -0.3604(11) 0.4507(8) 0.5524(6)
H38? H -0.3237 0.4063 0.5215
H39? H -0.4119 0.4148 0.5830
C42? C -0.4456(12) 0.5230(10) 0.5174(6)
H40? H -0.4797 0.5680 0.5485
H41? H -0.3932 0.5582 0.4868
loop_
_geom_bond_atom_site_label_1
_geom_bond_atom_site_label_2
_geom_bond_site_symmetry_1
_geom_bond_site_symmetry_2
C1 H1 1_555 1_555
C2 H2 1_555 1_555
C3 C1 1_555 1_555
C4 C2 1_555 1_555
C5 C4 1_555 1_555
H3 C5 1_555 1_555
C6 C5 1_555 1_555
H4 C6 1_555 1_555
C7 C6 1_555 1_555
C8 C3 1_555 1_555
H5 C8 1_555 1_555
C9 C7 1_555 1_555
C10 C9 1_555 1_555
H6 C10 1_555 1_555
C11 C10 1_555 1_555
H7 C11 1_555 1_555
C12 C11 1_555 1_555
O1 C12 1_555 1_555
N1 C12 1_555 1_555
H8 N1 1_555 1_555
C13 C9 1_555 1_555
H9 C13 1_555 1_555
C14 C1 1_555 1_555
C15 C2 1_555 1_555
C16 C15 1_555 1_555
H10 C16 1_555 1_555
C17 C16 1_555 1_555
H11 C17 1_555 1_555
C18 C17 1_555 1_555
C19 C14 1_555 1_555
H12 C19 1_555 1_555
C20 C18 1_555 1_555
C21 C20 1_555 1_555
H13 C21 1_555 1_555
C22 C21 1_555 1_555
H14 C22 1_555 1_555
C23 C22 1_555 1_555
O2 C23 1_555 1_555
N2 C23 1_555 1_555
H15 N2 1_555 1_555
C24 C20 1_555 1_555
H16 C24 1_555 1_555
C25 C1 1_555 1_555
C26 C2 1_555 1_555
C27 C26 1_555 1_555
H17 C27 1_555 1_555
C28 C27 1_555 1_555
H18 C28 1_555 1_555
C29 C28 1_555 1_555
C30 C25 1_555 1_555
H19 C30 1_555 1_555
C31 C29 1_555 1_555
C32 C31 1_555 1_555
H20 C32 1_555 1_555
C33 C32 1_555 1_555
H21 C33 1_555 1_555
C34 C33 1_555 1_555
O3 C34 1_555 1_555
N3 C34 1_555 1_555
H22 N3 1_555 1_555
C35 C31 1_555 1_555
H23 C35 1_555 1_555
C36 H24 1_555 1_555
H25 C36 1_555 1_555
H26 C36 1_555 1_555
O4 C36 1_555 1_555
H27 O4 1_555 1_555
C37 H28 1_555 1_555
H29 C37 1_555 1_555
H30 C37 1_555 1_555
C38 C37 1_555 1_555
H31 C38 1_555 1_555
H32 C38 1_555 1_555
C39 C38 1_555 1_555
H33 C39 1_555 1_555
H34 C39 1_555 1_555
C37B H28B 1_555 1_555
H29B C37B 1_555 1_555
H30B C37B 1_555 1_555
C38B C37B 1_555 1_555
H31B C38B 1_555 1_555
H32B C38B 1_555 1_555
C39B C39 1_555 1_555
H33B C39B 1_555 1_555
H34B C39B 1_555 1_555
C3 C4 1_555 1_555
C7 C8 1_555 1_555
N1 C13 1_555 1_555
C14 C15 1_555 1_555
C18 C19 1_555 1_555
N2 C24 1_555 1_555
C25 C26 1_555 1_555
C29 C30 1_555 1_555
N3 C35 1_555 1_555
C38B C39B 1_555 1_555

#END
