
#######################################################################
#
#                 Cambridge Crystallographic Data Centre
#                                CCDC 
#
#######################################################################
#
# If this CIF has been generated from an entry in the Cambridge 
# Structural Database, then it will include bibliographic, chemical, 
# crystal, experimental, refinement or atomic coordinate data resulting 
# from the CCDC's data processing and validation procedures.
#
#######################################################################

data_ASIMIZ
_chemical_formula_moiety         'C24 H27 N1 O5'
_chemical_name_systematic        
(S)-4-Benzyl-3-((4S,5R,E)-5-hydroxy-5-(2-methoxyphenyl)-2,4-dimethylpent-2-enoyl)-1,3-oxazolidin-2-one
_symmetry_cell_setting           monoclinic
_symmetry_space_group_name_H-M   'P 21'
_symmetry_Int_Tables_number      4
_space_group_name_Hall           'P 2yb'
loop_
_symmetry_equiv_pos_site_id
_symmetry_equiv_pos_as_xyz
1 x,y,z
2 -x,1/2+y,-z
_cell_length_a                   6.2970(13)
_cell_length_b                   19.655(4)
_cell_length_c                   8.8472(18)
_cell_angle_alpha                90
_cell_angle_beta                 91.87(3)
_cell_angle_gamma                90
_cell_volume                     1094.41
_exptl_crystal_colour            colorless
_exptl_crystal_description       block
_cell_formula_units_Z            2
loop_
_atom_site_label
_atom_site_type_symbol
_atom_site_fract_x
_atom_site_fract_y
_atom_site_fract_z
O1 O 0.3524(7) 0.7434(2) 0.6394(5)
O2 O 0.6645(7) 0.68810(19) 0.6431(5)
O3 O 0.7565(7) 0.91083(19) 0.7100(5)
O4 O 0.3272(7) 0.9357(2) 0.1701(5)
H1 H 0.4278 0.9151 0.2096
O5 O -0.0559(7) 1.04528(19) 0.4563(5)
N1 N 0.6812(8) 0.8007(2) 0.6661(5)
C1 C 0.5400(10) 0.7437(3) 0.6511(6)
C2 C 0.8862(11) 0.7069(3) 0.6455(7)
H2 H 0.9419 0.7046 0.5447
H3 H 0.9690 0.6769 0.7115
C3 C 0.8933(10) 0.7791(3) 0.7044(7)
H4 H 0.9930 0.8061 0.6464
C4 C 0.9563(10) 0.7858(3) 0.8750(7)
H5 H 1.1028 0.7713 0.8889
H6 H 0.9506 0.8337 0.9017
C5 C 0.8257(10) 0.7472(4) 0.9839(7)
C6 C 0.6416(13) 0.7755(3) 1.0330(8)
H7 H 0.5972 0.8172 0.9938
C7 C 0.5195(13) 0.7435(7) 1.1398(10)
H8 H 0.3958 0.7633 1.1741
C8 C 0.594(2) 0.6772(7) 1.1961(11)
H9 H 0.5153 0.6523 1.2640
C9 C 0.7677(19) 0.6549(5) 1.1498(12)
H10 H 0.8168 0.6143 1.1920
C10 C 0.8955(13) 0.6852(4) 1.0404(8)
H11 H 1.0192 0.6647 1.0081
C11 C 0.6189(10) 0.8688(3) 0.6679(7)
C12 C 0.4090(9) 0.8920(3) 0.6117(7)
C13 C 0.2996(10) 0.9406(3) 0.7171(7)
H12 H 0.1689 0.9561 0.6700
H13 H 0.3905 0.9789 0.7381
H14 H 0.2702 0.9176 0.8098
C14 C 0.3376(10) 0.8762(3) 0.4760(7)
H15 H 0.4159 0.8440 0.4247
C15 C 0.1420(9) 0.9040(3) 0.3913(6)
H16 H 0.0485 0.9229 0.4671
C16 C 0.0217(10) 0.8465(3) 0.3055(6)
H17 H 0.0301 0.8054 0.3639
H18 H 0.0849 0.8392 0.2095
H19 H -0.1245 0.8592 0.2897
C17 C 0.1940(9) 0.9622(3) 0.2862(7)
H20 H 0.2786 0.9955 0.3445
C18 C 0.0063(10) 0.9968(3) 0.2160(8)
C19 C -0.0597(13) 0.9888(3) 0.0665(9)
H21 H 0.0204 0.9608 0.0057
C20 C -0.2364(16) 1.0198(3) 0.0022(9)
H22 H -0.2748 1.0125 -0.0989
C21 C -0.3553(11) 1.0619(4) 0.0911(10)
H23 H -0.4711 1.0848 0.0474
C22 C -0.3060(12) 1.0711(4) 0.2471(10)
H24 H -0.3909 1.0975 0.3081
C23 C -0.1218(10) 1.0383(3) 0.3054(8)
C24 C -0.2073(12) 1.0733(3) 0.5598(7)
H25 H -0.3325 1.0454 0.5588
H26 H -0.2448 1.1187 0.5289
H27 H -0.1447 1.0744 0.6602
loop_
_geom_bond_atom_site_label_1
_geom_bond_atom_site_label_2
_geom_bond_site_symmetry_1
_geom_bond_site_symmetry_2
O1 C1 1_555 1_555
O2 C1 1_555 1_555
O3 C11 1_555 1_555
O4 H1 1_555 1_555
O5 C23 1_555 1_555
N1 C1 1_555 1_555
C2 O2 1_555 1_555
H2 C2 1_555 1_555
H3 C2 1_555 1_555
C3 N1 1_555 1_555
H4 C3 1_555 1_555
C4 C3 1_555 1_555
H5 C4 1_555 1_555
H6 C4 1_555 1_555
C5 C4 1_555 1_555
C6 C5 1_555 1_555
H7 C6 1_555 1_555
C7 C6 1_555 1_555
H8 C7 1_555 1_555
C8 C7 1_555 1_555
H9 C8 1_555 1_555
C9 C8 1_555 1_555
H10 C9 1_555 1_555
C10 C5 1_555 1_555
H11 C10 1_555 1_555
C11 N1 1_555 1_555
C12 C11 1_555 1_555
C13 C12 1_555 1_555
H12 C13 1_555 1_555
H13 C13 1_555 1_555
H14 C13 1_555 1_555
C14 C12 1_555 1_555
H15 C14 1_555 1_555
C15 C14 1_555 1_555
H16 C15 1_555 1_555
C16 C15 1_555 1_555
H17 C16 1_555 1_555
H18 C16 1_555 1_555
H19 C16 1_555 1_555
C17 O4 1_555 1_555
H20 C17 1_555 1_555
C18 C17 1_555 1_555
C19 C18 1_555 1_555
H21 C19 1_555 1_555
C20 C19 1_555 1_555
H22 C20 1_555 1_555
C21 C20 1_555 1_555
H23 C21 1_555 1_555
C22 C21 1_555 1_555
H24 C22 1_555 1_555
C23 C18 1_555 1_555
C24 O5 1_555 1_555
H25 C24 1_555 1_555
H26 C24 1_555 1_555
H27 C24 1_555 1_555
C2 C3 1_555 1_555
C9 C10 1_555 1_555
C15 C17 1_555 1_555
C22 C23 1_555 1_555

#END
