
#######################################################################
#
#                 Cambridge Crystallographic Data Centre
#                                CCDC 
#
#######################################################################
#
# If this CIF has been generated from an entry in the Cambridge 
# Structural Database, then it will include bibliographic, chemical, 
# crystal, experimental, refinement or atomic coordinate data resulting 
# from the CCDC's data processing and validation procedures.
#
#######################################################################

data_ASOFAQ
_chemical_formula_moiety         'C45 H45 B1'
_chemical_name_systematic        
Dimesityl(2''',4''',6'''-trimethyl-1,1':4',1'':4'',1'''-quaterphenyl-4-yl)borane
_symmetry_cell_setting           triclinic
_symmetry_space_group_name_H-M   'P -1'
_symmetry_Int_Tables_number      2
_space_group_name_Hall           '-P 1'
loop_
_symmetry_equiv_pos_site_id
_symmetry_equiv_pos_as_xyz
1 x,y,z
2 -x,-y,-z
_cell_length_a                   10.5203(4)
_cell_length_b                   11.1484(4)
_cell_length_c                   16.2389(6)
_cell_angle_alpha                90.825(3)
_cell_angle_beta                 101.464(3)
_cell_angle_gamma                111.939(2)
_cell_volume                     1723.15
_exptl_crystal_colour            colorless
_exptl_crystal_description       block
_cell_formula_units_Z            2
loop_
_atom_site_label
_atom_site_type_symbol
_atom_site_fract_x
_atom_site_fract_y
_atom_site_fract_z
B1 B 0.2880(3) 1.1859(3) 0.13200(19)
C1 C 0.2536(3) -0.0971(3) 0.6051(2)
H1 H 0.2657 -0.1583 0.5693
C2 C 0.2383(3) -0.1256(3) 0.6862(2)
C3 C 0.2271(3) -0.0322(3) 0.73824(18)
H2 H 0.2180 -0.0495 0.7944
C4 C 0.2287(3) 0.0867(3) 0.71102(17)
C5 C 0.2374(3) 0.1105(2) 0.62784(17)
C6 C 0.2519(3) 0.0173(3) 0.57482(17)
C7 C 0.2718(4) 0.0421(3) 0.48643(18)
H3 H 0.3254 -0.0063 0.4702
H4 H 0.3232 0.1352 0.4842
H5 H 0.1799 0.0136 0.4473
C8 C 0.2239(3) 0.1869(3) 0.77324(17)
H6 H 0.1687 0.1426 0.8137
H7 H 0.1803 0.2418 0.7427
H8 H 0.3197 0.2410 0.8035
C9 C 0.2360(4) -0.2527(3) 0.7173(2)
H9 H 0.2963 -0.2822 0.6905
H10 H 0.1396 -0.3178 0.7029
H11 H 0.2706 -0.2410 0.7787
C10 C 0.3344(3) 0.3538(2) 0.62051(16)
H12 H 0.4078 0.3636 0.6681
C11 C 0.3326(3) 0.4613(3) 0.58011(16)
H13 H 0.4048 0.5437 0.6007
C12 C 0.2278(3) 0.4522(2) 0.50998(15)
C13 C 0.1205(3) 0.3305(2) 0.48443(16)
H14 H 0.0452 0.3213 0.4382
C14 C 0.1219(3) 0.2236(3) 0.52522(16)
H15 H 0.0467 0.1421 0.5068
C15 C 0.2305(3) 0.2312(2) 0.59269(15)
C16 C 0.2343(3) 0.5638(2) 0.46058(16)
C17 C 0.1143(3) 0.5826(3) 0.41969(16)
H16 H 0.0250 0.5257 0.4272
C18 C 0.1218(3) 0.6813(2) 0.36888(16)
H17 H 0.0377 0.6911 0.3423
C19 C 0.2493(3) 0.7674(2) 0.35530(16)
C20 C 0.3695(3) 0.7507(3) 0.39804(18)
H18 H 0.4590 0.8089 0.3916
C21 C 0.3617(3) 0.6518(3) 0.44959(18)
H19 H 0.4460 0.6441 0.4781
C22 C 0.2591(3) 0.8723(2) 0.29893(16)
C23 C 0.1498(3) 0.9150(3) 0.27621(17)
H20 H 0.0668 0.8754 0.2968
C24 C 0.1590(3) 1.0136(3) 0.22447(17)
H21 H 0.0832 1.0420 0.2122
C25 C 0.2755(3) 1.0729(3) 0.18960(16)
C26 C 0.3843(3) 1.0278(3) 0.21192(16)
H22 H 0.4657 1.0645 0.1893
C27 C 0.3770(3) 0.9317(3) 0.26583(16)
H23 H 0.4543 0.9057 0.2805
C28 C 0.2964(3) 1.3260(3) 0.29743(16)
H24 H 0.3366 1.4112 0.3301
H25 H 0.3723 1.3029 0.2850
H26 H 0.2422 1.2606 0.3302
C29 C 0.0899(3) 1.2164(3) -0.01984(15)
H27 H 0.0113 1.2242 -0.0602
H28 H 0.0726 1.1243 -0.0153
H29 H 0.1769 1.2586 -0.0395
C30 C -0.0498(3) 1.5039(3) 0.15228(19)
H30 H -0.0523 1.5207 0.2112
H31 H -0.1459 1.4598 0.1189
H32 H -0.0043 1.5865 0.1297
C31 C 0.1959(3) 1.2687(2) 0.13795(15)
C32 C 0.1033(3) 1.2808(2) 0.06513(16)
C33 C 0.0220(3) 1.3527(3) 0.07188(17)
H33 H -0.0428 1.3567 0.0231
C34 C 0.0323(3) 1.4187(3) 0.14760(18)
C35 C 0.1222(3) 1.4060(3) 0.21809(17)
H34 H 0.1305 1.4505 0.2704
C36 C 0.2010(3) 1.3309(3) 0.21561(16)
C37 C 0.2678(3) 0.9871(2) -0.00624(17)
H35 H 0.3034 0.9263 -0.0281
H36 H 0.1845 0.9854 -0.0468
H37 H 0.2427 0.9614 0.0477
C38 C 0.5264(3) 1.4456(3) 0.14573(17)
H38 H 0.5949 1.5283 0.1347
H39 H 0.5637 1.4199 0.1997
H40 H 0.4385 1.4557 0.1481
C39 C 0.6632(3) 1.3156(3) -0.10807(19)
H41 H 0.7144 1.2578 -0.1066
H42 H 0.7303 1.4057 -0.0938
H43 H 0.6051 1.3065 -0.1648
C40 C 0.3913(3) 1.2168(2) 0.07074(15)
C41 C 0.4986(3) 1.3420(2) 0.07553(16)
C42 C 0.5830(3) 1.3703(3) 0.01821(18)
H44 H 0.6526 1.4555 0.0221
C43 C 0.5704(3) 1.2796(3) -0.04487(17)
C44 C 0.4697(3) 1.1564(3) -0.04877(17)
H45 H 0.4610 1.0920 -0.0909
C45 C 0.3808(3) 1.1236(2) 0.00700(16)
loop_
_geom_bond_atom_site_label_1
_geom_bond_atom_site_label_2
_geom_bond_site_symmetry_1
_geom_bond_site_symmetry_2
B1 C25 1_555 1_555
C1 H1 1_555 1_555
C2 C1 1_555 1_555
C3 C2 1_555 1_555
H2 C3 1_555 1_555
C4 C3 1_555 1_555
C5 C4 1_555 1_555
C6 C1 1_555 1_555
C7 C6 1_555 1_555
H3 C7 1_555 1_555
H4 C7 1_555 1_555
H5 C7 1_555 1_555
C8 C4 1_555 1_555
H6 C8 1_555 1_555
H7 C8 1_555 1_555
H8 C8 1_555 1_555
C9 C2 1_555 1_555
H9 C9 1_555 1_555
H10 C9 1_555 1_555
H11 C9 1_555 1_555
C10 H12 1_555 1_555
C11 C10 1_555 1_555
H13 C11 1_555 1_555
C12 C11 1_555 1_555
C13 C12 1_555 1_555
H14 C13 1_555 1_555
C14 C13 1_555 1_555
H15 C14 1_555 1_555
C15 C5 1_555 1_555
C16 C12 1_555 1_555
C17 C16 1_555 1_555
H16 C17 1_555 1_555
C18 C17 1_555 1_555
H17 C18 1_555 1_555
C19 C18 1_555 1_555
C20 C19 1_555 1_555
H18 C20 1_555 1_555
C21 C16 1_555 1_555
H19 C21 1_555 1_555
C22 C19 1_555 1_555
C23 C22 1_555 1_555
H20 C23 1_555 1_555
C24 C23 1_555 1_555
H21 C24 1_555 1_555
C25 C24 1_555 1_555
C26 C25 1_555 1_555
H22 C26 1_555 1_555
C27 C22 1_555 1_555
H23 C27 1_555 1_555
C28 H24 1_555 1_555
H25 C28 1_555 1_555
H26 C28 1_555 1_555
C29 H27 1_555 1_555
H28 C29 1_555 1_555
H29 C29 1_555 1_555
C30 H30 1_555 1_555
H31 C30 1_555 1_555
H32 C30 1_555 1_555
C31 B1 1_555 1_555
C32 C29 1_555 1_555
C33 C32 1_555 1_555
H33 C33 1_555 1_555
C34 C30 1_555 1_555
C35 C34 1_555 1_555
H34 C35 1_555 1_555
C36 C28 1_555 1_555
C37 H35 1_555 1_555
H36 C37 1_555 1_555
H37 C37 1_555 1_555
C38 H38 1_555 1_555
H39 C38 1_555 1_555
H40 C38 1_555 1_555
C39 H41 1_555 1_555
H42 C39 1_555 1_555
H43 C39 1_555 1_555
C40 B1 1_555 1_555
C41 C38 1_555 1_555
C42 C41 1_555 1_555
H44 C42 1_555 1_555
C43 C39 1_555 1_555
C44 C43 1_555 1_555
H45 C44 1_555 1_555
C45 C37 1_555 1_555
C5 C6 1_555 1_555
C10 C15 1_555 1_555
C14 C15 1_555 1_555
C20 C21 1_555 1_555
C26 C27 1_555 1_555
C31 C32 1_555 1_555
C31 C36 1_555 1_555
C33 C34 1_555 1_555
C35 C36 1_555 1_555
C40 C41 1_555 1_555
C40 C45 1_555 1_555
C42 C43 1_555 1_555
C44 C45 1_555 1_555

#END
