
#######################################################################
#
#                 Cambridge Crystallographic Data Centre
#                                CCDC 
#
#######################################################################
#
# If this CIF has been generated from an entry in the Cambridge 
# Structural Database, then it will include bibliographic, chemical, 
# crystal, experimental, refinement or atomic coordinate data resulting 
# from the CCDC's data processing and validation procedures.
#
#######################################################################

data_ASOQEG
_chemical_formula_moiety         'C70,C14 H12 S6'
_chemical_name_systematic        
"1,3,6,8-tetramethylthieno[3,4-b]thieno[3',4':5,6][1,4]dithiino[2,3-e][1,4]dithiine C70fullerene"
_symmetry_cell_setting           triclinic
_symmetry_space_group_name_H-M   'P -1'
_symmetry_Int_Tables_number      2
_space_group_name_Hall           '-P 1'
loop_
_symmetry_equiv_pos_site_id
_symmetry_equiv_pos_as_xyz
1 x,y,z
2 -x,-y,-z
_cell_length_a                   10.1580(9)
_cell_length_b                   12.6980(9)
_cell_length_c                   19.1600(13)
_cell_angle_alpha                93.18
_cell_angle_beta                 99.488(12)
_cell_angle_gamma                104.98
_cell_volume                     2342.22
_exptl_crystal_colour            black
_exptl_crystal_description       block
_chemical_melting_point          '568 K'
_cell_formula_units_Z            2
loop_
_atom_site_label
_atom_site_type_symbol
_atom_site_fract_x
_atom_site_fract_y
_atom_site_fract_z
C1 C 0.7982(2) 0.56373(19) 0.18298(13)
C2 C 0.8735(2) 0.45047(19) 0.09223(13)
C3 C 0.7262(3) 0.55871(19) 0.11484(14)
C4 C 0.7680(3) 0.49426(19) 0.06369(13)
C5 C 0.4800(3) 0.5305(2) 0.02390(13)
C6 C 0.7770(3) 0.61927(19) 0.25001(14)
H1 H 0.8135 0.6971 0.2510
H2 H 0.8243 0.5940 0.2906
H3 H 0.6797 0.6021 0.2512
C7 C 0.9395(3) 0.3776(2) 0.05507(14)
H4 H 0.9083 0.3043 0.0676
H5 H 1.0384 0.4035 0.0691
H6 H 0.9141 0.3779 0.0046
S1 S 0.92251(6) 0.49249(5) 0.18276(3)
S2 S 0.59691(7) 0.62678(5) 0.09143(3)
S3 S 0.69381(6) 0.47500(5) -0.02764(3)
C1A C 0.2018(2) 0.43627(19) -0.18298(13)
C2A C 0.1265(2) 0.54953(19) -0.09223(13)
C3A C 0.2738(3) 0.44129(19) -0.11484(14)
C4A C 0.2320(3) 0.50574(19) -0.06369(13)
C5A C 0.5200(3) 0.4695(2) -0.02390(13)
C6A C 0.2230(3) 0.38073(19) -0.25001(14)
H1A H 0.1865 0.3029 -0.2510
H2A H 0.1757 0.4060 -0.2906
H3A H 0.3203 0.3979 -0.2512
C7A C 0.0605(3) 0.6224(2) -0.05507(14)
H4A H 0.0917 0.6957 -0.0676
H5A H -0.0384 0.5965 -0.0691
H6A H 0.0859 0.6221 -0.0046
S1A S 0.07749(6) 0.50751(5) -0.18276(3)
S2A S 0.40309(7) 0.37322(5) -0.09143(3)
S3A S 0.30619(6) 0.52500(5) 0.02764(3)
C8 C 0.8732(3) 0.71724(19) 0.48380(13)
C9 C 0.9277(2) 0.57473(19) 0.56194(13)
C10 C 0.7618(2) 0.62736(18) 0.48086(12)
C11 C 0.4849(2) 0.53826(18) 0.47880(12)
C12 C 0.2066(2) 0.45363(18) 0.47464(12)
C13 C 0.8773(3) 0.8198(2) 0.44731(14)
H7 H 0.8755 0.8041 0.3975
H8 H 0.9608 0.8754 0.4678
H9 H 0.7983 0.8452 0.4534
C14 C 0.9961(3) 0.5133(2) 0.61487(14)
H10 H 0.9268 0.4549 0.6282
H11 H 1.0453 0.5623 0.6563
H12 H 1.0600 0.4834 0.5940
S4 S 1.01730(6) 0.70057(5) 0.53963(3)
S5 S 0.59865(6) 0.61074(5) 0.42618(3)
S6 S 0.32982(6) 0.57875(4) 0.46891(3)
C8A C 0.1268(3) 0.28276(19) 0.51620(13)
C9A C 0.0723(2) 0.42527(19) 0.43806(13)
C10A C 0.2382(2) 0.37264(18) 0.51914(12)
C11A C 0.5151(2) 0.46174(18) 0.52120(12)
C12A C 0.7934(2) 0.54637(18) 0.52536(12)
C13A C 0.1227(3) 0.1802(2) 0.55269(14)
H7A H 0.1245 0.1959 0.6025
H8A H 0.0392 0.1246 0.5322
H9A H 0.2017 0.1548 0.5466
C14A C 0.0039(3) 0.4867(2) 0.38513(14)
H10A H 0.0732 0.5451 0.3718
H11A H -0.0453 0.4377 0.3437
H12A H -0.0600 0.5166 0.4060
S4A S -0.01730(6) 0.29943(5) 0.46037(3)
S5A S 0.40135(6) 0.38926(5) 0.57382(3)
S6A S 0.67018(6) 0.42125(4) 0.53109(3)
C15 C 0.5448(3) 0.9678(2) 0.10791(15)
C16 C 0.4780(3) 0.8556(2) 0.11896(15)
C17 C 0.5458(3) 0.8317(2) 0.18656(15)
C18 C 0.6544(3) 0.9293(2) 0.21685(16)
C19 C 0.6544(3) 1.0131(2) 0.16825(15)
C20 C 0.3354(3) 0.8140(2) 0.09732(14)
C21 C 0.2540(3) 0.8826(2) 0.06397(13)
C22 C 0.1238(3) 0.8592(2) 0.08832(13)
C23 C 0.1239(3) 0.7749(2) 0.13737(15)
C24 C 0.2544(3) 0.7463(2) 0.14220(15)
C25 C 0.4690(3) 0.7661(2) 0.22942(16)
C26 C 0.3192(3) 0.72227(19) 0.20723(16)
C27 C 0.2571(3) 0.72614(19) 0.26956(15)
C28 C 0.3672(3) 0.7726(2) 0.33074(15)
C29 C 0.4978(3) 0.7969(2) 0.30612(15)
C30 C 0.6819(3) 0.9587(2) 0.28954(15)
C31 C 0.6022(3) 0.8915(2) 0.33534(15)
C32 C 0.5801(3) 0.9652(2) 0.38978(14)
C33 C 0.6487(3) 1.0772(2) 0.37850(14)
C34 C 0.7104(2) 1.0732(2) 0.31712(15)
C35 C 0.1312(3) 0.7545(2) 0.26420(15)
C36 C 0.0651(3) 0.7795(2) 0.19658(15)
C37 C 0.0019(2) 0.8670(2) 0.21016(14)
C38 C 0.0304(2) 0.8975(2) 0.28576(14)
C39 C 0.1111(3) 0.8287(2) 0.31884(15)
C40 C 0.3459(3) 0.8437(2) 0.38339(14)
C41 C 0.2162(3) 0.8722(2) 0.37766(14)
C42 C 0.2439(3) 0.9861(2) 0.40450(13)
C43 C 0.3913(3) 1.0292(2) 0.42611(13)
C44 C 0.4555(3) 0.9417(2) 0.41295(13)
C45 C 0.2967(3) 1.1826(2) 0.05544(14)
C46 C 0.2352(3) 1.0648(2) 0.04341(13)
C47 C 0.1070(3) 1.0408(2) 0.06810(13)
C48 C 0.0868(3) 1.1436(2) 0.09565(14)
C49 C 0.2042(3) 1.2323(2) 0.08707(14)
C50 C 0.4167(3) 1.3106(2) 0.37150(15)
C51 C 0.3729(3) 1.2115(2) 0.40585(13)
C52 C 0.2254(3) 1.1689(2) 0.38368(14)
C53 C 0.1770(3) 1.2412(2) 0.33561(15)
C54 C 0.2955(3) 1.3302(2) 0.32808(16)
C55 C 0.1938(3) 1.3254(2) 0.20158(16)
C56 C 0.3042(3) 1.3719(2) 0.26287(17)
C57 C 0.4353(3) 1.3958(2) 0.23816(17)
C58 C 0.4076(3) 1.3645(2) 0.16148(17)
C59 C 0.2572(3) 1.3212(2) 0.13950(16)
C60 C 0.0799(3) 1.2403(2) 0.20916(15)
C61 C 0.0718(3) 1.1972(2) 0.27716(15)
C62 C 0.0117(2) 1.0796(2) 0.26485(14)
C63 C -0.0172(2) 1.0488(2) 0.18940(14)
C64 C 0.0259(2) 1.1480(2) 0.15485(15)
C65 C 0.5418(3) 1.3335(2) 0.34813(15)
C66 C 0.6289(3) 1.2587(2) 0.35753(15)
C67 C 0.6908(2) 1.2546(2) 0.29615(15)
C68 C 0.6425(3) 1.3266(2) 0.24796(16)
C69 C 0.5517(3) 1.3766(2) 0.27993(17)
C70 C 0.4393(3) 1.2246(2) 0.07665(15)
C71 C 0.5262(3) 1.1489(2) 0.08667(15)
C72 C 0.6344(3) 1.1950(2) 0.14703(16)
C73 C 0.6151(3) 1.2969(2) 0.17472(16)
C74 C 0.4950(3) 1.3170(2) 0.13086(16)
C75 C -0.0078(2) 0.9459(2) 0.16107(14)
C76 C 0.0558(3) 0.9415(2) 0.09815(13)
C77 C 0.3183(3) 0.9903(2) 0.04830(13)
C78 C 0.4703(3) 1.0341(2) 0.07116(14)
C79 C 0.6905(3) 1.1263(2) 0.19315(16)
C80 C 0.7197(2) 1.1570(2) 0.27050(15)
C81 C 0.5932(3) 1.1654(2) 0.39549(13)
C82 C 0.4602(3) 1.1407(2) 0.42028(13)
C83 C 0.1606(3) 1.0540(2) 0.37584(13)
C84 C 0.0488(3) 1.0077(2) 0.31389(14)
loop_
_geom_bond_atom_site_label_1
_geom_bond_atom_site_label_2
_geom_bond_site_symmetry_1
_geom_bond_site_symmetry_2
C1 C3 1_555 1_555
C2 C4 1_555 1_555
C3 C4 1_555 1_555
C4 S3 1_555 1_555
C5 S2 1_555 1_555
C6 C1 1_555 1_555
H1 C6 1_555 1_555
H2 C6 1_555 1_555
H3 C6 1_555 1_555
C7 C2 1_555 1_555
H4 C7 1_555 1_555
H5 C7 1_555 1_555
H6 C7 1_555 1_555
S1 C1 1_555 1_555
S2 C3 1_555 1_555
S3 C5A 1_555 1_555
C8 C10 1_555 1_555
C9 C14 1_555 1_555
C10 S5 1_555 1_555
C11 S5 1_555 1_555
C12 S6 1_555 1_555
C13 C8 1_555 1_555
H7 C13 1_555 1_555
H8 C13 1_555 1_555
H9 C13 1_555 1_555
C14 H10 1_555 1_555
H11 C14 1_555 1_555
H12 C14 1_555 1_555
S4 C8 1_555 1_555
S6 C11 1_555 1_555
C15 C16 1_555 1_555
C16 C17 1_555 1_555
C17 C18 1_555 1_555
C18 C19 1_555 1_555
C19 C15 1_555 1_555
C20 C16 1_555 1_555
C21 C20 1_555 1_555
C22 C21 1_555 1_555
C23 C22 1_555 1_555
C24 C20 1_555 1_555
C25 C17 1_555 1_555
C26 C24 1_555 1_555
C27 C26 1_555 1_555
C28 C27 1_555 1_555
C29 C25 1_555 1_555
C30 C18 1_555 1_555
C31 C29 1_555 1_555
C32 C31 1_555 1_555
C33 C32 1_555 1_555
C34 C30 1_555 1_555
C35 C27 1_555 1_555
C36 C23 1_555 1_555
C37 C36 1_555 1_555
C38 C37 1_555 1_555
C39 C35 1_555 1_555
C40 C28 1_555 1_555
C41 C39 1_555 1_555
C42 C41 1_555 1_555
C43 C42 1_555 1_555
C44 C32 1_555 1_555
C45 C46 1_555 1_555
C46 C47 1_555 1_555
C47 C48 1_555 1_555
C48 C49 1_555 1_555
C49 C45 1_555 1_555
C50 C51 1_555 1_555
C51 C52 1_555 1_555
C52 C53 1_555 1_555
C53 C54 1_555 1_555
C54 C50 1_555 1_555
C55 C56 1_555 1_555
C56 C54 1_555 1_555
C57 C56 1_555 1_555
C58 C57 1_555 1_555
C59 C49 1_555 1_555
C60 C55 1_555 1_555
C61 C53 1_555 1_555
C62 C61 1_555 1_555
C63 C62 1_555 1_555
C64 C48 1_555 1_555
C65 C50 1_555 1_555
C66 C65 1_555 1_555
C67 C66 1_555 1_555
C68 C67 1_555 1_555
C69 C57 1_555 1_555
C70 C45 1_555 1_555
C71 C70 1_555 1_555
C72 C71 1_555 1_555
C73 C68 1_555 1_555
C74 C58 1_555 1_555
C75 C37 1_555 1_555
C76 C22 1_555 1_555
C77 C21 1_555 1_555
C78 C15 1_555 1_555
C79 C19 1_555 1_555
C80 C34 1_555 1_555
C81 C33 1_555 1_555
C82 C43 1_555 1_555
C83 C42 1_555 1_555
C84 C38 1_555 1_555
C1A C3A 1_555 1_555
C2A C4A 1_555 1_555
C3A C4A 1_555 1_555
C4A S3A 1_555 1_555
C5A C5 1_555 1_555
C6A C1A 1_555 1_555
H1A C6A 1_555 1_555
H2A C6A 1_555 1_555
H3A C6A 1_555 1_555
C7A C2A 1_555 1_555
H4A C7A 1_555 1_555
H5A C7A 1_555 1_555
H6A C7A 1_555 1_555
S1A C1A 1_555 1_555
S2A C3A 1_555 1_555
S3A C5 1_555 1_555
C8A C10A 1_555 1_555
C9A C12 1_555 1_555
C10A C12 1_555 1_555
C11A C11 1_555 1_555
C12A C9 1_555 1_555
C13A C8A 1_555 1_555
H7A C13A 1_555 1_555
H8A C13A 1_555 1_555
H9A C13A 1_555 1_555
C14A C9A 1_555 1_555
H10A C14A 1_555 1_555
H11A C14A 1_555 1_555
H12A C14A 1_555 1_555
S4A C8A 1_555 1_555
S5A C10A 1_555 1_555
S6A C11A 1_555 1_555
C2 S1 1_555 1_555
C9 S4 1_555 1_555
C10 C12A 1_555 1_555
C23 C24 1_555 1_555
C25 C26 1_555 1_555
C28 C29 1_555 1_555
C30 C31 1_555 1_555
C33 C34 1_555 1_555
C35 C36 1_555 1_555
C38 C39 1_555 1_555
C40 C41 1_555 1_555
C40 C44 1_555 1_555
C43 C44 1_555 1_555
C46 C77 1_555 1_555
C47 C76 1_555 1_555
C51 C82 1_555 1_555
C52 C83 1_555 1_555
C55 C59 1_555 1_555
C58 C59 1_555 1_555
C60 C61 1_555 1_555
C60 C64 1_555 1_555
C62 C84 1_555 1_555
C63 C64 1_555 1_555
C63 C75 1_555 1_555
C65 C69 1_555 1_555
C66 C81 1_555 1_555
C67 C80 1_555 1_555
C68 C69 1_555 1_555
C70 C74 1_555 1_555
C71 C78 1_555 1_555
C72 C73 1_555 1_555
C72 C79 1_555 1_555
C73 C74 1_555 1_555
C75 C76 1_555 1_555
C77 C78 1_555 1_555
C79 C80 1_555 1_555
C81 C82 1_555 1_555
C83 C84 1_555 1_555
C2A S1A 1_555 1_555
C5A S2A 1_555 1_555
C9A S4A 1_555 1_555
C11A S5A 1_555 1_555
C12A S6A 1_555 1_555

#END
