
#######################################################################
#
#                 Cambridge Crystallographic Data Centre
#                                CCDC 
#
#######################################################################
#
# If this CIF has been generated from an entry in the Cambridge 
# Structural Database, then it will include bibliographic, chemical, 
# crystal, experimental, refinement or atomic coordinate data resulting 
# from the CCDC's data processing and validation procedures.
#
#######################################################################

data_ASOTUZ
_chemical_formula_moiety         'C33 H22 Cl2 N2,H2 O1'
_chemical_name_systematic        
'5,6-dichloro-2-(4-(triphenylvinyl)phenyl)-1H-benzimidazole monohydrate'
_symmetry_cell_setting           monoclinic
_symmetry_space_group_name_H-M   'P 21/c'
_symmetry_Int_Tables_number      14
_space_group_name_Hall           '-P 2ybc'
loop_
_symmetry_equiv_pos_site_id
_symmetry_equiv_pos_as_xyz
1 x,y,z
2 -x,1/2+y,1/2-z
3 -x,-y,-z
4 x,1/2-y,1/2+z
_cell_length_a                   26.19(3)
_cell_length_b                   9.313(10)
_cell_length_c                   11.122(12)
_cell_angle_alpha                90
_cell_angle_beta                 101.79(2)
_cell_angle_gamma                90
_cell_volume                     2655.51
_exptl_crystal_colour            colorless
_exptl_crystal_description       block
_cell_formula_units_Z            4
loop_
_atom_site_label
_atom_site_type_symbol
_atom_site_fract_x
_atom_site_fract_y
_atom_site_fract_z
Cl1 Cl -0.12579(3) 0.22266(10) 0.53345(9)
Cl2 Cl -0.11880(3) -0.00544(10) 0.33157(9)
N1 N 0.06496(9) 0.3321(2) 0.5130(2)
H1 H 0.0738 0.4017 0.5639
N2 N 0.07078(10) 0.1674(3) 0.3742(2)
C1 C 0.09601(12) 0.2680(3) 0.4457(3)
C2 C 0.15028(11) 0.3035(3) 0.4559(3)
C3 C 0.17408(13) 0.4078(3) 0.5362(3)
H2 H 0.1548 0.4582 0.5838
C4 C 0.22565(13) 0.4371(3) 0.5459(3)
H3 H 0.2408 0.5096 0.5989
C5 C 0.25579(11) 0.3637(3) 0.4805(3)
C6 C 0.23200(12) 0.2593(3) 0.4010(3)
H4 H 0.2516 0.2067 0.3555
C7 C 0.18014(12) 0.2321(3) 0.3880(3)
H5 H 0.1647 0.1632 0.3316
C8 C 0.31256(12) 0.3925(3) 0.5007(3)
C9 C 0.33162(12) 0.5236(3) 0.4902(3)
C10 C 0.29689(11) 0.6421(3) 0.4356(3)
C11 C 0.29666(12) 0.7691(4) 0.4973(3)
H6 H 0.3194 0.7819 0.5725
C12 C 0.26356(15) 0.8767(4) 0.4499(4)
H7 H 0.2628 0.9607 0.4947
C13 C 0.23158(13) 0.8628(4) 0.3374(4)
H8 H 0.2095 0.9375 0.3046
C14 C 0.23224(13) 0.7394(4) 0.2740(3)
H9 H 0.2105 0.7293 0.1971
C15 C 0.26461(12) 0.6289(3) 0.3220(3)
H10 H 0.2648 0.5445 0.2774
C16 C 0.34593(12) 0.2646(3) 0.5395(3)
C17 C 0.33732(13) 0.1822(4) 0.6356(3)
H11 H 0.3113 0.2077 0.6774
C18 C 0.36698(15) 0.0628(4) 0.6701(4)
H12 H 0.3615 0.0092 0.7369
C19 C 0.40374(14) 0.0212(4) 0.6099(4)
H13 H 0.4234 -0.0608 0.6343
C20 C 0.41205(13) 0.0996(4) 0.5133(4)
H14 H 0.4374 0.0709 0.4707
C21 C 0.38314(13) 0.2219(4) 0.4778(3)
H15 H 0.3891 0.2754 0.4115
C22 C 0.38697(12) 0.5626(3) 0.5369(3)
C23 C 0.41183(14) 0.5262(4) 0.6542(4)
H16 H 0.3942 0.4736 0.7041
C24 C 0.46258(16) 0.5674(4) 0.6977(4)
H17 H 0.4789 0.5430 0.7774
C25 C 0.48894(15) 0.6417(4) 0.6277(5)
H18 H 0.5235 0.6669 0.6581
C26 C 0.46521(14) 0.6804(4) 0.5124(4)
H19 H 0.4833 0.7327 0.4633
C27 C 0.41407(13) 0.6417(3) 0.4688(4)
H20 H 0.3976 0.6705 0.3904
C28 C 0.01737(12) 0.2679(3) 0.4867(3)
C29 C 0.02167(12) 0.1661(3) 0.3974(3)
C30 C -0.02107(13) 0.0801(3) 0.3514(3)
H21 H -0.0189 0.0099 0.2931
C31 C -0.06593(12) 0.0990(3) 0.3921(3)
C32 C -0.06915(12) 0.2008(4) 0.4816(3)
C33 C -0.02744(12) 0.2867(3) 0.5290(3)
H22 H -0.0297 0.3558 0.5881
O1 O 0.08655(9) 0.5246(2) 0.7053(2)
H23 H 0.0946 0.6079 0.7345
H24 H 0.0893 0.4647 0.7639
loop_
_geom_bond_atom_site_label_1
_geom_bond_atom_site_label_2
_geom_bond_site_symmetry_1
_geom_bond_site_symmetry_2
Cl1 C32 1_555 1_555
Cl2 C31 1_555 1_555
N1 H1 1_555 1_555
N2 C1 1_555 1_555
C1 N1 1_555 1_555
C2 C1 1_555 1_555
C3 C2 1_555 1_555
H2 C3 1_555 1_555
C4 C3 1_555 1_555
H3 C4 1_555 1_555
C5 C4 1_555 1_555
C6 C5 1_555 1_555
H4 C6 1_555 1_555
C7 C2 1_555 1_555
H5 C7 1_555 1_555
C8 C5 1_555 1_555
C9 C8 1_555 1_555
C10 C9 1_555 1_555
C11 C10 1_555 1_555
H6 C11 1_555 1_555
C12 C11 1_555 1_555
H7 C12 1_555 1_555
C13 C12 1_555 1_555
H8 C13 1_555 1_555
C14 C13 1_555 1_555
H9 C14 1_555 1_555
C15 C10 1_555 1_555
H10 C15 1_555 1_555
C16 C8 1_555 1_555
C17 C16 1_555 1_555
H11 C17 1_555 1_555
C18 C17 1_555 1_555
H12 C18 1_555 1_555
C19 C18 1_555 1_555
H13 C19 1_555 1_555
C20 C19 1_555 1_555
H14 C20 1_555 1_555
C21 C16 1_555 1_555
H15 C21 1_555 1_555
C22 C9 1_555 1_555
C23 C22 1_555 1_555
H16 C23 1_555 1_555
C24 C23 1_555 1_555
H17 C24 1_555 1_555
C25 C24 1_555 1_555
H18 C25 1_555 1_555
C26 C25 1_555 1_555
H19 C26 1_555 1_555
C27 C22 1_555 1_555
H20 C27 1_555 1_555
C28 N1 1_555 1_555
C29 N2 1_555 1_555
C30 C29 1_555 1_555
H21 C30 1_555 1_555
C31 C30 1_555 1_555
C32 C31 1_555 1_555
C33 C28 1_555 1_555
H22 C33 1_555 1_555
O1 H23 1_555 1_555
H24 O1 1_555 1_555
C6 C7 1_555 1_555
C14 C15 1_555 1_555
C20 C21 1_555 1_555
C26 C27 1_555 1_555
C28 C29 1_555 1_555
C32 C33 1_555 1_555

#END
