
#######################################################################
#
#                 Cambridge Crystallographic Data Centre
#                                CCDC 
#
#######################################################################
#
# If this CIF has been generated from an entry in the Cambridge 
# Structural Database, then it will include bibliographic, chemical, 
# crystal, experimental, refinement or atomic coordinate data resulting 
# from the CCDC's data processing and validation procedures.
#
#######################################################################

data_ASOZOY
_chemical_name_common            2,2'-Pyrene-2,7-diyldithiophene
_chemical_formula_moiety         'C24 H14 S2'
_chemical_name_systematic        2,7-bis(Thiophen-2-yl)pyrene
_symmetry_cell_setting           monoclinic
_symmetry_space_group_name_H-M   'C 2/c'
_symmetry_Int_Tables_number      15
_space_group_name_Hall           '-C 2yn'
loop_
_symmetry_equiv_pos_site_id
_symmetry_equiv_pos_as_xyz
1 x,y,z
2 -x,y,1/2-z
3 1/2+x,1/2+y,z
4 1/2-x,1/2+y,1/2-z
5 -x,-y,-z
6 x,-y,1/2+z
7 1/2-x,1/2-y,-z
8 1/2+x,1/2-y,1/2+z
_cell_length_a                   21.662(4)
_cell_length_b                   4.0056(8)
_cell_length_c                   21.773(4)
_cell_angle_alpha                90
_cell_angle_beta                 117.65(3)
_cell_angle_gamma                90
_cell_volume                     1673.48
_exptl_crystal_colour            yellow
_exptl_crystal_description       needle
_chemical_melting_point          '298 deg.C'
_cell_formula_units_Z            4
_exptl_crystal_recrystallization_method dichloromethane
loop_
_atom_site_label
_atom_site_type_symbol
_atom_site_fract_x
_atom_site_fract_y
_atom_site_fract_z
S1 S 0.16104(9) 0.6599(5) 0.21789(6)
C1 C 0.0863(7) 0.668(8) 0.2231(12)
H1 H 0.0835 0.7539 0.2624
C2 C 0.0302(9) 0.545(5) 0.1676(8)
H2 H -0.0153 0.5204 0.1630
C3 C 0.0531(3) 0.453(3) 0.1145(6)
H3 H 0.0223 0.3695 0.0698
C4 C 0.12327(10) 0.5014(4) 0.13698(9)
C5 C 0.16074(9) 0.4239(4) 0.09711(9)
C6 C 0.12874(9) 0.2415(4) 0.03564(9)
H4 H 0.0824 0.1637 0.0202
C7 C 0.16269(9) 0.1698(4) -0.00379(8)
C8 C 0.23219(9) 0.2847(4) 0.01966(8)
C9 C 0.26552(9) 0.4684(4) 0.08241(9)
C10 C 0.22930(9) 0.5362(4) 0.11990(9)
H5 H 0.2515 0.6610 0.1617
C11 C 0.13052(9) -0.0159(4) -0.06730(9)
H6 H 0.0840 -0.0927 -0.0837
C12 C 0.33548(9) 0.5846(4) 0.10443(9)
H7 H 0.3582 0.7119 0.1458
S1F S 0.33896(9) -0.1599(5) -0.21789(6)
C1F C 0.4137(7) -0.168(8) -0.2231(12)
H1F H 0.4165 -0.2539 -0.2624
C2F C 0.4698(9) -0.045(5) -0.1676(8)
H2F H 0.5153 -0.0204 -0.1630
C3F C 0.4469(3) 0.047(3) -0.1145(6)
H3F H 0.4777 0.1305 -0.0698
C4F C 0.37673(10) -0.0014(4) -0.13698(9)
C5F C 0.33926(9) 0.0761(4) -0.09711(9)
C6F C 0.37126(9) 0.2585(4) -0.03564(9)
H4F H 0.4176 0.3363 -0.0202
C7F C 0.33731(9) 0.3302(4) 0.00379(8)
C8F C 0.26781(9) 0.2153(4) -0.01966(8)
C9F C 0.23448(9) 0.0316(4) -0.08241(9)
C10F C 0.27070(9) -0.0362(4) -0.11990(9)
H5F H 0.2485 -0.1610 -0.1617
C11F C 0.36948(9) 0.5159(4) 0.06730(9)
H6F H 0.4160 0.5927 0.0837
C12F C 0.16452(9) -0.0846(4) -0.10443(9)
H7F H 0.1418 -0.2119 -0.1458
C13? C 0.1014(12) 0.673(11) 0.2301(18)
C14? C 0.0398(14) 0.600(7) 0.1779(11)
C15? C 0.1529(6) 0.621(3) 0.2033(4)
H8? H 0.1109 0.7449 0.2752
H9? H -0.0020 0.6277 0.1814
H10? H 0.2013 0.6653 0.2297
S2? S 0.03924(9) 0.4549(11) 0.10521(17)
loop_
_geom_bond_atom_site_label_1
_geom_bond_atom_site_label_2
_geom_bond_site_symmetry_1
_geom_bond_site_symmetry_2
S1 C1 1_555 1_555
C1 H1 1_555 1_555
C2 C1 1_555 1_555
H2 C2 1_555 1_555
C3 C2 1_555 1_555
H3 C3 1_555 1_555
C4 S1 1_555 1_555
C5 C4 1_555 1_555
C6 C5 1_555 1_555
H4 C6 1_555 1_555
C7 C6 1_555 1_555
C8 C7 1_555 1_555
C9 C8 1_555 1_555
C10 C5 1_555 1_555
H5 C10 1_555 1_555
C11 C7 1_555 1_555
H6 C11 1_555 1_555
C12 C9 1_555 1_555
H7 C12 1_555 1_555
S1F C1F 1_555 1_555
C1F H1F 1_555 1_555
C2F C1F 1_555 1_555
H2F C2F 1_555 1_555
C3F C2F 1_555 1_555
H3F C3F 1_555 1_555
C4F S1F 1_555 1_555
C5F C4F 1_555 1_555
C6F C5F 1_555 1_555
H4F C6F 1_555 1_555
C7F C6F 1_555 1_555
C8F C8 1_555 1_555
C9F C8F 1_555 1_555
C10F C5F 1_555 1_555
H5F C10F 1_555 1_555
C11F C12 1_555 1_555
H6F C11F 1_555 1_555
C12F C11 1_555 1_555
H7F C12F 1_555 1_555
C3 C4 1_555 1_555
C9 C10 1_555 1_555
C3F C4F 1_555 1_555
C7F C8F 1_555 1_555
C7F C11F 1_555 1_555
C9F C10F 1_555 1_555
C9F C12F 1_555 1_555

#END
