
#######################################################################
#
#                 Cambridge Crystallographic Data Centre
#                                CCDC 
#
#######################################################################
#
# If this CIF has been generated from an entry in the Cambridge 
# Structural Database, then it will include bibliographic, chemical, 
# crystal, experimental, refinement or atomic coordinate data resulting 
# from the CCDC's data processing and validation procedures.
#
#######################################################################

data_ASPIMI10
_chemical_formula_moiety         'C23 H33 N2 O1 1+,I1 1-'
_chemical_name_systematic        
'(+-)-1-Acetyl-3-methyl-aspidospermidine 9-methiodide'
_symmetry_cell_setting           triclinic
_symmetry_space_group_name_H-M   'P -1'
_symmetry_Int_Tables_number      2
_space_group_name_Hall           '-P 1'
loop_
_symmetry_equiv_pos_site_id
_symmetry_equiv_pos_as_xyz
1 x,y,z
2 -x,-y,-z
_cell_length_a                   16.21
_cell_length_b                   14.53
_cell_length_c                   11.08
_cell_angle_alpha                102.10
_cell_angle_beta                 108.05
_cell_angle_gamma                102.75
_cell_volume                     2308.77
_cell_formula_units_Z            4
loop_
_atom_site_label
_atom_site_type_symbol
_atom_site_fract_x
_atom_site_fract_y
_atom_site_fract_z
C1 C 0.36670 0.28160 0.31860
C2 C 0.34420 0.26420 0.17410
C3 C 0.38170 0.17830 0.14330
C4 C 0.38980 0.17170 0.00930
C5 C 0.45830 0.22980 -0.01860
C6 C 0.44720 0.21570 -0.16160
C7 C 0.36550 0.14520 -0.26670
C8 C 0.29510 0.08610 -0.23040
C9 C 0.31020 0.10290 -0.09860
C10 C 0.47030 0.20600 0.27110
C11 C 0.30980 0.07770 0.10180
C12 C 0.55650 0.08550 0.19580
C13 C 0.64910 0.16100 0.22570
C14 C 0.15830 0.01920 -0.10970
C15 C 0.10220 -0.01790 -0.04430
C16 C 0.28180 -0.10830 0.08170
C17 C 0.53060 0.36600 0.45530
C18 C 0.35310 -0.00790 0.11860
C19 C 0.42890 0.02140 0.25970
C20 C 0.50950 0.11780 0.29860
C21 C 0.57440 0.14560 0.44610
C22 C 0.53790 0.18420 0.54860
C23 C 0.45150 0.21240 0.49080
N1 N 0.25470 0.05920 -0.04180
N2 N 0.45460 0.26850 0.38600
O1 O 0.11990 0.01330 -0.22650
C24 C 0.16500 0.26760 -0.33940
C25 C 0.18930 0.28060 -0.19180
C26 C 0.11560 0.32080 -0.16340
C27 C 0.11740 0.31310 -0.03280
C28 C 0.08140 0.23140 0.00850
C29 C 0.10280 0.24380 0.14490
C30 C 0.15710 0.32970 0.24150
C31 C 0.19760 0.41490 0.21000
C32 C 0.17650 0.40280 0.07090
C33 C 0.02590 0.25830 -0.29220
C34 C 0.14060 0.43840 -0.13600
C35 C -0.10190 0.27960 -0.23160
C36 C -0.18840 0.31630 -0.25590
C37 C 0.28490 0.54950 0.07190
C38 C 0.31370 0.61160 -0.00560
C39 C 0.07960 0.58680 -0.13730
C40 C 0.02610 0.11760 -0.46800
C41 C 0.05620 0.47280 -0.15710
C42 C -0.01630 0.41460 -0.29990
C43 C -0.05410 0.30330 -0.32530
C44 C -0.12270 0.24510 -0.47530
C45 C -0.08000 0.25200 -0.58320
C46 C 0.02580 0.27270 -0.51850
N3 N 0.20450 0.47360 0.01360
N4 N 0.05860 0.22910 -0.40370
O2 O 0.33810 0.56540 0.19370
I1 I 0.18480 0.03900 0.36030
I2 I -0.23540 0.46150 0.40540
loop_
_geom_bond_atom_site_label_1
_geom_bond_atom_site_label_2
_geom_bond_site_symmetry_1
_geom_bond_site_symmetry_2
C1 C2 1_555 1_555
C2 C3 1_555 1_555
C3 C4 1_555 1_555
C4 C5 1_555 1_555
C5 C6 1_555 1_555
C6 C7 1_555 1_555
C7 C8 1_555 1_555
C8 C9 1_555 1_555
C9 C4 1_555 1_555
C10 C3 1_555 1_555
C11 C3 1_555 1_555
C12 C13 1_555 1_555
C14 C15 1_555 1_555
C16 C18 1_555 1_555
C17 N2 1_555 1_555
C18 C11 1_555 1_555
C19 C18 1_555 1_555
C20 C10 1_555 1_555
C21 C20 1_555 1_555
C22 C21 1_555 1_555
C23 C22 1_555 1_555
N1 C9 1_555 1_555
N2 C1 1_555 1_555
O1 C14 1_555 1_555
C24 C25 1_555 1_555
C25 C26 1_555 1_555
C26 C27 1_555 1_555
C27 C28 1_555 1_555
C28 C29 1_555 1_555
C29 C30 1_555 1_555
C30 C31 1_555 1_555
C31 C32 1_555 1_555
C32 C27 1_555 1_555
C33 C26 1_555 1_555
C34 C26 1_555 1_555
C35 C36 1_555 1_555
C37 C38 1_555 1_555
C39 C41 1_555 1_555
C40 N4 1_555 1_555
C41 C34 1_555 1_555
C42 C41 1_555 1_555
C43 C33 1_555 1_555
C44 C43 1_555 1_555
C45 C44 1_555 1_555
C46 C45 1_555 1_555
N3 C32 1_555 1_555
N4 C24 1_555 1_555
O2 C37 1_555 1_555
C10 N2 1_555 1_555
C11 N1 1_555 1_555
C12 C20 1_555 1_555
C14 N1 1_555 1_555
C19 C20 1_555 1_555
C23 N2 1_555 1_555
C33 N4 1_555 1_555
C34 N3 1_555 1_555
C35 C43 1_555 1_555
C37 N3 1_555 1_555
C42 C43 1_555 1_555
C46 N4 1_555 1_555

#END
