
#######################################################################
#
#                 Cambridge Crystallographic Data Centre
#                                CCDC 
#
#######################################################################
#
# If this CIF has been generated from an entry in the Cambridge 
# Structural Database, then it will include bibliographic, chemical, 
# crystal, experimental, refinement or atomic coordinate data resulting 
# from the CCDC's data processing and validation procedures.
#
#######################################################################

data_ASUKUV
_chemical_formula_moiety         'C16 H12 I2 O1'
_chemical_name_systematic        3,4-Diiodo-5-phenyl-2,5-dihydro-1-benzoxepine
_symmetry_cell_setting           monoclinic
_symmetry_space_group_name_H-M   'C 2/c'
_symmetry_Int_Tables_number      15
_space_group_name_Hall           '-C 2yn'
loop_
_symmetry_equiv_pos_site_id
_symmetry_equiv_pos_as_xyz
1 x,y,z
2 -x,y,1/2-z
3 1/2+x,1/2+y,z
4 1/2-x,1/2+y,1/2-z
5 -x,-y,-z
6 x,-y,1/2+z
7 1/2-x,1/2-y,-z
8 1/2+x,1/2-y,1/2+z
_cell_length_a                   28.7109(10)
_cell_length_b                   6.0157(2)
_cell_length_c                   20.2899(9)
_cell_angle_alpha                90
_cell_angle_beta                 120.169(4)
_cell_angle_gamma                90
_cell_volume                     3029.71
_exptl_crystal_colour            colorless
_exptl_crystal_description       block
_chemical_melting_point          '124-126 deg.C'
_cell_formula_units_Z            8
loop_
_atom_site_label
_atom_site_type_symbol
_atom_site_fract_x
_atom_site_fract_y
_atom_site_fract_z
C1 C 0.40202(16) 0.4112(6) 0.8169(2)
H1 H 0.4149 0.5646 0.8298
C2 C 0.36874(16) 0.3665(6) 0.8553(2)
C3 C 0.33013(16) 0.2173(7) 0.8345(2)
C4 C 0.30939(18) 0.0559(8) 0.7690(3)
H2 H 0.3053 -0.0885 0.7867
H3 H 0.2739 0.1043 0.7297
C5 C 0.34224(16) 0.2111(7) 0.6930(2)
C6 C 0.31634(17) 0.1929(8) 0.6151(3)
H4 H 0.2978 0.0633 0.5913
C7 C 0.31786(18) 0.3672(9) 0.5722(3)
H5 H 0.3009 0.3548 0.5195
C8 C 0.34418(19) 0.5573(9) 0.6073(3)
H6 H 0.3443 0.6761 0.5781
C9 C 0.37080(17) 0.5769(7) 0.6858(3)
H7 H 0.3892 0.7072 0.7089
C10 C 0.37008(15) 0.4009(6) 0.7307(2)
C11 C 0.45268(15) 0.2649(7) 0.8484(2)
C12 C 0.49350(18) 0.3271(8) 0.8352(3)
H8 H 0.4907 0.4599 0.8100
C13 C 0.53852(18) 0.1948(10) 0.8589(3)
H9 H 0.5654 0.2377 0.8486
C14 C 0.5438(2) 0.0016(9) 0.8973(3)
H10 H 0.5743 -0.0863 0.9134
C15 C 0.50421(19) -0.0626(8) 0.9120(3)
H11 H 0.5077 -0.1940 0.9383
C16 C 0.45862(17) 0.0695(7) 0.8874(3)
H12 H 0.4318 0.0254 0.8975
I1 I 0.395602(13) 0.56221(5) 0.954201(16)
I2 I 0.285898(12) 0.16241(5) 0.890539(18)
O1 O 0.34268(12) 0.0317(4) 0.73603(16)
loop_
_geom_bond_atom_site_label_1
_geom_bond_atom_site_label_2
_geom_bond_site_symmetry_1
_geom_bond_site_symmetry_2
C1 H1 1_555 1_555
C2 C1 1_555 1_555
C3 C2 1_555 1_555
C4 C3 1_555 1_555
H2 C4 1_555 1_555
H3 C4 1_555 1_555
C5 C6 1_555 1_555
C6 H4 1_555 1_555
C7 C6 1_555 1_555
H5 C7 1_555 1_555
C8 C7 1_555 1_555
H6 C8 1_555 1_555
C9 C8 1_555 1_555
H7 C9 1_555 1_555
C10 C1 1_555 1_555
C11 C1 1_555 1_555
C12 C11 1_555 1_555
H8 C12 1_555 1_555
C13 C12 1_555 1_555
H9 C13 1_555 1_555
C14 C13 1_555 1_555
H10 C14 1_555 1_555
C15 C14 1_555 1_555
H11 C15 1_555 1_555
C16 C11 1_555 1_555
H12 C16 1_555 1_555
I1 C2 1_555 1_555
I2 C3 1_555 1_555
O1 C4 1_555 1_555
C5 C10 1_555 1_555
C5 O1 1_555 1_555
C9 C10 1_555 1_555
C15 C16 1_555 1_555

#END
