
#######################################################################
#
#                 Cambridge Crystallographic Data Centre
#                                CCDC 
#
#######################################################################
#
# If this CIF has been generated from an entry in the Cambridge 
# Structural Database, then it will include bibliographic, chemical, 
# crystal, experimental, refinement or atomic coordinate data resulting 
# from the CCDC's data processing and validation procedures.
#
#######################################################################

data_ASUPUZ
_chemical_formula_moiety         'C40 H34 O4 2+,2(B1 F4 1-),2(C2 H3 N1)'
_chemical_name_systematic        
'1,8-bis(bis(4-Methoxyphenyl)methylio)naphthalene bis(tetrafluoroborate) acetonitrile solvate'
_symmetry_cell_setting           monoclinic
_symmetry_space_group_name_H-M   'P 21/n'
_symmetry_Int_Tables_number      14
_space_group_name_Hall           '-P 2yn'
loop_
_symmetry_equiv_pos_site_id
_symmetry_equiv_pos_as_xyz
1 x,y,z
2 1/2+x,1/2-y,1/2+z
3 -x,-y,-z
4 1/2-x,1/2+y,1/2-z
_cell_length_a                   7.7412(17)
_cell_length_b                   30.885(7)
_cell_length_c                   16.494(4)
_cell_angle_alpha                90
_cell_angle_beta                 94.675(4)
_cell_angle_gamma                90
_cell_volume                     3930.38
_cell_formula_units_Z            4
loop_
_atom_site_label
_atom_site_type_symbol
_atom_site_fract_x
_atom_site_fract_y
_atom_site_fract_z
C1 C 0.6960(2) 0.33934(5) 0.88944(10)
C2 C 0.6653(2) 0.37023(5) 0.95559(10)
C3 C 0.3095(2) 0.35973(5) 0.84946(10)
C4 C 0.8071(2) 0.37565(6) 1.01174(12)
H1 H 0.9021 0.3574 1.0092
C5 C 0.8122(3) 0.40752(6) 1.07202(12)
H2 H 0.9101 0.4106 1.1081
C6 C 0.6736(3) 0.43395(6) 1.07759(11)
H3 H 0.6781 0.4556 1.1170
C7 C 0.3801(3) 0.45673(6) 1.03363(12)
H4 H 0.3869 0.4768 1.0758
C8 C 0.2334(3) 0.45462(6) 0.98222(13)
H5 H 0.1418 0.4735 0.9884
C9 C 0.2223(3) 0.42369(6) 0.91998(12)
H6 H 0.1236 0.4230 0.8839
C10 C 0.3538(2) 0.39407(5) 0.91040(10)
C11 C 0.5133(2) 0.39675(5) 0.96164(10)
C12 C 0.5219(3) 0.42898(6) 1.02407(11)
C13 C 0.7460(2) 0.29655(5) 0.91200(10)
C14 C 0.7103(2) 0.27977(6) 0.98952(11)
H7 H 0.6583 0.2976 1.0259
C15 C 0.7507(2) 0.23821(6) 1.01157(11)
H8 H 0.7279 0.2281 1.0627
C16 C 0.8266(2) 0.21080(6) 0.95674(11)
C17 C 0.8723(2) 0.22688(6) 0.88198(11)
H9 H 0.9287 0.2091 0.8471
C18 C 0.8338(2) 0.26867(6) 0.86044(11)
H10 H 0.8658 0.2791 0.8109
C19 C 0.9139(3) 0.13905(6) 0.92505(13)
H11 H 0.9274 0.1113 0.9508
H12 H 1.0234 0.1485 0.9080
H13 H 0.8312 0.1369 0.8786
C20 C 0.6916(2) 0.35580(5) 0.80759(10)
C21 C 0.7257(2) 0.40012(6) 0.79540(11)
H14 H 0.7463 0.4181 0.8404
C22 C 0.7292(2) 0.41746(6) 0.71871(11)
H15 H 0.7553 0.4466 0.7120
C23 C 0.6929(2) 0.39066(6) 0.65096(11)
C24 C 0.6579(2) 0.34669(6) 0.66108(11)
H16 H 0.6336 0.3292 0.6157
C25 C 0.6593(2) 0.32936(6) 0.73740(11)
H17 H 0.6389 0.2999 0.7435
C26 C 0.7204(3) 0.44975(7) 0.56005(13)
H18 H 0.7142 0.4554 0.5026
H19 H 0.8334 0.4574 0.5841
H20 H 0.6344 0.4667 0.5844
C27 C 0.3088(2) 0.31561(6) 0.87609(10)
C28 C 0.2805(2) 0.30549(6) 0.95784(11)
H21 H 0.2624 0.3278 0.9941
C29 C 0.2793(2) 0.26351(6) 0.98441(11)
H22 H 0.2545 0.2573 1.0374
C30 C 0.3157(2) 0.22988(6) 0.93125(11)
C31 C 0.3429(2) 0.23854(6) 0.85009(11)
H23 H 0.3661 0.2161 0.8149
C32 C 0.3349(2) 0.28074(6) 0.82292(11)
H24 H 0.3469 0.2864 0.7683
C33 C 0.3761(3) 0.15472(6) 0.91271(12)
H25 H 0.3753 0.1280 0.9424
H26 H 0.4911 0.1603 0.8975
H27 H 0.2978 0.1527 0.8647
C34 C 0.2553(2) 0.37312(5) 0.76834(11)
C35 C 0.3049(2) 0.41412(5) 0.74041(11)
H28 H 0.3685 0.4325 0.7761
C36 C 0.2619(2) 0.42772(6) 0.66185(11)
H29 H 0.2977 0.4547 0.6445
C37 C 0.1634(2) 0.40026(6) 0.60845(11)
C38 C 0.1058(2) 0.35998(6) 0.63525(11)
H30 H 0.0373 0.3424 0.6000
C39 C 0.1505(2) 0.34675(6) 0.71310(11)
H31 H 0.1119 0.3200 0.7304
C40 C 0.1631(3) 0.45208(6) 0.50097(13)
H32 H 0.1193 0.4550 0.4451
H33 H 0.2872 0.4544 0.5050
H34 H 0.1158 0.4746 0.5327
O1 O 0.85289(18) 0.17002(4) 0.98201(8)
O2 O 0.6891(2) 0.40463(4) 0.57354(8)
O3 O 0.32213(18) 0.18971(4) 0.96338(8)
O4 O 0.11381(18) 0.41052(4) 0.53108(8)
C41 C 0.8616(3) 0.56317(8) 0.74871(16)
H35 H 0.7727 0.5568 0.7064
H36 H 0.9667 0.5707 0.7249
H37 H 0.8254 0.5870 0.7806
C42 C 0.8917(3) 0.52548(7) 0.80034(14)
N1 N 0.9151(3) 0.49590(7) 0.84171(13)
C43 C 0.0085(3) 0.16222(6) 0.67810(14)
H38 H 0.1251 0.1514 0.6806
H39 H -0.0538 0.1524 0.6288
H40 H -0.0476 0.1517 0.7240
C44 C 0.0114(2) 0.20930(6) 0.67945(11)
N2 N 0.0139(2) 0.24623(6) 0.68032(11)
B1 B 0.5553(3) 0.18762(8) 0.68401(14)
F1 F 0.64334(19) 0.17312(5) 0.75550(8)
F2 F 0.61859(15) 0.16616(4) 0.61813(7)
F3 F 0.5801(2) 0.23148(5) 0.67726(10)
F4 F 0.38281(17) 0.17882(6) 0.68573(10)
B2 B -0.3779(3) 0.45687(7) 0.32010(14)
F5 F -0.21145(18) 0.46356(5) 0.35460(9)
F6 F -0.4920(2) 0.46717(6) 0.37832(9)
F7 F -0.4129(2) 0.48395(4) 0.25392(8)
F8 F -0.4021(2) 0.41462(4) 0.29745(10)
loop_
_geom_bond_atom_site_label_1
_geom_bond_atom_site_label_2
_geom_bond_site_symmetry_1
_geom_bond_site_symmetry_2
C1 C2 1_555 1_555
C2 C4 1_555 1_555
C3 C10 1_555 1_555
C4 H1 1_555 1_555
C5 C4 1_555 1_555
H2 C5 1_555 1_555
C6 C5 1_555 1_555
H3 C6 1_555 1_555
C7 H4 1_555 1_555
C8 C7 1_555 1_555
H5 C8 1_555 1_555
C9 C8 1_555 1_555
H6 C9 1_555 1_555
C10 C9 1_555 1_555
C11 C2 1_555 1_555
C12 C6 1_555 1_555
C13 C1 1_555 1_555
C14 C13 1_555 1_555
H7 C14 1_555 1_555
C15 C14 1_555 1_555
H8 C15 1_555 1_555
C16 C15 1_555 1_555
C17 C16 1_555 1_555
H9 C17 1_555 1_555
C18 C13 1_555 1_555
H10 C18 1_555 1_555
C19 H11 1_555 1_555
H12 C19 1_555 1_555
H13 C19 1_555 1_555
C20 C1 1_555 1_555
C21 C20 1_555 1_555
H14 C21 1_555 1_555
C22 C21 1_555 1_555
H15 C22 1_555 1_555
C23 C22 1_555 1_555
C24 C23 1_555 1_555
H16 C24 1_555 1_555
C25 C20 1_555 1_555
H17 C25 1_555 1_555
C26 H18 1_555 1_555
H19 C26 1_555 1_555
H20 C26 1_555 1_555
C27 C3 1_555 1_555
C28 C27 1_555 1_555
H21 C28 1_555 1_555
C29 C28 1_555 1_555
H22 C29 1_555 1_555
C30 C29 1_555 1_555
C31 C30 1_555 1_555
H23 C31 1_555 1_555
C32 C27 1_555 1_555
H24 C32 1_555 1_555
C33 H25 1_555 1_555
H26 C33 1_555 1_555
H27 C33 1_555 1_555
C34 C3 1_555 1_555
C35 C34 1_555 1_555
H28 C35 1_555 1_555
C36 C35 1_555 1_555
H29 C36 1_555 1_555
C37 C36 1_555 1_555
C38 C37 1_555 1_555
H30 C38 1_555 1_555
C39 C34 1_555 1_555
H31 C39 1_555 1_555
C40 H32 1_555 1_555
H33 C40 1_555 1_555
H34 C40 1_555 1_555
C41 H35 1_555 1_555
H36 C41 1_555 1_555
H37 C41 1_555 1_555
C42 C41 1_555 1_555
C43 H38 1_555 1_555
H39 C43 1_555 1_555
H40 C43 1_555 1_555
C44 C43 1_555 1_555
O1 C16 1_555 1_555
O2 C23 1_555 1_555
O3 C30 1_555 1_555
O4 C37 1_555 1_555
N1 C42 1_555 1_555
N2 C44 1_555 1_555
B1 F1 1_555 1_555
B2 F5 1_555 1_555
F2 B1 1_555 1_555
F3 B1 1_555 1_555
F4 B1 1_555 1_555
F6 B2 1_555 1_555
F7 B2 1_555 1_555
F8 B2 1_555 1_555
C7 C12 1_555 1_555
C10 C11 1_555 1_555
C11 C12 1_555 1_555
C17 C18 1_555 1_555
C19 O1 1_555 1_555
C24 C25 1_555 1_555
C26 O2 1_555 1_555
C31 C32 1_555 1_555
C33 O3 1_555 1_555
C38 C39 1_555 1_555
C40 O4 1_555 1_555

#END
