
#######################################################################
#
#                 Cambridge Crystallographic Data Centre
#                                CCDC 
#
#######################################################################
#
# If this CIF has been generated from an entry in the Cambridge 
# Structural Database, then it will include bibliographic, chemical, 
# crystal, experimental, refinement or atomic coordinate data resulting 
# from the CCDC's data processing and validation procedures.
#
#######################################################################

data_ASUVOZ
_chemical_formula_moiety         'C20 H22 N6 O2'
_chemical_name_systematic        
N,N'-Diphenyl-3,6-diethyl-1,4-dihydro-1,2,4,5-tetrazine-1,4-dicarboxamide
_symmetry_cell_setting           orthorhombic
_symmetry_space_group_name_H-M   'P b c a'
_symmetry_Int_Tables_number      61
_space_group_name_Hall           '-P 2ac 2ab'
loop_
_symmetry_equiv_pos_site_id
_symmetry_equiv_pos_as_xyz
1 x,y,z
2 1/2+x,y,1/2-z
3 x,1/2-y,1/2+z
4 1/2-x,1/2+y,z
5 -x,-y,-z
6 1/2-x,-y,1/2+z
7 -x,1/2+y,1/2-z
8 1/2+x,1/2-y,-z
_cell_length_a                   16.287(2)
_cell_length_b                   11.347(4)
_cell_length_c                   20.975(4)
_cell_angle_alpha                90
_cell_angle_beta                 90
_cell_angle_gamma                90
_cell_volume                     3876.36
_exptl_crystal_colour            colorless
_exptl_crystal_description       prismatic
_cell_formula_units_Z            8
_exptl_crystal_recrystallization_method acetone
loop_
_atom_site_label
_atom_site_type_symbol
_atom_site_fract_x
_atom_site_fract_y
_atom_site_fract_z
O1 O 0.09924(9) 0.31321(13) 0.21801(6)
O2 O -0.08530(10) 0.71735(12) 0.03505(7)
N1 N 0.08870(9) 0.24561(13) 0.11613(7)
H1 H 0.0670 0.2616 0.0798
N2 N 0.00657(10) 0.39767(13) 0.15084(7)
N3 N -0.03565(10) 0.38271(14) 0.09209(7)
N4 N -0.06739(11) 0.57728(13) 0.11179(8)
N5 N -0.07523(11) 0.55542(14) 0.17793(7)
N6 N -0.11207(10) 0.76322(13) 0.13858(8)
H2 H -0.1150 0.7345 0.1764
C1 C 0.13593(13) 0.06647(18) 0.07053(10)
H3 H 0.0977 0.0779 0.0382
C2 C 0.18487(15) -0.0330(2) 0.07022(12)
H4 H 0.1789 -0.0888 0.0381
C3 C 0.24206(15) -0.0493(2) 0.11710(12)
H5 H 0.2745 -0.1167 0.1173
C4 C 0.25134(14) 0.0338(2) 0.16363(11)
H6 H 0.2910 0.0231 0.1950
C5 C 0.20266(12) 0.13343(19) 0.16483(10)
H7 H 0.2097 0.1897 0.1966
C6 C 0.14341(11) 0.14878(16) 0.11846(9)
C7 C 0.06754(11) 0.31493(16) 0.16557(9)
C8 C -0.07136(13) 0.47640(17) 0.07283(9)
C9 C -0.03527(13) 0.46480(17) 0.19676(9)
C10 C -0.12168(14) 0.47445(18) 0.01365(10)
H8 H -0.0958 0.5249 -0.0178
H9 H -0.1753 0.5073 0.0231
C11 C -0.13311(18) 0.3535(2) -0.01491(12)
H10 H -0.0804 0.3186 -0.0227
H11 H -0.1627 0.3601 -0.0543
H12 H -0.1635 0.3049 0.0142
C12 C -0.04298(15) 0.4282(2) 0.26480(9)
H13 H -0.0743 0.4874 0.2876
H14 H 0.0113 0.4250 0.2837
C13 C -0.08430(17) 0.3094(3) 0.27320(13)
H15 H -0.1381 0.3117 0.2545
H16 H -0.0888 0.2917 0.3178
H17 H -0.0521 0.2496 0.2526
C14 C -0.08966(13) 0.69083(17) 0.09111(10)
C15 C -0.13125(12) 0.88427(16) 0.13028(9)
C16 C -0.08211(14) 0.95718(18) 0.09434(10)
H18 H -0.0368 0.9269 0.0729
C17 C -0.10069(16) 1.07590(19) 0.09031(11)
H19 H -0.0678 1.1254 0.0659
C18 C -0.16699(17) 1.12116(19) 0.12193(11)
H20 H -0.1792 1.2010 0.1188
C19 C -0.21526(16) 1.0489(2) 0.15823(12)
H21 H -0.2598 1.0799 0.1804
C20 C -0.19794(13) 0.92967(18) 0.16209(10)
H22 H -0.2314 0.8803 0.1862
loop_
_geom_bond_atom_site_label_1
_geom_bond_atom_site_label_2
_geom_bond_site_symmetry_1
_geom_bond_site_symmetry_2
O1 C7 1_555 1_555
O2 C14 1_555 1_555
N1 H1 1_555 1_555
N2 N3 1_555 1_555
N3 C8 1_555 1_555
N4 N5 1_555 1_555
N5 C9 1_555 1_555
N6 H2 1_555 1_555
C1 H3 1_555 1_555
C2 C1 1_555 1_555
H4 C2 1_555 1_555
C3 C2 1_555 1_555
H5 C3 1_555 1_555
C4 C3 1_555 1_555
H6 C4 1_555 1_555
C5 C4 1_555 1_555
H7 C5 1_555 1_555
C6 N1 1_555 1_555
C7 N1 1_555 1_555
C8 N4 1_555 1_555
C9 N2 1_555 1_555
C10 C8 1_555 1_555
H8 C10 1_555 1_555
H9 C10 1_555 1_555
C11 C10 1_555 1_555
H10 C11 1_555 1_555
H11 C11 1_555 1_555
H12 C11 1_555 1_555
C12 C9 1_555 1_555
H13 C12 1_555 1_555
H14 C12 1_555 1_555
C13 C12 1_555 1_555
H15 C13 1_555 1_555
H16 C13 1_555 1_555
H17 C13 1_555 1_555
C14 N4 1_555 1_555
C15 N6 1_555 1_555
C16 C15 1_555 1_555
H18 C16 1_555 1_555
C17 C16 1_555 1_555
H19 C17 1_555 1_555
C18 C17 1_555 1_555
H20 C18 1_555 1_555
C19 C18 1_555 1_555
H21 C19 1_555 1_555
C20 C15 1_555 1_555
H22 C20 1_555 1_555
N2 C7 1_555 1_555
N6 C14 1_555 1_555
C1 C6 1_555 1_555
C5 C6 1_555 1_555
C19 C20 1_555 1_555

#END
