
#######################################################################
#
#                 Cambridge Crystallographic Data Centre
#                                CCDC 
#
#######################################################################
#
# If this CIF has been generated from an entry in the Cambridge 
# Structural Database, then it will include bibliographic, chemical, 
# crystal, experimental, refinement or atomic coordinate data resulting 
# from the CCDC's data processing and validation procedures.
#
#######################################################################

data_ATAJEL
_chemical_formula_moiety         'C26 H25 N3 O6 S1'
_chemical_name_systematic        
N-(1-Acetyl-3-(1-(4-methoxyphenyl)-2-nitroethyl)-1H-indol-2-yl)-4-methylbenzenesulfonamide
_symmetry_cell_setting           monoclinic
_symmetry_space_group_name_H-M   'P 21/n'
_symmetry_Int_Tables_number      14
_space_group_name_Hall           '-P 2yn'
loop_
_symmetry_equiv_pos_site_id
_symmetry_equiv_pos_as_xyz
1 x,y,z
2 1/2-x,1/2+y,1/2-z
3 -x,-y,-z
4 1/2+x,1/2-y,1/2+z
_cell_length_a                   9.146(4)
_cell_length_b                   10.974(4)
_cell_length_c                   24.749(10)
_cell_angle_alpha                90
_cell_angle_beta                 90.258(6)
_cell_angle_gamma                90
_cell_volume                     2483.99
_exptl_crystal_colour            yellow
_exptl_crystal_description       block
_cell_formula_units_Z            4
loop_
_atom_site_label
_atom_site_type_symbol
_atom_site_fract_x
_atom_site_fract_y
_atom_site_fract_z
S1 S 0.47804(8) 0.12099(8) 0.07875(3)
N1 N 0.8513(2) 0.0585(2) 0.11473(9)
N2 N 0.5826(7) -0.2636(3) 0.15141(14)
N3 N 0.6011(3) 0.0116(2) 0.08366(9)
H1 H 0.5998 -0.0475 0.0608
O1 O 0.4737(5) -0.2858(4) 0.12482(14)
O2 O 0.7006(5) -0.2853(4) 0.13735(16)
O3 O 0.4173(2) 0.1366(2) 0.13097(9)
O4 O 0.3868(2) 0.0855(2) 0.03488(9)
O5 O 0.3831(3) 0.1617(3) 0.39529(9)
O6 O 0.8418(3) 0.0550(2) 0.02352(9)
C1 C 0.5664(6) -0.2055(4) 0.20511(17)
H2 H 0.4783 -0.2361 0.2220
H3 H 0.6487 -0.2285 0.2277
C2 C 0.5586(4) -0.0746(3) 0.20233(14)
H4 H 0.4781 -0.0571 0.1772
C3 C 0.5170(3) -0.0123(3) 0.25468(12)
C4 C 0.4631(4) -0.0750(3) 0.29900(14)
H5 H 0.4570 -0.1595 0.2979
C5 C 0.4183(5) -0.0140(4) 0.34466(14)
H6 H 0.3827 -0.0579 0.3739
C6 C 0.4256(4) 0.1108(3) 0.34754(12)
C7 C 0.4759(4) 0.1746(3) 0.30369(12)
H7 H 0.4796 0.2593 0.3045
C8 C 0.5211(4) 0.1120(3) 0.25828(12)
H8 H 0.5557 0.1563 0.2289
C9 C 0.3888(6) 0.2896(4) 0.39966(16)
H9 H 0.3569 0.3138 0.4350
H10 H 0.3261 0.3255 0.3728
H11 H 0.4874 0.3168 0.3941
C10 C 0.6933(3) -0.0184(3) 0.17655(12)
C11 C 0.8321(4) 0.0021(3) 0.20238(12)
C12 C 0.8816(4) -0.0218(3) 0.25459(14)
H12 H 0.8177 -0.0510 0.2807
C13 C 1.0241(5) -0.0019(4) 0.26693(15)
H13 H 1.0579 -0.0183 0.3017
C14 C 1.1200(4) 0.0424(4) 0.22870(17)
H14 H 1.2175 0.0543 0.2382
C15 C 1.0746(4) 0.0696(3) 0.17635(14)
H15 H 1.1392 0.1004 0.1509
C16 C 0.9287(3) 0.0486(3) 0.16386(12)
C17 C 0.9031(3) 0.0927(3) 0.06344(12)
C18 C 1.0290(4) 0.1760(4) 0.06004(15)
H16 H 1.0521 0.1906 0.0228
H17 H 1.1119 0.1399 0.0778
H18 H 1.0053 0.2518 0.0773
C19 C 0.7076(3) 0.0137(3) 0.12450(11)
C20 C 0.5702(3) 0.2542(3) 0.06135(11)
C21 C 0.6338(4) 0.3259(3) 0.10122(13)
H19 H 0.6260 0.3040 0.1374
C22 C 0.7079(5) 0.4291(4) 0.08682(15)
H20 H 0.7509 0.4767 0.1136
C23 C 0.7204(4) 0.4642(3) 0.03346(15)
C24 C 0.6561(5) 0.3915(4) -0.00533(15)
H21 H 0.6627 0.4139 -0.0415
C25 C 0.5827(4) 0.2872(4) 0.00811(13)
H22 H 0.5414 0.2389 -0.0188
C26 C 0.8008(5) 0.5783(4) 0.01810(19)
H23 H 0.8386 0.6168 0.0501
H24 H 0.7351 0.6330 -0.0001
H25 H 0.8802 0.5580 -0.0055
loop_
_geom_bond_atom_site_label_1
_geom_bond_atom_site_label_2
_geom_bond_site_symmetry_1
_geom_bond_site_symmetry_2
S1 N3 1_555 1_555
N1 C16 1_555 1_555
N2 O1 1_555 1_555
N3 H1 1_555 1_555
O2 N2 1_555 1_555
O3 S1 1_555 1_555
O4 S1 1_555 1_555
O5 C6 1_555 1_555
O6 C17 1_555 1_555
C1 N2 1_555 1_555
H2 C1 1_555 1_555
H3 C1 1_555 1_555
C2 C1 1_555 1_555
H4 C2 1_555 1_555
C3 C2 1_555 1_555
C4 C3 1_555 1_555
H5 C4 1_555 1_555
C5 C4 1_555 1_555
H6 C5 1_555 1_555
C6 C5 1_555 1_555
C7 C6 1_555 1_555
H7 C7 1_555 1_555
C8 C3 1_555 1_555
H8 C8 1_555 1_555
C9 O5 1_555 1_555
H9 C9 1_555 1_555
H10 C9 1_555 1_555
H11 C9 1_555 1_555
C10 C2 1_555 1_555
C11 C10 1_555 1_555
C12 C11 1_555 1_555
H12 C12 1_555 1_555
C13 C12 1_555 1_555
H13 C13 1_555 1_555
C14 C13 1_555 1_555
H14 C14 1_555 1_555
C15 C14 1_555 1_555
H15 C15 1_555 1_555
C16 C11 1_555 1_555
C17 N1 1_555 1_555
C18 C17 1_555 1_555
H16 C18 1_555 1_555
H17 C18 1_555 1_555
H18 C18 1_555 1_555
C19 N1 1_555 1_555
C20 S1 1_555 1_555
C21 C20 1_555 1_555
H19 C21 1_555 1_555
C22 C21 1_555 1_555
H20 C22 1_555 1_555
C23 C22 1_555 1_555
C24 C23 1_555 1_555
H21 C24 1_555 1_555
C25 C20 1_555 1_555
H22 C25 1_555 1_555
C26 C23 1_555 1_555
H23 C26 1_555 1_555
H24 C26 1_555 1_555
H25 C26 1_555 1_555
N3 C19 1_555 1_555
C7 C8 1_555 1_555
C10 C19 1_555 1_555
C15 C16 1_555 1_555
C24 C25 1_555 1_555

#END
