
#######################################################################
#
#                 Cambridge Crystallographic Data Centre
#                                CCDC 
#
#######################################################################
#
# If this CIF has been generated from an entry in the Cambridge 
# Structural Database, then it will include bibliographic, chemical, 
# crystal, experimental, refinement or atomic coordinate data resulting 
# from the CCDC's data processing and validation procedures.
#
#######################################################################

data_ATAYUQ
_chemical_compound_source        'fruits of Aphanamixis polystachya'
_chemical_name_common            'Aphapolynin A monohydrate'
_chemical_formula_moiety         'C33 H40 O12,H2 O1'
_chemical_name_systematic        
'6-(4,8-Dihydroxy-4,5-dimethyl-1-oxo-3,4,4a,5-tetrahydro-1H-isochromen-5-yl)-5-(formyloxy)-3-(3-furyl)-7a-hydroxy-3a-methyl-7-methylene-1-oxooctahydro-1H-inden-4-yl 2-hydroxy-3-methylpentanoate monohydrate'
_symmetry_cell_setting           orthorhombic
_symmetry_space_group_name_H-M   'P 21 21 2'
_symmetry_Int_Tables_number      18
_space_group_name_Hall           'P 2 2ab'
loop_
_symmetry_equiv_pos_site_id
_symmetry_equiv_pos_as_xyz
1 x,y,z
2 -x,-y,z
3 1/2+x,1/2-y,-z
4 1/2-x,1/2+y,-z
_cell_length_a                   20.09840(10)
_cell_length_b                   17.44210(10)
_cell_length_c                   9.32170(10)
_cell_angle_alpha                90
_cell_angle_beta                 90
_cell_angle_gamma                90
_cell_volume                     3267.8
_cell_formula_units_Z            4
loop_
_atom_site_label
_atom_site_type_symbol
_atom_site_fract_x
_atom_site_fract_y
_atom_site_fract_z
O1 O 0.84320(6) 0.81361(7) 0.05968(15)
O2 O 0.68044(6) 0.95887(7) 0.25716(16)
H1 H 0.6608 0.9991 0.2406
O4 O 0.77698(6) 0.74964(6) 0.28414(14)
O5 O 0.84126(8) 0.85334(9) -0.24883(16)
H2 H 0.8457 0.8331 -0.3277
O6 O 0.53244(7) 0.92236(11) 0.1453(3)
O7 O 0.99099(8) 0.90784(11) 0.1566(2)
H3 H 1.0137 0.8853 0.0970
O8 O 0.82825(12) 0.81889(9) 0.45329(18)
O9 O 0.83884(10) 0.69890(10) -0.0438(3)
O10 O 0.97125(8) 0.90852(12) -0.2843(2)
C1 C 0.75029(8) 0.89556(9) -0.01459(18)
H4 H 0.7521 0.8814 -0.1163
O11 O 1.02680(8) 0.87216(12) -0.0963(3)
C2 C 0.75098(8) 0.81997(9) 0.22244(18)
H5 H 0.7698 0.8642 0.2730
C3 C 0.77168(7) 0.82228(9) 0.06554(18)
H6 H 0.7515 0.7782 0.0169
C4 C 0.79894(8) 0.96806(9) -0.00157(19)
O12 O 0.86907(17) 0.69790(13) 0.5910(2)
H7 H 0.8746 0.6578 0.6355
C5 C 0.81516(11) 0.75808(11) 0.4004(2)
C6 C 0.67534(8) 0.82168(9) 0.2343(2)
C7 C 0.88720(10) 0.96612(12) 0.1905(2)
H8 H 0.8995 0.9772 0.2844
C8 C 0.85990(8) 0.96761(10) -0.1094(2)
H9 H 0.8699 1.0220 -0.1253
C9 C 0.92436(8) 0.93438(10) -0.0504(2)
C10 C 0.65341(8) 0.89878(10) 0.1687(2)
C11 C 0.93631(9) 0.93562(11) 0.0933(2)
C12 C 0.64259(9) 0.75514(11) 0.1517(3)
H10 H 0.6530 0.7595 0.0515
H11 H 0.5952 0.7572 0.1645
H12 H 0.6592 0.7072 0.1876
C13 C 0.67573(8) 0.90814(11) 0.0156(2)
C14 C 0.64626(10) 0.82805(11) 0.3886(2)
H13 H 0.6725 0.8668 0.4395
C15 C 0.83911(15) 0.68175(14) 0.4574(3)
H14 H 0.8007 0.6480 0.4726
C16 C 0.86860(11) 0.75320(12) -0.0037(3)
H15 H 0.9144 0.7531 -0.0183
C17 C 0.75866(10) 1.04194(11) -0.0321(3)
H16 H 0.7239 1.0471 0.0379
H17 H 0.7394 1.0389 -0.1262
H18 H 0.7877 1.0856 -0.0270
C18 C 0.85112(10) 0.93417(13) -0.2617(2)
C19 C 0.82507(9) 0.97883(10) 0.1499(2)
H19 H 0.7952 0.9956 0.2194
C20 C 0.91613(13) 0.94797(17) -0.3429(3)
H20 H 0.9103 0.9321 -0.4418
H21 H 0.9256 1.0025 -0.3428
C21 C 0.57906(9) 0.89836(11) 0.2130(3)
C22 C 0.79678(13) 0.97194(17) -0.3501(3)
H22 H 0.7999 0.9549 -0.4478
H23 H 0.8020 1.0266 -0.3464
H24 H 0.7541 0.9581 -0.3119
C23 C 0.57683(11) 0.86306(14) 0.3608(3)
H25 H 0.5429 0.8236 0.3651
H26 H 0.5668 0.9018 0.4322
C24 C 0.64441(13) 0.75742(13) 0.4823(3)
C25 C 0.63433(11) 0.92330(19) -0.0908(3)
H27 H 0.5891 0.9287 -0.0728
H28 H 0.6505 0.9286 -0.1838
C26 C 0.97596(10) 0.90362(13) -0.1410(3)
C27 C 0.6169(2) 0.6450(2) 0.5796(5)
H29 H 0.5979 0.5971 0.5945
C28 C 0.60362(19) 0.69179(17) 0.4704(4)
H30 H 0.5726 0.6827 0.3983
O13 O 0.6636(2) 0.67959(19) 0.6672(3)
C29 C 0.88665(14) 0.64396(16) 0.3538(3)
H31 H 0.8633 0.6373 0.2624
C30 C 0.6809(2) 0.7463(2) 0.6034(3)
H32 H 0.7131 0.7799 0.6375
C31 C 0.9049(2) 0.56351(19) 0.4109(5)
H33 H 0.9312 0.5685 0.4963
H34 H 0.9298 0.5363 0.3393
H35 H 0.8649 0.5357 0.4327
C32 C 0.94612(17) 0.6954(3) 0.3271(5)
H36 H 0.9303 0.7439 0.2894
H37 H 0.9675 0.7058 0.4183
C33 C 0.9968(3) 0.6640(5) 0.2267(7)
H38 H 1.0261 0.6302 0.2778
H39 H 1.0220 0.7054 0.1862
H40 H 0.9749 0.6363 0.1513
O3 O 0.60596(7) 1.08566(8) 0.2044(2)
H41 H 0.5631(9) 1.082(2) 0.197(4)
H42 H 0.6229(17) 1.107(2) 0.134(5)
loop_
_geom_bond_atom_site_label_1
_geom_bond_atom_site_label_2
_geom_bond_site_symmetry_1
_geom_bond_site_symmetry_2
O1 C3 1_555 1_555
O2 H1 1_555 1_555
O3 H41 1_555 1_555
O4 C2 1_555 1_555
O5 H2 1_555 1_555
O6 C21 1_555 1_555
O7 H3 1_555 1_555
O8 C5 1_555 1_555
O9 C16 1_555 1_555
O10 C20 1_555 1_555
C1 H4 1_555 1_555
O11 C26 1_555 1_555
C2 H5 1_555 1_555
C3 C1 1_555 1_555
H6 C3 1_555 1_555
C4 C1 1_555 1_555
O12 H7 1_555 1_555
C5 O4 1_555 1_555
C6 C2 1_555 1_555
C7 H8 1_555 1_555
C8 C4 1_555 1_555
H9 C8 1_555 1_555
C9 C8 1_555 1_555
C10 O2 1_555 1_555
C11 O7 1_555 1_555
C12 C6 1_555 1_555
H10 C12 1_555 1_555
H11 C12 1_555 1_555
H12 C12 1_555 1_555
C13 C1 1_555 1_555
C14 C6 1_555 1_555
H13 C14 1_555 1_555
C15 O12 1_555 1_555
H14 C15 1_555 1_555
C16 O1 1_555 1_555
H15 C16 1_555 1_555
C17 C4 1_555 1_555
H16 C17 1_555 1_555
H17 C17 1_555 1_555
H18 C17 1_555 1_555
C18 O5 1_555 1_555
C19 C4 1_555 1_555
H19 C19 1_555 1_555
C20 C18 1_555 1_555
H20 C20 1_555 1_555
H21 C20 1_555 1_555
C21 C10 1_555 1_555
C22 C18 1_555 1_555
H22 C22 1_555 1_555
H23 C22 1_555 1_555
H24 C22 1_555 1_555
C23 C14 1_555 1_555
H25 C23 1_555 1_555
H26 C23 1_555 1_555
C24 C14 1_555 1_555
C25 C13 1_555 1_555
H27 C25 1_555 1_555
H28 C25 1_555 1_555
C26 O10 1_555 1_555
C27 H29 1_555 1_555
C28 C24 1_555 1_555
H30 C28 1_555 1_555
O13 C27 1_555 1_555
C29 C15 1_555 1_555
H31 C29 1_555 1_555
C30 C24 1_555 1_555
H32 C30 1_555 1_555
C31 C29 1_555 1_555
H33 C31 1_555 1_555
H34 C31 1_555 1_555
H35 C31 1_555 1_555
C32 C29 1_555 1_555
H36 C32 1_555 1_555
H37 C32 1_555 1_555
C33 C32 1_555 1_555
H38 C33 1_555 1_555
H39 C33 1_555 1_555
H40 C33 1_555 1_555
H42 O3 1_555 1_555
C2 C3 1_555 1_555
C5 C15 1_555 1_555
C6 C10 1_555 1_555
C7 C11 1_555 1_555
C7 C19 1_555 1_555
C8 C18 1_555 1_555
C9 C11 1_555 1_555
C9 C26 1_555 1_555
C10 C13 1_555 1_555
C21 C23 1_555 1_555
C27 C28 1_555 1_555
O13 C30 1_555 1_555

#END
