
#######################################################################
#
#                 Cambridge Crystallographic Data Centre
#                                CCDC 
#
#######################################################################
#
# If this CIF has been generated from an entry in the Cambridge 
# Structural Database, then it will include bibliographic, chemical, 
# crystal, experimental, refinement or atomic coordinate data resulting 
# from the CCDC's data processing and validation procedures.
#
#######################################################################

data_ATEMIX
_chemical_formula_moiety         'C21 H25 N1 O2'
_chemical_name_systematic        
'4-t-butylphenyl 3-(dimethylamino)-3-phenylacrylate'
_symmetry_cell_setting           monoclinic
_symmetry_space_group_name_H-M   'P 21/c'
_symmetry_Int_Tables_number      14
_space_group_name_Hall           '-P 2ybc'
loop_
_symmetry_equiv_pos_site_id
_symmetry_equiv_pos_as_xyz
1 x,y,z
2 -x,1/2+y,1/2-z
3 -x,-y,-z
4 x,1/2-y,1/2+z
_cell_length_a                   11.445(4)
_cell_length_b                   15.622(5)
_cell_length_c                   11.749(4)
_cell_angle_alpha                90
_cell_angle_beta                 115.087(4)
_cell_angle_gamma                90
_cell_volume                     1902.48
_cell_formula_units_Z            4
loop_
_atom_site_label
_atom_site_type_symbol
_atom_site_fract_x
_atom_site_fract_y
_atom_site_fract_z
O1 O 0.40599(13) 0.27683(8) 0.63699(13)
O2 O 0.26459(15) 0.34196(8) 0.46219(14)
N1 N 0.53826(16) 0.53622(9) 0.75473(16)
C1 C 0.36747(17) 0.34234(11) 0.57968(17)
C2 C 0.09616(17) 0.10624(11) 0.30871(15)
C3 C 0.50783(17) 0.45300(11) 0.72491(17)
C4 C 0.58348(17) 0.38901(11) 0.82399(18)
C5 C 0.41198(18) 0.42878(11) 0.61320(18)
H1 H 0.3722 0.4713 0.5540
C6 C 0.20975(19) 0.26236(11) 0.41355(18)
C7 C 0.0336(2) 0.02131(12) 0.24912(17)
C8 C 0.0650(2) 0.14837(13) 0.39571(19)
H2 H 0.0051 0.1238 0.4199
C9 C 0.1204(2) 0.22600(13) 0.4478(2)
H3 H 0.0973 0.2532 0.5056
C10 C 0.1856(2) 0.14574(14) 0.2758(2)
H4 H 0.2085 0.1194 0.2172
C11 C 0.2421(2) 0.22324(14) 0.3274(2)
H5 H 0.3018 0.2484 0.3034
C12 C 0.4650(2) 0.60316(12) 0.6671(2)
H6 H 0.4816 0.6007 0.5936
H7 H 0.4907 0.6581 0.7066
H8 H 0.3746 0.5948 0.6434
C13 C 0.6826(2) 0.34315(13) 0.8164(2)
H9 H 0.7026 0.3505 0.7481
C14 C 0.5548(2) 0.37543(15) 0.9257(2)
H10 H 0.4882 0.4063 0.9320
C15 C 0.6538(2) 0.56434(14) 0.8625(2)
H11 H 0.6881 0.5176 0.9202
H12 H 0.6322 0.6107 0.9037
H13 H 0.7170 0.5832 0.8345
C16 C 0.7532(2) 0.28536(15) 0.9120(3)
H14 H 0.8211 0.2549 0.9078
C17 C 0.6231(3) 0.31692(18) 1.0182(3)
H15 H 0.6011 0.3072 1.0847
C18 C 0.7226(3) 0.27376(17) 1.0112(3)
H16 H 0.7705 0.2357 1.0748
C19 C 0.1270(3) -0.03439(17) 0.2204(3)
H17 H 0.1502 -0.0058 0.1607
H18 H 0.0866 -0.0881 0.1861
H19 H 0.2032 -0.0444 0.2964
C20 C -0.0049(4) -0.0311(2) 0.3361(3)
H20 H 0.0683 -0.0381 0.4154
H21 H -0.0350 -0.0863 0.2993
H22 H -0.0725 -0.0022 0.3486
C21 C -0.0824(3) 0.0405(2) 0.1274(3)
H23 H -0.1475 0.0682 0.1454
H24 H -0.1161 -0.0120 0.0831
H25 H -0.0571 0.0774 0.0765
loop_
_geom_bond_atom_site_label_1
_geom_bond_atom_site_label_2
_geom_bond_site_symmetry_1
_geom_bond_site_symmetry_2
O1 C1 1_555 1_555
O2 C1 1_555 1_555
N1 C3 1_555 1_555
C1 C5 1_555 1_555
C2 C7 1_555 1_555
C3 C4 1_555 1_555
C4 C13 1_555 1_555
C5 C3 1_555 1_555
H1 C5 1_555 1_555
C6 O2 1_555 1_555
C7 C19 1_555 1_555
C8 C2 1_555 1_555
H2 C8 1_555 1_555
C9 C6 1_555 1_555
H3 C9 1_555 1_555
C10 C2 1_555 1_555
H4 C10 1_555 1_555
C11 C6 1_555 1_555
H5 C11 1_555 1_555
C12 N1 1_555 1_555
H6 C12 1_555 1_555
H7 C12 1_555 1_555
H8 C12 1_555 1_555
C13 H9 1_555 1_555
C14 C4 1_555 1_555
H10 C14 1_555 1_555
C15 N1 1_555 1_555
H11 C15 1_555 1_555
H12 C15 1_555 1_555
H13 C15 1_555 1_555
C16 C13 1_555 1_555
H14 C16 1_555 1_555
C17 C14 1_555 1_555
H15 C17 1_555 1_555
C18 C16 1_555 1_555
H16 C18 1_555 1_555
C19 H17 1_555 1_555
H18 C19 1_555 1_555
H19 C19 1_555 1_555
C20 C7 1_555 1_555
H20 C20 1_555 1_555
H21 C20 1_555 1_555
H22 C20 1_555 1_555
C21 C7 1_555 1_555
H23 C21 1_555 1_555
H24 C21 1_555 1_555
H25 C21 1_555 1_555
C8 C9 1_555 1_555
C10 C11 1_555 1_555
C17 C18 1_555 1_555

#END
