
#######################################################################
#
#                 Cambridge Crystallographic Data Centre
#                                CCDC 
#
#######################################################################
#
# If this CIF has been generated from an entry in the Cambridge 
# Structural Database, then it will include bibliographic, chemical, 
# crystal, experimental, refinement or atomic coordinate data resulting 
# from the CCDC's data processing and validation procedures.
#
#######################################################################

data_ATINOI
_chemical_formula_moiety         'C36 H50 N6 O2,C1 H1 Cl3'
_chemical_name_systematic        
'2,3-bis((4-(dipropylamino)-2-propoxybenzylidene)amino)but-2-enedinitrile chloroform solvate'
_symmetry_cell_setting           triclinic
_symmetry_space_group_name_H-M   'P -1'
_symmetry_Int_Tables_number      2
_space_group_name_Hall           '-P 1'
loop_
_symmetry_equiv_pos_site_id
_symmetry_equiv_pos_as_xyz
1 x,y,z
2 -x,-y,-z
_cell_length_a                   8.843(2)
_cell_length_b                   13.289(3)
_cell_length_c                   17.726(4)
_cell_angle_alpha                73.521(5)
_cell_angle_beta                 77.317(8)
_cell_angle_gamma                88.466(8)
_cell_volume                     1947.36
_exptl_crystal_colour            red
_exptl_crystal_description       block
_cell_formula_units_Z            2
loop_
_atom_site_label
_atom_site_type_symbol
_atom_site_fract_x
_atom_site_fract_y
_atom_site_fract_z
Cl1 Cl 0.0631(3) -0.04564(19) 0.15115(13)
Cl2 Cl 0.0129(2) -0.0012(2) 0.30091(10)
Cl3 Cl 0.29614(17) 0.06209(15) 0.18642(12)
C1 C 0.0993(5) 0.0417(4) 0.1995(3)
H1 H 0.052(6) 0.101(4) 0.176(3)
O1 O 0.4950(3) 0.40937(18) 0.14890(16)
N1 N 0.0604(4) 0.2755(3) 0.0758(2)
N2 N 0.1740(3) 0.5400(2) 0.02530(17)
N3 N 0.7328(4) 0.7478(2) 0.1138(2)
C2 C 0.0560(4) 0.3644(3) 0.0486(2)
C3 C 0.0590(4) 0.4777(3) 0.0177(2)
C4 C 0.2816(4) 0.4978(3) 0.0626(2)
H2 H 0.2826 0.4244 0.0826
C5 C 0.3986(4) 0.5612(3) 0.0739(2)
C6 C 0.5086(4) 0.5160(3) 0.1196(2)
C7 C 0.6179(4) 0.5767(3) 0.1333(2)
H3 H 0.6876 0.5444 0.1651
C8 C 0.6265(4) 0.6867(3) 0.1002(2)
C9 C 0.5193(4) 0.7315(3) 0.0529(2)
H4 H 0.5236 0.8045 0.0290
C10 C 0.4098(4) 0.6708(3) 0.0414(2)
H5 H 0.3389 0.7035 0.0104
C11 C 0.8176(5) 0.7095(4) 0.1802(3)
H6 H 0.8290 0.7666 0.2036
H7 H 0.7563 0.6521 0.2226
C12 C 0.9707(6) 0.6726(4) 0.1523(3)
H8 H 1.0287 0.7267 0.1056
H9 H 0.9600 0.6094 0.1355
C13 C 1.0603(5) 0.6473(4) 0.2216(3)
H10 H 1.1621 0.6228 0.2029
H11 H 1.0716 0.7102 0.2376
H12 H 1.0031 0.5932 0.2674
C14 C 0.7640(5) 0.8586(3) 0.0669(3)
H13 H 0.7446 0.8674 0.0131
H14 H 0.8740 0.8760 0.0602
C15 C 0.6691(5) 0.9351(3) 0.1036(3)
H15 H 0.6877 0.9274 0.1575
H16 H 0.5587 0.9197 0.1095
C16 C 0.7106(7) 1.0481(4) 0.0512(3)
H17 H 0.6479 1.0960 0.0762
H18 H 0.8195 1.0638 0.0461
H19 H 0.6907 1.0561 -0.0018
C17 C 0.6133(4) 0.3526(3) 0.1854(2)
H20 H 0.6164 0.3694 0.2355
H21 H 0.7154 0.3696 0.1486
C18 C 0.5683(5) 0.2381(3) 0.2026(3)
H22 H 0.5575 0.2248 0.1524
H23 H 0.4672 0.2228 0.2405
C19 C 0.6855(5) 0.1649(3) 0.2377(3)
H24 H 0.6511 0.0927 0.2475
H25 H 0.7853 0.1785 0.1999
H26 H 0.6950 0.1766 0.2881
O1A O -0.4950(3) 0.59063(18) -0.14890(16)
N1A N -0.0604(4) 0.7245(3) -0.0758(2)
N2A N -0.1740(3) 0.4600(2) -0.02530(17)
N3A N -0.7328(4) 0.2522(2) -0.1138(2)
C2A C -0.0560(4) 0.6356(3) -0.0486(2)
C3A C -0.0590(4) 0.5223(3) -0.0177(2)
C4A C -0.2816(4) 0.5022(3) -0.0626(2)
H2A H -0.2826 0.5756 -0.0826
C5A C -0.3986(4) 0.4388(3) -0.0739(2)
C6A C -0.5086(4) 0.4840(3) -0.1196(2)
C7A C -0.6179(4) 0.4233(3) -0.1333(2)
H3A H -0.6876 0.4556 -0.1651
C8A C -0.6265(4) 0.3133(3) -0.1002(2)
C9A C -0.5193(4) 0.2685(3) -0.0529(2)
H4A H -0.5236 0.1955 -0.0290
C10A C -0.4098(4) 0.3292(3) -0.0414(2)
H5A H -0.3389 0.2965 -0.0104
C11A C -0.8176(5) 0.2905(4) -0.1802(3)
H6A H -0.8290 0.2334 -0.2036
H7A H -0.7563 0.3479 -0.2226
C12A C -0.9707(6) 0.3274(4) -0.1523(3)
H8A H -1.0287 0.2733 -0.1056
H9A H -0.9600 0.3906 -0.1355
C13A C -1.0603(5) 0.3527(4) -0.2216(3)
H10A H -1.1621 0.3772 -0.2029
H11A H -1.0716 0.2898 -0.2376
H12A H -1.0031 0.4068 -0.2674
C14A C -0.7640(5) 0.1414(3) -0.0669(3)
H13A H -0.7446 0.1326 -0.0131
H14A H -0.8740 0.1240 -0.0602
C15A C -0.6691(5) 0.0649(3) -0.1036(3)
H15A H -0.6877 0.0726 -0.1575
H16A H -0.5587 0.0803 -0.1095
C16A C -0.7106(7) -0.0481(4) -0.0512(3)
H17A H -0.6479 -0.0960 -0.0762
H18A H -0.8195 -0.0638 -0.0461
H19A H -0.6907 -0.0561 0.0018
C17A C -0.6133(4) 0.6474(3) -0.1854(2)
H20A H -0.6164 0.6306 -0.2355
H21A H -0.7154 0.6304 -0.1486
C18A C -0.5683(5) 0.7619(3) -0.2026(3)
H22A H -0.5575 0.7752 -0.1524
H23A H -0.4672 0.7772 -0.2405
C19A C -0.6855(5) 0.8351(3) -0.2377(3)
H24A H -0.6511 0.9073 -0.2475
H25A H -0.7853 0.8215 -0.1999
H26A H -0.6950 0.8234 -0.2881
O2 O 0.4914(3) 0.59421(19) 0.35743(16)
N4 N 0.9459(4) 0.7249(3) 0.4214(2)
N5 N 0.8371(3) 0.4614(2) 0.46485(18)
N6 N 0.2651(3) 0.2529(2) 0.3890(2)
C20 C 0.9494(4) 0.6366(3) 0.4484(2)
C21 C 0.9452(4) 0.5230(3) 0.4790(2)
C22 C 0.7267(4) 0.5049(3) 0.4302(2)
H27 H 0.7218 0.5785 0.4141
C23 C 0.6126(4) 0.4419(3) 0.4162(2)
C24 C 0.4873(4) 0.4873(3) 0.3818(2)
C25 C 0.3728(4) 0.4253(3) 0.3729(2)
H28 H 0.2904 0.4573 0.3504
C26 C 0.3780(4) 0.3151(3) 0.3969(2)
C27 C 0.5061(4) 0.2701(3) 0.4286(2)
H29 H 0.5148 0.1968 0.4435
C28 C 0.6165(4) 0.3322(3) 0.4376(2)
H30 H 0.6996 0.3000 0.4592
C29 C 0.1197(4) 0.2950(3) 0.3690(2)
H31 H 0.0943 0.3552 0.3904
H32 H 0.0366 0.2411 0.3960
C30 C 0.1232(4) 0.3293(3) 0.2798(2)
H33 H 0.1551 0.2711 0.2568
H34 H 0.1991 0.3878 0.2527
C31 C -0.0368(5) 0.3636(4) 0.2653(3)
H35 H -0.0328 0.3854 0.2078
H36 H -0.1116 0.3053 0.2915
H37 H -0.0677 0.4218 0.2874
C32 C 0.2769(4) 0.1391(3) 0.4072(2)
H38 H 0.3856 0.1231 0.3897
H39 H 0.2168 0.1136 0.3755
C33 C 0.2208(5) 0.0797(3) 0.4949(3)
H40 H 0.1111 0.0929 0.5127
H41 H 0.2795 0.1047 0.5274
C34 C 0.2409(6) -0.0372(4) 0.5079(3)
H42 H 0.2042 -0.0739 0.5647
H43 H 0.1816 -0.0622 0.4764
H44 H 0.3498 -0.0504 0.4911
C35 C 0.3694(4) 0.6465(3) 0.3216(3)
H45 H 0.2714 0.6349 0.3621
H46 H 0.3563 0.6184 0.2779
C36 C 0.4112(5) 0.7618(3) 0.2891(3)
H47 H 0.5093 0.7716 0.2489
H48 H 0.3313 0.7967 0.2614
C37 C 0.4272(9) 0.8137(4) 0.3498(4)
H49 H 0.4542 0.8875 0.3238
H50 H 0.3298 0.8065 0.3892
H51 H 0.5082 0.7813 0.3767
O2A O 1.5086(3) 0.40579(19) 0.64257(16)
N4A N 1.0541(4) 0.2751(3) 0.5786(2)
N5A N 1.1629(3) 0.5386(2) 0.53515(18)
N6A N 1.7349(3) 0.7471(2) 0.6110(2)
C20A C 1.0506(4) 0.3634(3) 0.5516(2)
C21A C 1.0548(4) 0.4770(3) 0.5210(2)
C22A C 1.2733(4) 0.4951(3) 0.5698(2)
H27A H 1.2782 0.4215 0.5859
C23A C 1.3874(4) 0.5581(3) 0.5838(2)
C24A C 1.5127(4) 0.5127(3) 0.6182(2)
C25A C 1.6272(4) 0.5747(3) 0.6271(2)
H28A H 1.7096 0.5427 0.6496
C26A C 1.6220(4) 0.6849(3) 0.6031(2)
C27A C 1.4939(4) 0.7299(3) 0.5714(2)
H29A H 1.4852 0.8032 0.5565
C28A C 1.3835(4) 0.6678(3) 0.5624(2)
H30A H 1.3004 0.7000 0.5408
C29A C 1.8803(4) 0.7050(3) 0.6310(2)
H31A H 1.9057 0.6448 0.6096
H32A H 1.9634 0.7589 0.6040
C30A C 1.8768(4) 0.6707(3) 0.7202(2)
H33A H 1.8449 0.7289 0.7432
H34A H 1.8009 0.6122 0.7473
C31A C 2.0368(5) 0.6364(4) 0.7347(3)
H35A H 2.0328 0.6146 0.7922
H36A H 2.1116 0.6947 0.7085
H37A H 2.0677 0.5782 0.7126
C32A C 1.7231(4) 0.8609(3) 0.5928(2)
H38A H 1.6144 0.8769 0.6103
H39A H 1.7832 0.8864 0.6245
C33A C 1.7792(5) 0.9203(3) 0.5051(3)
H40A H 1.8889 0.9071 0.4873
H41A H 1.7205 0.8953 0.4726
C34A C 1.7591(6) 1.0372(4) 0.4921(3)
H42A H 1.7958 1.0739 0.4353
H43A H 1.8184 1.0622 0.5236
H44A H 1.6502 1.0504 0.5089
C35A C 1.6306(4) 0.3535(3) 0.6784(3)
H45A H 1.7286 0.3651 0.6379
H46A H 1.6437 0.3816 0.7221
C36A C 1.5888(5) 0.2382(3) 0.7109(3)
H47A H 1.4907 0.2284 0.7511
H48A H 1.6687 0.2033 0.7386
C37A C 1.5728(9) 0.1863(4) 0.6502(4)
H49A H 1.5458 0.1125 0.6762
H50A H 1.6702 0.1935 0.6108
H51A H 1.4918 0.2187 0.6233
loop_
_geom_bond_atom_site_label_1
_geom_bond_atom_site_label_2
_geom_bond_site_symmetry_1
_geom_bond_site_symmetry_2
Cl1 C1 1_555 1_555
Cl2 C1 1_555 1_555
Cl3 C1 1_555 1_555
C1 H1 1_555 1_555
O1 C6 1_555 1_555
N1 C2 1_555 1_555
N2 C3 1_555 1_555
N3 C8 1_555 1_555
C2 C3 1_555 1_555
C3 C3A 1_555 1_555
C4 N2 1_555 1_555
H2 C4 1_555 1_555
C5 C4 1_555 1_555
C6 C5 1_555 1_555
C7 C6 1_555 1_555
H3 C7 1_555 1_555
C8 C7 1_555 1_555
C9 C8 1_555 1_555
H4 C9 1_555 1_555
C10 C5 1_555 1_555
H5 C10 1_555 1_555
C11 N3 1_555 1_555
H6 C11 1_555 1_555
H7 C11 1_555 1_555
C12 C11 1_555 1_555
H8 C12 1_555 1_555
H9 C12 1_555 1_555
C13 C12 1_555 1_555
H10 C13 1_555 1_555
H11 C13 1_555 1_555
H12 C13 1_555 1_555
C14 N3 1_555 1_555
H13 C14 1_555 1_555
H14 C14 1_555 1_555
C15 C14 1_555 1_555
H15 C15 1_555 1_555
H16 C15 1_555 1_555
C16 C15 1_555 1_555
H17 C16 1_555 1_555
H18 C16 1_555 1_555
H19 C16 1_555 1_555
C17 O1 1_555 1_555
H20 C17 1_555 1_555
H21 C17 1_555 1_555
C18 C17 1_555 1_555
H22 C18 1_555 1_555
H23 C18 1_555 1_555
C19 C18 1_555 1_555
H24 C19 1_555 1_555
H25 C19 1_555 1_555
H26 C19 1_555 1_555
O2 C24 1_555 1_555
N4 C20 1_555 1_555
N5 C21 1_555 1_555
N6 C26 1_555 1_555
C20 C21 1_555 1_555
C21 C21A 1_555 1_555
C22 N5 1_555 1_555
H27 C22 1_555 1_555
C23 C22 1_555 1_555
C24 C23 1_555 1_555
C25 C24 1_555 1_555
H28 C25 1_555 1_555
C26 C25 1_555 1_555
C27 C26 1_555 1_555
H29 C27 1_555 1_555
C28 C23 1_555 1_555
H30 C28 1_555 1_555
C29 N6 1_555 1_555
H31 C29 1_555 1_555
H32 C29 1_555 1_555
C30 C29 1_555 1_555
H33 C30 1_555 1_555
H34 C30 1_555 1_555
C31 C30 1_555 1_555
H35 C31 1_555 1_555
H36 C31 1_555 1_555
H37 C31 1_555 1_555
C32 N6 1_555 1_555
H38 C32 1_555 1_555
H39 C32 1_555 1_555
C33 C32 1_555 1_555
H40 C33 1_555 1_555
H41 C33 1_555 1_555
C34 C33 1_555 1_555
H42 C34 1_555 1_555
H43 C34 1_555 1_555
H44 C34 1_555 1_555
C35 O2 1_555 1_555
H45 C35 1_555 1_555
H46 C35 1_555 1_555
C36 C35 1_555 1_555
H47 C36 1_555 1_555
H48 C36 1_555 1_555
C37 C36 1_555 1_555
H49 C37 1_555 1_555
H50 C37 1_555 1_555
H51 C37 1_555 1_555
O1A C6A 1_555 1_555
N1A C2A 1_555 1_555
N2A C3A 1_555 1_555
N3A C8A 1_555 1_555
C2A C3A 1_555 1_555
C4A N2A 1_555 1_555
H2A C4A 1_555 1_555
C5A C4A 1_555 1_555
C6A C5A 1_555 1_555
C7A C6A 1_555 1_555
H3A C7A 1_555 1_555
C8A C7A 1_555 1_555
C9A C8A 1_555 1_555
H4A C9A 1_555 1_555
C10A C5A 1_555 1_555
H5A C10A 1_555 1_555
C11A N3A 1_555 1_555
H6A C11A 1_555 1_555
H7A C11A 1_555 1_555
C12A C11A 1_555 1_555
H8A C12A 1_555 1_555
H9A C12A 1_555 1_555
C13A C12A 1_555 1_555
H10A C13A 1_555 1_555
H11A C13A 1_555 1_555
H12A C13A 1_555 1_555
C14A N3A 1_555 1_555
H13A C14A 1_555 1_555
H14A C14A 1_555 1_555
C15A C14A 1_555 1_555
H15A C15A 1_555 1_555
H16A C15A 1_555 1_555
C16A C15A 1_555 1_555
H17A C16A 1_555 1_555
H18A C16A 1_555 1_555
H19A C16A 1_555 1_555
C17A O1A 1_555 1_555
H20A C17A 1_555 1_555
H21A C17A 1_555 1_555
C18A C17A 1_555 1_555
H22A C18A 1_555 1_555
H23A C18A 1_555 1_555
C19A C18A 1_555 1_555
H24A C19A 1_555 1_555
H25A C19A 1_555 1_555
H26A C19A 1_555 1_555
O2A C24A 1_555 1_555
N4A C20A 1_555 1_555
N5A C21A 1_555 1_555
N6A C26A 1_555 1_555
C20A C21A 1_555 1_555
C22A N5A 1_555 1_555
H27A C22A 1_555 1_555
C23A C22A 1_555 1_555
C24A C23A 1_555 1_555
C25A C24A 1_555 1_555
H28A C25A 1_555 1_555
C26A C25A 1_555 1_555
C27A C26A 1_555 1_555
H29A C27A 1_555 1_555
C28A C23A 1_555 1_555
H30A C28A 1_555 1_555
C29A N6A 1_555 1_555
H31A C29A 1_555 1_555
H32A C29A 1_555 1_555
C30A C29A 1_555 1_555
H33A C30A 1_555 1_555
H34A C30A 1_555 1_555
C31A C30A 1_555 1_555
H35A C31A 1_555 1_555
H36A C31A 1_555 1_555
H37A C31A 1_555 1_555
C32A N6A 1_555 1_555
H38A C32A 1_555 1_555
H39A C32A 1_555 1_555
C33A C32A 1_555 1_555
H40A C33A 1_555 1_555
H41A C33A 1_555 1_555
C34A C33A 1_555 1_555
H42A C34A 1_555 1_555
H43A C34A 1_555 1_555
H44A C34A 1_555 1_555
C35A O2A 1_555 1_555
H45A C35A 1_555 1_555
H46A C35A 1_555 1_555
C36A C35A 1_555 1_555
H47A C36A 1_555 1_555
H48A C36A 1_555 1_555
C37A C36A 1_555 1_555
H49A C37A 1_555 1_555
H50A C37A 1_555 1_555
H51A C37A 1_555 1_555
C9 C10 1_555 1_555
C27 C28 1_555 1_555
C9A C10A 1_555 1_555
C27A C28A 1_555 1_555

#END
