
#######################################################################
#
#                 Cambridge Crystallographic Data Centre
#                                CCDC 
#
#######################################################################
#
# If this CIF has been generated from an entry in the Cambridge 
# Structural Database, then it will include bibliographic, chemical, 
# crystal, experimental, refinement or atomic coordinate data resulting 
# from the CCDC's data processing and validation procedures.
#
#######################################################################

data_ATOJEZ
_chemical_name_common            
'cyclo[2](2,6-bis(1H-imidazol-1-yl)pyridine)-[2](1,4-dimethylenebenzene) bis(4,4-biphenyl dicarboxylate)-pseudorotaxane dimethylformamide solvate hydrate'
_chemical_formula_moiety         
'C38 H34 N10 4+,2(C14 H8 O4 2-),2(C3 H7 N1 O1),7.5(H2 O1)'
_chemical_name_systematic        
"[3]-6,12,25,31,42,47-Hexa-aza-3,15,22,34-tetraazonianonacyclo-[34.2.2.2^17,20^.1^3,6^.1^7,11^.1^12,15^.1^22,25^.1^26,30^.1^31,34^]-octatetraconta-1(38),3(48),4,7(47),8,10,13,15(46),17,19,22(43),23,-26(42),27,29,32,34(41),36,39,44-icosaene bis(biphenyl-4,4'-dicarboxylate)-pseudorotxane N,N-dimethylformamide solvate hydrate"
_symmetry_cell_setting           triclinic
_symmetry_space_group_name_H-M   'P -1'
_symmetry_Int_Tables_number      2
_space_group_name_Hall           '-P 1'
loop_
_symmetry_equiv_pos_site_id
_symmetry_equiv_pos_as_xyz
1 x,y,z
2 -x,-y,-z
_cell_length_a                   10.807(2)
_cell_length_b                   12.716(3)
_cell_length_c                   14.113(3)
_cell_angle_alpha                69.89(3)
_cell_angle_beta                 82.26(3)
_cell_angle_gamma                72.19(3)
_cell_volume                     1732.97
_exptl_crystal_colour            colorless
_exptl_crystal_description       block
_cell_formula_units_Z            1
loop_
_atom_site_label
_atom_site_type_symbol
_atom_site_fract_x
_atom_site_fract_y
_atom_site_fract_z
N1 N 0.1800(3) 1.1613(3) 0.3095(2)
N2 N 0.2326(3) 0.9732(2) 0.3541(2)
N3 N 0.4286(3) 0.8469(2) 0.3254(2)
N4 N 0.6272(3) 0.7339(2) 0.2841(2)
N5 N 0.8129(3) 0.6684(2) 0.2155(2)
C1 C 0.0587(4) 1.2831(4) 0.1150(3)
H1 H 0.0104 1.2398 0.1635
C2 C 0.1531(3) 1.3176(3) 0.1450(3)
C3 C 0.2222(4) 1.3845(3) 0.0712(3)
H2 H 0.2853 1.4089 0.0900
C4 C 0.1823(4) 1.2831(3) 0.2554(3)
H3 H 0.2672 1.2911 0.2608
H4 H 0.1183 1.3348 0.2864
C5 C 0.2771(3) 1.0669(3) 0.3084(2)
H5 H 0.3605 1.0661 0.2808
C6 C 0.0707(3) 1.1273(3) 0.3569(3)
H6 H -0.0097 1.1762 0.3678
C7 C 0.1032(3) 1.0098(3) 0.3843(3)
H7 H 0.0493 0.9625 0.4171
C8 C 0.3090(3) 0.8550(3) 0.3673(2)
C9 C 0.2586(3) 0.7630(3) 0.4168(3)
H8 H 0.1750 0.7743 0.4457
C10 C 0.3372(4) 0.6528(3) 0.4220(3)
H9 H 0.3063 0.5880 0.4538
C11 C 0.4619(3) 0.6389(3) 0.3796(3)
H10 H 0.5171 0.5656 0.3827
C12 C 0.5009(3) 0.7394(3) 0.3324(2)
C13 C 0.7062(3) 0.6412(3) 0.2604(3)
H11 H 0.6887 0.5702 0.2734
C14 C 0.6861(4) 0.8238(3) 0.2507(3)
H12 H 0.6518 0.8982 0.2561
C15 C 0.8029(4) 0.7822(3) 0.2090(3)
H13 H 0.8649 0.8223 0.1811
C16 C 0.9174(3) 0.5924(3) 0.1704(3)
H14 H 0.9201 0.5115 0.2058
H15 H 1.0005 0.6028 0.1777
C17 C 0.8024(4) 0.5849(3) 0.0299(3)
H16 H 0.7559 0.5397 0.0784
C18 C 0.8953(3) 0.6208(3) 0.0601(3)
C19 C 0.9643(4) 0.6873(4) -0.0135(3)
H17 H 1.0268 0.7122 0.0055
N1A N 0.8200(3) 0.8387(3) -0.3095(2)
N2A N 0.7674(3) 1.0268(2) -0.3541(2)
N3A N 0.5714(3) 1.1531(2) -0.3254(2)
N4A N 0.3728(3) 1.2661(2) -0.2841(2)
N5A N 0.1871(3) 1.3316(2) -0.2155(2)
C1A C 0.9413(4) 0.7169(4) -0.1150(3)
H1A H 0.9896 0.7602 -0.1635
C2A C 0.8469(3) 0.6824(3) -0.1450(3)
C3A C 0.7778(4) 0.6155(3) -0.0712(3)
H2A H 0.7147 0.5911 -0.0900
C4A C 0.8177(4) 0.7169(3) -0.2554(3)
H3A H 0.7328 0.7089 -0.2608
H4A H 0.8817 0.6652 -0.2864
C5A C 0.7229(3) 0.9331(3) -0.3084(2)
H5A H 0.6395 0.9339 -0.2808
C6A C 0.9293(3) 0.8727(3) -0.3569(3)
H6A H 1.0097 0.8238 -0.3678
C7A C 0.8968(3) 0.9902(3) -0.3843(3)
H7A H 0.9507 1.0375 -0.4171
C8A C 0.6910(3) 1.1450(3) -0.3673(2)
C9A C 0.7414(3) 1.2370(3) -0.4168(3)
H8A H 0.8250 1.2257 -0.4457
C10A C 0.6628(4) 1.3472(3) -0.4220(3)
H9A H 0.6937 1.4120 -0.4538
C11A C 0.5381(3) 1.3611(3) -0.3796(3)
H10A H 0.4829 1.4344 -0.3827
C12A C 0.4991(3) 1.2606(3) -0.3324(2)
C13A C 0.2938(3) 1.3588(3) -0.2604(3)
H11A H 0.3113 1.4298 -0.2734
C14A C 0.3139(4) 1.1762(3) -0.2507(3)
H12A H 0.3482 1.1018 -0.2561
C15A C 0.1971(4) 1.2178(3) -0.2090(3)
H13A H 0.1351 1.1777 -0.1811
C16A C 0.0826(3) 1.4076(3) -0.1704(3)
H14A H 0.0799 1.4885 -0.2058
H15A H -0.0005 1.3972 -0.1777
C17A C 0.1976(4) 1.4151(3) -0.0299(3)
H16A H 0.2441 1.4603 -0.0784
C18A C 0.1047(3) 1.3792(3) -0.0601(3)
C19A C 0.0357(4) 1.3127(4) 0.0135(3)
H17A H -0.0268 1.2878 -0.0055
N6 N 0.6728(3) 1.2078(3) 0.1277(2)
C34 C 0.5575(4) 1.1932(4) 0.1674(3)
H26 H 0.4893 1.2601 0.1635
C35 C 0.7843(4) 1.1077(4) 0.1317(4)
H27 H 0.7594 1.0373 0.1659
H28 H 0.8522 1.1102 0.1676
H29 H 0.8152 1.1092 0.0644
C36 C 0.6906(5) 1.3234(4) 0.0784(4)
H30 H 0.6098 1.3813 0.0807
H31 H 0.7186 1.3319 0.0093
H32 H 0.7552 1.3333 0.1126
O9 O 0.5341(3) 1.0990(3) 0.2086(2)
C20 C 0.1549(4) 0.7979(4) 0.1907(3)
C21 C 0.2583(3) 0.8560(3) 0.1335(3)
C22 C 0.2334(4) 0.9775(3) 0.1065(3)
H18 H 0.1529 1.0216 0.1233
C23 C 0.3266(4) 1.0329(3) 0.0553(3)
H19 H 0.3071 1.1135 0.0385
C24 C 0.4496(3) 0.9705(3) 0.0283(2)
C25 C 0.4738(3) 0.8489(3) 0.0562(3)
H20 H 0.5543 0.8042 0.0400
C26 C 0.3794(4) 0.7940(3) 0.1076(3)
H21 H 0.3985 0.7134 0.1249
O1 O 0.0551(3) 0.8603(3) 0.2224(3)
O3 O 0.1763(3) 0.6905(3) 0.2048(3)
C20A C 0.8451(4) 1.2021(4) -0.1907(3)
C21A C 0.7417(3) 1.1440(3) -0.1335(3)
C22A C 0.7666(4) 1.0225(3) -0.1065(3)
H18A H 0.8471 0.9784 -0.1233
C23A C 0.6734(4) 0.9671(3) -0.0553(3)
H19A H 0.6929 0.8865 -0.0385
C24A C 0.5504(3) 1.0295(3) -0.0283(2)
C25A C 0.5262(3) 1.1511(3) -0.0562(3)
H20A H 0.4457 1.1958 -0.0400
C26A C 0.6206(4) 1.2060(3) -0.1076(3)
H21A H 0.6015 1.2866 -0.1249
O1A O 0.9449(3) 1.1397(3) -0.2224(3)
O3A O 0.8237(3) 1.3095(3) -0.2048(3)
C27 C 0.3092(4) 0.6587(3) 0.6788(3)
C28 C 0.3660(3) 0.7604(3) 0.6284(3)
C29 C 0.4970(3) 0.7415(3) 0.5951(3)
H22 H 0.5502 0.6657 0.6069
C30 C 0.5477(3) 0.8341(3) 0.5449(3)
H23 H 0.6342 0.8191 0.5223
C31 C 0.4724(3) 0.9499(3) 0.5272(2)
C32 C 0.3430(3) 0.9681(3) 0.5630(3)
H24 H 0.2909 1.0437 0.5548
C33 C 0.2911(3) 0.8741(3) 0.6110(3)
H25 H 0.2039 0.8886 0.6318
O5 O 0.1887(3) 0.6756(2) 0.6781(2)
O7 O 0.3887(3) 0.5607(2) 0.7176(2)
C27A C 0.6908(4) 1.3413(3) 0.3212(3)
C28A C 0.6340(3) 1.2396(3) 0.3716(3)
C29A C 0.5030(3) 1.2585(3) 0.4049(3)
H22A H 0.4498 1.3343 0.3931
C30A C 0.4523(3) 1.1659(3) 0.4551(3)
H23A H 0.3658 1.1809 0.4777
C31A C 0.5276(3) 1.0501(3) 0.4728(2)
C32A C 0.6570(3) 1.0319(3) 0.4370(3)
H24A H 0.7091 0.9563 0.4452
C33A C 0.7089(3) 1.1259(3) 0.3890(3)
H25A H 0.7961 1.1114 0.3682
O5A O 0.8113(3) 1.3244(2) 0.3219(2)
O7A O 0.6113(3) 1.4393(2) 0.2824(2)
O2 O 0.3759(4) 0.4864(3) 0.1906(3)
O4 O 0.0489(9) 0.5949(9) 0.3852(6)
O6 O -0.071(2) 0.7956(15) 0.415(2)
O8 O -0.0675(7) 0.4072(6) 0.4298(5)
O10 O -0.1080(14) 0.6415(12) 0.5322(9)
O11? O -0.0438(17) 0.6832(17) 0.4471(14)
O12? O -0.2115(18) 0.6189(17) 0.4706(13)
loop_
_geom_bond_atom_site_label_1
_geom_bond_atom_site_label_2
_geom_bond_site_symmetry_1
_geom_bond_site_symmetry_2
N1 C4 1_555 1_555
N2 C5 1_555 1_555
N3 C8 1_555 1_555
N4 C12 1_555 1_555
N5 C13 1_555 1_555
N6 C34 1_555 1_555
C1 H1 1_555 1_555
C2 C1 1_555 1_555
C3 C2 1_555 1_555
H2 C3 1_555 1_555
C4 C2 1_555 1_555
H3 C4 1_555 1_555
H4 C4 1_555 1_555
C5 N1 1_555 1_555
H5 C5 1_555 1_555
C6 N1 1_555 1_555
H6 C6 1_555 1_555
C7 N2 1_555 1_555
H7 C7 1_555 1_555
C8 N2 1_555 1_555
C9 C8 1_555 1_555
H8 C9 1_555 1_555
C10 C9 1_555 1_555
H9 C10 1_555 1_555
C11 C10 1_555 1_555
H10 C11 1_555 1_555
C12 N3 1_555 1_555
C13 N4 1_555 1_555
H11 C13 1_555 1_555
C14 N4 1_555 1_555
H12 C14 1_555 1_555
C15 N5 1_555 1_555
H13 C15 1_555 1_555
C16 N5 1_555 1_555
H14 C16 1_555 1_555
H15 C16 1_555 1_555
C17 H16 1_555 1_555
C18 C16 1_555 1_555
C19 C18 1_555 1_555
H17 C19 1_555 1_555
C20 C21 1_555 1_555
C21 C22 1_555 1_555
C22 H18 1_555 1_555
C23 C22 1_555 1_555
H19 C23 1_555 1_555
C24 C23 1_555 1_555
C25 C24 1_555 1_555
H20 C25 1_555 1_555
C26 C21 1_555 1_555
H21 C26 1_555 1_555
C27 C28 1_555 1_555
C28 C29 1_555 1_555
C29 H22 1_555 1_555
C30 C29 1_555 1_555
H23 C30 1_555 1_555
C31 C30 1_555 1_555
C32 C31 1_555 1_555
H24 C32 1_555 1_555
C33 C28 1_555 1_555
H25 C33 1_555 1_555
C34 H26 1_555 1_555
C35 N6 1_555 1_555
H27 C35 1_555 1_555
H28 C35 1_555 1_555
H29 C35 1_555 1_555
C36 N6 1_555 1_555
H30 C36 1_555 1_555
H31 C36 1_555 1_555
H32 C36 1_555 1_555
O1 C20 1_555 1_555
O3 C20 1_555 1_555
O5 C27 1_555 1_555
O7 C27 1_555 1_555
O9 C34 1_555 1_555
N1A C4A 1_555 1_555
N2A C5A 1_555 1_555
N3A C8A 1_555 1_555
N4A C12A 1_555 1_555
N5A C13A 1_555 1_555
C1A C19 1_555 1_555
H1A C1A 1_555 1_555
C2A C1A 1_555 1_555
C3A C17 1_555 1_555
H2A C3A 1_555 1_555
C4A C2A 1_555 1_555
H3A C4A 1_555 1_555
H4A C4A 1_555 1_555
C5A N1A 1_555 1_555
H5A C5A 1_555 1_555
C6A N1A 1_555 1_555
H6A C6A 1_555 1_555
C7A N2A 1_555 1_555
H7A C7A 1_555 1_555
C8A N2A 1_555 1_555
C9A C8A 1_555 1_555
H8A C9A 1_555 1_555
C10A C9A 1_555 1_555
H9A C10A 1_555 1_555
C11A C10A 1_555 1_555
H10A C11A 1_555 1_555
C12A N3A 1_555 1_555
C13A N4A 1_555 1_555
H11A C13A 1_555 1_555
C14A N4A 1_555 1_555
H12A C14A 1_555 1_555
C15A N5A 1_555 1_555
H13A C15A 1_555 1_555
C16A N5A 1_555 1_555
H14A C16A 1_555 1_555
H15A C16A 1_555 1_555
C17A C3 1_555 1_555
H16A C17A 1_555 1_555
C18A C16A 1_555 1_555
C19A C1 1_555 1_555
H17A C19A 1_555 1_555
C20A C21A 1_555 1_555
C21A C22A 1_555 1_555
C22A H18A 1_555 1_555
C23A C22A 1_555 1_555
H19A C23A 1_555 1_555
C24A C24 1_555 1_555
C25A C24A 1_555 1_555
H20A C25A 1_555 1_555
C26A C21A 1_555 1_555
H21A C26A 1_555 1_555
C27A C28A 1_555 1_555
C28A C29A 1_555 1_555
C29A H22A 1_555 1_555
C30A C29A 1_555 1_555
H23A C30A 1_555 1_555
C31A C31 1_555 1_555
C32A C31A 1_555 1_555
H24A C32A 1_555 1_555
C33A C28A 1_555 1_555
H25A C33A 1_555 1_555
O1A C20A 1_555 1_555
O3A C20A 1_555 1_555
O5A C27A 1_555 1_555
O7A C27A 1_555 1_555
C6 C7 1_555 1_555
C11 C12 1_555 1_555
C14 C15 1_555 1_555
C17 C18 1_555 1_555
C25 C26 1_555 1_555
C32 C33 1_555 1_555
C2A C3A 1_555 1_555
C6A C7A 1_555 1_555
C11A C12A 1_555 1_555
C14A C15A 1_555 1_555
C17A C18A 1_555 1_555
C18A C19A 1_555 1_555
C23A C24A 1_555 1_555
C25A C26A 1_555 1_555
C30A C31A 1_555 1_555
C32A C33A 1_555 1_555

#END
