
#######################################################################
#
#                 Cambridge Crystallographic Data Centre
#                                CCDC 
#
#######################################################################
#
# If this CIF has been generated from an entry in the Cambridge 
# Structural Database, then it will include bibliographic, chemical, 
# crystal, experimental, refinement or atomic coordinate data resulting 
# from the CCDC's data processing and validation procedures.
#
#######################################################################

data_ATRVNT
_chemical_compound_source        'Aspergillus silvaticus'
_chemical_formula_moiety         'C18 H16 O6'
_chemical_name_systematic        
2,7-Dihydroxy-5-methyl-(3,4-d)(2',3'-dihydro-2',3',3'-trimethylfurano)-naphthalic-1,8-anhydride
_symmetry_cell_setting           orthorhombic
_symmetry_space_group_name_H-M   'P 21 21 21'
_symmetry_Int_Tables_number      19
_space_group_name_Hall           'P 2ac 2ab'
loop_
_symmetry_equiv_pos_site_id
_symmetry_equiv_pos_as_xyz
1 x,y,z
2 1/2+x,1/2-y,-z
3 -x,1/2+y,1/2-z
4 1/2-x,-y,1/2+z
_cell_length_a                   9.894(5)
_cell_length_b                   6.803(4)
_cell_length_c                   22.519(6)
_cell_angle_alpha                90
_cell_angle_beta                 90
_cell_angle_gamma                90
_cell_volume                     1515.73
_exptl_crystal_colour            'pale yellow'
_chemical_melting_point          262-263deg.C
_cell_formula_units_Z            4
loop_
_atom_site_label
_atom_site_type_symbol
_atom_site_fract_x
_atom_site_fract_y
_atom_site_fract_z
C1 C 0.50840 0.95500 0.34000
C2 C 0.54730 0.96050 0.27750
C3 C 0.68180 0.95430 0.26160
C4 C 0.71880 0.95710 0.20250
C5 C 0.62620 0.95520 0.15810
C6 C 0.48490 0.95740 0.17250
C7 C 0.37520 0.95110 0.13140
C8 C 0.26690 0.92230 0.04260
C9 C 0.15370 0.94960 0.09040
C10 C 0.24340 0.94770 0.14680
C11 C 0.20340 0.94840 0.20570
C12 C 0.30780 0.95440 0.24930
C13 C 0.26960 0.95360 0.31070
C14 C 0.44410 0.95700 0.23300
C15 C 0.67080 0.96080 0.09340
C16 C 0.26570 1.07720 -0.00920
C17 C 0.07770 1.14170 0.08500
C18 C 0.06000 0.77140 0.08730
O1 O 0.37300 0.95740 0.35280
O2 O 0.58600 0.95810 0.38110
O3 O 0.78200 0.95260 0.30210
O4 O 0.39660 0.95390 0.07220
O5 O 0.07430 0.94740 0.21970
O6 O 0.15390 0.95130 0.33000
H1 H 0.73200 1.02100 0.32900
H2 H 0.82900 0.96200 0.19100
H3 H 0.64200 1.08500 0.07100
H4 H 0.64100 0.85000 0.07000
H5 H 0.75500 0.93300 0.09100
H6 H 0.27400 0.77000 0.02500
H7 H 0.02700 1.12500 0.05000
H8 H 0.14100 1.24700 0.07600
H9 H 0.03500 1.17600 0.11800
H10 H 0.01000 0.77100 0.05200
H11 H -0.01000 0.76900 0.12000
H12 H 0.12000 0.63900 0.08500
H13 H 0.05900 0.99400 0.26100
loop_
_geom_bond_atom_site_label_1
_geom_bond_atom_site_label_2
_geom_bond_site_symmetry_1
_geom_bond_site_symmetry_2
C1 C2 1_555 1_555
C2 C3 1_555 1_555
C3 C4 1_555 1_555
C4 C5 1_555 1_555
C5 C6 1_555 1_555
C6 C7 1_555 1_555
C7 C10 1_555 1_555
C8 C9 1_555 1_555
C9 C10 1_555 1_555
C10 C11 1_555 1_555
C11 C12 1_555 1_555
C12 C13 1_555 1_555
C13 O1 1_555 1_555
C14 C2 1_555 1_555
C15 C5 1_555 1_555
C16 C8 1_555 1_555
C17 C9 1_555 1_555
C18 C9 1_555 1_555
O1 C1 1_555 1_555
O2 C1 1_555 1_555
O3 C3 1_555 1_555
O4 C7 1_555 1_555
O5 C11 1_555 1_555
O6 C13 1_555 1_555
H1 O3 1_555 1_555
H2 C4 1_555 1_555
H3 C15 1_555 1_555
H4 C15 1_555 1_555
H5 C15 1_555 1_555
H6 C8 1_555 1_555
H7 C17 1_555 1_555
H8 C17 1_555 1_555
H9 C17 1_555 1_555
H10 C18 1_555 1_555
H11 C18 1_555 1_555
H12 C18 1_555 1_555
H13 O5 1_555 1_555
C6 C14 1_555 1_555
C8 O4 1_555 1_555
C12 C14 1_555 1_555

#END
