
#######################################################################
#
#                 Cambridge Crystallographic Data Centre
#                                CCDC 
#
#######################################################################
#
# If this CIF has been generated from an entry in the Cambridge 
# Structural Database, then it will include bibliographic, chemical, 
# crystal, experimental, refinement or atomic coordinate data resulting 
# from the CCDC's data processing and validation procedures.
#
#######################################################################

data_ATUDIE
_chemical_formula_moiety         'C33 H30 O1'
_chemical_name_systematic        
2-t-butyl-2,3,4,5-tetraphenylcyclopent-3-en-1-one
_symmetry_cell_setting           triclinic
_symmetry_space_group_name_H-M   'P -1'
_symmetry_Int_Tables_number      2
_space_group_name_Hall           '-P 1'
loop_
_symmetry_equiv_pos_site_id
_symmetry_equiv_pos_as_xyz
1 x,y,z
2 -x,-y,-z
_cell_length_a                   9.641(9)
_cell_length_b                   10.435(9)
_cell_length_c                   13.189(12)
_cell_angle_alpha                72.987(11)
_cell_angle_beta                 79.625(11)
_cell_angle_gamma                79.520(11)
_cell_volume                     1236.22
_exptl_crystal_colour            colorless
_exptl_crystal_description       block
_cell_formula_units_Z            2
loop_
_atom_site_label
_atom_site_type_symbol
_atom_site_fract_x
_atom_site_fract_y
_atom_site_fract_z
C1 C 0.2502(2) 0.0799(2) 0.27794(16)
C2 C 0.1533(2) 0.0806(2) 0.19843(15)
C3 C 0.0436(2) 0.2026(2) 0.20806(15)
C4 C 0.0618(2) 0.2560(2) 0.28445(14)
C5 C 0.1842(2) 0.1797(2) 0.34246(16)
H1 H 0.1444 0.1276 0.4130
C6 C 0.0838(3) -0.0545(2) 0.23887(17)
C7 C -0.0158(3) -0.0621(2) 0.1638(2)
H2 H 0.0352 -0.0526 0.0930
H3 H -0.0942 0.0095 0.1624
H4 H -0.0510 -0.1478 0.1887
C8 C 0.1942(3) -0.1805(2) 0.2555(2)
H5 H 0.1470 -0.2596 0.2800
H6 H 0.2512 -0.1798 0.3080
H7 H 0.2542 -0.1814 0.1892
C9 C -0.0067(3) -0.0599(3) 0.34701(19)
H8 H -0.0791 0.0175 0.3402
H9 H 0.0525 -0.0595 0.3981
H10 H -0.0507 -0.1410 0.3709
C10 C 0.2424(2) 0.1082(2) 0.08787(16)
C11 C 0.2759(3) 0.0237(2) 0.02219(18)
H11 H 0.2422 -0.0595 0.0445
C12 C 0.3573(3) 0.0583(3) -0.0751(2)
H12 H 0.3792 -0.0024 -0.1170
C13 C 0.4068(3) 0.1795(4) -0.1118(2)
H13 H 0.4613 0.2029 -0.1786
C14 C 0.3750(3) 0.2659(3) -0.0490(2)
H14 H 0.4076 0.3496 -0.0728
C15 C 0.2952(2) 0.2305(3) 0.04947(18)
H15 H 0.2760 0.2906 0.0918
C16 C -0.0767(2) 0.2494(2) 0.14527(16)
C17 C -0.0573(2) 0.2930(2) 0.03510(17)
H16 H 0.0345 0.2932 -0.0018
C18 C -0.1708(3) 0.3357(3) -0.0204(2)
H17 H -0.1556 0.3657 -0.0946
C19 C -0.3051(3) 0.3349(3) 0.0312(3)
H18 H -0.3821 0.3639 -0.0074
C20 C -0.3274(3) 0.2914(3) 0.1401(3)
H19 H -0.4196 0.2896 0.1759
C21 C -0.2142(2) 0.2504(2) 0.19649(19)
H20 H -0.2303 0.2228 0.2708
C22 C -0.0254(2) 0.3722(2) 0.31476(16)
C23 C -0.0760(3) 0.4858(2) 0.24027(19)
H21 H -0.0548 0.4890 0.1680
C24 C -0.1560(3) 0.5929(2) 0.2696(2)
H22 H -0.1870 0.6693 0.2175
C25 C -0.1915(3) 0.5900(3) 0.3744(3)
H23 H -0.2476 0.6634 0.3943
C26 C -0.1447(3) 0.4799(3) 0.4492(2)
H24 H -0.1694 0.4769 0.5212
C27 C -0.0615(3) 0.3727(3) 0.42032(18)
H25 H -0.0283 0.2982 0.4731
C28 C 0.2917(2) 0.2565(3) 0.35967(18)
C29 C 0.3082(3) 0.3856(3) 0.2978(2)
H26 H 0.2498 0.4291 0.2454
C30 C 0.4122(4) 0.4500(4) 0.3139(3)
H27 H 0.4229 0.5375 0.2726
C31 C 0.4992(4) 0.3864(6) 0.3897(4)
H28 H 0.5691 0.4302 0.4002
C32 C 0.4832(4) 0.2593(6) 0.4495(3)
H29 H 0.5431 0.2153 0.5008
C33 C 0.3800(3) 0.1948(3) 0.4354(2)
H30 H 0.3696 0.1077 0.4778
O1 O 0.36421(19) 0.01267(17) 0.28765(13)
loop_
_geom_bond_atom_site_label_1
_geom_bond_atom_site_label_2
_geom_bond_site_symmetry_1
_geom_bond_site_symmetry_2
C1 C2 1_555 1_555
C2 C3 1_555 1_555
C3 C4 1_555 1_555
C4 C5 1_555 1_555
C5 C1 1_555 1_555
H1 C5 1_555 1_555
C6 C2 1_555 1_555
C7 C6 1_555 1_555
H2 C7 1_555 1_555
H3 C7 1_555 1_555
H4 C7 1_555 1_555
C8 C6 1_555 1_555
H5 C8 1_555 1_555
H6 C8 1_555 1_555
H7 C8 1_555 1_555
C9 C6 1_555 1_555
H8 C9 1_555 1_555
H9 C9 1_555 1_555
H10 C9 1_555 1_555
C10 C2 1_555 1_555
C11 C10 1_555 1_555
H11 C11 1_555 1_555
C12 C11 1_555 1_555
H12 C12 1_555 1_555
C13 C12 1_555 1_555
H13 C13 1_555 1_555
C14 C13 1_555 1_555
H14 C14 1_555 1_555
C15 C10 1_555 1_555
H15 C15 1_555 1_555
C16 C3 1_555 1_555
C17 C16 1_555 1_555
H16 C17 1_555 1_555
C18 C17 1_555 1_555
H17 C18 1_555 1_555
C19 C18 1_555 1_555
H18 C19 1_555 1_555
C20 C19 1_555 1_555
H19 C20 1_555 1_555
C21 C16 1_555 1_555
H20 C21 1_555 1_555
C22 C4 1_555 1_555
C23 C22 1_555 1_555
H21 C23 1_555 1_555
C24 C23 1_555 1_555
H22 C24 1_555 1_555
C25 C24 1_555 1_555
H23 C25 1_555 1_555
C26 C25 1_555 1_555
H24 C26 1_555 1_555
C27 C22 1_555 1_555
H25 C27 1_555 1_555
C28 C5 1_555 1_555
C29 C28 1_555 1_555
H26 C29 1_555 1_555
C30 C29 1_555 1_555
H27 C30 1_555 1_555
C31 C30 1_555 1_555
H28 C31 1_555 1_555
C32 C31 1_555 1_555
H29 C32 1_555 1_555
C33 C28 1_555 1_555
H30 C33 1_555 1_555
O1 C1 1_555 1_555
C14 C15 1_555 1_555
C20 C21 1_555 1_555
C26 C27 1_555 1_555
C32 C33 1_555 1_555

#END
