
#######################################################################
#
#                 Cambridge Crystallographic Data Centre
#                                CCDC 
#
#######################################################################
#
# If this CIF has been generated from an entry in the Cambridge 
# Structural Database, then it will include bibliographic, chemical, 
# crystal, experimental, refinement or atomic coordinate data resulting 
# from the CCDC's data processing and validation procedures.
#
#######################################################################

data_ATUHAZ
_chemical_formula_moiety         'C19 H20 N2 O4 S1'
_chemical_name_systematic        
4-Methyl-N-(1-(4-methyl-5-oxo-2-phenyl-4,5-dihydro-1,3-oxazol-4-yl)ethyl)benzenesulfonamide
_symmetry_cell_setting           trigonal
_symmetry_space_group_name_H-M   'P 31 2 1'
_symmetry_Int_Tables_number      152
_space_group_name_Hall           'P 31 2"'
loop_
_symmetry_equiv_pos_site_id
_symmetry_equiv_pos_as_xyz
1 x,y,z
2 -y,x-y,1/3+z
3 -x+y,-x,2/3+z
4 x-y,-y,2/3-z
5 -x,-x+y,1/3-z
6 y,x,-z
_cell_length_a                   9.3905(12)
_cell_length_b                   9.3905(12)
_cell_length_c                   36.349(5)
_cell_angle_alpha                90
_cell_angle_beta                 90
_cell_angle_gamma                120
_cell_volume                     2775.88
_exptl_crystal_colour            colorless
_exptl_crystal_description       plate
_cell_formula_units_Z            6
loop_
_atom_site_label
_atom_site_type_symbol
_atom_site_fract_x
_atom_site_fract_y
_atom_site_fract_z
C1 C 0.5916(2) 0.2972(2) 0.33472(5)
C2 C 0.7108(2) 0.4681(2) 0.34926(5)
C3 C 0.7696(2) 0.28488(19) 0.37250(4)
C4 C 0.4151(2) 0.2479(2) 0.34516(5)
H1 H 0.3409 0.1337 0.3378
H2 H 0.3833 0.3200 0.3326
H3 H 0.4079 0.2584 0.3718
C5 C 0.8667(2) 0.23700(19) 0.39523(5)
C6 C 0.9605(2) 0.3342(2) 0.42456(5)
H4 H 0.9629 0.4343 0.4301
C7 C 1.0504(2) 0.2832(3) 0.44567(6)
H5 H 1.1129 0.3477 0.4660
C8 C 1.0495(3) 0.1399(3) 0.43724(6)
H6 H 1.1126 0.1068 0.4516
C9 C 0.9571(2) 0.0435(2) 0.40796(6)
H7 H 0.9572 -0.0551 0.4022
C10 C 0.8649(2) 0.0910(2) 0.38725(5)
H8 H 0.8000 0.0240 0.3674
C11 C 0.6105(2) 0.2939(2) 0.29243(4)
H9 H 0.5693 0.3637 0.2812
C12 C 0.7884(2) 0.3625(2) 0.28026(5)
H10 H 0.8343 0.3008 0.2923
H11 H 0.8531 0.4787 0.2872
H12 H 0.7923 0.3520 0.2535
C13 C 0.55322(18) 0.1467(2) 0.20543(4)
C14 C 0.6306(2) 0.0575(2) 0.19740(5)
H13 H 0.6090 -0.0356 0.2118
C15 C 0.7397(2) 0.1054(2) 0.16819(5)
H14 H 0.7919 0.0437 0.1625
C16 C 0.7739(2) 0.2425(2) 0.14704(5)
C17 C 0.6978(2) 0.3315(2) 0.15592(5)
H15 H 0.7212 0.4262 0.1419
C18 C 0.5873(2) 0.2843(2) 0.18505(5)
H16 H 0.5356 0.3463 0.1909
C19 C 0.8884(2) 0.2906(3) 0.11449(5)
H17 H 0.9941 0.3039 0.1224
H18 H 0.9055 0.3947 0.1043
H19 H 0.8398 0.2047 0.0956
N1 N 0.64616(16) 0.19223(17) 0.35257(4)
N2 N 0.50298(16) 0.12419(16) 0.28012(4)
H20 H 0.4905 0.0427 0.2943
O1 O 0.72093(15) 0.59785(14) 0.34361(3)
O2 O 0.81676(14) 0.45106(14) 0.37314(3)
O3 O 0.30937(15) -0.09305(15) 0.23954(3)
O4 O 0.32960(16) 0.18054(16) 0.23848(3)
S1 S 0.40691(5) 0.08267(5) 0.241315(10)
loop_
_geom_bond_atom_site_label_1
_geom_bond_atom_site_label_2
_geom_bond_site_symmetry_1
_geom_bond_site_symmetry_2
C1 C2 1_555 1_555
C2 O1 1_555 1_555
C3 C5 1_555 1_555
C4 C1 1_555 1_555
H1 C4 1_555 1_555
H2 C4 1_555 1_555
H3 C4 1_555 1_555
C5 C6 1_555 1_555
C6 H4 1_555 1_555
C7 C6 1_555 1_555
H5 C7 1_555 1_555
C8 C7 1_555 1_555
H6 C8 1_555 1_555
C9 C8 1_555 1_555
H7 C9 1_555 1_555
C10 C5 1_555 1_555
H8 C10 1_555 1_555
C11 C1 1_555 1_555
H9 C11 1_555 1_555
C12 C11 1_555 1_555
H10 C12 1_555 1_555
H11 C12 1_555 1_555
H12 C12 1_555 1_555
C13 C14 1_555 1_555
C14 H13 1_555 1_555
C15 C14 1_555 1_555
H14 C15 1_555 1_555
C16 C15 1_555 1_555
C17 C16 1_555 1_555
H15 C17 1_555 1_555
C18 C13 1_555 1_555
H16 C18 1_555 1_555
C19 C16 1_555 1_555
H17 C19 1_555 1_555
H18 C19 1_555 1_555
H19 C19 1_555 1_555
N1 C1 1_555 1_555
N2 C11 1_555 1_555
H20 N2 1_555 1_555
O2 C2 1_555 1_555
O3 S1 1_555 1_555
O4 S1 1_555 1_555
S1 C13 1_555 1_555
C3 N1 1_555 1_555
C3 O2 1_555 1_555
C9 C10 1_555 1_555
C17 C18 1_555 1_555
N2 S1 1_555 1_555

#END
