
#######################################################################
#
#                 Cambridge Crystallographic Data Centre
#                                CCDC 
#
#######################################################################
#
# If this CIF has been generated from an entry in the Cambridge 
# Structural Database, then it will include bibliographic, chemical, 
# crystal, experimental, refinement or atomic coordinate data resulting 
# from the CCDC's data processing and validation procedures.
#
#######################################################################

data_ATUKOQ
_chemical_formula_moiety         'C16 H15 N3,C1 H4 O1'
_chemical_name_systematic        
'(5-Methyl-3-(2-(1H-pyrrol-2-yl)vinyl)cyclohex-2-en-1-ylidene)malononitrile methanol solvate'
_symmetry_cell_setting           triclinic
_symmetry_space_group_name_H-M   'P -1'
_symmetry_Int_Tables_number      2
_space_group_name_Hall           '-P 1'
loop_
_symmetry_equiv_pos_site_id
_symmetry_equiv_pos_as_xyz
1 x,y,z
2 -x,-y,-z
_cell_length_a                   8.4670(5)
_cell_length_b                   8.7508(6)
_cell_length_c                   12.3055(7)
_cell_angle_alpha                106.224(2)
_cell_angle_beta                 91.827(2)
_cell_angle_gamma                112.2690(18)
_cell_volume                     800.352
_exptl_crystal_colour            brown
_exptl_crystal_description       plate
_cell_formula_units_Z            2
loop_
_atom_site_label
_atom_site_type_symbol
_atom_site_fract_x
_atom_site_fract_y
_atom_site_fract_z
N1 N 0.94768(18) 0.68690(19) 0.47023(13)
N2 N 0.70735(18) 0.51174(17) 0.11491(11)
N3 N 0.43129(14) 0.15042(14) 0.82456(9)
H1 H 0.5092 0.2489 0.8257
C1 C 0.54958(16) 0.34452(16) 0.33724(11)
C2 C 0.40843(18) 0.21345(18) 0.24102(11)
H2 H 0.4496 0.1297 0.1963
H3 H 0.3837 0.2728 0.1912
C3 C 0.24285(18) 0.11664(19) 0.28007(12)
H4 H 0.1887 0.1981 0.3088
C4 C 0.27706(17) 0.05218(17) 0.37757(11)
H5 H 0.1718 0.012 0.4101
H6 H 0.3071 -0.0463 0.3469
C5 C 0.41980(16) 0.18926(16) 0.47141(10)
C6 C 0.54498(16) 0.32427(16) 0.44793(11)
H7 H 0.6316 0.4072 0.5073
C7 C 0.11658(18) -0.0342(2) 0.17979(12)
H8 H 0.0124 -0.0935 0.2065
H9 H 0.1683 -0.114 0.1481
H10 H 0.0898 0.0102 0.1219
C8 C 0.68542(17) 0.47553(17) 0.31537(11)
C9 C 0.69539(18) 0.49511(17) 0.20388(12)
C10 C 0.83103(19) 0.59379(18) 0.40160(12)
C11 C 0.42738(16) 0.17618(16) 0.58542(11)
H11 H 0.5149 0.2656 0.6416
C12 C 0.31665(16) 0.04360(17) 0.61658(11)
H12 H 0.23 -0.0453 0.5596
C13 C 0.31951(16) 0.02634(17) 0.72883(11)
C14 C 0.21565(17) -0.11192(18) 0.76369(11)
H13 H 0.1279 -0.2144 0.7172
C15 C 0.26712(18) -0.06904(19) 0.88176(12)
H14 H 0.2202 -0.138 0.9277
C16 C 0.39952(18) 0.09346(19) 0.91674(11)
H15 H 0.4577 0.1544 0.9912
O1 O 0.30391(13) 0.50653(15) 0.12582(9)
H16 H 0.3004 0.481 0.0561
C17 C 0.1362(3) 0.4709(3) 0.1523(2)
H17 H 0.1422 0.5226 0.233
H18 H 0.0721 0.3473 0.1315
H19 H 0.0796 0.5184 0.1105
loop_
_geom_bond_atom_site_label_1
_geom_bond_atom_site_label_2
_geom_bond_site_symmetry_1
_geom_bond_site_symmetry_2
N1 C10 1_555 1_555
N2 C9 1_555 1_555
N3 H1 1_555 1_555
C1 C2 1_555 1_555
C2 H2 1_555 1_555
H3 C2 1_555 1_555
C3 C2 1_555 1_555
H4 C3 1_555 1_555
C4 C3 1_555 1_555
H5 C4 1_555 1_555
H6 C4 1_555 1_555
C5 C4 1_555 1_555
C6 C1 1_555 1_555
H7 C6 1_555 1_555
C7 C3 1_555 1_555
H8 C7 1_555 1_555
H9 C7 1_555 1_555
H10 C7 1_555 1_555
C8 C1 1_555 1_555
C9 C8 1_555 1_555
C10 C8 1_555 1_555
C11 C5 1_555 1_555
H11 C11 1_555 1_555
C12 C11 1_555 1_555
H12 C12 1_555 1_555
C13 N3 1_555 1_555
C14 C13 1_555 1_555
H13 C14 1_555 1_555
C15 C14 1_555 1_555
H14 C15 1_555 1_555
C16 N3 1_555 1_555
H15 C16 1_555 1_555
O1 H16 1_555 1_555
C17 O1 1_555 1_555
H17 C17 1_555 1_555
H18 C17 1_555 1_555
H19 C17 1_555 1_555
C5 C6 1_555 1_555
C12 C13 1_555 1_555
C15 C16 1_555 1_555

#END
