
#######################################################################
#
#                 Cambridge Crystallographic Data Centre
#                                CCDC 
#
#######################################################################
#
# If this CIF has been generated from an entry in the Cambridge 
# Structural Database, then it will include bibliographic, chemical, 
# crystal, experimental, refinement or atomic coordinate data resulting 
# from the CCDC's data processing and validation procedures.
#
#######################################################################

data_ATUTAK
_chemical_formula_moiety         'C11 H14 N3 O2 1+,I1 1-'
_chemical_name_systematic        
'1,2-Dimethyl-3-(2-nitrophenyl)-4,5-dihydroimidazolium iodide'
_symmetry_cell_setting           monoclinic
_symmetry_space_group_name_H-M   'P 21/c'
_symmetry_Int_Tables_number      14
_space_group_name_Hall           '-P 2ybc'
loop_
_symmetry_equiv_pos_site_id
_symmetry_equiv_pos_as_xyz
1 x,y,z
2 x,1/2-y,1/2+z
3 -x,-y,-z
4 -x,1/2+y,1/2-z
_cell_length_a                   9.597(2)
_cell_length_b                   10.090(2)
_cell_length_c                   13.577(3)
_cell_angle_alpha                90
_cell_angle_beta                 94.187(2)
_cell_angle_gamma                90
_cell_volume                     1311.2
_exptl_crystal_colour            yellow
_exptl_crystal_description       block
_chemical_melting_point          '517 K'
_cell_formula_units_Z            4
_exptl_crystal_recrystallization_method 'ethyl alcohol'
loop_
_atom_site_label
_atom_site_type_symbol
_atom_site_fract_x
_atom_site_fract_y
_atom_site_fract_z
I1 I 0.194882(19) 0.078500(16) 0.335354(12)
O1 O 0.3568(2) 0.32925(19) 0.52629(14)
O2 O 0.4367(2) 0.42986(18) 0.40114(15)
N1 N 0.3526(3) 0.41841(19) 0.46588(16)
N2 N 0.2325(2) 0.56138(19) 0.29049(15)
N3 N 0.3248(2) 0.57686(19) 0.14932(15)
C1 C 0.2450(2) 0.5208(2) 0.47116(17)
C2 C 0.1970(3) 0.5450(3) 0.56297(18)
H1 H 0.2293 0.4933 0.6185
C3 C 0.1010(3) 0.6459(3) 0.57273(19)
H2 H 0.0687 0.6648 0.6357
C4 C 0.0522(3) 0.7188(3) 0.4920(2)
H3 H -0.0131 0.7882 0.4994
C5 C 0.0982(3) 0.6913(3) 0.3994(2)
H4 H 0.0625 0.7407 0.3436
C6 C 0.1954(3) 0.5925(2) 0.38803(18)
C7 C 0.1728(3) 0.4450(2) 0.23538(19)
H5 H 0.0694 0.4458 0.2323
H6 H 0.2074 0.3608 0.2655
C8 C 0.2265(3) 0.4654(3) 0.1335(2)
H7 H 0.2746 0.3852 0.1114
H8 H 0.1493 0.4883 0.0841
C9 C 0.3208(2) 0.6270(2) 0.23788(17)
C10 C 0.4048(3) 0.7413(3) 0.27611(18)
H9 H 0.4842 0.7543 0.2356
H10 H 0.4394 0.7241 0.3446
H11 H 0.3466 0.8212 0.2734
C11 C 0.4027(3) 0.6290(3) 0.06906(19)
H12 H 0.4036 0.7260 0.0719
H13 H 0.3578 0.6002 0.0055
H14 H 0.4988 0.5956 0.0760
loop_
_geom_bond_atom_site_label_1
_geom_bond_atom_site_label_2
_geom_bond_site_symmetry_1
_geom_bond_site_symmetry_2
O1 N1 1_555 1_555
O2 N1 1_555 1_555
N1 C1 1_555 1_555
N2 C6 1_555 1_555
N3 C8 1_555 1_555
C1 C2 1_555 1_555
C2 H1 1_555 1_555
C3 C2 1_555 1_555
H2 C3 1_555 1_555
C4 C3 1_555 1_555
H3 C4 1_555 1_555
C5 C4 1_555 1_555
H4 C5 1_555 1_555
C6 C1 1_555 1_555
C7 N2 1_555 1_555
H5 C7 1_555 1_555
H6 C7 1_555 1_555
C8 C7 1_555 1_555
H7 C8 1_555 1_555
H8 C8 1_555 1_555
C9 N2 1_555 1_555
C10 C9 1_555 1_555
H9 C10 1_555 1_555
H10 C10 1_555 1_555
H11 C10 1_555 1_555
C11 N3 1_555 1_555
H12 C11 1_555 1_555
H13 C11 1_555 1_555
H14 C11 1_555 1_555
N3 C9 1_555 1_555
C5 C6 1_555 1_555

#END
