
#######################################################################
#
#                 Cambridge Crystallographic Data Centre
#                                CCDC 
#
#######################################################################
#
# If this CIF has been generated from an entry in the Cambridge 
# Structural Database, then it will include bibliographic, chemical, 
# crystal, experimental, refinement or atomic coordinate data resulting 
# from the CCDC's data processing and validation procedures.
#
#######################################################################

data_ATUWIW
_chemical_formula_moiety         'C17 H12 Cl2 N2 O1 S2'
_chemical_name_systematic        
4,5-bis(5-Chloro-2-methyl-3-thienyl)-2-(2-furyl)-1H-imidazole
_symmetry_cell_setting           orthorhombic
_symmetry_space_group_name_H-M   'P b c a'
_symmetry_Int_Tables_number      61
_space_group_name_Hall           '-P 2ac 2ab'
loop_
_symmetry_equiv_pos_site_id
_symmetry_equiv_pos_as_xyz
1 x,y,z
2 1/2-x,-y,1/2+z
3 -x,1/2+y,1/2-z
4 1/2+x,1/2-y,-z
5 -x,-y,-z
6 1/2+x,y,1/2-z
7 x,1/2-y,1/2+z
8 1/2-x,1/2+y,z
_cell_length_a                   23.002(7)
_cell_length_b                   9.485(3)
_cell_length_c                   32.142(10)
_cell_angle_alpha                90
_cell_angle_beta                 90
_cell_angle_gamma                90
_cell_volume                     7012.55
_exptl_crystal_colour            yellow
_exptl_crystal_description       piece
_chemical_melting_point          '266-267 deg.C'
_cell_formula_units_Z            16
_chemical_properties_physical    light-sensitive
_exptl_crystal_recrystallization_method dichloromethane/hexane
_exptl_crystal_preparation       photochromic
loop_
_atom_site_label
_atom_site_type_symbol
_atom_site_fract_x
_atom_site_fract_y
_atom_site_fract_z
C1 C 0.8005(2) 0.6017(5) 0.63626(15)
C2 C 0.8073(2) 0.7080(5) 0.66200(16)
H1 H 0.7815 0.7821 0.6660
C3 C 0.8608(3) 0.6889(8) 0.68227(19)
H2 H 0.8764 0.7462 0.7029
C4 C 0.8839(3) 0.5776(9) 0.6669(3)
H3 H 0.9201 0.5423 0.6745
C5 C 0.7532(2) 0.5681(4) 0.60907(13)
C6 C 0.69355(19) 0.4471(4) 0.56941(14)
C7 C 0.67320(19) 0.5819(4) 0.57455(14)
C8 C 0.6209(2) 0.6519(5) 0.55908(15)
C9 C 0.5904(2) 0.7490(5) 0.58421(16)
H4 H 0.6016 0.7729 0.6111
C10 C 0.5438(2) 0.8025(5) 0.56531(18)
C11 C 0.5964(2) 0.6369(5) 0.52086(16)
C12 C 0.6153(2) 0.5470(6) 0.48380(14)
H5 H 0.6565 0.5327 0.4848
H6 H 0.6052 0.5944 0.4584
H7 H 0.5959 0.4575 0.4849
C13 C 0.6712(2) 0.3215(4) 0.54794(14)
C14 C 0.7049(2) 0.2382(5) 0.52051(15)
H8 H 0.7436 0.2567 0.5139
C15 C 0.6746(2) 0.1293(5) 0.50516(15)
C16 C 0.6160(2) 0.2717(5) 0.55334(15)
C17 C 0.5666(2) 0.3291(5) 0.58024(16)
H9 H 0.5825 0.3768 0.6040
H10 H 0.5425 0.2524 0.5894
H11 H 0.5437 0.3940 0.5642
Cl1 Cl 0.49584(7) 0.92562(18) 0.58472(6)
Cl2 Cl 0.69897(8) 0.00477(16) 0.47039(5)
N1 N 0.74499(16) 0.4416(4) 0.59091(11)
H23 H 0.7679 0.3702 0.5925
N2 N 0.71098(16) 0.6571(4) 0.59992(11)
O1 O 0.84747(18) 0.5165(5) 0.63740(16)
S1 S 0.53510(6) 0.73995(16) 0.51606(5)
S2 S 0.60543(7) 0.12174(14) 0.52344(5)
C18 C 0.6116(4) 0.7119(11) 0.7123(3)
H12 H 0.5752 0.7471 0.7052
C19 C 0.6345(4) 0.5994(9) 0.6974(2)
H13 H 0.6176 0.5394 0.6780
C20 C 0.6893(2) 0.5830(5) 0.71554(17)
H14 H 0.7155 0.5103 0.7106
C21 C 0.6965(2) 0.6900(5) 0.74079(15)
C22 C 0.7450(2) 0.7216(4) 0.76691(13)
C23 C 0.8235(2) 0.7021(5) 0.80278(14)
C24 C 0.8051(2) 0.8392(4) 0.80687(14)
C25 C 0.8291(2) 0.9610(5) 0.82879(14)
C26 C 0.7951(2) 1.0519(5) 0.85424(15)
H15 H 0.7556 1.0392 0.8592
C27 C 0.8263(2) 1.1577(5) 0.87025(16)
C28 C 0.8858(2) 1.0019(5) 0.82673(17)
C29 C 0.9357(2) 0.9393(6) 0.80127(17)
H16 H 0.9538 0.8650 0.8168
H17 H 0.9637 1.0114 0.7954
H18 H 0.9207 0.9021 0.7756
C30 C 0.8733(2) 0.6299(5) 0.82120(15)
C31 C 0.9098(2) 0.5407(5) 0.79740(17)
H19 H 0.9047 0.5242 0.7691
C32 C 0.9525(2) 0.4829(5) 0.81997(19)
C33 C 0.8893(2) 0.6366(5) 0.86187(17)
C34 C 0.8609(2) 0.7105(6) 0.89803(15)
H20 H 0.8819 0.7954 0.9042
H21 H 0.8613 0.6497 0.9219
H22 H 0.8215 0.7335 0.8910
Cl3 Cl 0.80073(8) 1.28876(16) 0.90268(5)
Cl4 Cl 1.00393(7) 0.36538(19) 0.80329(7)
N3 N 0.78617(16) 0.6294(4) 0.77659(11)
N4 N 0.75497(17) 0.8482(4) 0.78466(11)
H24 H 0.7334 0.9218 0.7823
O2 O 0.6495(2) 0.7733(5) 0.74093(18)
S3 S 0.89721(7) 1.15247(15) 0.85591(5)
S4 S 0.95018(6) 0.53410(16) 0.87072(5)
loop_
_geom_bond_atom_site_label_1
_geom_bond_atom_site_label_2
_geom_bond_site_symmetry_1
_geom_bond_site_symmetry_2
C1 C2 1_555 1_555
C2 H1 1_555 1_555
C3 C2 1_555 1_555
H2 C3 1_555 1_555
C4 C3 1_555 1_555
H3 C4 1_555 1_555
C5 C1 1_555 1_555
C6 C7 1_555 1_555
C7 C8 1_555 1_555
C8 C9 1_555 1_555
C9 H4 1_555 1_555
C10 C9 1_555 1_555
C11 C8 1_555 1_555
C12 C11 1_555 1_555
H5 C12 1_555 1_555
H6 C12 1_555 1_555
H7 C12 1_555 1_555
C13 C6 1_555 1_555
C14 C13 1_555 1_555
H8 C14 1_555 1_555
C15 C14 1_555 1_555
C16 C13 1_555 1_555
C17 C16 1_555 1_555
H9 C17 1_555 1_555
H10 C17 1_555 1_555
H11 C17 1_555 1_555
C18 H12 1_555 1_555
C19 C18 1_555 1_555
H13 C19 1_555 1_555
C20 C19 1_555 1_555
H14 C20 1_555 1_555
C21 C20 1_555 1_555
C22 C21 1_555 1_555
C23 C24 1_555 1_555
C24 C25 1_555 1_555
C25 C26 1_555 1_555
C26 H15 1_555 1_555
C27 C26 1_555 1_555
C28 C25 1_555 1_555
C29 C28 1_555 1_555
H16 C29 1_555 1_555
H17 C29 1_555 1_555
H18 C29 1_555 1_555
C30 C23 1_555 1_555
C31 C30 1_555 1_555
H19 C31 1_555 1_555
C32 C31 1_555 1_555
C33 C30 1_555 1_555
C34 C33 1_555 1_555
H20 C34 1_555 1_555
H21 C34 1_555 1_555
H22 C34 1_555 1_555
Cl1 C10 1_555 1_555
Cl2 C15 1_555 1_555
Cl3 C27 1_555 1_555
Cl4 C32 1_555 1_555
N1 C5 1_555 1_555
H23 N1 1_555 1_555
N2 C5 1_555 1_555
N3 C22 1_555 1_555
N4 C22 1_555 1_555
H24 N4 1_555 1_555
O1 C1 1_555 1_555
O2 C18 1_555 1_555
S1 C10 1_555 1_555
S2 C15 1_555 1_555
S3 C27 1_555 1_555
S4 C32 1_555 1_555
C4 O1 1_555 1_555
C6 N1 1_555 1_555
C7 N2 1_555 1_555
C11 S1 1_555 1_555
C16 S2 1_555 1_555
C21 O2 1_555 1_555
C23 N3 1_555 1_555
C24 N4 1_555 1_555
C28 S3 1_555 1_555
C33 S4 1_555 1_555

#END
