
#######################################################################
#
#                 Cambridge Crystallographic Data Centre
#                                CCDC 
#
#######################################################################
#
# If this CIF has been generated from an entry in the Cambridge 
# Structural Database, then it will include bibliographic, chemical, 
# crystal, experimental, refinement or atomic coordinate data resulting 
# from the CCDC's data processing and validation procedures.
#
#######################################################################

data_AVAHAH
_chemical_formula_moiety         'C15 H15 N1 O2'
_chemical_name_systematic        
'(R)-t-Butyl 1-cyano-2-phenylcycloprop-2-ene-1-carboxylate'
_symmetry_cell_setting           orthorhombic
_symmetry_space_group_name_H-M   'P 21 21 21'
_symmetry_Int_Tables_number      19
_space_group_name_Hall           'P 2ac 2ab'
loop_
_symmetry_equiv_pos_site_id
_symmetry_equiv_pos_as_xyz
1 x,y,z
2 1/2-x,-y,1/2+z
3 1/2+x,1/2-y,-z
4 -x,1/2+y,1/2-z
_cell_length_a                   5.4994(1)
_cell_length_b                   11.1420(2)
_cell_length_c                   21.8188(4)
_cell_angle_alpha                90
_cell_angle_beta                 90
_cell_angle_gamma                90
_cell_volume                     1336.93
_exptl_crystal_colour            colorless
_exptl_crystal_description       plate
_cell_formula_units_Z            4
loop_
_atom_site_label
_atom_site_type_symbol
_atom_site_fract_x
_atom_site_fract_y
_atom_site_fract_z
C1 C -0.1233(3) 1.05731(14) 0.46533(7)
H1 H -0.1336 1.0485 0.4221
N1 N 0.4844(3) 1.03891(12) 0.33216(6)
O1 O -0.0197(2) 0.72322(10) 0.40284(5)
C2 C -0.2847(3) 1.13138(15) 0.49575(8)
H2 H -0.4059 1.1736 0.4734
O2 O 0.11582(19) 0.79285(9) 0.31142(4)
C3 C -0.2696(3) 1.14398(16) 0.55871(8)
H3 H -0.3813 1.1946 0.5796
C4 C -0.0923(4) 1.08306(16) 0.59157(7)
H4 H -0.0823 1.0926 0.6348
C5 C 0.0697(3) 1.00865(14) 0.56175(7)
H5 H 0.1904 0.9667 0.5843
C6 C 0.0554(3) 0.99531(13) 0.49826(6)
C7 C 0.2227(3) 0.91761(13) 0.46620(6)
C8 C 0.4021(3) 0.84546(14) 0.46018(6)
H6 H 0.534(4) 0.7984(18) 0.4715(9)
C9 C 0.2739(3) 0.87902(12) 0.40084(6)
C10 C 0.1048(3) 0.78879(13) 0.37200(6)
C11 C -0.0365(3) 0.71118(13) 0.27310(6)
C12 C -0.3020(3) 0.73700(15) 0.28490(7)
H7 H -0.3335 0.8227 0.2787
H8 H -0.3426 0.7150 0.3272
H9 H -0.4020 0.6900 0.2565
C13 C 0.0318(3) 0.58153(13) 0.28558(7)
H10 H -0.0087 0.5612 0.3281
H11 H 0.2067 0.5707 0.2790
H12 H -0.0586 0.5289 0.2577
C14 C 0.0341(3) 0.74542(13) 0.20828(7)
H13 H 0.2088 0.7324 0.2025
H14 H -0.0041 0.8302 0.2013
H15 H -0.0568 0.6958 0.1791
C15 C 0.3898(3) 0.96612(13) 0.36080(6)
loop_
_geom_bond_atom_site_label_1
_geom_bond_atom_site_label_2
_geom_bond_site_symmetry_1
_geom_bond_site_symmetry_2
C1 H1 1_555 1_555
N1 C15 1_555 1_555
O1 C10 1_555 1_555
C2 C1 1_555 1_555
H2 C2 1_555 1_555
O2 C10 1_555 1_555
C3 C2 1_555 1_555
H3 C3 1_555 1_555
C4 C3 1_555 1_555
H4 C4 1_555 1_555
C5 C4 1_555 1_555
H5 C5 1_555 1_555
C6 C1 1_555 1_555
C7 C6 1_555 1_555
C8 C7 1_555 1_555
H6 C8 1_555 1_555
C9 C7 1_555 1_555
C10 C9 1_555 1_555
C11 O2 1_555 1_555
C12 C11 1_555 1_555
H7 C12 1_555 1_555
H8 C12 1_555 1_555
H9 C12 1_555 1_555
C13 C11 1_555 1_555
H10 C13 1_555 1_555
H11 C13 1_555 1_555
H12 C13 1_555 1_555
C14 C11 1_555 1_555
H13 C14 1_555 1_555
H14 C14 1_555 1_555
H15 C14 1_555 1_555
C15 C9 1_555 1_555
C5 C6 1_555 1_555
C8 C9 1_555 1_555

#END
