
#######################################################################
#
#                 Cambridge Crystallographic Data Centre
#                                CCDC 
#
#######################################################################
#
# If this CIF has been generated from an entry in the Cambridge 
# Structural Database, then it will include bibliographic, chemical, 
# crystal, experimental, refinement or atomic coordinate data resulting 
# from the CCDC's data processing and validation procedures.
#
#######################################################################

data_AVAWOJ
_chemical_formula_moiety         'C26 H26 N6'
_chemical_name_systematic        
2,4,6,8-Tetramethyl-2,4,6,8-tetra-aza-1,5(2,6)-dipyridina-3,7(13)-dibenzenacyclo-octaphane
_symmetry_cell_setting           triclinic
_symmetry_space_group_name_H-M   'P -1'
_symmetry_Int_Tables_number      2
_space_group_name_Hall           '-P 1'
loop_
_symmetry_equiv_pos_site_id
_symmetry_equiv_pos_as_xyz
1 x,y,z
2 -x,-y,-z
_cell_length_a                   9.6577(10)
_cell_length_b                   9.9349(11)
_cell_length_c                   12.3553(7)
_cell_angle_alpha                90.132(5)
_cell_angle_beta                 104.705(4)
_cell_angle_gamma                109.768(3)
_cell_volume                     1074
_chemical_melting_point          245-246deg.C
_cell_formula_units_Z            2
_exptl_crystal_recrystallization_method 'hexane/ethyl acetate'
loop_
_atom_site_label
_atom_site_type_symbol
_atom_site_fract_x
_atom_site_fract_y
_atom_site_fract_z
N1 N 0.4076(2) 0.4092(2) 0.1827(2)
N2 N 0.9227(2) 0.3895(2) 0.2869(2)
N3 N 0.8581(2) 0.1528(2) 0.3259(2)
N4 N 0.7732(2) -0.0842(2) 0.3613(2)
N5 N 0.3324(2) -0.0577(2) 0.0695(2)
N6 N 0.3602(2) 0.1749(2) 0.1210(2)
C1 C 0.6660(3) 0.3987(2) 0.2369(2)
C2 C 0.5389(3) 0.4050(2) 0.2664(2)
C3 C 0.5397(3) 0.4105(3) 0.3783(2)
C4 C 0.6678(3) 0.4085(3) 0.4607(2)
C5 C 0.7933(3) 0.3996(3) 0.4310(2)
C6 C 0.7921(3) 0.3948(2) 0.3179(2)
C7 C 1.0109(3) 0.5117(3) 0.2400(2)
C8 C 0.9634(3) 0.2684(3) 0.3032(2)
C9 C 1.1048(3) 0.2679(3) 0.2935(2)
C10 C 1.1367(3) 0.1430(3) 0.3149(2)
C11 C 1.0313(3) 0.0236(3) 0.3413(2)
C12 C 0.8889(3) 0.0314(3) 0.3420(2)
C13 C 0.7985(3) -0.2179(3) 0.3877(2)
C14 C 0.5524(3) -0.0660(2) 0.2166(2)
C15 C 0.6178(3) -0.0886(2) 0.3264(2)
C16 C 0.5311(3) -0.1196(3) 0.4024(2)
C17 C 0.3785(3) -0.1288(3) 0.3688(2)
C18 C 0.3144(3) -0.1061(3) 0.2602(2)
C19 C 0.4018(3) -0.0744(2) 0.1844(2)
C20 C 0.2622(3) -0.1878(3) -0.0071(2)
C21 C 0.2873(3) 0.0593(3) 0.0456(2)
C22 C 0.1756(3) 0.0588(3) -0.0530(2)
C23 C 0.1498(3) 0.1845(3) -0.0738(2)
C24 C 0.2278(3) 0.3075(3) 0.0003(2)
C25 C 0.3310(3) 0.2956(3) 0.0985(2)
C26 C 0.4011(3) 0.5512(3) 0.1621(2)
H1 H 0.6661 0.3971 0.1617
H2 H 0.4550 0.4155 0.3986
H3 H 0.6687 0.4131 0.5360
H4 H 0.8780 0.3968 0.4860
H5 H 1.0946 0.4924 0.2233
H6 H 1.0499 0.5950 0.2934
H7 H 0.9469 0.5289 0.1722
H8 H 1.1741 0.3479 0.2736
H9 H 1.2306 0.1397 0.3113
H10 H 1.0537 -0.0592 0.3581
H11 H 0.9063 -0.2005 0.4095
H12 H 0.7502 -0.2866 0.3227
H13 H 0.7558 -0.2547 0.4483
H14 H 0.6104 -0.0453 0.1651
H15 H 0.5741 -0.1344 0.4756
H16 H 0.3198 -0.1504 0.4199
H17 H 0.2128 -0.1121 0.2381
H18 H 0.2195 -0.1652 -0.0807
H19 H 0.1826 -0.2553 0.0190
H20 H 0.3379 -0.2290 -0.0102
H21 H 0.1214 -0.0240 -0.1023
H22 H 0.0780 0.1876 -0.1392
H23 H 0.2121 0.3938 -0.0148
H24 H 0.3092 0.5422 0.1049
H25 H 0.4882 0.6068 0.1375
H26 H 0.4015 0.5983 0.2301
loop_
_geom_bond_atom_site_label_1
_geom_bond_atom_site_label_2
_geom_bond_site_symmetry_1
_geom_bond_site_symmetry_2
N1 C2 1_555 1_555
N2 C6 1_555 1_555
N3 C8 1_555 1_555
N4 C12 1_555 1_555
N5 C19 1_555 1_555
N6 C21 1_555 1_555
C1 C2 1_555 1_555
C2 C3 1_555 1_555
C3 C4 1_555 1_555
C4 C5 1_555 1_555
C5 C6 1_555 1_555
C6 C1 1_555 1_555
C7 N2 1_555 1_555
C8 N2 1_555 1_555
C9 C8 1_555 1_555
C10 C9 1_555 1_555
C11 C10 1_555 1_555
C12 N3 1_555 1_555
C13 N4 1_555 1_555
C14 C15 1_555 1_555
C15 N4 1_555 1_555
C16 C15 1_555 1_555
C17 C16 1_555 1_555
C18 C17 1_555 1_555
C19 C14 1_555 1_555
C20 N5 1_555 1_555
C21 N5 1_555 1_555
C22 C21 1_555 1_555
C23 C22 1_555 1_555
C24 C23 1_555 1_555
C25 N1 1_555 1_555
C26 N1 1_555 1_555
H1 C1 1_555 1_555
H2 C3 1_555 1_555
H3 C4 1_555 1_555
H4 C5 1_555 1_555
H5 C7 1_555 1_555
H6 C7 1_555 1_555
H7 C7 1_555 1_555
H8 C9 1_555 1_555
H9 C10 1_555 1_555
H10 C11 1_555 1_555
H11 C13 1_555 1_555
H12 C13 1_555 1_555
H13 C13 1_555 1_555
H14 C14 1_555 1_555
H15 C16 1_555 1_555
H16 C17 1_555 1_555
H17 C18 1_555 1_555
H18 C20 1_555 1_555
H19 C20 1_555 1_555
H20 C20 1_555 1_555
H21 C22 1_555 1_555
H22 C23 1_555 1_555
H23 C24 1_555 1_555
H24 C26 1_555 1_555
H25 C26 1_555 1_555
H26 C26 1_555 1_555
N6 C25 1_555 1_555
C11 C12 1_555 1_555
C18 C19 1_555 1_555
C24 C25 1_555 1_555

#END
