
#######################################################################
#
#                 Cambridge Crystallographic Data Centre
#                                CCDC 
#
#######################################################################
#
# If this CIF has been generated from an entry in the Cambridge 
# Structural Database, then it will include bibliographic, chemical, 
# crystal, experimental, refinement or atomic coordinate data resulting 
# from the CCDC's data processing and validation procedures.
#
#######################################################################

data_AVAXAW
_chemical_name_common            'Ludingnin F'
_chemical_formula_moiety         'C21 H30 O5'
_chemical_name_systematic        
(16R)-6\a-Methoxy-6,7-seco-6,19-epoxy-7,20-olide-ent-kaur-15-one
_chemical_properties_biological  'inactive against K562 human leukemia cells'
_symmetry_cell_setting           orthorhombic
_symmetry_space_group_name_H-M   'P 21 21 21'
_symmetry_Int_Tables_number      19
_space_group_name_Hall           'P 2ac 2ab'
loop_
_symmetry_equiv_pos_site_id
_symmetry_equiv_pos_as_xyz
1 x,y,z
2 1/2-x,-y,1/2+z
3 1/2+x,1/2-y,-z
4 -x,1/2+y,1/2-z
_cell_length_a                   10.077(4)
_cell_length_b                   11.598(3)
_cell_length_c                   16.125(6)
_cell_angle_alpha                90
_cell_angle_beta                 90
_cell_angle_gamma                90
_cell_volume                     1884.58
_exptl_crystal_colour            colorless
_exptl_crystal_description       cubes
_chemical_melting_point          214-215deg.C
_cell_formula_units_Z            4
_exptl_crystal_recrystallization_method methanol
loop_
_atom_site_label
_atom_site_type_symbol
_atom_site_fract_x
_atom_site_fract_y
_atom_site_fract_z
O1 O 0.1553(3) 0.2017(2) 0.5484(2)
O2 O -0.0356(3) 0.2895(2) 0.5329(2)
O3 O -0.2170(3) 0.1334(3) 0.6380(2)
O4 O 0.2000(4) 0.1907(3) 0.8167(2)
O5 O 0.3620(3) 0.1179(3) 0.7270(2)
C1 C 0.2487(4) -0.0898(4) 0.6373(3)
C2 C 0.2006(5) -0.1651(4) 0.7090(3)
C3 C 0.1958(5) -0.0951(4) 0.7894(3)
C4 C 0.0990(4) 0.0076(4) 0.7822(3)
C5 C 0.1273(4) 0.0822(3) 0.7028(2)
C6 C 0.2336(5) 0.1674(4) 0.7326(3)
C7 C 0.0224(4) 0.1995(4) 0.5405(3)
C8 C -0.0466(4) 0.0831(3) 0.5367(2)
C9 C 0.0209(4) -0.0228(3) 0.5821(2)
C10 C 0.1562(4) 0.0145(3) 0.6211(2)
C11 C 0.0263(5) -0.1272(3) 0.5234(3)
C12 C -0.1108(5) -0.1525(4) 0.4859(3)
C13 C -0.1821(5) -0.0419(4) 0.4555(3)
C14 C -0.0777(5) 0.0551(4) 0.4437(3)
C15 C -0.1872(4) 0.0871(3) 0.5741(3)
C16 C -0.2779(5) 0.0154(4) 0.5185(3)
C17 C -0.3742(5) -0.0617(5) 0.5682(4)
C18 C -0.0450(5) -0.0350(4) 0.7899(3)
C19 C 0.1242(6) 0.0976(4) 0.8508(3)
C20 C 0.2252(4) 0.0927(4) 0.5573(3)
C21 C 0.4673(6) 0.1974(6) 0.7458(4)
H1 H 0.348 -0.057 0.652
H2 H 0.257 -0.141 0.581
H3 H 0.264 -0.239 0.717
H4 H 0.100 -0.196 0.695
H5 H 0.164 -0.150 0.840
H6 H 0.294 -0.063 0.803
H7 H 0.037 0.132 0.692
H8 H 0.228 0.246 0.695
H9 H -0.044 -0.047 0.633
H10 H 0.097 -0.108 0.473
H11 H 0.064 -0.202 0.556
H12 H -0.173 -0.192 0.534
H13 H -0.101 -0.212 0.435
H14 H -0.234 -0.059 0.397
H15 H 0.009 0.025 0.410
H16 H -0.119 0.129 0.411
H17 H -0.338 0.076 0.483
H18 H -0.435 -0.112 0.524
H19 H -0.442 -0.008 0.604
H20 H -0.315 -0.115 0.606
H21 H -0.064 -0.059 0.853
H22 H -0.059 -0.109 0.750
H23 H -0.107 0.037 0.770
H24 H 0.175 0.057 0.902
H25 H 0.028 0.129 0.874
H26 H 0.229 0.049 0.498
H27 H 0.326 0.110 0.578
H28 H 0.464 0.267 0.700
H29 H 0.562 0.153 0.739
H30 H 0.451 0.228 0.807
loop_
_geom_bond_atom_site_label_1
_geom_bond_atom_site_label_2
_geom_bond_site_symmetry_1
_geom_bond_site_symmetry_2
O1 C7 1_555 1_555
O2 C7 1_555 1_555
O3 C15 1_555 1_555
O4 C6 1_555 1_555
O5 C6 1_555 1_555
C1 C2 1_555 1_555
C2 C3 1_555 1_555
C3 C4 1_555 1_555
C4 C5 1_555 1_555
C5 C6 1_555 1_555
C6 H8 1_555 1_555
C7 C8 1_555 1_555
C8 C9 1_555 1_555
C9 C10 1_555 1_555
C10 C1 1_555 1_555
C11 C9 1_555 1_555
C12 C11 1_555 1_555
C13 C12 1_555 1_555
C14 C8 1_555 1_555
C15 C8 1_555 1_555
C16 C13 1_555 1_555
C17 C16 1_555 1_555
C18 C4 1_555 1_555
C19 O4 1_555 1_555
C20 O1 1_555 1_555
C21 O5 1_555 1_555
H1 C1 1_555 1_555
H2 C1 1_555 1_555
H3 C2 1_555 1_555
H4 C2 1_555 1_555
H5 C3 1_555 1_555
H6 C3 1_555 1_555
H7 C5 1_555 1_555
H9 C9 1_555 1_555
H10 C11 1_555 1_555
H11 C11 1_555 1_555
H12 C12 1_555 1_555
H13 C12 1_555 1_555
H14 C13 1_555 1_555
H15 C14 1_555 1_555
H16 C14 1_555 1_555
H17 C16 1_555 1_555
H18 C17 1_555 1_555
H19 C17 1_555 1_555
H20 C17 1_555 1_555
H21 C18 1_555 1_555
H22 C18 1_555 1_555
H23 C18 1_555 1_555
H24 C19 1_555 1_555
H25 C19 1_555 1_555
H26 C20 1_555 1_555
H27 C20 1_555 1_555
H28 C21 1_555 1_555
H29 C21 1_555 1_555
H30 C21 1_555 1_555
C4 C19 1_555 1_555
C5 C10 1_555 1_555
C10 C20 1_555 1_555
C13 C14 1_555 1_555
C15 C16 1_555 1_555

#END
