
#######################################################################
#
#                 Cambridge Crystallographic Data Centre
#                                CCDC 
#
#######################################################################
#
# If this CIF has been generated from an entry in the Cambridge 
# Structural Database, then it will include bibliographic, chemical, 
# crystal, experimental, refinement or atomic coordinate data resulting 
# from the CCDC's data processing and validation procedures.
#
#######################################################################

data_AVEJAN
_chemical_formula_moiety         'C40 H52 Mg2 N4 O4,2(C4 H8 O1)'
_chemical_name_systematic        
'bis(\m~2~-\h^2^-Diphenyldiazene)-tetrakis(tetrahydrofuran)-di-magnesium tetrahydrofuran solvate'
_symmetry_cell_setting           triclinic
_symmetry_space_group_name_H-M   'P -1'
_symmetry_Int_Tables_number      2
_space_group_name_Hall           '-P 1'
loop_
_symmetry_equiv_pos_site_id
_symmetry_equiv_pos_as_xyz
1 x,y,z
2 -x,-y,-z
_cell_length_a                   9.7042(19)
_cell_length_b                   12.554(3)
_cell_length_c                   20.339(5)
_cell_angle_alpha                103.567(6)
_cell_angle_beta                 101.043(6)
_cell_angle_gamma                91.208(5)
_cell_volume                     2358.42
_exptl_crystal_colour            colorless
_exptl_crystal_description       block
_cell_formula_units_Z            2
loop_
_atom_site_label
_atom_site_type_symbol
_atom_site_fract_x
_atom_site_fract_y
_atom_site_fract_z
Mg1 Mg 0.61533(14) 0.92228(12) 0.50353(7)
O1 O 0.6591(3) 0.8824(3) 0.59569(16)
O2 O 0.7307(3) 0.8028(2) 0.46042(17)
N1 N 0.6831(4) 1.0699(3) 0.49958(18)
N2 N 0.5869(4) 1.1063(3) 0.54695(18)
C1 C 0.7293(4) 1.1483(3) 0.4713(2)
C2 C 0.7079(5) 1.2619(4) 0.4921(2)
H1 H 0.6604 1.2875 0.5290
C3 C 0.7556(6) 1.3353(4) 0.4591(3)
H2 H 0.7405 1.4109 0.4739
C4 C 0.8249(6) 1.3020(5) 0.4050(3)
H3 H 0.8568 1.3536 0.3828
C5 C 0.8467(5) 1.1917(4) 0.3841(3)
H4 H 0.8927 1.1672 0.3466
C6 C 0.8025(4) 1.1168(4) 0.4169(2)
H5 H 0.8219 1.0420 0.4025
C7 C 0.6536(5) 1.1550(3) 0.6145(2)
C8 C 0.5716(5) 1.1861(4) 0.6646(2)
H6 H 0.4721 1.1739 0.6516
C9 C 0.6328(6) 1.2340(4) 0.7326(3)
H7 H 0.5749 1.2551 0.7656
C10 C 0.7774(7) 1.2516(5) 0.7532(3)
H8 H 0.8193 1.2846 0.8000
C11 C 0.8601(6) 1.2204(4) 0.7044(3)
H9 H 0.9595 1.2319 0.7181
C12 C 0.8003(5) 1.1731(4) 0.6366(2)
H10 H 0.8592 1.1522 0.6040
C13 C 0.8025(5) 0.8720(5) 0.6293(3)
H11 H 0.8653 0.9336 0.6270
H12 H 0.8374 0.8022 0.6064
C14 C 0.7994(7) 0.8736(7) 0.7013(3)
H13 H 0.8007 0.7981 0.7083
H14 H 0.8820 0.9181 0.7328
C15 C 0.6698(7) 0.9220(7) 0.7149(3)
H15 H 0.6860 1.0025 0.7333
H16 H 0.6326 0.8902 0.7487
C16 C 0.5688(5) 0.8951(5) 0.6464(2)
H17 H 0.5108 0.8263 0.6403
H18 H 0.5058 0.9553 0.6425
C17 C 0.8644(5) 0.8107(4) 0.4403(3)
H19 H 0.9364 0.8515 0.4802
H20 H 0.8566 0.8499 0.4030
C18 C 0.9035(7) 0.6991(5) 0.4164(5)
H21 H 0.9174 0.6868 0.3683
H22 H 0.9927 0.6869 0.4458
C19 C 0.7929(9) 0.6250(6) 0.4199(6)
H23 H 0.8304 0.5763 0.4500
H24 H 0.7532 0.5786 0.3732
C20 C 0.6825(5) 0.6879(4) 0.4478(3)
H25 H 0.5918 0.6715 0.4142
H26 H 0.6699 0.6700 0.4912
Mg1A Mg 0.38467(14) 1.07772(12) 0.49647(7)
O1A O 0.3409(3) 1.1176(3) 0.40431(16)
O2A O 0.2693(3) 1.1972(2) 0.53958(17)
N1A N 0.3169(4) 0.9301(3) 0.50042(18)
N2A N 0.4131(4) 0.8937(3) 0.45305(18)
C1A C 0.2707(4) 0.8517(3) 0.5287(2)
C2A C 0.2921(5) 0.7381(4) 0.5079(2)
H1A H 0.3396 0.7125 0.4710
C3A C 0.2444(6) 0.6647(4) 0.5409(3)
H2A H 0.2595 0.5891 0.5261
C4A C 0.1751(6) 0.6980(5) 0.5950(3)
H3A H 0.1432 0.6464 0.6172
C5A C 0.1533(5) 0.8083(4) 0.6159(3)
H4A H 0.1073 0.8328 0.6534
C6A C 0.1975(4) 0.8832(4) 0.5831(2)
H5A H 0.1781 0.9580 0.5975
C7A C 0.3464(5) 0.8450(3) 0.3855(2)
C8A C 0.4284(5) 0.8139(4) 0.3354(2)
H6A H 0.5279 0.8261 0.3484
C9A C 0.3672(6) 0.7660(4) 0.2674(3)
H7A H 0.4251 0.7449 0.2344
C10A C 0.2226(7) 0.7484(5) 0.2468(3)
H8A H 0.1807 0.7154 0.2000
C11A C 0.1399(6) 0.7796(4) 0.2956(3)
H9A H 0.0405 0.7681 0.2819
C12A C 0.1997(5) 0.8269(4) 0.3634(2)
H10A H 0.1408 0.8478 0.3960
C13A C 0.1975(5) 1.1280(5) 0.3707(3)
H11A H 0.1347 1.0664 0.3730
H12A H 0.1626 1.1978 0.3936
C14A C 0.2006(7) 1.1264(7) 0.2987(3)
H13A H 0.1993 1.2019 0.2917
H14A H 0.1180 1.0819 0.2672
C15A C 0.3302(7) 1.0780(7) 0.2851(3)
H15A H 0.3140 0.9975 0.2667
H16A H 0.3674 1.1098 0.2513
C16A C 0.4312(5) 1.1049(5) 0.3536(2)
H17A H 0.4892 1.1737 0.3597
H18A H 0.4942 1.0447 0.3575
C17A C 0.1356(5) 1.1893(4) 0.5597(3)
H19A H 0.0636 1.1485 0.5198
H20A H 0.1434 1.1501 0.5970
C18A C 0.0965(7) 1.3009(5) 0.5836(5)
H21A H 0.0826 1.3132 0.6317
H22A H 0.0073 1.3131 0.5542
C19A C 0.2071(9) 1.3750(6) 0.5801(6)
H23A H 0.1696 1.4237 0.5500
H24A H 0.2468 1.4214 0.6268
C20A C 0.3175(5) 1.3121(4) 0.5522(3)
H25A H 0.4082 1.3285 0.5858
H26A H 0.3301 1.3300 0.5088
Mg2 Mg 0.38436(15) 0.91811(12) 0.99577(8)
O3 O 0.3274(3) 0.8131(3) 0.90133(17)
O4 O 0.2712(3) 0.8256(3) 1.03854(19)
N3 N 0.3197(4) 1.0691(3) 1.00950(18)
N4 N 0.4100(4) 1.0734(3) 0.95934(18)
C21 C 0.2838(4) 1.1685(4) 1.0430(2)
C22 C 0.2156(5) 1.1739(4) 1.0990(2)
H27 H 0.1919 1.1080 1.1110
C23 C 0.1826(5) 1.2737(5) 1.1370(3)
H28 H 0.1374 1.2749 1.1746
C24 C 0.2141(6) 1.3717(5) 1.1209(3)
H29 H 0.1918 1.4399 1.1471
C25 C 0.2790(6) 1.3668(5) 1.0656(3)
H30 H 0.3009 1.4332 1.0538
C26 C 0.3131(5) 1.2687(4) 1.0268(3)
H31 H 0.3567 1.2688 0.9888
C27 C 0.3371(4) 1.0763(3) 0.8942(2)
C28 C 0.1895(5) 1.0839(4) 0.8776(2)
H32 H 0.1358 1.0879 0.9125
C29 C 0.1224(5) 1.0855(4) 0.8114(2)
H33 H 0.0235 1.0913 0.8017
C30 C 0.1965(6) 1.0789(4) 0.7592(3)
H34 H 0.1494 1.0789 0.7138
C31 C 0.3414(6) 1.0723(4) 0.7745(3)
H35 H 0.3939 1.0681 0.7392
C32 C 0.4105(5) 1.0718(4) 0.8410(2)
H36 H 0.5098 1.0684 0.8504
C33 C 0.1799(5) 0.7849(5) 0.8695(3)
H37 H 0.1213 0.8444 0.8871
H38 H 0.1469 0.7162 0.8793
C34 C 0.1721(6) 0.7705(8) 0.7949(3)
H39 H 0.1052 0.7075 0.7686
H40 H 0.1390 0.8373 0.7807
C35 C 0.3116(6) 0.7507(8) 0.7815(3)
H41 H 0.3318 0.7908 0.7475
H42 H 0.3191 0.6713 0.7626
C36 C 0.4124(5) 0.7901(5) 0.8481(3)
H43 H 0.4783 0.7332 0.8562
H44 H 0.4676 0.8574 0.8483
C37 C 0.3040(6) 0.7164(5) 1.0441(4)
H45 H 0.3684 0.7190 1.0886
H46 H 0.3497 0.6800 1.0061
C38 C 0.1691(7) 0.6562(5) 1.0400(4)
H47 H 0.1776 0.6161 1.0770
H48 H 0.1409 0.6025 0.9948
C39 C 0.0625(6) 0.7407(5) 1.0487(3)
H49 H -0.0120 0.7287 1.0065
H50 H 0.0182 0.7371 1.0882
C40 C 0.1405(6) 0.8475(5) 1.0615(4)
H51 H 0.0857 0.8954 1.0354
H52 H 0.1589 0.8845 1.1113
Mg2A Mg 0.61564(15) 1.08189(12) 1.00423(8)
O3A O 0.6726(3) 1.1869(3) 1.09867(17)
O4A O 0.7288(3) 1.1744(3) 0.96146(19)
N3A N 0.6803(4) 0.9309(3) 0.99050(18)
N4A N 0.5900(4) 0.9266(3) 1.04066(18)
C21A C 0.7162(4) 0.8315(4) 0.9570(2)
C22A C 0.7844(5) 0.8261(4) 0.9010(2)
H27A H 0.8081 0.8920 0.8890
C23A C 0.8174(5) 0.7263(5) 0.8630(3)
H28A H 0.8626 0.7251 0.8254
C24A C 0.7859(6) 0.6283(5) 0.8791(3)
H29A H 0.8082 0.5601 0.8529
C25A C 0.7210(6) 0.6332(5) 0.9344(3)
H30A H 0.6991 0.5668 0.9462
C26A C 0.6869(5) 0.7313(4) 0.9732(3)
H31A H 0.6433 0.7312 1.0112
C27A C 0.6629(4) 0.9237(3) 1.1058(2)
C28A C 0.8105(5) 0.9161(4) 1.1224(2)
H32A H 0.8642 0.9121 1.0875
C29A C 0.8776(5) 0.9145(4) 1.1886(2)
H33A H 0.9765 0.9087 1.1983
C30A C 0.8035(6) 0.9211(4) 1.2408(3)
H34A H 0.8506 0.9211 1.2862
C31A C 0.6586(6) 0.9277(4) 1.2255(3)
H35A H 0.6061 0.9319 1.2608
C32A C 0.5895(5) 0.9282(4) 1.1590(2)
H36A H 0.4902 0.9316 1.1496
C33A C 0.8201(5) 1.2151(5) 1.1305(3)
H37A H 0.8787 1.1556 1.1129
H38A H 0.8531 1.2838 1.1207
C34A C 0.8279(6) 1.2295(8) 1.2051(3)
H39A H 0.8948 1.2925 1.2314
H40A H 0.8610 1.1627 1.2193
C35A C 0.6884(6) 1.2493(8) 1.2185(3)
H41A H 0.6682 1.2092 1.2525
H42A H 0.6809 1.3287 1.2374
C36A C 0.5876(5) 1.2099(5) 1.1519(3)
H43A H 0.5217 1.2668 1.1438
H44A H 0.5324 1.1426 1.1517
C37A C 0.6960(6) 1.2836(5) 0.9559(4)
H45A H 0.6316 1.2810 0.9114
H46A H 0.6503 1.3200 0.9939
C38A C 0.8309(7) 1.3438(5) 0.9600(4)
H47A H 0.8224 1.3839 0.9230
H48A H 0.8591 1.3975 1.0052
C39A C 0.9375(6) 1.2593(5) 0.9513(3)
H49A H 1.0120 1.2713 0.9935
H50A H 0.9818 1.2629 0.9118
C40A C 0.8595(6) 1.1525(5) 0.9385(4)
H51A H 0.9143 1.1046 0.9646
H52A H 0.8411 1.1155 0.8887
O5 O 0.7239(6) 0.5899(4) 0.5951(3)
C41 C 0.8334(9) 0.5490(7) 0.6333(5)
H53 H 0.9051 0.6090 0.6593
H54 H 0.8786 0.4937 0.6025
C42 C 0.7769(15) 0.4994(8) 0.6803(5)
H55 H 0.8326 0.5262 0.7278
H56 H 0.7786 0.4185 0.6665
C43 C 0.6305(13) 0.5317(10) 0.6767(5)
H57 H 0.6243 0.5966 0.7143
H58 H 0.5668 0.4706 0.6790
C44 C 0.5967(8) 0.5580(7) 0.6079(4)
H59 H 0.5516 0.4928 0.5719
H60 H 0.5322 0.6182 0.6088
O6 O 0.1525(17) 0.4241(13) 0.8440(9)
C45 C 0.1930(17) 0.4372(14) 0.7814(9)
H61 H 0.1783 0.5121 0.7750
H62 H 0.1398 0.3829 0.7404
C46 C 0.3424(19) 0.4173(15) 0.7941(9)
H63 H 0.3580 0.3428 0.7682
H64 H 0.3978 0.4719 0.7800
C47 C 0.3830(17) 0.4277(14) 0.8685(8)
H65 H 0.4729 0.4729 0.8879
H66 H 0.3940 0.3546 0.8786
C48 C 0.265(2) 0.4825(16) 0.8981(10)
H67 H 0.2607 0.4683 0.9435
H68 H 0.2699 0.5626 0.9016
loop_
_geom_bond_atom_site_label_1
_geom_bond_atom_site_label_2
_geom_bond_site_symmetry_1
_geom_bond_site_symmetry_2
Mg1 O1 1_555 1_555
Mg2 O3 1_555 1_555
O1 C13 1_555 1_555
O2 Mg1 1_555 1_555
O3 C33 1_555 1_555
O4 Mg2 1_555 1_555
O5 C41 1_555 1_555
N1 Mg1 1_555 1_555
N2 Mg1 1_555 1_555
N3 Mg2 1_555 1_555
N4 Mg2 1_555 1_555
C1 N1 1_555 1_555
C2 C1 1_555 1_555
H1 C2 1_555 1_555
C3 C2 1_555 1_555
H2 C3 1_555 1_555
C4 C3 1_555 1_555
H3 C4 1_555 1_555
C5 C4 1_555 1_555
H4 C5 1_555 1_555
C6 C1 1_555 1_555
H5 C6 1_555 1_555
C7 N2 1_555 1_555
C8 C7 1_555 1_555
H6 C8 1_555 1_555
C9 C8 1_555 1_555
H7 C9 1_555 1_555
C10 C9 1_555 1_555
H8 C10 1_555 1_555
C11 C10 1_555 1_555
H9 C11 1_555 1_555
C12 C7 1_555 1_555
H10 C12 1_555 1_555
C13 H11 1_555 1_555
H12 C13 1_555 1_555
C14 C13 1_555 1_555
H13 C14 1_555 1_555
H14 C14 1_555 1_555
C15 C14 1_555 1_555
H15 C15 1_555 1_555
H16 C15 1_555 1_555
C16 O1 1_555 1_555
H17 C16 1_555 1_555
H18 C16 1_555 1_555
C17 O2 1_555 1_555
H19 C17 1_555 1_555
H20 C17 1_555 1_555
C18 C17 1_555 1_555
H21 C18 1_555 1_555
H22 C18 1_555 1_555
C19 C18 1_555 1_555
H23 C19 1_555 1_555
H24 C19 1_555 1_555
C20 O2 1_555 1_555
H25 C20 1_555 1_555
H26 C20 1_555 1_555
C21 N3 1_555 1_555
C22 C21 1_555 1_555
H27 C22 1_555 1_555
C23 C22 1_555 1_555
H28 C23 1_555 1_555
C24 C23 1_555 1_555
H29 C24 1_555 1_555
C25 C24 1_555 1_555
H30 C25 1_555 1_555
C26 C21 1_555 1_555
H31 C26 1_555 1_555
C27 N4 1_555 1_555
C28 C27 1_555 1_555
H32 C28 1_555 1_555
C29 C28 1_555 1_555
H33 C29 1_555 1_555
C30 C29 1_555 1_555
H34 C30 1_555 1_555
C31 C30 1_555 1_555
H35 C31 1_555 1_555
C32 C27 1_555 1_555
H36 C32 1_555 1_555
C33 H37 1_555 1_555
H38 C33 1_555 1_555
C34 C33 1_555 1_555
H39 C34 1_555 1_555
H40 C34 1_555 1_555
C35 C34 1_555 1_555
H41 C35 1_555 1_555
H42 C35 1_555 1_555
C36 O3 1_555 1_555
H43 C36 1_555 1_555
H44 C36 1_555 1_555
C37 O4 1_555 1_555
H45 C37 1_555 1_555
H46 C37 1_555 1_555
C38 C37 1_555 1_555
H47 C38 1_555 1_555
H48 C38 1_555 1_555
C39 C38 1_555 1_555
H49 C39 1_555 1_555
H50 C39 1_555 1_555
C40 O4 1_555 1_555
H51 C40 1_555 1_555
H52 C40 1_555 1_555
C41 H53 1_555 1_555
H54 C41 1_555 1_555
C42 C41 1_555 1_555
H55 C42 1_555 1_555
H56 C42 1_555 1_555
C43 C42 1_555 1_555
H57 C43 1_555 1_555
H58 C43 1_555 1_555
C44 O5 1_555 1_555
H59 C44 1_555 1_555
H60 C44 1_555 1_555
O6 C45 1_555 1_555
C45 H61 1_555 1_555
H62 C45 1_555 1_555
C46 C45 1_555 1_555
H63 C46 1_555 1_555
H64 C46 1_555 1_555
C47 C46 1_555 1_555
H65 C47 1_555 1_555
H66 C47 1_555 1_555
C48 O6 1_555 1_555
H67 C48 1_555 1_555
H68 C48 1_555 1_555
Mg1A N2 1_555 1_555
Mg2A N4 1_555 1_555
O1A Mg1A 1_555 1_555
O2A Mg1A 1_555 1_555
O3A Mg2A 1_555 1_555
O4A Mg2A 1_555 1_555
N1A Mg1A 1_555 1_555
N2A Mg1 1_555 1_555
N3A Mg2A 1_555 1_555
N4A Mg2 1_555 1_555
C1A N1A 1_555 1_555
C2A C1A 1_555 1_555
H1A C2A 1_555 1_555
C3A C2A 1_555 1_555
H2A C3A 1_555 1_555
C4A C3A 1_555 1_555
H3A C4A 1_555 1_555
C5A C4A 1_555 1_555
H4A C5A 1_555 1_555
C6A C1A 1_555 1_555
H5A C6A 1_555 1_555
C7A N2A 1_555 1_555
C8A C7A 1_555 1_555
H6A C8A 1_555 1_555
C9A C8A 1_555 1_555
H7A C9A 1_555 1_555
C10A C9A 1_555 1_555
H8A C10A 1_555 1_555
C11A C10A 1_555 1_555
H9A C11A 1_555 1_555
C12A C7A 1_555 1_555
H10A C12A 1_555 1_555
C13A O1A 1_555 1_555
H11A C13A 1_555 1_555
H12A C13A 1_555 1_555
C14A C13A 1_555 1_555
H13A C14A 1_555 1_555
H14A C14A 1_555 1_555
C15A C14A 1_555 1_555
H15A C15A 1_555 1_555
H16A C15A 1_555 1_555
C16A O1A 1_555 1_555
H17A C16A 1_555 1_555
H18A C16A 1_555 1_555
C17A O2A 1_555 1_555
H19A C17A 1_555 1_555
H20A C17A 1_555 1_555
C18A C17A 1_555 1_555
H21A C18A 1_555 1_555
H22A C18A 1_555 1_555
C19A C18A 1_555 1_555
H23A C19A 1_555 1_555
H24A C19A 1_555 1_555
C20A O2A 1_555 1_555
H25A C20A 1_555 1_555
H26A C20A 1_555 1_555
C21A N3A 1_555 1_555
C22A C21A 1_555 1_555
H27A C22A 1_555 1_555
C23A C22A 1_555 1_555
H28A C23A 1_555 1_555
C24A C23A 1_555 1_555
H29A C24A 1_555 1_555
C25A C24A 1_555 1_555
H30A C25A 1_555 1_555
C26A C21A 1_555 1_555
H31A C26A 1_555 1_555
C27A N4A 1_555 1_555
C28A C27A 1_555 1_555
H32A C28A 1_555 1_555
C29A C28A 1_555 1_555
H33A C29A 1_555 1_555
C30A C29A 1_555 1_555
H34A C30A 1_555 1_555
C31A C30A 1_555 1_555
H35A C31A 1_555 1_555
C32A C27A 1_555 1_555
H36A C32A 1_555 1_555
C33A O3A 1_555 1_555
H37A C33A 1_555 1_555
H38A C33A 1_555 1_555
C34A C33A 1_555 1_555
H39A C34A 1_555 1_555
H40A C34A 1_555 1_555
C35A C34A 1_555 1_555
H41A C35A 1_555 1_555
H42A C35A 1_555 1_555
C36A O3A 1_555 1_555
H43A C36A 1_555 1_555
H44A C36A 1_555 1_555
C37A O4A 1_555 1_555
H45A C37A 1_555 1_555
H46A C37A 1_555 1_555
C38A C37A 1_555 1_555
H47A C38A 1_555 1_555
H48A C38A 1_555 1_555
C39A C38A 1_555 1_555
H49A C39A 1_555 1_555
H50A C39A 1_555 1_555
C40A O4A 1_555 1_555
H51A C40A 1_555 1_555
H52A C40A 1_555 1_555
N1 N2 1_555 1_555
N3 N4 1_555 1_555
C5 C6 1_555 1_555
C11 C12 1_555 1_555
C15 C16 1_555 1_555
C19 C20 1_555 1_555
C25 C26 1_555 1_555
C31 C32 1_555 1_555
C35 C36 1_555 1_555
C39 C40 1_555 1_555
C43 C44 1_555 1_555
C47 C48 1_555 1_555
Mg1A N2A 1_555 1_555
Mg2A N4A 1_555 1_555
N1A N2A 1_555 1_555
N3A N4A 1_555 1_555
C5A C6A 1_555 1_555
C11A C12A 1_555 1_555
C15A C16A 1_555 1_555
C19A C20A 1_555 1_555
C25A C26A 1_555 1_555
C31A C32A 1_555 1_555
C35A C36A 1_555 1_555
C39A C40A 1_555 1_555

#END
