
#######################################################################
#
#                 Cambridge Crystallographic Data Centre
#                                CCDC 
#
#######################################################################
#
# If this CIF has been generated from an entry in the Cambridge 
# Structural Database, then it will include bibliographic, chemical, 
# crystal, experimental, refinement or atomic coordinate data resulting 
# from the CCDC's data processing and validation procedures.
#
#######################################################################

data_AVEWED
_chemical_formula_moiety         'C20 H20 Cl1 N3 O1,C1 H2 Cl2,C6 H14'
_chemical_name_systematic        
'(2-Benzoyl-3-(t-butylamino)-3-((4-chlorophenyl)amino)acrylonitrile) dichloromethane hexane solvate'
_symmetry_cell_setting           monoclinic
_symmetry_space_group_name_H-M   'C 2/c'
_symmetry_Int_Tables_number      15
_space_group_name_Hall           '-C 2yn'
loop_
_symmetry_equiv_pos_site_id
_symmetry_equiv_pos_as_xyz
1 x,y,z
2 -x,y,1/2-z
3 1/2+x,1/2+y,z
4 1/2-x,1/2+y,1/2-z
5 -x,-y,-z
6 x,-y,1/2+z
7 1/2-x,1/2-y,-z
8 1/2+x,1/2-y,1/2+z
_cell_length_a                   23.1020(6)
_cell_length_b                   11.9057(3)
_cell_length_c                   19.4958(5)
_cell_angle_alpha                90.00
_cell_angle_beta                 105.653(1)
_cell_angle_gamma                90.00
_cell_volume                     5163.36
_exptl_crystal_colour            colorless
_exptl_crystal_description       rods
_cell_formula_units_Z            8
loop_
_atom_site_label
_atom_site_type_symbol
_atom_site_fract_x
_atom_site_fract_y
_atom_site_fract_z
C21 C 0.414(2) 0.419(3) 0.455(2)
C22 C 0.461(3) 0.383(4) 0.482(3)
C23 C 0.495(2) 0.292(5) 0.527(3)
C24 C 0.567(2) 0.276(3) 0.587(2)
C25 C 0.630(3) 0.277(4) 0.582(3)
C26 C 0.668(2) 0.311(3) 0.630(2)
Cl2 Cl 0.525(1) 0.245(2) 0.722(1)
Cl2A Cl 0.475(1) 0.245(2) 0.778(1)
Cl1 Cl 0.4929(8) 0.0884(2) 0.3516(1)
O1 O 0.1254(2) 0.1909(4) 0.4082(2)
N1 N 0.2297(2) 0.0210(4) 0.2915(3)
N2 N 0.1452(2) 0.0193(4) 0.3346(3)
N3 N 0.2671(3) 0.3172(5) 0.2931(3)
C1 C 0.4151(3) 0.0700(6) 0.3323(4)
C2 C 0.3823(3) 0.0488(6) 0.2650(4)
C3 C 0.3196(3) 0.0356(5) 0.2514(3)
C4 C 0.2932(3) 0.0415(5) 0.3062(4)
C5 C 0.3267(3) 0.0627(6) 0.3750(3)
C6 C 0.3882(3) 0.0795(7) 0.3895(4)
C7 C 0.1923(3) 0.0718(5) 0.3244(3)
C8 C 0.1241(3) -0.0988(5) 0.3196(4)
C9 C 0.1730(3) -0.1831(6) 0.3517(4)
C10 C 0.0996(3) -0.1168(7) 0.2383(5)
C11 C 0.0726(4) -0.1096(7) 0.3551(5)
C12 C 0.2021(2) 0.1857(5) 0.3495(3)
C13 C 0.2390(3) 0.2567(6) 0.3193(3)
C14 C 0.1686(3) 0.2368(5) 0.3931(3)
C15 C 0.1848(3) 0.3540(5) 0.4202(3)
C16 C 0.1384(3) 0.4295(6) 0.4204(3)
C17 C 0.1524(3) 0.5384(6) 0.4448(3)
C18 C 0.2111(4) 0.5719(6) 0.4727(4)
C19 C 0.2565(3) 0.4965(7) 0.4747(4)
C20 C 0.2445(3) 0.3862(5) 0.4486(3)
H1 H 0.2807 0.3258 0.4504
H2 H 0.3052 0.5173 0.4976
H3 H 0.2214 0.6561 0.4925
H4 H 0.1166 0.5962 0.4393
H5 H 0.0933 0.4006 0.4025
H6 H 0.2094 -0.0345 0.2489
H7 H 0.3055 0.0699 0.4195
H8 H 0.2946 0.0141 0.1972
H9 H 0.4026 0.0411 0.2224
H10 H 0.4160 0.0987 0.4425
H11 H 0.1278 0.0760 0.3637
H12 H 0.0843 -0.2013 0.2266
H13 H 0.0614 -0.0595 0.2177
H14 H 0.1337 -0.0970 0.2117
H15 H 0.0540 -0.1932 0.3491
H16 H 0.0903 -0.0933 0.4131
H17 H 0.0378 -0.0491 0.3341
H18 H 0.1571 -0.2674 0.3392
H19 H 0.2117 -0.1689 0.3302
H20 H 0.1878 -0.1722 0.4089
loop_
_geom_bond_atom_site_label_1
_geom_bond_atom_site_label_2
_geom_bond_site_symmetry_1
_geom_bond_site_symmetry_2
Cl1 C1 1_555 1_555
O1 C14 1_555 1_555
N1 C4 1_555 1_555
N2 C7 1_555 1_555
N3 C13 1_555 1_555
C1 C2 1_555 1_555
C2 C3 1_555 1_555
C3 C4 1_555 1_555
C4 C5 1_555 1_555
C5 C6 1_555 1_555
C6 C1 1_555 1_555
C7 N1 1_555 1_555
C8 N2 1_555 1_555
C9 C8 1_555 1_555
C10 C8 1_555 1_555
C11 C8 1_555 1_555
C12 C7 1_555 1_555
C13 C12 1_555 1_555
C14 C12 1_555 1_555
C15 C14 1_555 1_555
C16 C15 1_555 1_555
C17 C16 1_555 1_555
C18 C17 1_555 1_555
C19 C18 1_555 1_555
C20 C15 1_555 1_555
C21 C22 1_555 1_555
C22 C23 1_555 1_555
C23 C24 1_555 1_555
C24 C25 1_555 1_555
C25 C26 1_555 1_555
Cl2 Cl2A 1_555 1_555
H1 C20 1_555 1_555
H2 C19 1_555 1_555
H3 C18 1_555 1_555
H4 C17 1_555 1_555
H5 C16 1_555 1_555
H6 N1 1_555 1_555
H7 C5 1_555 1_555
H8 C3 1_555 1_555
H9 C2 1_555 1_555
H10 C6 1_555 1_555
H11 N2 1_555 1_555
H12 C10 1_555 1_555
H13 C10 1_555 1_555
H14 C10 1_555 1_555
H15 C11 1_555 1_555
H16 C11 1_555 1_555
H17 C11 1_555 1_555
H18 C9 1_555 1_555
H19 C9 1_555 1_555
H20 C9 1_555 1_555
C19 C20 1_555 1_555

#END
