
#######################################################################
#
#                 Cambridge Crystallographic Data Centre
#                                CCDC 
#
#######################################################################
#
# If this CIF has been generated from an entry in the Cambridge 
# Structural Database, then it will include bibliographic, chemical, 
# crystal, experimental, refinement or atomic coordinate data resulting 
# from the CCDC's data processing and validation procedures.
#
#######################################################################

data_AVIBAK
_chemical_formula_moiety         'C54 H30 S9,0.25(C1 H1 Cl3)'
_chemical_name_systematic        
"2,3,5,6,8,9-hexakis(phenylsulfanyl)bisthieno[2',3',4',5':4,5;2'',3'',4'',5'':8,9]triphenyleno[1,12-bcd]thiophene chloroform solvate"
_symmetry_cell_setting           triclinic
_symmetry_space_group_name_H-M   'P -1'
_symmetry_Int_Tables_number      2
_space_group_name_Hall           '-P 1'
loop_
_symmetry_equiv_pos_site_id
_symmetry_equiv_pos_as_xyz
1 x,y,z
2 -x,-y,-z
_cell_length_a                   16.1724(10)
_cell_length_b                   16.1793(8)
_cell_length_c                   20.0723(8)
_cell_angle_alpha                86.110(4)
_cell_angle_beta                 74.956(4)
_cell_angle_gamma                61.263(6)
_cell_volume                     4437.31
_cell_formula_units_Z            4
loop_
_atom_site_label
_atom_site_type_symbol
_atom_site_fract_x
_atom_site_fract_y
_atom_site_fract_z
S10 S -0.08958(7) 0.92711(6) 0.67682(4)
S11 S 0.34278(7) 0.65519(7) 0.67666(4)
S12 S 0.04173(8) 1.03540(6) 0.70397(4)
S13 S 0.05815(8) 0.49563(7) 0.68752(5)
S14 S 0.26261(8) 0.90126(7) 0.69986(5)
S15 S 0.43085(8) 0.41739(7) 0.71395(5)
S16 S -0.19440(8) 0.63504(8) 0.71129(5)
S17 S -0.27321(7) 0.85278(7) 0.70313(5)
S18 S 0.29235(9) 0.33165(7) 0.71587(5)
C55 C -0.0202(3) 1.0927(3) 0.63938(18)
C56 C 0.2377(3) 0.7545(3) 0.66021(17)
C57 C 0.2147(3) 0.6256(3) 0.64320(17)
C58 C 0.0390(3) 0.8791(3) 0.66103(17)
C59 C 0.1810(3) 0.7242(3) 0.64017(17)
C60 C -0.0783(3) 0.8137(3) 0.66344(17)
C61 C 0.1975(3) 0.8537(3) 0.67358(17)
C62 C -0.1463(3) 0.7786(3) 0.67947(18)
C63 C -0.0101(3) 0.6155(3) 0.66902(18)
C64 C 0.1513(3) 0.5901(3) 0.64593(17)
C65 C 0.0842(3) 0.7853(3) 0.64024(17)
C66 C 0.2989(3) 0.5767(3) 0.66562(18)
C67 C 0.0537(3) 0.6513(3) 0.64465(17)
C68 C 0.3832(3) 0.8313(3) 0.6497(2)
C69 C 0.1684(3) 0.5028(3) 0.67078(17)
C70 C 0.0970(3) 0.9157(3) 0.67487(17)
C71 C 0.0196(3) 0.7485(3) 0.64239(17)
C72 C 0.2598(3) 0.4454(3) 0.68613(18)
C73 C 0.0233(3) 1.0710(3) 0.57003(19)
H31 H 0.0892 1.0225 0.5551
C74 C 0.3248(3) 0.4830(3) 0.68402(18)
C75 C -0.1102(3) 0.6786(3) 0.68242(18)
C76 C 0.4064(3) 0.8098(4) 0.5791(2)
H32 H 0.3557 0.8310 0.5564
C77 C 0.2391(3) 0.2880(3) 0.6709(2)
C78 C 0.4589(3) 0.8016(3) 0.6817(2)
H33 H 0.4445 0.8142 0.7301
C79 C -0.1515(3) 0.5482(3) 0.64241(19)
C80 C 0.5211(3) 0.4240(3) 0.6436(2)
C81 C 0.2528(5) 0.2905(4) 0.6001(2)
H34 H 0.2875 0.3208 0.5743
C82 C -0.2912(3) 0.9565(3) 0.6596(2)
C83 C -0.0266(4) 1.1181(3) 0.5217(2)
H35 H 0.0046 1.1022 0.4737
C84 C 0.5014(4) 0.7586(5) 0.5422(3)
H36 H 0.5161 0.7420 0.4945
C85 C -0.1194(4) 0.4551(3) 0.6567(2)
H37 H -0.1199 0.4373 0.7028
C86 C 0.5543(3) 0.7540(3) 0.6433(2)
H38 H 0.6054 0.7371 0.6651
C87 C -0.3558(3) 1.0421(3) 0.6971(2)
H39 H -0.3828 1.0433 0.7452
C88 C 0.6648(4) 0.4337(3) 0.5363(2)
H40 H 0.7138 0.4367 0.4997
C89 C -0.0863(4) 0.3869(4) 0.6036(2)
H41 H -0.0650 0.3227 0.6138
C90 C -0.1501(3) 0.5735(3) 0.5751(2)
H42 H -0.1719 0.6378 0.5652
C91 C 0.5287(4) 0.4039(3) 0.5754(2)
H43 H 0.4846 0.3868 0.5652
C92 C -0.1175(3) 1.1631(3) 0.66119(19)
H44 H -0.1493 1.1778 0.7091
C93 C -0.1222(3) 1.1888(3) 0.5432(2)
H45 H -0.1569 1.2218 0.5100
C94 C 0.5772(4) 0.7305(5) 0.5739(3)
H46 H 0.6433 0.6958 0.5481
C95 C -0.3812(4) 1.1266(3) 0.6646(3)
H47 H -0.4267 1.1851 0.6903
C96 C 0.5866(3) 0.4482(3) 0.6572(2)
H48 H 0.5830 0.4608 0.7037
C97 C 0.5998(4) 0.4087(4) 0.5225(2)
H49 H 0.6044 0.3946 0.4761
C98 C 0.1901(4) 0.2418(3) 0.7077(2)
H50 H 0.1801 0.2402 0.7565
C99 C 0.6575(3) 0.4543(3) 0.6040(2)
H51 H 0.7010 0.4725 0.6140
C100 C -0.0840(4) 0.4115(4) 0.5371(2)
H52 H -0.0600 0.3644 0.5009
C101 C -0.1171(4) 0.5061(4) 0.5224(2)
H53 H -0.1170 0.5239 0.4763
C102 C -0.2508(4) 0.9553(4) 0.5891(2)
H54 H -0.2070 0.8970 0.5627
C103 C -0.3403(4) 1.1249(4) 0.5950(3)
H55 H -0.3569 1.1823 0.5726
C104 C -0.1671(4) 1.2113(3) 0.6124(2)
H56 H -0.2328 1.2604 0.6269
C105 C -0.2751(4) 1.0397(4) 0.5580(3)
H57 H -0.2463 1.0390 0.5102
C106 C 0.1671(5) 0.2026(4) 0.6038(3)
H58 H 0.1417 0.1743 0.5807
C107 C 0.2161(6) 0.2490(4) 0.5670(3)
H59 H 0.2244 0.2522 0.5184
C108 C 0.1559(4) 0.1982(4) 0.6738(3)
H60 H 0.1243 0.1649 0.6991
S1 S -0.14334(7) 1.09110(6) 0.90095(4)
S2 S -0.25631(7) 0.81456(7) 0.87587(4)
S3 S -0.00663(7) 0.66651(6) 0.83859(4)
S4 S 0.28050(7) 0.78770(6) 0.89885(4)
S5 S -0.33021(7) 1.02902(7) 0.90352(5)
S6 S 0.21599(7) 1.01242(7) 0.95592(4)
S7 S -0.00440(7) 1.16992(7) 0.96400(5)
S8 S 0.20294(8) 0.48502(6) 0.87237(5)
S9 S 0.35158(7) 0.54086(7) 0.90237(5)
C1 C -0.0158(3) 1.0360(3) 0.89248(16)
C2 C 0.1560(3) 0.7833(2) 0.84139(16)
C3 C 0.0286(3) 0.9481(2) 0.85754(16)
C4 C 0.1644(3) 0.4929(3) 0.96487(19)
C5 C -0.0711(3) 0.7925(3) 0.83754(17)
C6 C 0.1411(3) 0.9885(3) 0.91907(17)
C7 C 0.1240(3) 0.8797(3) 0.85620(17)
C8 C -0.0047(3) 0.8262(2) 0.82774(16)
C9 C -0.2046(3) 0.9556(3) 0.87194(17)
C10 C -0.1349(3) 0.9873(2) 0.86743(17)
C11 C 0.2362(3) 0.7215(3) 0.86473(17)
C12 C 0.0919(3) 0.7576(2) 0.82646(16)
C13 C -0.2805(3) 0.8092(3) 0.96790(18)
C14 C 0.4410(3) 0.5793(3) 0.88013(19)
C15 C -0.1708(3) 0.8572(3) 0.85799(17)
C16 C 0.3085(3) 1.0006(3) 0.88057(19)
C17 C -0.0365(3) 0.9214(2) 0.84327(16)
C18 C -0.3485(3) 1.1423(3) 0.87751(18)
C19 C -0.3148(3) 1.1576(3) 0.80932(19)
H1 H -0.2715 1.1055 0.7765
C20 C 0.0432(3) 1.0583(3) 0.92092(17)
C21 C 0.1882(3) 0.6001(3) 0.85626(17)
C22 C 0.1778(3) 0.8961(3) 0.89089(17)
C23 C 0.2553(3) 0.6269(3) 0.86965(17)
C24 C 0.1045(3) 0.6667(3) 0.83634(17)
C25 C -0.0780(3) 1.2442(3) 0.90998(18)
C26 C 0.2280(4) 0.4282(3) 1.0010(2)
H2 H 0.2926 0.3837 0.9771
C27 C 0.2866(3) 1.0342(3) 0.81824(18)
H3 H 0.2212 1.0624 0.8147
C28 C 0.4800(3) 0.5875(3) 0.9312(2)
H4 H 0.4546 0.5786 0.9778
C29 C 0.4029(3) 0.9617(3) 0.8854(2)
H5 H 0.4177 0.9394 0.9281
C30 C -0.2078(3) 0.7792(3) 1.00239(19)
H6 H -0.1433 0.7650 0.9777
C31 C -0.1725(3) 1.3108(3) 0.9390(2)
H7 H -0.1983 1.3163 0.9877
C32 C -0.3739(3) 0.8304(3) 1.0047(2)
H8 H -0.4242 0.8525 0.9815
C33 C -0.2296(3) 0.7699(3) 1.07311(19)
H9 H -0.1801 0.7502 1.0969
C34 C 0.3609(3) 1.0261(3) 0.7612(2)
H10 H 0.3463 1.0481 0.7185
C35 C -0.4074(3) 1.3251(3) 0.8365(2)
H11 H -0.4285 1.3876 0.8223
C36 C -0.4092(3) 1.2187(3) 0.9256(2)
H12 H -0.4301 1.2090 0.9728
C37 C 0.5507(3) 0.6170(3) 0.7965(2)
H13 H 0.5745 0.6278 0.7501
C38 C 0.5918(3) 0.6242(3) 0.8472(2)
H14 H 0.6436 0.6394 0.8357
C39 C -0.3228(3) 0.7893(3) 1.1093(2)
H15 H -0.3372 0.7816 1.1575
C40 C -0.4391(3) 1.3097(3) 0.9038(2)
H16 H -0.4823 1.3622 0.9362
C41 C 0.4770(3) 0.5947(3) 0.8120(2)
H17 H 0.4501 0.5898 0.7766
C42 C -0.0392(3) 1.2370(3) 0.8388(2)
H18 H 0.0270 1.1925 0.8187
C43 C -0.3442(3) 1.2486(3) 0.7894(2)
H19 H -0.3208 1.2589 0.7427
C44 C -0.3948(4) 0.8198(4) 1.0748(2)
H20 H -0.4591 0.8336 1.0995
C45 C -0.0980(4) 1.2952(3) 0.7975(2)
H21 H -0.0724 1.2898 0.7488
C46 C 0.4556(4) 0.9864(4) 0.7664(2)
H22 H 0.5063 0.9810 0.7273
C47 C 0.1962(4) 0.4293(3) 1.0725(2)
H23 H 0.2389 0.3840 1.0972
C48 C 0.0700(4) 0.5586(3) 1.0005(2)
H24 H 0.0258 0.6026 0.9761
C49 C 0.5557(3) 0.6088(3) 0.9148(2)
H25 H 0.5833 0.6130 0.9500
C50 C -0.1942(4) 1.3614(3) 0.8272(2)
H26 H -0.2348 1.4005 0.7988
C51 C 0.1040(4) 0.4949(3) 1.1079(2)
H27 H 0.0836 0.4959 1.1568
C52 C -0.2305(3) 1.3703(3) 0.8977(2)
H28 H -0.2955 1.4172 0.9183
C53 C 0.0414(4) 0.5590(4) 1.0719(2)
H29 H -0.0225 0.6042 1.0964
C54 C 0.4768(4) 0.9545(4) 0.8288(2)
H30 H 0.5419 0.9278 0.8327
Cl1? Cl 0.5178(2) 0.9838(2) 0.42144(12)
Cl2? Cl 0.5817(2) 0.9728(2) 0.54422(14)
Cl3? Cl 0.3789(2) 1.0445(2) 0.55436(13)
C109? C 0.5039(8) 1.0343(7) 0.4909(5)
loop_
_geom_bond_atom_site_label_1
_geom_bond_atom_site_label_2
_geom_bond_site_symmetry_1
_geom_bond_site_symmetry_2
S1 C1 1_555 1_555
S2 C13 1_555 1_555
S3 C5 1_555 1_555
S4 C11 1_555 1_555
S5 C9 1_555 1_555
S6 C6 1_555 1_555
S7 C20 1_555 1_555
S8 C4 1_555 1_555
S9 C14 1_555 1_555
C1 C3 1_555 1_555
C2 C7 1_555 1_555
C3 C7 1_555 1_555
C4 C26 1_555 1_555
C5 C8 1_555 1_555
C6 C20 1_555 1_555
C7 C22 1_555 1_555
C8 C12 1_555 1_555
C9 C10 1_555 1_555
C10 S1 1_555 1_555
C11 C2 1_555 1_555
C12 C2 1_555 1_555
C13 C30 1_555 1_555
C14 C28 1_555 1_555
C15 S2 1_555 1_555
C16 S6 1_555 1_555
C17 C3 1_555 1_555
C18 S5 1_555 1_555
C19 C18 1_555 1_555
H1 C19 1_555 1_555
C20 C1 1_555 1_555
C21 S8 1_555 1_555
C22 S4 1_555 1_555
C23 S9 1_555 1_555
C24 S3 1_555 1_555
C25 S7 1_555 1_555
C26 H2 1_555 1_555
C27 C16 1_555 1_555
H3 C27 1_555 1_555
C28 H4 1_555 1_555
C29 C16 1_555 1_555
H5 C29 1_555 1_555
C30 H6 1_555 1_555
C31 C25 1_555 1_555
H7 C31 1_555 1_555
C32 C13 1_555 1_555
H8 C32 1_555 1_555
C33 C30 1_555 1_555
H9 C33 1_555 1_555
C34 C27 1_555 1_555
H10 C34 1_555 1_555
C35 H11 1_555 1_555
C36 C18 1_555 1_555
H12 C36 1_555 1_555
C37 H13 1_555 1_555
C38 C37 1_555 1_555
H14 C38 1_555 1_555
C39 C33 1_555 1_555
H15 C39 1_555 1_555
C40 C35 1_555 1_555
H16 C40 1_555 1_555
C41 C14 1_555 1_555
H17 C41 1_555 1_555
C42 C25 1_555 1_555
H18 C42 1_555 1_555
C43 C19 1_555 1_555
H19 C43 1_555 1_555
C44 C32 1_555 1_555
H20 C44 1_555 1_555
C45 C42 1_555 1_555
H21 C45 1_555 1_555
C46 C34 1_555 1_555
H22 C46 1_555 1_555
C47 C26 1_555 1_555
H23 C47 1_555 1_555
C48 C4 1_555 1_555
H24 C48 1_555 1_555
C49 C28 1_555 1_555
H25 C49 1_555 1_555
C50 C45 1_555 1_555
H26 C50 1_555 1_555
C51 C47 1_555 1_555
H27 C51 1_555 1_555
C52 C31 1_555 1_555
H28 C52 1_555 1_555
C53 C48 1_555 1_555
H29 C53 1_555 1_555
C54 C29 1_555 1_555
H30 C54 1_555 1_555
S10 C58 1_555 1_555
S11 C56 1_555 1_555
S12 C55 1_555 1_555
S13 C63 1_555 1_555
S14 C61 1_555 1_555
S15 C74 1_555 1_555
S16 C75 1_555 1_555
S17 C62 1_555 1_555
S18 C72 1_555 1_555
C55 C73 1_555 1_555
C56 C59 1_555 1_555
C57 C59 1_555 1_555
C58 C65 1_555 1_555
C59 C65 1_555 1_555
C60 S10 1_555 1_555
C61 C56 1_555 1_555
C62 C60 1_555 1_555
C63 C67 1_555 1_555
C64 C57 1_555 1_555
C65 C71 1_555 1_555
C66 S11 1_555 1_555
C67 C64 1_555 1_555
C68 S14 1_555 1_555
C69 S13 1_555 1_555
C70 S12 1_555 1_555
C71 C60 1_555 1_555
C72 C69 1_555 1_555
C73 H31 1_555 1_555
C74 C66 1_555 1_555
C75 C62 1_555 1_555
C76 C68 1_555 1_555
H32 C76 1_555 1_555
C77 S18 1_555 1_555
C78 C68 1_555 1_555
H33 C78 1_555 1_555
C79 S16 1_555 1_555
C80 S15 1_555 1_555
C81 C77 1_555 1_555
H34 C81 1_555 1_555
C82 S17 1_555 1_555
C83 C73 1_555 1_555
H35 C83 1_555 1_555
C84 C76 1_555 1_555
H36 C84 1_555 1_555
C85 C79 1_555 1_555
H37 C85 1_555 1_555
C86 C78 1_555 1_555
H38 C86 1_555 1_555
C87 C82 1_555 1_555
H39 C87 1_555 1_555
C88 H40 1_555 1_555
C89 C85 1_555 1_555
H41 C89 1_555 1_555
C90 C79 1_555 1_555
H42 C90 1_555 1_555
C91 C80 1_555 1_555
H43 C91 1_555 1_555
C92 C55 1_555 1_555
H44 C92 1_555 1_555
C93 C83 1_555 1_555
H45 C93 1_555 1_555
C94 C84 1_555 1_555
H46 C94 1_555 1_555
C95 C87 1_555 1_555
H47 C95 1_555 1_555
C96 C80 1_555 1_555
H48 C96 1_555 1_555
C97 C88 1_555 1_555
H49 C97 1_555 1_555
C98 C77 1_555 1_555
H50 C98 1_555 1_555
C99 C88 1_555 1_555
H51 C99 1_555 1_555
C100 C89 1_555 1_555
H52 C100 1_555 1_555
C101 C90 1_555 1_555
H53 C101 1_555 1_555
C102 C82 1_555 1_555
H54 C102 1_555 1_555
C103 C95 1_555 1_555
H55 C103 1_555 1_555
C104 C92 1_555 1_555
H56 C104 1_555 1_555
C105 C102 1_555 1_555
H57 C105 1_555 1_555
C106 H58 1_555 1_555
C107 C81 1_555 1_555
H59 C107 1_555 1_555
C108 C98 1_555 1_555
H60 C108 1_555 1_555
C5 C15 1_555 1_555
C6 C22 1_555 1_555
C8 C17 1_555 1_555
C9 C15 1_555 1_555
C10 C17 1_555 1_555
C11 C23 1_555 1_555
C12 C24 1_555 1_555
C21 C23 1_555 1_555
C21 C24 1_555 1_555
C35 C43 1_555 1_555
C36 C40 1_555 1_555
C37 C41 1_555 1_555
C38 C49 1_555 1_555
C39 C44 1_555 1_555
C46 C54 1_555 1_555
C50 C52 1_555 1_555
C51 C53 1_555 1_555
C57 C66 1_555 1_555
C58 C70 1_555 1_555
C61 C70 1_555 1_555
C63 C75 1_555 1_555
C64 C69 1_555 1_555
C67 C71 1_555 1_555
C72 C74 1_555 1_555
C86 C94 1_555 1_555
C91 C97 1_555 1_555
C93 C104 1_555 1_555
C96 C99 1_555 1_555
C100 C101 1_555 1_555
C103 C105 1_555 1_555
C106 C107 1_555 1_555
C106 C108 1_555 1_555

#END
