
#######################################################################
#
#                 Cambridge Crystallographic Data Centre
#                                CCDC 
#
#######################################################################
#
# If this CIF has been generated from an entry in the Cambridge 
# Structural Database, then it will include bibliographic, chemical, 
# crystal, experimental, refinement or atomic coordinate data resulting 
# from the CCDC's data processing and validation procedures.
#
#######################################################################

data_AVICOY
_chemical_name_common            
2,7,12,17-tetraphenyl-20-oxa-22,23,24,25-tetraazapentacyclo[16.3.1.1$3,6!.1$8,11!.1$13,16!]pentacosa-1(22),2,4,6,8(24),9,11,13,15,17-decaene
_chemical_formula_moiety         'C44 H32 N4 O1'
_chemical_name_systematic        meso-tetraphenylmorpholinochlorin
_symmetry_cell_setting           tetragonal
_symmetry_space_group_name_H-M   'I -4 2 d'
_symmetry_Int_Tables_number      122
_space_group_name_Hall           'I -4 2bw'
loop_
_symmetry_equiv_pos_site_id
_symmetry_equiv_pos_as_xyz
1 x,y,z
2 -x,-y,z
3 y,-x,-z
4 -y,x,-z
5 1/2-x,y,3/4-z
6 1/2+x,-y,3/4-z
7 1/2-y,-x,3/4+z
8 1/2+y,x,3/4+z
9 1/2+x,1/2+y,1/2+z
10 1/2-x,1/2-y,1/2+z
11 1/2+y,1/2-x,1/2-z
12 1/2-y,1/2+x,1/2-z
13 -x,1/2+y,1/4-z
14 x,1/2-y,1/4-z
15 -y,1/2-x,1/4+z
16 y,1/2+x,1/4+z
_cell_length_a                   15.122(2)
_cell_length_b                   15.122(2)
_cell_length_c                   13.830(4)
_cell_angle_alpha                90
_cell_angle_beta                 90
_cell_angle_gamma                90
_cell_volume                     3162.57
_exptl_crystal_colour            black
_exptl_crystal_description       block
_cell_formula_units_Z            4
loop_
_atom_site_label
_atom_site_type_symbol
_atom_site_fract_x
_atom_site_fract_y
_atom_site_fract_z
N1 N 0.5682(5) 0.3848(6) 1.0028(14)
H1 H 0.5382 0.4343 1.0086
C1 C 0.6577(5) 0.3781(3) 1.0147(7)
C2 C 0.6804(2) 0.2865(2) 1.0029(4)
H2 H 0.7378 0.2618 1.0092
C3 C 0.6045(2) 0.2411(2) 0.9808(3)
H3 H 0.6005 0.1795 0.9679
C4 C 0.5308(3) 0.3039(3) 0.9807(5)
C5 C 0.71835(13) 0.44410(13) 1.02922(17)
C6 C 0.81191(13) 0.41901(13) 1.05512(18)
C7 C 0.87814(17) 0.41685(14) 0.9861(2)
H4 H 0.8652 0.4334 0.9214
C8 C 0.96351(18) 0.39073(15) 1.0106(2)
H5 H 1.0083 0.3888 0.9625
C9 C 0.98293(16) 0.36778(15) 1.1041(2)
H6 H 1.0413 0.3503 1.1207
C10 C 0.91787(17) 0.36998(16) 1.1746(2)
H7 H 0.9315 0.3542 1.2394
C11 C 0.83248(15) 0.39542(15) 1.14984(19)
H8 H 0.7877 0.3967 1.1980
N1B N 0.3848(6) 0.4318(5) 0.9972(14)
N1A N 0.4318(5) 0.6152(6) 1.0028(14)
N1C N 0.6152(6) 0.5682(5) 0.9972(14)
H1B H 0.4343 0.4618 0.9914
H1A H 0.4618 0.5657 1.0086
H1C H 0.5657 0.5382 0.9914
C1B C 0.3781(3) 0.3423(5) 0.9853(7)
C1A C 0.3423(5) 0.6219(3) 1.0147(7)
C1C C 0.6219(3) 0.6577(5) 0.9853(7)
C2B C 0.2865(2) 0.3196(2) 0.9971(4)
C2A C 0.3196(2) 0.7135(2) 1.0029(4)
C2C C 0.7135(2) 0.6804(2) 0.9971(4)
H2B H 0.2618 0.2622 0.9908
H2A H 0.2622 0.7382 1.0092
H2C H 0.7382 0.7378 0.9908
C3B C 0.2411(2) 0.3955(2) 1.0192(3)
C3A C 0.3955(2) 0.7589(2) 0.9808(3)
C3C C 0.7589(2) 0.6045(2) 1.0192(3)
H3B H 0.1795 0.3995 1.0321
H3A H 0.3995 0.8205 0.9679
H3C H 0.8205 0.6005 1.0321
C4B C 0.3039(3) 0.4692(3) 1.0193(5)
C4A C 0.4692(3) 0.6961(3) 0.9807(5)
C4C C 0.6961(3) 0.5308(3) 1.0193(5)
C5B C 0.44410(13) 0.28165(13) 0.97078(17)
C5A C 0.28165(13) 0.55590(13) 1.02922(17)
C5C C 0.55590(13) 0.71835(13) 0.97078(17)
C6C C 0.58099(13) 0.81191(13) 0.94488(18)
C6A C 0.18809(13) 0.58099(13) 1.05512(18)
C6B C 0.41901(13) 0.18809(13) 0.94488(18)
C7C C 0.58315(14) 0.87814(17) 1.0139(2)
C7A C 0.12186(17) 0.58315(14) 0.9861(2)
C7B C 0.41685(14) 0.12186(17) 1.0139(2)
H4C H 0.5666 0.8652 1.0786
H4A H 0.1348 0.5666 0.9214
H4B H 0.4334 0.1348 1.0786
C8C C 0.60927(15) 0.96351(18) 0.9894(2)
C8A C 0.03649(18) 0.60927(15) 1.0106(2)
C8B C 0.39073(15) 0.03649(18) 0.9894(2)
H5C H 0.6112 1.0083 1.0375
H5A H -0.0083 0.6112 0.9625
H5B H 0.3888 -0.0083 1.0375
C9C C 0.63222(15) 0.98293(16) 0.8959(2)
C9A C 0.01707(16) 0.63222(15) 1.1041(2)
C9B C 0.36778(15) 0.01707(16) 0.8959(2)
H6C H 0.6497 1.0413 0.8793
H6A H -0.0413 0.6497 1.1207
H6B H 0.3503 -0.0413 0.8793
C10C C 0.63002(16) 0.91787(17) 0.8254(2)
C10A C 0.08213(17) 0.63002(16) 1.1746(2)
C10B C 0.36998(16) 0.08213(17) 0.8254(2)
H7C H 0.6458 0.9315 0.7606
H7A H 0.0685 0.6458 1.2394
H7B H 0.3542 0.0685 0.7606
C11C C 0.60458(15) 0.83248(15) 0.85016(19)
C11A C 0.16752(15) 0.60458(15) 1.14984(19)
C11B C 0.39542(15) 0.16752(15) 0.85016(19)
H8C H 0.6033 0.7877 0.8020
H8A H 0.2123 0.6033 1.1980
H8B H 0.3967 0.2123 0.8020
N2? N 0.5756(18) 0.371(2) 0.998(5)
C12? C 0.6653(17) 0.3579(11) 1.014(2)
C13? C 0.7105(19) 0.2704(13) 1.019(2)
H9? H 0.7755 0.2775 1.0170
H10? H 0.6942 0.2385 1.0790
O1? O 0.6785(8) 0.2230(8) 0.9331(10)
C14? C 0.5902(11) 0.1989(10) 0.9618(18)
H11? H 0.5908 0.1631 1.0217
H12? H 0.5599 0.1652 0.9102
C15? C 0.5468(13) 0.2863(11) 0.9782(18)
N3? N 0.5756(18) 0.371(2) 0.998(5)
C16? C 0.6653(17) 0.3579(11) 1.014(2)
C17? C 0.7147(15) 0.2750(11) 0.996(3)
H13? H 0.7407 0.2765 0.9305
H14? H 0.7635 0.2698 1.0435
O2? O 0.6564(8) 0.1994(8) 1.0048(11)
C18? C 0.5960(12) 0.2163(12) 0.9263(14)
H15? H 0.5587 0.1645 0.9105
H16? H 0.6261 0.2384 0.8675
C19? C 0.5468(13) 0.2863(11) 0.9782(18)
loop_
_geom_bond_atom_site_label_1
_geom_bond_atom_site_label_2
_geom_bond_site_symmetry_1
_geom_bond_site_symmetry_2
N1 H1 1_555 1_555
C1 N1 1_555 1_555
C2 C1 1_555 1_555
H2 C2 1_555 1_555
C3 C2 1_555 1_555
H3 C3 1_555 1_555
C4 N1 1_555 1_555
C5 C1 1_555 1_555
C6 C5 1_555 1_555
C7 C6 1_555 1_555
H4 C7 1_555 1_555
C8 C7 1_555 1_555
H5 C8 1_555 1_555
C9 C8 1_555 1_555
H6 C9 1_555 1_555
C10 C9 1_555 1_555
H7 C10 1_555 1_555
C11 C6 1_555 1_555
H8 C11 1_555 1_555
N1B H1B 1_555 1_555
N1A H1A 1_555 1_555
N1C H1C 1_555 1_555
C1B N1B 1_555 1_555
C1A N1A 1_555 1_555
C1C N1C 1_555 1_555
C2B C1B 1_555 1_555
C2A C1A 1_555 1_555
C2C C1C 1_555 1_555
H2B C2B 1_555 1_555
H2A C2A 1_555 1_555
H2C C2C 1_555 1_555
C3B C2B 1_555 1_555
C3A C2A 1_555 1_555
C3C C2C 1_555 1_555
H3B C3B 1_555 1_555
H3A C3A 1_555 1_555
H3C C3C 1_555 1_555
C4B N1B 1_555 1_555
C4A N1A 1_555 1_555
C4C C5 1_555 1_555
C5B C4 1_555 1_555
C5A C1A 1_555 1_555
C5C C1C 1_555 1_555
C6C C5C 1_555 1_555
C6A C5A 1_555 1_555
C6B C5B 1_555 1_555
C7C C6C 1_555 1_555
C7A C6A 1_555 1_555
C7B C6B 1_555 1_555
H4C C7C 1_555 1_555
H4A C7A 1_555 1_555
H4B C7B 1_555 1_555
C8C C7C 1_555 1_555
C8A C7A 1_555 1_555
C8B C7B 1_555 1_555
H5C C8C 1_555 1_555
H5A C8A 1_555 1_555
H5B C8B 1_555 1_555
C9C C8C 1_555 1_555
C9A C8A 1_555 1_555
C9B C8B 1_555 1_555
H6C C9C 1_555 1_555
H6A C9A 1_555 1_555
H6B C9B 1_555 1_555
C10C C9C 1_555 1_555
C10A C9A 1_555 1_555
C10B C9B 1_555 1_555
H7C C10C 1_555 1_555
H7A C10A 1_555 1_555
H7B C10B 1_555 1_555
C11C C6C 1_555 1_555
C11A C6A 1_555 1_555
C11B C6B 1_555 1_555
H8C C11C 1_555 1_555
H8A C11A 1_555 1_555
H8B C11B 1_555 1_555
C3 C4 1_555 1_555
C10 C11 1_555 1_555
N1C C4C 1_555 1_555
C1B C5B 1_555 1_555
C3B C4B 1_555 1_555
C3A C4A 1_555 1_555
C3C C4C 1_555 1_555
C4B C5A 1_555 1_555
C4A C5C 1_555 1_555
C10C C11C 1_555 1_555
C10A C11A 1_555 1_555
C10B C11B 1_555 1_555

#END
