
#######################################################################
#
#                 Cambridge Crystallographic Data Centre
#                                CCDC 
#
#######################################################################
#
# If this CIF has been generated from an entry in the Cambridge 
# Structural Database, then it will include bibliographic, chemical, 
# crystal, experimental, refinement or atomic coordinate data resulting 
# from the CCDC's data processing and validation procedures.
#
#######################################################################

data_AVIZIQ
_chemical_formula_moiety         'C24 H16 F6 N2 O1 S1'
_chemical_name_systematic        
3-(3,3,4,4,5,5-hexafluoro-2-(5-(4-formylphenyl)-2-methyl-3-thienyl)cyclopent-1-en-1-yl)-1,5-dimethyl-1H-pyrrole-2-carbonitrile
_symmetry_cell_setting           monoclinic
_symmetry_space_group_name_H-M   'C 2/c'
_symmetry_Int_Tables_number      15
_space_group_name_Hall           '-C 2yn'
loop_
_symmetry_equiv_pos_site_id
_symmetry_equiv_pos_as_xyz
1 x,y,z
2 -x,y,1/2-z
3 1/2+x,1/2+y,z
4 1/2-x,1/2+y,1/2-z
5 -x,-y,-z
6 x,-y,1/2+z
7 1/2-x,1/2-y,-z
8 1/2+x,1/2-y,1/2+z
_cell_length_a                   29.079(10)
_cell_length_b                   8.114(3)
_cell_length_c                   18.776(6)
_cell_angle_alpha                90
_cell_angle_beta                 98.856(4)
_cell_angle_gamma                90
_cell_volume                     4377.33
_exptl_crystal_colour            colorless
_exptl_crystal_description       block
_cell_formula_units_Z            8
loop_
_atom_site_label
_atom_site_type_symbol
_atom_site_fract_x
_atom_site_fract_y
_atom_site_fract_z
S1 S 0.11085(3) 0.29797(8) 0.25585(4)
F1 F 0.08219(8) 0.8021(2) 0.56422(9)
F2 F 0.09332(7) 0.8913(2) 0.33914(11)
F3 F 0.01788(6) 0.6945(2) 0.51175(11)
N1 N 0.14423(8) 0.2591(3) 0.57110(11)
C1 C 0.10642(8) 0.5268(3) 0.34702(12)
C2 C 0.15244(8) 0.4510(3) 0.26131(12)
C3 C 0.08694(8) 0.6078(3) 0.47067(12)
F4 F 0.08706(8) 1.0008(2) 0.46256(11)
F5 F 0.01347(7) 0.9505(3) 0.43289(10)
C4 C 0.18994(8) 0.4481(3) 0.21726(12)
F6 F 0.02707(7) 0.7684(3) 0.32854(10)
C5 C 0.14503(9) 0.5632(3) 0.31218(13)
H1 H 0.1637 0.6557 0.3231
C6 C 0.10314(8) 0.4696(3) 0.51715(12)
C7 C 0.18853(9) 0.3458(3) 0.15698(13)
H2 H 0.1630 0.2769 0.1441
C8 C 0.10690(10) 0.2803(4) 0.60579(13)
C9 C 0.08395(9) 0.3859(3) 0.32212(13)
C10 C 0.14225(9) 0.3734(3) 0.51632(13)
C11 C 0.08943(8) 0.6356(3) 0.40061(13)
C12 C 0.26203(10) 0.4478(3) 0.13342(14)
C13 C 0.08155(9) 0.4091(4) 0.57480(13)
H3 H 0.0546 0.4508 0.5890
O1 O 0.30639(9) 0.3558(4) 0.04490(13)
C14 C 0.17878(10) 0.3854(4) 0.47487(16)
C15 C 0.22425(10) 0.3452(4) 0.11634(13)
H4 H 0.2228 0.2747 0.0770
C16 C 0.22836(11) 0.5498(4) 0.23409(18)
H5 H 0.2304 0.6188 0.2740
C17 C 0.06680(10) 0.7948(3) 0.37533(14)
C18 C 0.06081(9) 0.7458(4) 0.50038(13)
C19 C 0.05563(10) 0.8811(4) 0.44307(15)
C20 C 0.18063(12) 0.1353(4) 0.58796(18)
H6 H 0.1745 0.0701 0.6281
H7 H 0.2102 0.1890 0.6000
H8 H 0.1811 0.0654 0.5469
C21 C 0.26365(11) 0.5504(4) 0.19257(19)
H9 H 0.2889 0.6208 0.2046
N2 N 0.20874(10) 0.3923(5) 0.44216(18)
C22 C 0.30064(11) 0.4515(4) 0.09079(17)
H10 H 0.3223 0.5359 0.1006
C23 C 0.09796(13) 0.1699(4) 0.66614(17)
H11 H 0.1225 0.0901 0.6757
H12 H 0.0688 0.1142 0.6528
H13 H 0.0969 0.2347 0.7086
C24 C 0.04134(12) 0.3099(4) 0.34358(19)
H14 H 0.0313 0.3744 0.3812
H15 H 0.0483 0.1998 0.3607
H16 H 0.0171 0.3067 0.3027
loop_
_geom_bond_atom_site_label_1
_geom_bond_atom_site_label_2
_geom_bond_site_symmetry_1
_geom_bond_site_symmetry_2
S1 C2 1_555 1_555
F1 C18 1_555 1_555
F2 C17 1_555 1_555
F3 C18 1_555 1_555
N1 C8 1_555 1_555
C1 C5 1_555 1_555
C2 C4 1_555 1_555
C3 C6 1_555 1_555
F4 C19 1_555 1_555
F5 C19 1_555 1_555
C4 C7 1_555 1_555
F6 C17 1_555 1_555
C5 C2 1_555 1_555
H1 C5 1_555 1_555
C6 C10 1_555 1_555
C7 H2 1_555 1_555
C8 C13 1_555 1_555
C9 S1 1_555 1_555
C10 N1 1_555 1_555
C11 C1 1_555 1_555
C12 C15 1_555 1_555
C13 C6 1_555 1_555
H3 C13 1_555 1_555
O1 C22 1_555 1_555
C14 C10 1_555 1_555
C15 C7 1_555 1_555
H4 C15 1_555 1_555
C16 C4 1_555 1_555
H5 C16 1_555 1_555
C17 C11 1_555 1_555
C18 C3 1_555 1_555
C19 C17 1_555 1_555
C20 N1 1_555 1_555
H6 C20 1_555 1_555
H7 C20 1_555 1_555
H8 C20 1_555 1_555
C21 C12 1_555 1_555
H9 C21 1_555 1_555
N2 C14 1_555 1_555
C22 C12 1_555 1_555
H10 C22 1_555 1_555
C23 C8 1_555 1_555
H11 C23 1_555 1_555
H12 C23 1_555 1_555
H13 C23 1_555 1_555
C24 C9 1_555 1_555
H14 C24 1_555 1_555
H15 C24 1_555 1_555
H16 C24 1_555 1_555
C1 C9 1_555 1_555
C3 C11 1_555 1_555
C16 C21 1_555 1_555
C18 C19 1_555 1_555

#END
