
#######################################################################
#
#                 Cambridge Crystallographic Data Centre
#                                CCDC 
#
#######################################################################
#
# If this CIF has been generated from an entry in the Cambridge 
# Structural Database, then it will include bibliographic, chemical, 
# crystal, experimental, refinement or atomic coordinate data resulting 
# from the CCDC's data processing and validation procedures.
#
#######################################################################

data_AWIRUV
_chemical_formula_moiety         'C62 H48 N2,0.5(C1 H2 Cl2)'
_chemical_name_systematic        
'4-(1,2-bis(biphenyl-2-yl)-2-(4-(diphenylamino)phenyl)ethyl)-N,N-diphenylaniline dichloromethane solvate'
_symmetry_cell_setting           monoclinic
_symmetry_space_group_name_H-M   'P 21/c'
_symmetry_Int_Tables_number      14
_space_group_name_Hall           '-P 2ybc'
loop_
_symmetry_equiv_pos_site_id
_symmetry_equiv_pos_as_xyz
1 x,y,z
2 -x,1/2+y,1/2-z
3 -x,-y,-z
4 x,1/2-y,1/2+z
_cell_length_a                   12.797(4)
_cell_length_b                   13.085(5)
_cell_length_c                   27.664(9)
_cell_angle_alpha                90
_cell_angle_beta                 92.323(12)
_cell_angle_gamma                90
_cell_volume                     4628.5
_exptl_crystal_description       block
_cell_formula_units_Z            4
loop_
_atom_site_label
_atom_site_type_symbol
_atom_site_fract_x
_atom_site_fract_y
_atom_site_fract_z
C1 C 0.9508(2) 0.7333(2) 0.11420(9)
H1 H 0.8921 0.7274 0.1368
C2 C 1.0150(2) 0.6317(2) 0.11845(9)
H2 H 1.0613 0.6304 0.0902
C3 C 1.1462(2) 0.9767(2) 0.17216(11)
C4 C 1.1799(2) 0.9188(2) 0.13420(10)
H3 H 1.2470 0.9308 0.1218
C5 C 1.1158(2) 0.8428(2) 0.11398(10)
H4 H 1.1400 0.8030 0.0880
C6 C 1.0173(2) 0.8243(2) 0.13107(10)
C7 C 0.9834(2) 0.8864(2) 0.16796(10)
H5 H 0.9150 0.8774 0.1793
C8 C 1.0474(2) 0.9613(2) 0.18852(11)
H6 H 1.0229 1.0023 0.2140
C9 C 1.3101(2) 1.0119(2) 0.21739(10)
C10 C 1.4006(2) 1.0696(3) 0.21733(11)
H7 H 1.3995 1.1351 0.2025
C11 C 1.4921(3) 1.0329(3) 0.23853(12)
H8 H 1.5538 1.0733 0.2381
C12 C 1.4954(3) 0.9384(3) 0.26030(12)
H9 H 1.5586 0.9138 0.2753
C13 C 1.4058(3) 0.8797(3) 0.26008(11)
H10 H 1.4076 0.8142 0.2749
C14 C 1.3130(2) 0.9154(2) 0.23837(10)
H11 H 1.2520 0.8740 0.2379
C15 C 1.1861(2) 1.1533(2) 0.19775(10)
C16 C 1.1206(2) 1.1944(2) 0.16159(11)
H12 H 1.0966 1.1528 0.1353
C17 C 1.0901(2) 1.2958(2) 0.16355(11)
H13 H 1.0439 1.3228 0.1390
C18 C 1.1261(3) 1.3580(2) 0.20089(12)
H14 H 1.1048 1.4274 0.2023
C19 C 1.1939(3) 1.3179(2) 0.23638(11)
H15 H 1.2216 1.3608 0.2615
C20 C 1.2212(2) 1.2162(2) 0.23542(11)
H16 H 1.2647 1.1887 0.2609
C21 C 0.9015(2) 0.7459(2) 0.06319(10)
C22 C 0.7934(2) 0.7594(2) 0.05575(10)
C23 C 0.7515(2) 0.7708(2) 0.00852(11)
H17 H 0.6782 0.7793 0.0035
C24 C 0.8142(3) 0.7701(2) -0.03081(11)
H18 H 0.7846 0.7786 -0.0626
C25 C 0.9202(2) 0.7569(2) -0.02341(11)
H19 H 0.9642 0.7557 -0.0503
C26 C 0.9630(2) 0.7453(2) 0.02292(10)
H20 H 1.0365 0.7366 0.0274
C27 C 0.7192(2) 0.7599(2) 0.09597(10)
C28 C 0.6771(2) 0.6693(3) 0.11215(12)
H21 H 0.6977 0.6066 0.0981
C29 C 0.6056(3) 0.6683(3) 0.14833(12)
H22 H 0.5775 0.6053 0.1590
C30 C 0.5754(3) 0.7580(3) 0.16871(13)
H23 H 0.5262 0.7578 0.1935
C31 C 0.6164(3) 0.8485(3) 0.15319(13)
H24 H 0.5952 0.9109 0.1674
C32 C 0.6887(3) 0.8503(3) 0.11701(12)
H25 H 0.7169 0.9135 0.1068
C33 C 0.8079(2) 0.3708(2) 0.09906(11)
C34 C 0.8688(2) 0.4042(2) 0.06226(11)
H26 H 0.8651 0.3704 0.0319
C35 C 0.9352(2) 0.4867(2) 0.06932(10)
H27 H 0.9761 0.5086 0.0434
C36 C 0.9440(2) 0.5387(2) 0.11318(10)
C37 C 0.8819(2) 0.5040(2) 0.15001(11)
H28 H 0.8852 0.5377 0.1804
C38 C 0.8152(2) 0.4213(2) 0.14313(11)
H29 H 0.7740 0.3989 0.1689
C39 C 0.7838(2) 0.1954(2) 0.07028(11)
C40 C 0.7475(3) 0.1604(2) 0.02537(11)
H30 H 0.6926 0.1955 0.0082
C41 C 0.7914(3) 0.0743(3) 0.00560(12)
H31 H 0.7656 0.0497 -0.0249
C42 C 0.8716(3) 0.0242(2) 0.02960(14)
H32 H 0.9018 -0.0346 0.0157
C43 C 0.9080(3) 0.0590(2) 0.07353(14)
H33 H 0.9646 0.0248 0.0899
C44 C 0.8638(2) 0.1432(2) 0.09442(11)
H34 H 0.8884 0.1654 0.1255
C45 C 0.6335(2) 0.2889(2) 0.10101(11)
C46 C 0.5811(2) 0.3815(2) 0.10486(10)
H35 H 0.6185 0.4436 0.1012
C47 C 0.4760(2) 0.3852(3) 0.11382(11)
H36 H 0.4421 0.4494 0.1167
C48 C 0.4197(3) 0.2961(3) 0.11868(12)
H37 H 0.3475 0.2983 0.1253
C49 C 0.4699(3) 0.2044(3) 0.11379(12)
H38 H 0.4311 0.1428 0.1161
C50 C 0.5755(3) 0.1993(3) 0.10566(12)
H39 H 0.6088 0.1347 0.1032
C51 C 1.0872(2) 0.6298(2) 0.16358(10)
C52 C 1.1947(2) 0.6115(2) 0.16080(10)
C53 C 1.2580(2) 0.6156(2) 0.20310(11)
H40 H 1.3309 0.6034 0.2012
C54 C 1.2181(3) 0.6368(3) 0.24739(11)
H41 H 1.2627 0.6379 0.2757
C55 C 1.1131(3) 0.6565(2) 0.25028(10)
H42 H 1.0846 0.6721 0.2806
C56 C 1.0487(2) 0.6533(2) 0.20865(10)
H43 H 0.9763 0.6676 0.2110
C57 C 1.2474(2) 0.5935(2) 0.11432(11)
C58 C 1.3296(2) 0.6580(3) 0.10235(12)
H44 H 1.3499 0.7125 0.1234
C59 C 1.3817(3) 0.6427(3) 0.05984(13)
H45 H 1.4379 0.6864 0.0521
C60 C 1.3523(3) 0.5646(3) 0.02886(13)
H46 H 1.3875 0.5548 -0.0004
C61 C 1.2709(3) 0.5001(3) 0.04051(12)
H47 H 1.2504 0.4461 0.0192
C62 C 1.2200(2) 0.5142(2) 0.08291(11)
H48 H 1.1652 0.4689 0.0908
N1 N 1.2155(2) 1.04919(18) 0.19544(9)
N2 N 0.7402(2) 0.28456(19) 0.09192(10)
C63? C 0.5242(18) 0.9446(16) 0.0095(5)
H49? H 0.5963 0.9533 0.0196
H50? H 0.5173 0.8805 -0.0071
Cl1? Cl 0.4928(4) 1.0427(4) -0.02941(15)
Cl2? Cl 0.4500(2) 0.9432(2) 0.06243(12)
loop_
_geom_bond_atom_site_label_1
_geom_bond_atom_site_label_2
_geom_bond_site_symmetry_1
_geom_bond_site_symmetry_2
C1 H1 1_555 1_555
C2 C1 1_555 1_555
H2 C2 1_555 1_555
C3 C4 1_555 1_555
C4 H3 1_555 1_555
C5 C4 1_555 1_555
H4 C5 1_555 1_555
C6 C1 1_555 1_555
C7 C6 1_555 1_555
H5 C7 1_555 1_555
C8 C3 1_555 1_555
H6 C8 1_555 1_555
C9 C10 1_555 1_555
C10 H7 1_555 1_555
C11 C10 1_555 1_555
H8 C11 1_555 1_555
C12 C11 1_555 1_555
H9 C12 1_555 1_555
C13 C12 1_555 1_555
H10 C13 1_555 1_555
C14 C9 1_555 1_555
H11 C14 1_555 1_555
C15 C16 1_555 1_555
C16 H12 1_555 1_555
C17 C16 1_555 1_555
H13 C17 1_555 1_555
C18 C17 1_555 1_555
H14 C18 1_555 1_555
C19 C18 1_555 1_555
H15 C19 1_555 1_555
C20 C15 1_555 1_555
H16 C20 1_555 1_555
C21 C1 1_555 1_555
C22 C21 1_555 1_555
C23 C22 1_555 1_555
H17 C23 1_555 1_555
C24 C23 1_555 1_555
H18 C24 1_555 1_555
C25 C24 1_555 1_555
H19 C25 1_555 1_555
C26 C21 1_555 1_555
H20 C26 1_555 1_555
C27 C22 1_555 1_555
C28 C27 1_555 1_555
H21 C28 1_555 1_555
C29 C28 1_555 1_555
H22 C29 1_555 1_555
C30 C29 1_555 1_555
H23 C30 1_555 1_555
C31 C30 1_555 1_555
H24 C31 1_555 1_555
C32 C27 1_555 1_555
H25 C32 1_555 1_555
C33 C34 1_555 1_555
C34 H26 1_555 1_555
C35 C34 1_555 1_555
H27 C35 1_555 1_555
C36 C2 1_555 1_555
C37 C36 1_555 1_555
H28 C37 1_555 1_555
C38 C33 1_555 1_555
H29 C38 1_555 1_555
C39 C40 1_555 1_555
C40 H30 1_555 1_555
C41 C40 1_555 1_555
H31 C41 1_555 1_555
C42 C41 1_555 1_555
H32 C42 1_555 1_555
C43 C42 1_555 1_555
H33 C43 1_555 1_555
C44 C39 1_555 1_555
H34 C44 1_555 1_555
C45 C46 1_555 1_555
C46 H35 1_555 1_555
C47 C46 1_555 1_555
H36 C47 1_555 1_555
C48 C47 1_555 1_555
H37 C48 1_555 1_555
C49 C48 1_555 1_555
H38 C49 1_555 1_555
C50 C45 1_555 1_555
H39 C50 1_555 1_555
C51 C2 1_555 1_555
C52 C51 1_555 1_555
C53 C52 1_555 1_555
H40 C53 1_555 1_555
C54 C53 1_555 1_555
H41 C54 1_555 1_555
C55 C54 1_555 1_555
H42 C55 1_555 1_555
C56 C51 1_555 1_555
H43 C56 1_555 1_555
C57 C52 1_555 1_555
C58 C57 1_555 1_555
H44 C58 1_555 1_555
C59 C58 1_555 1_555
H45 C59 1_555 1_555
C60 C59 1_555 1_555
H46 C60 1_555 1_555
C61 C60 1_555 1_555
H47 C61 1_555 1_555
C62 C57 1_555 1_555
H48 C62 1_555 1_555
N1 C3 1_555 1_555
N2 C33 1_555 1_555
C5 C6 1_555 1_555
C7 C8 1_555 1_555
C9 N1 1_555 1_555
C13 C14 1_555 1_555
C15 N1 1_555 1_555
C19 C20 1_555 1_555
C25 C26 1_555 1_555
C31 C32 1_555 1_555
C35 C36 1_555 1_555
C37 C38 1_555 1_555
C39 N2 1_555 1_555
C43 C44 1_555 1_555
C45 N2 1_555 1_555
C49 C50 1_555 1_555
C55 C56 1_555 1_555
C61 C62 1_555 1_555

#END
