
#######################################################################
#
#                 Cambridge Crystallographic Data Centre
#                                CCDC 
#
#######################################################################
#
# If this CIF has been generated from an entry in the Cambridge 
# Structural Database, then it will include bibliographic, chemical, 
# crystal, experimental, refinement or atomic coordinate data resulting 
# from the CCDC's data processing and validation procedures.
#
#######################################################################

data_AWIRAB02
_chemical_formula_moiety         'C24 H29 N3 O6 S1'
_chemical_name_systematic        
'benzyl 1-((3-((N-(t-butoxycarbonyl)glycyl)amino)-2-thienyl)carbonyl)prolinate'
_symmetry_cell_setting           orthorhombic
_symmetry_space_group_name_H-M   'P 21 21 21'
_symmetry_Int_Tables_number      19
_space_group_name_Hall           'P 2ac 2ab'
loop_
_symmetry_equiv_pos_site_id
_symmetry_equiv_pos_as_xyz
1 x,y,z
2 1/2+x,1/2-y,-z
3 -x,1/2+y,1/2-z
4 1/2-x,-y,1/2+z
_cell_length_a                   8.8665(3)
_cell_length_b                   12.6487(5)
_cell_length_c                   21.9234(9)
_cell_angle_alpha                90
_cell_angle_beta                 90
_cell_angle_gamma                90
_cell_volume                     2458.7
_exptl_crystal_colour            colorless
_exptl_crystal_description       plate
_cell_formula_units_Z            4
loop_
_atom_site_label
_atom_site_type_symbol
_atom_site_fract_x
_atom_site_fract_y
_atom_site_fract_z
S1 S 0.70331(6) 0.30373(4) 0.11848(3)
O1 O 0.96649(13) 0.85231(9) 0.06384(6)
O2 O 1.20074(13) 0.78728(10) 0.04524(6)
O3 O 1.05040(16) 0.45515(10) -0.05578(7)
O4 O 0.79786(18) 0.61169(10) 0.12161(6)
O5 O 0.88860(17) 0.60821(12) 0.26352(7)
O6 O 0.76374(17) 0.76074(13) 0.27318(8)
N1 N 0.99200(16) 0.72094(10) -0.00086(7)
H1 H 0.8936 0.7277 -0.0043
N2 N 0.93367(17) 0.51720(11) 0.02981(6)
H2 H 0.9220 0.5751 0.0516
N3 N 0.66077(19) 0.52530(14) 0.19084(7)
C1 C 1.06499(19) 0.78663(13) 0.03684(8)
C2 C 1.0655(2) 0.63972(13) -0.03626(8)
H3 H 1.1757 0.6451 -0.0296
H4 H 1.0463 0.6535 -0.0800
C3 C 1.01592(19) 0.52715(14) -0.02168(8)
C4 C 0.8650(2) 0.42637(13) 0.05264(8)
C5 C 0.7759(2) 0.42940(14) 0.10459(9)
C6 C 0.7915(3) 0.25260(15) 0.05650(10)
H5 H 0.7833 0.1806 0.0446
C7 C 0.8747(2) 0.32471(14) 0.02561(9)
H6 H 0.9324 0.3091 -0.0098
C8 C 0.7452(2) 0.52639(15) 0.13952(8)
C9 C 0.6365(2) 0.62627(18) 0.22179(10)
H7 H 0.6026 0.6814 0.1921
C10 C 0.5092(3) 0.5999(3) 0.26741(12)
H8 H 0.5172 0.6441 0.3045
H9 H 0.4088 0.6111 0.2487
C11 C 0.5336(3) 0.4850(2) 0.28220(11)
H10 H 0.4384 0.4513 0.2956
H11 H 0.6101 0.4767 0.3148
C12 C 0.5887(2) 0.43673(19) 0.22277(9)
H12 H 0.6619 0.3792 0.2306
H13 H 0.5034 0.4082 0.1987
C13 C 0.7792(2) 0.66132(17) 0.25434(8)
C14 C 0.8830(3) 0.8019(2) 0.31325(11)
H14 H 0.9694 0.8277 0.2889
H15 H 0.9191 0.7460 0.3413
C15 C 0.8130(2) 0.89068(15) 0.34835(8)
C16 C 0.7178(3) 0.86633(19) 0.39552(9)
H16 H 0.7036 0.7942 0.4062
C17 C 0.6440(3) 0.9406(3) 0.42712(13)
H17 H 0.5782 0.9210 0.4594
C18 C 0.6636(4) 1.0428(3) 0.41295(17)
H18 H 0.6102 1.0953 0.4352
C19 C 0.7606(5) 1.0735(2) 0.36633(19)
H19 H 0.7746 1.1462 0.3569
C20 C 0.8383(3) 0.99365(19) 0.33315(11)
H20 H 0.9060 1.0116 0.3012
C21 C 1.0173(2) 0.92485(14) 0.11252(8)
C22 C 1.0948(3) 0.86359(17) 0.16303(9)
H21 H 1.0336 0.8019 0.1739
H22 H 1.1067 0.9092 0.1989
H23 H 1.1943 0.8401 0.1490
C23 C 0.8699(2) 0.97045(18) 0.13585(10)
H24 H 0.8145 1.0027 0.1019
H25 H 0.8909 1.0243 0.1669
H26 H 0.8089 0.9138 0.1538
C24 C 1.1172(3) 1.00960(16) 0.08545(9)
H27 H 1.2093 0.9772 0.0693
H28 H 1.1438 1.0610 0.1171
H29 H 1.0633 1.0455 0.0524
loop_
_geom_bond_atom_site_label_1
_geom_bond_atom_site_label_2
_geom_bond_site_symmetry_1
_geom_bond_site_symmetry_2
S1 C5 1_555 1_555
O1 C1 1_555 1_555
O2 C1 1_555 1_555
O3 C3 1_555 1_555
O4 C8 1_555 1_555
O5 C13 1_555 1_555
O6 C13 1_555 1_555
N1 H1 1_555 1_555
N2 H2 1_555 1_555
N3 C8 1_555 1_555
C1 N1 1_555 1_555
C2 N1 1_555 1_555
H3 C2 1_555 1_555
H4 C2 1_555 1_555
C3 N2 1_555 1_555
C4 N2 1_555 1_555
C5 C4 1_555 1_555
C6 S1 1_555 1_555
H5 C6 1_555 1_555
C7 C4 1_555 1_555
H6 C7 1_555 1_555
C8 C5 1_555 1_555
C9 N3 1_555 1_555
H7 C9 1_555 1_555
C10 C9 1_555 1_555
H8 C10 1_555 1_555
H9 C10 1_555 1_555
C11 C10 1_555 1_555
H10 C11 1_555 1_555
H11 C11 1_555 1_555
C12 N3 1_555 1_555
H12 C12 1_555 1_555
H13 C12 1_555 1_555
C13 C9 1_555 1_555
C14 O6 1_555 1_555
H14 C14 1_555 1_555
H15 C14 1_555 1_555
C15 C14 1_555 1_555
C16 C15 1_555 1_555
H16 C16 1_555 1_555
C17 C16 1_555 1_555
H17 C17 1_555 1_555
C18 C17 1_555 1_555
H18 C18 1_555 1_555
C19 C18 1_555 1_555
H19 C19 1_555 1_555
C20 C15 1_555 1_555
H20 C20 1_555 1_555
C21 O1 1_555 1_555
C22 C21 1_555 1_555
H21 C22 1_555 1_555
H22 C22 1_555 1_555
H23 C22 1_555 1_555
C23 C21 1_555 1_555
H24 C23 1_555 1_555
H25 C23 1_555 1_555
H26 C23 1_555 1_555
C24 C21 1_555 1_555
H27 C24 1_555 1_555
H28 C24 1_555 1_555
H29 C24 1_555 1_555
C2 C3 1_555 1_555
C6 C7 1_555 1_555
C11 C12 1_555 1_555
C19 C20 1_555 1_555

#END
