
#######################################################################
#
#                 Cambridge Crystallographic Data Centre
#                                CCDC 
#
#######################################################################
#
# If this CIF has been generated from an entry in the Cambridge 
# Structural Database, then it will include bibliographic, chemical, 
# crystal, experimental, refinement or atomic coordinate data resulting 
# from the CCDC's data processing and validation procedures.
#
#######################################################################

data_AWIVOR
_chemical_formula_moiety         'C14 H10 S8 Se4'
_chemical_name_systematic        
(2-(4',5'-bis(Selenomethyl)-1',3'-diseleno-2'-ylidene)-5-(4'',5''-ethylenedithio-1'',3''-dithiol-2''-ylidene)-1,3,4,6-tetrathiapentalene)
_symmetry_cell_setting           triclinic
_symmetry_space_group_name_H-M   'P -1'
_symmetry_Int_Tables_number      2
_space_group_name_Hall           '-P 1'
loop_
_symmetry_equiv_pos_site_id
_symmetry_equiv_pos_as_xyz
1 x,y,z
2 -x,-y,-z
_cell_length_a                   11.440(3)
_cell_length_b                   28.79(1)
_cell_length_c                   7.471(2)
_cell_angle_alpha                94.97(2)
_cell_angle_beta                 102.93(2)
_cell_angle_gamma                101.18(2)
_cell_volume                     2330.87
_exptl_crystal_colour            red
_exptl_crystal_description       needle
_chemical_melting_point          220-221deg.C(dec)
_cell_formula_units_Z            4
_exptl_crystal_recrystallization_method 'carbon disulfide/hexane'
loop_
_atom_site_label
_atom_site_type_symbol
_atom_site_fract_x
_atom_site_fract_y
_atom_site_fract_z
Se1 Se 0.5395(2) 0.47912(8) 1.2950(3)
Se2 Se 0.8084(2) 0.45157(7) 1.4696(3)
Se3 Se 0.4839(2) 0.38977(8) 0.9578(3)
Se4 Se 0.7393(2) 0.36264(7) 1.1351(3)
S1 S 0.4585(5) 0.3124(2) 0.5851(7)
S2 S 0.6975(5) 0.2879(2) 0.7546(7)
S3 S 0.4621(5) 0.2637(2) 0.2068(7)
S4 S 0.7026(5) 0.2404(2) 0.3742(7)
S5 S 0.4480(5) 0.1947(2) -0.1748(7)
S6 S 0.6893(5) 0.1748(2) -0.0022(7)
S7 S 0.4244(5) 0.1438(2) -0.5446(7)
S8 S 0.7108(5) 0.1189(2) -0.3378(8)
C1 C 0.370(2) 0.4705(9) 1.146(4)
C2 C 0.737(2) 0.4153(8) 1.638(3)
C3 C 0.591(2) 0.4272(6) 1.176(2)
C4 C 0.700(2) 0.4173(7) 1.249(3)
C5 C 0.599(2) 0.3518(6) 0.930(2)
C6 C 0.586(2) 0.3216(6) 0.780(2)
C7 C 0.527(1) 0.2833(6) 0.434(2)
C8 C 0.633(2) 0.2717(6) 0.516(2)
C9 C 0.578(2) 0.2323(6) 0.177(2)
C10 C 0.571(2) 0.2045(6) 0.022(2)
C11 C 0.516(2) 0.1621(7) -0.312(3)
C12 C 0.622(2) 0.1551(6) -0.242(2)
C13 C 0.518(3) 0.112(1) -0.646(5)
C14 C 0.603(3) 0.090(1) -0.557(5)
H1 H 0.3133 0.4684 1.2269
H2 H 0.3602 0.4971 1.0808
H3 H 0.3462 0.4420 1.0611
H4 H 0.7681 0.4316 1.7627
H5 H 0.6504 0.4105 1.6060
H6 H 0.7586 0.3846 1.6366
H7 H 0.4614 0.0883 -0.7434
H8 H 0.5620 0.1349 -0.7113
H9 H 0.6510 0.0832 -0.6460
H10 H 0.5578 0.0600 -0.5400
Se5 Se 1.1691(2) 0.09476(8) -0.3600(3)
Se6 Se 0.8990(3) 0.02550(9) -0.3393(3)
Se7 Se 1.1852(2) 0.15251(7) 0.0355(3)
Se8 Se 0.9260(2) 0.09062(8) 0.0600(3)
S9 S 1.1925(5) 0.2161(2) 0.4381(7)
S10 S 0.9441(5) 0.1603(2) 0.4381(7)
S11 S 1.2057(4) 0.2743(2) 0.8072(7)
S12 S 0.9532(5) 0.2201(2) 0.8032(7)
S13 S 1.2182(5) 0.3359(2) 1.1939(7)
S14 S 0.9692(4) 0.2822(2) 1.1931(7)
S15 S 1.2494(5) 0.4025(2) 1.5303(8)
S16 S 0.9573(5) 0.3359(2) 1.5378(7)
C15 C 1.290(2) 0.0614(7) -0.237(3)
C16 C 0.818(2) -0.0159(9) -0.191(4)
C17 C 1.099(2) 0.1028(6) -0.158(2)
C18 C 0.988(2) 0.0769(7) -0.150(3)
C19 C 1.064(2) 0.1420(6) 0.171(2)
C20 C 1.067(2) 0.1695(6) 0.319(2)
C21 C 1.126(2) 0.2307(6) 0.621(2)
C22 C 1.015(2) 0.2066(7) 0.624(3)
C23 C 1.081(2) 0.2658(7) 0.917(3)
C24 C 1.087(2) 0.2904(6) 1.084(2)
C25 C 1.156(1) 0.3525(6) 1.376(2)
C26 C 1.043(1) 0.3281(6) 1.379(2)
C27 C 1.136(2) 0.4211(8) 1.643(3)
C28 C 1.064(2) 0.3824(8) 1.715(3)
H11 H 1.2891 0.0610 -0.1095
H12 H 1.2736 0.0291 -0.2951
H13 H 1.3712 0.0769 -0.2424
H14 H 0.8428 -0.0028 -0.0623
H15 H 0.7307 -0.0209 -0.2308
H16 H 0.8389 -0.0469 -0.1999
H17 H 1.1801 0.4467 1.7417
H18 H 1.0820 0.4343 1.5540
H19 H 1.0176 0.3962 1.7907
H20 H 1.1201 0.3677 1.7956
loop_
_geom_bond_atom_site_label_1
_geom_bond_atom_site_label_2
_geom_bond_site_symmetry_1
_geom_bond_site_symmetry_2
Se1 C1 1_555 1_555
Se2 C2 1_555 1_555
Se3 C3 1_555 1_555
Se4 C4 1_555 1_555
Se5 C15 1_555 1_555
Se6 C16 1_555 1_555
Se7 C17 1_555 1_555
Se8 C18 1_555 1_555
S1 C6 1_555 1_555
S2 C6 1_555 1_555
S3 C7 1_555 1_555
S4 C8 1_555 1_555
S5 C10 1_555 1_555
S6 C10 1_555 1_555
S7 C11 1_555 1_555
S8 C12 1_555 1_555
S9 C20 1_555 1_555
S10 C20 1_555 1_555
S11 C21 1_555 1_555
S12 C22 1_555 1_555
S13 C24 1_555 1_555
S14 C24 1_555 1_555
S15 C25 1_555 1_555
S16 C26 1_555 1_555
C1 H1 1_555 1_555
C2 H4 1_555 1_555
C3 Se1 1_555 1_555
C4 Se2 1_555 1_555
C5 Se3 1_555 1_555
C6 C5 1_555 1_555
C7 S1 1_555 1_555
C8 S2 1_555 1_555
C9 S3 1_555 1_555
C10 C9 1_555 1_555
C11 S5 1_555 1_555
C12 S6 1_555 1_555
C13 S7 1_555 1_555
C14 S8 1_555 1_555
C15 H11 1_555 1_555
C16 H14 1_555 1_555
C17 Se5 1_555 1_555
C18 Se6 1_555 1_555
C19 Se7 1_555 1_555
C20 C19 1_555 1_555
C21 S9 1_555 1_555
C22 S10 1_555 1_555
C23 S11 1_555 1_555
C24 C23 1_555 1_555
C25 S13 1_555 1_555
C26 S14 1_555 1_555
C27 S15 1_555 1_555
C28 S16 1_555 1_555
H2 C1 1_555 1_555
H3 C1 1_555 1_555
H5 C2 1_555 1_555
H6 C2 1_555 1_555
H7 C13 1_555 1_555
H8 C13 1_555 1_555
H9 C14 1_555 1_555
H10 C14 1_555 1_555
H12 C15 1_555 1_555
H13 C15 1_555 1_555
H15 C16 1_555 1_555
H16 C16 1_555 1_555
H17 C27 1_555 1_555
H18 C27 1_555 1_555
H19 C28 1_555 1_555
H20 C28 1_555 1_555
Se4 C5 1_555 1_555
Se8 C19 1_555 1_555
S4 C9 1_555 1_555
S12 C23 1_555 1_555
C3 C4 1_555 1_555
C7 C8 1_555 1_555
C11 C12 1_555 1_555
C13 C14 1_555 1_555
C17 C18 1_555 1_555
C21 C22 1_555 1_555
C25 C26 1_555 1_555
C27 C28 1_555 1_555

#END
