
#######################################################################
#
#                 Cambridge Crystallographic Data Centre
#                                CCDC 
#
#######################################################################
#
# If this CIF has been generated from an entry in the Cambridge 
# Structural Database, then it will include bibliographic, chemical, 
# crystal, experimental, refinement or atomic coordinate data resulting 
# from the CCDC's data processing and validation procedures.
#
#######################################################################

data_AWOMEE
_chemical_formula_moiety         'C27 H25 N3 O7'
_chemical_name_systematic        
2-Azido-4-O-benzyl-2-deoxy-3,6-di-O-benzoyl-\b-D-glucopyranose
_symmetry_cell_setting           monoclinic
_symmetry_space_group_name_H-M   'P 21'
_symmetry_Int_Tables_number      4
_space_group_name_Hall           'P 2yb'
loop_
_symmetry_equiv_pos_site_id
_symmetry_equiv_pos_as_xyz
1 x,y,z
2 -x,1/2+y,-z
_cell_length_a                   11.4107(12)
_cell_length_b                   9.5954(13)
_cell_length_c                   12.5701(14)
_cell_angle_alpha                90
_cell_angle_beta                 110.145(9)
_cell_angle_gamma                90
_cell_volume                     1292.11
_exptl_crystal_colour            colorless
_cell_formula_units_Z            2
loop_
_atom_site_label
_atom_site_type_symbol
_atom_site_fract_x
_atom_site_fract_y
_atom_site_fract_z
O1 O -0.7542(5) -0.5433(7) -0.4296(4)
O2 O -0.8907(4) -0.9350(7) -0.2718(4)
O3 O -0.6540(5) -1.0544(7) -0.2307(4)
O4 O -0.6417(4) -0.7450 -0.3959(4)
O5 O -0.5777(4) -1.0143(7) -0.4633(4)
O6 O -0.8317(6) -0.9332(9) -0.0840(5)
O7 O -0.4714(5) -0.9267(8) -0.5678(5)
N1 N -0.9010(7) -0.6400(10) -0.2989(6)
N2 N -0.9681(7) -0.5500(11) -0.3661(6)
N3 N -1.0306(9) -0.4623(13) -0.4142(9)
C1 C -0.7164(7) -0.6524(9) -0.3550(6)
C2 C -0.8284(6) -0.7293(10) -0.3483(6)
C3 C -0.7881(6) -0.8520(9) -0.2726(5)
C4 C -0.7006(7) -0.9455(9) -0.3106(5)
C5 C -0.5909(6) -0.8574(9) -0.3188(6)
C6 C -0.5069(7) -0.9375(11) -0.3643(6)
C7 C -0.8977(7) -0.9714(10) -0.1705(6)
C8 C -1.0093(8) -1.0654(10) -0.1865(7)
C9 C -1.0839(8) -1.1130(11) -0.2872(8)
C10 C -1.1799(12) -1.2033(14) -0.2935(11)
C11 C -1.1962(16) -1.2438(13) -0.1937(17)
C12 C -1.1217(10) -1.1969(14) -0.0904(9)
C13 C -1.0343(10) -1.1093(11) -0.0924(8)
C14 C -0.6809(13) -1.1912(10) -0.2770(7)
C15 C -0.6552(9) -1.2916(10) -0.1803(6)
C16 C -0.5449(9) -1.3343(13) -0.1202(9)
C17 C -0.5261(14) -1.4297(15) -0.0303(9)
C18 C -0.6207(14) -1.4792(16) -0.0067(11)
C19 C -0.7315(16) -1.4429(15) -0.0641(11)
C20 C -0.7592(10) -1.3452(12) -0.1566(8)
C21 C -0.5530(8) -0.9990(10) -0.5581(7)
C22 C -0.6431(7) -1.0841(10) -0.6540(6)
C23 C -0.7331(7) -1.1647(10) -0.6360(7)
C24 C -0.8106(9) -1.2447(12) -0.7231(11)
C25 C -0.7940(12) -1.2450(14) -0.8275(10)
C26 C -0.6954(9) -1.1632(13) -0.8417(8)
C27 C -0.6287(8) -1.0843(10) -0.7575(8)
H1 H -0.687 -0.509 -0.433
H2 H -0.663 -0.603 -0.285
H3 H -0.877 -0.761 -0.427
H4 H -0.738 -0.830 -0.192
H5 H -0.751 -0.983 -0.387
H6 H -0.540 -0.834 -0.239
H7 H -0.450 -0.873 -0.386
H8 H -0.454 -1.004 -0.306
H9 H -1.069 -1.085 -0.358
H10 H -1.240 -1.232 -0.369
H11 H -1.266 -1.311 -0.204
H12 H -1.131 -1.232 -0.019
H13 H -0.987 -1.066 -0.018
H14 H -0.771 -1.185 -0.326
H15 H -0.635 -1.199 -0.332
H16 H -0.472 -1.301 -0.139
H17 H -0.441 -1.460 0.019
H18 H -0.608 -1.547 0.057
H19 H -0.801 -1.488 -0.046
H20 H -0.847 -1.316 -0.198
H21 H -0.734 -1.154 -0.557
H22 H -0.879 -1.300 -0.711
H23 H -0.854 -1.306 -0.885
H24 H -0.680 -1.163 -0.915
H25 H -0.558 -1.026 -0.762
loop_
_geom_bond_atom_site_label_1
_geom_bond_atom_site_label_2
_geom_bond_site_symmetry_1
_geom_bond_site_symmetry_2
O1 C1 1_555 1_555
O2 C3 1_555 1_555
O3 C4 1_555 1_555
O4 C1 1_555 1_555
O5 C6 1_555 1_555
O6 C7 1_555 1_555
O7 C21 1_555 1_555
N1 N2 1_555 1_555
N2 N3 1_555 1_555
C1 C2 1_555 1_555
C2 N1 1_555 1_555
C3 C2 1_555 1_555
C4 C3 1_555 1_555
C5 O4 1_555 1_555
C6 C5 1_555 1_555
C7 O2 1_555 1_555
C8 C7 1_555 1_555
C9 C8 1_555 1_555
C10 C9 1_555 1_555
C11 C10 1_555 1_555
C12 C11 1_555 1_555
C13 C8 1_555 1_555
C14 O3 1_555 1_555
C15 C14 1_555 1_555
C16 C15 1_555 1_555
C17 C16 1_555 1_555
C18 C17 1_555 1_555
C19 C18 1_555 1_555
C20 C15 1_555 1_555
C21 O5 1_555 1_555
C22 C21 1_555 1_555
C23 C22 1_555 1_555
C24 C23 1_555 1_555
C25 C24 1_555 1_555
C26 C25 1_555 1_555
C27 C22 1_555 1_555
H1 O1 1_555 1_555
H2 C1 1_555 1_555
H3 C2 1_555 1_555
H4 C3 1_555 1_555
H5 C4 1_555 1_555
H6 C5 1_555 1_555
H7 C6 1_555 1_555
H8 C6 1_555 1_555
H9 C9 1_555 1_555
H10 C10 1_555 1_555
H11 C11 1_555 1_555
H12 C12 1_555 1_555
H13 C13 1_555 1_555
H14 C14 1_555 1_555
H15 C14 1_555 1_555
H16 C16 1_555 1_555
H17 C17 1_555 1_555
H18 C18 1_555 1_555
H19 C19 1_555 1_555
H20 C20 1_555 1_555
H21 C23 1_555 1_555
H22 C24 1_555 1_555
H23 C25 1_555 1_555
H24 C26 1_555 1_555
H25 C27 1_555 1_555
C4 C5 1_555 1_555
C12 C13 1_555 1_555
C19 C20 1_555 1_555
C26 C27 1_555 1_555

#END
