
#######################################################################
#
#                 Cambridge Crystallographic Data Centre
#                                CCDC 
#
#######################################################################
#
# If this CIF has been generated from an entry in the Cambridge 
# Structural Database, then it will include bibliographic, chemical, 
# crystal, experimental, refinement or atomic coordinate data resulting 
# from the CCDC's data processing and validation procedures.
#
#######################################################################

data_AWOMII
_chemical_formula_moiety         'C24 H26 O12,C1 H1 Cl3'
_chemical_name_systematic        
'(4-Methylcoumarin-7-yl)-2,3,4,6-tetra-O-acetyl-\a-L-idopyranoside chloroform solvate'
_symmetry_cell_setting           monoclinic
_symmetry_space_group_name_H-M   'P 21'
_symmetry_Int_Tables_number      4
_space_group_name_Hall           'P 2yb'
loop_
_symmetry_equiv_pos_site_id
_symmetry_equiv_pos_as_xyz
1 x,y,z
2 -x,1/2+y,-z
_cell_length_a                   8.2507(3)
_cell_length_b                   9.8102(4)
_cell_length_c                   17.7050(6)
_cell_angle_alpha                90
_cell_angle_beta                 91.7180(10)
_cell_angle_gamma                90
_cell_volume                     1432.42
_exptl_crystal_colour            colorless
_cell_formula_units_Z            2
loop_
_atom_site_label
_atom_site_type_symbol
_atom_site_fract_x
_atom_site_fract_y
_atom_site_fract_z
O1 O 0.1893(3) 0.6422(3) -0.1286(2)
O2 O 0.0452(4) 0.5483(3) -0.3155(2)
O3 O 0.4374(4) 0.6627(3) -0.2460(2)
O4 O 0.2889(3) 0.3388(3) -0.3152(2)
O5 O 0.1670(3) 0.4187(3) -0.1735(2)
O6 O 0.3614(4) 0.2551(3) -0.0782(2)
O7 O 0.2310(4) 0.8159(3) 0.1171(2)
O8 O 0.2441(4) 0.9190(4) 0.2269(2)
O9 O -0.1422(4) 0.7072(4) -0.2896(2)
O10 O 0.5106(4) 0.2121(4) -0.3318(2)
O11 O 0.3702(5) 0.0282(4) -0.0778(2)
O12 O 0.3746(6) 0.8291(4) -0.3271(2)
C1 C 0.1140(5) 0.5541(5) -0.1824(2)
H1 H -0.0059(5) 0.5571(5) -0.1760(2)
C2 C 0.1517(6) 0.6088(5) -0.2603(3)
H2 H 0.1359(6) 0.7099(5) -0.2609(3)
C3 C 0.3216(5) 0.5760(5) -0.2857(3)
H3 H 0.3285(5) 0.5900(5) -0.3415(3)
C4 C 0.3768(5) 0.4298(5) -0.2644(2)
H4 H 0.4962(5) 0.4199(5) -0.2711(2)
C5 C 0.3365(5) 0.3998(5) -0.1846(3)
H5 H 0.3985(5) 0.4639(5) -0.1507(3)
C6 C 0.3724(6) 0.2545(5) -0.1591(3)
H6 H 0.2924(6) 0.1904(5) -0.1821(3)
H7 H 0.4823(6) 0.2267(5) -0.1739(3)
C7 C 0.1544(5) 0.6208(5) -0.0532(2)
C8 C 0.2122(5) 0.7219(4) -0.0037(2)
H8 H 0.2734(5) 0.7966(4) -0.0217(2)
C9 C 0.1788(5) 0.7106(5) 0.0707(3)
C10 C 0.1980(5) 0.8196(5) 0.1925(2)
C11 C 0.1144(6) 0.7038(5) 0.2240(3)
H9 H 0.0950(6) 0.7019(5) 0.2766(3)
C12 C 0.0635(5) 0.5985(5) 0.1804(2)
C13 C 0.0925(5) 0.6010(5) 0.1015(3)
C14 C 0.0429(5) 0.4998(5) 0.0499(3)
H10 H -0.0131(5) 0.4223(5) 0.0679(3)
C15 C 0.0725(5) 0.5092(5) -0.0261(3)
H11 H 0.0367(5) 0.4392(5) -0.0597(3)
C16 C -0.0277(6) 0.4806(5) 0.2144(3)
H12 H -0.0552(6) 0.4139(5) 0.1749(3)
H13 H -0.1275(6) 0.5145(5) 0.2365(3)
H14 H 0.0405(6) 0.4373(5) 0.2538(3)
C17 C -0.1019(6) 0.6098(5) -0.3271(3)
C18 C -0.1990(6) 0.5430(6) -0.3875(3)
H15 H -0.1373(6) 0.4671(6) -0.4083(3)
H16 H -0.2245(6) 0.6091(6) -0.4277(3)
H17 H -0.2999(6) 0.5084(6) -0.3669(3)
C19 C 0.4489(7) 0.7932(5) -0.2726(3)
C20 C 0.5602(7) 0.8755(5) -0.2259(3)
H18 H 0.6050(7) 0.8198(5) -0.1844(3)
H19 H 0.5017(7) 0.9534(5) -0.2053(3)
H20 H 0.6487(7) 0.9085(5) -0.2568(3)
C21 C 0.3695(7) 0.2342(5) -0.3461(3)
C22 C 0.2629(6) 0.1524(6) -0.3971(3)
H21 H 0.1538(6) 0.1920(6) -0.3989(3)
H22 H 0.2576(6) 0.0586(6) -0.3782(3)
H23 H 0.3066(6) 0.1522(6) -0.4479(3)
C23 C 0.3628(5) 0.1327(6) -0.0435(3)
C24 C 0.3494(6) 0.1492(6) 0.0393(3)
H24 H 0.3456(6) 0.2464(6) 0.0518(3)
H25 H 0.4436(6) 0.1073(6) 0.0651(3)
H26 H 0.2501(6) 0.1047(6) 0.0558(3)
C25 C 0.2867(8) 0.5368(7) 0.4482(3)
H27 H 0.3329(8) 0.5630(7) 0.3986(3)
Cl1 Cl 0.1131(3) 0.4388(2) 0.43206(13)
Cl2 Cl 0.2322(4) 0.6837(2) 0.49679(13)
Cl3 Cl 0.4308(2) 0.4442(3) 0.50089(11)
loop_
_geom_bond_atom_site_label_1
_geom_bond_atom_site_label_2
_geom_bond_site_symmetry_1
_geom_bond_site_symmetry_2
O1 C1 1_555 1_555
O2 C2 1_555 1_555
O3 C3 1_555 1_555
O4 C4 1_555 1_555
O5 C1 1_555 1_555
O6 C6 1_555 1_555
O7 C9 1_555 1_555
O8 C10 1_555 1_555
O9 C17 1_555 1_555
O10 C21 1_555 1_555
O11 C23 1_555 1_555
O12 C19 1_555 1_555
C1 H1 1_555 1_555
C2 C1 1_555 1_555
H2 C2 1_555 1_555
C3 C2 1_555 1_555
H3 C3 1_555 1_555
C4 C3 1_555 1_555
H4 C4 1_555 1_555
C5 O5 1_555 1_555
H5 C5 1_555 1_555
C6 C5 1_555 1_555
H6 C6 1_555 1_555
H7 C6 1_555 1_555
C7 O1 1_555 1_555
C8 C7 1_555 1_555
H8 C8 1_555 1_555
C9 C8 1_555 1_555
C10 O7 1_555 1_555
C11 C10 1_555 1_555
H9 C11 1_555 1_555
C12 C11 1_555 1_555
C13 C9 1_555 1_555
C14 C13 1_555 1_555
H10 C14 1_555 1_555
C15 C7 1_555 1_555
H11 C15 1_555 1_555
C16 C12 1_555 1_555
H12 C16 1_555 1_555
H13 C16 1_555 1_555
H14 C16 1_555 1_555
C17 O2 1_555 1_555
C18 C17 1_555 1_555
H15 C18 1_555 1_555
H16 C18 1_555 1_555
H17 C18 1_555 1_555
C19 O3 1_555 1_555
C20 C19 1_555 1_555
H18 C20 1_555 1_555
H19 C20 1_555 1_555
H20 C20 1_555 1_555
C21 O4 1_555 1_555
C22 C21 1_555 1_555
H21 C22 1_555 1_555
H22 C22 1_555 1_555
H23 C22 1_555 1_555
C23 O6 1_555 1_555
C24 C23 1_555 1_555
H24 C24 1_555 1_555
H25 C24 1_555 1_555
H26 C24 1_555 1_555
C25 H27 1_555 1_555
Cl1 C25 1_555 1_555
Cl2 C25 1_555 1_555
Cl3 C25 1_555 1_555
C4 C5 1_555 1_555
C12 C13 1_555 1_555
C14 C15 1_555 1_555

#END
