
#######################################################################
#
#                 Cambridge Crystallographic Data Centre
#                                CCDC 
#
#######################################################################
#
# If this CIF has been generated from an entry in the Cambridge 
# Structural Database, then it will include bibliographic, chemical, 
# crystal, experimental, refinement or atomic coordinate data resulting 
# from the CCDC's data processing and validation procedures.
#
#######################################################################

data_AWULIP
_chemical_formula_moiety         'C30 H14 B1 F18 N1'
_chemical_name_systematic        
6,6-bis(2,4,6-tris(trifluoromethyl)phenyl)-6,7-dihydro-5,6-pyrido[2,1-a][2,3]benzazaborinine
_symmetry_cell_setting           triclinic
_symmetry_space_group_name_H-M   'P -1'
_symmetry_Int_Tables_number      2
_space_group_name_Hall           '-P 1'
loop_
_symmetry_equiv_pos_site_id
_symmetry_equiv_pos_as_xyz
1 x,y,z
2 -x,-y,-z
_cell_length_a                   10.8184(6)
_cell_length_b                   11.8123(6)
_cell_length_c                   12.9256(6)
_cell_angle_alpha                76.622(3)
_cell_angle_beta                 67.526(3)
_cell_angle_gamma                70.094(3)
_cell_volume                     1425.35
_exptl_crystal_colour            colorless
_exptl_crystal_description       plate
_cell_formula_units_Z            2
loop_
_atom_site_label
_atom_site_type_symbol
_atom_site_fract_x
_atom_site_fract_y
_atom_site_fract_z
B1 B 0.1484(2) 0.22781(16) 0.70974(15)
N1 N 0.19578(15) 0.21732(11) 0.57523(11)
F1 F -0.03917(15) -0.07671(12) 0.75408(14)
F2 F 0.12730(13) -0.00022(9) 0.65354(10)
F3 F 0.11312(14) -0.08118(10) 0.82322(11)
F4 F -0.04671(11) 0.47041(9) 0.66831(9)
F5 F -0.10065(12) 0.49619(9) 0.84168(10)
F6 F -0.25963(11) 0.52282(9) 0.77147(11)
F7 F -0.4064(3) 0.1511(3) 1.11486(18)
F8 F -0.4591(4) 0.0966(3) 0.9988(3)
F9 F -0.5215(2) 0.2825(2) 1.0216(4)
F10 F 0.02794(13) 0.34181(10) 1.03751(8)
F11 F 0.03919(11) 0.20311(9) 0.95197(8)
F12 F 0.21182(12) 0.19235(10) 0.99908(9)
F13 F 0.17024(12) 0.43991(9) 0.50021(8)
F14 F 0.37579(12) 0.44359(12) 0.46808(9)
F15 F 0.20252(14) 0.59746(9) 0.52022(9)
F16 F 0.4208(2) 0.51986(18) 0.9061(2)
F17 F 0.26172(18) 0.67169(16) 0.8762(2)
F18 F 0.4531(3) 0.6192(3) 0.74331(15)
C1 C 0.26611(18) 0.11209(14) 0.74680(14)
H1 H 0.2489 0.1062 0.8270
H2 H 0.2616 0.0374 0.7311
C2 C 0.40726(18) 0.13077(14) 0.68109(14)
C3 C 0.5056(2) 0.11937(16) 0.72935(17)
H3 H 0.4848 0.0999 0.8069
C4 C 0.6346(2) 0.13646(19) 0.66386(19)
H4 H 0.6993 0.1296 0.6977
C5 C 0.6675(2) 0.16372(18) 0.54843(19)
H5 H 0.7549 0.1736 0.5043
C6 C 0.5707(2) 0.17618(16) 0.49886(16)
H6 H 0.5930 0.1946 0.4211
C7 C 0.43946(18) 0.16134(14) 0.56442(14)
C8 C 0.33383(18) 0.17932(14) 0.51228(14)
C9 C 0.3701(2) 0.16092(15) 0.40068(14)
H7 H 0.4636 0.1339 0.3581
C10 C 0.2701(2) 0.18190(17) 0.35250(15)
H8 H 0.2954 0.1691 0.2779
C11 C 0.1318(2) 0.22221(16) 0.41600(15)
H9 H 0.0622 0.2384 0.3848
C12 C 0.0990(2) 0.23795(15) 0.52651(14)
H10 H 0.0055 0.2641 0.5696
C13 C -0.01685(18) 0.22005(14) 0.76982(13)
C14 C -0.05326(19) 0.10832(14) 0.80304(14)
C15 C -0.18016(19) 0.09680(15) 0.88080(15)
H11 H -0.1953 0.0206 0.9035
C16 C -0.28403(18) 0.19650(15) 0.92492(14)
C17 C -0.26243(18) 0.30894(15) 0.88358(14)
H12 H -0.3346 0.3781 0.9064
C18 C -0.13412(17) 0.32045(14) 0.80811(13)
C19 C -0.13349(18) 0.45133(15) 0.77216(15)
C20 C -0.4184(2) 0.18301(18) 1.01277(17)
C21 C 0.0386(2) -0.01105(17) 0.75850(18)
C22 C 0.18154(16) 0.34499(13) 0.73806(12)
C23 C 0.23871(16) 0.43640(13) 0.66036(13)
C24 C 0.29877(17) 0.50703(14) 0.68897(13)
H13 H 0.3394 0.5621 0.6338
C25 C 0.29924(17) 0.49704(15) 0.79661(14)
C26 C 0.23464(17) 0.41786(15) 0.87760(13)
H14 H 0.2289 0.4133 0.9520
C27 C 0.17801(17) 0.34468(14) 0.84989(13)
C28 C 0.11322(19) 0.26971(15) 0.95708(14)
C29 C 0.24532(18) 0.47597(14) 0.53855(14)
C30 C 0.3590(2) 0.57579(17) 0.82770(15)
F19? F -0.462(2) 0.239(3) 1.0904(17)
F20? F -0.4234(17) 0.0762(11) 1.040(2)
F21? F -0.5135(9) 0.2243(18) 0.9633(8)
F22? F 0.3302(14) 0.6820(7) 0.7732(10)
F23? F 0.4947(9) 0.5257(10) 0.7824(9)
F24? F 0.3317(14) 0.5673(12) 0.9260(6)
loop_
_geom_bond_atom_site_label_1
_geom_bond_atom_site_label_2
_geom_bond_site_symmetry_1
_geom_bond_site_symmetry_2
B1 N1 1_555 1_555
N1 C8 1_555 1_555
F1 C21 1_555 1_555
F2 C21 1_555 1_555
F3 C21 1_555 1_555
F4 C19 1_555 1_555
F5 C19 1_555 1_555
F6 C19 1_555 1_555
F7 C20 1_555 1_555
F8 C20 1_555 1_555
F9 C20 1_555 1_555
F10 C28 1_555 1_555
F11 C28 1_555 1_555
F12 C28 1_555 1_555
F13 C29 1_555 1_555
F14 C29 1_555 1_555
F15 C29 1_555 1_555
F16 C30 1_555 1_555
F17 C30 1_555 1_555
F18 C30 1_555 1_555
C1 B1 1_555 1_555
H1 C1 1_555 1_555
H2 C1 1_555 1_555
C2 C1 1_555 1_555
C3 C2 1_555 1_555
H3 C3 1_555 1_555
C4 C3 1_555 1_555
H4 C4 1_555 1_555
C5 C4 1_555 1_555
H5 C5 1_555 1_555
C6 C5 1_555 1_555
H6 C6 1_555 1_555
C7 C2 1_555 1_555
C8 C7 1_555 1_555
C9 C8 1_555 1_555
H7 C9 1_555 1_555
C10 C9 1_555 1_555
H8 C10 1_555 1_555
C11 C10 1_555 1_555
H9 C11 1_555 1_555
C12 N1 1_555 1_555
H10 C12 1_555 1_555
C13 B1 1_555 1_555
C14 C13 1_555 1_555
C15 C14 1_555 1_555
H11 C15 1_555 1_555
C16 C15 1_555 1_555
C17 C16 1_555 1_555
H12 C17 1_555 1_555
C18 C13 1_555 1_555
C19 C18 1_555 1_555
C20 C16 1_555 1_555
C21 C14 1_555 1_555
C22 B1 1_555 1_555
C23 C22 1_555 1_555
C24 C23 1_555 1_555
H13 C24 1_555 1_555
C25 C24 1_555 1_555
C26 C25 1_555 1_555
H14 C26 1_555 1_555
C27 C22 1_555 1_555
C28 C27 1_555 1_555
C29 C23 1_555 1_555
C30 C25 1_555 1_555
C6 C7 1_555 1_555
C11 C12 1_555 1_555
C17 C18 1_555 1_555
C26 C27 1_555 1_555

#END
