
#######################################################################
#
#                 Cambridge Crystallographic Data Centre
#                                CCDC 
#
#######################################################################
#
# If this CIF has been generated from an entry in the Cambridge 
# Structural Database, then it will include bibliographic, chemical, 
# crystal, experimental, refinement or atomic coordinate data resulting 
# from the CCDC's data processing and validation procedures.
#
#######################################################################

data_AWUPEP
_chemical_formula_moiety         'C23 H22 Cl1 N1 O2 S1'
_chemical_name_systematic        
2-(4-chlorophenyl)-1-((4-methylphenyl)sulfonyl)-4-phenylpyrrolidine
_symmetry_cell_setting           monoclinic
_symmetry_space_group_name_H-M   'P 21/c'
_symmetry_Int_Tables_number      14
_space_group_name_Hall           '-P 2ybc'
loop_
_symmetry_equiv_pos_site_id
_symmetry_equiv_pos_as_xyz
1 x,y,z
2 -x,1/2+y,1/2-z
3 -x,-y,-z
4 x,1/2-y,1/2+z
_cell_length_a                   14.1702(5)
_cell_length_b                   15.5119(6)
_cell_length_c                   9.5178(4)
_cell_angle_alpha                90
_cell_angle_beta                 105.3279(11)
_cell_angle_gamma                90
_cell_volume                     2017.66
_exptl_crystal_colour            colorless
_exptl_crystal_description       needle
_cell_formula_units_Z            4
loop_
_atom_site_label
_atom_site_type_symbol
_atom_site_fract_x
_atom_site_fract_y
_atom_site_fract_z
S1 S 0.124915(14) 0.366604(13) 0.91812(2)
Cl1 Cl 0.656061(19) 0.33822(2) 0.90409(3)
N1 N 0.21874(5) 0.39131(5) 1.05188(8)
C1 C 0.38009(6) 0.32725(5) 1.05639(9)
O1 O 0.08274(6) 0.44699(5) 0.85709(8)
O2 O 0.15958(5) 0.30596(6) 0.82997(8)
C2 C 0.03857(6) 0.31502(5) 0.99166(8)
C3 C -0.02020(6) 0.36428(6) 1.05745(10)
H1 H -0.0145 0.4253 1.0610
C4 C 0.29122(6) 0.32426(5) 1.11724(9)
H2 H 0.2598 0.2662 1.0975
C5 C 0.54929(6) 0.33359(6) 0.96131(10)
C6 C 0.53827(6) 0.26825(6) 1.05495(10)
H3 H 0.5879 0.2260 1.0866
C7 C 0.45318(6) 0.26548(6) 1.10189(10)
H4 H 0.4449 0.2208 1.1659
C8 C 0.39312(7) 0.39151(6) 0.96196(11)
H5 H 0.3436 0.4338 0.9298
C9 C 0.47765(7) 0.39522(6) 0.91328(11)
H6 H 0.4858 0.4393 0.8483
C10 C 0.02902(7) 0.22575(6) 0.98385(11)
H7 H 0.0685 0.1925 0.9377
C11 C -0.09726(7) 0.23344(8) 1.11273(11)
C12 C -0.08710(7) 0.32292(8) 1.11772(11)
H8 H -0.1268 0.3563 1.1634
C13 C -0.03861(8) 0.18591(7) 1.04395(13)
H9 H -0.0453 0.1250 1.0383
C14 C -0.16973(10) 0.18981(12) 1.17822(14)
H10 H -0.2039 0.2332 1.2212
H11 H -0.1354 0.1496 1.2540
H12 H -0.2172 0.1581 1.1023
C15 C 0.2079(5) 0.4561(4) 1.1570(8)
H13 H 0.1502 0.4444 1.1941
H14 H 0.2027 0.5148 1.1149
C16 C 0.30664(10) 0.44373(9) 1.27983(14)
H15 H 0.3611 0.4703 1.2459
C17 C 0.3174(5) 0.3501(5) 1.2794(7)
H16 H 0.2725 0.3221 1.3295
H17 H 0.3854 0.3330 1.3288
C18 C 0.30576(11) 0.48365(9) 1.42486(15)
C19 C 0.23335(16) 0.46343(14) 1.4939(2)
H18 H 0.1842 0.4228 1.4504
C20 C 0.2318(2) 0.5015(3) 1.6246(3)
H19 H 0.1823 0.4865 1.6708
C21 C 0.3019(4) 0.5609(4) 1.6871(6)
H20 H 0.2988 0.5896 1.7739
C22 C 0.3777(2) 0.5792(2) 1.6239(3)
H21 H 0.4288 0.6172 1.6709
C23 C 0.37809(12) 0.54161(12) 1.49193(16)
H22 H 0.4285 0.5557 1.4470
C24? C 0.2141(7) 0.4580(5) 1.1632(11)
H23? H 0.1479 0.4837 1.1436
H24? H 0.2626 0.5043 1.1662
C25? C 0.23851(16) 0.40631(14) 1.3042(2)
H25? H 0.1793 0.3724 1.3085
C26? C 0.3197(6) 0.3412(8) 1.2821(12)
H26? H 0.3857 0.3672 1.3144
H27? H 0.3187 0.2871 1.3370
C27? C 0.26801(18) 0.46299(15) 1.4393(2)
C28? C 0.2089(3) 0.46776(17) 1.5351(4)
H28? H 0.1506 0.4344 1.5163
C29? C 0.2333(5) 0.5199(3) 1.6566(5)
H29? H 0.1910 0.5226 1.7191
C30? C 0.3164(7) 0.5675(6) 1.6887(10)
H30? H 0.3340 0.6016 1.7746
C31? C 0.3778(4) 0.5653(4) 1.5891(6)
H31? H 0.4353 0.5995 1.6068
C32? C 0.3518(2) 0.5130(2) 1.4685(3)
H32? H 0.3924 0.5111 1.4035
loop_
_geom_bond_atom_site_label_1
_geom_bond_atom_site_label_2
_geom_bond_site_symmetry_1
_geom_bond_site_symmetry_2
S1 N1 1_555 1_555
Cl1 C5 1_555 1_555
N1 C4 1_555 1_555
C1 C4 1_555 1_555
O1 S1 1_555 1_555
O2 S1 1_555 1_555
C2 S1 1_555 1_555
C3 C2 1_555 1_555
H1 C3 1_555 1_555
C4 H2 1_555 1_555
C5 C6 1_555 1_555
C6 H3 1_555 1_555
C7 C1 1_555 1_555
H4 C7 1_555 1_555
C8 C1 1_555 1_555
H5 C8 1_555 1_555
C9 C5 1_555 1_555
H6 C9 1_555 1_555
C10 C2 1_555 1_555
H7 C10 1_555 1_555
C11 C12 1_555 1_555
C12 C3 1_555 1_555
H8 C12 1_555 1_555
C13 C10 1_555 1_555
H9 C13 1_555 1_555
C14 C11 1_555 1_555
H10 C14 1_555 1_555
H11 C14 1_555 1_555
H12 C14 1_555 1_555
C15 N1 1_555 1_555
H13 C15 1_555 1_555
H14 C15 1_555 1_555
C16 C15 1_555 1_555
H15 C16 1_555 1_555
C17 C4 1_555 1_555
H16 C17 1_555 1_555
H17 C17 1_555 1_555
C18 C16 1_555 1_555
C19 C18 1_555 1_555
H18 C19 1_555 1_555
C20 C19 1_555 1_555
H19 C20 1_555 1_555
C21 C20 1_555 1_555
H20 C21 1_555 1_555
C22 C21 1_555 1_555
H21 C22 1_555 1_555
C23 C18 1_555 1_555
H22 C23 1_555 1_555
C6 C7 1_555 1_555
C8 C9 1_555 1_555
C11 C13 1_555 1_555
C16 C17 1_555 1_555
C22 C23 1_555 1_555

#END
