
#######################################################################
#
#                 Cambridge Crystallographic Data Centre
#                                CCDC 
#
#######################################################################
#
# If this CIF has been generated from an entry in the Cambridge 
# Structural Database, then it will include bibliographic, chemical, 
# crystal, experimental, refinement or atomic coordinate data resulting 
# from the CCDC's data processing and validation procedures.
#
#######################################################################

data_AWUVOD
_chemical_formula_moiety         'C22 H22 N2 O6 2+,2(N1 O3 1-),2(H2 O1)'
_chemical_name_systematic        
"1,4-bis(3-Picolyloxyl)benzene-N,N'-diacetic acid dinitrate dihydrate"
_symmetry_cell_setting           monoclinic
_symmetry_space_group_name_H-M   'P 21/c'
_symmetry_Int_Tables_number      14
_space_group_name_Hall           '-P 2ybc'
loop_
_symmetry_equiv_pos_site_id
_symmetry_equiv_pos_as_xyz
1 x,y,z
2 x,1/2-y,1/2+z
3 -x,-y,-z
4 -x,1/2+y,1/2-z
_cell_length_a                   7.6447(17)
_cell_length_b                   12.790(3)
_cell_length_c                   13.185(3)
_cell_angle_alpha                90
_cell_angle_beta                 92.714(5)
_cell_angle_gamma                90
_cell_volume                     1287.73
_exptl_crystal_colour            'pale yellow'
_exptl_crystal_description       block
_chemical_melting_point          165.4-166.2deg.C
_cell_formula_units_Z            2
loop_
_atom_site_label
_atom_site_type_symbol
_atom_site_fract_x
_atom_site_fract_y
_atom_site_fract_z
O1 O 0.7979(3) 0.46809(15) 0.51232(14)
H1 H 0.746(5) 0.530(3) 0.541(3)
O2 O 0.7001(3) 0.40706(14) 0.65823(13)
O3 O 0.3325(2) 0.06721(12) 0.55716(11)
N1 N 0.7948(2) 0.20890(13) 0.61729(13)
C1 C 0.7719(3) 0.39517(18) 0.58051(18)
C2 C 0.8430(3) 0.29191(16) 0.54658(16)
H2 H 0.7958 0.2758 0.4788
H3 H 0.9695 0.2959 0.5444
C3 C 0.6398(3) 0.15956(15) 0.60075(16)
H4 H 0.5716 0.1746 0.5423
C4 C 0.5814(3) 0.08804(15) 0.66830(15)
C5 C 0.6867(3) 0.06714(17) 0.75479(17)
H5 H 0.6499 0.0195 0.8026
C6 C 0.8443(4) 0.11662(19) 0.76949(18)
H6 H 0.9156 0.1018 0.8268
C7 C 0.8972(3) 0.18784(18) 0.70009(17)
H7 H 1.0042 0.2217 0.7103
C8 C 0.4101(3) 0.03291(17) 0.65094(17)
H8 H 0.4286 -0.0421 0.6493
H9 H 0.3337 0.0486 0.7056
C9 C 0.1661(3) 0.03154(16) 0.53230(16)
C10 C 0.0895(3) 0.07132(16) 0.44422(16)
H10 H 0.1499 0.1197 0.4065
C11 C 0.0763(3) -0.04018(16) 0.58881(16)
H11 H 0.1274 -0.0672 0.6486
C11B C -0.0763(3) 0.04018(16) 0.41119(16)
C9B C -0.1661(3) -0.03154(16) 0.46770(16)
O3B O -0.3325(2) -0.06721(12) 0.44284(11)
C8B C -0.4101(3) -0.03291(17) 0.34906(17)
C4B C -0.5814(3) -0.08804(15) 0.33170(15)
C3B C -0.6398(3) -0.15956(15) 0.39925(16)
N1B N -0.7948(2) -0.20890(13) 0.38271(13)
C2B C -0.8430(3) -0.29191(16) 0.45342(16)
C1B C -0.7719(3) -0.39517(18) 0.41949(18)
O1B O -0.7979(3) -0.46809(15) 0.48768(14)
H1B H -0.746(5) -0.530(3) 0.459(3)
O2B O -0.7001(3) -0.40706(14) 0.34177(13)
H2B H -0.7958 -0.2758 0.5212
H3B H -0.9695 -0.2959 0.4556
C7B C -0.8972(3) -0.18784(18) 0.29991(17)
C6B C -0.8443(4) -0.11662(19) 0.23051(18)
C5B C -0.6867(3) -0.06714(17) 0.24521(17)
H5B H -0.6499 -0.0195 0.1974
H6B H -0.9156 -0.1018 0.1732
H7B H -1.0042 -0.2217 0.2897
H4B H -0.5716 -0.1746 0.4577
H8B H -0.4286 0.0421 0.3507
H9B H -0.3337 -0.0486 0.2944
C10B C -0.0895(3) -0.07132(16) 0.55578(16)
H10B H -0.1499 -0.1197 0.5935
H11B H -0.1274 0.0672 0.3514
N2 N 0.6311(3) 0.69439(17) 0.59841(18)
O4 O 0.7786(3) 0.67271(18) 0.6328(2)
O5 O 0.5735(3) 0.64540(15) 0.52264(16)
O6 O 0.5410(3) 0.76198(16) 0.63450(14)
O7 O 0.7474(3) 0.8191(2) 0.8298(3)
H12 H 0.699(6) 0.794(3) 0.773(4)
H13 H 0.680(5) 0.830(3) 0.874(3)
loop_
_geom_bond_atom_site_label_1
_geom_bond_atom_site_label_2
_geom_bond_site_symmetry_1
_geom_bond_site_symmetry_2
O1 H1 1_555 1_555
O2 C1 1_555 1_555
O3 C8 1_555 1_555
N1 C2 1_555 1_555
C1 O1 1_555 1_555
C2 C1 1_555 1_555
H2 C2 1_555 1_555
H3 C2 1_555 1_555
C3 N1 1_555 1_555
H4 C3 1_555 1_555
C4 C3 1_555 1_555
C5 C4 1_555 1_555
H5 C5 1_555 1_555
C6 C5 1_555 1_555
H6 C6 1_555 1_555
C7 N1 1_555 1_555
H7 C7 1_555 1_555
C8 C4 1_555 1_555
H8 C8 1_555 1_555
H9 C8 1_555 1_555
C9 O3 1_555 1_555
C10 C9 1_555 1_555
H10 C10 1_555 1_555
C11 C9 1_555 1_555
H11 C11 1_555 1_555
N2 O4 1_555 1_555
O5 N2 1_555 1_555
O6 N2 1_555 1_555
O7 H12 1_555 1_555
H13 O7 1_555 1_555
C11B C10 1_555 1_555
C9B C11B 1_555 1_555
O3B C9B 1_555 1_555
C8B O3B 1_555 1_555
C4B C8B 1_555 1_555
C3B C4B 1_555 1_555
N1B C3B 1_555 1_555
C2B N1B 1_555 1_555
C1B C2B 1_555 1_555
O1B C1B 1_555 1_555
H1B O1B 1_555 1_555
O2B C1B 1_555 1_555
H2B C2B 1_555 1_555
H3B C2B 1_555 1_555
C7B N1B 1_555 1_555
C6B C7B 1_555 1_555
C5B C4B 1_555 1_555
H5B C5B 1_555 1_555
H6B C6B 1_555 1_555
H7B C7B 1_555 1_555
H4B C3B 1_555 1_555
H8B C8B 1_555 1_555
H9B C8B 1_555 1_555
C10B C11 1_555 1_555
H10B C10B 1_555 1_555
H11B C11B 1_555 1_555
C6 C7 1_555 1_555
C9B C10B 1_555 1_555
C6B C5B 1_555 1_555

#END
