
#######################################################################
#
#                 Cambridge Crystallographic Data Centre
#                                CCDC 
#
#######################################################################
#
# If this CIF has been generated from an entry in the Cambridge 
# Structural Database, then it will include bibliographic, chemical, 
# crystal, experimental, refinement or atomic coordinate data resulting 
# from the CCDC's data processing and validation procedures.
#
#######################################################################

data_AWUWOG
_chemical_formula_moiety         'C47 H26 O5,0.5(C6 H14)'
_chemical_name_systematic        
'4,6,13,15-tetramethoxy-19H-dibenzo[fg,ij]cyclohepta[1,14]pentaheliceno[5,6,7,8,9,10-pqrstuv]pentaphen-19-one n-hexane solvate'
_symmetry_cell_setting           triclinic
_symmetry_space_group_name_H-M   'P -1'
_symmetry_Int_Tables_number      2
_space_group_name_Hall           '-P 1'
loop_
_symmetry_equiv_pos_site_id
_symmetry_equiv_pos_as_xyz
1 x,y,z
2 -x,-y,-z
_cell_length_a                   13.1702(8)
_cell_length_b                   17.3964(12)
_cell_length_c                   17.5084(11)
_cell_angle_alpha                63.486(5)
_cell_angle_beta                 70.365(4)
_cell_angle_gamma                81.999(4)
_cell_volume                     3380.52
_exptl_crystal_colour            yellow
_exptl_crystal_description       prism
_cell_formula_units_Z            4
loop_
_atom_site_label
_atom_site_type_symbol
_atom_site_fract_x
_atom_site_fract_y
_atom_site_fract_z
O6 O 0.9811(4) 0.9092(3) 0.1888(2)
C48 C 0.9795(5) 0.9037(3) 0.2621(3)
C49 C 0.9149(5) 0.9623(3) 0.2993(3)
C50 C 0.9299(5) 1.0494(3) 0.2398(3)
H27 H 0.9736 1.0663 0.1792
C51 C 0.8815(4) 1.1097(3) 0.2692(3)
H28 H 0.8941 1.1690 0.2301
C52 C 0.8142(5) 1.0841(3) 0.3560(3)
H29 H 0.7825 1.1269 0.3763
C53 C 0.7905(4) 0.9976(3) 0.4157(3)
C54 C 0.8490(4) 0.9337(3) 0.3899(3)
C55 C 0.8254(4) 0.8428(3) 0.4521(3)
C56 C 0.7248(4) 0.8230(3) 0.5166(3)
C57 C 0.6556(4) 0.8884(3) 0.5386(3)
C58 C 0.6990(4) 0.9734(3) 0.4983(3)
C59 C 0.6425(5) 1.0305(3) 0.5346(3)
O7 O 0.6880(3) 1.1095(2) 0.5027(2)
C60 C 0.6307(5) 1.1694(3) 0.5377(4)
H30 H 0.6732 1.2227 0.5082
H31 H 0.6190 1.1444 0.6025
H32 H 0.5610 1.1820 0.5262
C61 C 0.5442(5) 1.0065(4) 0.6033(3)
H33 H 0.5073 1.0459 0.6270
C62 C 0.5014(4) 0.9274(4) 0.6363(3)
O8 O 0.4059(3) 0.9019(2) 0.7053(2)
C63 C 0.3517(5) 0.9617(4) 0.7407(4)
H34 H 0.3295 1.0114 0.6940
H35 H 0.4005 0.9808 0.7607
H36 H 0.2879 0.9338 0.7917
C64 C 0.5534(4) 0.8653(3) 0.6046(3)
C65 C 0.5068(5) 0.7805(3) 0.6353(3)
C66 C 0.3973(5) 0.7618(4) 0.6770(3)
H37 H 0.3499 0.8043 0.6890
C67 C 0.3562(5) 0.6823(4) 0.7012(3)
H38 H 0.2805 0.6720 0.7261
C68 C 0.4244(5) 0.6177(4) 0.6895(3)
H39 H 0.3952 0.5630 0.7078
C69 C 0.5351(5) 0.6318(3) 0.6514(3)
C70 C 0.5759(4) 0.7163(3) 0.6182(3)
C71 C 0.6881(4) 0.7359(3) 0.5665(3)
C72 C 0.7605(4) 0.6687(3) 0.5647(3)
C73 C 0.7224(4) 0.5814(3) 0.6106(3)
C74 C 0.6104(5) 0.5631(3) 0.6470(3)
C75 C 0.5768(5) 0.4777(4) 0.6811(3)
H40 H 0.5018 0.4647 0.7039
C76 C 0.6496(5) 0.4120(4) 0.6825(3)
H41 H 0.6250 0.3554 0.7024
C77 C 0.7589(5) 0.4295(3) 0.6546(3)
H42 H 0.8086 0.3837 0.6597
C78 C 0.7977(5) 0.5137(3) 0.6190(3)
C79 C 0.9126(5) 0.5338(3) 0.5932(3)
C80 C 0.9501(5) 0.6212(3) 0.5371(3)
C81 C 0.8713(4) 0.6884(3) 0.5169(3)
C82 C 0.9887(5) 0.4731(3) 0.6250(3)
O9 O 0.9564(3) 0.3894(2) 0.6774(2)
C83 C 1.0321(6) 0.3257(4) 0.7120(4)
H43 H 1.0950 0.3261 0.6621
H44 H 0.9975 0.2688 0.7449
H45 H 1.0552 0.3390 0.7526
C84 C 1.0939(5) 0.4972(3) 0.6060(3)
H46 H 1.1427 0.4558 0.6311
C85 C 1.1277(5) 0.5828(3) 0.5496(3)
O10 O 1.2295(3) 0.6076(2) 0.5355(2)
C86 C 1.3076(5) 0.5431(4) 0.5633(5)
H47 H 1.3785 0.5704 0.5400
H48 H 1.3112 0.5009 0.5397
H49 H 1.2861 0.5142 0.6290
C87 C 1.0580(5) 0.6433(3) 0.5093(3)
C88 C 1.0951(4) 0.7275(3) 0.4325(3)
C89 C 1.0170(5) 0.7867(3) 0.3978(3)
C90 C 0.9022(4) 0.7742(3) 0.4540(3)
C91 C 1.2057(4) 0.7458(3) 0.3819(3)
H50 H 1.2588 0.7099 0.4064
C92 C 1.2384(5) 0.8134(3) 0.2992(4)
H51 H 1.3129 0.8263 0.2686
C93 C 1.1625(5) 0.8625(4) 0.2606(3)
H52 H 1.1845 0.9055 0.2005
C94 C 1.0543(5) 0.8494(3) 0.3090(3)
O1 O 0.3656(3) 0.8124(2) 1.1034(2)
C1 C 0.3637(5) 0.8231(3) 1.0291(3)
C2 C 0.4474(4) 0.8743(3) 0.9465(3)
C3 C 0.4681(5) 0.9536(4) 0.9389(4)
H1 H 0.4286 0.9709 0.9849
C4 C 0.5450(5) 1.0072(4) 0.8655(4)
H2 H 0.5536 1.0643 0.8561
C5 C 0.6101(5) 0.9762(4) 0.8050(3)
H3 H 0.6668 1.0120 0.7560
C6 C 0.5959(4) 0.8950(3) 0.8133(3)
C7 C 0.5041(4) 0.8442(3) 0.8808(3)
C8 C 0.4800(4) 0.7619(3) 0.8845(3)
C9 C 0.5687(4) 0.7220(3) 0.8436(3)
C10 C 0.6714(4) 0.7661(3) 0.7879(3)
C11 C 0.6793(4) 0.8558(3) 0.7604(3)
C12 C 0.7724(4) 0.8990(3) 0.6918(3)
O2 O 0.7754(3) 0.9872(2) 0.6596(2)
C13 C 0.8740(5) 1.0321(3) 0.5919(3)
H4 H 0.8849 1.0251 0.5372
H5 H 0.9354 1.0080 0.6146
H6 H 0.8680 1.0933 0.5784
C14 C 0.8562(4) 0.8561(3) 0.6574(3)
H7 H 0.9171 0.8871 0.6096
C15 C 0.8525(5) 0.7680(3) 0.6920(3)
O3 O 0.9412(3) 0.7247(2) 0.6612(2)
C16 C 1.0406(5) 0.7702(4) 0.6105(4)
H8 H 1.0371 0.8116 0.5509
H9 H 1.0989 0.7297 0.6041
H10 H 1.0547 0.8008 0.6413
C17 C 0.7623(4) 0.7199(3) 0.7569(3)
C18 C 0.7544(4) 0.6261(3) 0.7932(3)
C19 C 0.8442(5) 0.5738(3) 0.7862(3)
H11 H 0.9145 0.5986 0.7596
C20 C 0.8314(5) 0.4852(3) 0.8180(3)
H12 H 0.8933 0.4499 0.8156
C21 C 0.7314(5) 0.4486(3) 0.8523(3)
H13 H 0.7244 0.3890 0.8701
C22 C 0.6388(5) 0.4987(3) 0.8617(3)
C23 C 0.6511(4) 0.5868(3) 0.8360(3)
C24 C 0.5587(4) 0.6359(3) 0.8573(3)
C25 C 0.4549(5) 0.5997(3) 0.8907(3)
C26 C 0.4424(5) 0.5133(3) 0.9017(3)
C27 C 0.5325(5) 0.4617(3) 0.8932(3)
C28 C 0.5199(5) 0.3762(3) 0.9091(3)
H14 H 0.5811 0.3412 0.9019
C29 C 0.4194(5) 0.3445(3) 0.9350(3)
H15 H 0.4111 0.2858 0.9494
C30 C 0.3292(5) 0.3945(3) 0.9411(3)
H16 H 0.2602 0.3702 0.9586
C31 C 0.3385(4) 0.4810(3) 0.9217(3)
C32 C 0.2505(5) 0.5412(3) 0.9175(3)
C33 C 0.2576(5) 0.6203(3) 0.9225(3)
C34 C 0.3620(4) 0.6472(3) 0.9137(3)
C35 C 0.1567(5) 0.5299(4) 0.9020(3)
O4 O 0.1507(3) 0.4569(2) 0.8908(2)
C36 C 0.0635(5) 0.4483(4) 0.8636(4)
H17 H 0.0672 0.4953 0.8046
H18 H -0.0052 0.4505 0.9075
H19 H 0.0687 0.3931 0.8600
C37 C 0.0738(5) 0.5891(4) 0.8954(3)
H20 H 0.0139 0.5807 0.8812
C38 C 0.0793(5) 0.6599(4) 0.9097(3)
O5 O -0.0020(3) 0.7194(2) 0.9071(2)
C39 C -0.0833(5) 0.7135(4) 0.8717(4)
H21 H -0.0497 0.7218 0.8094
H22 H -0.1373 0.7579 0.8740
H23 H -0.1182 0.6567 0.9077
C40 C 0.1706(4) 0.6748(3) 0.9278(3)
C41 C 0.1740(4) 0.7389(3) 0.9610(3)
C42 C 0.2735(4) 0.7588(3) 0.9630(3)
C43 C 0.3753(4) 0.7243(3) 0.9196(3)
C44 C 0.0772(5) 0.7726(3) 1.0006(3)
H24 H 0.0117 0.7647 0.9933
C45 C 0.0766(5) 0.8166(4) 1.0496(4)
H25 H 0.0112 0.8391 1.0755
C46 C 0.1717(5) 0.8280(4) 1.0607(3)
H26 H 0.1707 0.8544 1.0982
C47 C 0.2684(4) 0.8011(3) 1.0174(3)
loop_
_geom_bond_atom_site_label_1
_geom_bond_atom_site_label_2
_geom_bond_site_symmetry_1
_geom_bond_site_symmetry_2
O1 C1 1_555 1_555
C1 C2 1_555 1_555
C2 C3 1_555 1_555
C3 H1 1_555 1_555
C4 C3 1_555 1_555
H2 C4 1_555 1_555
C5 C4 1_555 1_555
H3 C5 1_555 1_555
C6 C5 1_555 1_555
C7 C2 1_555 1_555
C8 C7 1_555 1_555
C9 C8 1_555 1_555
C10 C9 1_555 1_555
C11 C6 1_555 1_555
C12 C11 1_555 1_555
O2 C12 1_555 1_555
C13 O2 1_555 1_555
H4 C13 1_555 1_555
H5 C13 1_555 1_555
H6 C13 1_555 1_555
C14 C12 1_555 1_555
H7 C14 1_555 1_555
C15 C14 1_555 1_555
O3 C15 1_555 1_555
C16 O3 1_555 1_555
H8 C16 1_555 1_555
H9 C16 1_555 1_555
H10 C16 1_555 1_555
C17 C10 1_555 1_555
C18 C17 1_555 1_555
C19 C18 1_555 1_555
H11 C19 1_555 1_555
C20 C19 1_555 1_555
H12 C20 1_555 1_555
C21 C20 1_555 1_555
H13 C21 1_555 1_555
C22 C21 1_555 1_555
C23 C18 1_555 1_555
C24 C9 1_555 1_555
C25 C24 1_555 1_555
C26 C25 1_555 1_555
C27 C22 1_555 1_555
C28 C27 1_555 1_555
H14 C28 1_555 1_555
C29 C28 1_555 1_555
H15 C29 1_555 1_555
C30 C29 1_555 1_555
H16 C30 1_555 1_555
C31 C26 1_555 1_555
C32 C31 1_555 1_555
C33 C32 1_555 1_555
C34 C25 1_555 1_555
C35 C32 1_555 1_555
O4 C35 1_555 1_555
C36 O4 1_555 1_555
H17 C36 1_555 1_555
H18 C36 1_555 1_555
H19 C36 1_555 1_555
C37 C35 1_555 1_555
H20 C37 1_555 1_555
C38 C37 1_555 1_555
O5 C38 1_555 1_555
C39 O5 1_555 1_555
H21 C39 1_555 1_555
H22 C39 1_555 1_555
H23 C39 1_555 1_555
C40 C33 1_555 1_555
C41 C40 1_555 1_555
C42 C41 1_555 1_555
C43 C8 1_555 1_555
C44 C41 1_555 1_555
H24 C44 1_555 1_555
C45 C44 1_555 1_555
H25 C45 1_555 1_555
C46 C45 1_555 1_555
H26 C46 1_555 1_555
C47 C1 1_555 1_555
O6 C48 1_555 1_555
C48 C49 1_555 1_555
C49 C50 1_555 1_555
C50 H27 1_555 1_555
C51 C50 1_555 1_555
H28 C51 1_555 1_555
C52 C51 1_555 1_555
H29 C52 1_555 1_555
C53 C52 1_555 1_555
C54 C49 1_555 1_555
C55 C54 1_555 1_555
C56 C55 1_555 1_555
C57 C56 1_555 1_555
C58 C53 1_555 1_555
C59 C58 1_555 1_555
O7 C59 1_555 1_555
C60 O7 1_555 1_555
H30 C60 1_555 1_555
H31 C60 1_555 1_555
H32 C60 1_555 1_555
C61 C59 1_555 1_555
H33 C61 1_555 1_555
C62 C61 1_555 1_555
O8 C62 1_555 1_555
C63 O8 1_555 1_555
H34 C63 1_555 1_555
H35 C63 1_555 1_555
H36 C63 1_555 1_555
C64 C57 1_555 1_555
C65 C64 1_555 1_555
C66 C65 1_555 1_555
H37 C66 1_555 1_555
C67 C66 1_555 1_555
H38 C67 1_555 1_555
C68 C67 1_555 1_555
H39 C68 1_555 1_555
C69 C68 1_555 1_555
C70 C65 1_555 1_555
C71 C56 1_555 1_555
C72 C71 1_555 1_555
C73 C72 1_555 1_555
C74 C69 1_555 1_555
C75 C74 1_555 1_555
H40 C75 1_555 1_555
C76 C75 1_555 1_555
H41 C76 1_555 1_555
C77 C76 1_555 1_555
H42 C77 1_555 1_555
C78 C73 1_555 1_555
C79 C78 1_555 1_555
C80 C79 1_555 1_555
C81 C72 1_555 1_555
C82 C79 1_555 1_555
O9 C82 1_555 1_555
C83 O9 1_555 1_555
H43 C83 1_555 1_555
H44 C83 1_555 1_555
H45 C83 1_555 1_555
C84 C82 1_555 1_555
H46 C84 1_555 1_555
C85 C84 1_555 1_555
O10 C85 1_555 1_555
C86 O10 1_555 1_555
H47 C86 1_555 1_555
H48 C86 1_555 1_555
H49 C86 1_555 1_555
C87 C80 1_555 1_555
C88 C87 1_555 1_555
C89 C88 1_555 1_555
C90 C55 1_555 1_555
C91 C88 1_555 1_555
H50 C91 1_555 1_555
C92 C91 1_555 1_555
H51 C92 1_555 1_555
C93 C92 1_555 1_555
H52 C93 1_555 1_555
C94 C48 1_555 1_555
C6 C7 1_555 1_555
C10 C11 1_555 1_555
C15 C17 1_555 1_555
C22 C23 1_555 1_555
C23 C24 1_555 1_555
C26 C27 1_555 1_555
C30 C31 1_555 1_555
C33 C34 1_555 1_555
C34 C43 1_555 1_555
C38 C40 1_555 1_555
C42 C43 1_555 1_555
C42 C47 1_555 1_555
C46 C47 1_555 1_555
C53 C54 1_555 1_555
C57 C58 1_555 1_555
C62 C64 1_555 1_555
C69 C70 1_555 1_555
C70 C71 1_555 1_555
C73 C74 1_555 1_555
C77 C78 1_555 1_555
C80 C81 1_555 1_555
C81 C90 1_555 1_555
C85 C87 1_555 1_555
C89 C90 1_555 1_555
C89 C94 1_555 1_555
C93 C94 1_555 1_555

#END
