
#######################################################################
#
#                 Cambridge Crystallographic Data Centre
#                                CCDC 
#
#######################################################################
#
# If this CIF has been generated from an entry in the Cambridge 
# Structural Database, then it will include bibliographic, chemical, 
# crystal, experimental, refinement or atomic coordinate data resulting 
# from the CCDC's data processing and validation procedures.
#
#######################################################################

data_AWUYOG
_chemical_formula_moiety         'C4 H14 N2 2+,2(C14 H20 O5),2(C1 N1 S1 1-)'
_chemical_name_systematic        
'bis(Benzo-15-crown-5) butane-1,4-diammonium clathrate bis(thiocyanate)'
_symmetry_cell_setting           triclinic
_symmetry_space_group_name_H-M   'P -1'
_symmetry_Int_Tables_number      2
_space_group_name_Hall           '-P 1'
loop_
_symmetry_equiv_pos_site_id
_symmetry_equiv_pos_as_xyz
1 x,y,z
2 -x,-y,-z
_cell_length_a                   8.783(3)
_cell_length_b                   9.602(3)
_cell_length_c                   11.779(3)
_cell_angle_alpha                103.607(7)
_cell_angle_beta                 91.202(7)
_cell_angle_gamma                91.375(6)
_cell_volume                     964.852
_exptl_crystal_colour            colorless
_exptl_crystal_description       block
_cell_formula_units_Z            1
loop_
_atom_site_label
_atom_site_type_symbol
_atom_site_fract_x
_atom_site_fract_y
_atom_site_fract_z
H1 H 0.804(3) 0.737(2) 0.500(2)
N1 N 0.8576(2) 0.75157(18) 0.56415(16)
C16 C 1.0166(2) 0.7081(2) 0.5459(2)
H21 H 1.0666 0.7149 0.6213
H22 H 1.0693 0.7741 0.5082
C17 C 1.0297(3) 0.5580(3) 0.4727(2)
H23 H 1.1361 0.5413 0.4553
H24 H 0.9748 0.5507 0.3991
H25 H 0.8089 0.7055 0.6061
H26 H 0.8517 0.8414 0.5974
C17A C 0.9703(3) 0.4420(3) 0.5273(2)
C16A C 0.9834(2) 0.2919(2) 0.4541(2)
N1A N 1.1424(2) 0.24843(18) 0.43585(16)
H1A H 1.196(3) 0.263(2) 0.500(2)
H25A H 1.1911 0.2945 0.3939
H26A H 1.1483 0.1586 0.4026
H21A H 0.9334 0.2851 0.3787
H22A H 0.9307 0.2259 0.4918
H23A H 0.8639 0.4587 0.5447
H24A H 1.0252 0.4493 0.6009
S1 S 0.37506(9) 0.30269(8) 0.88516(6)
N2 N 0.2654(3) 0.3060(3) 0.6648(2)
C15 C 0.3101(3) 0.3048(2) 0.7563(2)
O1 O 0.8700(2) 0.6922(2) 0.80582(18)
O2 O 0.96247(19) 0.94444(16) 0.80963(14)
O3 O 0.8352(2) 1.06440(17) 0.63981(14)
O4 O 0.6252(2) 0.5973(2) 0.66669(16)
O5 O 0.56870(19) 0.8770(2) 0.62024(16)
C1 C 0.7912(3) 0.5708(3) 0.8198(2)
H2 H 0.8318 0.4961 0.8476
C2 C 1.0611(3) 0.8679(2) 0.86056(17)
C3 C 1.1028(3) 0.6395(3) 0.9036(2)
H3 H 1.0701 0.5460 0.9010
C4 C 1.2432(3) 0.6898(3) 0.9532(2)
H4 H 1.3054 0.6294 0.9833
C5 C 1.2007(3) 0.9179(3) 0.9114(2)
H5 H 1.2344 1.0113 0.9147
C6 C 0.4831(3) 0.6474(4) 0.6350(3)
H6 H 0.4019 0.5985 0.6664
H7 H 0.4711 0.6218 0.5506
C7 C 1.0113(3) 0.7288(3) 0.85815(19)
C8 C 1.0148(3) 1.0804(2) 0.7964(2)
H8 H 1.0980 1.0693 0.7424
H9 H 1.0513 1.1392 0.8711
C9 C 1.2911(3) 0.8257(3) 0.9582(2)
H10 H 1.3852 0.8586 0.9931
C10 C 0.6329(4) 0.5813(4) 0.7831(3)
H11 H 0.5756 0.4956 0.7884
H12 H 0.5878 0.6630 0.8345
C11 C 0.8854(3) 1.1490(2) 0.7509(2)
H13 H 0.8023 1.1587 0.8049
H14 H 0.9167 1.2440 0.7437
C12 C 0.6862(4) 1.0957(3) 0.6078(3)
H15 H 0.6729 1.0646 0.5235
H16 H 0.6744 1.1987 0.6293
C13 C 0.5660(3) 1.0264(4) 0.6632(3)
H17 H 0.5829 1.0505 0.7473
H18 H 0.4672 1.0609 0.6462
C14 C 0.4663(3) 0.8027(4) 0.6764(3)
H19 H 0.3628 0.8274 0.6607
H20 H 0.4857 0.8307 0.7602
loop_
_geom_bond_atom_site_label_1
_geom_bond_atom_site_label_2
_geom_bond_site_symmetry_1
_geom_bond_site_symmetry_2
H1 N1 1_555 1_555
S1 C15 1_555 1_555
O1 C1 1_555 1_555
O2 C2 1_555 1_555
O3 C11 1_555 1_555
O4 C6 1_555 1_555
O5 C13 1_555 1_555
C1 H2 1_555 1_555
C2 C5 1_555 1_555
C3 H3 1_555 1_555
C4 C3 1_555 1_555
H4 C4 1_555 1_555
C5 H5 1_555 1_555
C6 H6 1_555 1_555
H7 C6 1_555 1_555
C7 O1 1_555 1_555
C8 O2 1_555 1_555
H8 C8 1_555 1_555
H9 C8 1_555 1_555
C9 C4 1_555 1_555
H10 C9 1_555 1_555
C10 O4 1_555 1_555
H11 C10 1_555 1_555
H12 C10 1_555 1_555
C11 C8 1_555 1_555
H13 C11 1_555 1_555
H14 C11 1_555 1_555
C12 O3 1_555 1_555
H15 C12 1_555 1_555
H16 C12 1_555 1_555
C13 C12 1_555 1_555
H17 C13 1_555 1_555
H18 C13 1_555 1_555
C14 O5 1_555 1_555
H19 C14 1_555 1_555
H20 C14 1_555 1_555
N1 C16 1_555 1_555
N2 C15 1_555 1_555
C16 H21 1_555 1_555
H22 C16 1_555 1_555
C17 C16 1_555 1_555
H23 C17 1_555 1_555
H24 C17 1_555 1_555
H25 N1 1_555 1_555
H26 N1 1_555 1_555
C17A C17 1_555 1_555
C16A C17A 1_555 1_555
N1A C16A 1_555 1_555
H1A N1A 1_555 1_555
H25A N1A 1_555 1_555
H26A N1A 1_555 1_555
H21A C16A 1_555 1_555
H22A C16A 1_555 1_555
H23A C17A 1_555 1_555
H24A C17A 1_555 1_555
C1 C10 1_555 1_555
C2 C7 1_555 1_555
C3 C7 1_555 1_555
C5 C9 1_555 1_555
C6 C14 1_555 1_555

#END
