
#######################################################################
#
#                 Cambridge Crystallographic Data Centre
#                                CCDC 
#
#######################################################################
#
# If this CIF has been generated from an entry in the Cambridge 
# Structural Database, then it will include bibliographic, chemical, 
# crystal, experimental, refinement or atomic coordinate data resulting 
# from the CCDC's data processing and validation procedures.
#
#######################################################################

data_AWUYAT
_chemical_formula_moiety         'C13 H15 N1 O2'
_chemical_name_systematic        
5-methyl-1,2,3,3a-tetrahydrobenzo[e]pyrrolo[2,1-b]-[1,3]oxazepin-10(5H)-one
_symmetry_cell_setting           orthorhombic
_symmetry_space_group_name_H-M   'P 21 21 21'
_symmetry_Int_Tables_number      19
_space_group_name_Hall           'P 2ac 2ab'
loop_
_symmetry_equiv_pos_site_id
_symmetry_equiv_pos_as_xyz
1 x,y,z
2 1/2-x,-y,1/2+z
3 -x,1/2+y,1/2-z
4 1/2+x,1/2-y,-z
_cell_length_a                   10.410(4)
_cell_length_b                   12.688(5)
_cell_length_c                   17.124(7)
_cell_angle_alpha                90
_cell_angle_beta                 90
_cell_angle_gamma                90
_cell_volume                     2261.77
_exptl_crystal_colour            colorless
_exptl_crystal_description       prism
_cell_formula_units_Z            8
loop_
_atom_site_label
_atom_site_type_symbol
_atom_site_fract_x
_atom_site_fract_y
_atom_site_fract_z
O1 O 0.23788(19) 0.54319(13) 0.26755(12)
O2 O 0.37121(17) 0.22737(13) 0.22168(10)
N1 N 0.37387(19) 0.40475(15) 0.26863(11)
C1 C 0.1473(2) 0.37156(18) 0.28097(13)
C2 C 0.0459(3) 0.3994(2) 0.33027(14)
H1 H 0.0492 0.4629 0.3573
C3 C -0.0590(3) 0.3341(2) 0.33938(17)
H2 H -0.1249 0.3524 0.3734
C4 C -0.0649(3) 0.2418(3) 0.29778(17)
H3 H -0.1361 0.1980 0.3029
C5 C 0.0341(3) 0.2136(2) 0.24836(16)
H4 H 0.0281 0.1509 0.2204
C6 C 0.1429(2) 0.27645(18) 0.23933(13)
C7 C 0.2558(2) 0.44788(18) 0.27247(13)
C8 C 0.2520(3) 0.24980(19) 0.18309(14)
H5 H 0.2657 0.3111 0.1493
C9 C 0.2278(3) 0.1548(2) 0.13068(18)
H6 H 0.3007 0.1439 0.0973
H7 H 0.1529 0.1673 0.0993
H8 H 0.2145 0.0933 0.1624
C10 C 0.4018(2) 0.29467(18) 0.28521(14)
H9 H 0.3571 0.2718 0.3326
C11 C 0.5462(3) 0.2946(2) 0.29797(15)
H10 H 0.5840 0.2288 0.2806
H11 H 0.5669 0.3052 0.3526
C12 C 0.5938(3) 0.3866(2) 0.24849(17)
H12 H 0.6746 0.4135 0.2684
H13 H 0.6056 0.3653 0.1946
C13 C 0.4909(3) 0.4675(2) 0.25502(16)
H14 H 0.5073 0.5149 0.2983
H15 H 0.4839 0.5083 0.2073
O3 O 0.03656(17) 0.37491(12) 0.02903(10)
O4 O 0.09595(19) 0.70473(12) -0.01621(11)
N2 N 0.01054(19) 0.56105(15) 0.04280(11)
C14 C 0.2354(2) 0.55960(15) 0.01113(11)
C15 C 0.3450(2) 0.61538(18) 0.03210(13)
H16 H 0.3389 0.6869 0.0435
C16 C 0.4622(3) 0.56595(19) 0.03615(15)
H17 H 0.5352 0.6035 0.0506
C17 C 0.4708(2) 0.4595(2) 0.01856(14)
H18 H 0.5496 0.4252 0.0221
C18 C 0.3631(2) 0.40425(18) -0.00418(14)
H19 H 0.3705 0.3332 -0.0166
C19 C 0.2441(2) 0.45249(16) -0.00882(12)
C20 C 0.1086(2) 0.61564(17) 0.01078(13)
C21 C 0.1226(2) 0.39619(18) -0.03595(14)
H20 H 0.0775 0.4439 -0.0717
C22 C 0.1428(3) 0.2944(2) -0.07828(17)
H21 H 0.0612 0.2663 -0.0940
H22 H 0.1851 0.2452 -0.0444
H23 H 0.1950 0.3066 -0.1236
C23 C -0.1212(2) 0.6019(2) 0.04741(17)
H24 H -0.1548 0.6176 -0.0041
H25 H -0.1251 0.6650 0.0793
C24 C -0.1937(3) 0.5125(2) 0.0848(2)
H26 H -0.2595 0.5395 0.1196
H27 H -0.2344 0.4691 0.0453
C25 C -0.0971(3) 0.4498(2) 0.12943(16)
H28 H -0.1232 0.3766 0.1332
H29 H -0.0862 0.4779 0.1817
C26 C 0.0263(2) 0.46025(18) 0.08272(13)
H30 H 0.1009 0.4622 0.1176
loop_
_geom_bond_atom_site_label_1
_geom_bond_atom_site_label_2
_geom_bond_site_symmetry_1
_geom_bond_site_symmetry_2
O1 C7 1_555 1_555
O2 C8 1_555 1_555
N1 C7 1_555 1_555
C1 C2 1_555 1_555
C2 H1 1_555 1_555
C3 C2 1_555 1_555
H2 C3 1_555 1_555
C4 C3 1_555 1_555
H3 C4 1_555 1_555
C5 C4 1_555 1_555
H4 C5 1_555 1_555
C6 C1 1_555 1_555
C7 C1 1_555 1_555
C8 C6 1_555 1_555
H5 C8 1_555 1_555
C9 C8 1_555 1_555
H6 C9 1_555 1_555
H7 C9 1_555 1_555
H8 C9 1_555 1_555
C10 O2 1_555 1_555
H9 C10 1_555 1_555
C11 C10 1_555 1_555
H10 C11 1_555 1_555
H11 C11 1_555 1_555
C12 C11 1_555 1_555
H12 C12 1_555 1_555
H13 C12 1_555 1_555
C13 N1 1_555 1_555
H14 C13 1_555 1_555
H15 C13 1_555 1_555
O3 C21 1_555 1_555
O4 C20 1_555 1_555
N2 C20 1_555 1_555
C14 C15 1_555 1_555
C15 H16 1_555 1_555
C16 C15 1_555 1_555
H17 C16 1_555 1_555
C17 C16 1_555 1_555
H18 C17 1_555 1_555
C18 C17 1_555 1_555
H19 C18 1_555 1_555
C19 C14 1_555 1_555
C20 C14 1_555 1_555
C21 C19 1_555 1_555
H20 C21 1_555 1_555
C22 C21 1_555 1_555
H21 C22 1_555 1_555
H22 C22 1_555 1_555
H23 C22 1_555 1_555
C23 N2 1_555 1_555
H24 C23 1_555 1_555
H25 C23 1_555 1_555
C24 C23 1_555 1_555
H26 C24 1_555 1_555
H27 C24 1_555 1_555
C25 C24 1_555 1_555
H28 C25 1_555 1_555
H29 C25 1_555 1_555
C26 O3 1_555 1_555
H30 C26 1_555 1_555
N1 C10 1_555 1_555
C5 C6 1_555 1_555
C12 C13 1_555 1_555
N2 C26 1_555 1_555
C18 C19 1_555 1_555
C25 C26 1_555 1_555

#END
