
#######################################################################
#
#                 Cambridge Crystallographic Data Centre
#                                CCDC 
#
#######################################################################
#
# If this CIF has been generated from an entry in the Cambridge 
# Structural Database, then it will include bibliographic, chemical, 
# crystal, experimental, refinement or atomic coordinate data resulting 
# from the CCDC's data processing and validation procedures.
#
#######################################################################

data_AXADAF
_chemical_name_common            '3,4-Dihydroxyphenethyl acetate'
_chemical_formula_moiety         'C10 H12 O4'
_chemical_name_systematic        '2-(3,4-Dihydroxyphenyl)ethyl acetate'
_symmetry_cell_setting           monoclinic
_symmetry_space_group_name_H-M   'P 21/n'
_symmetry_Int_Tables_number      14
_space_group_name_Hall           '-P 2yn'
loop_
_symmetry_equiv_pos_site_id
_symmetry_equiv_pos_as_xyz
1 x,y,z
2 1/2-x,1/2+y,1/2-z
3 -x,-y,-z
4 1/2+x,1/2-y,1/2+z
_cell_length_a                   11.088(2)
_cell_length_b                   7.7100(15)
_cell_length_c                   12.687(3)
_cell_angle_alpha                90
_cell_angle_beta                 114.50(3)
_cell_angle_gamma                90
_cell_volume                     986.937
_exptl_crystal_colour            colorless
_exptl_crystal_description       block
_cell_formula_units_Z            4
loop_
_atom_site_label
_atom_site_type_symbol
_atom_site_fract_x
_atom_site_fract_y
_atom_site_fract_z
O1 O 0.82657(16) 0.1555(2) -0.06613(11)
H1 H 0.8814 0.0814 -0.0619
C1 C 0.61846(18) 0.1594(2) 0.09171(14)
H2 H 0.5326 0.1915 0.0787
O2 O 0.99568(12) 0.0172(2) 0.13823(10)
H3 H 1.0401 -0.0162 0.2045
C2 C 0.6604(2) 0.1768(3) 0.00363(14)
H4 H 0.6023 0.2195 -0.0681
O3 O 0.67398(12) 0.1071(2) 0.48254(10)
C3 C 0.78691(19) 0.1315(2) 0.02105(14)
O4 O 0.85894(13) 0.0936(2) 0.64219(11)
C4 C 0.87258(17) 0.0653(2) 0.12809(14)
C5 C 0.83054(17) 0.0485(2) 0.21595(13)
H5 H 0.8886 0.0053 0.2875
C6 C 0.70253(17) 0.0951(2) 0.19887(14)
C7 C 0.65213(17) 0.0689(3) 0.29153(14)
H6 H 0.5705 0.1339 0.2703
H7 H 0.6312 -0.0529 0.2934
C8 C 0.74690(17) 0.1231(2) 0.41116(15)
H8 H 0.8242 0.0483 0.4398
H9 H 0.7757 0.2418 0.4109
C9 C 0.73987(17) 0.0917(2) 0.59542(15)
C10 C 0.6508(2) 0.0698(4) 0.65552(17)
H10 H 0.6997 0.0906 0.7369
H11 H 0.6163 -0.0463 0.6439
H12 H 0.5788 0.1508 0.6246
loop_
_geom_bond_atom_site_label_1
_geom_bond_atom_site_label_2
_geom_bond_site_symmetry_1
_geom_bond_site_symmetry_2
O1 H1 1_555 1_555
C1 H2 1_555 1_555
O2 H3 1_555 1_555
C2 C1 1_555 1_555
H4 C2 1_555 1_555
O3 C8 1_555 1_555
C3 O1 1_555 1_555
O4 C9 1_555 1_555
C4 O2 1_555 1_555
C5 C4 1_555 1_555
H5 C5 1_555 1_555
C6 C1 1_555 1_555
C7 C6 1_555 1_555
H6 C7 1_555 1_555
H7 C7 1_555 1_555
C8 C7 1_555 1_555
H8 C8 1_555 1_555
H9 C8 1_555 1_555
C9 O3 1_555 1_555
C10 C9 1_555 1_555
H10 C10 1_555 1_555
H11 C10 1_555 1_555
H12 C10 1_555 1_555
C2 C3 1_555 1_555
C3 C4 1_555 1_555
C5 C6 1_555 1_555

#END
