
#######################################################################
#
#                 Cambridge Crystallographic Data Centre
#                                CCDC 
#
#######################################################################
#
# If this CIF has been generated from an entry in the Cambridge 
# Structural Database, then it will include bibliographic, chemical, 
# crystal, experimental, refinement or atomic coordinate data resulting 
# from the CCDC's data processing and validation procedures.
#
#######################################################################

data_AXAGUD
_chemical_formula_moiety         'C16 H16 Cl1 N1'
_chemical_name_systematic        9-(4-chlorobutyl)-9H-carbazole
_symmetry_cell_setting           orthorhombic
_symmetry_space_group_name_H-M   'P b c a'
_symmetry_Int_Tables_number      61
_space_group_name_Hall           '-P 2ac 2ab'
loop_
_symmetry_equiv_pos_site_id
_symmetry_equiv_pos_as_xyz
1 x,y,z
2 1/2-x,-y,1/2+z
3 1/2+x,1/2-y,-z
4 -x,1/2+y,1/2-z
5 -x,-y,-z
6 1/2+x,y,1/2-z
7 1/2-x,1/2+y,z
8 x,1/2-y,1/2+z
_cell_length_a                   15.8980(13)
_cell_length_b                   7.6343(5)
_cell_length_c                   22.7220(18)
_cell_angle_alpha                90
_cell_angle_beta                 90
_cell_angle_gamma                90
_cell_volume                     2757.77
_cell_formula_units_Z            8
loop_
_atom_site_label
_atom_site_type_symbol
_atom_site_fract_x
_atom_site_fract_y
_atom_site_fract_z
Cl1 Cl 0.85242(9) -0.67490(14) 0.51409(6)
N1 N 0.93573(16) 0.0386(3) 0.63143(10)
C1 C 0.9002(2) 0.1291(4) 0.67802(13)
C2 C 0.9566(2) 0.2603(4) 0.69634(13)
C3 C 1.0291(2) 0.2476(4) 0.65881(14)
C4 C 0.8236(2) 0.1066(4) 0.70478(14)
H1 H 0.7863 0.0206 0.6921
C5 C 0.8039(2) 0.2156(5) 0.75086(17)
H2 H 0.7525 0.2020 0.7699
C6 C 0.8962(2) -0.1052(4) 0.59972(13)
H3 H 0.9204 -0.1125 0.5606
H4 H 0.8367 -0.0808 0.5954
C7 C 0.9340(3) 0.3674(4) 0.74317(16)
H5 H 0.9706 0.4541 0.7562
C8 C 1.1047(3) 0.3397(5) 0.65464(19)
H6 H 1.1162 0.4327 0.6798
C9 C 0.8585(3) 0.3451(5) 0.76975(17)
H7 H 0.8433 0.4173 0.8009
C10 C 1.0138(2) 0.1081(4) 0.61949(13)
C11 C 0.8589(2) -0.4320(5) 0.59789(18)
H8 H 0.8489 -0.5277 0.6251
H9 H 0.8049 -0.3897 0.5840
C12 C 0.9070(3) -0.2801(4) 0.63030(16)
H10 H 0.8863 -0.2708 0.6703
H11 H 0.9664 -0.3086 0.6321
C13 C 1.0722(2) 0.0571(6) 0.57742(15)
H12 H 1.0621 -0.0366 0.5522
C14 C 1.1618(3) 0.2892(8) 0.6123(3)
H13 H 1.2124 0.3496 0.6090
C15 C 1.1458(3) 0.1517(8) 0.5748(2)
H14 H 1.1860 0.1218 0.5468
C16 C 0.9077(3) -0.4931(5) 0.54920(18)
H15 H 0.9625 -0.5316 0.5628
H16 H 0.9158 -0.3989 0.5211
loop_
_geom_bond_atom_site_label_1
_geom_bond_atom_site_label_2
_geom_bond_site_symmetry_1
_geom_bond_site_symmetry_2
Cl1 C16 1_555 1_555
N1 C1 1_555 1_555
C1 C2 1_555 1_555
C2 C3 1_555 1_555
C3 C8 1_555 1_555
C4 C1 1_555 1_555
H1 C4 1_555 1_555
C5 C4 1_555 1_555
H2 C5 1_555 1_555
C6 N1 1_555 1_555
H3 C6 1_555 1_555
H4 C6 1_555 1_555
C7 C2 1_555 1_555
H5 C7 1_555 1_555
C8 H6 1_555 1_555
C9 C5 1_555 1_555
H7 C9 1_555 1_555
C10 N1 1_555 1_555
C11 H8 1_555 1_555
H9 C11 1_555 1_555
C12 C6 1_555 1_555
H10 C12 1_555 1_555
H11 C12 1_555 1_555
C13 C10 1_555 1_555
H12 C13 1_555 1_555
C14 C8 1_555 1_555
H13 C14 1_555 1_555
C15 C13 1_555 1_555
H14 C15 1_555 1_555
C16 C11 1_555 1_555
H15 C16 1_555 1_555
H16 C16 1_555 1_555
C3 C10 1_555 1_555
C7 C9 1_555 1_555
C11 C12 1_555 1_555
C14 C15 1_555 1_555

#END
