
#######################################################################
#
#                 Cambridge Crystallographic Data Centre
#                                CCDC 
#
#######################################################################
#
# If this CIF has been generated from an entry in the Cambridge 
# Structural Database, then it will include bibliographic, chemical, 
# crystal, experimental, refinement or atomic coordinate data resulting 
# from the CCDC's data processing and validation procedures.
#
#######################################################################

data_AXAHEN
_chemical_formula_moiety         'C42 H36 N6 O2'
_chemical_name_systematic        
3-Methyl-4-([(3-([(3-methyl-5-oxo-1-phenyl-4,5-dihydro-1H-pyrazol-4-ylidene)(phenyl)methyl]aminomethyl)benzyl)amino](phenyl)methylidene)-1-phenyl-1H-pyrazol-5(4H)-one
_symmetry_cell_setting           monoclinic
_symmetry_space_group_name_H-M   'C 2/c'
_symmetry_Int_Tables_number      15
_space_group_name_Hall           '-C 2yn'
loop_
_symmetry_equiv_pos_site_id
_symmetry_equiv_pos_as_xyz
1 x,y,z
2 -x,y,1/2-z
3 1/2+x,1/2+y,z
4 1/2-x,1/2+y,1/2-z
5 -x,-y,-z
6 x,-y,1/2+z
7 1/2-x,1/2-y,-z
8 1/2+x,1/2-y,1/2+z
_cell_length_a                   26.4648(5)
_cell_length_b                   14.3131(3)
_cell_length_c                   9.5492(2)
_cell_angle_alpha                90
_cell_angle_beta                 96.7660(10)
_cell_angle_gamma                90
_cell_volume                     3591.98
_exptl_crystal_colour            yellow
_exptl_crystal_description       block
_cell_formula_units_Z            4
loop_
_atom_site_label
_atom_site_type_symbol
_atom_site_fract_x
_atom_site_fract_y
_atom_site_fract_z
C1 C 0.10591(12) 0.05358(17) 0.2444(3)
H1 H 0.1008 -0.0107 0.2429
C2 C 0.06985(11) 0.11231(16) 0.1809(3)
H2 H 0.0399 0.0873 0.1351
C3 C 0.07646(8) 0.20769(14) 0.1825(3)
H3 H 0.0513 0.2466 0.1386
C4 C 0.12058(7) 0.24467(12) 0.2496(2)
C5 C 0.15709(9) 0.18561(15) 0.3125(3)
H4 H 0.1874 0.2098 0.3576
C6 C 0.14915(12) 0.09075(16) 0.3094(4)
H5 H 0.1742 0.0514 0.3531
C7 C 0.10172(6) 0.41413(11) 0.18660(19)
C8 C 0.12958(6) 0.49712(11) 0.23182(18)
C9 C 0.17273(6) 0.46540(13) 0.32301(18)
C10 C 0.21466(8) 0.51993(14) 0.4038(2)
H6 H 0.2379 0.4778 0.4564
H7 H 0.2006 0.5618 0.4675
H8 H 0.2324 0.5552 0.3394
C11 C 0.11435(6) 0.58586(11) 0.18703(18)
C12 C 0.14287(6) 0.67116(11) 0.23827(18)
C13 C 0.13372(8) 0.71405(13) 0.3608(2)
H9 H 0.1088 0.6908 0.4124
C14 C 0.16157(9) 0.79207(16) 0.4079(2)
H10 H 0.1550 0.8216 0.4906
C15 C 0.19853(9) 0.82590(15) 0.3338(3)
H11 H 0.2178 0.8773 0.3674
C16 C 0.20722(9) 0.78489(16) 0.2119(3)
H12 H 0.2319 0.8090 0.1604
C17 C 0.17952(8) 0.70699(14) 0.1631(2)
H13 H 0.1858 0.6789 0.0790
C18 C 0.05088(7) 0.68359(12) 0.0429(2)
H14 H 0.0265 0.6715 -0.0392
H15 H 0.0773 0.7234 0.0133
C19 C 0.02445(6) 0.73496(11) 0.1510(2)
C20 C 0.0000 0.68840(15) 0.2500
H16 H 0.0000 0.6234 0.2500
C21 C 0.02423(8) 0.83127(13) 0.1519(3)
H17 H 0.0405 0.8642 0.0861
C22 C 0.0000 0.8787(2) 0.2500
H18 H 0.0000 0.9436 0.2500
N1 N 0.12954(5) 0.34190(9) 0.25329(16)
N2 N 0.17324(5) 0.37498(10) 0.33522(16)
N3 N 0.07349(5) 0.59561(9) 0.09345(16)
H19 H 0.0591 0.5453 0.0597
O1 O 0.06148(4) 0.40607(8) 0.10539(14)
C1A C -0.10591(12) 0.05358(17) 0.2556(3)
H1A H -0.1008 -0.0107 0.2571
C2A C -0.06985(11) 0.11231(16) 0.3191(3)
H2A H -0.0399 0.0873 0.3649
C3A C -0.07646(8) 0.20769(14) 0.3175(3)
H3A H -0.0513 0.2466 0.3614
C4A C -0.12058(7) 0.24467(12) 0.2504(2)
C5A C -0.15709(9) 0.18561(15) 0.1875(3)
H4A H -0.1874 0.2098 0.1424
C6A C -0.14915(12) 0.09075(16) 0.1906(4)
H5A H -0.1742 0.0514 0.1469
C7A C -0.10172(6) 0.41413(11) 0.31340(19)
C8A C -0.12958(6) 0.49712(11) 0.26818(18)
C9A C -0.17273(6) 0.46540(13) 0.17699(18)
C10A C -0.21466(8) 0.51993(14) 0.0962(2)
H6A H -0.2379 0.4778 0.0436
H7A H -0.2006 0.5618 0.0325
H8A H -0.2324 0.5552 0.1606
C11A C -0.11435(6) 0.58586(11) 0.31297(18)
C12A C -0.14287(6) 0.67116(11) 0.26173(18)
C13A C -0.13372(8) 0.71405(13) 0.1392(2)
H9A H -0.1088 0.6908 0.0876
C14A C -0.16157(9) 0.79207(16) 0.0921(2)
H10A H -0.1550 0.8216 0.0094
C15A C -0.19853(9) 0.82590(15) 0.1662(3)
H11A H -0.2178 0.8773 0.1326
C16A C -0.20722(9) 0.78489(16) 0.2881(3)
H12A H -0.2319 0.8090 0.3396
C17A C -0.17952(8) 0.70699(14) 0.3369(2)
H13A H -0.1858 0.6789 0.4210
C18A C -0.05088(7) 0.68359(12) 0.4571(2)
H14A H -0.0265 0.6715 0.5392
H15A H -0.0773 0.7234 0.4867
C19A C -0.02445(6) 0.73496(11) 0.3490(2)
C21A C -0.02423(8) 0.83127(13) 0.3481(3)
H17A H -0.0405 0.8642 0.4139
N1A N -0.12954(5) 0.34190(9) 0.24671(16)
N2A N -0.17324(5) 0.37498(10) 0.16478(16)
N3A N -0.07349(5) 0.59561(9) 0.40655(16)
H19A H -0.0591 0.5453 0.4403
O1A O -0.06148(4) 0.40607(8) 0.39461(14)
loop_
_geom_bond_atom_site_label_1
_geom_bond_atom_site_label_2
_geom_bond_site_symmetry_1
_geom_bond_site_symmetry_2
C1 H1 1_555 1_555
C2 C1 1_555 1_555
H2 C2 1_555 1_555
C3 C2 1_555 1_555
H3 C3 1_555 1_555
C4 C3 1_555 1_555
C5 C4 1_555 1_555
H4 C5 1_555 1_555
C6 C1 1_555 1_555
H5 C6 1_555 1_555
C7 C8 1_555 1_555
C8 C9 1_555 1_555
C9 C10 1_555 1_555
C10 H6 1_555 1_555
H7 C10 1_555 1_555
H8 C10 1_555 1_555
C11 C8 1_555 1_555
C12 C11 1_555 1_555
C13 C12 1_555 1_555
H9 C13 1_555 1_555
C14 C13 1_555 1_555
H10 C14 1_555 1_555
C15 C14 1_555 1_555
H11 C15 1_555 1_555
C16 C15 1_555 1_555
H12 C16 1_555 1_555
C17 C12 1_555 1_555
H13 C17 1_555 1_555
C18 H14 1_555 1_555
H15 C18 1_555 1_555
C19 C18 1_555 1_555
C20 C19 1_555 1_555
H16 C20 1_555 1_555
C21 C19 1_555 1_555
H17 C21 1_555 1_555
C22 C21 1_555 1_555
H18 C22 1_555 1_555
N1 C4 1_555 1_555
N2 C9 1_555 1_555
N3 C11 1_555 1_555
H19 N3 1_555 1_555
O1 C7 1_555 1_555
C1A H1A 1_555 1_555
C2A C1A 1_555 1_555
H2A C2A 1_555 1_555
C3A C2A 1_555 1_555
H3A C3A 1_555 1_555
C4A C3A 1_555 1_555
C5A C4A 1_555 1_555
H4A C5A 1_555 1_555
C6A C1A 1_555 1_555
H5A C6A 1_555 1_555
C7A C8A 1_555 1_555
C8A C9A 1_555 1_555
C9A C10A 1_555 1_555
C10A H6A 1_555 1_555
H7A C10A 1_555 1_555
H8A C10A 1_555 1_555
C11A C8A 1_555 1_555
C12A C11A 1_555 1_555
C13A C12A 1_555 1_555
H9A C13A 1_555 1_555
C14A C13A 1_555 1_555
H10A C14A 1_555 1_555
C15A C14A 1_555 1_555
H11A C15A 1_555 1_555
C16A C15A 1_555 1_555
H12A C16A 1_555 1_555
C17A C12A 1_555 1_555
H13A C17A 1_555 1_555
C18A H14A 1_555 1_555
H15A C18A 1_555 1_555
C19A C20 1_555 1_555
C21A C22 1_555 1_555
H17A C21A 1_555 1_555
N1A C4A 1_555 1_555
N2A C9A 1_555 1_555
N3A C11A 1_555 1_555
H19A N3A 1_555 1_555
O1A C7A 1_555 1_555
C5 C6 1_555 1_555
C7 N1 1_555 1_555
C16 C17 1_555 1_555
C18 N3 1_555 1_555
N1 N2 1_555 1_555
C5A C6A 1_555 1_555
C7A N1A 1_555 1_555
C16A C17A 1_555 1_555
C18A C19A 1_555 1_555
C18A N3A 1_555 1_555
C19A C21A 1_555 1_555
N1A N2A 1_555 1_555

#END
