
#######################################################################
#
#                 Cambridge Crystallographic Data Centre
#                                CCDC 
#
#######################################################################
#
# If this CIF has been generated from an entry in the Cambridge 
# Structural Database, then it will include bibliographic, chemical, 
# crystal, experimental, refinement or atomic coordinate data resulting 
# from the CCDC's data processing and validation procedures.
#
#######################################################################

data_AXEDUD
_chemical_formula_moiety         'C26 H27 N3 O2,H2 O1'
_chemical_name_systematic        
"N-Phenyl-10,11-dihydro-3,9-epoxycinchonan-6'-carboxamide monohydrate"
_symmetry_cell_setting           orthorhombic
_symmetry_space_group_name_H-M   'P 21 21 21'
_symmetry_Int_Tables_number      19
_space_group_name_Hall           'P 2ac 2ab'
loop_
_symmetry_equiv_pos_site_id
_symmetry_equiv_pos_as_xyz
1 x,y,z
2 1/2-x,-y,1/2+z
3 -x,1/2+y,1/2-z
4 1/2+x,1/2-y,-z
_cell_length_a                   9.5509(13)
_cell_length_b                   12.7565(17)
_cell_length_c                   18.691(3)
_cell_angle_alpha                90
_cell_angle_beta                 90
_cell_angle_gamma                90
_cell_volume                     2277.24
_exptl_crystal_colour            colorless
_exptl_crystal_description       prismatic
_cell_formula_units_Z            4
loop_
_atom_site_label
_atom_site_type_symbol
_atom_site_fract_x
_atom_site_fract_y
_atom_site_fract_z
N1 N 0.5992(4) 0.6343(3) 0.8326(2)
N2 N 0.0284(3) 0.8502(3) 0.95311(19)
N3 N 0.6557(3) 1.0344(2) 0.90324(19)
O1 O 0.4324(4) 0.5138(3) 0.8244(3)
O2 O 0.4479(3) 1.06557(19) 1.01666(14)
C1 C 0.4672(5) 0.5996(3) 0.8417(3)
C2 C 0.3611(4) 0.6739(3) 0.8724(2)
C3 C 0.2195(5) 0.6404(3) 0.8664(2)
H1 H 0.1994 0.5774 0.8436
C4 C 0.1139(4) 0.6986(3) 0.8933(2)
H2 H 0.0222 0.6746 0.8897
C5 C 0.1414(4) 0.7951(3) 0.9267(2)
C6 C 0.2810(4) 0.8314(3) 0.93242(19)
C7 C 0.3884(4) 0.7676(3) 0.9043(2)
H3 H 0.4807 0.7903 0.9076
C8 C 0.0570(5) 0.9383(4) 0.9850(3)
H4 H -0.0174 0.9758 1.0043
C9 C 0.1901(4) 0.9808(3) 0.9924(2)
H5 H 0.2015 1.0445 1.0159
C10 C 0.3037(4) 0.9301(3) 0.9657(2)
C11 C 0.4487(4) 0.9765(3) 0.9687(2)
H6 H 0.5144 0.9236 0.9866
C12 C 0.5002(4) 1.0177(3) 0.8968(2)
H7 H 0.4790 0.9678 0.8584
C13 C 0.4249(5) 1.1215(3) 0.8841(2)
H8 H 0.3287 1.1184 0.9006
H9 H 0.4259 1.1404 0.8338
C14 C 0.5111(5) 1.1983(3) 0.9287(2)
H10 H 0.4569 1.2613 0.9401
C15 C 0.6377(6) 1.2247(4) 0.8825(3)
H11 H 0.7074 1.2618 0.9105
H12 H 0.6101 1.2688 0.8426
C16 C 0.6977(6) 1.1204(4) 0.8550(3)
H13 H 0.6631 1.1068 0.8071
H14 H 0.7990 1.1247 0.8529
C17 C 0.6829(4) 1.0740(3) 0.9758(2)
H15 H 0.7669 1.1168 0.9763
H16 H 0.6957 1.0162 1.0088
C18 C 0.5556(4) 1.1395(3) 0.9974(2)
C19 C 0.5765(6) 1.2121(3) 1.0597(3)
H17 H 0.6397 1.2679 1.0455
H18 H 0.4873 1.2439 1.0719
C20 C 0.6346(7) 1.1590(4) 1.1247(3)
H19 H 0.5723 1.1039 1.1393
H20 H 0.6438 1.2091 1.1627
H21 H 0.7247 1.1299 1.1137
C21 C 0.7100(5) 0.5807(3) 0.7978(2)
C22 C 0.8233(5) 0.6386(4) 0.7782(2)
H22 H 0.8262 0.7097 0.7891
C23 C 0.9345(5) 0.5927(5) 0.7422(3)
H23 H 1.0116 0.6330 0.7294
C24 C 0.9311(6) 0.4876(5) 0.7254(3)
H24 H 1.0043 0.4566 0.7003
C25 C 0.8192(8) 0.4305(5) 0.7462(3)
H25 H 0.8176 0.3590 0.7363
C26 C 0.7066(6) 0.4752(4) 0.7820(3)
H26 H 0.6300 0.4345 0.7951
H27 H 0.612(5) 0.700(4) 0.846(3)
O3 O 0.7414(4) 0.8251(3) 0.8968(2)
H28 H 0.717(6) 0.897(4) 0.897(3)
H29 H 0.838(7) 0.822(4) 0.921(3)
loop_
_geom_bond_atom_site_label_1
_geom_bond_atom_site_label_2
_geom_bond_site_symmetry_1
_geom_bond_site_symmetry_2
N1 C1 1_555 1_555
N2 C5 1_555 1_555
N3 C12 1_555 1_555
O1 C1 1_555 1_555
O2 C11 1_555 1_555
C1 C2 1_555 1_555
C2 C3 1_555 1_555
C3 H1 1_555 1_555
C4 C3 1_555 1_555
H2 C4 1_555 1_555
C5 C4 1_555 1_555
C6 C5 1_555 1_555
C7 C2 1_555 1_555
H3 C7 1_555 1_555
C8 N2 1_555 1_555
H4 C8 1_555 1_555
C9 C8 1_555 1_555
H5 C9 1_555 1_555
C10 C6 1_555 1_555
C11 C10 1_555 1_555
H6 C11 1_555 1_555
C12 C11 1_555 1_555
H7 C12 1_555 1_555
C13 C12 1_555 1_555
H8 C13 1_555 1_555
H9 C13 1_555 1_555
C14 C13 1_555 1_555
H10 C14 1_555 1_555
C15 C14 1_555 1_555
H11 C15 1_555 1_555
H12 C15 1_555 1_555
C16 N3 1_555 1_555
H13 C16 1_555 1_555
H14 C16 1_555 1_555
C17 N3 1_555 1_555
H15 C17 1_555 1_555
H16 C17 1_555 1_555
C18 O2 1_555 1_555
C19 C18 1_555 1_555
H17 C19 1_555 1_555
H18 C19 1_555 1_555
C20 C19 1_555 1_555
H19 C20 1_555 1_555
H20 C20 1_555 1_555
H21 C20 1_555 1_555
C21 N1 1_555 1_555
C22 C21 1_555 1_555
H22 C22 1_555 1_555
C23 C22 1_555 1_555
H23 C23 1_555 1_555
C24 C23 1_555 1_555
H24 C24 1_555 1_555
C25 C24 1_555 1_555
H25 C25 1_555 1_555
C26 C21 1_555 1_555
H26 C26 1_555 1_555
H27 N1 1_555 1_555
O3 H28 1_555 1_555
H29 O3 1_555 1_555
C6 C7 1_555 1_555
C9 C10 1_555 1_555
C14 C18 1_555 1_555
C15 C16 1_555 1_555
C17 C18 1_555 1_555
C25 C26 1_555 1_555

#END
