
#######################################################################
#
#                 Cambridge Crystallographic Data Centre
#                                CCDC 
#
#######################################################################
#
# If this CIF has been generated from an entry in the Cambridge 
# Structural Database, then it will include bibliographic, chemical, 
# crystal, experimental, refinement or atomic coordinate data resulting 
# from the CCDC's data processing and validation procedures.
#
#######################################################################

data_AXEJIX
_chemical_formula_moiety         'C25 H28 N2 O5 S1,C2 H6 O1'
_chemical_name_systematic        
't-Butyl (4-(6-methoxy-9-oxo-1-(2-thienyl)-2,9-dihydrochromeno[2,3-c]pyrrol-3-yl)butyl)carbamate ethanol solvate'
_symmetry_cell_setting           triclinic
_symmetry_space_group_name_H-M   'P -1'
_symmetry_Int_Tables_number      2
_space_group_name_Hall           '-P 1'
loop_
_symmetry_equiv_pos_site_id
_symmetry_equiv_pos_as_xyz
1 x,y,z
2 -x,-y,-z
_cell_length_a                   8.1649(4)
_cell_length_b                   12.6242(5)
_cell_length_c                   13.6786(6)
_cell_angle_alpha                78.332(3)
_cell_angle_beta                 76.438(4)
_cell_angle_gamma                79.994(3)
_cell_volume                     1330.42
_exptl_crystal_colour            yellow
_exptl_crystal_description       cuboid
_cell_formula_units_Z            2
loop_
_atom_site_label
_atom_site_type_symbol
_atom_site_fract_x
_atom_site_fract_y
_atom_site_fract_z
O1 O 0.26982(15) 0.05894(9) 0.49297(9)
O2 O 0.26682(16) -0.30667(10) 0.66917(10)
N1 N 0.01782(18) 0.38075(11) 0.74026(10)
H1 H 0.0689 0.3159 0.7553
N2 N 0.22286(17) 0.28544(11) 0.30006(10)
H2 H 0.2259 0.3528 0.2724
C1 C 0.1854(2) -0.07490(13) 0.41612(13)
C2 C 0.2409(2) -0.04527(13) 0.49445(13)
C3 C 0.1469(2) 0.00404(14) 0.32677(13)
C4 C 0.2654(2) 0.24115(13) 0.39315(12)
C5 C 0.2691(2) -0.11951(13) 0.58110(13)
H3 H 0.3045 -0.0975 0.6328
C6 C 0.2433(2) 0.13372(13) 0.40821(12)
C7 C 0.1754(2) 0.21027(13) 0.25704(12)
C8 C 0.1870(2) 0.11143(13) 0.32484(12)
C9 C 0.2434(2) -0.22677(14) 0.58887(13)
C10 C 0.1864(2) 0.36732(14) 0.52469(13)
H4 H 0.1049 0.3191 0.5638
H5 H 0.1272 0.4259 0.4830
C11 C 0.1189(2) 0.46356(13) 0.67857(13)
H6 H 0.1715 0.4934 0.7218
H7 H 0.0461 0.5225 0.6462
C12 C 0.3252(2) 0.30425(13) 0.45597(13)
H8 H 0.3967 0.3552 0.4105
H9 H 0.3953 0.2540 0.4980
C13 C 0.1638(2) -0.18508(14) 0.42615(14)
H10 H 0.1285 -0.2077 0.3747
C14 C 0.1933(2) -0.25953(14) 0.50975(15)
H11 H 0.1800 -0.3321 0.5141
C15 C 0.2555(2) 0.41527(14) 0.59762(13)
H12 H 0.3303 0.3585 0.6310
H13 H 0.3230 0.4717 0.5586
C16 C 0.1307(2) 0.23934(13) 0.15752(13)
C17 C 0.0689(3) 0.23856(17) -0.00577(15)
H14 H 0.0525 0.2206 -0.0652
C18 C 0.0593(3) 0.34283(17) 0.00319(16)
H15 H 0.0292 0.4043 -0.0427
O3 O -0.20898(15) 0.30498(9) 0.82169(9)
O4 O -0.23607(16) 0.48843(10) 0.76561(11)
O5 O 0.08505(18) -0.02119(10) 0.26184(10)
C19 C -0.1497(2) 0.39911(13) 0.77514(12)
C20 C -0.3865(2) 0.30208(15) 0.87556(14)
C21 C 0.3121(2) -0.27798(16) 0.75393(15)
H16 H 0.4161 -0.2462 0.7314
H17 H 0.3274 -0.3422 0.8040
H18 H 0.2233 -0.2262 0.7835
C22 C -0.5023(3) 0.3429(2) 0.8004(2)
H19 H -0.5023 0.4201 0.7785
H20 H -0.6157 0.3282 0.8326
H21 H -0.4623 0.3064 0.7424
C23 C -0.3907(3) 0.18120(18) 0.91481(19)
H22 H -0.5035 0.1692 0.9512
H23 H -0.3125 0.1556 0.9598
H24 H -0.3587 0.1422 0.8583
C24 C -0.4239(3) 0.3656(2) 0.9621(2)
H25 H -0.4185 0.4416 0.9350
H26 H -0.3415 0.3394 1.0042
H27 H -0.5355 0.3564 1.0021
S1 S 0.10939(16) 0.14313(10) 0.08802(9)
C25 C 0.1055(8) 0.3398(5) 0.0994(4)
H28 H 0.1175 0.4030 0.1206
O6 O -0.14750(19) -0.15321(11) 0.24443(14)
H29 H -0.0797 -0.1138 0.2476
C26 C -0.3157(3) -0.09533(17) 0.26105(18)
H30 H -0.3390 -0.0681 0.3250
H31 H -0.3969 -0.1450 0.2664
C27 C -0.3379(3) -0.00212(19) 0.1767(2)
H32 H -0.3199 -0.0292 0.1137
H33 H -0.2571 0.0469 0.1708
H34 H -0.4511 0.0359 0.1911
C28? C 0.1199(11) 0.1769(7) 0.0935(6)
H35? H 0.1415 0.1012 0.1075
S2? S 0.0832(2) 0.37628(14) 0.10582(12)
loop_
_geom_bond_atom_site_label_1
_geom_bond_atom_site_label_2
_geom_bond_site_symmetry_1
_geom_bond_site_symmetry_2
O1 C2 1_555 1_555
O2 C9 1_555 1_555
N1 H1 1_555 1_555
N2 H2 1_555 1_555
C1 C2 1_555 1_555
C2 C5 1_555 1_555
C3 C1 1_555 1_555
C4 N2 1_555 1_555
C5 H3 1_555 1_555
C6 O1 1_555 1_555
C7 N2 1_555 1_555
C8 C3 1_555 1_555
C9 C5 1_555 1_555
C10 H4 1_555 1_555
H5 C10 1_555 1_555
C11 N1 1_555 1_555
H6 C11 1_555 1_555
H7 C11 1_555 1_555
C12 C4 1_555 1_555
H8 C12 1_555 1_555
H9 C12 1_555 1_555
C13 C1 1_555 1_555
H10 C13 1_555 1_555
C14 C9 1_555 1_555
H11 C14 1_555 1_555
C15 C10 1_555 1_555
H12 C15 1_555 1_555
H13 C15 1_555 1_555
C16 C7 1_555 1_555
C17 H14 1_555 1_555
C18 C17 1_555 1_555
H15 C18 1_555 1_555
O3 C19 1_555 1_555
O4 C19 1_555 1_555
O5 C3 1_555 1_555
C19 N1 1_555 1_555
C20 O3 1_555 1_555
C21 O2 1_555 1_555
H16 C21 1_555 1_555
H17 C21 1_555 1_555
H18 C21 1_555 1_555
C22 C20 1_555 1_555
H19 C22 1_555 1_555
H20 C22 1_555 1_555
H21 C22 1_555 1_555
C23 C20 1_555 1_555
H22 C23 1_555 1_555
H23 C23 1_555 1_555
H24 C23 1_555 1_555
C24 C20 1_555 1_555
H25 C24 1_555 1_555
H26 C24 1_555 1_555
H27 C24 1_555 1_555
S1 C16 1_555 1_555
C25 C16 1_555 1_555
H28 C25 1_555 1_555
O6 H29 1_555 1_555
C26 O6 1_555 1_555
H30 C26 1_555 1_555
H31 C26 1_555 1_555
C27 C26 1_555 1_555
H32 C27 1_555 1_555
H33 C27 1_555 1_555
H34 C27 1_555 1_555
C4 C6 1_555 1_555
C6 C8 1_555 1_555
C7 C8 1_555 1_555
C10 C12 1_555 1_555
C11 C15 1_555 1_555
C13 C14 1_555 1_555
C17 S1 1_555 1_555
C18 C25 1_555 1_555

#END
