
#######################################################################
#
#                 Cambridge Crystallographic Data Centre
#                                CCDC 
#
#######################################################################
#
# If this CIF has been generated from an entry in the Cambridge 
# Structural Database, then it will include bibliographic, chemical, 
# crystal, experimental, refinement or atomic coordinate data resulting 
# from the CCDC's data processing and validation procedures.
#
#######################################################################

data_AXEKAQ
_chemical_formula_moiety         'C19 H23 N1 O6'
_chemical_name_systematic        
'Ethyl 13-(1,3-dioxolan-2-ylmethyl)-5,7-dioxa-12-azatetracyclo[10.2.1.0^2,10^.0^4,8^]pentadeca-2(10),3,8-triene-14-carboxylate'
_symmetry_cell_setting           monoclinic
_symmetry_space_group_name_H-M   'C 2/c'
_symmetry_Int_Tables_number      15
_space_group_name_Hall           '-C 2yn'
loop_
_symmetry_equiv_pos_site_id
_symmetry_equiv_pos_as_xyz
1 x,y,z
2 -x,y,1/2-z
3 1/2+x,1/2+y,z
4 1/2-x,1/2+y,1/2-z
5 -x,-y,-z
6 x,-y,1/2+z
7 1/2-x,1/2-y,-z
8 1/2+x,1/2-y,1/2+z
_cell_length_a                   21.7203(18)
_cell_length_b                   14.5168(12)
_cell_length_c                   15.3294(13)
_cell_angle_alpha                90
_cell_angle_beta                 132.7630(10)
_cell_angle_gamma                90
_cell_volume                     3548.6
_exptl_crystal_colour            colorless
_exptl_crystal_description       needle
_cell_formula_units_Z            8
loop_
_atom_site_label
_atom_site_type_symbol
_atom_site_fract_x
_atom_site_fract_y
_atom_site_fract_z
N1 N 0.20554(11) 0.68937(13) 0.62989(15)
O1 O -0.16891(9) 0.57782(11) 0.15593(14)
C1 C 0.07531(12) 0.59623(15) 0.47237(17)
O2 O -0.10209(10) 0.44128(11) 0.25391(14)
C2 C -0.04819(13) 0.67849(15) 0.30494(18)
H1 H -0.0761 0.7331 0.2654
C3 C -0.04773(13) 0.51429(15) 0.31856(18)
O3 O 0.09197(10) 0.93175(11) 0.65318(16)
C4 C -0.08736(12) 0.59539(15) 0.26052(18)
C5 C 0.03315(14) 0.51218(16) 0.42509(18)
H2 H 0.0592 0.4570 0.4647
C6 C 0.03580(12) 0.67849(14) 0.41257(17)
C7 C 0.08603(13) 0.76680(15) 0.46519(18)
H3 H 0.0620 0.8151 0.4051
C8 C 0.17686(13) 0.74271(15) 0.67857(18)
H4 H 0.1597 0.6996 0.7079
C9 C 0.09685(13) 0.79873(14) 0.57027(19)
H5 H 0.0479 0.7799 0.5575
C10 C 0.24869(14) 0.80156(15) 0.78212(18)
H6 H 0.2713 0.8381 0.7564
H7 H 0.2271 0.8437 0.8050
O4 O 0.12979(12) 0.95220(12) 0.55051(18)
C11 C 0.16673(14) 0.59788(17) 0.58759(19)
H8 H 0.1714 0.5688 0.6489
H9 H 0.1985 0.5609 0.5771
C12 C 0.31758(15) 0.74587(18) 0.8876(2)
H10 H 0.3373 0.7005 0.8640
O5 O 0.38493(12) 0.80109(14) 0.97896(14)
C13 C 0.10818(14) 0.90172(17) 0.5880(2)
O6 O 0.29029(13) 0.70078(15) 0.93584(18)
C14 C 0.17669(13) 0.74469(18) 0.52753(19)
H11 H 0.1793 0.7097 0.4762
H12 H 0.2097 0.8004 0.5530
C15 C 0.10870(17) 1.02880(17) 0.6857(2)
H13 H 0.0656 1.0666 0.6175
H14 H 0.1625 1.0460 0.7129
C16 C -0.17578(15) 0.48093(17) 0.1461(2)
H15 H -0.1820 0.4609 0.0800
H16 H -0.2248 0.4611 0.1314
C17 C 0.41913(19) 0.7616(2) 1.0875(2)
H17 H 0.4242 0.8072 1.1383
H18 H 0.4742 0.7360 1.1285
C18 C 0.1092(3) 1.0426(2) 0.7815(4)
H19 H 0.0545 1.0296 0.7520
H20 H 0.1239 1.1052 0.8086
H21 H 0.1495 1.0019 0.8464
C19 C 0.3609(2) 0.6895(3) 1.0566(3)
H22 H 0.3857 0.6293 1.0713
H23 H 0.3459 0.6954 1.1032
loop_
_geom_bond_atom_site_label_1
_geom_bond_atom_site_label_2
_geom_bond_site_symmetry_1
_geom_bond_site_symmetry_2
N1 C8 1_555 1_555
O1 C4 1_555 1_555
C1 C5 1_555 1_555
O2 C3 1_555 1_555
C2 H1 1_555 1_555
C3 C4 1_555 1_555
O3 C13 1_555 1_555
C4 C2 1_555 1_555
C5 C3 1_555 1_555
H2 C5 1_555 1_555
C6 C1 1_555 1_555
C7 C6 1_555 1_555
H3 C7 1_555 1_555
C8 H4 1_555 1_555
C9 C7 1_555 1_555
H5 C9 1_555 1_555
C10 C8 1_555 1_555
H6 C10 1_555 1_555
H7 C10 1_555 1_555
O4 C13 1_555 1_555
C11 N1 1_555 1_555
H8 C11 1_555 1_555
H9 C11 1_555 1_555
C12 C10 1_555 1_555
H10 C12 1_555 1_555
O5 C12 1_555 1_555
C13 C9 1_555 1_555
O6 C12 1_555 1_555
C14 N1 1_555 1_555
H11 C14 1_555 1_555
H12 C14 1_555 1_555
C15 O3 1_555 1_555
H13 C15 1_555 1_555
H14 C15 1_555 1_555
C16 O1 1_555 1_555
H15 C16 1_555 1_555
H16 C16 1_555 1_555
C17 O5 1_555 1_555
H17 C17 1_555 1_555
H18 C17 1_555 1_555
C18 C15 1_555 1_555
H19 C18 1_555 1_555
H20 C18 1_555 1_555
H21 C18 1_555 1_555
C19 O6 1_555 1_555
H22 C19 1_555 1_555
H23 C19 1_555 1_555
C1 C11 1_555 1_555
O2 C16 1_555 1_555
C2 C6 1_555 1_555
C7 C14 1_555 1_555
C8 C9 1_555 1_555
C17 C19 1_555 1_555

#END
