
#######################################################################
#
#                 Cambridge Crystallographic Data Centre
#                                CCDC 
#
#######################################################################
#
# If this CIF has been generated from an entry in the Cambridge 
# Structural Database, then it will include bibliographic, chemical, 
# crystal, experimental, refinement or atomic coordinate data resulting 
# from the CCDC's data processing and validation procedures.
#
#######################################################################

data_AXELIZ
_chemical_formula_moiety         'C30 H21 N1 S3'
_chemical_name_systematic        
4-(2-Thienyl)-N,N-bis(4-(2-thienyl)phenyl)aniline
_symmetry_cell_setting           triclinic
_symmetry_space_group_name_H-M   'P -1'
_symmetry_Int_Tables_number      2
_space_group_name_Hall           '-P 1'
loop_
_symmetry_equiv_pos_site_id
_symmetry_equiv_pos_as_xyz
1 x,y,z
2 -x,-y,-z
_cell_length_a                   9.6428(10)
_cell_length_b                   10.1551(10)
_cell_length_c                   13.5716(14)
_cell_angle_alpha                99.472(2)
_cell_angle_beta                 108.025(2)
_cell_angle_gamma                101.172(2)
_cell_volume                     1203.37
_exptl_crystal_colour            yellow
_exptl_crystal_description       block
_cell_formula_units_Z            2
loop_
_atom_site_label
_atom_site_type_symbol
_atom_site_fract_x
_atom_site_fract_y
_atom_site_fract_z
C1 C 0.7728(4) 0.6203(4) 0.1994(3)
C2 C 0.8883(4) 0.5862(4) 0.1680(3)
H1 H 0.9864 0.6481 0.1969
C3 C 0.8623(4) 0.4642(4) 0.0959(3)
H2 H 0.9432 0.4434 0.0758
C4 C 0.7195(4) 0.3695(4) 0.0511(3)
C5 C 0.6050(4) 0.4052(4) 0.0848(3)
H3 H 0.5069 0.3432 0.0570
C6 C 0.6313(4) 0.5273(4) 0.1567(3)
H4 H 0.5513 0.5485 0.1777
C7 C 0.6888(4) 0.2406(4) -0.0269(3)
C8 C 0.5676(4) 0.1236(3) -0.0576(3)
H5 H 0.4872 0.1168 -0.0307
C9 C 0.5783(6) 0.0155(5) -0.1341(4)
H6 H 0.5068 -0.0723 -0.1626
C10 C 0.6994(6) 0.0503(5) -0.1617(3)
H7 H 0.7225 -0.0091 -0.2127
C11 C 0.8787(4) 0.8712(4) 0.2569(3)
C12 C 0.9841(4) 0.9735(4) 0.3442(3)
H8 H 1.0045 0.9587 0.4140
C13 C 1.0587(4) 1.0952(4) 0.3306(3)
H9 H 1.1301 1.1629 0.3912
C14 C 1.0312(4) 1.1210(3) 0.2293(3)
C15 C 0.9248(4) 1.0186(4) 0.1416(3)
H10 H 0.9031 1.0339 0.0718
C16 C 0.8519(4) 0.8968(4) 0.1556(3)
H11 H 0.7817 0.8284 0.0950
C17 C 1.1137(4) 1.2483(4) 0.2125(3)
C18 C 1.1609(4) 1.2617(3) 0.1247(3)
H12 H 1.1430 1.1880 0.0654
C19 C 1.2393(4) 1.4019(4) 0.1382(3)
H13 H 1.2782 1.4319 0.0870
C20 C 1.2531(4) 1.4877(4) 0.2297(3)
H14 H 1.3034 1.5834 0.2502
C21 C 0.7130(4) 0.7570(3) 0.3391(3)
C22 C 0.6347(5) 0.8587(4) 0.3435(3)
H15 H 0.6479 0.9293 0.3066
C23 C 0.5379(5) 0.8582(4) 0.4009(3)
H16 H 0.4838 0.9270 0.4015
C24 C 0.5197(4) 0.7576(4) 0.4576(3)
C25 C 0.6023(4) 0.6580(4) 0.4559(3)
H17 H 0.5924 0.5895 0.4950
C26 C 0.6978(4) 0.6583(4) 0.3979(3)
H18 H 0.7534 0.5907 0.3981
C27 C 0.4106(5) 0.7480(4) 0.5130(3)
C28 C 0.4356(3) 0.7108(2) 0.62585(18)
H19 H 0.5213 0.6928 0.6736
C29 C 0.2824(8) 0.7124(5) 0.6351(5)
H20 H 0.2587 0.6925 0.6949
C30 C 0.1837(7) 0.7431(6) 0.5553(6)
H21 H 0.0855 0.7465 0.5544
N1 N 0.8024(4) 0.7486(3) 0.2734(2)
S1 S 0.80668(12) 0.21202(11) -0.09567(8)
S2 S 1.16993(12) 1.40456(9) 0.30436(7)
S3 S 0.24171(18) 0.77421(18) 0.46049(15)
loop_
_geom_bond_atom_site_label_1
_geom_bond_atom_site_label_2
_geom_bond_site_symmetry_1
_geom_bond_site_symmetry_2
C1 C2 1_555 1_555
C2 H1 1_555 1_555
C3 C2 1_555 1_555
H2 C3 1_555 1_555
C4 C3 1_555 1_555
C5 C4 1_555 1_555
H3 C5 1_555 1_555
C6 C1 1_555 1_555
H4 C6 1_555 1_555
C7 C4 1_555 1_555
C8 C7 1_555 1_555
H5 C8 1_555 1_555
C9 C8 1_555 1_555
H6 C9 1_555 1_555
C10 C9 1_555 1_555
H7 C10 1_555 1_555
C11 C12 1_555 1_555
C12 H8 1_555 1_555
C13 C12 1_555 1_555
H9 C13 1_555 1_555
C14 C13 1_555 1_555
C15 C14 1_555 1_555
H10 C15 1_555 1_555
C16 C11 1_555 1_555
H11 C16 1_555 1_555
C17 C14 1_555 1_555
C18 C17 1_555 1_555
H12 C18 1_555 1_555
C19 C18 1_555 1_555
H13 C19 1_555 1_555
C20 C19 1_555 1_555
H14 C20 1_555 1_555
C21 C22 1_555 1_555
C22 H15 1_555 1_555
C23 C22 1_555 1_555
H16 C23 1_555 1_555
C24 C23 1_555 1_555
C25 C24 1_555 1_555
H17 C25 1_555 1_555
C26 C21 1_555 1_555
H18 C26 1_555 1_555
C27 C24 1_555 1_555
C28 C27 1_555 1_555
H19 C28 1_555 1_555
C29 C28 1_555 1_555
H20 C29 1_555 1_555
C30 C29 1_555 1_555
H21 C30 1_555 1_555
N1 C1 1_555 1_555
S1 C7 1_555 1_555
S2 C17 1_555 1_555
S3 C27 1_555 1_555
C5 C6 1_555 1_555
C10 S1 1_555 1_555
C11 N1 1_555 1_555
C15 C16 1_555 1_555
C20 S2 1_555 1_555
C21 N1 1_555 1_555
C25 C26 1_555 1_555
C30 S3 1_555 1_555

#END
