
#######################################################################
#
#                 Cambridge Crystallographic Data Centre
#                                CCDC 
#
#######################################################################
#
# If this CIF has been generated from an entry in the Cambridge 
# Structural Database, then it will include bibliographic, chemical, 
# crystal, experimental, refinement or atomic coordinate data resulting 
# from the CCDC's data processing and validation procedures.
#
#######################################################################

data_AXOKOO
_chemical_formula_moiety         'C21 H13 I1 N2'
_chemical_name_systematic        5-Iodo-6-phenylbenzimidazo[2,1-a]isoquinoline
_symmetry_cell_setting           monoclinic
_symmetry_space_group_name_H-M   'P 21/n'
_symmetry_Int_Tables_number      14
_space_group_name_Hall           '-P 2yn'
loop_
_symmetry_equiv_pos_site_id
_symmetry_equiv_pos_as_xyz
1 x,y,z
2 1/2-x,1/2+y,1/2-z
3 -x,-y,-z
4 1/2+x,1/2-y,1/2+z
_cell_length_a                   9.0443(8)
_cell_length_b                   16.3435(15)
_cell_length_c                   11.2531(10)
_cell_angle_alpha                90
_cell_angle_beta                 102.295(2)
_cell_angle_gamma                90
_cell_volume                     1625.23
_exptl_crystal_colour            colorless
_exptl_crystal_description       prismatic
_cell_formula_units_Z            4
loop_
_atom_site_label
_atom_site_type_symbol
_atom_site_fract_x
_atom_site_fract_y
_atom_site_fract_z
I1 I 0.22347(3) 0.628427(12) 0.217872(17)
N1 N 0.1540(2) 0.57409(13) 0.57606(19)
N2 N 0.2191(2) 0.47718(14) 0.72094(19)
C1 C 0.1570(3) 0.61292(15) 0.4654(2)
C2 C 0.2202(3) 0.57191(16) 0.3841(2)
C3 C 0.2921(3) 0.49248(16) 0.4105(3)
C4 C 0.3583(3) 0.44843(18) 0.3286(3)
H1 H 0.3576 0.4703 0.2522
C5 C 0.4242(4) 0.37377(18) 0.3590(3)
H2 H 0.4657 0.3450 0.3027
C6 C 0.4295(3) 0.34061(19) 0.4738(3)
H3 H 0.4749 0.2900 0.4940
C7 C 0.3680(3) 0.38238(16) 0.5570(3)
H4 H 0.3725 0.3605 0.6340
C8 C 0.2984(3) 0.45790(16) 0.5257(2)
C9 C 0.2281(3) 0.50039(15) 0.6116(2)
C10 C 0.1337(3) 0.53758(15) 0.7614(2)
C11 C 0.0885(3) 0.59816(16) 0.6728(2)
C12 C -0.0055(3) 0.66267(17) 0.6912(2)
H5 H -0.0378 0.7020 0.6315
C13 C -0.0479(3) 0.66549(19) 0.8011(3)
H6 H -0.1109 0.7076 0.8158
C14 C 0.0004(4) 0.60731(19) 0.8914(3)
H7 H -0.0292 0.6120 0.9653
C15 C 0.0910(3) 0.54309(17) 0.8730(3)
H8 H 0.1230 0.5043 0.9334
C16 C 0.0960(3) 0.69780(15) 0.4530(2)
C17 C -0.0461(3) 0.71510(17) 0.3837(2)
H9 H -0.1014 0.6744 0.3363
C18 C -0.1059(4) 0.7925(2) 0.3849(3)
H10 H -0.2016 0.8038 0.3384
C19 C -0.0238(4) 0.85341(19) 0.4550(3)
H11 H -0.0652 0.9054 0.4569
C20 C 0.1186(4) 0.83708(19) 0.5218(3)
H12 H 0.1747 0.8783 0.5676
C21 C 0.1786(3) 0.75960(17) 0.5212(3)
H13 H 0.2751 0.7487 0.5667
loop_
_geom_bond_atom_site_label_1
_geom_bond_atom_site_label_2
_geom_bond_site_symmetry_1
_geom_bond_site_symmetry_2
I1 C2 1_555 1_555
N1 C1 1_555 1_555
N2 C9 1_555 1_555
C1 C2 1_555 1_555
C2 C3 1_555 1_555
C3 C4 1_555 1_555
C4 H1 1_555 1_555
C5 C4 1_555 1_555
H2 C5 1_555 1_555
C6 C5 1_555 1_555
H3 C6 1_555 1_555
C7 C6 1_555 1_555
H4 C7 1_555 1_555
C8 C3 1_555 1_555
C9 N1 1_555 1_555
C10 N2 1_555 1_555
C11 N1 1_555 1_555
C12 C11 1_555 1_555
H5 C12 1_555 1_555
C13 C12 1_555 1_555
H6 C13 1_555 1_555
C14 C13 1_555 1_555
H7 C14 1_555 1_555
C15 C10 1_555 1_555
H8 C15 1_555 1_555
C16 C1 1_555 1_555
C17 C16 1_555 1_555
H9 C17 1_555 1_555
C18 C17 1_555 1_555
H10 C18 1_555 1_555
C19 C18 1_555 1_555
H11 C19 1_555 1_555
C20 C19 1_555 1_555
H12 C20 1_555 1_555
C21 C16 1_555 1_555
H13 C21 1_555 1_555
C7 C8 1_555 1_555
C8 C9 1_555 1_555
C10 C11 1_555 1_555
C14 C15 1_555 1_555
C20 C21 1_555 1_555

#END
