
#######################################################################
#
#                 Cambridge Crystallographic Data Centre
#                                CCDC 
#
#######################################################################
#
# If this CIF has been generated from an entry in the Cambridge 
# Structural Database, then it will include bibliographic, chemical, 
# crystal, experimental, refinement or atomic coordinate data resulting 
# from the CCDC's data processing and validation procedures.
#
#######################################################################

data_AXONIK
_chemical_formula_moiety         'C14 H32 N4 O4,6(H2 O1)'
_chemical_name_systematic        
'(R,S,S,R)-1,4,8,11-Tetramethyl-1,4,8,11-tetra-azacyclotetradecane tetra-N-oxide hexahydrate'
_symmetry_cell_setting           monoclinic
_symmetry_space_group_name_H-M   'P 21/c'
_symmetry_Int_Tables_number      14
_space_group_name_Hall           '-P 2ybc'
loop_
_symmetry_equiv_pos_site_id
_symmetry_equiv_pos_as_xyz
1 x,y,z
2 x,1/2-y,1/2+z
3 -x,-y,-z
4 -x,1/2+y,1/2-z
_cell_length_a                   5.6476(10)
_cell_length_b                   17.035(3)
_cell_length_c                   11.955(2)
_cell_angle_alpha                90
_cell_angle_beta                 102.109(4)
_cell_angle_gamma                90
_cell_volume                     1124.56
_exptl_crystal_colour            colorless
_exptl_crystal_description       block
_cell_formula_units_Z            2
loop_
_atom_site_label
_atom_site_type_symbol
_atom_site_fract_x
_atom_site_fract_y
_atom_site_fract_z
O1 O 0.3279(2) 0.37822(7) 0.47504(10)
O2 O 0.8096(3) 0.50659(8) 0.18932(12)
N1 N 0.5468(3) 0.35491(9) 0.54274(13)
N2 N 0.5922(3) 0.50739(9) 0.22764(12)
C1 C 0.7431(3) 0.35432(11) 0.47314(16)
H1 H 0.7126 0.3110 0.4194
H2 H 0.8978 0.3448 0.5244
C2 C 0.7616(3) 0.42943(11) 0.40701(16)
H3 H 0.7421 0.4741 0.4547
H4 H 0.9217 0.4326 0.3899
C3 C 0.5741(3) 0.43420(11) 0.29656(15)
H5 H 0.5910 0.3887 0.2501
H6 H 0.4142 0.4321 0.3142
C4 C 0.5919(3) 0.58202(11) 0.29530(16)
H7 H 0.5844 0.6263 0.2437
H8 H 0.7435 0.5855 0.3509
C5 C 0.6161(3) 0.41142(12) 0.64217(16)
H9 H 0.7602 0.3927 0.6943
H10 H 0.6513 0.4626 0.6142
C6 C 0.5234(4) 0.27383(12) 0.58677(19)
H11 H 0.4000 0.2732 0.6311
H12 H 0.6750 0.2580 0.6340
H13 H 0.4803 0.2382 0.5235
C7 C 0.3851(4) 0.50794(13) 0.12705(17)
H14 H 0.3936 0.5542 0.0821
H15 H 0.2354 0.5079 0.1531
H16 H 0.3929 0.4621 0.0812
C5B C 0.3839(3) 0.58858(12) 0.35783(16)
N1B N 0.4532(3) 0.64509(9) 0.45726(13)
O1B O 0.6721(2) 0.62178(7) 0.52496(10)
C1B C 0.2569(3) 0.64568(11) 0.52686(16)
H1B H 0.2874 0.6890 0.5806
H2B H 0.1022 0.6552 0.4756
C2B C 0.2384(3) 0.57057(11) 0.59299(16)
H3B H 0.2579 0.5259 0.5453
H4B H 0.0783 0.5674 0.6101
C3B C 0.4259(3) 0.56580(11) 0.70344(15)
N2B N 0.4078(3) 0.49261(9) 0.77236(12)
O2B O 0.1904(3) 0.49341(8) 0.81068(12)
C4B C 0.4081(3) 0.41798(11) 0.70470(16)
H7B H 0.4156 0.3737 0.7563
H8B H 0.2565 0.4145 0.6491
C7B C 0.6149(4) 0.49206(13) 0.87295(17)
H14B H 0.6064 0.4458 0.9179
H15B H 0.7646 0.4921 0.8469
H16B H 0.6071 0.5379 0.9188
H5B H 0.4090 0.6113 0.7499
H6B H 0.5858 0.5679 0.6858
C6B C 0.4766(4) 0.72617(12) 0.41323(19)
H11B H 0.6000 0.7268 0.3689
H12B H 0.3250 0.7420 0.3660
H13B H 0.5197 0.7618 0.4765
H9B H 0.2398 0.6073 0.3057
H10B H 0.3487 0.5374 0.3858
O3 O 0.1581(4) 0.28179(11) 0.29437(14)
H17 H 0.214(5) 0.3143(17) 0.359(3)
H18 H 0.113(5) 0.2403(19) 0.318(2)
O4 O 0.9386(5) 0.64504(11) 0.10804(18)
H19 H 0.886(5) 0.5992(19) 0.126(3)
H20 H 0.976(5) 0.6396(19) 0.047(3)
O5 O -0.0633(4) 0.36803(11) 0.10221(15)
H21 H -0.101(5) 0.4116(19) 0.125(3)
H22 H 0.008(6) 0.3420(18) 0.155(3)
loop_
_geom_bond_atom_site_label_1
_geom_bond_atom_site_label_2
_geom_bond_site_symmetry_1
_geom_bond_site_symmetry_2
O1 N1 1_555 1_555
O2 N2 1_555 1_555
N1 C1 1_555 1_555
N2 C3 1_555 1_555
C1 H1 1_555 1_555
H2 C1 1_555 1_555
C2 C1 1_555 1_555
H3 C2 1_555 1_555
H4 C2 1_555 1_555
C3 C2 1_555 1_555
H5 C3 1_555 1_555
H6 C3 1_555 1_555
C4 N2 1_555 1_555
H7 C4 1_555 1_555
H8 C4 1_555 1_555
C5 N1 1_555 1_555
H9 C5 1_555 1_555
H10 C5 1_555 1_555
C6 N1 1_555 1_555
H11 C6 1_555 1_555
H12 C6 1_555 1_555
H13 C6 1_555 1_555
C7 N2 1_555 1_555
H14 C7 1_555 1_555
H15 C7 1_555 1_555
H16 C7 1_555 1_555
O3 H17 1_555 1_555
H18 O3 1_555 1_555
O4 H19 1_555 1_555
H20 O4 1_555 1_555
O5 H21 1_555 1_555
H22 O5 1_555 1_555
C5B C4 1_555 1_555
N1B C5B 1_555 1_555
O1B N1B 1_555 1_555
C1B N1B 1_555 1_555
H1B C1B 1_555 1_555
H2B C1B 1_555 1_555
C2B C1B 1_555 1_555
H3B C2B 1_555 1_555
H4B C2B 1_555 1_555
C3B C2B 1_555 1_555
N2B C3B 1_555 1_555
O2B N2B 1_555 1_555
C4B C5 1_555 1_555
H7B C4B 1_555 1_555
H8B C4B 1_555 1_555
C7B N2B 1_555 1_555
H14B C7B 1_555 1_555
H15B C7B 1_555 1_555
H16B C7B 1_555 1_555
H5B C3B 1_555 1_555
H6B C3B 1_555 1_555
C6B N1B 1_555 1_555
H11B C6B 1_555 1_555
H12B C6B 1_555 1_555
H13B C6B 1_555 1_555
H9B C5B 1_555 1_555
H10B C5B 1_555 1_555
N2B C4B 1_555 1_555

#END
