
#######################################################################
#
#                 Cambridge Crystallographic Data Centre
#                                CCDC 
#
#######################################################################
#
# If this CIF has been generated from an entry in the Cambridge 
# Structural Database, then it will include bibliographic, chemical, 
# crystal, experimental, refinement or atomic coordinate data resulting 
# from the CCDC's data processing and validation procedures.
#
#######################################################################

data_AXUBUR04
_chemical_formula_moiety         'C8 H5 F1'
_chemical_name_systematic        1-ethynyl-2-fluorobenzene
_symmetry_cell_setting           orthorhombic
_symmetry_space_group_name_H-M   'P n a 21'
_symmetry_Int_Tables_number      33
_space_group_name_Hall           'P 2c -2n'
loop_
_symmetry_equiv_pos_site_id
_symmetry_equiv_pos_as_xyz
1 x,y,z
2 -x,-y,1/2+z
3 1/2-x,1/2+y,1/2+z
4 1/2+x,1/2-y,z
_cell_length_a                   7.578(6)
_cell_length_b                   13.024(14)
_cell_length_c                   6.171(5)
_cell_angle_alpha                90
_cell_angle_beta                 90
_cell_angle_gamma                90
_cell_volume                     609.052
_exptl_crystal_colour            'light colorless'
_exptl_crystal_description       Cylinder
_cell_formula_units_Z            4
loop_
_atom_site_label
_atom_site_type_symbol
_atom_site_fract_x
_atom_site_fract_y
_atom_site_fract_z
C1 C 0.3313(13) 0.7054(9) 0.5658(15)
C2 C 0.4020(11) 0.7321(11) 0.3657(12)
C3 C 0.4304(7) 0.8348(12) 0.3151(12)
H1 H 0.4777 0.8527 0.1813
C4 C 0.3880(9) 0.9108(9) 0.465(2)
H2 H 0.4069 0.9795 0.4308
C5 C 0.3172(8) 0.8840(10) 0.6646(16)
H3 H 0.2888 0.9348 0.7646
C6 C 0.2889(9) 0.7813(11) 0.7152(9)
H4 H 0.2415 0.7634 0.8490
C7 C 0.4446(17) 0.653(2) 0.2126(19)
C8 C 0.4681(13) 0.5869(16) 0.086(2)
H5 H 0.4867 0.5349 -0.0152
F1 F 0.2993(11) 0.6162(15) 0.6111(17)
H6? H 0.3123 0.6367 0.5996
F2? F 0.494(3) 0.859(4) 0.145(4)
loop_
_geom_bond_atom_site_label_1
_geom_bond_atom_site_label_2
_geom_bond_site_symmetry_1
_geom_bond_site_symmetry_2
C1 C2 1_555 1_555
C2 C3 1_555 1_555
C3 H1 1_555 1_555
C4 C3 1_555 1_555
H2 C4 1_555 1_555
C5 C4 1_555 1_555
H3 C5 1_555 1_555
C6 C1 1_555 1_555
H4 C6 1_555 1_555
C7 C2 1_555 1_555
C8 C7 1_555 1_555
H5 C8 1_555 1_555
F1 C1 1_555 1_555
C5 C6 1_555 1_555

#END
