
#######################################################################
#
#                 Cambridge Crystallographic Data Centre
#                                CCDC 
#
#######################################################################
#
# If this CIF has been generated from an entry in the Cambridge 
# Structural Database, then it will include bibliographic, chemical, 
# crystal, experimental, refinement or atomic coordinate data resulting 
# from the CCDC's data processing and validation procedures.
#
#######################################################################

data_AYAVUS
_chemical_name_common            
'7-amino-2-trifluoromethyl-6-(5-trifluoromethyl-1,3,4-thiadiazol-2-yl)-4,4a,5,6-tetrahydroimidazo(1,5-d)(1,3,4)thiadiazin-6-ium pentaiodide'
_chemical_formula_moiety         'C9 H7 F6 N6 S2 1+,I5 1-'
_chemical_name_systematic        
'2-amino-5-(trifluoromethyl)-1-[5-(trifluoromethyl)-1,3,4-thiadiazol-2-yl]-7H,7a,8-dihydroimidazo[1,5-d][1,3,4]thiadiazinium pentaiodide'
_symmetry_cell_setting           triclinic
_symmetry_space_group_name_H-M   'P -1'
_symmetry_Int_Tables_number      2
_space_group_name_Hall           '-P 1'
loop_
_symmetry_equiv_pos_site_id
_symmetry_equiv_pos_as_xyz
1 x,y,z
2 -x,-y,-z
_cell_length_a                   9.308(2)
_cell_length_b                   10.9051(18)
_cell_length_c                   11.985(2)
_cell_angle_alpha                103.861(16)
_cell_angle_beta                 94.305(17)
_cell_angle_gamma                91.590(15)
_cell_volume                     1176.46
_exptl_crystal_colour            'dark brown'
_exptl_crystal_description       prism
_chemical_melting_point          '122 deg.C'
_cell_formula_units_Z            2
loop_
_atom_site_label
_atom_site_type_symbol
_atom_site_fract_x
_atom_site_fract_y
_atom_site_fract_z
I1 I -0.60225(6) -0.60697(5) 0.33525(5)
I2 I -0.75883(6) -0.36726(5) 0.39935(4)
I3 I -0.45440(6) -0.64747(5) 0.09058(5)
I4 I -0.90783(7) -0.13967(6) 0.45465(6)
I5 I -0.31342(7) -0.68050(8) -0.10444(6)
S1 S 0.0727(2) -0.33303(19) -0.30369(18)
S2 S 0.4590(2) -0.9129(2) -0.37309(19)
N1 N 0.2566(6) -0.7282(6) -0.2460(5)
N2 N 0.2870(6) -0.8289(6) -0.1995(5)
C1 C 0.2288(7) -0.5898(6) -0.3638(6)
H1 H 0.2842 -0.5171 -0.3737
H2 H 0.1640 -0.6229 -0.4323
N3 N 0.1489(6) -0.5572(5) -0.2590(5)
C2 C 0.0756(7) -0.4461(6) -0.2253(6)
C3 C 0.1655(8) -0.6455(7) -0.1978(6)
C4 C 0.3739(8) -0.9058(7) -0.2512(7)
C5 C -0.0725(12) -0.1194(9) -0.1929(9)
C6 C 0.4020(10) -1.0152(8) -0.1948(8)
C7 C -0.0249(8) -0.2481(7) -0.1954(7)
N4 N 0.0106(6) -0.4186(6) -0.1315(5)
N5 N 0.1047(7) -0.6496(6) -0.1077(6)
H3 H 0.1220 -0.7094 -0.0737
H4 H 0.0461 -0.5926 -0.0804
C8 C 0.3266(8) -0.6905(7) -0.3379(7)
H5 H 0.4201 -0.6488 -0.3049
N6 N -0.0483(6) -0.3049(6) -0.1164(6)
C9 C 0.3531(9) -0.7976(8) -0.4292(7)
H6 H 0.4051 -0.7693 -0.4864
H7 H 0.2619 -0.8376 -0.4666
F1 F 0.3391(7) -1.1191(5) -0.2537(6)
F2 F 0.5372(6) -1.0380(6) -0.1884(6)
F3 F -0.1446(7) -0.1169(5) -0.2905(5)
F4 F 0.3585(8) -0.9997(6) -0.0932(5)
F5 F 0.0280(7) -0.0374(5) -0.1774(8)
F6 F -0.1637(7) -0.0842(5) -0.1137(6)
loop_
_geom_bond_atom_site_label_1
_geom_bond_atom_site_label_2
_geom_bond_site_symmetry_1
_geom_bond_site_symmetry_2
I1 I2 1_555 1_555
I2 I4 1_555 1_555
I3 I1 1_555 1_555
I5 I3 1_555 1_555
S1 C2 1_555 1_555
S2 C4 1_555 1_555
N1 N2 1_555 1_555
N2 C4 1_555 1_555
C1 H1 1_555 1_555
H2 C1 1_555 1_555
N3 C1 1_555 1_555
C2 N3 1_555 1_555
C3 N1 1_555 1_555
C4 C6 1_555 1_555
C5 C7 1_555 1_555
C6 F1 1_555 1_555
C7 S1 1_555 1_555
N4 C2 1_555 1_555
N5 C3 1_555 1_555
H3 N5 1_555 1_555
H4 N5 1_555 1_555
C8 N1 1_555 1_555
H5 C8 1_555 1_555
N6 C7 1_555 1_555
C9 S2 1_555 1_555
H6 C9 1_555 1_555
H7 C9 1_555 1_555
F2 C6 1_555 1_555
F3 C5 1_555 1_555
F4 C6 1_555 1_555
F5 C5 1_555 1_555
F6 C5 1_555 1_555
C1 C8 1_555 1_555
N3 C3 1_555 1_555
N4 N6 1_555 1_555
C8 C9 1_555 1_555

#END
