
#######################################################################
#
#                 Cambridge Crystallographic Data Centre
#                                CCDC 
#
#######################################################################
#
# If this CIF has been generated from an entry in the Cambridge 
# Structural Database, then it will include bibliographic, chemical, 
# crystal, experimental, refinement or atomic coordinate data resulting 
# from the CCDC's data processing and validation procedures.
#
#######################################################################

data_AYOPIO
_chemical_formula_moiety         'C16 H16 N2 O2,2(H2 O1)'
_chemical_name_systematic        
"(1E,1'E)-4,4'-(1,1'-(Hydrazine-1,2-diylidene)-bis(ethan-1-yl-1-ylidene))diphenol dihydrate"
_symmetry_cell_setting           monoclinic
_symmetry_space_group_name_H-M   'P 21/c'
_symmetry_Int_Tables_number      14
_space_group_name_Hall           '-P 2ybc'
loop_
_symmetry_equiv_pos_site_id
_symmetry_equiv_pos_as_xyz
1 x,y,z
2 -x,1/2+y,1/2-z
3 -x,-y,-z
4 x,1/2-y,1/2+z
_cell_length_a                   7.85220(10)
_cell_length_b                   5.51510(10)
_cell_length_c                   17.8918(3)
_cell_angle_alpha                90
_cell_angle_beta                 108.5360(10)
_cell_angle_gamma                90
_cell_volume                     734.622
_exptl_crystal_colour            yellow
_exptl_crystal_description       block
_chemical_melting_point          377-379K
_cell_formula_units_Z            2
_exptl_crystal_recrystallization_method acetone
loop_
_atom_site_label
_atom_site_type_symbol
_atom_site_fract_x
_atom_site_fract_y
_atom_site_fract_z
O1 O 0.97567(10) 0.63439(15) 0.90238(4)
H1 H 1.0145 0.4971 0.9166
N1 N 0.55899(11) 0.49760(17) 0.53887(5)
C1 C 0.64270(13) 0.65293(19) 0.66844(6)
C2 C 0.63628(14) 0.83658(19) 0.72163(6)
H2 H 0.5566 0.9650 0.7045
C3 C 0.74735(14) 0.82980(19) 0.79977(6)
H3 H 0.7421 0.9534 0.8343
C4 C 0.86615(13) 0.63756(19) 0.82596(6)
C5 C 0.87307(13) 0.45094(19) 0.77420(6)
H4 H 0.9515 0.3215 0.7918
C6 C 0.76265(13) 0.45958(19) 0.69653(6)
H5 H 0.7680 0.3350 0.6623
C7 C 0.52532(13) 0.65863(19) 0.58524(6)
C8 C 0.37991(14) 0.8466(2) 0.56043(6)
H6 H 0.4326 1.0054 0.5696
H7 H 0.2989 0.8269 0.5904
H8 H 0.3152 0.8278 0.5054
O1B O 0.02433(10) 0.36561(15) 0.09762(4)
H1B H -0.0145 0.5029 0.0834
N1B N 0.44101(11) 0.50240(17) 0.46113(5)
C1B C 0.35730(13) 0.34707(19) 0.33156(6)
C2B C 0.36372(14) 0.16342(19) 0.27837(6)
H2B H 0.4434 0.0350 0.2955
C3B C 0.25265(14) 0.17020(19) 0.20023(6)
H3B H 0.2579 0.0466 0.1657
C4B C 0.13385(13) 0.36244(19) 0.17404(6)
C5B C 0.12693(13) 0.54906(19) 0.22580(6)
H4B H 0.0485 0.6785 0.2082
C6B C 0.23735(13) 0.54042(19) 0.30347(6)
H5B H 0.2320 0.6650 0.3377
C7B C 0.47468(13) 0.34137(19) 0.41476(6)
C8B C 0.62009(14) 0.1534(2) 0.43957(6)
H6B H 0.5674 -0.0054 0.4304
H7B H 0.7011 0.1731 0.4096
H8B H 0.6848 0.1722 0.4946
O2 O 0.07930(12) 0.31062(17) 0.45773(6)
H9 H 0.0793 0.3113 0.5058
H10 H 0.1722 0.3860 0.4541
loop_
_geom_bond_atom_site_label_1
_geom_bond_atom_site_label_2
_geom_bond_site_symmetry_1
_geom_bond_site_symmetry_2
O1 H1 1_555 1_555
N1 C7 1_555 1_555
C1 C2 1_555 1_555
C2 H2 1_555 1_555
C3 C2 1_555 1_555
H3 C3 1_555 1_555
C4 O1 1_555 1_555
C5 C4 1_555 1_555
H4 C5 1_555 1_555
C6 C1 1_555 1_555
H5 C6 1_555 1_555
C7 C1 1_555 1_555
C8 C7 1_555 1_555
H6 C8 1_555 1_555
H7 C8 1_555 1_555
H8 C8 1_555 1_555
O2 H9 1_555 1_555
H10 O2 1_555 1_555
O1B H1B 1_555 1_555
N1B N1 1_555 1_555
C1B C2B 1_555 1_555
C2B H2B 1_555 1_555
C3B C2B 1_555 1_555
H3B C3B 1_555 1_555
C4B O1B 1_555 1_555
C5B C4B 1_555 1_555
H4B C5B 1_555 1_555
C6B C1B 1_555 1_555
H5B C6B 1_555 1_555
C7B N1B 1_555 1_555
C8B C7B 1_555 1_555
H6B C8B 1_555 1_555
H7B C8B 1_555 1_555
H8B C8B 1_555 1_555
C3 C4 1_555 1_555
C5 C6 1_555 1_555
C1B C7B 1_555 1_555
C3B C4B 1_555 1_555
C5B C6B 1_555 1_555

#END
