
#######################################################################
#
#                 Cambridge Crystallographic Data Centre
#                                CCDC 
#
#######################################################################
#
# If this CIF has been generated from an entry in the Cambridge 
# Structural Database, then it will include bibliographic, chemical, 
# crystal, experimental, refinement or atomic coordinate data resulting 
# from the CCDC's data processing and validation procedures.
#
#######################################################################

data_AYOQEK
_chemical_formula_moiety         'C62 H62 O4 P2'
_chemical_name_systematic        
(25,27-bis(2-(Diphenylphosphino)ethoxy)-26,28-bis(1-propoxy)calix(4)arene)
_symmetry_cell_setting           monoclinic
_symmetry_space_group_name_H-M   'C 2/c'
_symmetry_Int_Tables_number      15
_space_group_name_Hall           '-C 2yn'
loop_
_symmetry_equiv_pos_site_id
_symmetry_equiv_pos_as_xyz
1 x,y,z
2 1/2+x,1/2+y,z
3 x,-y,1/2+z
4 1/2+x,1/2-y,1/2+z
5 -x,-y,-z
6 1/2-x,1/2-y,-z
7 -x,y,1/2-z
8 1/2-x,1/2+y,1/2-z
_cell_length_a                   20.0299(18)
_cell_length_b                   16.2113(15)
_cell_length_c                   18.4857(16)
_cell_angle_alpha                90.00
_cell_angle_beta                 120.196(2)
_cell_angle_gamma                90.00
_cell_volume                     5188.02
_chemical_melting_point          '208 deg.C'
_cell_formula_units_Z            4
_exptl_crystal_recrystallization_method 'ethyl acetate/hexane'
loop_
_atom_site_label
_atom_site_type_symbol
_atom_site_fract_x
_atom_site_fract_y
_atom_site_fract_z
P1 P 0.09998(5) 0.47086(5) 0.45147(5)
O1 O 0.08655(13) 0.85391(17) 0.22394(13)
O2 O 0.07254(10) 0.70322(11) 0.36596(11)
C1 C 0.1189(7) 1.0482(6) 0.2417(9)
H1 H 0.0854 1.0895 0.2435
H2 H 0.1429 1.0692 0.2117
H3 H 0.1579 1.0340 0.2977
C2 C 0.0878(6) 0.9976(5) 0.2124(7)
H4 H 0.0526 1.0138 0.1557
H5 H 0.0568 0.9857 0.2373
C3 C 0.1224(3) 0.9171(3) 0.2077(3)
H6 H 0.1159 0.9104 0.1529
H7 H 0.1767 0.9166 0.2478
C4 C 0.11242(15) 0.77470(19) 0.21951(18)
C5 C 0.07790(16) 0.7342(2) 0.14389(18)
C6 C 0.1052(2) 0.6561(2) 0.1420(2)
H8 H 0.0831 0.6268 0.0899
C7 C 0.1628(2) 0.6198(2) 0.2127(3)
H9 H 0.1810 0.5658 0.2101
C8 C 0.19430(18) 0.6611(2) 0.2872(2)
H10 H 0.2346 0.6353 0.3367
C9 C 0.16961(15) 0.7388(2) 0.29302(18)
C10 C 0.20698(16) 0.7825(2) 0.37612(18)
H11 H 0.2384 0.8259 0.3737
H12 H 0.2413 0.7440 0.4177
C11 C 0.15692(15) 0.81990(19) 0.40747(16)
C12 C 0.17656(19) 0.8966(2) 0.44510(19)
H13 H 0.2188 0.9263 0.4467
C13 C 0.1371(2) 0.9313(2) 0.4802(2)
H14 H 0.1524 0.9841 0.5072
C14 C 0.0761(2) 0.8903(2) 0.47654(19)
H15 H 0.0488 0.9151 0.5013
C15 C 0.05219(16) 0.8141(2) 0.43813(17)
C16 C 0.01476(18) 0.7699(2) 0.06301(18)
H16 H -0.0063 0.7256 0.0232
H17 H 0.0385 0.8078 0.0428
C17 C 0.09507(15) 0.77900(17) 0.40531(15)
C18 C 0.10753(18) 0.63573(19) 0.42050(18)
H18 H 0.1024 0.6420 0.4691
H19 H 0.1616 0.6340 0.4385
C19 C 0.06960(17) 0.55711(17) 0.37612(18)
H20 H 0.0835 0.5454 0.3345
H21 H 0.0145 0.5632 0.3483
C20 C 0.18003(18) 0.42048(18) 0.4489(2)
C21 C 0.1865(2) 0.4100(3) 0.3792(3)
H22 H 0.1481 0.4329 0.3266
C22 C 0.2485(3) 0.3663(3) 0.3842(4)
H23 H 0.2521 0.3580 0.3349
C23 C 0.3031(3) 0.3358(3) 0.4577(5)
H24 H 0.3458 0.3063 0.4604
C24 C 0.2995(3) 0.3458(3) 0.5298(4)
H25 H 0.3391 0.3243 0.5825
C25 C 0.2371(2) 0.3876(2) 0.5236(3)
H26 H 0.2330 0.3942 0.5728
C26 C 0.02146(17) 0.39752(18) 0.39609(17)
C27 C 0.0276(2) 0.3219(2) 0.3669(2)
H27 H 0.0753 0.3066 0.3700
C28 C -0.0333(3) 0.2675(2) 0.3331(3)
H28 H -0.0272 0.2145 0.3140
C29 C -0.1021(3) 0.2878(3) 0.3262(3)
H29 H -0.1449 0.2502 0.3013
C30 C -0.1095(2) 0.3623(3) 0.3554(3)
H30 H -0.1574 0.3770 0.3518
C31 C -0.0490(2) 0.4164(2) 0.3895(2)
H31 H -0.0554 0.4688 0.4095
C15F C -0.05219(16) 0.8141(2) 0.06187(17)
C14F C -0.0761(2) 0.8903(2) 0.02346(19)
C13F C -0.1371(2) 0.9313(2) 0.0198(2)
C12F C -0.17656(19) 0.8966(2) 0.05490(19)
C11F C -0.15692(15) 0.81990(19) 0.09253(16)
C10F C -0.20698(16) 0.7825(2) 0.12388(18)
C9F C -0.16961(15) 0.7388(2) 0.20698(18)
C4F C -0.11242(15) 0.77470(19) 0.28049(18)
O1F O -0.08655(13) 0.85391(17) 0.27606(13)
C3F C -0.1224(3) 0.9171(3) 0.2923(3)
C2F C -0.0878(6) 0.9976(5) 0.2876(7)
C1F C -0.1189(7) 1.0482(6) 0.2583(9)
H1F H -0.0854 1.0895 0.2565
H2F H -0.1429 1.0692 0.2883
H3F H -0.1579 1.0340 0.2023
H4F H -0.0526 1.0138 0.3443
H5F H -0.0568 0.9857 0.2627
H6F H -0.1159 0.9104 0.3471
H7F H -0.1767 0.9166 0.2522
C5F C -0.07790(16) 0.7342(2) 0.35611(18)
C6F C -0.1052(2) 0.6561(2) 0.3580(2)
H8F H -0.0831 0.6268 0.4101
C7F C -0.1628(2) 0.6198(2) 0.2873(3)
H9F H -0.1810 0.5658 0.2899
C8F C -0.19430(18) 0.6611(2) 0.2128(2)
H10F H -0.2346 0.6353 0.1633
C16F C -0.01476(18) 0.7699(2) 0.43699(18)
H16F H 0.0063 0.7256 0.4768
H17F H -0.0385 0.8078 0.4572
H11F H -0.2384 0.8259 0.1263
H12F H -0.2413 0.7440 0.0823
C17F C -0.09507(15) 0.77900(17) 0.09469(15)
O2F O -0.07254(10) 0.70322(11) 0.13404(11)
C18F C -0.10753(18) 0.63573(19) 0.07950(18)
H18F H -0.1024 0.6420 0.0309
H19F H -0.1616 0.6340 0.0615
C19F C -0.06960(17) 0.55711(17) 0.12388(18)
P1F P -0.09998(5) 0.47086(5) 0.04853(5)
C20F C -0.18003(18) 0.42048(18) 0.0511(2)
C21F C -0.1865(2) 0.4100(3) 0.1208(3)
H22F H -0.1481 0.4329 0.1734
C22F C -0.2485(3) 0.3663(3) 0.1158(4)
H23F H -0.2521 0.3580 0.1651
C23F C -0.3031(3) 0.3358(3) 0.0423(5)
H24F H -0.3458 0.3063 0.0396
C24F C -0.2995(3) 0.3458(3) -0.0298(4)
H25F H -0.3391 0.3243 -0.0825
C25F C -0.2371(2) 0.3876(2) -0.0236(3)
H26F H -0.2330 0.3942 -0.0728
C26F C -0.02146(17) 0.39752(18) 0.10391(17)
C27F C -0.0276(2) 0.3219(2) 0.1331(2)
H27F H -0.0753 0.3066 0.1300
C28F C 0.0333(3) 0.2675(2) 0.1669(3)
H28F H 0.0272 0.2145 0.1860
C29F C 0.1021(3) 0.2878(3) 0.1738(3)
H29F H 0.1449 0.2502 0.1987
C30F C 0.1095(2) 0.3623(3) 0.1446(3)
H30F H 0.1574 0.3770 0.1482
C31F C 0.0490(2) 0.4164(2) 0.1105(2)
H31F H 0.0554 0.4688 0.0905
H20F H -0.0835 0.5454 0.1655
H21F H -0.0145 0.5632 0.1517
H13F H -0.2188 0.9263 0.0533
H14F H -0.1524 0.9841 -0.0072
H15F H -0.0488 0.9151 -0.0013
loop_
_geom_bond_atom_site_label_1
_geom_bond_atom_site_label_2
_geom_bond_site_symmetry_1
_geom_bond_site_symmetry_2
P1 C19 1_555 1_555
O1 C3 1_555 1_555
O2 C17 1_555 1_555
C1 H1 1_555 1_555
H2 C1 1_555 1_555
H3 C1 1_555 1_555
C2 C1 1_555 1_555
H4 C2 1_555 1_555
H5 C2 1_555 1_555
C3 C2 1_555 1_555
H6 C3 1_555 1_555
H7 C3 1_555 1_555
C4 O1 1_555 1_555
C5 C4 1_555 1_555
C6 C5 1_555 1_555
H8 C6 1_555 1_555
C7 C6 1_555 1_555
H9 C7 1_555 1_555
C8 C7 1_555 1_555
H10 C8 1_555 1_555
C9 C4 1_555 1_555
C10 C9 1_555 1_555
H11 C10 1_555 1_555
H12 C10 1_555 1_555
C11 C10 1_555 1_555
C12 C11 1_555 1_555
H13 C12 1_555 1_555
C13 C12 1_555 1_555
H14 C13 1_555 1_555
C14 C13 1_555 1_555
H15 C14 1_555 1_555
C15 C14 1_555 1_555
C16 C5 1_555 1_555
H16 C16 1_555 1_555
H17 C16 1_555 1_555
C17 C11 1_555 1_555
C18 O2 1_555 1_555
H18 C18 1_555 1_555
H19 C18 1_555 1_555
C19 C18 1_555 1_555
H20 C19 1_555 1_555
H21 C19 1_555 1_555
C20 P1 1_555 1_555
C21 C20 1_555 1_555
H22 C21 1_555 1_555
C22 C21 1_555 1_555
H23 C22 1_555 1_555
C23 C22 1_555 1_555
H24 C23 1_555 1_555
C24 C23 1_555 1_555
H25 C24 1_555 1_555
C25 C20 1_555 1_555
H26 C25 1_555 1_555
C26 P1 1_555 1_555
C27 C26 1_555 1_555
H27 C27 1_555 1_555
C28 C27 1_555 1_555
H28 C28 1_555 1_555
C29 C28 1_555 1_555
H29 C29 1_555 1_555
C30 C29 1_555 1_555
H30 C30 1_555 1_555
C31 C26 1_555 1_555
H31 C31 1_555 1_555
C15F C16 1_555 1_555
C14F C15F 1_555 1_555
C13F C14F 1_555 1_555
C12F C13F 1_555 1_555
C11F C12F 1_555 1_555
C10F C11F 1_555 1_555
C9F C10F 1_555 1_555
C4F C9F 1_555 1_555
O1F C4F 1_555 1_555
C3F O1F 1_555 1_555
C2F C3F 1_555 1_555
C1F C2F 1_555 1_555
H1F C1F 1_555 1_555
H2F C1F 1_555 1_555
H3F C1F 1_555 1_555
H4F C2F 1_555 1_555
H5F C2F 1_555 1_555
H6F C3F 1_555 1_555
H7F C3F 1_555 1_555
C5F C4F 1_555 1_555
C6F C5F 1_555 1_555
H8F C6F 1_555 1_555
C7F C6F 1_555 1_555
H9F C7F 1_555 1_555
C8F C9F 1_555 1_555
H10F C8F 1_555 1_555
C16F C15 1_555 1_555
H16F C16F 1_555 1_555
H17F C16F 1_555 1_555
H11F C10F 1_555 1_555
H12F C10F 1_555 1_555
C17F C15F 1_555 1_555
O2F C17F 1_555 1_555
C18F O2F 1_555 1_555
H18F C18F 1_555 1_555
H19F C18F 1_555 1_555
C19F C18F 1_555 1_555
P1F C19F 1_555 1_555
C20F P1F 1_555 1_555
C21F C20F 1_555 1_555
H22F C21F 1_555 1_555
C22F C21F 1_555 1_555
H23F C22F 1_555 1_555
C23F C22F 1_555 1_555
H24F C23F 1_555 1_555
C24F C23F 1_555 1_555
H25F C24F 1_555 1_555
C25F C20F 1_555 1_555
H26F C25F 1_555 1_555
C26F P1F 1_555 1_555
C27F C26F 1_555 1_555
H27F C27F 1_555 1_555
C28F C27F 1_555 1_555
H28F C28F 1_555 1_555
C29F C28F 1_555 1_555
H29F C29F 1_555 1_555
C30F C29F 1_555 1_555
H30F C30F 1_555 1_555
C31F C26F 1_555 1_555
H31F C31F 1_555 1_555
H20F C19F 1_555 1_555
H21F C19F 1_555 1_555
H13F C12F 1_555 1_555
H14F C13F 1_555 1_555
H15F C14F 1_555 1_555
C8 C9 1_555 1_555
C15 C17 1_555 1_555
C24 C25 1_555 1_555
C30 C31 1_555 1_555
C11F C17F 1_555 1_555
C5F C16F 1_555 1_555
C7F C8F 1_555 1_555
C24F C25F 1_555 1_555
C30F C31F 1_555 1_555

#END
