
#######################################################################
#
#                 Cambridge Crystallographic Data Centre
#                                CCDC 
#
#######################################################################
#
# If this CIF has been generated from an entry in the Cambridge 
# Structural Database, then it will include bibliographic, chemical, 
# crystal, experimental, refinement or atomic coordinate data resulting 
# from the CCDC's data processing and validation procedures.
#
#######################################################################

data_AYOVAM
_chemical_formula_moiety         'C8 H5 Br1 N4 O2 S1'
_chemical_name_systematic        
5-(4-Bromo-2-nitrophenyl)-1,3,4-thiadiazol-2-amine
_symmetry_cell_setting           monoclinic
_symmetry_space_group_name_H-M   'P 21/c'
_symmetry_Int_Tables_number      14
_space_group_name_Hall           '-P 2ybc'
loop_
_symmetry_equiv_pos_site_id
_symmetry_equiv_pos_as_xyz
1 x,y,z
2 -x,1/2+y,1/2-z
3 -x,-y,-z
4 x,1/2-y,1/2+z
_cell_length_a                   11.231(2)
_cell_length_b                   9.2580(19)
_cell_length_c                   10.868(2)
_cell_angle_alpha                90
_cell_angle_beta                 113.08(3)
_cell_angle_gamma                90
_cell_volume                     1039.57
_exptl_crystal_colour            yellow
_exptl_crystal_description       block
_chemical_melting_point          '506 K'
_cell_formula_units_Z            4
loop_
_atom_site_label
_atom_site_type_symbol
_atom_site_fract_x
_atom_site_fract_y
_atom_site_fract_z
Br1 Br 0.11486(5) 0.01063(5) 0.19612(6)
S1 S 0.34305(13) 0.66328(12) 0.58298(11)
C1 C 0.2933(5) 0.3456(5) 0.4493(4)
H1 H 0.3437 0.3551 0.5402
N1 N 0.1367(4) 0.5710(4) 0.1441(4)
O1 O 0.1374(4) 0.5588(4) 0.0330(3)
O2 O 0.0937(3) 0.6740(3) 0.1818(3)
N2 N 0.3728(4) 0.6948(4) 0.3620(3)
C2 C 0.2492(5) 0.2112(5) 0.3991(5)
H2 H 0.2717 0.1308 0.4549
N3 N 0.4262(4) 0.8176(4) 0.4373(3)
C3 C 0.1724(4) 0.1958(4) 0.2670(5)
C4 C 0.1413(5) 0.3137(5) 0.1816(4)
H3 H 0.0920 0.3029 0.0907
N4 N 0.4674(5) 0.9189(5) 0.6472(4)
H4 H 0.486(6) 0.996(7) 0.630(6)
H5 H 0.446(5) 0.910(6) 0.709(6)
C5 C 0.1853(4) 0.4459(5) 0.2350(4)
C6 C 0.2654(4) 0.4671(4) 0.3696(4)
C7 C 0.3245(4) 0.6062(5) 0.4235(4)
C8 C 0.4186(4) 0.8148(4) 0.5534(4)
loop_
_geom_bond_atom_site_label_1
_geom_bond_atom_site_label_2
_geom_bond_site_symmetry_1
_geom_bond_site_symmetry_2
Br1 C3 1_555 1_555
S1 C7 1_555 1_555
C1 H1 1_555 1_555
N1 O1 1_555 1_555
O2 N1 1_555 1_555
N2 N3 1_555 1_555
C2 C1 1_555 1_555
H2 C2 1_555 1_555
N3 C8 1_555 1_555
C3 C2 1_555 1_555
C4 C3 1_555 1_555
H3 C4 1_555 1_555
N4 H4 1_555 1_555
H5 N4 1_555 1_555
C5 N1 1_555 1_555
C6 C1 1_555 1_555
C7 N2 1_555 1_555
C8 S1 1_555 1_555
C4 C5 1_555 1_555
N4 C8 1_555 1_555
C5 C6 1_555 1_555
C6 C7 1_555 1_555

#END
