
#######################################################################
#
#                 Cambridge Crystallographic Data Centre
#                                CCDC 
#
#######################################################################
#
# If this CIF has been generated from an entry in the Cambridge 
# Structural Database, then it will include bibliographic, chemical, 
# crystal, experimental, refinement or atomic coordinate data resulting 
# from the CCDC's data processing and validation procedures.
#
#######################################################################

data_AYUCED
_chemical_name_common            
'4-(3-(5H-Dibenzo[b,f]azepin-5-yl)propyl)-1-(2-hydroxyethyl)piperazin-1-ium 3-carboxyacrylate'
_chemical_formula_moiety         'C23 H30 N3 O1 1+,C4 H3 O4 1-'
_chemical_name_systematic        
'4-(3-(5H-Dibenz[b,f]azepin-5-yl)propyl)-1-(2-hydroxyethyl)piperazin-1-ium (E)-3-carboxyprop-2-enoate'
_chemical_properties_biological  
'Opipramol is used in the treatment of anxiety disorders; Antidepressant and anxiolytic activity'
_symmetry_cell_setting           monoclinic
_symmetry_space_group_name_H-M   'P 21'
_symmetry_Int_Tables_number      4
_space_group_name_Hall           'P 2yb'
loop_
_symmetry_equiv_pos_site_id
_symmetry_equiv_pos_as_xyz
1 x,y,z
2 -x,1/2+y,-z
_cell_length_a                   8.9116(3)
_cell_length_b                   6.7167(3)
_cell_length_c                   20.6377(8)
_cell_angle_alpha                90
_cell_angle_beta                 98.685(3)
_cell_angle_gamma                90
_cell_volume                     1221.14
_exptl_crystal_colour            colorless
_exptl_crystal_description       block
_chemical_melting_point          '432-434 K'
_cell_formula_units_Z            2
loop_
_atom_site_label
_atom_site_type_symbol
_atom_site_fract_x
_atom_site_fract_y
_atom_site_fract_z
O1 O 0.84102(17) 0.6719(3) -0.03728(7)
H1 H 0.753(2) 0.717(5) -0.0516(12)
N1 N 0.73872(17) -0.2719(3) 0.37655(7)
N2 N 0.86582(16) 0.0375(2) 0.20359(7)
N3 N 0.78846(17) 0.3093(2) 0.09390(7)
H3 H 0.719(2) 0.388(3) 0.1083(10)
C1 C 0.7716(2) -0.2668(3) 0.44636(9)
C2 C 0.8727(2) -0.3992(4) 0.48113(10)
H4 H 0.9160 -0.5027 0.4586
C3 C 0.9113(3) -0.3816(4) 0.54882(11)
H5 H 0.9824 -0.4711 0.5722
C4 C 0.8465(2) -0.2347(4) 0.58196(10)
H6 H 0.8719 -0.2239 0.6282
C5 C 0.7452(3) -0.1040(4) 0.54813(10)
H7 H 0.7014 -0.0029 0.5715
C6 C 0.7047(2) -0.1158(3) 0.48002(10)
C7 C 0.5967(3) 0.0269(4) 0.44633(11)
H8 H 0.5990 0.1571 0.4645
C8 C 0.4953(3) -0.0045(4) 0.39307(12)
H9 H 0.4339 0.1056 0.3769
C9 C 0.4691(2) -0.1915(4) 0.35700(10)
C10 C 0.3209(2) -0.2408(5) 0.32774(11)
H10 H 0.2406 -0.1498 0.3306
C11 C 0.2899(3) -0.4178(5) 0.29508(12)
H11 H 0.1891 -0.4472 0.2753
C12 C 0.4042(3) -0.5525(5) 0.29095(11)
H12 H 0.3822 -0.6756 0.2689
C13 C 0.5525(3) -0.5081(4) 0.31923(10)
H13 H 0.6313 -0.6016 0.3166
C14 C 0.5858(2) -0.3275(3) 0.35137(9)
C15 C 0.8584(2) -0.3463(3) 0.34161(9)
H14 H 0.8551 -0.4936 0.3405
H15 H 0.9586 -0.3055 0.3654
C16 C 0.8401(2) -0.2664(3) 0.27157(9)
H16 H 0.9197 -0.3248 0.2488
H17 H 0.7402 -0.3082 0.2478
C17 C 0.8514(2) -0.0399(3) 0.26976(9)
H18 H 0.7597 0.0183 0.2841
H19 H 0.9405 0.0033 0.3011
C18 C 0.9069(2) 0.2494(3) 0.20824(8)
H20 H 1.0014 0.2662 0.2398
H21 H 0.8254 0.3252 0.2248
C19 C 0.93024(18) 0.3315(3) 0.14215(8)
H22 H 0.9583 0.4740 0.1466
H23 H 1.0143 0.2593 0.1262
C20 C 0.7427(2) 0.0956(3) 0.09013(9)
H24 H 0.8210 0.0165 0.0724
H25 H 0.6459 0.0810 0.0599
C21 C 0.72335(19) 0.0166(3) 0.15757(9)
H26 H 0.6415 0.0913 0.1744
H27 H 0.6936 -0.1254 0.1540
C22 C 0.8046(2) 0.3855(3) 0.02724(9)
H28 H 0.7107 0.3553 -0.0034
H29 H 0.8897 0.3155 0.0113
C23 C 0.8335(3) 0.6079(4) 0.02694(10)
H30 H 0.7507 0.6790 0.0443
H31 H 0.9302 0.6388 0.0555
O2 O 0.07743(14) 0.8233(2) 0.15863(7)
H2 H 0.011(2) 0.898(4) 0.1734(11)
O3 O 0.23640(16) 1.0656(2) 0.19905(8)
O4 O 0.42998(17) 0.3435(3) 0.07200(9)
O5 O 0.58743(14) 0.5423(2) 0.13510(7)
C24 C 0.2136(2) 0.9043(3) 0.17266(9)
C25 C 0.3389(2) 0.7804(3) 0.15514(10)
H32 H 0.4392 0.8292 0.1675
C26 C 0.3240(2) 0.6105(3) 0.12434(9)
H33 H 0.2244 0.5607 0.1108
C27 C 0.4562(2) 0.4892(3) 0.10914(9)
loop_
_geom_bond_atom_site_label_1
_geom_bond_atom_site_label_2
_geom_bond_site_symmetry_1
_geom_bond_site_symmetry_2
O1 H1 1_555 1_555
O2 H2 1_555 1_555
O3 C24 1_555 1_555
O4 C27 1_555 1_555
O5 C27 1_555 1_555
N1 C1 1_555 1_555
N2 C17 1_555 1_555
N3 H3 1_555 1_555
C1 C2 1_555 1_555
C2 H4 1_555 1_555
C3 C2 1_555 1_555
H5 C3 1_555 1_555
C4 C3 1_555 1_555
H6 C4 1_555 1_555
C5 C4 1_555 1_555
H7 C5 1_555 1_555
C6 C1 1_555 1_555
C7 C6 1_555 1_555
H8 C7 1_555 1_555
C8 C7 1_555 1_555
H9 C8 1_555 1_555
C9 C8 1_555 1_555
C10 C9 1_555 1_555
H10 C10 1_555 1_555
C11 C10 1_555 1_555
H11 C11 1_555 1_555
C12 C11 1_555 1_555
H12 C12 1_555 1_555
C13 C12 1_555 1_555
H13 C13 1_555 1_555
C14 N1 1_555 1_555
C15 N1 1_555 1_555
H14 C15 1_555 1_555
H15 C15 1_555 1_555
C16 C15 1_555 1_555
H16 C16 1_555 1_555
H17 C16 1_555 1_555
C17 C16 1_555 1_555
H18 C17 1_555 1_555
H19 C17 1_555 1_555
C18 N2 1_555 1_555
H20 C18 1_555 1_555
H21 C18 1_555 1_555
C19 N3 1_555 1_555
H22 C19 1_555 1_555
H23 C19 1_555 1_555
C20 N3 1_555 1_555
H24 C20 1_555 1_555
H25 C20 1_555 1_555
C21 N2 1_555 1_555
H26 C21 1_555 1_555
H27 C21 1_555 1_555
C22 N3 1_555 1_555
H28 C22 1_555 1_555
H29 C22 1_555 1_555
C23 O1 1_555 1_555
H30 C23 1_555 1_555
H31 C23 1_555 1_555
C24 O2 1_555 1_555
C25 C24 1_555 1_555
H32 C25 1_555 1_555
C26 C25 1_555 1_555
H33 C26 1_555 1_555
C27 C26 1_555 1_555
C5 C6 1_555 1_555
C9 C14 1_555 1_555
C13 C14 1_555 1_555
C18 C19 1_555 1_555
C20 C21 1_555 1_555
C22 C23 1_555 1_555

#END
