
#######################################################################
#
#                 Cambridge Crystallographic Data Centre
#                                CCDC 
#
#######################################################################
#
# If this CIF has been generated from an entry in the Cambridge 
# Structural Database, then it will include bibliographic, chemical, 
# crystal, experimental, refinement or atomic coordinate data resulting 
# from the CCDC's data processing and validation procedures.
#
#######################################################################

data_AYUWIB
_chemical_formula_moiety         'C20 H16 O4'
_chemical_name_systematic        'Phenyl 3-methoxy-4-phenoxybenzoate'
_symmetry_cell_setting           monoclinic
_symmetry_space_group_name_H-M   'C 2/c'
_symmetry_Int_Tables_number      15
_space_group_name_Hall           '-C 2yn'
loop_
_symmetry_equiv_pos_site_id
_symmetry_equiv_pos_as_xyz
1 x,y,z
2 -x,y,1/2-z
3 1/2+x,1/2+y,z
4 1/2-x,1/2+y,1/2-z
5 -x,-y,-z
6 x,-y,1/2+z
7 1/2-x,1/2-y,-z
8 1/2+x,1/2-y,1/2+z
_cell_length_a                   11.0261(10)
_cell_length_b                   11.9624(11)
_cell_length_c                   24.961(2)
_cell_angle_alpha                90
_cell_angle_beta                 97.8420(10)
_cell_angle_gamma                90
_cell_volume                     3261.53
_exptl_crystal_colour            white
_exptl_crystal_description       block
_chemical_melting_point          '383 K'
_cell_formula_units_Z            8
_exptl_crystal_recrystallization_method hexane
loop_
_atom_site_label
_atom_site_type_symbol
_atom_site_fract_x
_atom_site_fract_y
_atom_site_fract_z
O1 O 0.20235(14) 0.40188(12) 0.47155(6)
O2 O 0.22859(15) 0.58572(13) 0.46169(6)
O3 O 0.55526(13) 0.68666(12) 0.61835(6)
O4 O 0.59538(14) 0.50787(12) 0.67467(5)
C1 C 0.25750(19) 0.50110(18) 0.48580(8)
C2 C 0.35069(17) 0.49359(16) 0.53388(7)
C3 C 0.40974(17) 0.59252(17) 0.55134(7)
H1 H 0.3923 0.6579 0.5316
C4 C 0.49363(17) 0.59433(16) 0.59748(8)
C5 C 0.51873(18) 0.49544(17) 0.62679(7)
C6 C 0.4624(2) 0.39727(18) 0.60920(8)
H2 H 0.4809 0.3316 0.6285
C7 C 0.37782(19) 0.39605(18) 0.56250(8)
H3 H 0.3396 0.3296 0.5506
C8 C 0.5401(3) 0.7870(2) 0.58760(11)
H4 H 0.5629 0.7742 0.5524
H5 H 0.5911 0.8444 0.6056
H6 H 0.4560 0.8101 0.5841
C9 C 0.6653(2) 0.41886(18) 0.69837(8)
C10 C 0.6668(2) 0.4066(2) 0.75311(9)
H7 H 0.6174 0.4510 0.7718
C11 C 0.7429(3) 0.3271(3) 0.77982(10)
H8 H 0.7440 0.3173 0.8169
C12 C 0.8166(2) 0.2624(2) 0.75287(12)
H9 H 0.8679 0.2094 0.7714
C13 C 0.8145(2) 0.2764(2) 0.69818(11)
H10 H 0.8648 0.2329 0.6796
C14 C 0.7378(2) 0.3548(2) 0.67055(9)
H11 H 0.7357 0.3638 0.6334
C15 C 0.1108(2) 0.40450(17) 0.42591(8)
C16 C -0.0096(2) 0.40588(19) 0.43430(9)
H12 H -0.0307 0.4064 0.4691
C17 C -0.0987(2) 0.4065(2) 0.38964(10)
H13 H -0.1809 0.4077 0.3944
C18 C -0.0671(2) 0.4055(2) 0.33860(10)
H14 H -0.1276 0.4068 0.3088
C19 C 0.0534(2) 0.4024(2) 0.33141(9)
H15 H 0.0747 0.4013 0.2966
C20 C 0.1434(2) 0.40105(19) 0.37542(9)
H16 H 0.2255 0.3978 0.3706
loop_
_geom_bond_atom_site_label_1
_geom_bond_atom_site_label_2
_geom_bond_site_symmetry_1
_geom_bond_site_symmetry_2
O1 C1 1_555 1_555
O2 C1 1_555 1_555
O3 C4 1_555 1_555
O4 C5 1_555 1_555
C1 C2 1_555 1_555
C2 C3 1_555 1_555
C3 H1 1_555 1_555
C4 C3 1_555 1_555
C5 C4 1_555 1_555
C6 C5 1_555 1_555
H2 C6 1_555 1_555
C7 C2 1_555 1_555
H3 C7 1_555 1_555
C8 O3 1_555 1_555
H4 C8 1_555 1_555
H5 C8 1_555 1_555
H6 C8 1_555 1_555
C9 O4 1_555 1_555
C10 C9 1_555 1_555
H7 C10 1_555 1_555
C11 C10 1_555 1_555
H8 C11 1_555 1_555
C12 C11 1_555 1_555
H9 C12 1_555 1_555
C13 C12 1_555 1_555
H10 C13 1_555 1_555
C14 C9 1_555 1_555
H11 C14 1_555 1_555
C15 O1 1_555 1_555
C16 C15 1_555 1_555
H12 C16 1_555 1_555
C17 C16 1_555 1_555
H13 C17 1_555 1_555
C18 C17 1_555 1_555
H14 C18 1_555 1_555
C19 C18 1_555 1_555
H15 C19 1_555 1_555
C20 C15 1_555 1_555
H16 C20 1_555 1_555
C6 C7 1_555 1_555
C13 C14 1_555 1_555
C19 C20 1_555 1_555

#END
