
#######################################################################
#
#                 Cambridge Crystallographic Data Centre
#                                CCDC 
#
#######################################################################
#
# If this CIF has been generated from an entry in the Cambridge 
# Structural Database, then it will include bibliographic, chemical, 
# crystal, experimental, refinement or atomic coordinate data resulting 
# from the CCDC's data processing and validation procedures.
#
#######################################################################

data_AZAHIT
_chemical_formula_moiety         'C15 H11 N3 O1'
_chemical_name_systematic        1-Benzoyl-3-(pyridin-2-yl)-1H-pyrazole
_symmetry_cell_setting           monoclinic
_symmetry_space_group_name_H-M   'P 21/n'
_symmetry_Int_Tables_number      14
_space_group_name_Hall           '-P 2yn'
loop_
_symmetry_equiv_pos_site_id
_symmetry_equiv_pos_as_xyz
1 x,y,z
2 1/2-x,1/2+y,1/2-z
3 -x,-y,-z
4 1/2+x,1/2-y,1/2+z
_cell_length_a                   10.6325(11)
_cell_length_b                   5.7775(6)
_cell_length_c                   19.572(2)
_cell_angle_alpha                90
_cell_angle_beta                 98.426(6)
_cell_angle_gamma                90
_cell_volume                     1189.32
_exptl_crystal_colour            colorless
_exptl_crystal_description       block
_cell_formula_units_Z            4
loop_
_atom_site_label
_atom_site_type_symbol
_atom_site_fract_x
_atom_site_fract_y
_atom_site_fract_z
O1 O 0.13720(7) 1.43117(13) 0.06519(4)
N1 N 0.16990(8) 1.10288(14) 0.00732(4)
N2 N 0.24411(8) 0.91307(15) -0.00018(4)
N3 N 0.22475(8) 0.59436(16) -0.15957(4)
C1 C 0.43069(10) 1.04513(19) 0.25014(5)
H1 H 0.4799 1.0072 0.2919
C2 C 0.34100(10) 0.88896(18) 0.21845(5)
H2 H 0.3304 0.7468 0.2392
C3 C 0.26702(9) 0.94408(18) 0.15592(5)
H3 H 0.2096 0.8371 0.1338
C4 C 0.27989(9) 1.16160(17) 0.12676(5)
C5 C 0.19083(9) 1.24595(17) 0.06590(5)
C6 C 0.20214(9) 0.83729(17) -0.06333(5)
C7 C 0.26054(9) 0.63418(17) -0.09172(5)
C8 C 0.27577(11) 0.4098(2) -0.18654(5)
H4 H 0.2519 0.3799 -0.2333
C9 C 0.36167(10) 0.26093(19) -0.14932(6)
H5 H 0.3938 0.1344 -0.1705
C10 C 0.44676(10) 1.25791(19) 0.21942(5)
H6 H 0.5091 1.3597 0.2397
C11 C 0.36981(10) 1.31859(18) 0.15852(5)
H7 H 0.3781 1.4634 0.1389
C12 C 0.39894(10) 0.30481(19) -0.07940(6)
H8 H 0.4570 0.2089 -0.0529
C13 C 0.34759(9) 0.49456(18) -0.05019(5)
H9 H 0.3708 0.5284 -0.0036
C14 C 0.10122(9) 0.97734(18) -0.09703(5)
H10 H 0.0569 0.9577 -0.1413
C15 C 0.08350(9) 1.14563(18) -0.05088(5)
H11 H 0.0247 1.2657 -0.0573
loop_
_geom_bond_atom_site_label_1
_geom_bond_atom_site_label_2
_geom_bond_site_symmetry_1
_geom_bond_site_symmetry_2
O1 C5 1_555 1_555
N1 N2 1_555 1_555
N2 C6 1_555 1_555
N3 C7 1_555 1_555
C1 H1 1_555 1_555
C2 C1 1_555 1_555
H2 C2 1_555 1_555
C3 C2 1_555 1_555
H3 C3 1_555 1_555
C4 C3 1_555 1_555
C5 N1 1_555 1_555
C6 C7 1_555 1_555
C7 C13 1_555 1_555
C8 N3 1_555 1_555
H4 C8 1_555 1_555
C9 C8 1_555 1_555
H5 C9 1_555 1_555
C10 C1 1_555 1_555
H6 C10 1_555 1_555
C11 C4 1_555 1_555
H7 C11 1_555 1_555
C12 C9 1_555 1_555
H8 C12 1_555 1_555
C13 C12 1_555 1_555
H9 C13 1_555 1_555
C14 C6 1_555 1_555
H10 C14 1_555 1_555
C15 N1 1_555 1_555
H11 C15 1_555 1_555
C4 C5 1_555 1_555
C10 C11 1_555 1_555
C14 C15 1_555 1_555

#END
