
#######################################################################
#
#                 Cambridge Crystallographic Data Centre
#                                CCDC 
#
#######################################################################
#
# If this CIF has been generated from an entry in the Cambridge 
# Structural Database, then it will include bibliographic, chemical, 
# crystal, experimental, refinement or atomic coordinate data resulting 
# from the CCDC's data processing and validation procedures.
#
#######################################################################

data_AZECOZ
_chemical_formula_moiety         
'C32 H36 N2 O2 2+,C16 H18 N1 O1 1+,C10 H8 O2,3(Cl1 O4 1-),0.25(H2 O1)'
_chemical_name_systematic        
"4,4'-(2,4-bis(4-methoxyphenyl)cyclobutane-1,3-diyl)bis(1-ethylpyridinium) 1-ethyl-4-(2-(4-methoxyphenyl)vinyl)pyridinium triperchlorate naphthalene-2,7-diol hydrate"
_symmetry_cell_setting           monoclinic
_symmetry_space_group_name_H-M   'P 21/n'
_symmetry_Int_Tables_number      14
_space_group_name_Hall           '-P 2yn'
loop_
_symmetry_equiv_pos_site_id
_symmetry_equiv_pos_as_xyz
1 x,y,z
2 1/2-x,1/2+y,1/2-z
3 -x,-y,-z
4 1/2+x,1/2-y,1/2+z
_cell_length_a                   13.5292(7)
_cell_length_b                   30.7861(17)
_cell_length_c                   13.6259(7)
_cell_angle_alpha                90
_cell_angle_beta                 97.101(2)
_cell_angle_gamma                90
_cell_volume                     5631.81
_exptl_crystal_colour            yellow
_exptl_crystal_description       plate
_cell_formula_units_Z            4
_exptl_crystal_preparation       'irradiated crystal'
loop_
_atom_site_label
_atom_site_type_symbol
_atom_site_fract_x
_atom_site_fract_y
_atom_site_fract_z
Cl1 Cl 0.22240(12) 0.35990(7) 0.38804(11)
O1 O 0.1839(4) 0.31789(17) 0.3508(3)
O2 O 0.2074(4) 0.36402(19) 0.4881(3)
O3 O 0.1665(4) 0.39170(18) 0.3321(3)
O4 O 0.3237(3) 0.3611(2) 0.3744(4)
Cl2 Cl 0.4026(3) 0.05885(10) 0.2270(2)
O5 O 0.3685(9) 0.0769(3) 0.3116(6)
O6 O 0.5015(10) 0.0781(6) 0.2080(14)
O7 O 0.3384(10) 0.0603(9) 0.1429(10)
O8 O 0.4318(18) 0.0125(5) 0.2520(15)
Cl3 Cl 0.56070(14) 0.43259(6) 0.09947(13)
O12 O 0.4808(4) 0.4432(2) 0.0301(4)
O13 O 0.6146(5) 0.4675(2) 0.1421(5)
O14 O 0.5193(6) 0.4082(2) 0.1781(4)
O15 O 0.6283(5) 0.4048(2) 0.0544(5)
O16 O 0.8770(4) 0.4327(2) 0.3686(4)
N1 N 0.7655(5) 0.0908(2) 0.2827(5)
C1 C 0.8367(6) 0.1004(3) 0.3544(6)
H1 H 0.8712 0.0777 0.3914
C2 C 0.8601(5) 0.1405(3) 0.3751(4)
H2 H 0.9105 0.1461 0.4285
C3 C 0.8143(4) 0.1763(3) 0.3219(4)
C4 C 0.7414(5) 0.1649(3) 0.2439(4)
H3 H 0.7089 0.1871 0.2034
C5 C 0.7166(5) 0.1229(3) 0.2255(5)
H4 H 0.6660 0.1155 0.1735
C6 C 0.8370(11) 0.2201(5) 0.3518(10)
H5 H 0.8878 0.2246 0.4055
C7 C 0.7914(11) 0.2555(4) 0.3091(8)
H6 H 0.7325 0.2496 0.2657
C8 C 0.8184(4) 0.3026(2) 0.3189(4)
C9 C 0.7598(4) 0.3346(2) 0.2731(4)
H7 H 0.7034 0.3267 0.2280
C10 C 0.7800(4) 0.3781(3) 0.2902(4)
H8 H 0.7387 0.3996 0.2562
C11 C 0.8618(5) 0.3904(3) 0.3582(5)
C12 C 0.9216(5) 0.3572(3) 0.4056(4)
H9 H 0.9777 0.3645 0.4517
C13 C 0.8994(4) 0.3147(3) 0.3857(4)
H10 H 0.9406 0.2928 0.4184
C14 C 0.9667(7) 0.4450(4) 0.4370(8)
H11 H 0.9719 0.4767 0.4406
H12 H 1.0262 0.4331 0.4127
H13 H 0.9611 0.4333 0.5030
C15 C 0.7303(8) 0.0435(3) 0.2597(8)
H14 H 0.7609 0.0236 0.3119
H15 H 0.6570 0.0416 0.2571
C16 C 0.7600(9) 0.0318(3) 0.1667(12)
H16 H 0.7388 0.0020 0.1504
H17 H 0.8326 0.0338 0.1701
H18 H 0.7289 0.0516 0.1155
O18 O 0.9933(6) 0.0635(4) 0.2272(6)
N3 N 0.8989(8) 0.3927(3) 0.1029(7)
C35 C 0.8472(16) 0.3668(5) 0.0345(13)
H39 H 0.7916 0.3784 -0.0064
C36 C 0.8726(7) 0.3248(4) 0.0229(8)
H40 H 0.8347 0.3072 -0.0252
C37 C 0.9555(5) 0.3073(2) 0.0826(5)
C38 C 1.0018(9) 0.3350(5) 0.1551(9)
H41 H 1.0557 0.3242 0.1996
C39 C 0.9734(14) 0.3760(6) 0.1643(13)
H42 H 1.0066 0.3936 0.2154
C40 C 0.9990(5) 0.2645(2) 0.0512(4)
H43 H 0.9455 0.2457 0.0161
C41 C 1.0697(5) 0.2373(3) 0.1241(4)
H44 H 1.1001 0.2562 0.1794
C42 C 1.0366(6) 0.1950(3) 0.1652(5)
C43 C 1.0962(9) 0.1761(4) 0.2420(7)
H45 H 1.1472 0.1933 0.2770
C44 C 1.0867(13) 0.1349(6) 0.2707(11)
H46 H 1.1247 0.1241 0.3288
C45 C 1.0166(12) 0.1074(4) 0.2102(12)
C46 C 0.9487(12) 0.1265(7) 0.1349(13)
H47 H 0.8971 0.1098 0.0994
C47 C 0.9594(9) 0.1700(5) 0.1144(8)
H48 H 0.9138 0.1834 0.0649
C48 C 1.0666(9) 0.0415(5) 0.2981(8)
H49 H 1.0488 0.0107 0.3021
H50 H 1.0674 0.0550 0.3633
H51 H 1.1328 0.0440 0.2763
C49 C 0.8745(14) 0.4378(4) 0.1100(15)
H52 H 0.8825 0.4465 0.1805
H53 H 0.8038 0.4422 0.0831
C50 C 0.9367(10) 0.4655(4) 0.0565(9)
H54 H 0.9162 0.4959 0.0619
H55 H 0.9294 0.4570 -0.0133
H56 H 1.0065 0.4624 0.0848
O19 O 1.1991(4) 0.44569(19) 0.0345(4)
N4 N 1.1118(4) 0.10434(18) -0.0592(4)
C51 C 1.1800(6) 0.1148(3) 0.0102(5)
H57 H 1.2191 0.0923 0.0431
C52 C 1.1988(4) 0.1553(3) 0.0384(4)
H58 H 1.2508 0.1614 0.0900
C53 C 1.1418(4) 0.1895(2) -0.0080(4)
C54 C 1.0695(4) 0.1777(2) -0.0868(4)
H59 H 1.0314 0.1993 -0.1244
C55 C 1.0554(4) 0.1348(2) -0.1077(4)
H60 H 1.0042 0.1264 -0.1582
C56 C 1.1447(5) 0.2336(3) 0.0407(4)
H61 H 1.2141 0.2423 0.0672
C57 C 1.0885(5) 0.2706(3) -0.0150(5)
H62 H 1.0672 0.2627 -0.0856
C58 C 1.1363(5) 0.3149(2) -0.0066(4)
C59 C 1.0942(5) 0.3473(2) -0.0666(4)
H63 H 1.0483 0.3394 -0.1222
C60 C 1.1143(4) 0.3888(2) -0.0512(4)
H64 H 1.0806 0.4099 -0.0941
C61 C 1.1844(4) 0.4026(2) 0.0272(5)
C62 C 1.2329(5) 0.3717(3) 0.0867(5)
H65 H 1.2819 0.3800 0.1393
C63 C 1.2105(4) 0.3275(3) 0.0703(4)
H66 H 1.2453 0.3060 0.1111
C64 C 1.2582(7) 0.4627(4) 0.1225(8)
H67 H 1.2622 0.4944 0.1178
H68 H 1.3254 0.4503 0.1281
H69 H 1.2267 0.4548 0.1811
C65 C 1.0887(8) 0.0559(3) -0.0916(7)
H70 H 1.0990 0.0521 -0.1618
H71 H 1.1352 0.0362 -0.0512
C66 C 0.9817(12) 0.0438(4) -0.0785(10)
H72 H 0.9689 0.0136 -0.0991
H73 H 0.9356 0.0630 -0.1192
H74 H 0.9718 0.0470 -0.0089
O20 O 0.3442(6) 0.1669(4) 0.2862(6)
H77 H 0.3608 0.1427 0.2652
O21 O 0.6809(6) 0.2538(3) -0.0392(6)
H78 H 0.6744 0.2299 -0.0689
C69 C 0.4593(6) 0.1911(3) 0.1798(5)
H79 H 0.4787 0.1625 0.1650
C70 C 0.3905(7) 0.1984(3) 0.2425(6)
C71 C 0.3607(6) 0.2426(4) 0.2678(6)
H80 H 0.3122 0.2467 0.3118
C72 C 0.4014(6) 0.2762(3) 0.2294(6)
H81 H 0.3831 0.3049 0.2456
C73 C 0.4738(6) 0.2691(3) 0.1625(5)
C74 C 0.5132(6) 0.3036(3) 0.1179(7)
H82 H 0.4928 0.3323 0.1318
C75 C 0.5825(7) 0.2974(4) 0.0524(7)
H83 H 0.6098 0.3221 0.0238
C76 C 0.6135(6) 0.2565(3) 0.0271(7)
C77 C 0.5735(6) 0.2214(3) 0.0679(5)
H84 H 0.5933 0.1931 0.0509
C78 C 0.4999(5) 0.2267(3) 0.1383(5)
O24 O 1.2322(17) -0.0115(8) 0.0666(18)
O9? O 0.4656(11) 0.0309(8) 0.2521(15)
O10? O 0.428(3) 0.0931(6) 0.1743(13)
O11? O 0.3199(14) 0.0418(5) 0.1680(12)
C17? C 0.8686(18) 0.2250(9) 0.3212(16)
H19? H 0.8954 0.2341 0.3898
C18? C 0.8033(15) 0.2603(6) 0.2697(13)
H20? H 0.7323 0.2519 0.2495
O17? O 1.0383(19) 0.0601(7) 0.1926(19)
N2? N 0.922(2) 0.3882(6) 0.0746(17)
C19? C 0.854(4) 0.3619(11) 0.023(4)
H21? H 0.8137 0.3724 -0.0340
C20? C 0.845(2) 0.3206(10) 0.053(2)
H22? H 0.7960 0.3025 0.0181
C21? C 0.9047(15) 0.3035(7) 0.1349(15)
C22? C 0.979(2) 0.3294(9) 0.175(2)
H23? H 1.0288 0.3177 0.2224
C23? C 0.984(4) 0.3713(11) 0.149(3)
H24? H 1.0321 0.3895 0.1852
C24? C 0.8761(10) 0.2592(6) 0.1801(11)
H25? H 0.8438 0.2405 0.1253
C25? C 0.9528(11) 0.2320(5) 0.2446(10)
H26? H 1.0095 0.2503 0.2753
C26? C 0.9875(14) 0.1892(6) 0.2151(16)
C27? C 1.071(2) 0.1682(12) 0.269(2)
H27? H 1.1167 0.1837 0.3141
C28? C 1.082(3) 0.1217(12) 0.252(3)
H28? H 1.1358 0.1052 0.2838
C29? C 1.013(8) 0.1049(12) 0.189(7)
C30? C 0.970(4) 0.123(2) 0.132(5)
H29? H 0.9506 0.1095 0.0705
C31? C 0.943(3) 0.1666(16) 0.142(3)
H30? H 0.8923 0.1793 0.0970
C32? C 1.116(2) 0.0380(11) 0.258(3)
H31? H 1.1172 0.0072 0.2405
H32? H 1.1011 0.0407 0.3269
H33? H 1.1804 0.0513 0.2523
C33? C 0.927(2) 0.4334(8) 0.0531(18)
H34? H 0.9035 0.4380 -0.0178
H35? H 0.9980 0.4426 0.0643
C34? C 0.870(3) 0.4609(10) 0.111(3)
H36? H 0.8721 0.4909 0.0874
H37? H 0.8989 0.4597 0.1808
H38? H 0.8011 0.4508 0.1048
C67? C 1.1676(19) 0.2347(6) 0.0152(19)
H75? H 1.2212 0.2402 0.0655
C68? C 1.1207(19) 0.2687(6) -0.0298(18)
H76? H 1.0711 0.2622 -0.0835
O22? O 0.2952(9) 0.2447(5) 0.3346(9)
H85? H 0.2669 0.2690 0.3307
O23? O 0.6252(10) 0.3327(8) 0.0025(12)
H86? H 0.6196 0.3559 0.0339
H87? H 0.3607 0.1743 0.2710
H88? H 0.6614 0.2530 -0.0177
loop_
_geom_bond_atom_site_label_1
_geom_bond_atom_site_label_2
_geom_bond_site_symmetry_1
_geom_bond_site_symmetry_2
Cl1 O1 1_555 1_555
O2 Cl1 1_555 1_555
O3 Cl1 1_555 1_555
O4 Cl1 1_555 1_555
Cl2 O5 1_555 1_555
O6 Cl2 1_555 1_555
O7 Cl2 1_555 1_555
O8 Cl2 1_555 1_555
Cl3 O12 1_555 1_555
O13 Cl3 1_555 1_555
O14 Cl3 1_555 1_555
O15 Cl3 1_555 1_555
O16 C11 1_555 1_555
N1 C1 1_555 1_555
C1 H1 1_555 1_555
C2 C1 1_555 1_555
H2 C2 1_555 1_555
C3 C2 1_555 1_555
C4 C3 1_555 1_555
H3 C4 1_555 1_555
C5 N1 1_555 1_555
H4 C5 1_555 1_555
C6 C3 1_555 1_555
H5 C6 1_555 1_555
C7 C6 1_555 1_555
H6 C7 1_555 1_555
C8 C7 1_555 1_555
C9 C8 1_555 1_555
H7 C9 1_555 1_555
C10 C9 1_555 1_555
H8 C10 1_555 1_555
C11 C10 1_555 1_555
C12 C11 1_555 1_555
H9 C12 1_555 1_555
C13 C8 1_555 1_555
H10 C13 1_555 1_555
C14 O16 1_555 1_555
H11 C14 1_555 1_555
H12 C14 1_555 1_555
H13 C14 1_555 1_555
C15 N1 1_555 1_555
H14 C15 1_555 1_555
H15 C15 1_555 1_555
C16 C15 1_555 1_555
H16 C16 1_555 1_555
H17 C16 1_555 1_555
H18 C16 1_555 1_555
O18 C45 1_555 1_555
N3 C35 1_555 1_555
C35 H39 1_555 1_555
C36 C35 1_555 1_555
H40 C36 1_555 1_555
C37 C36 1_555 1_555
C38 C37 1_555 1_555
H41 C38 1_555 1_555
C39 N3 1_555 1_555
H42 C39 1_555 1_555
C40 C37 1_555 1_555
H43 C40 1_555 1_555
C41 C40 1_555 1_555
H44 C41 1_555 1_555
C42 C41 1_555 1_555
C43 C42 1_555 1_555
H45 C43 1_555 1_555
C44 C43 1_555 1_555
H46 C44 1_555 1_555
C45 C44 1_555 1_555
C46 C45 1_555 1_555
H47 C46 1_555 1_555
C47 C42 1_555 1_555
H48 C47 1_555 1_555
C48 O18 1_555 1_555
H49 C48 1_555 1_555
H50 C48 1_555 1_555
H51 C48 1_555 1_555
C49 N3 1_555 1_555
H52 C49 1_555 1_555
H53 C49 1_555 1_555
C50 C49 1_555 1_555
H54 C50 1_555 1_555
H55 C50 1_555 1_555
H56 C50 1_555 1_555
O19 C61 1_555 1_555
N4 C51 1_555 1_555
C51 H57 1_555 1_555
C52 C51 1_555 1_555
H58 C52 1_555 1_555
C53 C52 1_555 1_555
C54 C53 1_555 1_555
H59 C54 1_555 1_555
C55 N4 1_555 1_555
H60 C55 1_555 1_555
C56 C41 1_555 1_555
H61 C56 1_555 1_555
C57 C40 1_555 1_555
H62 C57 1_555 1_555
C58 C57 1_555 1_555
C59 C58 1_555 1_555
H63 C59 1_555 1_555
C60 C59 1_555 1_555
H64 C60 1_555 1_555
C61 C60 1_555 1_555
C62 C61 1_555 1_555
H65 C62 1_555 1_555
C63 C58 1_555 1_555
H66 C63 1_555 1_555
C64 O19 1_555 1_555
H67 C64 1_555 1_555
H68 C64 1_555 1_555
H69 C64 1_555 1_555
C65 N4 1_555 1_555
H70 C65 1_555 1_555
H71 C65 1_555 1_555
C66 C65 1_555 1_555
H72 C66 1_555 1_555
H73 C66 1_555 1_555
H74 C66 1_555 1_555
O20 H77 1_555 1_555
O21 H78 1_555 1_555
C69 H79 1_555 1_555
C70 O20 1_555 1_555
C71 C70 1_555 1_555
H80 C71 1_555 1_555
C72 C71 1_555 1_555
H81 C72 1_555 1_555
C73 C72 1_555 1_555
C74 C73 1_555 1_555
H82 C74 1_555 1_555
C75 C74 1_555 1_555
H83 C75 1_555 1_555
C76 O21 1_555 1_555
C77 C76 1_555 1_555
H84 C77 1_555 1_555
C78 C69 1_555 1_555
C4 C5 1_555 1_555
C12 C13 1_555 1_555
C38 C39 1_555 1_555
C46 C47 1_555 1_555
C53 C56 1_555 1_555
C54 C55 1_555 1_555
C56 C57 1_555 1_555
C62 C63 1_555 1_555
C69 C70 1_555 1_555
C73 C78 1_555 1_555
C75 C76 1_555 1_555
C77 C78 1_555 1_555

#END
