
#######################################################################
#
#                 Cambridge Crystallographic Data Centre
#                                CCDC 
#
#######################################################################
#
# If this CIF has been generated from an entry in the Cambridge 
# Structural Database, then it will include bibliographic, chemical, 
# crystal, experimental, refinement or atomic coordinate data resulting 
# from the CCDC's data processing and validation procedures.
#
#######################################################################

data_AZEQON
_chemical_formula_moiety         'C20 H22 F1 N5 O1 S1,C2 H6 O1'
_chemical_name_systematic        
'3-(4-fluoro-3-phenoxyphenyl)-1-((4-methylpiperazin-1-yl)methyl)-1H-1,2,4-triazole-5-thiol ethanol solvate'
_symmetry_cell_setting           triclinic
_symmetry_space_group_name_H-M   'P 1'
_symmetry_Int_Tables_number      1
_space_group_name_Hall           'P 1'
loop_
_symmetry_equiv_pos_site_id
_symmetry_equiv_pos_as_xyz
1 x,y,z
_cell_length_a                   8.9055(3)
_cell_length_b                   10.6993(3)
_cell_length_c                   12.2617(4)
_cell_angle_alpha                104.596(2)
_cell_angle_beta                 91.314(2)
_cell_angle_gamma                94.931(2)
_cell_volume                     1125.23
_exptl_crystal_colour            colorless
_exptl_crystal_description       block
_cell_formula_units_Z            2
loop_
_atom_site_label
_atom_site_type_symbol
_atom_site_fract_x
_atom_site_fract_y
_atom_site_fract_z
C1 C 1.1126(9) 1.1800(9) -0.1629(6)
H1 H 1.0822 1.1276 -0.2392
H2 H 1.1832 1.1347 -0.1278
H3 H 1.1617 1.2642 -0.1669
O1 O 1.0144(3) 1.2766(3) 0.0179(2)
C2 C 0.9747(4) 1.2007(4) -0.0931(3)
H4 H 0.9025 1.2449 -0.1294
H5 H 0.9245 1.1156 -0.0898
H6 H 1.073(5) 1.336(5) 0.015(4)
C4 C 0.5804(5) 0.9643(4) 0.5900(4)
H10 H 0.4741 0.9848 0.5916
H11 H 0.6206 0.9744 0.5177
O2 O 0.6685(3) 1.0566(2) 0.6845(2)
C5 C 0.5865(5) 0.8294(4) 0.5958(4)
H12 H 0.5269 0.7712 0.5320
H13 H 0.5451 0.8187 0.6666
H14 H 0.6915 0.8083 0.5927
S1 S 0.50378(7) 1.02608(7) -0.08588(6)
H17 H 0.4621 1.1329 -0.0662
F1 F 0.9371(2) 1.25203(18) 0.62949(14)
O3 O 0.7396(2) 1.3740(2) 0.53213(18)
N1 N 0.6067(3) 0.4788(2) -0.08118(19)
N2 N 0.7424(2) 0.7191(2) -0.11176(19)
N3 N 0.7489(2) 0.9434(2) 0.0053(2)
N4 N 0.8279(3) 0.9588(2) 0.1071(2)
N5 N 0.6301(2) 1.0807(2) 0.1286(2)
C7 C 0.5695(4) 0.3365(3) -0.1174(3)
H18 H 0.6125 0.3021 -0.1906
H19 H 0.4596 0.3166 -0.1243
H20 H 0.6117 0.2965 -0.0614
C8 C 0.7735(3) 0.5130(3) -0.0691(3)
H21 H 0.8189 0.4798 -0.1425
H22 H 0.8177 0.4716 -0.0138
C9 C 0.8087(3) 0.6592(3) -0.0299(2)
H23 H 0.7669 0.6922 0.0449
H24 H 0.9194 0.6815 -0.0227
C10 C 0.5779(3) 0.6903(3) -0.1197(2)
H25 H 0.5332 0.7346 -0.1727
H26 H 0.5364 0.7232 -0.0448
C11 C 0.5371(3) 0.5467(3) -0.1604(3)
H27 H 0.5739 0.5144 -0.2371
H28 H 0.4260 0.5278 -0.1644
C12 C 0.7939(3) 0.8528(3) -0.0971(2)
H29 H 0.7565 0.8804 -0.1632
H30 H 0.9054 0.8606 -0.0972
C13 C 0.7509(3) 1.0418(3) 0.1778(2)
C14 C 0.6315(3) 1.0179(3) 0.0187(2)
C15 C 0.7972(3) 1.0926(3) 0.2978(2)
C16 C 0.7411(3) 1.2057(3) 0.3596(2)
H31 H 0.6702 1.2465 0.3246
C17 C 0.7874(3) 1.2584(3) 0.4704(3)
C18 C 0.8917(3) 1.1981(3) 0.5217(3)
C19 C 0.9455(3) 1.0856(3) 0.4614(3)
H32 H 1.0151 1.0443 0.4971
C20 C 0.9003(3) 1.0324(3) 0.3511(3)
H33 H 0.9386 0.9548 0.3105
C21 C 0.5832(3) 1.3757(3) 0.5405(2)
C22 C 0.5004(3) 1.2829(3) 0.5787(3)
H34 H 0.5464 1.2127 0.5956
C23 C 0.3468(4) 1.2940(3) 0.5920(3)
H35 H 0.2872 1.2306 0.6183
C24 C 0.2804(4) 1.3960(4) 0.5676(3)
H36 H 0.1756 1.4029 0.5771
C25 C 0.3665(4) 1.4873(3) 0.5295(3)
H37 H 0.3211 1.5582 0.5134
C26 C 0.5189(4) 1.4773(3) 0.5141(3)
H38 H 0.5779 1.5394 0.4859
S2 S 0.19500(7) 0.55311(7) 0.00621(6)
H39 H 0.2492 0.4937 -0.0776
F2 F 1.10183(17) 0.53034(17) 0.36599(14)
O4 O 0.9862(2) 0.76437(18) 0.46034(16)
N6 N 0.3368(3) 1.1416(2) 0.18777(19)
N7 N 0.2180(2) 0.9041(2) 0.2348(2)
N8 N 0.3223(2) 0.6938(2) 0.2107(2)
N9 N 0.4495(2) 0.7059(2) 0.2801(2)
N10 N 0.4655(2) 0.5508(2) 0.11785(19)
C27 C 0.3287(3) 1.2787(3) 0.1819(3)
H40 H 0.2290 1.3057 0.2039
H41 H 0.3453 1.2850 0.1047
H42 H 0.4066 1.3352 0.2334
C28 C 0.3238(3) 1.1282(3) 0.3050(2)
H43 H 0.2253 1.1549 0.3335
H44 H 0.4044 1.1858 0.3546
C29 C 0.3370(3) 0.9892(3) 0.3084(3)
H45 H 0.4371 0.9633 0.2829
H46 H 0.3276 0.9811 0.3866
C30 C 0.2299(3) 0.9139(3) 0.1196(2)
H47 H 0.1494 0.8549 0.0711
H48 H 0.3285 0.8868 0.0916
C31 C 0.2157(3) 1.0518(3) 0.1128(3)
H49 H 0.2258 1.0575 0.0339
H50 H 0.1151 1.0776 0.1370
C32 C 0.1988(3) 0.7740(3) 0.2480(3)
H51 H 0.1051 0.7299 0.2055
H52 H 0.1846 0.7787 0.3287
C33 C 0.5310(3) 0.6191(3) 0.2202(2)
C34 C 0.3308(3) 0.5995(3) 0.1135(2)
C35 C 0.6799(3) 0.5941(3) 0.2594(2)
C36 C 0.7627(3) 0.6884(3) 0.3444(2)
H53 H 0.7229 0.7685 0.3763
C37 C 0.9030(3) 0.6650(3) 0.3820(2)
C38 C 0.9610(3) 0.5492(3) 0.3319(2)
C39 C 0.8816(3) 0.4550(3) 0.2493(2)
H54 H 0.9232 0.3757 0.2172
C40 C 0.7397(3) 0.4766(3) 0.2130(2)
H55 H 0.6829 0.4114 0.1564
C41 C 1.0374(3) 0.7410(3) 0.5610(2)
C42 C 1.1528(3) 0.8305(3) 0.6192(3)
H56 H 1.1937 0.8989 0.5891
C43 C 1.2066(4) 0.8173(4) 0.7220(3)
H57 H 1.2838 0.8789 0.7636
C44 C 1.1509(4) 0.7170(4) 0.7655(3)
H58 H 1.1912 0.7078 0.8351
C45 C 1.0366(4) 0.6306(3) 0.7069(3)
H59 H 0.9967 0.5618 0.7370
C46 C 0.9777(3) 0.6421(3) 0.6037(2)
H60 H 0.8977 0.5824 0.5639
C3? C 1.069(2) 1.1236(19) -0.1669(14)
H7? H 1.0102 1.0770 -0.2360
H8? H 1.1087 1.0611 -0.1304
H9? H 1.1522 1.1791 -0.1856
C6? C 0.690(2) 0.9444(18) 0.6216(17)
H15? H 0.7824 0.9198 0.6539
H16? H 0.7166 0.9594 0.5478
loop_
_geom_bond_atom_site_label_1
_geom_bond_atom_site_label_2
_geom_bond_site_symmetry_1
_geom_bond_site_symmetry_2
C1 H1 1_555 1_555
H2 C1 1_555 1_555
H3 C1 1_555 1_555
O1 C2 1_555 1_555
C2 C1 1_555 1_555
H4 C2 1_555 1_555
H5 C2 1_555 1_555
H6 O1 1_555 1_555
C4 H10 1_555 1_555
H11 C4 1_555 1_555
O2 C4 1_555 1_555
C5 C4 1_555 1_555
H12 C5 1_555 1_555
H13 C5 1_555 1_555
H14 C5 1_555 1_555
S1 H17 1_555 1_555
F1 C18 1_555 1_555
O3 C17 1_555 1_555
N1 C7 1_555 1_555
N2 C9 1_555 1_555
N3 N4 1_555 1_555
N4 C13 1_555 1_555
N5 C13 1_555 1_555
C7 H18 1_555 1_555
H19 C7 1_555 1_555
H20 C7 1_555 1_555
C8 N1 1_555 1_555
H21 C8 1_555 1_555
H22 C8 1_555 1_555
C9 C8 1_555 1_555
H23 C9 1_555 1_555
H24 C9 1_555 1_555
C10 N2 1_555 1_555
H25 C10 1_555 1_555
H26 C10 1_555 1_555
C11 N1 1_555 1_555
H27 C11 1_555 1_555
H28 C11 1_555 1_555
C12 N2 1_555 1_555
H29 C12 1_555 1_555
H30 C12 1_555 1_555
C13 C15 1_555 1_555
C14 S1 1_555 1_555
C15 C16 1_555 1_555
C16 H31 1_555 1_555
C17 C16 1_555 1_555
C18 C17 1_555 1_555
C19 C18 1_555 1_555
H32 C19 1_555 1_555
C20 C15 1_555 1_555
H33 C20 1_555 1_555
C21 O3 1_555 1_555
C22 C21 1_555 1_555
H34 C22 1_555 1_555
C23 C22 1_555 1_555
H35 C23 1_555 1_555
C24 C23 1_555 1_555
H36 C24 1_555 1_555
C25 C24 1_555 1_555
H37 C25 1_555 1_555
C26 C21 1_555 1_555
H38 C26 1_555 1_555
S2 H39 1_555 1_555
F2 C38 1_555 1_555
O4 C37 1_555 1_555
N6 C27 1_555 1_555
N7 C29 1_555 1_555
N8 N9 1_555 1_555
N9 C33 1_555 1_555
N10 C33 1_555 1_555
C27 H40 1_555 1_555
H41 C27 1_555 1_555
H42 C27 1_555 1_555
C28 N6 1_555 1_555
H43 C28 1_555 1_555
H44 C28 1_555 1_555
C29 C28 1_555 1_555
H45 C29 1_555 1_555
H46 C29 1_555 1_555
C30 N7 1_555 1_555
H47 C30 1_555 1_555
H48 C30 1_555 1_555
C31 N6 1_555 1_555
H49 C31 1_555 1_555
H50 C31 1_555 1_555
C32 N7 1_555 1_555
H51 C32 1_555 1_555
H52 C32 1_555 1_555
C33 C35 1_555 1_555
C34 S2 1_555 1_555
C35 C36 1_555 1_555
C36 H53 1_555 1_555
C37 C36 1_555 1_555
C38 C37 1_555 1_555
C39 C38 1_555 1_555
H54 C39 1_555 1_555
C40 C35 1_555 1_555
H55 C40 1_555 1_555
C41 O4 1_555 1_555
C42 C41 1_555 1_555
H56 C42 1_555 1_555
C43 C42 1_555 1_555
H57 C43 1_555 1_555
C44 C43 1_555 1_555
H58 C44 1_555 1_555
C45 C44 1_555 1_555
H59 C45 1_555 1_555
C46 C41 1_555 1_555
H60 C46 1_555 1_555
N3 C12 1_555 1_555
N3 C14 1_555 1_555
N5 C14 1_555 1_555
C10 C11 1_555 1_555
C19 C20 1_555 1_555
C25 C26 1_555 1_555
N8 C32 1_555 1_555
N8 C34 1_555 1_555
N10 C34 1_555 1_555
C30 C31 1_555 1_555
C39 C40 1_555 1_555
C45 C46 1_555 1_555

#END
