
#######################################################################
#
#                 Cambridge Crystallographic Data Centre
#                                CCDC 
#
#######################################################################
#
# If this CIF has been generated from an entry in the Cambridge 
# Structural Database, then it will include bibliographic, chemical, 
# crystal, experimental, refinement or atomic coordinate data resulting 
# from the CCDC's data processing and validation procedures.
#
#######################################################################

data_AZIWOX
_chemical_formula_moiety         'C100 H74'
_chemical_name_systematic        
"1,2:9,10:12,13:20,21-tetrakis(4-t-butylbenzo)ditriptyceno[4,5-d:4',5'-o]ovalene unknown solvate"
_symmetry_cell_setting           triclinic
_symmetry_space_group_name_H-M   'P -1'
_symmetry_Int_Tables_number      2
_space_group_name_Hall           '-P 1'
loop_
_symmetry_equiv_pos_site_id
_symmetry_equiv_pos_as_xyz
1 x,y,z
2 -x,-y,-z
_cell_length_a                   13.459(3)
_cell_length_b                   13.762(3)
_cell_length_c                   15.422(3)
_cell_angle_alpha                81.035(16)
_cell_angle_beta                 76.508(16)
_cell_angle_gamma                64.607(15)
_cell_volume                     2504.25
_exptl_crystal_colour            orange
_exptl_crystal_description       plate
_cell_formula_units_Z            1
loop_
_atom_site_label
_atom_site_type_symbol
_atom_site_fract_x
_atom_site_fract_y
_atom_site_fract_z
C1 C 0.3565(10) 0.6876(11) 1.0486(9)
C2 C 0.6349(11) 0.3807(10) 0.8716(9)
C3 C 0.2559(11) 0.8627(10) 0.9699(9)
C4 C 0.1660(12) 0.9590(10) 0.9720(9)
H1 H 0.1275 0.9893 1.0278
C5 C 0.1297(12) 1.0133(11) 0.8953(9)
H2 H 0.0668 1.0809 0.9001
C6 C 0.1802(12) 0.9746(12) 0.8104(9)
C7 C 0.2711(11) 0.8723(11) 0.8126(9)
H3 H 0.3055 0.8402 0.7570
C8 C 0.3153(11) 0.8140(11) 0.8857(9)
C9 C 0.4736(11) 0.6695(10) 0.8019(9)
H4 H 0.4650 0.7155 0.7488
C10 C 0.4009(12) 0.7088(11) 0.8831(9)
C11 C 0.4158(11) 0.6446(11) 0.9628(9)
C12 C 0.4949(12) 0.5344(11) 0.9611(8)
C13 C 0.5638(11) 0.4939(10) 0.8771(9)
C14 C 0.5578(11) 0.5647(10) 0.7976(8)
C15 C 0.6406(11) 0.5241(10) 0.7204(8)
C16 C 0.6601(11) 0.5960(11) 0.6488(8)
H5 H 0.6116 0.6703 0.6509
C17 C 0.7460(12) 0.5629(11) 0.5765(9)
C18 C 0.8137(11) 0.4516(11) 0.5753(9)
H6 H 0.8722 0.4271 0.5251
C19 C 0.8017(11) 0.3750(11) 0.6418(8)
H7 H 0.8523 0.3012 0.6389
C20 C 0.7117(11) 0.4108(10) 0.7135(8)
C21 C 0.6929(10) 0.3383(10) 0.7900(8)
C22 C 0.7276(10) 0.2260(10) 0.7833(8)
C23 C 0.7498(10) 0.1786(10) 0.7002(8)
H8 H 0.7485 0.2225 0.6461
C24 C 0.7720(11) 0.0760(11) 0.6970(9)
C25 C 0.7856(10) 0.0153(10) 0.6174(9)
H9 H 0.7904 0.0593 0.5598
C26 C 0.6834(12) -0.0146(11) 0.6345(9)
C27 C 0.5987(12) 0.0198(11) 0.5888(9)
H10 H 0.5988 0.0665 0.5365
C28 C 0.5131(12) -0.0124(11) 0.6177(9)
H11 H 0.4555 0.0104 0.5838
C29 C 0.5083(13) -0.0761(12) 0.6935(10)
H12 H 0.4474 -0.0969 0.7125
C30 C 0.5933(11) -0.1111(10) 0.7437(9)
H13 H 0.5898 -0.1555 0.7971
C31 C 0.6836(12) -0.0807(10) 0.7154(8)
C32 C 0.8893(12) -0.0870(10) 0.6190(9)
C33 C 0.9844(11) -0.1240(10) 0.5498(9)
H14 H 0.9862 -0.0809 0.4954
C34 C 1.0762(12) -0.2227(11) 0.5596(9)
H15 H 1.1394 -0.2470 0.5128
C35 C 1.0714(13) -0.2825(12) 0.6388(10)
H16 H 1.1340 -0.3479 0.6475
C36 C 0.9760(12) -0.2503(12) 0.7086(10)
H17 H 0.9730 -0.2923 0.7634
C37 C 0.8876(12) -0.1539(11) 0.6921(9)
C38 C 0.7781(11) -0.1049(10) 0.7628(9)
H18 H 0.7761 -0.1511 0.8194
C39 C 0.7676(11) 0.0074(10) 0.7759(9)
C40 C 0.7525(11) 0.0466(10) 0.8592(9)
H19 H 0.7554 0.0012 0.9125
C41 C 0.7331(10) 0.1546(10) 0.8606(8)
C42 C 0.7050(11) 0.1992(11) 0.9492(9)
C43 C 0.1397(13) 1.0325(12) 0.7267(10)
C44 C 0.0278(14) 1.0343(16) 0.7284(11)
H20 H 0.0340 0.9602 0.7324
H21 H -0.0251 1.0715 0.7803
H22 H 0.0010 1.0722 0.6736
C45 C 0.1276(19) 1.1462(15) 0.7206(12)
H23 H 0.2005 1.1468 0.7194
H24 H 0.1003 1.1835 0.6658
H25 H 0.0742 1.1829 0.7725
C46 C 0.2142(13) 0.9830(13) 0.6419(9)
H26 H 0.2890 0.9804 0.6383
H27 H 0.2196 0.9098 0.6417
H28 H 0.1827 1.0267 0.5905
C47 C 0.7722(13) 0.6368(12) 0.5020(9)
C48 C 0.6593(15) 0.7244(13) 0.4791(11)
H29 H 0.6216 0.6904 0.4551
H30 H 0.6113 0.7598 0.5334
H31 H 0.6740 0.7780 0.4346
C49 C 0.8184(15) 0.7005(13) 0.5372(10)
H32 H 0.8362 0.7495 0.4892
H33 H 0.7629 0.7423 0.5860
H34 H 0.8867 0.6514 0.5595
C50 C 0.8395(16) 0.5873(13) 0.4139(10)
H35 H 0.8040 0.5470 0.3952
H36 H 0.8422 0.6447 0.3681
H37 H 0.9158 0.5384 0.4215
C1A C 0.6435(10) 0.3124(11) 0.9514(9)
C2A C 0.3651(11) 0.6193(10) 1.1284(9)
C3A C 0.7441(11) 0.1373(10) 1.0301(9)
C4A C 0.8340(12) 0.0410(10) 1.0280(9)
H1A H 0.8725 0.0107 0.9722
C5A C 0.8703(12) -0.0133(11) 1.1047(9)
H2A H 0.9332 -0.0809 1.0999
C6A C 0.8198(12) 0.0254(12) 1.1896(9)
C7A C 0.7289(11) 0.1277(11) 1.1874(9)
H3A H 0.6945 0.1598 1.2430
C8A C 0.6847(11) 0.1860(11) 1.1143(9)
C9A C 0.5264(11) 0.3305(10) 1.1981(9)
H4A H 0.5350 0.2845 1.2512
C10A C 0.5991(12) 0.2912(11) 1.1169(9)
C11A C 0.5842(11) 0.3554(11) 1.0372(9)
C12A C 0.5051(12) 0.4656(11) 1.0389(8)
C13A C 0.4362(11) 0.5061(10) 1.1229(9)
C14A C 0.4422(11) 0.4353(10) 1.2024(8)
C15A C 0.3594(11) 0.4759(10) 1.2796(8)
C16A C 0.3399(11) 0.4040(11) 1.3512(8)
H5A H 0.3884 0.3297 1.3491
C17A C 0.2540(12) 0.4371(11) 1.4235(9)
C18A C 0.1863(11) 0.5484(11) 1.4247(9)
H6A H 0.1278 0.5729 1.4749
C19A C 0.1983(11) 0.6250(11) 1.3582(8)
H7A H 0.1477 0.6988 1.3611
C20A C 0.2883(11) 0.5892(10) 1.2865(8)
C21A C 0.3071(10) 0.6617(10) 1.2100(8)
C22A C 0.2724(10) 0.7740(10) 1.2167(8)
C23A C 0.2502(10) 0.8214(10) 1.2998(8)
H8A H 0.2515 0.7775 1.3539
C24A C 0.2280(11) 0.9240(11) 1.3030(9)
C25A C 0.2144(10) 0.9847(10) 1.3826(9)
H9A H 0.2096 0.9407 1.4402
C26A C 0.3166(12) 1.0146(11) 1.3655(9)
C27A C 0.4013(12) 0.9802(11) 1.4112(9)
H10A H 0.4012 0.9335 1.4635
C28A C 0.4869(12) 1.0124(11) 1.3823(9)
H11A H 0.5445 0.9896 1.4162
C29A C 0.4917(13) 1.0761(12) 1.3065(10)
H12A H 0.5526 1.0969 1.2875
C30A C 0.4067(11) 1.1111(10) 1.2563(9)
H13A H 0.4102 1.1555 1.2029
C31A C 0.3164(12) 1.0807(10) 1.2846(8)
C32A C 0.1107(12) 1.0870(10) 1.3810(9)
C33A C 0.0156(11) 1.1240(10) 1.4502(9)
H14A H 0.0138 1.0809 1.5046
C34A C -0.0762(12) 1.2227(11) 1.4404(9)
H15A H -0.1394 1.2470 1.4872
C35A C -0.0714(13) 1.2825(12) 1.3612(10)
H16A H -0.1340 1.3479 1.3525
C36A C 0.0240(12) 1.2503(12) 1.2914(10)
H17A H 0.0270 1.2923 1.2366
C37A C 0.1124(12) 1.1539(11) 1.3079(9)
C38A C 0.2219(11) 1.1049(10) 1.2372(9)
H18A H 0.2239 1.1511 1.1806
C39A C 0.2324(11) 0.9926(10) 1.2241(9)
C40A C 0.2475(11) 0.9534(10) 1.1408(9)
H19A H 0.2446 0.9988 1.0875
C41A C 0.2669(10) 0.8454(10) 1.1394(8)
C42A C 0.2950(11) 0.8008(11) 1.0508(9)
C43A C 0.8603(13) -0.0325(12) 1.2733(10)
C44A C 0.9722(14) -0.0343(16) 1.2716(11)
H20A H 0.9660 0.0398 1.2676
H21A H 1.0251 -0.0715 1.2197
H22A H 0.9990 -0.0722 1.3264
C45A C 0.8724(19) -0.1462(15) 1.2794(12)
H23A H 0.7995 -0.1468 1.2806
H24A H 0.8997 -0.1835 1.3342
H25A H 0.9258 -0.1829 1.2275
C46A C 0.7858(13) 0.0170(13) 1.3581(9)
H26A H 0.7110 0.0196 1.3617
H27A H 0.7804 0.0902 1.3583
H28A H 0.8173 -0.0267 1.4095
C47A C 0.2278(13) 0.3632(12) 1.4980(9)
C48A C 0.3407(15) 0.2756(13) 1.5209(11)
H29A H 0.3784 0.3096 1.5449
H30A H 0.3887 0.2402 1.4666
H31A H 0.3260 0.2220 1.5654
C49A C 0.1816(15) 0.2995(13) 1.4628(10)
H32A H 0.1638 0.2505 1.5108
H33A H 0.2371 0.2577 1.4140
H34A H 0.1133 0.3486 1.4405
C50A C 0.1605(16) 0.4127(13) 1.5861(10)
H35A H 0.1960 0.4530 1.6048
H36A H 0.1578 0.3553 1.6319
H37A H 0.0842 0.4616 1.5785
loop_
_geom_bond_atom_site_label_1
_geom_bond_atom_site_label_2
_geom_bond_site_symmetry_1
_geom_bond_site_symmetry_2
C1 C11 1_555 1_555
C2 C13 1_555 1_555
C3 C4 1_555 1_555
C4 H1 1_555 1_555
C5 C4 1_555 1_555
H2 C5 1_555 1_555
C6 C5 1_555 1_555
C7 C6 1_555 1_555
H3 C7 1_555 1_555
C8 C3 1_555 1_555
C9 H4 1_555 1_555
C10 C8 1_555 1_555
C11 C10 1_555 1_555
C12 C11 1_555 1_555
C13 C12 1_555 1_555
C14 C9 1_555 1_555
C15 C14 1_555 1_555
C16 C15 1_555 1_555
H5 C16 1_555 1_555
C17 C16 1_555 1_555
C18 C17 1_555 1_555
H6 C18 1_555 1_555
C19 C18 1_555 1_555
H7 C19 1_555 1_555
C20 C15 1_555 1_555
C21 C2 1_555 1_555
C22 C21 1_555 1_555
C23 C22 1_555 1_555
H8 C23 1_555 1_555
C24 C23 1_555 1_555
C25 C24 1_555 1_555
H9 C25 1_555 1_555
C26 C25 1_555 1_555
C27 C26 1_555 1_555
H10 C27 1_555 1_555
C28 C27 1_555 1_555
H11 C28 1_555 1_555
C29 C28 1_555 1_555
H12 C29 1_555 1_555
C30 C29 1_555 1_555
H13 C30 1_555 1_555
C31 C26 1_555 1_555
C32 C25 1_555 1_555
C33 C32 1_555 1_555
H14 C33 1_555 1_555
C34 C33 1_555 1_555
H15 C34 1_555 1_555
C35 C34 1_555 1_555
H16 C35 1_555 1_555
C36 C35 1_555 1_555
H17 C36 1_555 1_555
C37 C32 1_555 1_555
C38 C31 1_555 1_555
H18 C38 1_555 1_555
C39 C24 1_555 1_555
C40 C39 1_555 1_555
H19 C40 1_555 1_555
C41 C22 1_555 1_555
C42 C41 1_555 1_555
C43 C6 1_555 1_555
C44 C43 1_555 1_555
H20 C44 1_555 1_555
H21 C44 1_555 1_555
H22 C44 1_555 1_555
C45 C43 1_555 1_555
H23 C45 1_555 1_555
H24 C45 1_555 1_555
H25 C45 1_555 1_555
C46 C43 1_555 1_555
H26 C46 1_555 1_555
H27 C46 1_555 1_555
H28 C46 1_555 1_555
C47 C17 1_555 1_555
C48 C47 1_555 1_555
H29 C48 1_555 1_555
H30 C48 1_555 1_555
H31 C48 1_555 1_555
C49 C47 1_555 1_555
H32 C49 1_555 1_555
H33 C49 1_555 1_555
H34 C49 1_555 1_555
C50 C47 1_555 1_555
H35 C50 1_555 1_555
H36 C50 1_555 1_555
H37 C50 1_555 1_555
C1A C2 1_555 1_555
C2A C1 1_555 1_555
C3A C42 1_555 1_555
C4A C3A 1_555 1_555
H1A C4A 1_555 1_555
C5A C4A 1_555 1_555
H2A C5A 1_555 1_555
C6A C5A 1_555 1_555
C7A C6A 1_555 1_555
H3A C7A 1_555 1_555
C8A C3A 1_555 1_555
C9A H4A 1_555 1_555
C10A C8A 1_555 1_555
C11A C1A 1_555 1_555
C12A C12 1_555 1_555
C13A C2A 1_555 1_555
C14A C9A 1_555 1_555
C15A C14A 1_555 1_555
C16A C15A 1_555 1_555
H5A C16A 1_555 1_555
C17A C16A 1_555 1_555
C18A C17A 1_555 1_555
H6A C18A 1_555 1_555
C19A C18A 1_555 1_555
H7A C19A 1_555 1_555
C20A C15A 1_555 1_555
C21A C2A 1_555 1_555
C22A C21A 1_555 1_555
C23A C22A 1_555 1_555
H8A C23A 1_555 1_555
C24A C23A 1_555 1_555
C25A C24A 1_555 1_555
H9A C25A 1_555 1_555
C26A C25A 1_555 1_555
C27A C26A 1_555 1_555
H10A C27A 1_555 1_555
C28A C27A 1_555 1_555
H11A C28A 1_555 1_555
C29A C28A 1_555 1_555
H12A C29A 1_555 1_555
C30A C29A 1_555 1_555
H13A C30A 1_555 1_555
C31A C26A 1_555 1_555
C32A C25A 1_555 1_555
C33A C32A 1_555 1_555
H14A C33A 1_555 1_555
C34A C33A 1_555 1_555
H15A C34A 1_555 1_555
C35A C34A 1_555 1_555
H16A C35A 1_555 1_555
C36A C35A 1_555 1_555
H17A C36A 1_555 1_555
C37A C32A 1_555 1_555
C38A C31A 1_555 1_555
H18A C38A 1_555 1_555
C39A C24A 1_555 1_555
C40A C39A 1_555 1_555
H19A C40A 1_555 1_555
C41A C22A 1_555 1_555
C42A C1 1_555 1_555
C43A C6A 1_555 1_555
C44A C43A 1_555 1_555
H20A C44A 1_555 1_555
H21A C44A 1_555 1_555
H22A C44A 1_555 1_555
C45A C43A 1_555 1_555
H23A C45A 1_555 1_555
H24A C45A 1_555 1_555
H25A C45A 1_555 1_555
C46A C43A 1_555 1_555
H26A C46A 1_555 1_555
H27A C46A 1_555 1_555
H28A C46A 1_555 1_555
C47A C17A 1_555 1_555
C48A C47A 1_555 1_555
H29A C48A 1_555 1_555
H30A C48A 1_555 1_555
H31A C48A 1_555 1_555
C49A C47A 1_555 1_555
H32A C49A 1_555 1_555
H33A C49A 1_555 1_555
H34A C49A 1_555 1_555
C50A C47A 1_555 1_555
H35A C50A 1_555 1_555
H36A C50A 1_555 1_555
H37A C50A 1_555 1_555
C3 C42A 1_555 1_555
C7 C8 1_555 1_555
C9 C10 1_555 1_555
C13 C14 1_555 1_555
C19 C20 1_555 1_555
C20 C21 1_555 1_555
C30 C31 1_555 1_555
C36 C37 1_555 1_555
C37 C38 1_555 1_555
C38 C39 1_555 1_555
C40 C41 1_555 1_555
C42 C1A 1_555 1_555
C7A C8A 1_555 1_555
C9A C10A 1_555 1_555
C10A C11A 1_555 1_555
C11A C12A 1_555 1_555
C12A C13A 1_555 1_555
C13A C14A 1_555 1_555
C19A C20A 1_555 1_555
C20A C21A 1_555 1_555
C30A C31A 1_555 1_555
C36A C37A 1_555 1_555
C37A C38A 1_555 1_555
C38A C39A 1_555 1_555
C40A C41A 1_555 1_555
C41A C42A 1_555 1_555

#END
