
#######################################################################
#
#                 Cambridge Crystallographic Data Centre
#                                CCDC 
#
#######################################################################
#
# If this CIF has been generated from an entry in the Cambridge 
# Structural Database, then it will include bibliographic, chemical, 
# crystal, experimental, refinement or atomic coordinate data resulting 
# from the CCDC's data processing and validation procedures.
#
#######################################################################

data_AZOQEM
_chemical_formula_moiety         'C11 H14 O3'
_chemical_name_systematic        1-(3,4-Dimethoxyphenyl)propan-1-one
_symmetry_cell_setting           monoclinic
_symmetry_space_group_name_H-M   'P 21/c'
_symmetry_Int_Tables_number      14
_space_group_name_Hall           '-P 2ybc'
loop_
_symmetry_equiv_pos_site_id
_symmetry_equiv_pos_as_xyz
1 x,y,z
2 -x,1/2+y,1/2-z
3 -x,-y,-z
4 x,1/2-y,1/2+z
_cell_length_a                   8.9308(9)
_cell_length_b                   13.8582(14)
_cell_length_c                   8.5692(8)
_cell_angle_alpha                90
_cell_angle_beta                 102.4270(10)
_cell_angle_gamma                90
_cell_volume                     1035.72
_exptl_crystal_colour            colorless
_exptl_crystal_description       block
_cell_formula_units_Z            4
loop_
_atom_site_label
_atom_site_type_symbol
_atom_site_fract_x
_atom_site_fract_y
_atom_site_fract_z
O1 O 0.6568(2) 0.70399(12) 0.1437(3)
O2 O 0.21582(15) 0.66963(10) 0.42215(18)
O3 O 0.16048(14) 0.48733(10) 0.42736(17)
C1 C 0.9079(2) 0.60873(18) 0.0925(3)
H1 H 0.9509 0.6544 0.1740
H2 H 0.8682 0.6422 -0.0058
H3 H 0.9859 0.5642 0.0773
C2 C 0.7796(2) 0.55404(15) 0.1427(3)
H4 H 0.7366 0.5081 0.0597
H5 H 0.8214 0.5179 0.2392
C3 C 0.6546(2) 0.61841(15) 0.1727(3)
C4 C 0.52728(19) 0.57857(13) 0.2399(2)
C5 C 0.4315(2) 0.64333(13) 0.2967(2)
H6 H 0.4492 0.7093 0.2916
C6 C 0.31209(19) 0.61142(13) 0.3597(2)
C7 C 0.28263(19) 0.51162(14) 0.3649(2)
C8 C 0.3772(2) 0.44743(13) 0.3093(2)
H7 H 0.3589 0.3815 0.3125
C9 C 0.4994(2) 0.48095(13) 0.2487(2)
H8 H 0.5636 0.4370 0.2134
C10 C 0.2320(3) 0.77064(14) 0.4052(3)
H9 H 0.2190 0.7864 0.2940
H10 H 0.3322 0.7903 0.4614
H11 H 0.1557 0.8036 0.4487
C11 C 0.1190(3) 0.38787(15) 0.4241(3)
H12 H 0.2027 0.3511 0.4847
H13 H 0.0958 0.3654 0.3155
H14 H 0.0305 0.3801 0.4697
loop_
_geom_bond_atom_site_label_1
_geom_bond_atom_site_label_2
_geom_bond_site_symmetry_1
_geom_bond_site_symmetry_2
O1 C3 1_555 1_555
O2 C6 1_555 1_555
O3 C7 1_555 1_555
C1 H1 1_555 1_555
H2 C1 1_555 1_555
H3 C1 1_555 1_555
C2 C1 1_555 1_555
H4 C2 1_555 1_555
H5 C2 1_555 1_555
C3 C2 1_555 1_555
C4 C3 1_555 1_555
C5 C4 1_555 1_555
H6 C5 1_555 1_555
C6 C5 1_555 1_555
C7 C6 1_555 1_555
C8 C7 1_555 1_555
H7 C8 1_555 1_555
C9 C4 1_555 1_555
H8 C9 1_555 1_555
C10 O2 1_555 1_555
H9 C10 1_555 1_555
H10 C10 1_555 1_555
H11 C10 1_555 1_555
C11 O3 1_555 1_555
H12 C11 1_555 1_555
H13 C11 1_555 1_555
H14 C11 1_555 1_555
C8 C9 1_555 1_555

#END
