
#######################################################################
#
#                 Cambridge Crystallographic Data Centre
#                                CCDC 
#
#######################################################################
#
# If this CIF has been generated from an entry in the Cambridge 
# Structural Database, then it will include bibliographic, chemical, 
# crystal, experimental, refinement or atomic coordinate data resulting 
# from the CCDC's data processing and validation procedures.
#
#######################################################################

data_AZOZIZ
_chemical_formula_moiety         'C23 H25 Cl1 F2 N3 O2 1+,N1 O3 1-'
_chemical_name_systematic        
'1-((1Z)-1-[6-(4-Chlorophenoxy)hexyloxy]-1-(2,4-difluorophenyl)prop-1-en-2-yl)-1H-1,2,4-triazol-4-ium nitrate'
_symmetry_cell_setting           monoclinic
_symmetry_space_group_name_H-M   'C 2/c'
_symmetry_Int_Tables_number      15
_space_group_name_Hall           '-C 2yn'
loop_
_symmetry_equiv_pos_site_id
_symmetry_equiv_pos_as_xyz
1 x,y,z
2 -x,y,1/2-z
3 1/2+x,1/2+y,z
4 1/2-x,1/2+y,1/2-z
5 -x,-y,-z
6 x,-y,1/2+z
7 1/2-x,1/2-y,-z
8 1/2+x,1/2-y,1/2+z
_cell_length_a                   35.538(7)
_cell_length_b                   8.5550(17)
_cell_length_c                   17.072(3)
_cell_angle_alpha                90
_cell_angle_beta                 105.21(3)
_cell_angle_gamma                90
_cell_volume                     5008.54
_exptl_crystal_colour            yellow
_exptl_crystal_description       block
_chemical_melting_point          '383 K'
_cell_formula_units_Z            8
_exptl_crystal_recrystallization_method ethanol
loop_
_atom_site_label
_atom_site_type_symbol
_atom_site_fract_x
_atom_site_fract_y
_atom_site_fract_z
Cl1 Cl 0.24234(4) 0.19455(19) 0.11286(9)
N1 N 0.60062(8) 0.8994(3) 0.62210(18)
O1 O 0.39276(8) 0.4929(4) 0.25522(17)
F1 F 0.73827(8) 0.7269(3) 0.34649(16)
C1 C 0.32631(12) 0.4430(5) 0.2609(2)
H1 H 0.3293 0.5017 0.3080
O2 O 0.58960(7) 0.7156(3) 0.48863(16)
F2 F 0.68002(7) 0.5624(3) 0.54599(15)
N2 N 0.61212(9) 0.9274(4) 0.70427(19)
C2 C 0.29134(12) 0.3703(6) 0.2254(3)
H2 H 0.2707 0.3798 0.2493
N3 N 0.54892(9) 0.8995(4) 0.6624(2)
H3 H 0.5249 0.8934 0.6638
C3 C 0.28647(12) 0.2854(6) 0.1564(3)
C4 C 0.31692(13) 0.2685(5) 0.1204(3)
H4 H 0.3137 0.2095 0.0734
C5 C 0.35210(11) 0.3405(5) 0.1553(2)
H5 H 0.3727 0.3306 0.1314
C6 C 0.35694(11) 0.4270(5) 0.2254(2)
C7 C 0.39858(12) 0.5892(6) 0.3251(3)
H6 H 0.3968 0.5268 0.3714
H7 H 0.3786 0.6692 0.3162
C8 C 0.43785(13) 0.6638(6) 0.3416(3)
H8 H 0.4391 0.7249 0.2945
H9 H 0.4406 0.7357 0.3867
C9 C 0.47111(12) 0.5551(6) 0.3607(3)
H10 H 0.4698 0.4879 0.3143
H11 H 0.4695 0.4895 0.4060
C10 C 0.51068(13) 0.6424(6) 0.3825(3)
H12 H 0.5125 0.7054 0.3364
H13 H 0.5114 0.7126 0.4275
C11 C 0.54449(13) 0.5380(6) 0.4046(3)
H14 H 0.5423 0.4622 0.3613
H15 H 0.5435 0.4810 0.4531
C12 C 0.58357(12) 0.6168(6) 0.4198(3)
H16 H 0.6040 0.5384 0.4288
H17 H 0.5847 0.6779 0.3726
C13 C 0.62371(10) 0.7959(5) 0.5136(2)
C14 C 0.65339(10) 0.7764(5) 0.4670(2)
C15 C 0.65451(12) 0.8748(5) 0.4041(2)
H18 H 0.6361 0.9540 0.3894
C16 C 0.68307(14) 0.8571(6) 0.3618(3)
H19 H 0.6835 0.9218 0.3182
C17 C 0.71014(12) 0.7424(6) 0.3862(3)
C18 C 0.71030(11) 0.6422(5) 0.4471(3)
H20 H 0.7289 0.5638 0.4622
C19 C 0.68107(11) 0.6632(5) 0.4859(2)
C20 C 0.62999(10) 0.8855(5) 0.5780(2)
C21 C 0.66594(11) 0.9797(6) 0.6133(3)
H21 H 0.6842 0.9647 0.5813
H22 H 0.6775 0.9464 0.6680
H23 H 0.6592 1.0883 0.6131
C22 C 0.57978(13) 0.9257(5) 0.7252(3)
H24 H 0.5781 0.9410 0.7781
C23 C 0.56259(11) 0.8848(5) 0.5979(2)
H25 H 0.5479 0.8672 0.5450
N4 N 0.45438(12) 0.1212(5) 0.0878(3)
O3 O 0.41881(10) 0.1263(5) 0.0716(2)
O4 O 0.47371(9) 0.1062(5) 0.1602(2)
O5 O 0.47201(9) 0.1337(4) 0.03508(19)
loop_
_geom_bond_atom_site_label_1
_geom_bond_atom_site_label_2
_geom_bond_site_symmetry_1
_geom_bond_site_symmetry_2
Cl1 C3 1_555 1_555
N1 N2 1_555 1_555
O1 C6 1_555 1_555
F1 C17 1_555 1_555
C1 H1 1_555 1_555
O2 C12 1_555 1_555
F2 C19 1_555 1_555
N2 C22 1_555 1_555
C2 C1 1_555 1_555
H2 C2 1_555 1_555
N3 H3 1_555 1_555
C3 C2 1_555 1_555
C4 C3 1_555 1_555
H4 C4 1_555 1_555
C5 C4 1_555 1_555
H5 C5 1_555 1_555
C6 C1 1_555 1_555
C7 O1 1_555 1_555
H6 C7 1_555 1_555
H7 C7 1_555 1_555
C8 C7 1_555 1_555
H8 C8 1_555 1_555
H9 C8 1_555 1_555
C9 C8 1_555 1_555
H10 C9 1_555 1_555
H11 C9 1_555 1_555
C10 C9 1_555 1_555
H12 C10 1_555 1_555
H13 C10 1_555 1_555
C11 C10 1_555 1_555
H14 C11 1_555 1_555
H15 C11 1_555 1_555
C12 C11 1_555 1_555
H16 C12 1_555 1_555
H17 C12 1_555 1_555
C13 O2 1_555 1_555
C14 C13 1_555 1_555
C15 C14 1_555 1_555
H18 C15 1_555 1_555
C16 C15 1_555 1_555
H19 C16 1_555 1_555
C17 C16 1_555 1_555
C18 C17 1_555 1_555
H20 C18 1_555 1_555
C19 C14 1_555 1_555
C20 N1 1_555 1_555
C21 C20 1_555 1_555
H21 C21 1_555 1_555
H22 C21 1_555 1_555
H23 C21 1_555 1_555
C22 N3 1_555 1_555
H24 C22 1_555 1_555
C23 N1 1_555 1_555
H25 C23 1_555 1_555
N4 O3 1_555 1_555
O4 N4 1_555 1_555
O5 N4 1_555 1_555
N3 C23 1_555 1_555
C5 C6 1_555 1_555
C13 C20 1_555 1_555
C18 C19 1_555 1_555

#END
