
#######################################################################
#
#                 Cambridge Crystallographic Data Centre
#                                CCDC 
#
#######################################################################
#
# If this CIF has been generated from an entry in the Cambridge 
# Structural Database, then it will include bibliographic, chemical, 
# crystal, experimental, refinement or atomic coordinate data resulting 
# from the CCDC's data processing and validation procedures.
#
#######################################################################

data_BABCAL
_chemical_formula_moiety         'C14 H10 O3'
_chemical_name_systematic        
2-Benzoyl-5-hydroxycyclohepta-2,4,6-trien-1-one
_symmetry_cell_setting           monoclinic
_symmetry_space_group_name_H-M   'P 21/n'
_symmetry_Int_Tables_number      14
_space_group_name_Hall           '-P 2yn'
loop_
_symmetry_equiv_pos_site_id
_symmetry_equiv_pos_as_xyz
1 x,y,z
2 1/2-x,1/2+y,1/2-z
3 -x,-y,-z
4 1/2+x,1/2-y,1/2+z
_cell_length_a                   10.2710(11)
_cell_length_b                   9.1771(10)
_cell_length_c                   11.2051(12)
_cell_angle_alpha                90
_cell_angle_beta                 97.686(2)
_cell_angle_gamma                90
_cell_volume                     1046.68
_exptl_crystal_colour            yellow
_exptl_crystal_description       block
_cell_formula_units_Z            4
loop_
_atom_site_label
_atom_site_type_symbol
_atom_site_fract_x
_atom_site_fract_y
_atom_site_fract_z
O1 O 0.80135(8) 0.35233(10) 0.94917(7)
O2 O 0.55592(8) 0.16333(10) 0.49051(7)
H1 H 0.4751 0.1457 0.4754
O3 O 0.50398(8) 0.19707(11) 1.05949(8)
C1 C 0.73773(10) 0.27701(12) 0.86771(10)
C2 C 0.78196(11) 0.27361(13) 0.74994(10)
H2 H 0.8693 0.3071 0.7490
C3 C 0.72004(11) 0.23092(13) 0.64127(10)
H3 H 0.7706 0.2387 0.5765
C4 C 0.58958(10) 0.17572(12) 0.60961(9)
C5 C 0.50435(10) 0.13484(12) 0.68811(10)
H4 H 0.4215 0.0986 0.6527
C6 C 0.52514(10) 0.14031(12) 0.81425(10)
H5 H 0.4560 0.0983 0.8512
C7 C 0.62604(10) 0.19459(12) 0.89490(9)
C8 C 0.61069(11) 0.17613(13) 1.02577(10)
C9 C 0.72289(10) 0.12015(12) 1.11160(9)
C10 C 0.72036(11) 0.13740(13) 1.23507(10)
H6 H 0.6505 0.1896 1.2630
C11 C 0.81955(12) 0.07858(14) 1.31712(10)
H7 H 0.8174 0.0907 1.4010
C12 C 0.92189(12) 0.00215(14) 1.27705(11)
H8 H 0.9902 -0.0372 1.3334
C13 C 0.92412(12) -0.01657(14) 1.15445(11)
H9 H 0.9937 -0.0697 1.1269
C14 C 0.82521(11) 0.04197(13) 1.07194(10)
H10 H 0.8272 0.0287 0.9881
loop_
_geom_bond_atom_site_label_1
_geom_bond_atom_site_label_2
_geom_bond_site_symmetry_1
_geom_bond_site_symmetry_2
O1 C1 1_555 1_555
O2 H1 1_555 1_555
O3 C8 1_555 1_555
C1 C2 1_555 1_555
C2 H2 1_555 1_555
C3 C2 1_555 1_555
H3 C3 1_555 1_555
C4 O2 1_555 1_555
C5 C4 1_555 1_555
H4 C5 1_555 1_555
C6 C5 1_555 1_555
H5 C6 1_555 1_555
C7 C1 1_555 1_555
C8 C7 1_555 1_555
C9 C8 1_555 1_555
C10 C9 1_555 1_555
H6 C10 1_555 1_555
C11 C10 1_555 1_555
H7 C11 1_555 1_555
C12 C11 1_555 1_555
H8 C12 1_555 1_555
C13 C12 1_555 1_555
H9 C13 1_555 1_555
C14 C9 1_555 1_555
H10 C14 1_555 1_555
C3 C4 1_555 1_555
C6 C7 1_555 1_555
C13 C14 1_555 1_555

#END
