
#######################################################################
#
#                 Cambridge Crystallographic Data Centre
#                                CCDC 
#
#######################################################################
#
# If this CIF has been generated from an entry in the Cambridge 
# Structural Database, then it will include bibliographic, chemical, 
# crystal, experimental, refinement or atomic coordinate data resulting 
# from the CCDC's data processing and validation procedures.
#
#######################################################################

data_BABDAM
_chemical_formula_moiety         'C18 H12 O3'
_chemical_name_systematic        9-Benzoyl-8-hydroxy-5H-benzo[7]annulen-5-one
_symmetry_cell_setting           triclinic
_symmetry_space_group_name_H-M   'P -1'
_symmetry_Int_Tables_number      2
_space_group_name_Hall           '-P 1'
loop_
_symmetry_equiv_pos_site_id
_symmetry_equiv_pos_as_xyz
1 x,y,z
2 -x,-y,-z
_cell_length_a                   7.4224(19)
_cell_length_b                   7.787(2)
_cell_length_c                   12.133(3)
_cell_angle_alpha                99.775(5)
_cell_angle_beta                 91.453(5)
_cell_angle_gamma                97.925(5)
_cell_volume                     683.63
_exptl_crystal_colour            yellow
_exptl_crystal_description       prismatic
_cell_formula_units_Z            2
loop_
_atom_site_label
_atom_site_type_symbol
_atom_site_fract_x
_atom_site_fract_y
_atom_site_fract_z
O1 O 0.9153(2) 0.3351(3) 0.34817(16)
O2 O 0.31079(19) 0.11172(19) 0.56065(10)
H1 H 0.2132 0.0629 0.5296
O3 O 0.09310(18) -0.02319(19) 0.39829(10)
C1 C 0.4302(2) 0.3001(2) 0.30484(13)
C2 C 0.3070(2) 0.3517(2) 0.23178(13)
H2 H 0.1842 0.3062 0.2309
C3 C 0.3620(3) 0.4672(2) 0.16162(15)
H3 H 0.2763 0.5005 0.1152
C4 C 0.5432(3) 0.5345(3) 0.15920(16)
H4 H 0.5805 0.6114 0.1106
C5 C 0.6672(3) 0.4871(3) 0.22880(17)
H5 H 0.7897 0.5320 0.2269
C6 C 0.6144(2) 0.3720(2) 0.30326(14)
C7 C 0.7618(2) 0.3435(3) 0.38029(18)
C8 C 0.7277(3) 0.3499(3) 0.49907(17)
H6 H 0.8248 0.4018 0.5491
C9 C 0.5763(3) 0.2911(2) 0.54420(15)
H7 H 0.5778 0.3154 0.6220
C10 C 0.4084(2) 0.1941(2) 0.48926(14)
C11 C 0.3532(2) 0.1782(2) 0.37808(13)
C12 C 0.2005(2) 0.0405(2) 0.33503(13)
C13 C 0.1787(2) -0.0414(2) 0.21384(14)
C14 C 0.0040(3) -0.1100(3) 0.16962(16)
H8 H -0.0953 -0.0994 0.2142
C15 C -0.0221(3) -0.1938(3) 0.05948(18)
H9 H -0.1395 -0.2369 0.0297
C16 C 0.1233(3) -0.2140(3) -0.00621(17)
H10 H 0.1045 -0.2711 -0.0802
C17 C 0.2963(3) -0.1503(3) 0.03694(16)
H11 H 0.3950 -0.1656 -0.0076
C18 C 0.3252(3) -0.0628(2) 0.14688(15)
H12 H 0.4429 -0.0185 0.1756
loop_
_geom_bond_atom_site_label_1
_geom_bond_atom_site_label_2
_geom_bond_site_symmetry_1
_geom_bond_site_symmetry_2
O1 C7 1_555 1_555
O2 H1 1_555 1_555
O3 C12 1_555 1_555
C1 C2 1_555 1_555
C2 H2 1_555 1_555
C3 C2 1_555 1_555
H3 C3 1_555 1_555
C4 C3 1_555 1_555
H4 C4 1_555 1_555
C5 C4 1_555 1_555
H5 C5 1_555 1_555
C6 C1 1_555 1_555
C7 C6 1_555 1_555
C8 C7 1_555 1_555
H6 C8 1_555 1_555
C9 C8 1_555 1_555
H7 C9 1_555 1_555
C10 O2 1_555 1_555
C11 C1 1_555 1_555
C12 C11 1_555 1_555
C13 C12 1_555 1_555
C14 C13 1_555 1_555
H8 C14 1_555 1_555
C15 C14 1_555 1_555
H9 C15 1_555 1_555
C16 C15 1_555 1_555
H10 C16 1_555 1_555
C17 C16 1_555 1_555
H11 C17 1_555 1_555
C18 C13 1_555 1_555
H12 C18 1_555 1_555
C5 C6 1_555 1_555
C9 C10 1_555 1_555
C10 C11 1_555 1_555
C17 C18 1_555 1_555

#END
