
#######################################################################
#
#                 Cambridge Crystallographic Data Centre
#                                CCDC 
#
#######################################################################
#
# If this CIF has been generated from an entry in the Cambridge 
# Structural Database, then it will include bibliographic, chemical, 
# crystal, experimental, refinement or atomic coordinate data resulting 
# from the CCDC's data processing and validation procedures.
#
#######################################################################

data_BABFES
_chemical_formula_moiety         'C18 H15 F6 N1 O4 S1,0.5(C6 H14)'
_chemical_name_systematic        
'1-Phenyl-3-(phenyl((trifluoromethyl)sulfonyl)amino)propyl trifluoroacetate n-hexane solvate'
_symmetry_cell_setting           monoclinic
_symmetry_space_group_name_H-M   'P 21/n'
_symmetry_Int_Tables_number      14
_space_group_name_Hall           '-P 2yn'
loop_
_symmetry_equiv_pos_site_id
_symmetry_equiv_pos_as_xyz
1 x,y,z
2 1/2-x,1/2+y,1/2-z
3 -x,-y,-z
4 1/2+x,1/2-y,1/2+z
_cell_length_a                   20.2964(9)
_cell_length_b                   5.6535(2)
_cell_length_c                   20.5834(9)
_cell_angle_alpha                90
_cell_angle_beta                 107.083(5)
_cell_angle_gamma                90
_cell_volume                     2257.65
_cell_formula_units_Z            4
loop_
_atom_site_label
_atom_site_type_symbol
_atom_site_fract_x
_atom_site_fract_y
_atom_site_fract_z
C1 C 0.27589(15) 0.2220(6) 0.57455(15)
H1 H 0.2727 0.3656 0.5454
C2 C 0.26486(16) 0.0007(6) 0.53064(16)
H2 H 0.2653 -0.1388 0.5599
H3 H 0.2187 0.0091 0.4969
C3 C 0.31820(16) -0.0350(6) 0.49335(15)
H4 H 0.3648 -0.0359 0.5265
H5 H 0.3107 -0.1903 0.4701
C4 C 0.22602(16) 0.2428(6) 0.61567(15)
C5 C 0.22847(18) 0.0784(7) 0.66677(17)
H6 H 0.2614 -0.0458 0.6753
C6 C 0.18286(19) 0.0961(7) 0.70502(18)
H7 H 0.1847 -0.0163 0.7398
C7 C 0.13481(18) 0.2758(7) 0.69308(18)
H8 H 0.1037 0.2873 0.7196
C8 C 0.13207(19) 0.4392(7) 0.64228(19)
H9 H 0.0987 0.5622 0.6335
C9 C 0.17806(17) 0.4235(6) 0.60410(17)
H10 H 0.1766 0.5377 0.5698
C10 C 0.25755(15) 0.1481(6) 0.37969(14)
C11 C 0.25325(16) -0.0368(6) 0.33480(15)
H11 H 0.2865 -0.1600 0.3450
C12 C 0.19960(15) -0.0402(6) 0.27459(15)
H12 H 0.1961 -0.1668 0.2434
C13 C 0.44830(17) 0.3446(7) 0.69557(16)
C14 C 0.15133(15) 0.1395(6) 0.25984(15)
H13 H 0.1153 0.1380 0.2181
C15 C 0.15542(16) 0.3218(6) 0.30573(16)
H14 H 0.1216 0.4434 0.2959
C16 C 0.20884(16) 0.3274(6) 0.36605(16)
H15 H 0.2120 0.4526 0.3976
C17 C 0.37690(15) 0.3987(6) 0.64463(16)
C18 C 0.43666(15) 0.1430(6) 0.40974(15)
F1 F 0.44082(11) 0.2443(5) 0.75113(10)
F2 F 0.48385(10) 0.5418(4) 0.71442(12)
F3 F 0.48476(10) 0.2018(5) 0.66907(11)
F4 F 0.44762(9) -0.0689(3) 0.43810(9)
F5 F 0.49640(9) 0.2510(4) 0.41928(10)
F6 F 0.40741(9) 0.1157(4) 0.34312(9)
N1 N 0.31439(13) 0.1545(5) 0.44255(12)
O1 O 0.34590(11) 0.1996(4) 0.62089(10)
O2 O 0.35512(12) 0.5964(4) 0.63581(12)
O3 O 0.41865(11) 0.3478(4) 0.51656(11)
O4 O 0.35959(11) 0.5112(4) 0.40183(11)
S1 S 0.38040(4) 0.31752(14) 0.44689(4)
C19 C 0.4791(2) 0.4082(7) 0.01219(19)
H16 H 0.5065 0.2610 0.0233
H17 H 0.4371 0.3717 -0.0254
C20 C 0.4578(2) 0.4834(8) 0.0739(2)
H18 H 0.4270 0.6228 0.0619
H19 H 0.4993 0.5313 0.1106
C21 C 0.4207(2) 0.2879(8) 0.1002(2)
H20 H 0.3788 0.2429 0.0645
H21 H 0.4084 0.3448 0.1400
H22 H 0.4511 0.1503 0.1129
C19B C 0.5209(2) 0.5918(7) -0.01219(19)
H16B H 0.4935 0.7390 -0.0233
H17B H 0.5629 0.6283 0.0254
C20B C 0.5422(2) 0.5166(8) -0.0739(2)
H18B H 0.5730 0.3772 -0.0619
H19B H 0.5007 0.4687 -0.1106
C21B C 0.5793(2) 0.7121(8) -0.1002(2)
H20B H 0.6212 0.7571 -0.0645
H21B H 0.5916 0.6552 -0.1400
H22B H 0.5489 0.8497 -0.1129
loop_
_geom_bond_atom_site_label_1
_geom_bond_atom_site_label_2
_geom_bond_site_symmetry_1
_geom_bond_site_symmetry_2
C1 H1 1_555 1_555
C2 C1 1_555 1_555
H2 C2 1_555 1_555
H3 C2 1_555 1_555
C3 C2 1_555 1_555
H4 C3 1_555 1_555
H5 C3 1_555 1_555
C4 C1 1_555 1_555
C5 C4 1_555 1_555
H6 C5 1_555 1_555
C6 C5 1_555 1_555
H7 C6 1_555 1_555
C7 C6 1_555 1_555
H8 C7 1_555 1_555
C8 C7 1_555 1_555
H9 C8 1_555 1_555
C9 C4 1_555 1_555
H10 C9 1_555 1_555
C10 C11 1_555 1_555
C11 H11 1_555 1_555
C12 C11 1_555 1_555
H12 C12 1_555 1_555
C13 C17 1_555 1_555
C14 C12 1_555 1_555
H13 C14 1_555 1_555
C15 C14 1_555 1_555
H14 C15 1_555 1_555
C16 C10 1_555 1_555
H15 C16 1_555 1_555
C17 O1 1_555 1_555
C18 F4 1_555 1_555
F1 C13 1_555 1_555
F2 C13 1_555 1_555
F3 C13 1_555 1_555
F5 C18 1_555 1_555
F6 C18 1_555 1_555
N1 C3 1_555 1_555
O1 C1 1_555 1_555
O2 C17 1_555 1_555
O3 S1 1_555 1_555
O4 S1 1_555 1_555
S1 C18 1_555 1_555
C19 H16 1_555 1_555
H17 C19 1_555 1_555
C20 C19 1_555 1_555
H18 C20 1_555 1_555
H19 C20 1_555 1_555
C21 C20 1_555 1_555
H20 C21 1_555 1_555
H21 C21 1_555 1_555
H22 C21 1_555 1_555
C19B C19 1_555 1_555
H16B C19B 1_555 1_555
H17B C19B 1_555 1_555
C20B C19B 1_555 1_555
H18B C20B 1_555 1_555
H19B C20B 1_555 1_555
C21B C20B 1_555 1_555
H20B C21B 1_555 1_555
H21B C21B 1_555 1_555
H22B C21B 1_555 1_555
C8 C9 1_555 1_555
C10 N1 1_555 1_555
C15 C16 1_555 1_555
N1 S1 1_555 1_555

#END
