
#######################################################################
#
#                 Cambridge Crystallographic Data Centre
#                                CCDC 
#
#######################################################################
#
# If this CIF has been generated from an entry in the Cambridge 
# Structural Database, then it will include bibliographic, chemical, 
# crystal, experimental, refinement or atomic coordinate data resulting 
# from the CCDC's data processing and validation procedures.
#
#######################################################################

data_BABYEK
_chemical_formula_moiety         'C42 H44 N4,1.5(C4 H10 O2)'
_chemical_name_systematic        
'N-(2,6-Dimethylphenyl)-6-((2,6-dimethylphenyl)imino)-2,4-diisopropyl-3,8-diphenyl-1,6-dihydropyrrolo[3,2-c]azepin-7-amine 1,2-dimethoxyethane solvate'
_symmetry_cell_setting           monoclinic
_symmetry_space_group_name_H-M   'P 21/c'
_symmetry_Int_Tables_number      14
_space_group_name_Hall           '-P 2ybc'
loop_
_symmetry_equiv_pos_site_id
_symmetry_equiv_pos_as_xyz
1 x,y,z
2 -x,1/2+y,1/2-z
3 -x,-y,-z
4 x,1/2-y,1/2+z
_cell_length_a                   10.2798(9)
_cell_length_b                   42.335(4)
_cell_length_c                   9.9678(8)
_cell_angle_alpha                90
_cell_angle_beta                 100.094(7)
_cell_angle_gamma                90
_cell_volume                     4270.8
_exptl_crystal_colour            yellow
_exptl_crystal_description       block
_cell_formula_units_Z            4
loop_
_atom_site_label
_atom_site_type_symbol
_atom_site_fract_x
_atom_site_fract_y
_atom_site_fract_z
N1 N 0.2522(4) 0.10058(11) 0.6618(5)
N2 N 0.0439(5) 0.16842(10) 0.3839(5)
H1 H -0.0306 0.1701 0.3255
N3 N -0.0170(5) 0.05971(11) 0.5254(5)
H2 H -0.0713 0.0548 0.4499
N4 N 0.0681(5) 0.10533(11) 0.7735(5)
C1 C 0.2979(5) 0.12424(13) 0.6027(5)
C2 C 0.2127(5) 0.14808(13) 0.5288(5)
C3 C 0.0890(5) 0.14104(12) 0.4508(6)
C4 C 0.0160(5) 0.11142(12) 0.4323(5)
C5 C 0.0348(5) 0.08978(13) 0.5365(6)
C6 C 0.1182(5) 0.09935(12) 0.6677(6)
C7 C 0.4455(6) 0.12435(14) 0.6019(6)
H3 H 0.4717 0.1459 0.5758
C8 C 0.5259(7) 0.11608(19) 0.7410(8)
H4 H 0.6202 0.1161 0.7355
H5 H 0.5004 0.0951 0.7685
H6 H 0.5089 0.1317 0.8083
C9 C 0.4731(7) 0.10087(18) 0.4940(8)
H7 H 0.4168 0.1058 0.4067
H8 H 0.4542 0.0794 0.5219
H9 H 0.5662 0.1024 0.4843
C10 C 0.2381(6) 0.18106(13) 0.5092(6)
C11 C 0.1318(6) 0.19287(13) 0.4210(6)
C12 C 0.3475(6) 0.19929(13) 0.5897(6)
C13 C 0.3798(6) 0.19421(15) 0.7297(6)
H10 H 0.3314 0.1791 0.7714
C14 C 0.4808(7) 0.21075(17) 0.8087(7)
H11 H 0.5013 0.2068 0.9039
C15 C 0.5525(7) 0.23294(17) 0.7507(7)
H12 H 0.6219 0.2444 0.8054
C16 C 0.5218(7) 0.23822(16) 0.6122(7)
H13 H 0.5706 0.2534 0.5712
C17 C 0.4206(6) 0.22166(15) 0.5319(7)
H14 H 0.4009 0.2256 0.4367
C18 C 0.1015(6) 0.22633(13) 0.3735(6)
H15 H 0.1610 0.2404 0.4375
C19 C 0.1323(8) 0.23228(16) 0.2310(7)
H16 H 0.2247 0.2268 0.2296
H17 H 0.1176 0.2546 0.2074
H18 H 0.0744 0.2192 0.1646
C20 C -0.0398(7) 0.23604(16) 0.3810(8)
H19 H -0.0575 0.2320 0.4730
H20 H -0.1015 0.2238 0.3149
H21 H -0.0514 0.2586 0.3600
C21 C -0.0739(5) 0.10432(12) 0.3017(6)
C22 C -0.0323(6) 0.10717(14) 0.1767(6)
H22 H 0.0543 0.1146 0.1735
C23 C -0.1161(7) 0.09927(16) 0.0566(6)
H23 H -0.0865 0.1013 -0.0281
C24 C -0.2425(6) 0.08840(15) 0.0593(7)
H24 H -0.2991 0.0826 -0.0228
C25 C -0.2858(6) 0.08611(14) 0.1833(7)
H25 H -0.3734 0.0793 0.1858
C26 C -0.2023(6) 0.09363(13) 0.3026(6)
H26 H -0.2325 0.0915 0.3870
C27 C 0.0116(6) 0.03602(13) 0.6283(6)
C28 C -0.0779(6) 0.03136(14) 0.7174(6)
C29 C -0.0528(8) 0.00688(17) 0.8116(7)
H27 H -0.1118 0.0033 0.8734
C30 C 0.0568(9) -0.01230(16) 0.8166(7)
H28 H 0.0716 -0.0292 0.8803
C31 C 0.1444(8) -0.00696(15) 0.7293(7)
H29 H 0.2203 -0.0200 0.7347
C32 C 0.1237(6) 0.01708(14) 0.6338(6)
C33 C -0.1973(7) 0.05218(18) 0.7094(8)
H30 H -0.2465 0.0463 0.7814
H31 H -0.2541 0.0496 0.6202
H32 H -0.1692 0.0743 0.7212
C34 C 0.2200(7) 0.02278(18) 0.5385(8)
H33 H 0.2829 0.0052 0.5454
H34 H 0.2679 0.0425 0.5635
H35 H 0.1718 0.0243 0.4448
C35 C 0.1542(6) 0.11703(14) 0.8912(6)
C36 C 0.2331(6) 0.09640(15) 0.9795(6)
C37 C 0.3094(7) 0.10889(18) 1.0964(7)
H36 H 0.3646 0.0953 1.1573
C38 C 0.3064(7) 0.1407(2) 1.1258(8)
H37 H 0.3587 0.1488 1.2066
C39 C 0.2276(8) 0.16072(18) 1.0382(7)
H38 H 0.2267 0.1826 1.0586
C40 C 0.1491(6) 0.14930(15) 0.9199(6)
C41 C 0.2343(8) 0.06171(17) 0.9500(7)
H39 H 0.1444 0.0533 0.9419
H40 H 0.2925 0.0509 1.0243
H41 H 0.2666 0.0583 0.8643
C42 C 0.0594(8) 0.17080(16) 0.8253(7)
H42 H 0.0874 0.1712 0.7363
H43 H 0.0640 0.1922 0.8635
H44 H -0.0316 0.1630 0.8146
O1 O -0.4967(5) 0.02045(13) 0.1576(6)
C43 C -0.5318(7) -0.00374(18) 0.0607(9)
H45 H -0.6291 -0.0047 0.0332
H46 H -0.5003 -0.0244 0.0999
C44 C -0.5544(9) 0.0165(2) 0.2753(10)
H47 H -0.5265 0.0338 0.3392
H48 H -0.5258 -0.0037 0.3189
H49 H -0.6509 0.0167 0.2495
O1B O -0.5033(5) -0.02045(13) -0.1576(6)
C43B C -0.4682(7) 0.00374(18) -0.0607(9)
H45B H -0.3709 0.0047 -0.0332
H46B H -0.4997 0.0244 -0.0999
C44B C -0.4456(9) -0.0165(2) -0.2753(10)
H47B H -0.4735 -0.0338 -0.3392
H48B H -0.4742 0.0037 -0.3189
H49B H -0.3491 -0.0167 -0.2495
C45 C -0.3404(8) 0.1737(3) 0.1922(15)
H50 H -0.3766 0.1542 0.1451
H51 H -0.3904 0.1920 0.1477
C46 C -0.1999(10) 0.1830(3) 0.0367(11)
H52 H -0.1086 0.1852 0.0286
H53 H -0.2381 0.1657 -0.0188
H54 H -0.2465 0.2021 0.0070
C47 C -0.3514(9) 0.1724(3) 0.3331(15)
H55 H -0.3785 0.1932 0.3641
H56 H -0.4182 0.1565 0.3478
O2 O -0.2095(8) 0.1766(3) 0.1856(8)
O3 O -0.2450(11) 0.1652(4) 0.3948(15)
C48 C -0.2397(12) 0.1734(4) 0.5511(16)
H57 H -0.1550 0.1675 0.6018
H58 H -0.2523 0.1958 0.5599
H59 H -0.3079 0.1623 0.5859
H60? H -0.1866 0.1858 0.6206
H61? H -0.3194 0.1671 0.5815
H62? H -0.1912 0.1550 0.5327
H63? H -0.1616 0.1997 -0.0088
H64? H -0.1308 0.1708 0.0903
H65? H -0.2517 0.1696 -0.0297
O4? O -0.2713(14) 0.1922(4) 0.4347(14)
O5? O -0.2755(15) 0.1952(3) 0.1164(16)
loop_
_geom_bond_atom_site_label_1
_geom_bond_atom_site_label_2
_geom_bond_site_symmetry_1
_geom_bond_site_symmetry_2
N1 C1 1_555 1_555
N2 H1 1_555 1_555
N3 H2 1_555 1_555
N4 C6 1_555 1_555
C1 C2 1_555 1_555
C2 C3 1_555 1_555
C3 N2 1_555 1_555
C4 C3 1_555 1_555
C5 N3 1_555 1_555
C6 N1 1_555 1_555
C7 C1 1_555 1_555
H3 C7 1_555 1_555
C8 C7 1_555 1_555
H4 C8 1_555 1_555
H5 C8 1_555 1_555
H6 C8 1_555 1_555
C9 C7 1_555 1_555
H7 C9 1_555 1_555
H8 C9 1_555 1_555
H9 C9 1_555 1_555
C10 C2 1_555 1_555
C11 N2 1_555 1_555
C12 C10 1_555 1_555
C13 C12 1_555 1_555
H10 C13 1_555 1_555
C14 C13 1_555 1_555
H11 C14 1_555 1_555
C15 C14 1_555 1_555
H12 C15 1_555 1_555
C16 C15 1_555 1_555
H13 C16 1_555 1_555
C17 C12 1_555 1_555
H14 C17 1_555 1_555
C18 C11 1_555 1_555
H15 C18 1_555 1_555
C19 C18 1_555 1_555
H16 C19 1_555 1_555
H17 C19 1_555 1_555
H18 C19 1_555 1_555
C20 C18 1_555 1_555
H19 C20 1_555 1_555
H20 C20 1_555 1_555
H21 C20 1_555 1_555
C21 C4 1_555 1_555
C22 C21 1_555 1_555
H22 C22 1_555 1_555
C23 C22 1_555 1_555
H23 C23 1_555 1_555
C24 C23 1_555 1_555
H24 C24 1_555 1_555
C25 C24 1_555 1_555
H25 C25 1_555 1_555
C26 C21 1_555 1_555
H26 C26 1_555 1_555
C27 N3 1_555 1_555
C28 C27 1_555 1_555
C29 C28 1_555 1_555
H27 C29 1_555 1_555
C30 C29 1_555 1_555
H28 C30 1_555 1_555
C31 C30 1_555 1_555
H29 C31 1_555 1_555
C32 C27 1_555 1_555
C33 C28 1_555 1_555
H30 C33 1_555 1_555
H31 C33 1_555 1_555
H32 C33 1_555 1_555
C34 C32 1_555 1_555
H33 C34 1_555 1_555
H34 C34 1_555 1_555
H35 C34 1_555 1_555
C35 N4 1_555 1_555
C36 C35 1_555 1_555
C37 C36 1_555 1_555
H36 C37 1_555 1_555
C38 C37 1_555 1_555
H37 C38 1_555 1_555
C39 C38 1_555 1_555
H38 C39 1_555 1_555
C40 C35 1_555 1_555
C41 C36 1_555 1_555
H39 C41 1_555 1_555
H40 C41 1_555 1_555
H41 C41 1_555 1_555
C42 C40 1_555 1_555
H42 C42 1_555 1_555
H43 C42 1_555 1_555
H44 C42 1_555 1_555
O1 C43 1_555 1_555
C43 H45 1_555 1_555
H46 C43 1_555 1_555
C44 O1 1_555 1_555
H47 C44 1_555 1_555
H48 C44 1_555 1_555
H49 C44 1_555 1_555
C45 H50 1_555 1_555
H51 C45 1_555 1_555
C46 H52 1_555 1_555
H53 C46 1_555 1_555
H54 C46 1_555 1_555
C47 C45 1_555 1_555
H55 C47 1_555 1_555
H56 C47 1_555 1_555
O2 C45 1_555 1_555
O3 C47 1_555 1_555
C48 O3 1_555 1_555
H57 C48 1_555 1_555
H58 C48 1_555 1_555
H59 C48 1_555 1_555
O1B C43B 1_555 1_555
C43B C43 1_555 1_555
H45B C43B 1_555 1_555
H46B C43B 1_555 1_555
C44B O1B 1_555 1_555
H47B C44B 1_555 1_555
H48B C44B 1_555 1_555
H49B C44B 1_555 1_555
C4 C5 1_555 1_555
C5 C6 1_555 1_555
C10 C11 1_555 1_555
C16 C17 1_555 1_555
C25 C26 1_555 1_555
C31 C32 1_555 1_555
C39 C40 1_555 1_555
C46 O2 1_555 1_555

#END
