
#######################################################################
#
#                 Cambridge Crystallographic Data Centre
#                                CCDC 
#
#######################################################################
#
# If this CIF has been generated from an entry in the Cambridge 
# Structural Database, then it will include bibliographic, chemical, 
# crystal, experimental, refinement or atomic coordinate data resulting 
# from the CCDC's data processing and validation procedures.
#
#######################################################################

data_BACDEQ
_chemical_formula_moiety         'C16 H14 I4 O5'
_chemical_name_systematic        
1,9-Diiodo-2,8-dioxo-4,6-diphenyl-4\l^3^,6\l^3^-diioda-3,5,7-trioxanonane
_symmetry_cell_setting           triclinic
_symmetry_space_group_name_H-M   'P -1'
_symmetry_Int_Tables_number      2
_space_group_name_Hall           '-P 1'
loop_
_symmetry_equiv_pos_site_id
_symmetry_equiv_pos_as_xyz
1 x,y,z
2 -x,-y,-z
_cell_length_a                   9.7924(2)
_cell_length_b                   13.6145(2)
_cell_length_c                   16.6725(2)
_cell_angle_alpha                75.280(1)
_cell_angle_beta                 82.258(1)
_cell_angle_gamma                80.573(2)
_cell_volume                     2110.65
_exptl_crystal_colour            colorless
_exptl_crystal_description       needle
_cell_formula_units_Z            4
loop_
_atom_site_label
_atom_site_type_symbol
_atom_site_fract_x
_atom_site_fract_y
_atom_site_fract_z
I1 I 0.67387(5) 0.72301(4) 0.86185(3)
I3 I 0.92126(5) 0.50509(3) 0.87267(3)
I5 I 0.78630(8) 1.10190(5) 0.85362(4)
I7 I 1.50505(5) 0.42348(4) 0.89717(4)
O1 O 0.6135(8) 0.8833(5) 0.9604(4)
O3 O 0.6236(7) 0.8948(4) 0.8244(4)
O5 O 0.7173(5) 0.5682(4) 0.8742(4)
O7 O 1.1341(6) 0.4199(4) 0.8458(3)
O9 O 1.1619(6) 0.4011(5) 0.9803(4)
C1 C 0.5862(10) 1.0501(6) 0.8672(5)
H1 H 0.5251 1.0747 0.9125
H2 H 0.5412 1.0770 0.8148
C3 C 0.6096(10) 0.9339(7) 0.8880(5)
C5 C 0.7304(9) 0.8195(6) 0.6762(5)
H5 H 0.7762 0.8648 0.6948
C7 C 0.7277(9) 0.8281(6) 0.5919(5)
H7 H 0.7705 0.8806 0.5525
C9 C 0.6630(10) 0.7606(7) 0.5641(5)
H9 H 0.6635 0.7663 0.5061
C11 C 0.5980(9) 0.6851(6) 0.6214(6)
H11 H 0.5519 0.6401 0.6026
C13 C 0.6004(9) 0.6755(7) 0.7056(5)
H13 H 0.5582 0.6227 0.7450
C15 C 0.6652(8) 0.7439(6) 0.7330(5)
C17 C 0.9252(9) 0.5593(7) 0.6846(6)
H15 H 0.9461 0.6232 0.6892
C19 C 0.9128(12) 0.5435(11) 0.6075(6)
H17 H 0.9249 0.5972 0.5591
C21 C 0.8840(12) 0.4540(15) 0.6001(7)
H19 H 0.8759 0.4447 0.5464
C23 C 0.8653(13) 0.3724(14) 0.6712(10)
H21 H 0.8456 0.3089 0.6650
C25 C 0.8762(11) 0.3858(8) 0.7517(7)
H23 H 0.8635 0.3330 0.8007
C27 C 0.9071(8) 0.4821(7) 0.7542(5)
C29 C 1.2053(8) 0.3881(6) 0.9111(5)
C31 C 1.3469(9) 0.3313(6) 0.8927(5)
H25 H 1.3543 0.3171 0.8368
H26 H 1.3604 0.2650 0.9343
I2 I 0.21395(5) -0.21692(3) 0.64452(3)
I4 I 0.36433(5) 0.00115(3) 0.63039(3)
I6 I 0.47189(9) -0.60590(6) 0.62624(8)
I8 I 0.92664(5) 0.07690(4) 0.59879(3)
O2 O 0.2448(8) -0.3769(4) 0.5468(4)
O4 O 0.2352(7) -0.3895(4) 0.6833(4)
O6 O 0.1885(5) -0.0628(4) 0.6331(3)
O8 O 0.5301(6) 0.0834(4) 0.6530(3)
O10 O 0.6093(6) 0.0924(5) 0.5188(3)
C2 C 0.2595(9) -0.5435(6) 0.6396(6)
H3 H 0.2069 -0.5657 0.6021
H4 H 0.2193 -0.5682 0.6976
C4 C 0.2485(10) -0.4282(6) 0.6179(5)
C6 C 0.2397(9) -0.3140(6) 0.8307(5)
H6 H 0.3142 -0.3584 0.8105
C8 C 0.2077(11) -0.3225(8) 0.9156(6)
H8 H 0.2613 -0.3724 0.9542
C10 C 0.0979(11) -0.2585(7) 0.9439(5)
H10 H 0.0748 -0.2655 1.0021
C12 C 0.0198(10) -0.1828(7) 0.8870(5)
H12 H -0.0542 -0.1378 0.9069
C14 C 0.0511(9) -0.1740(7) 0.8017(5)
H14 H -0.0019 -0.1242 0.7627
C16 C 0.1606(8) -0.2390(6) 0.7753(5)
C18 C 0.2902(10) -0.0278(8) 0.8167(5)
H16 H 0.3312 -0.0965 0.8182
C20 C 0.2398(14) 0.0022(12) 0.8892(6)
H18 H 0.2456 -0.0456 0.9417
C22 C 0.1790(12) 0.1053(11) 0.8847(7)
H20 H 0.1464 0.1269 0.9347
C24 C 0.1669(12) 0.1720(10) 0.8118(8)
H22 H 0.1222 0.2397 0.8105
C26 C 0.2188(10) 0.1449(7) 0.7360(6)
H24 H 0.2122 0.1932 0.6839
C28 C 0.2801(8) 0.0442(6) 0.7415(5)
C30 C 0.6161(8) 0.1101(6) 0.5873(4)
C32 C 0.7262(8) 0.1701(6) 0.6005(5)
H27 H 0.7032 0.1893 0.6547
H28 H 0.7285 0.2337 0.5559
loop_
_geom_bond_atom_site_label_1
_geom_bond_atom_site_label_2
_geom_bond_site_symmetry_1
_geom_bond_site_symmetry_2
I1 O3 1_555 1_555
I2 O4 1_555 1_555
I3 O5 1_555 1_555
I4 O6 1_555 1_555
I5 C1 1_555 1_555
I6 C2 1_555 1_555
I7 C31 1_555 1_555
I8 C32 1_555 1_555
O1 C3 1_555 1_555
O2 C4 1_555 1_555
O3 C3 1_555 1_555
O4 C4 1_555 1_555
O5 I1 1_555 1_555
O6 I2 1_555 1_555
O7 I3 1_555 1_555
O8 I4 1_555 1_555
O9 C29 1_555 1_555
O10 C30 1_555 1_555
C1 H1 1_555 1_555
H2 C1 1_555 1_555
C2 H3 1_555 1_555
H4 C2 1_555 1_555
C3 C1 1_555 1_555
C4 C2 1_555 1_555
C5 H5 1_555 1_555
C6 H6 1_555 1_555
C7 C5 1_555 1_555
H7 C7 1_555 1_555
C8 C6 1_555 1_555
H8 C8 1_555 1_555
C9 C7 1_555 1_555
H9 C9 1_555 1_555
C10 C8 1_555 1_555
H10 C10 1_555 1_555
C11 C9 1_555 1_555
H11 C11 1_555 1_555
C12 C10 1_555 1_555
H12 C12 1_555 1_555
C13 C11 1_555 1_555
H13 C13 1_555 1_555
C14 C12 1_555 1_555
H14 C14 1_555 1_555
C15 I1 1_555 1_555
C16 I2 1_555 1_555
C17 H15 1_555 1_555
C18 H16 1_555 1_555
C19 C17 1_555 1_555
H17 C19 1_555 1_555
C20 C18 1_555 1_555
H18 C20 1_555 1_555
C21 C19 1_555 1_555
H19 C21 1_555 1_555
C22 C20 1_555 1_555
H20 C22 1_555 1_555
C23 C21 1_555 1_555
H21 C23 1_555 1_555
C24 C22 1_555 1_555
H22 C24 1_555 1_555
C25 C23 1_555 1_555
H23 C25 1_555 1_555
C26 C24 1_555 1_555
H24 C26 1_555 1_555
C27 I3 1_555 1_555
C28 I4 1_555 1_555
C29 O7 1_555 1_555
C30 O8 1_555 1_555
C31 C29 1_555 1_555
H25 C31 1_555 1_555
H26 C31 1_555 1_555
C32 C30 1_555 1_555
H27 C32 1_555 1_555
H28 C32 1_555 1_555
C5 C15 1_555 1_555
C6 C16 1_555 1_555
C13 C15 1_555 1_555
C14 C16 1_555 1_555
C17 C27 1_555 1_555
C18 C28 1_555 1_555
C25 C27 1_555 1_555
C26 C28 1_555 1_555

#END
