
#######################################################################
#
#                 Cambridge Crystallographic Data Centre
#                                CCDC 
#
#######################################################################
#
# If this CIF has been generated from an entry in the Cambridge 
# Structural Database, then it will include bibliographic, chemical, 
# crystal, experimental, refinement or atomic coordinate data resulting 
# from the CCDC's data processing and validation procedures.
#
#######################################################################

data_BACJUK
_chemical_formula_moiety         'C18 H16 O4'
_chemical_name_systematic        
(+-)-8\a,9\b,10\b,11\a-Tetrahydroxy-8,9,10,11-tetrahydrobenz(a)anthracene
_symmetry_cell_setting           monoclinic
_symmetry_space_group_name_H-M   'C 2/c'
_symmetry_Int_Tables_number      15
_space_group_name_Hall           '-C 2yn'
loop_
_symmetry_equiv_pos_site_id
_symmetry_equiv_pos_as_xyz
1 x,y,z
2 1/2+x,1/2+y,z
3 -x,y,1/2-z
4 1/2-x,1/2+y,1/2-z
5 -x,-y,-z
6 1/2-x,1/2-y,-z
7 x,-y,1/2+z
8 1/2+x,1/2-y,1/2+z
_cell_length_a                   42.559(14)
_cell_length_b                   7.411(2)
_cell_length_c                   8.900(5)
_cell_angle_alpha                90
_cell_angle_beta                 90.40(3)
_cell_angle_gamma                90
_cell_volume                     2807.03
_cell_formula_units_Z            8
loop_
_atom_site_label
_atom_site_type_symbol
_atom_site_fract_x
_atom_site_fract_y
_atom_site_fract_z
C1 C 0.33500 -0.50760 -0.30840
C2 C 0.31010 -0.57760 -0.38300
C3 C 0.28280 -0.48240 -0.40210
C4 C 0.28010 -0.30890 -0.34780
C41 C 0.30520 -0.23160 -0.26990
C5 C 0.30120 -0.05330 -0.21180
C6 C 0.32490 0.02060 -0.13160
C61 C 0.35390 -0.07110 -0.09940
C7 C 0.37660 0.00020 -0.00660
C71 C 0.40460 -0.08630 0.02290
C8 C 0.42770 -0.00600 0.13150
C9 C 0.45240 -0.14030 0.18530
C10 C 0.46660 -0.23900 0.04990
C11 C 0.44260 -0.34460 -0.03540
C111 C 0.41120 -0.25260 -0.04860
C12 C 0.38760 -0.32650 -0.13670
C121 C 0.35800 -0.24580 -0.16290
C122 C 0.33290 -0.32690 -0.24890
O8 O 0.44300 0.14860 0.06440
O9 O 0.43700 -0.27030 0.28080
O10 O 0.49110 -0.35480 0.09730
O11 O 0.45550 -0.37320 -0.18520
H1 H 0.35500 -0.58200 -0.29300
H2 H 0.31100 -0.70200 -0.42100
H3 H 0.26500 -0.53800 -0.46400
H4 H 0.25900 -0.24400 -0.35700
H5 H 0.28200 0.01500 -0.22400
H6 H 0.32200 0.14300 -0.09900
H7 H 0.37400 0.12000 0.04100
H8 H 0.41400 0.02400 0.21600
H9 H 0.46900 -0.07400 0.24200
H10 H 0.47500 -0.14900 -0.01600
H11 H 0.43800 -0.45400 0.02000
H81 H 0.45300 0.22400 0.16600
H91 H 0.42400 -0.37500 0.25000
H101 H 0.49200 -0.45700 0.02700
H111 H 0.44700 -0.50000 -0.22100
H12 H 0.39100 -0.44300 -0.18400
loop_
_geom_bond_atom_site_label_1
_geom_bond_atom_site_label_2
_geom_bond_site_symmetry_1
_geom_bond_site_symmetry_2
C1 C2 1_555 1_555
C2 C3 1_555 1_555
C3 C4 1_555 1_555
C4 C41 1_555 1_555
C41 C5 1_555 1_555
C5 C6 1_555 1_555
C6 C61 1_555 1_555
C61 C7 1_555 1_555
C7 C71 1_555 1_555
C71 C8 1_555 1_555
C8 C9 1_555 1_555
C9 C10 1_555 1_555
C10 C11 1_555 1_555
C11 C111 1_555 1_555
C111 C71 1_555 1_555
C12 C111 1_555 1_555
C121 C61 1_555 1_555
C122 C1 1_555 1_555
O8 C8 1_555 1_555
O9 C9 1_555 1_555
O10 C10 1_555 1_555
O11 C11 1_555 1_555
H1 C1 1_555 1_555
H2 C2 1_555 1_555
H3 C3 1_555 1_555
H4 C4 1_555 1_555
H5 C5 1_555 1_555
H6 C6 1_555 1_555
H7 C7 1_555 1_555
H8 C8 1_555 1_555
H9 C9 1_555 1_555
H10 C10 1_555 1_555
H11 C11 1_555 1_555
H81 O8 1_555 1_555
H91 O9 1_555 1_555
H101 O10 1_555 1_555
H111 O11 1_555 1_555
H12 C12 1_555 1_555
C41 C122 1_555 1_555
C12 C121 1_555 1_555
C121 C122 1_555 1_555

#END
