
#######################################################################
#
#                 Cambridge Crystallographic Data Centre
#                                CCDC 
#
#######################################################################
#
# If this CIF has been generated from an entry in the Cambridge 
# Structural Database, then it will include bibliographic, chemical, 
# crystal, experimental, refinement or atomic coordinate data resulting 
# from the CCDC's data processing and validation procedures.
#
#######################################################################

data_BAFLEC
_chemical_formula_moiety         'C6 H8 F5 N2 P1'
_chemical_name_systematic        
Pentafluoro(1-methyl-3-vinylimidazol-2-ylidene)phosphate
_symmetry_cell_setting           orthorhombic
_symmetry_space_group_name_H-M   'P n m a'
_symmetry_Int_Tables_number      62
_space_group_name_Hall           '-P 2ac 2n'
loop_
_symmetry_equiv_pos_site_id
_symmetry_equiv_pos_as_xyz
1 x,y,z
2 1/2-x,-y,1/2+z
3 1/2+x,1/2-y,1/2-z
4 -x,1/2+y,-z
5 -x,-y,-z
6 1/2+x,y,1/2-z
7 1/2-x,1/2+y,1/2+z
8 x,1/2-y,z
_cell_length_a                   13.9414(5)
_cell_length_b                   6.9805(3)
_cell_length_c                   8.7398(3)
_cell_angle_alpha                90
_cell_angle_beta                 90
_cell_angle_gamma                90
_cell_volume                     850.539
_exptl_crystal_colour            colorless
_exptl_crystal_description       block
_cell_formula_units_Z            4
_exptl_crystal_recrystallization_method methanol
loop_
_atom_site_label
_atom_site_type_symbol
_atom_site_fract_x
_atom_site_fract_y
_atom_site_fract_z
P1 P 0.38830(4) 0.2500 0.82159(7)
F1 F 0.39026(11) 0.2500 1.00434(18)
F2 F 0.30639(8) 0.41303(15) 0.82394(11)
F3 F 0.46924(8) 0.08702(16) 0.81683(11)
N1 N 0.30205(14) 0.2500 0.5200(2)
N2 N 0.45694(14) 0.2500 0.5059(2)
C1 C 0.55745(18) 0.2500 0.5425(3)
H1 H 0.5753 0.2500 0.6474
C2 C 0.38241(16) 0.2500 0.6059(3)
C3 C 0.32645(17) 0.2500 0.3669(3)
H2 H 0.2830 0.2500 0.2832
C4 C 0.20126(17) 0.2500 0.5706(3)
C5 C 0.62434(19) 0.2500 0.4421(3)
H3 H 0.6087 0.2500 0.3363
H4 H 0.6896 0.2500 0.4734
C6 C 0.42228(18) 0.2500 0.3574(3)
H5 H 0.4594 0.2500 0.2662
F2G F 0.30639(8) 0.08697(15) 0.82394(11)
F3G F 0.46924(8) 0.41298(16) 0.81683(11)
H6? H 0.1937 0.3385 0.6568
H7? H 0.1830 0.1205 0.6027
H8? H 0.1600 0.2910 0.4859
loop_
_geom_bond_atom_site_label_1
_geom_bond_atom_site_label_2
_geom_bond_site_symmetry_1
_geom_bond_site_symmetry_2
P1 F1 1_555 1_555
F2 P1 1_555 1_555
F3 P1 1_555 1_555
N1 C2 1_555 1_555
N2 C1 1_555 1_555
C1 H1 1_555 1_555
C2 P1 1_555 1_555
C3 N1 1_555 1_555
H2 C3 1_555 1_555
C4 N1 1_555 1_555
C5 C1 1_555 1_555
H3 C5 1_555 1_555
H4 C5 1_555 1_555
C6 N2 1_555 1_555
H5 C6 1_555 1_555
F2G P1 1_555 1_555
F3G P1 1_555 1_555
N2 C2 1_555 1_555
C3 C6 1_555 1_555

#END
