
#######################################################################
#
#                 Cambridge Crystallographic Data Centre
#                                CCDC 
#
#######################################################################
#
# If this CIF has been generated from an entry in the Cambridge 
# Structural Database, then it will include bibliographic, chemical, 
# crystal, experimental, refinement or atomic coordinate data resulting 
# from the CCDC's data processing and validation procedures.
#
#######################################################################

data_BAFSIL
_chemical_formula_moiety         'C23 H30 N2 O8'
_chemical_name_systematic        
(2R,4S,5R,6S)-5-Acetoxy-4-acetoxymethyl-1,9-diaza-9-benzyl-2-(butoxycarbonyl)-8-oxo-3-oxabicyclo(4.3.0)nonane
_symmetry_cell_setting           monoclinic
_symmetry_space_group_name_H-M   'C 2'
_symmetry_Int_Tables_number      5
_space_group_name_Hall           'C 2y'
loop_
_symmetry_equiv_pos_site_id
_symmetry_equiv_pos_as_xyz
1 x,y,z
2 -x,y,-z
3 1/2+x,1/2+y,z
4 1/2-x,1/2+y,-z
_cell_length_a                   23.606(5)
_cell_length_b                   5.1040(10)
_cell_length_c                   20.531(4)
_cell_angle_alpha                90
_cell_angle_beta                 103.90(3)
_cell_angle_gamma                90
_cell_volume                     2401.24
_exptl_crystal_colour            colorless
_chemical_melting_point          134-136deg.C
_cell_formula_units_Z            4
loop_
_atom_site_label
_atom_site_type_symbol
_atom_site_fract_x
_atom_site_fract_y
_atom_site_fract_z
N1 N 0.2148(2) 0.0784(12) 0.2454(2)
N2 N 0.2569(2) 0.2839(11) 0.2416(2)
C1 C 0.1811(3) 0.1547(16) 0.2870(3)
O1 O 0.1363(2) 0.0441(12) 0.2912(2)
C2 C 0.2070(3) 0.3997(17) 0.3229(3)
H1 H 0.2093 0.3884 0.3706
H2 H 0.1845 0.5533 0.3047
C3 C 0.2674(3) 0.4064(17) 0.3091(3)
H3 H 0.2804 0.5880 0.3073
C4 C 0.3116(3) 0.2533(14) 0.3622(3)
H4 H 0.2937 0.0930 0.3742
C5 C 0.3650(3) 0.1872(16) 0.3379(3)
H5 H 0.3841 0.3490 0.3287
O2 O 0.34681(17) 0.0395(10) 0.2774(2)
C6 C 0.3093(3) 0.1839(15) 0.2255(3)
H6 H 0.2964 0.0623 0.1879
C7 C 0.1937(3) -0.0828(17) 0.1864(3)
H7 H 0.1594 -0.1774 0.1916
H8 H 0.2234 -0.2111 0.1840
C8 C 0.1781(3) 0.0678(16) 0.1208(3)
C9 C 0.2026(4) -0.0078(18) 0.0692(4)
H9 H 0.2292 -0.1453 0.0751
C10 C 0.1872(4) 0.123(3) 0.0087(4)
H10 H 0.2028 0.0692 -0.0265
C11 C 0.1500(5) 0.328(2) -0.0005(5)
H11 H 0.1411 0.4172 -0.0412
C12 C 0.1257(5) 0.401(3) 0.0508(5)
H12 H 0.0991 0.5394 0.0445
C13 C 0.1398(3) 0.275(2) 0.1106(4)
H13 H 0.1235 0.3301 0.1452
O3 O 0.3277(2) 0.4248(11) 0.4197(2)
C14 C 0.3230(4) 0.3305(19) 0.4804(4)
O4 O 0.3008(3) 0.1298(14) 0.4862(3)
C15 C 0.3479(5) 0.527(2) 0.5336(5)
H14 H 0.3632 0.6725 0.5138
H15 H 0.3786 0.4467 0.5669
H16 H 0.3178 0.5864 0.5542
C16 C 0.4085(3) 0.0188(19) 0.3864(4)
H17 H 0.4198 0.1059 0.4296
H18 H 0.3906 -0.1474 0.3927
O5 O 0.4591(2) -0.0262(16) 0.3609(3)
C17 C 0.5035(6) 0.070(5) 0.3815(6)
O6 O 0.5095(5) 0.196(7) 0.4269(10)
C18 C 0.5548(4) -0.002(3) 0.3543(6)
H19 H 0.5421 -0.1109 0.3154
H20 H 0.5828 -0.0950 0.3879
H21 H 0.5723 0.1546 0.3420
C19 C 0.3396(3) 0.4123(19) 0.1988(3)
O7 O 0.3136(2) 0.5871(13) 0.1660(2)
O8 O 0.39642(19) 0.3863(13) 0.2130(2)
C20 C 0.4290(3) 0.598(2) 0.1905(5)
H22 H 0.4265 0.7569 0.2156
H23 H 0.4132 0.6331 0.1432
C21 C 0.4918(4) 0.507(2) 0.2028(6)
H24 H 0.5153 0.6506 0.1926
H25 H 0.5060 0.4660 0.2501
C22 C 0.5005(7) 0.270(3) 0.1619(10)
H26 H 0.5404 0.2109 0.1780
H27 H 0.4753 0.1315 0.1706
C23 C 0.4896(14) 0.305(6) 0.0914(9)
H28 H 0.4964 0.1430 0.0708
H29 H 0.5152 0.4375 0.0816
H30 H 0.4498 0.3581 0.0742
loop_
_geom_bond_atom_site_label_1
_geom_bond_atom_site_label_2
_geom_bond_site_symmetry_1
_geom_bond_site_symmetry_2
N1 N2 1_555 1_555
N2 C3 1_555 1_555
C1 N1 1_555 1_555
O1 C1 1_555 1_555
C2 C1 1_555 1_555
H1 C2 1_555 1_555
H2 C2 1_555 1_555
C3 C2 1_555 1_555
H3 C3 1_555 1_555
C4 C3 1_555 1_555
H4 C4 1_555 1_555
C5 C4 1_555 1_555
H5 C5 1_555 1_555
O2 C5 1_555 1_555
C6 N2 1_555 1_555
H6 C6 1_555 1_555
C7 N1 1_555 1_555
H7 C7 1_555 1_555
H8 C7 1_555 1_555
C8 C7 1_555 1_555
C9 C8 1_555 1_555
H9 C9 1_555 1_555
C10 C9 1_555 1_555
H10 C10 1_555 1_555
C11 C10 1_555 1_555
H11 C11 1_555 1_555
C12 C11 1_555 1_555
H12 C12 1_555 1_555
C13 C8 1_555 1_555
H13 C13 1_555 1_555
O3 C4 1_555 1_555
C14 O3 1_555 1_555
O4 C14 1_555 1_555
C15 C14 1_555 1_555
H14 C15 1_555 1_555
H15 C15 1_555 1_555
H16 C15 1_555 1_555
C16 C5 1_555 1_555
H17 C16 1_555 1_555
H18 C16 1_555 1_555
O5 C16 1_555 1_555
C17 O5 1_555 1_555
O6 C17 1_555 1_555
C18 C17 1_555 1_555
H19 C18 1_555 1_555
H20 C18 1_555 1_555
H21 C18 1_555 1_555
C19 C6 1_555 1_555
O7 C19 1_555 1_555
O8 C19 1_555 1_555
C20 O8 1_555 1_555
H22 C20 1_555 1_555
H23 C20 1_555 1_555
C21 C20 1_555 1_555
H24 C21 1_555 1_555
H25 C21 1_555 1_555
C22 C21 1_555 1_555
H26 C22 1_555 1_555
H27 C22 1_555 1_555
C23 C22 1_555 1_555
H28 C23 1_555 1_555
H29 C23 1_555 1_555
H30 C23 1_555 1_555
O2 C6 1_555 1_555
C12 C13 1_555 1_555

#END
