
#######################################################################
#
#                 Cambridge Crystallographic Data Centre
#                                CCDC 
#
#######################################################################
#
# If this CIF has been generated from an entry in the Cambridge 
# Structural Database, then it will include bibliographic, chemical, 
# crystal, experimental, refinement or atomic coordinate data resulting 
# from the CCDC's data processing and validation procedures.
#
#######################################################################

data_BAFYIT
_chemical_formula_moiety         'C20 H21 N1 O2 S2'
_chemical_name_systematic        
'(3aR*,9bS*, 9cR*)-5-((4-methylphenyl)sulfonyl)-1,2,3,3a,4,5,9b,9c-octahydrobenzo[cd]thieno[2,3-f]indole'
_symmetry_cell_setting           monoclinic
_symmetry_space_group_name_H-M   'P 21/c'
_symmetry_Int_Tables_number      14
_space_group_name_Hall           '-P 2ybc'
loop_
_symmetry_equiv_pos_site_id
_symmetry_equiv_pos_as_xyz
1 x,y,z
2 -x,1/2+y,1/2-z
3 -x,-y,-z
4 x,1/2-y,1/2+z
_cell_length_a                   10.2479(6)
_cell_length_b                   9.0512(4)
_cell_length_c                   19.2696(12)
_cell_angle_alpha                90
_cell_angle_beta                 94.084(4)
_cell_angle_gamma                90
_cell_volume                     1782.83
_exptl_crystal_colour            colorless
_exptl_crystal_description       prism
_cell_formula_units_Z            4
loop_
_atom_site_label
_atom_site_type_symbol
_atom_site_fract_x
_atom_site_fract_y
_atom_site_fract_z
C1 C 0.8774(5) 0.4807(7) 0.1096(3)
C2 C 0.9328(5) 0.5421(8) 0.1710(3)
H1 H 0.9355 0.4877 0.2133
C3 C 0.9833(6) 0.6819(8) 0.1696(4)
H2 H 1.0208 0.7243 0.2115
C4 C 0.9812(6) 0.7631(8) 0.1086(4)
C5 C 1.0309(7) 0.9211(8) 0.1082(5)
H3 H 1.0216 0.9600 0.0607
H4 H 1.1232 0.9232 0.1253
H5 H 0.9798 0.9820 0.1385
C6 C 0.9281(6) 0.6995(8) 0.0475(4)
H6 H 0.9275 0.7534 0.0051
C7 C 0.8763(6) 0.5587(7) 0.0475(3)
H7 H 0.8403 0.5156 0.0055
C8 C 0.5640(6) 0.4258(7) 0.0745(3)
H8 H 0.5580 0.3737 0.0292
H9 H 0.5974 0.5271 0.0680
C9 C 0.4330(6) 0.4277(7) 0.1068(3)
H10 H 0.3794 0.5132 0.0884
C10 C 0.3576(6) 0.2843(7) 0.0941(3)
H11 H 0.3225 0.2803 0.0450
H12 H 0.4178 0.1996 0.1026
C11 C 0.2457(6) 0.2715(8) 0.1412(4)
H13 H 0.1963 0.1792 0.1307
H14 H 0.1851 0.3559 0.1331
C12 C 0.3000(6) 0.2705(8) 0.2173(3)
H15 H 0.2269 0.2593 0.2479
H16 H 0.3593 0.1849 0.2254
C13 C 0.3740(6) 0.4117(7) 0.2361(3)
H17 H 0.3094 0.4944 0.2372
C14 C 0.4756(5) 0.4520(7) 0.1839(3)
H18 H 0.4976 0.5590 0.1903
C15 C 0.6006(5) 0.3656(6) 0.1946(3)
C16 C 0.6508(6) 0.3232(7) 0.2576(3)
H19 H 0.7327 0.2741 0.2635
C17 C 0.5735(6) 0.3559(7) 0.3172(3)
C18 C 0.4470(6) 0.4010(7) 0.3073(3)
C19 C 0.5193(8) 0.3693(8) 0.4311(4)
H20 H 0.5296 0.3641 0.4804
C20 C 0.6142(7) 0.3369(7) 0.3892(3)
H21 H 0.6992 0.3049 0.4055
N1 N 0.6477(5) 0.3431(6) 0.1279(3)
O1 O 0.8565(4) 0.2223(5) 0.1679(2)
O2 O 0.7928(4) 0.2486(5) 0.0416(2)
S1 S 0.79964(14) 0.30717(18) 0.11084(8)
S2 S 0.37678(19) 0.4214(2) 0.38520(10)
loop_
_geom_bond_atom_site_label_1
_geom_bond_atom_site_label_2
_geom_bond_site_symmetry_1
_geom_bond_site_symmetry_2
C1 C2 1_555 1_555
C2 H1 1_555 1_555
C3 C2 1_555 1_555
H2 C3 1_555 1_555
C4 C3 1_555 1_555
C5 C4 1_555 1_555
H3 C5 1_555 1_555
H4 C5 1_555 1_555
H5 C5 1_555 1_555
C6 C4 1_555 1_555
H6 C6 1_555 1_555
C7 C1 1_555 1_555
H7 C7 1_555 1_555
C8 H8 1_555 1_555
H9 C8 1_555 1_555
C9 C8 1_555 1_555
H10 C9 1_555 1_555
C10 C9 1_555 1_555
H11 C10 1_555 1_555
H12 C10 1_555 1_555
C11 C10 1_555 1_555
H13 C11 1_555 1_555
H14 C11 1_555 1_555
C12 C11 1_555 1_555
H15 C12 1_555 1_555
H16 C12 1_555 1_555
C13 C12 1_555 1_555
H17 C13 1_555 1_555
C14 C9 1_555 1_555
H18 C14 1_555 1_555
C15 C14 1_555 1_555
C16 C15 1_555 1_555
H19 C16 1_555 1_555
C17 C16 1_555 1_555
C18 C13 1_555 1_555
C19 H20 1_555 1_555
C20 C17 1_555 1_555
H21 C20 1_555 1_555
N1 C8 1_555 1_555
O1 S1 1_555 1_555
O2 S1 1_555 1_555
S1 C1 1_555 1_555
S2 C18 1_555 1_555
C6 C7 1_555 1_555
C13 C14 1_555 1_555
C15 N1 1_555 1_555
C17 C18 1_555 1_555
C19 C20 1_555 1_555
C19 S2 1_555 1_555
N1 S1 1_555 1_555

#END
