
#######################################################################
#
#                 Cambridge Crystallographic Data Centre
#                                CCDC 
#
#######################################################################
#
# If this CIF has been generated from an entry in the Cambridge 
# Structural Database, then it will include bibliographic, chemical, 
# crystal, experimental, refinement or atomic coordinate data resulting 
# from the CCDC's data processing and validation procedures.
#
#######################################################################

data_BAGQUX
_chemical_formula_moiety         'C37 H38 N2 O4'
_chemical_name_systematic        
1,1'-bis(diphenylmethyl)-3,3'-diethoxy-2-methyl-2,2'-biazetidine-4,4'-dione
_symmetry_cell_setting           triclinic
_symmetry_space_group_name_H-M   'P -1'
_symmetry_Int_Tables_number      2
_space_group_name_Hall           '-P 1'
loop_
_symmetry_equiv_pos_site_id
_symmetry_equiv_pos_as_xyz
1 x,y,z
2 -x,-y,-z
_cell_length_a                   9.5060(19)
_cell_length_b                   9.942(2)
_cell_length_c                   10.015(2)
_cell_angle_alpha                81.63(3)
_cell_angle_beta                 67.67(3)
_cell_angle_gamma                61.83(3)
_cell_volume                     771.158
_exptl_crystal_colour            colorless
_exptl_crystal_description       block
_chemical_melting_point          '125-126 deg.C'
_cell_formula_units_Z            1
_exptl_crystal_recrystallization_method ethanol
loop_
_atom_site_label
_atom_site_type_symbol
_atom_site_fract_x
_atom_site_fract_y
_atom_site_fract_z
O1 O -0.22098(17) 0.89701(15) 0.37235(16)
O2 O -0.28668(15) 0.71507(15) 0.66290(14)
N1 N -0.01354(19) 0.64028(16) 0.34611(17)
C1 C 0.0800(2) 0.69425(18) 0.08904(19)
C2 C 0.1499(2) 0.7824(2) -0.0047(2)
H1 H 0.2321 0.7998 0.0117
C3 C 0.1004(3) 0.8452(2) -0.1223(2)
H2 H 0.1489 0.9054 -0.1860
C4 C -0.0181(3) 0.8206(3) -0.1467(2)
H3 H -0.0516 0.8636 -0.2274
C5 C -0.0889(3) 0.7334(3) -0.0543(2)
H4 H -0.1710 0.7163 -0.0714
C6 C -0.0405(2) 0.6711(2) 0.0629(2)
H5 H -0.0902 0.6118 0.1264
C7 C 0.1357(2) 0.61676(19) 0.2161(2)
H6 H 0.1998 0.5046 0.1916
C8 C 0.2566(2) 0.6603(2) 0.2430(2)
C9 C 0.4304(2) 0.5636(2) 0.1929(2)
H7 H 0.4727 0.4693 0.1445
C10 C 0.5435(3) 0.6028(2) 0.2126(2)
H8 H 0.6626 0.5364 0.1764
C11 C 0.4830(3) 0.7378(3) 0.2845(3)
H9 H 0.5601 0.7642 0.2990
C12 C 0.3102(3) 0.8348(3) 0.3354(3)
H10 H 0.2682 0.9279 0.3856
C13 C 0.1975(3) 0.7967(2) 0.3135(3)
H11 H 0.0788 0.8649 0.3471
C14 C -0.1661(2) 0.7640(2) 0.4029(2)
C15 C -0.2355(2) 0.6690(2) 0.5193(2)
H12 H -0.3254 0.6560 0.5020
C16 C -0.0549(2) 0.53156(19) 0.4530(2)
C17 C -0.0880(4) 0.4195(4) 0.3988(4)
H14 H -0.1679 0.4739 0.3476
H15 H 0.0198 0.3431 0.3328
H16 H -0.1373 0.3686 0.4808
C18 C -0.4589(2) 0.8375(2) 0.7117(3)
H17 H -0.4688 0.9223 0.6445
H18 H -0.5400 0.8006 0.7142
C19 C -0.4997(3) 0.8917(3) 0.8584(3)
H19 H -0.4870 0.8066 0.9236
H20 H -0.4214 0.9314 0.8543
H21 H -0.6175 0.9729 0.8940
O1A O 0.22098(17) 0.10299(15) 0.62765(16)
O2A O 0.28668(15) 0.28493(15) 0.33710(14)
N1A N 0.01354(19) 0.35972(16) 0.65389(17)
C1A C -0.0800(2) 0.30575(18) 0.91096(19)
C2A C -0.1499(2) 0.2176(2) 1.0047(2)
H1A H -0.2321 0.2002 0.9883
C3A C -0.1004(3) 0.1548(2) 1.1223(2)
H2A H -0.1489 0.0946 1.1860
C4A C 0.0181(3) 0.1794(3) 1.1467(2)
H3A H 0.0516 0.1364 1.2274
C5A C 0.0889(3) 0.2666(3) 1.0543(2)
H4A H 0.1710 0.2837 1.0714
C6A C 0.0405(2) 0.3289(2) 0.9371(2)
H5A H 0.0902 0.3882 0.8736
C7A C -0.1357(2) 0.38324(19) 0.7839(2)
H6A H -0.1998 0.4954 0.8084
C8A C -0.2566(2) 0.3397(2) 0.7570(2)
C9A C -0.4304(2) 0.4364(2) 0.8071(2)
H7A H -0.4727 0.5307 0.8555
C10A C -0.5435(3) 0.3972(2) 0.7874(2)
H8A H -0.6626 0.4636 0.8236
C11A C -0.4830(3) 0.2622(3) 0.7155(3)
H9A H -0.5601 0.2358 0.7010
C12A C -0.3102(3) 0.1652(3) 0.6646(3)
H10A H -0.2682 0.0721 0.6144
C13A C -0.1975(3) 0.2033(2) 0.6865(3)
H11A H -0.0788 0.1351 0.6529
C14A C 0.1661(2) 0.2360(2) 0.5971(2)
C15A C 0.2355(2) 0.3310(2) 0.4807(2)
H12A H 0.3254 0.3440 0.4980
C16A C 0.0549(2) 0.46844(19) 0.5470(2)
C17A C 0.0880(4) 0.5805(4) 0.6012(4)
H14A H 0.1679 0.5261 0.6524
H15A H -0.0198 0.6569 0.6672
H16A H 0.1373 0.6314 0.5192
C18A C 0.4589(2) 0.1625(2) 0.2883(3)
H17A H 0.4688 0.0777 0.3555
H18A H 0.5400 0.1994 0.2858
C19A C 0.4997(3) 0.1083(3) 0.1416(3)
H19A H 0.4870 0.1934 0.0764
H20A H 0.4214 0.0686 0.1457
H21A H 0.6175 0.0271 0.1060
H13? H -0.0575 0.4528 0.4102
loop_
_geom_bond_atom_site_label_1
_geom_bond_atom_site_label_2
_geom_bond_site_symmetry_1
_geom_bond_site_symmetry_2
O1 C14 1_555 1_555
O2 C15 1_555 1_555
N1 C7 1_555 1_555
C1 C2 1_555 1_555
C2 H1 1_555 1_555
C3 C2 1_555 1_555
H2 C3 1_555 1_555
C4 C3 1_555 1_555
H3 C4 1_555 1_555
C5 C4 1_555 1_555
H4 C5 1_555 1_555
C6 C1 1_555 1_555
H5 C6 1_555 1_555
C7 C1 1_555 1_555
H6 C7 1_555 1_555
C8 C7 1_555 1_555
C9 C8 1_555 1_555
H7 C9 1_555 1_555
C10 C9 1_555 1_555
H8 C10 1_555 1_555
C11 C10 1_555 1_555
H9 C11 1_555 1_555
C12 C11 1_555 1_555
H10 C12 1_555 1_555
C13 C8 1_555 1_555
H11 C13 1_555 1_555
C14 N1 1_555 1_555
C15 C14 1_555 1_555
H12 C15 1_555 1_555
C16 N1 1_555 1_555
C17 C16 1_555 1_555
H14 C17 1_555 1_555
H15 C17 1_555 1_555
H16 C17 1_555 1_555
C18 O2 1_555 1_555
H17 C18 1_555 1_555
H18 C18 1_555 1_555
C19 C18 1_555 1_555
H19 C19 1_555 1_555
H20 C19 1_555 1_555
H21 C19 1_555 1_555
O1A C14A 1_555 1_555
O2A C15A 1_555 1_555
N1A C7A 1_555 1_555
C1A C2A 1_555 1_555
C2A H1A 1_555 1_555
C3A C2A 1_555 1_555
H2A C3A 1_555 1_555
C4A C3A 1_555 1_555
H3A C4A 1_555 1_555
C5A C4A 1_555 1_555
H4A C5A 1_555 1_555
C6A C1A 1_555 1_555
H5A C6A 1_555 1_555
C7A C1A 1_555 1_555
H6A C7A 1_555 1_555
C8A C7A 1_555 1_555
C9A C8A 1_555 1_555
H7A C9A 1_555 1_555
C10A C9A 1_555 1_555
H8A C10A 1_555 1_555
C11A C10A 1_555 1_555
H9A C11A 1_555 1_555
C12A C11A 1_555 1_555
H10A C12A 1_555 1_555
C13A C8A 1_555 1_555
H11A C13A 1_555 1_555
C14A N1A 1_555 1_555
C15A C14A 1_555 1_555
H12A C15A 1_555 1_555
C16A C16 1_555 1_555
C17A C16A 1_555 1_555
H14A C17A 1_555 1_555
H15A C17A 1_555 1_555
H16A C17A 1_555 1_555
C18A O2A 1_555 1_555
H17A C18A 1_555 1_555
H18A C18A 1_555 1_555
C19A C18A 1_555 1_555
H19A C19A 1_555 1_555
H20A C19A 1_555 1_555
H21A C19A 1_555 1_555
C5 C6 1_555 1_555
C12 C13 1_555 1_555
C15 C16 1_555 1_555
N1A C16A 1_555 1_555
C5A C6A 1_555 1_555
C12A C13A 1_555 1_555
C15A C16A 1_555 1_555

#END
