
#######################################################################
#
#                 Cambridge Crystallographic Data Centre
#                                CCDC 
#
#######################################################################
#
# If this CIF has been generated from an entry in the Cambridge 
# Structural Database, then it will include bibliographic, chemical, 
# crystal, experimental, refinement or atomic coordinate data resulting 
# from the CCDC's data processing and validation procedures.
#
#######################################################################

data_BAGREI
_chemical_formula_moiety         'C19 H20 N2 O1'
_chemical_name_systematic        
3,4-Dimethyl-1-phenyl-4-(1-(phenylimino)ethyl)azetidin-2-one
_symmetry_cell_setting           orthorhombic
_symmetry_space_group_name_H-M   'P c a 21'
_symmetry_Int_Tables_number      29
_space_group_name_Hall           'P 2c -2ac'
loop_
_symmetry_equiv_pos_site_id
_symmetry_equiv_pos_as_xyz
1 x,y,z
2 -x,-y,1/2+z
3 1/2-x,y,1/2+z
4 1/2+x,-y,z
_cell_length_a                   13.4018(13)
_cell_length_b                   10.2655(9)
_cell_length_c                   24.657(3)
_cell_angle_alpha                90
_cell_angle_beta                 90
_cell_angle_gamma                90
_cell_volume                     3392.22
_exptl_crystal_colour            colorless
_chemical_melting_point          '115-117 deg.C'
_cell_formula_units_Z            8
loop_
_atom_site_label
_atom_site_type_symbol
_atom_site_fract_x
_atom_site_fract_y
_atom_site_fract_z
N1 N 0.3323(2) 0.2236(2) 0.23699(11)
N3 N 0.22724(19) -0.0025(3) 0.23137(13)
C2 C 0.2575(3) -0.0483(3) 0.28246(16)
C3 C 0.2825(3) 0.0427(3) 0.18311(15)
C6 C 0.3850(3) 0.3418(3) 0.24718(14)
C10 C 0.5316(4) 0.4567(6) 0.27392(19)
H2 H 0.5987 0.4558 0.2834
C14 C 0.4844(3) 0.3400(4) 0.26022(16)
H6 H 0.5199 0.2622 0.2599
C16 C 0.3346(4) 0.4581(4) 0.24822(19)
H8 H 0.2668 0.4597 0.2403
C20 C 0.3828(6) 0.5718(5) 0.2608(2)
H12 H 0.3477 0.6500 0.2605
C22 C 0.2172(7) -0.1287(5) 0.3707(3)
H14 H 0.1693 -0.1542 0.3958
C25 C 0.3386(2) 0.1680(4) 0.19164(15)
C26 C 0.3572(3) -0.0574(3) 0.2954(2)
H19 H 0.4057 -0.0340 0.2703
O1 O 0.0558(2) -0.0168(5) 0.2243(2)
C27 C 0.1869(4) -0.0843(4) 0.3209(2)
H20 H 0.1193 -0.0783 0.3128
C28 C 0.1782(3) 0.0607(4) 0.1556(2)
H21 H 0.1685 -0.0032 0.1265
C29 C 0.1374(3) 0.0103(5) 0.2084(2)
C30 C 0.3952(4) 0.2177(5) 0.14298(18)
H22 H 0.3954 0.3112 0.1433
H23 H 0.3637 0.1872 0.1104
H24 H 0.4627 0.1863 0.1443
C33 C 0.3450(4) -0.0658(5) 0.1572(2)
H31 H 0.4040 -0.0800 0.1785
H32 H 0.3636 -0.0406 0.1211
H33 H 0.3065 -0.1446 0.1559
C34 C 0.4812(7) 0.5712(6) 0.2736(2)
H34 H 0.5138 0.6485 0.2822
C35 C 0.1436(4) 0.1946(5) 0.1378(2)
H35 H 0.1550 0.2560 0.1665
H36 H 0.0737 0.1919 0.1295
H37 H 0.1802 0.2209 0.1062
C37 C 0.3137(8) -0.1365(5) 0.3840(3)
H39 H 0.3327 -0.1650 0.4183
C38 C 0.3845(5) -0.1016(4) 0.3464(3)
H40 H 0.4518 -0.1078 0.3553
C1 C 0.2157(3) 0.3136(3) 0.44014(15)
N2 N 0.3619(2) 0.4279(3) 0.48247(12)
N4 N 0.2045(2) 0.2600(2) 0.48588(12)
C4 C 0.3425(3) 0.4853(3) 0.53335(16)
C5 C 0.2999(3) 0.4095(3) 0.43347(15)
C7 C 0.4476(3) 0.3840(3) 0.45889(17)
C8 C 0.3969(4) 0.5467(5) 0.6220(2)
H1 H 0.4464 0.5489 0.6484
C9 C 0.1230(3) 0.1730(4) 0.49443(14)
C11 C 0.4170(3) 0.4892(4) 0.57188(18)
H3 H 0.4795 0.4541 0.5646
C12 C 0.1398(3) 0.0409(4) 0.49591(18)
H4 H 0.2033 0.0080 0.4892
C13 C 0.2492(3) 0.5383(4) 0.54450(18)
H5 H 0.1986 0.5355 0.5187
C15 C 0.0299(3) 0.2210(5) 0.50568(16)
H7 H 0.0182 0.3103 0.5051
C17 C -0.0329(5) 0.0052(8) 0.51831(19)
H9 H -0.0859 -0.0505 0.5258
C18 C -0.0459(4) 0.1357(7) 0.51780(19)
H10 H -0.1086 0.1692 0.5260
C19 C 0.3061(5) 0.5995(5) 0.6329(2)
H11 H 0.2941 0.6384 0.6663
C21 C 0.0611(5) -0.0433(5) 0.5075(2)
H13 H 0.0720 -0.1328 0.5079
C23 C 0.1529(3) 0.2885(5) 0.39061(19)
H15 H 0.1268 0.2014 0.3920
H16 H 0.1930 0.2985 0.3587
H17 H 0.0986 0.3495 0.3896
C24 C 0.3972(3) 0.3528(3) 0.40587(16)
H18 H 0.4210 0.4094 0.3766
C31 C 0.2657(4) 0.5373(3) 0.40788(19)
H25 H 0.2494 0.5229 0.3704
H26 H 0.3183 0.6005 0.4104
H27 H 0.2079 0.5689 0.4267
O2 O 0.5322(2) 0.3746(3) 0.47634(15)
C32 C 0.4001(3) 0.2107(3) 0.3895(2)
H28 H 0.3716 0.1585 0.4178
H29 H 0.4680 0.1847 0.3835
H30 H 0.3625 0.1989 0.3567
C36 C 0.2326(4) 0.5954(5) 0.5947(2)
H38 H 0.1705 0.6313 0.6024
loop_
_geom_bond_atom_site_label_1
_geom_bond_atom_site_label_2
_geom_bond_site_symmetry_1
_geom_bond_site_symmetry_2
N1 C6 1_555 1_555
C1 N4 1_555 1_555
N2 C4 1_555 1_555
N3 C2 1_555 1_555
N4 C9 1_555 1_555
C2 C26 1_555 1_555
C3 N3 1_555 1_555
C4 C11 1_555 1_555
C5 C1 1_555 1_555
C6 C14 1_555 1_555
C7 N2 1_555 1_555
C8 H1 1_555 1_555
C9 C12 1_555 1_555
C10 H2 1_555 1_555
C11 C8 1_555 1_555
H3 C11 1_555 1_555
C12 H4 1_555 1_555
C13 C4 1_555 1_555
H5 C13 1_555 1_555
C14 C10 1_555 1_555
H6 C14 1_555 1_555
C15 C9 1_555 1_555
H7 C15 1_555 1_555
C16 C6 1_555 1_555
H8 C16 1_555 1_555
C17 H9 1_555 1_555
C18 C15 1_555 1_555
H10 C18 1_555 1_555
C19 C8 1_555 1_555
H11 C19 1_555 1_555
C20 C16 1_555 1_555
H12 C20 1_555 1_555
C21 C12 1_555 1_555
H13 C21 1_555 1_555
C22 H14 1_555 1_555
C23 C1 1_555 1_555
H15 C23 1_555 1_555
H16 C23 1_555 1_555
H17 C23 1_555 1_555
C24 C5 1_555 1_555
H18 C24 1_555 1_555
C25 N1 1_555 1_555
C26 H19 1_555 1_555
O1 C29 1_555 1_555
C27 C2 1_555 1_555
H20 C27 1_555 1_555
C28 C3 1_555 1_555
H21 C28 1_555 1_555
C29 N3 1_555 1_555
C30 C25 1_555 1_555
H22 C30 1_555 1_555
H23 C30 1_555 1_555
H24 C30 1_555 1_555
C31 C5 1_555 1_555
H25 C31 1_555 1_555
H26 C31 1_555 1_555
H27 C31 1_555 1_555
O2 C7 1_555 1_555
C32 C24 1_555 1_555
H28 C32 1_555 1_555
H29 C32 1_555 1_555
H30 C32 1_555 1_555
C33 C3 1_555 1_555
H31 C33 1_555 1_555
H32 C33 1_555 1_555
H33 C33 1_555 1_555
C34 C10 1_555 1_555
H34 C34 1_555 1_555
C35 C28 1_555 1_555
H35 C35 1_555 1_555
H36 C35 1_555 1_555
H37 C35 1_555 1_555
C36 C13 1_555 1_555
H38 C36 1_555 1_555
C37 C22 1_555 1_555
H39 C37 1_555 1_555
C38 C26 1_555 1_555
H40 C38 1_555 1_555
N2 C5 1_555 1_555
C3 C25 1_555 1_555
C7 C24 1_555 1_555
C17 C18 1_555 1_555
C17 C21 1_555 1_555
C19 C36 1_555 1_555
C20 C34 1_555 1_555
C22 C27 1_555 1_555
C28 C29 1_555 1_555
C37 C38 1_555 1_555

#END
