
#######################################################################
#
#                 Cambridge Crystallographic Data Centre
#                                CCDC 
#
#######################################################################
#
# If this CIF has been generated from an entry in the Cambridge 
# Structural Database, then it will include bibliographic, chemical, 
# crystal, experimental, refinement or atomic coordinate data resulting 
# from the CCDC's data processing and validation procedures.
#
#######################################################################

data_BAHFOH
_chemical_formula_moiety         'C27 H27 N1 O8 S1'
_chemical_name_systematic        
'Dimethyl 5-(4-methoxyphenyl)-3-((4-methylphenyl)sulfonyl)-2-phenyl-1,3-oxazolidine-4,4-dicarboxylate'
_symmetry_cell_setting           monoclinic
_symmetry_space_group_name_H-M   'P 21/n'
_symmetry_Int_Tables_number      14
_space_group_name_Hall           '-P 2yn'
loop_
_symmetry_equiv_pos_site_id
_symmetry_equiv_pos_as_xyz
1 x,y,z
2 1/2-x,1/2+y,1/2-z
3 -x,-y,-z
4 1/2+x,1/2-y,1/2+z
_cell_length_a                   14.5200(5)
_cell_length_b                   12.0684(4)
_cell_length_c                   15.9273(7)
_cell_angle_alpha                90
_cell_angle_beta                 110.636(5)
_cell_angle_gamma                90
_cell_volume                     2611.92
_exptl_crystal_colour            colorless
_exptl_crystal_description       block
_cell_formula_units_Z            4
loop_
_atom_site_label
_atom_site_type_symbol
_atom_site_fract_x
_atom_site_fract_y
_atom_site_fract_z
S1 S 0.59562(4) 0.15121(4) 0.21356(4)
O1 O -0.06383(11) 0.21671(15) -0.05007(12)
O2 O 0.36607(10) 0.30691(11) 0.21132(10)
O3 O 0.29740(14) 0.03845(15) 0.03198(12)
O4 O 0.39500(11) 0.17760(13) 0.02616(10)
O5 O 0.3757(3) -0.0731(3) 0.1846(3)
O6 O 0.4678(9) 0.0304(16) 0.3064(14)
O7 O 0.58173(12) 0.03960(12) 0.18216(12)
O8 O 0.65730(11) 0.17573(15) 0.30341(10)
N1 N 0.48523(11) 0.19783(13) 0.19851(11)
C1 C -0.13762(19) 0.1414(2) -0.0451(2)
H1 H -0.1952 0.1483 -0.0981
H2 H -0.1542 0.1582 0.0068
H3 H -0.1130 0.0669 -0.0406
C2 C 0.05217(16) 0.1416(2) 0.08801(18)
H4 H 0.0045 0.0972 0.0977
C3 C 0.14793(17) 0.14000(19) 0.14838(17)
H5 H 0.1638 0.0945 0.1986
C4 C 0.22011(15) 0.20438(17) 0.13556(14)
C5 C 0.19380(15) 0.27272(18) 0.06100(16)
H6 H 0.2413 0.3177 0.0516
C6 C 0.09912(16) 0.27546(19) 0.00077(16)
H7 H 0.0829 0.3221 -0.0488
C7 C 0.02756(15) 0.20886(18) 0.01379(16)
C8 C 0.32407(15) 0.19935(17) 0.19995(15)
H8 H 0.3242 0.1724 0.2580
C9 C 0.46893(14) 0.29403(16) 0.24997(14)
H9 H 0.4879 0.2749 0.3136
C10 C 0.51802(14) 0.39877(16) 0.23938(15)
C11 C 0.49386(17) 0.44864(19) 0.15620(17)
H10 H 0.4469 0.4166 0.1062
C12 C 0.5393(2) 0.5458(2) 0.1474(2)
H11 H 0.5226 0.5803 0.0918
C13 C 0.6102(2) 0.5918(2) 0.2220(2)
H12 H 0.6409 0.6575 0.2162
C14 C 0.63550(18) 0.5421(2) 0.30374(19)
H13 H 0.6839 0.5731 0.3532
C15 C 0.58915(16) 0.44580(19) 0.31289(16)
H14 H 0.6058 0.4122 0.3688
C16 C 0.39853(15) 0.12613(16) 0.16969(14)
C17 C 0.35812(16) 0.10634(17) 0.06850(15)
C18 C 0.3564(2) 0.1700(3) -0.07097(16)
H15 H 0.3992 0.2088 -0.0950
H16 H 0.2920 0.2025 -0.0936
H17 H 0.3524 0.0936 -0.0886
C19 C 0.4139(2) 0.0169(2) 0.2214(2)
C20 C 0.4786(4) -0.0684(4) 0.3584(3)
H18 H 0.5202 -0.1196 0.3424
H19 H 0.4152 -0.1014 0.3469
H20 H 0.5077 -0.0505 0.4210
C21 C 0.64036(14) 0.22756(17) 0.14179(15)
C22 C 0.61799(16) 0.19345(19) 0.05394(16)
H21 H 0.5790 0.1312 0.0326
C23 C 0.65422(18) 0.2530(2) -0.00180(18)
H22 H 0.6391 0.2303 -0.0609
C24 C 0.71223(18) 0.3455(2) 0.0284(2)
C25 C 0.73534(19) 0.3765(2) 0.1168(2)
H23 H 0.7754 0.4379 0.1384
C26 C 0.70007(17) 0.3180(2) 0.17389(18)
H24 H 0.7166 0.3397 0.2334
C27 C 0.7505(3) 0.4094(3) -0.0343(3)
H25 H 0.8095 0.3750 -0.0358
H26 H 0.7646 0.4843 -0.0134
H27 H 0.7017 0.4095 -0.0936
C28? C 0.4489(11) -0.1632(11) 0.2641(9)
H28? H 0.4179 -0.1596 0.3082
H29? H 0.4289 -0.2298 0.2295
H30? H 0.5191 -0.1634 0.2936
O9? O 0.4193(10) -0.0655(13) 0.2039(11)
O10? O 0.449(3) 0.036(5) 0.307(5)
loop_
_geom_bond_atom_site_label_1
_geom_bond_atom_site_label_2
_geom_bond_site_symmetry_1
_geom_bond_site_symmetry_2
S1 O7 1_555 1_555
O1 C1 1_555 1_555
O2 C8 1_555 1_555
O3 C17 1_555 1_555
O4 C17 1_555 1_555
O5 C19 1_555 1_555
O6 C19 1_555 1_555
O8 S1 1_555 1_555
N1 S1 1_555 1_555
C1 H1 1_555 1_555
H2 C1 1_555 1_555
H3 C1 1_555 1_555
C2 H4 1_555 1_555
C3 C2 1_555 1_555
H5 C3 1_555 1_555
C4 C3 1_555 1_555
C5 C4 1_555 1_555
H6 C5 1_555 1_555
C6 C5 1_555 1_555
H7 C6 1_555 1_555
C7 O1 1_555 1_555
C8 C4 1_555 1_555
H8 C8 1_555 1_555
C9 O2 1_555 1_555
H9 C9 1_555 1_555
C10 C9 1_555 1_555
C11 C10 1_555 1_555
H10 C11 1_555 1_555
C12 C11 1_555 1_555
H11 C12 1_555 1_555
C13 C12 1_555 1_555
H12 C13 1_555 1_555
C14 C13 1_555 1_555
H13 C14 1_555 1_555
C15 C10 1_555 1_555
H14 C15 1_555 1_555
C16 N1 1_555 1_555
C17 C16 1_555 1_555
C18 O4 1_555 1_555
H15 C18 1_555 1_555
H16 C18 1_555 1_555
H17 C18 1_555 1_555
C19 C16 1_555 1_555
C20 O6 1_555 1_555
H18 C20 1_555 1_555
H19 C20 1_555 1_555
H20 C20 1_555 1_555
C21 S1 1_555 1_555
C22 C21 1_555 1_555
H21 C22 1_555 1_555
C23 C22 1_555 1_555
H22 C23 1_555 1_555
C24 C23 1_555 1_555
C25 C24 1_555 1_555
H23 C25 1_555 1_555
C26 C21 1_555 1_555
H24 C26 1_555 1_555
C27 C24 1_555 1_555
H25 C27 1_555 1_555
H26 C27 1_555 1_555
H27 C27 1_555 1_555
N1 C9 1_555 1_555
C2 C7 1_555 1_555
C6 C7 1_555 1_555
C8 C16 1_555 1_555
C14 C15 1_555 1_555
C25 C26 1_555 1_555

#END
