
#######################################################################
#
#                 Cambridge Crystallographic Data Centre
#                                CCDC 
#
#######################################################################
#
# If this CIF has been generated from an entry in the Cambridge 
# Structural Database, then it will include bibliographic, chemical, 
# crystal, experimental, refinement or atomic coordinate data resulting 
# from the CCDC's data processing and validation procedures.
#
#######################################################################

data_BAHSOV
_chemical_formula_moiety         'C82 H58 F10 N4 S4,2(C1 H2 Cl2)'
_chemical_name_systematic        
'2,9,19,26-tetramesityl-14,31-bis(pentafluorophenyl)-4,7,21,24-tetrathia-35,36,39,40-tetraazanonacyclo[30.2.1.1^3,6^.1^5,8^.1^10,13^.1^15,18^.1^20,23^.1^22,25^.1^27,30^]dotetraconta-1,3(42),5,8(41),9,11,13(40),14,16,18,20(38),22,25(37),26,28,30(36),31,33-octadecaene dichloromethane solvate'
_symmetry_cell_setting           monoclinic
_symmetry_space_group_name_H-M   'C 2/c'
_symmetry_Int_Tables_number      15
_space_group_name_Hall           '-C 2yn'
loop_
_symmetry_equiv_pos_site_id
_symmetry_equiv_pos_as_xyz
1 x,y,z
2 -x,y,1/2-z
3 1/2+x,1/2+y,z
4 1/2-x,1/2+y,1/2-z
5 -x,-y,-z
6 x,-y,1/2+z
7 1/2-x,1/2-y,-z
8 1/2+x,1/2-y,1/2+z
_cell_length_a                   33.509(4)
_cell_length_b                   13.9343(14)
_cell_length_c                   20.097(3)
_cell_angle_alpha                90
_cell_angle_beta                 126.247(6)
_cell_angle_gamma                90
_cell_volume                     7567.79
_exptl_crystal_colour            green
_exptl_crystal_description       irregular
_cell_formula_units_Z            4
loop_
_atom_site_label
_atom_site_type_symbol
_atom_site_fract_x
_atom_site_fract_y
_atom_site_fract_z
S1 S 0.08947(9) 0.51311(16) 0.35834(14)
S2 S 0.00592(9) 0.47764(17) 0.10455(14)
F1 F 0.3438(2) 0.4846(5) 0.8813(4)
F2 F 0.3224(2) 0.4785(5) 0.9917(3)
F3 F 0.1535(2) 0.4784(4) 0.7764(3)
F4 F 0.27081(19) 0.4907(4) 0.7192(3)
F5 F 0.2268(2) 0.4780(5) 0.9385(3)
N1 N 0.1370(3) 0.4233(5) 0.5172(4)
N2 N 0.0924(3) 0.5617(5) 0.5382(4)
H1 H 0.095(3) 0.527(5) 0.505(4)
C1 C 0.0045(3) 0.5999(6) 0.1218(5)
C2 C 0.0342(3) 0.6274(6) 0.2102(5)
H2 H 0.0394 0.6902 0.2324
C3 C 0.0540(3) 0.5366(6) 0.2560(5)
C4 C 0.0426(3) 0.4551(6) 0.2078(5)
C5 C 0.0625(3) 0.3654(6) 0.2519(5)
H3 H 0.0584 0.3034 0.2289
C6 C 0.0904(3) 0.3904(6) 0.3397(5)
C7 C 0.1192(3) 0.3195(6) 0.4048(5)
C8 C 0.1425(3) 0.3377(6) 0.4875(5)
C9 C 0.1765(3) 0.2759(6) 0.5560(5)
H4 H 0.1857 0.2126 0.5525
C10 C 0.1925(3) 0.3237(6) 0.6248(5)
H5 H 0.2162 0.3020 0.6797
C11 C 0.1669(3) 0.4154(6) 0.6002(5)
C12 C 0.1684(3) 0.4878(6) 0.6523(5)
C13 C 0.1329(3) 0.5599(6) 0.6193(5)
C14 C 0.1297(3) 0.6468(7) 0.6557(5)
H6 H 0.1525 0.6654 0.7117
C15 C 0.0897(3) 0.6964(7) 0.5978(5)
H7 H 0.0793 0.7559 0.6060
C16 C 0.2090(3) 0.4870(6) 0.7417(5)
C17 C 0.2581(3) 0.4873(6) 0.7718(5)
C18 C 0.2964(3) 0.4848(7) 0.8542(6)
C19 C 0.2850(4) 0.4807(7) 0.9102(6)
C20 C 0.2376(4) 0.4809(7) 0.8841(6)
C21 C 0.1999(3) 0.4818(6) 0.8004(6)
C22 C 0.1229(3) 0.2223(6) 0.3790(5)
C23 C 0.0871(4) 0.1529(6) 0.3594(5)
C24 C 0.0449(4) 0.1740(6) 0.3637(6)
H8 H 0.0555 0.1644 0.4203
H9 H 0.0172 0.1308 0.3264
H10 H 0.0342 0.2407 0.3471
C25 C 0.0926(4) 0.0622(7) 0.3355(6)
H11 H 0.0681 0.0148 0.3198
C26 C 0.1317(5) 0.0391(7) 0.3341(6)
C27 C 0.1367(5) -0.0643(8) 0.3143(7)
H12 H 0.1495 -0.0643 0.2812
H13 H 0.1043 -0.0956 0.2833
H14 H 0.1597 -0.0994 0.3659
C28 C 0.1652(4) 0.1093(8) 0.3519(6)
H15 H 0.1920 0.0938 0.3498
C29 C 0.1617(4) 0.2026(7) 0.3730(5)
C30 C 0.1978(4) 0.2770(8) 0.3900(6)
H16 H 0.1803 0.3340 0.3567
H17 H 0.2194 0.2524 0.3760
H18 H 0.2179 0.2940 0.4487
C31 C -0.0221(3) 0.6678(6) 0.0544(5)
C32 C -0.0027(3) 0.7685(6) 0.0700(5)
C33 C 0.0416(3) 0.7866(6) 0.0798(5)
C34 C 0.0705(4) 0.7092(7) 0.0753(6)
H19 H 0.0833 0.6650 0.1217
H20 H 0.0982 0.7376 0.0779
H21 H 0.0490 0.6741 0.0233
C35 C 0.0587(3) 0.8812(7) 0.0942(5)
H22 H 0.0886 0.8946 0.1004
C36 C 0.0334(4) 0.9570(6) 0.0998(5)
C37 C 0.0528(4) 1.0579(6) 0.1162(6)
H23 H 0.0282 1.0995 0.0708
H24 H 0.0835 1.0593 0.1206
H25 H 0.0594 1.0806 0.1680
C38 C -0.0090(4) 0.9353(6) 0.0916(6)
H26 H -0.0260 0.9859 0.0967
C39 C -0.0288(3) 0.8424(6) 0.0762(5)
C40 C -0.0756(4) 0.8235(7) 0.0678(7)
H27 H -0.1028 0.8136 0.0096
H28 H -0.0830 0.8786 0.0891
H29 H -0.0714 0.7660 0.0994
C41 C 0.0648(3) 0.6445(6) 0.5207(5)
S1A S -0.08947(9) 0.51311(16) 0.14166(14)
S2A S -0.00592(9) 0.47764(17) 0.39545(14)
F1A F -0.3438(2) 0.4846(5) -0.3813(4)
F2A F -0.3224(2) 0.4785(5) -0.4917(3)
F3A F -0.1535(2) 0.4784(4) -0.2764(3)
F4A F -0.27081(19) 0.4907(4) -0.2192(3)
F5A F -0.2268(2) 0.4780(5) -0.4385(3)
N1A N -0.1370(3) 0.4233(5) -0.0172(4)
N2A N -0.0924(3) 0.5617(5) -0.0382(4)
H1A H -0.095(3) 0.527(5) -0.005(4)
C1A C -0.0045(3) 0.5999(6) 0.3782(5)
C2A C -0.0342(3) 0.6274(6) 0.2898(5)
H2A H -0.0394 0.6902 0.2676
C3A C -0.0540(3) 0.5366(6) 0.2440(5)
C4A C -0.0426(3) 0.4551(6) 0.2922(5)
C5A C -0.0625(3) 0.3654(6) 0.2481(5)
H3A H -0.0584 0.3034 0.2711
C6A C -0.0904(3) 0.3904(6) 0.1603(5)
C7A C -0.1192(3) 0.3195(6) 0.0952(5)
C8A C -0.1425(3) 0.3377(6) 0.0125(5)
C9A C -0.1765(3) 0.2759(6) -0.0560(5)
H4A H -0.1857 0.2126 -0.0525
C10A C -0.1925(3) 0.3237(6) -0.1248(5)
H5A H -0.2162 0.3020 -0.1797
C11A C -0.1669(3) 0.4154(6) -0.1002(5)
C12A C -0.1684(3) 0.4878(6) -0.1523(5)
C13A C -0.1329(3) 0.5599(6) -0.1193(5)
C14A C -0.1297(3) 0.6468(7) -0.1557(5)
H6A H -0.1525 0.6654 -0.2117
C15A C -0.0897(3) 0.6964(7) -0.0978(5)
H7A H -0.0793 0.7559 -0.1060
C16A C -0.2090(3) 0.4870(6) -0.2417(5)
C17A C -0.2581(3) 0.4873(6) -0.2718(5)
C18A C -0.2964(3) 0.4848(7) -0.3542(6)
C19A C -0.2850(4) 0.4807(7) -0.4102(6)
C20A C -0.2376(4) 0.4809(7) -0.3841(6)
C21A C -0.1999(3) 0.4818(6) -0.3004(6)
C22A C -0.1229(3) 0.2223(6) 0.1210(5)
C23A C -0.0871(4) 0.1529(6) 0.1406(5)
C24A C -0.0449(4) 0.1740(6) 0.1363(6)
H8A H -0.0555 0.1644 0.0797
H9A H -0.0172 0.1308 0.1736
H10A H -0.0342 0.2407 0.1529
C25A C -0.0926(4) 0.0622(7) 0.1645(6)
H11A H -0.0681 0.0148 0.1802
C26A C -0.1317(5) 0.0391(7) 0.1659(6)
C27A C -0.1367(5) -0.0643(8) 0.1857(7)
H12A H -0.1495 -0.0643 0.2188
H13A H -0.1043 -0.0956 0.2167
H14A H -0.1597 -0.0994 0.1341
C28A C -0.1652(4) 0.1093(8) 0.1481(6)
H15A H -0.1920 0.0938 0.1502
C29A C -0.1617(4) 0.2026(7) 0.1270(5)
C30A C -0.1978(4) 0.2770(8) 0.1100(6)
H16A H -0.1803 0.3340 0.1433
H17A H -0.2194 0.2524 0.1240
H18A H -0.2179 0.2940 0.0513
C31A C 0.0221(3) 0.6678(6) 0.4456(5)
C32A C 0.0027(3) 0.7685(6) 0.4300(5)
C33A C -0.0416(3) 0.7866(6) 0.4202(5)
C34A C -0.0705(4) 0.7092(7) 0.4247(6)
H19A H -0.0833 0.6650 0.3783
H20A H -0.0982 0.7376 0.4221
H21A H -0.0490 0.6741 0.4767
C35A C -0.0587(3) 0.8812(7) 0.4058(5)
H22A H -0.0886 0.8946 0.3996
C36A C -0.0334(4) 0.9570(6) 0.4002(5)
C37A C -0.0528(4) 1.0579(6) 0.3838(6)
H23A H -0.0282 1.0995 0.4292
H24A H -0.0835 1.0593 0.3794
H25A H -0.0594 1.0806 0.3320
C38A C 0.0090(4) 0.9353(6) 0.4084(6)
H26A H 0.0260 0.9859 0.4033
C39A C 0.0288(3) 0.8424(6) 0.4238(5)
C40A C 0.0756(4) 0.8235(7) 0.4322(7)
H27A H 0.1028 0.8136 0.4904
H28A H 0.0830 0.8786 0.4109
H29A H 0.0714 0.7660 0.4006
C41A C -0.0648(3) 0.6445(6) -0.0207(5)
Cl1 Cl 0.1867(2) 0.7285(4) 0.4691(4)
Cl2 Cl 0.2364(3) 0.7207(4) 0.6446(4)
C42 C 0.2111(8) 0.6586(12) 0.5538(10)
H30 H 0.2370 0.6174 0.5596
H31 H 0.1848 0.6159 0.5451
loop_
_geom_bond_atom_site_label_1
_geom_bond_atom_site_label_2
_geom_bond_site_symmetry_1
_geom_bond_site_symmetry_2
S1 C3 1_555 1_555
S2 C1 1_555 1_555
F1 C18 1_555 1_555
F2 C19 1_555 1_555
F3 C21 1_555 1_555
F4 C17 1_555 1_555
F5 C20 1_555 1_555
N1 C8 1_555 1_555
N2 H1 1_555 1_555
C1 C2 1_555 1_555
C2 H2 1_555 1_555
C3 C2 1_555 1_555
C4 S2 1_555 1_555
C5 C4 1_555 1_555
H3 C5 1_555 1_555
C6 S1 1_555 1_555
C7 C6 1_555 1_555
C8 C7 1_555 1_555
C9 C8 1_555 1_555
H4 C9 1_555 1_555
C10 C9 1_555 1_555
H5 C10 1_555 1_555
C11 N1 1_555 1_555
C12 C11 1_555 1_555
C13 N2 1_555 1_555
C14 C13 1_555 1_555
H6 C14 1_555 1_555
C15 C14 1_555 1_555
H7 C15 1_555 1_555
C16 C12 1_555 1_555
C17 C16 1_555 1_555
C18 C17 1_555 1_555
C19 C18 1_555 1_555
C20 C19 1_555 1_555
C21 C16 1_555 1_555
C22 C7 1_555 1_555
C23 C22 1_555 1_555
C24 C23 1_555 1_555
H8 C24 1_555 1_555
H9 C24 1_555 1_555
H10 C24 1_555 1_555
C25 C23 1_555 1_555
H11 C25 1_555 1_555
C26 C25 1_555 1_555
C27 C26 1_555 1_555
H12 C27 1_555 1_555
H13 C27 1_555 1_555
H14 C27 1_555 1_555
C28 C26 1_555 1_555
H15 C28 1_555 1_555
C29 C22 1_555 1_555
C30 C29 1_555 1_555
H16 C30 1_555 1_555
H17 C30 1_555 1_555
H18 C30 1_555 1_555
C31 C1 1_555 1_555
C32 C31 1_555 1_555
C33 C32 1_555 1_555
C34 C33 1_555 1_555
H19 C34 1_555 1_555
H20 C34 1_555 1_555
H21 C34 1_555 1_555
C35 C33 1_555 1_555
H22 C35 1_555 1_555
C36 C35 1_555 1_555
C37 C36 1_555 1_555
H23 C37 1_555 1_555
H24 C37 1_555 1_555
H25 C37 1_555 1_555
C38 C36 1_555 1_555
H26 C38 1_555 1_555
C39 C32 1_555 1_555
C40 C39 1_555 1_555
H27 C40 1_555 1_555
H28 C40 1_555 1_555
H29 C40 1_555 1_555
C41 N2 1_555 1_555
Cl1 C42 1_555 1_555
Cl2 C42 1_555 1_555
C42 H30 1_555 1_555
H31 C42 1_555 1_555
S1A C3A 1_555 1_555
S2A C1A 1_555 1_555
F1A C18A 1_555 1_555
F2A C19A 1_555 1_555
F3A C21A 1_555 1_555
F4A C17A 1_555 1_555
F5A C20A 1_555 1_555
N1A C8A 1_555 1_555
N2A H1A 1_555 1_555
C1A C2A 1_555 1_555
C2A H2A 1_555 1_555
C3A C2A 1_555 1_555
C4A S2A 1_555 1_555
C5A C4A 1_555 1_555
H3A C5A 1_555 1_555
C6A S1A 1_555 1_555
C7A C6A 1_555 1_555
C8A C7A 1_555 1_555
C9A C8A 1_555 1_555
H4A C9A 1_555 1_555
C10A C9A 1_555 1_555
H5A C10A 1_555 1_555
C11A N1A 1_555 1_555
C12A C11A 1_555 1_555
C13A N2A 1_555 1_555
C14A C13A 1_555 1_555
H6A C14A 1_555 1_555
C15A C14A 1_555 1_555
H7A C15A 1_555 1_555
C16A C12A 1_555 1_555
C17A C16A 1_555 1_555
C18A C17A 1_555 1_555
C19A C18A 1_555 1_555
C20A C19A 1_555 1_555
C21A C16A 1_555 1_555
C22A C7A 1_555 1_555
C23A C22A 1_555 1_555
C24A C23A 1_555 1_555
H8A C24A 1_555 1_555
H9A C24A 1_555 1_555
H10A C24A 1_555 1_555
C25A C23A 1_555 1_555
H11A C25A 1_555 1_555
C26A C25A 1_555 1_555
C27A C26A 1_555 1_555
H12A C27A 1_555 1_555
H13A C27A 1_555 1_555
H14A C27A 1_555 1_555
C28A C26A 1_555 1_555
H15A C28A 1_555 1_555
C29A C22A 1_555 1_555
C30A C29A 1_555 1_555
H16A C30A 1_555 1_555
H17A C30A 1_555 1_555
H18A C30A 1_555 1_555
C31A C41 1_555 1_555
C32A C31A 1_555 1_555
C33A C32A 1_555 1_555
C34A C33A 1_555 1_555
H19A C34A 1_555 1_555
H20A C34A 1_555 1_555
H21A C34A 1_555 1_555
C35A C33A 1_555 1_555
H22A C35A 1_555 1_555
C36A C35A 1_555 1_555
C37A C36A 1_555 1_555
H23A C37A 1_555 1_555
H24A C37A 1_555 1_555
H25A C37A 1_555 1_555
C38A C36A 1_555 1_555
H26A C38A 1_555 1_555
C39A C32A 1_555 1_555
C40A C39A 1_555 1_555
H27A C40A 1_555 1_555
H28A C40A 1_555 1_555
H29A C40A 1_555 1_555
C41A C31 1_555 1_555
C3 C4 1_555 1_555
C5 C6 1_555 1_555
C10 C11 1_555 1_555
C12 C13 1_555 1_555
C15 C41 1_555 1_555
C20 C21 1_555 1_555
C28 C29 1_555 1_555
C38 C39 1_555 1_555
N2A C41A 1_555 1_555
C1A C31A 1_555 1_555
C3A C4A 1_555 1_555
C5A C6A 1_555 1_555
C10A C11A 1_555 1_555
C12A C13A 1_555 1_555
C15A C41A 1_555 1_555
C20A C21A 1_555 1_555
C28A C29A 1_555 1_555
C38A C39A 1_555 1_555

#END
