
#######################################################################
#
#                 Cambridge Crystallographic Data Centre
#                                CCDC 
#
#######################################################################
#
# If this CIF has been generated from an entry in the Cambridge 
# Structural Database, then it will include bibliographic, chemical, 
# crystal, experimental, refinement or atomic coordinate data resulting 
# from the CCDC's data processing and validation procedures.
#
#######################################################################

data_BAJFEX
_chemical_formula_moiety         'C16 H19 F3 N1 O5 P1,C6 H4 N2 O4'
_chemical_name_systematic        
"Diethyl 3-(trifluoromethyl)-5-(4'-nitrophenyl)-2,4-pentadien-2-ylphosphonate 1,4-dinitrobenzene"
_symmetry_cell_setting           monoclinic
_symmetry_space_group_name_H-M   'P 21/a'
_symmetry_Int_Tables_number      14
_space_group_name_Hall           '-P 2yab'
loop_
_symmetry_equiv_pos_site_id
_symmetry_equiv_pos_as_xyz
1 x,y,z
2 1/2-x,1/2+y,-z
3 -x,-y,-z
4 1/2+x,1/2-y,z
_cell_length_a                   15.340(3)
_cell_length_b                   10.658(2)
_cell_length_c                   16.801(2)
_cell_angle_alpha                90
_cell_angle_beta                 106.01(1)
_cell_angle_gamma                90
_cell_volume                     2640.32
_exptl_crystal_colour            colorless
_exptl_crystal_description       prismatic
_cell_formula_units_Z            4
_exptl_crystal_recrystallization_method n-pentane
loop_
_atom_site_label
_atom_site_type_symbol
_atom_site_fract_x
_atom_site_fract_y
_atom_site_fract_z
P1 P 0.2240(2) 0.1652(3) 0.6699(2)
F1 F 0.1506(7) -0.234(1) 0.5410(7)
F2 F 0.0214(6) -0.2017(8) 0.5462(4)
F3 F 0.0662(7) -0.1009(7) 0.4677(4)
O1 O 0.0355(5) -0.1726(7) 1.0781(4)
O2 O 0.0461(5) -0.3685(7) 1.0639(4)
O3 O 0.2182(5) 0.1479(6) 0.7532(3)
O4 O 0.1695(7) 0.2781(8) 0.6245(5)
O5 O 0.3192(6) 0.1871(9) 0.6629(4)
N1 N 0.0454(5) -0.2633(10) 1.0386(5)
C1 C 0.1805(6) 0.0440(10) 0.5940(5)
C2 C 0.1342(7) -0.0504(9) 0.6099(5)
C3 C 0.1140(6) -0.0764(9) 0.6877(5)
C4 C 0.0888(6) -0.1803(9) 0.7170(5)
C5 C 0.0759(5) -0.2003(8) 0.7998(5)
C6 C 0.0704(6) -0.1005(8) 0.8514(5)
C7 C 0.0590(6) -0.1215(9) 0.9280(6)
C8 C 0.0573(5) -0.2411(8) 0.9556(5)
C9 C 0.0613(6) -0.3438(8) 0.9067(6)
C10 C 0.0728(6) -0.3203(8) 0.8289(5)
C11 C 0.098(1) -0.153(2) 0.5433(7)
C12 C 0.2068(8) 0.070(1) 0.5155(6)
C13 C 0.168(1) 0.397(2) 0.659(1)
C14 C 0.106(2) 0.457(3) 0.608(2)
C15 C 0.402(2) 0.180(2) 0.724(1)
C16 C 0.461(1) 0.269(2) 0.725(1)
H1 H 0.1184 -0.0058 0.7239
H2 H 0.0812 -0.2512 0.6823
H3 H 0.0771 -0.0174 0.8345
H4 H 0.0677 -0.0566 0.9650
H5 H 0.0685 -0.4109 0.9259
H6 H 0.0725 -0.4009 0.7929
H7 H 0.2381 -0.0030 0.5014
H8 H 0.1573 0.0892 0.4722
H9 H 0.2506 0.1379 0.5252
H10 H 0.1793 0.4018 0.7115
H11 H 0.2352 0.4328 0.6498
H12 H 0.0449 0.4294 0.6061
H13 H 0.1006 0.4599 0.5442
H14 H 0.1013 0.5521 0.6158
H15 H 0.4280 0.0956 0.7221
H16 H 0.3888 0.1809 0.7787
H17 H 0.4805 0.2692 0.6697
H18 H 0.4413 0.3543 0.7264
H19 H 0.5212 0.2642 0.7651
O6 O 0.1983(6) 0.3740(6) 0.9038(4)
O7 O 0.2139(5) 0.1659(6) 0.9063(4)
O8 O 0.1483(5) 0.3377(9) 1.2996(4)
O9 O 0.1664(7) 0.139(1) 1.2986(5)
N2 N 0.2021(6) 0.273(1) 0.9396(5)
N3 N 0.1609(6) 0.241(1) 1.2661(5)
C17 C 0.1921(5) 0.2645(9) 1.0255(5)
C18 C 0.1820(6) 0.3736(8) 1.0682(6)
C19 C 0.1738(6) 0.3668(9) 1.1479(6)
C20 C 0.1740(6) 0.2508(10) 1.1827(5)
C21 C 0.1840(6) 0.1396(9) 1.1425(6)
C22 C 0.1954(6) 0.1493(9) 1.0635(5)
H20 H 0.1873 0.4559 1.0402
H21 H 0.1626 0.4238 1.1851
H22 H 0.1889 0.0860 1.1707
H23 H 0.2078 0.0798 1.0408
loop_
_geom_bond_atom_site_label_1
_geom_bond_atom_site_label_2
_geom_bond_site_symmetry_1
_geom_bond_site_symmetry_2
P1 O3 1_555 1_555
F1 C11 1_555 1_555
F2 C11 1_555 1_555
F3 C11 1_555 1_555
O1 N1 1_555 1_555
O2 N1 1_555 1_555
O4 P1 1_555 1_555
O5 P1 1_555 1_555
O6 N2 1_555 1_555
O7 N2 1_555 1_555
O8 N3 1_555 1_555
O9 N3 1_555 1_555
N1 C8 1_555 1_555
N2 C17 1_555 1_555
N3 C20 1_555 1_555
C1 P1 1_555 1_555
C2 C1 1_555 1_555
C3 C2 1_555 1_555
C4 C3 1_555 1_555
C5 C4 1_555 1_555
C6 C5 1_555 1_555
C7 C6 1_555 1_555
C8 C7 1_555 1_555
C9 C8 1_555 1_555
C10 C5 1_555 1_555
C11 C2 1_555 1_555
C12 C1 1_555 1_555
C13 O4 1_555 1_555
C14 C13 1_555 1_555
C15 O5 1_555 1_555
C16 C15 1_555 1_555
C17 C18 1_555 1_555
C18 C19 1_555 1_555
C19 C20 1_555 1_555
C20 C21 1_555 1_555
C21 C22 1_555 1_555
C22 C17 1_555 1_555
H1 C3 1_555 1_555
H2 C4 1_555 1_555
H3 C6 1_555 1_555
H4 C7 1_555 1_555
H5 C9 1_555 1_555
H6 C10 1_555 1_555
H7 C12 1_555 1_555
H8 C12 1_555 1_555
H9 C12 1_555 1_555
H10 C13 1_555 1_555
H11 C13 1_555 1_555
H12 C14 1_555 1_555
H13 C14 1_555 1_555
H14 C14 1_555 1_555
H15 C15 1_555 1_555
H16 C15 1_555 1_555
H17 C16 1_555 1_555
H18 C16 1_555 1_555
H19 C16 1_555 1_555
H20 C18 1_555 1_555
H21 C19 1_555 1_555
H22 C21 1_555 1_555
H23 C22 1_555 1_555
C9 C10 1_555 1_555

#END
