
#######################################################################
#
#                 Cambridge Crystallographic Data Centre
#                                CCDC 
#
#######################################################################
#
# If this CIF has been generated from an entry in the Cambridge 
# Structural Database, then it will include bibliographic, chemical, 
# crystal, experimental, refinement or atomic coordinate data resulting 
# from the CCDC's data processing and validation procedures.
#
#######################################################################

data_BAJTOX
_chemical_formula_moiety         'C6 H16 B1 N1 O2'
_chemical_name_systematic        (4-aminobutan-2-yl)-dimethoxy-boron
_symmetry_cell_setting           monoclinic
_symmetry_space_group_name_H-M   'P 21/c'
_symmetry_Int_Tables_number      14
_space_group_name_Hall           '-P 2ybc'
loop_
_symmetry_equiv_pos_site_id
_symmetry_equiv_pos_as_xyz
1 x,y,z
2 -x,1/2+y,1/2-z
3 -x,-y,-z
4 x,1/2-y,1/2+z
_cell_length_a                   7.8247(14)
_cell_length_b                   15.827(3)
_cell_length_c                   13.759(2)
_cell_angle_alpha                90
_cell_angle_beta                 91.391(3)
_cell_angle_gamma                90
_cell_volume                     1703.43
_exptl_crystal_colour            colorless
_exptl_crystal_description       plate
_cell_formula_units_Z            8
loop_
_atom_site_label
_atom_site_type_symbol
_atom_site_fract_x
_atom_site_fract_y
_atom_site_fract_z
O1 O 0.5161(2) 0.67728(13) 0.55464(14)
O2 O 0.5050(2) 0.68584(12) 0.73201(14)
N1 N 0.7773(3) 0.64572(17) 0.6484(2)
B1 B 0.5677(4) 0.6396(2) 0.6481(2)
C1 C 0.8424(5) 0.5572(2) 0.6468(3)
C2 C 0.7107(5) 0.5062(2) 0.6986(3)
C3 C 0.5381(4) 0.5390(2) 0.6613(2)
C4 C 0.3904(5) 0.5116(3) 0.7231(3)
C5 C 0.3435(5) 0.6634(3) 0.5255(3)
C6 C 0.4998(5) 0.7749(2) 0.7273(3)
H1 H 0.951(5) 0.552(2) 0.674(3)
H2 H 0.854(5) 0.538(2) 0.577(3)
H3 H 0.810(4) 0.671(2) 0.705(3)
H4 H 0.724(4) 0.521(2) 0.768(3)
H5 H 0.728(4) 0.444(2) 0.689(2)
H6 H 0.820(4) 0.6768(19) 0.601(2)
H7 H 0.521(4) 0.513(2) 0.597(2)
H8 H 0.385(5) 0.445(3) 0.734(3)
H9 H 0.281(6) 0.530(3) 0.694(3)
H10 H 0.402(5) 0.542(2) 0.790(3)
H11 H 0.327(5) 0.602(3) 0.509(3)
H12 H 0.267(5) 0.679(2) 0.576(3)
H13 H 0.320(5) 0.696(3) 0.468(3)
H14 H 0.433(6) 0.796(3) 0.673(3)
H15 H 0.612(5) 0.801(2) 0.719(3)
H16 H 0.450(4) 0.794(2) 0.789(2)
O3 O 0.9218(3) 0.81261(14) 0.33186(15)
O4 O 0.9195(3) 0.71872(13) 0.47134(14)
N2 N 0.6653(3) 0.81304(19) 0.4312(2)
B2 B 0.8762(4) 0.8022(2) 0.4332(3)
C7 C 0.6274(4) 0.8936(2) 0.4819(2)
H17 H 0.5194 0.8890 0.5175
H18 H 0.6168 0.9407 0.4347
C8 C 0.7751(5) 0.9082(3) 0.5510(3)
H19 H 0.7569 0.8772 0.6124
H20 H 0.7850 0.9692 0.5663
C9 C 0.9346(4) 0.8780(2) 0.5053(3)
H21 H 0.9694 0.9250 0.4614
C10 C 1.0842(6) 0.8650(3) 0.5734(4)
H22 H 1.1036 0.9164 0.6119
H23 H 1.1861 0.8525 0.5360
H24 H 1.0608 0.8176 0.6170
C11 C 1.1002(5) 0.8115(4) 0.3148(3)
C12 C 0.8834(6) 0.6485(3) 0.4104(3)
H25 H 0.623(4) 0.772(2) 0.465(2)
H26 H 0.627(5) 0.812(2) 0.368(3)
H27 H 1.158(5) 0.864(3) 0.346(3)
H28 H 1.143(5) 0.758(3) 0.331(3)
H29 H 1.118(5) 0.812(2) 0.242(3)
H30 H 0.764(5) 0.631(2) 0.413(3)
H31 H 0.914(6) 0.660(3) 0.347(3)
H32 H 0.955(5) 0.602(2) 0.434(3)
loop_
_geom_bond_atom_site_label_1
_geom_bond_atom_site_label_2
_geom_bond_site_symmetry_1
_geom_bond_site_symmetry_2
O1 B1 1_555 1_555
O2 B1 1_555 1_555
N1 B1 1_555 1_555
B1 C3 1_555 1_555
C1 N1 1_555 1_555
C2 C1 1_555 1_555
C3 C2 1_555 1_555
C4 C3 1_555 1_555
C5 O1 1_555 1_555
C6 O2 1_555 1_555
H1 C1 1_555 1_555
H2 C1 1_555 1_555
H3 N1 1_555 1_555
H4 C2 1_555 1_555
H5 C2 1_555 1_555
H6 N1 1_555 1_555
H7 C3 1_555 1_555
H8 C4 1_555 1_555
H9 C4 1_555 1_555
H10 C4 1_555 1_555
H11 C5 1_555 1_555
H12 C5 1_555 1_555
H13 C5 1_555 1_555
H14 C6 1_555 1_555
H15 C6 1_555 1_555
H16 C6 1_555 1_555
O3 B2 1_555 1_555
O4 B2 1_555 1_555
N2 B2 1_555 1_555
B2 C9 1_555 1_555
C7 N2 1_555 1_555
H17 C7 1_555 1_555
H18 C7 1_555 1_555
C8 C7 1_555 1_555
H19 C8 1_555 1_555
H20 C8 1_555 1_555
C9 C8 1_555 1_555
H21 C9 1_555 1_555
C10 C9 1_555 1_555
H22 C10 1_555 1_555
H23 C10 1_555 1_555
H24 C10 1_555 1_555
C11 O3 1_555 1_555
C12 O4 1_555 1_555
H25 N2 1_555 1_555
H26 N2 1_555 1_555
H27 C11 1_555 1_555
H28 C11 1_555 1_555
H29 C11 1_555 1_555
H30 C12 1_555 1_555
H31 C12 1_555 1_555
H32 C12 1_555 1_555

#END
