
#######################################################################
#
#                 Cambridge Crystallographic Data Centre
#                                CCDC 
#
#######################################################################
#
# If this CIF has been generated from an entry in the Cambridge 
# Structural Database, then it will include bibliographic, chemical, 
# crystal, experimental, refinement or atomic coordinate data resulting 
# from the CCDC's data processing and validation procedures.
#
#######################################################################

data_BAKMEI
_chemical_formula_moiety         'C24 H18 O2'
_chemical_name_systematic        1,12-dimethoxypicene
_symmetry_cell_setting           orthorhombic
_symmetry_space_group_name_H-M   'P n a 21'
_symmetry_Int_Tables_number      33
_space_group_name_Hall           'P 2c -2n'
loop_
_symmetry_equiv_pos_site_id
_symmetry_equiv_pos_as_xyz
1 x,y,z
2 1/2-x,1/2+y,1/2+z
3 1/2+x,1/2-y,z
4 -x,-y,1/2+z
_cell_length_a                   17.528(2)
_cell_length_b                   13.8570(16)
_cell_length_c                   6.9178(8)
_cell_angle_alpha                90
_cell_angle_beta                 90
_cell_angle_gamma                90
_cell_volume                     1680.23
_exptl_crystal_colour            colorless
_exptl_crystal_description       Prism
_cell_formula_units_Z            4
loop_
_atom_site_label
_atom_site_type_symbol
_atom_site_fract_x
_atom_site_fract_y
_atom_site_fract_z
O1 O 0.22554(12) 0.53004(17) 0.0839(3)
O2 O 0.46048(14) 0.18406(16) 0.1492(4)
C1 C 0.23601(18) 0.6026(3) 0.2151(5)
C2 C 0.1984(2) 0.6897(3) 0.2037(6)
C3 C 0.2051(2) 0.7591(3) 0.3456(7)
C4 C 0.2480(2) 0.7412(3) 0.5040(6)
C5 C 0.28868(18) 0.6540(2) 0.5207(5)
C6 C 0.33319(19) 0.6374(3) 0.6885(5)
C7 C 0.3760(2) 0.5572(3) 0.7086(5)
C8 C 0.38148(16) 0.4876(2) 0.5596(4)
C9 C 0.43412(16) 0.4075(2) 0.5743(4)
C10 C 0.4792(2) 0.3950(2) 0.7446(5)
C11 C 0.53281(19) 0.3271(3) 0.7551(5)
C12 C 0.54644(18) 0.2605(2) 0.6017(5)
C13 C 0.6073(2) 0.1943(3) 0.6174(6)
C14 C 0.6202(2) 0.1306(3) 0.4715(7)
C15 C 0.5720(2) 0.1269(3) 0.3143(7)
C16 C 0.51128(19) 0.1905(2) 0.2971(5)
C17 C 0.49882(17) 0.2643(2) 0.4370(5)
C18 C 0.44362(17) 0.3417(2) 0.4213(4)
C19 C 0.40015(19) 0.3604(2) 0.2508(5)
C20 C 0.3500(2) 0.4350(2) 0.2372(6)
C21 C 0.33713(17) 0.5003(2) 0.3903(4)
C22 C 0.28643(17) 0.5837(2) 0.3732(5)
C23 C 0.1727(3) 0.5444(4) -0.0677(8)
C24 C 0.4660(3) 0.1051(4) 0.0168(8)
H1 H 0.1676(18) 0.702(2) 0.103(5)
H2 H 0.1821(18) 0.817(2) 0.344(5)
H3 H 0.2501(17) 0.784(2) 0.603(5)
H4 H 0.3379(16) 0.684(2) 0.797(5)
H5 H 0.4041(17) 0.549(2) 0.827(5)
H6 H 0.4673(16) 0.436(2) 0.849(4)
H7 H 0.5594(17) 0.320(2) 0.875(5)
H8 H 0.643(2) 0.199(3) 0.733(5)
H9 H 0.6616(19) 0.087(2) 0.494(5)
H10 H 0.5819(18) 0.079(2) 0.222(5)
H11 H 0.4118(16) 0.320(2) 0.131(5)
H12 H 0.3247(18) 0.444(2) 0.115(5)
H13 H 0.122(3) 0.557(3) -0.027(6)
H14 H 0.168(2) 0.478(3) -0.138(6)
H15 H 0.191(2) 0.601(3) -0.151(6)
H16 H 0.467(2) 0.044(3) 0.071(5)
H17 H 0.520(2) 0.119(3) -0.065(6)
H18 H 0.417(3) 0.111(3) -0.054(7)
loop_
_geom_bond_atom_site_label_1
_geom_bond_atom_site_label_2
_geom_bond_site_symmetry_1
_geom_bond_site_symmetry_2
O1 C1 1_555 1_555
O2 C16 1_555 1_555
C1 C2 1_555 1_555
C2 C3 1_555 1_555
C3 C4 1_555 1_555
C4 C5 1_555 1_555
C5 C6 1_555 1_555
C6 C7 1_555 1_555
C7 C8 1_555 1_555
C8 C9 1_555 1_555
C9 C10 1_555 1_555
C10 C11 1_555 1_555
C11 C12 1_555 1_555
C12 C13 1_555 1_555
C13 C14 1_555 1_555
C14 C15 1_555 1_555
C15 C16 1_555 1_555
C16 C17 1_555 1_555
C17 C12 1_555 1_555
C18 C9 1_555 1_555
C19 C18 1_555 1_555
C20 C19 1_555 1_555
C21 C8 1_555 1_555
C22 C1 1_555 1_555
C23 O1 1_555 1_555
C24 O2 1_555 1_555
H1 C2 1_555 1_555
H2 C3 1_555 1_555
H3 C4 1_555 1_555
H4 C6 1_555 1_555
H5 C7 1_555 1_555
H6 C10 1_555 1_555
H7 C11 1_555 1_555
H8 C13 1_555 1_555
H9 C14 1_555 1_555
H10 C15 1_555 1_555
H11 C19 1_555 1_555
H12 C20 1_555 1_555
H13 C23 1_555 1_555
H14 C23 1_555 1_555
H15 C23 1_555 1_555
H16 C24 1_555 1_555
H17 C24 1_555 1_555
H18 C24 1_555 1_555
C5 C22 1_555 1_555
C17 C18 1_555 1_555
C20 C21 1_555 1_555
C21 C22 1_555 1_555

#END
