
#######################################################################
#
#                 Cambridge Crystallographic Data Centre
#                                CCDC 
#
#######################################################################
#
# If this CIF has been generated from an entry in the Cambridge 
# Structural Database, then it will include bibliographic, chemical, 
# crystal, experimental, refinement or atomic coordinate data resulting 
# from the CCDC's data processing and validation procedures.
#
#######################################################################

data_BAKYAP
_chemical_formula_moiety         'C18 H13 Cl2 N3 O2'
_chemical_name_systematic        
N-(4-(2,6-Dichlorobenzylidene)-5-oxo-1-phenyl-4,5-dihydro-1H-pyrazol-3-yl)acetamide
_symmetry_cell_setting           orthorhombic
_symmetry_space_group_name_H-M   'P b c a'
_symmetry_Int_Tables_number      61
_space_group_name_Hall           '-P 2ac 2ab'
loop_
_symmetry_equiv_pos_site_id
_symmetry_equiv_pos_as_xyz
1 x,y,z
2 1/2-x,-y,1/2+z
3 -x,1/2+y,1/2-z
4 1/2+x,1/2-y,-z
5 -x,-y,-z
6 1/2+x,y,1/2-z
7 x,1/2-y,1/2+z
8 1/2-x,1/2+y,z
_cell_length_a                   12.5312(13)
_cell_length_b                   8.5495(9)
_cell_length_c                   31.110(3)
_cell_angle_alpha                90
_cell_angle_beta                 90
_cell_angle_gamma                90
_cell_volume                     3332.99
_exptl_crystal_colour            red
_exptl_crystal_description       block
_cell_formula_units_Z            8
loop_
_atom_site_label
_atom_site_type_symbol
_atom_site_fract_x
_atom_site_fract_y
_atom_site_fract_z
Cl1 Cl 0.63295(4) 0.05019(7) 0.469718(18)
Cl2 Cl 0.56425(4) -0.31571(8) 0.33137(2)
O1 O 0.52729(11) 0.09596(17) 0.33218(5)
O2 O 0.14661(12) 0.09775(17) 0.45435(5)
N1 N 0.35206(12) 0.16289(19) 0.34923(5)
N2 N 0.27060(12) 0.10577(19) 0.37647(5)
N3 N 0.25454(13) -0.09341(19) 0.42823(5)
H1 H 0.2740 -0.1913 0.4321
C1 C 0.68134(17) -0.0590(2) 0.42663(7)
C2 C 0.60875(15) -0.1327(2) 0.39970(7)
C3 C 0.65059(16) -0.2166(3) 0.36532(7)
C4 C 0.75913(17) -0.2267(3) 0.35795(7)
H2 H 0.7858 -0.2853 0.3343
C5 C 0.82799(17) -0.1505(3) 0.38536(8)
H3 H 0.9027 -0.1564 0.3803
C6 C 0.79067(17) -0.0662(3) 0.41986(8)
H4 H 0.8387 -0.0140 0.4387
C7 C 0.49313(15) -0.1239(2) 0.40905(7)
H5 H 0.4665 -0.1878 0.4316
C8 C 0.42384(14) -0.0339(2) 0.38847(6)
C9 C 0.44600(15) 0.0789(2) 0.35292(6)
C10 C 0.31167(15) -0.0071(2) 0.39835(6)
C11 C 0.32206(15) 0.2667(2) 0.31562(6)
C12 C 0.21449(16) 0.2851(2) 0.30639(7)
H6 H 0.1621 0.2318 0.3229
C13 C 0.18447(18) 0.3821(3) 0.27287(7)
H7 H 0.1109 0.3955 0.2665
C14 C 0.2600(2) 0.4594(3) 0.24871(7)
H8 H 0.2389 0.5244 0.2254
C15 C 0.36703(19) 0.4415(3) 0.25863(8)
H9 H 0.4193 0.4960 0.2423
C16 C 0.39871(18) 0.3455(3) 0.29193(7)
H10 H 0.4723 0.3335 0.2985
C17 C 0.17066(16) -0.0401(2) 0.45218(6)
C18 C 0.11142(18) -0.1671(3) 0.47555(8)
H11 H 0.0525 -0.1210 0.4919
H12 H 0.1602 -0.2209 0.4953
H13 H 0.0830 -0.2423 0.4547
loop_
_geom_bond_atom_site_label_1
_geom_bond_atom_site_label_2
_geom_bond_site_symmetry_1
_geom_bond_site_symmetry_2
Cl1 C1 1_555 1_555
Cl2 C3 1_555 1_555
O1 C9 1_555 1_555
O2 C17 1_555 1_555
N1 N2 1_555 1_555
N2 C10 1_555 1_555
N3 H1 1_555 1_555
C1 C2 1_555 1_555
C2 C3 1_555 1_555
C3 C4 1_555 1_555
C4 H2 1_555 1_555
C5 C4 1_555 1_555
H3 C5 1_555 1_555
C6 C1 1_555 1_555
H4 C6 1_555 1_555
C7 C2 1_555 1_555
H5 C7 1_555 1_555
C8 C7 1_555 1_555
C9 N1 1_555 1_555
C10 N3 1_555 1_555
C11 N1 1_555 1_555
C12 C11 1_555 1_555
H6 C12 1_555 1_555
C13 C12 1_555 1_555
H7 C13 1_555 1_555
C14 C13 1_555 1_555
H8 C14 1_555 1_555
C15 C14 1_555 1_555
H9 C15 1_555 1_555
C16 C11 1_555 1_555
H10 C16 1_555 1_555
C17 N3 1_555 1_555
C18 C17 1_555 1_555
H11 C18 1_555 1_555
H12 C18 1_555 1_555
H13 C18 1_555 1_555
C5 C6 1_555 1_555
C8 C9 1_555 1_555
C8 C10 1_555 1_555
C15 C16 1_555 1_555

#END
