
#######################################################################
#
#                 Cambridge Crystallographic Data Centre
#                                CCDC 
#
#######################################################################
#
# If this CIF has been generated from an entry in the Cambridge 
# Structural Database, then it will include bibliographic, chemical, 
# crystal, experimental, refinement or atomic coordinate data resulting 
# from the CCDC's data processing and validation procedures.
#
#######################################################################

data_BALBAS
_chemical_formula_moiety         'C9 H15 I1 O2'
_chemical_name_systematic        
(3\a,4\a,5\b,6\a)-4-Iodomethyl-3,5,6-trimethyltetrahydro-2H-pyran-2-one
_symmetry_cell_setting           orthorhombic
_symmetry_space_group_name_H-M   'P n a 21'
_symmetry_Int_Tables_number      33
_space_group_name_Hall           'P 2c -2n'
loop_
_symmetry_equiv_pos_site_id
_symmetry_equiv_pos_as_xyz
1 x,y,z
2 -x,-y,1/2+z
3 1/2-x,1/2+y,1/2+z
4 1/2+x,1/2-y,z
_cell_length_a                   8.354(2)
_cell_length_b                   18.620(7)
_cell_length_c                   6.798(4)
_cell_angle_alpha                90
_cell_angle_beta                 90
_cell_angle_gamma                90
_cell_volume                     1057.44
_exptl_crystal_colour            colorless
_exptl_crystal_description       prismatic
_chemical_melting_point          129-130deg.C
_cell_formula_units_Z            4
loop_
_atom_site_label
_atom_site_type_symbol
_atom_site_fract_x
_atom_site_fract_y
_atom_site_fract_z
I1 I 0.23054(7) 0.71159(4) -0.0027
O1 O -0.1547(7) 0.5160(3) 0.459(1)
O2 O 0.1022(7) 0.4924(3) 0.457(1)
C1 C -0.021(1) 0.5377(5) 0.487(2)
C2 C 0.029(1) 0.6133(5) 0.547(2)
C3 C 0.152(1) 0.6409(5) 0.398(1)
C4 C 0.296(1) 0.5876(5) 0.380(2)
C5 C 0.2657(9) 0.5199(4) 0.511(3)
C6 C -0.116(1) 0.6613(6) 0.578(2)
C7 C 0.076(1) 0.6559(5) 0.206(2)
C8 C 0.453(1) 0.6224(5) 0.444(2)
C9 C 0.375(1) 0.4581(6) 0.452(2)
H1 H 0.0985 0.5871 0.6513
H2 H 0.1928 0.6851 0.4463
H3 H 0.2866 0.5734 0.2507
H4 H 0.2677 0.5264 0.6494
H5 H -0.1797 0.6435 0.6797
H6 H -0.1776 0.6626 0.4576
H7 H -0.0808 0.7087 0.6060
H8 H 0.0450 0.6114 0.1501
H9 H -0.0156 0.6846 0.2293
H10 H 0.4765 0.6619 0.3598
H11 H 0.5370 0.5885 0.4382
H12 H 0.4426 0.6398 0.5758
H13 H 0.4824 0.4680 0.4941
H14 H 0.3402 0.4148 0.5134
H15 H 0.3757 0.4513 0.3130
loop_
_geom_bond_atom_site_label_1
_geom_bond_atom_site_label_2
_geom_bond_site_symmetry_1
_geom_bond_site_symmetry_2
I1 C7 1_555 1_555
O1 C1 1_555 1_555
O2 C1 1_555 1_555
C1 C2 1_555 1_555
C2 C3 1_555 1_555
C3 C4 1_555 1_555
C4 C5 1_555 1_555
C5 O2 1_555 1_555
C6 C2 1_555 1_555
C7 C3 1_555 1_555
C8 C4 1_555 1_555
C9 C5 1_555 1_555
H1 C2 1_555 1_555
H2 C3 1_555 1_555
H3 C4 1_555 1_555
H4 C5 1_555 1_555
H5 C6 1_555 1_555
H6 C6 1_555 1_555
H7 C6 1_555 1_555
H8 C7 1_555 1_555
H9 C7 1_555 1_555
H10 C8 1_555 1_555
H11 C8 1_555 1_555
H12 C8 1_555 1_555
H13 C9 1_555 1_555
H14 C9 1_555 1_555
H15 C9 1_555 1_555

#END
