
#######################################################################
#
#                 Cambridge Crystallographic Data Centre
#                                CCDC 
#
#######################################################################
#
# If this CIF has been generated from an entry in the Cambridge 
# Structural Database, then it will include bibliographic, chemical, 
# crystal, experimental, refinement or atomic coordinate data resulting 
# from the CCDC's data processing and validation procedures.
#
#######################################################################

data_BALHUT
_chemical_formula_moiety         'C22 H15 N1 O1'
_chemical_name_systematic        
(Z)-3-(9-Anthryl)-1-(pyridin-4-yl)prop-2-en-1-one
_symmetry_cell_setting           monoclinic
_symmetry_space_group_name_H-M   'P 21/c'
_symmetry_Int_Tables_number      14
_space_group_name_Hall           '-P 2ybc'
loop_
_symmetry_equiv_pos_site_id
_symmetry_equiv_pos_as_xyz
1 x,y,z
2 -x,1/2+y,1/2-z
3 -x,-y,-z
4 x,1/2-y,1/2+z
_cell_length_a                   10.0453(13)
_cell_length_b                   17.701(3)
_cell_length_c                   9.1880(12)
_cell_angle_alpha                90
_cell_angle_beta                 108.582(10)
_cell_angle_gamma                90
_cell_volume                     1548.57
_exptl_crystal_colour            yellow
_exptl_crystal_description       block
_cell_formula_units_Z            4
loop_
_atom_site_label
_atom_site_type_symbol
_atom_site_fract_x
_atom_site_fract_y
_atom_site_fract_z
N1 N -0.48178(11) 0.94231(6) 0.81653(13)
O1 O -0.16507(10) 0.74731(6) 0.72401(10)
C1 C -0.38730(12) 0.92483(6) 0.95116(14)
H1 H -0.3975 0.9469 1.0413
C2 C -0.27479(11) 0.87625(6) 0.96720(12)
H2 H -0.2095 0.8660 1.0656
C3 C -0.25996(11) 0.84311(6) 0.83642(12)
C4 C -0.35703(12) 0.86170(7) 0.69518(13)
H3 H -0.3493 0.8408 0.6029
C5 C -0.46451(13) 0.91089(7) 0.69127(15)
H4 H -0.5300 0.9232 0.5942
C6 C -0.14991(11) 0.78519(6) 0.83852(12)
C7 C -0.02911(11) 0.77630(7) 0.97910(13)
H5 H -0.0236 0.8096 1.0618
C8 C 0.07346(12) 0.72539(7) 1.00037(13)
H6 H 0.1439 0.7279 1.0980
C9 C 0.09627(11) 0.66573(6) 0.89805(12)
C10 C 0.21885(11) 0.67134(6) 0.85564(12)
C11 C 0.31205(12) 0.73433(6) 0.89867(13)
H7 H 0.2912 0.7741 0.9574
C12 C 0.42998(13) 0.73829(7) 0.85697(15)
H8 H 0.4911 0.7804 0.8882
C13 C 0.46311(13) 0.68067(8) 0.76779(15)
H9 H 0.5462 0.6841 0.7399
C14 C 0.37636(13) 0.62039(7) 0.72195(14)
H10 H 0.3988 0.5823 0.6608
C15 C 0.25202(11) 0.61338(6) 0.76407(12)
C16 C 0.16204(12) 0.55180(6) 0.71857(13)
H11 H 0.1831 0.5137 0.6564
C17 C 0.04232(11) 0.54476(6) 0.76191(12)
C18 C -0.04787(13) 0.48048(7) 0.71735(14)
H12 H -0.0267 0.4425 0.6552
C19 C -0.16276(13) 0.47309(7) 0.76239(16)
H13 H -0.2218 0.4301 0.7316
C20 C -0.19532(13) 0.52929(8) 0.85553(15)
H14 H -0.2759 0.5234 0.8873
C21 C -0.11315(12) 0.59147(7) 0.90017(14)
H15 H -0.1370 0.6283 0.9629
C22 C 0.00842(11) 0.60229(6) 0.85429(12)
loop_
_geom_bond_atom_site_label_1
_geom_bond_atom_site_label_2
_geom_bond_site_symmetry_1
_geom_bond_site_symmetry_2
N1 C1 1_555 1_555
O1 C6 1_555 1_555
C1 H1 1_555 1_555
C2 C1 1_555 1_555
H2 C2 1_555 1_555
C3 C2 1_555 1_555
C4 C3 1_555 1_555
H3 C4 1_555 1_555
C5 N1 1_555 1_555
H4 C5 1_555 1_555
C6 C3 1_555 1_555
C7 C6 1_555 1_555
H5 C7 1_555 1_555
C8 C7 1_555 1_555
H6 C8 1_555 1_555
C9 C8 1_555 1_555
C10 C9 1_555 1_555
C11 C10 1_555 1_555
H7 C11 1_555 1_555
C12 C11 1_555 1_555
H8 C12 1_555 1_555
C13 C12 1_555 1_555
H9 C13 1_555 1_555
C14 C13 1_555 1_555
H10 C14 1_555 1_555
C15 C10 1_555 1_555
C16 C15 1_555 1_555
H11 C16 1_555 1_555
C17 C16 1_555 1_555
C18 C17 1_555 1_555
H12 C18 1_555 1_555
C19 C18 1_555 1_555
H13 C19 1_555 1_555
C20 C19 1_555 1_555
H14 C20 1_555 1_555
C21 C20 1_555 1_555
H15 C21 1_555 1_555
C22 C9 1_555 1_555
C4 C5 1_555 1_555
C14 C15 1_555 1_555
C17 C22 1_555 1_555
C21 C22 1_555 1_555

#END
