
#######################################################################
#
#                 Cambridge Crystallographic Data Centre
#                                CCDC 
#
#######################################################################
#
# If this CIF has been generated from an entry in the Cambridge 
# Structural Database, then it will include bibliographic, chemical, 
# crystal, experimental, refinement or atomic coordinate data resulting 
# from the CCDC's data processing and validation procedures.
#
#######################################################################

data_BALHON
_chemical_formula_moiety         'C22 H15 N1 O1'
_chemical_name_systematic        
(E)-3-(9-Anthryl)-1-(pyridin-4-yl)prop-2-en-1-one
_symmetry_cell_setting           triclinic
_symmetry_space_group_name_H-M   'P -1'
_symmetry_Int_Tables_number      2
_space_group_name_Hall           '-P 1'
loop_
_symmetry_equiv_pos_site_id
_symmetry_equiv_pos_as_xyz
1 x,y,z
2 -x,-y,-z
_cell_length_a                   10.5404(16)
_cell_length_b                   12.2631(19)
_cell_length_c                   14.022(2)
_cell_angle_alpha                64.884(11)
_cell_angle_beta                 77.234(12)
_cell_angle_gamma                70.989(12)
_cell_volume                     1544.32
_exptl_crystal_colour            yellow
_exptl_crystal_description       block
_cell_formula_units_Z            4
loop_
_atom_site_label
_atom_site_type_symbol
_atom_site_fract_x
_atom_site_fract_y
_atom_site_fract_z
O1 O 0.41651(10) 0.83401(9) 0.34729(8)
N1 N 0.77113(10) 0.43896(9) 0.49139(8)
C1 C 0.11609(10) 0.76140(10) 0.15097(9)
C2 C 0.08677(12) 0.68329(11) 0.25853(9)
H1 H 0.1317 0.6783 0.3125
C3 C -0.00456(13) 0.61619(12) 0.28431(11)
H2 H -0.0217 0.5641 0.3561
C4 C -0.07478(13) 0.62255(13) 0.20606(12)
H3 H -0.1364 0.5731 0.2252
C5 C -0.05406(12) 0.69898(12) 0.10403(11)
H4 H -0.1034 0.7044 0.0524
C6 C 0.04064(11) 0.77145(10) 0.07273(9)
C7 C 0.06039(11) 0.85140(10) -0.03208(9)
H5 H 0.0093 0.8578 -0.0831
C8 C 0.15287(11) 0.92196(10) -0.06396(9)
C9 C 0.17372(13) 1.00311(11) -0.17164(9)
H6 H 0.1207 1.0117 -0.2223
C10 C 0.26730(14) 1.06784(13) -0.20268(10)
H7 H 0.2811 1.1203 -0.2749
C11 C 0.34473(14) 1.05734(13) -0.12733(11)
H8 H 0.4104 1.1032 -0.1496
C12 C 0.32706(12) 0.98278(12) -0.02357(10)
H9 H 0.3801 0.9779 0.0255
C13 C 0.23035(11) 0.91196(10) 0.01276(9)
C14 C 0.21194(10) 0.83095(10) 0.11942(8)
C15 C 0.29318(11) 0.82466(10) 0.19519(9)
H10 H 0.2937 0.9024 0.1943
C16 C 0.36638(11) 0.72281(10) 0.26515(8)
H11 H 0.3690 0.6421 0.2709
C17 C 0.44339(11) 0.73709(10) 0.33357(9)
C18 C 0.72721(11) 0.54674(11) 0.50535(9)
H12 H 0.7697 0.5567 0.5531
C19 C 0.62359(11) 0.64459(11) 0.45445(9)
H13 H 0.5973 0.7200 0.4662
C20 C 0.55840(10) 0.63106(10) 0.38577(8)
C21 C 0.60353(11) 0.52011(11) 0.36956(9)
H14 H 0.5627 0.5073 0.3226
C22 C 0.70997(11) 0.42811(11) 0.42371(9)
H15 H 0.7410 0.3527 0.4116
O2 O 0.41854(8) 0.41131(8) 0.27878(6)
N2 N 0.30809(10) 0.44334(10) -0.06189(8)
C23 C 0.91411(10) 0.16405(10) 0.29923(8)
C24 C 0.91517(11) 0.28836(10) 0.22759(8)
H16 H 0.8331 0.3525 0.2177
C25 C 1.03179(11) 0.31638(11) 0.17331(9)
H17 H 1.0301 0.3996 0.1256
C26 C 1.15603(11) 0.22290(12) 0.18698(9)
H18 H 1.2363 0.2433 0.1470
C27 C 1.16059(11) 0.10445(11) 0.25695(9)
H19 H 1.2448 0.0433 0.2673
C28 C 1.04073(10) 0.07042(10) 0.31518(8)
C29 C 1.04467(11) -0.05135(10) 0.38611(9)
H20 H 1.1283 -0.1134 0.3938
C30 C 0.92899(11) -0.08423(10) 0.44591(8)
C31 C 0.93346(12) -0.20899(10) 0.51943(9)
H21 H 1.0165 -0.2717 0.5262
C32 C 0.82096(13) -0.23894(11) 0.57954(10)
H22 H 0.8256 -0.3220 0.6289
C33 C 0.69607(12) -0.14636(11) 0.56892(10)
H23 H 0.6179 -0.1679 0.6123
C34 C 0.68635(11) -0.02735(11) 0.49771(9)
H24 H 0.6012 0.0324 0.4907
C35 C 0.80235(10) 0.00890(10) 0.43340(8)
C36 C 0.79534(10) 0.13060(10) 0.35685(8)
C37 C 0.66209(10) 0.21901(9) 0.33350(8)
H25 H 0.6023 0.2352 0.3903
C38 C 0.62088(10) 0.27758(10) 0.23663(8)
H26 H 0.6805 0.2641 0.1787
C39 C 0.48458(10) 0.36302(9) 0.21717(8)
C40 C 0.25513(11) 0.50743(11) 0.00047(9)
H27 H 0.1755 0.5734 -0.0183
C41 C 0.30889(11) 0.48393(10) 0.09085(9)
H28 H 0.2663 0.5318 0.1330
C42 C 0.42671(10) 0.38864(9) 0.11897(8)
C43 C 0.48268(11) 0.32033(11) 0.05538(9)
H29 H 0.5625 0.2541 0.0720
C44 C 0.41962(12) 0.35070(12) -0.03293(10)
H30 H 0.4581 0.3027 -0.0755
loop_
_geom_bond_atom_site_label_1
_geom_bond_atom_site_label_2
_geom_bond_site_symmetry_1
_geom_bond_site_symmetry_2
O1 C17 1_555 1_555
N1 C18 1_555 1_555
C1 C2 1_555 1_555
C2 H1 1_555 1_555
C3 C2 1_555 1_555
H2 C3 1_555 1_555
C4 C3 1_555 1_555
H3 C4 1_555 1_555
C5 C4 1_555 1_555
H4 C5 1_555 1_555
C6 C1 1_555 1_555
C7 C6 1_555 1_555
H5 C7 1_555 1_555
C8 C7 1_555 1_555
C9 C8 1_555 1_555
H6 C9 1_555 1_555
C10 C9 1_555 1_555
H7 C10 1_555 1_555
C11 C10 1_555 1_555
H8 C11 1_555 1_555
C12 C11 1_555 1_555
H9 C12 1_555 1_555
C13 C8 1_555 1_555
C14 C1 1_555 1_555
C15 C14 1_555 1_555
H10 C15 1_555 1_555
C16 C15 1_555 1_555
H11 C16 1_555 1_555
C17 C16 1_555 1_555
C18 H12 1_555 1_555
C19 C18 1_555 1_555
H13 C19 1_555 1_555
C20 C17 1_555 1_555
C21 C20 1_555 1_555
H14 C21 1_555 1_555
C22 N1 1_555 1_555
H15 C22 1_555 1_555
O2 C39 1_555 1_555
N2 C40 1_555 1_555
C23 C24 1_555 1_555
C24 H16 1_555 1_555
C25 C24 1_555 1_555
H17 C25 1_555 1_555
C26 C25 1_555 1_555
H18 C26 1_555 1_555
C27 C26 1_555 1_555
H19 C27 1_555 1_555
C28 C23 1_555 1_555
C29 C28 1_555 1_555
H20 C29 1_555 1_555
C30 C29 1_555 1_555
C31 C30 1_555 1_555
H21 C31 1_555 1_555
C32 C31 1_555 1_555
H22 C32 1_555 1_555
C33 C32 1_555 1_555
H23 C33 1_555 1_555
C34 C33 1_555 1_555
H24 C34 1_555 1_555
C35 C30 1_555 1_555
C36 C23 1_555 1_555
C37 C36 1_555 1_555
H25 C37 1_555 1_555
C38 C37 1_555 1_555
H26 C38 1_555 1_555
C39 C38 1_555 1_555
C40 H27 1_555 1_555
C41 C40 1_555 1_555
H28 C41 1_555 1_555
C42 C39 1_555 1_555
C43 C42 1_555 1_555
H29 C43 1_555 1_555
C44 N2 1_555 1_555
H30 C44 1_555 1_555
C5 C6 1_555 1_555
C12 C13 1_555 1_555
C13 C14 1_555 1_555
C19 C20 1_555 1_555
C21 C22 1_555 1_555
C27 C28 1_555 1_555
C34 C35 1_555 1_555
C35 C36 1_555 1_555
C41 C42 1_555 1_555
C43 C44 1_555 1_555

#END
