
#######################################################################
#
#                 Cambridge Crystallographic Data Centre
#                                CCDC 
#
#######################################################################
#
# If this CIF has been generated from an entry in the Cambridge 
# Structural Database, then it will include bibliographic, chemical, 
# crystal, experimental, refinement or atomic coordinate data resulting 
# from the CCDC's data processing and validation procedures.
#
#######################################################################

data_BALTEP
_chemical_formula_moiety         'C29 H25 N1 O7 S2'
_chemical_name_systematic        
'Ethyl (2-(4-((1-naphthylsulfonyl)oxy)phenyl)-3-nitro-3,4-dihydro-2H-thiochromen-4-yl)acetate'
_symmetry_cell_setting           monoclinic
_symmetry_space_group_name_H-M   'P 21'
_symmetry_Int_Tables_number      4
_space_group_name_Hall           'P 2yb'
loop_
_symmetry_equiv_pos_site_id
_symmetry_equiv_pos_as_xyz
1 x,y,z
2 -x,1/2+y,-z
_cell_length_a                   9.9340(14)
_cell_length_b                   9.0722(12)
_cell_length_c                   14.812(2)
_cell_angle_alpha                90
_cell_angle_beta                 104.519(3)
_cell_angle_gamma                90
_cell_volume                     1292.27
_exptl_crystal_colour            colorless
_exptl_crystal_description       plate
_cell_formula_units_Z            2
loop_
_atom_site_label
_atom_site_type_symbol
_atom_site_fract_x
_atom_site_fract_y
_atom_site_fract_z
S1 S 0.64418(5) 0.63421(5) 0.88160(3)
S2 S 0.07306(5) 0.34671(6) 0.55863(3)
O1 O 0.52768(17) 0.54500(18) 0.88616(10)
O2 O 0.77719(16) 0.60490(17) 0.94247(11)
O3 O 0.66807(13) 0.61917(16) 0.77817(9)
O4 O 0.29576(17) 0.6135(2) 0.33589(13)
O5 O 0.35167(15) 0.38444(19) 0.36126(11)
O6 O -0.12762(15) 0.28374(16) 0.17840(10)
O7 O -0.06722(15) 0.05526(16) 0.23264(10)
N1 N 0.28088(16) 0.4927(2) 0.36735(12)
C1 C 0.7032(2) 0.9356(2) 0.89416(13)
C2 C 0.8441(2) 0.9134(2) 0.89263(13)
H1 H 0.8760 0.8168 0.8844
C3 C 0.9340(2) 1.0292(3) 0.90292(15)
H2 H 1.0280 1.0120 0.9022
C4 C 0.8898(3) 1.1743(3) 0.91462(16)
H3 H 0.9543 1.2535 0.9233
C5 C 0.7547(3) 1.2003(3) 0.91342(16)
H4 H 0.7250 1.2984 0.9200
C6 C 0.6573(2) 1.0833(2) 0.90256(14)
C7 C 0.5169(2) 1.1108(3) 0.90303(14)
H5 H 0.4869 1.2095 0.9068
C8 C 0.4243(2) 0.9989(3) 0.89822(15)
H6 H 0.3312 1.0197 0.8998
C9 C 0.4667(2) 0.8515(3) 0.89094(13)
H7 H 0.4022 0.7732 0.8877
C10 C 0.6015(2) 0.8220(2) 0.88857(13)
C11 C 0.55514(19) 0.5633(2) 0.70818(13)
C12 C 0.56795(19) 0.4244(2) 0.67550(13)
H8 H 0.6498 0.3682 0.6992
C13 C 0.45771(18) 0.3671(2) 0.60632(13)
H9 H 0.4658 0.2720 0.5813
C14 C 0.33616(19) 0.4485(2) 0.57381(13)
C15 C 0.3275(2) 0.5896(2) 0.60870(14)
H10 H 0.2450 0.6456 0.5868
C16 C 0.4384(2) 0.6499(2) 0.67529(14)
H11 H 0.4340 0.7476 0.6975
C17 C 0.21549(18) 0.3803(2) 0.50236(13)
H12 H 0.2465 0.2833 0.4826
C18 C 0.16391(18) 0.4754(2) 0.41574(13)
H13 H 0.1400 0.5751 0.4359
C19 C 0.03510(18) 0.4132(2) 0.34503(13)
H14 H 0.0208 0.4710 0.2859
C20 C -0.08839(18) 0.4393(2) 0.38555(13)
C21 C -0.07858(19) 0.4138(2) 0.47981(13)
C22 C -0.1932(2) 0.4381(2) 0.51651(14)
H15 H -0.1860 0.4212 0.5808
C23 C -0.3173(2) 0.4870(2) 0.45901(15)
H16 H -0.3957 0.5012 0.4839
C24 C -0.3283(2) 0.5154(2) 0.36538(15)
H17 H -0.4134 0.5498 0.3263
C25 C -0.21294(19) 0.4929(2) 0.32941(14)
H18 H -0.2193 0.5144 0.2657
C26 C 0.04952(19) 0.2499(2) 0.32216(13)
H19 H 0.1430 0.2326 0.3120
H20 H 0.0409 0.1890 0.3759
C27 C -0.05947(19) 0.2024(2) 0.23640(13)
C28 C -0.1605(2) -0.0079(2) 0.14945(15)
H21 H -0.1180 -0.0017 0.0959
H22 H -0.2497 0.0466 0.1335
C29 C -0.1848(3) -0.1656(3) 0.17062(16)
H23 H -0.0952 -0.2152 0.1939
H24 H -0.2372 -0.2147 0.1137
H25 H -0.2380 -0.1700 0.2181
loop_
_geom_bond_atom_site_label_1
_geom_bond_atom_site_label_2
_geom_bond_site_symmetry_1
_geom_bond_site_symmetry_2
S1 O1 1_555 1_555
S2 C17 1_555 1_555
O2 S1 1_555 1_555
O3 S1 1_555 1_555
O4 N1 1_555 1_555
O5 N1 1_555 1_555
O6 C27 1_555 1_555
O7 C27 1_555 1_555
N1 C18 1_555 1_555
C1 C2 1_555 1_555
C2 H1 1_555 1_555
C3 C2 1_555 1_555
H2 C3 1_555 1_555
C4 C3 1_555 1_555
H3 C4 1_555 1_555
C5 C4 1_555 1_555
H4 C5 1_555 1_555
C6 C1 1_555 1_555
C7 C6 1_555 1_555
H5 C7 1_555 1_555
C8 C7 1_555 1_555
H6 C8 1_555 1_555
C9 C8 1_555 1_555
H7 C9 1_555 1_555
C10 S1 1_555 1_555
C11 O3 1_555 1_555
C12 C11 1_555 1_555
H8 C12 1_555 1_555
C13 C12 1_555 1_555
H9 C13 1_555 1_555
C14 C13 1_555 1_555
C15 C14 1_555 1_555
H10 C15 1_555 1_555
C16 C11 1_555 1_555
H11 C16 1_555 1_555
C17 C14 1_555 1_555
H12 C17 1_555 1_555
C18 C17 1_555 1_555
H13 C18 1_555 1_555
C19 C18 1_555 1_555
H14 C19 1_555 1_555
C20 C19 1_555 1_555
C21 S2 1_555 1_555
C22 C21 1_555 1_555
H15 C22 1_555 1_555
C23 C22 1_555 1_555
H16 C23 1_555 1_555
C24 C23 1_555 1_555
H17 C24 1_555 1_555
C25 C20 1_555 1_555
H18 C25 1_555 1_555
C26 C19 1_555 1_555
H19 C26 1_555 1_555
H20 C26 1_555 1_555
C27 C26 1_555 1_555
C28 O7 1_555 1_555
H21 C28 1_555 1_555
H22 C28 1_555 1_555
C29 C28 1_555 1_555
H23 C29 1_555 1_555
H24 C29 1_555 1_555
H25 C29 1_555 1_555
C1 C10 1_555 1_555
C5 C6 1_555 1_555
C9 C10 1_555 1_555
C15 C16 1_555 1_555
C20 C21 1_555 1_555
C24 C25 1_555 1_555

#END
