
#######################################################################
#
#                 Cambridge Crystallographic Data Centre
#                                CCDC 
#
#######################################################################
#
# If this CIF has been generated from an entry in the Cambridge 
# Structural Database, then it will include bibliographic, chemical, 
# crystal, experimental, refinement or atomic coordinate data resulting 
# from the CCDC's data processing and validation procedures.
#
#######################################################################

data_BALVIW
_chemical_formula_moiety         'C23 H13 F3 N2 O1'
_chemical_name_systematic        
5-(quinolin-8-yl)-8-(trifluoromethyl)phenanthridin-6(5H)-one
_symmetry_cell_setting           monoclinic
_symmetry_space_group_name_H-M   'P 21/c'
_symmetry_Int_Tables_number      14
_space_group_name_Hall           '-P 2ybc'
loop_
_symmetry_equiv_pos_site_id
_symmetry_equiv_pos_as_xyz
1 x,y,z
2 -x,1/2+y,1/2-z
3 -x,-y,-z
4 x,1/2-y,1/2+z
_cell_length_a                   7.6208(3)
_cell_length_b                   21.2775(7)
_cell_length_c                   11.1815(4)
_cell_angle_alpha                90
_cell_angle_beta                 105.554(2)
_cell_angle_gamma                90
_cell_volume                     1746.7
_exptl_crystal_colour            colorless
_exptl_crystal_description       block
_cell_formula_units_Z            4
loop_
_atom_site_label
_atom_site_type_symbol
_atom_site_fract_x
_atom_site_fract_y
_atom_site_fract_z
O1 O 0.11086(18) 0.32986(6) 0.55762(11)
C1 C 0.3474(2) 0.36045(8) 0.77249(15)
F1 F -0.1967(2) 0.36584(7) 0.11779(11)
N1 N 0.6184(2) 0.34268(6) 0.70570(13)
F2 F -0.19020(19) 0.45649(7) 0.03839(11)
C2 C 0.2427(3) 0.34867(9) 0.85123(16)
H1 H 0.1337 0.3718 0.8436
N2 N 0.28955(18) 0.40548(6) 0.67303(12)
C3 C 0.7734(2) 0.31209(8) 0.72117(18)
H2 H 0.8476 0.3223 0.6678
C4 C 0.5141(2) 0.32785(8) 0.78382(15)
C5 C 0.5660(2) 0.28132(8) 0.87794(16)
C6 C 0.4515(3) 0.26894(10) 0.95616(18)
H3 H 0.4842 0.2371 1.0176
F3 F 0.02968(18) 0.39373(8) 0.04986(12)
C7 C 0.2951(3) 0.30221(10) 0.94424(18)
H4 H 0.2209 0.2941 0.9986
C8 C 0.7330(3) 0.24997(9) 0.88896(19)
H5 H 0.7728 0.2183 0.9502
C9 C 0.8362(3) 0.26532(9) 0.8115(2)
H6 H 0.9491 0.2448 0.8181
C10 C 0.1755(2) 0.38276(8) 0.56375(15)
C11 C 0.1411(2) 0.42569(8) 0.45619(15)
C12 C 0.2165(2) 0.48603(8) 0.46550(15)
C13 C 0.3259(2) 0.50826(8) 0.58645(15)
C14 C 0.3606(2) 0.46694(8) 0.68799(15)
C15 C 0.4637(2) 0.48708(9) 0.80506(16)
H7 H 0.4875 0.4591 0.8737
C16 C 0.5305(3) 0.54764(9) 0.82062(18)
H8 H 0.5993 0.5613 0.9003
C17 C 0.4980(3) 0.58887(9) 0.72076(19)
H9 H 0.5449 0.6304 0.7320
C18 C 0.3977(2) 0.56928(8) 0.60562(17)
H10 H 0.3765 0.5976 0.5376
C19 C 0.1848(2) 0.52261(8) 0.35742(16)
H11 H 0.2336 0.5639 0.3619
C20 C 0.0839(3) 0.49956(9) 0.24509(16)
H12 H 0.0647 0.5249 0.1727
C21 C 0.0099(2) 0.43941(9) 0.23674(16)
C22 C 0.0371(2) 0.40270(8) 0.34171(15)
H13 H -0.0146 0.3618 0.3364
C23 C -0.0876(3) 0.41331(10) 0.11211(17)
loop_
_geom_bond_atom_site_label_1
_geom_bond_atom_site_label_2
_geom_bond_site_symmetry_1
_geom_bond_site_symmetry_2
O1 C10 1_555 1_555
C1 C2 1_555 1_555
F1 C23 1_555 1_555
N1 C3 1_555 1_555
F2 C23 1_555 1_555
C2 H1 1_555 1_555
N2 C1 1_555 1_555
C3 H2 1_555 1_555
C4 C1 1_555 1_555
C5 C4 1_555 1_555
C6 C5 1_555 1_555
H3 C6 1_555 1_555
F3 C23 1_555 1_555
C7 C2 1_555 1_555
H4 C7 1_555 1_555
C8 C5 1_555 1_555
H5 C8 1_555 1_555
C9 C3 1_555 1_555
H6 C9 1_555 1_555
C10 N2 1_555 1_555
C11 C10 1_555 1_555
C12 C11 1_555 1_555
C13 C12 1_555 1_555
C14 N2 1_555 1_555
C15 C14 1_555 1_555
H7 C15 1_555 1_555
C16 C15 1_555 1_555
H8 C16 1_555 1_555
C17 C16 1_555 1_555
H9 C17 1_555 1_555
C18 C13 1_555 1_555
H10 C18 1_555 1_555
C19 C12 1_555 1_555
H11 C19 1_555 1_555
C20 C19 1_555 1_555
H12 C20 1_555 1_555
C21 C20 1_555 1_555
C22 C11 1_555 1_555
H13 C22 1_555 1_555
C23 C21 1_555 1_555
N1 C4 1_555 1_555
C6 C7 1_555 1_555
C8 C9 1_555 1_555
C13 C14 1_555 1_555
C17 C18 1_555 1_555
C21 C22 1_555 1_555

#END
