
#######################################################################
#
#                 Cambridge Crystallographic Data Centre
#                                CCDC 
#
#######################################################################
#
# If this CIF has been generated from an entry in the Cambridge 
# Structural Database, then it will include bibliographic, chemical, 
# crystal, experimental, refinement or atomic coordinate data resulting 
# from the CCDC's data processing and validation procedures.
#
#######################################################################

data_BAMTOB
_chemical_formula_moiety         'C19 H21 N1 O4'
_chemical_name_systematic        
'ethyl 5-acetyl-1-(2,4-dimethylphenyl)-6-methyl-2-oxo-1,2-dihydropyridine-3-carboxylate'
_symmetry_cell_setting           triclinic
_symmetry_space_group_name_H-M   'P -1'
_symmetry_Int_Tables_number      2
_space_group_name_Hall           '-P 1'
loop_
_symmetry_equiv_pos_site_id
_symmetry_equiv_pos_as_xyz
1 x,y,z
2 -x,-y,-z
_cell_length_a                   8.8471(18)
_cell_length_b                   10.083(2)
_cell_length_c                   11.343(2)
_cell_angle_alpha                111.01(3)
_cell_angle_beta                 96.31(3)
_cell_angle_gamma                107.42(3)
_cell_volume                     874.045
_exptl_crystal_colour            colorless
_exptl_crystal_description       prism
_cell_formula_units_Z            2
loop_
_atom_site_label
_atom_site_type_symbol
_atom_site_fract_x
_atom_site_fract_y
_atom_site_fract_z
N1 N 0.20847(18) 0.78487(17) 0.15138(15)
C1 C 0.1212(2) 0.6888(2) 0.20832(18)
C2 C -0.0511(2) 0.6179(2) 0.15062(17)
C3 C -0.1153(2) 0.6381(2) 0.04707(19)
H1 H -0.228(2) 0.588(2) 0.0106(18)
C4 C -0.0247(2) 0.7301(2) -0.00789(18)
C5 C 0.1412(2) 0.8060(2) 0.04847(18)
C6 C 0.2555(3) 0.9112(3) 0.0048(2)
H2 H 0.3269 1.0004 0.0795
H3 H 0.1938 0.9406 -0.0496
H4 H 0.3191 0.8601 -0.0434
O1 O 0.19886(18) 0.67666(18) 0.29665(15)
C7 C 0.3818(2) 0.8632(2) 0.21444(18)
C8 C 0.4340(2) 1.0005(2) 0.32262(17)
C9 C 0.5998(2) 1.0699(2) 0.3810(2)
H5 H 0.638(3) 1.166(3) 0.458(2)
C10 C 0.7120(2) 1.0078(3) 0.3336(2)
C11 C 0.6541(3) 0.8710(3) 0.2258(2)
H6 H 0.727(3) 0.830(3) 0.194(2)
C12 C 0.4904(3) 0.7971(3) 0.1658(2)
H7 H 0.4533 0.7040 0.0936
C13 C 0.3166(3) 1.0722(2) 0.3763(2)
H8 H 0.2603 1.0921 0.3110
H9 H 0.3755 1.1664 0.4511
H10 H 0.2389 1.0042 0.4011
C14 C 0.8915(3) 1.0867(3) 0.3986(3)
H11 H 0.9335 1.0158 0.4147
H12 H 0.9074 1.1704 0.4797
H13 H 0.9480 1.1244 0.3429
C15 C -0.1680(3) 0.5203(2) 0.1983(2)
O2 O -0.3086(2) 0.4528(2) 0.14288(17)
O3 O -0.1010(2) 0.5152(2) 0.30615(17)
C16 C -0.2100(4) 0.4233(3) 0.3593(3)
H14 H -0.2958 0.3378 0.2886
H15 H -0.1488 0.3827 0.4042
C17 C -0.2820(4) 0.5126(4) 0.4483(3)
H16 H -0.1973 0.5961 0.5192
H17 H -0.3528 0.4497 0.4816
H18 H -0.3440 0.5514 0.4037
C18 C -0.1114(3) 0.7455(3) -0.1199(2)
O4 O -0.0489(6) 0.8490(11) -0.1533(12)
C19 C -0.2920(6) 0.6619(13) -0.1749(9)
H19 H -0.3265 0.6829 -0.2474
H20 H -0.3484 0.6951 -0.1090
H21 H -0.3168 0.5542 -0.2036
O5? O -0.0338(15) 0.780(3) -0.1953(11)
C20? C -0.2813(12) 0.629(3) -0.1821(18)
H22? H -0.3288 0.6438 -0.2546
H23? H -0.3465 0.6406 -0.1195
H24? H -0.2774 0.5286 -0.2121
loop_
_geom_bond_atom_site_label_1
_geom_bond_atom_site_label_2
_geom_bond_site_symmetry_1
_geom_bond_site_symmetry_2
N1 C1 1_555 1_555
C1 C2 1_555 1_555
C2 C3 1_555 1_555
C3 H1 1_555 1_555
C4 C3 1_555 1_555
C5 N1 1_555 1_555
C6 C5 1_555 1_555
H2 C6 1_555 1_555
H3 C6 1_555 1_555
H4 C6 1_555 1_555
O1 C1 1_555 1_555
C7 N1 1_555 1_555
C8 C7 1_555 1_555
C9 C8 1_555 1_555
H5 C9 1_555 1_555
C10 C9 1_555 1_555
C11 C10 1_555 1_555
H6 C11 1_555 1_555
C12 C7 1_555 1_555
H7 C12 1_555 1_555
C13 C8 1_555 1_555
H8 C13 1_555 1_555
H9 C13 1_555 1_555
H10 C13 1_555 1_555
C14 C10 1_555 1_555
H11 C14 1_555 1_555
H12 C14 1_555 1_555
H13 C14 1_555 1_555
C15 C2 1_555 1_555
O2 C15 1_555 1_555
O3 C15 1_555 1_555
C16 O3 1_555 1_555
H14 C16 1_555 1_555
H15 C16 1_555 1_555
C17 C16 1_555 1_555
H16 C17 1_555 1_555
H17 C17 1_555 1_555
H18 C17 1_555 1_555
C18 C4 1_555 1_555
O4 C18 1_555 1_555
C19 C18 1_555 1_555
H19 C19 1_555 1_555
H20 C19 1_555 1_555
H21 C19 1_555 1_555
C4 C5 1_555 1_555
C11 C12 1_555 1_555

#END
