
#######################################################################
#
#                 Cambridge Crystallographic Data Centre
#                                CCDC 
#
#######################################################################
#
# If this CIF has been generated from an entry in the Cambridge 
# Structural Database, then it will include bibliographic, chemical, 
# crystal, experimental, refinement or atomic coordinate data resulting 
# from the CCDC's data processing and validation procedures.
#
#######################################################################

data_BAMYET
_chemical_formula_moiety         'C30 H30 P2 S2'
_chemical_name_systematic        
cis-6,13-Diphenyl-6,13-diphospha-2,17-dithiatricyclo(16.4.0.0^7,12^)docosa-7(12),8,10,1(18),19,21-hexaene
_symmetry_cell_setting           monoclinic
_symmetry_space_group_name_H-M   'P 21/c'
_symmetry_Int_Tables_number      14
_space_group_name_Hall           '-P 2ybc'
loop_
_symmetry_equiv_pos_site_id
_symmetry_equiv_pos_as_xyz
1 x,y,z
2 -x,1/2+y,1/2-z
3 -x,-y,-z
4 x,1/2-y,1/2+z
_cell_length_a                   7.636(1)
_cell_length_b                   15.277(3)
_cell_length_c                   24.206(5)
_cell_angle_alpha                90
_cell_angle_beta                 107.17(2)
_cell_angle_gamma                90
_cell_volume                     2697.91
_exptl_crystal_colour            white
_chemical_melting_point          111-2deg.C
_cell_formula_units_Z            4
loop_
_atom_site_label
_atom_site_type_symbol
_atom_site_fract_x
_atom_site_fract_y
_atom_site_fract_z
P1 P 0.18707 0.59535 0.27477
P2 P 0.22347 0.80226 0.24008
S1 S 0.31935 0.79070 0.01967
S2 S 0.29934 0.59093 0.05895
C1 C 0.21240 0.52520 0.21480
C2 C 0.22010 0.58020 0.16320
C3 C 0.23840 0.52500 0.11300
C4 C 0.29860 0.85830 0.07970
C5 C 0.29610 0.80470 0.13250
C6 C 0.28990 0.86300 0.18300
C7 C 0.43000 0.73560 0.27480
C8 C 0.41390 0.64980 0.29250
C9 C 0.57360 0.60410 0.32050
C10 C 0.74520 0.63960 0.32880
C11 C 0.75970 0.72400 0.30980
C12 C 0.60470 0.77180 0.28430
C13 C 0.09450 0.64830 0.02410
C14 C 0.10660 0.73390 0.00410
C15 C -0.05260 0.77520 -0.02800
C16 C -0.22060 0.73650 -0.03900
C17 C -0.23300 0.65340 -0.01810
C18 C -0.07660 0.60910 0.01250
C19 C 0.22140 0.51530 0.33410
C20 C 0.25370 0.54860 0.38980
C21 C 0.26290 0.49240 0.43570
C22 C 0.23970 0.40270 0.42610
C23 C 0.20740 0.36930 0.37040
C24 C 0.19820 0.42560 0.32440
C25 C 0.25280 0.88800 0.29600
C26 C 0.25750 0.86190 0.35150
C27 C 0.26890 0.92430 0.39430
C28 C 0.27560 1.01300 0.38160
C29 C 0.27090 1.03910 0.32600
C30 C 0.25950 0.97660 0.28330
loop_
_geom_bond_atom_site_label_1
_geom_bond_atom_site_label_2
_geom_bond_site_symmetry_1
_geom_bond_site_symmetry_2
P1 C1 1_555 1_555
P2 C6 1_555 1_555
S1 C4 1_555 1_555
S2 C3 1_555 1_555
C1 C2 1_555 1_555
C2 C3 1_555 1_555
C4 C5 1_555 1_555
C5 C6 1_555 1_555
C7 P2 1_555 1_555
C8 P1 1_555 1_555
C9 C8 1_555 1_555
C10 C9 1_555 1_555
C11 C10 1_555 1_555
C12 C7 1_555 1_555
C13 S2 1_555 1_555
C14 S1 1_555 1_555
C15 C14 1_555 1_555
C16 C15 1_555 1_555
C17 C16 1_555 1_555
C18 C13 1_555 1_555
C19 P1 1_555 1_555
C20 C19 1_555 1_555
C21 C20 1_555 1_555
C22 C21 1_555 1_555
C23 C22 1_555 1_555
C24 C19 1_555 1_555
C25 P2 1_555 1_555
C26 C25 1_555 1_555
C27 C26 1_555 1_555
C28 C27 1_555 1_555
C29 C28 1_555 1_555
C30 C25 1_555 1_555
C7 C8 1_555 1_555
C11 C12 1_555 1_555
C13 C14 1_555 1_555
C17 C18 1_555 1_555
C23 C24 1_555 1_555
C29 C30 1_555 1_555

#END
