
#######################################################################
#
#                 Cambridge Crystallographic Data Centre
#                                CCDC 
#
#######################################################################
#
# If this CIF has been generated from an entry in the Cambridge 
# Structural Database, then it will include bibliographic, chemical, 
# crystal, experimental, refinement or atomic coordinate data resulting 
# from the CCDC's data processing and validation procedures.
#
#######################################################################

data_BAMYUL
_chemical_formula_moiety         'C26 H42 Br1 N1 O2 S1'
_chemical_name_systematic        
2-(Bromo(cyclohexyl)methyl)-1-((2,4,6-triisopropylphenyl)sulfonyl)pyrrolidine
_symmetry_cell_setting           monoclinic
_symmetry_space_group_name_H-M   'P 21'
_symmetry_Int_Tables_number      4
_space_group_name_Hall           'P 2yb'
loop_
_symmetry_equiv_pos_site_id
_symmetry_equiv_pos_as_xyz
1 x,y,z
2 -x,1/2+y,-z
_cell_length_a                   9.439(2)
_cell_length_b                   11.246(3)
_cell_length_c                   13.111(3)
_cell_angle_alpha                90
_cell_angle_beta                 109.97(3)
_cell_angle_gamma                90
_cell_volume                     1308.06
_exptl_crystal_colour            colorless
_exptl_crystal_description       block
_cell_formula_units_Z            2
loop_
_atom_site_label
_atom_site_type_symbol
_atom_site_fract_x
_atom_site_fract_y
_atom_site_fract_z
Br1 Br 1.17324(3) 0.83838(2) 1.261259(18)
S1 S 0.92635(7) 0.79505(5) 0.83468(5)
O1 O 1.05163(18) 0.8397(2) 0.80742(12)
O2 O 0.8305(2) 0.88410(14) 0.85549(13)
N1 N 0.9841(2) 0.70903(16) 0.94470(15)
C1 C 0.8149(3) 0.6956(2) 0.73189(18)
C2 C 0.6718(3) 0.6638(2) 0.7340(2)
C3 C 0.5777(3) 0.5996(2) 0.6470(2)
H1 H 0.4798 0.5796 0.6470
C4 C 0.6187(3) 0.5631(2) 0.5604(2)
C5 C 0.7627(3) 0.5914(2) 0.5635(2)
H2 H 0.7937 0.5647 0.5056
C6 C 0.8652(3) 0.6570(2) 0.64695(19)
C7 C 0.6142(3) 0.6878(2) 0.8278(2)
H3 H 0.6993 0.7212 0.8897
C8 C 0.5649(4) 0.5713(3) 0.8651(2)
H4 H 0.4730 0.5424 0.8092
H5 H 0.5449 0.5845 0.9328
H6 H 0.6451 0.5120 0.8772
C9 C 0.4859(3) 0.7795(3) 0.7957(2)
H7 H 0.4027 0.7499 0.7331
H8 H 0.5229 0.8548 0.7767
H9 H 0.4501 0.7922 0.8568
C10 C 0.5129(3) 0.4912(2) 0.4674(2)
H10 H 0.5739 0.4569 0.4254
C11 C 0.4401(4) 0.3881(3) 0.5065(3)
H11 H 0.5183 0.3415 0.5602
H12 H 0.3862 0.3372 0.4447
H13 H 0.3690 0.4192 0.5396
C12 C 0.3930(4) 0.5678(3) 0.3915(3)
H14 H 0.3325 0.5203 0.3291
H15 H 0.4401 0.6338 0.3662
H16 H 0.3279 0.5993 0.4295
C13 C 1.0204(3) 0.6786(2) 0.6381(2)
H17 H 1.0922 0.6965 0.7125
C14 C 1.0167(3) 0.7867(3) 0.5666(2)
H18 H 1.1162 0.7979 0.5601
H19 H 0.9898 0.8576 0.5995
H20 H 0.9416 0.7739 0.4944
C15 C 1.0797(3) 0.5699(3) 0.5957(3)
H21 H 1.0667 0.4990 0.6350
H22 H 1.1870 0.5809 0.6069
H23 H 1.0236 0.5601 0.5181
C16 C 1.0747(3) 0.6036(2) 0.9367(2)
H24 H 1.0485 0.5785 0.8600
H25 H 1.0550 0.5363 0.9787
C17 C 1.2405(3) 0.6408(3) 0.9831(3)
H26 H 1.2999 0.5812 1.0360
H27 H 1.2836 0.6485 0.9243
C18 C 1.2431(3) 0.7604(2) 1.0385(2)
H28 H 1.2682 0.8254 0.9966
H29 H 1.3182 0.7600 1.1128
C19 C 1.0824(2) 0.7760(2) 1.04152(18)
H30 H 1.0541 0.8620 1.0351
C20 C 1.0676(3) 0.7236(2) 1.14508(19)
H31 H 1.1250 0.6471 1.1608
C21 C 0.9090(3) 0.6989(2) 1.14528(19)
H32 H 0.8612 0.6440 1.0830
C22 C 0.9127(3) 0.6317(3) 1.2477(2)
H33 H 0.9738 0.5587 1.2549
H34 H 0.9611 0.6821 1.3121
C23 C 0.7549(4) 0.5986(3) 1.2435(3)
H35 H 0.7603 0.5580 1.3117
H36 H 0.7096 0.5428 1.1827
C24 C 0.6559(4) 0.7090(4) 1.2282(3)
H37 H 0.5528 0.6851 1.2232
H38 H 0.6968 0.7618 1.2919
C25 C 0.6492(3) 0.7761(3) 1.1262(2)
H39 H 0.5899 0.8499 1.1209
H40 H 0.5972 0.7265 1.0618
C26 C 0.8075(3) 0.8080(2) 1.1262(2)
H41 H 0.7993 0.8444 1.0557
H42 H 0.8535 0.8673 1.1838
loop_
_geom_bond_atom_site_label_1
_geom_bond_atom_site_label_2
_geom_bond_site_symmetry_1
_geom_bond_site_symmetry_2
Br1 C20 1_555 1_555
S1 O1 1_555 1_555
O2 S1 1_555 1_555
N1 S1 1_555 1_555
C1 S1 1_555 1_555
C2 C1 1_555 1_555
C3 C2 1_555 1_555
H1 C3 1_555 1_555
C4 C3 1_555 1_555
C5 C4 1_555 1_555
H2 C5 1_555 1_555
C6 C1 1_555 1_555
C7 C2 1_555 1_555
H3 C7 1_555 1_555
C8 C7 1_555 1_555
H4 C8 1_555 1_555
H5 C8 1_555 1_555
H6 C8 1_555 1_555
C9 C7 1_555 1_555
H7 C9 1_555 1_555
H8 C9 1_555 1_555
H9 C9 1_555 1_555
C10 C4 1_555 1_555
H10 C10 1_555 1_555
C11 C10 1_555 1_555
H11 C11 1_555 1_555
H12 C11 1_555 1_555
H13 C11 1_555 1_555
C12 C10 1_555 1_555
H14 C12 1_555 1_555
H15 C12 1_555 1_555
H16 C12 1_555 1_555
C13 C6 1_555 1_555
H17 C13 1_555 1_555
C14 C13 1_555 1_555
H18 C14 1_555 1_555
H19 C14 1_555 1_555
H20 C14 1_555 1_555
C15 C13 1_555 1_555
H21 C15 1_555 1_555
H22 C15 1_555 1_555
H23 C15 1_555 1_555
C16 N1 1_555 1_555
H24 C16 1_555 1_555
H25 C16 1_555 1_555
C17 C16 1_555 1_555
H26 C17 1_555 1_555
H27 C17 1_555 1_555
C18 C17 1_555 1_555
H28 C18 1_555 1_555
H29 C18 1_555 1_555
C19 N1 1_555 1_555
H30 C19 1_555 1_555
C20 C19 1_555 1_555
H31 C20 1_555 1_555
C21 C20 1_555 1_555
H32 C21 1_555 1_555
C22 C21 1_555 1_555
H33 C22 1_555 1_555
H34 C22 1_555 1_555
C23 C22 1_555 1_555
H35 C23 1_555 1_555
H36 C23 1_555 1_555
C24 C23 1_555 1_555
H37 C24 1_555 1_555
H38 C24 1_555 1_555
C25 C24 1_555 1_555
H39 C25 1_555 1_555
H40 C25 1_555 1_555
C26 C21 1_555 1_555
H41 C26 1_555 1_555
H42 C26 1_555 1_555
C5 C6 1_555 1_555
C18 C19 1_555 1_555
C25 C26 1_555 1_555

#END
