
#######################################################################
#
#                 Cambridge Crystallographic Data Centre
#                                CCDC 
#
#######################################################################
#
# If this CIF has been generated from an entry in the Cambridge 
# Structural Database, then it will include bibliographic, chemical, 
# crystal, experimental, refinement or atomic coordinate data resulting 
# from the CCDC's data processing and validation procedures.
#
#######################################################################

data_BAMZIA
_chemical_formula_moiety         
'C33 H37 N1 O12,C26 H24 N2 2+,2(F6 P1 1-),C2 H3 N1'
_chemical_name_systematic        
'5,8,11,14,21,24,27,30,34,42-decaoxa-44-azapentacyclo-[16.14.11.1^36,40^.0^4,31^.0^15,20^]tetratetraconta-1,3,15,17,19,31,36(44),37,39-nonaene-35,41-dione 1-benzyl-4-(2-(1-benzylpyridin-4(1H)-ylidene)ethylidene)-1,4-dihydropyridinium clathrate bis(hexafluorophosphate) acetonitrile solvate'
_symmetry_cell_setting           triclinic
_symmetry_space_group_name_H-M   'P -1'
_symmetry_Int_Tables_number      2
_space_group_name_Hall           '-P 1'
loop_
_symmetry_equiv_pos_site_id
_symmetry_equiv_pos_as_xyz
1 x,y,z
2 -x,-y,-z
_cell_length_a                   10.6512(4)
_cell_length_b                   16.4297(6)
_cell_length_c                   17.8203(7)
_cell_angle_alpha                76.573(3)
_cell_angle_beta                 79.336(3)
_cell_angle_gamma                85.849(3)
_cell_volume                     2979.44
_exptl_crystal_colour            yellow
_exptl_crystal_description       platelet
_cell_formula_units_Z            2
loop_
_atom_site_label
_atom_site_type_symbol
_atom_site_fract_x
_atom_site_fract_y
_atom_site_fract_z
P1 P 0.81462(7) 0.13945(4) 0.31464(4)
F1 F 0.77109(15) 0.12900(10) 0.40776(9)
F2 F 0.71524(17) 0.07020(11) 0.31664(11)
F3 F 0.91329(17) 0.20872(11) 0.31397(10)
F4 F 0.70597(18) 0.21097(11) 0.30083(12)
F5 F 0.92215(16) 0.06733(11) 0.33111(11)
F6 F 0.8568(2) 0.14917(13) 0.22279(11)
P2 P 0.70025(7) 0.53718(4) 0.06638(4)
F7 F 0.55875(18) 0.50552(15) 0.09996(13)
F8 F 0.7401(2) 0.45001(13) 0.04245(15)
F9 F 0.6561(3) 0.62226(15) 0.09053(17)
F10 F 0.6576(2) 0.57025(14) -0.01624(11)
F11 F 0.7401(2) 0.50325(19) 0.14999(13)
F12 F 0.8426(2) 0.56405(18) 0.03539(17)
O1 O 0.14020(16) 0.54060(11) 0.20914(10)
O2 O 0.42188(16) 0.94531(11) 0.17661(11)
O3 O 0.35511(17) 0.65844(11) 0.48266(10)
O4 O -0.12838(17) 0.58028(11) 0.55203(10)
O5 O 0.56626(17) 1.02401(11) 0.08616(12)
O6 O -0.08431(17) 0.63749(11) 0.24969(10)
O7 O -0.08154(18) 1.06355(12) 0.05403(12)
O8 O 0.11828(17) 0.60040(11) 0.57991(10)
O9 O 0.37471(17) 0.52322(11) 0.25196(11)
O10 O -0.01463(16) 0.96695(11) 0.15100(11)
O11 O 0.45436(18) 0.61657(11) 0.35178(11)
O12 O -0.19315(17) 0.63194(11) 0.39362(10)
N1 N 0.23004(19) 1.01774(13) 0.09953(12)
C1 C -0.1179(2) 0.78902(16) 0.21296(15)
H1 H -0.0821 0.7906 0.1609
C2 C -0.0247(2) 0.63935(16) 0.17003(15)
H2 H 0.0388 0.6823 0.1527
H3 H -0.0884 0.6525 0.1361
C3 C 0.3477(2) 1.04827(15) 0.07436(15)
C4 C 0.4564(2) 1.00499(15) 0.11196(15)
C5 C -0.1293(2) 0.71274(15) 0.26671(15)
C6 C -0.1595(2) 0.86363(16) 0.23605(15)
C7 C 0.0024(2) 1.03091(16) 0.08862(16)
C8 C 0.3942(2) 0.80661(17) 0.42537(17)
H4 H 0.3621 0.8217 0.4726
C9 C 0.3993(2) 0.72282(16) 0.42149(15)
C10 C 0.1371(2) 1.06076(16) 0.06437(15)
C11 C -0.1886(2) 0.70990(16) 0.34468(15)
C12 C 0.4512(2) 0.70041(16) 0.35049(16)
C13 C 0.3049(3) 0.67985(17) 0.55617(16)
H5 H 0.2491 0.7293 0.5481
H6 H 0.3743 0.6921 0.5799
C14 C 0.4835(2) 0.84675(17) 0.28820(17)
C15 C 0.3752(3) 1.12005(17) 0.01600(16)
H7 H 0.4587 1.1379 -0.0002
C16 C -0.2314(2) 0.78374(16) 0.36706(15)
H8 H -0.2711 0.7824 0.4184
C17 C 0.3160(3) 0.45111(16) 0.24629(17)
H9 H 0.2698 0.4243 0.2973
H10 H 0.3807 0.4116 0.2289
C18 C -0.1497(2) 0.94517(16) 0.17709(16)
H11 H -0.1871 0.9408 0.1326
H12 H -0.1966 0.9888 0.2002
C19 C -0.2153(2) 0.86032(16) 0.31279(16)
H13 H -0.2426 0.9097 0.3287
C20 C 0.4368(2) 0.86789(17) 0.35913(17)
H14 H 0.4339 0.9237 0.3625
C21 C -0.0640(3) 0.51430(16) 0.59962(15)
H15 H -0.0174 0.4779 0.5675
H16 H -0.1262 0.4812 0.6396
C22 C 0.2316(3) 0.60765(17) 0.60917(16)
H17 H 0.2833 0.5564 0.6109
H18 H 0.2098 0.6170 0.6619
C23 C 0.2774(3) 1.16464(18) -0.01776(17)
H19 H 0.2931 1.2137 -0.0561
C24 C 0.2254(3) 0.47551(18) 0.18888(17)
H20 H 0.2732 0.4944 0.1364
H21 H 0.1772 0.4274 0.1894
C25 C 0.4873(2) 0.50475(17) 0.28594(16)
H22 H 0.5509 0.4759 0.2542
H23 H 0.4678 0.4693 0.3381
C26 C 0.4927(2) 0.76247(17) 0.28489(16)
H24 H 0.5274 0.7477 0.2379
C27 C 0.0271(3) 0.54990(17) 0.63753(15)
H25 H -0.0203 0.5835 0.6721
H26 H 0.0712 0.5046 0.6689
C28 C 0.0374(3) 0.55574(16) 0.16543(15)
H27 H -0.0249 0.5124 0.1866
H28 H 0.0699 0.5543 0.1112
C29 C -0.2282(2) 0.54871(17) 0.52397(15)
H29 H -0.2952 0.5270 0.5674
H30 H -0.1947 0.5035 0.4986
C30 C -0.2810(3) 0.61809(18) 0.46705(16)
H31 H -0.3636 0.6034 0.4595
H32 H -0.2921 0.6687 0.4870
C31 C 0.1556(3) 1.13446(17) 0.00693(16)
H33 H 0.0872 1.1628 -0.0144
C32 C 0.5361(3) 0.58650(18) 0.28953(17)
H34 H 0.6232 0.5791 0.2995
H35 H 0.5355 0.6265 0.2401
C33 C 0.5299(2) 0.91171(17) 0.21658(17)
H36 H 0.5679 0.9565 0.2310
H37 H 0.5947 0.8873 0.1817
N2 N 0.04395(19) 0.82091(14) 0.44495(13)
N3 N 0.3782(2) 0.73467(13) -0.05105(13)
C34 C -0.1556(3) 0.84589(18) 0.53614(16)
C35 C 0.3180(3) 0.80664(16) -0.04134(17)
H38 H 0.3056 0.8479 -0.0851
C36 C 0.3951(3) 0.67353(17) 0.01178(18)
H39 H 0.4365 0.6234 0.0047
C37 C 0.5397(3) 0.8453(2) -0.22560(17)
H40 H 0.4618 0.8637 -0.2410
C38 C 0.5466(3) 0.77267(18) -0.16877(16)
C39 C -0.4201(3) 0.8623(2) 0.56046(19)
H41 H -0.5088 0.8678 0.5686
C40 C 0.6636(3) 0.7469(2) -0.1461(2)
H42 H 0.6700 0.6984 -0.1077
C41 C 0.0755(3) 0.88541(19) 0.38355(18)
H43 H 0.0622 0.9401 0.3901
C42 C 0.6485(3) 0.89079(19) -0.25981(17)
H44 H 0.6433 0.9395 -0.2982
C43 C 0.7636(3) 0.86433(19) -0.23732(19)
H45 H 0.8365 0.8947 -0.2607
C44 C 0.2747(3) 0.8204(2) 0.0314(2)
H46 H 0.2345 0.8714 0.0369
C45 C -0.3469(3) 0.9275(2) 0.51385(19)
H47 H -0.3864 0.9768 0.4906
C46 C 0.2899(3) 0.7596(3) 0.09705(19)
C47 C -0.2296(3) 0.78079(19) 0.58240(17)
H48 H -0.1905 0.7311 0.6053
C48 C -0.0116(3) 0.8372(2) 0.52300(18)
H49 H 0.0230 0.8882 0.5282
H50 H 0.0138 0.7917 0.5633
C49 C -0.3616(3) 0.7895(2) 0.59462(18)
H51 H -0.4109 0.7458 0.6261
C50 C 0.3516(3) 0.6851(2) 0.08568(18)
H52 H 0.3635 0.6426 0.1287
C51 C -0.2153(3) 0.9195(2) 0.50183(18)
H53 H -0.1664 0.9635 0.4706
C52 C 0.1269(3) 0.8708(3) 0.31192(19)
H54 H 0.1471 0.9158 0.2697
C53 C 0.0609(3) 0.74222(18) 0.43577(19)
H55 H 0.0365 0.6980 0.4781
C54 C 0.4281(3) 0.7229(2) -0.13159(18)
H56 H 0.3625 0.7403 -0.1637
H57 H 0.4482 0.6639 -0.1295
C55 C 0.7708(3) 0.7937(2) -0.1808(2)
H58 H 0.8488 0.7764 -0.1652
C56 C 0.1136(3) 0.7266(3) 0.3646(3)
H59 H 0.1254 0.6715 0.3593
C57 C 0.1498(3) 0.7899(4) 0.3009(2)
C60 C 0.2337(5) 0.7976(4) 0.1651(4)
H63 H 0.2158 0.8548 0.1581
C61 C 0.2100(5) 0.7464(3) 0.2361(3)
H64 H 0.2289 0.6892 0.2449
N4 N 0.9319(3) 0.28519(17) 0.01252(17)
C58 C 0.9452(3) 0.31493(18) 0.06163(19)
C59 C 0.9625(4) 0.3536(2) 0.1244(2)
H60 H 1.0486 0.3720 0.1153
H61 H 0.9461 0.3136 0.1735
H62 H 0.9041 0.4008 0.1258
C62? C 0.2468(5) 0.7435(4) 0.1854(3)
C63? C 0.1985(5) 0.8098(3) 0.2106(4)
H65? H 0.2542 0.6912 0.2185
H66? H 0.1937 0.8628 0.1783
loop_
_geom_bond_atom_site_label_1
_geom_bond_atom_site_label_2
_geom_bond_site_symmetry_1
_geom_bond_site_symmetry_2
P1 F1 1_555 1_555
F2 P1 1_555 1_555
F3 P1 1_555 1_555
F4 P1 1_555 1_555
F5 P1 1_555 1_555
F6 P1 1_555 1_555
P2 F7 1_555 1_555
F8 P2 1_555 1_555
F9 P2 1_555 1_555
F10 P2 1_555 1_555
F11 P2 1_555 1_555
F12 P2 1_555 1_555
O1 C24 1_555 1_555
O2 C4 1_555 1_555
O3 C9 1_555 1_555
O4 C21 1_555 1_555
O5 C4 1_555 1_555
O6 C2 1_555 1_555
O7 C7 1_555 1_555
O8 C22 1_555 1_555
O9 C17 1_555 1_555
O10 C7 1_555 1_555
O11 C12 1_555 1_555
O12 C11 1_555 1_555
N1 C3 1_555 1_555
C1 H1 1_555 1_555
C2 H2 1_555 1_555
H3 C2 1_555 1_555
C3 C4 1_555 1_555
C5 O6 1_555 1_555
C6 C1 1_555 1_555
C7 C10 1_555 1_555
C8 H4 1_555 1_555
C9 C8 1_555 1_555
C10 N1 1_555 1_555
C11 C5 1_555 1_555
C12 C9 1_555 1_555
C13 O3 1_555 1_555
H5 C13 1_555 1_555
H6 C13 1_555 1_555
C14 C20 1_555 1_555
C15 C3 1_555 1_555
H7 C15 1_555 1_555
C16 C11 1_555 1_555
H8 C16 1_555 1_555
C17 H9 1_555 1_555
H10 C17 1_555 1_555
C18 O10 1_555 1_555
H11 C18 1_555 1_555
H12 C18 1_555 1_555
C19 C6 1_555 1_555
H13 C19 1_555 1_555
C20 C8 1_555 1_555
H14 C20 1_555 1_555
C21 H15 1_555 1_555
H16 C21 1_555 1_555
C22 C13 1_555 1_555
H17 C22 1_555 1_555
H18 C22 1_555 1_555
C23 C15 1_555 1_555
H19 C23 1_555 1_555
C24 C17 1_555 1_555
H20 C24 1_555 1_555
H21 C24 1_555 1_555
C25 O9 1_555 1_555
H22 C25 1_555 1_555
H23 C25 1_555 1_555
C26 C12 1_555 1_555
H24 C26 1_555 1_555
C27 O8 1_555 1_555
H25 C27 1_555 1_555
H26 C27 1_555 1_555
C28 O1 1_555 1_555
H27 C28 1_555 1_555
H28 C28 1_555 1_555
C29 O4 1_555 1_555
H29 C29 1_555 1_555
H30 C29 1_555 1_555
C30 O12 1_555 1_555
H31 C30 1_555 1_555
H32 C30 1_555 1_555
C31 C10 1_555 1_555
H33 C31 1_555 1_555
C32 O11 1_555 1_555
H34 C32 1_555 1_555
H35 C32 1_555 1_555
C33 O2 1_555 1_555
H36 C33 1_555 1_555
H37 C33 1_555 1_555
N2 C41 1_555 1_555
N3 C35 1_555 1_555
C34 C47 1_555 1_555
C35 H38 1_555 1_555
C36 N3 1_555 1_555
H39 C36 1_555 1_555
C37 H40 1_555 1_555
C38 C37 1_555 1_555
C39 H41 1_555 1_555
C40 C38 1_555 1_555
H42 C40 1_555 1_555
C41 H43 1_555 1_555
C42 C37 1_555 1_555
H44 C42 1_555 1_555
C43 C42 1_555 1_555
H45 C43 1_555 1_555
C44 C35 1_555 1_555
H46 C44 1_555 1_555
C45 C39 1_555 1_555
H47 C45 1_555 1_555
C46 C44 1_555 1_555
C47 H48 1_555 1_555
C48 N2 1_555 1_555
H49 C48 1_555 1_555
H50 C48 1_555 1_555
C49 C39 1_555 1_555
H51 C49 1_555 1_555
C50 C36 1_555 1_555
H52 C50 1_555 1_555
C51 C34 1_555 1_555
H53 C51 1_555 1_555
C52 C41 1_555 1_555
H54 C52 1_555 1_555
C53 N2 1_555 1_555
H55 C53 1_555 1_555
C54 N3 1_555 1_555
H56 C54 1_555 1_555
H57 C54 1_555 1_555
C55 C40 1_555 1_555
H58 C55 1_555 1_555
C56 C53 1_555 1_555
H59 C56 1_555 1_555
C57 C52 1_555 1_555
N4 C58 1_555 1_555
C58 C59 1_555 1_555
C59 H60 1_555 1_555
H61 C59 1_555 1_555
H62 C59 1_555 1_555
C60 C46 1_555 1_555
H63 C60 1_555 1_555
C61 C57 1_555 1_555
H64 C61 1_555 1_555
C1 C5 1_555 1_555
C2 C28 1_555 1_555
C6 C18 1_555 1_555
C14 C26 1_555 1_555
C14 C33 1_555 1_555
C16 C19 1_555 1_555
C21 C27 1_555 1_555
C23 C31 1_555 1_555
C25 C32 1_555 1_555
C29 C30 1_555 1_555
C34 C48 1_555 1_555
C38 C54 1_555 1_555
C43 C55 1_555 1_555
C45 C51 1_555 1_555
C46 C50 1_555 1_555
C47 C49 1_555 1_555
C56 C57 1_555 1_555
C60 C61 1_555 1_555

#END
