
#######################################################################
#
#                 Cambridge Crystallographic Data Centre
#                                CCDC 
#
#######################################################################
#
# If this CIF has been generated from an entry in the Cambridge 
# Structural Database, then it will include bibliographic, chemical, 
# crystal, experimental, refinement or atomic coordinate data resulting 
# from the CCDC's data processing and validation procedures.
#
#######################################################################

data_BANCOK
_chemical_formula_moiety         'C22 H25 N1 O5 S1'
_chemical_name_systematic        
2-(3-Acetyl-3-hydroxy-1-((4-methylphenyl)sulfonyl)piperidin-4-yl)-1-phenylethanone
_symmetry_cell_setting           monoclinic
_symmetry_space_group_name_H-M   'P 21/c'
_symmetry_Int_Tables_number      14
_space_group_name_Hall           '-P 2ybc'
loop_
_symmetry_equiv_pos_site_id
_symmetry_equiv_pos_as_xyz
1 x,y,z
2 -x,1/2+y,1/2-z
3 -x,-y,-z
4 x,1/2-y,1/2+z
_cell_length_a                   24.901(17)
_cell_length_b                   7.639(5)
_cell_length_c                   11.230(8)
_cell_angle_alpha                90
_cell_angle_beta                 100.741(9)
_cell_angle_gamma                90
_cell_volume                     2098.73
_exptl_crystal_colour            colorless
_exptl_crystal_description       block
_cell_formula_units_Z            4
loop_
_atom_site_label
_atom_site_type_symbol
_atom_site_fract_x
_atom_site_fract_y
_atom_site_fract_z
C1 C 0.99479(19) 0.7668(7) 0.9595(4)
H1 H 0.9767 0.8376 1.0067
C2 C 1.0511(2) 0.7691(7) 0.9773(5)
H2 H 1.0706 0.8413 1.0367
C3 C 1.0785(2) 0.6673(7) 0.9092(5)
H3 H 1.1165 0.6701 0.9215
C4 C 1.0494(2) 0.5606(8) 0.8223(5)
H4 H 1.0679 0.4907 0.7753
C5 C 0.99311(18) 0.5554(7) 0.8037(4)
H5 H 0.9740 0.4814 0.7449
C6 C 0.96479(17) 0.6590(6) 0.8714(4)
C7 C 0.90402(18) 0.6697(7) 0.8506(4)
C8 C 0.87029(17) 0.5250(7) 0.7829(4)
H6 H 0.8699 0.4264 0.8372
H7 H 0.8877 0.4866 0.7169
C9 C 0.81140(16) 0.5773(6) 0.7311(4)
H8 H 0.7968 0.6399 0.7942
C10 C 0.80935(17) 0.7000(7) 0.6230(4)
H9 H 0.8297 0.8056 0.6496
H10 H 0.8268 0.6436 0.5629
C11 C 0.75152(18) 0.7486(6) 0.5657(4)
H11 H 0.7350 0.8162 0.6225
H12 H 0.7518 0.8199 0.4943
C12 C 0.71657(17) 0.4761(6) 0.6371(4)
H13 H 0.6937 0.3750 0.6119
H14 H 0.7008 0.5407 0.6966
C13 C 0.77484(16) 0.4171(6) 0.6923(4)
C14 C 0.77108(17) 0.3023(6) 0.8032(4)
C15 C 0.7862(3) 0.1146(8) 0.8013(5)
H15 H 0.7879 0.0653 0.8805
H16 H 0.8213 0.1038 0.7781
H17 H 0.7593 0.0533 0.7440
C16 C 0.62231(18) 0.7606(7) 0.4903(4)
C17 C 0.5889(2) 0.7006(9) 0.5664(5)
H18 H 0.5852 0.5815 0.5803
C18 C 0.5607(2) 0.8255(12) 0.6220(6)
H19 H 0.5379 0.7868 0.6734
C19 C 0.5650(3) 1.0002(12) 0.6045(6)
C20 C 0.5981(3) 1.0569(9) 0.5275(7)
H20 H 0.6010 1.1761 0.5132
C21 C 0.6271(2) 0.9397(8) 0.4709(5)
H21 H 0.6499 0.9799 0.4199
C22 C 0.5351(3) 1.1274(12) 0.6721(7)
H22 H 0.5012 1.0763 0.6836
H23 H 0.5278 1.2335 0.6261
H24 H 0.5573 1.1533 0.7496
N1 N 0.71955(13) 0.5885(5) 0.5316(3)
O1 O 0.88199(13) 0.7939(5) 0.8895(3)
O2 O 0.79858(12) 0.3182(5) 0.6085(3)
H25 H 0.7744 0.2795 0.5555
O3 O 0.75648(14) 0.3680(5) 0.8901(3)
O4 O 0.63739(15) 0.4460(5) 0.4165(3)
O5 O 0.68051(14) 0.6941(6) 0.3274(3)
S1 S 0.66379(5) 0.6126(2) 0.42936(11)
loop_
_geom_bond_atom_site_label_1
_geom_bond_atom_site_label_2
_geom_bond_site_symmetry_1
_geom_bond_site_symmetry_2
C1 H1 1_555 1_555
C2 C1 1_555 1_555
H2 C2 1_555 1_555
C3 C2 1_555 1_555
H3 C3 1_555 1_555
C4 C3 1_555 1_555
H4 C4 1_555 1_555
C5 C4 1_555 1_555
H5 C5 1_555 1_555
C6 C1 1_555 1_555
C7 C6 1_555 1_555
C8 C7 1_555 1_555
H6 C8 1_555 1_555
H7 C8 1_555 1_555
C9 C8 1_555 1_555
H8 C9 1_555 1_555
C10 C9 1_555 1_555
H9 C10 1_555 1_555
H10 C10 1_555 1_555
C11 C10 1_555 1_555
H11 C11 1_555 1_555
H12 C11 1_555 1_555
C12 H13 1_555 1_555
H14 C12 1_555 1_555
C13 C9 1_555 1_555
C14 C13 1_555 1_555
C15 C14 1_555 1_555
H15 C15 1_555 1_555
H16 C15 1_555 1_555
H17 C15 1_555 1_555
C16 C17 1_555 1_555
C17 H18 1_555 1_555
C18 C17 1_555 1_555
H19 C18 1_555 1_555
C19 C18 1_555 1_555
C20 C19 1_555 1_555
H20 C20 1_555 1_555
C21 C16 1_555 1_555
H21 C21 1_555 1_555
C22 C19 1_555 1_555
H22 C22 1_555 1_555
H23 C22 1_555 1_555
H24 C22 1_555 1_555
N1 C11 1_555 1_555
O1 C7 1_555 1_555
O2 C13 1_555 1_555
H25 O2 1_555 1_555
O3 C14 1_555 1_555
O4 S1 1_555 1_555
O5 S1 1_555 1_555
S1 C16 1_555 1_555
C5 C6 1_555 1_555
C12 C13 1_555 1_555
C12 N1 1_555 1_555
C20 C21 1_555 1_555
N1 S1 1_555 1_555

#END
