
#######################################################################
#
#                 Cambridge Crystallographic Data Centre
#                                CCDC 
#
#######################################################################
#
# If this CIF has been generated from an entry in the Cambridge 
# Structural Database, then it will include bibliographic, chemical, 
# crystal, experimental, refinement or atomic coordinate data resulting 
# from the CCDC's data processing and validation procedures.
#
#######################################################################

data_BANDUR
_chemical_formula_moiety         'C10 H12 I1 N1 O4,4(H2 O1)'
_chemical_name_systematic        
'1-Hydroxy-3-oxo-5-(trimethylammonio)-1,3-dihydro-1\l^5^,2-benziodoxol-1-olate tetrahydrate'
_symmetry_cell_setting           triclinic
_symmetry_space_group_name_H-M   'P -1'
_symmetry_Int_Tables_number      2
_space_group_name_Hall           '-P 1'
loop_
_symmetry_equiv_pos_site_id
_symmetry_equiv_pos_as_xyz
1 x,y,z
2 -x,-y,-z
_cell_length_a                   6.5210(13)
_cell_length_b                   10.286(2)
_cell_length_c                   11.533(2)
_cell_angle_alpha                101.72(3)
_cell_angle_beta                 97.37(3)
_cell_angle_gamma                105.03(3)
_cell_volume                     718.019
_cell_formula_units_Z            2
loop_
_atom_site_label
_atom_site_type_symbol
_atom_site_fract_x
_atom_site_fract_y
_atom_site_fract_z
I1 I 0.18468(2) 0.670064(14) 0.585725(14)
O1 O 0.1637(3) 0.76367(17) 0.40232(17)
O2 O 0.2099(3) 0.96517(17) 0.35046(16)
O3 O -0.1083(3) 0.60891(18) 0.54462(17)
O4 O 0.2177(3) 0.64319(17) 0.73571(16)
N1 N 0.4297(3) 1.32219(19) 0.77336(19)
C1 C 0.2355(4) 0.8868(2) 0.6438(2)
C2 C 0.2692(4) 0.9443(3) 0.7653(2)
H1 H 0.2534 0.8880 0.8193
C3 C 0.3274(4) 1.0882(3) 0.8069(2)
H2 H 0.3497 1.1297 0.8888
C4 C 0.3514(4) 1.1681(2) 0.7235(2)
C5 C 0.3082(4) 1.1092(2) 0.6012(2)
H3 H 0.3198 1.1654 0.5472
C6 C 0.2474(4) 0.9663(2) 0.5591(2)
C7 C 0.2043(4) 0.8955(2) 0.4259(2)
C8 C 0.2622(4) 1.3694(3) 0.8354(2)
H4 H 0.3097 1.4687 0.8642
H5 H 0.2430 1.3280 0.9022
H6 H 0.1274 1.3415 0.7793
C9 C 0.4713(5) 1.3998(2) 0.6779(2)
H7 H 0.5686 1.3660 0.6325
H8 H 0.5348 1.4970 0.7151
H9 H 0.3373 1.3860 0.6248
C10 C 0.6390(4) 1.3599(3) 0.8623(3)
H10 H 0.6968 1.4591 0.8885
H11 H 0.7407 1.3221 0.8243
H12 H 0.6129 1.3224 0.9306
O5 O 0.3663(3) 0.24156(17) 0.35749(17)
H13 H 0.307(3) 0.1545(6) 0.349(2)
H14 H 0.2882(16) 0.2934(9) 0.383(2)
O6 O 1.0249(3) 0.31427(19) 0.08226(17)
H15 H 0.949(3) 0.2399(10) 0.0317(9)
H16 H 0.983(2) 0.3366(19) 0.1479(9)
O7 O 0.1772(4) 0.9284(2) 0.09417(18)
H17 H 0.176(4) 0.9264(11) 0.1678(7)
H18 H 0.207(7) 1.0087(8) 0.0802(11)
O8 O 0.3913(3) 0.2230(2) 0.08862(18)
H19 H 0.4930(13) 0.262(2) 0.1493(11)
H20 H 0.2870(13) 0.2582(14) 0.083(2)
loop_
_geom_bond_atom_site_label_1
_geom_bond_atom_site_label_2
_geom_bond_site_symmetry_1
_geom_bond_site_symmetry_2
I1 O1 1_555 1_555
O1 C7 1_555 1_555
O2 C7 1_555 1_555
O3 I1 1_555 1_555
O4 I1 1_555 1_555
N1 C4 1_555 1_555
C1 I1 1_555 1_555
C2 C1 1_555 1_555
H1 C2 1_555 1_555
C3 C2 1_555 1_555
H2 C3 1_555 1_555
C4 C3 1_555 1_555
C5 C4 1_555 1_555
H3 C5 1_555 1_555
C6 C1 1_555 1_555
C7 C6 1_555 1_555
C8 N1 1_555 1_555
H4 C8 1_555 1_555
H5 C8 1_555 1_555
H6 C8 1_555 1_555
C9 N1 1_555 1_555
H7 C9 1_555 1_555
H8 C9 1_555 1_555
H9 C9 1_555 1_555
C10 N1 1_555 1_555
H10 C10 1_555 1_555
H11 C10 1_555 1_555
H12 C10 1_555 1_555
O5 H13 1_555 1_555
H14 O5 1_555 1_555
O6 H15 1_555 1_555
H16 O6 1_555 1_555
O7 H17 1_555 1_555
H18 O7 1_555 1_555
O8 H19 1_555 1_555
H20 O8 1_555 1_555
C5 C6 1_555 1_555

#END
