
#######################################################################
#
#                 Cambridge Crystallographic Data Centre
#                                CCDC 
#
#######################################################################
#
# If this CIF has been generated from an entry in the Cambridge 
# Structural Database, then it will include bibliographic, chemical, 
# crystal, experimental, refinement or atomic coordinate data resulting 
# from the CCDC's data processing and validation procedures.
#
#######################################################################

data_BANNOV
_chemical_formula_moiety         'C30 H48 O4'
_chemical_name_systematic        
'3,25-Dihydroxy-21,24-cyclolanost-8-en-26-oic acid'
_symmetry_cell_setting           orthorhombic
_symmetry_space_group_name_H-M   'P 21 21 21'
_symmetry_Int_Tables_number      19
_space_group_name_Hall           'P 2ac 2ab'
loop_
_symmetry_equiv_pos_site_id
_symmetry_equiv_pos_as_xyz
1 x,y,z
2 1/2-x,-y,1/2+z
3 -x,1/2+y,1/2-z
4 1/2+x,1/2-y,-z
_cell_length_a                   7.3827(6)
_cell_length_b                   11.7625(10)
_cell_length_c                   30.600(3)
_cell_angle_alpha                90
_cell_angle_beta                 90
_cell_angle_gamma                90
_cell_volume                     2657.27
_exptl_crystal_colour            colorless
_exptl_crystal_description       block
_cell_formula_units_Z            4
loop_
_atom_site_label
_atom_site_type_symbol
_atom_site_fract_x
_atom_site_fract_y
_atom_site_fract_z
C1 C 0.5722(4) 0.6227(3) 0.39333(9)
H1 H 0.4684 0.6628 0.3815
H2 H 0.5418 0.5425 0.3948
C2 C 0.6110(4) 0.6665(3) 0.43955(9)
H3 H 0.6329 0.7478 0.4383
H4 H 0.5052 0.6540 0.4577
C3 C 0.7708(4) 0.6096(3) 0.46008(9)
H5 H 0.7949 0.6490 0.4877
C4 C 0.9433(4) 0.6191(3) 0.43230(9)
C5 C 0.9007(4) 0.5816(2) 0.38445(8)
H6 H 0.8695 0.5008 0.3865
C6 C 1.0640(4) 0.5866(3) 0.35410(9)
H7 H 1.1688 0.5545 0.3687
H8 H 1.0909 0.6652 0.3470
C7 C 1.0263(4) 0.5208(3) 0.31222(9)
H9 H 1.1099 0.5463 0.2898
H10 H 1.0500 0.4408 0.3175
C8 C 0.8368(3) 0.5333(2) 0.29538(8)
C9 C 0.7039(3) 0.5815(2) 0.31776(8)
C10 C 0.7349(4) 0.6388(2) 0.36265(8)
C11 C 0.5142(4) 0.5912(3) 0.29953(9)
H11 H 0.4734 0.6687 0.3040
H12 H 0.4360 0.5424 0.3168
C12 C 0.4852(4) 0.5613(3) 0.25089(8)
H13 H 0.4257 0.4879 0.2489
H14 H 0.4060 0.6175 0.2378
C13 C 0.6616(3) 0.5571(2) 0.22547(8)
C14 C 0.7959(4) 0.4798(2) 0.25114(8)
C15 C 0.9503(4) 0.4661(3) 0.21833(9)
H15 H 1.0224 0.3993 0.2249
H16 H 1.0283 0.5325 0.2183
C16 C 0.8521(4) 0.4529(3) 0.17426(9)
H17 H 0.8513 0.3737 0.1654
H18 H 0.9138 0.4966 0.1519
C17 C 0.6565(4) 0.4963(2) 0.17989(8)
H19 H 0.5785 0.4294 0.1830
C18 C 0.7343(4) 0.6775(2) 0.22005(9)
H20 H 0.6507 0.7215 0.2029
H21 H 0.8494 0.6750 0.2055
H22 H 0.7485 0.7120 0.2483
C19 C 0.7594(5) 0.7662(3) 0.35196(10)
H23 H 0.6542 0.7937 0.3369
H24 H 0.8643 0.7760 0.3338
H25 H 0.7751 0.8082 0.3786
C20 C 0.5902(4) 0.5620(2) 0.14004(8)
H26 H 0.6716 0.6268 0.1356
C21 C 0.3943(4) 0.6077(3) 0.14147(9)
H27 H 0.3942 0.6879 0.1487
H28 H 0.3246 0.5673 0.1634
C22 C 0.5955(5) 0.4885(3) 0.09843(9)
H29 H 0.7174 0.4845 0.0867
H30 H 0.5529 0.4121 0.1044
C23 C 0.4711(6) 0.5486(3) 0.06736(10)
H31 H 0.4302 0.4973 0.0446
H32 H 0.5318 0.6128 0.0539
C24 C 0.3109(5) 0.5888(3) 0.09547(9)
H33 H 0.2251 0.5255 0.0977
C25 C 0.2088(5) 0.6904(3) 0.07658(10)
C26 C 0.1120(6) 0.6571(3) 0.03383(11)
C27 C 0.0620(5) 0.7325(3) 0.10744(11)
H34 H 0.1171 0.7676 0.1325
H35 H -0.0110 0.6695 0.1168
H36 H -0.0127 0.7870 0.0926
C28 C 1.0895(5) 0.5411(4) 0.45152(10)
H37 H 1.1997 0.5499 0.4352
H38 H 1.0497 0.4635 0.4499
H39 H 1.1105 0.5612 0.4815
C29 C 1.0164(6) 0.7405(3) 0.43650(10)
H40 H 1.0708 0.7502 0.4647
H41 H 0.9186 0.7936 0.4332
H42 H 1.1054 0.7538 0.4142
C30 C 0.7207(6) 0.3602(3) 0.26075(11)
H43 H 0.8097 0.3169 0.2764
H44 H 0.6927 0.3226 0.2337
H45 H 0.6128 0.3665 0.2781
O1 O 0.7289(4) 0.4942(2) 0.47073(7)
H46 H 0.7521 0.4533 0.4498
O2 O 0.3270(4) 0.7836(2) 0.06903(8)
H47 H 0.3851 0.7725 0.0466
O3 O 0.1209(6) 0.7156(3) 0.00157(10)
O4 O 0.0149(5) 0.5679(3) 0.03596(9)
H48 H -0.0473 0.5629 0.0139
loop_
_geom_bond_atom_site_label_1
_geom_bond_atom_site_label_2
_geom_bond_site_symmetry_1
_geom_bond_site_symmetry_2
C1 H1 1_555 1_555
H2 C1 1_555 1_555
C2 C1 1_555 1_555
H3 C2 1_555 1_555
H4 C2 1_555 1_555
C3 C2 1_555 1_555
H5 C3 1_555 1_555
C4 C3 1_555 1_555
C5 C4 1_555 1_555
H6 C5 1_555 1_555
C6 C5 1_555 1_555
H7 C6 1_555 1_555
H8 C6 1_555 1_555
C7 C6 1_555 1_555
H9 C7 1_555 1_555
H10 C7 1_555 1_555
C8 C7 1_555 1_555
C9 C8 1_555 1_555
C10 C1 1_555 1_555
C11 C9 1_555 1_555
H11 C11 1_555 1_555
H12 C11 1_555 1_555
C12 C11 1_555 1_555
H13 C12 1_555 1_555
H14 C12 1_555 1_555
C13 C12 1_555 1_555
C14 C8 1_555 1_555
C15 C14 1_555 1_555
H15 C15 1_555 1_555
H16 C15 1_555 1_555
C16 C15 1_555 1_555
H17 C16 1_555 1_555
H18 C16 1_555 1_555
C17 C13 1_555 1_555
H19 C17 1_555 1_555
C18 C13 1_555 1_555
H20 C18 1_555 1_555
H21 C18 1_555 1_555
H22 C18 1_555 1_555
C19 C10 1_555 1_555
H23 C19 1_555 1_555
H24 C19 1_555 1_555
H25 C19 1_555 1_555
C20 C17 1_555 1_555
H26 C20 1_555 1_555
C21 C20 1_555 1_555
H27 C21 1_555 1_555
H28 C21 1_555 1_555
C22 C20 1_555 1_555
H29 C22 1_555 1_555
H30 C22 1_555 1_555
C23 C22 1_555 1_555
H31 C23 1_555 1_555
H32 C23 1_555 1_555
C24 C21 1_555 1_555
H33 C24 1_555 1_555
C25 C24 1_555 1_555
C26 C25 1_555 1_555
C27 C25 1_555 1_555
H34 C27 1_555 1_555
H35 C27 1_555 1_555
H36 C27 1_555 1_555
C28 C4 1_555 1_555
H37 C28 1_555 1_555
H38 C28 1_555 1_555
H39 C28 1_555 1_555
C29 C4 1_555 1_555
H40 C29 1_555 1_555
H41 C29 1_555 1_555
H42 C29 1_555 1_555
C30 C14 1_555 1_555
H43 C30 1_555 1_555
H44 C30 1_555 1_555
H45 C30 1_555 1_555
O1 C3 1_555 1_555
H46 O1 1_555 1_555
O2 C25 1_555 1_555
H47 O2 1_555 1_555
O3 C26 1_555 1_555
O4 C26 1_555 1_555
H48 O4 1_555 1_555
C5 C10 1_555 1_555
C9 C10 1_555 1_555
C13 C14 1_555 1_555
C16 C17 1_555 1_555
C23 C24 1_555 1_555

#END
