
#######################################################################
#
#                 Cambridge Crystallographic Data Centre
#                                CCDC 
#
#######################################################################
#
# If this CIF has been generated from an entry in the Cambridge 
# Structural Database, then it will include bibliographic, chemical, 
# crystal, experimental, refinement or atomic coordinate data resulting 
# from the CCDC's data processing and validation procedures.
#
#######################################################################

data_BAPLOT05
_chemical_name_common            Theophylline
_chemical_formula_moiety         'C7 H8 N4 O2'
_chemical_name_systematic        1,3-Dimethyl-3,7-dihydro-1H-purine-2,6-dione
_chemical_properties_biological  
'asthema therapeutic, antiinflammatory, increases blood pressure, suspected anosmia treatment, muscle relaxant, vasodilator'
_symmetry_cell_setting           orthorhombic
_symmetry_space_group_name_H-M   'P n a 21'
_symmetry_Int_Tables_number      33
_space_group_name_Hall           'P 2c -2n'
loop_
_symmetry_equiv_pos_site_id
_symmetry_equiv_pos_as_xyz
1 x,y,z
2 -x,-y,1/2+z
3 1/2-x,1/2+y,1/2+z
4 1/2+x,1/2-y,z
_cell_length_a                   13.087(2)
_cell_length_b                   15.579(3)
_cell_length_c                   3.8629(6)
_cell_angle_alpha                90
_cell_angle_beta                 90
_cell_angle_gamma                90
_cell_volume                     787.577
_exptl_crystal_colour            colorless
_exptl_crystal_description       prism
_cell_formula_units_Z            4
loop_
_atom_site_label
_atom_site_type_symbol
_atom_site_fract_x
_atom_site_fract_y
_atom_site_fract_z
C1 C 0.9805(3) 0.7303(2) 0.4820(9)
O1 O 0.73673(19) 0.8176(2) 0.9924(8)
O2 O 1.0342(2) 0.87468(18) 0.4142(7)
N1 N 1.0538(2) 0.6790(2) 0.3323(7)
N2 N 0.8223(2) 0.7028(2) 0.7751(8)
C2 C 0.8102(3) 0.7887(3) 0.8301(9)
N3 N 0.9320(2) 0.5913(2) 0.5357(8)
C3 C 0.9739(2) 0.8205(2) 0.5205(9)
C4 C 0.9086(3) 0.6747(3) 0.6030(9)
N4 N 0.8837(2) 0.8443(2) 0.7017(8)
C5 C 1.0216(3) 0.5977(3) 0.3696(9)
H1 H 1.0579 0.5505 0.2883
C6 C 0.7467(3) 0.6411(3) 0.9047(10)
H2 H 0.7260 0.6573 1.1340
H3 H 0.7765 0.5848 0.9105
H4 H 0.6883 0.6408 0.7545
C7 C 0.8674(3) 0.9365(3) 0.7592(11)
H5 H 0.7996 0.9518 0.6869
H6 H 0.9164 0.9687 0.6275
H7 H 0.8755 0.9492 1.0008
H8 H 1.116(4) 0.696(4) 0.252(17)
loop_
_geom_bond_atom_site_label_1
_geom_bond_atom_site_label_2
_geom_bond_site_symmetry_1
_geom_bond_site_symmetry_2
C1 N1 1_555 1_555
O1 C2 1_555 1_555
O2 C3 1_555 1_555
N1 C5 1_555 1_555
N2 C2 1_555 1_555
C2 N4 1_555 1_555
N3 C4 1_555 1_555
C3 C1 1_555 1_555
C4 C1 1_555 1_555
N4 C3 1_555 1_555
C5 N3 1_555 1_555
H1 C5 1_555 1_555
C6 N2 1_555 1_555
H2 C6 1_555 1_555
H3 C6 1_555 1_555
H4 C6 1_555 1_555
C7 N4 1_555 1_555
H5 C7 1_555 1_555
H6 C7 1_555 1_555
H7 C7 1_555 1_555
H8 N1 1_555 1_555
N2 C4 1_555 1_555

#END
