
#######################################################################
#
#                 Cambridge Crystallographic Data Centre
#                                CCDC 
#
#######################################################################
#
# If this CIF has been generated from an entry in the Cambridge 
# Structural Database, then it will include bibliographic, chemical, 
# crystal, experimental, refinement or atomic coordinate data resulting 
# from the CCDC's data processing and validation procedures.
#
#######################################################################

data_BAPLOT02
_chemical_name_common            Theophylline
_chemical_formula_moiety         'C7 H8 N4 O2'
_chemical_name_systematic        1,3-Dimethyl-3,7-dihydro-1H-purine-2,6-dione
_chemical_properties_biological  
'asthema therapeutic, antiinflammatory, increases blood pressure, suspected anosmia treatment, muscle relaxant, vasodilator'
_symmetry_cell_setting           monoclinic
_symmetry_space_group_name_H-M   'P 21/c'
_symmetry_Int_Tables_number      14
_space_group_name_Hall           '-P 2ybc'
loop_
_symmetry_equiv_pos_site_id
_symmetry_equiv_pos_as_xyz
1 x,y,z
2 -x,1/2+y,1/2-z
3 -x,-y,-z
4 x,1/2-y,1/2+z
_cell_length_a                   7.8935(6)
_cell_length_b                   12.9087(7)
_cell_length_c                   15.9055(8)
_cell_angle_alpha                90
_cell_angle_beta                 104.214(5)
_cell_angle_gamma                90
_cell_volume                     1571.07
_exptl_crystal_colour            colorless
_exptl_crystal_description       plate
_cell_formula_units_Z            8
_exptl_crystal_recrystallization_method chloroform/methanol
loop_
_atom_site_label
_atom_site_type_symbol
_atom_site_fract_x
_atom_site_fract_y
_atom_site_fract_z
C1 C 0.3056(3) 0.02115(17) 0.09461(14)
C2 C 0.4877(3) 0.17786(17) 0.09060(14)
C3 C 0.3328(3) 0.09963(17) -0.04057(13)
C4 C 0.2672(3) 0.02566(17) 0.00340(14)
C5 C 0.1763(3) 0.0045(2) -0.13534(15)
C6 C 0.4624(4) 0.1056(2) 0.22819(15)
C7 C 0.5185(3) 0.2516(2) -0.04623(16)
N1 N 0.4160(2) 0.10126(14) 0.13328(11)
N2 N 0.4434(2) 0.17564(14) 0.00173(11)
N3 N 0.2779(3) 0.08774(15) -0.12768(12)
N4 N 0.1653(2) -0.03563(15) -0.05995(12)
O1 O 0.2529(2) -0.04282(13) 0.13937(10)
O2 O 0.5851(2) 0.24386(13) 0.13070(10)
H1 H 0.1181 -0.0232 -0.1886
H2 H 0.5544 0.1552 0.2475
H3 H 0.5013 0.0386 0.2512
H4 H 0.3619 0.1259 0.2481
H5 H 0.4913 0.3201 -0.0300
H6 H 0.4707 0.2419 -0.1073
H7 H 0.6430 0.2429 -0.0330
H8 H 0.1062 -0.0893 -0.0523
C8 C 0.0635(3) 0.28631(17) 1.02459(14)
C9 C 0.2209(3) 0.45280(17) 1.02194(14)
C10 C 0.0752(3) 0.37253(17) 0.89022(13)
C11 C 0.0220(3) 0.29279(16) 0.93328(13)
C12 C -0.0732(3) 0.27496(19) 0.79473(14)
C13 C 0.2196(3) 0.3724(2) 1.15919(14)
C14 C 0.2368(3) 0.53625(19) 0.88634(16)
N5 N 0.1646(2) 0.36962(14) 1.06438(11)
N6 N 0.1742(2) 0.45278(14) 0.93298(12)
N7 N 0.0172(3) 0.36232(15) 0.80311(12)
N8 N -0.0753(2) 0.23019(15) 0.86970(11)
O3 O 0.0208(2) 0.21730(13) 1.06858(10)
O4 O 0.3076(2) 0.52232(13) 1.06289(11)
H9 H -0.1301 0.2474 0.7412
H10 H 0.3448 0.3691 1.1774
H11 H 0.1704 0.3143 1.1825
H12 H 0.1797 0.4355 1.1798
H13 H 0.2042 0.6019 0.9061
H14 H 0.1856 0.5293 0.8253
H15 H 0.3617 0.5324 0.8970
H16 H -0.1272 0.1735 0.8769
loop_
_geom_bond_atom_site_label_1
_geom_bond_atom_site_label_2
_geom_bond_site_symmetry_1
_geom_bond_site_symmetry_2
C1 C4 1_555 1_555
C2 N1 1_555 1_555
C3 C4 1_555 1_555
C4 N4 1_555 1_555
C5 N3 1_555 1_555
C6 N1 1_555 1_555
C7 N2 1_555 1_555
N1 C1 1_555 1_555
N2 C2 1_555 1_555
N3 C3 1_555 1_555
N4 C5 1_555 1_555
O1 C1 1_555 1_555
O2 C2 1_555 1_555
H1 C5 1_555 1_555
H2 C6 1_555 1_555
H3 C6 1_555 1_555
H4 C6 1_555 1_555
H5 C7 1_555 1_555
H6 C7 1_555 1_555
H7 C7 1_555 1_555
H8 N4 1_555 1_555
C8 C11 1_555 1_555
C9 N5 1_555 1_555
C10 C11 1_555 1_555
C11 N8 1_555 1_555
C12 N7 1_555 1_555
C13 N5 1_555 1_555
C14 N6 1_555 1_555
N5 C8 1_555 1_555
N6 C9 1_555 1_555
N7 C10 1_555 1_555
N8 C12 1_555 1_555
O3 C8 1_555 1_555
O4 C9 1_555 1_555
H9 C12 1_555 1_555
H10 C13 1_555 1_555
H11 C13 1_555 1_555
H12 C13 1_555 1_555
H13 C14 1_555 1_555
H14 C14 1_555 1_555
H15 C14 1_555 1_555
H16 N8 1_555 1_555
C3 N2 1_555 1_555
C10 N6 1_555 1_555

#END
