
#######################################################################
#
#                 Cambridge Crystallographic Data Centre
#                                CCDC 
#
#######################################################################
#
# If this CIF has been generated from an entry in the Cambridge 
# Structural Database, then it will include bibliographic, chemical, 
# crystal, experimental, refinement or atomic coordinate data resulting 
# from the CCDC's data processing and validation procedures.
#
#######################################################################

data_BAPRUH
_chemical_compound_source        'twigs and leaves of Dysoxylum lenticellatum'
_chemical_name_common            'dysolenticin A'
_chemical_formula_moiety         'C30 H48 O5'
_chemical_name_systematic        
3,23-Dihydroxy-23-(2-hydroxypropan-2-yl)-4,4,14-trimethylbuf-7-enolide
_symmetry_cell_setting           monoclinic
_symmetry_space_group_name_H-M   'C 2'
_symmetry_Int_Tables_number      5
_space_group_name_Hall           'C 2y'
loop_
_symmetry_equiv_pos_site_id
_symmetry_equiv_pos_as_xyz
1 x,y,z
2 -x,y,-z
3 1/2+x,1/2+y,z
4 1/2-x,1/2+y,-z
_cell_length_a                   31.391(14)
_cell_length_b                   7.212(3)
_cell_length_c                   12.407(5)
_cell_angle_alpha                90
_cell_angle_beta                 103.261(6)
_cell_angle_gamma                90
_cell_volume                     2733.95
_exptl_crystal_colour            colorless
_exptl_crystal_description       block
_cell_formula_units_Z            4
loop_
_atom_site_label
_atom_site_type_symbol
_atom_site_fract_x
_atom_site_fract_y
_atom_site_fract_z
C1 C 0.39430(17) 0.4896(8) 0.4609(4)
H1 H 0.3966 0.5401 0.3900
H2 H 0.3717 0.5585 0.4854
C2 C 0.43759(17) 0.5175(9) 0.5439(4)
H3 H 0.4606 0.4534 0.5184
H4 H 0.4447 0.6485 0.5495
C3 C 0.43522(17) 0.4444(8) 0.6564(4)
H5 H 0.4634 0.4650 0.7087
C4 C 0.42433(15) 0.2373(8) 0.6522(4)
C5 C 0.38204(15) 0.2026(7) 0.5624(4)
H6 H 0.3590 0.2673 0.5890
C6 C 0.36812(17) 0.0008(8) 0.5535(5)
H7 H 0.3610 -0.0367 0.6224
H8 H 0.3925 -0.0746 0.5435
C7 C 0.32900(16) -0.0364(8) 0.4589(5)
H9 H 0.3160 -0.1529 0.4549
C8 C 0.31220(15) 0.0862(7) 0.3818(4)
C9 C 0.33096(15) 0.2802(7) 0.3828(4)
H10 H 0.3153 0.3561 0.4266
C10 C 0.38039(15) 0.2864(7) 0.4452(4)
C11 C 0.32147(16) 0.3671(8) 0.2673(4)
H11 H 0.3308 0.4956 0.2742
H12 H 0.3389 0.3038 0.2234
C12 C 0.27307(15) 0.3601(8) 0.2045(4)
H13 H 0.2599 0.4800 0.2109
H14 H 0.2718 0.3387 0.1266
C13 C 0.24586(14) 0.2109(7) 0.2452(3)
C14 C 0.27505(15) 0.0369(7) 0.2850(4)
C15 C 0.24124(15) -0.1025(7) 0.3048(4)
H15 H 0.2347 -0.0830 0.3766
H16 H 0.2516 -0.2284 0.3011
C16 C 0.20043(16) -0.0652(7) 0.2104(4)
H17 H 0.1743 -0.0623 0.2395
H18 H 0.1971 -0.1621 0.1549
C17 C 0.20751(15) 0.1258(6) 0.1587(4)
H19 H 0.2181 0.1015 0.0916
C18 C 0.22789(15) 0.2870(7) 0.3430(4)
H20 H 0.2142 0.4051 0.3231
H21 H 0.2515 0.3013 0.4070
H22 H 0.2068 0.2018 0.3595
C19 C 0.40804(15) 0.1801(9) 0.3791(4)
H23 H 0.4031 0.2303 0.3056
H24 H 0.3999 0.0516 0.3752
H25 H 0.4384 0.1918 0.4150
C20 C 0.16469(15) 0.2341(7) 0.1242(4)
H26 H 0.1516 0.2480 0.1883
C21 C 0.13249(16) 0.1355(7) 0.0321(4)
H27 H 0.1281 0.0097 0.0550
H28 H 0.1445 0.1290 -0.0333
C22 C 0.08878(16) 0.2360(7) 0.0037(4)
C23 C 0.0940(2) 0.4450(8) -0.0048(5)
C24 C 0.17228(17) 0.4229(7) 0.0806(4)
H29 H 0.1889 0.4966 0.1412
H30 H 0.1900 0.4091 0.0265
C25 C 0.05803(17) 0.1658(7) -0.1045(4)
C26 C 0.0741(2) 0.2209(13) -0.2068(4)
H31 H 0.0523 0.1892 -0.2721
H32 H 0.1008 0.1562 -0.2071
H33 H 0.0793 0.3521 -0.2057
C27 C 0.0504(2) -0.0385(9) -0.0993(7)
H34 H 0.0392 -0.0662 -0.0353
H35 H 0.0774 -0.1033 -0.0946
H36 H 0.0295 -0.0770 -0.1648
C28 C 0.46483(16) 0.1275(9) 0.6388(5)
H37 H 0.4888 0.1526 0.7005
H38 H 0.4726 0.1641 0.5714
H39 H 0.4583 -0.0028 0.6361
C29 C 0.41609(18) 0.1801(10) 0.7656(4)
H40 H 0.3892 0.2346 0.7747
H41 H 0.4399 0.2225 0.8236
H42 H 0.4140 0.0475 0.7690
C30 C 0.29507(17) -0.0440(9) 0.1910(5)
H43 H 0.3133 -0.1481 0.2189
H44 H 0.3122 0.0496 0.1658
H45 H 0.2719 -0.0833 0.1305
O1 O 0.40176(13) 0.5499(7) 0.6908(3)
H46 H 0.4108 0.5841 0.7550
O2 O 0.06917(13) 0.2080(7) 0.0941(3)
O3 O 0.01556(12) 0.2511(6) -0.1146(3)
O4 O 0.06393(16) 0.5449(6) -0.0414(5)
O5 O 0.13294(14) 0.5228(5) 0.0300(3)
H47 H 0.042(3) 0.168(18) 0.086(8)
H48 H 0.021(2) 0.370(6) -0.106(7)
loop_
_geom_bond_atom_site_label_1
_geom_bond_atom_site_label_2
_geom_bond_site_symmetry_1
_geom_bond_site_symmetry_2
C1 H1 1_555 1_555
H2 C1 1_555 1_555
C2 C1 1_555 1_555
H3 C2 1_555 1_555
H4 C2 1_555 1_555
C3 C2 1_555 1_555
H5 C3 1_555 1_555
C4 C3 1_555 1_555
C5 C4 1_555 1_555
H6 C5 1_555 1_555
C6 C5 1_555 1_555
H7 C6 1_555 1_555
H8 C6 1_555 1_555
C7 C6 1_555 1_555
H9 C7 1_555 1_555
C8 C7 1_555 1_555
C9 C8 1_555 1_555
H10 C9 1_555 1_555
C10 C1 1_555 1_555
C11 C9 1_555 1_555
H11 C11 1_555 1_555
H12 C11 1_555 1_555
C12 C11 1_555 1_555
H13 C12 1_555 1_555
H14 C12 1_555 1_555
C13 C12 1_555 1_555
C14 C8 1_555 1_555
C15 C14 1_555 1_555
H15 C15 1_555 1_555
H16 C15 1_555 1_555
C16 C15 1_555 1_555
H17 C16 1_555 1_555
H18 C16 1_555 1_555
C17 C13 1_555 1_555
H19 C17 1_555 1_555
C18 C13 1_555 1_555
H20 C18 1_555 1_555
H21 C18 1_555 1_555
H22 C18 1_555 1_555
C19 C10 1_555 1_555
H23 C19 1_555 1_555
H24 C19 1_555 1_555
H25 C19 1_555 1_555
C20 C17 1_555 1_555
H26 C20 1_555 1_555
C21 C20 1_555 1_555
H27 C21 1_555 1_555
H28 C21 1_555 1_555
C22 C21 1_555 1_555
C23 C22 1_555 1_555
C24 C20 1_555 1_555
H29 C24 1_555 1_555
H30 C24 1_555 1_555
C25 C22 1_555 1_555
C26 C25 1_555 1_555
H31 C26 1_555 1_555
H32 C26 1_555 1_555
H33 C26 1_555 1_555
C27 C25 1_555 1_555
H34 C27 1_555 1_555
H35 C27 1_555 1_555
H36 C27 1_555 1_555
C28 C4 1_555 1_555
H37 C28 1_555 1_555
H38 C28 1_555 1_555
H39 C28 1_555 1_555
C29 C4 1_555 1_555
H40 C29 1_555 1_555
H41 C29 1_555 1_555
H42 C29 1_555 1_555
C30 C14 1_555 1_555
H43 C30 1_555 1_555
H44 C30 1_555 1_555
H45 C30 1_555 1_555
O1 C3 1_555 1_555
H46 O1 1_555 1_555
O2 C22 1_555 1_555
O3 C25 1_555 1_555
O4 C23 1_555 1_555
O5 C23 1_555 1_555
H47 O2 1_555 1_555
H48 O3 1_555 1_555
C5 C10 1_555 1_555
C9 C10 1_555 1_555
C13 C14 1_555 1_555
C16 C17 1_555 1_555
C24 O5 1_555 1_555

#END
