
#######################################################################
#
#                 Cambridge Crystallographic Data Centre
#                                CCDC 
#
#######################################################################
#
# If this CIF has been generated from an entry in the Cambridge 
# Structural Database, then it will include bibliographic, chemical, 
# crystal, experimental, refinement or atomic coordinate data resulting 
# from the CCDC's data processing and validation procedures.
#
#######################################################################

data_BAPYAZ
_chemical_formula_moiety         'C24 H32 Ba1 Cl2 N6 O10'
_chemical_name_systematic        
'(1,12-bis(2-Acetylpyridine)-1,12-dimethyl-2,5,8,11-tetra-azadodeca-1,11-diene)-barium perchlorate'
_symmetry_cell_setting           orthorhombic
_symmetry_space_group_name_H-M   'P n a a'
_symmetry_Int_Tables_number      56
_space_group_name_Hall           '-P 2ac 2bc'
loop_
_symmetry_equiv_pos_site_id
_symmetry_equiv_pos_as_xyz
1 x,y,z
2 -x,1/2+y,1/2+z
3 1/2+x,1/2-y,z
4 1/2-x,-y,1/2+z
5 -x,-y,-z
6 x,1/2-y,1/2-z
7 1/2-x,1/2+y,-z
8 1/2+x,y,1/2-z
_cell_length_a                   17.651(9)
_cell_length_b                   13.870(7)
_cell_length_c                   12.710(1)
_cell_angle_alpha                90
_cell_angle_beta                 90
_cell_angle_gamma                90
_cell_volume                     3111.65
_exptl_crystal_colour            colorless
_cell_formula_units_Z            4
loop_
_atom_site_label
_atom_site_type_symbol
_atom_site_fract_x
_atom_site_fract_y
_atom_site_fract_z
Ba1 Ba 0.60560 0.25000 0.25000
O1 O 0.50490 0.13030 0.36080
C1 C 0.45910 0.07430 0.31790
C2 C 0.44700 0.07530 0.20470
N1 N 0.49410 0.12930 0.15010
C3 C 0.48200 0.13550 0.04510
C4 C 0.54140 0.18910 -0.01480
N2 N 0.60320 0.20640 0.02870
C5 C 0.66700 0.25550 -0.02440
C6 C 0.74200 0.23070 0.02660
N3 N 0.74710 0.26860 0.13300
C7 C 0.80990 0.23090 0.19510
C8 C 0.41520 0.00200 0.38860
C9 C 0.38690 0.02360 0.16080
C10 C 0.37570 0.03370 0.05030
C11 C 0.42310 0.08930 -0.00590
C12 C 0.52060 0.22300 -0.12500
Cl1 Cl 0.67080 -0.03080 0.28450
O2 O 0.60060 -0.07560 0.28800
O3 O 0.66250 0.05630 0.22760
O4 O 0.69700 -0.01120 0.38370
O5 O 0.72730 -0.08340 0.23190
O1E O 0.50490 0.36970 0.13920
N1E N 0.49410 0.37070 0.34990
N2E N 0.60320 0.29360 0.47130
N3E N 0.74710 0.23140 0.36700
O3E O 0.66250 0.44370 0.27240
C7E C 0.80990 0.26910 0.30490
C1E C 0.45910 0.42570 0.18210
C2E C 0.44700 0.42470 0.29530
C3E C 0.48200 0.36450 0.45490
C4E C 0.54140 0.31090 0.51480
C5E C 0.66700 0.24450 0.52440
C6E C 0.74200 0.26930 0.47340
Cl1E Cl 0.67080 0.53080 0.21550
C8E C 0.41520 0.49800 0.11140
C9E C 0.38690 0.47640 0.33920
C11E C 0.42310 0.41070 0.50590
C12E C 0.52060 0.27700 0.62500
O2E O 0.60060 0.57560 0.21200
O4E O 0.69700 0.51120 0.11630
O5E O 0.72730 0.58340 0.26810
C10E C 0.37570 0.46630 0.44970
loop_
_geom_bond_atom_site_label_1
_geom_bond_atom_site_label_2
_geom_bond_site_symmetry_1
_geom_bond_site_symmetry_2
Ba1 O1 1_555 1_555
O1 C1 1_555 1_555
C1 C2 1_555 1_555
C2 N1 1_555 1_555
N1 Ba1 1_555 1_555
C3 N1 1_555 1_555
C4 C3 1_555 1_555
N2 Ba1 1_555 1_555
C5 N2 1_555 1_555
C6 C5 1_555 1_555
N3 Ba1 1_555 1_555
C7 N3 1_555 1_555
C8 C1 1_555 1_555
C9 C2 1_555 1_555
C10 C9 1_555 1_555
C11 C3 1_555 1_555
C12 C4 1_555 1_555
Cl1 O2 1_555 1_555
O3 Ba1 1_555 1_555
O4 Cl1 1_555 1_555
O5 Cl1 1_555 1_555
O1E Ba1 1_555 1_555
N1E Ba1 1_555 1_555
N2E Ba1 1_555 1_555
N3E Ba1 1_555 1_555
O3E Ba1 1_555 1_555
C7E C7 1_555 1_555
C1E O1E 1_555 1_555
C2E N1E 1_555 1_555
C3E N1E 1_555 1_555
C4E N2E 1_555 1_555
C5E N2E 1_555 1_555
C6E N3E 1_555 1_555
Cl1E O3E 1_555 1_555
C8E C1E 1_555 1_555
C9E C2E 1_555 1_555
C11E C3E 1_555 1_555
C12E C4E 1_555 1_555
O2E Cl1E 1_555 1_555
O4E Cl1E 1_555 1_555
O5E Cl1E 1_555 1_555
C10E C9E 1_555 1_555
C4 N2 1_555 1_555
C6 N3 1_555 1_555
C10 C11 1_555 1_555
Cl1 O3 1_555 1_555
N3E C7E 1_555 1_555
C1E C2E 1_555 1_555
C3E C4E 1_555 1_555
C5E C6E 1_555 1_555
C11E C10E 1_555 1_555

#END
