
#######################################################################
#
#                 Cambridge Crystallographic Data Centre
#                                CCDC 
#
#######################################################################
#
# If this CIF has been generated from an entry in the Cambridge 
# Structural Database, then it will include bibliographic, chemical, 
# crystal, experimental, refinement or atomic coordinate data resulting 
# from the CCDC's data processing and validation procedures.
#
#######################################################################

data_BAQFIL
_chemical_formula_moiety         'C17 H14 F1 N3'
_chemical_name_systematic        4-benzyl-5-fluoro-6-phenylpyrimidin-2-amine
_symmetry_cell_setting           monoclinic
_symmetry_space_group_name_H-M   'C 2/c'
_symmetry_Int_Tables_number      15
_space_group_name_Hall           '-C 2yn'
loop_
_symmetry_equiv_pos_site_id
_symmetry_equiv_pos_as_xyz
1 x,y,z
2 -x,y,1/2-z
3 1/2+x,1/2+y,z
4 1/2-x,1/2+y,1/2-z
5 -x,-y,-z
6 x,-y,1/2+z
7 1/2-x,1/2-y,-z
8 1/2+x,1/2-y,1/2+z
_cell_length_a                   14.975(6)
_cell_length_b                   18.450(8)
_cell_length_c                   12.193(5)
_cell_angle_alpha                90
_cell_angle_beta                 121.277(5)
_cell_angle_gamma                90
_cell_volume                     2879.19
_exptl_crystal_colour            colorless
_exptl_crystal_description       sheet
_cell_formula_units_Z            8
loop_
_atom_site_label
_atom_site_type_symbol
_atom_site_fract_x
_atom_site_fract_y
_atom_site_fract_z
F1 F 0.39315(9) 0.09608(10) 0.69290(14)
N1 N 0.13865(11) 0.11943(8) 0.41373(14)
N2 N 0.13069(11) 0.04171(9) 0.56520(14)
N3 N -0.01733(13) 0.07553(12) 0.37933(19)
H1 H -0.0541(16) 0.0433(14) 0.403(2)
H2 H -0.0491(14) 0.0982(11) 0.308(2)
C1 C 0.08752(14) 0.07959(10) 0.45408(18)
C2 C 0.24249(13) 0.12668(10) 0.49126(18)
C3 C 0.28972(14) 0.08986(11) 0.60734(19)
C4 C 0.23366(14) 0.04758(11) 0.64160(18)
C5 C 0.29539(15) 0.17432(10) 0.4450(2)
C6 C 0.23626(17) 0.21537(12) 0.3351(2)
H3 H 0.1638 0.2117 0.2907
C7 C 0.2822(2) 0.26113(13) 0.2903(3)
H4 H 0.2407 0.2876 0.2157
C8 C 0.3881(2) 0.26843(14) 0.3537(3)
H5 H 0.4189 0.2995 0.3229
C9 C 0.4475(2) 0.22969(18) 0.4622(3)
H6 H 0.5198 0.2346 0.5063
C10 C 0.40297(17) 0.18316(14) 0.5086(3)
H7 H 0.4455 0.1573 0.5836
C11 C 0.28309(16) 0.00740(13) 0.7682(2)
H8 H 0.3569 -0.0006 0.8021
H9 H 0.2494 -0.0391 0.7578
C12 C 0.2661(7) 0.0592(5) 0.8623(7)
C13 C 0.1698(10) 0.0687(5) 0.8474(10)
H10 H 0.1125 0.0479 0.7762
C14 C 0.1525(7) 0.1075(5) 0.9320(9)
H11 H 0.0857 0.1122 0.9186
C15 C 0.2379(9) 0.1390(4) 1.0367(8)
H12 H 0.2277 0.1682 1.0916
C16 C 0.3386(8) 0.1281(6) 1.0619(10)
H13 H 0.3961 0.1457 1.1368
C17 C 0.3513(7) 0.0899(5) 0.9711(7)
H14 H 0.4179 0.0849 0.9839
H15? H 0.2426 -0.0363 0.7543
H16? H 0.3522 -0.0078 0.7891
C18? C 0.2942(7) 0.0424(4) 0.8784(6)
C19? C 0.2065(7) 0.0647(4) 0.8756(6)
H17? H 0.1411 0.0507 0.8083
C20? C 0.2145(8) 0.1074(5) 0.9711(7)
H18? H 0.1545 0.1227 0.9691
C21? C 0.3101(9) 0.1278(4) 1.0694(7)
H19? H 0.3156 0.1570 1.1347
C22? C 0.3978(8) 0.1055(5) 1.0722(5)
H20? H 0.4632 0.1195 1.1395
C23? C 0.3898(7) 0.0628(6) 0.9768(6)
H21? H 0.4498 0.0475 0.9787
loop_
_geom_bond_atom_site_label_1
_geom_bond_atom_site_label_2
_geom_bond_site_symmetry_1
_geom_bond_site_symmetry_2
F1 C3 1_555 1_555
N1 C1 1_555 1_555
N2 C1 1_555 1_555
N3 H1 1_555 1_555
H2 N3 1_555 1_555
C1 N3 1_555 1_555
C2 N1 1_555 1_555
C3 C2 1_555 1_555
C4 N2 1_555 1_555
C5 C2 1_555 1_555
C6 C5 1_555 1_555
H3 C6 1_555 1_555
C7 C6 1_555 1_555
H4 C7 1_555 1_555
C8 C7 1_555 1_555
H5 C8 1_555 1_555
C9 C8 1_555 1_555
H6 C9 1_555 1_555
C10 C5 1_555 1_555
H7 C10 1_555 1_555
C11 C4 1_555 1_555
H8 C11 1_555 1_555
H9 C11 1_555 1_555
C12 C11 1_555 1_555
C13 C12 1_555 1_555
H10 C13 1_555 1_555
C14 C13 1_555 1_555
H11 C14 1_555 1_555
C15 C14 1_555 1_555
H12 C15 1_555 1_555
C16 C15 1_555 1_555
H13 C16 1_555 1_555
C17 C12 1_555 1_555
H14 C17 1_555 1_555
C3 C4 1_555 1_555
C9 C10 1_555 1_555
C16 C17 1_555 1_555

#END
