
#######################################################################
#
#                 Cambridge Crystallographic Data Centre
#                                CCDC 
#
#######################################################################
#
# If this CIF has been generated from an entry in the Cambridge 
# Structural Database, then it will include bibliographic, chemical, 
# crystal, experimental, refinement or atomic coordinate data resulting 
# from the CCDC's data processing and validation procedures.
#
#######################################################################

data_BAQGAB
_chemical_formula_moiety         'C62 H84 O12'
_chemical_name_systematic        
'Tetraethyl 5,14,20,29,32,33,36,37-octamethyl-7,12,22,27-tetraoxapentacyclo(26.2.2.2^3,6^.2^13,16^.2^18,21^)octatriaconta-1(30),3,5,13,15,18,20,28,31,33,35,37-dodecaene-2,2,17,17-tetrapropionate'
_symmetry_cell_setting           triclinic
_symmetry_space_group_name_H-M   'P -1'
_symmetry_Int_Tables_number      2
_space_group_name_Hall           '-P 1'
loop_
_symmetry_equiv_pos_site_id
_symmetry_equiv_pos_as_xyz
1 x,y,z
2 -x,-y,-z
_cell_length_a                   10.990(7)
_cell_length_b                   11.870(7)
_cell_length_c                   11.982(7)
_cell_angle_alpha                72.96(5)
_cell_angle_beta                 83.61(5)
_cell_angle_gamma                86.79(5)
_cell_volume                     1484.72
_exptl_crystal_colour            colorless
_exptl_crystal_description       prism
_chemical_melting_point          240deg.C
_cell_formula_units_Z            1
_exptl_crystal_recrystallization_method hexane/dichloromethane/benzene
loop_
_atom_site_label
_atom_site_type_symbol
_atom_site_fract_x
_atom_site_fract_y
_atom_site_fract_z
O1 O 0.7902(3) 0.3825(2) -0.3703(2)
O2 O 1.0711(3) -0.0042(4) 0.2833(3)
O3 O 0.9731(3) -0.1325(3) 0.4316(3)
O4 O 0.6982(7) -0.2790(5) 0.0853(6)
O5 O 0.8035(6) -0.2497(4) -0.0766(5)
O6 O 0.3892(2) 0.2813(2) 0.3671(2)
C1 C 0.6617(4) 0.1903(3) -0.0925(4)
H1 H 0.5850(4) 0.1549(3) -0.0576(4)
C2 C 0.6690(4) 0.2628(3) -0.2054(4)
C3 C 0.5593(5) 0.2830(4) -0.2748(4)
H2 H 0.5632(5) 0.3545(4) -0.3384(4)
H3 H 0.5471(5) 0.2179(4) -0.3043(4)
H4 H 0.4924(5) 0.2888(4) -0.2179(4)
C4 C 0.7804(4) 0.3140(3) -0.2541(3)
C5 C 0.8822(4) 0.2927(3) -0.1917(4)
C6 C 1.0027(4) 0.3497(4) -0.2478(4)
H5 H 1.0129(4) 0.3588(4) -0.3305(4)
H6 H 1.0111(4) 0.4247(4) -0.2345(4)
H7 H 1.0640(4) 0.2954(4) -0.2102(4)
C7 C 0.8704(4) 0.2167(3) -0.0789(3)
H8 H 0.9411(4) 0.2005(3) -0.0357(3)
C8 C 0.7616(4) 0.1632(3) -0.0260(3)
C9 C 0.7462(3) 0.0749(3) 0.0964(3)
C10 C 0.8672(3) 0.0541(3) 0.1539(3)
H9 H 0.8938(3) 0.1275(3) 0.1604(3)
H10 H 0.9288(3) 0.0257(3) 0.1047(3)
C11 C 0.8608(4) -0.0316(4) 0.2766(4)
H11 H 0.8333(4) -0.1048(4) 0.2705(4)
H12 H 0.8003(4) -0.0027(4) 0.3264(4)
C12 C 0.9790(4) -0.0525(4) 0.3289(4)
C13 C 1.0836(4) -0.1608(4) 0.4900(4)
H13 H 1.1106(4) -0.0925(4) 0.5067(4)
H14 H 1.1467(4) -0.1870(4) 0.4405(4)
C14 C 1.0544(6) -0.2509(5) 0.6029(5)
H15 H 1.1267(6) -0.2671(5) 0.6436(5)
H16 H 0.9906(6) -0.2202(5) 0.6482(5)
H17 H 1.0281(6) -0.3224(5) 0.5919(5)
C15 C 0.7033(3) -0.0424(3) 0.0839(3)
H18 H 0.6253(3) -0.0270(3) 0.0528(3)
H19 H 0.6931(3) -0.0995(3) 0.1598(3)
C16 C 0.7867(4) -0.0949(4) 0.0012(4)
H20 H 0.8641(4) -0.1096(4) 0.0336(4)
H21 H 0.7980(4) -0.0356(4) -0.0731(4)
C17 C 0.7527(5) -0.2098(5) 0.0026(6)
C18 C 0.7540(11) -0.3616(9) -0.1045(9)
H23 H 0.7425(11) -0.3635(9) -0.1822(9)
H24 H 0.6802(11) -0.3740(9) -0.0519(9)
C19 C 0.8397(12) -0.4360(9) -0.0624(10)
H25 H 0.8085(12) -0.5142(9) -0.0411(10)
H26 H 0.9207(12) -0.4353(9) -0.1018(10)
H27 H 0.8424(12) -0.4118(9) 0.0071(10)
C20 C 0.6498(3) 0.1258(3) 0.1733(3)
C21 C 0.5486(4) 0.0659(3) 0.2362(4)
H28 H 0.5373(4) -0.0136(3) 0.2359(4)
C22 C 0.4613(4) 0.1141(4) 0.3034(4)
C23 C 0.3507(4) 0.0461(4) 0.3681(5)
H29 H 0.3298(4) 0.0452(4) 0.4483(5)
H30 H 0.2848(4) 0.0824(4) 0.3227(5)
H31 H 0.3643(4) -0.0332(4) 0.3640(5)
C24 C 0.4794(4) 0.2280(4) 0.3071(3)
C25 C 0.5797(4) 0.2911(4) 0.2464(4)
C26 C 0.5954(6) 0.4169(4) 0.2482(6)
H32 H 0.5600(6) 0.4421(4) 0.3141(6)
H33 H 0.6770(6) 0.4458(4) 0.2255(6)
H34 H 0.5466(6) 0.4472(4) 0.1838(6)
C27 C 0.6631(4) 0.2389(3) 0.1814(4)
H35 H 0.7331(4) 0.2838(3) 0.1408(4)
C28 C 0.4072(4) 0.2627(4) 0.4873(3)
H36 H 0.4760(4) 0.3070(4) 0.4917(3)
H37 H 0.4229(4) 0.1811(4) 0.5264(3)
C29 C 0.2974(4) 0.3118(3) 0.5468(3)
H38 H 0.2981(4) 0.2863(3) 0.6305(3)
H39 H 0.2267(4) 0.2804(3) 0.5273(3)
C30 C 0.2808(4) 0.4444(3) 0.5080(3)
H40 H 0.3609(4) 0.4739(3) 0.5057(3)
H41 H 0.2267(4) 0.4742(3) 0.5619(3)
C31 C 0.7579(4) 0.5050(3) -0.3875(4)
H42 H 0.8286(4) 0.5461(3) -0.3815(4)
H43 H 0.6947(4) 0.5138(3) -0.3283(4)
C31A C 0.2421(4) 0.4950(3) 0.3875(4)
O1A O 0.2098(3) 0.6175(2) 0.3703(2)
C4A C 0.2196(4) 0.6860(3) 0.2541(3)
C2A C 0.3310(4) 0.7372(3) 0.2054(4)
C1A C 0.3383(4) 0.8097(3) 0.0925(4)
H1A H 0.4150(4) 0.8451(3) 0.0576(4)
C8A C 0.2384(4) 0.8368(3) 0.0260(3)
C7A C 0.1296(4) 0.7833(3) 0.0789(3)
C5A C 0.1178(4) 0.7073(3) 0.1917(4)
C6A C -0.0027(4) 0.6503(4) 0.2478(4)
H5A H -0.0129(4) 0.6412(4) 0.3305(4)
H6A H -0.0111(4) 0.5753(4) 0.2345(4)
H7A H -0.0640(4) 0.7046(4) 0.2102(4)
H8A H 0.0589(4) 0.7995(3) 0.0357(3)
C9A C 0.2538(3) 0.9251(3) -0.0964(3)
C10A C 0.1328(3) 0.9459(3) -0.1539(3)
H9A H 0.1062(3) 0.8725(3) -0.1604(3)
H10A H 0.0712(3) 0.9743(3) -0.1047(3)
C11A C 0.1392(4) 1.0316(4) -0.2766(4)
H11A H 0.1667(4) 1.1048(4) -0.2705(4)
H12A H 0.1997(4) 1.0027(4) -0.3264(4)
C12A C 0.0210(4) 1.0525(4) -0.3289(4)
O2A O -0.0711(3) 1.0042(4) -0.2833(3)
O3A O 0.0269(3) 1.1325(3) -0.4316(3)
C13A C -0.0836(4) 1.1608(4) -0.4900(4)
H13A H -0.1106(4) 1.0925(4) -0.5067(4)
H14A H -0.1467(4) 1.1870(4) -0.4405(4)
C14A C -0.0544(6) 1.2509(5) -0.6029(5)
H15A H -0.1267(6) 1.2671(5) -0.6436(5)
H16A H 0.0094(6) 1.2202(5) -0.6482(5)
H17A H -0.0281(6) 1.3224(5) -0.5919(5)
C15A C 0.2967(3) 1.0424(3) -0.0839(3)
H18A H 0.3747(3) 1.0270(3) -0.0528(3)
H19A H 0.3069(3) 1.0995(3) -0.1598(3)
C16A C 0.2133(4) 1.0949(4) -0.0012(4)
H20A H 0.1359(4) 1.1096(4) -0.0336(4)
H21A H 0.2020(4) 1.0356(4) 0.0731(4)
C17A C 0.2473(5) 1.2098(5) -0.0026(6)
O4A O 0.3018(7) 1.2790(5) -0.0853(6)
O5A O 0.1965(6) 1.2497(4) 0.0766(5)
C18A C 0.2460(11) 1.3616(9) 0.1045(9)
H23A H 0.2575(11) 1.3635(9) 0.1822(9)
H24A H 0.3198(11) 1.3740(9) 0.0519(9)
C19A C 0.1603(12) 1.4360(9) 0.0624(10)
H25A H 0.1915(12) 1.5142(9) 0.0411(10)
H26A H 0.0793(12) 1.4353(9) 0.1018(10)
H27A H 0.1576(12) 1.4118(9) -0.0071(10)
C20A C 0.3502(3) 0.8742(3) -0.1733(3)
C21A C 0.4514(4) 0.9341(3) -0.2362(4)
H28A H 0.4627(4) 1.0136(3) -0.2359(4)
C22A C 0.5387(4) 0.8859(4) -0.3034(4)
C23A C 0.6493(4) 0.9539(4) -0.3681(5)
H29A H 0.6702(4) 0.9548(4) -0.4483(5)
H30A H 0.7152(4) 0.9176(4) -0.3227(5)
H31A H 0.6357(4) 1.0332(4) -0.3640(5)
C24A C 0.5206(4) 0.7720(4) -0.3071(3)
O6A O 0.6108(2) 0.7187(2) -0.3671(2)
C28A C 0.5928(4) 0.7373(4) -0.4873(3)
H36A H 0.5240(4) 0.6930(4) -0.4917(3)
H37A H 0.5771(4) 0.8189(4) -0.5264(3)
C29A C 0.7026(4) 0.6882(3) -0.5468(3)
H38A H 0.7019(4) 0.7137(3) -0.6305(3)
H39A H 0.7733(4) 0.7196(3) -0.5273(3)
C30A C 0.7192(4) 0.5556(3) -0.5080(3)
H40A H 0.6391(4) 0.5261(3) -0.5057(3)
H41A H 0.7733(4) 0.5258(3) -0.5619(3)
C25A C 0.4203(4) 0.7089(4) -0.2464(4)
C26A C 0.4046(6) 0.5831(4) -0.2482(6)
H32A H 0.4400(6) 0.5579(4) -0.3141(6)
H33A H 0.3230(6) 0.5542(4) -0.2255(6)
H34A H 0.4534(6) 0.5528(4) -0.1838(6)
C27A C 0.3369(4) 0.7611(3) -0.1814(4)
H35A H 0.2669(4) 0.7162(3) -0.1408(4)
C3A C 0.4407(5) 0.7170(4) 0.2748(4)
H2A H 0.4368(5) 0.6455(4) 0.3384(4)
H3A H 0.4529(5) 0.7821(4) 0.3043(4)
H4A H 0.5076(5) 0.7112(4) 0.2179(4)
H42A H 0.1714(4) 0.4539(3) 0.3815(4)
H43A H 0.3053(4) 0.4862(3) 0.3283(4)
H22? H 0.6795(5) -0.1856(5) -0.0358(6)
C32? C 0.6430(24) -0.2256(22) -0.0235(23)
loop_
_geom_bond_atom_site_label_1
_geom_bond_atom_site_label_2
_geom_bond_site_symmetry_1
_geom_bond_site_symmetry_2
O1 C4 1_555 1_555
O2 C12 1_555 1_555
O3 C12 1_555 1_555
O4 C17 1_555 1_555
O5 C17 1_555 1_555
O6 C24 1_555 1_555
C1 H1 1_555 1_555
C2 C1 1_555 1_555
C3 C2 1_555 1_555
H2 C3 1_555 1_555
H3 C3 1_555 1_555
H4 C3 1_555 1_555
C4 C2 1_555 1_555
C5 C4 1_555 1_555
C6 C5 1_555 1_555
H5 C6 1_555 1_555
H6 C6 1_555 1_555
H7 C6 1_555 1_555
C7 C5 1_555 1_555
H8 C7 1_555 1_555
C8 C1 1_555 1_555
C9 C8 1_555 1_555
C10 C9 1_555 1_555
H9 C10 1_555 1_555
H10 C10 1_555 1_555
C11 C10 1_555 1_555
H11 C11 1_555 1_555
H12 C11 1_555 1_555
C12 C11 1_555 1_555
C13 O3 1_555 1_555
H13 C13 1_555 1_555
H14 C13 1_555 1_555
C14 C13 1_555 1_555
H15 C14 1_555 1_555
H16 C14 1_555 1_555
H17 C14 1_555 1_555
C15 C9 1_555 1_555
H18 C15 1_555 1_555
H19 C15 1_555 1_555
C16 C15 1_555 1_555
H20 C16 1_555 1_555
H21 C16 1_555 1_555
C17 C16 1_555 1_555
C18 O5 1_555 1_555
H23 C18 1_555 1_555
H24 C18 1_555 1_555
C19 C18 1_555 1_555
H25 C19 1_555 1_555
H26 C19 1_555 1_555
H27 C19 1_555 1_555
C20 C9 1_555 1_555
C21 C20 1_555 1_555
H28 C21 1_555 1_555
C22 C21 1_555 1_555
C23 C22 1_555 1_555
H29 C23 1_555 1_555
H30 C23 1_555 1_555
H31 C23 1_555 1_555
C24 C22 1_555 1_555
C25 C24 1_555 1_555
C26 C25 1_555 1_555
H32 C26 1_555 1_555
H33 C26 1_555 1_555
H34 C26 1_555 1_555
C27 C20 1_555 1_555
H35 C27 1_555 1_555
C28 O6 1_555 1_555
H36 C28 1_555 1_555
H37 C28 1_555 1_555
C29 C28 1_555 1_555
H38 C29 1_555 1_555
H39 C29 1_555 1_555
C30 C29 1_555 1_555
H40 C30 1_555 1_555
H41 C30 1_555 1_555
C31 O1 1_555 1_555
H42 C31 1_555 1_555
H43 C31 1_555 1_555
C31A C30 1_555 1_555
O1A C31A 1_555 1_555
C4A O1A 1_555 1_555
C2A C4A 1_555 1_555
C1A C2A 1_555 1_555
H1A C1A 1_555 1_555
C8A C1A 1_555 1_555
C7A C8A 1_555 1_555
C5A C4A 1_555 1_555
C6A C5A 1_555 1_555
H5A C6A 1_555 1_555
H6A C6A 1_555 1_555
H7A C6A 1_555 1_555
H8A C7A 1_555 1_555
C9A C8A 1_555 1_555
C10A C9A 1_555 1_555
H9A C10A 1_555 1_555
H10A C10A 1_555 1_555
C11A C10A 1_555 1_555
H11A C11A 1_555 1_555
H12A C11A 1_555 1_555
C12A C11A 1_555 1_555
O2A C12A 1_555 1_555
O3A C12A 1_555 1_555
C13A O3A 1_555 1_555
H13A C13A 1_555 1_555
H14A C13A 1_555 1_555
C14A C13A 1_555 1_555
H15A C14A 1_555 1_555
H16A C14A 1_555 1_555
H17A C14A 1_555 1_555
C15A C9A 1_555 1_555
H18A C15A 1_555 1_555
H19A C15A 1_555 1_555
C16A C15A 1_555 1_555
H20A C16A 1_555 1_555
H21A C16A 1_555 1_555
C17A C16A 1_555 1_555
O4A C17A 1_555 1_555
O5A C17A 1_555 1_555
C18A O5A 1_555 1_555
H23A C18A 1_555 1_555
H24A C18A 1_555 1_555
C19A C18A 1_555 1_555
H25A C19A 1_555 1_555
H26A C19A 1_555 1_555
H27A C19A 1_555 1_555
C20A C9A 1_555 1_555
C21A C20A 1_555 1_555
H28A C21A 1_555 1_555
C22A C21A 1_555 1_555
C23A C22A 1_555 1_555
H29A C23A 1_555 1_555
H30A C23A 1_555 1_555
H31A C23A 1_555 1_555
C24A C22A 1_555 1_555
O6A C24A 1_555 1_555
C28A O6A 1_555 1_555
H36A C28A 1_555 1_555
H37A C28A 1_555 1_555
C29A C28A 1_555 1_555
H38A C29A 1_555 1_555
H39A C29A 1_555 1_555
C30A C31 1_555 1_555
H40A C30A 1_555 1_555
H41A C30A 1_555 1_555
C25A C24A 1_555 1_555
C26A C25A 1_555 1_555
H32A C26A 1_555 1_555
H33A C26A 1_555 1_555
H34A C26A 1_555 1_555
C27A C20A 1_555 1_555
H35A C27A 1_555 1_555
C3A C2A 1_555 1_555
H2A C3A 1_555 1_555
H3A C3A 1_555 1_555
H4A C3A 1_555 1_555
H42A C31A 1_555 1_555
H43A C31A 1_555 1_555
C7 C8 1_555 1_555
C25 C27 1_555 1_555
C7A C5A 1_555 1_555
C29A C30A 1_555 1_555
C25A C27A 1_555 1_555

#END
