
#######################################################################
#
#                 Cambridge Crystallographic Data Centre
#                                CCDC 
#
#######################################################################
#
# If this CIF has been generated from an entry in the Cambridge 
# Structural Database, then it will include bibliographic, chemical, 
# crystal, experimental, refinement or atomic coordinate data resulting 
# from the CCDC's data processing and validation procedures.
#
#######################################################################

data_BAQGEF
_chemical_formula_moiety         'C61 H81 N1 O13,0.5(C6 H6)'
_chemical_name_systematic        
'Tetraethyl 5,14,20,29,33,36-hexamethyl-32-((morpholin-4-yl)methyl)-7,12,22,27-tetraoxapentacyclo(26.2.2.2^3,6^.2^13,16^.2^18,21^)octatriaconta-1(30),3,5,13,15,18,20,28,31,33,35,37-dodecaene-2,2,17,17-tetra-acetate benzene clathrate'
_symmetry_cell_setting           triclinic
_symmetry_space_group_name_H-M   'P -1'
_symmetry_Int_Tables_number      2
_space_group_name_Hall           '-P 1'
loop_
_symmetry_equiv_pos_site_id
_symmetry_equiv_pos_as_xyz
1 x,y,z
2 -x,-y,-z
_cell_length_a                   14.010(10)
_cell_length_b                   14.437(11)
_cell_length_c                   16.570(11)
_cell_angle_alpha                91.82(6)
_cell_angle_beta                 113.70(5)
_cell_angle_gamma                90.24(6)
_cell_volume                     3066.76
_exptl_crystal_colour            colorless
_exptl_crystal_description       prism
_chemical_melting_point          126-128deg.C
_cell_formula_units_Z            2
loop_
_atom_site_label
_atom_site_type_symbol
_atom_site_fract_x
_atom_site_fract_y
_atom_site_fract_z
C1 C 0.4026(4) 0.8291(3) 0.3629(3)
O1 O -0.3106(3) 0.7800(2) -0.0614(3)
C2 C -0.1897(4) 0.6571(3) -0.3367(3)
O2 O 0.2545(4) 0.6635(3) -0.2123(3)
C3 C -0.2146(4) 0.6787(4) -0.1158(3)
C4 C 0.2837(4) 0.8382(4) 0.3331(3)
O3 O -0.1898(3) 0.3402(3) -0.0124(3)
C5 C 0.3119(5) 0.7431(5) -0.1650(4)
H1 H 0.2927(5) 0.7612(5) -0.1174(4)
H2 H 0.2972(5) 0.7931(5) -0.2048(4)
O4 O -0.0375(4) 0.8411(3) 0.2600(3)
C6 C 0.1146(5) 0.7608(4) 0.2684(3)
C7 C 0.4015(5) 0.8272(4) 0.1324(4)
C8 C -0.3237(4) 0.7959(3) -0.2103(4)
C9 C -0.2823(4) 0.7532(4) -0.1292(4)
C10 C 0.4294(4) 0.8027(4) 0.2846(4)
C11 C 0.2203(5) 0.7606(4) 0.2929(3)
H3 H 0.2532(5) 0.7064(4) 0.2817(3)
C12 C -0.2227(4) 0.6941(3) -0.2633(3)
C13 C -0.1860(4) 0.6516(3) -0.1827(4)
H4 H -0.1358(4) 0.6035(3) -0.1729(4)
C14 C 0.4586(4) 0.9227(3) 0.4033(4)
H5 H 0.4515(4) 0.9352(3) 0.4579(4)
H6 H 0.4238(4) 0.9705(3) 0.3636(4)
N1 N -0.1585(3) 0.5309(3) -0.0390(3)
C15 C 0.4480(5) 0.6633(5) 0.0178(5)
H7 H 0.3749(5) 0.6709(5) 0.0030(5)
H8 H 0.4710(5) 0.6100(5) 0.0534(5)
O5 O -0.3744(4) 0.5054(3) -0.3324(3)
C16 C -0.0703(4) 0.6563(4) -0.3014(3)
C17 C 0.1471(5) 0.6657(5) -0.2404(4)
O6 O 0.3314(4) 0.6988(4) 0.4971(3)
O7 O 0.5026(3) 0.7442(3) 0.0669(3)
C18 C 0.4816(5) 0.7644(4) 0.1399(5)
C19 C -0.1762(4) 0.6300(4) -0.0297(3)
H9 H -0.2277(4) 0.6367(4) -0.0055(3)
H10 H -0.1123(4) 0.6585(4) 0.0112(3)
C20 C -0.2926(4) 0.7652(4) -0.2754(4)
H11 H -0.3204(4) 0.7936(4) -0.3317(4)
C21 C 0.3795(4) 0.8442(3) 0.2046(5)
H12 H 0.3228(4) 0.8843(3) 0.1988(5)
O8 O -0.4175(4) 0.5959(3) -0.4474(4)
C22 C -0.1120(4) 0.4894(4) 0.0472(3)
H13 H -0.1570(4) 0.4943(4) 0.0780(3)
H14 H -0.0480(4) 0.5223(4) 0.0811(3)
C23 C 0.1294(5) 0.9200(4) 0.3233(4)
O9 O 0.6374(4) 0.8936(3) 0.4898(4)
C24 C 0.2352(5) 0.9158(4) 0.3473(3)
H15 H 0.2783(5) 0.9691(4) 0.3755(3)
O10 O -0.1269(4) 0.7697(4) -0.4866(3)
O11 O 0.5930(4) 0.9651(3) 0.3630(4)
C25 C 0.0699(5) 0.8423(5) 0.2822(4)
C26 C -0.0135(5) 0.7366(4) -0.2624(4)
H16 H -0.0516(5) 0.7889(4) -0.2548(4)
C27 C 0.0946(5) 0.5832(4) -0.2787(4)
C28 C -0.2095(6) 0.8372(6) 0.1432(5)
H17 H -0.2082(6) 0.7715(6) 0.1331(5)
H18 H -0.2341(6) 0.8477(6) 0.1891(5)
C29 C -0.0135(5) 0.5811(4) -0.3094(3)
H19 H -0.0517(5) 0.5253(4) -0.3371(3)
C30 C 0.4409(5) 0.7531(4) 0.4335(4)
H20 H 0.5157(5) 0.7550(4) 0.4614(4)
H21 H 0.4191(5) 0.6939(4) 0.4035(4)
C31 C -0.2571(4) 0.4812(4) -0.0897(4)
H22 H -0.2888(4) 0.5077(4) -0.1467(4)
H23 H -0.3042(4) 0.4865(4) -0.0609(4)
C32 C -0.2381(5) 0.5588(4) -0.3665(4)
H24 H -0.2045(5) 0.5171(4) -0.3198(4)
H25 H -0.2256(5) 0.5384(4) -0.4170(4)
C33 C -0.2291(4) 0.7215(4) -0.4160(3)
H26 H -0.2106(4) 0.7843(4) -0.3941(3)
H27 H -0.3037(4) 0.7166(4) -0.4446(3)
C34 C 0.3989(7) 0.7676(6) 0.5024(5)
C35 C 0.4660(5) 0.6502(5) -0.0655(5)
H28 H 0.4327(5) 0.5938(5) -0.0964(5)
H29 H 0.5397(5) 0.6440(5) -0.0485(5)
C36 C 0.5104(5) 0.7443(4) 0.2902(4)
H30 H 0.5505(5) 0.7179(4) 0.3460(4)
O12 O 0.4160(5) 0.8304(4) 0.5543(3)
C37 C 0.5730(6) 0.9241(5) 0.4246(6)
C38 C -0.2609(5) 0.8614(5) -0.0145(4)
H31 H -0.2874(5) 0.9135(5) -0.0510(4)
H32 H -0.1873(5) 0.8587(5) 0.0002(4)
C39 C 0.4266(5) 0.7266(6) -0.1288(5)
H33 H 0.4659(5) 0.7814(6) -0.0995(5)
H34 H 0.4436(5) 0.7123(6) -0.1784(5)
O13 O -0.1998(6) 0.6322(4) -0.5288(3)
C40 C -0.2372(5) 0.3794(4) -0.0964(4)
H35 H -0.2990(5) 0.3447(4) -0.1329(4)
H36 H -0.1882(5) 0.3753(4) -0.1234(4)
C41 C 0.6995(7) 0.9696(7) 0.3756(8)
H37 H 0.7230(7) 0.9076(7) 0.3733(8)
H38 H 0.7413(7) 0.9967(7) 0.4327(8)
C42 C -0.0745(8) 0.7586(7) -0.5430(6)
H39 H -0.1217(8) 0.7685(7) -0.6028(6)
H40 H -0.0456(8) 0.6979(7) -0.5388(6)
C43 C -0.2777(6) 0.8753(6) 0.0672(5)
H41 H -0.2769(6) 0.9409(6) 0.0789(5)
H42 H -0.3466(6) 0.8527(6) 0.0558(5)
C44 C 0.5366(5) 0.7247(4) 0.2195(5)
C45 C 0.3429(5) 0.8736(4) 0.0469(4)
H43 H 0.2928(5) 0.9151(4) 0.0533(4)
H44 H 0.3913(5) 0.9079(4) 0.0311(4)
H45 H 0.3075(5) 0.8274(4) 0.0016(4)
C46 C -0.1859(7) 0.6999(6) -0.4839(5)
C47 C -0.0962(5) 0.3881(4) 0.0377(4)
H46 H -0.0520(5) 0.3838(4) 0.0061(4)
H47 H -0.0616(5) 0.3599(4) 0.0935(4)
C48 C -0.0965(5) 0.8712(6) 0.1777(5)
H48 H -0.0676(5) 0.8551(6) 0.1356(5)
H49 H -0.0971(5) 0.9375(6) 0.1837(5)
C49 C 0.0930(6) 0.7421(4) -0.2325(4)
H50 H 0.1297(6) 0.7993(4) -0.2074(4)
C50 C -0.4017(4) 0.8719(4) -0.2271(4)
H51 H -0.4139(4) 0.8831(4) -0.1746(4)
H52 H -0.3753(4) 0.9275(4) -0.2416(4)
H53 H -0.4659(4) 0.8531(4) -0.2749(4)
C51 C 0.0061(8) 0.8317(8) -0.5197(7)
H54 H 0.0476(8) 0.8316(8) -0.5538(7)
H55 H -0.0262(8) 0.8908(8) -0.5232(7)
H56 H 0.0497(8) 0.8203(8) -0.4593(7)
C52 C 0.0808(5) 1.0056(4) 0.3419(4)
H57 H 0.0068(5) 0.9953(4) 0.3203(4)
H58 H 0.1084(5) 1.0202(4) 0.4041(4)
H59 H 0.0951(5) 1.0562(4) 0.3119(4)
C53 C 0.7109(8) 1.0159(9) 0.3098(9)
H60 H 0.7835(8) 1.0157(9) 0.3204(9)
H61 H 0.6707(8) 0.9884(9) 0.2524(9)
H62 H 0.6893(8) 1.0785(9) 0.3125(9)
C54 C -0.3537(6) 0.5571(5) -0.3879(5)
C55 C 0.1531(5) 0.4983(4) -0.2874(5)
H63 H 0.2257(5) 0.5159(4) -0.2619(5)
H64 H 0.1417(5) 0.4469(4) -0.2568(5)
H65 H 0.1328(5) 0.4807(4) -0.3485(5)
C56 C 0.6260(5) 0.6614(4) 0.2303(4)
H66 H 0.6569(5) 0.6399(4) 0.2894(4)
H67 H 0.5991(5) 0.6093(4) 0.1896(4)
H68 H 0.6778(5) 0.6937(4) 0.2172(4)
C57 C 0.0487(5) 0.6753(4) 0.2279(4)
H69 H 0.0909(5) 0.6255(4) 0.2222(4)
H70 H 0.0155(5) 0.6578(4) 0.2659(4)
H71 H -0.0035(5) 0.6886(4) 0.1709(4)
C58 C 0.2790(8) 0.7099(7) 0.5547(6)
H72 H 0.2445(8) 0.7683(7) 0.5473(6)
H73 H 0.3273(8) 0.7053(7) 0.6150(6)
C59 C 0.2059(8) 0.6367(7) 0.5372(7)
H74 H 0.1656(8) 0.6363(7) 0.5723(7)
H75 H 0.1603(8) 0.6427(7) 0.4764(7)
H76 H 0.2431(8) 0.5797(7) 0.5440(7)
C60 C -0.4848(7) 0.5048(6) -0.3460(6)
H77 H -0.5055(7) 0.4440(6) -0.3367(6)
H78 H -0.5269(7) 0.5216(6) -0.4052(6)
C61 C -0.5045(6) 0.5673(7) -0.2888(6)
H79 H -0.5756(6) 0.5698(7) -0.2952(6)
H80 H -0.4610(6) 0.5495(7) -0.2303(6)
H81 H -0.4824(6) 0.6272(7) -0.2990(6)
C62 C 0.0770(10) 0.9563(18) 0.0675(9)
H82 H 0.1316(10) 0.9311(18) 0.1178(9)
C63 C 0.0221(16) 0.9085(5) -0.0127(19)
H83 H 0.0432(16) 0.8456(5) -0.0146(19)
C64 C 0.0521(17) 1.0475(15) 0.0800(11)
H84 H 0.0867(17) 1.0829(15) 0.1342(11)
C64A C -0.0521(17) 0.9525(15) -0.0800(11)
C62A C -0.0770(10) 1.0437(18) -0.0675(9)
H82A H -0.1316(10) 1.0689(18) -0.1178(9)
C63A C -0.0221(16) 1.0915(5) 0.0127(19)
H83A H -0.0432(16) 1.1544(5) 0.0146(19)
H84A H -0.0867(17) 0.9171(15) -0.1342(11)
loop_
_geom_bond_atom_site_label_1
_geom_bond_atom_site_label_2
_geom_bond_site_symmetry_1
_geom_bond_site_symmetry_2
C1 C4 1_555 1_555
O1 C9 1_555 1_555
C2 C12 1_555 1_555
O2 C5 1_555 1_555
C3 C9 1_555 1_555
C4 C11 1_555 1_555
O3 C40 1_555 1_555
C5 H1 1_555 1_555
H2 C5 1_555 1_555
O4 C25 1_555 1_555
C6 C11 1_555 1_555
C7 C18 1_555 1_555
C8 C9 1_555 1_555
C10 C1 1_555 1_555
C11 H3 1_555 1_555
C12 C13 1_555 1_555
C13 C3 1_555 1_555
H4 C13 1_555 1_555
C14 C1 1_555 1_555
H5 C14 1_555 1_555
H6 C14 1_555 1_555
N1 C19 1_555 1_555
C15 H7 1_555 1_555
H8 C15 1_555 1_555
O5 C54 1_555 1_555
C16 C2 1_555 1_555
C17 O2 1_555 1_555
O6 C34 1_555 1_555
O7 C15 1_555 1_555
C18 O7 1_555 1_555
C19 C3 1_555 1_555
H9 C19 1_555 1_555
H10 C19 1_555 1_555
C20 C8 1_555 1_555
H11 C20 1_555 1_555
C21 C7 1_555 1_555
H12 C21 1_555 1_555
O8 C54 1_555 1_555
C22 N1 1_555 1_555
H13 C22 1_555 1_555
H14 C22 1_555 1_555
C23 C24 1_555 1_555
O9 C37 1_555 1_555
C24 C4 1_555 1_555
H15 C24 1_555 1_555
O10 C42 1_555 1_555
O11 C37 1_555 1_555
C25 C6 1_555 1_555
C26 C16 1_555 1_555
H16 C26 1_555 1_555
C27 C17 1_555 1_555
C28 H17 1_555 1_555
H18 C28 1_555 1_555
C29 C16 1_555 1_555
H19 C29 1_555 1_555
C30 C1 1_555 1_555
H20 C30 1_555 1_555
H21 C30 1_555 1_555
C31 N1 1_555 1_555
H22 C31 1_555 1_555
H23 C31 1_555 1_555
C32 C2 1_555 1_555
H24 C32 1_555 1_555
H25 C32 1_555 1_555
C33 C2 1_555 1_555
H26 C33 1_555 1_555
H27 C33 1_555 1_555
C34 C30 1_555 1_555
C35 C15 1_555 1_555
H28 C35 1_555 1_555
H29 C35 1_555 1_555
C36 C10 1_555 1_555
H30 C36 1_555 1_555
O12 C34 1_555 1_555
C37 C14 1_555 1_555
C38 O1 1_555 1_555
H31 C38 1_555 1_555
H32 C38 1_555 1_555
C39 C5 1_555 1_555
H33 C39 1_555 1_555
H34 C39 1_555 1_555
O13 C46 1_555 1_555
C40 C31 1_555 1_555
H35 C40 1_555 1_555
H36 C40 1_555 1_555
C41 O11 1_555 1_555
H37 C41 1_555 1_555
H38 C41 1_555 1_555
C42 H39 1_555 1_555
H40 C42 1_555 1_555
C43 C28 1_555 1_555
H41 C43 1_555 1_555
H42 C43 1_555 1_555
C44 C18 1_555 1_555
C45 C7 1_555 1_555
H43 C45 1_555 1_555
H44 C45 1_555 1_555
H45 C45 1_555 1_555
C46 O10 1_555 1_555
C47 O3 1_555 1_555
H46 C47 1_555 1_555
H47 C47 1_555 1_555
C48 O4 1_555 1_555
H48 C48 1_555 1_555
H49 C48 1_555 1_555
C49 C17 1_555 1_555
H50 C49 1_555 1_555
C50 C8 1_555 1_555
H51 C50 1_555 1_555
H52 C50 1_555 1_555
H53 C50 1_555 1_555
C51 C42 1_555 1_555
H54 C51 1_555 1_555
H55 C51 1_555 1_555
H56 C51 1_555 1_555
C52 C23 1_555 1_555
H57 C52 1_555 1_555
H58 C52 1_555 1_555
H59 C52 1_555 1_555
C53 C41 1_555 1_555
H60 C53 1_555 1_555
H61 C53 1_555 1_555
H62 C53 1_555 1_555
C54 C32 1_555 1_555
C55 C27 1_555 1_555
H63 C55 1_555 1_555
H64 C55 1_555 1_555
H65 C55 1_555 1_555
C56 C44 1_555 1_555
H66 C56 1_555 1_555
H67 C56 1_555 1_555
H68 C56 1_555 1_555
C57 C6 1_555 1_555
H69 C57 1_555 1_555
H70 C57 1_555 1_555
H71 C57 1_555 1_555
C58 O6 1_555 1_555
H72 C58 1_555 1_555
H73 C58 1_555 1_555
C59 C58 1_555 1_555
H74 C59 1_555 1_555
H75 C59 1_555 1_555
H76 C59 1_555 1_555
C60 O5 1_555 1_555
H77 C60 1_555 1_555
H78 C60 1_555 1_555
C61 C60 1_555 1_555
H79 C61 1_555 1_555
H80 C61 1_555 1_555
H81 C61 1_555 1_555
C62 H82 1_555 1_555
C63 C62 1_555 1_555
H83 C63 1_555 1_555
C64 C62 1_555 1_555
H84 C64 1_555 1_555
C64A C63 1_555 1_555
C62A C64A 1_555 1_555
H82A C62A 1_555 1_555
C63A C64 1_555 1_555
H83A C63A 1_555 1_555
H84A C64A 1_555 1_555
C10 C21 1_555 1_555
C12 C20 1_555 1_555
C22 C47 1_555 1_555
C23 C25 1_555 1_555
C26 C49 1_555 1_555
C27 C29 1_555 1_555
C28 C48 1_555 1_555
C33 C46 1_555 1_555
C35 C39 1_555 1_555
C36 C44 1_555 1_555
C38 C43 1_555 1_555
C62A C63A 1_555 1_555

#END
