
#######################################################################
#
#                 Cambridge Crystallographic Data Centre
#                                CCDC 
#
#######################################################################
#
# If this CIF has been generated from an entry in the Cambridge 
# Structural Database, then it will include bibliographic, chemical, 
# crystal, experimental, refinement or atomic coordinate data resulting 
# from the CCDC's data processing and validation procedures.
#
#######################################################################

data_BARLUB01
_chemical_name_common            1,3,6,8(1,4)-tetrabenzenacyclodecaphane
_chemical_formula_moiety         'C30 H28'
_chemical_name_systematic        
pentacyclo[18.2.2.2^3,6^.2^9,12^.2^14,17^]triaconta-1(22),3,5,9,11,14,16,20,23,25,27,29-dodecaene
_symmetry_cell_setting           monoclinic
_symmetry_space_group_name_H-M   'P 21/n'
_symmetry_Int_Tables_number      14
_space_group_name_Hall           '-P 2yn'
loop_
_symmetry_equiv_pos_site_id
_symmetry_equiv_pos_as_xyz
1 x,y,z
2 1/2-x,1/2+y,1/2-z
3 -x,-y,-z
4 1/2+x,1/2-y,1/2+z
_cell_length_a                   13.1028(5)
_cell_length_b                   9.5862(4)
_cell_length_c                   17.3424(7)
_cell_angle_alpha                90
_cell_angle_beta                 92.462(2)
_cell_angle_gamma                90
_cell_volume                     2176.3
_exptl_crystal_colour            colorless
_exptl_crystal_description       blocks
_cell_formula_units_Z            4
loop_
_atom_site_label
_atom_site_type_symbol
_atom_site_fract_x
_atom_site_fract_y
_atom_site_fract_z
C1 C 0.38039(10) 0.41260(13) 0.29463(7)
H1 H 0.4400 0.4194 0.2616
H2 H 0.3182 0.4055 0.2604
C2 C 0.39051(9) 0.27897(12) 0.34439(7)
H3 H 0.3987 0.1979 0.3099
H4 H 0.4532 0.2861 0.3782
C3 C 0.30055(8) 0.25291(11) 0.39402(6)
C4 C 0.28899(8) 0.32387(11) 0.46297(6)
H5 H 0.3397 0.3891 0.4799
C5 C 0.20526(8) 0.30173(11) 0.50767(6)
H6 H 0.1998 0.3519 0.5546
C6 C 0.12895(8) 0.20713(10) 0.48499(6)
C7 C 0.14080(9) 0.13563(11) 0.41603(6)
H7 H 0.0903 0.0700 0.3991
C8 C 0.22438(9) 0.15801(11) 0.37162(6)
H8 H 0.2300 0.1076 0.3248
C9 C 0.03538(8) 0.18237(11) 0.53224(6)
H9 H -0.0263 0.1842 0.4972
H10 H 0.0403 0.0882 0.5556
C10 C 0.02289(7) 0.28800(10) 0.59544(6)
C11 C -0.03237(7) 0.40971(11) 0.58111(6)
H11 H -0.0692 0.4210 0.5331
C12 C -0.03436(8) 0.51482(11) 0.63597(6)
H12 H -0.0725 0.5972 0.6248
C13 C 0.01812(7) 0.50228(10) 0.70683(6)
C14 C 0.07059(8) 0.37788(11) 0.72227(6)
H13 H 0.1052 0.3651 0.7710
C15 C 0.07281(8) 0.27309(10) 0.66760(6)
H14 H 0.1090 0.1894 0.6794
C16 C 0.02133(8) 0.62136(11) 0.76368(7)
H15 H -0.0048 0.5887 0.8133
H16 H -0.0242 0.6969 0.7439
C17 C 0.13019(8) 0.68006(11) 0.77789(6)
H17 H 0.1272 0.7594 0.8142
H18 H 0.1734 0.6070 0.8030
C18 C 0.18046(8) 0.72870(10) 0.70599(6)
C19 C 0.16412(8) 0.86195(11) 0.67611(6)
H19 H 0.1176 0.9225 0.7000
C20 C 0.21437(8) 0.90820(11) 0.61213(6)
H20 H 0.2020 1.0001 0.5934
C21 C 0.28238(8) 0.82312(10) 0.57482(6)
C22 C 0.29627(8) 0.68756(11) 0.60290(6)
H21 H 0.3405 0.6257 0.5776
C23 C 0.24652(8) 0.64206(11) 0.66714(6)
H22 H 0.2577 0.5495 0.6852
C24 C 0.34232(9) 0.87770(11) 0.50772(7)
H23 H 0.3060 0.9590 0.4845
H24 H 0.4103 0.9099 0.5276
C25 C 0.35640(8) 0.76916(11) 0.44610(6)
C26 C 0.44906(8) 0.70094(12) 0.43844(7)
H25 H 0.5074 0.7306 0.4685
C27 C 0.45751(8) 0.59026(12) 0.38759(7)
H26 H 0.5218 0.5456 0.3834
C28 C 0.37425(9) 0.54318(12) 0.34266(6)
C29 C 0.28289(8) 0.61596(12) 0.34815(6)
H27 H 0.2252 0.5890 0.3165
C30 C 0.27421(8) 0.72674(12) 0.39860(6)
H28 H 0.2109 0.7746 0.4008
loop_
_geom_bond_atom_site_label_1
_geom_bond_atom_site_label_2
_geom_bond_site_symmetry_1
_geom_bond_site_symmetry_2
C1 H1 1_555 1_555
H2 C1 1_555 1_555
C2 C1 1_555 1_555
H3 C2 1_555 1_555
H4 C2 1_555 1_555
C3 C2 1_555 1_555
C4 C3 1_555 1_555
H5 C4 1_555 1_555
C5 C4 1_555 1_555
H6 C5 1_555 1_555
C6 C5 1_555 1_555
C7 C6 1_555 1_555
H7 C7 1_555 1_555
C8 C3 1_555 1_555
H8 C8 1_555 1_555
C9 C6 1_555 1_555
H9 C9 1_555 1_555
H10 C9 1_555 1_555
C10 C9 1_555 1_555
C11 C10 1_555 1_555
H11 C11 1_555 1_555
C12 C11 1_555 1_555
H12 C12 1_555 1_555
C13 C12 1_555 1_555
C14 C13 1_555 1_555
H13 C14 1_555 1_555
C15 C10 1_555 1_555
H14 C15 1_555 1_555
C16 C13 1_555 1_555
H15 C16 1_555 1_555
H16 C16 1_555 1_555
C17 C16 1_555 1_555
H17 C17 1_555 1_555
H18 C17 1_555 1_555
C18 C17 1_555 1_555
C19 C18 1_555 1_555
H19 C19 1_555 1_555
C20 C19 1_555 1_555
H20 C20 1_555 1_555
C21 C20 1_555 1_555
C22 C21 1_555 1_555
H21 C22 1_555 1_555
C23 C18 1_555 1_555
H22 C23 1_555 1_555
C24 C21 1_555 1_555
H23 C24 1_555 1_555
H24 C24 1_555 1_555
C25 C24 1_555 1_555
C26 C25 1_555 1_555
H25 C26 1_555 1_555
C27 C26 1_555 1_555
H26 C27 1_555 1_555
C28 C1 1_555 1_555
C29 C28 1_555 1_555
H27 C29 1_555 1_555
C30 C25 1_555 1_555
H28 C30 1_555 1_555
C7 C8 1_555 1_555
C14 C15 1_555 1_555
C22 C23 1_555 1_555
C27 C28 1_555 1_555
C29 C30 1_555 1_555

#END
