
#######################################################################
#
#                 Cambridge Crystallographic Data Centre
#                                CCDC 
#
#######################################################################
#
# If this CIF has been generated from an entry in the Cambridge 
# Structural Database, then it will include bibliographic, chemical, 
# crystal, experimental, refinement or atomic coordinate data resulting 
# from the CCDC's data processing and validation procedures.
#
#######################################################################

data_BARSAO02
_chemical_formula_moiety         'C24 H29 N1 O3'
_chemical_name_systematic        
9-(4-Methoxyphenyl)-3,3,6,6-tetramethyl-1,2,3,4,5,6,7,8,9,10-decahydroacridine-1,8-dione
_symmetry_cell_setting           orthorhombic
_symmetry_space_group_name_H-M   'P c a 21'
_symmetry_Int_Tables_number      29
_space_group_name_Hall           'P 2c -2ac'
loop_
_symmetry_equiv_pos_site_id
_symmetry_equiv_pos_as_xyz
1 x,y,z
2 -x,-y,1/2+z
3 1/2+x,-y,z
4 1/2-x,y,1/2+z
_cell_length_a                   14.1862(3)
_cell_length_b                   15.1896(3)
_cell_length_c                   20.76110(10)
_cell_angle_alpha                90
_cell_angle_beta                 90
_cell_angle_gamma                90
_cell_volume                     4473.66
_exptl_crystal_colour            'pale yellow'
_exptl_crystal_description       block
_chemical_melting_point          269-270deg.C
_cell_formula_units_Z            8
_exptl_crystal_recrystallization_method '95% ethanol'
loop_
_atom_site_label
_atom_site_type_symbol
_atom_site_fract_x
_atom_site_fract_y
_atom_site_fract_z
N1 N 0.3346(3) 0.0456(3) 0.1442(2)
H1 H 0.2809 0.0194 0.1450
O1 O 0.6583(3) 0.0274(3) 0.1918(3)
O2 O 0.5136(3) 0.2844(3) 0.0690(3)
O3 O 0.6662(4) -0.0262(4) -0.1205(3)
C1 C 0.4104(4) 0.0071(3) 0.1741(4)
C2 C 0.4988(3) 0.0382(3) 0.1646(3)
C3 C 0.5185(4) 0.1102(3) 0.1155(3)
H2 H 0.5644 0.1510 0.1343
C4 C 0.4282(3) 0.1611(3) 0.1019(3)
C5 C 0.3427(4) 0.1262(3) 0.1127(3)
C6 C 0.2509(4) 0.1689(4) 0.0955(3)
H3 H 0.2236 0.1950 0.1338
H4 H 0.2076 0.1242 0.0799
C7 C 0.2623(4) 0.2409(4) 0.0432(3)
C8 C 0.3463(5) 0.2984(4) 0.0615(4)
H5 H 0.3583 0.3392 0.0265
H6 H 0.3294 0.3328 0.0991
C9 C 0.4360(4) 0.2495(4) 0.0758(3)
C10 C 0.1718(5) 0.2965(4) 0.0397(4)
H7 H 0.1194 0.2592 0.0289
H8 H 0.1788 0.3410 0.0072
H9 H 0.1606 0.3239 0.0806
C11 C 0.2806(5) 0.1991(5) -0.0227(4)
H10 H 0.3361 0.1631 -0.0205
H11 H 0.2896 0.2446 -0.0542
H12 H 0.2275 0.1635 -0.0347
C12 C 0.3878(4) -0.0666(4) 0.2204(3)
H13 H 0.3390 -0.1032 0.2017
H14 H 0.3628 -0.0414 0.2598
C13 C 0.4726(4) -0.1246(4) 0.2372(3)
C14 C 0.5548(4) -0.0635(4) 0.2532(4)
H15 H 0.5402 -0.0318 0.2925
H16 H 0.6104 -0.0989 0.2613
C15 C 0.5772(5) 0.0023(3) 0.2010(5)
C16 C 0.4466(6) -0.1812(5) 0.2958(5)
H17 H 0.4296 -0.1437 0.3311
H18 H 0.4997 -0.2168 0.3078
H19 H 0.3944 -0.2186 0.2851
C17 C 0.5000(4) -0.1839(4) 0.1801(4)
H20 H 0.5171 -0.1479 0.1439
H21 H 0.4474 -0.2205 0.1686
H22 H 0.5525 -0.2203 0.1920
C18 C 0.5604(4) 0.0728(3) 0.0535(3)
C19 C 0.5099(6) 0.0182(5) 0.0140(5)
H23 H 0.4496 0.0011 0.0263
C20 C 0.5460(6) -0.0124(5) -0.0442(5)
H24 H 0.5086 -0.0466 -0.0712
C21 C 0.6369(6) 0.0077(4) -0.0620(5)
C22 C 0.6901(5) 0.0588(4) -0.0217(3)
H25 H 0.7519 0.0727 -0.0327
C23 C 0.6516(4) 0.0903(4) 0.0359(3)
H26 H 0.6890 0.1242 0.0631
C24 C 0.7616(7) -0.0103(5) -0.1403(6)
H27 H 0.7727 -0.0380 -0.1812
H28 H 0.8041 -0.0341 -0.1088
H29 H 0.7718 0.0520 -0.1442
N2 N 0.4162(3) 0.4605(3) 0.2063(2)
H30 H 0.4695 0.4877 0.2064
O4 O 0.2429(3) 0.2136(3) 0.2745(3)
O5 O 0.0924(3) 0.4728(3) 0.1565(3)
O6 O 0.0750(4) 0.5171(3) 0.4675(3)
C25 C 0.3403(4) 0.4984(3) 0.1761(4)
C26 C 0.2519(3) 0.4653(3) 0.1849(3)
C27 C 0.2335(3) 0.3918(3) 0.2329(3)
H31 H 0.1891 0.3505 0.2129
C28 C 0.3240(4) 0.3421(3) 0.2467(3)
C29 C 0.4089(4) 0.3793(3) 0.2366(3)
C30 C 0.5010(4) 0.3369(4) 0.2543(3)
H32 H 0.5437 0.3818 0.2702
H33 H 0.5289 0.3113 0.2160
C31 C 0.4905(4) 0.2650(4) 0.3058(3)
C32 C 0.4098(4) 0.2048(4) 0.2849(4)
H34 H 0.4294 0.1723 0.2470
H35 H 0.3979 0.1625 0.3189
C33 C 0.3184(4) 0.2524(4) 0.2697(3)
C34 C 0.4694(5) 0.3056(4) 0.3723(3)
H36 H 0.4116 0.3383 0.3702
H37 H 0.5200 0.3442 0.3844
H38 H 0.4635 0.2595 0.4037
C35 C 0.5824(5) 0.2131(4) 0.3106(4)
H39 H 0.5972 0.1882 0.2693
H40 H 0.5754 0.1668 0.3417
H41 H 0.6324 0.2518 0.3237
C36 C 0.3618(4) 0.5734(3) 0.1320(3)
H42 H 0.3882 0.5502 0.0924
H43 H 0.4093 0.6103 0.1520
C37 C 0.2761(4) 0.6302(3) 0.1155(3)
C38 C 0.1949(4) 0.5683(4) 0.0984(3)
H44 H 0.1385 0.6032 0.0913
H45 H 0.2097 0.5386 0.0583
C39 C 0.1746(5) 0.5006(3) 0.1488(5)
C40 C 0.2461(4) 0.6867(4) 0.1727(4)
H46 H 0.1927 0.7219 0.1608
H47 H 0.2972 0.7244 0.1851
H48 H 0.2294 0.6493 0.2082
C41 C 0.2990(5) 0.6894(5) 0.0575(4)
H49 H 0.2449 0.7247 0.0471
H50 H 0.3152 0.6535 0.0211
H51 H 0.3511 0.7271 0.0680
C42 C 0.1888(4) 0.4251(3) 0.2955(3)
C43 C 0.0995(4) 0.4002(4) 0.3138(4)
H52 H 0.0655 0.3626 0.2872
C44 C 0.0583(5) 0.4297(4) 0.3711(4)
H53 H -0.0022 0.4119 0.3824
C45 C 0.1086(5) 0.4853(4) 0.4103(4)
C46 C 0.1973(6) 0.5111(5) 0.3925(5)
H54 H 0.2311 0.5489 0.4192
C47 C 0.2372(6) 0.4822(5) 0.3361(5)
H55 H 0.2974 0.5010 0.3249
C48 C -0.0177(7) 0.4944(5) 0.4858(4)
H56 H -0.0321 0.5211 0.5266
H57 H -0.0227 0.4316 0.4895
H58 H -0.0613 0.5152 0.4539
loop_
_geom_bond_atom_site_label_1
_geom_bond_atom_site_label_2
_geom_bond_site_symmetry_1
_geom_bond_site_symmetry_2
N1 H1 1_555 1_555
O1 C15 1_555 1_555
O2 C9 1_555 1_555
O3 C21 1_555 1_555
C1 N1 1_555 1_555
C2 C1 1_555 1_555
C3 C2 1_555 1_555
H2 C3 1_555 1_555
C4 C3 1_555 1_555
C5 N1 1_555 1_555
C6 C5 1_555 1_555
H3 C6 1_555 1_555
H4 C6 1_555 1_555
C7 C6 1_555 1_555
C8 C7 1_555 1_555
H5 C8 1_555 1_555
H6 C8 1_555 1_555
C9 C4 1_555 1_555
C10 C7 1_555 1_555
H7 C10 1_555 1_555
H8 C10 1_555 1_555
H9 C10 1_555 1_555
C11 C7 1_555 1_555
H10 C11 1_555 1_555
H11 C11 1_555 1_555
H12 C11 1_555 1_555
C12 C1 1_555 1_555
H13 C12 1_555 1_555
H14 C12 1_555 1_555
C13 C12 1_555 1_555
C14 C13 1_555 1_555
H15 C14 1_555 1_555
H16 C14 1_555 1_555
C15 C2 1_555 1_555
C16 C13 1_555 1_555
H17 C16 1_555 1_555
H18 C16 1_555 1_555
H19 C16 1_555 1_555
C17 C13 1_555 1_555
H20 C17 1_555 1_555
H21 C17 1_555 1_555
H22 C17 1_555 1_555
C18 C3 1_555 1_555
C19 C18 1_555 1_555
H23 C19 1_555 1_555
C20 C19 1_555 1_555
H24 C20 1_555 1_555
C21 C20 1_555 1_555
C22 C21 1_555 1_555
H25 C22 1_555 1_555
C23 C18 1_555 1_555
H26 C23 1_555 1_555
C24 O3 1_555 1_555
H27 C24 1_555 1_555
H28 C24 1_555 1_555
H29 C24 1_555 1_555
N2 H30 1_555 1_555
O4 C33 1_555 1_555
O5 C39 1_555 1_555
O6 C45 1_555 1_555
C25 N2 1_555 1_555
C26 C25 1_555 1_555
C27 C26 1_555 1_555
H31 C27 1_555 1_555
C28 C27 1_555 1_555
C29 N2 1_555 1_555
C30 C29 1_555 1_555
H32 C30 1_555 1_555
H33 C30 1_555 1_555
C31 C30 1_555 1_555
C32 C31 1_555 1_555
H34 C32 1_555 1_555
H35 C32 1_555 1_555
C33 C28 1_555 1_555
C34 C31 1_555 1_555
H36 C34 1_555 1_555
H37 C34 1_555 1_555
H38 C34 1_555 1_555
C35 C31 1_555 1_555
H39 C35 1_555 1_555
H40 C35 1_555 1_555
H41 C35 1_555 1_555
C36 C25 1_555 1_555
H42 C36 1_555 1_555
H43 C36 1_555 1_555
C37 C36 1_555 1_555
C38 C37 1_555 1_555
H44 C38 1_555 1_555
H45 C38 1_555 1_555
C39 C26 1_555 1_555
C40 C37 1_555 1_555
H46 C40 1_555 1_555
H47 C40 1_555 1_555
H48 C40 1_555 1_555
C41 C37 1_555 1_555
H49 C41 1_555 1_555
H50 C41 1_555 1_555
H51 C41 1_555 1_555
C42 C27 1_555 1_555
C43 C42 1_555 1_555
H52 C43 1_555 1_555
C44 C43 1_555 1_555
H53 C44 1_555 1_555
C45 C44 1_555 1_555
C46 C45 1_555 1_555
H54 C46 1_555 1_555
C47 C42 1_555 1_555
H55 C47 1_555 1_555
C48 O6 1_555 1_555
H56 C48 1_555 1_555
H57 C48 1_555 1_555
H58 C48 1_555 1_555
C4 C5 1_555 1_555
C8 C9 1_555 1_555
C14 C15 1_555 1_555
C22 C23 1_555 1_555
C28 C29 1_555 1_555
C32 C33 1_555 1_555
C38 C39 1_555 1_555
C46 C47 1_555 1_555

#END
