
#######################################################################
#
#                 Cambridge Crystallographic Data Centre
#                                CCDC 
#
#######################################################################
#
# If this CIF has been generated from an entry in the Cambridge 
# Structural Database, then it will include bibliographic, chemical, 
# crystal, experimental, refinement or atomic coordinate data resulting 
# from the CCDC's data processing and validation procedures.
#
#######################################################################

data_BARXUQ
_chemical_formula_moiety         'C19 H30 O6'
_chemical_name_systematic        
'7-hydroxy-5,6-dimethoxy-2,2,7-trimethyloctahydro-2a,4-propanocyclobuta[b]cyclopenta[d]furan-9-yl acetate'
_symmetry_cell_setting           monoclinic
_symmetry_space_group_name_H-M   'P 21'
_symmetry_Int_Tables_number      4
_space_group_name_Hall           'P 2yb'
loop_
_symmetry_equiv_pos_site_id
_symmetry_equiv_pos_as_xyz
1 x,y,z
2 -x,1/2+y,-z
_cell_length_a                   5.8418(13)
_cell_length_b                   18.700(4)
_cell_length_c                   8.9930(15)
_cell_angle_alpha                90
_cell_angle_beta                 92.986(18)
_cell_angle_gamma                90
_cell_volume                     981.076
_exptl_crystal_colour            colorless
_exptl_crystal_description       block
_cell_formula_units_Z            2
loop_
_atom_site_label
_atom_site_type_symbol
_atom_site_fract_x
_atom_site_fract_y
_atom_site_fract_z
O1 O -0.8791(8) -0.4190(3) -0.5422(5)
O2 O -0.9324(8) -0.3846(3) -0.2548(5)
O3 O -1.1396(9) -0.2890(4) -0.4593(7)
H1 H -1.1354 -0.3318 -0.4401
O4 O -0.3645(9) -0.2446(4) -0.0029(5)
O5 O -0.6876(11) -0.1400(3) -0.1808(7)
O6 O -0.6712(11) -0.4252(4) -0.7437(6)
C1 C -0.6792(12) -0.3299(5) -0.0731(8)
H2 H -0.6997 -0.3549 0.0210
C2 C -0.6940(12) -0.3782(5) -0.4625(7)
H3 H -0.5461 -0.3932 -0.4985
C3 C -0.9075(12) -0.3210(5) -0.1649(8)
H4 H -1.0341 -0.3180 -0.0977
C4 C -0.6038(12) -0.2524(5) -0.0478(8)
H5 H -0.6958 -0.2314 0.0291
C5 C -0.5377(12) -0.3743(4) -0.1797(7)
H6 H -0.4071 -0.3483 -0.2175
C6 C -0.8909(13) -0.2502(5) -0.2530(7)
H7 H -1.0155 -0.2192 -0.2225
C7 C -0.6612(13) -0.2155(4) -0.1925(9)
H8 H -0.5414 -0.2258 -0.2617
C8 C -0.8470(16) -0.4383(5) -0.6845(8)
C9 C -0.7091(12) -0.4017(5) -0.3037(8)
C10 C -0.9173(13) -0.2575(5) -0.4232(9)
C11 C -0.7271(12) -0.2985(5) -0.4933(7)
H9 H -0.5841 -0.2749 -0.4638
H10 H -0.7491 -0.2928 -0.6003
C12 C -0.4811(15) -0.4507(5) -0.1331(9)
H11 H -0.5331 -0.4631 -0.0357
H12 H -0.3207 -0.4629 -0.1405
C13 C -1.0510(17) -0.4761(7) -0.7521(10)
H13 H -1.0366 -0.5264 -0.7333
H14 H -1.0610 -0.4677 -0.8575
H15 H -1.1869 -0.4584 -0.7090
C14 C -0.9338(16) -0.1825(6) -0.4925(10)
H16 H -0.9528 -0.1866 -0.5989
H17 H -0.7961 -0.1563 -0.4667
H18 H -1.0629 -0.1577 -0.4553
C15 C -0.6373(14) -0.4802(5) -0.2631(9)
C16 C -0.490(2) -0.5181(6) -0.3766(10)
H19 H -0.5884 -0.5379 -0.4550
H20 H -0.4035 -0.5557 -0.3278
H21 H -0.3875 -0.4842 -0.4177
C17 C -0.4731(19) -0.1022(7) -0.1829(14)
H22 H -0.3842 -0.1211 -0.2607
H23 H -0.3900 -0.1080 -0.0887
H24 H -0.5022 -0.0523 -0.2006
C18 C -0.3092(18) -0.2653(8) 0.1471(9)
H25 H -0.3465 -0.3148 0.1598
H26 H -0.3955 -0.2367 0.2130
H27 H -0.1483 -0.2582 0.1695
C19 C -0.8270(18) -0.5298(6) -0.2164(14)
H28 H -0.9227 -0.5050 -0.1498
H29 H -0.7604 -0.5709 -0.1669
H30 H -0.9175 -0.5449 -0.3029
loop_
_geom_bond_atom_site_label_1
_geom_bond_atom_site_label_2
_geom_bond_site_symmetry_1
_geom_bond_site_symmetry_2
O1 C2 1_555 1_555
O2 C3 1_555 1_555
O3 H1 1_555 1_555
O4 C4 1_555 1_555
O5 C7 1_555 1_555
O6 C8 1_555 1_555
C1 H2 1_555 1_555
C2 H3 1_555 1_555
C3 C1 1_555 1_555
H4 C3 1_555 1_555
C4 C1 1_555 1_555
H5 C4 1_555 1_555
C5 C1 1_555 1_555
H6 C5 1_555 1_555
C6 C3 1_555 1_555
H7 C6 1_555 1_555
C7 C4 1_555 1_555
H8 C7 1_555 1_555
C8 O1 1_555 1_555
C9 O2 1_555 1_555
C10 O3 1_555 1_555
C11 C2 1_555 1_555
H9 C11 1_555 1_555
H10 C11 1_555 1_555
C12 C5 1_555 1_555
H11 C12 1_555 1_555
H12 C12 1_555 1_555
C13 C8 1_555 1_555
H13 C13 1_555 1_555
H14 C13 1_555 1_555
H15 C13 1_555 1_555
C14 C10 1_555 1_555
H16 C14 1_555 1_555
H17 C14 1_555 1_555
H18 C14 1_555 1_555
C15 C9 1_555 1_555
C16 C15 1_555 1_555
H19 C16 1_555 1_555
H20 C16 1_555 1_555
H21 C16 1_555 1_555
C17 O5 1_555 1_555
H22 C17 1_555 1_555
H23 C17 1_555 1_555
H24 C17 1_555 1_555
C18 O4 1_555 1_555
H25 C18 1_555 1_555
H26 C18 1_555 1_555
H27 C18 1_555 1_555
C19 C15 1_555 1_555
H28 C19 1_555 1_555
H29 C19 1_555 1_555
H30 C19 1_555 1_555
C2 C9 1_555 1_555
C5 C9 1_555 1_555
C6 C7 1_555 1_555
C6 C10 1_555 1_555
C10 C11 1_555 1_555
C12 C15 1_555 1_555

#END
