
#######################################################################
#
#                 Cambridge Crystallographic Data Centre
#                                CCDC 
#
#######################################################################
#
# If this CIF has been generated from an entry in the Cambridge 
# Structural Database, then it will include bibliographic, chemical, 
# crystal, experimental, refinement or atomic coordinate data resulting 
# from the CCDC's data processing and validation procedures.
#
#######################################################################

data_BASWUP
_chemical_formula_moiety         'C44 H30 F2 N2 O4'
_chemical_name_systematic        
N,N'-((1,2-bis(4-Fluorophenyl)ethane-1,2-diylidene)di-2-benzofuran-3,1-diylidene)bis(4-methoxyaniline)
_symmetry_cell_setting           triclinic
_symmetry_space_group_name_H-M   'P -1'
_symmetry_Int_Tables_number      2
_space_group_name_Hall           '-P 1'
loop_
_symmetry_equiv_pos_site_id
_symmetry_equiv_pos_as_xyz
1 x,y,z
2 -x,-y,-z
_cell_length_a                   8.7181(15)
_cell_length_b                   14.0124(17)
_cell_length_c                   14.451(3)
_cell_angle_alpha                85.040(11)
_cell_angle_beta                 86.139(13)
_cell_angle_gamma                82.346(10)
_cell_volume                     1740.29
_exptl_crystal_colour            yellow
_exptl_crystal_description       prismatic
_chemical_melting_point          '543-545 K'
_cell_formula_units_Z            2
_exptl_crystal_recrystallization_method 'ethyl acetate/hexane'
loop_
_atom_site_label
_atom_site_type_symbol
_atom_site_fract_x
_atom_site_fract_y
_atom_site_fract_z
F1 F 0.05559(12) 0.57875(7) 0.39937(7)
F2 F -0.08877(11) -0.01075(7) 0.20812(7)
O1 O 0.55684(12) 0.38948(7) 0.12376(7)
O2 O 0.66141(16) 0.84370(8) 0.11853(8)
O3 O 0.58063(12) 0.04306(7) 0.34442(7)
O4 O 0.48088(13) -0.38775(8) 0.39420(8)
N1 N 0.74242(16) 0.46098(9) 0.02174(9)
N2 N 0.77484(14) -0.05953(9) 0.42359(9)
C1 C 0.67636(18) 0.38858(11) 0.05394(10)
C2 C 0.71407(18) 0.28853(11) 0.02894(10)
C3 C 0.8175(2) 0.25000(12) -0.04041(11)
H1 H 0.8775 0.2901 -0.0802
C4 C 0.8300(2) 0.15142(12) -0.04962(11)
H2 H 0.9010 0.1232 -0.0955
C5 C 0.7386(2) 0.09319(12) 0.00826(11)
H3 H 0.7481 0.0260 0.0006
C6 C 0.63426(19) 0.13169(11) 0.07678(11)
H4 H 0.5718 0.0918 0.1150
C7 C 0.62367(18) 0.23078(11) 0.08792(10)
C8 C 0.52565(18) 0.29464(10) 0.14951(10)
C9 C 0.70825(18) 0.55575(11) 0.05161(10)
C10 C 0.58084(18) 0.59185(11) 0.10846(11)
H5 H 0.5064 0.5505 0.1310
C11 C 0.56077(19) 0.68728(11) 0.13278(11)
H6 H 0.4742 0.7101 0.1720
C12 C 0.6688(2) 0.74895(11) 0.09907(11)
C13 C 0.7948(2) 0.71449(12) 0.04160(12)
H7 H 0.8677 0.7566 0.0181
C14 C 0.8155(2) 0.61960(12) 0.01828(11)
H8 H 0.9029 0.5972 -0.0206
C15 C 0.5401(2) 0.87971(12) 0.18324(12)
H9 H 0.4398 0.8833 0.1554
H10 H 0.5566 0.9443 0.1984
H11 H 0.5409 0.8362 0.2401
C16 C 0.71831(17) 0.02373(10) 0.39116(10)
C17 C 0.78273(17) 0.11491(10) 0.39117(10)
C18 C 0.91377(18) 0.13429(11) 0.43343(11)
H12 H 0.9752 0.0850 0.4688
C19 C 0.95101(18) 0.22809(11) 0.42195(11)
H13 H 1.0393 0.2437 0.4497
C20 C 0.85898(18) 0.29986(11) 0.36960(11)
H14 H 0.8871 0.3634 0.3620
C21 C 0.72744(18) 0.28078(11) 0.32839(11)
H15 H 0.6656 0.3305 0.2937
C22 C 0.68862(17) 0.18599(10) 0.33945(10)
C23 C 0.55715(17) 0.14065(10) 0.31096(10)
C24 C 0.69684(17) -0.14159(10) 0.41447(10)
C25 C 0.78289(18) -0.22302(11) 0.37843(11)
H16 H 0.8894 -0.2219 0.3601
C26 C 0.71407(18) -0.30598(11) 0.36908(11)
H17 H 0.7729 -0.3601 0.3428
C27 C 0.55883(18) -0.30929(10) 0.39842(11)
C28 C 0.47224(18) -0.22868(11) 0.43587(10)
H18 H 0.3667 -0.2307 0.4562
C29 C 0.54087(18) -0.14561(10) 0.44326(10)
H19 H 0.4812 -0.0910 0.4681
C30 C 0.5717(2) -0.47601(11) 0.37001(13)
H20 H 0.6194 -0.4668 0.3070
H21 H 0.5049 -0.5272 0.3723
H22 H 0.6531 -0.4943 0.4142
C31 C 0.42541(17) 0.27812(10) 0.22308(10)
C32 C 0.42876(17) 0.17633(10) 0.26503(10)
C33 C 0.32412(17) 0.35672(10) 0.26852(10)
C34 C 0.28709(17) 0.34801(11) 0.36481(10)
H23 H 0.3246 0.2905 0.4004
C35 C 0.19612(18) 0.42241(11) 0.40914(11)
H24 H 0.1719 0.4162 0.4743
C36 C 0.14243(18) 0.50494(11) 0.35605(12)
C37 C 0.17079(19) 0.51574(11) 0.26077(12)
H25 H 0.1293 0.5727 0.2257
C38 C 0.26170(18) 0.44107(11) 0.21709(11)
H26 H 0.2818 0.4473 0.1516
C39 C 0.29413(17) 0.12415(10) 0.25277(10)
C40 C 0.26602(18) 0.03766(11) 0.30372(12)
H27 H 0.3354 0.0096 0.3495
C41 C 0.13779(19) -0.00793(11) 0.28837(12)
H28 H 0.1204 -0.0668 0.3228
C42 C 0.03735(18) 0.03375(11) 0.22272(11)
C43 C 0.0570(2) 0.11923(13) 0.17236(12)
H29 H -0.0152 0.1473 0.1282
C44 C 0.1861(2) 0.16382(12) 0.18768(12)
H30 H 0.2012 0.2229 0.1530
loop_
_geom_bond_atom_site_label_1
_geom_bond_atom_site_label_2
_geom_bond_site_symmetry_1
_geom_bond_site_symmetry_2
F1 C36 1_555 1_555
F2 C42 1_555 1_555
O1 C1 1_555 1_555
O2 C12 1_555 1_555
O3 C16 1_555 1_555
O4 C27 1_555 1_555
N1 C1 1_555 1_555
N2 C16 1_555 1_555
C1 C2 1_555 1_555
C2 C3 1_555 1_555
C3 H1 1_555 1_555
C4 C3 1_555 1_555
H2 C4 1_555 1_555
C5 C4 1_555 1_555
H3 C5 1_555 1_555
C6 C5 1_555 1_555
H4 C6 1_555 1_555
C7 C2 1_555 1_555
C8 O1 1_555 1_555
C9 N1 1_555 1_555
C10 C9 1_555 1_555
H5 C10 1_555 1_555
C11 C10 1_555 1_555
H6 C11 1_555 1_555
C12 C11 1_555 1_555
C13 C12 1_555 1_555
H7 C13 1_555 1_555
C14 C9 1_555 1_555
H8 C14 1_555 1_555
C15 O2 1_555 1_555
H9 C15 1_555 1_555
H10 C15 1_555 1_555
H11 C15 1_555 1_555
C16 C17 1_555 1_555
C17 C18 1_555 1_555
C18 H12 1_555 1_555
C19 C18 1_555 1_555
H13 C19 1_555 1_555
C20 C19 1_555 1_555
H14 C20 1_555 1_555
C21 C20 1_555 1_555
H15 C21 1_555 1_555
C22 C17 1_555 1_555
C23 O3 1_555 1_555
C24 N2 1_555 1_555
C25 C24 1_555 1_555
H16 C25 1_555 1_555
C26 C25 1_555 1_555
H17 C26 1_555 1_555
C27 C26 1_555 1_555
C28 C27 1_555 1_555
H18 C28 1_555 1_555
C29 C24 1_555 1_555
H19 C29 1_555 1_555
C30 O4 1_555 1_555
H20 C30 1_555 1_555
H21 C30 1_555 1_555
H22 C30 1_555 1_555
C31 C8 1_555 1_555
C32 C23 1_555 1_555
C33 C31 1_555 1_555
C34 C33 1_555 1_555
H23 C34 1_555 1_555
C35 C34 1_555 1_555
H24 C35 1_555 1_555
C36 C35 1_555 1_555
C37 C36 1_555 1_555
H25 C37 1_555 1_555
C38 C33 1_555 1_555
H26 C38 1_555 1_555
C39 C32 1_555 1_555
C40 C39 1_555 1_555
H27 C40 1_555 1_555
C41 C40 1_555 1_555
H28 C41 1_555 1_555
C42 C41 1_555 1_555
C43 C42 1_555 1_555
H29 C43 1_555 1_555
C44 C39 1_555 1_555
H30 C44 1_555 1_555
C6 C7 1_555 1_555
C7 C8 1_555 1_555
C13 C14 1_555 1_555
C21 C22 1_555 1_555
C22 C23 1_555 1_555
C28 C29 1_555 1_555
C31 C32 1_555 1_555
C37 C38 1_555 1_555
C43 C44 1_555 1_555

#END
