
#######################################################################
#
#                 Cambridge Crystallographic Data Centre
#                                CCDC 
#
#######################################################################
#
# If this CIF has been generated from an entry in the Cambridge 
# Structural Database, then it will include bibliographic, chemical, 
# crystal, experimental, refinement or atomic coordinate data resulting 
# from the CCDC's data processing and validation procedures.
#
#######################################################################

data_BASZEC
_chemical_compound_source        
'Phoma sp. LN-16, an endophytic fungus associated with Melia azedarach'
_chemical_formula_moiety         'C12 H12 O3'
_chemical_name_systematic        
(-)-(1S,8aR)-7-Hydroxy-1,8a-dimethyl-1,8a-dihydronaphthalene-2,6-dione
_symmetry_cell_setting           hexagonal
_symmetry_space_group_name_H-M   'P 61'
_symmetry_Int_Tables_number      169
_space_group_name_Hall           'P 61'
loop_
_symmetry_equiv_pos_site_id
_symmetry_equiv_pos_as_xyz
1 x,y,z
2 x-y,x,1/6+z
3 y,-x+y,5/6+z
4 -y,x-y,1/3+z
5 -x+y,-x,2/3+z
6 -x,-y,1/2+z
_cell_length_a                   7.1610(2)
_cell_length_b                   7.1610(2)
_cell_length_c                   33.6710(8)
_cell_angle_alpha                90
_cell_angle_beta                 90
_cell_angle_gamma                120
_cell_volume                     1495.32
_exptl_crystal_colour            colorless
_exptl_crystal_description       cone
_cell_formula_units_Z            6
_exptl_crystal_recrystallization_method 'ethyl acetate/petroleum ether'
loop_
_atom_site_label
_atom_site_type_symbol
_atom_site_fract_x
_atom_site_fract_y
_atom_site_fract_z
O1 O 0.58605(17) 0.20013(16) 0.03041(3)
O2 O 1.16005(17) 1.08400(16) 0.17944(3)
O3 O 0.28740(15) 0.25127(15) 0.07064(3)
H1 H 0.2755 0.1788 0.0502
C1 C 0.6487(2) 0.3200(2) 0.05947(4)
C2 C 0.4944(2) 0.3503(2) 0.08359(4)
C3 C 0.5547(2) 0.4665(2) 0.11708(4)
H2 H 0.4486 0.4792 0.1319
C4 C 0.7810(2) 0.5771(2) 0.13233(4)
C5 C 0.8564(2) 0.8157(2) 0.14315(4)
H3 H 0.7680 0.8157 0.1661
C6 C 1.0920(2) 0.9368(2) 0.15559(4)
C7 C 0.8748(2) 0.4414(2) 0.07143(4)
H4 H 0.9795 0.4294 0.0561
C8 C 0.9385(2) 0.5694(2) 0.10351(4)
C9 C 1.1669(2) 0.7076(2) 0.11199(4)
H5 H 1.2680 0.6771 0.0996
C10 C 1.2388(2) 0.8761(2) 0.13662(4)
H6 H 1.3889 0.9588 0.1420
C11 C 0.7814(2) 0.4585(2) 0.17103(4)
H7 H 0.7482 0.3116 0.1645
H8 H 0.6724 0.4525 0.1894
H9 H 0.9239 0.5366 0.1835
C12 C 0.8244(2) 0.9379(2) 0.10882(4)
H10 H 0.8870 1.0902 0.1160
H11 H 0.6699 0.8758 0.1036
H12 H 0.8959 0.9256 0.0849
loop_
_geom_bond_atom_site_label_1
_geom_bond_atom_site_label_2
_geom_bond_site_symmetry_1
_geom_bond_site_symmetry_2
O1 C1 1_555 1_555
O2 C6 1_555 1_555
O3 H1 1_555 1_555
C1 C2 1_555 1_555
C2 O3 1_555 1_555
C3 C2 1_555 1_555
H2 C3 1_555 1_555
C4 C3 1_555 1_555
C5 C4 1_555 1_555
H3 C5 1_555 1_555
C6 C5 1_555 1_555
C7 C1 1_555 1_555
H4 C7 1_555 1_555
C8 C4 1_555 1_555
C9 C8 1_555 1_555
H5 C9 1_555 1_555
C10 C6 1_555 1_555
H6 C10 1_555 1_555
C11 C4 1_555 1_555
H7 C11 1_555 1_555
H8 C11 1_555 1_555
H9 C11 1_555 1_555
C12 C5 1_555 1_555
H10 C12 1_555 1_555
H11 C12 1_555 1_555
H12 C12 1_555 1_555
C7 C8 1_555 1_555
C9 C10 1_555 1_555

#END
