
#######################################################################
#
#                 Cambridge Crystallographic Data Centre
#                                CCDC 
#
#######################################################################
#
# If this CIF has been generated from an entry in the Cambridge 
# Structural Database, then it will include bibliographic, chemical, 
# crystal, experimental, refinement or atomic coordinate data resulting 
# from the CCDC's data processing and validation procedures.
#
#######################################################################

data_BATGEJ
_chemical_formula_moiety         'C26 H30 O9'
_chemical_name_systematic        
12-Acetoxy-12-(acetoxymethyl)-5,6-dimethoxy-2-(3,4-dimethoxyphenyl)-10-oxatricyclo[7.2.1.0^3,8^]dodeca-3,5,7-triene
_symmetry_cell_setting           triclinic
_symmetry_space_group_name_H-M   'P -1'
_symmetry_Int_Tables_number      2
_space_group_name_Hall           '-P 1'
loop_
_symmetry_equiv_pos_site_id
_symmetry_equiv_pos_as_xyz
1 x,y,z
2 -x,-y,-z
_cell_length_a                   8.9050(2)
_cell_length_b                   10.2565(3)
_cell_length_c                   13.9276(10)
_cell_angle_alpha                105.390(3)
_cell_angle_beta                 103.636(2)
_cell_angle_gamma                100.037(5)
_cell_volume                     1153.17
_cell_formula_units_Z            2
loop_
_atom_site_label
_atom_site_type_symbol
_atom_site_fract_x
_atom_site_fract_y
_atom_site_fract_z
O1 O -0.4889(4) -0.2800(4) 0.9968(3)
O2 O -0.6975(4) -0.1912(4) 0.8902(3)
O3 O -0.0212(4) -0.2160(4) 0.5644(3)
O4 O -0.3024(4) 0.2743(4) 0.6679(3)
O5 O 0.1987(4) -0.0029(4) 0.5902(3)
O6 O -0.1011(4) 0.3960(4) 0.6286(3)
O7 O -0.3897(4) 0.4835(4) 0.8078(3)
O8 O -0.3959(5) 0.5630(5) 0.6714(3)
O9 O -0.0034(4) 0.3330(4) 0.9158(3)
C1 C -0.2987(5) 0.0757(5) 0.7727(4)
H1 H -0.3909(5) 0.0517(5) 0.7108(4)
C2 C -0.1573(6) 0.0568(6) 0.7311(4)
C3 C -0.0377(6) 0.1713(6) 0.7430(4)
C4 C -0.0418(6) 0.3146(6) 0.8063(4)
H2 H 0.0287(6) 0.3880(6) 0.7929(4)
C5 C -0.2142(6) 0.3286(6) 0.7802(5)
C6 C -0.2814(6) 0.2307(5) 0.8343(4)
H3 H -0.3836(6) 0.2451(5) 0.8437(4)
C7 C -0.1516(5) 0.2818(6) 0.9378(4)
H4 H -0.1745(5) 0.3564(6) 0.9872(4)
H5 H -0.1432(5) 0.2062(6) 0.9667(4)
C8 C -0.3433(6) -0.0226(5) 0.8322(4)
C9 C -0.5017(6) -0.0603(6) 0.8320(4)
H6 H -0.5785(6) -0.0274(6) 0.7940(4)
C10 C -0.5454(6) -0.1449(6) 0.8868(4)
C11 C -0.4314(6) -0.1952(5) 0.9450(4)
C12 C -0.2737(5) -0.1565(5) 0.9471(4)
H7 H -0.1962(5) -0.1871(5) 0.9866(4)
C13 C -0.2307(6) -0.0703(6) 0.8890(4)
H8 H -0.1250(6) -0.0457(6) 0.8893(4)
C14 C -0.3730(5) -0.3285(6) 1.0590(4)
H9 H -0.4258(6) -0.3902(24) 1.0888(19)
H10 H -0.2981(21) -0.2501(6) 1.1139(14)
H11 H -0.3174(24) -0.3775(26) 1.0162(6)
C15 C -0.8217(5) -0.1545(6) 0.8248(4)
H12 H -0.9232(6) -0.1965(27) 0.8302(19)
H13 H -0.8206(24) -0.1876(28) 0.7537(5)
H14 H -0.8047(21) -0.0547(6) 0.8464(15)
C16 C -0.1540(6) -0.0746(6) 0.6719(4)
H15 H -0.2344(6) -0.1519(6) 0.6631(4)
C17 C -0.0335(6) -0.0938(6) 0.6255(4)
C18 C 0.0840(6) 0.0256(6) 0.6390(4)
C19 C 0.0827(6) 0.1550(6) 0.6958(4)
H16 H 0.1617(6) 0.2325(6) 0.7032(4)
C20 C -0.1269(6) -0.3416(6) 0.5600(5)
H17 H -0.1014(28) -0.4212(6) 0.5191(22)
H18 H -0.2352(7) -0.3418(18) 0.5286(25)
H19 H -0.1148(30) -0.3460(18) 0.6293(5)
C21 C 0.3215(5) 0.1148(5) 0.5991(4)
H20 H 0.3995(21) 0.0824(6) 0.5683(22)
H21 H 0.3721(26) 0.1676(19) 0.6714(4)
H22 H 0.2750(8) 0.1732(18) 0.5635(21)
C22 C -0.2335(7) 0.3228(6) 0.6016(5)
C23 C -0.3439(6) 0.2684(6) 0.4939(5)
H23 H -0.3953(30) 0.3390(13) 0.4797(10)
H24 H -0.4231(25) 0.1872(21) 0.4870(9)
H25 H -0.2848(9) 0.2439(34) 0.4454(5)
C24 C -0.2242(5) 0.4784(5) 0.8196(5)
H26 H -0.1624(5) 0.5197(5) 0.8926(5)
H27 H -0.1794(5) 0.5321(5) 0.7807(5)
C25 C -0.4598(7) 0.5292(6) 0.7326(5)
C26 C -0.6314(5) 0.5272(6) 0.7271(4)
H28 H -0.6438(10) 0.5423(38) 0.7955(6)
H29 H -0.6993(6) 0.4383(14) 0.6813(22)
H30 H -0.6604(14) 0.5999(24) 0.7009(26)
loop_
_geom_bond_atom_site_label_1
_geom_bond_atom_site_label_2
_geom_bond_site_symmetry_1
_geom_bond_site_symmetry_2
O1 C11 1_555 1_555
O2 C10 1_555 1_555
O3 C17 1_555 1_555
O4 C5 1_555 1_555
O5 C18 1_555 1_555
O6 C22 1_555 1_555
O7 C24 1_555 1_555
O8 C25 1_555 1_555
O9 C4 1_555 1_555
C1 H1 1_555 1_555
C2 C1 1_555 1_555
C3 C2 1_555 1_555
C4 C3 1_555 1_555
H2 C4 1_555 1_555
C5 C4 1_555 1_555
C6 C1 1_555 1_555
H3 C6 1_555 1_555
C7 O9 1_555 1_555
H4 C7 1_555 1_555
H5 C7 1_555 1_555
C8 C1 1_555 1_555
C9 C8 1_555 1_555
H6 C9 1_555 1_555
C10 C9 1_555 1_555
C11 C10 1_555 1_555
C12 C11 1_555 1_555
H7 C12 1_555 1_555
C13 C8 1_555 1_555
H8 C13 1_555 1_555
C14 O1 1_555 1_555
H9 C14 1_555 1_555
H10 C14 1_555 1_555
H11 C14 1_555 1_555
C15 O2 1_555 1_555
H12 C15 1_555 1_555
H13 C15 1_555 1_555
H14 C15 1_555 1_555
C16 C2 1_555 1_555
H15 C16 1_555 1_555
C17 C16 1_555 1_555
C18 C17 1_555 1_555
C19 C3 1_555 1_555
H16 C19 1_555 1_555
C20 O3 1_555 1_555
H17 C20 1_555 1_555
H18 C20 1_555 1_555
H19 C20 1_555 1_555
C21 O5 1_555 1_555
H20 C21 1_555 1_555
H21 C21 1_555 1_555
H22 C21 1_555 1_555
C22 O4 1_555 1_555
C23 C22 1_555 1_555
H23 C23 1_555 1_555
H24 C23 1_555 1_555
H25 C23 1_555 1_555
C24 C5 1_555 1_555
H26 C24 1_555 1_555
H27 C24 1_555 1_555
C25 O7 1_555 1_555
C26 C25 1_555 1_555
H28 C26 1_555 1_555
H29 C26 1_555 1_555
H30 C26 1_555 1_555
C5 C6 1_555 1_555
C6 C7 1_555 1_555
C12 C13 1_555 1_555
C18 C19 1_555 1_555

#END
