
#######################################################################
#
#                 Cambridge Crystallographic Data Centre
#                                CCDC 
#
#######################################################################
#
# If this CIF has been generated from an entry in the Cambridge 
# Structural Database, then it will include bibliographic, chemical, 
# crystal, experimental, refinement or atomic coordinate data resulting 
# from the CCDC's data processing and validation procedures.
#
#######################################################################

data_BATNOB
_chemical_formula_moiety         'C13 H12 N4 O3 S1'
_chemical_name_systematic        
N-Methyl-6-sulfamoyl-9H-\b-carboline-1-carboxamide
_symmetry_cell_setting           monoclinic
_symmetry_space_group_name_H-M   'P 21/c'
_symmetry_Int_Tables_number      14
_space_group_name_Hall           '-P 2ybc'
loop_
_symmetry_equiv_pos_site_id
_symmetry_equiv_pos_as_xyz
1 x,y,z
2 -x,1/2+y,1/2-z
3 -x,-y,-z
4 x,1/2-y,1/2+z
_cell_length_a                   11.455(2)
_cell_length_b                   12.538(3)
_cell_length_c                   9.2690(19)
_cell_angle_alpha                90
_cell_angle_beta                 100.04(3)
_cell_angle_gamma                90
_cell_volume                     1310.85
_exptl_crystal_colour            'pale brown'
_exptl_crystal_description       block
_chemical_melting_point          '256-257 deg.C'
_cell_formula_units_Z            4
_exptl_crystal_recrystallization_method N,N-dimethylformamide/methanol
loop_
_atom_site_label
_atom_site_type_symbol
_atom_site_fract_x
_atom_site_fract_y
_atom_site_fract_z
S1 S 0.73561(6) 0.23543(6) 0.21531(7)
O1 O 0.14525(17) 0.00537(17) 0.5848(2)
N1 N 0.0453(2) 0.1184(2) 0.7087(3)
H1 H 0.0295 0.1840 0.7247
C1 C -0.0119(3) 0.0354(3) 0.7796(4)
H2 H -0.0641 0.0671 0.8380
H3 H 0.0472 -0.0063 0.8412
H4 H -0.0567 -0.0098 0.7066
O2 O 0.75865(18) 0.16765(17) 0.0985(2)
N2 N 0.1560(2) 0.2878(2) 0.6056(3)
C2 C 0.1214(2) 0.0967(2) 0.6201(3)
O3 O 0.71999(17) 0.34694(17) 0.1887(2)
N3 N 0.3172(2) 0.08077(19) 0.4359(2)
H5 H 0.2868 0.0184 0.4403
C3 C 0.1834(2) 0.1892(2) 0.5671(3)
N4 N 0.8473(2) 0.2207(2) 0.3470(3)
H6 H 0.855(3) 0.149(3) 0.366(3)
H7 H 0.838(3) 0.260(2) 0.416(4)
C4 C 0.2197(3) 0.3700(2) 0.5700(3)
H8 H 0.1981 0.4382 0.5952
C5 C 0.3158(3) 0.3606(2) 0.4979(3)
H9 H 0.3588 0.4201 0.4780
C6 C 0.3454(2) 0.2593(2) 0.4567(3)
C7 C 0.4371(2) 0.2141(2) 0.3855(3)
C8 C 0.5359(2) 0.2559(2) 0.3357(3)
H10 H 0.5532 0.3283 0.3435
C9 C 0.6068(2) 0.1865(2) 0.2749(3)
C10 C 0.5845(3) 0.0769(2) 0.2655(3)
H11 H 0.6350 0.0325 0.2246
C11 C 0.4897(2) 0.0344(2) 0.3156(3)
H12 H 0.4747 -0.0385 0.3100
C12 C 0.4154(2) 0.1038(2) 0.3758(3)
C13 C 0.2752(2) 0.1729(2) 0.4876(3)
loop_
_geom_bond_atom_site_label_1
_geom_bond_atom_site_label_2
_geom_bond_site_symmetry_1
_geom_bond_site_symmetry_2
S1 O2 1_555 1_555
O1 C2 1_555 1_555
N1 H1 1_555 1_555
C1 N1 1_555 1_555
H2 C1 1_555 1_555
H3 C1 1_555 1_555
H4 C1 1_555 1_555
N2 C3 1_555 1_555
C2 N1 1_555 1_555
O3 S1 1_555 1_555
N3 H5 1_555 1_555
C3 C2 1_555 1_555
N4 S1 1_555 1_555
H6 N4 1_555 1_555
H7 N4 1_555 1_555
C4 N2 1_555 1_555
H8 C4 1_555 1_555
C5 C4 1_555 1_555
H9 C5 1_555 1_555
C6 C5 1_555 1_555
C7 C6 1_555 1_555
C8 C7 1_555 1_555
H10 C8 1_555 1_555
C9 S1 1_555 1_555
C10 C9 1_555 1_555
H11 C10 1_555 1_555
C11 C10 1_555 1_555
H12 C11 1_555 1_555
C12 N3 1_555 1_555
C13 N3 1_555 1_555
C3 C13 1_555 1_555
C6 C13 1_555 1_555
C7 C12 1_555 1_555
C8 C9 1_555 1_555
C11 C12 1_555 1_555

#END
