
#######################################################################
#
#                 Cambridge Crystallographic Data Centre
#                                CCDC 
#
#######################################################################
#
# If this CIF has been generated from an entry in the Cambridge 
# Structural Database, then it will include bibliographic, chemical, 
# crystal, experimental, refinement or atomic coordinate data resulting 
# from the CCDC's data processing and validation procedures.
#
#######################################################################

data_BATYOK10
_chemical_formula_moiety         'C36 H33 N6 P3,C2 H6 O1'
_chemical_name_systematic        
'2-Phenylamino-1,3-diphenyl-4-(2,2-bis(phenylamino)-1-phenyl-2,1-phosphazanyl)-1,3,2,4-diazadiphosphetidine ethanol solvate'
_symmetry_cell_setting           monoclinic
_symmetry_space_group_name_H-M   'C 2/c'
_symmetry_Int_Tables_number      15
_space_group_name_Hall           '-C 2yn'
loop_
_symmetry_equiv_pos_site_id
_symmetry_equiv_pos_as_xyz
1 x,y,z
2 1/2+x,1/2+y,z
3 -x,y,1/2-z
4 1/2-x,1/2+y,1/2-z
5 -x,-y,-z
6 1/2-x,1/2-y,-z
7 x,-y,1/2+z
8 1/2+x,1/2-y,1/2+z
_cell_length_a                   23.156(9)
_cell_length_b                   14.533(5)
_cell_length_c                   22.243(8)
_cell_angle_alpha                90
_cell_angle_beta                 100.63(3)
_cell_angle_gamma                90
_cell_volume                     7356.89
_exptl_crystal_colour            colorless
_chemical_melting_point          180-181deg.C
_cell_formula_units_Z            8
loop_
_atom_site_label
_atom_site_type_symbol
_atom_site_fract_x
_atom_site_fract_y
_atom_site_fract_z
P1 P 0.7256(1) 0.1346(2) 0.6194(1)
P2 P 0.7104(1) -0.0285(2) 0.6891
P3 P 0.6804(2) -0.2035(5) 0.6886(1)
N1 N 0.7810(3) 0.1432(5) 0.5802(3)
N2 N 0.6752(3) 0.1740(5) 0.5602(3)
N3 N 0.7113(3) 0.0181(5) 0.6195(3)
N4 N 0.7418(3) -0.1355(5) 0.6888(3)
N5 N 0.6490(3) -0.0966(5) 0.6794(3)
N6 N 0.6688(4) -0.2495(5) 0.6184(3)
C1 C 0.8408(25) 0.1351(5) 0.6077(3)
C2 C 0.8592(3) 0.1465(5) 0.6704(3)
C3 C 0.9186(4) 0.1395(5) 0.69610(25)
C4 C 0.9595(25) 0.1210(5) 0.6591(4)
C5 C 0.9411(3) 0.1096(5) 0.5963(4)
C6 C 0.8818(4) 0.1166(5) 0.57067(24)
C7 C 0.61911(24) 0.2026(4) 0.5666(3)
C8 C 0.60841(27) 0.2425(5) 0.62036(27)
C9 C 0.5521(3) 0.2722(5) 0.62425(27)
C10 C 0.50646(23) 0.2621(5) 0.5744(4)
C11 C 0.51716(29) 0.2221(5) 0.5207(3)
C12 C 0.5735(4) 0.1924(5) 0.51679(26)
C13 C 0.6975(3) -0.0336(4) 0.56455(24)
C14 C 0.79979(26) -0.1633(6) 0.6967(3)
C15 C 0.8173(3) -0.2561(5) 0.7043(3)
C16 C 0.8716(4) -0.2850(4) 0.7088(4)
C17 C 0.91570(27) -0.2211(7) 0.7058(4)
C18 C 0.9018(3) -0.1283(6) 0.6982(4)
C19 C 0.8438(4) -0.0994(4) 0.6936(4)
C20 C 0.58950(25) -0.0733(6) 0.6752(3)
C21 C 0.5723(4) 0.0183(5) 0.6747(3)
C22 C 0.5131(4) 0.0407(4) 0.6686(4)
C23 C 0.47102(26) -0.0285(7) 0.6629(3)
C24 C 0.4882(3) -0.1202(6) 0.6633(4)
C25 C 0.5474(4) -0.1426(4) 0.6695(4)
C26 C 0.64232(28) -0.3365(4) 0.6035(4)
C27 C 0.6152(3) -0.3510(5) 0.5430(3)
C28 C 0.5870(3) -0.4340(4) 0.52602(26)
C29 C 0.5858(3) -0.5024(4) 0.5695(4)
C30 C 0.6129(3) -0.4879(5) 0.6299(3)
C31 C 0.6412(6) -0.4050(6) 0.64694(24)
H1 H 0.77168 0.15556 0.53696
H2 H 0.68547 0.17673 0.51950
H3 H 0.68118 -0.21473 0.58535
H4 H 0.83153 0.15878 0.69571
H5 H 0.93153 0.14833 0.73863
H6 H 1.00035 0.11804 0.67610
H7 H 0.96919 0.09820 0.57064
H8 H 0.86919 0.10865 0.52773
H9 H 0.78428 -0.30109 0.70647
H10 H 0.88193 -0.34924 0.71478
H11 H 0.95592 -0.24140 0.70965
H12 H 0.93225 -0.08540 0.69622
H13 H 0.83460 -0.03725 0.68792
H14 H 0.60104 0.06545 0.67909
H15 H 0.50132 0.10313 0.66815
H16 H 0.43047 -0.01344 0.65772
H17 H 0.45935 -0.16769 0.65822
H18 H 0.55906 -0.20536 0.66917
H19 H 0.61564 -0.30399 0.51320
H20 H 0.56905 -0.44411 0.48411
H21 H 0.56716 -0.55962 0.55701
H22 H 0.61188 -0.53499 0.65901
H23 H 0.65848 -0.39487 0.68809
loop_
_geom_bond_atom_site_label_1
_geom_bond_atom_site_label_2
_geom_bond_site_symmetry_1
_geom_bond_site_symmetry_2
P1 N1 1_555 1_555
P2 N3 1_555 1_555
P3 N4 1_555 1_555
N1 C1 1_555 1_555
N2 P1 1_555 1_555
N3 P1 1_555 1_555
N4 P2 1_555 1_555
N5 P2 1_555 1_555
N6 P3 1_555 1_555
C1 C2 1_555 1_555
C2 C3 1_555 1_555
C3 C4 1_555 1_555
C4 C5 1_555 1_555
C5 C6 1_555 1_555
C6 C1 1_555 1_555
C7 N2 1_555 1_555
C8 C7 1_555 1_555
C9 C8 1_555 1_555
C10 C9 1_555 1_555
C11 C10 1_555 1_555
C12 C7 1_555 1_555
C13 N3 1_555 1_555
C14 N4 1_555 1_555
C15 C14 1_555 1_555
C16 C15 1_555 1_555
C17 C16 1_555 1_555
C18 C17 1_555 1_555
C19 C14 1_555 1_555
C20 N5 1_555 1_555
C21 C20 1_555 1_555
C22 C21 1_555 1_555
C23 C22 1_555 1_555
C24 C23 1_555 1_555
C25 C20 1_555 1_555
C26 N6 1_555 1_555
C27 C26 1_555 1_555
C28 C27 1_555 1_555
C29 C28 1_555 1_555
C30 C29 1_555 1_555
C31 C26 1_555 1_555
H1 N1 1_555 1_555
H2 N2 1_555 1_555
H3 N6 1_555 1_555
H4 C2 1_555 1_555
H5 C3 1_555 1_555
H6 C4 1_555 1_555
H7 C5 1_555 1_555
H8 C6 1_555 1_555
H9 C15 1_555 1_555
H10 C16 1_555 1_555
H11 C17 1_555 1_555
H12 C18 1_555 1_555
H13 C19 1_555 1_555
H14 C21 1_555 1_555
H15 C22 1_555 1_555
H16 C23 1_555 1_555
H17 C24 1_555 1_555
H18 C25 1_555 1_555
H19 C27 1_555 1_555
H20 C28 1_555 1_555
H21 C29 1_555 1_555
H22 C30 1_555 1_555
H23 C31 1_555 1_555
P3 N5 1_555 1_555
C11 C12 1_555 1_555
C18 C19 1_555 1_555
C24 C25 1_555 1_555
C30 C31 1_555 1_555

#END
