
#######################################################################
#
#                 Cambridge Crystallographic Data Centre
#                                CCDC 
#
#######################################################################
#
# If this CIF has been generated from an entry in the Cambridge 
# Structural Database, then it will include bibliographic, chemical, 
# crystal, experimental, refinement or atomic coordinate data resulting 
# from the CCDC's data processing and validation procedures.
#
#######################################################################

data_BAVXEE
_chemical_formula_moiety         'C30 H23 N3 O5 S1'
_chemical_name_systematic        
"ethyl 5,5-dicyano-1'-((4-methylphenyl)sulfonyl)-2'-oxo-4-phenyl-1',2'-dihydrospiro[cyclopent-3-ene-1,3'-indole]-3-carboxylate"
_symmetry_cell_setting           monoclinic
_symmetry_space_group_name_H-M   'P 21/n'
_symmetry_Int_Tables_number      14
_space_group_name_Hall           '-P 2yn'
loop_
_symmetry_equiv_pos_site_id
_symmetry_equiv_pos_as_xyz
1 x,y,z
2 1/2-x,1/2+y,1/2-z
3 -x,-y,-z
4 1/2+x,1/2-y,1/2+z
_cell_length_a                   12.5227(5)
_cell_length_b                   13.8588(4)
_cell_length_c                   15.9556(6)
_cell_angle_alpha                90
_cell_angle_beta                 101.452(4)
_cell_angle_gamma                90
_cell_volume                     2713.96
_cell_formula_units_Z            4
loop_
_atom_site_label
_atom_site_type_symbol
_atom_site_fract_x
_atom_site_fract_y
_atom_site_fract_z
S1 S 0.20238(7) 0.54241(5) 0.42386(5)
O1 O 0.39246(17) 0.43029(14) 0.38613(14)
O2 O 0.6320(2) 0.2647(2) 0.24089(16)
O3 O 0.5037(2) 0.30996(17) 0.13046(15)
O4 O 0.27872(19) 0.60811(13) 0.40171(14)
O5 O 0.08999(18) 0.56834(15) 0.41124(15)
N1 N 0.3262(3) 0.2422(2) 0.50898(19)
N2 N 0.2314(3) 0.0608(2) 0.3011(2)
N3 N 0.20531(19) 0.44267(16) 0.36388(16)
C1 C 0.1151(2) 0.3875(2) 0.31761(19)
C2 C 0.0054(3) 0.4013(2) 0.3120(2)
H1 H -0.0206 0.4499 0.3427
C3 C -0.0655(3) 0.3400(3) 0.2587(3)
H2 H -0.1402 0.3466 0.2550
C4 C -0.0270(3) 0.2695(3) 0.2111(2)
H3 H -0.0756 0.2313 0.1736
C5 C 0.0831(3) 0.2558(2) 0.2192(2)
H4 H 0.1091 0.2077 0.1878
C6 C 0.1547(2) 0.3130(2) 0.27374(18)
C7 C 0.2768(2) 0.31296(19) 0.29451(17)
C8 C 0.3038(3) 0.40197(19) 0.35312(19)
C9 C 0.3375(3) 0.3175(2) 0.22021(18)
H5 H 0.2988 0.2819 0.1712
H6 H 0.3465 0.3838 0.2033
C10 C 0.4459(3) 0.27188(19) 0.25530(19)
C11 C 0.4464(3) 0.22016(19) 0.32534(18)
C12 C 0.3322(2) 0.22285(18) 0.34716(17)
C13 C 0.5384(3) 0.2814(2) 0.2109(2)
C14 C 0.5848(4) 0.3164(3) 0.0770(3)
H7 H 0.6341 0.3696 0.0959
H8 H 0.6272 0.2573 0.0816
C15 C 0.5317(4) 0.3311(6) -0.0088(3)
H9 H 0.5850 0.3369 -0.0442
H10 H 0.4890 0.3890 -0.0128
H11 H 0.4849 0.2772 -0.0278
C16 C 0.5350(3) 0.1643(2) 0.3795(2)
C17 C 0.6212(4) 0.2094(3) 0.4310(3)
H12 H 0.6257 0.2764 0.4300
C18 C 0.7008(4) 0.1580(4) 0.4839(3)
H13 H 0.7579 0.1900 0.5192
C19 C 0.6957(5) 0.0599(5) 0.4843(3)
H14 H 0.7492 0.0247 0.5205
C20 C 0.6139(5) 0.0138(4) 0.4328(4)
H15 H 0.6118 -0.0532 0.4325
C21 C 0.5325(3) 0.0653(3) 0.3800(3)
H16 H 0.4760 0.0327 0.3447
C22 C 0.3321(3) 0.2331(2) 0.4396(2)
C23 C 0.2737(3) 0.1317(2) 0.3203(2)
C24 C 0.2483(2) 0.50385(19) 0.52869(19)
C25 C 0.3557(3) 0.5146(2) 0.5683(2)
H17 H 0.4064 0.5386 0.5382
C26 C 0.3869(3) 0.4895(2) 0.6527(2)
H18 H 0.4592 0.4978 0.6798
C27 C 0.3136(3) 0.4520(2) 0.6987(2)
C28 C 0.2070(3) 0.4392(2) 0.6567(3)
H19 H 0.1568 0.4131 0.6862
C29 C 0.1736(3) 0.4641(2) 0.5729(2)
H20 H 0.1016 0.4545 0.5455
C30 C 0.3480(4) 0.4275(3) 0.7920(2)
H21 H 0.4259 0.4311 0.8084
H22 H 0.3245 0.3632 0.8017
H23 H 0.3156 0.4723 0.8254
loop_
_geom_bond_atom_site_label_1
_geom_bond_atom_site_label_2
_geom_bond_site_symmetry_1
_geom_bond_site_symmetry_2
S1 O4 1_555 1_555
O1 C8 1_555 1_555
O2 C13 1_555 1_555
O3 C13 1_555 1_555
O5 S1 1_555 1_555
N1 C22 1_555 1_555
N2 C23 1_555 1_555
N3 S1 1_555 1_555
C1 N3 1_555 1_555
C2 C1 1_555 1_555
H1 C2 1_555 1_555
C3 C2 1_555 1_555
H2 C3 1_555 1_555
C4 C3 1_555 1_555
H3 C4 1_555 1_555
C5 C4 1_555 1_555
H4 C5 1_555 1_555
C6 C1 1_555 1_555
C7 C6 1_555 1_555
C8 N3 1_555 1_555
C9 C7 1_555 1_555
H5 C9 1_555 1_555
H6 C9 1_555 1_555
C10 C9 1_555 1_555
C11 C10 1_555 1_555
C12 C7 1_555 1_555
C13 C10 1_555 1_555
C14 O3 1_555 1_555
H7 C14 1_555 1_555
H8 C14 1_555 1_555
C15 C14 1_555 1_555
H9 C15 1_555 1_555
H10 C15 1_555 1_555
H11 C15 1_555 1_555
C16 C11 1_555 1_555
C17 C16 1_555 1_555
H12 C17 1_555 1_555
C18 C17 1_555 1_555
H13 C18 1_555 1_555
C19 C18 1_555 1_555
H14 C19 1_555 1_555
C20 C19 1_555 1_555
H15 C20 1_555 1_555
C21 C16 1_555 1_555
H16 C21 1_555 1_555
C22 C12 1_555 1_555
C23 C12 1_555 1_555
C24 S1 1_555 1_555
C25 C24 1_555 1_555
H17 C25 1_555 1_555
C26 C25 1_555 1_555
H18 C26 1_555 1_555
C27 C26 1_555 1_555
C28 C27 1_555 1_555
H19 C28 1_555 1_555
C29 C24 1_555 1_555
H20 C29 1_555 1_555
C30 C27 1_555 1_555
H21 C30 1_555 1_555
H22 C30 1_555 1_555
H23 C30 1_555 1_555
C5 C6 1_555 1_555
C7 C8 1_555 1_555
C11 C12 1_555 1_555
C20 C21 1_555 1_555
C28 C29 1_555 1_555

#END
