
#######################################################################
#
#                 Cambridge Crystallographic Data Centre
#                                CCDC 
#
#######################################################################
#
# If this CIF has been generated from an entry in the Cambridge 
# Structural Database, then it will include bibliographic, chemical, 
# crystal, experimental, refinement or atomic coordinate data resulting 
# from the CCDC's data processing and validation procedures.
#
#######################################################################

data_BAWBEJ
_chemical_formula_moiety         'C24 H25 B1 O2'
_chemical_name_systematic        
4,4,5,5-tetramethyl-2-(1,1':3',1''-terphenyl-5'-yl)-1,3,2-dioxaborolane
_symmetry_cell_setting           orthorhombic
_symmetry_space_group_name_H-M   'C m c 21'
_symmetry_Int_Tables_number      36
_space_group_name_Hall           'C 2n -2'
loop_
_symmetry_equiv_pos_site_id
_symmetry_equiv_pos_as_xyz
1 x,y,z
2 -x,-y,1/2+z
3 -x,y,z
4 x,-y,1/2+z
5 1/2+x,1/2+y,z
6 1/2-x,1/2-y,1/2+z
7 1/2-x,1/2+y,z
8 1/2+x,1/2-y,1/2+z
_cell_length_a                   18.596(3)
_cell_length_b                   10.7919(14)
_cell_length_c                   10.2912(14)
_cell_angle_alpha                90
_cell_angle_beta                 90
_cell_angle_gamma                90
_cell_volume                     2065.3
_cell_formula_units_Z            4
loop_
_atom_site_label
_atom_site_type_symbol
_atom_site_fract_x
_atom_site_fract_y
_atom_site_fract_z
B1 B 0.0000 0.2750(3) 0.2560(3)
C1 C 0.1922(1) 0.2098(2) 0.6385(3)
H1 H 0.1874 0.2767 0.5822
C2 C 0.2565(1) 0.1924(3) 0.7047(3)
H2 H 0.2945 0.2472 0.6917
C3 C 0.2643(1) 0.0956(3) 0.7886(3)
H3 H 0.3077 0.0836 0.8319
C4 C 0.2078(2) 0.0156(3) 0.8088(3)
H4 H 0.2125 -0.0492 0.8678
C5 C 0.1440(1) 0.0314(2) 0.7414(3)
H5 H 0.1065 -0.0243 0.7542
C6 C 0.1350(1) 0.1289(2) 0.6552(2)
C7 C 0.0656(1) 0.1489(2) 0.5866(2)
C8 C 0.0000 0.1242(2) 0.6467(3)
H6 H 0.0000 0.0901 0.7297
C9 C 0.0646(1) 0.1969(2) 0.4611(2)
H7 H 0.1079 0.2134 0.4194
C10 C 0.0000 0.2208(2) 0.3961(3)
C11 C 0.0414(2) 0.3490(3) 0.0636(3)
C12 C 0.0739(4) 0.4717(7) 0.0522(11)
H8 H 0.0525 0.5265 0.1148
H9 H 0.0658 0.5035 -0.0337
H10 H 0.1246 0.4658 0.0680
C13 C 0.0737(4) 0.2649(10) -0.0323(6)
H11 H 0.1250 0.2649 -0.0222
H12 H 0.0616 0.2923 -0.1184
H13 H 0.0556 0.1826 -0.0191
O1 O 0.0606(1) 0.3018(2) 0.1896(2)
C1B C -0.1922(1) 0.2098(2) 0.6385(3)
H1B H -0.1874 0.2767 0.5822
C2B C -0.2565(1) 0.1924(3) 0.7047(3)
H2B H -0.2945 0.2472 0.6917
C3B C -0.2643(1) 0.0956(3) 0.7886(3)
H3B H -0.3077 0.0836 0.8319
C4B C -0.2078(2) 0.0156(3) 0.8088(3)
H4B H -0.2125 -0.0492 0.8678
C5B C -0.1440(1) 0.0314(2) 0.7414(3)
H5B H -0.1065 -0.0243 0.7542
C6B C -0.1350(1) 0.1289(2) 0.6552(2)
C7B C -0.0656(1) 0.1489(2) 0.5866(2)
C9B C -0.0646(1) 0.1969(2) 0.4611(2)
H7B H -0.1079 0.2134 0.4194
C11B C -0.0414(2) 0.3490(3) 0.0636(3)
C12B C -0.0739(4) 0.4717(7) 0.0522(11)
H8B H -0.0525 0.5265 0.1148
H9B H -0.0658 0.5035 -0.0337
H10B H -0.1246 0.4658 0.0680
C13B C -0.0737(4) 0.2649(10) -0.0323(6)
H11B H -0.1250 0.2649 -0.0222
H12B H -0.0616 0.2923 -0.1184
H13B H -0.0556 0.1826 -0.0191
O1B O -0.0606(1) 0.3018(2) 0.1896(2)
loop_
_geom_bond_atom_site_label_1
_geom_bond_atom_site_label_2
_geom_bond_site_symmetry_1
_geom_bond_site_symmetry_2
B1 C10 1_555 1_555
C1 H1 1_555 1_555
C2 C1 1_555 1_555
H2 C2 1_555 1_555
C3 C2 1_555 1_555
H3 C3 1_555 1_555
C4 C3 1_555 1_555
H4 C4 1_555 1_555
C5 C4 1_555 1_555
H5 C5 1_555 1_555
C6 C1 1_555 1_555
C7 C6 1_555 1_555
C8 C7 1_555 1_555
H6 C8 1_555 1_555
C9 C7 1_555 1_555
H7 C9 1_555 1_555
C10 C9 1_555 1_555
C11 C12 1_555 1_555
C12 H8 1_555 1_555
H9 C12 1_555 1_555
H10 C12 1_555 1_555
C13 C11 1_555 1_555
H11 C13 1_555 1_555
H12 C13 1_555 1_555
H13 C13 1_555 1_555
O1 B1 1_555 1_555
C1B H1B 1_555 1_555
C2B C1B 1_555 1_555
H2B C2B 1_555 1_555
C3B C2B 1_555 1_555
H3B C3B 1_555 1_555
C4B C3B 1_555 1_555
H4B C4B 1_555 1_555
C5B C4B 1_555 1_555
H5B C5B 1_555 1_555
C6B C1B 1_555 1_555
C7B C8 1_555 1_555
C9B C10 1_555 1_555
H7B C9B 1_555 1_555
C11B C11 1_555 1_555
C12B C11B 1_555 1_555
H8B C12B 1_555 1_555
H9B C12B 1_555 1_555
H10B C12B 1_555 1_555
C13B C11B 1_555 1_555
H11B C13B 1_555 1_555
H12B C13B 1_555 1_555
H13B C13B 1_555 1_555
O1B B1 1_555 1_555
C5 C6 1_555 1_555
C11 O1 1_555 1_555
C5B C6B 1_555 1_555
C6B C7B 1_555 1_555
C7B C9B 1_555 1_555
C11B O1B 1_555 1_555

#END
