
#######################################################################
#
#                 Cambridge Crystallographic Data Centre
#                                CCDC 
#
#######################################################################
#
# If this CIF has been generated from an entry in the Cambridge 
# Structural Database, then it will include bibliographic, chemical, 
# crystal, experimental, refinement or atomic coordinate data resulting 
# from the CCDC's data processing and validation procedures.
#
#######################################################################

data_BAWFEN
_chemical_formula_moiety         'C19 H18 O3'
_chemical_name_systematic        2,6-Dimethoxy-1-(4-methoxyphenyl)naphthalene
_symmetry_cell_setting           monoclinic
_symmetry_space_group_name_H-M   'C c'
_symmetry_Int_Tables_number      9
_space_group_name_Hall           'C -2yc'
loop_
_symmetry_equiv_pos_site_id
_symmetry_equiv_pos_as_xyz
1 x,y,z
2 x,-y,1/2+z
3 1/2+x,1/2+y,z
4 1/2+x,1/2-y,1/2+z
_cell_length_a                   8.6905(3)
_cell_length_b                   21.9250(7)
_cell_length_c                   8.2652(3)
_cell_angle_alpha                90
_cell_angle_beta                 108.3260(10)
_cell_angle_gamma                90
_cell_volume                     1494.97
_exptl_crystal_colour            colorless
_cell_formula_units_Z            4
loop_
_atom_site_label
_atom_site_type_symbol
_atom_site_fract_x
_atom_site_fract_y
_atom_site_fract_z
C1 C 0.55103(17) 0.23978(6) 0.19184(15)
C2 C 0.69037(17) 0.23911(6) 0.14550(16)
C3 C 0.75516(18) 0.18427(6) 0.10475(17)
H1 H 0.8502 0.1851 0.0714
C4 C 0.68075(17) 0.12998(6) 0.11343(16)
H2 H 0.7229 0.0934 0.0822
C5 C 0.54222(16) 0.12727(6) 0.16803(15)
C6 C 0.47005(17) 0.07046(6) 0.18579(16)
H3 H 0.5122 0.0336 0.1561
C7 C 0.34035(17) 0.06879(6) 0.24541(15)
C8 C 0.27734(18) 0.12331(6) 0.29156(16)
H4 H 0.1891 0.1215 0.3361
C9 C 0.34289(16) 0.17844(6) 0.27226(15)
H5 H 0.2982 0.2147 0.3021
C10 C 0.47683(16) 0.18274(5) 0.20835(15)
C11 C 0.47977(16) 0.29898(5) 0.22268(15)
C12 C 0.32763(17) 0.31807(6) 0.11840(15)
H6 H 0.2662 0.2921 0.0296
C13 C 0.26454(17) 0.37416(6) 0.14194(15)
H7 H 0.1609 0.3864 0.0695
C14 C 0.35361(17) 0.41265(6) 0.27241(15)
C15 C 0.50409(17) 0.39434(6) 0.37862(16)
H8 H 0.5644 0.4201 0.4688
C16 C 0.56648(17) 0.33795(6) 0.35226(16)
H9 H 0.6704 0.3259 0.4243
C17 C 0.9323(2) 0.29667(7) 0.1983(2)
H10 H 0.9673 0.2776 0.3112
H11 H 0.9683 0.3393 0.2081
H12 H 0.9798 0.2747 0.1223
C18 C 0.3199(2) -0.03950(6) 0.21894(19)
H13 H 0.3140 -0.0379 0.0986
H14 H 0.2536 -0.0734 0.2367
H15 H 0.4328 -0.0456 0.2896
C19 C 0.38048(19) 0.51010(6) 0.40671(18)
H16 H 0.4083 0.4927 0.5215
H17 H 0.3198 0.5481 0.4022
H18 H 0.4801 0.5186 0.3790
O1 O 0.76013(13) 0.29446(4) 0.13051(14)
O2 O 0.26070(13) 0.01665(4) 0.26549(12)
O3 O 0.28296(12) 0.46758(4) 0.28585(12)
loop_
_geom_bond_atom_site_label_1
_geom_bond_atom_site_label_2
_geom_bond_site_symmetry_1
_geom_bond_site_symmetry_2
C1 C2 1_555 1_555
C2 C3 1_555 1_555
C3 H1 1_555 1_555
C4 C3 1_555 1_555
H2 C4 1_555 1_555
C5 C4 1_555 1_555
C6 C5 1_555 1_555
H3 C6 1_555 1_555
C7 C6 1_555 1_555
C8 C7 1_555 1_555
H4 C8 1_555 1_555
C9 C8 1_555 1_555
H5 C9 1_555 1_555
C10 C1 1_555 1_555
C11 C1 1_555 1_555
C12 C11 1_555 1_555
H6 C12 1_555 1_555
C13 C12 1_555 1_555
H7 C13 1_555 1_555
C14 C13 1_555 1_555
C15 C14 1_555 1_555
H8 C15 1_555 1_555
C16 C11 1_555 1_555
H9 C16 1_555 1_555
C17 H10 1_555 1_555
H11 C17 1_555 1_555
H12 C17 1_555 1_555
C18 H13 1_555 1_555
H14 C18 1_555 1_555
H15 C18 1_555 1_555
C19 H16 1_555 1_555
H17 C19 1_555 1_555
H18 C19 1_555 1_555
O1 C2 1_555 1_555
O2 C7 1_555 1_555
O3 C14 1_555 1_555
C5 C10 1_555 1_555
C9 C10 1_555 1_555
C15 C16 1_555 1_555
C17 O1 1_555 1_555
C18 O2 1_555 1_555
C19 O3 1_555 1_555

#END
