
#######################################################################
#
#                 Cambridge Crystallographic Data Centre
#                                CCDC 
#
#######################################################################
#
# If this CIF has been generated from an entry in the Cambridge 
# Structural Database, then it will include bibliographic, chemical, 
# crystal, experimental, refinement or atomic coordinate data resulting 
# from the CCDC's data processing and validation procedures.
#
#######################################################################

data_BAWQIC
_chemical_compound_source        'leaves of Cinnamomum cassia'
_chemical_name_common            'Cinnamomol A unknown solvate trihydrate'
_chemical_formula_moiety         'C20 H30 O8,3(H2 O1)'
_chemical_name_systematic        
'12-isopropyl-2,6,14-trimethyl-11,13-dioxahexacyclo[10.3.1.0^2,9^.0^3,7^.0^8,15^.0^10,14^]hexadecane-1,3,7,8,10,15-hexol unknown solvate trihydrate'
_chemical_properties_biological  'immunostimulative activity'
_symmetry_cell_setting           trigonal
_symmetry_space_group_name_H-M   'P 32 2 1'
_symmetry_Int_Tables_number      154
_space_group_name_Hall           'P 32 2"'
loop_
_symmetry_equiv_pos_site_id
_symmetry_equiv_pos_as_xyz
1 x,y,z
2 -y,x-y,2/3+z
3 -x+y,-x,1/3+z
4 y,x,-z
5 -x,-x+y,2/3-z
6 x-y,-y,1/3-z
_cell_length_a                   17.1874(8)
_cell_length_b                   17.1874(8)
_cell_length_c                   42.085(2)
_cell_angle_alpha                90
_cell_angle_beta                 90
_cell_angle_gamma                120
_cell_volume                     10766.6
_exptl_crystal_colour            colorless
_exptl_crystal_description       block
_chemical_melting_point          '188-189 deg.C'
_cell_formula_units_Z            18
_exptl_crystal_recrystallization_method water
loop_
_atom_site_label
_atom_site_type_symbol
_atom_site_fract_x
_atom_site_fract_y
_atom_site_fract_z
C1 C -0.06258(15) 0.74889(15) 0.76288(6)
C2 C -0.08741(17) 0.65182(16) 0.75509(7)
H1 H -0.1484 0.6144 0.7634
C3 C -0.0977(2) 0.6472(2) 0.71938(9)
H2 H -0.1333 0.5855 0.7123
H3 H -0.0396 0.6746 0.7090
C4 C -0.1457(2) 0.6998(2) 0.71266(8)
H4 H -0.2102 0.6596 0.7122
H5 H -0.1270 0.7298 0.6923
C5 C -0.12042(16) 0.76946(17) 0.73955(7)
C6 C 0.03345(14) 0.82576(15) 0.75419(6)
C7 C 0.05774(16) 0.91652(15) 0.77065(6)
C8 C -0.02140(19) 0.93234(17) 0.75843(7)
C9 C -0.05686(16) 0.86822(16) 0.72866(7)
C10 C 0.02834(16) 0.86245(17) 0.72096(6)
H6 H 0.0201 0.8214 0.7035
C11 C 0.11552(17) 0.95471(18) 0.71838(6)
C12 C 0.14566(17) 0.98300(16) 0.75330(6)
C13 C 0.1017(2) 1.0764(2) 0.73401(8)
C14 C 0.0120(2) 1.0306(2) 0.75101(10)
H7 H -0.0322 1.0347 0.7379
H8 H 0.0174 1.0622 0.7707
C15 C -0.0330(2) 0.61359(19) 0.76948(10)
H9 H -0.0677 0.5492 0.7692
H10 H -0.0178 0.6340 0.7910
H11 H 0.0211 0.6333 0.7574
C16 C -0.1005(2) 0.8965(2) 0.70328(10)
H12 H -0.0577 0.9552 0.6955
H13 H -0.1511 0.8980 0.7122
H14 H -0.1202 0.8543 0.6860
C17 C 0.23054(19) 0.9831(2) 0.76418(9)
H15 H 0.2825 1.0371 0.7570
H16 H 0.2312 0.9319 0.7554
H17 H 0.2312 0.9804 0.7870
C18 C 0.1322(3) 1.1713(2) 0.72292(11)
H18 H 0.0872 1.1688 0.7080
C19 C 0.2227(3) 1.2119(3) 0.70534(11)
H19 H 0.2669 1.2109 0.7190
H20 H 0.2417 1.2727 0.6994
H21 H 0.2160 1.1772 0.6866
C20 C 0.1379(5) 1.2309(3) 0.75105(18)
H22 H 0.0794 1.2229 0.7553
H23 H 0.1787 1.2928 0.7459
H24 H 0.1592 1.2144 0.7695
O1 O -0.08083(13) 0.75048(12) 0.79580(4)
H25 H -0.0683 0.8015 0.8009
O2 O -0.20047(12) 0.76023(14) 0.75333(6)
H26 H -0.2306 0.7096 0.7607
O3 O 0.10019(11) 0.80181(12) 0.75585(5)
H27 H 0.1107 0.7969 0.7745
O4 O 0.06591(15) 0.91972(12) 0.80377(4)
H28 H 0.1044 0.9073 0.8090
O5 O -0.08943(16) 0.90708(15) 0.78190(6)
H29 H -0.1093 0.8542 0.7867
O6 O 0.17655(14) 0.94962(17) 0.69863(5)
H30 H 0.2221 0.9991 0.6975
O7 O 0.09985(15) 1.02379(13) 0.70723(5)
O8 O 0.16495(15) 1.07381(12) 0.75488(5)
C21 C 0.50458(15) 0.69323(14) 0.76331(5)
C22 C 0.60385(16) 0.76357(17) 0.75767(6)
H31 H 0.6384 0.7379 0.7669
C23 C 0.61546(17) 0.76167(19) 0.72218(7)
H32 H 0.6782 0.7865 0.7166
H33 H 0.5916 0.7948 0.7112
C24 C 0.56104(19) 0.66109(19) 0.71442(7)
H34 H 0.5998 0.6352 0.7146
H35 H 0.5344 0.6523 0.6935
C25 C 0.48688(16) 0.61556(15) 0.73976(6)
C26 C 0.43154(14) 0.71550(13) 0.75240(5)
C27 C 0.33646(14) 0.64869(14) 0.76649(5)
C28 C 0.32115(16) 0.55469(14) 0.75406(5)
C29 C 0.39098(15) 0.58362(14) 0.72642(5)
C30 C 0.40094(14) 0.67609(14) 0.71839(5)
H36 H 0.4460 0.7091 0.7020
C31 C 0.31190(14) 0.67483(14) 0.71308(5)
C32 C 0.27472(15) 0.67347(16) 0.74727(5)
C33 C 0.18476(16) 0.53837(17) 0.72506(6)
C34 C 0.22474(16) 0.49116(16) 0.74398(6)
H37 H 0.1884 0.4641 0.7628
H38 H 0.2228 0.4434 0.7311
C35 C 0.64183(19) 0.85628(19) 0.77255(9)
H39 H 0.7041 0.8796 0.7776
H40 H 0.6092 0.8519 0.7916
H41 H 0.6361 0.8958 0.7578
C36 C 0.36746(19) 0.51424(17) 0.70028(6)
H42 H 0.3115 0.5009 0.6907
H43 H 0.3621 0.4604 0.7092
H44 H 0.4140 0.5377 0.6845
C37 C 0.27302(19) 0.7575(2) 0.75777(6)
H45 H 0.2158 0.7513 0.7526
H46 H 0.3197 0.8090 0.7470
H47 H 0.2825 0.7652 0.7803
C38 C 0.09066(19) 0.4764(2) 0.71197(8)
H48 H 0.0521 0.4410 0.7297
C39 C 0.0504(3) 0.5273(3) 0.69716(10)
H49 H 0.0557 0.5730 0.7116
H50 H -0.0119 0.4868 0.6927
H51 H 0.0815 0.5546 0.6778
C40 C 0.0930(3) 0.4105(3) 0.68736(11)
H52 H 0.0328 0.3682 0.6808
H53 H 0.1201 0.3790 0.6968
H54 H 0.1274 0.4436 0.6692
O9 O 0.49608(12) 0.67013(12) 0.79611(4)
H55 H 0.4438 0.6325 0.8000
O10 O 0.49523(13) 0.54476(12) 0.75366(5)
H56 H 0.5450 0.5654 0.7619
O11 O 0.45621(11) 0.80635(10) 0.75564(4)
H57 H 0.4672 0.8212 0.7743
O12 O 0.32798(12) 0.65239(13) 0.79953(4)
H58 H 0.2761 0.6168 0.8048
O13 O 0.34230(13) 0.50998(12) 0.77845(4)
H59 H 0.3941 0.5427 0.7845
O14 O 0.32539(11) 0.74393(11) 0.69328(4)
H60 H 0.2776 0.7428 0.6904
O15 O 0.24285(10) 0.59097(11) 0.70008(3)
O16 O 0.18376(11) 0.60216(12) 0.74631(4)
C41 C 0.25012(15) 0.68237(14) 0.56642(5)
C42 C 0.15179(16) 0.65650(17) 0.57298(6)
H61 H 0.1153 0.5957 0.5644
C43 C 0.14303(17) 0.64591(18) 0.60877(6)
H62 H 0.1689 0.7039 0.6192
H63 H 0.0806 0.6097 0.6151
C44 C 0.19547(17) 0.59897(17) 0.61652(6)
H64 H 0.1554 0.5344 0.6171
H65 H 0.2238 0.6181 0.6372
C45 C 0.26819(16) 0.62368(14) 0.59039(5)
C46 C 0.32632(15) 0.77743(14) 0.57609(5)
C47 C 0.41797(16) 0.80048(16) 0.56065(5)
C48 C 0.43260(16) 0.72227(17) 0.57332(6)
C49 C 0.36508(15) 0.68596(15) 0.60229(5)
C50 C 0.35959(15) 0.77137(14) 0.60959(5)
H66 H 0.3169 0.7629 0.6265
C51 C 0.45087(17) 0.85750(16) 0.61320(6)
C52 C 0.48455(18) 0.88923(17) 0.57822(6)
C53 C 0.57470(19) 0.8444(2) 0.59991(7)
C54 C 0.53008(19) 0.7541(2) 0.58263(7)
H67 H 0.5316 0.7094 0.5962
H68 H 0.5642 0.7594 0.5636
C55 C 0.1146(2) 0.7119(2) 0.55775(8)
H69 H 0.0501 0.6776 0.5577
H70 H 0.1361 0.7267 0.5363
H71 H 0.1341 0.7661 0.5697
C56 C 0.39010(19) 0.64247(18) 0.62874(6)
H72 H 0.4451 0.6867 0.6385
H73 H 0.3980 0.5952 0.6201
H74 H 0.3431 0.6180 0.6443
C57 C 0.4876(3) 0.9740(2) 0.56697(8)
H75 H 0.5442 1.0251 0.5727
H76 H 0.4398 0.9790 0.5768
H77 H 0.4806 0.9720 0.5443
C58 C 0.6697(2) 0.8777(3) 0.61183(10)
H78 H 0.7070 0.8814 0.5937
C59 C 0.7124(4) 0.9609(5) 0.62838(19)
H79 H 0.6954 1.0011 0.6190
H80 H 0.7764 0.9868 0.6271
H81 H 0.6942 0.9510 0.6503
C60 C 0.6717(4) 0.8140(6) 0.63550(18)
H82 H 0.7280 0.8151 0.6340
H83 H 0.6234 0.7543 0.6312
H84 H 0.6651 0.8316 0.6565
O17 O 0.25732(12) 0.66539(13) 0.53372(4)
H85 H 0.3093 0.6788 0.5297
O18 O 0.26017(13) 0.54434(11) 0.57648(5)
H86 H 0.2085 0.5120 0.5702
O19 O 0.30338(13) 0.84556(11) 0.57315(4)
H87 H 0.2866 0.8460 0.5549
O20 O 0.42425(13) 0.81117(14) 0.52743(4)
H88 H 0.3865 0.7644 0.5189
O21 O 0.41244(14) 0.65549(14) 0.54946(5)
H89 H 0.3605 0.6352 0.5434
O22 O 0.44288(14) 0.91810(12) 0.63258(4)
H90 H 0.4920 0.9638 0.6344
O23 O 0.51989(12) 0.84325(13) 0.62560(4)
O24 O 0.57402(13) 0.90660(14) 0.57802(5)
O25 O 0.28245(10) 0.90028(15) 0.51172(3)
H95 H 0.3018 0.8831 0.4962
H96 H 0.2312 0.8922 0.5065
O26 O 0.26719(10) 0.90639(16) 0.63285(4)
H97 H 0.3021 0.9386 0.6477
H98 H 0.3000 0.9094 0.6172
O27 O 0.32924(14) 0.91568(12) 0.82875(4)
H99 H 0.3310 0.8704 0.8215
H100 H 0.2913 0.9220 0.8177
O28 O -0.14837(12) 0.62986(16) 0.84740(3)
H101 H -0.1903 0.6390 0.8413
H102 H -0.1213 0.6275 0.8309
O29 O 0.1444(3) 0.6086(3) 0.81511(10)
H103 H 0.1770 0.6450 0.8295
H104 H 0.1724 0.6269 0.7976
O30 O 0.18510(12) 0.77833(11) 0.68680(4)
H105 H 0.1829 0.8008 0.7045
H106 H 0.2304 0.8185 0.6768
O31 O 0.13403(9) 0.59465(17) 0.48570(3)
H107 H 0.1398 0.5911 0.5056
H108 H 0.1862 0.6176 0.4776
O32 O 0.50814(11) 0.91435(10) 0.69821(4)
H109 H 0.4570 0.8686 0.7018
H110 H 0.5321 0.9009 0.6831
O33 O -0.33015(7) 0.58668(8) 0.77266(2)
H111 H -0.3855 0.5668 0.7688
H112 H -0.3253 0.5799 0.7924
H91? H 0.6934 0.9372 0.6215
C61? C 0.7282(8) 0.8827(13) 0.5851(3)
H92? H 0.7290 0.9233 0.5692
H93? H 0.7054 0.8241 0.5760
H94? H 0.7881 0.9040 0.5928
loop_
_geom_bond_atom_site_label_1
_geom_bond_atom_site_label_2
_geom_bond_site_symmetry_1
_geom_bond_site_symmetry_2
C1 C2 1_555 1_555
C2 H1 1_555 1_555
C3 C2 1_555 1_555
H2 C3 1_555 1_555
H3 C3 1_555 1_555
C4 C3 1_555 1_555
H4 C4 1_555 1_555
H5 C4 1_555 1_555
C5 C1 1_555 1_555
C6 C1 1_555 1_555
C7 C6 1_555 1_555
C8 C7 1_555 1_555
C9 C5 1_555 1_555
C10 C6 1_555 1_555
H6 C10 1_555 1_555
C11 C10 1_555 1_555
C12 C7 1_555 1_555
C13 C14 1_555 1_555
C14 C8 1_555 1_555
H7 C14 1_555 1_555
H8 C14 1_555 1_555
C15 C2 1_555 1_555
H9 C15 1_555 1_555
H10 C15 1_555 1_555
H11 C15 1_555 1_555
C16 C9 1_555 1_555
H12 C16 1_555 1_555
H13 C16 1_555 1_555
H14 C16 1_555 1_555
C17 C12 1_555 1_555
H15 C17 1_555 1_555
H16 C17 1_555 1_555
H17 C17 1_555 1_555
C18 C13 1_555 1_555
H18 C18 1_555 1_555
C19 C18 1_555 1_555
H19 C19 1_555 1_555
H20 C19 1_555 1_555
H21 C19 1_555 1_555
C20 C18 1_555 1_555
H22 C20 1_555 1_555
H23 C20 1_555 1_555
H24 C20 1_555 1_555
O1 C1 1_555 1_555
H25 O1 1_555 1_555
O2 C5 1_555 1_555
H26 O2 1_555 1_555
O3 C6 1_555 1_555
H27 O3 1_555 1_555
O4 C7 1_555 1_555
H28 O4 1_555 1_555
O5 C8 1_555 1_555
H29 O5 1_555 1_555
O6 C11 1_555 1_555
H30 O6 1_555 1_555
O7 C11 1_555 1_555
O8 C12 1_555 1_555
C21 C22 1_555 1_555
C22 H31 1_555 1_555
C23 C22 1_555 1_555
H32 C23 1_555 1_555
H33 C23 1_555 1_555
C24 C23 1_555 1_555
H34 C24 1_555 1_555
H35 C24 1_555 1_555
C25 C21 1_555 1_555
C26 C21 1_555 1_555
C27 C26 1_555 1_555
C28 C27 1_555 1_555
C29 C25 1_555 1_555
C30 C26 1_555 1_555
H36 C30 1_555 1_555
C31 C30 1_555 1_555
C32 C27 1_555 1_555
C33 C34 1_555 1_555
C34 C28 1_555 1_555
H37 C34 1_555 1_555
H38 C34 1_555 1_555
C35 C22 1_555 1_555
H39 C35 1_555 1_555
H40 C35 1_555 1_555
H41 C35 1_555 1_555
C36 C29 1_555 1_555
H42 C36 1_555 1_555
H43 C36 1_555 1_555
H44 C36 1_555 1_555
C37 C32 1_555 1_555
H45 C37 1_555 1_555
H46 C37 1_555 1_555
H47 C37 1_555 1_555
C38 C33 1_555 1_555
H48 C38 1_555 1_555
C39 C38 1_555 1_555
H49 C39 1_555 1_555
H50 C39 1_555 1_555
H51 C39 1_555 1_555
C40 C38 1_555 1_555
H52 C40 1_555 1_555
H53 C40 1_555 1_555
H54 C40 1_555 1_555
O9 C21 1_555 1_555
H55 O9 1_555 1_555
O10 C25 1_555 1_555
H56 O10 1_555 1_555
O11 C26 1_555 1_555
H57 O11 1_555 1_555
O12 C27 1_555 1_555
H58 O12 1_555 1_555
O13 C28 1_555 1_555
H59 O13 1_555 1_555
O14 C31 1_555 1_555
H60 O14 1_555 1_555
O15 C31 1_555 1_555
O16 C32 1_555 1_555
C41 C42 1_555 1_555
C42 H61 1_555 1_555
C43 C42 1_555 1_555
H62 C43 1_555 1_555
H63 C43 1_555 1_555
C44 C43 1_555 1_555
H64 C44 1_555 1_555
H65 C44 1_555 1_555
C45 C41 1_555 1_555
C46 C41 1_555 1_555
C47 C46 1_555 1_555
C48 C47 1_555 1_555
C49 C45 1_555 1_555
C50 C46 1_555 1_555
H66 C50 1_555 1_555
C51 C50 1_555 1_555
C52 C47 1_555 1_555
C53 C54 1_555 1_555
C54 C48 1_555 1_555
H67 C54 1_555 1_555
H68 C54 1_555 1_555
C55 C42 1_555 1_555
H69 C55 1_555 1_555
H70 C55 1_555 1_555
H71 C55 1_555 1_555
C56 C49 1_555 1_555
H72 C56 1_555 1_555
H73 C56 1_555 1_555
H74 C56 1_555 1_555
C57 C52 1_555 1_555
H75 C57 1_555 1_555
H76 C57 1_555 1_555
H77 C57 1_555 1_555
C58 C53 1_555 1_555
H78 C58 1_555 1_555
C59 C58 1_555 1_555
H79 C59 1_555 1_555
H80 C59 1_555 1_555
H81 C59 1_555 1_555
C60 C58 1_555 1_555
H82 C60 1_555 1_555
H83 C60 1_555 1_555
H84 C60 1_555 1_555
O17 C41 1_555 1_555
H85 O17 1_555 1_555
O18 C45 1_555 1_555
H86 O18 1_555 1_555
O19 C46 1_555 1_555
H87 O19 1_555 1_555
O20 C47 1_555 1_555
H88 O20 1_555 1_555
O21 C48 1_555 1_555
H89 O21 1_555 1_555
O22 C51 1_555 1_555
H90 O22 1_555 1_555
O23 C51 1_555 1_555
O24 C52 1_555 1_555
O25 H95 1_555 1_555
H96 O25 1_555 1_555
O26 H97 1_555 1_555
H98 O26 1_555 1_555
O27 H99 1_555 1_555
H100 O27 1_555 1_555
O28 H101 1_555 1_555
H102 O28 1_555 1_555
O29 H103 1_555 1_555
H104 O29 1_555 1_555
O30 H105 1_555 1_555
H106 O30 1_555 1_555
O31 H107 1_555 1_555
H108 O31 1_555 1_555
O32 H109 1_555 1_555
H110 O32 1_555 1_555
O33 H111 1_555 1_555
H112 O33 1_555 1_555
C4 C5 1_555 1_555
C8 C9 1_555 1_555
C9 C10 1_555 1_555
C11 C12 1_555 1_555
C13 O7 1_555 1_555
C13 O8 1_555 1_555
C24 C25 1_555 1_555
C28 C29 1_555 1_555
C29 C30 1_555 1_555
C31 C32 1_555 1_555
C33 O15 1_555 1_555
C33 O16 1_555 1_555
C44 C45 1_555 1_555
C48 C49 1_555 1_555
C49 C50 1_555 1_555
C51 C52 1_555 1_555
C53 O23 1_555 1_555
C53 O24 1_555 1_555

#END
