
#######################################################################
#
#                 Cambridge Crystallographic Data Centre
#                                CCDC 
#
#######################################################################
#
# If this CIF has been generated from an entry in the Cambridge 
# Structural Database, then it will include bibliographic, chemical, 
# crystal, experimental, refinement or atomic coordinate data resulting 
# from the CCDC's data processing and validation procedures.
#
#######################################################################

data_BAWSAW
_chemical_formula_moiety         'C17 H19 N1 O5'
_chemical_name_systematic        
1,2-dihydroxy-2,3,5,6,9,14b-hexahydro-4H-cyclopenta[a][1,3]dioxolo[4,5-h]pyrrolo[2,1-b][3]benzazepin-8(1H)-one
_symmetry_cell_setting           triclinic
_symmetry_space_group_name_H-M   'P -1'
_symmetry_Int_Tables_number      2
_space_group_name_Hall           '-P 1'
loop_
_symmetry_equiv_pos_site_id
_symmetry_equiv_pos_as_xyz
1 x,y,z
2 -x,-y,-z
_cell_length_a                   8.1791(6)
_cell_length_b                   8.4632(4)
_cell_length_c                   11.3125(9)
_cell_angle_alpha                70.672(6)
_cell_angle_beta                 84.194(7)
_cell_angle_gamma                80.842(5)
_cell_volume                     728.525
_exptl_crystal_colour            colorless
_exptl_crystal_description       block
_chemical_melting_point          '243-245 deg.C'
_cell_formula_units_Z            2
_exptl_crystal_recrystallization_method dichloromethane/methanol
loop_
_atom_site_label
_atom_site_type_symbol
_atom_site_fract_x
_atom_site_fract_y
_atom_site_fract_z
O1 O 0.90838(17) 1.08832(16) 0.10408(14)
O2 O 0.2423(2) 1.1594(2) 0.38161(18)
O3 O 0.2495(2) 0.8927(2) 0.52762(16)
O4 O 0.51080(17) 0.66029(15) 0.09688(14)
H1 H 0.4606 0.6126 0.0625
O5 O 0.71641(18) 0.39274(16) 0.04913(13)
H2 H 0.7727 0.3020 0.0531
N1 N 0.91556(18) 0.80803(18) 0.19375(14)
C1 C 0.8398(2) 0.9595(2) 0.12784(17)
C2 C 0.6661(2) 0.9679(2) 0.09146(17)
H3 H 0.6617 0.8825 0.0524
H4 H 0.6317 1.0778 0.0317
C3 C 0.5516(2) 0.9382(2) 0.20815(17)
C4 C 0.4480(3) 1.0762(2) 0.2295(2)
H5 H 0.4427 1.1836 0.1706
C5 C 0.3549(3) 1.0462(3) 0.3403(2)
C6 C 0.2006(3) 1.0686(3) 0.5084(3)
H6 H 0.0821 1.0902 0.5260
H7 H 0.2574 1.1045 0.5644
C7 C 0.3608(2) 0.8888(3) 0.42755(19)
C8 C 0.4626(2) 0.7531(2) 0.40941(18)
H8 H 0.4673 0.6472 0.4702
C9 C 0.5598(2) 0.7776(2) 0.29709(17)
C10 C 0.6693(2) 0.6263(2) 0.27666(17)
H9 H 0.6767 0.5420 0.3604
C11 C 0.8555(2) 0.6409(2) 0.22643(16)
C12 C 0.9722(2) 0.5354(2) 0.33026(19)
H10 H 0.9313 0.5494 0.4102
H11 H 0.9835 0.4165 0.3383
C13 C 1.1366(2) 0.6038(3) 0.2881(2)
H12 H 1.2062 0.5777 0.3584
H13 H 1.1957 0.5580 0.2254
C14 C 1.0851(2) 0.7925(3) 0.2333(2)
H14 H 1.0862 0.8479 0.2958
H15 H 1.1585 0.8420 0.1623
C15 C 0.5967(2) 0.5387(2) 0.19710(18)
H16 H 0.5233 0.4589 0.2495
C16 C 0.7509(2) 0.4448(2) 0.15054(17)
H17 H 0.7916 0.3451 0.2196
C17 C 0.8759(2) 0.5701(2) 0.11619(17)
H18 H 0.8509 0.6591 0.0378
H19 H 0.9878 0.5141 0.1088
loop_
_geom_bond_atom_site_label_1
_geom_bond_atom_site_label_2
_geom_bond_site_symmetry_1
_geom_bond_site_symmetry_2
O1 C1 1_555 1_555
O2 C5 1_555 1_555
O3 C6 1_555 1_555
O4 H1 1_555 1_555
O5 H2 1_555 1_555
N1 C1 1_555 1_555
C1 C2 1_555 1_555
C2 H3 1_555 1_555
H4 C2 1_555 1_555
C3 C2 1_555 1_555
C4 C3 1_555 1_555
H5 C4 1_555 1_555
C5 C4 1_555 1_555
C6 O2 1_555 1_555
H6 C6 1_555 1_555
H7 C6 1_555 1_555
C7 O3 1_555 1_555
C8 C7 1_555 1_555
H8 C8 1_555 1_555
C9 C3 1_555 1_555
C10 C9 1_555 1_555
H9 C10 1_555 1_555
C11 N1 1_555 1_555
C12 C11 1_555 1_555
H10 C12 1_555 1_555
H11 C12 1_555 1_555
C13 C12 1_555 1_555
H12 C13 1_555 1_555
H13 C13 1_555 1_555
C14 N1 1_555 1_555
H14 C14 1_555 1_555
H15 C14 1_555 1_555
C15 O4 1_555 1_555
H16 C15 1_555 1_555
C16 O5 1_555 1_555
H17 C16 1_555 1_555
C17 C11 1_555 1_555
H18 C17 1_555 1_555
H19 C17 1_555 1_555
C5 C7 1_555 1_555
C8 C9 1_555 1_555
C10 C11 1_555 1_555
C10 C15 1_555 1_555
C13 C14 1_555 1_555
C15 C16 1_555 1_555
C16 C17 1_555 1_555

#END
