
#######################################################################
#
#                 Cambridge Crystallographic Data Centre
#                                CCDC 
#
#######################################################################
#
# If this CIF has been generated from an entry in the Cambridge 
# Structural Database, then it will include bibliographic, chemical, 
# crystal, experimental, refinement or atomic coordinate data resulting 
# from the CCDC's data processing and validation procedures.
#
#######################################################################

data_BAXNIA
_chemical_formula_moiety         'C39 H49 N3'
_chemical_name_systematic        
N,N-dibenzyl-N',N''-bis[2,6-di-isopropylphenyl]guanidine
_symmetry_cell_setting           triclinic
_symmetry_space_group_name_H-M   'P -1'
_symmetry_Int_Tables_number      2
_space_group_name_Hall           '-P 1'
loop_
_symmetry_equiv_pos_site_id
_symmetry_equiv_pos_as_xyz
1 x,y,z
2 -x,-y,-z
_cell_length_a                   10.323(8)
_cell_length_b                   10.930(8)
_cell_length_c                   16.132(12)
_cell_angle_alpha                79.031(7)
_cell_angle_beta                 82.038(9)
_cell_angle_gamma                82.388(9)
_cell_volume                     1759.13
_exptl_crystal_colour            colorless
_exptl_crystal_description       block
_cell_formula_units_Z            2
loop_
_atom_site_label
_atom_site_type_symbol
_atom_site_fract_x
_atom_site_fract_y
_atom_site_fract_z
N1 N -0.07050(15) 0.17429(15) 0.26493(10)
N2 N 0.03530(15) 0.35195(13) 0.20547(9)
N3 N 0.15590(14) 0.15663(13) 0.25651(9)
C1 C 0.03622(17) 0.22749(16) 0.24348(11)
C2 C -0.19186(19) 0.23525(19) 0.23842(13)
C3 C -0.2716(2) 0.3188(2) 0.28610(15)
C4 C -0.3936(2) 0.3690(3) 0.25979(18)
H1 H -0.4474 0.4248 0.2899
C5 C -0.4357(2) 0.3380(3) 0.1910(2)
H2 H -0.5175 0.3728 0.1747
C6 C -0.3588(2) 0.2559(3) 0.14545(17)
H3 H -0.3894 0.2353 0.0988
C7 C -0.2356(2) 0.2029(2) 0.16793(14)
C8 C -0.2293(2) 0.3468(2) 0.36626(16)
H4 H -0.1337 0.3483 0.3561
C9 C -0.2880(4) 0.4745(4) 0.3889(3)
H5 H -0.2797 0.5382 0.3391
H6 H -0.2417 0.4937 0.4317
H7 H -0.3793 0.4715 0.4102
C10 C -0.2560(3) 0.2417(4) 0.44125(18)
H8 H -0.3490 0.2356 0.4526
H9 H -0.2245 0.2594 0.4905
H10 H -0.2115 0.1638 0.4279
C11 C -0.1527(3) 0.1059(2) 0.12062(15)
H11 H -0.0604 0.1196 0.1194
C12 C -0.1786(4) 0.1164(4) 0.0286(2)
H12 H -0.2691 0.1062 0.0271
H13 H -0.1229 0.0524 0.0035
H14 H -0.1600 0.1974 -0.0026
C13 C -0.1681(4) -0.0253(3) 0.1695(2)
H15 H -0.1426 -0.0325 0.2254
H16 H -0.1131 -0.0852 0.1401
H17 H -0.2583 -0.0411 0.1739
C14 C 0.14090(18) 0.42489(16) 0.16547(11)
C15 C 0.20710(19) 0.40716(18) 0.08614(12)
C16 C 0.3004(2) 0.4879(2) 0.04781(15)
H18 H 0.3453 0.4781 -0.0050
C17 C 0.3274(3) 0.5816(2) 0.08666(19)
H19 H 0.3905 0.6342 0.0603
C18 C 0.2614(3) 0.5976(2) 0.16422(18)
H20 H 0.2799 0.6619 0.1896
C19 C 0.1682(2) 0.52070(18) 0.20540(13)
C20 C 0.1801(2) 0.3057(2) 0.04096(14)
H21 H 0.1256 0.2493 0.0816
C21 C 0.1047(6) 0.3576(4) -0.0332(3)
H22 H 0.0171 0.3893 -0.0131
H23 H 0.1006 0.2924 -0.0648
H24 H 0.1480 0.4242 -0.0692
C22 C 0.3048(3) 0.2284(3) 0.0125(2)
H25 H 0.3580 0.2801 -0.0300
H26 H 0.2830 0.1603 -0.0109
H27 H 0.3527 0.1956 0.0603
C23 C 0.0965(3) 0.5426(2) 0.29054(15)
H28 H 0.0456 0.4717 0.3139
C24 C 0.1897(4) 0.5508(4) 0.3545(2)
H29 H 0.2504 0.4760 0.3611
H30 H 0.1397 0.5591 0.4083
H31 H 0.2374 0.6223 0.3343
C25 C -0.0002(5) 0.6615(4) 0.2778(2)
H32 H 0.0442 0.7285 0.2432
H33 H -0.0336 0.6840 0.3321
H34 H -0.0718 0.6465 0.2503
C26 C 0.25874(18) 0.20433(17) 0.29221(12)
H35 H 0.2542 0.2943 0.2733
H36 H 0.3439 0.1680 0.2692
C27 C 0.2507(2) 0.17769(18) 0.38797(13)
C28 C 0.1330(3) 0.1789(2) 0.43967(15)
H37 H 0.0545 0.1949 0.4154
C29 C 0.1295(4) 0.1565(3) 0.52765(18)
H38 H 0.0493 0.1570 0.5619
C30 C 0.2453(5) 0.1337(4) 0.5638(2)
H39 H 0.2436 0.1196 0.6226
C31 C 0.3621(4) 0.1317(4) 0.5134(2)
H40 H 0.4403 0.1151 0.5380
C32 C 0.3658(3) 0.1542(3) 0.42594(16)
H41 H 0.4466 0.1534 0.3922
C33 C 0.15033(19) 0.02018(17) 0.28190(14)
H42 H 0.0823 -0.0045 0.2546
H43 H 0.1267 0.0005 0.3429
C34 C 0.27931(19) -0.05345(17) 0.25825(12)
C35 C 0.3531(2) -0.1233(2) 0.31893(16)
H44 H 0.3242 -0.1235 0.3762
C36 C 0.4701(3) -0.1937(3) 0.2959(2)
H45 H 0.5194 -0.2407 0.3374
C37 C 0.5127(3) -0.1934(3) 0.2111(3)
H46 H 0.5914 -0.2396 0.1952
C38 C 0.4393(3) -0.1253(3) 0.1506(2)
H47 H 0.4677 -0.1256 0.0933
C39 C 0.3250(3) -0.0572(2) 0.17384(15)
H48 H 0.2758 -0.0116 0.1318
loop_
_geom_bond_atom_site_label_1
_geom_bond_atom_site_label_2
_geom_bond_site_symmetry_1
_geom_bond_site_symmetry_2
N1 C1 1_555 1_555
N2 C1 1_555 1_555
N3 C1 1_555 1_555
C2 N1 1_555 1_555
C3 C2 1_555 1_555
C4 C3 1_555 1_555
H1 C4 1_555 1_555
C5 C4 1_555 1_555
H2 C5 1_555 1_555
C6 C5 1_555 1_555
H3 C6 1_555 1_555
C7 C2 1_555 1_555
C8 C3 1_555 1_555
H4 C8 1_555 1_555
C9 C8 1_555 1_555
H5 C9 1_555 1_555
H6 C9 1_555 1_555
H7 C9 1_555 1_555
C10 C8 1_555 1_555
H8 C10 1_555 1_555
H9 C10 1_555 1_555
H10 C10 1_555 1_555
C11 C7 1_555 1_555
H11 C11 1_555 1_555
C12 C11 1_555 1_555
H12 C12 1_555 1_555
H13 C12 1_555 1_555
H14 C12 1_555 1_555
C13 C11 1_555 1_555
H15 C13 1_555 1_555
H16 C13 1_555 1_555
H17 C13 1_555 1_555
C14 N2 1_555 1_555
C15 C14 1_555 1_555
C16 C15 1_555 1_555
H18 C16 1_555 1_555
C17 C16 1_555 1_555
H19 C17 1_555 1_555
C18 C17 1_555 1_555
H20 C18 1_555 1_555
C19 C14 1_555 1_555
C20 C15 1_555 1_555
H21 C20 1_555 1_555
C21 C20 1_555 1_555
H22 C21 1_555 1_555
H23 C21 1_555 1_555
H24 C21 1_555 1_555
C22 C20 1_555 1_555
H25 C22 1_555 1_555
H26 C22 1_555 1_555
H27 C22 1_555 1_555
C23 C19 1_555 1_555
H28 C23 1_555 1_555
C24 C23 1_555 1_555
H29 C24 1_555 1_555
H30 C24 1_555 1_555
H31 C24 1_555 1_555
C25 C23 1_555 1_555
H32 C25 1_555 1_555
H33 C25 1_555 1_555
H34 C25 1_555 1_555
C26 N3 1_555 1_555
H35 C26 1_555 1_555
H36 C26 1_555 1_555
C27 C26 1_555 1_555
C28 C27 1_555 1_555
H37 C28 1_555 1_555
C29 C28 1_555 1_555
H38 C29 1_555 1_555
C30 C29 1_555 1_555
H39 C30 1_555 1_555
C31 C30 1_555 1_555
H40 C31 1_555 1_555
C32 C27 1_555 1_555
H41 C32 1_555 1_555
C33 N3 1_555 1_555
H42 C33 1_555 1_555
H43 C33 1_555 1_555
C34 C33 1_555 1_555
C35 C34 1_555 1_555
H44 C35 1_555 1_555
C36 C35 1_555 1_555
H45 C36 1_555 1_555
C37 C36 1_555 1_555
H46 C37 1_555 1_555
C38 C37 1_555 1_555
H47 C38 1_555 1_555
C39 C34 1_555 1_555
H48 C39 1_555 1_555
C6 C7 1_555 1_555
C18 C19 1_555 1_555
C31 C32 1_555 1_555
C38 C39 1_555 1_555

#END
