
#######################################################################
#
#                 Cambridge Crystallographic Data Centre
#                                CCDC 
#
#######################################################################
#
# If this CIF has been generated from an entry in the Cambridge 
# Structural Database, then it will include bibliographic, chemical, 
# crystal, experimental, refinement or atomic coordinate data resulting 
# from the CCDC's data processing and validation procedures.
#
#######################################################################

data_BAXVEC
_chemical_formula_moiety         'C14 H15 Br1 O4'
_chemical_name_systematic        
'(-)-(3S,3aR,6R,7R,7aS,8S)-3a-Bromo-2,3,3a,6,7,7a-hexahydro-8-methyl-2-oxo-3,6-methano-1-benzofuran-7-yl crotonate'
_symmetry_cell_setting           monoclinic
_symmetry_space_group_name_H-M   'P 21'
_symmetry_Int_Tables_number      4
_space_group_name_Hall           'P 2yb'
loop_
_symmetry_equiv_pos_site_id
_symmetry_equiv_pos_as_xyz
1 x,y,z
2 -x,1/2+y,-z
_cell_length_a                   8.31880(10)
_cell_length_b                   15.5371(2)
_cell_length_c                   21.7500(4)
_cell_angle_alpha                90
_cell_angle_beta                 90.1467(6)
_cell_angle_gamma                90
_cell_volume                     2811.18
_exptl_crystal_colour            colorless
_exptl_crystal_description       prism
_chemical_melting_point          '88 deg.C'
_cell_formula_units_Z            8
loop_
_atom_site_label
_atom_site_type_symbol
_atom_site_fract_x
_atom_site_fract_y
_atom_site_fract_z
Br1 Br 0.43276(8) 0.02733(6) 0.38459(3)
O1 O 0.8041(5) 0.2173(3) 0.24397(18)
O2 O 0.6528(4) 0.0751(2) 0.26769(18)
O3 O 0.4557(6) 0.0595(3) 0.1980(2)
O13 O 1.0106(6) 0.1365(4) 0.2778(3)
C1 C 0.5972(7) 0.2801(3) 0.3073(3)
C2 C 0.7385(6) 0.2169(3) 0.3059(2)
C3 C 0.6759(6) 0.1253(3) 0.3220(2)
C4 C 0.5014(7) 0.0896(4) 0.2447(3)
C5 C 0.4179(6) 0.1525(3) 0.2871(2)
C6 C 0.5049(6) 0.1364(3) 0.3483(2)
C7 C 0.4945(7) 0.2070(4) 0.3938(3)
C8 C 0.5446(8) 0.2823(5) 0.3723(3)
C33 C 0.4592(7) 0.2458(4) 0.2653(3)
C34 C 0.3118(9) 0.3054(4) 0.2682(4)
C35 C 0.9406(9) 0.1710(4) 0.2360(3)
C54 C 1.0096(11) 0.159(1) 0.1767(4)
C56 C 0.9308(11) 0.1780(8) 0.1297(4)
C58 C 1.0027(15) 0.163(1) 0.0653(5)
H1 H 0.6272(7) 0.3390(3) 0.2927(3)
H2 H 0.8232(6) 0.2332(3) 0.3364(2)
H3 H 0.7539(6) 0.0969(3) 0.3507(2)
H4 H 0.2982(6) 0.1474(3) 0.2894(2)
H5 H 0.4560(7) 0.1983(4) 0.4369(3)
H6 H 0.5429(8) 0.3362(5) 0.3974(3)
H25 H 0.4983(7) 0.2439(4) 0.2219(3)
H26 H 0.2251(9) 0.2820(4) 0.2410(4)
H27 H 0.2730(9) 0.3067(4) 0.3117(4)
H28 H 0.3399(9) 0.3651(4) 0.2548(4)
H56 H 1.1199(11) 0.134(1) 0.1729(4)
H57 H 0.8216(11) 0.2044(8) 0.1337(4)
H58 H 0.9251(15) 0.183(1) 0.0331(5)
H59 H 1.1055(15) 0.196(1) 0.0614(5)
H60 H 1.0244(15) 0.100(1) 0.0598(5)
Br2 Br 0.42127(9) -0.20903(6) 0.06743(4)
O4 O 0.8181(4) -0.0445(3) -0.08132(17)
O5 O 0.6407(5) -0.1797(3) -0.05385(18)
O6 O 0.4302(6) -0.1986(4) -0.1172(2)
O14 O 1.0167(5) -0.1251(3) -0.0419(2)
C9 C 0.6175(7) 0.0289(4) -0.0220(3)
C10 C 0.7485(7) -0.0401(4) -0.0212(3)
C11 C 0.6740(6) -0.1271(4) -0.0013(2)
C12 C 0.4896(7) -0.1628(4) -0.0746(3)
C13 C 0.4188(6) -0.0919(4) -0.0352(2)
C14 C 0.5084(6) -0.1071(4) 0.0261(2)
C15 C 0.5074(7) -0.0315(4) 0.0680(3)
C16 C 0.5612(7) 0.0390(4) 0.0419(3)
C36 C 0.4746(7) -0.0033(4) -0.0619(3)
C37 C 0.3365(9) 0.0610(5) -0.0654(4)
C38 C 0.9571(7) -0.0910(4) -0.0863(3)
C39 C 1.0239(7) -0.0906(4) -0.1478(3)
C40 C 0.9633(7) -0.0494(4) -0.1954(3)
C41 C 1.033(1) -0.0483(5) -0.2575(3)
H7 H 0.6569(7) 0.0845(4) -0.0397(3)
H8 H 0.8359(7) -0.0254(4) 0.0086(3)
H9 H 0.7486(6) -0.1565(4) 0.0281(2)
H10 H 0.2988(6) -0.0922(4) -0.0323(2)
H11 H 0.4680(7) -0.0347(4) 0.1113(3)
H12 H 0.5678(7) 0.0949(4) 0.0646(3)
H29 H 0.5103(7) -0.0107(4) -0.1054(3)
H30 H 0.2471(9) 0.0371(5) -0.0911(4)
H31 H 0.3757(9) 0.1160(5) -0.0841(4)
H32 H 0.2965(9) 0.0724(5) -0.0229(4)
H33 H 1.1243(7) -0.1245(4) -0.1546(3)
H34 H 0.8629(7) -0.0157(4) -0.1876(3)
H35 H 0.963(1) -0.0117(5) -0.2844(3)
H36 H 1.144(1) -0.0240(5) -0.2564(3)
H37 H 1.036(1) -0.1083(5) -0.2741(3)
Br3 Br 1.05974(8) 0.66245(6) 0.11768(3)
O7 O 0.6861(5) 0.8303(3) 0.27149(19)
O8 O 0.8508(5) 0.6944(2) 0.23964(19)
O9 O 1.0577(6) 0.6747(3) 0.3034(2)
O15 O 0.4801(5) 0.7519(4) 0.2331(3)
C17 C 0.8839(7) 0.9037(4) 0.2098(3)
C18 C 0.7483(7) 0.8374(4) 0.2098(2)
C19 C 0.8161(6) 0.7500(4) 0.1877(2)
C20 C 1.0027(7) 0.7100(4) 0.2600(3)
C21 C 1.0765(6) 0.7790(3) 0.2200(2)
C22 C 0.9832(6) 0.7673(3) 0.1592(2)
C23 C 0.9859(7) 0.8426(4) 0.1176(3)
C24 C 0.9345(7) 0.9135(4) 0.1451(3)
C42 C 1.0305(7) 0.8686(4) 0.2464(3)
C43 C 1.1718(8) 0.9300(4) 0.2474(3)
C44 C 0.5447(8) 0.7846(5) 0.2760(3)
C45 C 0.4839(9) 0.7779(5) 0.3393(4)
C46 C 0.5525(9) 0.8119(4) 0.3847(3)
C47 C 0.4845(11) 0.8056(5) 0.4514(3)
H13 H 0.8479(7) 0.9595(4) 0.2280(3)
H14 H 0.6589(7) 0.8540(4) 0.1814(2)
H15 H 0.7383(6) 0.7217(4) 0.1590(2)
H16 H 1.1961(6) 0.7754(3) 0.2164(2)
H17 H 1.0223(7) 0.8402(4) 0.0738(3)
H18 H 0.9297(7) 0.9701(4) 0.1232(3)
H38 H 0.9962(7) 0.8611(4) 0.2901(3)
H39 H 1.2623(8) 0.9038(4) 0.2713(3)
H40 H 1.1395(8) 0.9856(4) 0.2669(3)
H41 H 1.2074(8) 0.9408(4) 0.2042(3)
H42 H 0.3855(9) 0.7425(5) 0.3470(4)
H43 H 0.6533(9) 0.8452(4) 0.3771(3)
H44 H 0.5553(11) 0.8385(5) 0.4802(3)
H45 H 0.3737(11) 0.8306(5) 0.4521(3)
H46 H 0.4801(11) 0.7439(5) 0.4644(3)
Br4 Br -0.04514(9) 0.39213(7) 0.57739(3)
O10 O 0.2912(5) 0.5602(3) 0.41005(17)
O11 O 0.1431(5) 0.4188(3) 0.45014(19)
O12 O -0.0744(7) 0.3791(4) 0.3963(2)
O16 O 0.5036(5) 0.4846(3) 0.4463(2)
C25 C 0.0893(7) 0.6297(4) 0.4701(3)
C26 C 0.2317(7) 0.5671(4) 0.4718(3)
C27 C 0.1760(7) 0.4792(4) 0.4983(3)
C28 C -0.0153(8) 0.4260(4) 0.4334(3)
C29 C -0.0902(6) 0.4976(3) 0.4701(2)
C30 C 0.0114(7) 0.4949(4) 0.5288(2)
C31 C 0.0035(7) 0.5745(4) 0.5671(3)
C32 C 0.0431(7) 0.6450(4) 0.5356(3)
C48 C -0.0542(7) 0.5853(4) 0.4363(3)
C49 C -0.2001(8) 0.6434(4) 0.4337(4)
C50 C 0.4362(8) 0.5171(4) 0.4034(3)
C51 C 0.498(1) 0.5160(5) 0.3418(4)
C52 C 0.426(1) 0.5474(5) 0.2960(4)
C53 C 0.5062(15) 0.5436(7) 0.2299(4)
H19 H 0.1156(7) 0.6850(4) 0.4488(3)
H20 H 0.3173(7) 0.5893(4) 0.5000(3)
H21 H 0.2618(7) 0.4553(4) 0.5257(3)
H22 H -0.2089(6) 0.4931(3) 0.4762(2)
H23 H -0.0280(7) 0.5747(4) 0.6115(3)
H24 H 0.0423(7) 0.7035(4) 0.5547(3)
H47 H -0.0265(7) 0.5723(4) 0.3926(3)
H48 H -0.2912(8) 0.6144(4) 0.4119(4)
H49 H -0.2326(8) 0.6568(4) 0.4769(4)
H50 H -0.1722(8) 0.6980(4) 0.4119(4)
H51 H 0.605(1) 0.4884(5) 0.3348(4)
H52 H 0.318(1) 0.5749(5) 0.3013(4)
H53 H 0.4305(15) 0.5736(7) 0.2013(4)
H54 H 0.6119(15) 0.5742(7) 0.2302(4)
H55 H 0.5221(15) 0.4829(7) 0.2158(4)
C55? C 0.9588(14) 0.1729(12) 0.1682(4)
C57? C 1.0881(15) 0.138(1) 0.1423(5)
C59? C 1.1100(18) 0.1412(11) 0.0720(5)
H61? H 0.8742(14) 0.2000(12) 0.1418(4)
H62? H 1.1722(15) 0.110(1) 0.1687(5)
H63? H 1.2137(18) 0.1127(11) 0.0608(5)
H64? H 1.1114(18) 0.2023(11) 0.0577(5)
H65? H 1.0188(18) 0.1100(11) 0.0519(5)
loop_
_geom_bond_atom_site_label_1
_geom_bond_atom_site_label_2
_geom_bond_site_symmetry_1
_geom_bond_site_symmetry_2
Br1 C6 1_555 1_555
Br2 C14 1_555 1_555
Br3 C22 1_555 1_555
Br4 C30 1_555 1_555
O1 C2 1_555 1_555
O2 C3 1_555 1_555
O3 C4 1_555 1_555
O4 C10 1_555 1_555
O5 C11 1_555 1_555
O6 C12 1_555 1_555
O7 C18 1_555 1_555
O8 C19 1_555 1_555
O9 C20 1_555 1_555
O10 C26 1_555 1_555
O11 C27 1_555 1_555
O12 C28 1_555 1_555
O13 C35 1_555 1_555
O14 C38 1_555 1_555
O15 C44 1_555 1_555
O16 C50 1_555 1_555
C1 C2 1_555 1_555
C2 C3 1_555 1_555
C3 C6 1_555 1_555
C4 O2 1_555 1_555
C5 C4 1_555 1_555
C6 C5 1_555 1_555
C7 C6 1_555 1_555
C8 C1 1_555 1_555
C9 C10 1_555 1_555
C10 C11 1_555 1_555
C11 C14 1_555 1_555
C12 O5 1_555 1_555
C13 C12 1_555 1_555
C14 C13 1_555 1_555
C15 C14 1_555 1_555
C16 C9 1_555 1_555
C17 C18 1_555 1_555
C18 C19 1_555 1_555
C19 C22 1_555 1_555
C20 O8 1_555 1_555
C21 C20 1_555 1_555
C22 C21 1_555 1_555
C23 C22 1_555 1_555
C24 C17 1_555 1_555
C25 C26 1_555 1_555
C26 C27 1_555 1_555
C27 C30 1_555 1_555
C28 O11 1_555 1_555
C29 C28 1_555 1_555
C30 C29 1_555 1_555
C31 C30 1_555 1_555
C32 C25 1_555 1_555
C33 C1 1_555 1_555
C34 C33 1_555 1_555
C35 O1 1_555 1_555
C36 C9 1_555 1_555
C37 C36 1_555 1_555
C38 O4 1_555 1_555
C39 C38 1_555 1_555
C40 C39 1_555 1_555
C41 C40 1_555 1_555
C42 C17 1_555 1_555
C43 C42 1_555 1_555
C44 O7 1_555 1_555
C45 C44 1_555 1_555
C46 C45 1_555 1_555
C47 C46 1_555 1_555
C48 C25 1_555 1_555
C49 C48 1_555 1_555
C50 O10 1_555 1_555
C51 C50 1_555 1_555
C52 C51 1_555 1_555
C53 C52 1_555 1_555
C54 C35 1_555 1_555
C56 C54 1_555 1_555
C58 C56 1_555 1_555
H1 C1 1_555 1_555
H2 C2 1_555 1_555
H3 C3 1_555 1_555
H4 C5 1_555 1_555
H5 C7 1_555 1_555
H6 C8 1_555 1_555
H7 C9 1_555 1_555
H8 C10 1_555 1_555
H9 C11 1_555 1_555
H10 C13 1_555 1_555
H11 C15 1_555 1_555
H12 C16 1_555 1_555
H13 C17 1_555 1_555
H14 C18 1_555 1_555
H15 C19 1_555 1_555
H16 C21 1_555 1_555
H17 C23 1_555 1_555
H18 C24 1_555 1_555
H19 C25 1_555 1_555
H20 C26 1_555 1_555
H21 C27 1_555 1_555
H22 C29 1_555 1_555
H23 C31 1_555 1_555
H24 C32 1_555 1_555
H25 C33 1_555 1_555
H26 C34 1_555 1_555
H27 C34 1_555 1_555
H28 C34 1_555 1_555
H29 C36 1_555 1_555
H30 C37 1_555 1_555
H31 C37 1_555 1_555
H32 C37 1_555 1_555
H33 C39 1_555 1_555
H34 C40 1_555 1_555
H35 C41 1_555 1_555
H36 C41 1_555 1_555
H37 C41 1_555 1_555
H38 C42 1_555 1_555
H39 C43 1_555 1_555
H40 C43 1_555 1_555
H41 C43 1_555 1_555
H42 C45 1_555 1_555
H43 C46 1_555 1_555
H44 C47 1_555 1_555
H45 C47 1_555 1_555
H46 C47 1_555 1_555
H47 C48 1_555 1_555
H48 C49 1_555 1_555
H49 C49 1_555 1_555
H50 C49 1_555 1_555
H51 C51 1_555 1_555
H52 C52 1_555 1_555
H53 C53 1_555 1_555
H54 C53 1_555 1_555
H55 C53 1_555 1_555
H56 C54 1_555 1_555
H57 C56 1_555 1_555
H58 C58 1_555 1_555
H59 C58 1_555 1_555
H60 C58 1_555 1_555
C5 C33 1_555 1_555
C7 C8 1_555 1_555
C13 C36 1_555 1_555
C15 C16 1_555 1_555
C21 C42 1_555 1_555
C23 C24 1_555 1_555
C29 C48 1_555 1_555
C31 C32 1_555 1_555

#END
