
#######################################################################
#
#                 Cambridge Crystallographic Data Centre
#                                CCDC 
#
#######################################################################
#
# If this CIF has been generated from an entry in the Cambridge 
# Structural Database, then it will include bibliographic, chemical, 
# crystal, experimental, refinement or atomic coordinate data resulting 
# from the CCDC's data processing and validation procedures.
#
#######################################################################

data_BAYNEU
_chemical_formula_moiety         'C22 H30 O5 S2'
_chemical_name_systematic        
13-Acetyl-6-(benzyloxyethyl)-3,3-dimethyl-2,4-dioxa-8,10-dithiatricyclo(7.4.0.0^1,5^)tridecane
_symmetry_cell_setting           triclinic
_symmetry_space_group_name_H-M   'P -1'
_symmetry_Int_Tables_number      2
_space_group_name_Hall           '-P 1'
loop_
_symmetry_equiv_pos_site_id
_symmetry_equiv_pos_as_xyz
1 x,y,z
2 -x,-y,-z
_cell_length_a                   9.144(3)
_cell_length_b                   12.855(4)
_cell_length_c                   13.158(4)
_cell_angle_alpha                117.15(2)
_cell_angle_beta                 123.71(2)
_cell_angle_gamma                79.73(3)
_cell_volume                     1138.96
_chemical_melting_point          101deg.C
_cell_formula_units_Z            2
loop_
_atom_site_label
_atom_site_type_symbol
_atom_site_fract_x
_atom_site_fract_y
_atom_site_fract_z
S1 S 0.57520 0.21120 0.09110
C1 C 0.75840 0.32490 0.22850
C2 C 0.72320 0.40070 0.34020
C3 C 0.72060 0.33470 0.41050
C4 C 0.59650 0.22000 0.31670
C5 C 0.61520 0.15770 0.39790
C6 C 0.74300 0.06280 0.41320
C7 C 0.72320 -0.02720 0.27900
S2 S 0.76700 0.04350 0.20520
C8 C 0.58720 0.13690 0.18360
O1 O 0.89710 0.30080 0.48380
C9 C 1.00540 0.37870 0.61420
O2 O 0.96350 0.47350 0.66490
C10 C 1.17490 0.33340 0.68270
O3 O 0.42420 0.26020 0.27800
C11 C 0.32760 0.19490 0.29200
O4 O 0.43840 0.10750 0.32560
C12 C 0.29660 0.27830 0.40370
C13 C 0.15640 0.13300 0.15630
C14 C 0.72290 -0.00230 0.47870
C15 C 0.74450 0.07540 0.61390
O5 O 0.91310 0.14310 0.70280
C16 C 0.96680 0.20720 0.84430
C17 C 0.84830 0.30350 0.86200
C18 C 0.74760 0.30400 0.90980
C19 C 0.65230 0.40240 0.93550
C20 C 0.65100 0.48760 0.90430
C21 C 0.74670 0.48510 0.85000
C22 C 0.84430 0.39110 0.82970
H1 H 0.76000 0.37700 0.18400
H2 H 0.87000 0.27300 0.25300
H3 H 0.59600 0.44800 0.30500
H4 H 0.81700 0.48100 0.41300
H5 H 0.67800 0.38600 0.47300
H6 H 0.66100 0.23000 0.50600
H7 H 0.86900 0.10900 0.47400
H8 H 0.58800 -0.06700 0.21300
H9 H 0.82200 -0.09400 0.29200
H10 H 0.47100 0.07300 0.11100
H11 H 1.26700 0.33600 0.67500
H12 H 1.17800 0.25900 0.67500
H13 H 1.26500 0.39700 0.78000
H14 H 0.20500 0.23600 0.40900
H15 H 0.24400 0.34500 0.38700
H16 H 0.40400 0.31100 0.47900
H17 H 0.11000 0.19500 0.15000
H18 H 0.08100 0.09300 0.17600
H19 H 0.18800 0.07200 0.09200
H20 H 0.81300 -0.06300 0.49000
H21 H 0.59900 -0.05600 0.42200
H22 H 0.74000 0.01900 0.65800
H23 H 0.64300 0.13500 0.61200
H24 H 0.92600 0.14700 0.85400
H25 H 1.10300 0.24300 0.90500
H26 H 0.75300 0.24200 0.93000
H27 H 0.57500 0.40700 0.97800
H28 H 0.58600 0.56500 0.92900
H29 H 0.74600 0.55400 0.82700
H30 H 0.92600 0.40500 0.80700
loop_
_geom_bond_atom_site_label_1
_geom_bond_atom_site_label_2
_geom_bond_site_symmetry_1
_geom_bond_site_symmetry_2
S1 C1 1_555 1_555
C1 C2 1_555 1_555
C2 C3 1_555 1_555
C3 C4 1_555 1_555
C4 C5 1_555 1_555
C5 C6 1_555 1_555
C6 C7 1_555 1_555
C7 S2 1_555 1_555
S2 C8 1_555 1_555
C8 S1 1_555 1_555
O1 C3 1_555 1_555
C9 O1 1_555 1_555
O2 C9 1_555 1_555
C10 C9 1_555 1_555
O3 C4 1_555 1_555
C11 O3 1_555 1_555
O4 C5 1_555 1_555
C12 C11 1_555 1_555
C13 C11 1_555 1_555
C14 C6 1_555 1_555
C15 C14 1_555 1_555
O5 C15 1_555 1_555
C16 O5 1_555 1_555
C17 C16 1_555 1_555
C18 C17 1_555 1_555
C19 C18 1_555 1_555
C20 C19 1_555 1_555
C21 C20 1_555 1_555
C22 C17 1_555 1_555
H1 C1 1_555 1_555
H2 C1 1_555 1_555
H3 C2 1_555 1_555
H4 C2 1_555 1_555
H5 C3 1_555 1_555
H6 C5 1_555 1_555
H7 C6 1_555 1_555
H8 C7 1_555 1_555
H9 C7 1_555 1_555
H10 C8 1_555 1_555
H11 C10 1_555 1_555
H12 C10 1_555 1_555
H13 C10 1_555 1_555
H14 C12 1_555 1_555
H15 C12 1_555 1_555
H16 C12 1_555 1_555
H17 C13 1_555 1_555
H18 C13 1_555 1_555
H19 C13 1_555 1_555
H20 C14 1_555 1_555
H21 C14 1_555 1_555
H22 C15 1_555 1_555
H23 C15 1_555 1_555
H24 C16 1_555 1_555
H25 C16 1_555 1_555
H26 C18 1_555 1_555
H27 C19 1_555 1_555
H28 C20 1_555 1_555
H29 C21 1_555 1_555
H30 C22 1_555 1_555
C4 C8 1_555 1_555
C11 O4 1_555 1_555
C21 C22 1_555 1_555

#END
