
#######################################################################
#
#                 Cambridge Crystallographic Data Centre
#                                CCDC 
#
#######################################################################
#
# If this CIF has been generated from an entry in the Cambridge 
# Structural Database, then it will include bibliographic, chemical, 
# crystal, experimental, refinement or atomic coordinate data resulting 
# from the CCDC's data processing and validation procedures.
#
#######################################################################

data_BAZDEN
_chemical_formula_moiety         'C25 H54 N6'
_chemical_name_systematic        
1,5,5,9,13,13,20,20-Octamethyl-3,7,11,15,18,22-hexaazabicyclo[7.7.7]tricosane
_symmetry_cell_setting           triclinic
_symmetry_space_group_name_H-M   'P -1'
_symmetry_Int_Tables_number      2
_space_group_name_Hall           '-P 1'
loop_
_symmetry_equiv_pos_site_id
_symmetry_equiv_pos_as_xyz
1 x,y,z
2 -x,-y,-z
_cell_length_a                   10.2473(1)
_cell_length_b                   11.4242(2)
_cell_length_c                   12.9246(2)
_cell_angle_alpha                96.5163(8)
_cell_angle_beta                 112.7701(9)
_cell_angle_gamma                100.3828(10)
_cell_volume                     1343.98
_exptl_crystal_colour            colorless
_exptl_crystal_description       block
_cell_formula_units_Z            2
loop_
_atom_site_label
_atom_site_type_symbol
_atom_site_fract_x
_atom_site_fract_y
_atom_site_fract_z
N1 N 0.22889(12) 0.30740(9) 0.87242(8)
N2 N 0.21455(10) -0.01831(9) 0.76059(7)
N3 N 0.47066(9) 0.37966(8) 0.75536(7)
N4 N 0.50032(9) 0.13560(7) 0.69095(8)
N5 N 0.22168(10) 0.34318(8) 0.53968(7)
N6 N 0.26644(10) 0.10704(7) 0.46814(7)
C1 C 0.18541(13) 0.54197(10) 0.78098(9)
C2 C 0.23528(10) 0.43845(8) 0.73129(8)
C3 C 0.29063(10) -0.05021(8) 0.59244(8)
C4 C 0.26258(13) -0.18885(9) 0.57998(9)
C5 C 0.16733(10) 0.31754(9) 0.75310(8)
C6 C 0.16721(12) 0.19348(10) 0.89759(10)
C7 C 0.27868(11) 0.11890(9) 0.94790(8)
C8 C 0.41245(14) 0.19842(11) 1.05061(9)
C9 C 0.20492(16) 0.01340(11) 0.98507(10)
C10 C 0.33008(11) 0.07036(10) 0.85821(9)
C11 C 0.19295(10) -0.00364(9) 0.64542(8)
C12 C 0.40278(11) 0.47014(9) 0.79034(8)
C13 C 0.62159(10) 0.39781(9) 0.83784(8)
C14 C 0.70951(10) 0.31859(9) 0.80226(8)
C15 C 0.72427(12) 0.34769(10) 0.69424(10)
C16 C 0.86215(12) 0.34973(13) 0.90071(11)
C17 C 0.64454(10) 0.18209(9) 0.78524(9)
C18 C 0.45388(10) 0.00287(8) 0.66772(8)
C19 C 0.17715(11) 0.43251(9) 0.60120(8)
C20 C 0.15202(11) 0.33487(9) 0.41588(8)
C21 C 0.21534(10) 0.26431(8) 0.34579(7)
C22 C 0.37705(12) 0.32355(10) 0.38237(10)
C23 C 0.12938(13) 0.27028(10) 0.21999(8)
C24 C 0.19312(11) 0.12888(9) 0.35252(8)
C25 C 0.24412(11) -0.02275(8) 0.47100(8)
H1 H 0.2261(16) 0.6196(14) 0.7681(13)
H2 H 0.2178(16) 0.5501(13) 0.8656(13)
H3 H 0.0760(17) 0.5270(13) 0.7444(12)
H4 H 0.3228(16) -0.2212(13) 0.5452(12)
H5 H 0.2868(15) -0.2142(13) 0.6561(12)
H6 H 0.1589(16) -0.2278(13) 0.5305(12)
H7 H 0.0557(14) 0.3067(11) 0.7218(10)
H8 H 0.1839(14) 0.2500(11) 0.7081(11)
H9 H 0.2209(17) 0.3773(14) 0.9185(13)
H10 H 0.1274(15) 0.2144(12) 0.9573(12)
H11 H 0.0859(15) 0.1415(12) 0.8261(12)
H12 H 0.4851(18) 0.1492(15) 1.0877(14)
H13 H 0.3860(17) 0.2339(15) 1.1093(14)
H14 H 0.4632(17) 0.2667(15) 1.0275(13)
H15 H 0.2692(18) -0.0446(15) 1.0095(14)
H16 H 0.1849(17) 0.0440(15) 1.0512(14)
H17 H 0.1105(18) -0.0341(15) 0.9209(14)
H18 H 0.4142(15) 0.0342(12) 0.8993(11)
H19 H 0.3678(14) 0.1438(12) 0.8305(11)
H20 H 0.2141(15) -0.0953(13) 0.7696(12)
H21 H 0.2019(13) 0.0830(12) 0.6439(10)
H22 H 0.0889(14) -0.0471(11) 0.5917(11)
H23 H 0.4340(13) 0.4835(11) 0.8763(11)
H24 H 0.4409(13) 0.5518(12) 0.7752(10)
H25 H 0.422(3) 0.309(2) 0.747(2)
H26 H 0.6224(14) 0.3821(12) 0.9129(11)
H27 H 0.6765(14) 0.4866(12) 0.8530(11)
H28 H 0.7819(16) 0.2968(13) 0.6741(12)
H29 H 0.7791(16) 0.4329(14) 0.7087(12)
H30 H 0.6253(16) 0.3317(13) 0.6271(12)
H31 H 0.9264(19) 0.3034(15) 0.8835(14)
H32 H 0.8560(18) 0.3281(15) 0.9694(15)
H33 H 0.9123(18) 0.4394(16) 0.9174(14)
H34 H 0.6379(14) 0.1647(12) 0.8584(11)
H35 H 0.7170(14) 0.1372(12) 0.7747(11)
H36 H 0.493(3) 0.164(2) 0.630(2)
H37 H 0.4776(13) -0.0254(11) 0.7428(10)
H38 H 0.5104(13) -0.0334(11) 0.6291(10)
H39 H 0.2109(13) 0.5138(12) 0.5876(10)
H40 H 0.0656(14) 0.4134(11) 0.5678(10)
H41 H 0.314(3) 0.359(2) 0.564(2)
H42 H 0.1602(13) 0.4188(11) 0.3990(10)
H43 H 0.0436(14) 0.2966(11) 0.3868(11)
H44 H 0.4159(16) 0.2800(14) 0.3343(13)
H45 H 0.4384(16) 0.3223(13) 0.4641(13)
H46 H 0.3925(16) 0.4087(14) 0.3750(13)
H47 H 0.1621(16) 0.2234(14) 0.1687(13)
H48 H 0.1450(16) 0.3547(14) 0.2081(12)
H49 H 0.0226(17) 0.2373(13) 0.1945(12)
H50 H 0.0848(14) 0.0909(11) 0.3200(10)
H51 H 0.2312(13) 0.0884(11) 0.3006(10)
H52 H 0.237(3) 0.145(2) 0.514(2)
H53 H 0.2989(13) -0.0603(11) 0.4328(10)
H54 H 0.1380(14) -0.0654(11) 0.4234(10)
H55? H 0.462(4) 0.378(3) 0.687(3)
H56? H 0.436(4) 0.166(3) 0.695(3)
H57? H 0.211(4) 0.271(3) 0.556(3)
H58? H 0.359(4) 0.145(3) 0.501(3)
loop_
_geom_bond_atom_site_label_1
_geom_bond_atom_site_label_2
_geom_bond_site_symmetry_1
_geom_bond_site_symmetry_2
N1 C5 1_555 1_555
N2 C10 1_555 1_555
N3 C12 1_555 1_555
N4 C17 1_555 1_555
N5 C19 1_555 1_555
N6 C24 1_555 1_555
C1 C2 1_555 1_555
C2 C5 1_555 1_555
C3 C4 1_555 1_555
C4 H4 1_555 1_555
C5 H7 1_555 1_555
C6 N1 1_555 1_555
C7 C6 1_555 1_555
C8 C7 1_555 1_555
C9 C7 1_555 1_555
C10 C7 1_555 1_555
C11 N2 1_555 1_555
C12 C2 1_555 1_555
C13 N3 1_555 1_555
C14 C13 1_555 1_555
C15 C14 1_555 1_555
C16 C14 1_555 1_555
C17 C14 1_555 1_555
C18 N4 1_555 1_555
C19 C2 1_555 1_555
C20 N5 1_555 1_555
C21 C20 1_555 1_555
C22 C21 1_555 1_555
C23 C21 1_555 1_555
C24 C21 1_555 1_555
C25 N6 1_555 1_555
H1 C1 1_555 1_555
H2 C1 1_555 1_555
H3 C1 1_555 1_555
H5 C4 1_555 1_555
H6 C4 1_555 1_555
H8 C5 1_555 1_555
H9 N1 1_555 1_555
H10 C6 1_555 1_555
H11 C6 1_555 1_555
H12 C8 1_555 1_555
H13 C8 1_555 1_555
H14 C8 1_555 1_555
H15 C9 1_555 1_555
H16 C9 1_555 1_555
H17 C9 1_555 1_555
H18 C10 1_555 1_555
H19 C10 1_555 1_555
H20 N2 1_555 1_555
H21 C11 1_555 1_555
H22 C11 1_555 1_555
H23 C12 1_555 1_555
H24 C12 1_555 1_555
H25 N3 1_555 1_555
H26 C13 1_555 1_555
H27 C13 1_555 1_555
H28 C15 1_555 1_555
H29 C15 1_555 1_555
H30 C15 1_555 1_555
H31 C16 1_555 1_555
H32 C16 1_555 1_555
H33 C16 1_555 1_555
H34 C17 1_555 1_555
H35 C17 1_555 1_555
H36 N4 1_555 1_555
H37 C18 1_555 1_555
H38 C18 1_555 1_555
H39 C19 1_555 1_555
H40 C19 1_555 1_555
H41 N5 1_555 1_555
H42 C20 1_555 1_555
H43 C20 1_555 1_555
H44 C22 1_555 1_555
H45 C22 1_555 1_555
H46 C22 1_555 1_555
H47 C23 1_555 1_555
H48 C23 1_555 1_555
H49 C23 1_555 1_555
H50 C24 1_555 1_555
H51 C24 1_555 1_555
H52 N6 1_555 1_555
H53 C25 1_555 1_555
H54 C25 1_555 1_555
C3 C11 1_555 1_555
C3 C18 1_555 1_555
C3 C25 1_555 1_555

#END
