
#######################################################################
#
#                 Cambridge Crystallographic Data Centre
#                                CCDC 
#
#######################################################################
#
# If this CIF has been generated from an entry in the Cambridge 
# Structural Database, then it will include bibliographic, chemical, 
# crystal, experimental, refinement or atomic coordinate data resulting 
# from the CCDC's data processing and validation procedures.
#
#######################################################################

data_BAZGUG
_chemical_formula_moiety         'C34 H35 N5 O3'
_chemical_name_systematic        
N-(3',6'-bis(diethylamino)-3-oxospiro[isoindole-1,9'-xanthen]-2(3H)-yl)pyridine-2-carboxamide
_symmetry_cell_setting           triclinic
_symmetry_space_group_name_H-M   'P -1'
_symmetry_Int_Tables_number      2
_space_group_name_Hall           '-P 1'
loop_
_symmetry_equiv_pos_site_id
_symmetry_equiv_pos_as_xyz
1 x,y,z
2 -x,-y,-z
_cell_length_a                   8.9023(8)
_cell_length_b                   12.0160(12)
_cell_length_c                   14.5095(15)
_cell_angle_alpha                94.170(8)
_cell_angle_beta                 95.859(8)
_cell_angle_gamma                97.383(8)
_cell_volume                     1525.37
_exptl_crystal_colour            colorless
_exptl_crystal_description       prism
_cell_formula_units_Z            2
loop_
_atom_site_label
_atom_site_type_symbol
_atom_site_fract_x
_atom_site_fract_y
_atom_site_fract_z
C1 C 0.1456(4) 1.1819(4) 0.0128(2)
C2 C 0.0276(5) 1.2422(4) -0.0136(3)
H1 H 0.019 1.3104 0.0186
C3 C -0.0733(7) 1.2002(6) -0.0863(4)
H2 H -0.1545 1.2384 -0.1041
C4 C -0.0575(7) 1.1027(5) -0.1336(4)
H3 H -0.1286 1.0727 -0.1836
C5 C 0.0643(5) 1.0473(3) -0.1080(3)
H4 H 0.0766 0.9821 -0.1435
C6 C 0.2621(4) 1.2206(3) 0.0960(3)
C7 C 0.6104(5) 1.2335(3) 0.1447(3)
C8 C 0.7377(4) 1.2305(3) 0.2153(2)
C9 C 0.8877(5) 1.2769(3) 0.2145(2)
H5 H 0.9185 1.3205 0.1676
C10 C 0.9904(4) 1.2546(3) 0.2878(3)
H6 H 1.0933 1.2818 0.289
C11 C 0.9421(5) 1.1926(3) 0.3591(3)
H7 H 1.0123 1.1791 0.4076
C12 C 0.7914(4) 1.1514(2) 0.3579(2)
H8 H 0.7579 1.1122 0.4066
C13 C 0.6902(4) 1.1686(2) 0.2844(2)
C14 C 0.5208(4) 1.1258(3) 0.2677(2)
C15 C 0.4913(4) 0.9992(3) 0.2512(2)
C16 C 0.5318(3) 0.9412(3) 0.1733(2)
H9 H 0.5767 0.9818 0.1287
C17 C 0.5079(4) 0.8257(3) 0.1600(2)
H10 H 0.5371 0.7901 0.1069
C18 C 0.4400(4) 0.7604(3) 0.2249(3)
C19 C 0.3991(3) 0.8184(3) 0.3034(2)
H11 H 0.3542 0.7788 0.3485
C20 C 0.4253(4) 0.9346(3) 0.3138(3)
C21 C 0.3776(4) 1.0955(3) 0.4059(3)
C22 C 0.3102(4) 1.1317(3) 0.4830(2)
H12 H 0.2712 1.0797 0.5218
C23 C 0.3009(4) 1.2460(3) 0.5024(3)
C24 C 0.3628(4) 1.3205(3) 0.4400(3)
H13 H 0.3585 1.3973 0.4499
C25 C 0.4286(4) 1.2802(3) 0.3656(2)
H14 H 0.4703 1.3316 0.3271
C26 C 0.4364(4) 1.1667(3) 0.3444(3)
C27 C 0.3455(5) 0.5758(3) 0.2762(3)
H15 H 0.3813 0.6085 0.339
H16 H 0.3763 0.5013 0.2698
C28 C 0.1741(5) 0.5650(3) 0.2623(3)
H17 H 0.1325 0.5186 0.3072
H18 H 0.1378 0.5312 0.2007
H19 H 0.1428 0.6383 0.27
C29 C 0.4511(5) 0.5850(3) 0.1247(2)
H20 H 0.4249 0.6279 0.0727
H21 H 0.3874 0.5125 0.1148
C30 C 0.6158(5) 0.5668(3) 0.1260(2)
H22 H 0.6306 0.5283 0.068
H23 H 0.6419 0.5221 0.176
H24 H 0.6797 0.6382 0.1349
C31 C 0.1773(4) 1.2076(3) 0.6440(2)
H25 H 0.1757 1.2508 0.7029
H26 H 0.2484 1.1537 0.654
C32 C 0.0205(4) 1.1436(3) 0.6147(2)
H27 H -0.0073 1.0949 0.6616
H28 H 0.0208 1.0993 0.5569
H29 H -0.0519 1.1959 0.6069
C33 C 0.2580(18) 1.4105(19) 0.6145(8)
H30 H 0.2473 1.4211 0.6803
H31 H 0.3551 1.4493 0.6019
C34 C 0.1254(12) 1.4435(18) 0.5544(7)
H32 H 0.1216 1.5226 0.5666
H33 H 0.0323 1.4016 0.5682
H34 H 0.138 1.4273 0.4901
N1 N 0.1666(3) 1.0840(3) -0.0335(2)
N2 N 0.3512(3) 1.1463(2) 0.12285(18)
H35 H 0.3253 1.0762 0.1044
N3 N 0.4855(3) 1.1798(2) 0.18018(18)
N4 N 0.4170(3) 0.6448(2) 0.2108(2)
N5 N 0.2334(4) 1.2840(3) 0.5774(3)
O1 O 0.2660(3) 1.3158(2) 0.13582(17)
O2 O 0.6058(3) 1.2712(2) 0.06887(16)
O3 O 0.3773(2) 0.97962(17) 0.39519(15)
C35? C 0.1608(19) 1.3845(9) 0.5705(13)
C36? C 0.245(2) 1.4978(13) 0.6093(13)
H36? H 0.0681 1.3727 0.6004
H37? H 0.13 1.3898 0.5051
H38? H 0.1823 1.5553 0.596
H39? H 0.3378 1.5123 0.5813
H40? H 0.2683 1.498 0.6754
loop_
_geom_bond_atom_site_label_1
_geom_bond_atom_site_label_2
_geom_bond_site_symmetry_1
_geom_bond_site_symmetry_2
C1 C2 1_555 1_555
C2 H1 1_555 1_555
C3 C2 1_555 1_555
H2 C3 1_555 1_555
C4 C3 1_555 1_555
H3 C4 1_555 1_555
C5 C4 1_555 1_555
H4 C5 1_555 1_555
C6 C1 1_555 1_555
C7 C8 1_555 1_555
C8 C9 1_555 1_555
C9 H5 1_555 1_555
C10 C9 1_555 1_555
H6 C10 1_555 1_555
C11 C10 1_555 1_555
H7 C11 1_555 1_555
C12 C11 1_555 1_555
H8 C12 1_555 1_555
C13 C8 1_555 1_555
C14 C13 1_555 1_555
C15 C14 1_555 1_555
C16 C15 1_555 1_555
H9 C16 1_555 1_555
C17 C16 1_555 1_555
H10 C17 1_555 1_555
C18 C17 1_555 1_555
C19 C18 1_555 1_555
H11 C19 1_555 1_555
C20 C15 1_555 1_555
C21 C22 1_555 1_555
C22 H12 1_555 1_555
C23 C22 1_555 1_555
C24 C23 1_555 1_555
H13 C24 1_555 1_555
C25 C24 1_555 1_555
H14 C25 1_555 1_555
C26 C14 1_555 1_555
C27 H15 1_555 1_555
H16 C27 1_555 1_555
C28 C27 1_555 1_555
H17 C28 1_555 1_555
H18 C28 1_555 1_555
H19 C28 1_555 1_555
C29 H20 1_555 1_555
H21 C29 1_555 1_555
C30 C29 1_555 1_555
H22 C30 1_555 1_555
H23 C30 1_555 1_555
H24 C30 1_555 1_555
C31 H25 1_555 1_555
H26 C31 1_555 1_555
C32 C31 1_555 1_555
H27 C32 1_555 1_555
H28 C32 1_555 1_555
H29 C32 1_555 1_555
C33 H30 1_555 1_555
H31 C33 1_555 1_555
C34 C33 1_555 1_555
H32 C34 1_555 1_555
H33 C34 1_555 1_555
H34 C34 1_555 1_555
N1 C1 1_555 1_555
N2 C6 1_555 1_555
H35 N2 1_555 1_555
N3 C7 1_555 1_555
N4 C18 1_555 1_555
N5 C23 1_555 1_555
O1 C6 1_555 1_555
O2 C7 1_555 1_555
O3 C20 1_555 1_555
C5 N1 1_555 1_555
C12 C13 1_555 1_555
C14 N3 1_555 1_555
C19 C20 1_555 1_555
C21 C26 1_555 1_555
C21 O3 1_555 1_555
C25 C26 1_555 1_555
C27 N4 1_555 1_555
C29 N4 1_555 1_555
C31 N5 1_555 1_555
C33 N5 1_555 1_555
N2 N3 1_555 1_555

#END
