
#######################################################################
#
#                 Cambridge Crystallographic Data Centre
#                                CCDC 
#
#######################################################################
#
# If this CIF has been generated from an entry in the Cambridge 
# Structural Database, then it will include bibliographic, chemical, 
# crystal, experimental, refinement or atomic coordinate data resulting 
# from the CCDC's data processing and validation procedures.
#
#######################################################################

data_BAZYEJ
_chemical_formula_moiety         'C34 H26 Cl1 N3 O4,H2 O1'
_chemical_name_systematic        
"1-acetyl-2',3'-dibenzoyl-5-chloro-2',3',6',10b'-tetrahydro-5'H-spiro[indole-3,1'-pyrazolo[5,1-a]isoquinolin]-2(1H)-one monohydrate"
_symmetry_cell_setting           triclinic
_symmetry_space_group_name_H-M   'P -1'
_symmetry_Int_Tables_number      2
_space_group_name_Hall           '-P 1'
loop_
_symmetry_equiv_pos_site_id
_symmetry_equiv_pos_as_xyz
1 x,y,z
2 -x,-y,-z
_cell_length_a                   13.263(3)
_cell_length_b                   13.348(3)
_cell_length_c                   17.924(4)
_cell_angle_alpha                75.140(4)
_cell_angle_beta                 71.729(4)
_cell_angle_gamma                76.510(4)
_cell_volume                     2871.73
_exptl_crystal_colour            colorless
_exptl_crystal_description       block
_cell_formula_units_Z            4
loop_
_atom_site_label
_atom_site_type_symbol
_atom_site_fract_x
_atom_site_fract_y
_atom_site_fract_z
Cl1 Cl 0.16580(12) -0.10820(10) 0.09484(8)
O1 O 0.0793(3) 0.5079(3) 0.1262(2)
O2 O 0.1679(3) 0.4524(3) -0.1315(2)
O3 O 0.0713(4) 0.2543(4) -0.2317(3)
O4 O 0.0841(3) 0.2558(3) 0.1772(2)
N1 N 0.2062(3) 0.3902(3) 0.0671(3)
N2 N 0.1347(3) 0.2915(3) -0.1390(2)
N3 N 0.3118(3) 0.3372(3) 0.0395(2)
C1 C 0.1564(4) 0.0075(4) 0.0239(3)
C2 C 0.1822(4) 0.0975(4) 0.0351(3)
H1 H 0.2063 0.0957 0.0801
C3 C 0.1716(3) 0.1893(3) -0.0216(3)
C4 C 0.1918(3) 0.2982(4) -0.0265(3)
C5 C 0.1247(4) 0.3568(4) 0.0435(3)
H2 H 0.0777 0.4207 0.0219
C6 C 0.1758(4) 0.4710(4) 0.1070(3)
C7 C 0.2557(4) 0.5146(4) 0.1281(3)
C8 C 0.3668(5) 0.5006(5) 0.0945(4)
H3 H 0.3996 0.4547 0.0577
C9 C 0.4297(6) 0.5542(7) 0.1150(5)
H4 H 0.5053 0.5445 0.0916
C10 C 0.3846(5) 0.6209(5) 0.1682(4)
H5 H 0.4285 0.6569 0.1815
C11 C 0.1632(3) 0.3600(4) -0.1045(3)
C12 C 0.1066(4) 0.3177(4) -0.2126(3)
C13 C 0.1244(4) 0.4229(4) -0.2649(3)
H6 H 0.1136 0.4264 -0.3172
H7 H 0.1981 0.4327 -0.2722
H8 H 0.0733 0.4783 -0.2395
C14 C 0.1387(4) 0.1896(4) -0.0885(3)
C15 C 0.1248(4) 0.0081(4) -0.0429(3)
H9 H 0.1102 -0.0548 -0.0499
C16 C 0.1143(4) 0.0998(4) -0.0999(3)
H10 H 0.0910 0.1011 -0.1452
C17 C 0.3116(4) 0.3147(4) -0.0360(3)
H11 H 0.3239 0.3802 -0.0773
C18 C 0.3424(4) 0.2443(4) 0.0984(3)
H12 H 0.2950 0.1918 0.1097
H13 H 0.3355 0.2650 0.1493
C19 C 0.4590(4) 0.1982(5) 0.0620(3)
H14 H 0.5063 0.2486 0.0565
H15 H 0.4806 0.1327 0.0984
C20 C 0.4737(4) 0.1748(4) -0.0190(3)
C21 C 0.4018(4) 0.2291(4) -0.0645(3)
C22 C 0.4162(4) 0.2091(4) -0.1406(3)
H16 H 0.3668 0.2457 -0.1710
C23 C 0.5024(5) 0.1362(5) -0.1717(3)
H17 H 0.5117 0.1221 -0.2230
C24 C 0.5754(4) 0.0838(5) -0.1273(4)
H18 H 0.6359 0.0355 -0.1490
C25 C 0.5598(4) 0.1021(5) -0.0514(4)
H19 H 0.6087 0.0644 -0.0209
C26 C 0.0541(4) 0.2906(4) 0.1160(3)
C27 C -0.0498(4) 0.2724(4) 0.1112(3)
C28 C -0.1110(4) 0.2119(4) 0.1787(3)
H20 H -0.0858 0.1843 0.2252
C29 C -0.2092(5) 0.1927(5) 0.1772(4)
H21 H -0.2510 0.1519 0.2229
C30 C -0.2462(4) 0.2327(5) 0.1094(4)
H22 H -0.3131 0.2191 0.1088
C31 C -0.1856(4) 0.2928(5) 0.0421(4)
H23 H -0.2108 0.3196 -0.0045
C32 C -0.0883(4) 0.3135(4) 0.0433(3)
H24 H -0.0476 0.3557 -0.0022
C33 C 0.2101(5) 0.5826(5) 0.1825(4)
H25 H 0.1345 0.5930 0.2061
C34 C 0.2741(6) 0.6346(6) 0.2023(4)
H26 H 0.2421 0.6800 0.2395
Cl2 Cl 0.38017(12) 0.61588(10) 0.37147(10)
O5 O 0.4341(3) -0.0164(3) 0.3383(3)
O6 O 0.3535(3) 0.0464(3) 0.5466(2)
O7 O 0.3348(4) 0.2315(4) 0.7074(3)
O8 O 0.4464(4) 0.2817(4) 0.2527(2)
N4 N 0.3240(3) 0.1391(3) 0.3490(3)
N5 N 0.2162(3) 0.1909(3) 0.3743(2)
N6 N 0.3461(3) 0.2023(3) 0.5862(3)
C35 C 0.3639(4) 0.4975(4) 0.4387(3)
C36 C 0.3424(4) 0.4152(4) 0.4141(3)
H27 H 0.3326 0.4242 0.3623
C37 C 0.3357(4) 0.3197(4) 0.4679(3)
C38 C 0.3233(4) 0.2148(4) 0.4570(3)
C39 C 0.3975(4) 0.1705(4) 0.3815(3)
H28 H 0.4468 0.1062 0.3997
C40 C 0.3450(4) 0.0365(4) 0.3382(3)
C41 C 0.2595(4) -0.0065(4) 0.3249(3)
C42 C 0.1896(5) 0.0516(4) 0.2797(3)
H29 H 0.1921 0.1241 0.2577
C43 C 0.1154(4) 0.0035(4) 0.2665(3)
H30 H 0.0689 0.0428 0.2345
C44 C 0.1097(5) -0.1031(4) 0.3005(3)
H31 H 0.0583 -0.1356 0.2927
C45 C 0.2563(5) -0.1130(4) 0.3566(3)
H32 H 0.3061 -0.1534 0.3856
C46 C 0.1798(5) -0.1604(4) 0.3458(4)
H33 H 0.1757 -0.2322 0.3695
C47 C 0.2058(4) 0.1993(3) 0.4563(3)
H34 H 0.1936 0.1290 0.4907
C48 C 0.1089(4) 0.2775(3) 0.4884(3)
C49 C 0.0429(4) 0.3373(4) 0.4394(3)
C50 C 0.0732(4) 0.3328(4) 0.3520(3)
H35 H 0.0549 0.4039 0.3206
H36 H 0.0314 0.2857 0.3441
C51 C 0.1926(4) 0.2928(4) 0.3220(3)
H37 H 0.2106 0.2843 0.2658
H38 H 0.2354 0.3429 0.3244
C52 C -0.0524(4) 0.3995(4) 0.4743(3)
H39 H -0.0993 0.4387 0.4425
C53 C -0.0795(4) 0.4049(4) 0.5546(3)
H40 H -0.1440 0.4484 0.5770
C54 C -0.0125(4) 0.3467(4) 0.6028(3)
H41 H -0.0306 0.3508 0.6578
C55 C 0.0811(4) 0.2827(4) 0.5692(3)
H42 H 0.1266 0.2420 0.6016
C56 C 0.3487(4) 0.3083(4) 0.5437(3)
C57 C 0.3443(4) 0.1411(4) 0.5334(3)
C58 C 0.3336(4) 0.1685(5) 0.6697(3)
C59 C 0.3143(5) 0.0590(5) 0.7076(3)
H43 H 0.3063 0.0470 0.7653
H44 H 0.3755 0.0092 0.6836
H45 H 0.2485 0.0486 0.6988
C60 C 0.3676(4) 0.3916(4) 0.5688(3)
H46 H 0.3755 0.3833 0.6210
C61 C 0.3746(4) 0.4871(4) 0.5145(3)
H47 H 0.3868 0.5454 0.5298
C62 C 0.4661(4) 0.2464(4) 0.3171(3)
C63 C 0.5585(4) 0.2720(4) 0.3350(3)
C64 C 0.6067(5) 0.3562(5) 0.2831(4)
H48 H 0.5783 0.3959 0.2398
C65 C 0.6953(6) 0.3818(6) 0.2944(5)
H49 H 0.7282 0.4385 0.2589
C66 C 0.7358(6) 0.3242(7) 0.3580(5)
H50 H 0.7967 0.3418 0.3658
C67 C 0.6884(5) 0.2410(6) 0.4105(5)
H51 H 0.7167 0.2022 0.4540
C68 C 0.5993(5) 0.2147(5) 0.3992(4)
H52 H 0.5666 0.1580 0.4350
O9 O 0.9011(3) 0.0555(3) 0.4395(2)
O10? O 0.9637(4) 0.0798(4) 0.4646(2)
loop_
_geom_bond_atom_site_label_1
_geom_bond_atom_site_label_2
_geom_bond_site_symmetry_1
_geom_bond_site_symmetry_2
Cl1 C1 1_555 1_555
O1 C6 1_555 1_555
O2 C11 1_555 1_555
O3 C12 1_555 1_555
O4 C26 1_555 1_555
N1 N3 1_555 1_555
N2 C11 1_555 1_555
N3 C17 1_555 1_555
C1 C2 1_555 1_555
C2 H1 1_555 1_555
C3 C2 1_555 1_555
C4 C3 1_555 1_555
C5 N1 1_555 1_555
H2 C5 1_555 1_555
C6 N1 1_555 1_555
C7 C6 1_555 1_555
C8 C7 1_555 1_555
H3 C8 1_555 1_555
C9 C8 1_555 1_555
H4 C9 1_555 1_555
C10 C9 1_555 1_555
H5 C10 1_555 1_555
C11 C4 1_555 1_555
C12 N2 1_555 1_555
C13 C12 1_555 1_555
H6 C13 1_555 1_555
H7 C13 1_555 1_555
H8 C13 1_555 1_555
C14 N2 1_555 1_555
C15 C1 1_555 1_555
H9 C15 1_555 1_555
C16 C14 1_555 1_555
H10 C16 1_555 1_555
C17 C4 1_555 1_555
H11 C17 1_555 1_555
C18 N3 1_555 1_555
H12 C18 1_555 1_555
H13 C18 1_555 1_555
C19 C18 1_555 1_555
H14 C19 1_555 1_555
H15 C19 1_555 1_555
C20 C19 1_555 1_555
C21 C17 1_555 1_555
C22 C21 1_555 1_555
H16 C22 1_555 1_555
C23 C22 1_555 1_555
H17 C23 1_555 1_555
C24 C23 1_555 1_555
H18 C24 1_555 1_555
C25 C20 1_555 1_555
H19 C25 1_555 1_555
C26 C5 1_555 1_555
C27 C26 1_555 1_555
C28 C27 1_555 1_555
H20 C28 1_555 1_555
C29 C28 1_555 1_555
H21 C29 1_555 1_555
C30 C29 1_555 1_555
H22 C30 1_555 1_555
C31 C30 1_555 1_555
H23 C31 1_555 1_555
C32 C27 1_555 1_555
H24 C32 1_555 1_555
C33 C7 1_555 1_555
H25 C33 1_555 1_555
C34 C10 1_555 1_555
H26 C34 1_555 1_555
Cl2 C35 1_555 1_555
O5 C40 1_555 1_555
O6 C57 1_555 1_555
O7 C58 1_555 1_555
O8 C62 1_555 1_555
N4 N5 1_555 1_555
N5 C47 1_555 1_555
N6 C56 1_555 1_555
C35 C36 1_555 1_555
C36 H27 1_555 1_555
C37 C36 1_555 1_555
C38 C37 1_555 1_555
C39 N4 1_555 1_555
H28 C39 1_555 1_555
C40 N4 1_555 1_555
C41 C40 1_555 1_555
C42 C41 1_555 1_555
H29 C42 1_555 1_555
C43 C42 1_555 1_555
H30 C43 1_555 1_555
C44 C43 1_555 1_555
H31 C44 1_555 1_555
C45 C41 1_555 1_555
H32 C45 1_555 1_555
C46 C44 1_555 1_555
H33 C46 1_555 1_555
C47 C38 1_555 1_555
H34 C47 1_555 1_555
C48 C47 1_555 1_555
C49 C48 1_555 1_555
C50 C49 1_555 1_555
H35 C50 1_555 1_555
H36 C50 1_555 1_555
C51 N5 1_555 1_555
H37 C51 1_555 1_555
H38 C51 1_555 1_555
C52 C49 1_555 1_555
H39 C52 1_555 1_555
C53 C52 1_555 1_555
H40 C53 1_555 1_555
C54 C53 1_555 1_555
H41 C54 1_555 1_555
C55 C48 1_555 1_555
H42 C55 1_555 1_555
C56 C37 1_555 1_555
C57 N6 1_555 1_555
C58 N6 1_555 1_555
C59 C58 1_555 1_555
H43 C59 1_555 1_555
H44 C59 1_555 1_555
H45 C59 1_555 1_555
C60 C56 1_555 1_555
H46 C60 1_555 1_555
C61 C35 1_555 1_555
H47 C61 1_555 1_555
C62 C39 1_555 1_555
C63 C62 1_555 1_555
C64 C63 1_555 1_555
H48 C64 1_555 1_555
C65 C64 1_555 1_555
H49 C65 1_555 1_555
C66 C65 1_555 1_555
H50 C66 1_555 1_555
C67 C66 1_555 1_555
H51 C67 1_555 1_555
C68 C63 1_555 1_555
H52 C68 1_555 1_555
C3 C14 1_555 1_555
C4 C5 1_555 1_555
C15 C16 1_555 1_555
C20 C21 1_555 1_555
C24 C25 1_555 1_555
C31 C32 1_555 1_555
C33 C34 1_555 1_555
C38 C39 1_555 1_555
C38 C57 1_555 1_555
C45 C46 1_555 1_555
C50 C51 1_555 1_555
C54 C55 1_555 1_555
C60 C61 1_555 1_555
C67 C68 1_555 1_555

#END
