
#######################################################################
#
#                 Cambridge Crystallographic Data Centre
#                                CCDC 
#
#######################################################################
#
# If this CIF has been generated from an entry in the Cambridge 
# Structural Database, then it will include bibliographic, chemical, 
# crystal, experimental, refinement or atomic coordinate data resulting 
# from the CCDC's data processing and validation procedures.
#
#######################################################################

data_BAZZOT
_chemical_formula_moiety         'C26 H22 N2 O6'
_chemical_name_systematic        
1''',8'-Diacetyltrispiro[cyclopropane-1,11'-[10,13,15]trioxa[8]azatetracyclo[7.4.2.0^1,9^.0^2,7^]pentadeca[2,4,6]triene-12',1''-cyclopropane-14',3'''-indol]-2'''(1'''H)-one
_symmetry_cell_setting           monoclinic
_symmetry_space_group_name_H-M   'C 2/c'
_symmetry_Int_Tables_number      15
_space_group_name_Hall           '-C 2yn'
loop_
_symmetry_equiv_pos_site_id
_symmetry_equiv_pos_as_xyz
1 x,y,z
2 -x,y,1/2-z
3 1/2+x,1/2+y,z
4 1/2-x,1/2+y,1/2-z
5 -x,-y,-z
6 x,-y,1/2+z
7 1/2-x,1/2-y,-z
8 1/2+x,1/2-y,1/2+z
_cell_length_a                   15.6780(6)
_cell_length_b                   9.3043(6)
_cell_length_c                   30.2382(13)
_cell_angle_alpha                90
_cell_angle_beta                 104.663(2)
_cell_angle_gamma                90
_cell_volume                     4267.27
_exptl_crystal_colour            colorless
_exptl_crystal_description       block
_chemical_melting_point          '239-242 deg.C'
_cell_formula_units_Z            8
loop_
_atom_site_label
_atom_site_type_symbol
_atom_site_fract_x
_atom_site_fract_y
_atom_site_fract_z
O1 O 0.08257(5) 1.03235(7) 0.04801(2)
O2 O 0.15626(8) 0.80463(10) -0.05493(3)
O3 O 0.04444(4) 0.83442(7) 0.11497(2)
O4 O 0.06605(6) 1.27408(8) 0.15329(3)
O5 O 0.10487(4) 0.85068(7) 0.19486(2)
O6 O 0.22642(4) 0.70661(7) 0.15134(2)
N1 N 0.12404(5) 0.82775(8) 0.01355(3)
N2 N 0.12014(5) 1.04890(8) 0.15157(3)
C1 C 0.10302(6) 0.90719(9) 0.04896(3)
C2 C 0.11881(6) 0.67746(10) 0.02308(3)
C3 C 0.12221(7) 0.56046(11) -0.00483(3)
H1 H 0.1322 0.5722 -0.0336
C4 C 0.11003(7) 0.42458(11) 0.01200(4)
H2 H 0.1122 0.3444 -0.0061
C5 C 0.09483(7) 0.40508(10) 0.05491(3)
H3 H 0.0859 0.3131 0.0650
C6 C 0.09292(6) 0.52362(9) 0.08291(3)
H4 H 0.0838 0.5118 0.1119
C7 C 0.10486(6) 0.65930(9) 0.06661(3)
C8 C 0.10830(5) 0.80231(9) 0.08882(3)
C9 C 0.18653(5) 0.83538(9) 0.13251(3)
C10 C 0.24396(6) 0.96253(9) 0.13129(3)
C11 C 0.32451(6) 0.97065(11) 0.12044(3)
H5 H 0.3528 0.8881 0.1142
C12 C 0.36214(6) 1.10625(12) 0.11916(3)
H6 H 0.4158 1.1148 0.1116
C13 C 0.31946(7) 1.22830(11) 0.12919(3)
H7 H 0.3456 1.3176 0.1282
C14 C 0.23866(6) 1.22143(10) 0.14072(3)
H8 H 0.2111 1.3038 0.1476
C15 C 0.20122(6) 1.08601(9) 0.14140(3)
C16 C 0.11178(5) 0.89295(9) 0.15237(3)
C17 C 0.22948(6) 0.69367(9) 0.19869(3)
C18 C 0.29504(6) 0.58638(11) 0.22294(3)
H9 H 0.3300 0.5368 0.2054
H10 H 0.2800 0.5292 0.2467
C19 C 0.31191(6) 0.74597(11) 0.23198(3)
H11 H 0.3066 0.7840 0.2610
H12 H 0.3567 0.7915 0.2197
C20 C 0.14136(6) 0.71033(9) 0.20788(3)
C21 C 0.07667(6) 0.58937(10) 0.20370(3)
H13 H 0.0957 0.4941 0.1974
H14 H 0.0149 0.6101 0.1901
C22 C 0.11926(6) 0.65570(10) 0.24980(3)
H15 H 0.0829 0.7158 0.2638
H16 H 0.1636 0.5998 0.2711
C23 C 0.14442(7) 0.88498(11) -0.02560(3)
C24 C 0.15356(8) 1.04445(12) -0.02846(4)
H17 H 0.1872 1.0670 -0.0500
H18 H 0.1832 1.0815 0.0011
H19 H 0.0961 1.0872 -0.0382
C25 C 0.05547(6) 1.14478(10) 0.15574(3)
C26 C -0.02803(7) 1.08301(11) 0.16351(4)
H20 H -0.0764 1.1459 0.1506
H21 H -0.0223 1.0732 0.1957
H22 H -0.0388 0.9904 0.1492
loop_
_geom_bond_atom_site_label_1
_geom_bond_atom_site_label_2
_geom_bond_site_symmetry_1
_geom_bond_site_symmetry_2
O1 C1 1_555 1_555
O2 C23 1_555 1_555
O3 C8 1_555 1_555
O4 C25 1_555 1_555
O5 C16 1_555 1_555
O6 C9 1_555 1_555
N1 C1 1_555 1_555
N2 C15 1_555 1_555
C1 C8 1_555 1_555
C2 N1 1_555 1_555
C3 C2 1_555 1_555
H1 C3 1_555 1_555
C4 C3 1_555 1_555
H2 C4 1_555 1_555
C5 C4 1_555 1_555
H3 C5 1_555 1_555
C6 C5 1_555 1_555
H4 C6 1_555 1_555
C7 C2 1_555 1_555
C8 C7 1_555 1_555
C9 C8 1_555 1_555
C10 C9 1_555 1_555
C11 C10 1_555 1_555
H5 C11 1_555 1_555
C12 C11 1_555 1_555
H6 C12 1_555 1_555
C13 C12 1_555 1_555
H7 C13 1_555 1_555
C14 C13 1_555 1_555
H8 C14 1_555 1_555
C15 C10 1_555 1_555
C16 O3 1_555 1_555
C17 O6 1_555 1_555
C18 C17 1_555 1_555
H9 C18 1_555 1_555
H10 C18 1_555 1_555
C19 C17 1_555 1_555
H11 C19 1_555 1_555
H12 C19 1_555 1_555
C20 O5 1_555 1_555
C21 C20 1_555 1_555
H13 C21 1_555 1_555
H14 C21 1_555 1_555
C22 C20 1_555 1_555
H15 C22 1_555 1_555
H16 C22 1_555 1_555
C23 N1 1_555 1_555
C24 C23 1_555 1_555
H17 C24 1_555 1_555
H18 C24 1_555 1_555
H19 C24 1_555 1_555
C25 N2 1_555 1_555
C26 C25 1_555 1_555
H20 C26 1_555 1_555
H21 C26 1_555 1_555
H22 C26 1_555 1_555
N2 C16 1_555 1_555
C6 C7 1_555 1_555
C9 C16 1_555 1_555
C14 C15 1_555 1_555
C17 C20 1_555 1_555
C18 C19 1_555 1_555
C21 C22 1_555 1_555

#END
