
#######################################################################
#
#                 Cambridge Crystallographic Data Centre
#                                CCDC 
#
#######################################################################
#
# If this CIF has been generated from an entry in the Cambridge 
# Structural Database, then it will include bibliographic, chemical, 
# crystal, experimental, refinement or atomic coordinate data resulting 
# from the CCDC's data processing and validation procedures.
#
#######################################################################

data_BDTOLE10
_chemical_name_common            Tetrathiafulvalene
_chemical_formula_moiety         'C6 H4 S4'
_chemical_name_systematic        2,2'-Bi-1,3-dithiole
_symmetry_cell_setting           monoclinic
_symmetry_space_group_name_H-M   'P 21/c'
_symmetry_Int_Tables_number      14
_space_group_name_Hall           '-P 2ybc'
loop_
_symmetry_equiv_pos_site_id
_symmetry_equiv_pos_as_xyz
1 x,y,z
2 -x,1/2+y,1/2-z
3 -x,-y,-z
4 x,1/2-y,1/2+z
_cell_length_a                   7.364
_cell_length_b                   4.023
_cell_length_c                   13.922
_cell_angle_alpha                90
_cell_angle_beta                 101.42
_cell_angle_gamma                90
_cell_volume                     404.279
_cell_formula_units_Z            2
loop_
_atom_site_label
_atom_site_type_symbol
_atom_site_fract_x
_atom_site_fract_y
_atom_site_fract_z
C1 C 0.37540 0.32340 0.12200
C2 C 0.26500 0.33830 0.18540
C3 C 0.06770 0.07530 0.03250
H1 H 0.49700 0.38500 0.13000
H2 H 0.29100 0.44600 0.24700
S1 S 0.28810 0.15590 0.00750
S2 S 0.03980 0.19830 0.14980
C1B C -0.37540 -0.32340 -0.12200
C2B C -0.26500 -0.33830 -0.18540
C3B C -0.06770 -0.07530 -0.03250
H1B H -0.49700 -0.38500 -0.13000
H2B H -0.29100 -0.44600 -0.24700
S1B S -0.28810 -0.15590 -0.00750
S2B S -0.03980 -0.19830 -0.14980
loop_
_geom_bond_atom_site_label_1
_geom_bond_atom_site_label_2
_geom_bond_site_symmetry_1
_geom_bond_site_symmetry_2
C1 C2 1_555 1_555
C2 H2 1_555 1_555
C3 S1 1_555 1_555
H1 C1 1_555 1_555
S1 C1 1_555 1_555
S2 C2 1_555 1_555
C1B C2B 1_555 1_555
C2B H2B 1_555 1_555
C3B C3 1_555 1_555
H1B C1B 1_555 1_555
S1B C1B 1_555 1_555
S2B C2B 1_555 1_555
C3 S2 1_555 1_555
C3B S1B 1_555 1_555
C3B S2B 1_555 1_555

#END
