
#######################################################################
#
#                 Cambridge Crystallographic Data Centre
#                                CCDC 
#
#######################################################################
#
# If this CIF has been generated from an entry in the Cambridge 
# Structural Database, then it will include bibliographic, chemical, 
# crystal, experimental, refinement or atomic coordinate data resulting 
# from the CCDC's data processing and validation procedures.
#
#######################################################################

data_BEBBAN
_chemical_formula_moiety         'C16 H15 N1 O4'
_chemical_name_systematic        
2'''-Methyl-2'''H-trispiro[cyclopropane-1,4'-[1,3]dioxolane-5',1''-cyclopropane-2',3'''-isoquinoline]-1''',4'''-dione
_symmetry_cell_setting           monoclinic
_symmetry_space_group_name_H-M   'P 21/c'
_symmetry_Int_Tables_number      14
_space_group_name_Hall           '-P 2ybc'
loop_
_symmetry_equiv_pos_site_id
_symmetry_equiv_pos_as_xyz
1 x,y,z
2 -x,1/2+y,1/2-z
3 -x,-y,-z
4 x,1/2-y,1/2+z
_cell_length_a                   9.2089(2)
_cell_length_b                   15.1611(4)
_cell_length_c                   12.0162(2)
_cell_angle_alpha                90
_cell_angle_beta                 124.926(1)
_cell_angle_gamma                90
_cell_volume                     1375.51
_exptl_crystal_colour            colorless
_exptl_crystal_description       block
_chemical_melting_point          '100-102 deg.C'
_cell_formula_units_Z            4
loop_
_atom_site_label
_atom_site_type_symbol
_atom_site_fract_x
_atom_site_fract_y
_atom_site_fract_z
O1 O 0.76672(8) 0.43137(4) 0.41075(6)
O2 O 0.58948(8) 0.49049(4) 0.19839(6)
O3 O 0.86273(11) 0.72297(4) 0.37128(8)
O4 O 0.91656(10) 0.38433(4) 0.28371(8)
N1 N 0.79629(9) 0.57986(5) 0.37812(7)
C1 C 0.86882(11) 0.64546(5) 0.34542(8)
C2 C 0.95938(10) 0.61927(5) 0.27999(7)
C3 C 1.03047(12) 0.68528(6) 0.24426(9)
H1 H 1.0175 0.7442 0.2586
C4 C 1.12074(13) 0.66314(7) 0.18712(10)
H2 H 1.1663 0.7075 0.1619
C5 C 1.14354(13) 0.57520(7) 0.16723(10)
H3 H 1.2069 0.5609 0.1312
C6 C 1.07159(11) 0.50888(6) 0.20130(9)
H4 H 1.0857 0.4500 0.1875
C7 C 0.97771(10) 0.53126(5) 0.25651(7)
C8 C 0.89508(10) 0.46278(5) 0.28895(8)
C9 C 0.76307(10) 0.49289(5) 0.32173(7)
C10 C 0.52471(10) 0.40387(5) 0.19111(8)
C11 C 0.60805(10) 0.38020(5) 0.33650(7)
C12 C 0.50048(13) 0.34319(6) 0.08359(9)
H5 H 0.5258 0.2811 0.1056
H6 H 0.5276 0.3657 0.0219
C13 C 0.34221(12) 0.38225(6) 0.07505(9)
H7 H 0.2748 0.4279 0.0079
H8 H 0.2729 0.3433 0.0916
C14 C 0.61002(12) 0.29151(6) 0.38942(9)
H9 H 0.7195 0.2717 0.4715
H10 H 0.5403 0.2454 0.3240
C15 C 0.51127(12) 0.36739(7) 0.40138(9)
H11 H 0.3829 0.3665 0.3429
H12 H 0.5622 0.3929 0.4905
C16 C 0.69335(12) 0.60700(6) 0.43060(10)
H13 H 0.7487 0.6572 0.4890
H14 H 0.6886 0.5593 0.4810
H15 H 0.5753 0.6223 0.3562
loop_
_geom_bond_atom_site_label_1
_geom_bond_atom_site_label_2
_geom_bond_site_symmetry_1
_geom_bond_site_symmetry_2
O1 C9 1_555 1_555
O2 C9 1_555 1_555
O3 C1 1_555 1_555
O4 C8 1_555 1_555
N1 C1 1_555 1_555
C1 C2 1_555 1_555
C2 C3 1_555 1_555
C3 H1 1_555 1_555
C4 C3 1_555 1_555
H2 C4 1_555 1_555
C5 C4 1_555 1_555
H3 C5 1_555 1_555
C6 C5 1_555 1_555
H4 C6 1_555 1_555
C7 C2 1_555 1_555
C8 C7 1_555 1_555
C9 N1 1_555 1_555
C10 O2 1_555 1_555
C11 O1 1_555 1_555
C12 C10 1_555 1_555
H5 C12 1_555 1_555
H6 C12 1_555 1_555
C13 C10 1_555 1_555
H7 C13 1_555 1_555
H8 C13 1_555 1_555
C14 C11 1_555 1_555
H9 C14 1_555 1_555
H10 C14 1_555 1_555
C15 C11 1_555 1_555
H11 C15 1_555 1_555
H12 C15 1_555 1_555
C16 N1 1_555 1_555
H13 C16 1_555 1_555
H14 C16 1_555 1_555
H15 C16 1_555 1_555
C6 C7 1_555 1_555
C8 C9 1_555 1_555
C10 C11 1_555 1_555
C12 C13 1_555 1_555
C14 C15 1_555 1_555

#END
