
#######################################################################
#
#                 Cambridge Crystallographic Data Centre
#                                CCDC 
#
#######################################################################
#
# If this CIF has been generated from an entry in the Cambridge 
# Structural Database, then it will include bibliographic, chemical, 
# crystal, experimental, refinement or atomic coordinate data resulting 
# from the CCDC's data processing and validation procedures.
#
#######################################################################

data_BEBJEY
_chemical_formula_moiety         'C18 H18 N2 S2'
_chemical_name_systematic        
2,3-bis(2-Methylphenylimino)-1,4-dithiacyclohexane
_symmetry_cell_setting           orthorhombic
_symmetry_space_group_name_H-M   'P b c n'
_symmetry_Int_Tables_number      60
_space_group_name_Hall           '-P 2n 2ab'
loop_
_symmetry_equiv_pos_site_id
_symmetry_equiv_pos_as_xyz
1 x,y,z
2 1/2+x,1/2+y,1/2-z
3 x,-y,1/2+z
4 1/2-x,1/2+y,z
5 -x,-y,-z
6 1/2-x,1/2-y,1/2+z
7 -x,y,1/2-z
8 1/2+x,1/2-y,-z
_cell_length_a                   6.7333(9)
_cell_length_b                   12.6195(16)
_cell_length_c                   19.827(3)
_cell_angle_alpha                90
_cell_angle_beta                 90
_cell_angle_gamma                90
_cell_volume                     1684.72
_exptl_crystal_colour            yellow
_exptl_crystal_description       prism
_cell_formula_units_Z            4
_exptl_crystal_recrystallization_method 'petroleum ether/ethyl acetate'
loop_
_atom_site_label
_atom_site_type_symbol
_atom_site_fract_x
_atom_site_fract_y
_atom_site_fract_z
S1 S 0.02580(13) 0.11165(6) 0.16204(4)
N1 N 0.1607(4) 0.29881(16) 0.20454(11)
C1 C 0.2742(4) 0.30486(19) 0.14447(12)
C2 C 0.4483(5) 0.2476(2) 0.13862(15)
H1 H 0.4847 0.2007 0.1726
C3 C 0.5676(5) 0.2594(2) 0.08328(16)
H2 H 0.6834 0.2198 0.0793
C4 C 0.5157(5) 0.3298(3) 0.03380(15)
H3 H 0.5963 0.3382 -0.0039
C5 C 0.3457(5) 0.3877(2) 0.03998(14)
H4 H 0.3126 0.4358 0.0062
C6 C 0.2204(4) 0.37701(19) 0.09524(13)
C7 C 0.0352(4) 0.4414(2) 0.10194(14)
H5 H -0.0779 0.3980 0.0915
H6 H 0.0404 0.5002 0.0713
H7 H 0.0239 0.4671 0.1473
C8 C 0.0562(4) 0.21875(19) 0.21749(12)
C9 C -0.0579(5) 0.0094(2) 0.21801(14)
H8 H -0.1974 0.0200 0.2281
H9 H -0.0440 -0.0589 0.1961
C8F C -0.0562(4) 0.21875(19) 0.28251(12)
S1F S -0.02580(13) 0.11165(6) 0.33796(4)
C9F C 0.0579(5) 0.0094(2) 0.28199(14)
H8F H 0.1974 0.0200 0.2719
H9F H 0.0440 -0.0589 0.3039
N1F N -0.1607(4) 0.29881(16) 0.29546(11)
C1F C -0.2742(4) 0.30486(19) 0.35553(12)
C2F C -0.4483(5) 0.2476(2) 0.36138(15)
H1F H -0.4847 0.2007 0.3274
C3F C -0.5676(5) 0.2594(2) 0.41672(16)
H2F H -0.6834 0.2198 0.4207
C4F C -0.5157(5) 0.3298(3) 0.46620(15)
H3F H -0.5963 0.3382 0.5039
C5F C -0.3457(5) 0.3877(2) 0.46002(14)
H4F H -0.3126 0.4358 0.4938
C6F C -0.2204(4) 0.37701(19) 0.40476(13)
C7F C -0.0352(4) 0.4414(2) 0.39806(14)
H5F H 0.0779 0.3980 0.4085
H6F H -0.0404 0.5002 0.4287
H7F H -0.0239 0.4671 0.3527
loop_
_geom_bond_atom_site_label_1
_geom_bond_atom_site_label_2
_geom_bond_site_symmetry_1
_geom_bond_site_symmetry_2
S1 C8 1_555 1_555
N1 C1 1_555 1_555
C1 C2 1_555 1_555
C2 H1 1_555 1_555
C3 C2 1_555 1_555
H2 C3 1_555 1_555
C4 C3 1_555 1_555
H3 C4 1_555 1_555
C5 C4 1_555 1_555
H4 C5 1_555 1_555
C6 C1 1_555 1_555
C7 C6 1_555 1_555
H5 C7 1_555 1_555
H6 C7 1_555 1_555
H7 C7 1_555 1_555
C8 N1 1_555 1_555
C9 S1 1_555 1_555
H8 C9 1_555 1_555
H9 C9 1_555 1_555
C8F C8 1_555 1_555
S1F C8F 1_555 1_555
C9F C9 1_555 1_555
H8F C9F 1_555 1_555
H9F C9F 1_555 1_555
N1F C8F 1_555 1_555
C1F N1F 1_555 1_555
C2F C1F 1_555 1_555
H1F C2F 1_555 1_555
C3F C2F 1_555 1_555
H2F C3F 1_555 1_555
C4F C3F 1_555 1_555
H3F C4F 1_555 1_555
C5F C4F 1_555 1_555
H4F C5F 1_555 1_555
C6F C1F 1_555 1_555
C7F C6F 1_555 1_555
H5F C7F 1_555 1_555
H6F C7F 1_555 1_555
H7F C7F 1_555 1_555
C5 C6 1_555 1_555
S1F C9F 1_555 1_555
C5F C6F 1_555 1_555

#END
