
#######################################################################
#
#                 Cambridge Crystallographic Data Centre
#                                CCDC 
#
#######################################################################
#
# If this CIF has been generated from an entry in the Cambridge 
# Structural Database, then it will include bibliographic, chemical, 
# crystal, experimental, refinement or atomic coordinate data resulting 
# from the CCDC's data processing and validation procedures.
#
#######################################################################

data_BECCUK
_chemical_formula_moiety         'C44 H51 Li1 N4 O1'
_chemical_name_systematic        
"[N-({1,1'-dibenzyl-3-[(t-butylimino)methyl][1',2'-dihydro-1H,3'H-[2,2'-bi-indole]]-3'-ylidene}methyl)-2-methylpropan-2-aminato]-tetrahydrofuran-lithium"
_symmetry_cell_setting           monoclinic
_symmetry_space_group_name_H-M   'C 2/c'
_symmetry_Int_Tables_number      15
_space_group_name_Hall           '-C 2yn'
loop_
_symmetry_equiv_pos_site_id
_symmetry_equiv_pos_as_xyz
1 x,y,z
2 -x,y,1/2-z
3 1/2+x,1/2+y,z
4 1/2-x,1/2+y,1/2-z
5 -x,-y,-z
6 x,-y,1/2+z
7 1/2-x,1/2-y,-z
8 1/2+x,1/2-y,1/2+z
_cell_length_a                   17.746(2)
_cell_length_b                   16.299(2)
_cell_length_c                   27.596(3)
_cell_angle_alpha                90
_cell_angle_beta                 102.391(2)
_cell_angle_gamma                90
_cell_volume                     7795.99
_exptl_crystal_colour            colorless
_exptl_crystal_description       block
_cell_formula_units_Z            8
loop_
_atom_site_label
_atom_site_type_symbol
_atom_site_fract_x
_atom_site_fract_y
_atom_site_fract_z
C1 C 0.21693(17) 0.93353(17) 0.05478(11)
H1 H 0.1673 0.9369 0.0648
C2 C 0.23868(16) 1.01906(18) 0.04053(11)
C3 C 0.23103(17) 1.02023(19) -0.01272(12)
C4 C 0.23958(19) 1.0811(2) -0.04637(13)
H2 H 0.2558 1.1333 -0.0351
C5 C 0.2239(2) 1.0638(3) -0.09692(14)
H3 H 0.2295 1.1050 -0.1192
C6 C 0.2004(2) 0.9875(3) -0.11436(14)
H4 H 0.1894 0.9776 -0.1483
C7 C 0.19293(19) 0.9244(2) -0.08164(12)
H5 H 0.1783 0.8719 -0.0932
C8 C 0.20778(16) 0.94179(19) -0.03189(12)
C9 C 0.24791(17) 1.08488(19) 0.07178(13)
H6 H 0.2569 1.1351 0.0581
C10 C 0.2502(3) 1.1680(2) 0.14337(14)
C11 C 0.2362(4) 1.1558(3) 0.19573(17)
H7 H 0.2750 1.1200 0.2141
H8 H 0.1862 1.1319 0.1937
H9 H 0.2387 1.2079 0.2122
C12 C 0.1854(3) 1.2239(2) 0.11544(17)
H10 H 0.1847 1.2740 0.1337
H11 H 0.1367 1.1965 0.1121
H12 H 0.1944 1.2362 0.0831
C13 C 0.3278(3) 1.2088(3) 0.14557(19)
H13 H 0.3680 1.1752 0.1645
H14 H 0.3284 1.2616 0.1611
H15 H 0.3361 1.2155 0.1125
C14 C 0.16503(16) 0.81116(17) 0.00222(12)
H16 H 0.1918 0.7742 0.0277
H17 H 0.1679 0.7876 -0.0296
C15 C 0.08116(18) 0.81470(19) 0.00558(12)
C16 C 0.0499(2) 0.7527(2) 0.02883(12)
H18 H 0.0811 0.7098 0.0437
C17 C -0.0279(3) 0.7536(3) 0.03024(15)
H19 H -0.0488 0.7106 0.0453
C18 C -0.0734(2) 0.8168(3) 0.00977(18)
H20 H -0.1251 0.8183 0.0116
C19 C -0.0426(2) 0.8784(3) -0.01355(17)
H21 H -0.0739 0.9214 -0.0282
C20 C 0.0335(2) 0.8776(2) -0.01562(14)
H22 H 0.0535 0.9201 -0.0315
C21 C 0.27230(17) 0.88616(17) 0.09374(11)
C22 C 0.25468(19) 0.83791(19) 0.13118(11)
C23 C 0.3205(2) 0.78762(19) 0.15012(11)
C24 C 0.3371(3) 0.7276(2) 0.18665(12)
H23 H 0.3008 0.7128 0.2049
C25 C 0.4080(3) 0.6905(2) 0.19513(14)
H24 H 0.4194 0.6495 0.2190
C26 C 0.4634(3) 0.7132(2) 0.16866(16)
H25 H 0.5111 0.6871 0.1754
C27 C 0.4494(2) 0.7728(2) 0.13306(13)
H26 H 0.4866 0.7880 0.1157
C28 C 0.3773(2) 0.80954(19) 0.12395(12)
C29 C 0.1815(2) 0.8376(2) 0.14714(11)
H27 H 0.1583 0.7879 0.1518
C30 C 0.0706(3) 0.9074(3) 0.16546(18)
C31 C 0.0752(3) 0.9620(4) 0.2097(2)
H28 H 0.1029 1.0111 0.2054
H29 H 0.1016 0.9339 0.2390
H30 H 0.0240 0.9761 0.2131
C32 C 0.0363(3) 0.8253(3) 0.1732(2)
H31 H -0.0146 0.8329 0.1792
H32 H 0.0682 0.7984 0.2012
H33 H 0.0333 0.7921 0.1441
C33 C 0.0209(3) 0.9490(4) 0.1204(2)
H34 H 0.0408 1.0029 0.1167
H35 H -0.0312 0.9532 0.1248
H36 H 0.0218 0.9172 0.0912
C34 C 0.38891(18) 0.90259(19) 0.05391(11)
H37 H 0.3525 0.9312 0.0282
H38 H 0.4101 0.8574 0.0383
C35 C 0.45296(18) 0.9601(2) 0.07544(12)
C36 C 0.4432(2) 1.0223(2) 0.10741(14)
H39 H 0.3963 1.0275 0.1170
C37 C 0.5021(3) 1.0769(2) 0.12547(16)
H40 H 0.4950 1.1180 0.1474
C38 C 0.5714(3) 1.0701(3) 0.11087(19)
H41 H 0.6111 1.1068 0.1230
C39 C 0.5820(2) 1.0100(3) 0.07867(18)
H42 H 0.6285 1.0058 0.0685
C40 C 0.5231(2) 0.9552(3) 0.06117(13)
H43 H 0.5306 0.9140 0.0393
C41 C 0.3844(3) 0.9670(3) 0.23088(17)
H44 H 0.4042 1.0225 0.2361
H45 H 0.3993 0.9449 0.2016
C42 C 0.4164(4) 0.9160(4) 0.2742(2)
H46 H 0.4383 0.8660 0.2641
H47 H 0.4564 0.9455 0.2971
C43 C 0.3531(5) 0.8975(4) 0.2972(2)
H48 H 0.3442 0.8388 0.2970
H49 H 0.3642 0.9165 0.3313
C44 C 0.2874(4) 0.9384(5) 0.2695(2)
H50 H 0.2742 0.9842 0.2885
H51 H 0.2439 0.9010 0.2628
Li1 Li 0.2337(4) 0.9922(4) 0.1609(2)
N1 N 0.20529(13) 0.88829(15) 0.00742(9)
N2 N 0.24542(15) 1.08529(15) 0.11986(10)
N3 N 0.34714(14) 0.86908(14) 0.09000(9)
N4 N 0.14898(16) 0.90430(19) 0.15480(9)
O1 O 0.30292(19) 0.96733(17) 0.22404(9)
loop_
_geom_bond_atom_site_label_1
_geom_bond_atom_site_label_2
_geom_bond_site_symmetry_1
_geom_bond_site_symmetry_2
C1 H1 1_555 1_555
C2 C1 1_555 1_555
C3 C2 1_555 1_555
C4 C3 1_555 1_555
H2 C4 1_555 1_555
C5 C4 1_555 1_555
H3 C5 1_555 1_555
C6 C5 1_555 1_555
H4 C6 1_555 1_555
C7 C6 1_555 1_555
H5 C7 1_555 1_555
C8 C3 1_555 1_555
C9 C2 1_555 1_555
H6 C9 1_555 1_555
C10 C11 1_555 1_555
C11 H7 1_555 1_555
H8 C11 1_555 1_555
H9 C11 1_555 1_555
C12 C10 1_555 1_555
H10 C12 1_555 1_555
H11 C12 1_555 1_555
H12 C12 1_555 1_555
C13 C10 1_555 1_555
H13 C13 1_555 1_555
H14 C13 1_555 1_555
H15 C13 1_555 1_555
C14 H16 1_555 1_555
H17 C14 1_555 1_555
C15 C14 1_555 1_555
C16 C15 1_555 1_555
H18 C16 1_555 1_555
C17 C16 1_555 1_555
H19 C17 1_555 1_555
C18 C17 1_555 1_555
H20 C18 1_555 1_555
C19 C18 1_555 1_555
H21 C19 1_555 1_555
C20 C15 1_555 1_555
H22 C20 1_555 1_555
C21 C1 1_555 1_555
C22 C21 1_555 1_555
C23 C22 1_555 1_555
C24 C23 1_555 1_555
H23 C24 1_555 1_555
C25 C24 1_555 1_555
H24 C25 1_555 1_555
C26 C25 1_555 1_555
H25 C26 1_555 1_555
C27 C26 1_555 1_555
H26 C27 1_555 1_555
C28 C23 1_555 1_555
C29 C22 1_555 1_555
H27 C29 1_555 1_555
C30 C31 1_555 1_555
C31 H28 1_555 1_555
H29 C31 1_555 1_555
H30 C31 1_555 1_555
C32 C30 1_555 1_555
H31 C32 1_555 1_555
H32 C32 1_555 1_555
H33 C32 1_555 1_555
C33 C30 1_555 1_555
H34 C33 1_555 1_555
H35 C33 1_555 1_555
H36 C33 1_555 1_555
C34 H37 1_555 1_555
H38 C34 1_555 1_555
C35 C34 1_555 1_555
C36 C35 1_555 1_555
H39 C36 1_555 1_555
C37 C36 1_555 1_555
H40 C37 1_555 1_555
C38 C37 1_555 1_555
H41 C38 1_555 1_555
C39 C38 1_555 1_555
H42 C39 1_555 1_555
C40 C35 1_555 1_555
H43 C40 1_555 1_555
C41 H44 1_555 1_555
H45 C41 1_555 1_555
C42 C41 1_555 1_555
H46 C42 1_555 1_555
H47 C42 1_555 1_555
C43 C42 1_555 1_555
H48 C43 1_555 1_555
H49 C43 1_555 1_555
C44 C43 1_555 1_555
H50 C44 1_555 1_555
H51 C44 1_555 1_555
Li1 N2 1_555 1_555
N1 C1 1_555 1_555
N2 C9 1_555 1_555
N3 C21 1_555 1_555
N4 C29 1_555 1_555
O1 C41 1_555 1_555
C7 C8 1_555 1_555
C8 N1 1_555 1_555
C10 N2 1_555 1_555
C14 N1 1_555 1_555
C19 C20 1_555 1_555
C27 C28 1_555 1_555
C28 N3 1_555 1_555
C30 N4 1_555 1_555
C34 N3 1_555 1_555
C39 C40 1_555 1_555
C44 O1 1_555 1_555
Li1 N4 1_555 1_555
Li1 O1 1_555 1_555

#END
