
#######################################################################
#
#                 Cambridge Crystallographic Data Centre
#                                CCDC 
#
#######################################################################
#
# If this CIF has been generated from an entry in the Cambridge 
# Structural Database, then it will include bibliographic, chemical, 
# crystal, experimental, refinement or atomic coordinate data resulting 
# from the CCDC's data processing and validation procedures.
#
#######################################################################

data_BECPEH01
_chemical_formula_moiety         'C25 H16 O1,0.5(C10 H2 N4)'
_chemical_name_systematic        
'1-phenyl-3-(pyren-1-yl)prop-2-en-1-one hemikis(benzene-1,2,4,5-tetracarbonitrile)'
_symmetry_cell_setting           monoclinic
_symmetry_space_group_name_H-M   'P 21/c'
_symmetry_Int_Tables_number      14
_space_group_name_Hall           '-P 2ybc'
loop_
_symmetry_equiv_pos_site_id
_symmetry_equiv_pos_as_xyz
1 x,y,z
2 -x,1/2+y,1/2-z
3 -x,-y,-z
4 x,1/2-y,1/2+z
_cell_length_a                   11.815(2)
_cell_length_b                   10.380(2)
_cell_length_c                   17.887(4)
_cell_angle_alpha                90
_cell_angle_beta                 99.44(3)
_cell_angle_gamma                90
_cell_volume                     2163.95
_exptl_crystal_colour            orange
_exptl_crystal_description       Flake
_cell_formula_units_Z            4
loop_
_atom_site_label
_atom_site_type_symbol
_atom_site_fract_x
_atom_site_fract_y
_atom_site_fract_z
O1 O 0.2292(2) 0.6348(4) 0.71140(17)
C1 C 0.4452(4) 0.5504(5) 0.6937(3)
H1 H 0.4009 0.5918 0.6530
C2 C 0.5489(5) 0.4980(6) 0.6845(4)
H2 H 0.5751 0.5068 0.6385
C3 C 0.6128(5) 0.4338(6) 0.7423(5)
H3 H 0.6826 0.3975 0.7360
C4 C 0.5748(4) 0.4224(6) 0.8097(4)
H4 H 0.6179 0.3771 0.8493
C5 C 0.4723(4) 0.4781(5) 0.8190(3)
H5 H 0.4476 0.4716 0.8657
C6 C 0.4056(3) 0.5433(4) 0.7607(2)
C7 C 0.2941(4) 0.5976(5) 0.7688(2)
C8 C 0.2576(4) 0.6083(4) 0.8428(2)
H6 H 0.3122 0.5958 0.8859
C9 C 0.1519(3) 0.6348(4) 0.8517(2)
H7 H 0.1010 0.6496 0.8071
C10 C 0.1029(3) 0.6443(4) 0.9203(2)
C11 C 0.1712(3) 0.6318(4) 0.9913(2)
H8 H 0.2489 0.6144 0.9934
C12 C 0.1299(4) 0.6436(4) 1.0577(2)
H9 H 0.1802 0.6344 1.1031
C13 C 0.0158(4) 0.6688(4) 1.0598(2)
C14 C -0.0581(3) 0.6801(3) 0.9888(2)
C15 C -0.0145(3) 0.6691(3) 0.91988(19)
C16 C -0.0310(5) 0.6807(4) 1.1274(2)
H10 H 0.0171 0.6723 1.1738
C17 C -0.1422(5) 0.7037(4) 1.1262(3)
H11 H -0.1699 0.7111 1.1717
C18 C -0.2200(4) 0.7173(4) 1.0565(3)
C19 C -0.1761(4) 0.7053(4) 0.9880(2)
C20 C -0.3362(6) 0.7427(5) 1.0556(4)
H12 H -0.3646 0.7518 1.1008
C21 C -0.4082(5) 0.7541(6) 0.9878(5)
H13 H -0.4858 0.7702 0.9874
C22 C -0.3676(4) 0.7421(5) 0.9198(4)
H14 H -0.4182 0.7497 0.8744
C23 C -0.2535(4) 0.7191(4) 0.9187(3)
C24 C -0.2063(4) 0.7057(4) 0.8510(2)
H15 H -0.2553 0.7124 0.8049
C25 C -0.0951(4) 0.6841(4) 0.8503(2)
H16 H -0.0690 0.6785 0.8041
C26 C 0.2314(4) 0.5604(4) 0.4906(2)
C27 C 0.1135(3) 0.5283(3) 0.4963(2)
C28 C 0.0775(3) 0.5161(3) 0.5659(2)
H17 H 0.1301 0.5265 0.6103
C29 C -0.0341(3) 0.4891(3) 0.5699(2)
C30 C -0.0679(4) 0.4757(4) 0.6431(2)
N1 N 0.3230(3) 0.5819(4) 0.4858(2)
N2 N -0.0958(3) 0.4632(4) 0.7009(2)
C26B C -0.2314(4) 0.4396(4) 0.5094(2)
C27B C -0.1135(3) 0.4717(3) 0.5037(2)
C28B C -0.0775(3) 0.4839(3) 0.4341(2)
H17B H -0.1301 0.4735 0.3897
C29B C 0.0341(3) 0.5109(3) 0.4301(2)
C30B C 0.0679(4) 0.5243(4) 0.3569(2)
N1B N -0.3230(3) 0.4181(4) 0.5142(2)
N2B N 0.0958(3) 0.5368(4) 0.2991(2)
loop_
_geom_bond_atom_site_label_1
_geom_bond_atom_site_label_2
_geom_bond_site_symmetry_1
_geom_bond_site_symmetry_2
O1 C7 1_555 1_555
C1 H1 1_555 1_555
C2 C1 1_555 1_555
H2 C2 1_555 1_555
C3 C2 1_555 1_555
H3 C3 1_555 1_555
C4 C3 1_555 1_555
H4 C4 1_555 1_555
C5 C4 1_555 1_555
H5 C5 1_555 1_555
C6 C1 1_555 1_555
C7 C6 1_555 1_555
C8 C7 1_555 1_555
H6 C8 1_555 1_555
C9 C8 1_555 1_555
H7 C9 1_555 1_555
C10 C9 1_555 1_555
C11 C10 1_555 1_555
H8 C11 1_555 1_555
C12 C11 1_555 1_555
H9 C12 1_555 1_555
C13 C12 1_555 1_555
C14 C13 1_555 1_555
C15 C10 1_555 1_555
C16 C13 1_555 1_555
H10 C16 1_555 1_555
C17 C16 1_555 1_555
H11 C17 1_555 1_555
C18 C17 1_555 1_555
C19 C14 1_555 1_555
C20 C18 1_555 1_555
H12 C20 1_555 1_555
C21 C20 1_555 1_555
H13 C21 1_555 1_555
C22 C21 1_555 1_555
H14 C22 1_555 1_555
C23 C19 1_555 1_555
C24 C23 1_555 1_555
H15 C24 1_555 1_555
C25 C15 1_555 1_555
H16 C25 1_555 1_555
C26 C27 1_555 1_555
C27 C28 1_555 1_555
C28 H17 1_555 1_555
C29 C28 1_555 1_555
C30 C29 1_555 1_555
N1 C26 1_555 1_555
N2 C30 1_555 1_555
C26B C27B 1_555 1_555
C27B C29 1_555 1_555
C28B C27B 1_555 1_555
H17B C28B 1_555 1_555
C29B C27 1_555 1_555
C30B C29B 1_555 1_555
N1B C26B 1_555 1_555
N2B C30B 1_555 1_555
C5 C6 1_555 1_555
C14 C15 1_555 1_555
C18 C19 1_555 1_555
C22 C23 1_555 1_555
C24 C25 1_555 1_555
C28B C29B 1_555 1_555

#END
