
#######################################################################
#
#                 Cambridge Crystallographic Data Centre
#                                CCDC 
#
#######################################################################
#
# If this CIF has been generated from an entry in the Cambridge 
# Structural Database, then it will include bibliographic, chemical, 
# crystal, experimental, refinement or atomic coordinate data resulting 
# from the CCDC's data processing and validation procedures.
#
#######################################################################

data_BECYEQ
_chemical_formula_moiety         'C14 H12 O5'
_chemical_name_systematic        
(2,5-dihydroxy-3-methylphenyl)(2,3-dihydroxyphenyl)methanone
_symmetry_cell_setting           orthorhombic
_symmetry_space_group_name_H-M   'P n a 21'
_symmetry_Int_Tables_number      33
_space_group_name_Hall           'P 2c -2n'
loop_
_symmetry_equiv_pos_site_id
_symmetry_equiv_pos_as_xyz
1 x,y,z
2 -x,-y,1/2+z
3 1/2+x,1/2-y,z
4 1/2-x,1/2+y,1/2+z
_cell_length_a                   8.1951(7)
_cell_length_b                   17.9481(15)
_cell_length_c                   8.1962(8)
_cell_angle_alpha                90
_cell_angle_beta                 90
_cell_angle_gamma                90
_cell_volume                     1205.55
_cell_formula_units_Z            4
loop_
_atom_site_label
_atom_site_type_symbol
_atom_site_fract_x
_atom_site_fract_y
_atom_site_fract_z
O1 O 1.0646(2) 0.58089(12) 0.2119(3)
H1 H 1.0109 0.5431 0.1959
O2 O 0.9244(2) 0.70941(9) 0.8041(2)
H2 H 0.8343 0.6985 0.8406
O3 O 0.9029(2) 0.46646(10) 0.3250(3)
O4 O 0.6979(2) 0.36116(9) 0.3783(3)
H3 H 0.7865 0.3781 0.3502
O5 O 0.3866(2) 0.32563(9) 0.4270(3)
H4 H 0.4622 0.3007 0.3906
C1 C 1.0171(3) 0.61291(15) 0.3544(3)
C2 C 1.0958(3) 0.67871(15) 0.3996(4)
C3 C 1.0585(3) 0.70982(15) 0.5494(4)
H5 H 1.1119 0.7531 0.5820
C4 C 0.9433(3) 0.67801(14) 0.6524(4)
C5 C 0.8595(3) 0.61544(13) 0.6036(4)
H6 H 0.7795 0.5951 0.6707
C6 C 0.8950(3) 0.58231(13) 0.4523(3)
C7 C 0.8184(3) 0.51116(13) 0.4041(3)
C8 C 0.6493(3) 0.49140(13) 0.4425(3)
C9 C 0.5991(3) 0.41736(13) 0.4240(3)
C10 C 0.4373(3) 0.39732(14) 0.4496(3)
C11 C 0.3259(3) 0.45073(15) 0.4949(4)
H7 H 0.2180 0.4373 0.5142
C12 C 0.3734(3) 0.52442(15) 0.5118(4)
H8 H 0.2969 0.5602 0.5416
C13 C 0.5317(3) 0.54506(15) 0.4852(3)
H9 H 0.5618 0.5948 0.4954
C14 C 1.2216(4) 0.71331(17) 0.2864(4)
H10 H 1.2605 0.7591 0.3329
H11 H 1.1724 0.7232 0.1824
H12 H 1.3112 0.6795 0.2725
loop_
_geom_bond_atom_site_label_1
_geom_bond_atom_site_label_2
_geom_bond_site_symmetry_1
_geom_bond_site_symmetry_2
O1 H1 1_555 1_555
O2 H2 1_555 1_555
O3 C7 1_555 1_555
O4 H3 1_555 1_555
O5 H4 1_555 1_555
C1 O1 1_555 1_555
C2 C1 1_555 1_555
C3 C2 1_555 1_555
H5 C3 1_555 1_555
C4 O2 1_555 1_555
C5 C4 1_555 1_555
H6 C5 1_555 1_555
C6 C1 1_555 1_555
C7 C6 1_555 1_555
C8 C7 1_555 1_555
C9 O4 1_555 1_555
C10 O5 1_555 1_555
C11 C10 1_555 1_555
H7 C11 1_555 1_555
C12 C11 1_555 1_555
H8 C12 1_555 1_555
C13 C8 1_555 1_555
H9 C13 1_555 1_555
C14 C2 1_555 1_555
H10 C14 1_555 1_555
H11 C14 1_555 1_555
H12 C14 1_555 1_555
C3 C4 1_555 1_555
C5 C6 1_555 1_555
C8 C9 1_555 1_555
C9 C10 1_555 1_555
C12 C13 1_555 1_555

#END
