
#######################################################################
#
#                 Cambridge Crystallographic Data Centre
#                                CCDC 
#
#######################################################################
#
# If this CIF has been generated from an entry in the Cambridge 
# Structural Database, then it will include bibliographic, chemical, 
# crystal, experimental, refinement or atomic coordinate data resulting 
# from the CCDC's data processing and validation procedures.
#
#######################################################################

data_BECZAL
_chemical_formula_moiety         'C2 H6 O2 Se1'
_chemical_name_systematic        'dimethyl selenone'
_symmetry_cell_setting           monoclinic
_symmetry_space_group_name_H-M   'C 2/c'
_symmetry_Int_Tables_number      15
_space_group_name_Hall           '-C 2yn'
loop_
_symmetry_equiv_pos_site_id
_symmetry_equiv_pos_as_xyz
1 x,y,z
2 1/2+x,1/2+y,z
3 x,-y,1/2+z
4 1/2+x,1/2-y,1/2+z
5 -x,-y,-z
6 1/2-x,1/2-y,-z
7 -x,y,1/2-z
8 1/2-x,1/2+y,1/2-z
_cell_length_a                   8.8118(9)
_cell_length_b                   8.4480(9)
_cell_length_c                   6.9904(7)
_cell_angle_alpha                90
_cell_angle_beta                 120.184(2)
_cell_angle_gamma                90
_cell_volume                     449.824
_exptl_crystal_colour            colorless
_exptl_crystal_description       plate
_chemical_melting_point          '147 deg.C'
_cell_formula_units_Z            4
_exptl_crystal_recrystallization_method MeOH
loop_
_atom_site_label
_atom_site_type_symbol
_atom_site_fract_x
_atom_site_fract_y
_atom_site_fract_z
Se1 Se 0.5000 0.65237(2) 0.2500
O1 O 0.32944(17) 0.54861(16) 0.0799(2)
C1 C 0.5621(3) 0.7855(2) 0.0801(3)
H1 H 0.466(6) 0.846(3) -0.012(8)
H2 H 0.603(4) 0.711(4) 0.012(5)
H3 H 0.652(5) 0.847(3) 0.177(6)
O1F O 0.67056(17) 0.54861(16) 0.4201(2)
C1F C 0.4379(3) 0.7855(2) 0.4199(3)
H1F H 0.534(6) 0.846(3) 0.512(8)
H2F H 0.397(4) 0.711(4) 0.488(5)
H3F H 0.348(5) 0.847(3) 0.323(6)
loop_
_geom_bond_atom_site_label_1
_geom_bond_atom_site_label_2
_geom_bond_site_symmetry_1
_geom_bond_site_symmetry_2
Se1 O1 1_555 1_555
C1 Se1 1_555 1_555
H1 C1 1_555 1_555
H2 C1 1_555 1_555
H3 C1 1_555 1_555
O1F Se1 1_555 1_555
C1F Se1 1_555 1_555
H1F C1F 1_555 1_555
H2F C1F 1_555 1_555
H3F C1F 1_555 1_555

#END
