
#######################################################################
#
#                 Cambridge Crystallographic Data Centre
#                                CCDC 
#
#######################################################################
#
# If this CIF has been generated from an entry in the Cambridge 
# Structural Database, then it will include bibliographic, chemical, 
# crystal, experimental, refinement or atomic coordinate data resulting 
# from the CCDC's data processing and validation procedures.
#
#######################################################################

data_BEDPEI
_chemical_formula_moiety         'C20 H25 N1 O2'
_chemical_name_systematic        
'methyl 4-(2-(4-(dimethylamino)-2-methylphenyl)propyl)benzoate'
_symmetry_cell_setting           monoclinic
_symmetry_space_group_name_H-M   'P 21'
_symmetry_Int_Tables_number      4
_space_group_name_Hall           'P 2yb'
loop_
_symmetry_equiv_pos_site_id
_symmetry_equiv_pos_as_xyz
1 x,y,z
2 -x,1/2+y,-z
_cell_length_a                   9.4190(8)
_cell_length_b                   8.8409(5)
_cell_length_c                   11.6624(11)
_cell_angle_alpha                90
_cell_angle_beta                 112.966(10)
_cell_angle_gamma                90
_cell_volume                     894.179
_exptl_crystal_colour            colorless
_exptl_crystal_description       plate
_cell_formula_units_Z            2
_exptl_crystal_recrystallization_method hexane
loop_
_atom_site_label
_atom_site_type_symbol
_atom_site_fract_x
_atom_site_fract_y
_atom_site_fract_z
O1 O 0.9926(4) 1.0158(3) 0.5916(2)
O2 O 1.1029(2) 0.8218(2) 0.71313(17)
N1 N 0.3685(3) 1.0230(4) 1.3975(3)
C1 C 0.6247(3) 0.9087(3) 1.2382(3)
C2 C 0.5654(3) 0.9310(3) 1.3284(3)
H1 H 0.6219 0.8964 1.4088
C3 C 0.4244(3) 1.0033(3) 1.3044(2)
C4 C 0.3432(3) 1.0518(3) 1.1823(3)
H2 H 0.2488 1.1004 1.1615
C5 C 0.4015(3) 1.0283(3) 1.0923(2)
H3 H 0.3433 1.0602 1.0115
C6 C 0.5433(3) 0.9593(2) 1.1159(2)
C7 C 0.6066(3) 0.9436(3) 1.0159(2)
H4 H 0.6627 0.8475 1.0307
C8 C 0.7242(3) 1.0698(3) 1.0278(3)
H5 H 0.6706 1.1660 1.0077
H6 H 0.7979 1.0747 1.1135
C9 C 0.8099(3) 1.0463(2) 0.9440(2)
C10 C 0.9169(3) 0.9298(3) 0.9673(2)
H7 H 0.9411 0.8714 1.0388
C11 C 0.9875(3) 0.8995(3) 0.8866(2)
H8 H 1.0598 0.8221 0.9048
C12 C 0.9524(3) 0.9826(2) 0.7788(2)
C13 C 0.8514(3) 1.1040(3) 0.7577(3)
H9 H 0.8317 1.1657 0.6887
C14 C 0.7804(3) 1.1332(3) 0.8385(3)
H10 H 0.7110 1.2131 0.8218
C15 C 0.2212(5) 1.0896(6) 1.3681(4)
H11 H 0.1963 1.0883 1.4404
H12 H 0.1450 1.0333 1.3023
H13 H 0.2227 1.1922 1.3416
C16 C 0.4604(5) 0.9937(8) 1.5225(3)
H14 H 0.4099 1.0312 1.5741
H15 H 0.5582 1.0432 1.5445
H16 H 0.4761 0.8867 1.5346
C17 C 0.4849(3) 0.9383(4) 0.8841(3)
H17 H 0.5325 0.9119 0.8275
H18 H 0.4368 1.0357 0.8622
H19 H 0.4085 0.8639 0.8793
C18 C 0.7785(3) 0.8283(4) 1.2763(3)
H20 H 0.7648 0.7351 1.2309
H21 H 0.8182 0.8072 1.3640
H22 H 0.8499 0.8915 1.2581
C19 C 1.0167(3) 0.9447(3) 0.6844(2)
C20 C 1.1658(4) 0.7720(4) 0.6258(3)
H23 H 1.2537 0.7086 0.6675
H24 H 1.1968 0.8583 0.5912
H25 H 1.0892 0.7159 0.5603
loop_
_geom_bond_atom_site_label_1
_geom_bond_atom_site_label_2
_geom_bond_site_symmetry_1
_geom_bond_site_symmetry_2
O1 C19 1_555 1_555
O2 C19 1_555 1_555
N1 C3 1_555 1_555
C1 C2 1_555 1_555
C2 H1 1_555 1_555
C3 C2 1_555 1_555
C4 C3 1_555 1_555
H2 C4 1_555 1_555
C5 C4 1_555 1_555
H3 C5 1_555 1_555
C6 C1 1_555 1_555
C7 C6 1_555 1_555
H4 C7 1_555 1_555
C8 C7 1_555 1_555
H5 C8 1_555 1_555
H6 C8 1_555 1_555
C9 C8 1_555 1_555
C10 C9 1_555 1_555
H7 C10 1_555 1_555
C11 C10 1_555 1_555
H8 C11 1_555 1_555
C12 C11 1_555 1_555
C13 C12 1_555 1_555
H9 C13 1_555 1_555
C14 C9 1_555 1_555
H10 C14 1_555 1_555
C15 N1 1_555 1_555
H11 C15 1_555 1_555
H12 C15 1_555 1_555
H13 C15 1_555 1_555
C16 N1 1_555 1_555
H14 C16 1_555 1_555
H15 C16 1_555 1_555
H16 C16 1_555 1_555
C17 C7 1_555 1_555
H17 C17 1_555 1_555
H18 C17 1_555 1_555
H19 C17 1_555 1_555
C18 C1 1_555 1_555
H20 C18 1_555 1_555
H21 C18 1_555 1_555
H22 C18 1_555 1_555
C19 C12 1_555 1_555
C20 O2 1_555 1_555
H23 C20 1_555 1_555
H24 C20 1_555 1_555
H25 C20 1_555 1_555
C5 C6 1_555 1_555
C13 C14 1_555 1_555

#END
