
#######################################################################
#
#                 Cambridge Crystallographic Data Centre
#                                CCDC 
#
#######################################################################
#
# If this CIF has been generated from an entry in the Cambridge 
# Structural Database, then it will include bibliographic, chemical, 
# crystal, experimental, refinement or atomic coordinate data resulting 
# from the CCDC's data processing and validation procedures.
#
#######################################################################

data_BEDRIO
_chemical_formula_moiety         'C25 H17 N1 O2'
_chemical_name_systematic        3-(diphenylamino)-9H-xanthen-9-one
_symmetry_cell_setting           monoclinic
_symmetry_space_group_name_H-M   'P 21/c'
_symmetry_Int_Tables_number      14
_space_group_name_Hall           '-P 2ybc'
loop_
_symmetry_equiv_pos_site_id
_symmetry_equiv_pos_as_xyz
1 x,y,z
2 -x,1/2+y,1/2-z
3 -x,-y,-z
4 x,1/2-y,1/2+z
_cell_length_a                   11.3807(11)
_cell_length_b                   34.258(3)
_cell_length_c                   9.5952(9)
_cell_angle_alpha                90
_cell_angle_beta                 105.393(2)
_cell_angle_gamma                90
_cell_volume                     3606.78
_exptl_crystal_colour            green
_exptl_crystal_description       block
_cell_formula_units_Z            8
loop_
_atom_site_label
_atom_site_type_symbol
_atom_site_fract_x
_atom_site_fract_y
_atom_site_fract_z
O1 O 0.54823(16) 0.05870(5) 0.60678(18)
O2 O 0.84172(17) 0.10248(6) 0.4838(2)
N1 N 0.2916(2) 0.06074(6) 0.1283(2)
C1 C 0.6358(2) 0.08169(7) 0.4171(3)
C2 C 0.5393(2) 0.06639(7) 0.4641(3)
C3 C 0.7521(2) 0.09084(7) 0.5197(3)
C4 C 0.4274(2) 0.05816(8) 0.3696(3)
H1 H 0.3657 0.0474 0.4044
C5 C 0.6533(2) 0.06900(8) 0.7081(3)
C6 C 0.4065(2) 0.06593(7) 0.2225(3)
C7 C 0.5039(2) 0.08105(7) 0.1727(3)
H2 H 0.4929 0.0859 0.0747
C8 C 0.7536(2) 0.08469(7) 0.6720(3)
C9 C 0.6534(3) 0.06281(8) 0.8513(3)
H3 H 0.5847 0.0528 0.8739
C10 C 0.2748(2) 0.05490(8) -0.0235(3)
C11 C 0.8560(2) 0.09420(8) 0.7846(3)
H4 H 0.9233 0.1055 0.7628
C12 C 0.6139(2) 0.08855(7) 0.2682(3)
H5 H 0.6766 0.0985 0.2333
C13 C 0.8590(3) 0.08725(8) 0.9266(3)
H6 H 0.9287 0.0929 1.0000
C14 C 0.1476(2) 0.08314(8) 0.2610(3)
H7 H 0.1873 0.1071 0.2762
C15 C 0.3409(3) 0.02691(8) -0.0748(3)
H8 H 0.3996 0.0123 -0.0098
C16 C 0.7562(3) 0.07163(8) 0.9590(3)
H9 H 0.7573 0.0671 1.0550
C17 C 0.1881(3) 0.07668(8) -0.1217(3)
H10 H 0.1447 0.0960 -0.0887
C18 C 0.1871(2) 0.05432(8) 0.1836(3)
C19 C 0.0491(3) 0.07618(8) 0.3159(3)
H11 H 0.0228 0.0956 0.3685
C20 C 0.3205(3) 0.02053(8) -0.2216(3)
H12 H 0.3660 0.0019 -0.2550
C21 C 0.1659(3) 0.06981(8) -0.2687(3)
H13 H 0.1062 0.0841 -0.3338
C22 C 0.2321(3) 0.04194(9) -0.3187(3)
H14 H 0.2174 0.0375 -0.4174
C23 C 0.0277(3) 0.01261(9) 0.2146(3)
H15 H -0.0131 -0.0111 0.1980
C24 C -0.0105(3) 0.04109(9) 0.2939(3)
H16 H -0.0763 0.0365 0.3321
C25 C 0.1266(3) 0.01919(8) 0.1598(3)
H17 H 0.1522 -0.0002 0.1066
O3 O 1.08611(17) 0.16654(6) 0.40634(19)
O4 O 0.78333(16) 0.21148(5) 0.50271(19)
C26 C 0.9922(2) 0.17771(7) 0.4358(3)
N2 N 0.5270(2) 0.18627(6) 0.0340(2)
C27 C 0.8759(2) 0.18166(7) 0.3291(3)
C28 C 0.6426(2) 0.18576(7) 0.1294(3)
C29 C 0.6614(2) 0.19989(7) 0.2698(3)
H18 H 0.5972 0.2111 0.2986
C30 C 0.7754(2) 0.19719(7) 0.3663(3)
C31 C 0.8875(2) 0.20383(8) 0.6106(3)
C32 C 0.9898(2) 0.18684(7) 0.5848(3)
C33 C 0.2760(3) 0.25016(8) 0.0784(3)
H19 H 0.2414 0.2741 0.0446
C34 C 1.0884(2) 0.17844(7) 0.7022(3)
H20 H 1.1575 0.1666 0.6868
C35 C 0.4242(2) 0.20021(8) 0.0805(3)
C36 C 0.8840(3) 0.21403(9) 0.7502(3)
H21 H 0.8158 0.2264 0.7656
C37 C 0.7439(2) 0.16955(7) 0.0901(3)
H22 H 0.7339 0.1597 -0.0026
C38 C 0.8556(2) 0.16836(7) 0.1869(3)
H23 H 0.9210 0.1583 0.1573
C39 C 0.5062(2) 0.17697(8) -0.1160(3)
C40 C 0.2311(3) 0.22903(8) 0.1758(3)
H24 H 0.1674 0.2388 0.2091
C41 C 0.3724(2) 0.23576(8) 0.0311(3)
H25 H 0.4024 0.2501 -0.0342
C42 C 0.9817(3) 0.20559(9) 0.8642(3)
H26 H 0.9796 0.2120 0.9577
C43 C 0.3773(2) 0.17877(8) 0.1755(3)
H27 H 0.4103 0.1545 0.2073
C44 C 1.0845(3) 0.18744(8) 0.8408(3)
H28 H 1.1503 0.1814 0.9186
C45 C 0.4010(3) 0.13987(8) -0.3236(3)
H29 H 0.3424 0.1214 -0.3656
C46 C 0.5726(3) 0.19518(8) -0.1994(3)
H30 H 0.6293 0.2143 -0.1588
C47 C 0.2820(3) 0.19323(8) 0.2231(3)
H31 H 0.2515 0.1787 0.2877
C48 C 0.4195(2) 0.14969(8) -0.1791(3)
H32 H 0.3732 0.1378 -0.1246
C49 C 0.5547(3) 0.18496(9) -0.3428(3)
H33 H 0.6009 0.1968 -0.3976
C50 C 0.4692(3) 0.15744(9) -0.4048(3)
H34 H 0.4573 0.1507 -0.5014
loop_
_geom_bond_atom_site_label_1
_geom_bond_atom_site_label_2
_geom_bond_site_symmetry_1
_geom_bond_site_symmetry_2
O1 C2 1_555 1_555
O2 C3 1_555 1_555
N1 C6 1_555 1_555
C1 C2 1_555 1_555
C2 C4 1_555 1_555
C3 C1 1_555 1_555
C4 H1 1_555 1_555
C5 O1 1_555 1_555
C6 C4 1_555 1_555
C7 C6 1_555 1_555
H2 C7 1_555 1_555
C8 C3 1_555 1_555
C9 C5 1_555 1_555
H3 C9 1_555 1_555
C10 N1 1_555 1_555
C11 C8 1_555 1_555
H4 C11 1_555 1_555
C12 C1 1_555 1_555
H5 C12 1_555 1_555
C13 C11 1_555 1_555
H6 C13 1_555 1_555
C14 H7 1_555 1_555
C15 C10 1_555 1_555
H8 C15 1_555 1_555
C16 C9 1_555 1_555
H9 C16 1_555 1_555
C17 C10 1_555 1_555
H10 C17 1_555 1_555
C18 N1 1_555 1_555
C19 C14 1_555 1_555
H11 C19 1_555 1_555
C20 C15 1_555 1_555
H12 C20 1_555 1_555
C21 C17 1_555 1_555
H13 C21 1_555 1_555
C22 C20 1_555 1_555
H14 C22 1_555 1_555
C23 H15 1_555 1_555
C24 C19 1_555 1_555
H16 C24 1_555 1_555
C25 C18 1_555 1_555
H17 C25 1_555 1_555
O3 C26 1_555 1_555
O4 C30 1_555 1_555
C26 C27 1_555 1_555
N2 C28 1_555 1_555
C27 C30 1_555 1_555
C28 C29 1_555 1_555
C29 H18 1_555 1_555
C30 C29 1_555 1_555
C31 O4 1_555 1_555
C32 C26 1_555 1_555
C33 H19 1_555 1_555
C34 C32 1_555 1_555
H20 C34 1_555 1_555
C35 N2 1_555 1_555
C36 C31 1_555 1_555
H21 C36 1_555 1_555
C37 C28 1_555 1_555
H22 C37 1_555 1_555
C38 C27 1_555 1_555
H23 C38 1_555 1_555
C39 N2 1_555 1_555
C40 C33 1_555 1_555
H24 C40 1_555 1_555
C41 C33 1_555 1_555
H25 C41 1_555 1_555
C42 C36 1_555 1_555
H26 C42 1_555 1_555
C43 C35 1_555 1_555
H27 C43 1_555 1_555
C44 C34 1_555 1_555
H28 C44 1_555 1_555
C45 H29 1_555 1_555
C46 C39 1_555 1_555
H30 C46 1_555 1_555
C47 C40 1_555 1_555
H31 C47 1_555 1_555
C48 C39 1_555 1_555
H32 C48 1_555 1_555
C49 C46 1_555 1_555
H33 C49 1_555 1_555
C50 C45 1_555 1_555
H34 C50 1_555 1_555
C5 C8 1_555 1_555
C7 C12 1_555 1_555
C13 C16 1_555 1_555
C14 C18 1_555 1_555
C21 C22 1_555 1_555
C23 C24 1_555 1_555
C23 C25 1_555 1_555
C31 C32 1_555 1_555
C35 C41 1_555 1_555
C37 C38 1_555 1_555
C42 C44 1_555 1_555
C43 C47 1_555 1_555
C45 C48 1_555 1_555
C49 C50 1_555 1_555

#END
