
#######################################################################
#
#                 Cambridge Crystallographic Data Centre
#                                CCDC 
#
#######################################################################
#
# If this CIF has been generated from an entry in the Cambridge 
# Structural Database, then it will include bibliographic, chemical, 
# crystal, experimental, refinement or atomic coordinate data resulting 
# from the CCDC's data processing and validation procedures.
#
#######################################################################

data_BEDVEO
_chemical_formula_moiety         'C28 H30 I2 N2 S2'
_chemical_name_systematic        
2,5-dihexyl-9,10-diiodobisthieno[3,2-a:2',3'-c]phenazine
_symmetry_cell_setting           triclinic
_symmetry_space_group_name_H-M   'P -1'
_symmetry_Int_Tables_number      2
_space_group_name_Hall           '-P 1'
loop_
_symmetry_equiv_pos_site_id
_symmetry_equiv_pos_as_xyz
1 x,y,z
2 -x,-y,-z
_cell_length_a                   15.3564(14)
_cell_length_b                   18.2716(16)
_cell_length_c                   20.2766(17)
_cell_angle_alpha                92.304(2)
_cell_angle_beta                 102.412(2)
_cell_angle_gamma                98.501(2)
_cell_volume                     5480.03
_exptl_crystal_colour            red
_exptl_crystal_description       block
_cell_formula_units_Z            8
loop_
_atom_site_label
_atom_site_type_symbol
_atom_site_fract_x
_atom_site_fract_y
_atom_site_fract_z
I1 I 0.70300(7) 0.17696(5) 0.00082(4)
I2 I 0.73330(7) 0.34217(5) -0.08568(4)
S1 S 1.0736(3) 0.4646(2) 0.44444(17)
S2 S 1.1086(3) 0.62392(19) 0.35811(17)
N1 N 0.9053(7) 0.4772(6) 0.1572(5)
N2 N 0.8818(7) 0.3471(6) 0.2278(5)
C1 C 0.8592(9) 0.4133(7) 0.1254(6)
C2 C 0.9311(9) 0.4097(7) 0.2595(6)
C3 C 0.9759(9) 0.4122(7) 0.3296(6)
C4 C 0.8220(9) 0.4092(7) 0.0531(6)
H1 H 0.8291 0.4519 0.0300
C5 C 0.8461(9) 0.3481(7) 0.1607(6)
C6 C 0.7772(9) 0.3451(7) 0.0181(6)
C7 C 1.1094(10) 0.7704(7) 0.2062(7)
H2 H 1.1413 0.7430 0.1798
H3 H 1.0457 0.7603 0.1842
C8 C 1.0265(9) 0.4757(7) 0.3619(6)
C9 C 1.0830(10) 0.6609(7) 0.2816(6)
C10 C 0.7658(9) 0.2780(7) 0.0539(6)
C11 C 0.9435(9) 0.4755(7) 0.2232(6)
C12 C 0.7991(9) 0.2812(7) 0.1220(6)
H4 H 0.7910 0.2380 0.1443
C13 C 1.0261(9) 0.6132(7) 0.2339(6)
H5 H 1.0051 0.6251 0.1897
C14 C 0.9680(9) 0.3540(7) 0.3734(6)
H6 H 0.9326 0.3078 0.3597
C15 C 1.0410(9) 0.5403(7) 0.3243(6)
C16 C 1.0014(9) 0.5432(7) 0.2575(6)
C17 C 1.1218(10) 0.7424(7) 0.2769(6)
H7 H 1.1859 0.7499 0.2972
H8 H 1.0941 0.7730 0.3039
C18 C 1.1431(11) 0.8526(8) 0.2061(7)
H9 H 1.2064 0.8629 0.2291
H10 H 1.1102 0.8800 0.2317
C19 C 1.0182(9) 0.3731(7) 0.4384(6)
C20 C 1.0302(9) 0.3284(7) 0.4988(6)
H11 H 1.0037 0.3506 0.5324
H12 H 1.0944 0.3324 0.5180
C21 C 0.9909(10) 0.2485(7) 0.4870(6)
H13 H 1.0169 0.2256 0.4534
H14 H 0.9263 0.2438 0.4688
C22 C 1.0075(10) 0.2068(7) 0.5517(7)
H15 H 1.0721 0.2134 0.5704
H16 H 0.9803 0.2294 0.5846
C23 C 0.9710(10) 0.1242(7) 0.5424(7)
H17 H 1.0013 0.1007 0.5120
H18 H 0.9071 0.1172 0.5212
C24 C 0.9837(11) 0.0861(8) 0.6089(7)
H19 H 1.0475 0.0943 0.6305
H20 H 0.9526 0.1093 0.6389
C25 C 0.9496(12) 0.0038(8) 0.6007(8)
H21 H 0.8867 -0.0049 0.5787
H22 H 0.9573 -0.0157 0.6445
H23 H 0.9830 -0.0202 0.5738
C26 C 1.1332(11) 0.8800(8) 0.1375(8)
H24 H 1.1734 0.8576 0.1148
H25 H 1.0720 0.8620 0.1125
C27 C 1.1508(12) 0.9579(8) 0.1331(8)
H26 H 1.2129 0.9760 0.1563
H27 H 1.1122 0.9809 0.1569
C28 C 1.1358(12) 0.9836(9) 0.0596(8)
H28 H 1.1666 0.9558 0.0334
H29 H 1.1593 1.0355 0.0610
H30 H 1.0724 0.9754 0.0391
I3 I 0.29998(7) -0.05684(5) 0.85849(4)
I4 I 0.16600(7) -0.14309(5) 0.69795(5)
S3 S 0.4203(2) 0.43223(19) 0.63250(16)
S4 S 0.2870(3) 0.3499(2) 0.47851(17)
N3 N 0.3544(7) 0.1874(6) 0.7247(5)
N4 N 0.2420(7) 0.1205(6) 0.5988(5)
C29 C 0.3117(9) 0.1170(7) 0.7189(6)
C30 C 0.3119(9) 0.3084(7) 0.5550(6)
C31 C 0.2155(9) 0.0081(7) 0.6523(6)
H31 H 0.1796 -0.0145 0.6116
C32 C 0.2822(9) 0.1904(7) 0.6054(6)
C33 C 0.5347(9) 0.4712(7) 0.8371(6)
H32 H 0.4778 0.4660 0.8514
H33 H 0.5593 0.4257 0.8455
C34 C 0.1316(10) 0.1959(8) 0.3257(6)
H34 H 0.1779 0.1652 0.3250
H35 H 0.0894 0.1713 0.3503
C35 C 0.3389(9) 0.2260(7) 0.6699(6)
C36 C 0.1753(10) 0.2711(7) 0.3625(6)
H36 H 0.2202 0.2939 0.3393
H37 H 0.1295 0.3028 0.3596
C37 C 0.2573(9) 0.0845(7) 0.6550(6)
C38 C 0.3236(9) 0.0737(7) 0.7754(6)
H38 H 0.3600 0.0946 0.8166
C39 C 0.2723(9) 0.2351(7) 0.5470(6)
C40 C 0.5166(9) 0.4807(7) 0.7624(6)
H39 H 0.4863 0.5235 0.7542
H40 H 0.5743 0.4921 0.7498
C41 C 0.2275(9) -0.0320(7) 0.7082(6)
C42 C 0.2833(10) 0.0037(7) 0.7704(6)
C43 C 0.4613(9) 0.4167(7) 0.7161(6)
C44 C 0.5988(9) 0.5342(7) 0.8795(6)
H41 H 0.5746 0.5798 0.8708
H42 H 0.6559 0.5390 0.8657
C45 C 0.3820(9) 0.3028(7) 0.6729(6)
C46 C 0.3680(9) 0.3418(7) 0.6155(6)
C47 C 0.6844(10) 0.5838(8) 0.9975(6)
H43 H 0.7408 0.5850 0.9829
H44 H 0.6647 0.6313 0.9891
C48 C 0.0847(11) 0.2031(8) 0.2575(7)
H45 H 0.1261 0.2327 0.2353
H46 H 0.0358 0.2307 0.2594
C49 C 0.2211(10) 0.2680(7) 0.4378(6)
C50 C 0.6156(10) 0.5248(8) 0.9541(6)
H47 H 0.6351 0.4771 0.9621
H48 H 0.5590 0.5236 0.9682
C51 C 0.2185(9) 0.2119(8) 0.4802(6)
H49 H 0.1859 0.1646 0.4675
C52 C 0.4357(9) 0.3452(7) 0.7304(6)
H50 H 0.4519 0.3271 0.7728
C53 C 0.0444(12) 0.1300(9) 0.2124(7)
H51 H 0.0958 0.1109 0.2019
H52 H 0.0205 0.0958 0.2419
C54 C 0.7031(12) 0.5762(9) 1.0721(7)
H53 H 0.6560 0.5927 1.0903
H54 H 0.7600 0.6059 1.0933
H55 H 0.7054 0.5252 1.0807
C55 C -0.0236(13) 0.1202(10) 0.1492(8)
H56 H -0.0236 0.0726 0.1262
H57 H -0.0828 0.1200 0.1590
C56 C -0.0069(15) 0.1769(10) 0.1070(9)
H58 H -0.0137 0.2234 0.1276
H59 H -0.0491 0.1666 0.0641
H60 H 0.0535 0.1798 0.1004
I5 I 0.42654(7) 0.09634(5) 0.00193(4)
I6 I 0.45633(7) 0.26948(5) -0.07479(4)
S5 S 0.8154(3) 0.52523(19) 0.38627(16)
S6 S 0.7780(3) 0.35913(19) 0.46320(16)
N5 N 0.6071(7) 0.2506(6) 0.2358(5)
N6 N 0.6321(7) 0.3878(6) 0.1739(5)
C57 C 0.5849(9) 0.3230(7) 0.1381(6)
C58 C 0.5729(9) 0.2558(7) 0.1693(6)
C59 C 0.5493(9) 0.3248(7) 0.0679(6)
H61 H 0.5567 0.3697 0.0482
C60 C 0.7295(9) 0.2656(7) 0.4496(6)
C61 C 0.7416(9) 0.3747(7) 0.3794(6)
C62 C 0.8279(10) 0.7958(7) 0.1794(7)
H62 H 0.7634 0.7968 0.1699
H63 H 0.8399 0.7650 0.1434
C63 C 0.6672(9) 0.3824(7) 0.2407(6)
C64 C 0.6918(9) 0.3100(7) 0.3430(6)
C65 C 0.5048(9) 0.2631(7) 0.0285(6)
C66 C 0.6838(9) 0.2477(7) 0.3825(6)
H64 H 0.6520 0.2010 0.3657
C67 C 0.7374(10) 0.2174(7) 0.5096(6)
H65 H 0.8008 0.2187 0.5304
H66 H 0.7092 0.2378 0.5431
C68 C 0.8113(9) 0.6806(7) 0.2443(6)
H67 H 0.8302 0.6518 0.2102
H68 H 0.7462 0.6775 0.2309
C69 C 0.7943(9) 0.5665(7) 0.3113(6)
C70 C 0.6530(9) 0.3131(7) 0.2709(6)
C71 C 0.7428(9) 0.5184(7) 0.2600(6)
H69 H 0.7259 0.5312 0.2156
C72 C 0.7562(9) 0.4416(7) 0.3478(6)
C73 C 0.8550(10) 0.7609(7) 0.2464(6)
H70 H 0.9201 0.7637 0.2578
H71 H 0.8382 0.7893 0.2818
C74 C 0.5241(9) 0.1922(7) 0.1282(6)
H72 H 0.5144 0.1474 0.1479
C75 C 0.4910(9) 0.1950(7) 0.0605(6)
C76 C 0.8784(10) 0.8760(8) 0.1792(7)
H73 H 0.8606 0.9084 0.2113
H74 H 0.9429 0.8763 0.1938
C77 C 0.7178(9) 0.4472(7) 0.2807(6)
C78 C 0.8582(11) 0.9053(9) 0.1097(8)
H75 H 0.8769 0.8739 0.0780
H76 H 0.8904 0.9548 0.1115
H77 H 0.7945 0.9058 0.0954
C79 C 0.8349(9) 0.6471(7) 0.3110(6)
H78 H 0.9001 0.6516 0.3246
H79 H 0.8153 0.6759 0.3447
C80 C 0.6940(10) 0.1386(7) 0.4894(7)
H80 H 0.7218 0.1188 0.4554
H81 H 0.6306 0.1377 0.4688
C81 C 0.7009(11) 0.0876(8) 0.5481(7)
H82 H 0.7643 0.0874 0.5679
H83 H 0.6747 0.1081 0.5828
C82 C 0.6556(11) 0.0096(8) 0.5286(7)
H84 H 0.6807 -0.0108 0.4933
H85 H 0.5918 0.0095 0.5101
C83 C 0.6656(11) -0.0407(9) 0.5879(8)
H86 H 0.6453 -0.0187 0.6251
H87 H 0.7286 -0.0454 0.6037
C84 C 0.6088(12) -0.1187(9) 0.5651(8)
H88 H 0.5462 -0.1141 0.5506
H89 H 0.6161 -0.1498 0.6023
H90 H 0.6289 -0.1404 0.5283
I7 I 0.42352(7) 0.96978(5) 0.13810(5)
I8 I 0.53313(7) 1.05240(5) 0.30471(5)
S7 S 0.2655(3) 0.47295(19) 0.34475(17)
S8 S 0.3997(3) 0.54660(19) 0.50124(17)
N7 N 0.4554(8) 0.7807(6) 0.3908(5)
N8 N 0.3531(7) 0.7178(6) 0.2610(5)
C85 C 0.4459(9) 0.8209(7) 0.3350(6)
C86 C 0.3928(9) 0.8344(7) 0.2136(6)
H91 H 0.3643 0.8139 0.1703
C87 C 0.3607(9) 0.6788(7) 0.3149(6)
C88 C 0.3254(9) 0.5610(7) 0.3635(6)
C89 C 0.2557(9) 0.5614(7) 0.2520(6)
H92 H 0.2374 0.5823 0.2113
C90 C 0.5580(9) 0.6969(7) 0.6538(6)
H93 H 0.5157 0.7318 0.6504
H94 H 0.6056 0.7162 0.6315
C91 C 0.3973(9) 0.7894(7) 0.2704(6)
C92 C 0.4142(9) 0.7103(7) 0.3809(6)
C93 C 0.0445(10) 0.4026(8) 0.0249(6)
H95 H 0.0946 0.4285 0.0086
H96 H 0.0010 0.4362 0.0245
C94 C 0.0797(10) 0.3857(7) 0.0983(6)
H97 H 0.0290 0.3650 0.1168
H98 H 0.1188 0.3485 0.0989
C95 C 0.2265(9) 0.4901(7) 0.2595(6)
C96 C 0.4302(9) 0.9069(7) 0.2238(6)
C97 C 0.4798(9) 0.9399(7) 0.2886(6)
C98 C 0.3162(9) 0.6047(7) 0.3088(6)
C99 C 0.1300(10) 0.4513(7) 0.1419(6)
H99 H 0.0906 0.4879 0.1435
H100 H 0.1799 0.4733 0.1230
C100 C 0.3780(9) 0.5904(7) 0.4274(6)
C101 C 0.4718(9) 0.6835(7) 0.5075(6)
H101 H 0.5054 0.7300 0.5227
C102 C 0.5989(10) 0.6882(7) 0.7291(6)
H102 H 0.6415 0.6536 0.7314
H103 H 0.5508 0.6665 0.7499
C103 C 0.1654(10) 0.4304(7) 0.2117(6)
H104 H 0.1978 0.3891 0.2084
H105 H 0.1144 0.4128 0.2311
C104 C 0.4877(9) 0.8977(7) 0.3440(6)
H106 H 0.5194 0.9186 0.3866
C105 C 0.4639(9) 0.6259(7) 0.5474(6)
C106 C 0.7282(12) 0.8246(9) 0.8820(8)
H107 H 0.7844 0.8401 0.8693
H108 H 0.7394 0.8189 0.9298
H109 H 0.6897 0.8613 0.8712
C107 C 0.6478(10) 0.7611(8) 0.7710(6)
H110 H 0.6977 0.7816 0.7515
H111 H 0.6061 0.7966 0.7669
C108 C 0.6835(11) 0.7529(8) 0.8447(7)
H112 H 0.6340 0.7322 0.8645
H113 H 0.7264 0.7184 0.8493
C109 C 0.5097(9) 0.6224(7) 0.6191(6)
H114 H 0.5533 0.5886 0.6212
H115 H 0.4652 0.6021 0.6438
C110 C 0.4220(9) 0.6639(7) 0.4388(6)
C111 C 0.0014(10) 0.3379(8) -0.0231(7)
H116 H -0.0307 0.3556 -0.0645
H117 H -0.0429 0.3077 -0.0038
C112 C 0.0673(11) 0.2891(9) -0.0411(8)
H118 H 0.1179 0.3199 -0.0518
H119 H 0.0371 0.2555 -0.0794
H120 H 0.0881 0.2615 -0.0032
loop_
_geom_bond_atom_site_label_1
_geom_bond_atom_site_label_2
_geom_bond_site_symmetry_1
_geom_bond_site_symmetry_2
I1 C10 1_555 1_555
I2 C6 1_555 1_555
S1 C8 1_555 1_555
S2 C9 1_555 1_555
N1 C1 1_555 1_555
N2 C2 1_555 1_555
C1 C4 1_555 1_555
C2 C3 1_555 1_555
C3 C8 1_555 1_555
C4 H1 1_555 1_555
C5 N2 1_555 1_555
C6 C4 1_555 1_555
C7 H2 1_555 1_555
H3 C7 1_555 1_555
C8 C15 1_555 1_555
C9 C13 1_555 1_555
C10 C6 1_555 1_555
C11 N1 1_555 1_555
C12 C5 1_555 1_555
H4 C12 1_555 1_555
C13 H5 1_555 1_555
C14 C3 1_555 1_555
H6 C14 1_555 1_555
C15 S2 1_555 1_555
C16 C11 1_555 1_555
C17 C7 1_555 1_555
H7 C17 1_555 1_555
H8 C17 1_555 1_555
C18 C7 1_555 1_555
H9 C18 1_555 1_555
H10 C18 1_555 1_555
C19 S1 1_555 1_555
C20 C19 1_555 1_555
H11 C20 1_555 1_555
H12 C20 1_555 1_555
C21 C20 1_555 1_555
H13 C21 1_555 1_555
H14 C21 1_555 1_555
C22 C21 1_555 1_555
H15 C22 1_555 1_555
H16 C22 1_555 1_555
C23 C22 1_555 1_555
H17 C23 1_555 1_555
H18 C23 1_555 1_555
C24 C23 1_555 1_555
H19 C24 1_555 1_555
H20 C24 1_555 1_555
C25 C24 1_555 1_555
H21 C25 1_555 1_555
H22 C25 1_555 1_555
H23 C25 1_555 1_555
C26 C18 1_555 1_555
H24 C26 1_555 1_555
H25 C26 1_555 1_555
C27 C26 1_555 1_555
H26 C27 1_555 1_555
H27 C27 1_555 1_555
C28 C27 1_555 1_555
H28 C28 1_555 1_555
H29 C28 1_555 1_555
H30 C28 1_555 1_555
I3 C42 1_555 1_555
I4 C41 1_555 1_555
S3 C43 1_555 1_555
S4 C30 1_555 1_555
N3 C29 1_555 1_555
N4 C32 1_555 1_555
C29 C37 1_555 1_555
C30 C39 1_555 1_555
C31 H31 1_555 1_555
C32 C35 1_555 1_555
C33 H32 1_555 1_555
H33 C33 1_555 1_555
C34 H34 1_555 1_555
H35 C34 1_555 1_555
C35 N3 1_555 1_555
C36 C34 1_555 1_555
H36 C36 1_555 1_555
H37 C36 1_555 1_555
C37 N4 1_555 1_555
C38 C29 1_555 1_555
H38 C38 1_555 1_555
C39 C32 1_555 1_555
C40 C33 1_555 1_555
H39 C40 1_555 1_555
H40 C40 1_555 1_555
C41 C31 1_555 1_555
C42 C38 1_555 1_555
C43 C40 1_555 1_555
C44 C33 1_555 1_555
H41 C44 1_555 1_555
H42 C44 1_555 1_555
C45 C35 1_555 1_555
C46 S3 1_555 1_555
C47 H43 1_555 1_555
H44 C47 1_555 1_555
C48 C34 1_555 1_555
H45 C48 1_555 1_555
H46 C48 1_555 1_555
C49 S4 1_555 1_555
C50 C44 1_555 1_555
H47 C50 1_555 1_555
H48 C50 1_555 1_555
C51 C39 1_555 1_555
H49 C51 1_555 1_555
C52 C43 1_555 1_555
H50 C52 1_555 1_555
C53 C48 1_555 1_555
H51 C53 1_555 1_555
H52 C53 1_555 1_555
C54 C47 1_555 1_555
H53 C54 1_555 1_555
H54 C54 1_555 1_555
H55 C54 1_555 1_555
C55 C53 1_555 1_555
H56 C55 1_555 1_555
H57 C55 1_555 1_555
C56 C55 1_555 1_555
H58 C56 1_555 1_555
H59 C56 1_555 1_555
H60 C56 1_555 1_555
I5 C75 1_555 1_555
I6 C65 1_555 1_555
S5 C69 1_555 1_555
S6 C60 1_555 1_555
N5 C58 1_555 1_555
N6 C57 1_555 1_555
C57 C58 1_555 1_555
C58 C74 1_555 1_555
C59 C57 1_555 1_555
H61 C59 1_555 1_555
C60 C66 1_555 1_555
C61 S6 1_555 1_555
C62 H62 1_555 1_555
H63 C62 1_555 1_555
C63 N6 1_555 1_555
C64 C61 1_555 1_555
C65 C59 1_555 1_555
C66 C64 1_555 1_555
H64 C66 1_555 1_555
C67 C60 1_555 1_555
H65 C67 1_555 1_555
H66 C67 1_555 1_555
C68 H67 1_555 1_555
H68 C68 1_555 1_555
C69 C71 1_555 1_555
C70 N5 1_555 1_555
C71 H69 1_555 1_555
C72 S5 1_555 1_555
C73 C62 1_555 1_555
H70 C73 1_555 1_555
H71 C73 1_555 1_555
C74 H72 1_555 1_555
C75 C65 1_555 1_555
C76 C62 1_555 1_555
H73 C76 1_555 1_555
H74 C76 1_555 1_555
C77 C63 1_555 1_555
C78 C76 1_555 1_555
H75 C78 1_555 1_555
H76 C78 1_555 1_555
H77 C78 1_555 1_555
C79 C68 1_555 1_555
H78 C79 1_555 1_555
H79 C79 1_555 1_555
C80 C67 1_555 1_555
H80 C80 1_555 1_555
H81 C80 1_555 1_555
C81 C80 1_555 1_555
H82 C81 1_555 1_555
H83 C81 1_555 1_555
C82 C81 1_555 1_555
H84 C82 1_555 1_555
H85 C82 1_555 1_555
C83 C82 1_555 1_555
H86 C83 1_555 1_555
H87 C83 1_555 1_555
C84 C83 1_555 1_555
H88 C84 1_555 1_555
H89 C84 1_555 1_555
H90 C84 1_555 1_555
I7 C96 1_555 1_555
I8 C97 1_555 1_555
S7 C88 1_555 1_555
S8 C100 1_555 1_555
N7 C85 1_555 1_555
N8 C87 1_555 1_555
C85 C91 1_555 1_555
C86 H91 1_555 1_555
C87 C92 1_555 1_555
C88 C98 1_555 1_555
C89 H92 1_555 1_555
C90 H93 1_555 1_555
H94 C90 1_555 1_555
C91 N8 1_555 1_555
C92 N7 1_555 1_555
C93 H95 1_555 1_555
H96 C93 1_555 1_555
C94 C93 1_555 1_555
H97 C94 1_555 1_555
H98 C94 1_555 1_555
C95 S7 1_555 1_555
C96 C86 1_555 1_555
C97 C96 1_555 1_555
C98 C87 1_555 1_555
C99 C94 1_555 1_555
H99 C99 1_555 1_555
H100 C99 1_555 1_555
C100 C88 1_555 1_555
C101 H101 1_555 1_555
C102 C90 1_555 1_555
H102 C102 1_555 1_555
H103 C102 1_555 1_555
C103 C95 1_555 1_555
H104 C103 1_555 1_555
H105 C103 1_555 1_555
C104 C85 1_555 1_555
H106 C104 1_555 1_555
C105 S8 1_555 1_555
C106 H107 1_555 1_555
H108 C106 1_555 1_555
H109 C106 1_555 1_555
C107 C102 1_555 1_555
H110 C107 1_555 1_555
H111 C107 1_555 1_555
C108 C106 1_555 1_555
H112 C108 1_555 1_555
H113 C108 1_555 1_555
C109 C90 1_555 1_555
H114 C109 1_555 1_555
H115 C109 1_555 1_555
C110 C92 1_555 1_555
C111 C93 1_555 1_555
H116 C111 1_555 1_555
H117 C111 1_555 1_555
C112 C111 1_555 1_555
H118 C112 1_555 1_555
H119 C112 1_555 1_555
H120 C112 1_555 1_555
C1 C5 1_555 1_555
C2 C11 1_555 1_555
C9 C17 1_555 1_555
C10 C12 1_555 1_555
C13 C16 1_555 1_555
C14 C19 1_555 1_555
C15 C16 1_555 1_555
C30 C46 1_555 1_555
C31 C37 1_555 1_555
C36 C49 1_555 1_555
C41 C42 1_555 1_555
C45 C46 1_555 1_555
C45 C52 1_555 1_555
C47 C50 1_555 1_555
C49 C51 1_555 1_555
C61 C72 1_555 1_555
C63 C70 1_555 1_555
C64 C70 1_555 1_555
C68 C73 1_555 1_555
C69 C79 1_555 1_555
C71 C77 1_555 1_555
C72 C77 1_555 1_555
C74 C75 1_555 1_555
C86 C91 1_555 1_555
C89 C95 1_555 1_555
C89 C98 1_555 1_555
C97 C104 1_555 1_555
C99 C103 1_555 1_555
C100 C110 1_555 1_555
C101 C105 1_555 1_555
C101 C110 1_555 1_555
C105 C109 1_555 1_555
C107 C108 1_555 1_555

#END
