
#######################################################################
#
#                 Cambridge Crystallographic Data Centre
#                                CCDC 
#
#######################################################################
#
# If this CIF has been generated from an entry in the Cambridge 
# Structural Database, then it will include bibliographic, chemical, 
# crystal, experimental, refinement or atomic coordinate data resulting 
# from the CCDC's data processing and validation procedures.
#
#######################################################################

data_BEDWEP
_chemical_formula_moiety         'C25 H34 O6,H2 O1'
_chemical_name_systematic        
'5,8,11-trihydroxy-2,7a,10,10,13a-pentamethyl-1,7a,8,9,9a,10,11,12,13,13a,13b,14-dodecahydro-2H,4H-benzo[a]pyrano[3,4-j]xanthen-4-one monohydrate'
_symmetry_cell_setting           orthorhombic
_symmetry_space_group_name_H-M   'P 21 21 21'
_symmetry_Int_Tables_number      19
_space_group_name_Hall           'P 2ac 2ab'
loop_
_symmetry_equiv_pos_site_id
_symmetry_equiv_pos_as_xyz
1 x,y,z
2 1/2-x,-y,1/2+z
3 1/2+x,1/2-y,-z
4 -x,1/2+y,1/2-z
_cell_length_a                   11.144(8)
_cell_length_b                   16.201(12)
_cell_length_c                   12.443(10)
_cell_angle_alpha                90
_cell_angle_beta                 90
_cell_angle_gamma                90
_cell_volume                     2246.51
_exptl_crystal_colour            colorless
_exptl_crystal_description       Prism
_cell_formula_units_Z            4
loop_
_atom_site_label
_atom_site_type_symbol
_atom_site_fract_x
_atom_site_fract_y
_atom_site_fract_z
O1 O 0.5528(3) 0.54487(18) 0.9195(2)
O2 O 0.6106(3) 0.43080(19) 0.8427(3)
O3 O 0.7897(3) 0.42844(17) 0.7109(3)
H1 H 0.7403 0.4090 0.7527
O4 O 0.9200(3) 0.67790(15) 0.5727(2)
O5 O 0.9275(4) 0.74732(19) 0.3872(2)
H2 H 0.9178 0.6989 0.4040
O6 O 0.8917(4) 1.15740(19) 0.5987(3)
H3 H 0.8344 1.1784 0.6297
C1 C 0.5877(5) 0.6291(2) 0.9500(3)
H4 H 0.6627 0.6271 0.9911
C2 C 0.6065(4) 0.6793(3) 0.8508(3)
H5 H 0.6355 0.7337 0.8706
H6 H 0.5307 0.6860 0.8136
C3 C 0.6952(4) 0.6388(2) 0.7775(3)
C4 C 0.7010(4) 0.5528(3) 0.7803(3)
C5 C 0.6207(4) 0.5053(3) 0.8475(4)
C6 C 0.7817(4) 0.5118(2) 0.7119(4)
C7 C 0.8530(4) 0.5558(3) 0.6453(4)
H7 H 0.9070 0.5288 0.6005
C8 C 0.8458(4) 0.6401(2) 0.6438(3)
C9 C 0.7655(4) 0.6839(2) 0.7071(3)
C10 C 0.7574(4) 0.7758(2) 0.6995(3)
H8 H 0.7989 0.8007 0.7599
H9 H 0.6740 0.7927 0.7023
C11 C 0.8135(3) 0.8054(2) 0.5949(3)
H10 H 0.7639 0.7802 0.5388
C12 C 0.9361(4) 0.7672(2) 0.5795(3)
C13 C 0.9867(4) 0.7889(2) 0.4706(3)
H11 H 1.0712 0.7723 0.4694
C14 C 0.9807(5) 0.8805(3) 0.4463(4)
H12 H 0.9324 0.8885 0.3823
H13 H 1.0610 0.9000 0.4303
C15 C 0.9289(3) 0.9333(2) 0.5360(3)
H14 H 0.9815 0.9229 0.5977
C16 C 0.8050(4) 0.9010(2) 0.5720(3)
C17 C 0.7669(5) 0.9490(3) 0.6688(4)
H15 H 0.8197 0.9354 0.7282
H16 H 0.6863 0.9325 0.6886
C18 C 0.7692(6) 1.0414(3) 0.6511(5)
H17 H 0.7104 1.0560 0.5968
H18 H 0.7470 1.0691 0.7174
C19 C 0.8910(5) 1.0709(3) 0.6161(4)
H19 H 0.9470 1.0595 0.6750
C20 C 0.9397(4) 1.0276(2) 0.5158(3)
C21 C 0.4893(4) 0.6600(3) 1.0206(4)
H20 H 0.4769 0.6219 1.0787
H21 H 0.4167 0.6649 0.9795
H22 H 0.5109 0.7130 1.0490
C22 C 1.0253(4) 0.7799(2) 0.6706(3)
H23 H 1.1023 0.7588 0.6497
H24 H 0.9979 0.7512 0.7335
H25 H 1.0320 0.8378 0.6861
C23 C 0.7074(4) 0.9096(3) 0.4845(5)
H26 H 0.6885 0.9669 0.4745
H27 H 0.6366 0.8804 0.5065
H28 H 0.7365 0.8869 0.4182
C24 C 0.8792(5) 1.0586(3) 0.4168(4)
H29 H 0.8926 1.0206 0.3589
H30 H 0.9115 1.1116 0.3980
H31 H 0.7946 1.0636 0.4297
C25 C 1.0721(4) 1.0501(3) 0.5097(5)
H32 H 1.0816 1.1082 0.5221
H33 H 1.1026 1.0364 0.4397
H34 H 1.1157 1.0198 0.5633
O7 O 0.8018(5) 0.7497(3) 0.1900(4)
H35 H 0.84(4) 0.79(2) 0.22(6)
H36 H 0.85(4) 0.71(3) 0.17(5)
loop_
_geom_bond_atom_site_label_1
_geom_bond_atom_site_label_2
_geom_bond_site_symmetry_1
_geom_bond_site_symmetry_2
O1 C1 1_555 1_555
O2 C5 1_555 1_555
O3 H1 1_555 1_555
O4 C8 1_555 1_555
O5 H2 1_555 1_555
O6 H3 1_555 1_555
C1 H4 1_555 1_555
C2 C1 1_555 1_555
H5 C2 1_555 1_555
H6 C2 1_555 1_555
C3 C2 1_555 1_555
C4 C3 1_555 1_555
C5 O1 1_555 1_555
C6 O3 1_555 1_555
C7 C6 1_555 1_555
H7 C7 1_555 1_555
C8 C7 1_555 1_555
C9 C3 1_555 1_555
C10 C9 1_555 1_555
H8 C10 1_555 1_555
H9 C10 1_555 1_555
C11 C10 1_555 1_555
H10 C11 1_555 1_555
C12 O4 1_555 1_555
C13 O5 1_555 1_555
H11 C13 1_555 1_555
C14 C13 1_555 1_555
H12 C14 1_555 1_555
H13 C14 1_555 1_555
C15 C14 1_555 1_555
H14 C15 1_555 1_555
C16 C11 1_555 1_555
C17 C16 1_555 1_555
H15 C17 1_555 1_555
H16 C17 1_555 1_555
C18 C17 1_555 1_555
H17 C18 1_555 1_555
H18 C18 1_555 1_555
C19 O6 1_555 1_555
H19 C19 1_555 1_555
C20 C15 1_555 1_555
C21 C1 1_555 1_555
H20 C21 1_555 1_555
H21 C21 1_555 1_555
H22 C21 1_555 1_555
C22 C12 1_555 1_555
H23 C22 1_555 1_555
H24 C22 1_555 1_555
H25 C22 1_555 1_555
C23 C16 1_555 1_555
H26 C23 1_555 1_555
H27 C23 1_555 1_555
H28 C23 1_555 1_555
C24 C20 1_555 1_555
H29 C24 1_555 1_555
H30 C24 1_555 1_555
H31 C24 1_555 1_555
C25 C20 1_555 1_555
H32 C25 1_555 1_555
H33 C25 1_555 1_555
H34 C25 1_555 1_555
O7 H35 1_555 1_555
H36 O7 1_555 1_555
C4 C5 1_555 1_555
C4 C6 1_555 1_555
C8 C9 1_555 1_555
C11 C12 1_555 1_555
C12 C13 1_555 1_555
C15 C16 1_555 1_555
C18 C19 1_555 1_555
C19 C20 1_555 1_555

#END
