
#######################################################################
#
#                 Cambridge Crystallographic Data Centre
#                                CCDC 
#
#######################################################################
#
# If this CIF has been generated from an entry in the Cambridge 
# Structural Database, then it will include bibliographic, chemical, 
# crystal, experimental, refinement or atomic coordinate data resulting 
# from the CCDC's data processing and validation procedures.
#
#######################################################################

data_BEDZIW
_chemical_formula_moiety         'C22 H30 O5,C1 H4 O1'
_chemical_name_systematic        
'9,11,17-trihydroxy-16-methylpregna-1,4-diene-3,20-dione methanol solvate'
_symmetry_cell_setting           orthorhombic
_symmetry_space_group_name_H-M   'P 21 21 21'
_symmetry_Int_Tables_number      19
_space_group_name_Hall           'P 2ac 2ab'
loop_
_symmetry_equiv_pos_site_id
_symmetry_equiv_pos_as_xyz
1 x,y,z
2 1/2-x,-y,1/2+z
3 -x,1/2+y,1/2-z
4 1/2+x,1/2-y,-z
_cell_length_a                   6.20927(10)
_cell_length_b                   13.8857(3)
_cell_length_c                   24.3529(4)
_cell_angle_alpha                90
_cell_angle_beta                 90
_cell_angle_gamma                90
_cell_volume                     2099.71
_exptl_crystal_colour            colorless
_cell_formula_units_Z            4
_exptl_crystal_recrystallization_method methanol
loop_
_atom_site_label
_atom_site_type_symbol
_atom_site_fract_x
_atom_site_fract_y
_atom_site_fract_z
O1 O 0.1873(3) 0.23529(12) 0.62076(6)
H1 H 0.2276 0.1807 0.6129
O2 O 0.2433(4) 0.49454(16) 0.51039(9)
H2 H 0.2358 0.5251 0.4816
O3 O 0.3266(4) 0.41580(19) 0.71856(9)
H3 H 0.2315 0.4341 0.7395
O4 O 0.0626(5) -0.0502(2) 0.72873(13)
O5 O 0.5827(6) 0.68036(19) 0.54219(15)
C1 C 0.5465(4) 0.29204(19) 0.61735(10)
H4 H 0.6649 0.3166 0.6400
C2 C 0.4534(5) 0.1133(2) 0.67652(11)
C3 C 0.5013(4) 0.36500(19) 0.57182(11)
H5 H 0.3772 0.3407 0.5512
C4 C 0.4318(5) 0.5219(2) 0.53941(12)
C5 C 0.3461(4) 0.2812(2) 0.65400(11)
C6 C 0.3875(5) 0.2086(2) 0.70214(11)
C7 C 0.3492(5) 0.0315(2) 0.68671(13)
H6 H 0.3991 -0.0249 0.6706
C8 C 0.6802(5) 0.3842(2) 0.53001(12)
H7 H 0.6705 0.3397 0.4994
H8 H 0.8209 0.3777 0.5469
C9 C 0.2225(4) 0.4510(2) 0.62431(13)
H9 H 0.1140 0.4315 0.5979
H10 H 0.1782 0.5123 0.6397
C10 C 0.6083(5) 0.5083(2) 0.63280(13)
H11 H 0.6281 0.4670 0.6640
H12 H 0.5615 0.5707 0.6449
H13 H 0.7420 0.5145 0.6133
C11 C 0.1615(5) 0.0266(3) 0.72186(13)
C12 C 0.4368(4) 0.46455(19) 0.59443(11)
C13 C 0.2320(4) 0.3758(2) 0.67058(12)
H14 H 0.0829 0.3592 0.6799
C14 C 0.0929(5) 0.1162(3) 0.74790(13)
H15 H -0.0226 0.1150 0.7722
C15 C 0.1912(5) 0.1991(3) 0.73779(12)
H16 H 0.1353 0.2546 0.7537
C16 C 0.4224(7) 0.6313(2) 0.54894(14)
C17 C 0.6138(5) 0.1947(2) 0.59375(12)
H17 H 0.7484 0.2023 0.5740
H18 H 0.5056 0.1735 0.5677
C18 C 0.5731(5) 0.2405(3) 0.74114(13)
H19 H 0.5892 0.1941 0.7701
H20 H 0.5395 0.3023 0.7567
H21 H 0.7050 0.2449 0.7207
C19 C 0.6422(5) 0.1173(2) 0.63786(13)
H22 H 0.6594 0.0551 0.6203
H23 H 0.7722 0.1305 0.6586
C20 C 0.6418(5) 0.4897(2) 0.51049(13)
H24 H 0.7594 0.5292 0.5251
C21 C 0.6433(7) 0.5007(3) 0.44878(15)
H25 H 0.5319 0.4614 0.4331
H26 H 0.7806 0.4807 0.4346
H27 H 0.6185 0.5669 0.4394
C22 C 0.2145(8) 0.6753(3) 0.5674(2)
H28 H 0.2121 0.6788 0.6067
H29 H 0.0965 0.6364 0.5549
H30 H 0.2016 0.7389 0.5523
O6 O 0.6827(7) 0.8666(2) 0.57590(13)
C23 C 0.7646(10) 0.8392(3) 0.62648(19)
H31 H 0.8259 0.7760 0.6237
H32 H 0.6508 0.8388 0.6532
H33 H 0.8739 0.8840 0.6376
H34 H 0.642(9) 0.820(4) 0.5567(18)
loop_
_geom_bond_atom_site_label_1
_geom_bond_atom_site_label_2
_geom_bond_site_symmetry_1
_geom_bond_site_symmetry_2
O1 H1 1_555 1_555
O2 H2 1_555 1_555
O3 H3 1_555 1_555
O4 C11 1_555 1_555
O5 C16 1_555 1_555
C1 H4 1_555 1_555
C2 C6 1_555 1_555
C3 C1 1_555 1_555
H5 C3 1_555 1_555
C4 O2 1_555 1_555
C5 O1 1_555 1_555
C6 C5 1_555 1_555
C7 C2 1_555 1_555
H6 C7 1_555 1_555
C8 C3 1_555 1_555
H7 C8 1_555 1_555
H8 C8 1_555 1_555
C9 H9 1_555 1_555
H10 C9 1_555 1_555
C10 H11 1_555 1_555
H12 C10 1_555 1_555
H13 C10 1_555 1_555
C11 C7 1_555 1_555
C12 C3 1_555 1_555
C13 O3 1_555 1_555
H14 C13 1_555 1_555
C14 C11 1_555 1_555
H15 C14 1_555 1_555
C15 C6 1_555 1_555
H16 C15 1_555 1_555
C16 C4 1_555 1_555
C17 C1 1_555 1_555
H17 C17 1_555 1_555
H18 C17 1_555 1_555
C18 C6 1_555 1_555
H19 C18 1_555 1_555
H20 C18 1_555 1_555
H21 C18 1_555 1_555
C19 C2 1_555 1_555
H22 C19 1_555 1_555
H23 C19 1_555 1_555
C20 C4 1_555 1_555
H24 C20 1_555 1_555
C21 C20 1_555 1_555
H25 C21 1_555 1_555
H26 C21 1_555 1_555
H27 C21 1_555 1_555
C22 C16 1_555 1_555
H28 C22 1_555 1_555
H29 C22 1_555 1_555
H30 C22 1_555 1_555
O6 C23 1_555 1_555
C23 H31 1_555 1_555
H32 C23 1_555 1_555
H33 C23 1_555 1_555
H34 O6 1_555 1_555
C1 C5 1_555 1_555
C4 C12 1_555 1_555
C5 C13 1_555 1_555
C8 C20 1_555 1_555
C9 C12 1_555 1_555
C9 C13 1_555 1_555
C10 C12 1_555 1_555
C14 C15 1_555 1_555
C17 C19 1_555 1_555

#END
