
#######################################################################
#
#                 Cambridge Crystallographic Data Centre
#                                CCDC 
#
#######################################################################
#
# If this CIF has been generated from an entry in the Cambridge 
# Structural Database, then it will include bibliographic, chemical, 
# crystal, experimental, refinement or atomic coordinate data resulting 
# from the CCDC's data processing and validation procedures.
#
#######################################################################

data_BEFPIO
_chemical_formula_moiety         'C17 H23 N1 O1'
_chemical_name_systematic        
2-((6-methylpyridin-2-yl)methyl)adamantan-2-ol
_symmetry_cell_setting           monoclinic
_symmetry_space_group_name_H-M   'P 21/n'
_symmetry_Int_Tables_number      14
_space_group_name_Hall           '-P 2yn'
loop_
_symmetry_equiv_pos_site_id
_symmetry_equiv_pos_as_xyz
1 x,y,z
2 1/2-x,1/2+y,1/2-z
3 -x,-y,-z
4 1/2+x,1/2-y,1/2+z
_cell_length_a                   6.6458(4)
_cell_length_b                   16.0538(9)
_cell_length_c                   13.3054(7)
_cell_angle_alpha                90
_cell_angle_beta                 91.152(5)
_cell_angle_gamma                90
_cell_volume                     1419.27
_cell_formula_units_Z            4
loop_
_atom_site_label
_atom_site_type_symbol
_atom_site_fract_x
_atom_site_fract_y
_atom_site_fract_z
C1 C 0.5571(2) 0.57880(10) 0.27226(11)
C2 C 0.7503(3) 0.63118(11) 0.28381(13)
H1 H 0.8655 0.5947 0.2767
H2 H 0.7532 0.6715 0.2295
C3 C 0.7716(3) 0.67692(10) 0.38219(13)
C4 C 0.9380(3) 0.66748(12) 0.44568(16)
H3 H 1.0416 0.6313 0.4293
C5 C 0.9465(3) 0.71284(12) 0.53331(16)
H4 H 1.0568 0.7076 0.5770
C6 C 0.7917(3) 0.76592(12) 0.55622(14)
H5 H 0.7961 0.7970 0.6152
C7 C 0.6291(3) 0.77236(11) 0.48994(13)
C8 C 0.4559(3) 0.82942(14) 0.50899(17)
H6 H 0.3319 0.8006 0.4954
H7 H 0.4644 0.8772 0.4659
H8 H 0.4605 0.8471 0.5779
C9 C 0.5336(2) 0.51337(11) 0.35570(12)
H9 H 0.5392 0.5410 0.4214
C10 C 0.7014(3) 0.44819(12) 0.35094(15)
H10 H 0.6860 0.4079 0.4046
H11 H 0.8312 0.4751 0.3599
C11 C 0.6916(3) 0.40378(12) 0.24910(16)
H12 H 0.7999 0.3625 0.2461
C12 C 0.7162(3) 0.46757(12) 0.16501(15)
H13 H 0.7094 0.4397 0.1003
H14 H 0.8466 0.4943 0.1718
C13 C 0.5496(3) 0.53308(11) 0.17041(12)
H15 H 0.5661 0.5736 0.1161
C14 C 0.3467(3) 0.48921(13) 0.15688(14)
H16 H 0.2388 0.5298 0.1592
H17 H 0.3401 0.4618 0.0919
C15 C 0.3306(3) 0.46903(12) 0.34230(14)
H18 H 0.3142 0.4286 0.3957
H19 H 0.2222 0.5093 0.3462
C16 C 0.3207(3) 0.42492(12) 0.24019(15)
H20 H 0.1898 0.3974 0.2316
C17 C 0.4879(3) 0.36003(12) 0.23548(17)
H21 H 0.4819 0.3316 0.1711
H22 H 0.4711 0.3189 0.2881
N1 N 0.6192(2) 0.72850(9) 0.40427(10)
O1 O 0.38780(19) 0.63443(8) 0.27228(10)
H23 H 0.4117 0.6735 0.3104
loop_
_geom_bond_atom_site_label_1
_geom_bond_atom_site_label_2
_geom_bond_site_symmetry_1
_geom_bond_site_symmetry_2
C1 C2 1_555 1_555
C2 H1 1_555 1_555
H2 C2 1_555 1_555
C3 C2 1_555 1_555
C4 C3 1_555 1_555
H3 C4 1_555 1_555
C5 C4 1_555 1_555
H4 C5 1_555 1_555
C6 C5 1_555 1_555
H5 C6 1_555 1_555
C7 C6 1_555 1_555
C8 C7 1_555 1_555
H6 C8 1_555 1_555
H7 C8 1_555 1_555
H8 C8 1_555 1_555
C9 C1 1_555 1_555
H9 C9 1_555 1_555
C10 C9 1_555 1_555
H10 C10 1_555 1_555
H11 C10 1_555 1_555
C11 C10 1_555 1_555
H12 C11 1_555 1_555
C12 C11 1_555 1_555
H13 C12 1_555 1_555
H14 C12 1_555 1_555
C13 C1 1_555 1_555
H15 C13 1_555 1_555
C14 C13 1_555 1_555
H16 C14 1_555 1_555
H17 C14 1_555 1_555
C15 C9 1_555 1_555
H18 C15 1_555 1_555
H19 C15 1_555 1_555
C16 C14 1_555 1_555
H20 C16 1_555 1_555
C17 C11 1_555 1_555
H21 C17 1_555 1_555
H22 C17 1_555 1_555
N1 C3 1_555 1_555
O1 C1 1_555 1_555
H23 O1 1_555 1_555
C7 N1 1_555 1_555
C12 C13 1_555 1_555
C15 C16 1_555 1_555
C16 C17 1_555 1_555

#END
