
#######################################################################
#
#                 Cambridge Crystallographic Data Centre
#                                CCDC 
#
#######################################################################
#
# If this CIF has been generated from an entry in the Cambridge 
# Structural Database, then it will include bibliographic, chemical, 
# crystal, experimental, refinement or atomic coordinate data resulting 
# from the CCDC's data processing and validation procedures.
#
#######################################################################

data_BEFVIU
_chemical_formula_moiety         'C23 H32 N3 O5 P1'
_chemical_name_systematic        
'N-(1,3-di-t-butyl-4,5-bis(hydroperoxy)imidazolidin-2-ylidene)-P,P-diphenylphosphinic amide'
_symmetry_cell_setting           triclinic
_symmetry_space_group_name_H-M   'P -1'
_symmetry_Int_Tables_number      2
_space_group_name_Hall           '-P 1'
loop_
_symmetry_equiv_pos_site_id
_symmetry_equiv_pos_as_xyz
1 x,y,z
2 -x,-y,-z
_cell_length_a                   9.4638(9)
_cell_length_b                   9.6106(9)
_cell_length_c                   14.0863(13)
_cell_angle_alpha                78.760(8)
_cell_angle_beta                 78.975(8)
_cell_angle_gamma                81.345(8)
_cell_volume                     1224.86
_exptl_crystal_colour            colorless
_exptl_crystal_description       plate
_cell_formula_units_Z            2
loop_
_atom_site_label
_atom_site_type_symbol
_atom_site_fract_x
_atom_site_fract_y
_atom_site_fract_z
P1 P 0.07592(9) 0.64746(8) 0.23211(5)
O1 O 0.0940(3) 0.7338(2) 0.30578(16)
C1 C 0.1300(3) 0.3543(3) 0.3054(2)
N1 N 0.0653(3) 0.2376(3) 0.29806(19)
N2 N 0.2305(3) 0.3077(3) 0.36666(19)
N3 N 0.0990(3) 0.4784(3) 0.25653(19)
O2 O 0.1561(3) 0.1417(3) 0.51110(19)
O3 O 0.2332(3) 0.0420(3) 0.2712(2)
O4 O 0.2941(3) -0.0970(3) 0.3218(3)
H1 H 0.2472 -0.1597 0.3170
C2 C 0.1960(4) 0.6978(3) 0.1174(2)
O5 O 0.0049(3) 0.2075(4) 0.5131(2)
H2 H -0.0284 0.2266 0.5678
C3 C -0.1046(4) 0.7001(3) 0.2029(2)
C4 C -0.2128(4) 0.7617(4) 0.2685(3)
H3 H -0.1908 0.7805 0.3260
C5 C 0.2751(4) 0.5996(4) 0.0620(2)
H4 H 0.2686 0.5025 0.0831
C6 C -0.1416(4) 0.6750(4) 0.1168(3)
H5 H -0.0709 0.6341 0.0715
C7 C 0.1350(4) 0.1080(4) 0.3477(3)
H6 H 0.0651 0.0445 0.3862
C8 C 0.3247(4) 0.3953(4) 0.3982(3)
C9 C -0.1058(4) 0.0914(4) 0.2652(3)
H7 H -0.0251 0.0240 0.2454
H8 H -0.1816 0.0916 0.2286
H9 H -0.1412 0.0649 0.3340
C10 C -0.0576(4) 0.2397(4) 0.2457(2)
C11 C -0.2816(5) 0.7100(4) 0.0984(3)
H10 H -0.3045 0.6928 0.0407
C12 C 0.2089(6) 0.8412(5) 0.0839(3)
H11 H 0.1569 0.9086 0.1205
C13 C -0.0064(5) 0.2821(4) 0.1359(2)
H12 H 0.0224 0.3765 0.1226
H13 H -0.0840 0.2807 0.1011
H14 H 0.0745 0.2158 0.1147
C14 C 0.2196(4) 0.1599(4) 0.4114(2)
H15 H 0.3171 0.1074 0.4054
C15 C -0.3531(4) 0.7957(5) 0.2495(3)
H16 H -0.4245 0.8361 0.2946
C16 C 0.4383(5) 0.2936(5) 0.4501(3)
H17 H 0.3905 0.2358 0.5071
H18 H 0.5016 0.3481 0.4695
H19 H 0.4939 0.2331 0.4061
C17 C -0.3883(5) 0.7705(5) 0.1649(3)
H20 H -0.4827 0.7937 0.1525
C18 C 0.2340(5) 0.4872(5) 0.4697(3)
H21 H 0.1589 0.5472 0.4389
H22 H 0.2948 0.5456 0.4879
H23 H 0.1911 0.4268 0.5272
C19 C -0.1853(4) 0.3428(4) 0.2841(3)
H24 H -0.2233 0.3054 0.3509
H25 H -0.2597 0.3537 0.2445
H26 H -0.1533 0.4339 0.2810
C20 C 0.4059(5) 0.4853(5) 0.3083(3)
H27 H 0.4545 0.4248 0.2624
H28 H 0.4760 0.5311 0.3285
H29 H 0.3383 0.5566 0.2779
C21 C 0.3644(5) 0.6467(5) -0.0254(3)
H30 H 0.4178 0.5804 -0.0624
C22 C 0.3748(5) 0.7877(6) -0.0573(3)
H31 H 0.4343 0.8179 -0.1161
C23 C 0.2974(7) 0.8852(5) -0.0026(3)
H32 H 0.3049 0.9820 -0.0241
loop_
_geom_bond_atom_site_label_1
_geom_bond_atom_site_label_2
_geom_bond_site_symmetry_1
_geom_bond_site_symmetry_2
P1 O1 1_555 1_555
C1 N1 1_555 1_555
N1 C7 1_555 1_555
N2 C1 1_555 1_555
N3 P1 1_555 1_555
O2 O5 1_555 1_555
O3 O4 1_555 1_555
O4 H1 1_555 1_555
C2 P1 1_555 1_555
O5 H2 1_555 1_555
C3 P1 1_555 1_555
C4 C3 1_555 1_555
H3 C4 1_555 1_555
C5 C2 1_555 1_555
H4 C5 1_555 1_555
C6 C3 1_555 1_555
H5 C6 1_555 1_555
C7 O3 1_555 1_555
H6 C7 1_555 1_555
C8 N2 1_555 1_555
C9 H7 1_555 1_555
H8 C9 1_555 1_555
H9 C9 1_555 1_555
C10 N1 1_555 1_555
C11 C6 1_555 1_555
H10 C11 1_555 1_555
C12 C2 1_555 1_555
H11 C12 1_555 1_555
C13 C10 1_555 1_555
H12 C13 1_555 1_555
H13 C13 1_555 1_555
H14 C13 1_555 1_555
C14 N2 1_555 1_555
H15 C14 1_555 1_555
C15 C4 1_555 1_555
H16 C15 1_555 1_555
C16 C8 1_555 1_555
H17 C16 1_555 1_555
H18 C16 1_555 1_555
H19 C16 1_555 1_555
C17 C11 1_555 1_555
H20 C17 1_555 1_555
C18 C8 1_555 1_555
H21 C18 1_555 1_555
H22 C18 1_555 1_555
H23 C18 1_555 1_555
C19 C10 1_555 1_555
H24 C19 1_555 1_555
H25 C19 1_555 1_555
H26 C19 1_555 1_555
C20 C8 1_555 1_555
H27 C20 1_555 1_555
H28 C20 1_555 1_555
H29 C20 1_555 1_555
C21 C5 1_555 1_555
H30 C21 1_555 1_555
C22 C21 1_555 1_555
H31 C22 1_555 1_555
C23 C12 1_555 1_555
H32 C23 1_555 1_555
C1 N3 1_555 1_555
O2 C14 1_555 1_555
C7 C14 1_555 1_555
C9 C10 1_555 1_555
C15 C17 1_555 1_555
C22 C23 1_555 1_555

#END
