
#######################################################################
#
#                 Cambridge Crystallographic Data Centre
#                                CCDC 
#
#######################################################################
#
# If this CIF has been generated from an entry in the Cambridge 
# Structural Database, then it will include bibliographic, chemical, 
# crystal, experimental, refinement or atomic coordinate data resulting 
# from the CCDC's data processing and validation procedures.
#
#######################################################################

data_BEGDIB01
_chemical_compound_source        'sponge Xestospongia exigua'
_chemical_name_common            1,3-Dimethylisoguanine
_chemical_formula_moiety         'C7 H9 N5 O1'
_chemical_name_systematic        6-amino-1,3-dimethyl-1H-purin-2(3H)-one
_symmetry_cell_setting           monoclinic
_symmetry_space_group_name_H-M   'P 21/c'
_symmetry_Int_Tables_number      14
_space_group_name_Hall           '-P 2ybc'
loop_
_symmetry_equiv_pos_site_id
_symmetry_equiv_pos_as_xyz
1 x,y,z
2 -x,1/2+y,1/2-z
3 -x,-y,-z
4 x,1/2-y,1/2+z
_cell_length_a                   8.9352(9)
_cell_length_b                   6.1050(6)
_cell_length_c                   14.678(2)
_cell_angle_alpha                90
_cell_angle_beta                 96.370(10)
_cell_angle_gamma                90
_cell_volume                     795.733
_exptl_crystal_colour            colorless
_exptl_crystal_description       prism
_chemical_melting_point          593-595K
_cell_formula_units_Z            4
_exptl_crystal_recrystallization_method Methanol/chloroform
loop_
_atom_site_label
_atom_site_type_symbol
_atom_site_fract_x
_atom_site_fract_y
_atom_site_fract_z
C1 C 0.1524(4) -0.0738(6) 0.6013(2)
C2 C 0.2709(4) 0.2391(6) 0.6739(2)
C3 C 0.3393(4) 0.2893(6) 0.5963(2)
C4 C 0.3145(4) 0.1618(6) 0.5181(2)
C5 C 0.3947(4) 0.5266(6) 0.6985(2)
H1 H 0.4357 0.6506 0.7284
C6 C 0.2011(4) -0.1688(6) 0.4459(2)
H2 H 0.1499 -0.0942 0.3939
H3 H 0.1415 -0.2909 0.4618
H4 H 0.2969 -0.2204 0.431
C7 C 0.1197(4) -0.0092(6) 0.7608(2)
H5 H 0.0119 -0.0168 0.7497
H6 H 0.148 0.0959 0.8082
H7 H 0.159 -0.1504 0.7795
N1 N 0.2239(3) -0.0183(5) 0.52332(17)
N2 N 0.1807(3) 0.0574(5) 0.67685(17)
N3 N 0.4217(3) 0.4795(5) 0.61344(18)
N4 N 0.3047(3) 0.3871(5) 0.74031(18)
N5 N 0.3733(4) 0.2020(7) 0.4410(2)
O1 O 0.0693(3) -0.2322(5) 0.60014(17)
H8 H 0.345(4) 0.141(7) 0.390(3)
H9 H 0.427(4) 0.322(7) 0.435(2)
loop_
_geom_bond_atom_site_label_1
_geom_bond_atom_site_label_2
_geom_bond_site_symmetry_1
_geom_bond_site_symmetry_2
C1 N1 1_555 1_555
C2 C3 1_555 1_555
C3 C4 1_555 1_555
C4 N1 1_555 1_555
C5 H1 1_555 1_555
C6 H2 1_555 1_555
H3 C6 1_555 1_555
H4 C6 1_555 1_555
C7 H5 1_555 1_555
H6 C7 1_555 1_555
H7 C7 1_555 1_555
N1 C6 1_555 1_555
N2 C1 1_555 1_555
N3 C3 1_555 1_555
N4 C2 1_555 1_555
N5 C4 1_555 1_555
O1 C1 1_555 1_555
H8 N5 1_555 1_555
H9 N5 1_555 1_555
C2 N2 1_555 1_555
C5 N3 1_555 1_555
C5 N4 1_555 1_555
C7 N2 1_555 1_555

#END
