
#######################################################################
#
#                 Cambridge Crystallographic Data Centre
#                                CCDC 
#
#######################################################################
#
# If this CIF has been generated from an entry in the Cambridge 
# Structural Database, then it will include bibliographic, chemical, 
# crystal, experimental, refinement or atomic coordinate data resulting 
# from the CCDC's data processing and validation procedures.
#
#######################################################################

data_BEGJAY10
_chemical_formula_moiety         
'0.87(C24 H40 O4),0.13(C32 H47 F1 O5),0.22(C8 H7 F1 O1)'
_chemical_name_systematic        
'Deoxycholic acid 5-(hydroxymethyl-p-fluorobenzyl)-deoxycholic acid p-fluoroacetophenone clathrate'
_symmetry_cell_setting           orthorhombic
_symmetry_space_group_name_H-M   'P 21 21 21'
_symmetry_Int_Tables_number      19
_space_group_name_Hall           'P 2ac 2ab'
loop_
_symmetry_equiv_pos_site_id
_symmetry_equiv_pos_as_xyz
1 x,y,z
2 1/2+x,1/2-y,-z
3 -x,1/2+y,1/2-z
4 1/2-x,-y,1/2+z
_cell_length_a                   25.155(7)
_cell_length_b                   13.679(6)
_cell_length_c                   7.135(2)
_cell_angle_alpha                90
_cell_angle_beta                 90
_cell_angle_gamma                90
_cell_volume                     2455.12
_cell_formula_units_Z            4
_exptl_crystal_preparation       'irradiated product'
loop_
_atom_site_label
_atom_site_type_symbol
_atom_site_fract_x
_atom_site_fract_y
_atom_site_fract_z
C9 C 0.1279(2) 0.2056(4) 0.3607(7)
C10 C 0.0723(7) 0.1757(4) 0.3021(7)
C11 C 0.0754(2) 0.1050(4) 0.1399(7)
C12 C 0.1057(2) 0.1491(4) -0.0221(7)
C13 C 0.1617(2) 0.1831(4) 0.0349(7)
C14 C 0.1903(3) 0.2300(5) -0.1345(13)
C15 C 0.1687(4) 0.3304(5) -0.1871(10)
C16 C 0.1660(3) 0.4002(4) -0.0200(13)
C17 C 0.1344(3) 0.3519(4) 0.1414(10)
C18 C 0.1604(2) 0.2544(4) 0.2039(7)
C19 C 0.1237(3) 0.4249(4) 0.2997(11)
C20 C 0.0981(3) 0.5207(4) 0.2351(12)
C21 C 0.1319(3) 0.5703(4) 0.0833(15)
C22 C 0.1389(4) 0.4957(4) -0.0771(13)
C23 C 0.1635(4) 0.5555(5) -0.2352(16)
C24 C 0.1355(4) 0.6557(5) -0.2195(19)
C25 C 0.1059(4) 0.6559(5) -0.0281(17)
C26 C 0.1850(4) 0.6033(5) 0.1688(21)
C27 C 0.2168(2) 0.2697(4) 0.2826(7)
C28 C 0.1054(3) 0.7597(5) 0.0606(11)
C29 C 0.0759(4) 0.7652(6) 0.2480(12)
C30 C 0.0825(3) 0.8363(5) -0.0791(13)
C31 C 0.0250(3) 0.8210(6) -0.1388(13)
C32 C 0.0085(3) 0.8997(5) -0.2729(11)
O2 O 0.0220(2) 0.0808(4) 0.0873(7)
O3 O 0.0455(3) 0.4999(5) 0.1657(10)
O4 O 0.0114(3) 0.9875(4) -0.2439(9)
O5 O -0.0109(2) 0.8677(3) -0.4317(8)
H13 H 0.1238 0.2456 0.4756
H14 H 0.1424 0.1436 0.3971
H15 H 0.0494 0.2296 0.2579
H16 H 0.0504 0.1421 0.3948
H17 H 0.0957 0.0396 0.1695
H18 H 0.1099 0.0993 -0.1158
H19 H 0.1811 0.1219 0.0776
H20 H 0.1878 0.1852 -0.2361
H21 H 0.2309 0.2379 -0.0939
H22 H 0.1920 0.3575 -0.2890
H23 H 0.1340 0.3236 -0.2404
H24 H 0.2038 0.4121 0.0301
H25 H 0.0992 0.3370 0.0819
H26 H 0.1024 0.4012 0.3855
H27 H 0.1594 0.4421 0.3529
H28 H 0.0961 0.5620 0.3305
H29 H 0.1053 0.4796 -0.1235
H30 H 0.2067 0.5572 -0.2237
H31 H 0.1585 0.5168 -0.3569
H32 H 0.1650 0.7016 -0.2142
H33 H 0.1120 0.6623 -0.3343
H34 H 0.0705 0.6346 -0.0574
H35 H 0.2077 0.6408 0.0829
H36 H 0.2089 0.5464 0.2023
H37 H 0.2418 0.3018 0.1932
H38 H 0.2318 0.2040 0.3142
H39 H 0.2172 0.3067 0.4028
H40 H 0.0252 0.0529 -0.0300
H41 H 0.0249 0.5204 0.2375
H42 H 0.1373 0.7798 0.0631
H43 H 0.0952 0.7367 0.3367
H44 H 0.0469 0.7447 0.2408
H45 H 0.0661 0.8281 0.3325
H46 H 0.1128 0.8389 -0.1726
H47 H 0.0818 0.9045 -0.0573
H48 H 0.0032 0.8336 -0.0288
H49 H 0.0163 0.7515 -0.2020
H50 H -0.0066 0.9084 -0.5866
H51 H 0.0968 0.2012 -0.0586
H52 H 0.1722 0.6443 0.3026
H1 H 0.1754 -0.0051 -0.1856
H2 H 0.2364 -0.0136 -0.0649
H3 H 0.1454 -0.1176 -0.4640
H4 H 0.2740 0.0546 -0.3134
H5 H 0.2258 -0.1281 -0.1168
F1 F 0.1845 -0.0431 -0.2018
C1 C 0.2322 -0.0112 -0.4226
C2 C 0.2538 0.0013 -0.2291
C3 C 0.2985 0.0598 -0.2047
C4 C 0.1803 -0.0730 -0.5274
C5 C 0.2033 -0.0286 -0.3736
C6 C 0.2478 0.0296 -0.3966
C7 C 0.2307 -0.0433 -0.0744
H6 H 0.3145 0.0909 -0.3162
H7 H 0.1477 -0.1160 -0.5148
H8 H 0.2642 0.0615 -0.2846
H9 H 0.1980 -0.0864 -0.0878
C8 C 0.1866 -0.0800 -0.4528
H10 H 0.1554 -0.0618 -0.3785
H11 H 0.3241 0.0799 -0.0869
H12 H 0.1979 -0.1491 -0.4179
O1 O 0.2526 0.0315 -0.5535
C6C C 0.2522 -0.0296 0.1034
O1C O 0.2474 -0.0315 -0.0535
C7C C 0.2693 0.0433 -0.5744
C4C C 0.3197 0.0730 -0.0274
H11C H 0.1759 -0.0799 -0.5869
C3C C 0.2015 -0.0598 -0.7047
H2C H 0.2636 0.0136 -0.5649
C1C C 0.2678 0.0112 0.0774
C8C C 0.3134 0.0800 0.0472
C2C C 0.2462 -0.0013 -0.7291
H53? H 0.7859 0.2018 -0.0790
H54? H 0.1806 0.6405 0.2702
C33? C 0.1271 0.2055 0.3724
C34? C 0.0750 0.1655 0.2994
C35? C 0.0849 0.0950 0.1417
C36? C 0.1180 0.1441 -0.0104
C37? C 0.1726 0.1840 0.0517
C38? C 0.1962 0.2410 -0.1152
C39? C 0.1661 0.3327 -0.1721
C40? C 0.1617 0.4033 -0.0079
C41? C 0.1343 0.3523 0.1568
C42? C 0.1632 0.2556 0.2249
C43? C 0.1249 0.4258 0.3170
C44? C 0.0970 0.5208 0.2595
C45? C 0.1267 0.5712 0.0985
C46? C 0.1311 0.4953 -0.0607
C47? C 0.1517 0.5551 -0.2250
C48? C 0.1238 0.6552 -0.2021
C49? C 0.0982 0.6569 -0.0044
C50? C 0.1813 0.6051 0.1677
C51? C 0.2149 0.2830 0.3274
O6? O 0.0348 0.0648 0.0656
O7? O 0.0433 0.4974 0.2122
C52? C 0.1054(3) 0.7597(5) 0.0606(11)
C53? C 0.0759(4) 0.7652(6) 0.2480(12)
C54? C 0.0825(3) 0.8363(5) -0.0791(13)
C55? C 0.0250(3) 0.8210(6) -0.1388(13)
C56? C 0.0085(3) 0.8997(5) -0.2729(11)
O8? O 0.0114(3) 0.9875(4) -0.2439(9)
O9? O -0.0109(2) 0.8677(3) -0.4317(8)
C57? C 0.2113(12) 0.0938(24) 0.0837(4)
O10? O 0.2653(15) 0.1208(35) 0.0457(59)
C58? C 0.1961(25) 0.0131(44) -0.0576(58)
C59? C 0.2092(18) 0.0471(33) 0.2821(44)
C60? C 0.1722(18) -0.0243(33) 0.3294(44)
C61? C 0.1729(18) -0.0660(33) 0.5063(44)
C62? C 0.2102(18) -0.0369(33) 0.6371(44)
C63? C 0.2472(18) 0.0341(33) 0.5912(44)
C64? C 0.2467(18) 0.0762(33) 0.4137(44)
F2? F 0.2105(18) -0.0736(33) 0.8087(44)
H55? H 0.1177 0.2542 0.4724
H56? H 0.1467 0.1497 0.4301
H57? H 0.0521 0.2201 0.2541
H58? H 0.0562 0.1302 0.4027
H59? H 0.1047 0.0364 0.1889
H60? H 0.1242 0.0973 -0.1119
H61? H 0.1965 0.1967 -0.2252
H62? H 0.2335 0.2601 -0.0820
H63? H 0.1302 0.3173 -0.2157
H64? H 0.1865 0.3671 -0.2746
H65? H 0.1993 0.4224 0.0323
H66? H 0.0982 0.3353 0.1111
H67? H 0.1597 0.4431 0.3780
H68? H 0.1020 0.3917 0.4169
H69? H 0.0946 0.5674 0.3685
H70? H 0.0938 0.4741 -0.0926
H71? H 0.1426 0.5244 -0.3463
H72? H 0.1916 0.5622 -0.2166
H73? H 0.1494 0.7054 -0.2052
H74? H 0.0939 0.6613 -0.3047
H75? H 0.0650 0.6300 -0.0356
H76? H 0.2007 0.6493 0.1181
H77? H 0.2039 0.5540 0.2345
H78? H 0.2443 0.3133 0.2209
H79? H 0.2365 0.2136 0.3378
H80? H 0.2181 0.3137 0.4282
H81? H 0.0376 0.0444 -0.0307
H82? H 0.0208 0.5086 0.2512
H83? H 0.1373 0.7798 0.0631
H84? H 0.0952 0.7367 0.3367
H85? H 0.0469 0.7447 0.2408
H86? H 0.0661 0.8281 0.3325
H87? H 0.1128 0.8389 -0.1726
H88? H 0.0818 0.9045 -0.0573
H89? H 0.0032 0.8336 -0.0288
H90? H 0.0163 0.7515 -0.2020
H91? H -0.0066 0.9084 -0.5866
H92? H 0.1760 -0.0205 0.0598
H93? H 0.1458 -0.0442 0.2342
F3? F 0.1936 -0.0597 0.5217
C65? C 0.2985 0.0492 -0.1389
C66? C 0.2716 0.0203 0.0384
C67? C 0.2175 0.0363 0.0564
C68? C 0.1911 0.0113 0.2202
C69? C 0.2185 -0.0316 0.3665
C70? C 0.2724 -0.0448 0.3502
C71? C 0.2991 -0.0230 0.1865
H94? H 0.1984 0.0679 -0.0491
H95? H 0.1516 0.0247 0.2282
H96? H 0.2919 -0.0799 0.4567
H97? H 0.3387 -0.0367 0.1798
C72? C 0.3576 0.0383 -0.1540
H98? H 0.3690 -0.0294 -0.1347
H99? H 0.3699 0.0589 -0.2804
H100? H 0.3756 0.0818 -0.0572
O11? O 0.2726 0.0840 -0.2665
loop_
_geom_bond_atom_site_label_1
_geom_bond_atom_site_label_2
_geom_bond_site_symmetry_1
_geom_bond_site_symmetry_2
H1 F1 1_555 1_555
H2 C2 1_555 1_555
H3 C4 1_555 1_555
H4 C2 1_555 1_555
H5 C7 1_555 1_555
F1 C5 1_555 1_555
C1 C2 1_555 1_555
C2 C3 1_555 1_555
C3 H4 1_555 1_555
C4 C1 1_555 1_555
C5 C1 1_555 1_555
C6 H4 1_555 1_555
C7 H2 1_555 1_555
H6 C3 1_555 1_555
H7 H3 1_555 1_555
H8 H4 1_555 1_555
H9 F1 1_555 1_555
C8 H3 1_555 1_555
H10 C4 1_555 1_555
H11 C3 1_555 1_555
H12 C8 1_555 1_555
O1 C1 1_555 1_555
C9 C10 1_555 1_555
C10 C11 1_555 1_555
C11 C12 1_555 1_555
C12 C13 1_555 1_555
C13 C14 1_555 1_555
C14 C15 1_555 1_555
C15 C16 1_555 1_555
C16 C17 1_555 1_555
C17 C18 1_555 1_555
C18 C9 1_555 1_555
C19 C17 1_555 1_555
C20 C19 1_555 1_555
C21 C20 1_555 1_555
C22 C16 1_555 1_555
C23 C22 1_555 1_555
C24 C23 1_555 1_555
C25 C21 1_555 1_555
C26 C21 1_555 1_555
C27 C18 1_555 1_555
C28 C25 1_555 1_555
C29 C28 1_555 1_555
C30 C28 1_555 1_555
C31 C30 1_555 1_555
C32 C31 1_555 1_555
O2 C11 1_555 1_555
O3 C20 1_555 1_555
O4 C32 1_555 1_555
O5 C32 1_555 1_555
H13 C9 1_555 1_555
H14 C9 1_555 1_555
H15 C10 1_555 1_555
H16 C10 1_555 1_555
H17 C11 1_555 1_555
H18 C12 1_555 1_555
H19 C13 1_555 1_555
H20 C14 1_555 1_555
H21 C14 1_555 1_555
H22 C15 1_555 1_555
H23 C15 1_555 1_555
H24 C16 1_555 1_555
H25 C17 1_555 1_555
H26 C19 1_555 1_555
H27 C19 1_555 1_555
H28 C20 1_555 1_555
H29 C22 1_555 1_555
H30 C23 1_555 1_555
H31 C23 1_555 1_555
H32 C24 1_555 1_555
H33 C24 1_555 1_555
H34 C25 1_555 1_555
H35 C26 1_555 1_555
H36 C26 1_555 1_555
H37 C27 1_555 1_555
H38 C27 1_555 1_555
H39 C27 1_555 1_555
H40 O2 1_555 1_555
H41 O3 1_555 1_555
H42 C28 1_555 1_555
H43 C29 1_555 1_555
H44 C29 1_555 1_555
H45 C29 1_555 1_555
H46 C30 1_555 1_555
H47 C30 1_555 1_555
H48 C31 1_555 1_555
H49 C31 1_555 1_555
H50 O5 1_555 1_555
H51 C12 1_555 1_555
H52 C26 1_555 1_555
C6C H2 1_555 1_555
O1C H2 1_555 1_555
C7C C1 1_555 1_555
C4C C3 1_555 1_555
H11C C4 1_555 1_555
C3C C4 1_555 1_555
H2C C6 1_555 1_555
C1C C7 1_555 1_555
C8C H11 1_555 1_555
C2C O1 1_555 1_555
F1 C7 1_555 1_555
C1 C6 1_555 1_555
C1 C8 1_555 1_555
C2 C5 1_555 1_555
C2 C6 1_555 1_555
C2 C7 1_555 1_555
C2 H8 1_555 1_555
C2 O1C 1_555 1_555
C3 H8 1_555 1_555
C4 C5 1_555 1_555
C4 H7 1_555 1_555
C4 C8 1_555 1_555
C5 C6 1_555 1_555
C5 C8 1_555 1_555
C5 H10 1_555 1_555
C6 H8 1_555 1_555
C6 O1 1_555 1_555
C6 C7C 1_555 1_555
C7 H9 1_555 1_555
C7 C6C 1_555 1_555
C7 O1C 1_555 1_555
H7 C8 1_555 1_555
C8 H10 1_555 1_555
C8 H11C 1_555 1_555
H11 C4C 1_555 1_555
O1 C7C 1_555 1_555
O1 H2C 1_555 1_555
C13 C18 1_555 1_555
C21 C22 1_555 1_555
C24 C25 1_555 1_555
C6C O1C 1_555 1_555
C6C C1C 1_555 1_555
O1C C1C 1_555 1_555
C7C H2C 1_555 1_555
C7C C2C 1_555 1_555
C4C C1C 1_555 1_555
C4C C8C 1_555 1_555
H11C C3C 1_555 1_555
C3C C2C 1_555 1_555
H2C C2C 1_555 1_555
C1C C8C 1_555 1_555

#END
