
#######################################################################
#
#                 Cambridge Crystallographic Data Centre
#                                CCDC 
#
#######################################################################
#
# If this CIF has been generated from an entry in the Cambridge 
# Structural Database, then it will include bibliographic, chemical, 
# crystal, experimental, refinement or atomic coordinate data resulting 
# from the CCDC's data processing and validation procedures.
#
#######################################################################

data_BEGVEQ
_chemical_formula_moiety         'C22 H17 F1 N2 O1'
_chemical_name_systematic        
9-Fluoro-4,4-dimethyl-2-phenyl-4,5-dihydropyrrolo[2,3,4-kl]acridin-1(2H)-one
_symmetry_cell_setting           monoclinic
_symmetry_space_group_name_H-M   'C 2/c'
_symmetry_Int_Tables_number      15
_space_group_name_Hall           '-C 2yn'
loop_
_symmetry_equiv_pos_site_id
_symmetry_equiv_pos_as_xyz
1 x,y,z
2 -x,y,1/2-z
3 1/2+x,1/2+y,z
4 1/2-x,1/2+y,1/2-z
5 -x,-y,-z
6 x,-y,1/2+z
7 1/2-x,1/2-y,-z
8 1/2+x,1/2-y,1/2+z
_cell_length_a                   21.500(5)
_cell_length_b                   9.8086(19)
_cell_length_c                   18.115(4)
_cell_angle_alpha                90
_cell_angle_beta                 116.131(4)
_cell_angle_gamma                90
_cell_volume                     3429.72
_exptl_crystal_colour            yellow
_exptl_crystal_description       block
_cell_formula_units_Z            8
loop_
_atom_site_label
_atom_site_type_symbol
_atom_site_fract_x
_atom_site_fract_y
_atom_site_fract_z
F1 F 0.53127(6) 0.34281(16) 0.15905(9)
O1 O 0.30738(7) 0.39339(14) 0.20429(9)
N1 N 0.21148(8) 0.24844(15) 0.14749(9)
N2 N 0.30765(8) 0.00076(16) 0.00825(10)
C1 C 0.19307(9) 0.13212(17) 0.09579(11)
C2 C 0.27712(10) 0.29709(18) 0.16104(11)
C3 C 0.30058(9) 0.20609(17) 0.11278(10)
C4 C 0.24980(9) 0.11270(17) 0.07511(11)
C5 C 0.36143(9) 0.19754(19) 0.10148(11)
C6 C 0.41963(10) 0.2828(2) 0.13962(12)
H1 H 0.4205 0.3521 0.1751
C7 C 0.47452(10) 0.2608(2) 0.12304(13)
C8 C 0.47664(11) 0.1592(3) 0.07102(14)
H2 H 0.5154 0.1485 0.0613
C9 C 0.42094(11) 0.0753(2) 0.03436(13)
H3 H 0.4220 0.0063 -0.0003
C10 C 0.36155(10) 0.09110(19) 0.04796(11)
C11 C 0.25262(10) 0.01199(18) 0.02192(11)
C12 C 0.18840(10) -0.07212(19) -0.02155(12)
H4 H 0.2017 -0.1625 -0.0311
H5 H 0.1603 -0.0314 -0.0748
C13 C 0.14370(10) -0.08592(19) 0.02596(12)
C14 C 0.14014(10) 0.04523(19) 0.06933(12)
H6 H 0.1011 0.0643 0.0772
C15 C 0.07067(11) -0.1301(2) -0.03501(14)
H7 H 0.0423 -0.1399 -0.0066
H8 H 0.0731 -0.2157 -0.0593
H9 H 0.0509 -0.0624 -0.0773
C16 C 0.17588(12) -0.1942(2) 0.09346(14)
H10 H 0.2231 -0.1704 0.1285
H11 H 0.1744 -0.2814 0.0687
H12 H 0.1502 -0.1985 0.1254
C17 C 0.17191(9) 0.30287(18) 0.18628(11)
C18 C 0.16234(11) 0.4427(2) 0.18577(12)
H13 H 0.1816 0.5000 0.1604
C19 C 0.12416(12) 0.4961(3) 0.22306(14)
H14 H 0.1179 0.5899 0.2233
C20 C 0.09531(13) 0.4118(3) 0.25994(16)
H15 H 0.0689 0.4484 0.2843
C21 C 0.10532(13) 0.2726(3) 0.26106(15)
H16 H 0.0857 0.2157 0.2862
C22 C 0.14450(11) 0.2174(2) 0.22485(13)
H17 H 0.1522 0.1239 0.2265
loop_
_geom_bond_atom_site_label_1
_geom_bond_atom_site_label_2
_geom_bond_site_symmetry_1
_geom_bond_site_symmetry_2
F1 C7 1_555 1_555
O1 C2 1_555 1_555
N1 C1 1_555 1_555
N2 C10 1_555 1_555
C1 C4 1_555 1_555
C2 N1 1_555 1_555
C3 C2 1_555 1_555
C4 C3 1_555 1_555
C5 C3 1_555 1_555
C6 C5 1_555 1_555
H1 C6 1_555 1_555
C7 C6 1_555 1_555
C8 C7 1_555 1_555
H2 C8 1_555 1_555
C9 C8 1_555 1_555
H3 C9 1_555 1_555
C10 C5 1_555 1_555
C11 N2 1_555 1_555
C12 C11 1_555 1_555
H4 C12 1_555 1_555
H5 C12 1_555 1_555
C13 C12 1_555 1_555
C14 C1 1_555 1_555
H6 C14 1_555 1_555
C15 C13 1_555 1_555
H7 C15 1_555 1_555
H8 C15 1_555 1_555
H9 C15 1_555 1_555
C16 C13 1_555 1_555
H10 C16 1_555 1_555
H11 C16 1_555 1_555
H12 C16 1_555 1_555
C17 N1 1_555 1_555
C18 C17 1_555 1_555
H13 C18 1_555 1_555
C19 C18 1_555 1_555
H14 C19 1_555 1_555
C20 C19 1_555 1_555
H15 C20 1_555 1_555
C21 C20 1_555 1_555
H16 C21 1_555 1_555
C22 C17 1_555 1_555
H17 C22 1_555 1_555
C4 C11 1_555 1_555
C9 C10 1_555 1_555
C13 C14 1_555 1_555
C21 C22 1_555 1_555

#END
