
#######################################################################
#
#                 Cambridge Crystallographic Data Centre
#                                CCDC 
#
#######################################################################
#
# If this CIF has been generated from an entry in the Cambridge 
# Structural Database, then it will include bibliographic, chemical, 
# crystal, experimental, refinement or atomic coordinate data resulting 
# from the CCDC's data processing and validation procedures.
#
#######################################################################

data_BEGWUG
_chemical_formula_moiety         'C70 H72 O12,2.5(C5 H5 N1),0.5(H2 O1)'
_chemical_name_systematic        
'4,12,32,56-Tetraphenyl-8,16,19,22,25,28,36,40,43,46,49,52-dodecaoxaoctacyclo[37.13.5^14,38^.1^2,30^.0^1,6^.0^10,15^.0^29,34^.0^39,54^]octapentaconta-1,3,5,10,12,14,29,31,33,38,54,56-dodecaene pyridine solvate hemihydrate'
_symmetry_cell_setting           triclinic
_symmetry_space_group_name_H-M   'P -1'
_symmetry_Int_Tables_number      2
_space_group_name_Hall           '-P 1'
loop_
_symmetry_equiv_pos_site_id
_symmetry_equiv_pos_as_xyz
1 x,y,z
2 -x,-y,-z
_cell_length_a                   14.3680(19)
_cell_length_b                   15.7789(11)
_cell_length_c                   16.356(2)
_cell_angle_alpha                87.615(7)
_cell_angle_beta                 78.031(4)
_cell_angle_gamma                80.234(7)
_cell_volume                     3574.83
_exptl_crystal_colour            colorless
_exptl_crystal_description       irregular
_cell_formula_units_Z            2
loop_
_atom_site_label
_atom_site_type_symbol
_atom_site_fract_x
_atom_site_fract_y
_atom_site_fract_z
O1 O 0.0090(2) 0.5829(2) 0.2160(2)
O2 O -0.1191(3) 0.4633(3) 0.1006(3)
O3 O -0.2663(3) 0.6136(2) 0.1953(2)
O4 O -0.2385(3) 0.7679(3) 0.2968(3)
O5 O -0.1169(3) 0.8954(2) 0.2687(2)
O6 O 0.1449(2) 0.9088(2) 0.0804(2)
O7 O 0.3440(3) 0.8951(2) 0.0929(2)
O8 O 0.4709(3) 0.7981(2) 0.1909(3)
O9 O 0.3307(3) 0.6956(2) 0.2739(3)
O10 O 0.1376(2) 0.6162(2) 0.4154(2)
O11 O 0.2112(2) 0.68656(19) 0.0459(2)
O12 O 0.0359(3) 0.8284(2) 0.4423(2)
C1 C -0.0523(4) 0.5245(4) 0.2054(4)
H1 H -0.1157 0.5412 0.2403
H2 H -0.0262 0.4670 0.2218
C2 C -0.0598(5) 0.5254(4) 0.1150(4)
H3 H -0.0882 0.5825 0.0996
H4 H 0.0041 0.5115 0.0803
C3 C -0.2177(5) 0.4965(4) 0.1003(4)
H5 H -0.2459 0.4519 0.0801
H6 H -0.2197 0.5437 0.0604
C4 C -0.2785(5) 0.5271(4) 0.1801(4)
H7 H -0.3456 0.5261 0.1791
H8 H -0.2612 0.4895 0.2249
C5 C -0.3149(5) 0.6447(4) 0.2754(4)
H9 H -0.2800 0.6177 0.3170
H10 H -0.3788 0.6290 0.2879
C6 C -0.3237(5) 0.7389(4) 0.2806(4)
H11 H -0.3373 0.7644 0.2285
H12 H -0.3782 0.7598 0.3248
C7 C -0.1676(4) 0.7700(3) 0.2249(4)
H13 H -0.1932 0.8062 0.1827
H14 H -0.1447 0.7125 0.2025
C8 C -0.0844(4) 0.8066(3) 0.2498(3)
H15 H -0.0661 0.7760 0.2982
H16 H -0.0286 0.8000 0.2041
C9 C 0.1864(4) 0.8619(3) 0.1464(3)
H17 H 0.2121 0.8029 0.1293
H18 H 0.1371 0.8610 0.1968
C10 C 0.2652(4) 0.9052(3) 0.1633(3)
H19 H 0.2412 0.9658 0.1735
H20 H 0.2868 0.8801 0.2126
C11 C 0.4277(5) 0.9225(4) 0.1093(4)
H21 H 0.4104 0.9559 0.1602
H22 H 0.4527 0.9592 0.0639
C12 C 0.5044(5) 0.8480(5) 0.1183(4)
H23 H 0.5196 0.8124 0.0688
H24 H 0.5625 0.8687 0.1242
C13 C 0.4724(5) 0.7104(4) 0.1755(4)
H25 H 0.5382 0.6826 0.1547
H26 H 0.4351 0.7054 0.1333
C14 C 0.4316(4) 0.6680(4) 0.2525(4)
H27 H 0.4451 0.6061 0.2449
H28 H 0.4613 0.6815 0.2974
C15 C 0.2876(4) 0.6503(3) 0.3451(4)
H29 H 0.3037 0.6690 0.3954
H30 H 0.3101 0.5889 0.3389
C16 C 0.1801(4) 0.6706(3) 0.3498(3)
H31 H 0.1562 0.7307 0.3629
H32 H 0.1647 0.6583 0.2970
C17 C 0.1350(4) 0.4976(3) 0.2737(3)
C18 C 0.1055(4) 0.5488(3) 0.2081(3)
C19 C 0.1721(4) 0.5732(3) 0.1403(3)
C20 C 0.2693(4) 0.5374(3) 0.1332(3)
H33 H 0.3140 0.5517 0.0871
C21 C 0.3007(4) 0.4817(3) 0.1925(3)
C22 C 0.2330(4) 0.4637(3) 0.2629(3)
H34 H 0.2541 0.4277 0.3042
C23 C 0.4037(4) 0.4385(3) 0.1823(3)
C24 C 0.4609(4) 0.4214(3) 0.1023(4)
H35 H 0.4354 0.4389 0.0553
C25 C 0.5554(4) 0.3784(3) 0.0927(4)
H36 H 0.5928 0.3672 0.0394
C26 C 0.5938(4) 0.3523(4) 0.1621(4)
H37 H 0.6568 0.3232 0.1558
C27 C 0.5385(4) 0.3695(4) 0.2404(4)
H38 H 0.5644 0.3520 0.2872
C28 C 0.4452(4) 0.4124(3) 0.2506(4)
H39 H 0.4092 0.4241 0.3043
C29 C 0.1369(4) 0.6374(3) 0.0780(4)
H40 H 0.1219 0.6077 0.0329
H41 H 0.0790 0.6749 0.1049
C30 C 0.1869(4) 0.7485(3) -0.0164(3)
H42 H 0.1900 0.7183 -0.0676
H43 H 0.2350 0.7861 -0.0279
C31 C 0.0874(4) 0.8036(3) 0.0079(3)
C32 C 0.0697(4) 0.8770(3) 0.0572(3)
C33 C -0.0237(4) 0.9233(3) 0.0789(3)
C34 C -0.0970(4) 0.8964(3) 0.0489(3)
H44 H -0.1589 0.9279 0.0627
C35 C -0.0818(4) 0.8239(3) -0.0014(3)
C36 C 0.0120(4) 0.7787(3) -0.0208(3)
H45 H 0.0244 0.7302 -0.0542
C37 C -0.1638(4) 0.7990(3) -0.0320(3)
C38 C -0.2385(4) 0.8597(4) -0.0489(3)
H46 H -0.2372 0.9178 -0.0426
C39 C -0.3161(4) 0.8348(4) -0.0752(4)
H47 H -0.3667 0.8764 -0.0850
C40 C -0.3188(5) 0.7497(4) -0.0868(4)
H48 H -0.3707 0.7337 -0.1047
C41 C -0.2435(5) 0.6881(4) -0.0714(4)
H49 H -0.2445 0.6302 -0.0794
C42 C -0.1672(5) 0.7118(3) -0.0445(3)
H50 H -0.1171 0.6698 -0.0343
C43 C -0.0478(4) 1.0039(3) 0.1321(3)
H51 H -0.0201 1.0493 0.0989
H52 H -0.1173 1.0213 0.1437
C44 C -0.0151(4) 0.9989(3) 0.2139(3)
C45 C -0.0471(4) 0.9443(3) 0.2790(3)
C46 C -0.0151(4) 0.9408(3) 0.3543(3)
C47 C 0.0489(4) 0.9943(3) 0.3636(3)
H53 H 0.0713 0.9918 0.4132
C48 C 0.0810(4) 1.0517(3) 0.3018(3)
C49 C 0.0480(4) 1.0528(3) 0.2264(3)
H54 H 0.0688 1.0904 0.1839
C50 C 0.1516(4) 1.1095(3) 0.3105(3)
C51 C 0.2244(4) 1.0846(3) 0.3534(3)
H55 H 0.2312 1.0301 0.3777
C52 C 0.2873(4) 1.1387(3) 0.3611(4)
H56 H 0.3363 1.1204 0.3902
C53 C 0.2786(5) 1.2209(4) 0.3257(4)
H57 H 0.3215 1.2575 0.3305
C54 C 0.2044(5) 1.2467(4) 0.2831(4)
H58 H 0.1970 1.3014 0.2594
C55 C 0.1418(4) 1.1923(3) 0.2757(3)
H59 H 0.0922 1.2106 0.2472
C56 C -0.0482(4) 0.8823(3) 0.4250(3)
H60 H -0.0820 0.9156 0.4740
H61 H -0.0916 0.8478 0.4095
C57 C 0.0157(4) 0.7625(3) 0.5046(3)
H62 H -0.0310 0.7884 0.5523
H63 H 0.0744 0.7389 0.5236
C58 C -0.0234(4) 0.6904(3) 0.4714(3)
C59 C 0.0381(4) 0.6220(3) 0.4267(3)
C60 C 0.0015(4) 0.5543(3) 0.3984(3)
C61 C -0.0982(4) 0.5560(3) 0.4194(3)
H64 H -0.1234 0.5102 0.4033
C62 C -0.1615(4) 0.6236(3) 0.4633(3)
C63 C -0.1206(4) 0.6905(3) 0.4879(3)
H65 H -0.1612 0.7368 0.5166
C64 C -0.2670(4) 0.6227(4) 0.4862(3)
C65 C -0.3332(5) 0.6989(4) 0.4882(4)
H66 H -0.3111 0.7510 0.4761
C66 C -0.4320(5) 0.6971(6) 0.5082(4)
H67 H -0.4757 0.7480 0.5088
C67 C -0.4654(5) 0.6193(6) 0.5275(4)
H68 H -0.5313 0.6178 0.5398
C68 C -0.4007(5) 0.5455(5) 0.5280(4)
H69 H -0.4228 0.4937 0.5428
C69 C -0.3029(4) 0.5465(4) 0.5071(3)
H70 H -0.2600 0.4952 0.5069
C70 C 0.0671(4) 0.4778(3) 0.3529(3)
H71 H 0.1052 0.4477 0.3910
H72 H 0.0271 0.4389 0.3394
N1 N -0.3148(5) 1.0006(4) 0.1549(4)
C71 C -0.3446(5) 1.0633(4) 0.1047(4)
H73 H -0.3101 1.0649 0.0500
C72 C -0.4213(5) 1.1241(4) 0.1286(5)
H74 H -0.4381 1.1677 0.0917
C73 C -0.4739(5) 1.1214(6) 0.2066(6)
H75 H -0.5296 1.1613 0.2240
C74 C -0.4429(6) 1.0575(6) 0.2606(5)
H76 H -0.4760 1.0549 0.3156
C75 C -0.3648(5) 1.0000(5) 0.2320(5)
H77 H -0.3445 0.9573 0.2684
N2 N -0.1565(4) 1.2249(3) 0.2409(3)
C76 C -0.2379(4) 1.2051(3) 0.2954(4)
H78 H -0.2633 1.1567 0.2863
C77 C -0.2815(3) 1.2577(4) 0.3636(3)
H79 H -0.3360 1.2444 0.4000
C78 C -0.2436(4) 1.3300(3) 0.3771(3)
H80 H -0.2727 1.3652 0.4227
C79 C -0.1621(4) 1.3498(3) 0.3226(4)
H81 H -0.1367 1.3983 0.3317
C80 C -0.1185(3) 1.2973(3) 0.2545(3)
H82 H -0.0640 1.3106 0.2180
O13 O -0.3401(7) 0.8905(6) 0.4131(6)
C81? C -0.3699(5) 1.1276(4) 0.5939(3)
C82? C -0.4170(3) 1.0764(5) 0.5545(6)
C83? C -0.3683(7) 1.0322(4) 0.4823(5)
C84? C -0.2726(7) 1.0392(4) 0.4494(3)
C85? C -0.2256(4) 1.0904(4) 0.4887(4)
C86? C -0.2742(5) 1.1346(3) 0.5610(4)
C87? C -0.4153(5) 1.1145(5) 0.5974(5)
C88? C -0.4090(4) 1.0662(5) 0.5267(6)
C89? C -0.3232(6) 1.0517(3) 0.4678(4)
C90? C -0.2437(4) 1.0855(4) 0.4796(4)
C91? C -0.2500(5) 1.1338(3) 0.5503(5)
C92? C -0.3358(7) 1.1482(4) 0.6092(3)
loop_
_geom_bond_atom_site_label_1
_geom_bond_atom_site_label_2
_geom_bond_site_symmetry_1
_geom_bond_site_symmetry_2
O1 C1 1_555 1_555
O2 C2 1_555 1_555
O3 C4 1_555 1_555
O4 C6 1_555 1_555
O5 C8 1_555 1_555
O6 C9 1_555 1_555
O7 C10 1_555 1_555
O8 C12 1_555 1_555
O9 C14 1_555 1_555
O10 C16 1_555 1_555
O11 C29 1_555 1_555
O12 C56 1_555 1_555
C1 H1 1_555 1_555
H2 C1 1_555 1_555
C2 C1 1_555 1_555
H3 C2 1_555 1_555
H4 C2 1_555 1_555
C3 O2 1_555 1_555
H5 C3 1_555 1_555
H6 C3 1_555 1_555
C4 C3 1_555 1_555
H7 C4 1_555 1_555
H8 C4 1_555 1_555
C5 O3 1_555 1_555
H9 C5 1_555 1_555
H10 C5 1_555 1_555
C6 C5 1_555 1_555
H11 C6 1_555 1_555
H12 C6 1_555 1_555
C7 O4 1_555 1_555
H13 C7 1_555 1_555
H14 C7 1_555 1_555
C8 C7 1_555 1_555
H15 C8 1_555 1_555
H16 C8 1_555 1_555
C9 H17 1_555 1_555
H18 C9 1_555 1_555
C10 C9 1_555 1_555
H19 C10 1_555 1_555
H20 C10 1_555 1_555
C11 O7 1_555 1_555
H21 C11 1_555 1_555
H22 C11 1_555 1_555
C12 C11 1_555 1_555
H23 C12 1_555 1_555
H24 C12 1_555 1_555
C13 O8 1_555 1_555
H25 C13 1_555 1_555
H26 C13 1_555 1_555
C14 C13 1_555 1_555
H27 C14 1_555 1_555
H28 C14 1_555 1_555
C15 O9 1_555 1_555
H29 C15 1_555 1_555
H30 C15 1_555 1_555
C16 C15 1_555 1_555
H31 C16 1_555 1_555
H32 C16 1_555 1_555
C17 C18 1_555 1_555
C18 O1 1_555 1_555
C19 C18 1_555 1_555
C20 C19 1_555 1_555
H33 C20 1_555 1_555
C21 C20 1_555 1_555
C22 C17 1_555 1_555
H34 C22 1_555 1_555
C23 C21 1_555 1_555
C24 C23 1_555 1_555
H35 C24 1_555 1_555
C25 C24 1_555 1_555
H36 C25 1_555 1_555
C26 C25 1_555 1_555
H37 C26 1_555 1_555
C27 C26 1_555 1_555
H38 C27 1_555 1_555
C28 C23 1_555 1_555
H39 C28 1_555 1_555
C29 C19 1_555 1_555
H40 C29 1_555 1_555
H41 C29 1_555 1_555
C30 O11 1_555 1_555
H42 C30 1_555 1_555
H43 C30 1_555 1_555
C31 C30 1_555 1_555
C32 O6 1_555 1_555
C33 C32 1_555 1_555
C34 C33 1_555 1_555
H44 C34 1_555 1_555
C35 C34 1_555 1_555
C36 C31 1_555 1_555
H45 C36 1_555 1_555
C37 C35 1_555 1_555
C38 C37 1_555 1_555
H46 C38 1_555 1_555
C39 C38 1_555 1_555
H47 C39 1_555 1_555
C40 C39 1_555 1_555
H48 C40 1_555 1_555
C41 C40 1_555 1_555
H49 C41 1_555 1_555
C42 C37 1_555 1_555
H50 C42 1_555 1_555
C43 C33 1_555 1_555
H51 C43 1_555 1_555
H52 C43 1_555 1_555
C44 C43 1_555 1_555
C45 O5 1_555 1_555
C46 C45 1_555 1_555
C47 C46 1_555 1_555
H53 C47 1_555 1_555
C48 C47 1_555 1_555
C49 C44 1_555 1_555
H54 C49 1_555 1_555
C50 C48 1_555 1_555
C51 C50 1_555 1_555
H55 C51 1_555 1_555
C52 C51 1_555 1_555
H56 C52 1_555 1_555
C53 C52 1_555 1_555
H57 C53 1_555 1_555
C54 C53 1_555 1_555
H58 C54 1_555 1_555
C55 C50 1_555 1_555
H59 C55 1_555 1_555
C56 C46 1_555 1_555
H60 C56 1_555 1_555
H61 C56 1_555 1_555
C57 O12 1_555 1_555
H62 C57 1_555 1_555
H63 C57 1_555 1_555
C58 C57 1_555 1_555
C59 O10 1_555 1_555
C60 C59 1_555 1_555
C61 C60 1_555 1_555
H64 C61 1_555 1_555
C62 C61 1_555 1_555
C63 C58 1_555 1_555
H65 C63 1_555 1_555
C64 C62 1_555 1_555
C65 C64 1_555 1_555
H66 C65 1_555 1_555
C66 C65 1_555 1_555
H67 C66 1_555 1_555
C67 C66 1_555 1_555
H68 C67 1_555 1_555
C68 C67 1_555 1_555
H69 C68 1_555 1_555
C69 C64 1_555 1_555
H70 C69 1_555 1_555
C70 C17 1_555 1_555
H71 C70 1_555 1_555
H72 C70 1_555 1_555
N1 C71 1_555 1_555
C71 H73 1_555 1_555
C72 C71 1_555 1_555
H74 C72 1_555 1_555
C73 C72 1_555 1_555
H75 C73 1_555 1_555
C74 C73 1_555 1_555
H76 C74 1_555 1_555
C75 N1 1_555 1_555
H77 C75 1_555 1_555
N2 C76 1_555 1_555
C76 H78 1_555 1_555
C77 C76 1_555 1_555
H79 C77 1_555 1_555
C78 C77 1_555 1_555
H80 C78 1_555 1_555
C79 C78 1_555 1_555
H81 C79 1_555 1_555
C80 N2 1_555 1_555
H82 C80 1_555 1_555
C21 C22 1_555 1_555
C27 C28 1_555 1_555
C31 C32 1_555 1_555
C35 C36 1_555 1_555
C41 C42 1_555 1_555
C44 C45 1_555 1_555
C48 C49 1_555 1_555
C54 C55 1_555 1_555
C58 C59 1_555 1_555
C60 C70 1_555 1_555
C62 C63 1_555 1_555
C68 C69 1_555 1_555
C74 C75 1_555 1_555
C79 C80 1_555 1_555

#END
