
#######################################################################
#
#                 Cambridge Crystallographic Data Centre
#                                CCDC 
#
#######################################################################
#
# If this CIF has been generated from an entry in the Cambridge 
# Structural Database, then it will include bibliographic, chemical, 
# crystal, experimental, refinement or atomic coordinate data resulting 
# from the CCDC's data processing and validation procedures.
#
#######################################################################

data_BEHLUY
_chemical_formula_moiety         'C15 H30 N3 O1 P1'
_chemical_name_systematic        "N,N',N''-tricyclopentylphosphoric triamide"
_symmetry_cell_setting           monoclinic
_symmetry_space_group_name_H-M   'P 21'
_symmetry_Int_Tables_number      4
_space_group_name_Hall           'P 2yb'
loop_
_symmetry_equiv_pos_site_id
_symmetry_equiv_pos_as_xyz
1 x,y,z
2 -x,1/2+y,-z
_cell_length_a                   10.971(9)
_cell_length_b                   7.513(5)
_cell_length_c                   11.147(8)
_cell_angle_alpha                90
_cell_angle_beta                 117.69(3)
_cell_angle_gamma                90
_cell_volume                     813.568
_exptl_crystal_colour            colorless
_exptl_crystal_description       blade
_cell_formula_units_Z            2
loop_
_atom_site_label
_atom_site_type_symbol
_atom_site_fract_x
_atom_site_fract_y
_atom_site_fract_z
P1 P 0.61573(8) 0.74919(9) 0.51405(7)
O1 O 0.4994(2) 0.7308(3) 0.54823(19)
N1 N 0.6573(3) 0.5510(3) 0.4856(3)
H1 H 0.596(3) 0.476(4) 0.483(3)
N2 N 0.7536(3) 0.8465(4) 0.6342(3)
H2 H 0.763(4) 0.953(3) 0.611(4)
N3 N 0.5924(3) 0.8805(4) 0.3858(2)
H3 H 0.566(4) 0.990(3) 0.389(4)
C1 C 0.7850(4) 0.4956(4) 0.4896(3)
H4 H 0.8405 0.6034 0.4945
C2 C 0.8708(4) 0.3735(5) 0.6092(3)
H5 H 0.9252 0.4438 0.6923
H6 H 0.8110 0.2898 0.6265
C3 C 0.9649(4) 0.2735(5) 0.5661(3)
H7 H 1.0511 0.3409 0.5921
H8 H 0.9885 0.1549 0.6097
C4 C 0.8856(5) 0.2548(9) 0.4142(4)
H9 H 0.8527 0.1310 0.3895
H10 H 0.9452 0.2848 0.3723
C5 C 0.7634(4) 0.3828(5) 0.3645(3)
H11 H 0.6758 0.3160 0.3289
H12 H 0.7612 0.4604 0.2917
C6 C 0.8067(4) 0.8019(4) 0.7774(3)
H13 H 0.7924 0.6717 0.7845
C7 C 0.9612(4) 0.8415(5) 0.8592(3)
H14 H 0.9847 0.9547 0.8294
H15 H 1.0165 0.7445 0.8486
C8 C 0.9881(4) 0.8549(4) 1.0091(3)
H16 H 1.0411 0.7505 1.0617
H17 H 1.0408 0.9642 1.0522
C9 C 0.8450(4) 0.8604(5) 1.0041(3)
H18 H 0.8226 0.7442 1.0308
H19 H 0.8418 0.9537 1.0654
C10 C 0.7442(4) 0.9036(4) 0.8555(3)
H20 H 0.6503 0.8604 0.8311
H21 H 0.7407 1.0331 0.8380
C11 C 0.5258(4) 0.8203(4) 0.2435(3)
H22 H 0.5173 0.6876 0.2417
C12 C 0.3827(4) 0.9008(4) 0.1572(3)
H23 H 0.3830 1.0309 0.1717
H24 H 0.3130 0.8446 0.1778
C13 C 0.3553(4) 0.8580(5) 0.0113(3)
H25 H 0.2933 0.9480 -0.0530
H26 H 0.3122 0.7392 -0.0167
C14 C 0.4972(4) 0.8615(4) 0.0143(3)
H27 H 0.5048 0.9657 -0.0363
H28 H 0.5116 0.7519 -0.0268
C15 C 0.6040(4) 0.8739(5) 0.1655(3)
H29 H 0.6820 0.7919 0.1863
H30 H 0.6400 0.9967 0.1891
loop_
_geom_bond_atom_site_label_1
_geom_bond_atom_site_label_2
_geom_bond_site_symmetry_1
_geom_bond_site_symmetry_2
P1 O1 1_555 1_555
N1 P1 1_555 1_555
H1 N1 1_555 1_555
N2 P1 1_555 1_555
H2 N2 1_555 1_555
N3 P1 1_555 1_555
H3 N3 1_555 1_555
C1 N1 1_555 1_555
H4 C1 1_555 1_555
C2 C1 1_555 1_555
H5 C2 1_555 1_555
H6 C2 1_555 1_555
C3 C2 1_555 1_555
H7 C3 1_555 1_555
H8 C3 1_555 1_555
C4 C3 1_555 1_555
H9 C4 1_555 1_555
H10 C4 1_555 1_555
C5 C1 1_555 1_555
H11 C5 1_555 1_555
H12 C5 1_555 1_555
C6 N2 1_555 1_555
H13 C6 1_555 1_555
C7 C6 1_555 1_555
H14 C7 1_555 1_555
H15 C7 1_555 1_555
C8 C7 1_555 1_555
H16 C8 1_555 1_555
H17 C8 1_555 1_555
C9 C8 1_555 1_555
H18 C9 1_555 1_555
H19 C9 1_555 1_555
C10 C6 1_555 1_555
H20 C10 1_555 1_555
H21 C10 1_555 1_555
C11 N3 1_555 1_555
H22 C11 1_555 1_555
C12 C11 1_555 1_555
H23 C12 1_555 1_555
H24 C12 1_555 1_555
C13 C12 1_555 1_555
H25 C13 1_555 1_555
H26 C13 1_555 1_555
C14 C13 1_555 1_555
H27 C14 1_555 1_555
H28 C14 1_555 1_555
C15 C11 1_555 1_555
H29 C15 1_555 1_555
H30 C15 1_555 1_555
C4 C5 1_555 1_555
C9 C10 1_555 1_555
C14 C15 1_555 1_555

#END
