
#######################################################################
#
#                 Cambridge Crystallographic Data Centre
#                                CCDC 
#
#######################################################################
#
# If this CIF has been generated from an entry in the Cambridge 
# Structural Database, then it will include bibliographic, chemical, 
# crystal, experimental, refinement or atomic coordinate data resulting 
# from the CCDC's data processing and validation procedures.
#
#######################################################################

data_BEJBAU
_chemical_formula_moiety         'C32 H24 N2 O3 S1'
_chemical_name_systematic        
2-(2a-p-Tolyl-4-phenyl-1-oxo-2,2a,3,4-tetrahydro-1H-azeto(2,1-d)benzothiazepin-2-yl)-1H-isoindole-1,3(2H)-dione
_symmetry_cell_setting           monoclinic
_symmetry_space_group_name_H-M   'C 2/c'
_symmetry_Int_Tables_number      15
_space_group_name_Hall           '-C 2yn'
loop_
_symmetry_equiv_pos_site_id
_symmetry_equiv_pos_as_xyz
1 x,y,z
2 -x,y,1/2-z
3 1/2+x,1/2+y,z
4 1/2-x,1/2+y,1/2-z
5 -x,-y,-z
6 x,-y,1/2+z
7 1/2-x,1/2-y,-z
8 1/2+x,1/2-y,1/2+z
_cell_length_a                   25.470(6)
_cell_length_b                   11.070(3)
_cell_length_c                   23.003(5)
_cell_angle_alpha                90
_cell_angle_beta                 110.352(5)
_cell_angle_gamma                90
_cell_volume                     6080.88
_chemical_melting_point          '142-144 deg.C'
_cell_formula_units_Z            8
_exptl_crystal_preparation       'irradiated product'
loop_
_atom_site_label
_atom_site_type_symbol
_atom_site_fract_x
_atom_site_fract_y
_atom_site_fract_z
S1 S 0.0928(1) 1.1756(1) 0.2808(1)
O1 O 0.2546(1) 0.8902(3) 0.3132(1)
O2 O 0.2066(1) 0.7496(2) 0.1871(1)
O3 O 0.2969(1) 1.0723(3) 0.1416(1)
N1 N 0.1674(1) 0.9723(3) 0.2532(1)
N2 N 0.2455(1) 0.9307(3) 0.1722(1)
C1 C 0.0921(1) 1.0193(3) 0.2929(2)
C2 C 0.0561(2) 0.9769(4) 0.3225(2)
C3 C 0.0588(2) 0.8600(4) 0.3428(2)
C4 C 0.0964(2) 0.7810(4) 0.3327(2)
C5 C 0.1309(2) 0.8179(4) 0.3020(2)
C6 C 0.1290(1) 0.9370(3) 0.2826(2)
C7 C 0.2228(2) 0.9433(3) 0.2693(2)
C8 C 0.2278(1) 1.0075(3) 0.2127(2)
C9 C 0.1630(1) 1.0381(3) 0.1952(2)
C10 C 0.2339(2) 0.8072(4) 0.1633(2)
C11 C 0.2808(2) 0.9699(4) 0.1409(2)
C12 C 0.2907(2) 0.8618(4) 0.1083(2)
C13 C 0.2632(2) 0.7654(4) 0.1217(2)
C14 C 0.2671(2) 0.6515(4) 0.0990(2)
C15 C 0.3003(2) 0.6387(5) 0.0623(2)
C16 C 0.3280(2) 0.7359(6) 0.0495(2)
C17 C 0.3239(2) 0.8493(4) 0.0718(2)
C18 C 0.1257(1) 0.9817(3) 0.1349(2)
C19 C 0.0885(2) 0.8885(3) 0.1309(2)
C20 C 0.0557(2) 0.8432(4) 0.0741(2)
C21 C 0.0585(2) 0.8879(4) 0.0195(2)
C22 C 0.0966(2) 0.9796(4) 0.0239(2)
C23 C 0.1294(2) 1.0247(4) 0.0795(2)
C24 C 0.0217(2) 0.8365(5) -0.0426(2)
C25 C 0.1519(1) 1.1724(3) 0.1984(2)
C26 C 0.0950(1) 1.2020(3) 0.2035(2)
C27 C 0.0773(1) 1.3323(3) 0.1914(2)
C28 C 0.0218(2) 1.3620(4) 0.1800(2)
C29 C 0.0049(2) 1.4818(4) 0.1746(2)
C30 C 0.0402(2) 1.5723(4) 0.1788(2)
C31 C 0.0967(2) 1.5439(4) 0.1890(2)
C32 C 0.1148(2) 1.4246(4) 0.1956(2)
loop_
_geom_bond_atom_site_label_1
_geom_bond_atom_site_label_2
_geom_bond_site_symmetry_1
_geom_bond_site_symmetry_2
S1 C1 1_555 1_555
O1 C7 1_555 1_555
O2 C10 1_555 1_555
O3 C11 1_555 1_555
N1 C6 1_555 1_555
N2 C8 1_555 1_555
C1 C2 1_555 1_555
C2 C3 1_555 1_555
C3 C4 1_555 1_555
C4 C5 1_555 1_555
C5 C6 1_555 1_555
C6 C1 1_555 1_555
C7 N1 1_555 1_555
C8 C7 1_555 1_555
C9 N1 1_555 1_555
C10 N2 1_555 1_555
C11 N2 1_555 1_555
C12 C11 1_555 1_555
C13 C10 1_555 1_555
C14 C13 1_555 1_555
C15 C14 1_555 1_555
C16 C15 1_555 1_555
C17 C12 1_555 1_555
C18 C9 1_555 1_555
C19 C18 1_555 1_555
C20 C19 1_555 1_555
C21 C20 1_555 1_555
C22 C21 1_555 1_555
C23 C18 1_555 1_555
C24 C21 1_555 1_555
C25 C9 1_555 1_555
C26 S1 1_555 1_555
C27 C26 1_555 1_555
C28 C27 1_555 1_555
C29 C28 1_555 1_555
C30 C29 1_555 1_555
C31 C30 1_555 1_555
C32 C27 1_555 1_555
C8 C9 1_555 1_555
C12 C13 1_555 1_555
C16 C17 1_555 1_555
C22 C23 1_555 1_555
C25 C26 1_555 1_555
C31 C32 1_555 1_555

#END
