
#######################################################################
#
#                 Cambridge Crystallographic Data Centre
#                                CCDC 
#
#######################################################################
#
# If this CIF has been generated from an entry in the Cambridge 
# Structural Database, then it will include bibliographic, chemical, 
# crystal, experimental, refinement or atomic coordinate data resulting 
# from the CCDC's data processing and validation procedures.
#
#######################################################################

data_BEJCUP
_chemical_formula_moiety         'C18 H16 N2 O3'
_chemical_name_systematic        
4-(4-Hydroxy-3-methoxybenzylidene)-3-methyl-1-phenyl-5-pyrazolone
_symmetry_cell_setting           monoclinic
_symmetry_space_group_name_H-M   'P 21/c'
_symmetry_Int_Tables_number      14
_space_group_name_Hall           '-P 2ybc'
loop_
_symmetry_equiv_pos_site_id
_symmetry_equiv_pos_as_xyz
1 x,y,z
2 -x,1/2+y,1/2-z
3 -x,-y,-z
4 x,1/2-y,1/2+z
_cell_length_a                   21.101(4)
_cell_length_b                   7.984(1)
_cell_length_c                   20.076(3)
_cell_angle_alpha                90
_cell_angle_beta                 115.81(1)
_cell_angle_gamma                90
_cell_volume                     3044.81
_chemical_melting_point          '165-166 deg.C'
_cell_formula_units_Z            8
_exptl_crystal_preparation       'irradiated product'
loop_
_atom_site_label
_atom_site_type_symbol
_atom_site_fract_x
_atom_site_fract_y
_atom_site_fract_z
O1 O 0.0643(1) 0.8472(2) 0.1355(1)
O2 O -0.1582(1) 1.2711(2) 0.2155(1)
O3 O -0.0356(1) 1.1158(2) 0.2665(1)
N1 N 0.0662(1) 0.7140(2) 0.0343(1)
N2 N 0.0199(1) 0.6786(2) -0.0402(1)
C1 C 0.1508(1) 0.5269(3) 0.0227(1)
C2 C 0.2178(1) 0.4632(3) 0.0480(1)
C3 C 0.2711(1) 0.5268(3) 0.1108(1)
C4 C 0.2567(1) 0.6520(3) 0.1486(1)
C9 C 0.1898(1) 0.7162(3) 0.1250(1)
C10 C 0.1361(1) 0.6524(3) 0.0614(1)
C11 C 0.0343(1) 0.8021(3) 0.0701(1)
C12 C -0.0383(1) 0.8277(3) 0.0133(1)
C13 C -0.0397(1) 0.7466(3) -0.0521(1)
C14 C -0.0992(1) 0.7377(3) -0.1276(1)
C15 C -0.0952(1) 0.9061(3) 0.0145(1)
C16 C -0.1088(1) 0.9939(3) 0.0695(1)
C17 C -0.1739(1) 1.0744(3) 0.0467(1)
C18 C -0.1897(1) 1.1673(3) 0.0955(1)
C19 C -0.1418(1) 1.1799(3) 0.1683(1)
C20 C -0.0774(1) 1.0962(3) 0.1927(1)
C21 C -0.0605(1) 1.0060(3) 0.1446(1)
C22 C 0.0315(1) 1.0433(3) 0.2974(1)
O4 O 0.4303(1) 0.3359(2) 0.0737(1)
O5 O 0.6616(1) 0.6569(2) 0.3830(1)
O6 O 0.5293(1) 0.5626(2) 0.3037(1)
N3 N 0.4269(1) 0.2327(2) -0.0349(1)
N4 N 0.4739(1) 0.1901(2) -0.0651(1)
C5 C 0.3300(1) 0.1121(3) -0.1407(1)
C6 C 0.2590(1) 0.1061(3) -0.1883(1)
C7 C 0.2118(1) 0.2040(3) -0.1766(1)
C8 C 0.2351(1) 0.3092(3) -0.1171(1)
C23 C 0.3057(1) 0.3172(3) -0.0685(1)
C24 C 0.3533(1) 0.2196(3) -0.0812(1)
C25 C 0.4605(1) 0.2958(3) 0.0355(1)
C26 C 0.5356(1) 0.2981(3) 0.0509(1)
C27 C 0.5362(1) 0.2288(3) -0.0156(1)
C28 C 0.5986(1) 0.2013(3) -0.0312(1)
C29 C 0.5941(1) 0.3563(3) 0.1094(1)
C30 C 0.6080(1) 0.4337(3) 0.1792(1)
C31 C 0.6764(1) 0.4878(3) 0.2232(1)
C32 C 0.6934(1) 0.5639(3) 0.2905(1)
C33 C 0.6430(1) 0.5855(3) 0.3159(1)
C34 C 0.5744(1) 0.5329(3) 0.2725(1)
C35 C 0.5565(1) 0.4588(3) 0.2051(1)
C36 C 0.4578(1) 0.5176(3) 0.2628(1)
loop_
_geom_bond_atom_site_label_1
_geom_bond_atom_site_label_2
_geom_bond_site_symmetry_1
_geom_bond_site_symmetry_2
O1 C11 1_555 1_555
O2 C19 1_555 1_555
O3 C20 1_555 1_555
N1 N2 1_555 1_555
N2 C13 1_555 1_555
C1 C2 1_555 1_555
C2 C3 1_555 1_555
C3 C4 1_555 1_555
C4 C9 1_555 1_555
O4 C25 1_555 1_555
O5 C33 1_555 1_555
O6 C34 1_555 1_555
N3 N4 1_555 1_555
N4 C27 1_555 1_555
C5 C6 1_555 1_555
C6 C7 1_555 1_555
C7 C8 1_555 1_555
C8 C23 1_555 1_555
C9 C10 1_555 1_555
C10 N1 1_555 1_555
C11 N1 1_555 1_555
C12 C11 1_555 1_555
C13 C12 1_555 1_555
C14 C13 1_555 1_555
C15 C12 1_555 1_555
C16 C15 1_555 1_555
C17 C16 1_555 1_555
C18 C17 1_555 1_555
C19 C18 1_555 1_555
C20 C19 1_555 1_555
C21 C16 1_555 1_555
C22 O3 1_555 1_555
C23 C24 1_555 1_555
C24 N3 1_555 1_555
C25 N3 1_555 1_555
C26 C25 1_555 1_555
C27 C26 1_555 1_555
C28 C27 1_555 1_555
C29 C26 1_555 1_555
C30 C29 1_555 1_555
C31 C30 1_555 1_555
C32 C31 1_555 1_555
C33 C32 1_555 1_555
C34 C33 1_555 1_555
C35 C30 1_555 1_555
C36 O6 1_555 1_555
C1 C10 1_555 1_555
C5 C24 1_555 1_555
C20 C21 1_555 1_555
C34 C35 1_555 1_555

#END
