
#######################################################################
#
#                 Cambridge Crystallographic Data Centre
#                                CCDC 
#
#######################################################################
#
# If this CIF has been generated from an entry in the Cambridge 
# Structural Database, then it will include bibliographic, chemical, 
# crystal, experimental, refinement or atomic coordinate data resulting 
# from the CCDC's data processing and validation procedures.
#
#######################################################################

data_BEJLAG
_chemical_formula_moiety         'C6 H16 N1 1+,C2 H1 O4 1-'
_chemical_name_systematic        'dipropylammonium hydrogen oxalate'
_symmetry_cell_setting           monoclinic
_symmetry_space_group_name_H-M   'P 21/c'
_symmetry_Int_Tables_number      14
_space_group_name_Hall           '-P 2ybc'
loop_
_symmetry_equiv_pos_site_id
_symmetry_equiv_pos_as_xyz
1 x,y,z
2 -x,1/2+y,1/2-z
3 -x,-y,-z
4 x,1/2-y,1/2+z
_cell_length_a                   5.586(3)
_cell_length_b                   14.095(6)
_cell_length_c                   13.318(6)
_cell_angle_alpha                90
_cell_angle_beta                 106.785(11)
_cell_angle_gamma                90
_cell_volume                     1003.91
_exptl_crystal_colour            colorless
_exptl_crystal_description       block
_cell_formula_units_Z            4
loop_
_atom_site_label
_atom_site_type_symbol
_atom_site_fract_x
_atom_site_fract_y
_atom_site_fract_z
N1 N 0.7590(5) 0.35945(18) 0.2419(2)
H1 H 0.8570 0.3071 0.2421
H2 H 0.8546 0.4126 0.2420
C1 C 0.5419(6) 0.3590(2) 0.1452(3)
H3 H 0.4552 0.4209 0.1386
H4 H 0.4223 0.3092 0.1518
C2 C 0.6195(7) 0.3408(3) 0.0467(3)
H5 H 0.4679 0.3400 -0.0143
H6 H 0.6975 0.2773 0.0519
C3 C 0.8027(7) 0.4142(3) 0.0265(3)
H7 H 0.8226 0.4041 -0.0434
H8 H 0.9652 0.4072 0.0794
H9 H 0.7376 0.4781 0.0307
C4 C 0.6739(6) 0.3588(2) 0.3395(3)
H10 H 0.6191 0.2939 0.3510
H11 H 0.5286 0.4017 0.3293
C5 C 0.8791(7) 0.3899(3) 0.4354(3)
H12 H 0.9295 0.4553 0.4239
H13 H 0.8104 0.3914 0.4961
C6 C 1.1090(7) 0.3276(3) 0.4628(3)
H14 H 1.1835 0.3278 0.4046
H15 H 1.0622 0.2627 0.4755
H16 H 1.2306 0.3520 0.5262
O1 O 1.2961(4) 0.07382(16) 0.2448(2)
O2 O 1.1317(4) 0.22059(16) 0.2314(2)
O3 O 0.8496(4) -0.00029(16) 0.2397(2)
O4 O 0.6914(4) 0.14680(16) 0.2362(2)
C7 C 1.1176(6) 0.1334(2) 0.2380(3)
C8 C 0.8667(6) 0.0868(2) 0.2386(2)
H17 H 1.476(8) 0.106(3) 0.241(3)
loop_
_geom_bond_atom_site_label_1
_geom_bond_atom_site_label_2
_geom_bond_site_symmetry_1
_geom_bond_site_symmetry_2
N1 H1 1_555 1_555
H2 N1 1_555 1_555
C1 N1 1_555 1_555
H3 C1 1_555 1_555
H4 C1 1_555 1_555
C2 C1 1_555 1_555
H5 C2 1_555 1_555
H6 C2 1_555 1_555
C3 C2 1_555 1_555
H7 C3 1_555 1_555
H8 C3 1_555 1_555
H9 C3 1_555 1_555
C4 N1 1_555 1_555
H10 C4 1_555 1_555
H11 C4 1_555 1_555
C5 C4 1_555 1_555
H12 C5 1_555 1_555
H13 C5 1_555 1_555
C6 C5 1_555 1_555
H14 C6 1_555 1_555
H15 C6 1_555 1_555
H16 C6 1_555 1_555
O1 C7 1_555 1_555
O2 C7 1_555 1_555
O3 C8 1_555 1_555
O4 C8 1_555 1_555
C7 C8 1_555 1_555
H17 O1 1_555 1_555

#END
