
#######################################################################
#
#                 Cambridge Crystallographic Data Centre
#                                CCDC 
#
#######################################################################
#
# If this CIF has been generated from an entry in the Cambridge 
# Structural Database, then it will include bibliographic, chemical, 
# crystal, experimental, refinement or atomic coordinate data resulting 
# from the CCDC's data processing and validation procedures.
#
#######################################################################

data_BEJTAM
_chemical_formula_moiety         'C19 H20 N2 O3 S1'
_chemical_name_systematic        
'(4R,5R)-1,3-Dibenzyl-5-mercaptomethyl-2-oxothiazolidine-4-carboxylic acid'
_symmetry_cell_setting           orthorhombic
_symmetry_space_group_name_H-M   'P 21 21 21'
_symmetry_Int_Tables_number      19
_space_group_name_Hall           'P 2ac 2ab'
loop_
_symmetry_equiv_pos_site_id
_symmetry_equiv_pos_as_xyz
1 x,y,z
2 1/2-x,-y,1/2+z
3 1/2+x,1/2-y,-z
4 -x,1/2+y,1/2-z
_cell_length_a                   13.759(1)
_cell_length_b                   15.867(1)
_cell_length_c                   8.666(1)
_cell_angle_alpha                90
_cell_angle_beta                 90
_cell_angle_gamma                90
_cell_volume                     1891.91
_exptl_crystal_colour            colorless
_exptl_crystal_description       prism
_cell_formula_units_Z            4
loop_
_atom_site_label
_atom_site_type_symbol
_atom_site_fract_x
_atom_site_fract_y
_atom_site_fract_z
S1 S -0.04025(13) 0.35782(13) 1.2840(2)
O1 O -0.0118(2) 0.1740(2) 0.8883(4)
O2 O 0.2915(3) 0.2130(3) 1.0115(6)
O3 O 0.3105(2) 0.3110(2) 1.1925(5)
N1 N 0.0954(3) 0.1985(2) 1.0837(5)
N2 N 0.0446(3) 0.3074(3) 0.9498(5)
C1 C 0.0387(3) 0.2227(3) 0.9663(6)
C2 C 0.1513(3) 0.2666(3) 1.1454(6)
C3 C 0.1076(3) 0.3458(3) 1.0645(7)
C4 C 0.1113(4) 0.1111(3) 1.1261(7)
C5 C 0.1219(4) 0.1020(3) 1.2978(6)
C6 C 0.0426(5) 0.1168(4) 1.3916(8)
C7 C 0.0485(7) 0.1118(5) 1.5453(9)
C8 C 0.1307(8) 0.0931(5) 1.6121(9)
C9 C 0.2156(7) 0.0779(4) 1.5300(11)
C10 C 0.2108(5) 0.0829(4) 1.3627(9)
C11 C 0.2598(4) 0.2594(3) 1.1086(6)
C12 C 0.0534(5) 0.4049(4) 1.1691(8)
C13 C 0.0107(4) 0.3534(3) 0.8144(6)
C14 C 0.0907(4) 0.3823(3) 0.7091(6)
C15 C 0.0897(4) 0.4609(4) 0.6468(7)
C16 C 0.1624(6) 0.4867(4) 0.5470(8)
C17 C 0.2368(6) 0.4335(5) 0.5102(8)
C18 C 0.2390(5) 0.3536(5) 0.5740(8)
C19 C 0.1672(5) 0.3282(4) 0.6713(8)
H1 H 0.0582 0.0769 1.0900
H2 H 0.1694 0.0907 1.0756
H3 H -0.0194 0.1305 1.3414
H4 H -0.0119 0.1228 1.6073
H5 H 0.1340 0.0919 1.7239
H6 H 0.2750 0.0612 1.5828
H7 H 0.2672 0.0756 1.2989
H8 H 0.1419 0.2719 1.2574
H9 H 0.3798 0.3155 1.1725
H10 H 0.1595 0.3752 1.0117
H11 H 0.0239 0.4481 1.1044
H12 H 0.0990 0.4326 1.2348
H13 H -0.0701 0.4003 1.3462
H14 H -0.0323 0.3160 0.7571
H15 H -0.0261 0.4005 0.8466
H16 H 0.0361 0.4985 0.6726
H17 H 0.1593 0.5442 0.5008
H18 H 0.2868 0.4530 0.4421
H19 H 0.2910 0.3147 0.5468
H20 H 0.1693 0.2725 0.7195
loop_
_geom_bond_atom_site_label_1
_geom_bond_atom_site_label_2
_geom_bond_site_symmetry_1
_geom_bond_site_symmetry_2
S1 C12 1_555 1_555
O1 C1 1_555 1_555
O2 C11 1_555 1_555
O3 C11 1_555 1_555
N1 C1 1_555 1_555
N2 C1 1_555 1_555
C2 N1 1_555 1_555
C3 N2 1_555 1_555
C4 N1 1_555 1_555
C5 C4 1_555 1_555
C6 C5 1_555 1_555
C7 C6 1_555 1_555
C8 C7 1_555 1_555
C9 C8 1_555 1_555
C10 C5 1_555 1_555
C11 C2 1_555 1_555
C12 C3 1_555 1_555
C13 N2 1_555 1_555
C14 C13 1_555 1_555
C15 C14 1_555 1_555
C16 C15 1_555 1_555
C17 C16 1_555 1_555
C18 C17 1_555 1_555
C19 C14 1_555 1_555
H1 C4 1_555 1_555
H2 C4 1_555 1_555
H3 C6 1_555 1_555
H4 C7 1_555 1_555
H5 C8 1_555 1_555
H6 C9 1_555 1_555
H7 C10 1_555 1_555
H8 C2 1_555 1_555
H9 O3 1_555 1_555
H10 C3 1_555 1_555
H11 C12 1_555 1_555
H12 C12 1_555 1_555
H13 S1 1_555 1_555
H14 C13 1_555 1_555
H15 C13 1_555 1_555
H16 C15 1_555 1_555
H17 C16 1_555 1_555
H18 C17 1_555 1_555
H19 C18 1_555 1_555
H20 C19 1_555 1_555
C2 C3 1_555 1_555
C9 C10 1_555 1_555
C18 C19 1_555 1_555

#END
