
#######################################################################
#
#                 Cambridge Crystallographic Data Centre
#                                CCDC 
#
#######################################################################
#
# If this CIF has been generated from an entry in the Cambridge 
# Structural Database, then it will include bibliographic, chemical, 
# crystal, experimental, refinement or atomic coordinate data resulting 
# from the CCDC's data processing and validation procedures.
#
#######################################################################

data_BEKMIO
_chemical_formula_moiety         'C16 H22 O6'
_chemical_name_systematic        
"(3aR,7aS,4'R)-6-(2',2'-dimethyl-(1',3')dioxolan-4'-yl)-7-methyl-3-oxo-1,4,5,7a-tetrahydroisobenzofuran-3a-carboxylic acid methyl ester"
_symmetry_cell_setting           monoclinic
_symmetry_space_group_name_H-M   'P 21'
_symmetry_Int_Tables_number      4
_space_group_name_Hall           'P 2yb'
loop_
_symmetry_equiv_pos_site_id
_symmetry_equiv_pos_as_xyz
1 x,y,z
2 -x,1/2+y,-z
_cell_length_a                   9.4202(8)
_cell_length_b                   6.8832(6)
_cell_length_c                   12.5381(9)
_cell_angle_alpha                90
_cell_angle_beta                 101.540(9)
_cell_angle_gamma                90
_cell_volume                     796.55
_exptl_crystal_colour            colorless
_exptl_crystal_description       Block
_chemical_melting_point          128-129deg.C
_cell_formula_units_Z            2
loop_
_atom_site_label
_atom_site_type_symbol
_atom_site_fract_x
_atom_site_fract_y
_atom_site_fract_z
C1 C 1.5331(2) 0.5389(3) 0.10962(15)
C2 C 1.42015(16) 0.5144(2) 0.18063(12)
C3 C 1.46869(18) 0.6207(3) 0.28819(14)
C4 C 1.39300(18) 0.2970(2) 0.19568(14)
H1 H 1.3723 0.2333 0.1253
H2 H 1.4790 0.2378 0.2390
C5 C 1.26594(17) 0.2709(2) 0.25221(14)
H3 H 1.2396 0.1345 0.2505
H4 H 1.2954 0.3091 0.3279
C6 C 1.13474(16) 0.3888(2) 0.20000(11)
C7 C 0.99688(17) 0.3337(2) 0.23622(11)
H5 H 0.9152 0.4077 0.1950
C8 C 1.0064(2) 0.3626(2) 0.36032(13)
H6 H 1.0904 0.4400 0.3918
H7 H 0.9201 0.4261 0.3743
C9 C 1.14240(15) 0.5340(2) 0.13077(10)
C10 C 1.01573(18) 0.6486(2) 0.06867(12)
H8 H 0.9270 0.5950 0.0823
H9 H 1.0156 0.6421 -0.0078
H10 H 1.0240 0.7817 0.0920
C11 C 1.28539(17) 0.6052(2) 0.10963(12)
H11 H 1.2900 0.7461 0.1210
C12 C 1.3108(2) 0.5632(4) -0.00556(14)
H12 H 1.2712 0.4376 -0.0311
H13 H 1.2662 0.6624 -0.0563
C13 C 1.6094(3) 0.5971(5) 0.46600(19)
H14 H 1.6411 0.7277 0.4574
H15 H 1.6892 0.5215 0.5040
H16 H 1.5335 0.5985 0.5069
C14 C 1.0015(3) -0.1495(3) 0.33651(17)
H17 H 1.1027 -0.1463 0.3341
H18 H 0.9516 -0.2328 0.2798
H19 H 0.9895 -0.1981 0.4059
C15 C 0.9402(2) 0.0514(2) 0.32034(12)
C16 C 0.7799(3) 0.0622(5) 0.3201(2)
H20 H 0.7636 0.0322 0.3914
H21 H 0.7290 -0.0297 0.2686
H22 H 0.7452 0.1908 0.3000
O1 O 1.46733(14) 0.5649(3) 0.00575(11)
O2 O 1.66219(15) 0.5341(3) 0.13666(14)
O3 O 1.55571(17) 0.5127(3) 0.36033(12)
O4 O 1.4334(2) 0.7812(3) 0.30609(15)
O5 O 1.01871(14) 0.17189(16) 0.40334(8)
O6 O 0.96997(13) 0.12872(16) 0.22170(8)
loop_
_geom_bond_atom_site_label_1
_geom_bond_atom_site_label_2
_geom_bond_site_symmetry_1
_geom_bond_site_symmetry_2
C1 C2 1_555 1_555
C2 C3 1_555 1_555
C3 O3 1_555 1_555
C4 C2 1_555 1_555
H1 C4 1_555 1_555
H2 C4 1_555 1_555
C5 C4 1_555 1_555
H3 C5 1_555 1_555
H4 C5 1_555 1_555
C6 C5 1_555 1_555
C7 C6 1_555 1_555
H5 C7 1_555 1_555
C8 C7 1_555 1_555
H6 C8 1_555 1_555
H7 C8 1_555 1_555
C9 C6 1_555 1_555
C10 C9 1_555 1_555
H8 C10 1_555 1_555
H9 C10 1_555 1_555
H10 C10 1_555 1_555
C11 C2 1_555 1_555
H11 C11 1_555 1_555
C12 C11 1_555 1_555
H12 C12 1_555 1_555
H13 C12 1_555 1_555
C13 H14 1_555 1_555
H15 C13 1_555 1_555
H16 C13 1_555 1_555
C14 H17 1_555 1_555
H18 C14 1_555 1_555
H19 C14 1_555 1_555
C15 C14 1_555 1_555
C16 C15 1_555 1_555
H20 C16 1_555 1_555
H21 C16 1_555 1_555
H22 C16 1_555 1_555
O1 C1 1_555 1_555
O2 C1 1_555 1_555
O3 C13 1_555 1_555
O4 C3 1_555 1_555
O5 C8 1_555 1_555
O6 C7 1_555 1_555
C9 C11 1_555 1_555
C12 O1 1_555 1_555
C15 O5 1_555 1_555
C15 O6 1_555 1_555

#END
