
#######################################################################
#
#                 Cambridge Crystallographic Data Centre
#                                CCDC 
#
#######################################################################
#
# If this CIF has been generated from an entry in the Cambridge 
# Structural Database, then it will include bibliographic, chemical, 
# crystal, experimental, refinement or atomic coordinate data resulting 
# from the CCDC's data processing and validation procedures.
#
#######################################################################

data_BEKNAG
_chemical_formula_moiety         'C44 H47 F1 O8'
_chemical_name_systematic        
D-3,4,5,6-Tetra-O-benzyl-2-(1'S,4'R)-camphanyl-1-deoxy-1-fluoro-scyllo-inositol
_symmetry_cell_setting           monoclinic
_symmetry_space_group_name_H-M   'P 21'
_symmetry_Int_Tables_number      4
_space_group_name_Hall           'P 2yb'
loop_
_symmetry_equiv_pos_site_id
_symmetry_equiv_pos_as_xyz
1 x,y,z
2 -x,1/2+y,-z
_cell_length_a                   12.6458(15)
_cell_length_b                   9.9386(14)
_cell_length_c                   15.611(2)
_cell_angle_alpha                90.00
_cell_angle_beta                 94.107(9)
_cell_angle_gamma                90.00
_cell_volume                     1956.98
_exptl_crystal_description       needle
_chemical_melting_point          112-113deg.C
_cell_formula_units_Z            2
_exptl_crystal_recrystallization_method 'diethyl ether/hexane'
loop_
_atom_site_label
_atom_site_type_symbol
_atom_site_fract_x
_atom_site_fract_y
_atom_site_fract_z
C1 C 0.7126(2) 0.5608(4) 0.4786(2)
H1 H 0.7292(2) 0.4645(4) 0.4764(2)
C2 C 0.6239(2) 0.5898(3) 0.4122(2)
H2 H 0.6117(2) 0.6871(3) 0.4086(2)
C3 C 0.5218(2) 0.5188(3) 0.4318(2)
H3 H 0.5297(2) 0.4218(3) 0.4231(2)
C4 C 0.4930(2) 0.5449(4) 0.5228(2)
H4 H 0.4683(2) 0.6379(4) 0.5274(2)
C5 C 0.5855(2) 0.5212(4) 0.5897(2)
H5 H 0.6006(2) 0.4245(4) 0.5928(2)
C6 C 0.6852(2) 0.5949(4) 0.5690(2)
H6 H 0.6742(2) 0.6921(4) 0.5738(2)
F1 F 0.8016(2) 0.6326(3) 0.45751(15)
O1 O 0.6529(2) 0.5401(2) 0.33043(13)
O2 O 0.4414(2) 0.5694(3) 0.37173(14)
O3 O 0.4087(2) 0.4554(3) 0.53902(15)
O4 O 0.5538(2) 0.5649(2) 0.67098(13)
O5 O 0.7691(2) 0.5541(2) 0.62842(14)
C7 C 0.6821(3) 0.6305(4) 0.2721(2)
O6 O 0.6844(3) 0.7484(3) 0.2844(2)
C8 C 0.7122(3) 0.5634(4) 0.1925(2)
O7 O 0.7327(2) 0.6693(3) 0.1313(2)
C9 C 0.7959(4) 0.6154(5) 0.0734(2)
C10 C 0.8123(4) 0.4719(5) 0.0968(2)
C11 C 0.8179(3) 0.4844(4) 0.1962(2)
C12 C 0.6333(4) 0.4692(6) 0.1444(3)
H7 H 0.5732(4) 0.5180(6) 0.1179(3)
H8 H 0.6083(4) 0.4001(6) 0.1819(3)
C13 C 0.7032(5) 0.4093(6) 0.0763(3)
H9 H 0.7067(5) 0.3120(6) 0.0810(3)
H10 H 0.6755(5) 0.4331(6) 0.0188(3)
O8 O 0.8246(3) 0.6803(4) 0.0150(2)
C14 C 0.9044(5) 0.4048(7) 0.0560(3)
H11 H 0.8952(25) 0.4141(52) -0.0053(4)
H12 H 0.9064(28) 0.3110(14) 0.0708(31)
H13 H 0.9696(7) 0.4467(39) 0.0767(29)
C15 C 0.9114(3) 0.5712(8) 0.2321(3)
H14 H 0.9765(5) 0.5230(20) 0.2272(27)
H15 H 0.9031(20) 0.5913(40) 0.2914(9)
H16 H 0.9130(22) 0.6535(21) 0.2000(19)
C16 C 0.8172(6) 0.3515(6) 0.2429(3)
H17 H 0.8748(26) 0.2968(22) 0.2260(26)
H18 H 0.7513(18) 0.3061(24) 0.2286(27)
H19 H 0.8252(42) 0.3669(7) 0.3037(3)
C17 C 0.8361(4) 0.6584(5) 0.6628(3)
H20 H 0.7958(4) 0.7206(5) 0.6956(3)
H21 H 0.8659(4) 0.7079(5) 0.6166(3)
C18 C 0.9230(3) 0.5957(4) 0.7196(2)
C19 C 1.0031(3) 0.5261(5) 0.6846(3)
H22 H 1.0039(3) 0.5183(5) 0.6252(3)
C20 C 1.0822(3) 0.4679(6) 0.7371(4)
H23 H 1.1357(3) 0.4192(6) 0.7135(4)
C21 C 1.0821(5) 0.4818(7) 0.8240(5)
H24 H 1.1356(5) 0.4422(7) 0.8595(5)
C22 C 1.0056(5) 0.5519(8) 0.8587(3)
H25 H 1.0067(5) 0.5617(8) 0.9180(3)
C23 C 0.9262(3) 0.6090(5) 0.8073(3)
H26 H 0.8734(3) 0.6576(5) 0.8320(3)
C24 C 0.5679(4) 0.4670(5) 0.7381(2)
H27 H 0.6422(4) 0.4432(5) 0.7471(2)
H28 H 0.5281(4) 0.3862(5) 0.7222(2)
C25 C 0.5296(3) 0.5246(4) 0.8190(2)
C26 C 0.5845(4) 0.6217(6) 0.8648(3)
H29 H 0.6476(4) 0.6534(6) 0.8452(3)
C27 C 0.5499(5) 0.6738(7) 0.9386(3)
H30 H 0.5892(5) 0.7399(7) 0.9686(3)
C28 C 0.4575(5) 0.6285(8) 0.9679(3)
H31 H 0.4331(5) 0.6644(8) 1.0179(3)
C29 C 0.4010(4) 0.5313(8) 0.9244(4)
H32 H 0.3385(4) 0.4993(8) 0.9451(4)
C30 C 0.4361(4) 0.4799(7) 0.8498(3)
H33 H 0.3964(4) 0.4142(7) 0.8196(3)
C31 C 0.3274(3) 0.5077(4) 0.5906(2)
H34 H 0.3577(3) 0.5777(4) 0.6280(2)
H35 H 0.3029(3) 0.4361(4) 0.6265(2)
C32 C 0.2353(2) 0.5636(4) 0.5375(2)
C33 C 0.2120(3) 0.6966(4) 0.5373(3)
H36 H 0.2560(3) 0.7550(4) 0.5700(3)
C34 C 0.1252(4) 0.7476(5) 0.4902(4)
H37 H 0.1113(4) 0.8394(5) 0.4916(4)
C35 C 0.0599(3) 0.6659(5) 0.4420(3)
H38 H 0.0022(3) 0.7007(5) 0.4090(3)
C36 C 0.0804(4) 0.5305(5) 0.4426(3)
H39 H 0.0352(4) 0.4727(5) 0.4106(3)
C37 C 0.1666(3) 0.4794(4) 0.4897(3)
H40 H 0.1792(3) 0.3872(4) 0.4896(3)
C38 C 0.3829(3) 0.4724(5) 0.3237(3)
H41 H 0.3426(3) 0.4182(5) 0.3616(3)
H42 H 0.4306(3) 0.4134(5) 0.2955(3)
C39 C 0.3085(3) 0.5399(5) 0.2574(2)
C40 C 0.2555(3) 0.6564(5) 0.2763(3)
H43 H 0.2676(3) 0.6956(5) 0.3302(3)
C41 C 0.1851(4) 0.7152(7) 0.2165(5)
H44 H 0.1525(4) 0.7960(7) 0.2292(5)
C42 C 0.1627(5) 0.6563(11) 0.1388(5)
H45 H 0.1133(5) 0.6949(11) 0.0992(5)
C43 C 0.2135(5) 0.5391(12) 0.1192(3)
H46 H 0.1999(5) 0.4996(12) 0.0656(3)
C44 C 0.2850(4) 0.4796(8) 0.1792(3)
H47 H 0.3171(4) 0.3986(8) 0.1664(3)
loop_
_geom_bond_atom_site_label_1
_geom_bond_atom_site_label_2
_geom_bond_site_symmetry_1
_geom_bond_site_symmetry_2
C1 H1 1_555 1_555
C2 C1 1_555 1_555
H2 C2 1_555 1_555
C3 C2 1_555 1_555
H3 C3 1_555 1_555
C4 C3 1_555 1_555
H4 C4 1_555 1_555
C5 C4 1_555 1_555
H5 C5 1_555 1_555
C6 C1 1_555 1_555
H6 C6 1_555 1_555
F1 C1 1_555 1_555
O1 C2 1_555 1_555
O2 C3 1_555 1_555
O3 C4 1_555 1_555
O4 C5 1_555 1_555
O5 C6 1_555 1_555
C7 O1 1_555 1_555
O6 C7 1_555 1_555
C8 C7 1_555 1_555
O7 C8 1_555 1_555
C9 O7 1_555 1_555
C10 C9 1_555 1_555
C11 C8 1_555 1_555
C12 C8 1_555 1_555
H7 C12 1_555 1_555
H8 C12 1_555 1_555
C13 C10 1_555 1_555
H9 C13 1_555 1_555
H10 C13 1_555 1_555
O8 C9 1_555 1_555
C14 C10 1_555 1_555
H11 C14 1_555 1_555
H12 C14 1_555 1_555
H13 C14 1_555 1_555
C15 C11 1_555 1_555
H14 C15 1_555 1_555
H15 C15 1_555 1_555
H16 C15 1_555 1_555
C16 C11 1_555 1_555
H17 C16 1_555 1_555
H18 C16 1_555 1_555
H19 C16 1_555 1_555
C17 O5 1_555 1_555
H20 C17 1_555 1_555
H21 C17 1_555 1_555
C18 C17 1_555 1_555
C19 C18 1_555 1_555
H22 C19 1_555 1_555
C20 C19 1_555 1_555
H23 C20 1_555 1_555
C21 C20 1_555 1_555
H24 C21 1_555 1_555
C22 C21 1_555 1_555
H25 C22 1_555 1_555
C23 C18 1_555 1_555
H26 C23 1_555 1_555
C24 O4 1_555 1_555
H27 C24 1_555 1_555
H28 C24 1_555 1_555
C25 C24 1_555 1_555
C26 C25 1_555 1_555
H29 C26 1_555 1_555
C27 C26 1_555 1_555
H30 C27 1_555 1_555
C28 C27 1_555 1_555
H31 C28 1_555 1_555
C29 C28 1_555 1_555
H32 C29 1_555 1_555
C30 C25 1_555 1_555
H33 C30 1_555 1_555
C31 O3 1_555 1_555
H34 C31 1_555 1_555
H35 C31 1_555 1_555
C32 C31 1_555 1_555
C33 C32 1_555 1_555
H36 C33 1_555 1_555
C34 C33 1_555 1_555
H37 C34 1_555 1_555
C35 C34 1_555 1_555
H38 C35 1_555 1_555
C36 C35 1_555 1_555
H39 C36 1_555 1_555
C37 C32 1_555 1_555
H40 C37 1_555 1_555
C38 O2 1_555 1_555
H41 C38 1_555 1_555
H42 C38 1_555 1_555
C39 C38 1_555 1_555
C40 C39 1_555 1_555
H43 C40 1_555 1_555
C41 C40 1_555 1_555
H44 C41 1_555 1_555
C42 C41 1_555 1_555
H45 C42 1_555 1_555
C43 C42 1_555 1_555
H46 C43 1_555 1_555
C44 C39 1_555 1_555
H47 C44 1_555 1_555
C5 C6 1_555 1_555
C10 C11 1_555 1_555
C12 C13 1_555 1_555
C22 C23 1_555 1_555
C29 C30 1_555 1_555
C36 C37 1_555 1_555
C43 C44 1_555 1_555

#END
