
#######################################################################
#
#                 Cambridge Crystallographic Data Centre
#                                CCDC 
#
#######################################################################
#
# If this CIF has been generated from an entry in the Cambridge 
# Structural Database, then it will include bibliographic, chemical, 
# crystal, experimental, refinement or atomic coordinate data resulting 
# from the CCDC's data processing and validation procedures.
#
#######################################################################

data_BELSIV
_chemical_formula_moiety         'C20 H15 Br1 O5 S1'
_chemical_name_systematic        
(R)-7-(p-Bromophenylsulfonato)-2-methoxy-9-fluorenol
_symmetry_cell_setting           monoclinic
_symmetry_space_group_name_H-M   'P 21'
_symmetry_Int_Tables_number      4
_space_group_name_Hall           'P 2yb'
loop_
_symmetry_equiv_pos_site_id
_symmetry_equiv_pos_as_xyz
1 x,y,z
2 -x,1/2+y,-z
_cell_length_a                   7.9334(16)
_cell_length_b                   35.541(8)
_cell_length_c                   13.126(3)
_cell_angle_alpha                90
_cell_angle_beta                 90.061(4)
_cell_angle_gamma                90
_cell_volume                     3701.02
_exptl_crystal_colour            colorless
_exptl_crystal_description       plate
_chemical_melting_point          '169-170 deg.C'
_cell_formula_units_Z            8
_exptl_crystal_recrystallization_method hexanes/dichloromethane
loop_
_atom_site_label
_atom_site_type_symbol
_atom_site_fract_x
_atom_site_fract_y
_atom_site_fract_z
Br1 Br -0.58162(13) 0.30520(3) 1.53459(10)
S1 S -1.2173(3) 0.35589(7) 1.27018(18)
C1 C -0.7703(10) 0.3209(3) 1.4561(7)
C2 C -0.7440(10) 0.3436(3) 1.3718(7)
H1 H -0.6337 0.3510 1.3519
C3 C -0.8857(10) 0.3553(3) 1.3172(6)
H2 H -0.8734 0.3718 1.2609
C4 C -1.0406(10) 0.3430(2) 1.3443(6)
C5 C -1.0650(10) 0.3194(3) 1.4240(6)
H3 H -1.1755 0.3106 1.4382
C6 C -0.9289(10) 0.3077(2) 1.4869(6)
H4 H -0.9441 0.2921 1.5450
C7 C -1.3228(9) 0.4049(2) 1.4030(6)
C8 C -1.3826(9) 0.4376(2) 1.3586(6)
H5 H -1.4354 0.4373 1.2936
C9 C -1.3626(9) 0.4710(3) 1.4128(6)
C10 C -1.4169(11) 0.5101(2) 1.3851(6)
H6 H -1.5424 0.5113 1.3786
C11 C -1.3588(9) 0.5328(3) 1.4742(6)
C12 C -1.3736(10) 0.5709(3) 1.4896(6)
H7 H -1.4248 0.5864 1.4393
C13 C -1.3132(10) 0.5865(3) 1.5790(7)
C14 C -1.2441(10) 0.5636(2) 1.6552(6)
H8 H -1.2060 0.5743 1.7173
C15 C -1.2315(9) 0.5248(3) 1.6395(6)
H9 H -1.1854 0.5088 1.6906
C16 C -1.2881(9) 0.5100(3) 1.5473(6)
C17 C -1.2880(9) 0.4708(2) 1.5096(6)
C18 C -1.2369(10) 0.4379(3) 1.5537(7)
H10 H -1.1910 0.4377 1.6206
C19 C -1.2538(10) 0.4043(2) 1.4976(6)
H11 H -1.2168 0.3812 1.5261
C20 C -1.2865(14) 0.6419(2) 1.6833(7)
H12 H -1.3116 0.6689 1.6801
H13 H -1.1659 0.6383 1.6962
H14 H -1.3516 0.6304 1.7385
O1 O -1.3310(8) 0.62455(19) 1.5884(5)
O2 O -1.3379(7) 0.52447(15) 1.2944(4)
H57 H -1.3123 0.5065 1.2559
O3 O -1.3496(6) 0.36959(16) 1.3517(4)
O4 O -1.1676(7) 0.38668(16) 1.2056(4)
O5 O -1.2928(7) 0.32277(17) 1.2298(4)
Br2 Br -0.09057(13) 0.73051(3) 1.17585(8)
S2 S -0.7162(3) 0.70786(7) 1.47092(19)
C21 C -0.2760(12) 0.7234(3) 1.2615(7)
C22 C -0.2559(10) 0.7058(3) 1.3530(7)
H15 H -0.1461 0.6982 1.3733
C23 C -0.3884(12) 0.6988(3) 1.4164(7)
H16 H -0.3739 0.6857 1.4788
C24 C -0.5438(10) 0.7117(3) 1.3860(6)
C25 C -0.5697(11) 0.7299(3) 1.2941(6)
H17 H -0.6788 0.7388 1.2765
C26 C -0.4368(10) 0.7351(2) 1.2284(6)
H18 H -0.4527 0.7461 1.1631
C27 C -0.8423(10) 0.6466(3) 1.3899(6)
C28 C -0.7577(9) 0.6327(2) 1.3075(6)
H19 H -0.6972 0.6488 1.2626
C29 C -0.7645(10) 0.5945(2) 1.2927(6)
C30 C -0.6906(10) 0.5721(2) 1.2061(6)
H20 H -0.5648 0.5731 1.2095
C31 C -0.7507(9) 0.5322(2) 1.2301(6)
C32 C -0.7229(9) 0.4995(3) 1.1724(6)
H21 H -0.6579 0.4998 1.1116
C33 C -0.7964(11) 0.4663(3) 1.2093(7)
C34 C -0.8888(10) 0.4669(2) 1.2987(7)
H22 H -0.9339 0.4439 1.3234
C35 C -0.9182(10) 0.4990(2) 1.3529(6)
H23 H -0.9843 0.4984 1.4132
C36 C -0.8487(9) 0.5330(2) 1.3177(6)
C37 C -0.8559(10) 0.5713(2) 1.3568(6)
C38 C -0.9346(10) 0.5853(2) 1.4391(6)
H24 H -0.9940 0.5691 1.4840
C39 C -0.9279(10) 0.6244(3) 1.4583(6)
H25 H -0.9809 0.6349 1.5165
C40 C -0.6890(13) 0.4314(3) 1.0711(7)
H26 H -0.6814 0.4054 1.0468
H27 H -0.5754 0.4412 1.0835
H28 H -0.7453 0.4469 1.0195
O6 O -0.7824(8) 0.43242(17) 1.1624(5)
O7 O -0.7459(7) 0.58385(15) 1.1070(4)
H58 H -0.7677 0.5648 1.0713
O8 O -0.8547(7) 0.68612(18) 1.4051(4)
O9 O -0.7906(7) 0.74355(19) 1.4872(5)
O10 O -0.6708(7) 0.68575(18) 1.5544(4)
Br3 Br 0.40507(13) 0.32221(3) 1.07807(9)
S3 S -0.2368(3) 0.33989(7) 0.79004(19)
C41 C 0.2144(12) 0.3268(3) 0.9906(7)
C42 C 0.2307(11) 0.3452(3) 0.9010(7)
H29 H 0.3379 0.3545 0.8810
C43 C 0.0928(13) 0.3505(3) 0.8381(7)
H30 H 0.1013 0.3640 0.7759
C44 C -0.0600(11) 0.3350(3) 0.8708(7)
C45 C -0.0717(13) 0.3159(3) 0.9626(9)
H31 H -0.1759 0.3044 0.9798
C46 C 0.0644(8) 0.3128(2) 1.0320(5)
H32 H 0.0551 0.3025 1.0985
C47 C -0.3496(11) 0.4031(3) 0.8711(8)
C48 C -0.2603(11) 0.4158(3) 0.9559(8)
H33 H -0.2009 0.3995 1.0007
C49 C -0.2665(10) 0.4542(3) 0.9685(6)
C50 C -0.1873(10) 0.4767(3) 1.0504(6)
H34 H -0.0616 0.4755 1.0462
C51 C -0.2511(10) 0.5167(3) 1.0276(6)
C52 C -0.2197(10) 0.5498(2) 1.0848(6)
H35 H -0.1541 0.5495 1.1454
C53 C -0.2914(10) 0.5833(3) 1.0467(7)
C54 C -0.3871(10) 0.5826(3) 0.9604(6)
H36 H -0.4371 0.6054 0.9377
C55 C -0.4149(11) 0.5500(2) 0.9039(6)
H37 H -0.4777 0.5505 0.8422
C56 C -0.3476(9) 0.5169(3) 0.9411(7)
C57 C -0.3540(10) 0.4788(3) 0.9003(7)
C58 C -0.4360(10) 0.4632(2) 0.8172(7)
H38 H -0.4927 0.4792 0.7703
C59 C -0.4366(11) 0.4244(3) 0.8013(7)
H39 H -0.4940 0.4133 0.7453
C60 C -0.1865(12) 0.6180(3) 1.1859(7)
H40 H -0.1821 0.6439 1.2113
H41 H -0.0717 0.6089 1.1737
H42 H -0.2417 0.6019 1.2365
O11 O -0.2796(8) 0.61695(18) 1.0932(5)
O12 O -0.2453(7) 0.46583(15) 1.1499(4)
H59 H -0.2691 0.4851 1.1839
O13 O -0.3666(7) 0.36318(18) 0.8596(5)
O14 O -0.3127(8) 0.30468(18) 0.7777(5)
O15 O -0.1922(8) 0.3629(2) 0.7058(4)
Br4 Br 0.91780(12) 0.74270(3) 0.72185(8)
S4 S 0.2838(3) 0.69283(7) 0.98579(18)
C61 C 0.7272(11) 0.7284(2) 0.8025(6)
C62 C 0.5711(10) 0.7411(2) 0.7703(6)
H43 H 0.5587 0.7566 0.7117
C63 C 0.4343(11) 0.7300(3) 0.8282(7)
H44 H 0.3248 0.7386 0.8104
C64 C 0.4540(10) 0.7064(2) 0.9123(6)
C65 C 0.6153(11) 0.6944(3) 0.9416(7)
H45 H 0.6297 0.6790 1.0001
C66 C 0.7533(11) 0.7053(3) 0.8841(7)
H46 H 0.8635 0.6970 0.9012
C67 C 0.1756(10) 0.6442(3) 0.8535(6)
C68 C 0.1165(9) 0.6109(2) 0.8987(6)
H47 H 0.0649 0.6109 0.9640
C69 C 0.1373(10) 0.5778(2) 0.8427(6)
C70 C 0.0871(11) 0.5380(2) 0.8729(6)
H48 H -0.0383 0.5368 0.8796
C71 C 0.1387(10) 0.5148(3) 0.7848(6)
C72 C 0.1263(10) 0.4770(3) 0.7697(7)
H49 H 0.0788 0.4610 0.8202
C73 C 0.1855(11) 0.4625(3) 0.6781(7)
C74 C 0.2568(10) 0.4852(3) 0.6035(7)
H50 H 0.2948 0.4745 0.5412
C75 C 0.2717(9) 0.5231(3) 0.6207(7)
H51 H 0.3220 0.5387 0.5704
C76 C 0.2144(10) 0.5387(3) 0.7104(6)
C77 C 0.2142(10) 0.5778(2) 0.7486(6)
C78 C 0.2681(9) 0.6105(3) 0.7043(7)
H52 H 0.3151 0.6103 0.6377
C79 C 0.2522(10) 0.6448(3) 0.7599(7)
H53 H 0.2941 0.6677 0.7325
C80 C 0.2163(12) 0.4070(3) 0.5770(6)
H54 H 0.1920 0.3799 0.5804
H55 H 0.3371 0.4107 0.5653
H56 H 0.1522 0.4183 0.5210
O16 O 0.1697(8) 0.42417(18) 0.6698(4)
O17 O 0.1621(7) 0.52482(15) 0.9657(4)
H60 H 0.1831 0.5432 1.0037
O18 O 0.1486(6) 0.67828(17) 0.9031(4)
O19 O 0.3292(7) 0.66223(16) 1.0507(4)
O20 O 0.2054(7) 0.72492(15) 1.0258(4)
loop_
_geom_bond_atom_site_label_1
_geom_bond_atom_site_label_2
_geom_bond_site_symmetry_1
_geom_bond_site_symmetry_2
Br1 C1 1_555 1_555
Br2 C21 1_555 1_555
Br3 C41 1_555 1_555
Br4 C61 1_555 1_555
S1 C4 1_555 1_555
S2 C24 1_555 1_555
S3 C44 1_555 1_555
S4 C64 1_555 1_555
C1 C2 1_555 1_555
C2 H1 1_555 1_555
C3 C2 1_555 1_555
H2 C3 1_555 1_555
C4 C3 1_555 1_555
C5 C4 1_555 1_555
H3 C5 1_555 1_555
C6 C1 1_555 1_555
H4 C6 1_555 1_555
C7 C8 1_555 1_555
C8 H5 1_555 1_555
C9 C8 1_555 1_555
C10 C9 1_555 1_555
H6 C10 1_555 1_555
C11 C10 1_555 1_555
C12 C11 1_555 1_555
H7 C12 1_555 1_555
C13 C12 1_555 1_555
C14 C13 1_555 1_555
H8 C14 1_555 1_555
C15 C14 1_555 1_555
H9 C15 1_555 1_555
C16 C11 1_555 1_555
C17 C9 1_555 1_555
C18 C17 1_555 1_555
H10 C18 1_555 1_555
C19 C7 1_555 1_555
H11 C19 1_555 1_555
C20 H12 1_555 1_555
H13 C20 1_555 1_555
H14 C20 1_555 1_555
C21 C22 1_555 1_555
C22 H15 1_555 1_555
C23 C22 1_555 1_555
H16 C23 1_555 1_555
C24 C23 1_555 1_555
C25 C24 1_555 1_555
H17 C25 1_555 1_555
C26 C21 1_555 1_555
H18 C26 1_555 1_555
C27 C28 1_555 1_555
C28 H19 1_555 1_555
C29 C28 1_555 1_555
C30 C29 1_555 1_555
H20 C30 1_555 1_555
C31 C30 1_555 1_555
C32 C31 1_555 1_555
H21 C32 1_555 1_555
C33 C32 1_555 1_555
C34 C33 1_555 1_555
H22 C34 1_555 1_555
C35 C34 1_555 1_555
H23 C35 1_555 1_555
C36 C31 1_555 1_555
C37 C29 1_555 1_555
C38 C37 1_555 1_555
H24 C38 1_555 1_555
C39 C27 1_555 1_555
H25 C39 1_555 1_555
C40 H26 1_555 1_555
H27 C40 1_555 1_555
H28 C40 1_555 1_555
C41 C42 1_555 1_555
C42 H29 1_555 1_555
C43 C42 1_555 1_555
H30 C43 1_555 1_555
C44 C43 1_555 1_555
C45 C44 1_555 1_555
H31 C45 1_555 1_555
C46 C41 1_555 1_555
H32 C46 1_555 1_555
C47 C48 1_555 1_555
C48 H33 1_555 1_555
C49 C48 1_555 1_555
C50 C49 1_555 1_555
H34 C50 1_555 1_555
C51 C50 1_555 1_555
C52 C51 1_555 1_555
H35 C52 1_555 1_555
C53 C52 1_555 1_555
C54 C53 1_555 1_555
H36 C54 1_555 1_555
C55 C54 1_555 1_555
H37 C55 1_555 1_555
C56 C51 1_555 1_555
C57 C49 1_555 1_555
C58 C57 1_555 1_555
H38 C58 1_555 1_555
C59 C47 1_555 1_555
H39 C59 1_555 1_555
C60 H40 1_555 1_555
H41 C60 1_555 1_555
H42 C60 1_555 1_555
C61 C62 1_555 1_555
C62 H43 1_555 1_555
C63 C62 1_555 1_555
H44 C63 1_555 1_555
C64 C63 1_555 1_555
C65 C64 1_555 1_555
H45 C65 1_555 1_555
C66 C61 1_555 1_555
H46 C66 1_555 1_555
C67 C68 1_555 1_555
C68 H47 1_555 1_555
C69 C68 1_555 1_555
C70 C69 1_555 1_555
H48 C70 1_555 1_555
C71 C70 1_555 1_555
C72 C71 1_555 1_555
H49 C72 1_555 1_555
C73 C72 1_555 1_555
C74 C73 1_555 1_555
H50 C74 1_555 1_555
C75 C74 1_555 1_555
H51 C75 1_555 1_555
C76 C71 1_555 1_555
C77 C69 1_555 1_555
C78 C77 1_555 1_555
H52 C78 1_555 1_555
C79 C67 1_555 1_555
H53 C79 1_555 1_555
C80 H54 1_555 1_555
H55 C80 1_555 1_555
H56 C80 1_555 1_555
O1 C13 1_555 1_555
O2 C10 1_555 1_555
H57 O2 1_555 1_555
O3 S1 1_555 1_555
O4 S1 1_555 1_555
O5 S1 1_555 1_555
O6 C33 1_555 1_555
O7 C30 1_555 1_555
H58 O7 1_555 1_555
O8 S2 1_555 1_555
O9 S2 1_555 1_555
O10 S2 1_555 1_555
O11 C53 1_555 1_555
O12 C50 1_555 1_555
H59 O12 1_555 1_555
O13 S3 1_555 1_555
O14 S3 1_555 1_555
O15 S3 1_555 1_555
O16 C73 1_555 1_555
O17 C70 1_555 1_555
H60 O17 1_555 1_555
O18 S4 1_555 1_555
O19 S4 1_555 1_555
O20 S4 1_555 1_555
C5 C6 1_555 1_555
C7 O3 1_555 1_555
C15 C16 1_555 1_555
C16 C17 1_555 1_555
C18 C19 1_555 1_555
C20 O1 1_555 1_555
C25 C26 1_555 1_555
C27 O8 1_555 1_555
C35 C36 1_555 1_555
C36 C37 1_555 1_555
C38 C39 1_555 1_555
C40 O6 1_555 1_555
C45 C46 1_555 1_555
C47 O13 1_555 1_555
C55 C56 1_555 1_555
C56 C57 1_555 1_555
C58 C59 1_555 1_555
C60 O11 1_555 1_555
C65 C66 1_555 1_555
C67 O18 1_555 1_555
C75 C76 1_555 1_555
C76 C77 1_555 1_555
C78 C79 1_555 1_555
C80 O16 1_555 1_555

#END
