
#######################################################################
#
#                 Cambridge Crystallographic Data Centre
#                                CCDC 
#
#######################################################################
#
# If this CIF has been generated from an entry in the Cambridge 
# Structural Database, then it will include bibliographic, chemical, 
# crystal, experimental, refinement or atomic coordinate data resulting 
# from the CCDC's data processing and validation procedures.
#
#######################################################################

data_BELWOG
_chemical_compound_source        'sea anemone'
_chemical_name_common            4a-epi-9alpha-methoxydihydrodeoxybostrycin
_chemical_formula_moiety         'C17 H22 O7'
_chemical_name_systematic        
2,3,5,8-Tetrahydroxy-6,10-dimethoxy-3-methyl-1,3,4,4a,9a,10-hexahydroanthracen-9(2H)-one
_symmetry_cell_setting           orthorhombic
_symmetry_space_group_name_H-M   'P 2 2 21'
_symmetry_Int_Tables_number      17
_space_group_name_Hall           'P 2c 2'
loop_
_symmetry_equiv_pos_site_id
_symmetry_equiv_pos_as_xyz
1 x,y,z
2 -x,-y,1/2+z
3 -x,y,1/2-z
4 x,-y,-z
_cell_length_a                   7.06090(10)
_cell_length_b                   8.67570(10)
_cell_length_c                   25.6838(4)
_cell_angle_alpha                90
_cell_angle_beta                 90
_cell_angle_gamma                90
_cell_volume                     1573.34
_exptl_crystal_colour            colorless
_exptl_crystal_description       block
_cell_formula_units_Z            4
loop_
_atom_site_label
_atom_site_type_symbol
_atom_site_fract_x
_atom_site_fract_y
_atom_site_fract_z
O1 O 0.24047(16) 0.12701(10) 0.33088(4)
H1 H 0.2262 0.0532 0.3113
O2 O 0.26271(17) 0.10762(11) 0.22897(4)
O3 O -0.00739(15) 0.35919(12) 0.39192(4)
O4 O 0.19936(16) 0.80894(11) 0.29707(4)
O5 O 0.39938(15) 0.74293(11) 0.49268(4)
H2 H 0.4190 0.8248 0.5077
O6 O 0.25320(17) 0.65645(12) 0.21263(4)
H3 H 0.2382 0.7331 0.2308
O7 O 0.40710(16) 1.02173(11) 0.43123(4)
H4 H 0.3726 1.0889 0.4109
C1 C 0.2408(2) 0.26076(16) 0.30230(5)
C2 C 0.3723(2) 0.87282(15) 0.40887(5)
H5 H 0.4254 0.8719 0.3736
C3 C 0.2237(2) 0.53836(16) 0.29742(5)
C4 C 0.2604(2) 0.38642(17) 0.21815(5)
H6 H 0.2720 0.3810 0.1821
C5 C 0.22200(19) 0.39990(16) 0.32694(5)
C6 C 0.1889(2) 0.68586(16) 0.32206(6)
C7 C 0.2556(2) 0.25373(16) 0.24756(5)
C8 C 0.1612(2) 0.84128(16) 0.40491(5)
H7 H 0.1007 0.9221 0.3848
H8 H 0.1055 0.8405 0.4394
C9 C 0.2272(2) 0.55829(15) 0.40985(5)
H9 H 0.1707 0.5575 0.4447
C10 C 0.4753(2) 0.75033(16) 0.44110(5)
C11 C 0.4386(2) 0.59187(17) 0.41640(5)
H10 H 0.4948 0.5126 0.4381
H11 H 0.4996 0.5878 0.3826
C12 C 0.2475(2) 0.52847(15) 0.24290(5)
C13 C 0.1879(2) 0.40200(16) 0.38526(5)
H12 H 0.2686 0.3242 0.4018
C14 C 0.1290(2) 0.68591(16) 0.37860(5)
H13 H -0.0074 0.6651 0.3795
C15 C 0.2605(2) 0.08626(19) 0.17375(5)
H14 H 0.2650 -0.0219 0.1659
H15 H 0.3684 0.1366 0.1586
H16 H 0.1466 0.1298 0.1596
C16 C 0.6865(2) 0.78419(18) 0.44276(6)
H17 H 0.7495 0.7064 0.4630
H18 H 0.7071 0.8833 0.4584
H19 H 0.7364 0.7842 0.4080
C17 C -0.0497(3) 0.2973(2) 0.44149(6)
H20 H -0.1816 0.2710 0.4431
H21 H -0.0215 0.3724 0.4678
H22 H 0.0253 0.2066 0.4472
loop_
_geom_bond_atom_site_label_1
_geom_bond_atom_site_label_2
_geom_bond_site_symmetry_1
_geom_bond_site_symmetry_2
O1 H1 1_555 1_555
O2 C7 1_555 1_555
O3 C13 1_555 1_555
O4 C6 1_555 1_555
O5 H2 1_555 1_555
O6 H3 1_555 1_555
O7 H4 1_555 1_555
C1 O1 1_555 1_555
C2 O7 1_555 1_555
H5 C2 1_555 1_555
C3 C5 1_555 1_555
C4 H6 1_555 1_555
C5 C1 1_555 1_555
C6 C3 1_555 1_555
C7 C1 1_555 1_555
C8 C2 1_555 1_555
H7 C8 1_555 1_555
H8 C8 1_555 1_555
C9 H9 1_555 1_555
C10 O5 1_555 1_555
C11 C9 1_555 1_555
H10 C11 1_555 1_555
H11 C11 1_555 1_555
C12 O6 1_555 1_555
C13 C5 1_555 1_555
H12 C13 1_555 1_555
C14 C6 1_555 1_555
H13 C14 1_555 1_555
C15 O2 1_555 1_555
H14 C15 1_555 1_555
H15 C15 1_555 1_555
H16 C15 1_555 1_555
C16 C10 1_555 1_555
H17 C16 1_555 1_555
H18 C16 1_555 1_555
H19 C16 1_555 1_555
C17 O3 1_555 1_555
H20 C17 1_555 1_555
H21 C17 1_555 1_555
H22 C17 1_555 1_555
C2 C10 1_555 1_555
C3 C12 1_555 1_555
C4 C7 1_555 1_555
C4 C12 1_555 1_555
C8 C14 1_555 1_555
C9 C13 1_555 1_555
C9 C14 1_555 1_555
C10 C11 1_555 1_555

#END
