
#######################################################################
#
#                 Cambridge Crystallographic Data Centre
#                                CCDC 
#
#######################################################################
#
# If this CIF has been generated from an entry in the Cambridge 
# Structural Database, then it will include bibliographic, chemical, 
# crystal, experimental, refinement or atomic coordinate data resulting 
# from the CCDC's data processing and validation procedures.
#
#######################################################################

data_BEMDOP
_chemical_formula_moiety         'C15 H18 N2 O4 S1'
_chemical_name_systematic        
'benzyl (4-(2,5-dioxo-1,3-thiazolidin-4-yl)butyl)carbamate'
_symmetry_cell_setting           monoclinic
_symmetry_space_group_name_H-M   'P 21'
_symmetry_Int_Tables_number      4
_space_group_name_Hall           'P 2yb'
loop_
_symmetry_equiv_pos_site_id
_symmetry_equiv_pos_as_xyz
1 x,y,z
2 -x,1/2+y,-z
_cell_length_a                   7.9376(6)
_cell_length_b                   18.7907(10)
_cell_length_c                   11.1825(9)
_cell_angle_alpha                90
_cell_angle_beta                 108.097(3)
_cell_angle_gamma                90
_cell_volume                     1585.4
_exptl_crystal_colour            colorless
_exptl_crystal_description       needle
_cell_formula_units_Z            4
loop_
_atom_site_label
_atom_site_type_symbol
_atom_site_fract_x
_atom_site_fract_y
_atom_site_fract_z
S1 S 0.7756(2) 0.81704(8) 0.19931(13)
O1 O 0.7095(7) 0.8468(2) 0.4123(4)
O2 O 0.9145(6) 0.7109(2) 0.1090(4)
O3 O 0.6569(6) 0.27183(18) 0.4472(3)
O4 O 0.7650(5) 0.3347(2) 0.6271(3)
N1 N 0.8464(6) 0.7404(2) 0.4006(4)
H1 H 0.848(6) 0.728(3) 0.477(3)
N2 N 0.7660(8) 0.3782(2) 0.4403(4)
H2 H 0.755(8) 0.366(3) 0.361(3)
C1 C 0.7746(8) 0.8028(3) 0.3586(5)
C2 C 0.9086(8) 0.6948(3) 0.3200(4)
H3 H 1.0391 0.6878 0.3591
C3 C 0.8776(8) 0.7339(3) 0.1961(5)
C4 C 0.8210(8) 0.6220(3) 0.2968(4)
H4 H 0.8497 0.5990 0.2258
H5 H 0.6908 0.6283 0.2714
C5 C 0.8771(7) 0.5725(2) 0.4101(4)
H6 H 0.8430 0.5937 0.4803
H7 H 1.0076 0.5670 0.4380
C6 C 0.7899(8) 0.4996(2) 0.3779(4)
H8 H 0.6598 0.5054 0.3552
H9 H 0.8165 0.4807 0.3030
C7 C 0.8488(9) 0.4461(2) 0.4823(5)
H10 H 0.9793 0.4409 0.5081
H11 H 0.8156 0.4627 0.5560
C8 C 0.7320(8) 0.3290(3) 0.5147(5)
C9 C 0.6011(8) 0.2154(3) 0.5103(5)
H12 H 0.4768 0.2230 0.5083
H13 H 0.6766 0.2133 0.5993
C10 C 0.6163(7) 0.1473(3) 0.4448(4)
C11 C 0.6836(8) 0.1421(3) 0.3459(5)
H14 H 0.7233 0.1840 0.3153
C12 C 0.6951(8) 0.0775(3) 0.2898(5)
H15 H 0.7395 0.0755 0.2201
C13 C 0.6426(8) 0.0165(3) 0.3346(6)
H16 H 0.6531 -0.0278 0.2969
C14 C 0.5758(9) 0.0187(3) 0.4320(6)
H17 H 0.5400 -0.0240 0.4628
C15 C 0.5596(8) 0.0844(3) 0.4873(5)
H18 H 0.5096 0.0861 0.5542
S2 S 0.6443(2) 0.22549(8) 1.03209(13)
O5 O 0.5880(6) 0.1964(2) 0.7922(3)
O6 O 0.7825(6) 0.3310(2) 1.1859(3)
O7 O 0.8160(6) 0.77861(19) 0.7997(3)
O8 O 0.8415(6) 0.70375(19) 0.6471(3)
N3 N 0.7262(6) 0.3016(2) 0.8655(4)
H19 H 0.743(6) 0.315(3) 0.794(3)
N4 N 0.8556(8) 0.6639(2) 0.8411(4)
H20 H 0.857(7) 0.680(3) 0.916(3)
C16 C 0.6492(8) 0.2397(3) 0.8734(5)
C17 C 0.8082(7) 0.3415(2) 0.9786(4)
H21 H 0.9398 0.3377 0.9989
C18 C 0.7547(8) 0.3062(3) 1.0826(5)
C19 C 0.7577(8) 0.4203(3) 0.9687(5)
H22 H 0.6269 0.4240 0.9369
H23 H 0.7971 0.4412 1.0542
C20 C 0.8339(8) 0.4643(3) 0.8849(5)
H24 H 0.7781 0.4498 0.7963
H25 H 0.9627 0.4550 0.9071
C21 C 0.8034(8) 0.5435(2) 0.8980(5)
H26 H 0.6744 0.5524 0.8757
H27 H 0.8580 0.5575 0.9871
C22 C 0.8776(9) 0.5890(3) 0.8177(5)
H28 H 1.0052 0.5783 0.8356
H29 H 0.8166 0.5782 0.7280
C23 C 0.8390(8) 0.7134(3) 0.7537(5)
C24 C 0.7821(8) 0.8372(3) 0.7120(5)
H30 H 0.6747 0.8275 0.6401
H31 H 0.8835 0.8436 0.6792
C25 C 0.7562(7) 0.9026(3) 0.7795(4)
C26 C 0.6805(8) 0.9004(3) 0.8749(6)
H32 H 0.6456 0.8560 0.9005
C27 C 0.6553(9) 0.9622(3) 0.9332(6)
H33 H 0.6059 0.9598 1.0004
C28 C 0.6998(8) 1.0267(3) 0.8966(5)
H34 H 0.6784 1.0692 0.9357
C29 C 0.7759(8) 1.0292(3) 0.8025(6)
H35 H 0.8106 1.0735 0.7766
C30 C 0.8017(9) 0.9674(3) 0.7459(6)
H36 H 0.8538 0.9700 0.6801
loop_
_geom_bond_atom_site_label_1
_geom_bond_atom_site_label_2
_geom_bond_site_symmetry_1
_geom_bond_site_symmetry_2
S1 C1 1_555 1_555
O1 C1 1_555 1_555
O2 C3 1_555 1_555
O3 C8 1_555 1_555
O4 C8 1_555 1_555
N1 H1 1_555 1_555
N2 H2 1_555 1_555
C1 N1 1_555 1_555
C2 N1 1_555 1_555
H3 C2 1_555 1_555
C3 S1 1_555 1_555
C4 C2 1_555 1_555
H4 C4 1_555 1_555
H5 C4 1_555 1_555
C5 C4 1_555 1_555
H6 C5 1_555 1_555
H7 C5 1_555 1_555
C6 C5 1_555 1_555
H8 C6 1_555 1_555
H9 C6 1_555 1_555
C7 N2 1_555 1_555
H10 C7 1_555 1_555
H11 C7 1_555 1_555
C8 N2 1_555 1_555
C9 O3 1_555 1_555
H12 C9 1_555 1_555
H13 C9 1_555 1_555
C10 C9 1_555 1_555
C11 C10 1_555 1_555
H14 C11 1_555 1_555
C12 C11 1_555 1_555
H15 C12 1_555 1_555
C13 C12 1_555 1_555
H16 C13 1_555 1_555
C14 C13 1_555 1_555
H17 C14 1_555 1_555
C15 C10 1_555 1_555
H18 C15 1_555 1_555
S2 C16 1_555 1_555
O5 C16 1_555 1_555
O6 C18 1_555 1_555
O7 C23 1_555 1_555
O8 C23 1_555 1_555
N3 H19 1_555 1_555
N4 H20 1_555 1_555
C16 N3 1_555 1_555
C17 N3 1_555 1_555
H21 C17 1_555 1_555
C18 S2 1_555 1_555
C19 C17 1_555 1_555
H22 C19 1_555 1_555
H23 C19 1_555 1_555
C20 C19 1_555 1_555
H24 C20 1_555 1_555
H25 C20 1_555 1_555
C21 C20 1_555 1_555
H26 C21 1_555 1_555
H27 C21 1_555 1_555
C22 N4 1_555 1_555
H28 C22 1_555 1_555
H29 C22 1_555 1_555
C23 N4 1_555 1_555
C24 O7 1_555 1_555
H30 C24 1_555 1_555
H31 C24 1_555 1_555
C25 C24 1_555 1_555
C26 C25 1_555 1_555
H32 C26 1_555 1_555
C27 C26 1_555 1_555
H33 C27 1_555 1_555
C28 C27 1_555 1_555
H34 C28 1_555 1_555
C29 C28 1_555 1_555
H35 C29 1_555 1_555
C30 C25 1_555 1_555
H36 C30 1_555 1_555
C2 C3 1_555 1_555
C6 C7 1_555 1_555
C14 C15 1_555 1_555
C17 C18 1_555 1_555
C21 C22 1_555 1_555
C29 C30 1_555 1_555

#END
