
#######################################################################
#
#                 Cambridge Crystallographic Data Centre
#                                CCDC 
#
#######################################################################
#
# If this CIF has been generated from an entry in the Cambridge 
# Structural Database, then it will include bibliographic, chemical, 
# crystal, experimental, refinement or atomic coordinate data resulting 
# from the CCDC's data processing and validation procedures.
#
#######################################################################

data_BEMSUJ
_chemical_compound_source        'lateral root of Aconitum carmichaelii'
_chemical_name_common            
'(-)-8beta-Acetoxy-14alpha-benzoyloxy-N-ethyl-3alpha,10beta,13beta,15alpha-tetrahydroxy-1alpha,6alpha,16beta,18-tetramethoxyaconitane trifluoroacetic acid methanol solvate'
_chemical_formula_moiety         'C2 H1 F3 O2,C1 H4 O1,C34 H47 N1 O12'
_chemical_name_systematic        
'8-Acetoxy-20-ethyl-3,10,13,15-tetrahydroxy-1,6,16-trimethoxy-4-(methoxymethyl)aconitan-14-yl benzoate trifluoroacetic acid methanol solvate'
_symmetry_cell_setting           orthorhombic
_symmetry_space_group_name_H-M   'P 21 21 21'
_symmetry_Int_Tables_number      19
_space_group_name_Hall           'P 2ac 2ab'
loop_
_symmetry_equiv_pos_site_id
_symmetry_equiv_pos_as_xyz
1 x,y,z
2 1/2-x,-y,1/2+z
3 1/2+x,1/2-y,-z
4 -x,1/2+y,1/2-z
_cell_length_a                   10.296(3)
_cell_length_b                   15.228(3)
_cell_length_c                   23.631(6)
_cell_angle_alpha                90
_cell_angle_beta                 90
_cell_angle_gamma                90
_cell_volume                     3705.05
_exptl_crystal_colour            colorless
_exptl_crystal_description       plane
_cell_formula_units_Z            4
loop_
_atom_site_label
_atom_site_type_symbol
_atom_site_fract_x
_atom_site_fract_y
_atom_site_fract_z
N1 N 0.5379(2) 0.61276(17) 0.71509(9)
O1 O 0.7588(2) 0.56423(15) 0.66373(8)
O2 O 0.5713(2) 0.42948(17) 0.70034(9)
H1 H 0.6198 0.3868 0.7000
O3 O 0.2741(3) 0.43172(19) 0.58956(10)
O4 O 0.2333(2) 0.65819(16) 0.63447(10)
O5 O 0.6256(2) 0.65544(13) 0.51128(7)
H2 H 0.5517 0.6571 0.4984
O6 O 0.8895(2) 0.85862(16) 0.55650(9)
H3 H 0.8827 0.9113 0.5499
O7 O 0.8036(3) 0.94313(16) 0.64508(11)
O8 O 0.6224(2) 0.93791(13) 0.54465(8)
O9 O 0.4804(3) 0.92834(17) 0.47289(10)
O10 O 0.3875(2) 0.86925(14) 0.60211(8)
O11 O 0.3484(3) 0.9333(2) 0.68523(10)
O12 O 0.5927(2) 0.85741(16) 0.71337(8)
H4 H 0.5344 0.8876 0.7269
C1 C 0.6882(3) 0.55353(19) 0.61168(11)
H5 H 0.7480 0.5642 0.5802
C2 C 0.6290(3) 0.4635(2) 0.60399(12)
H6 H 0.6966 0.4197 0.6086
H7 H 0.5962 0.4587 0.5656
C3 C 0.5197(3) 0.4434(2) 0.64487(12)
H8 H 0.4764 0.3894 0.6325
C4 C 0.4160(3) 0.5184(2) 0.64825(12)
C5 C 0.4409(3) 0.59228(19) 0.60320(10)
H9 H 0.4282 0.5697 0.5648
C6 C 0.3589(3) 0.6758(2) 0.61298(11)
H10 H 0.3494 0.7061 0.5766
C7 C 0.4455(3) 0.73466(19) 0.65273(10)
H11 H 0.3984 0.7521 0.6869
C8 C 0.4978(3) 0.81486(19) 0.62055(10)
C9 C 0.5513(3) 0.78358(18) 0.56300(10)
H12 H 0.4798 0.7783 0.5358
C10 C 0.6272(3) 0.69578(17) 0.56578(9)
C11 C 0.5823(3) 0.62719(18) 0.61115(10)
C12 C 0.7695(3) 0.72585(19) 0.57563(11)
H13 H 0.8019 0.7025 0.6111
H14 H 0.8248 0.7048 0.5453
C13 C 0.7699(3) 0.8261(2) 0.57710(11)
C14 C 0.6547(3) 0.84654(18) 0.53953(11)
H15 H 0.6746 0.8320 0.5001
C15 C 0.5984(3) 0.87095(19) 0.65430(10)
H16 H 0.5761 0.9327 0.6477
C16 C 0.7437(3) 0.8602(2) 0.63818(11)
H17 H 0.7835 0.8191 0.6649
C17 C 0.5632(3) 0.67658(18) 0.66695(10)
H18 H 0.6393 0.7130 0.6753
C18 C 0.2833(3) 0.4726(2) 0.64240(15)
H19 H 0.2734 0.4292 0.6721
H20 H 0.2142 0.5155 0.6464
C19 C 0.4154(3) 0.5616(2) 0.70650(11)
H21 H 0.3411 0.6005 0.7097
H22 H 0.4079 0.5169 0.7356
C20 C 0.5419(4) 0.6552(3) 0.77232(11)
H23 H 0.5039 0.6158 0.8000
H24 H 0.4903 0.7085 0.7716
C21 C 0.6782(5) 0.6772(3) 0.78970(15)
H25 H 0.6773 0.7039 0.8265
H26 H 0.7153 0.7174 0.7629
H27 H 0.7293 0.6245 0.7909
C22 C 0.8788(4) 0.5165(3) 0.66634(17)
H28 H 0.9200 0.5271 0.7021
H29 H 0.9349 0.5355 0.6363
H30 H 0.8616 0.4548 0.6623
C23 C 0.1719(5) 0.3700(3) 0.5884(2)
H31 H 0.1679 0.3431 0.5517
H32 H 0.0912 0.3992 0.5962
H33 H 0.1871 0.3257 0.6166
C24 C 0.1438(4) 0.7269(3) 0.62795(16)
H34 H 0.0614 0.7095 0.6432
H35 H 0.1343 0.7404 0.5885
H36 H 0.1747 0.7779 0.6477
C25 C 0.3236(3) 0.9241(2) 0.63673(13)
C26 C 0.2173(4) 0.9701(3) 0.60647(18)
H37 H 0.1730 1.0086 0.6322
H38 H 0.1571 0.9278 0.5917
H39 H 0.2530 1.0038 0.5759
C27 C 0.5304(3) 0.9695(2) 0.51027(12)
C28 C 0.8838(6) 0.9507(4) 0.6932(2)
H40 H 0.9203 1.0086 0.6947
H41 H 0.9526 0.9082 0.6910
H42 H 0.8333 0.9403 0.7267
C29 C 0.4977(3) 1.0620(2) 0.52518(13)
C30 C 0.3959(5) 1.1020(3) 0.49649(18)
H43 H 0.3483 1.0702 0.4701
C31 C 0.3653(7) 1.1876(3) 0.5067(3)
H44 H 0.2980 1.2145 0.4870
C32 C 0.4358(7) 1.2343(3) 0.5470(2)
H45 H 0.4144 1.2924 0.5548
C33 C 0.5360(5) 1.1954(3) 0.57519(19)
H46 H 0.5839 1.2277 0.6013
C34 C 0.5669(4) 1.1085(2) 0.56535(14)
H47 H 0.6335 1.0816 0.5855
C35 C 0.9067(7) 0.0340(4) 0.5235(3)
H48 H 0.8190 0.0144 0.5178
H49 H 0.9658 -0.0106 0.5109
O13 O 0.9466(14) 0.0990(12) 0.5513(5)
H50 H 0.8864 0.1199 0.5696
C36 C 0.8065(6) 0.2466(7) 0.6838(4)
C37 C 0.9349(6) 0.2270(4) 0.7052(3)
F1 F 0.9128(16) 0.1649(5) 0.7448(3)
O14 O 0.782(2) 0.1576(11) 0.6603(16)
H51 H 0.8324 0.1483 0.6341
O15 O 0.7137(11) 0.2884(7) 0.6901(9)
F2 F 1.012(2) 0.176(3) 0.6736(11)
F3 F 1.0004(14) 0.283(2) 0.7388(14)
H52? H 0.9211 0.0869 0.5024
F4? F 0.9892(18) 0.165(2) 0.7368(15)
F5? F 1.0017(17) 0.3033(9) 0.708(2)
F6? F 1.023(3) 0.212(5) 0.6636(15)
H53? H 0.8431 0.3383 0.6338
H54? H 0.8578 0.0462 0.5979
O16? O 0.8286(16) 0.2857(8) 0.6298(4)
O17? O 0.7360(13) 0.2880(9) 0.7136(6)
O18? O 0.927(2) 0.0502(14) 0.5809(9)
loop_
_geom_bond_atom_site_label_1
_geom_bond_atom_site_label_2
_geom_bond_site_symmetry_1
_geom_bond_site_symmetry_2
N1 C17 1_555 1_555
O1 C1 1_555 1_555
O2 H1 1_555 1_555
O3 C18 1_555 1_555
O4 C6 1_555 1_555
O5 H2 1_555 1_555
O6 H3 1_555 1_555
O7 C16 1_555 1_555
O8 C14 1_555 1_555
O9 C27 1_555 1_555
O10 C8 1_555 1_555
O11 C25 1_555 1_555
O12 H4 1_555 1_555
C1 H5 1_555 1_555
C2 C1 1_555 1_555
H6 C2 1_555 1_555
H7 C2 1_555 1_555
C3 O2 1_555 1_555
H8 C3 1_555 1_555
C4 C3 1_555 1_555
C5 C4 1_555 1_555
H9 C5 1_555 1_555
C6 C5 1_555 1_555
H10 C6 1_555 1_555
C7 C6 1_555 1_555
H11 C7 1_555 1_555
C8 C7 1_555 1_555
C9 C8 1_555 1_555
H12 C9 1_555 1_555
C10 O5 1_555 1_555
C11 C1 1_555 1_555
C12 C10 1_555 1_555
H13 C12 1_555 1_555
H14 C12 1_555 1_555
C13 O6 1_555 1_555
C14 C9 1_555 1_555
H15 C14 1_555 1_555
C15 O12 1_555 1_555
H16 C15 1_555 1_555
C16 C13 1_555 1_555
H17 C16 1_555 1_555
C17 C7 1_555 1_555
H18 C17 1_555 1_555
C18 C4 1_555 1_555
H19 C18 1_555 1_555
H20 C18 1_555 1_555
C19 N1 1_555 1_555
H21 C19 1_555 1_555
H22 C19 1_555 1_555
C20 N1 1_555 1_555
H23 C20 1_555 1_555
H24 C20 1_555 1_555
C21 C20 1_555 1_555
H25 C21 1_555 1_555
H26 C21 1_555 1_555
H27 C21 1_555 1_555
C22 O1 1_555 1_555
H28 C22 1_555 1_555
H29 C22 1_555 1_555
H30 C22 1_555 1_555
C23 O3 1_555 1_555
H31 C23 1_555 1_555
H32 C23 1_555 1_555
H33 C23 1_555 1_555
C24 O4 1_555 1_555
H34 C24 1_555 1_555
H35 C24 1_555 1_555
H36 C24 1_555 1_555
C25 O10 1_555 1_555
C26 C25 1_555 1_555
H37 C26 1_555 1_555
H38 C26 1_555 1_555
H39 C26 1_555 1_555
C27 O8 1_555 1_555
C28 O7 1_555 1_555
H40 C28 1_555 1_555
H41 C28 1_555 1_555
H42 C28 1_555 1_555
C29 C27 1_555 1_555
C30 C29 1_555 1_555
H43 C30 1_555 1_555
C31 C30 1_555 1_555
H44 C31 1_555 1_555
C32 C31 1_555 1_555
H45 C32 1_555 1_555
C33 C32 1_555 1_555
H46 C33 1_555 1_555
C34 C29 1_555 1_555
H47 C34 1_555 1_555
C35 H48 1_555 1_555
H49 C35 1_555 1_555
O13 C35 1_555 1_555
H50 O13 1_555 1_555
C36 C37 1_555 1_555
C37 F1 1_555 1_555
O14 C36 1_555 1_555
H51 O14 1_555 1_555
O15 C36 1_555 1_555
F2 C37 1_555 1_555
F3 C37 1_555 1_555
C2 C3 1_555 1_555
C4 C19 1_555 1_555
C5 C11 1_555 1_555
C8 C15 1_555 1_555
C9 C10 1_555 1_555
C10 C11 1_555 1_555
C11 C17 1_555 1_555
C12 C13 1_555 1_555
C13 C14 1_555 1_555
C15 C16 1_555 1_555
C33 C34 1_555 1_555

#END
