
#######################################################################
#
#                 Cambridge Crystallographic Data Centre
#                                CCDC 
#
#######################################################################
#
# If this CIF has been generated from an entry in the Cambridge 
# Structural Database, then it will include bibliographic, chemical, 
# crystal, experimental, refinement or atomic coordinate data resulting 
# from the CCDC's data processing and validation procedures.
#
#######################################################################

data_BEMSET
_chemical_compound_source        'leaves of I . eriocalyx var. laxiflora'
_chemical_name_common            'laxiflorolide B'
_chemical_formula_moiety         'C22 H30 O7'
_chemical_name_systematic        
6-Hydroxy-13-(3-hydroxy-5-methyl-2-oxotetrahydrofuran-3-yl)-3,17-epoxypodocarpane-1,7-dione
_symmetry_cell_setting           orthorhombic
_symmetry_space_group_name_H-M   'P 21 21 21'
_symmetry_Int_Tables_number      19
_space_group_name_Hall           'P 2ac 2ab'
loop_
_symmetry_equiv_pos_site_id
_symmetry_equiv_pos_as_xyz
1 x,y,z
2 1/2+x,1/2-y,-z
3 -x,1/2+y,1/2-z
4 1/2-x,-y,1/2+z
_cell_length_a                   6.6090(1)
_cell_length_b                   15.7487(1)
_cell_length_c                   19.7887(2)
_cell_angle_alpha                90
_cell_angle_beta                 90
_cell_angle_gamma                90
_cell_volume                     2059.67
_exptl_crystal_colour            colorless
_exptl_crystal_description       needle
_cell_formula_units_Z            4
loop_
_atom_site_label
_atom_site_type_symbol
_atom_site_fract_x
_atom_site_fract_y
_atom_site_fract_z
O1 O 0.5852(2) 1.15249(8) 1.01636(7)
O2 O 0.7783(2) 1.07999(9) 0.94400(8)
O3 O 0.3891(2) 1.15117(7) 0.87755(6)
H1 H 0.4739 1.1437 0.8465
O4 O 0.4214(2) 0.76755(8) 1.01348(6)
O5 O 0.4555(2) 0.61171(8) 0.96694(7)
H2 H 0.4332 0.6322 1.0054
O6 O 0.3452(2) 0.65713(9) 0.72915(7)
O7 O -0.1386(2) 0.76845(9) 0.81568(7)
C1 C 0.3142(4) 1.18658(14) 1.09479(10)
H3 H 0.3345 1.1325 1.1184
H4 H 0.1719 1.2035 1.0983
H5 H 0.3998 1.2303 1.1154
C2 C 0.3705(3) 1.17634(11) 1.02113(9)
H6 H 0.3487 1.2314 0.9971
C3 C 0.2622(3) 1.10596(11) 0.98318(9)
H7 H 0.2381 1.0561 1.0126
H8 H 0.1314 1.1259 0.9647
C4 C 0.4108(3) 1.08534(11) 0.92728(8)
C5 C 0.4013(3) 0.99777(10) 0.89441(8)
H9 H 0.5147 0.9947 0.8610
C6 C 0.4286(3) 0.92334(10) 0.94342(8)
H10 H 0.3177 0.9238 0.9771
H11 H 0.5582 0.9299 0.9680
C7 C 0.4280(3) 0.83841(11) 0.90561(8)
H12 H 0.5487 0.8363 0.8752
C8 C 0.2338(3) 0.82803(10) 0.86201(8)
H13 H 0.1169 0.8295 0.8941
C9 C 0.2226(3) 0.74224(11) 0.82534(8)
C10 C 0.2610(3) 0.66463(10) 0.87269(8)
H14 H 0.1418 0.6616 0.9037
C11 C 0.2603(3) 0.57934(12) 0.83117(9)
C12 C 0.1095(4) 0.51674(12) 0.86213(10)
H15 H 0.0938 0.4677 0.8321
H16 H -0.0217 0.5448 0.8680
H17 H 0.1598 0.4976 0.9061
C13 C 0.1956(3) 0.60237(12) 0.75855(9)
H18 H 0.1862 0.5492 0.7311
C14 C 0.4674(4) 0.53585(14) 0.82723(12)
H19 H 0.5114 0.5198 0.8728
H20 H 0.5661 0.5750 0.8074
H21 H 0.4572 0.4849 0.7990
C15 C 0.2046(3) 0.98684(11) 0.85488(9)
H22 H 0.0887 0.9865 0.8866
H23 H 0.1871 1.0352 0.8235
C16 C 0.2082(3) 0.90401(11) 0.81499(8)
H24 H 0.3212 0.9053 0.7822
H25 H 0.0803 0.8981 0.7894
C17 C 0.6138(3) 1.10278(10) 0.96177(9)
C18 C 0.4346(3) 0.76329(11) 0.95222(9)
C19 C 0.4481(3) 0.67689(11) 0.91824(9)
H26 H 0.5731 0.6746 0.8898
C20 C 0.3643(3) 0.73700(11) 0.76378(8)
H27 H 0.3319 0.7837 0.7321
H28 H 0.5060 0.7444 0.7789
C21 C 0.0066(3) 0.72622(12) 0.80020(8)
C22 C -0.0057(3) 0.64822(12) 0.75601(10)
H29 H -0.0370 0.6649 0.7089
H30 H -0.1148 0.6103 0.7723
loop_
_geom_bond_atom_site_label_1
_geom_bond_atom_site_label_2
_geom_bond_site_symmetry_1
_geom_bond_site_symmetry_2
O1 C2 1_555 1_555
O2 C17 1_555 1_555
O3 H1 1_555 1_555
O4 C18 1_555 1_555
O5 H2 1_555 1_555
O6 C13 1_555 1_555
O7 C21 1_555 1_555
C1 H3 1_555 1_555
H4 C1 1_555 1_555
H5 C1 1_555 1_555
C2 C1 1_555 1_555
H6 C2 1_555 1_555
C3 C2 1_555 1_555
H7 C3 1_555 1_555
H8 C3 1_555 1_555
C4 O3 1_555 1_555
C5 C4 1_555 1_555
H9 C5 1_555 1_555
C6 C5 1_555 1_555
H10 C6 1_555 1_555
H11 C6 1_555 1_555
C7 C6 1_555 1_555
H12 C7 1_555 1_555
C8 C7 1_555 1_555
H13 C8 1_555 1_555
C9 C8 1_555 1_555
C10 C9 1_555 1_555
H14 C10 1_555 1_555
C11 C10 1_555 1_555
C12 C11 1_555 1_555
H15 C12 1_555 1_555
H16 C12 1_555 1_555
H17 C12 1_555 1_555
C13 C11 1_555 1_555
H18 C13 1_555 1_555
C14 C11 1_555 1_555
H19 C14 1_555 1_555
H20 C14 1_555 1_555
H21 C14 1_555 1_555
C15 C5 1_555 1_555
H22 C15 1_555 1_555
H23 C15 1_555 1_555
C16 C8 1_555 1_555
H24 C16 1_555 1_555
H25 C16 1_555 1_555
C17 O1 1_555 1_555
C18 C7 1_555 1_555
C19 O5 1_555 1_555
H26 C19 1_555 1_555
C20 O6 1_555 1_555
H27 C20 1_555 1_555
H28 C20 1_555 1_555
C21 C9 1_555 1_555
C22 C13 1_555 1_555
H29 C22 1_555 1_555
H30 C22 1_555 1_555
C3 C4 1_555 1_555
C4 C17 1_555 1_555
C9 C20 1_555 1_555
C10 C19 1_555 1_555
C15 C16 1_555 1_555
C18 C19 1_555 1_555
C21 C22 1_555 1_555

#END
