
#######################################################################
#
#                 Cambridge Crystallographic Data Centre
#                                CCDC 
#
#######################################################################
#
# If this CIF has been generated from an entry in the Cambridge 
# Structural Database, then it will include bibliographic, chemical, 
# crystal, experimental, refinement or atomic coordinate data resulting 
# from the CCDC's data processing and validation procedures.
#
#######################################################################

data_BENLIS
_chemical_formula_moiety         'C16 H28 F2 O1'
_chemical_name_systematic        10,10-difluoro-3-methylcyclopentadecanone
_symmetry_cell_setting           orthorhombic
_symmetry_space_group_name_H-M   'P 21 21 21'
_symmetry_Int_Tables_number      19
_space_group_name_Hall           'P 2ac 2ab'
loop_
_symmetry_equiv_pos_site_id
_symmetry_equiv_pos_as_xyz
1 x,y,z
2 1/2+x,1/2-y,-z
3 -x,1/2+y,1/2-z
4 1/2-x,-y,1/2+z
_cell_length_a                   9.942(4)
_cell_length_b                   16.734(5)
_cell_length_c                   19.125(7)
_cell_angle_alpha                90
_cell_angle_beta                 90
_cell_angle_gamma                90
_cell_volume                     3181.82
_exptl_crystal_colour            colorless
_exptl_crystal_description       platelet
_cell_formula_units_Z            8
loop_
_atom_site_label
_atom_site_type_symbol
_atom_site_fract_x
_atom_site_fract_y
_atom_site_fract_z
F1 F -0.1092(5) 0.3901(2) 0.9770(3)
F2 F -0.2010(4) 0.4124(3) 1.0787(4)
O1 O 0.4467(4) 0.4770(2) 0.97919(19)
C1 C 0.4700(5) 0.4697(3) 1.0412(3)
C2 C 0.5045(5) 0.5388(3) 1.0882(3)
H1 H 0.5957 0.5295 1.1073
H2 H 0.4413 0.5381 1.1282
C3 C 0.5018(5) 0.6217(3) 1.0568(3)
H3 H 0.5662 0.6221 1.0167
C4 C 0.3631(6) 0.6463(3) 1.0284(2)
H4 H 0.3682 0.7029 1.0138
H5 H 0.3448 0.6142 0.9860
C5 C 0.2449(5) 0.6372(3) 1.0774(2)
H6 H 0.2621 0.6689 1.1202
H7 H 0.2369 0.5804 1.0913
C6 C 0.1114(6) 0.6645(3) 1.0450(2)
H8 H 0.1151 0.7230 1.0378
H9 H 0.1019 0.6392 0.9985
C7 C -0.0127(6) 0.6450(3) 1.0881(3)
H10 H -0.0926 0.6670 1.0639
H11 H -0.0051 0.6722 1.1339
C8 C -0.0355(5) 0.5555(3) 1.1009(2)
H12 H 0.0432 0.5332 1.1260
H13 H -0.1154 0.5485 1.1313
C9 C -0.0566(6) 0.5089(3) 1.0333(3)
H14 H -0.1341 0.5325 1.0082
H15 H 0.0239 0.5162 1.0035
C10 C -0.0811(6) 0.4224(3) 1.0416(3)
C11 C 0.0208(5) 0.3706(3) 1.0769(3)
H16 H -0.0092 0.3142 1.0747
H17 H 0.0274 0.3859 1.1267
C12 C 0.1618(5) 0.3778(3) 1.0424(3)
H18 H 0.1519 0.3761 0.9909
H19 H 0.2020 0.4300 1.0550
C13 C 0.2543(6) 0.3122(3) 1.0652(3)
H20 H 0.2195 0.2608 1.0471
H21 H 0.2535 0.3092 1.1169
C14 C 0.3969(5) 0.3225(3) 1.0409(3)
H22 H 0.3968 0.3330 0.9900
H23 H 0.4464 0.2720 1.0489
C15 C 0.4705(6) 0.3897(3) 1.0774(3)
H24 H 0.4304 0.3967 1.1244
H25 H 0.5652 0.3731 1.0841
C16 C 0.5523(7) 0.6823(4) 1.1105(3)
H26 H 0.6430 0.6673 1.1258
H27 H 0.4917 0.6828 1.1510
H28 H 0.5546 0.7356 1.0893
F3 F 0.8876(3) 0.6179(2) 0.8138(2)
F4 F 0.7802(3) 0.63849(19) 0.91188(18)
O2 O 0.2271(4) 0.5189(2) 0.72537(18)
C17 C 0.1993(4) 0.5128(3) 0.7864(2)
C18 C 0.1353(6) 0.4387(4) 0.8161(3)
H29 H 0.0384 0.4401 0.8043
H30 H 0.1424 0.4415 0.8676
C19 C 0.1910(5) 0.3579(3) 0.7927(2)
H31 H 0.2045 0.3594 0.7409
C20 C 0.3258(5) 0.3388(3) 0.8274(3)
H32 H 0.3165 0.3486 0.8782
H33 H 0.3437 0.2811 0.8211
C21 C 0.4484(5) 0.3847(3) 0.8017(2)
H34 H 0.4569 0.3775 0.7505
H35 H 0.4351 0.4423 0.8109
C22 C 0.5776(5) 0.3575(3) 0.8365(2)
H36 H 0.5757 0.2985 0.8409
H37 H 0.5810 0.3800 0.8844
C23 C 0.7054(5) 0.3816(3) 0.7977(3)
H38 H 0.7838 0.3606 0.8238
H39 H 0.7050 0.3556 0.7512
C24 C 0.7243(4) 0.4706(3) 0.7875(2)
H40 H 0.6434 0.4927 0.7642
H41 H 0.8020 0.4796 0.7560
C25 C 0.7480(5) 0.5161(3) 0.8557(2)
H42 H 0.6708 0.5065 0.8873
H43 H 0.8294 0.4943 0.8787
C26 C 0.7653(5) 0.6041(3) 0.8468(3)
C27 C 0.6592(5) 0.6490(3) 0.8076(3)
H44 H 0.6607 0.6315 0.7582
H45 H 0.6820 0.7066 0.8085
C28 C 0.5172(5) 0.6385(3) 0.8359(3)
H46 H 0.5045 0.5823 0.8504
H47 H 0.5057 0.6727 0.8777
C29 C 0.4107(6) 0.6603(3) 0.7822(3)
H48 H 0.4307 0.7143 0.7639
H49 H 0.4175 0.6224 0.7426
C30 C 0.2679(6) 0.6594(4) 0.8089(3)
H50 H 0.2596 0.7002 0.8462
H51 H 0.2074 0.6754 0.7703
C31 C 0.2198(5) 0.5804(3) 0.8376(3)
H52 H 0.1335 0.5898 0.8620
H53 H 0.2855 0.5624 0.8732
C32 C 0.0903(6) 0.2921(4) 0.8097(3)
H54 H 0.0051 0.3030 0.7857
H55 H 0.0750 0.2904 0.8603
H56 H 0.1260 0.2405 0.7939
loop_
_geom_bond_atom_site_label_1
_geom_bond_atom_site_label_2
_geom_bond_site_symmetry_1
_geom_bond_site_symmetry_2
F1 C10 1_555 1_555
F2 C10 1_555 1_555
O1 C1 1_555 1_555
C1 C2 1_555 1_555
C2 H1 1_555 1_555
H2 C2 1_555 1_555
C3 C2 1_555 1_555
H3 C3 1_555 1_555
C4 C3 1_555 1_555
H4 C4 1_555 1_555
H5 C4 1_555 1_555
C5 C4 1_555 1_555
H6 C5 1_555 1_555
H7 C5 1_555 1_555
C6 C5 1_555 1_555
H8 C6 1_555 1_555
H9 C6 1_555 1_555
C7 C6 1_555 1_555
H10 C7 1_555 1_555
H11 C7 1_555 1_555
C8 C7 1_555 1_555
H12 C8 1_555 1_555
H13 C8 1_555 1_555
C9 C8 1_555 1_555
H14 C9 1_555 1_555
H15 C9 1_555 1_555
C10 C9 1_555 1_555
C11 C10 1_555 1_555
H16 C11 1_555 1_555
H17 C11 1_555 1_555
C12 C11 1_555 1_555
H18 C12 1_555 1_555
H19 C12 1_555 1_555
C13 C12 1_555 1_555
H20 C13 1_555 1_555
H21 C13 1_555 1_555
C14 C13 1_555 1_555
H22 C14 1_555 1_555
H23 C14 1_555 1_555
C15 C1 1_555 1_555
H24 C15 1_555 1_555
H25 C15 1_555 1_555
C16 C3 1_555 1_555
H26 C16 1_555 1_555
H27 C16 1_555 1_555
H28 C16 1_555 1_555
F3 C26 1_555 1_555
F4 C26 1_555 1_555
O2 C17 1_555 1_555
C17 C18 1_555 1_555
C18 H29 1_555 1_555
H30 C18 1_555 1_555
C19 C18 1_555 1_555
H31 C19 1_555 1_555
C20 C19 1_555 1_555
H32 C20 1_555 1_555
H33 C20 1_555 1_555
C21 C20 1_555 1_555
H34 C21 1_555 1_555
H35 C21 1_555 1_555
C22 C21 1_555 1_555
H36 C22 1_555 1_555
H37 C22 1_555 1_555
C23 C22 1_555 1_555
H38 C23 1_555 1_555
H39 C23 1_555 1_555
C24 C23 1_555 1_555
H40 C24 1_555 1_555
H41 C24 1_555 1_555
C25 C24 1_555 1_555
H42 C25 1_555 1_555
H43 C25 1_555 1_555
C26 C25 1_555 1_555
C27 C26 1_555 1_555
H44 C27 1_555 1_555
H45 C27 1_555 1_555
C28 C27 1_555 1_555
H46 C28 1_555 1_555
H47 C28 1_555 1_555
C29 C28 1_555 1_555
H48 C29 1_555 1_555
H49 C29 1_555 1_555
C30 C29 1_555 1_555
H50 C30 1_555 1_555
H51 C30 1_555 1_555
C31 C17 1_555 1_555
H52 C31 1_555 1_555
H53 C31 1_555 1_555
C32 C19 1_555 1_555
H54 C32 1_555 1_555
H55 C32 1_555 1_555
H56 C32 1_555 1_555
C14 C15 1_555 1_555
C30 C31 1_555 1_555

#END
