
#######################################################################
#
#                 Cambridge Crystallographic Data Centre
#                                CCDC 
#
#######################################################################
#
# If this CIF has been generated from an entry in the Cambridge 
# Structural Database, then it will include bibliographic, chemical, 
# crystal, experimental, refinement or atomic coordinate data resulting 
# from the CCDC's data processing and validation procedures.
#
#######################################################################

data_BENRIX
_chemical_name_common            
3,13-Dimesityl-8,8,18,18-tetramethylbacteriochlorin
_chemical_formula_moiety         'C42 H46 N4'
_chemical_name_systematic        
7,17-Dimesityl-2,2,12,12-tetramethyl-2,3,12,13-tetrahydroporphyrin
_symmetry_cell_setting           triclinic
_symmetry_space_group_name_H-M   'P -1'
_symmetry_Int_Tables_number      2
_space_group_name_Hall           '-P 1'
loop_
_symmetry_equiv_pos_site_id
_symmetry_equiv_pos_as_xyz
1 x,y,z
2 -x,-y,-z
_cell_length_a                   7.2455(3)
_cell_length_b                   10.4695(3)
_cell_length_c                   12.0705(5)
_cell_angle_alpha                71.0943(16)
_cell_angle_beta                 85.586(2)
_cell_angle_gamma                74.8557(17)
_cell_volume                     836.121
_exptl_crystal_colour            'dark green'
_exptl_crystal_description       prism
_cell_formula_units_Z            1
loop_
_atom_site_label
_atom_site_type_symbol
_atom_site_fract_x
_atom_site_fract_y
_atom_site_fract_z
N1 N 0.39135(16) 0.21325(11) 0.41977(10)
N2 N 0.24595(16) -0.00082(10) 0.59742(9)
C1 C 0.21703(19) 0.29260(13) 0.43967(11)
C2 C 0.20358(20) 0.43074(13) 0.36334(12)
C3 C 0.37010(19) 0.43272(12) 0.30041(11)
C4 C 0.49088(19) 0.29444(13) 0.33693(11)
C5 C 0.67499(20) 0.25041(13) 0.29778(12)
C6 C 0.79621(19) 0.11712(13) 0.32692(11)
C7 C 0.9971(2) 0.08773(13) 0.27955(13)
C8 C -0.05405(19) 0.07245(13) 0.68899(11)
C9 C 0.09689(19) 0.10967(12) 0.59620(11)
C10 C 0.08302(20) 0.24462(13) 0.52202(12)
C11 C 0.41916(19) 0.55102(12) 0.20555(12)
C12 C 0.32778(19) 0.59946(13) 0.09642(12)
C13 C 0.3800(2) 0.70623(14) 0.00734(13)
C14 C 0.5231(2) 0.76515(13) 0.02231(13)
C15 C 0.6102(2) 0.71783(13) 0.13157(13)
C16 C 0.56002(19) 0.61216(13) 0.22436(12)
C17 C 0.1750(3) 0.53725(17) 0.07213(16)
C18 C 0.5824(3) 0.87557(18) -0.07945(16)
C19 C 0.6581(2) 0.56632(16) 0.34136(14)
C20 C -0.0215(3) 0.11616(16) 0.79402(14)
C21 C -0.2582(2) 0.13757(15) 0.64425(14)
H1 H 0.441(3) 0.1214(18) 0.4569(14)
H2 H 0.089(2) 0.5077(16) 0.3613(12)
H3 H 0.726(2) 0.3294(15) 0.2428(12)
H4 H 1.001(2) 0.1375(16) 0.1929(13)
H5 H 1.085(2) 0.1186(15) 0.3255(13)
H6 H -0.032(2) 0.3167(15) 0.5266(12)
H7 H 0.323(2) 0.7357(15) -0.0660(14)
H8 H 0.710(3) 0.7548(18) 0.1465(14)
H9 H 0.061(3) 0.554(2) 0.1172(17)
H10 H 0.202(3) 0.431(2) 0.1144(17)
H11 H 0.161(3) 0.554(2) -0.0078(19)
H12 H 0.695(3) 0.892(2) -0.0499(18)
H13 H 0.631(3) 0.836(2) -0.1437(17)
H14 H 0.481(4) 0.956(3) -0.105(2)
H15 H 0.566(3) 0.5541(18) 0.4095(15)
H16 H 0.751(3) 0.482(2) 0.3547(15)
H17 H 0.716(3) 0.6372(19) 0.3490(15)
H18 H 0.112(3) 0.0607(18) 0.8289(14)
H19 H -0.112(2) 0.0904(17) 0.8564(14)
H20 H -0.031(3) 0.2144(19) 0.7701(15)
H21 H -0.350(2) 0.1071(16) 0.7046(14)
H22 H -0.280(2) 0.2445(17) 0.6219(13)
H23 H -0.276(2) 0.1123(16) 0.5746(14)
N1A N 0.60865(16) -0.21325(11) 0.58023(10)
N2A N 0.75405(16) 0.00082(10) 0.40258(9)
C1A C 0.78297(19) -0.29260(13) 0.56033(11)
C2A C 0.79642(20) -0.43074(13) 0.63666(12)
C3A C 0.62990(19) -0.43272(12) 0.69959(11)
C4A C 0.50912(19) -0.29444(13) 0.66307(11)
C5A C 0.32501(20) -0.25041(13) 0.70222(12)
C6A C 0.20379(19) -0.11712(13) 0.67308(11)
C7A C 0.0029(2) -0.08773(13) 0.72045(13)
C8A C 1.05405(19) -0.07245(13) 0.31101(11)
C9A C 0.90311(19) -0.10967(12) 0.40380(11)
C10A C 0.91698(20) -0.24462(13) 0.47798(12)
C11A C 0.58084(19) -0.55102(12) 0.79445(12)
C12A C 0.67222(19) -0.59946(13) 0.90358(12)
C13A C 0.6200(2) -0.70623(14) 0.99266(13)
C14A C 0.4769(2) -0.76515(13) 0.97769(13)
C15A C 0.3898(2) -0.71783(13) 0.86843(13)
C16A C 0.43998(19) -0.61216(13) 0.77564(12)
C17A C 0.8250(3) -0.53725(17) 0.92787(16)
C18A C 0.4176(3) -0.87557(18) 1.07945(16)
C19A C 0.3419(2) -0.56632(16) 0.65864(14)
C20A C 1.0215(3) -0.11616(16) 0.20598(14)
C21A C 1.2582(2) -0.13757(15) 0.35575(14)
H1A H 0.559(3) -0.1214(18) 0.5431(14)
H2A H 0.911(2) -0.5077(16) 0.6387(12)
H3A H 0.274(2) -0.3294(15) 0.7572(12)
H4A H -0.001(2) -0.1375(16) 0.8071(13)
H5A H -0.085(2) -0.1186(15) 0.6745(13)
H6A H 1.032(2) -0.3167(15) 0.4734(12)
H7A H 0.677(2) -0.7357(15) 1.0660(14)
H8A H 0.290(3) -0.7548(18) 0.8535(14)
H9A H 0.939(3) -0.554(2) 0.8828(17)
H10A H 0.798(3) -0.431(2) 0.8856(17)
H11A H 0.839(3) -0.554(2) 1.0078(19)
H12A H 0.305(3) -0.892(2) 1.0499(18)
H13A H 0.369(3) -0.836(2) 1.1437(17)
H14A H 0.519(4) -0.956(3) 1.105(2)
H15A H 0.434(3) -0.5541(18) 0.5905(15)
H16A H 0.249(3) -0.482(2) 0.6453(15)
H17A H 0.284(3) -0.6372(19) 0.6510(15)
H18A H 0.888(3) -0.0607(18) 0.1711(14)
H19A H 1.112(2) -0.0904(17) 0.1436(14)
H20A H 1.031(3) -0.2144(19) 0.2299(15)
H21A H 1.350(2) -0.1071(16) 0.2954(14)
H22A H 1.280(2) -0.2445(17) 0.3781(13)
H23A H 1.276(2) -0.1123(16) 0.4254(14)
loop_
_geom_bond_atom_site_label_1
_geom_bond_atom_site_label_2
_geom_bond_site_symmetry_1
_geom_bond_site_symmetry_2
N1 C1 1_555 1_555
N2 C9 1_555 1_555
C1 C2 1_555 1_555
C2 C3 1_555 1_555
C3 C4 1_555 1_555
C4 N1 1_555 1_555
C5 C4 1_555 1_555
C6 C5 1_555 1_555
C7 C6 1_555 1_555
C8 C9 1_555 1_555
C9 C10 1_555 1_555
C10 C1 1_555 1_555
C11 C3 1_555 1_555
C12 C11 1_555 1_555
C13 C12 1_555 1_555
C14 C13 1_555 1_555
C15 C14 1_555 1_555
C16 C11 1_555 1_555
C17 C12 1_555 1_555
C18 C14 1_555 1_555
C19 C16 1_555 1_555
C20 C8 1_555 1_555
C21 C8 1_555 1_555
H1 N1 1_555 1_555
H2 C2 1_555 1_555
H3 C5 1_555 1_555
H4 C7 1_555 1_555
H5 C7 1_555 1_555
H6 C10 1_555 1_555
H7 C13 1_555 1_555
H8 C15 1_555 1_555
H9 C17 1_555 1_555
H10 C17 1_555 1_555
H11 C17 1_555 1_555
H12 C18 1_555 1_555
H13 C18 1_555 1_555
H14 C18 1_555 1_555
H15 C19 1_555 1_555
H16 C19 1_555 1_555
H17 C19 1_555 1_555
H18 C20 1_555 1_555
H19 C20 1_555 1_555
H20 C20 1_555 1_555
H21 C21 1_555 1_555
H22 C21 1_555 1_555
H23 C21 1_555 1_555
N1A C1A 1_555 1_555
N2A C6 1_555 1_555
C1A C2A 1_555 1_555
C2A C3A 1_555 1_555
C3A C4A 1_555 1_555
C4A N1A 1_555 1_555
C5A C4A 1_555 1_555
C6A N2 1_555 1_555
C7A C8 1_555 1_555
C8A C7 1_555 1_555
C9A N2A 1_555 1_555
C10A C1A 1_555 1_555
C11A C3A 1_555 1_555
C12A C11A 1_555 1_555
C13A C12A 1_555 1_555
C14A C13A 1_555 1_555
C15A C14A 1_555 1_555
C16A C11A 1_555 1_555
C17A C12A 1_555 1_555
C18A C14A 1_555 1_555
C19A C16A 1_555 1_555
C20A C8A 1_555 1_555
C21A C8A 1_555 1_555
H1A N1A 1_555 1_555
H2A C2A 1_555 1_555
H3A C5A 1_555 1_555
H4A C7A 1_555 1_555
H5A C7A 1_555 1_555
H6A C10A 1_555 1_555
H7A C13A 1_555 1_555
H8A C15A 1_555 1_555
H9A C17A 1_555 1_555
H10A C17A 1_555 1_555
H11A C17A 1_555 1_555
H12A C18A 1_555 1_555
H13A C18A 1_555 1_555
H14A C18A 1_555 1_555
H15A C19A 1_555 1_555
H16A C19A 1_555 1_555
H17A C19A 1_555 1_555
H18A C20A 1_555 1_555
H19A C20A 1_555 1_555
H20A C20A 1_555 1_555
H21A C21A 1_555 1_555
H22A C21A 1_555 1_555
H23A C21A 1_555 1_555
C15 C16 1_555 1_555
C5A C6A 1_555 1_555
C6A C7A 1_555 1_555
C8A C9A 1_555 1_555
C9A C10A 1_555 1_555
C15A C16A 1_555 1_555

#END
