
#######################################################################
#
#                 Cambridge Crystallographic Data Centre
#                                CCDC 
#
#######################################################################
#
# If this CIF has been generated from an entry in the Cambridge 
# Structural Database, then it will include bibliographic, chemical, 
# crystal, experimental, refinement or atomic coordinate data resulting 
# from the CCDC's data processing and validation procedures.
#
#######################################################################

data_BENTEV
_chemical_formula_moiety         'C15 H14 O2'
_chemical_name_systematic        5-Methyl-3-(1-naphthyl)dihydrofuran-2(3H)-one
_symmetry_cell_setting           orthorhombic
_symmetry_space_group_name_H-M   'P 21 21 21'
_symmetry_Int_Tables_number      19
_space_group_name_Hall           'P 2ac 2ab'
loop_
_symmetry_equiv_pos_site_id
_symmetry_equiv_pos_as_xyz
1 x,y,z
2 1/2-x,-y,1/2+z
3 -x,1/2+y,1/2-z
4 1/2+x,1/2-y,-z
_cell_length_a                   6.5892(3)
_cell_length_b                   8.6208(3)
_cell_length_c                   20.3651(9)
_cell_angle_alpha                90
_cell_angle_beta                 90
_cell_angle_gamma                90
_cell_volume                     1156.82
_exptl_crystal_colour            colorless
_exptl_crystal_description       block
_cell_formula_units_Z            4
loop_
_atom_site_label
_atom_site_type_symbol
_atom_site_fract_x
_atom_site_fract_y
_atom_site_fract_z
C1 C 0.3785(3) -0.0958(2) -0.01505(9)
H1 H 0.3431 0.0015 -0.0372
H2 H 0.2563 -0.1411 0.0046
H3 H 0.4360 -0.1685 -0.0470
C2 C 0.5320(2) -0.06379(18) 0.03790(8)
H4 H 0.5737 -0.1638 0.0588
C3 C 0.4631(2) 0.04976(18) 0.09110(7)
H5 H 0.3987 -0.0052 0.1283
H6 H 0.3669 0.1274 0.0733
C4 C 0.6644(2) 0.12590(18) 0.11181(7)
H7 H 0.6410 0.2357 0.1258
C5 C 0.7846(2) 0.12119(18) 0.04813(7)
C6 C 0.7748(2) 0.03654(16) 0.16544(7)
C7 C 0.9470(2) -0.04861(18) 0.15246(7)
H8 H 0.9988 -0.0509 0.1089
C8 C 1.0487(2) -0.13264(19) 0.20205(8)
H9 H 1.1654 -0.1923 0.1914
C9 C 0.9797(2) -0.12848(18) 0.26548(7)
H10 H 1.0505 -0.1833 0.2988
C10 C 0.8031(2) -0.04283(17) 0.28152(7)
C11 C 0.7306(2) -0.03739(19) 0.34720(7)
H11 H 0.8026 -0.0904 0.3808
C12 C 0.5577(2) 0.0437(2) 0.36260(7)
H12 H 0.5098 0.0454 0.4066
C13 C 0.4508(2) 0.1244(2) 0.31317(7)
H13 H 0.3309 0.1799 0.3241
C14 C 0.5192(2) 0.12336(18) 0.24917(7)
H14 H 0.4465 0.1790 0.2165
C15 C 0.6969(2) 0.04009(17) 0.23147(7)
O1 O 0.70996(18) 0.01048(14) 0.00819(5)
O2 O 0.9305(2) 0.19772(15) 0.03308(6)
loop_
_geom_bond_atom_site_label_1
_geom_bond_atom_site_label_2
_geom_bond_site_symmetry_1
_geom_bond_site_symmetry_2
C1 H1 1_555 1_555
H2 C1 1_555 1_555
H3 C1 1_555 1_555
C2 C1 1_555 1_555
H4 C2 1_555 1_555
C3 C2 1_555 1_555
H5 C3 1_555 1_555
H6 C3 1_555 1_555
C4 C3 1_555 1_555
H7 C4 1_555 1_555
C5 C4 1_555 1_555
C6 C4 1_555 1_555
C7 C6 1_555 1_555
H8 C7 1_555 1_555
C8 C7 1_555 1_555
H9 C8 1_555 1_555
C9 C8 1_555 1_555
H10 C9 1_555 1_555
C10 C9 1_555 1_555
C11 C10 1_555 1_555
H11 C11 1_555 1_555
C12 C11 1_555 1_555
H12 C12 1_555 1_555
C13 C12 1_555 1_555
H13 C13 1_555 1_555
C14 C13 1_555 1_555
H14 C14 1_555 1_555
C15 C6 1_555 1_555
O1 C2 1_555 1_555
O2 C5 1_555 1_555
C5 O1 1_555 1_555
C10 C15 1_555 1_555
C14 C15 1_555 1_555

#END
