
#######################################################################
#
#                 Cambridge Crystallographic Data Centre
#                                CCDC 
#
#######################################################################
#
# If this CIF has been generated from an entry in the Cambridge 
# Structural Database, then it will include bibliographic, chemical, 
# crystal, experimental, refinement or atomic coordinate data resulting 
# from the CCDC's data processing and validation procedures.
#
#######################################################################

data_BENVUO
_chemical_formula_moiety         'C27 H35 N3 O2'
_chemical_name_systematic        
2-(4-t-butyl-4,5-dihydro-1,3-oxazol-2-yl)-N-(2-(4-isopropyl-5,5-dimethyl-4,5-dihydro-1,3-oxazol-2-yl)phenyl)aniline
_symmetry_cell_setting           orthorhombic
_symmetry_space_group_name_H-M   'P 21 21 21'
_symmetry_Int_Tables_number      19
_space_group_name_Hall           'P 2ac 2ab'
loop_
_symmetry_equiv_pos_site_id
_symmetry_equiv_pos_as_xyz
1 x,y,z
2 1/2-x,-y,1/2+z
3 1/2+x,1/2-y,-z
4 -x,1/2+y,1/2-z
_cell_length_a                   9.54492(6)
_cell_length_b                   12.68954(7)
_cell_length_c                   19.9983(1)
_cell_angle_alpha                90
_cell_angle_beta                 90
_cell_angle_gamma                90
_cell_volume                     2422.21
_exptl_crystal_colour            colorless
_exptl_crystal_description       irregular
_cell_formula_units_Z            4
loop_
_atom_site_label
_atom_site_type_symbol
_atom_site_fract_x
_atom_site_fract_y
_atom_site_fract_z
O1 O 0.87144(8) 0.43087(6) 1.04526(3)
O2 O 0.83527(8) 0.63578(6) 0.69028(4)
N1 N 0.87397(9) 0.55331(7) 0.96315(4)
N2 N 0.65228(9) 0.54722(7) 0.87514(4)
H1 H 0.7437 0.5557 0.8773
N3 N 0.88232(9) 0.57732(7) 0.79479(4)
C1 C 0.80766(11) 0.47955(8) 0.99279(5)
C2 C 0.99408(11) 0.49689(8) 1.06160(5)
C3 C 1.01220(11) 0.56133(8) 0.99618(5)
H2 H 1.0816 0.5233 0.9675
C4 C 0.66757(11) 0.43919(8) 0.97568(5)
C5 C 0.60685(11) 0.36353(8) 1.01777(5)
H3 H 0.6566 0.3412 1.0564
C6 C 0.47659(12) 0.32059(9) 1.00457(6)
H4 H 0.4358 0.2711 1.0344
C7 C 0.40648(12) 0.35120(9) 0.94676(5)
H5 H 0.3182 0.3207 0.9364
C8 C 0.46384(11) 0.42543(9) 0.90422(5)
H6 H 0.4146 0.4446 0.8648
C9 C 0.59363(11) 0.47327(8) 0.91813(5)
C10 C 0.58052(11) 0.60917(8) 0.82900(5)
C11 C 0.44244(11) 0.64303(9) 0.84084(5)
H7 H 0.3960 0.6217 0.8806
C12 C 0.37314(11) 0.70677(8) 0.79566(5)
H8 H 0.2799 0.7285 0.8049
C13 C 0.43758(12) 0.73968(9) 0.73685(5)
H9 H 0.3889 0.7827 0.7057
C14 C 0.57419(12) 0.70844(8) 0.72469(5)
H10 H 0.6193 0.7309 0.6848
C15 C 0.64760(11) 0.64448(8) 0.76979(5)
C16 C 0.79337(11) 0.61634(8) 0.75443(5)
C17 C 0.97996(12) 0.60157(9) 0.68652(5)
H11 H 1.0424 0.6612 0.6751
H12 H 0.9914 0.5455 0.6525
C18 C 1.01276(11) 0.55913(8) 0.75728(5)
H13 H 1.0886 0.6033 0.7774
C19 C 1.05769(11) 0.44232(8) 0.76044(5)
C20 C 1.08626(12) 0.41354(9) 0.83360(5)
H14 H 1.1599 0.4595 0.8514
H15 H 1.1168 0.3399 0.8363
H16 H 1.0004 0.4228 0.8598
C21 C 1.19239(13) 0.42931(10) 0.71955(6)
H17 H 1.1736 0.4466 0.6726
H18 H 1.2250 0.3563 0.7228
H19 H 1.2646 0.4767 0.7371
C22 C 0.94237(13) 0.37084(9) 0.73267(6)
H20 H 0.8586 0.3768 0.7608
H21 H 0.9751 0.2976 0.7326
H22 H 0.9196 0.3924 0.6869
C23 C 1.06085(12) 0.67608(8) 1.00212(5)
H23 H 0.9932 0.7152 1.0311
C24 C 0.95029(13) 0.56072(9) 1.12248(5)
H24 H 0.8701 0.6054 1.1109
H25 H 1.0286 0.6051 1.1370
H26 H 0.9239 0.5128 1.1588
C25 C 1.11591(12) 0.42300(9) 1.07562(6)
H27 H 1.0957 0.3813 1.1157
H28 H 1.2013 0.4643 1.0828
H29 H 1.1292 0.3757 1.0374
C26 C 1.06331(13) 0.72787(10) 0.93287(6)
H30 H 1.1326 0.6923 0.9046
H31 H 1.0884 0.8024 0.9374
H32 H 0.9705 0.7220 0.9123
C27 C 1.20744(12) 0.68400(10) 1.03316(6)
H33 H 1.2046 0.6578 1.0792
H34 H 1.2380 0.7577 1.0331
H35 H 1.2733 0.6415 1.0070
loop_
_geom_bond_atom_site_label_1
_geom_bond_atom_site_label_2
_geom_bond_site_symmetry_1
_geom_bond_site_symmetry_2
O1 C1 1_555 1_555
O2 C16 1_555 1_555
N1 C1 1_555 1_555
N2 H1 1_555 1_555
N3 C16 1_555 1_555
C1 C4 1_555 1_555
C2 O1 1_555 1_555
C3 N1 1_555 1_555
H2 C3 1_555 1_555
C4 C5 1_555 1_555
C5 H3 1_555 1_555
C6 C5 1_555 1_555
H4 C6 1_555 1_555
C7 C6 1_555 1_555
H5 C7 1_555 1_555
C8 C7 1_555 1_555
H6 C8 1_555 1_555
C9 N2 1_555 1_555
C10 N2 1_555 1_555
C11 C10 1_555 1_555
H7 C11 1_555 1_555
C12 C11 1_555 1_555
H8 C12 1_555 1_555
C13 C12 1_555 1_555
H9 C13 1_555 1_555
C14 C13 1_555 1_555
H10 C14 1_555 1_555
C15 C10 1_555 1_555
C16 C15 1_555 1_555
C17 O2 1_555 1_555
H11 C17 1_555 1_555
H12 C17 1_555 1_555
C18 N3 1_555 1_555
H13 C18 1_555 1_555
C19 C18 1_555 1_555
C20 C19 1_555 1_555
H14 C20 1_555 1_555
H15 C20 1_555 1_555
H16 C20 1_555 1_555
C21 C19 1_555 1_555
H17 C21 1_555 1_555
H18 C21 1_555 1_555
H19 C21 1_555 1_555
C22 C19 1_555 1_555
H20 C22 1_555 1_555
H21 C22 1_555 1_555
H22 C22 1_555 1_555
C23 C3 1_555 1_555
H23 C23 1_555 1_555
C24 C2 1_555 1_555
H24 C24 1_555 1_555
H25 C24 1_555 1_555
H26 C24 1_555 1_555
C25 C2 1_555 1_555
H27 C25 1_555 1_555
H28 C25 1_555 1_555
H29 C25 1_555 1_555
C26 C23 1_555 1_555
H30 C26 1_555 1_555
H31 C26 1_555 1_555
H32 C26 1_555 1_555
C27 C23 1_555 1_555
H33 C27 1_555 1_555
H34 C27 1_555 1_555
H35 C27 1_555 1_555
C2 C3 1_555 1_555
C4 C9 1_555 1_555
C8 C9 1_555 1_555
C14 C15 1_555 1_555
C17 C18 1_555 1_555

#END
