
#######################################################################
#
#                 Cambridge Crystallographic Data Centre
#                                CCDC 
#
#######################################################################
#
# If this CIF has been generated from an entry in the Cambridge 
# Structural Database, then it will include bibliographic, chemical, 
# crystal, experimental, refinement or atomic coordinate data resulting 
# from the CCDC's data processing and validation procedures.
#
#######################################################################

data_BENZSS05
_chemical_formula_moiety         'C14 H14 S2'
_chemical_name_systematic        'Dibenzyl disulfide'
_symmetry_cell_setting           monoclinic
_symmetry_space_group_name_H-M   'C c'
_symmetry_Int_Tables_number      9
_space_group_name_Hall           'C -2yc'
loop_
_symmetry_equiv_pos_site_id
_symmetry_equiv_pos_as_xyz
1 x,y,z
2 1/2+x,1/2+y,z
3 x,-y,1/2+z
4 1/2+x,1/2-y,1/2+z
_cell_length_a                   13.518(5)
_cell_length_b                   8.264(3)
_cell_length_c                   11.405(4)
_cell_angle_alpha                90
_cell_angle_beta                 99.35(5)
_cell_angle_gamma                90
_cell_volume                     1257.16
_cell_formula_units_Z            4
loop_
_atom_site_label
_atom_site_type_symbol
_atom_site_fract_x
_atom_site_fract_y
_atom_site_fract_z
S1 S 0.5988(4) 0.0084(6) 0.1715(9)
S2 S 0.6068(4) 0.0102(6) 0.3510(8)
C1 C 0.5004(12) 0.1556(23) 0.1170(18)
C2 C 0.3962(4) 0.1058(7) 0.1275(4)
C3 C 0.3538(4) -0.0165(7) 0.0512(4)
C4 C 0.2565(4) -0.0695(7) 0.0554(4)
C5 C 0.2015(4) -0.0002(7) 0.1358(4)
C6 C 0.2438(4) 0.1221(7) 0.2122(4)
C7 C 0.3412(4) 0.1751(7) 0.2080(4)
C8 C 0.7026(11) 0.1617(26) 0.3996(15)
C9 C 0.8086(7) 0.1013(12) 0.3951(8)
C10 C 0.8560(7) -0.0152(12) 0.4732(8)
C11 C 0.9541(7) -0.0619(12) 0.4667(8)
C12 C 1.0048(7) 0.0079(12) 0.3822(8)
C13 C 0.9574(7) 0.1245(12) 0.3042(8)
C14 C 0.8592(7) 0.1712(12) 0.3106(8)
H1 H 0.5016(12) 0.1656(23) 0.0334(18)
H2 H 0.5163(12) 0.2582(23) 0.1549(18)
H3 H 0.3917(4) -0.0642(7) -0.0041(4)
H4 H 0.2274(4) -0.1537(7) 0.0028(4)
H5 H 0.1345(4) -0.0366(7) 0.1387(4)
H6 H 0.2060(4) 0.1699(7) 0.2674(4)
H7 H 0.3703(4) 0.2594(7) 0.2605(4)
H8 H 0.6899(11) 0.2503(26) 0.3447(15)
H9 H 0.6967(11) 0.1984(26) 0.4780(15)
H10 H 0.8211(7) -0.0633(12) 0.5312(8)
H11 H 0.9868(7) -0.1421(12) 0.5203(8)
H12 H 1.0723(7) -0.0241(12) 0.3777(8)
H13 H 0.9923(7) 0.1726(12) 0.2460(8)
H14 H 0.8266(7) 0.2514(12) 0.2570(18)
loop_
_geom_bond_atom_site_label_1
_geom_bond_atom_site_label_2
_geom_bond_site_symmetry_1
_geom_bond_site_symmetry_2
S1 S2 1_555 1_555
S2 C8 1_555 1_555
C1 S1 1_555 1_555
C2 C1 1_555 1_555
C3 C2 1_555 1_555
C4 C3 1_555 1_555
C5 C4 1_555 1_555
C6 C5 1_555 1_555
C7 C2 1_555 1_555
C8 C9 1_555 1_555
C9 C10 1_555 1_555
C10 C11 1_555 1_555
C11 C12 1_555 1_555
C12 C13 1_555 1_555
C13 C14 1_555 1_555
C14 C9 1_555 1_555
H1 C1 1_555 1_555
H2 C1 1_555 1_555
H3 C3 1_555 1_555
H4 C4 1_555 1_555
H5 C5 1_555 1_555
H6 C6 1_555 1_555
H7 C7 1_555 1_555
H8 C8 1_555 1_555
H9 C8 1_555 1_555
H10 C10 1_555 1_555
H11 C11 1_555 1_555
H12 C12 1_555 1_555
H13 C13 1_555 1_555
H14 C14 1_555 1_555
C6 C7 1_555 1_555

#END
