
#######################################################################
#
#                 Cambridge Crystallographic Data Centre
#                                CCDC 
#
#######################################################################
#
# If this CIF has been generated from an entry in the Cambridge 
# Structural Database, then it will include bibliographic, chemical, 
# crystal, experimental, refinement or atomic coordinate data resulting 
# from the CCDC's data processing and validation procedures.
#
#######################################################################

data_BEPBEF
_chemical_formula_moiety         'C48 H68 N8 Na4 O4'
_chemical_name_systematic        
tetrakis(\m~3~-2-(((3-(Dimethylamino)propyl)imino)methyl)phenolato)-tetra-sodium
_symmetry_cell_setting           tetragonal
_symmetry_space_group_name_H-M   'I 41/a'
_symmetry_Int_Tables_number      88
_space_group_name_Hall           '-I 4ad'
loop_
_symmetry_equiv_pos_site_id
_symmetry_equiv_pos_as_xyz
1 x,y,z
2 1/4-y,3/4+x,3/4+z
3 1/4+y,1/4-x,1/4+z
4 -x,1/2-y,z
5 1/2+x,1/2+y,1/2+z
6 3/4-y,1/4+x,1/4+z
7 3/4+y,3/4-x,3/4+z
8 1/2-x,-y,1/2+z
9 -x,-y,-z
10 3/4+y,1/4-x,1/4-z
11 3/4-y,3/4+x,3/4-z
12 x,1/2+y,-z
13 1/2-x,1/2-y,1/2-z
14 1/4+y,3/4-x,3/4-z
15 1/4-y,1/4+x,1/4-z
16 1/2+x,y,1/2-z
_cell_length_a                   20.2549(14)
_cell_length_b                   20.2549(14)
_cell_length_c                   12.4783(9)
_cell_angle_alpha                90
_cell_angle_beta                 90
_cell_angle_gamma                90
_cell_volume                     5119.36
_exptl_crystal_colour            colorless
_exptl_crystal_description       Block
_cell_formula_units_Z            4
loop_
_atom_site_label
_atom_site_type_symbol
_atom_site_fract_x
_atom_site_fract_y
_atom_site_fract_z
Na1 Na 0.57035(2) 0.70096(2) 0.04118(4)
O1 O 0.56577(4) 0.70874(4) 0.22379(7)
N1 N 0.59486(5) 0.59079(5) 0.10289(8)
N2 N 0.65170(5) 0.66403(5) -0.10835(8)
C1 C 0.59229(6) 0.67659(6) 0.30240(9)
C2 C 0.60269(6) 0.70749(7) 0.40332(10)
H1 H 0.5928 0.7531 0.4105
C3 C 0.62654(7) 0.67385(7) 0.49109(10)
H2 H 0.6328 0.6966 0.5569
C4 C 0.64152(6) 0.60683(7) 0.48447(11)
H3 H 0.6568 0.5833 0.5455
C5 C 0.63372(6) 0.57545(7) 0.38725(10)
H4 H 0.6443 0.5299 0.3822
C6 C 0.61077(6) 0.60837(6) 0.29539(9)
C7 C 0.60526(6) 0.56930(6) 0.19750(10)
H5 H 0.6099 0.5229 0.2051
C8 C 0.59325(7) 0.54040(6) 0.01849(11)
H6 H 0.5537 0.5472 -0.0267
H7 H 0.5899 0.4961 0.0517
C9 C 0.65496(7) 0.54316(6) -0.05177(10)
H8 H 0.6935 0.5521 -0.0051
H9 H 0.6616 0.4991 -0.0844
C10 C 0.65425(7) 0.59436(6) -0.14128(10)
H10 H 0.6943 0.5879 -0.1855
H11 H 0.6156 0.5854 -0.1877
C11 C 0.71124(6) 0.68245(7) -0.04849(11)
H12 H 0.7504 0.6724 -0.0916
H13 H 0.7130 0.6574 0.0187
H14 H 0.7101 0.7298 -0.0325
C12 C 0.64801(7) 0.70448(7) -0.20584(10)
H15 H 0.6798 0.6880 -0.2587
H16 H 0.6584 0.7505 -0.1882
H17 H 0.6033 0.7020 -0.2357
Na1I Na 0.45096(2) 0.67965(2) 0.20882(4)
O1I O 0.45874(4) 0.68423(4) 0.02621(7)
N1I N 0.34079(5) 0.65514(5) 0.14711(8)
N2I N 0.41403(5) 0.59830(5) 0.35835(8)
C1I C 0.42659(6) 0.65771(6) -0.05240(9)
C2I C 0.45749(7) 0.64731(6) -0.15332(10)
H1I H 0.5031 0.6572 -0.1605
C3I C 0.42385(7) 0.62346(7) -0.24109(10)
H2I H 0.4466 0.6172 -0.3069
C4I C 0.35683(7) 0.60848(6) -0.23447(11)
H3I H 0.3333 0.5932 -0.2955
C5I C 0.32545(7) 0.61628(6) -0.13725(10)
H4I H 0.2799 0.6057 -0.1322
C6I C 0.35837(6) 0.63923(6) -0.04539(9)
C7I C 0.31930(6) 0.64474(6) 0.05250(10)
H5I H 0.2729 0.6401 0.0449
C8I C 0.29040(6) 0.65675(7) 0.23151(11)
H6I H 0.2972 0.6963 0.2767
H7I H 0.2461 0.6601 0.1983
C9I C 0.29316(6) 0.59504(7) 0.30177(10)
H8I H 0.3021 0.5565 0.2551
H9I H 0.2491 0.5884 0.3344
C10I C 0.34436(6) 0.59575(7) 0.39128(10)
H10I H 0.3379 0.5557 0.4355
H11I H 0.3354 0.6344 0.4377
C11I C 0.43245(7) 0.53876(6) 0.29849(11)
H12I H 0.4224 0.4996 0.3416
H13I H 0.4074 0.5370 0.2313
H14I H 0.4798 0.5399 0.2825
C12I C 0.45448(7) 0.60199(7) 0.45584(10)
H15I H 0.4380 0.5702 0.5087
H16I H 0.5005 0.5916 0.4382
H17I H 0.4520 0.6467 0.4857
Na1N Na 0.54904(2) 0.82035(2) 0.20882(4)
O1N O 0.54126(4) 0.81577(4) 0.02621(7)
N1N N 0.65921(5) 0.84486(5) 0.14711(8)
N2N N 0.58597(5) 0.90170(5) 0.35835(8)
C1N C 0.57341(6) 0.84229(6) -0.05240(9)
C2N C 0.54251(7) 0.85269(6) -0.15332(10)
H1N H 0.4969 0.8428 -0.1605
C3N C 0.57615(7) 0.87654(7) -0.24109(10)
H2N H 0.5534 0.8828 -0.3069
C4N C 0.64317(7) 0.89152(6) -0.23447(11)
H3N H 0.6667 0.9068 -0.2955
C5N C 0.67455(7) 0.88372(6) -0.13725(10)
H4N H 0.7201 0.8943 -0.1322
C6N C 0.64163(6) 0.86077(6) -0.04539(9)
C7N C 0.68070(6) 0.85526(6) 0.05250(10)
H5N H 0.7271 0.8599 0.0449
C8N C 0.70960(6) 0.84325(7) 0.23151(11)
H6N H 0.7028 0.8037 0.2767
H7N H 0.7539 0.8399 0.1983
C9N C 0.70684(6) 0.90496(7) 0.30177(10)
H8N H 0.6979 0.9435 0.2551
H9N H 0.7509 0.9116 0.3344
C10N C 0.65564(6) 0.90425(7) 0.39128(10)
H10N H 0.6621 0.9443 0.4355
H11N H 0.6646 0.8656 0.4377
C11N C 0.56755(7) 0.96124(6) 0.29849(11)
H12N H 0.5776 1.0004 0.3416
H13N H 0.5926 0.9630 0.2313
H14N H 0.5202 0.9601 0.2825
C12N C 0.54552(7) 0.89801(7) 0.45584(10)
H15N H 0.5620 0.9298 0.5087
H16N H 0.4995 0.9084 0.4382
H17N H 0.5480 0.8533 0.4857
Na1C Na 0.42965(2) 0.79904(2) 0.04118(4)
O1C O 0.43423(4) 0.79126(4) 0.22379(7)
N1C N 0.40514(5) 0.90921(5) 0.10289(8)
N2C N 0.34830(5) 0.83597(5) -0.10835(8)
C1C C 0.40771(6) 0.82341(6) 0.30240(9)
C2C C 0.39731(6) 0.79251(7) 0.40332(10)
H1C H 0.4072 0.7469 0.4105
C3C C 0.37346(7) 0.82615(7) 0.49109(10)
H2C H 0.3672 0.8034 0.5569
C4C C 0.35848(6) 0.89317(7) 0.48447(11)
H3C H 0.3432 0.9167 0.5455
C5C C 0.36628(6) 0.92455(7) 0.38725(10)
H4C H 0.3557 0.9701 0.3822
C6C C 0.38923(6) 0.89163(6) 0.29539(9)
C7C C 0.39474(6) 0.93070(6) 0.19750(10)
H5C H 0.3901 0.9771 0.2051
C8C C 0.40675(7) 0.95960(6) 0.01849(11)
H6C H 0.4463 0.9528 -0.0267
H7C H 0.4101 1.0039 0.0517
C9C C 0.34504(7) 0.95684(6) -0.05177(10)
H8C H 0.3065 0.9479 -0.0051
H9C H 0.3384 1.0009 -0.0844
C10C C 0.34575(7) 0.90564(6) -0.14128(10)
H10C H 0.3057 0.9121 -0.1855
H11C H 0.3844 0.9146 -0.1877
C11C C 0.28876(6) 0.81755(7) -0.04849(11)
H12C H 0.2496 0.8276 -0.0916
H13C H 0.2870 0.8426 0.0187
H14C H 0.2899 0.7702 -0.0325
C12C C 0.35199(7) 0.79552(7) -0.20584(10)
H15C H 0.3202 0.8120 -0.2587
H16C H 0.3416 0.7495 -0.1882
H17C H 0.3967 0.7980 -0.2357
loop_
_geom_bond_atom_site_label_1
_geom_bond_atom_site_label_2
_geom_bond_site_symmetry_1
_geom_bond_site_symmetry_2
Na1 O1 1_555 1_555
O1 C1 1_555 1_555
N1 Na1 1_555 1_555
N2 Na1 1_555 1_555
C1 C2 1_555 1_555
C2 H1 1_555 1_555
C3 C2 1_555 1_555
H2 C3 1_555 1_555
C4 C3 1_555 1_555
H3 C4 1_555 1_555
C5 C4 1_555 1_555
H4 C5 1_555 1_555
C6 C1 1_555 1_555
C7 N1 1_555 1_555
H5 C7 1_555 1_555
C8 N1 1_555 1_555
H6 C8 1_555 1_555
H7 C8 1_555 1_555
C9 C8 1_555 1_555
H8 C9 1_555 1_555
H9 C9 1_555 1_555
C10 N2 1_555 1_555
H10 C10 1_555 1_555
H11 C10 1_555 1_555
C11 N2 1_555 1_555
H12 C11 1_555 1_555
H13 C11 1_555 1_555
H14 C11 1_555 1_555
C12 N2 1_555 1_555
H15 C12 1_555 1_555
H16 C12 1_555 1_555
H17 C12 1_555 1_555
Na1I O1 1_555 1_555
O1I Na1 1_555 1_555
N1I Na1I 1_555 1_555
N2I Na1I 1_555 1_555
C1I O1I 1_555 1_555
C2I C1I 1_555 1_555
H1I C2I 1_555 1_555
C3I C2I 1_555 1_555
H2I C3I 1_555 1_555
C4I C3I 1_555 1_555
H3I C4I 1_555 1_555
C5I C4I 1_555 1_555
H4I C5I 1_555 1_555
C6I C1I 1_555 1_555
C7I N1I 1_555 1_555
H5I C7I 1_555 1_555
C8I N1I 1_555 1_555
H6I C8I 1_555 1_555
H7I C8I 1_555 1_555
C9I C8I 1_555 1_555
H8I C9I 1_555 1_555
H9I C9I 1_555 1_555
C10I N2I 1_555 1_555
H10I C10I 1_555 1_555
H11I C10I 1_555 1_555
C11I N2I 1_555 1_555
H12I C11I 1_555 1_555
H13I C11I 1_555 1_555
H14I C11I 1_555 1_555
C12I N2I 1_555 1_555
H15I C12I 1_555 1_555
H16I C12I 1_555 1_555
H17I C12I 1_555 1_555
Na1N O1 1_555 1_555
O1N Na1 1_555 1_555
N1N Na1N 1_555 1_555
N2N Na1N 1_555 1_555
C1N O1N 1_555 1_555
C2N C1N 1_555 1_555
H1N C2N 1_555 1_555
C3N C2N 1_555 1_555
H2N C3N 1_555 1_555
C4N C3N 1_555 1_555
H3N C4N 1_555 1_555
C5N C4N 1_555 1_555
H4N C5N 1_555 1_555
C6N C1N 1_555 1_555
C7N N1N 1_555 1_555
H5N C7N 1_555 1_555
C8N N1N 1_555 1_555
H6N C8N 1_555 1_555
H7N C8N 1_555 1_555
C9N C8N 1_555 1_555
H8N C9N 1_555 1_555
H9N C9N 1_555 1_555
C10N N2N 1_555 1_555
H10N C10N 1_555 1_555
H11N C10N 1_555 1_555
C11N N2N 1_555 1_555
H12N C11N 1_555 1_555
H13N C11N 1_555 1_555
H14N C11N 1_555 1_555
C12N N2N 1_555 1_555
H15N C12N 1_555 1_555
H16N C12N 1_555 1_555
H17N C12N 1_555 1_555
Na1C O1I 1_555 1_555
O1C Na1I 1_555 1_555
N1C Na1C 1_555 1_555
N2C Na1C 1_555 1_555
C1C O1C 1_555 1_555
C2C C1C 1_555 1_555
H1C C2C 1_555 1_555
C3C C2C 1_555 1_555
H2C C3C 1_555 1_555
C4C C3C 1_555 1_555
H3C C4C 1_555 1_555
C5C C4C 1_555 1_555
H4C C5C 1_555 1_555
C6C C1C 1_555 1_555
C7C N1C 1_555 1_555
H5C C7C 1_555 1_555
C8C N1C 1_555 1_555
H6C C8C 1_555 1_555
H7C C8C 1_555 1_555
C9C C8C 1_555 1_555
H8C C9C 1_555 1_555
H9C C9C 1_555 1_555
C10C N2C 1_555 1_555
H10C C10C 1_555 1_555
H11C C10C 1_555 1_555
C11C N2C 1_555 1_555
H12C C11C 1_555 1_555
H13C C11C 1_555 1_555
H14C C11C 1_555 1_555
C12C N2C 1_555 1_555
H15C C12C 1_555 1_555
H16C C12C 1_555 1_555
H17C C12C 1_555 1_555
C5 C6 1_555 1_555
C6 C7 1_555 1_555
C9 C10 1_555 1_555
Na1I O1I 1_555 1_555
C5I C6I 1_555 1_555
C6I C7I 1_555 1_555
C9I C10I 1_555 1_555
Na1N O1N 1_555 1_555
Na1N O1C 1_555 1_555
O1N Na1C 1_555 1_555
C5N C6N 1_555 1_555
C6N C7N 1_555 1_555
C9N C10N 1_555 1_555
Na1C O1C 1_555 1_555
C5C C6C 1_555 1_555
C6C C7C 1_555 1_555
C9C C10C 1_555 1_555

#END
