
#######################################################################
#
#                 Cambridge Crystallographic Data Centre
#                                CCDC 
#
#######################################################################
#
# If this CIF has been generated from an entry in the Cambridge 
# Structural Database, then it will include bibliographic, chemical, 
# crystal, experimental, refinement or atomic coordinate data resulting 
# from the CCDC's data processing and validation procedures.
#
#######################################################################

data_BEPPOE
_chemical_formula_moiety         'C35 H28 N4'
_chemical_name_systematic        
4-methyl-N-(4-methylphenyl)-N-[4-([1^2^,2^2^:2^6^,3^2^-terpyridin]-2^4^-yl)phenyl]aniline
_symmetry_cell_setting           triclinic
_symmetry_space_group_name_H-M   'P -1'
_symmetry_Int_Tables_number      2
_space_group_name_Hall           '-P 1'
loop_
_symmetry_equiv_pos_site_id
_symmetry_equiv_pos_as_xyz
1 x,y,z
2 -x,-y,-z
_cell_length_a                   9.210(6)
_cell_length_b                   10.016(8)
_cell_length_c                   15.428(7)
_cell_angle_alpha                100.483(3)
_cell_angle_beta                 90.184(2)
_cell_angle_gamma                111.551(3)
_cell_volume                     1297.78
_exptl_crystal_colour            colorless
_exptl_crystal_description       block
_cell_formula_units_Z            2
loop_
_atom_site_label
_atom_site_type_symbol
_atom_site_fract_x
_atom_site_fract_y
_atom_site_fract_z
N1 N 0.5401(4) 0.3664(3) 1.28170(19)
N2 N 0.8809(4) 0.6053(3) 0.80312(19)
C1 C 0.6735(5) 0.5484(4) 1.4453(2)
H1 H 0.6145 0.4504 1.4451
C2 C 0.3324(5) 0.0787(4) 1.2848(3)
H2 H 0.3910 0.1330 1.3373
N3 N 0.7887(4) 0.7361(3) 1.3652(2)
C3 C 0.5253(5) 0.3171(4) 1.1254(3)
H3 H 0.4791 0.2528 1.0726
C4 C 0.6988(5) 0.5436(4) 1.2039(3)
H4 H 0.7747 0.6363 1.2057
C5 C 0.7070(5) 0.5990(4) 1.3666(2)
C6 C 0.3610(5) 0.1345(4) 1.2062(2)
C7 C 0.6381(5) 0.4499(4) 1.1242(2)
C8 C 0.4792(5) 0.2774(4) 1.2051(2)
C9 C 1.0094(5) 0.7371(4) 0.8066(2)
C10 C 0.6453(5) 0.4979(4) 1.2812(3)
C11 C 0.8193(4) 0.5654(4) 0.8821(2)
N4 N 0.2767(4) 0.0562(3) 1.1314(2)
C12 C 0.8374(5) 0.5019(4) 0.7225(2)
C13 C 1.1373(5) 0.9488(4) 0.7481(3)
H5 H 1.1354 1.0075 0.7081
C14 C 0.7621(5) 0.4227(4) 0.8928(2)
H6 H 0.7630 0.3491 0.8466
C15 C 0.7591(5) 0.6378(4) 1.0291(3)
H7 H 0.7598 0.7119 1.0754
C16 C 0.7039(5) 0.3872(4) 0.9702(2)
H8 H 0.6656 0.2896 0.9758
C17 C 0.7300(5) 0.6470(4) 1.5227(2)
H9 H 0.7109 0.6161 1.5764
C18 C 0.7006(4) 0.4936(4) 1.0410(2)
C19 C 0.2199(5) -0.0536(4) 1.2833(3)
H10 H 0.2014 -0.0921 1.3345
C20 C 1.2686(5) 0.9924(4) 0.8061(3)
C21 C 0.7501(5) 0.3001(4) 0.5628(3)
C22 C 1.1372(5) 0.7795(4) 0.8660(3)
H11 H 1.1378 0.7212 0.9064
C23 C 0.8151(5) 0.6733(4) 0.9515(3)
H12 H 0.8509 0.7704 0.9450
C24 C 1.0130(6) 0.8256(4) 0.7471(3)
H13 H 0.9283 0.7994 0.7060
C25 C 0.6405(5) 0.3124(4) 0.6206(3)
H14 H 0.5360 0.2516 0.6065
C26 C 0.8423(6) 0.8288(4) 1.4410(3)
H15 H 0.9026 0.9260 1.4400
C27 C 0.9485(5) 0.4900(4) 0.6656(3)
H16 H 1.0534 0.5489 0.6803
C28 C 1.2625(5) 0.9052(4) 0.8667(3)
H17 H 1.3459 0.9331 0.9089
C29 C 0.6826(5) 0.4134(4) 0.6992(3)
H18 H 0.6061 0.4218 0.7367
C30 C 0.1661(6) -0.0711(5) 1.1315(3)
H19 H 0.1071 -0.1236 1.0788
C31 C 0.8128(5) 0.7880(4) 1.5218(3)
H20 H 0.8495 0.8565 1.5742
C32 C 0.1331(5) -0.1309(4) 1.2060(3)
H21 H 0.0535 -0.2218 1.2037
C33 C 1.4089(6) 1.1245(4) 0.8036(3)
H22 H 1.3885 1.1757 0.7611
H23 H 1.4955 1.0963 0.7872
H24 H 1.4338 1.1873 0.8610
C34 C 0.9036(5) 0.3905(4) 0.5864(3)
H25 H 0.9795 0.3844 0.5479
C35 C 0.7054(6) 0.1909(4) 0.4768(3)
H26 H 0.7311 0.2418 0.4285
H27 H 0.5949 0.1347 0.4721
H28 H 0.7617 0.1267 0.4748
loop_
_geom_bond_atom_site_label_1
_geom_bond_atom_site_label_2
_geom_bond_site_symmetry_1
_geom_bond_site_symmetry_2
N1 C8 1_555 1_555
N2 C9 1_555 1_555
C1 H1 1_555 1_555
C2 H2 1_555 1_555
N3 C5 1_555 1_555
C3 H3 1_555 1_555
C4 H4 1_555 1_555
C5 C1 1_555 1_555
C6 C2 1_555 1_555
C7 C3 1_555 1_555
C8 C3 1_555 1_555
C9 C22 1_555 1_555
C10 N1 1_555 1_555
C11 N2 1_555 1_555
N4 C6 1_555 1_555
C12 N2 1_555 1_555
C13 H5 1_555 1_555
C14 C11 1_555 1_555
H6 C14 1_555 1_555
C15 H7 1_555 1_555
C16 C14 1_555 1_555
H8 C16 1_555 1_555
C17 C1 1_555 1_555
H9 C17 1_555 1_555
C18 C7 1_555 1_555
C19 C2 1_555 1_555
H10 C19 1_555 1_555
C20 C13 1_555 1_555
C21 C25 1_555 1_555
C22 H11 1_555 1_555
C23 C11 1_555 1_555
H12 C23 1_555 1_555
C24 C9 1_555 1_555
H13 C24 1_555 1_555
C25 H14 1_555 1_555
C26 N3 1_555 1_555
H15 C26 1_555 1_555
C27 C12 1_555 1_555
H16 C27 1_555 1_555
C28 C20 1_555 1_555
H17 C28 1_555 1_555
C29 C12 1_555 1_555
H18 C29 1_555 1_555
C30 N4 1_555 1_555
H19 C30 1_555 1_555
C31 C17 1_555 1_555
H20 C31 1_555 1_555
C32 C19 1_555 1_555
H21 C32 1_555 1_555
C33 C20 1_555 1_555
H22 C33 1_555 1_555
H23 C33 1_555 1_555
H24 C33 1_555 1_555
C34 C21 1_555 1_555
H25 C34 1_555 1_555
C35 C21 1_555 1_555
H26 C35 1_555 1_555
H27 C35 1_555 1_555
H28 C35 1_555 1_555
C4 C7 1_555 1_555
C4 C10 1_555 1_555
C5 C10 1_555 1_555
C6 C8 1_555 1_555
C13 C24 1_555 1_555
C15 C18 1_555 1_555
C15 C23 1_555 1_555
C16 C18 1_555 1_555
C22 C28 1_555 1_555
C25 C29 1_555 1_555
C26 C31 1_555 1_555
C27 C34 1_555 1_555
C30 C32 1_555 1_555

#END
