
#######################################################################
#
#                 Cambridge Crystallographic Data Centre
#                                CCDC 
#
#######################################################################
#
# If this CIF has been generated from an entry in the Cambridge 
# Structural Database, then it will include bibliographic, chemical, 
# crystal, experimental, refinement or atomic coordinate data resulting 
# from the CCDC's data processing and validation procedures.
#
#######################################################################

data_BEPPAO
_chemical_name_common            
N-(4-p-Tolyl)-1,2,9,9a-tetrahydropropa(c)benz(e)indol-4-one
_chemical_formula_moiety         'C20 H17 N1 O1'
_chemical_name_systematic        
(+-)-3-(4-Methylphenyl)-5-oxo-1,1a,2,5-tetrahydro-benzo[e]cyclopropa[c]indole
_chemical_properties_biological  'L1210 cytotoxic activity'
_symmetry_cell_setting           monoclinic
_symmetry_space_group_name_H-M   'P 21/c'
_symmetry_Int_Tables_number      14
_space_group_name_Hall           '-P 2ybc'
loop_
_symmetry_equiv_pos_site_id
_symmetry_equiv_pos_as_xyz
1 x,y,z
2 -x,1/2+y,1/2-z
3 -x,-y,-z
4 x,1/2-y,1/2+z
_cell_length_a                   8.8731(14)
_cell_length_b                   7.5481(13)
_cell_length_c                   21.853(4)
_cell_angle_alpha                90
_cell_angle_beta                 99.673(3)
_cell_angle_gamma                90
_cell_volume                     1442.8
_exptl_crystal_colour            beige
_exptl_crystal_description       parallelepiped
_chemical_melting_point          '154-155 deg.C'
_cell_formula_units_Z            4
_exptl_crystal_recrystallization_method dichloromethane/hexanes
loop_
_atom_site_label
_atom_site_type_symbol
_atom_site_fract_x
_atom_site_fract_y
_atom_site_fract_z
O1 O 0.65602(15) 0.67033(18) 0.58073(6)
N1 N 0.43442(15) 0.77154(19) 0.36817(6)
C1 C 0.1131(2) 0.7072(2) 0.52137(9)
H1 H 0.0283 0.7284 0.4910
C2 C 0.0932(2) 0.6578(3) 0.57995(10)
H2 H -0.0050 0.6449 0.5889
C3 C 0.2178(2) 0.6273(3) 0.62559(10)
H3 H 0.2035 0.5948 0.6653
C4 C 0.3633(2) 0.6450(2) 0.61240(8)
H4 H 0.4470 0.6241 0.6433
C5 C 0.3868(2) 0.6938(2) 0.55329(7)
C6 C 0.26016(19) 0.7259(2) 0.50713(8)
C7 C 0.28717(18) 0.7814(2) 0.44546(8)
C8 C 0.44335(18) 0.7660(2) 0.43160(7)
C9 C 0.56639(19) 0.7403(2) 0.47681(7)
H5 H 0.6645 0.7461 0.4672
C10 C 0.5459(2) 0.7041(2) 0.53949(8)
C11 C 0.1951(2) 0.9356(2) 0.41269(8)
H6 H 0.1095 0.9797 0.4306
H7 H 0.2502 1.0254 0.3936
C12 C 0.1806(2) 0.7587(2) 0.38396(8)
H8 H 0.0853 0.6919 0.3824
C13 C 0.28072(19) 0.7236(3) 0.33653(8)
H9 H 0.2764 0.5998 0.3245
H10 H 0.2504 0.7959 0.2999
C14 C 0.55618(18) 0.7811(2) 0.33430(7)
C15 C 0.5446(2) 0.6943(2) 0.27746(8)
H11 H 0.4579 0.6278 0.2626
C16 C 0.6610(2) 0.7065(2) 0.24321(8)
H12 H 0.6515 0.6473 0.2054
C17 C 0.7918(2) 0.8044(2) 0.26341(8)
C18 C 0.80021(18) 0.8939(2) 0.31927(8)
H13 H 0.8858 0.9629 0.3334
C19 C 0.68496(18) 0.8836(2) 0.35458(7)
H14 H 0.6937 0.9451 0.3919
C20 C 0.9183(2) 0.8140(3) 0.22541(9)
H15 H 0.8750 0.8210 0.1822
H16 H 0.9810 0.7100 0.2327
H17 H 0.9795 0.9173 0.2371
loop_
_geom_bond_atom_site_label_1
_geom_bond_atom_site_label_2
_geom_bond_site_symmetry_1
_geom_bond_site_symmetry_2
O1 C10 1_555 1_555
N1 C8 1_555 1_555
C1 H1 1_555 1_555
C2 C1 1_555 1_555
H2 C2 1_555 1_555
C3 C2 1_555 1_555
H3 C3 1_555 1_555
C4 C3 1_555 1_555
H4 C4 1_555 1_555
C5 C4 1_555 1_555
C6 C1 1_555 1_555
C7 C6 1_555 1_555
C8 C7 1_555 1_555
C9 C8 1_555 1_555
H5 C9 1_555 1_555
C10 C5 1_555 1_555
C11 C7 1_555 1_555
H6 C11 1_555 1_555
H7 C11 1_555 1_555
C12 C7 1_555 1_555
H8 C12 1_555 1_555
C13 N1 1_555 1_555
H9 C13 1_555 1_555
H10 C13 1_555 1_555
C14 N1 1_555 1_555
C15 C14 1_555 1_555
H11 C15 1_555 1_555
C16 C15 1_555 1_555
H12 C16 1_555 1_555
C17 C16 1_555 1_555
C18 C17 1_555 1_555
H13 C18 1_555 1_555
C19 C14 1_555 1_555
H14 C19 1_555 1_555
C20 C17 1_555 1_555
H15 C20 1_555 1_555
H16 C20 1_555 1_555
H17 C20 1_555 1_555
C5 C6 1_555 1_555
C9 C10 1_555 1_555
C11 C12 1_555 1_555
C12 C13 1_555 1_555
C18 C19 1_555 1_555

#END
