
#######################################################################
#
#                 Cambridge Crystallographic Data Centre
#                                CCDC 
#
#######################################################################
#
# If this CIF has been generated from an entry in the Cambridge 
# Structural Database, then it will include bibliographic, chemical, 
# crystal, experimental, refinement or atomic coordinate data resulting 
# from the CCDC's data processing and validation procedures.
#
#######################################################################

data_BEPPUK
_chemical_formula_moiety         'C35 H28 N4,2(H2 O1)'
_chemical_name_systematic        
'4-methyl-N-(4-methylphenyl)-N-[4-([1^3^,2^2^:2^6^,3^3^-terpyridin]-2^4^-yl)phenyl]aniline dihydrate'
_symmetry_cell_setting           triclinic
_symmetry_space_group_name_H-M   'P -1'
_symmetry_Int_Tables_number      2
_space_group_name_Hall           '-P 1'
loop_
_symmetry_equiv_pos_site_id
_symmetry_equiv_pos_as_xyz
1 x,y,z
2 -x,-y,-z
_cell_length_a                   8.323(2)
_cell_length_b                   10.547(3)
_cell_length_c                   17.798(5)
_cell_angle_alpha                83.121(4)
_cell_angle_beta                 80.820(4)
_cell_angle_gamma                83.161(4)
_cell_volume                     1523.26
_exptl_crystal_colour            colorless
_exptl_crystal_description       block
_cell_formula_units_Z            2
loop_
_atom_site_label
_atom_site_type_symbol
_atom_site_fract_x
_atom_site_fract_y
_atom_site_fract_z
C1 C -0.0971(5) 0.3410(4) 0.3593(2)
H1 H -0.1937 0.3614 0.3385
C2 C 0.0218(5) 0.2537(4) 0.3258(2)
H2 H 0.0052 0.2163 0.2833
C3 C 0.1632(5) 0.2232(4) 0.3558(2)
H3 H 0.2431 0.1634 0.3342
C4 C 0.1894(4) 0.2802(3) 0.41802(17)
C5 C 0.0605(4) 0.3642(4) 0.4475(2)
H4 H 0.0727 0.4013 0.4908
C6 C 0.3427(4) 0.2527(3) 0.45180(16)
C7 C 0.3702(4) 0.3164(3) 0.51163(17)
H5 H 0.2933 0.3809 0.5302
C8 C 0.5131(4) 0.2834(3) 0.54371(17)
C9 C 0.6235(4) 0.1878(3) 0.51309(17)
H6 H 0.7186 0.1610 0.5343
C10 C 0.5930(4) 0.1311(3) 0.45046(16)
C11 C 0.7110(4) 0.0339(3) 0.41293(17)
C12 C 0.6802(5) -0.0195(3) 0.34978(19)
H7 H 0.5809 0.0029 0.3315
C13 C 0.7953(5) -0.1051(4) 0.3143(2)
H8 H 0.7767 -0.1400 0.2713
C14 C 0.9389(5) -0.1383(4) 0.3437(2)
H9 H 1.0177 -0.1956 0.3191
C15 C 0.8582(5) -0.0096(4) 0.4379(2)
H10 H 0.8796 0.0225 0.4813
C16 C 0.5457(4) 0.3471(3) 0.60915(17)
C17 C 0.4185(4) 0.3910(3) 0.66444(18)
H11 H 0.3110 0.3832 0.6589
C18 C 0.4479(4) 0.4449(3) 0.72630(18)
H12 H 0.3614 0.4685 0.7636
C19 C 0.6082(4) 0.4650(3) 0.73400(17)
C20 C 0.7350(4) 0.4254(3) 0.67855(18)
H13 H 0.8418 0.4389 0.6820
C21 C 0.7028(4) 0.3653(3) 0.61758(18)
H14 H 0.7895 0.3368 0.5818
C22 C 0.8359(5) 0.3467(3) 0.8398(2)
H15 H 0.7744 0.2884 0.8251
C23 C 0.7866(4) 0.4775(3) 0.83028(17)
C24 C 0.8804(5) 0.5598(4) 0.8531(2)
H16 H 0.8508 0.6478 0.8463
C25 C 1.0181(6) 0.5139(4) 0.8858(2)
H17 H 1.0776 0.5720 0.9022
C26 C 1.0705(5) 0.3844(4) 0.8952(2)
C27 C 0.9763(5) 0.3035(4) 0.8712(2)
H18 H 1.0084 0.2157 0.8763
C28 C 1.2201(6) 0.3371(6) 0.9313(3)
H19 H 1.1916 0.2779 0.9754
H20 H 1.2644 0.4084 0.9464
H21 H 1.3002 0.2945 0.8951
C29 C 0.5269(4) 0.6152(3) 0.83163(18)
C30 C 0.4363(5) 0.7062(3) 0.7883(2)
H22 H 0.4550 0.7083 0.7353
C31 C 0.3175(5) 0.7946(4) 0.8227(2)
H23 H 0.2556 0.8525 0.7924
C32 C 0.2905(6) 0.7974(4) 0.9017(3)
C33 C 0.3885(6) 0.7082(4) 0.9448(2)
H24 H 0.3771 0.7098 0.9975
C34 C 0.5000(5) 0.6194(4) 0.9104(2)
H25 H 0.5599 0.5597 0.9406
C35 C 0.1642(8) 0.8939(6) 0.9383(3)
H26 H 0.0693 0.8524 0.9617
H27 H 0.1340 0.9608 0.9001
H28 H 0.2083 0.9301 0.9766
N1 N -0.0790(4) 0.3966(4) 0.4195(2)
N2 N 0.4514(3) 0.1626(2) 0.42136(13)
N3 N 0.9715(4) -0.0929(4) 0.4053(2)
N4 N 0.6406(4) 0.5224(3) 0.79760(15)
O1 O 0.1721(6) 0.0379(5) 0.1612(5)
H29 H 0.1078 -0.0199 0.1637
H30 H 0.1748 0.0825 0.1181
O3 O 0.3921(15) 0.9097(8) 0.2298(4)
H33 H 0.3235 0.9556 0.2586
H34 H 0.4856 0.9372 0.2248
O2? O 0.301(2) 0.0151(10) 0.0907(7)
H31? H 0.2579 0.0579 0.1277
H32? H 0.3257 -0.0623 0.1078
O4? O 0.4767(11) 0.8908(7) 0.1850(10)
H35? H 0.4740 0.8164 0.2093
H36? H 0.3821 0.9182 0.1741
loop_
_geom_bond_atom_site_label_1
_geom_bond_atom_site_label_2
_geom_bond_site_symmetry_1
_geom_bond_site_symmetry_2
C1 H1 1_555 1_555
C2 C1 1_555 1_555
H2 C2 1_555 1_555
C3 C2 1_555 1_555
H3 C3 1_555 1_555
C4 C3 1_555 1_555
C5 C4 1_555 1_555
H4 C5 1_555 1_555
C6 C4 1_555 1_555
C7 C6 1_555 1_555
H5 C7 1_555 1_555
C8 C7 1_555 1_555
C9 C8 1_555 1_555
H6 C9 1_555 1_555
C10 C9 1_555 1_555
C11 C10 1_555 1_555
C12 C11 1_555 1_555
H7 C12 1_555 1_555
C13 C12 1_555 1_555
H8 C13 1_555 1_555
C14 C13 1_555 1_555
H9 C14 1_555 1_555
C15 C11 1_555 1_555
H10 C15 1_555 1_555
C16 C8 1_555 1_555
C17 C16 1_555 1_555
H11 C17 1_555 1_555
C18 C17 1_555 1_555
H12 C18 1_555 1_555
C19 C18 1_555 1_555
C20 C19 1_555 1_555
H13 C20 1_555 1_555
C21 C16 1_555 1_555
H14 C21 1_555 1_555
C22 H15 1_555 1_555
C23 C22 1_555 1_555
C24 C23 1_555 1_555
H16 C24 1_555 1_555
C25 C24 1_555 1_555
H17 C25 1_555 1_555
C26 C25 1_555 1_555
C27 C22 1_555 1_555
H18 C27 1_555 1_555
C28 C26 1_555 1_555
H19 C28 1_555 1_555
H20 C28 1_555 1_555
H21 C28 1_555 1_555
C29 C30 1_555 1_555
C30 H22 1_555 1_555
C31 C30 1_555 1_555
H23 C31 1_555 1_555
C32 C31 1_555 1_555
C33 C32 1_555 1_555
H24 C33 1_555 1_555
C34 C29 1_555 1_555
H25 C34 1_555 1_555
C35 C32 1_555 1_555
H26 C35 1_555 1_555
H27 C35 1_555 1_555
H28 C35 1_555 1_555
N1 C1 1_555 1_555
N2 C6 1_555 1_555
N3 C14 1_555 1_555
N4 C19 1_555 1_555
O1 H29 1_555 1_555
H30 O1 1_555 1_555
O3 H33 1_555 1_555
H34 O3 1_555 1_555
C5 N1 1_555 1_555
C10 N2 1_555 1_555
C15 N3 1_555 1_555
C20 C21 1_555 1_555
C23 N4 1_555 1_555
C26 C27 1_555 1_555
C29 N4 1_555 1_555
C33 C34 1_555 1_555

#END
