
#######################################################################
#
#                 Cambridge Crystallographic Data Centre
#                                CCDC 
#
#######################################################################
#
# If this CIF has been generated from an entry in the Cambridge 
# Structural Database, then it will include bibliographic, chemical, 
# crystal, experimental, refinement or atomic coordinate data resulting 
# from the CCDC's data processing and validation procedures.
#
#######################################################################

data_BEPPOC
_chemical_name_common            
N-(4-Chlorophenyl)-1,2,9,9a-tetrahydropropa(c)benz(e)indol-4-one
_chemical_formula_moiety         'C19 H14 Cl1 N1 O1'
_chemical_name_systematic        
(+-)-3-(4-Chlorophenyl)-5-oxo-1,1a,2,5-tetrahydro-benzo[e]cyclopropa[c]indole
_chemical_properties_biological  'L1210 cytotoxic activity'
_symmetry_cell_setting           monoclinic
_symmetry_space_group_name_H-M   'P 21/c'
_symmetry_Int_Tables_number      14
_space_group_name_Hall           '-P 2ybc'
loop_
_symmetry_equiv_pos_site_id
_symmetry_equiv_pos_as_xyz
1 x,y,z
2 -x,1/2+y,1/2-z
3 -x,-y,-z
4 x,1/2-y,1/2+z
_cell_length_a                   8.0672(18)
_cell_length_b                   7.5060(16)
_cell_length_c                   23.989(5)
_cell_angle_alpha                90
_cell_angle_beta                 97.393(4)
_cell_angle_gamma                90
_cell_volume                     1440.52
_exptl_crystal_colour            'light beige'
_exptl_crystal_description       plate
_chemical_melting_point          '194-196 deg.C'
_cell_formula_units_Z            4
_exptl_crystal_recrystallization_method dichloromethane/hexanes
loop_
_atom_site_label
_atom_site_type_symbol
_atom_site_fract_x
_atom_site_fract_y
_atom_site_fract_z
Cl1 Cl 0.90909(11) 0.27727(12) 0.21886(3)
O1 O 0.7129(2) 0.3018(2) 0.55991(7)
N1 N 0.4054(2) 0.2758(3) 0.37624(9)
C1 C 0.1177(3) 0.2773(3) 0.53776(12)
H1 H 0.0165 0.2719 0.5144
C2 C 0.1186(3) 0.2964(3) 0.59446(12)
H2 H 0.0180 0.3049 0.6094
C3 C 0.2671(3) 0.3032(3) 0.62962(12)
H3 H 0.2666 0.3143 0.6682
C4 C 0.4159(3) 0.2935(3) 0.60789(11)
H4 H 0.5159 0.2988 0.6319
C5 C 0.4187(3) 0.2760(3) 0.55065(10)
C6 C 0.2675(3) 0.2659(3) 0.51484(10)
C7 C 0.2738(3) 0.2373(3) 0.45510(11)
C8 C 0.4350(3) 0.2590(3) 0.43395(10)
C9 C 0.5804(3) 0.2724(3) 0.46842(10)
H5 H 0.6808 0.2768 0.4533
C10 C 0.5815(3) 0.2797(3) 0.52791(10)
C11 C 0.1613(3) 0.0957(4) 0.42348(11)
H6 H 0.2118 0.0150 0.3989
H7 H 0.0745 0.0431 0.4427
C12 C 0.1416(3) 0.2826(4) 0.40622(11)
H8 H 0.0412 0.3483 0.4131
C13 C 0.2318(3) 0.3338(4) 0.35830(12)
H9 H 0.1852 0.2734 0.3241
H10 H 0.2264 0.4614 0.3520
C14 C 0.5245(3) 0.2738(3) 0.33881(11)
C15 C 0.4976(4) 0.3689(3) 0.28887(11)
H11 H 0.3992 0.4332 0.2802
C16 C 0.6141(4) 0.3690(4) 0.25234(11)
H12 H 0.5947 0.4335 0.2190
C17 C 0.7591(4) 0.2746(4) 0.26462(11)
C18 C 0.7865(3) 0.1737(3) 0.31271(11)
H13 H 0.8837 0.1066 0.3203
C19 C 0.6701(3) 0.1727(3) 0.34930(10)
H14 H 0.6883 0.1036 0.3817
loop_
_geom_bond_atom_site_label_1
_geom_bond_atom_site_label_2
_geom_bond_site_symmetry_1
_geom_bond_site_symmetry_2
Cl1 C17 1_555 1_555
O1 C10 1_555 1_555
N1 C8 1_555 1_555
C1 H1 1_555 1_555
C2 C1 1_555 1_555
H2 C2 1_555 1_555
C3 C2 1_555 1_555
H3 C3 1_555 1_555
C4 C3 1_555 1_555
H4 C4 1_555 1_555
C5 C4 1_555 1_555
C6 C1 1_555 1_555
C7 C6 1_555 1_555
C8 C7 1_555 1_555
C9 C8 1_555 1_555
H5 C9 1_555 1_555
C10 C5 1_555 1_555
C11 C7 1_555 1_555
H6 C11 1_555 1_555
H7 C11 1_555 1_555
C12 C7 1_555 1_555
H8 C12 1_555 1_555
C13 N1 1_555 1_555
H9 C13 1_555 1_555
H10 C13 1_555 1_555
C14 N1 1_555 1_555
C15 C14 1_555 1_555
H11 C15 1_555 1_555
C16 C15 1_555 1_555
H12 C16 1_555 1_555
C17 C16 1_555 1_555
C18 C17 1_555 1_555
H13 C18 1_555 1_555
C19 C14 1_555 1_555
H14 C19 1_555 1_555
C5 C6 1_555 1_555
C9 C10 1_555 1_555
C11 C12 1_555 1_555
C12 C13 1_555 1_555
C18 C19 1_555 1_555

#END
