
#######################################################################
#
#                 Cambridge Crystallographic Data Centre
#                                CCDC 
#
#######################################################################
#
# If this CIF has been generated from an entry in the Cambridge 
# Structural Database, then it will include bibliographic, chemical, 
# crystal, experimental, refinement or atomic coordinate data resulting 
# from the CCDC's data processing and validation procedures.
#
#######################################################################

data_BEPSIA
_chemical_formula_moiety         'C49 H40 N10 O5,2(Cl1 1-),2(C16 H36 N1 1+)'
_chemical_name_systematic        
'bis(tetra-n-butylammonium) dichloride 3-(1-naphthyl)-3-(2-(((2-(((2-(((2-((1-naphthylcarbamoyl)amino)phenyl)carbamoyl)amino)phenyl)carbamoyl)amino)phenyl)ca unknown solvate'
_symmetry_cell_setting           orthorhombic
_symmetry_space_group_name_H-M   'P 21 21 21'
_symmetry_Int_Tables_number      19
_space_group_name_Hall           'P 2ac 2ab'
loop_
_symmetry_equiv_pos_site_id
_symmetry_equiv_pos_as_xyz
1 x,y,z
2 1/2-x,-y,1/2+z
3 -x,1/2+y,1/2-z
4 1/2+x,1/2-y,-z
_cell_length_a                   13.509(2)
_cell_length_b                   24.364(4)
_cell_length_c                   26.380(4)
_cell_angle_alpha                90
_cell_angle_beta                 90
_cell_angle_gamma                90
_cell_volume                     8682.54
_exptl_crystal_colour            colorless
_exptl_crystal_description       block
_cell_formula_units_Z            4
loop_
_atom_site_label
_atom_site_type_symbol
_atom_site_fract_x
_atom_site_fract_y
_atom_site_fract_z
Cl1 Cl 0.07347(17) 1.03396(8) 0.68849(7)
Cl2 Cl 0.2765(2) 0.91958(9) 0.70153(8)
O1 O 0.2679(6) 0.7144(3) 0.6959(3)
O2 O 0.2086(9) 0.9152(4) 0.5141(3)
O3 O 0.4380(5) 1.0788(2) 0.6720(2)
O4 O 0.1262(5) 1.0075(2) 0.8616(2)
O5 O -0.1242(5) 0.8553(3) 0.6861(2)
N1 N 0.3257(6) 0.7904(3) 0.7367(3)
H1 H 0.3349 0.8252 0.7341
N2 N 0.2581(7) 0.7976(3) 0.6567(3)
H2 H 0.2755 0.8314 0.6598
N3 N 0.1842(6) 0.8806(4) 0.5940(3)
H3 H 0.1800 0.8900 0.6254
N4 N 0.2401(6) 0.9666(4) 0.5810(3)
H4 H 0.2371 0.9676 0.6135
N5 N 0.2880(6) 1.0581(3) 0.6406(3)
H5 H 0.2281 1.0504 0.6491
N6 N 0.3035(5) 1.0661(3) 0.7241(3)
H6 H 0.2410 1.0593 0.7236
N7 N 0.2377(6) 0.9991(2) 0.7981(2)
H7 H 0.2508 0.9804 0.7713
N8 N 0.1001(5) 0.9458(3) 0.7980(2)
H8 H 0.1242 0.9337 0.7700
N9 N -0.0406(5) 0.9242(3) 0.7264(2)
H9 H -0.0044 0.9528 0.7215
N10 N -0.0472(5) 0.9228(3) 0.6401(2)
H10 H -0.0058 0.9494 0.6431
C1 C 0.3562(8) 0.7673(4) 0.7819(5)
C2 C 0.3935(9) 0.7134(5) 0.7811(5)
H11 H 0.3960 0.6944 0.7506
C3 C 0.4239(12) 0.6902(5) 0.8217(7)
H12 H 0.4448 0.6539 0.8202
C4 C 0.4269(9) 0.7176(6) 0.8681(7)
H13 H 0.4498 0.6995 0.8968
C5 C 0.3939(8) 0.7753(5) 0.8718(5)
C6 C 0.3899(10) 0.8039(6) 0.9180(5)
H14 H 0.4113 0.7879 0.9481
C7 C 0.3528(11) 0.8568(6) 0.9172(5)
H15 H 0.3500 0.8771 0.9470
C8 C 0.3187(9) 0.8803(5) 0.8707(5)
H16 H 0.2947 0.9161 0.8711
C9 C 0.3198(8) 0.8538(4) 0.8273(4)
H17 H 0.2964 0.8704 0.7979
C10 C 0.3570(7) 0.7995(4) 0.8260(4)
C11 C 0.2820(8) 0.7655(4) 0.6946(5)
C12 C 0.2070(9) 0.7840(6) 0.6110(5)
C13 C 0.1945(9) 0.7283(5) 0.5965(4)
H18 H 0.2192 0.6996 0.6161
C14 C 0.1446(13) 0.7190(7) 0.5528(7)
H19 H 0.1386 0.6830 0.5417
C15 C 0.1008(12) 0.7608(9) 0.5229(5)
H20 H 0.0652 0.7524 0.4937
C16 C 0.1129(10) 0.8137(6) 0.5385(4)
H21 H 0.0839 0.8420 0.5201
C17 C 0.1673(8) 0.8261(6) 0.5812(4)
C18 C 0.2074(9) 0.9199(6) 0.5586(4)
C19 C 0.2909(7) 1.0159(4) 0.5050(3)
H22 H 0.2705 0.9867 0.4848
C20 C 0.3343(7) 1.0618(5) 0.4829(2)
H23 H 0.3429 1.0633 0.4479
C21 C 0.3649(7) 1.1053(4) 0.5131(4)
H24 H 0.3939 1.1360 0.4983
C22 C 0.3520(7) 1.1031(3) 0.5653(3)
H25 H 0.3725 1.1322 0.5855
C23 C 0.3086(6) 1.0572(3) 0.5874(2)
C24 C 0.2781(6) 1.0136(3) 0.5572(3)
C25 C 0.3505(9) 1.0695(3) 0.6793(4)
C26 C 0.3485(7) 1.0729(3) 0.7723(3)
C27 C 0.4260(8) 1.1078(4) 0.7806(4)
H26 H 0.4541 1.1275 0.7541
C28 C 0.4618(10) 1.1132(4) 0.8296(6)
H27 H 0.5166 1.1353 0.8356
C29 C 0.4156(9) 1.0851(5) 0.8712(5)
H28 H 0.4358 1.0921 0.9043
C30 C 0.3403(8) 1.0474(4) 0.8616(3)
H29 H 0.3119 1.0275 0.8879
C31 C 0.3081(7) 1.0400(3) 0.8114(3)
C32 C 0.1522(7) 0.9858(3) 0.8225(3)
C33 C 0.0117(7) 0.9229(3) 0.8144(3)
C34 C -0.0110(9) 0.9132(5) 0.8636(4)
H30 H 0.0331 0.9252 0.8883
C35 C -0.0922(12) 0.8876(6) 0.8785(4)
H31 H -0.1014 0.8783 0.9123
C36 C -0.1627(10) 0.8751(5) 0.8429(5)
H32 H -0.2221 0.8597 0.8536
C37 C -0.1488(8) 0.8845(4) 0.7913(3)
H33 H -0.1964 0.8749 0.7674
C38 C -0.0600(7) 0.9091(3) 0.7776(3)
C39 C -0.0744(7) 0.8974(4) 0.6846(3)
C40 C -0.0785(7) 0.9108(4) 0.5906(3)
C41 C -0.1237(8) 0.8624(4) 0.5783(4)
H34 H -0.1324 0.8355 0.6029
C42 C -0.1573(9) 0.8530(5) 0.5280(5)
H35 H -0.1884 0.8201 0.5198
C43 C -0.1442(9) 0.8912(6) 0.4924(4)
H36 H -0.1678 0.8844 0.4598
C44 C -0.0960(9) 0.9415(5) 0.5020(3)
C45 C -0.0826(11) 0.9805(7) 0.4639(4)
H37 H -0.1075 0.9734 0.4317
C46 C -0.0363(14) 1.0266(7) 0.4720(5)
H38 H -0.0262 1.0519 0.4462
C47 C -0.0006(13) 1.0370(5) 0.5239(4)
H39 H 0.0314 1.0699 0.5312
C48 C -0.0132(9) 1.0000(5) 0.5609(3)
H40 H 0.0108 1.0075 0.5932
C49 C -0.0616(7) 0.9502(4) 0.5519(3)
N11 N 0.4329(6) 0.8157(3) 0.2941(3)
C50 C 0.3016(18) 0.8162(8) 0.4291(6)
C51 C 0.3354(11) 0.8415(5) 0.3748(4)
C52 C 0.4063(8) 0.7990(4) 0.3490(4)
C53 C 0.6010(11) 0.7354(6) 0.1431(6)
H41 H 0.5405 0.7290 0.1250
H42 H 0.6494 0.7087 0.1332
H43 H 0.6251 0.7716 0.1355
C54 C 0.5819(10) 0.7306(5) 0.1996(5)
H44 H 0.5432 0.6978 0.2060
H45 H 0.6447 0.7266 0.2171
C55 C 0.5293(11) 0.7781(5) 0.2205(6)
H46 H 0.4701 0.7844 0.2005
H47 H 0.5711 0.8103 0.2170
C56 C 0.5002(8) 0.7724(4) 0.2751(4)
H48 H 0.4684 0.7370 0.2796
H49 H 0.5598 0.7725 0.2956
C57 C 0.1370(13) 0.7203(8) 0.2248(7)
H50 H 0.1760 0.6904 0.2376
H51 H 0.1150 0.7119 0.1911
H52 H 0.0807 0.7258 0.2464
C58 C 0.1959(11) 0.7693(5) 0.2238(6)
H53 H 0.1547 0.8006 0.2323
H54 H 0.2218 0.7749 0.1899
C59 C 0.2770(9) 0.7659(4) 0.2593(5)
H55 H 0.3202 0.7360 0.2493
H56 H 0.2509 0.7575 0.2927
C60 C 0.3374(8) 0.8184(4) 0.2624(4)
H57 H 0.2956 0.8470 0.2764
H58 H 0.3549 0.8293 0.2282
C61 C 0.7148(16) 0.9439(6) 0.3304(7)
H59 H 0.7548 0.9143 0.3180
H60 H 0.7142 0.9433 0.3668
H61 H 0.7417 0.9782 0.3189
C62 C 0.6129(9) 0.9378(4) 0.3112(5)
H62 H 0.6108 0.9489 0.2759
H63 H 0.5693 0.9620 0.3301
C63 C 0.5751(9) 0.8785(4) 0.3158(4)
H64 H 0.6235 0.8537 0.3011
H65 H 0.5679 0.8692 0.3514
C64 C 0.4797(8) 0.8709(4) 0.2901(4)
H66 H 0.4889 0.8792 0.2544
H67 H 0.4336 0.8977 0.3036
C65 C 0.3750(16) 0.8251(11) 0.4623(8)
N12 N 0.6038(7) 0.9494(4) 0.6444(3)
C66 C 0.5620(11) 0.9311(6) 0.8349(4)
H68 H 0.5233 0.8997 0.8443
H69 H 0.5549 0.9592 0.8602
H70 H 0.6304 0.9208 0.8323
C67 C 0.5277(10) 0.9522(6) 0.7859(5)
H71 H 0.5265 0.9920 0.7875
H72 H 0.4603 0.9399 0.7805
C68 C 0.5886(10) 0.9354(5) 0.7409(4)
H73 H 0.5926 0.8957 0.7395
H74 H 0.6552 0.9498 0.7445
C69 C 0.5425(8) 0.9571(4) 0.6919(4)
H75 H 0.4793 0.9391 0.6870
H76 H 0.5296 0.9960 0.6961
C70 C 0.5047(18) 0.7511(8) 0.6129(8)
H77 H 0.4633 0.7512 0.6425
H78 H 0.5355 0.7158 0.6094
H79 H 0.4651 0.7586 0.5835
C71 C 0.5827(13) 0.7943(6) 0.6182(5)
H80 H 0.6189 0.7968 0.5865
H81 H 0.6291 0.7829 0.6442
C72 C 0.5432(15) 0.8516(6) 0.6318(5)
H82 H 0.4972 0.8640 0.6060
H83 H 0.5086 0.8503 0.6640
C73 C 0.6309(11) 0.8908(6) 0.6351(5)
H84 H 0.6741 0.8787 0.6623
H85 H 0.6681 0.8887 0.6038
C74 C 0.7024(10) 0.9789(6) 0.6511(5)
C75 C 0.6921(10) 1.0367(9) 0.6610(7)
C76 C 0.801(2) 1.0555(10) 0.6559(8)
C77 C 0.5398(9) 0.9721(5) 0.6007(4)
H86 H 0.4800 0.9503 0.5978
H87 H 0.5207 1.0095 0.6083
C78 C 0.5936(17) 0.9709(8) 0.5517(7)
H88 H 0.6425 0.9417 0.5523
H89 H 0.6281 1.0054 0.5469
C79 C 0.5221(19) 0.9614(12) 0.5076(8)
H90 H 0.4723 0.9901 0.5069
H91 H 0.4891 0.9263 0.5114
C80 C 0.5849(19) 0.9623(10) 0.4575(7)
H92 H 0.6379 0.9883 0.4609
H93 H 0.5433 0.9728 0.4296
H94 H 0.6118 0.9265 0.4513
C81 C 0.809(2) 1.1157(9) 0.6679(14)
loop_
_geom_bond_atom_site_label_1
_geom_bond_atom_site_label_2
_geom_bond_site_symmetry_1
_geom_bond_site_symmetry_2
O1 C11 1_555 1_555
O2 C18 1_555 1_555
O3 C25 1_555 1_555
O4 C32 1_555 1_555
O5 C39 1_555 1_555
N1 H1 1_555 1_555
N2 H2 1_555 1_555
N3 H3 1_555 1_555
N4 H4 1_555 1_555
N5 H5 1_555 1_555
N6 H6 1_555 1_555
N7 H7 1_555 1_555
N8 H8 1_555 1_555
N9 H9 1_555 1_555
N10 H10 1_555 1_555
C1 N1 1_555 1_555
C2 C1 1_555 1_555
H11 C2 1_555 1_555
C3 C2 1_555 1_555
H12 C3 1_555 1_555
C4 C3 1_555 1_555
H13 C4 1_555 1_555
C5 C4 1_555 1_555
C6 C5 1_555 1_555
H14 C6 1_555 1_555
C7 C6 1_555 1_555
H15 C7 1_555 1_555
C8 C7 1_555 1_555
H16 C8 1_555 1_555
C9 C8 1_555 1_555
H17 C9 1_555 1_555
C10 C1 1_555 1_555
C11 N1 1_555 1_555
C12 N2 1_555 1_555
C13 C12 1_555 1_555
H18 C13 1_555 1_555
C14 C13 1_555 1_555
H19 C14 1_555 1_555
C15 C14 1_555 1_555
H20 C15 1_555 1_555
C16 C15 1_555 1_555
H21 C16 1_555 1_555
C17 N3 1_555 1_555
C18 N3 1_555 1_555
C19 H22 1_555 1_555
C20 C19 1_555 1_555
H23 C20 1_555 1_555
C21 C20 1_555 1_555
H24 C21 1_555 1_555
C22 C21 1_555 1_555
H25 C22 1_555 1_555
C23 N5 1_555 1_555
C24 N4 1_555 1_555
C25 N5 1_555 1_555
C26 N6 1_555 1_555
C27 C26 1_555 1_555
H26 C27 1_555 1_555
C28 C27 1_555 1_555
H27 C28 1_555 1_555
C29 C28 1_555 1_555
H28 C29 1_555 1_555
C30 C29 1_555 1_555
H29 C30 1_555 1_555
C31 N7 1_555 1_555
C32 N7 1_555 1_555
C33 N8 1_555 1_555
C34 C33 1_555 1_555
H30 C34 1_555 1_555
C35 C34 1_555 1_555
H31 C35 1_555 1_555
C36 C35 1_555 1_555
H32 C36 1_555 1_555
C37 C36 1_555 1_555
H33 C37 1_555 1_555
C38 N9 1_555 1_555
C39 N9 1_555 1_555
C40 N10 1_555 1_555
C41 C40 1_555 1_555
H34 C41 1_555 1_555
C42 C41 1_555 1_555
H35 C42 1_555 1_555
C43 C42 1_555 1_555
H36 C43 1_555 1_555
C44 C43 1_555 1_555
C45 C44 1_555 1_555
H37 C45 1_555 1_555
C46 C45 1_555 1_555
H38 C46 1_555 1_555
C47 C46 1_555 1_555
H39 C47 1_555 1_555
C48 C47 1_555 1_555
H40 C48 1_555 1_555
C49 C40 1_555 1_555
N11 C52 1_555 1_555
C50 C51 1_555 1_555
C51 C52 1_555 1_555
C53 H41 1_555 1_555
H42 C53 1_555 1_555
H43 C53 1_555 1_555
C54 C53 1_555 1_555
H44 C54 1_555 1_555
H45 C54 1_555 1_555
C55 C54 1_555 1_555
H46 C55 1_555 1_555
H47 C55 1_555 1_555
C56 N11 1_555 1_555
H48 C56 1_555 1_555
H49 C56 1_555 1_555
C57 H50 1_555 1_555
H51 C57 1_555 1_555
H52 C57 1_555 1_555
C58 C57 1_555 1_555
H53 C58 1_555 1_555
H54 C58 1_555 1_555
C59 C58 1_555 1_555
H55 C59 1_555 1_555
H56 C59 1_555 1_555
C60 N11 1_555 1_555
H57 C60 1_555 1_555
H58 C60 1_555 1_555
C61 H59 1_555 1_555
H60 C61 1_555 1_555
H61 C61 1_555 1_555
C62 C61 1_555 1_555
H62 C62 1_555 1_555
H63 C62 1_555 1_555
C63 C62 1_555 1_555
H64 C63 1_555 1_555
H65 C63 1_555 1_555
C64 N11 1_555 1_555
H66 C64 1_555 1_555
H67 C64 1_555 1_555
C65 C50 1_555 1_555
N12 C69 1_555 1_555
C66 H68 1_555 1_555
H69 C66 1_555 1_555
H70 C66 1_555 1_555
C67 C66 1_555 1_555
H71 C67 1_555 1_555
H72 C67 1_555 1_555
C68 C67 1_555 1_555
H73 C68 1_555 1_555
H74 C68 1_555 1_555
C69 C68 1_555 1_555
H75 C69 1_555 1_555
H76 C69 1_555 1_555
C70 H77 1_555 1_555
H78 C70 1_555 1_555
H79 C70 1_555 1_555
C71 C70 1_555 1_555
H80 C71 1_555 1_555
H81 C71 1_555 1_555
C72 C71 1_555 1_555
H82 C72 1_555 1_555
H83 C72 1_555 1_555
C73 N12 1_555 1_555
H84 C73 1_555 1_555
H85 C73 1_555 1_555
C74 N12 1_555 1_555
C75 C74 1_555 1_555
C76 C75 1_555 1_555
C77 N12 1_555 1_555
H86 C77 1_555 1_555
H87 C77 1_555 1_555
C78 C77 1_555 1_555
H88 C78 1_555 1_555
H89 C78 1_555 1_555
C79 C78 1_555 1_555
H90 C79 1_555 1_555
H91 C79 1_555 1_555
C80 C79 1_555 1_555
H92 C80 1_555 1_555
H93 C80 1_555 1_555
H94 C80 1_555 1_555
C81 C76 1_555 1_555
N2 C11 1_555 1_555
N4 C18 1_555 1_555
N6 C25 1_555 1_555
N8 C32 1_555 1_555
N10 C39 1_555 1_555
C5 C10 1_555 1_555
C9 C10 1_555 1_555
C12 C17 1_555 1_555
C16 C17 1_555 1_555
C19 C24 1_555 1_555
C22 C23 1_555 1_555
C23 C24 1_555 1_555
C26 C31 1_555 1_555
C30 C31 1_555 1_555
C33 C38 1_555 1_555
C37 C38 1_555 1_555
C44 C49 1_555 1_555
C48 C49 1_555 1_555
C55 C56 1_555 1_555
C59 C60 1_555 1_555
C63 C64 1_555 1_555
C72 C73 1_555 1_555

#END
