
#######################################################################
#
#                 Cambridge Crystallographic Data Centre
#                                CCDC 
#
#######################################################################
#
# If this CIF has been generated from an entry in the Cambridge 
# Structural Database, then it will include bibliographic, chemical, 
# crystal, experimental, refinement or atomic coordinate data resulting 
# from the CCDC's data processing and validation procedures.
#
#######################################################################

data_BERRIC
_chemical_formula_moiety         
'C54 H66 Si6 2-,2(C16 H32 K1 O7 1+),2(C4 H8 O1)'
_chemical_name_systematic        
'bis((18-crown-6)-(tetrahydrofuran)-potassium)  1,2,3,4,5,6-hexakis(2,4,6-trimethylphenyl)tricyclo[2.2.0.0^2,5^]hexasilanedi-ide tetrahydrofuran solvate'
_symmetry_cell_setting           monoclinic
_symmetry_space_group_name_H-M   'P 21/c'
_symmetry_Int_Tables_number      14
_space_group_name_Hall           '-P 2ybc'
loop_
_symmetry_equiv_pos_site_id
_symmetry_equiv_pos_as_xyz
1 x,y,z
2 -x,1/2+y,1/2-z
3 -x,-y,-z
4 x,1/2-y,1/2+z
_cell_length_a                   23.036(5)
_cell_length_b                   19.079(3)
_cell_length_c                   23.557(3)
_cell_angle_alpha                90
_cell_angle_beta                 108.190(6)
_cell_angle_gamma                90
_cell_volume                     9836
_exptl_crystal_colour            colorless
_exptl_crystal_description       plate
_cell_formula_units_Z            4
loop_
_atom_site_label
_atom_site_type_symbol
_atom_site_fract_x
_atom_site_fract_y
_atom_site_fract_z
K1 K 0.41213(7) 0.37831(8) 0.49412(7)
O1 O 0.4910(8) 0.4540(9) 0.5927(11)
O2 O 0.5415(4) 0.3663(5) 0.5217(4)
O3 O 0.4654(4) 0.2700(5) 0.4441(4)
O4 O 0.3545(10) 0.3379(10) 0.3739(9)
O5 O 0.3215(5) 0.4572(5) 0.4262(4)
O6 O 0.3839(9) 0.5193(11) 0.5291(10)
C1 C 0.5555(9) 0.4533(10) 0.5996(14)
H1 H 0.5785 0.4639 0.6408
H2 H 0.5644 0.4894 0.5745
C2 C 0.5759(6) 0.3818(7) 0.5826(5)
H3 H 0.6192 0.3829 0.5870
H4 H 0.5690 0.3457 0.6088
C3 C 0.5603(8) 0.3015(7) 0.5016(6)
H5 H 0.5550 0.2635 0.5270
H6 H 0.6034 0.3042 0.5054
C4 C 0.5239(6) 0.2853(10) 0.4369(6)
H7 H 0.5219 0.3254 0.4110
H8 H 0.5404 0.2453 0.4216
C5 C 0.4238(9) 0.2429(10) 0.3904(7)
H9 H 0.3918 0.2166 0.3997
H10 H 0.4452 0.2112 0.3716
C6 C 0.3953(10) 0.3024(10) 0.3474(10)
H11 H 0.4266 0.3341 0.3432
H12 H 0.3728 0.2840 0.3083
C7 C 0.3323(7) 0.3996(7) 0.3398(7)
H13 H 0.3113 0.3869 0.2987
H14 H 0.3664 0.4298 0.3404
C8 C 0.2886(5) 0.4389(7) 0.3656(4)
H15 H 0.2736 0.4808 0.3424
H16 H 0.2540 0.4094 0.3645
C9 C 0.2939(12) 0.5141(10) 0.4487(7)
H17 H 0.2502 0.5062 0.4377
H18 H 0.3004 0.5574 0.4299
C10 C 0.3191(9) 0.5224(15) 0.5157(7)
H19 H 0.3068 0.5670 0.5281
H20 H 0.3047 0.4849 0.5357
C11 C 0.4087(10) 0.5186(19) 0.5937(10)
H21 H 0.3977 0.4754 0.6095
H22 H 0.3929 0.5577 0.6106
C12 C 0.4777(11) 0.5241(13) 0.6089(15)
H23 H 0.4895 0.5595 0.5851
H24 H 0.4973 0.5336 0.6510
O7 O 0.3527(9) 0.2883(9) 0.5460(9)
C13 C 0.2883(9) 0.3028(15) 0.5550(11)
H25 H 0.2645 0.3370 0.5267
H26 H 0.2648 0.2602 0.5527
C14 C 0.3106(11) 0.3309(16) 0.6160(13)
H27 H 0.2842 0.3160 0.6387
H28 H 0.3111 0.3817 0.6151
C15 C 0.3761(12) 0.3022(19) 0.6449(12)
H29 H 0.4053 0.3405 0.6544
H30 H 0.3787 0.2773 0.6815
C16 C 0.3900(9) 0.2523(12) 0.5995(10)
H31 H 0.4330 0.2519 0.6026
H32 H 0.3760 0.2049 0.6024
K2 K 0.13819(6) 0.47379(7) 0.87694(6)
O15 O 0.1841(2) 0.4234(2) 0.99329(19)
O16 O 0.25660(19) 0.5098(2) 0.9446(2)
O17 O 0.2157(2) 0.5321(2) 0.8189(2)
O18 O 0.0912(2) 0.5133(2) 0.75477(19)
O19 O 0.03140(19) 0.4087(2) 0.80136(19)
O20 O 0.06128(19) 0.3972(2) 0.92759(18)
C33 C 0.2334(3) 0.4653(4) 1.0286(3)
H65 H 0.2509 0.4444 1.0678
H66 H 0.2190 0.5119 1.0337
C34 C 0.2801(3) 0.4692(4) 0.9970(3)
H67 H 0.3172 0.4906 1.0228
H68 H 0.2900 0.4224 0.9867
C35 C 0.2963(3) 0.5137(4) 0.9090(3)
H69 H 0.3011 0.4675 0.8937
H70 H 0.3362 0.5301 0.9330
C36 C 0.2701(3) 0.5625(4) 0.8585(3)
H71 H 0.2606 0.6070 0.8735
H72 H 0.2995 0.5709 0.8374
C37 C 0.1843(4) 0.5786(4) 0.7721(3)
H73 H 0.2125 0.5983 0.7533
H74 H 0.1662 0.6168 0.7880
C38 C 0.1357(3) 0.5375(4) 0.7277(3)
H75 H 0.1159 0.5666 0.6934
H76 H 0.1539 0.4977 0.7140
C39 C 0.0518(3) 0.4624(4) 0.7185(3)
H77 H 0.0751 0.4212 0.7148
H78 H 0.0325 0.4813 0.6788
C40 C 0.0038(3) 0.4428(4) 0.7470(3)
H79 H -0.0170 0.4847 0.7538
H80 H -0.0263 0.4122 0.7205
C41 C -0.0119(3) 0.3924(3) 0.8313(3)
H81 H -0.0448 0.3645 0.8054
H82 H -0.0293 0.4353 0.8411
C42 C 0.0190(3) 0.3527(3) 0.8870(3)
H83 H -0.0111 0.3359 0.9048
H84 H 0.0401 0.3124 0.8777
C43 C 0.0910(3) 0.3640(3) 0.9830(3)
H85 H 0.1104 0.3211 0.9761
H86 H 0.0613 0.3520 1.0029
C44 C 0.1378(3) 0.4125(3) 1.0212(3)
H87 H 0.1190 0.4568 1.0255
H88 H 0.1557 0.3923 1.0606
O21 O 0.1767(6) 0.3446(10) 0.8602(7)
C45 C 0.2196(6) 0.3031(7) 0.9066(6)
H89 H 0.2031 0.2567 0.9088
H90 H 0.2280 0.3256 0.9452
C46 C 0.2795(6) 0.2980(10) 0.8880(7)
H91 H 0.3090 0.3332 0.9086
H92 H 0.2980 0.2520 0.8971
C47 C 0.2574(8) 0.3115(13) 0.8190(7)
H93 H 0.2616 0.2694 0.7975
H94 H 0.2811 0.3487 0.8087
C48 C 0.1885(8) 0.3332(15) 0.8032(6)
H95 H 0.1808 0.3759 0.7795
H96 H 0.1623 0.2965 0.7805
Si1 Si 0.76126(7) 0.31716(7) 0.79222(7)
Si2 Si 0.70360(7) 0.42411(7) 0.76028(7)
Si3 Si 0.66837(7) 0.36585(7) 0.83394(7)
Si4 Si 0.75802(7) 0.30612(7) 0.89337(6)
Si5 Si 0.67229(7) 0.25346(7) 0.79090(7)
Si6 Si 0.70122(7) 0.19711(7) 0.88685(7)
C53 C 0.8277(2) 0.2829(3) 0.7660(2)
C54 C 0.8741(2) 0.2395(3) 0.8036(2)
C55 C 0.9256(3) 0.2216(3) 0.7874(3)
H105 H 0.9553 0.1934 0.8130
C56 C 0.9343(3) 0.2442(3) 0.7346(3)
C57 C 0.8876(3) 0.2831(3) 0.6964(3)
H106 H 0.8911 0.2967 0.6597
C58 C 0.8354(2) 0.3029(3) 0.7107(2)
C59 C 0.8703(3) 0.2112(3) 0.8622(3)
H107 H 0.8787 0.2481 0.8913
H108 H 0.8998 0.1743 0.8759
H109 H 0.8301 0.1930 0.8566
C60 C 0.9920(3) 0.2285(4) 0.7197(3)
H110 H 1.0228 0.2621 0.7390
H111 H 0.9839 0.2310 0.6773
H112 H 1.0060 0.1822 0.7335
C61 C 0.7884(3) 0.3446(3) 0.6633(2)
H113 H 0.7645 0.3134 0.6330
H114 H 0.8088 0.3779 0.6456
H115 H 0.7621 0.3690 0.6813
C62 C 0.7456(3) 0.5118(3) 0.7911(2)
C63 C 0.8027(3) 0.5313(3) 0.7837(2)
C64 C 0.8271(3) 0.5977(3) 0.7994(3)
H116 H 0.8646 0.6083 0.7944
C65 C 0.7979(3) 0.6488(3) 0.8220(3)
C66 C 0.7421(3) 0.6326(3) 0.8269(3)
H117 H 0.7209 0.6668 0.8405
C67 C 0.7153(3) 0.5661(3) 0.8123(2)
C68 C 0.8370(3) 0.4817(3) 0.7559(3)
H118 H 0.8412 0.4371 0.7756
H119 H 0.8767 0.5005 0.7600
H120 H 0.8148 0.4759 0.7142
C69 C 0.8282(4) 0.7202(3) 0.8417(4)
H121 H 0.8513 0.7186 0.8833
H122 H 0.7973 0.7558 0.8351
H123 H 0.8550 0.7310 0.8188
C70 C 0.6528(3) 0.5547(3) 0.8175(3)
H124 H 0.6252 0.5412 0.7793
H125 H 0.6386 0.5973 0.8304
H126 H 0.6545 0.5182 0.8461
C71 C 0.5949(3) 0.3880(3) 0.8530(3)
C72 C 0.5415(3) 0.4074(3) 0.8062(3)
C73 C 0.4893(3) 0.4276(3) 0.8197(3)
H127 H 0.4547 0.4405 0.7886
C74 C 0.4868(3) 0.4293(3) 0.8778(3)
C75 C 0.5378(3) 0.4083(3) 0.9226(3)
H128 H 0.5367 0.4082 0.9617
C76 C 0.5916(3) 0.3869(3) 0.9118(3)
C77 C 0.5390(3) 0.4038(4) 0.7416(3)
H129 H 0.5668 0.4374 0.7343
H130 H 0.4983 0.4140 0.7165
H131 H 0.5504 0.3576 0.7328
C78 C 0.4287(4) 0.4523(4) 0.8906(5)
H132 H 0.4284 0.5024 0.8942
H133 H 0.4274 0.4313 0.9272
H134 H 0.3936 0.4376 0.8584
C79 C 0.6438(3) 0.3600(3) 0.9630(3)
H135 H 0.6500 0.3111 0.9571
H136 H 0.6344 0.3660 0.9997
H137 H 0.6802 0.3856 0.9651
C80 C 0.8222(3) 0.3438(3) 0.9618(2)
C81 C 0.8262(3) 0.3290(3) 1.0211(2)
C82 C 0.8763(3) 0.3525(3) 1.0695(3)
H138 H 0.8773 0.3422 1.1084
C83 C 0.9240(3) 0.3905(3) 1.0603(3)
C84 C 0.9193(3) 0.4061(3) 1.0013(3)
H139 H 0.9506 0.4315 0.9939
C85 C 0.8698(3) 0.3855(3) 0.9530(2)
C86 C 0.7773(3) 0.2898(3) 1.0383(3)
H140 H 0.7515 0.3227 1.0499
H141 H 0.7960 0.2590 1.0711
H142 H 0.7532 0.2629 1.0048
C87 C 0.9782(3) 0.4140(3) 1.1117(3)
H143 H 1.0126 0.3846 1.1139
H144 H 0.9684 0.4106 1.1483
H145 H 0.9879 0.4617 1.1054
C88 C 0.8680(3) 0.4122(3) 0.8923(2)
H146 H 0.8737 0.3738 0.8683
H147 H 0.8999 0.4460 0.8966
H148 H 0.8291 0.4338 0.8733
C89 C 0.6085(2) 0.2187(3) 0.7232(2)
C90 C 0.6165(2) 0.2059(3) 0.6672(2)
C91 C 0.5726(3) 0.1700(3) 0.6224(3)
H149 H 0.5798 0.1618 0.5862
C92 C 0.5191(3) 0.1462(3) 0.6297(3)
C93 C 0.5097(3) 0.1597(3) 0.6840(3)
H150 H 0.4738 0.1442 0.6899
C94 C 0.5522(3) 0.1957(3) 0.7301(3)
C95 C 0.6733(3) 0.2316(3) 0.6543(3)
H151 H 0.6757 0.2817 0.6580
H152 H 0.6715 0.2184 0.6145
H153 H 0.7088 0.2110 0.6824
C96 C 0.4710(4) 0.1089(4) 0.5795(4)
H154 H 0.4439 0.1429 0.5548
H155 H 0.4480 0.0776 0.5963
H156 H 0.4906 0.0826 0.5559
C97 C 0.5376(3) 0.2081(4) 0.7878(3)
H157 H 0.5688 0.1872 0.8204
H158 H 0.4988 0.1873 0.7849
H159 H 0.5360 0.2575 0.7945
C98 C 0.7469(2) 0.1116(3) 0.8847(2)
C99 C 0.8000(3) 0.0933(3) 0.9333(3)
C100 C 0.8291(3) 0.0288(3) 0.9343(3)
H160 H 0.8641 0.0189 0.9658
C101 C 0.8075(3) -0.0208(3) 0.8898(3)
C102 C 0.7550(3) -0.0056(3) 0.8442(3)
H161 H 0.7391 -0.0388 0.8146
C103 C 0.7248(3) 0.0591(3) 0.8414(3)
C104 C 0.8238(3) 0.1415(3) 0.9856(3)
H162 H 0.8317 0.1868 0.9718
H163 H 0.8610 0.1228 1.0124
H164 H 0.7940 0.1460 1.0062
C105 C 0.8403(3) -0.0900(3) 0.8903(3)
H165 H 0.8835 -0.0818 0.9011
H166 H 0.8262 -0.1108 0.8513
H167 H 0.8320 -0.1210 0.9189
C106 C 0.6667(3) 0.0698(3) 0.7892(3)
H168 H 0.6356 0.0896 0.8035
H169 H 0.6529 0.0254 0.7706
H170 H 0.6749 0.1009 0.7606
O23 O 0.0092(2) 0.9065(2) 0.9445(2)
C107 C 0.0044(4) 0.8932(3) 1.0025(3)
H171 H -0.0245 0.9252 1.0111
H172 H 0.0438 0.8990 1.0328
C108 C -0.0176(3) 0.8181(3) 1.0014(3)
H173 H -0.0034 0.7970 1.0409
H174 H -0.0618 0.8153 0.9863
C109 C 0.0112(4) 0.7841(4) 0.9597(4)
H175 H -0.0118 0.7432 0.9407
H176 H 0.0530 0.7703 0.9803
C110 C 0.0086(3) 0.8412(4) 0.9149(3)
H177 H 0.0436 0.8379 0.9004
H178 H -0.0283 0.8369 0.8812
O25 O 0.1381(10) 0.1581(8) 0.9206(8)
C115 C 0.1412(8) 0.0898(9) 0.9475(5)
H187 H 0.1236 0.0914 0.9799
H188 H 0.1834 0.0750 0.9636
C116 C 0.1049(12) 0.0373(7) 0.8985(9)
H189 H 0.0760 0.0106 0.9122
H190 H 0.1323 0.0051 0.8879
C117 C 0.0705(9) 0.0852(9) 0.8437(7)
H191 H 0.0750 0.0666 0.8069
H192 H 0.0274 0.0882 0.8395
C118 C 0.1009(9) 0.1573(8) 0.8577(7)
H193 H 0.1263 0.1660 0.8325
H194 H 0.0699 0.1937 0.8501
O8? O 0.4882(12) 0.4444(12) 0.5881(16)
O9? O 0.5293(6) 0.3305(7) 0.5422(6)
O10? O 0.4738(5) 0.3112(5) 0.4213(4)
O11? O 0.3587(10) 0.3533(12) 0.3742(9)
O12? O 0.2910(5) 0.4325(5) 0.4345(4)
O13? O 0.3745(10) 0.5034(12) 0.5264(11)
C17? C 0.5519(12) 0.4398(10) 0.5919(17)
H33? H 0.5780 0.4654 0.6259
H34? H 0.5591 0.4560 0.5556
C18? C 0.5606(9) 0.3604(9) 0.5999(6)
H35? H 0.6037 0.3484 0.6123
H36? H 0.5430 0.3434 0.6297
C19? C 0.5695(9) 0.3206(12) 0.5065(8)
H37? H 0.6066 0.2961 0.5283
H38? H 0.5798 0.3647 0.4914
C20? C 0.5278(6) 0.2755(9) 0.4567(6)
H39? H 0.5507 0.2598 0.4308
H40? H 0.5158 0.2342 0.4744
C21? C 0.3139(10) 0.5295(15) 0.4998(7)
H41? H 0.3147 0.5803 0.5020
H42? H 0.2881 0.5126 0.5225
C22? C 0.4339(6) 0.2693(7) 0.3749(5)
H43? H 0.4109 0.2363 0.3907
H44? H 0.4562 0.2441 0.3526
C23? C 0.3924(9) 0.3261(11) 0.3366(10)
H45? H 0.4165 0.3627 0.3261
H46? H 0.3650 0.3061 0.3002
C24? C 0.3055(6) 0.3923(9) 0.3409(7)
H47? H 0.2847 0.3673 0.3043
H48? H 0.3180 0.4375 0.3301
C25? C 0.2617(6) 0.4030(7) 0.3764(5)
H49? H 0.2289 0.4339 0.3544
H50? H 0.2437 0.3583 0.3811
C26? C 0.2865(13) 0.5076(7) 0.4353(8)
H51? H 0.2441 0.5221 0.4200
H52? H 0.3088 0.5286 0.4108
C27? C 0.4030(9) 0.529(2) 0.5865(11)
H53? H 0.3880 0.5031 0.6148
H54? H 0.3952 0.5781 0.5895
C28? C 0.4706(10) 0.5149(13) 0.5981(14)
H55? H 0.4850 0.5463 0.5730
H56? H 0.4920 0.5272 0.6393
O14? O 0.3644(5) 0.3220(8) 0.5764(5)
C29? C 0.3104(6) 0.3311(14) 0.5959(7)
H57? H 0.2821 0.2924 0.5823
H58? H 0.2894 0.3745 0.5804
C30? C 0.3358(7) 0.3329(9) 0.6663(7)
H59? H 0.3065 0.3135 0.6839
H60? H 0.3458 0.3804 0.6809
C31? C 0.3953(7) 0.2858(10) 0.6810(6)
H61? H 0.4267 0.3024 0.7163
H62? H 0.3862 0.2372 0.6869
C32? C 0.4156(6) 0.2945(11) 0.6239(6)
H63? H 0.4500 0.3264 0.6321
H64? H 0.4280 0.2496 0.6123
O22? O 0.1932(7) 0.3704(6) 0.8399(7)
C49? C 0.1831(15) 0.2996(9) 0.8583(15)
H97? H 0.1403 0.2872 0.8420
H98? H 0.1948 0.2968 0.9016
C50? C 0.2230(16) 0.2485(7) 0.8344(15)
H99? H 0.1978 0.2121 0.8099
H100? H 0.2541 0.2266 0.8672
C51? C 0.2529(14) 0.2950(11) 0.7962(14)
H101? H 0.2964 0.3004 0.8161
H102? H 0.2468 0.2745 0.7571
C52? C 0.2195(10) 0.3673(8) 0.7906(8)
H103? H 0.2481 0.4055 0.7937
H104? H 0.1875 0.3708 0.7524
O24? O 0.1487(11) 0.1513(11) 0.9183(14)
C111? C 0.1564(9) 0.0776(12) 0.9350(10)
H179? H 0.1521 0.0706 0.9743
H180? H 0.1965 0.0613 0.9358
C112? C 0.1051(15) 0.0367(9) 0.8864(16)
H181? H 0.0885 -0.0008 0.9045
H182? H 0.1209 0.0171 0.8562
C113? C 0.0550(10) 0.0940(12) 0.8586(13)
H183? H 0.0423 0.0921 0.8153
H184? H 0.0194 0.0869 0.8716
C114? C 0.0856(10) 0.1651(10) 0.8814(13)
H185? H 0.0852 0.1949 0.8479
H186? H 0.0636 0.1889 0.9048
loop_
_geom_bond_atom_site_label_1
_geom_bond_atom_site_label_2
_geom_bond_site_symmetry_1
_geom_bond_site_symmetry_2
K1 O1 1_555 1_555
O1 C1 1_555 1_555
O2 K1 1_555 1_555
O3 K1 1_555 1_555
O4 K1 1_555 1_555
O5 K1 1_555 1_555
O6 K1 1_555 1_555
C1 H1 1_555 1_555
H2 C1 1_555 1_555
C2 O2 1_555 1_555
H3 C2 1_555 1_555
H4 C2 1_555 1_555
C3 O2 1_555 1_555
H5 C3 1_555 1_555
H6 C3 1_555 1_555
C4 O3 1_555 1_555
H7 C4 1_555 1_555
H8 C4 1_555 1_555
C5 O3 1_555 1_555
H9 C5 1_555 1_555
H10 C5 1_555 1_555
C6 O4 1_555 1_555
H11 C6 1_555 1_555
H12 C6 1_555 1_555
C7 O4 1_555 1_555
H13 C7 1_555 1_555
H14 C7 1_555 1_555
C8 O5 1_555 1_555
H15 C8 1_555 1_555
H16 C8 1_555 1_555
C9 O5 1_555 1_555
H17 C9 1_555 1_555
H18 C9 1_555 1_555
C10 O6 1_555 1_555
H19 C10 1_555 1_555
H20 C10 1_555 1_555
C11 O6 1_555 1_555
H21 C11 1_555 1_555
H22 C11 1_555 1_555
C12 O1 1_555 1_555
H23 C12 1_555 1_555
H24 C12 1_555 1_555
O7 K1 1_555 1_555
C13 O7 1_555 1_555
H25 C13 1_555 1_555
H26 C13 1_555 1_555
C14 C13 1_555 1_555
H27 C14 1_555 1_555
H28 C14 1_555 1_555
C15 C14 1_555 1_555
H29 C15 1_555 1_555
H30 C15 1_555 1_555
C16 O7 1_555 1_555
H31 C16 1_555 1_555
H32 C16 1_555 1_555
K2 O15 1_555 1_555
O15 C33 1_555 1_555
O16 K2 1_555 1_555
O17 K2 1_555 1_555
O18 K2 1_555 1_555
O19 K2 1_555 1_555
O20 K2 1_555 1_555
C33 H65 1_555 1_555
H66 C33 1_555 1_555
C34 O16 1_555 1_555
H67 C34 1_555 1_555
H68 C34 1_555 1_555
C35 O16 1_555 1_555
H69 C35 1_555 1_555
H70 C35 1_555 1_555
C36 O17 1_555 1_555
H71 C36 1_555 1_555
H72 C36 1_555 1_555
C37 O17 1_555 1_555
H73 C37 1_555 1_555
H74 C37 1_555 1_555
C38 O18 1_555 1_555
H75 C38 1_555 1_555
H76 C38 1_555 1_555
C39 O18 1_555 1_555
H77 C39 1_555 1_555
H78 C39 1_555 1_555
C40 O19 1_555 1_555
H79 C40 1_555 1_555
H80 C40 1_555 1_555
C41 O19 1_555 1_555
H81 C41 1_555 1_555
H82 C41 1_555 1_555
C42 O20 1_555 1_555
H83 C42 1_555 1_555
H84 C42 1_555 1_555
C43 O20 1_555 1_555
H85 C43 1_555 1_555
H86 C43 1_555 1_555
C44 O15 1_555 1_555
H87 C44 1_555 1_555
H88 C44 1_555 1_555
O21 K2 1_555 1_555
C45 O21 1_555 1_555
H89 C45 1_555 1_555
H90 C45 1_555 1_555
C46 C45 1_555 1_555
H91 C46 1_555 1_555
H92 C46 1_555 1_555
C47 C46 1_555 1_555
H93 C47 1_555 1_555
H94 C47 1_555 1_555
C48 O21 1_555 1_555
H95 C48 1_555 1_555
H96 C48 1_555 1_555
Si1 Si2 1_555 1_555
Si2 Si3 1_555 1_555
Si3 Si4 1_555 1_555
Si4 Si1 1_555 1_555
Si5 Si1 1_555 1_555
Si6 Si4 1_555 1_555
C53 Si1 1_555 1_555
C54 C53 1_555 1_555
C55 C54 1_555 1_555
H105 C55 1_555 1_555
C56 C55 1_555 1_555
C57 C56 1_555 1_555
H106 C57 1_555 1_555
C58 C53 1_555 1_555
C59 C54 1_555 1_555
H107 C59 1_555 1_555
H108 C59 1_555 1_555
H109 C59 1_555 1_555
C60 C56 1_555 1_555
H110 C60 1_555 1_555
H111 C60 1_555 1_555
H112 C60 1_555 1_555
C61 C58 1_555 1_555
H113 C61 1_555 1_555
H114 C61 1_555 1_555
H115 C61 1_555 1_555
C62 Si2 1_555 1_555
C63 C62 1_555 1_555
C64 C63 1_555 1_555
H116 C64 1_555 1_555
C65 C64 1_555 1_555
C66 C65 1_555 1_555
H117 C66 1_555 1_555
C67 C62 1_555 1_555
C68 C63 1_555 1_555
H118 C68 1_555 1_555
H119 C68 1_555 1_555
H120 C68 1_555 1_555
C69 C65 1_555 1_555
H121 C69 1_555 1_555
H122 C69 1_555 1_555
H123 C69 1_555 1_555
C70 C67 1_555 1_555
H124 C70 1_555 1_555
H125 C70 1_555 1_555
H126 C70 1_555 1_555
C71 Si3 1_555 1_555
C72 C71 1_555 1_555
C73 C72 1_555 1_555
H127 C73 1_555 1_555
C74 C73 1_555 1_555
C75 C74 1_555 1_555
H128 C75 1_555 1_555
C76 C71 1_555 1_555
C77 C72 1_555 1_555
H129 C77 1_555 1_555
H130 C77 1_555 1_555
H131 C77 1_555 1_555
C78 C74 1_555 1_555
H132 C78 1_555 1_555
H133 C78 1_555 1_555
H134 C78 1_555 1_555
C79 C76 1_555 1_555
H135 C79 1_555 1_555
H136 C79 1_555 1_555
H137 C79 1_555 1_555
C80 Si4 1_555 1_555
C81 C80 1_555 1_555
C82 C81 1_555 1_555
H138 C82 1_555 1_555
C83 C82 1_555 1_555
C84 C83 1_555 1_555
H139 C84 1_555 1_555
C85 C80 1_555 1_555
C86 C81 1_555 1_555
H140 C86 1_555 1_555
H141 C86 1_555 1_555
H142 C86 1_555 1_555
C87 C83 1_555 1_555
H143 C87 1_555 1_555
H144 C87 1_555 1_555
H145 C87 1_555 1_555
C88 C85 1_555 1_555
H146 C88 1_555 1_555
H147 C88 1_555 1_555
H148 C88 1_555 1_555
C89 Si5 1_555 1_555
C90 C89 1_555 1_555
C91 C90 1_555 1_555
H149 C91 1_555 1_555
C92 C91 1_555 1_555
C93 C92 1_555 1_555
H150 C93 1_555 1_555
C94 C89 1_555 1_555
C95 C90 1_555 1_555
H151 C95 1_555 1_555
H152 C95 1_555 1_555
H153 C95 1_555 1_555
C96 C92 1_555 1_555
H154 C96 1_555 1_555
H155 C96 1_555 1_555
H156 C96 1_555 1_555
C97 C94 1_555 1_555
H157 C97 1_555 1_555
H158 C97 1_555 1_555
H159 C97 1_555 1_555
C98 Si6 1_555 1_555
C99 C98 1_555 1_555
C100 C99 1_555 1_555
H160 C100 1_555 1_555
C101 C100 1_555 1_555
C102 C101 1_555 1_555
H161 C102 1_555 1_555
C103 C98 1_555 1_555
C104 C99 1_555 1_555
H162 C104 1_555 1_555
H163 C104 1_555 1_555
H164 C104 1_555 1_555
C105 C101 1_555 1_555
H165 C105 1_555 1_555
H166 C105 1_555 1_555
H167 C105 1_555 1_555
C106 C103 1_555 1_555
H168 C106 1_555 1_555
H169 C106 1_555 1_555
H170 C106 1_555 1_555
O23 C107 1_555 1_555
C107 H171 1_555 1_555
H172 C107 1_555 1_555
C108 C107 1_555 1_555
H173 C108 1_555 1_555
H174 C108 1_555 1_555
C109 C108 1_555 1_555
H175 C109 1_555 1_555
H176 C109 1_555 1_555
C110 O23 1_555 1_555
H177 C110 1_555 1_555
H178 C110 1_555 1_555
O25 C115 1_555 1_555
C115 H187 1_555 1_555
H188 C115 1_555 1_555
C116 C115 1_555 1_555
H189 C116 1_555 1_555
H190 C116 1_555 1_555
C117 C116 1_555 1_555
H191 C117 1_555 1_555
H192 C117 1_555 1_555
C118 O25 1_555 1_555
H193 C118 1_555 1_555
H194 C118 1_555 1_555
C1 C2 1_555 1_555
C3 C4 1_555 1_555
C5 C6 1_555 1_555
C7 C8 1_555 1_555
C9 C10 1_555 1_555
C11 C12 1_555 1_555
C15 C16 1_555 1_555
C33 C34 1_555 1_555
C35 C36 1_555 1_555
C37 C38 1_555 1_555
C39 C40 1_555 1_555
C41 C42 1_555 1_555
C43 C44 1_555 1_555
C47 C48 1_555 1_555
Si3 Si5 1_555 1_555
Si5 Si6 1_555 1_555
C57 C58 1_555 1_555
C66 C67 1_555 1_555
C75 C76 1_555 1_555
C84 C85 1_555 1_555
C93 C94 1_555 1_555
C102 C103 1_555 1_555
C109 C110 1_555 1_555
C117 C118 1_555 1_555

#END
