
#######################################################################
#
#                 Cambridge Crystallographic Data Centre
#                                CCDC 
#
#######################################################################
#
# If this CIF has been generated from an entry in the Cambridge 
# Structural Database, then it will include bibliographic, chemical, 
# crystal, experimental, refinement or atomic coordinate data resulting 
# from the CCDC's data processing and validation procedures.
#
#######################################################################

data_BERWEC
_chemical_formula_moiety         'C26 H32 N4 2+,2(Br1 1-)'
_chemical_name_systematic        
'3-Mesityl-1-(2-(1-mesityl-1H-imidazol-3-ium-3-yl)ethyl)-1H-imidazol-3-ium dibromide'
_symmetry_cell_setting           orthorhombic
_symmetry_space_group_name_H-M   'P n a 21'
_symmetry_Int_Tables_number      33
_space_group_name_Hall           'P 2c -2n'
loop_
_symmetry_equiv_pos_site_id
_symmetry_equiv_pos_as_xyz
1 x,y,z
2 -x,-y,1/2+z
3 1/2+x,1/2-y,z
4 1/2-x,1/2+y,1/2+z
_cell_length_a                   18.050(4)
_cell_length_b                   6.7540(14)
_cell_length_c                   21.429(4)
_cell_angle_alpha                90
_cell_angle_beta                 90
_cell_angle_gamma                90
_cell_volume                     2612.4
_cell_formula_units_Z            4
loop_
_atom_site_label
_atom_site_type_symbol
_atom_site_fract_x
_atom_site_fract_y
_atom_site_fract_z
Br1 Br 0.48792(4) 0.42524(10) 0.33605(4)
Br2 Br 0.76506(5) 0.90803(11) 0.45923(4)
N1 N 0.5209(3) -0.2660(8) 0.5026(3)
N2 N 0.4588(4) -0.1172(8) 0.4306(3)
N3 N 0.2947(4) 0.1269(9) 0.3580(3)
N4 N 0.2335(4) 0.2685(8) 0.2846(4)
C1 C 0.4589(4) -0.2726(9) 0.4700(4)
H1 H 0.4218 -0.3677 0.4736
C2 C 0.5607(5) -0.1017(9) 0.4838(4)
H2 H 0.6068 -0.0635 0.4989
C3 C 0.5216(4) -0.0078(13) 0.4403(4)
H3 H 0.5344 0.1095 0.4203
C4 C 0.4011(5) -0.0762(11) 0.3826(4)
H4 H 0.3731 -0.1958 0.3739
H5 H 0.4243 -0.0330 0.3441
C5 C 0.3499(4) 0.0832(10) 0.4066(4)
H6 H 0.3253 0.0385 0.4443
H7 H 0.3780 0.2016 0.4164
C6 C 0.2948(5) 0.2814(11) 0.3208(5)
H8 H 0.3304 0.3809 0.3195
C7 C 0.2315(4) 0.0143(12) 0.3479(4)
H9 H 0.2181 -0.1014 0.3686
C8 C 0.1929(5) 0.1067(10) 0.3018(4)
H10 H 0.1477 0.0672 0.2851
C9 C 0.5401(4) -0.4003(10) 0.5533(3)
C10 C 0.5900(4) -0.5519(10) 0.5423(3)
C11 C 0.6078(4) -0.6756(11) 0.5928(4)
H11 H 0.6411 -0.7792 0.5870
C12 C 0.5765(5) -0.6455(11) 0.6512(4)
C13 C 0.5288(5) -0.4889(12) 0.6605(4)
H12 H 0.5095 -0.4668 0.7001
C14 C 0.5085(5) -0.3613(11) 0.6112(4)
C15 C 0.6286(5) -0.5757(10) 0.4799(4)
H13 H 0.5928 -0.5656 0.4469
H14 H 0.6522 -0.7029 0.4781
H15 H 0.6652 -0.4736 0.4751
C16 C 0.5969(7) -0.7756(15) 0.7061(5)
H16 H 0.5715 -0.7301 0.7427
H17 H 0.6494 -0.7695 0.7129
H18 H 0.5827 -0.9098 0.6974
C17 C 0.4586(6) -0.1912(14) 0.6237(5)
H19 H 0.4756 -0.0775 0.6009
H20 H 0.4588 -0.1621 0.6675
H21 H 0.4092 -0.2239 0.6107
C18 C 0.2132(4) 0.4077(10) 0.2346(4)
C19 C 0.1607(4) 0.5556(10) 0.2483(3)
C20 C 0.1428(5) 0.6831(12) 0.2002(4)
H22 H 0.1104 0.7871 0.2083
C21 C 0.1710(5) 0.6622(12) 0.1404(4)
C22 C 0.2205(5) 0.5107(13) 0.1287(4)
H23 H 0.2397 0.4955 0.0887
C23 C 0.2421(5) 0.3801(11) 0.1756(4)
C24 C 0.1250(5) 0.5714(11) 0.3106(4)
H24 H 0.1009 0.6975 0.3142
H25 H 0.1620 0.5593 0.3426
H26 H 0.0891 0.4676 0.3153
C25 C 0.1468(6) 0.7968(15) 0.0872(6)
H27 H 0.1008 0.7495 0.0703
H28 H 0.1840 0.7966 0.0552
H29 H 0.1402 0.9290 0.1027
C26 C 0.2955(6) 0.2131(15) 0.1612(5)
H30 H 0.3363 0.2178 0.1899
H31 H 0.3137 0.2273 0.1193
H32 H 0.2704 0.0885 0.1653
loop_
_geom_bond_atom_site_label_1
_geom_bond_atom_site_label_2
_geom_bond_site_symmetry_1
_geom_bond_site_symmetry_2
N1 C1 1_555 1_555
N2 C1 1_555 1_555
N3 C5 1_555 1_555
N4 C6 1_555 1_555
C1 H1 1_555 1_555
C2 N1 1_555 1_555
H2 C2 1_555 1_555
C3 N2 1_555 1_555
H3 C3 1_555 1_555
C4 N2 1_555 1_555
H4 C4 1_555 1_555
H5 C4 1_555 1_555
C5 C4 1_555 1_555
H6 C5 1_555 1_555
H7 C5 1_555 1_555
C6 N3 1_555 1_555
H8 C6 1_555 1_555
C7 N3 1_555 1_555
H9 C7 1_555 1_555
C8 N4 1_555 1_555
H10 C8 1_555 1_555
C9 N1 1_555 1_555
C10 C9 1_555 1_555
C11 C10 1_555 1_555
H11 C11 1_555 1_555
C12 C11 1_555 1_555
C13 C12 1_555 1_555
H12 C13 1_555 1_555
C14 C9 1_555 1_555
C15 C10 1_555 1_555
H13 C15 1_555 1_555
H14 C15 1_555 1_555
H15 C15 1_555 1_555
C16 C12 1_555 1_555
H16 C16 1_555 1_555
H17 C16 1_555 1_555
H18 C16 1_555 1_555
C17 C14 1_555 1_555
H19 C17 1_555 1_555
H20 C17 1_555 1_555
H21 C17 1_555 1_555
C18 N4 1_555 1_555
C19 C18 1_555 1_555
C20 C19 1_555 1_555
H22 C20 1_555 1_555
C21 C20 1_555 1_555
C22 C21 1_555 1_555
H23 C22 1_555 1_555
C23 C18 1_555 1_555
C24 C19 1_555 1_555
H24 C24 1_555 1_555
H25 C24 1_555 1_555
H26 C24 1_555 1_555
C25 C21 1_555 1_555
H27 C25 1_555 1_555
H28 C25 1_555 1_555
H29 C25 1_555 1_555
C26 C23 1_555 1_555
H30 C26 1_555 1_555
H31 C26 1_555 1_555
H32 C26 1_555 1_555
C2 C3 1_555 1_555
C7 C8 1_555 1_555
C13 C14 1_555 1_555
C22 C23 1_555 1_555

#END
