
#######################################################################
#
#                 Cambridge Crystallographic Data Centre
#                                CCDC 
#
#######################################################################
#
# If this CIF has been generated from an entry in the Cambridge 
# Structural Database, then it will include bibliographic, chemical, 
# crystal, experimental, refinement or atomic coordinate data resulting 
# from the CCDC's data processing and validation procedures.
#
#######################################################################

data_BERZAB
_chemical_formula_moiety         'C29 H43 B10 O1 P1 S2'
_chemical_name_systematic        
2-(2-Hydroxy-3-,5-di-t-butylbenzylthiolato)-1-(diphenylthiophosphinito)-1,2-dicarba-closo-dodecaborane
_symmetry_cell_setting           monoclinic
_symmetry_space_group_name_H-M   'P 21/n'
_symmetry_Int_Tables_number      14
_space_group_name_Hall           '-P 2yn'
loop_
_symmetry_equiv_pos_site_id
_symmetry_equiv_pos_as_xyz
1 x,y,z
2 1/2-x,1/2+y,1/2-z
3 -x,-y,-z
4 1/2+x,1/2-y,1/2+z
_cell_length_a                   12.437(3)
_cell_length_b                   15.925(4)
_cell_length_c                   17.870(4)
_cell_angle_alpha                90
_cell_angle_beta                 101.657(4)
_cell_angle_gamma                90
_cell_volume                     3466.32
_exptl_crystal_colour            colorless
_exptl_crystal_description       prism
_cell_formula_units_Z            4
loop_
_atom_site_label
_atom_site_type_symbol
_atom_site_fract_x
_atom_site_fract_y
_atom_site_fract_z
P1 P 0.34206(6) 0.99612(5) 1.14032(4)
S1 S 0.43799(6) 0.96354(5) 1.07183(4)
S2 S 0.15636(6) 1.00239(5) 0.96339(4)
O1 O 0.3218(2) 0.84674(16) 0.93032(14)
B1 B 0.3011(3) 1.1513(2) 1.03482(19)
H1 H 0.3721 1.1345 1.0098
B2 B 0.3159(3) 1.1912(2) 1.1294(2)
H2 H 0.3973 1.2019 1.1657
B3 B 0.2037(3) 1.1538(2) 1.1678(2)
H3 H 0.2120 1.1399 1.2290
B4 B 0.1189(3) 1.0926(2) 1.09543(18)
H4 H 0.0732 1.0375 1.1091
B5 B 0.0651(3) 1.1589(2) 1.0176(2)
H5 H -0.0165 1.1486 0.9813
B6 B 0.1777(3) 1.1947(2) 0.9791(2)
H6 H 0.1693 1.2072 0.9176
B7 B 0.2635(3) 1.2561(2) 1.0502(2)
H7 H 0.3109 1.3094 1.0348
B8 B 0.2029(3) 1.2580(2) 1.1323(2)
H8 H 0.2105 1.3127 1.1706
B9 B 0.0802(3) 1.1960(2) 1.1119(2)
H9 H 0.0083 1.2096 1.1370
B10 B 0.1187(3) 1.2608(2) 1.0405(2)
H10 H 0.0722 1.3176 1.0193
C1 C 0.2607(2) 1.09405(17) 1.10703(15)
C2 C 0.1778(2) 1.09723(17) 1.01698(15)
C3 C 0.4243(2) 1.02582(19) 1.23308(16)
C4 C 0.3958(3) 1.0045(2) 1.30190(18)
H11 H 0.3308 0.9761 1.3029
C5 C 0.4677(4) 1.0270(3) 1.3697(2)
H12 H 0.4496 1.0133 1.4162
C6 C 0.5634(4) 1.0684(3) 1.3693(2)
H13 H 0.6096 1.0830 1.4150
C7 C 0.5906(3) 1.0880(2) 1.3017(2)
H14 H 0.6559 1.1163 1.3013
C8 C 0.5225(3) 1.0665(2) 1.23391(19)
H15 H 0.5429 1.0795 1.1880
C9 C 0.2453(2) 0.91570(18) 1.15447(16)
C10 C 0.1678(3) 0.9270(2) 1.19997(17)
H16 H 0.1627 0.9785 1.2236
C11 C 0.0983(3) 0.8620(2) 1.2102(2)
H17 H 0.0467 0.8699 1.2407
C12 C 0.1055(3) 0.7854(2) 1.1751(2)
H18 H 0.0584 0.7418 1.1816
C13 C 0.1817(3) 0.7738(2) 1.1311(2)
H19 H 0.1867 0.7220 1.1080
C14 C 0.2515(3) 0.83796(18) 1.12029(18)
H20 H 0.3031 0.8291 1.0900
C15 C 0.2367(3) 1.01259(19) 0.88939(17)
H21 H 0.2182 1.0640 0.8606
H22 H 0.3146 1.0129 0.9115
C16 C 0.2066(3) 0.93634(19) 0.83855(17)
C17 C 0.2479(2) 0.85803(19) 0.86254(16)
C18 C 0.2165(3) 0.78598(19) 0.81798(17)
C19 C 0.1462(3) 0.7987(2) 0.74814(18)
H23 H 0.1257 0.7519 0.7174
C20 C 0.1041(3) 0.8759(2) 0.72069(17)
C21 C 0.1340(3) 0.9448(2) 0.76883(16)
H24 H 0.1047 0.9974 0.7539
C22 C 0.2586(3) 0.6982(2) 0.8449(2)
C23 C 0.2258(3) 0.6768(2) 0.9209(2)
H25 H 0.2521 0.6217 0.9370
H26 H 0.1473 0.6781 0.9144
H27 H 0.2576 0.7171 0.9589
C24 C 0.2073(4) 0.6301(2) 0.7875(3)
H28 H 0.2284 0.6396 0.7394
H29 H 0.1288 0.6323 0.7806
H30 H 0.2328 0.5758 0.8068
C25 C 0.3827(3) 0.6945(3) 0.8538(3)
H31 H 0.4025 0.7097 0.8064
H32 H 0.4077 0.6385 0.8676
H33 H 0.4161 0.7328 0.8931
C26 C 0.0306(3) 0.8853(2) 0.64168(18)
C27 C -0.0120(6) 0.8021(3) 0.6087(3)
H34 H 0.0479 0.7632 0.6127
H35 H -0.0465 0.8091 0.5560
H36 H -0.0646 0.7807 0.6365
C28 C -0.0627(4) 0.9451(5) 0.6423(3)
H37 H -0.1111 0.9219 0.6726
H38 H -0.1025 0.9538 0.5910
H39 H -0.0343 0.9977 0.6638
C29 C 0.0969(4) 0.9245(4) 0.5885(2)
H40 H 0.1222 0.9789 0.6074
H41 H 0.0517 0.9301 0.5384
H42 H 0.1587 0.8894 0.5859
H43 H 0.338(4) 0.8896(18) 0.955(2)
loop_
_geom_bond_atom_site_label_1
_geom_bond_atom_site_label_2
_geom_bond_site_symmetry_1
_geom_bond_site_symmetry_2
P1 S1 1_555 1_555
S2 C2 1_555 1_555
O1 C17 1_555 1_555
B1 H1 1_555 1_555
B2 B1 1_555 1_555
H2 B2 1_555 1_555
B3 B2 1_555 1_555
H3 B3 1_555 1_555
B4 B3 1_555 1_555
H4 B4 1_555 1_555
B5 B4 1_555 1_555
H5 B5 1_555 1_555
B6 B1 1_555 1_555
H6 B6 1_555 1_555
B7 B1 1_555 1_555
H7 B7 1_555 1_555
B8 B2 1_555 1_555
H8 B8 1_555 1_555
B9 B3 1_555 1_555
H9 B9 1_555 1_555
B10 B5 1_555 1_555
H10 B10 1_555 1_555
C1 P1 1_555 1_555
C2 B1 1_555 1_555
C3 P1 1_555 1_555
C4 C3 1_555 1_555
H11 C4 1_555 1_555
C5 C4 1_555 1_555
H12 C5 1_555 1_555
C6 C5 1_555 1_555
H13 C6 1_555 1_555
C7 C6 1_555 1_555
H14 C7 1_555 1_555
C8 C3 1_555 1_555
H15 C8 1_555 1_555
C9 P1 1_555 1_555
C10 C9 1_555 1_555
H16 C10 1_555 1_555
C11 C10 1_555 1_555
H17 C11 1_555 1_555
C12 C11 1_555 1_555
H18 C12 1_555 1_555
C13 C12 1_555 1_555
H19 C13 1_555 1_555
C14 C9 1_555 1_555
H20 C14 1_555 1_555
C15 S2 1_555 1_555
H21 C15 1_555 1_555
H22 C15 1_555 1_555
C16 C15 1_555 1_555
C17 C16 1_555 1_555
C18 C17 1_555 1_555
C19 C18 1_555 1_555
H23 C19 1_555 1_555
C20 C19 1_555 1_555
C21 C16 1_555 1_555
H24 C21 1_555 1_555
C22 C18 1_555 1_555
C23 C22 1_555 1_555
H25 C23 1_555 1_555
H26 C23 1_555 1_555
H27 C23 1_555 1_555
C24 C22 1_555 1_555
H28 C24 1_555 1_555
H29 C24 1_555 1_555
H30 C24 1_555 1_555
C25 C22 1_555 1_555
H31 C25 1_555 1_555
H32 C25 1_555 1_555
H33 C25 1_555 1_555
C26 C20 1_555 1_555
C27 C26 1_555 1_555
H34 C27 1_555 1_555
H35 C27 1_555 1_555
H36 C27 1_555 1_555
C28 C26 1_555 1_555
H37 C28 1_555 1_555
H38 C28 1_555 1_555
H39 C28 1_555 1_555
C29 C26 1_555 1_555
H40 C29 1_555 1_555
H41 C29 1_555 1_555
H42 C29 1_555 1_555
H43 O1 1_555 1_555
B1 C1 1_555 1_555
B2 B7 1_555 1_555
B2 C1 1_555 1_555
B3 B8 1_555 1_555
B3 C1 1_555 1_555
B4 B9 1_555 1_555
B4 C1 1_555 1_555
B4 C2 1_555 1_555
B5 B6 1_555 1_555
B5 B9 1_555 1_555
B5 C2 1_555 1_555
B6 B7 1_555 1_555
B6 B10 1_555 1_555
B6 C2 1_555 1_555
B7 B8 1_555 1_555
B7 B10 1_555 1_555
B8 B9 1_555 1_555
B8 B10 1_555 1_555
B9 B10 1_555 1_555
C1 C2 1_555 1_555
C7 C8 1_555 1_555
C13 C14 1_555 1_555
C20 C21 1_555 1_555

#END
