
#######################################################################
#
#                 Cambridge Crystallographic Data Centre
#                                CCDC 
#
#######################################################################
#
# If this CIF has been generated from an entry in the Cambridge 
# Structural Database, then it will include bibliographic, chemical, 
# crystal, experimental, refinement or atomic coordinate data resulting 
# from the CCDC's data processing and validation procedures.
#
#######################################################################

data_BESBAF
_chemical_formula_moiety         'C19 H21 Cl1 N2 O2'
_chemical_name_systematic        
'methyl 2-{[(4-chlorophenyl)methyl]amino}-2-methyl-3-(pyridin-3-yl)pent-4-enoate'
_symmetry_cell_setting           orthorhombic
_symmetry_space_group_name_H-M   'P 21 21 21'
_symmetry_Int_Tables_number      19
_space_group_name_Hall           'P 2ac 2ab'
loop_
_symmetry_equiv_pos_site_id
_symmetry_equiv_pos_as_xyz
1 x,y,z
2 1/2-x,-y,1/2+z
3 -x,1/2+y,1/2-z
4 1/2+x,1/2-y,-z
_cell_length_a                   7.3033(6)
_cell_length_b                   7.3319(5)
_cell_length_c                   33.937(3)
_cell_angle_alpha                90
_cell_angle_beta                 90
_cell_angle_gamma                90
_cell_volume                     1817.23
_exptl_crystal_colour            colorless
_exptl_crystal_description       block
_cell_formula_units_Z            4
loop_
_atom_site_label
_atom_site_type_symbol
_atom_site_fract_x
_atom_site_fract_y
_atom_site_fract_z
Cl1 Cl 0.69402(15) 1.08529(14) 0.48242(3)
O1 O 0.8068(3) 0.6498(2) 0.69794(5)
H1 H 0.649(3) 0.568(3) 0.6315(6)
H2 H 0.974(4) 0.603(4) 0.6267(9)
H3 H 0.954(4) 0.432(4) 0.5997(9)
N1 N 0.7142(3) 0.4774(3) 0.62736(5)
C1 C 0.8840(3) 0.5409(4) 0.60860(8)
O2 O 0.8242(3) 0.3864(2) 0.73032(4)
N2 N 0.4433(3) -0.1730(3) 0.62770(6)
C2 C 0.8378(3) 0.6756(3) 0.57657(6)
C3 C 0.8925(3) 0.8556(4) 0.57981(7)
H4 H 0.959(3) 0.890(4) 0.6010(8)
H5 H 0.882(4) 1.110(4) 0.5560(8)
C4 C 0.8482(4) 0.9823(4) 0.55100(8)
C5 C 0.7497(3) 0.9263(4) 0.51876(7)
C6 C 0.6941(4) 0.7482(4) 0.51425(7)
H6 H 0.617(5) 0.716(5) 0.4924(9)
C7 C 0.7347(3) 0.3690(3) 0.66297(6)
C8 C 0.7381(4) 0.6241(4) 0.54347(7)
H7 H 0.698(4) 0.500(4) 0.5405(8)
C9 C 0.8764(4) 0.2173(4) 0.65678(7)
H8 H 0.860(3) 0.126(4) 0.6783(8)
H9 H 1.005(4) 0.266(4) 0.6584(7)
H10 H 0.853(4) 0.156(4) 0.6328(8)
C10 C 0.7931(3) 0.4886(3) 0.69838(6)
C11 C 0.8736(5) 0.4817(5) 0.76609(8)
H11 H 0.925(6) 0.390(6) 0.7837(11)
H12 H 0.966(6) 0.571(6) 0.7616(11)
H13 H 0.771(7) 0.547(7) 0.7774(13)
C12 C 0.5442(3) 0.2833(3) 0.67415(6)
H14 H 0.566(3) 0.223(3) 0.6996(6)
C13 C 0.4037(3) 0.4294(4) 0.68220(8)
H15 H 0.363(4) 0.492(4) 0.6591(9)
C14 C 0.3357(5) 0.4638(5) 0.71719(12)
H16 H 0.376(6) 0.381(6) 0.7411(12)
H17 H 0.257(6) 0.560(6) 0.7207(12)
C15 C 0.4816(3) 0.1449(3) 0.64395(6)
C16 C 0.4138(4) 0.1913(4) 0.60697(7)
H18 H 0.400(4) 0.317(4) 0.6002(9)
C17 C 0.3625(4) 0.0551(4) 0.58126(8)
H19 H 0.318(4) 0.082(4) 0.5556(8)
C18 C 0.3795(4) -0.1234(4) 0.59265(8)
H20 H 0.339(4) -0.221(4) 0.5751(8)
C19 C 0.4930(3) -0.0390(3) 0.65217(7)
H21 H 0.538(4) -0.073(4) 0.6780(8)
loop_
_geom_bond_atom_site_label_1
_geom_bond_atom_site_label_2
_geom_bond_site_symmetry_1
_geom_bond_site_symmetry_2
Cl1 C5 1_555 1_555
O1 C10 1_555 1_555
H1 N1 1_555 1_555
H2 C1 1_555 1_555
H3 C1 1_555 1_555
N1 C1 1_555 1_555
C1 C2 1_555 1_555
O2 C10 1_555 1_555
N2 C18 1_555 1_555
C2 C3 1_555 1_555
C3 H4 1_555 1_555
H5 C4 1_555 1_555
C4 C3 1_555 1_555
C5 C4 1_555 1_555
C6 C5 1_555 1_555
H6 C6 1_555 1_555
C7 N1 1_555 1_555
C8 C2 1_555 1_555
H7 C8 1_555 1_555
C9 C7 1_555 1_555
H8 C9 1_555 1_555
H9 C9 1_555 1_555
H10 C9 1_555 1_555
C10 C7 1_555 1_555
C11 O2 1_555 1_555
H11 C11 1_555 1_555
H12 C11 1_555 1_555
H13 C11 1_555 1_555
C12 C7 1_555 1_555
H14 C12 1_555 1_555
C13 C12 1_555 1_555
H15 C13 1_555 1_555
C14 C13 1_555 1_555
H16 C14 1_555 1_555
H17 C14 1_555 1_555
C15 C12 1_555 1_555
C16 C15 1_555 1_555
H18 C16 1_555 1_555
C17 C16 1_555 1_555
H19 C17 1_555 1_555
C18 C17 1_555 1_555
H20 C18 1_555 1_555
C19 N2 1_555 1_555
H21 C19 1_555 1_555
C6 C8 1_555 1_555
C15 C19 1_555 1_555

#END
