
#######################################################################
#
#                 Cambridge Crystallographic Data Centre
#                                CCDC 
#
#######################################################################
#
# If this CIF has been generated from an entry in the Cambridge 
# Structural Database, then it will include bibliographic, chemical, 
# crystal, experimental, refinement or atomic coordinate data resulting 
# from the CCDC's data processing and validation procedures.
#
#######################################################################

data_BESDEL
_chemical_formula_moiety         'C26 H21 N2 O1 1+,C1 H4 O1,I1 1-'
_chemical_name_systematic        
'4-{4-[1-cyano-2-(6-methoxynaphthalen-2-yl)ethenyl]phenyl}-1-methylpyridin-1-ium iodide methanol solvate'
_symmetry_cell_setting           triclinic
_symmetry_space_group_name_H-M   'P -1'
_symmetry_Int_Tables_number      2
_space_group_name_Hall           '-P 1'
loop_
_symmetry_equiv_pos_site_id
_symmetry_equiv_pos_as_xyz
1 x,y,z
2 -x,-y,-z
_cell_length_a                   7.8457(7)
_cell_length_b                   9.6282(8)
_cell_length_c                   16.7749(13)
_cell_angle_alpha                96.028(7)
_cell_angle_beta                 102.045(7)
_cell_angle_gamma                104.758(7)
_cell_volume                     1181.51
_exptl_crystal_colour            yellow
_exptl_crystal_description       block
_cell_formula_units_Z            2
_chemical_properties_physical    Light-sensitive
loop_
_atom_site_label
_atom_site_type_symbol
_atom_site_fract_x
_atom_site_fract_y
_atom_site_fract_z
I1 I 0.91197(4) 0.40211(3) 0.75863(2)
O1 O 1.8727(4) 1.1589(3) 1.0141(2)
N1 N 1.1787(7) 0.9194(5) 0.4766(3)
N2 N 0.1216(5) 0.0594(4) 0.2309(2)
C1 C 1.1033(6) 0.8389(5) 0.5117(3)
C2 C 1.0087(6) 0.7307(4) 0.5527(3)
C3 C 1.0674(6) 0.7365(4) 0.6348(3)
H1 H 1.0011 0.6585 0.6564
C4 C 1.2162(6) 0.8431(5) 0.6960(3)
C5 C 1.2951(6) 0.9895(5) 0.6860(3)
H2 H 1.2493 1.0235 0.6371
C6 C 1.4374(6) 1.0817(4) 0.7468(3)
H3 H 1.4872 1.1788 0.7392
C7 C 1.5108(6) 1.0354(5) 0.8204(3)
C8 C 1.6592(6) 1.1291(5) 0.8819(3)
H4 H 1.7103 1.2265 0.8753
C9 C 1.7288(6) 1.0779(5) 0.9515(3)
C10 C 1.6528(6) 0.9332(5) 0.9620(3)
H5 H 1.7028 0.8994 1.0102
C11 C 1.5087(6) 0.8418(5) 0.9039(3)
H6 H 1.4596 0.7450 0.9121
C12 C 1.4307(6) 0.8897(5) 0.8310(3)
C13 C 1.2830(6) 0.7986(4) 0.7684(3)
H7 H 1.2278 0.7029 0.7766
C14 C 1.9436(7) 1.3103(5) 1.0092(3)
H8 H 1.9945 1.3184 0.9607
H9 H 2.0390 1.3584 1.0593
H10 H 1.8454 1.3570 1.0042
C15 C 0.8561(6) 0.6125(4) 0.4986(3)
C16 C 0.8022(6) 0.6156(5) 0.4140(3)
H11 H 0.8665 0.6931 0.3914
C17 C 0.6566(6) 0.5075(5) 0.3624(3)
H12 H 0.6209 0.5139 0.3055
C18 C 0.5623(6) 0.3902(5) 0.3927(3)
C19 C 0.6186(6) 0.3850(5) 0.4775(3)
H13 H 0.5574 0.3052 0.4994
C20 C 0.7606(6) 0.4933(4) 0.5292(3)
H14 H 0.7948 0.4876 0.5863
C21 C 0.4087(6) 0.2753(5) 0.3375(3)
C22 C 0.3127(6) 0.3020(5) 0.2633(3)
H15 H 0.3455 0.3963 0.2488
C23 C 0.1725(6) 0.1948(5) 0.2114(3)
H16 H 0.1099 0.2152 0.1611
C24 C 0.2080(6) 0.0305(5) 0.3020(3)
H17 H 0.1710 -0.0644 0.3152
C25 C 0.3493(6) 0.1349(5) 0.3564(3)
H18 H 0.4072 0.1120 0.4069
C26 C -0.0321(6) -0.0531(5) 0.1727(3)
H19 H -0.0300 -0.1498 0.1853
H20 H -0.0207 -0.0480 0.1159
H21 H -0.1472 -0.0357 0.1783
O2 O 0.6901(6) 0.5179(5) 0.0868(3)
H22 H 0.7869 0.5401 0.1242
C27 C 0.5736(8) 0.5891(7) 0.1100(4)
H23 H 0.4484 0.5355 0.0807
H24 H 0.6027 0.6875 0.0962
H25 H 0.5862 0.5954 0.1697
loop_
_geom_bond_atom_site_label_1
_geom_bond_atom_site_label_2
_geom_bond_site_symmetry_1
_geom_bond_site_symmetry_2
O1 C9 1_555 1_555
N1 C1 1_555 1_555
N2 C23 1_555 1_555
C1 C2 1_555 1_555
C2 C3 1_555 1_555
C3 H1 1_555 1_555
C4 C3 1_555 1_555
C5 C4 1_555 1_555
H2 C5 1_555 1_555
C6 C5 1_555 1_555
H3 C6 1_555 1_555
C7 C6 1_555 1_555
C8 C7 1_555 1_555
H4 C8 1_555 1_555
C9 C8 1_555 1_555
C10 C9 1_555 1_555
H5 C10 1_555 1_555
C11 C10 1_555 1_555
H6 C11 1_555 1_555
C12 C7 1_555 1_555
C13 C4 1_555 1_555
H7 C13 1_555 1_555
C14 O1 1_555 1_555
H8 C14 1_555 1_555
H9 C14 1_555 1_555
H10 C14 1_555 1_555
C15 C2 1_555 1_555
C16 C15 1_555 1_555
H11 C16 1_555 1_555
C17 C16 1_555 1_555
H12 C17 1_555 1_555
C18 C17 1_555 1_555
C19 C18 1_555 1_555
H13 C19 1_555 1_555
C20 C15 1_555 1_555
H14 C20 1_555 1_555
C21 C18 1_555 1_555
C22 C21 1_555 1_555
H15 C22 1_555 1_555
C23 C22 1_555 1_555
H16 C23 1_555 1_555
C24 N2 1_555 1_555
H17 C24 1_555 1_555
C25 C21 1_555 1_555
H18 C25 1_555 1_555
C26 N2 1_555 1_555
H19 C26 1_555 1_555
H20 C26 1_555 1_555
H21 C26 1_555 1_555
O2 H22 1_555 1_555
C27 O2 1_555 1_555
H23 C27 1_555 1_555
H24 C27 1_555 1_555
H25 C27 1_555 1_555
C11 C12 1_555 1_555
C12 C13 1_555 1_555
C19 C20 1_555 1_555
C24 C25 1_555 1_555

#END
