
#######################################################################
#
#                 Cambridge Crystallographic Data Centre
#                                CCDC 
#
#######################################################################
#
# If this CIF has been generated from an entry in the Cambridge 
# Structural Database, then it will include bibliographic, chemical, 
# crystal, experimental, refinement or atomic coordinate data resulting 
# from the CCDC's data processing and validation procedures.
#
#######################################################################

data_BESVEA
_chemical_formula_moiety         'C50 H36'
_chemical_name_systematic        Heptaphenyl-tetra-radialene
_symmetry_cell_setting           triclinic
_symmetry_space_group_name_H-M   'P -1'
_symmetry_Int_Tables_number      2
_space_group_name_Hall           '-P 1'
loop_
_symmetry_equiv_pos_site_id
_symmetry_equiv_pos_as_xyz
1 x,y,z
2 -x,-y,-z
_cell_length_a                   12.176(3)
_cell_length_b                   14.039(4)
_cell_length_c                   12.090(3)
_cell_angle_alpha                102.66(2)
_cell_angle_beta                 116.44(1)
_cell_angle_gamma                85.12(1)
_cell_volume                     1805.31
_cell_formula_units_Z            2
loop_
_atom_site_label
_atom_site_type_symbol
_atom_site_fract_x
_atom_site_fract_y
_atom_site_fract_z
C1 C -0.09140 0.23030 0.90770
C2 C 0.01040 0.20020 0.87320
C3 C 0.08760 0.28300 0.97340
C4 C -0.00470 0.29470 1.02630
C5 C -0.21530 0.22660 0.84780
C6 C 0.04220 0.11530 0.81750
C7 C 0.19040 0.32750 0.99020
C8 C -0.01890 0.34110 1.13010
C9 C -0.29310 0.18700 0.71480
C10 C -0.25430 0.17290 0.62060
C11 C -0.33390 0.14240 0.49570
C12 C -0.45370 0.12260 0.46190
C13 C -0.49520 0.13510 0.55260
C14 C -0.41570 0.16670 0.67680
C15 C -0.03770 0.02610 0.76210
C16 C -0.04540 -0.03800 0.65480
C17 C -0.11500 -0.12270 0.60850
C18 C -0.17590 -0.14710 0.66880
C19 C -0.16680 -0.08570 0.77620
C20 C -0.09970 -0.00030 0.82190
C21 C 0.16770 0.10230 0.82570
C22 C 0.26700 0.09580 0.93950
C23 C 0.38470 0.08360 0.95040
C24 C 0.40460 0.07340 0.84560
C25 C 0.30820 0.07810 0.73170
C26 C 0.19170 0.09310 0.72170
C27 C 0.21980 0.32530 0.88360
C28 C 0.33910 0.32140 0.89760
C29 C 0.36610 0.32570 0.79980
C30 C 0.27360 0.33440 0.68430
C31 C 0.15460 0.33980 0.66750
C32 C 0.12780 0.33380 0.76550
C33 C 0.28150 0.37850 1.11390
C34 C 0.32070 0.33580 1.21750
C35 C 0.41690 0.37680 1.33140
C36 C 0.47150 0.46120 1.34250
C37 C 0.43170 0.50630 1.24320
C38 C 0.33750 0.46560 1.12860
C39 C 0.06020 0.41910 1.23000
C40 C 0.08390 0.42520 1.35530
C41 C 0.15240 0.50120 1.44860
C42 C 0.19780 0.57330 1.41880
C43 C 0.17510 0.56910 1.29670
C44 C 0.10610 0.49350 1.20230
C45 C -0.12910 0.31540 1.14390
C46 C -0.15320 0.21880 1.14220
C47 C -0.25260 0.19730 1.15920
C48 C -0.32900 0.26930 1.17630
C49 C -0.30790 0.36280 1.17820
C50 C -0.20840 0.38790 1.16390
H1 H -0.25900 0.25500 0.91500
H2 H -0.17300 0.19000 0.64300
H3 H -0.29500 0.14300 0.44000
H4 H -0.51300 0.10300 0.37100
H5 H -0.58000 0.12500 0.52900
H6 H -0.44000 0.17400 0.74400
H7 H 0.00500 -0.03300 0.61600
H8 H -0.11300 -0.16900 0.54000
H9 H -0.22300 -0.20800 0.63900
H10 H -0.21200 -0.09600 0.81400
H11 H -0.09700 0.04200 0.89600
H12 H 0.25200 0.10200 1.01100
H13 H 0.44800 0.07900 1.03600
H14 H 0.48300 0.06600 0.85200
H15 H 0.32200 0.07000 0.65500
H16 H 0.12200 0.10100 0.64500
H17 H 0.39800 0.31700 0.97500
H18 H 0.44800 0.32000 0.81300
H19 H 0.29500 0.33600 0.62000
H20 H 0.08400 0.34400 0.58600
H21 H 0.05000 0.34000 0.75800
H22 H 0.28100 0.27500 1.21500
H23 H 0.43100 0.34200 1.39400
H24 H 0.53500 0.48400 1.41800
H25 H 0.46300 0.57100 1.25100
H26 H 0.30800 0.50100 1.05500
H27 H 0.04700 0.37400 1.36900
H28 H 0.17300 0.50200 1.53600
H29 H 0.24700 0.62600 1.49000
H30 H 0.20500 0.62000 1.27600
H31 H 0.08700 0.49100 1.11800
H32 H -0.10000 0.16300 1.13000
H33 H -0.26700 0.13200 1.16400
H34 H -0.39400 0.25200 1.19500
H35 H -0.36000 0.41400 1.18900
H36 H -0.18600 0.46300 1.16800
loop_
_geom_bond_atom_site_label_1
_geom_bond_atom_site_label_2
_geom_bond_site_symmetry_1
_geom_bond_site_symmetry_2
C1 C2 1_555 1_555
C2 C3 1_555 1_555
C3 C4 1_555 1_555
C4 C1 1_555 1_555
C5 C1 1_555 1_555
C6 C2 1_555 1_555
C7 C3 1_555 1_555
C8 C4 1_555 1_555
C9 C5 1_555 1_555
C10 C9 1_555 1_555
C11 C10 1_555 1_555
C12 C11 1_555 1_555
C13 C12 1_555 1_555
C14 C9 1_555 1_555
C15 C6 1_555 1_555
C16 C15 1_555 1_555
C17 C16 1_555 1_555
C18 C17 1_555 1_555
C19 C18 1_555 1_555
C20 C15 1_555 1_555
C21 C6 1_555 1_555
C22 C21 1_555 1_555
C23 C22 1_555 1_555
C24 C23 1_555 1_555
C25 C24 1_555 1_555
C26 C21 1_555 1_555
C27 C7 1_555 1_555
C28 C27 1_555 1_555
C29 C28 1_555 1_555
C30 C29 1_555 1_555
C31 C30 1_555 1_555
C32 C27 1_555 1_555
C33 C7 1_555 1_555
C34 C33 1_555 1_555
C35 C34 1_555 1_555
C36 C35 1_555 1_555
C37 C36 1_555 1_555
C38 C33 1_555 1_555
C39 C8 1_555 1_555
C40 C39 1_555 1_555
C41 C40 1_555 1_555
C42 C41 1_555 1_555
C43 C42 1_555 1_555
C44 C39 1_555 1_555
C45 C8 1_555 1_555
C46 C45 1_555 1_555
C47 C46 1_555 1_555
C48 C47 1_555 1_555
C49 C48 1_555 1_555
C50 C45 1_555 1_555
H1 C5 1_555 1_555
H2 C10 1_555 1_555
H3 C11 1_555 1_555
H4 C12 1_555 1_555
H5 C13 1_555 1_555
H6 C14 1_555 1_555
H7 C16 1_555 1_555
H8 C17 1_555 1_555
H9 C18 1_555 1_555
H10 C19 1_555 1_555
H11 C20 1_555 1_555
H12 C22 1_555 1_555
H13 C23 1_555 1_555
H14 C24 1_555 1_555
H15 C25 1_555 1_555
H16 C26 1_555 1_555
H17 C28 1_555 1_555
H18 C29 1_555 1_555
H19 C30 1_555 1_555
H20 C31 1_555 1_555
H21 C32 1_555 1_555
H22 C34 1_555 1_555
H23 C35 1_555 1_555
H24 C36 1_555 1_555
H25 C37 1_555 1_555
H26 C38 1_555 1_555
H27 C40 1_555 1_555
H28 C41 1_555 1_555
H29 C42 1_555 1_555
H30 C43 1_555 1_555
H31 C44 1_555 1_555
H32 C46 1_555 1_555
H33 C47 1_555 1_555
H34 C48 1_555 1_555
H35 C49 1_555 1_555
H36 C50 1_555 1_555
C13 C14 1_555 1_555
C19 C20 1_555 1_555
C25 C26 1_555 1_555
C31 C32 1_555 1_555
C37 C38 1_555 1_555
C43 C44 1_555 1_555
C49 C50 1_555 1_555

#END
