
#######################################################################
#
#                 Cambridge Crystallographic Data Centre
#                                CCDC 
#
#######################################################################
#
# If this CIF has been generated from an entry in the Cambridge 
# Structural Database, then it will include bibliographic, chemical, 
# crystal, experimental, refinement or atomic coordinate data resulting 
# from the CCDC's data processing and validation procedures.
#
#######################################################################

data_BETGIQ
_chemical_formula_moiety         'C23 H25 O4 P1'
_chemical_name_systematic        
1,2,3,4-Tetrahydro-10-hydroxy-8-n-pentyl-5H-phosphorino(3,4-c)(1)benzopyran-5-one-3-oxide
_symmetry_cell_setting           triclinic
_symmetry_space_group_name_H-M   'P -1'
_symmetry_Int_Tables_number      2
_space_group_name_Hall           '-P 1'
loop_
_symmetry_equiv_pos_site_id
_symmetry_equiv_pos_as_xyz
1 x,y,z
2 -x,-y,-z
_cell_length_a                   8.698(6)
_cell_length_b                   13.733(8)
_cell_length_c                   8.335(3)
_cell_angle_alpha                95.54(2)
_cell_angle_beta                 95.77(3)
_cell_angle_gamma                79.31(3)
_cell_volume                     970.283
_cell_formula_units_Z            2
loop_
_atom_site_label
_atom_site_type_symbol
_atom_site_fract_x
_atom_site_fract_y
_atom_site_fract_z
H1 H 0.16070 0.48020 0.03470
H2 H 0.27580 0.56070 0.06580
H3 H 0.39160 0.39430 -0.05340
H4 H 0.49320 0.43950 0.10640
H5 H 0.37600 0.32700 0.46210
H6 H 0.50590 0.38820 0.40790
H7 H -0.07600 0.72160 0.64210
H8 H -0.18480 0.79100 0.16290
H9 H -0.07460 0.67920 -0.01860
H10 H 0.72730 0.30850 0.16850
H11 H 0.94890 0.18350 0.13870
H12 H 0.90090 0.02050 0.11320
H13 H 0.65230 -0.02480 0.11950
H14 H 0.44110 0.10620 0.14120
H15 H -0.34190 0.88230 0.37700
H16 H -0.32180 0.84280 0.55350
H17 H -0.10300 0.92780 0.62230
H18 H -0.13030 0.96880 0.44220
H19 H -0.35710 1.01830 0.67610
H20 H -0.38310 1.06040 0.50620
H21 H -0.14010 1.10530 0.74860
H22 H -0.18200 1.14980 0.56380
H23 H -0.40640 1.19270 0.80550
H24 H -0.30250 1.26720 0.77170
H25 H -0.42970 1.23880 0.64100
P1 P 0.38676 0.31260 0.18082
O1 O 0.24103 0.26804 0.13947
C1 C 0.25198 0.49795 0.10033
C2 C 0.21068 0.52239 0.27309
C3 C 0.39587 0.41625 0.06941
C4 C 0.39984 0.37201 0.38199
C5 C 0.28258 0.46761 0.39752
C6 C 0.25243 0.49914 0.56523
O2 O 0.32476 0.46030 0.68175
O3 O 0.13930 0.57967 0.59541
C7 C 0.05629 0.63299 0.47229
C8 C -0.05667 0.71129 0.52462
C9 C -0.14564 0.77108 0.41140
C10 C -0.12022 0.74922 0.24839
C11 C -0.00737 0.66963 0.19694
O4 O 0.01252 0.65024 0.03670
C12 C 0.08826 0.60827 0.31021
C13 C 0.55990 0.21926 0.16084
C14 C 0.70978 0.24231 0.15877
C15 C 0.83815 0.16638 0.13909
C16 C 0.81807 0.06769 0.12483
C17 C 0.66995 0.04437 0.12815
C18 C 0.54070 0.11992 0.14543
C19 C -0.26261 0.86060 0.46659
C20 C -0.18466 0.94946 0.53101
C21 C -0.30215 1.03842 0.59091
C22 C -0.22977 1.12849 0.65714
C23 C -0.35069 1.21390 0.72318
loop_
_geom_bond_atom_site_label_1
_geom_bond_atom_site_label_2
_geom_bond_site_symmetry_1
_geom_bond_site_symmetry_2
H1 C1 1_555 1_555
H2 C1 1_555 1_555
H3 C3 1_555 1_555
H4 C3 1_555 1_555
H5 C4 1_555 1_555
H6 C4 1_555 1_555
H7 C8 1_555 1_555
H8 C10 1_555 1_555
H9 O4 1_555 1_555
H10 C14 1_555 1_555
H11 C15 1_555 1_555
H12 C16 1_555 1_555
H13 C17 1_555 1_555
H14 C18 1_555 1_555
H15 C19 1_555 1_555
H16 C19 1_555 1_555
H17 C20 1_555 1_555
H18 C20 1_555 1_555
H19 C21 1_555 1_555
H20 C21 1_555 1_555
H21 C22 1_555 1_555
H22 C22 1_555 1_555
H23 C23 1_555 1_555
H24 C23 1_555 1_555
H25 C23 1_555 1_555
P1 O1 1_555 1_555
C1 C2 1_555 1_555
C2 C5 1_555 1_555
C3 P1 1_555 1_555
C4 P1 1_555 1_555
C5 C4 1_555 1_555
C6 C5 1_555 1_555
O2 C6 1_555 1_555
O3 C6 1_555 1_555
C7 O3 1_555 1_555
C8 C7 1_555 1_555
C9 C8 1_555 1_555
C10 C9 1_555 1_555
C11 C10 1_555 1_555
O4 C11 1_555 1_555
C12 C2 1_555 1_555
C13 P1 1_555 1_555
C14 C13 1_555 1_555
C15 C14 1_555 1_555
C16 C15 1_555 1_555
C17 C16 1_555 1_555
C18 C13 1_555 1_555
C19 C9 1_555 1_555
C20 C19 1_555 1_555
C21 C20 1_555 1_555
C22 C21 1_555 1_555
C23 C22 1_555 1_555
C1 C3 1_555 1_555
C7 C12 1_555 1_555
C11 C12 1_555 1_555
C17 C18 1_555 1_555

#END
