
#######################################################################
#
#                 Cambridge Crystallographic Data Centre
#                                CCDC 
#
#######################################################################
#
# If this CIF has been generated from an entry in the Cambridge 
# Structural Database, then it will include bibliographic, chemical, 
# crystal, experimental, refinement or atomic coordinate data resulting 
# from the CCDC's data processing and validation procedures.
#
#######################################################################

data_BETNEU
_chemical_formula_moiety         'C20 H14 O1 S1'
_chemical_name_systematic        
(E)-4-(11-Azuleno(2,1-b)benzothiophenyl)-3-butene-2-one
_symmetry_cell_setting           monoclinic
_symmetry_space_group_name_H-M   'P 21/m'
_symmetry_Int_Tables_number      11
_space_group_name_Hall           '-P 2yb'
loop_
_symmetry_equiv_pos_site_id
_symmetry_equiv_pos_as_xyz
1 x,y,z
2 x,1/2-y,z
3 -x,-y,-z
4 -x,1/2+y,-z
_cell_length_a                   10.2869(16)
_cell_length_b                   6.7635(11)
_cell_length_c                   11.4718(18)
_cell_angle_alpha                90
_cell_angle_beta                 111.162(3)
_cell_angle_gamma                90
_cell_volume                     744.331
_exptl_crystal_colour            'dark greenish-brown'
_exptl_crystal_description       prismatic
_chemical_melting_point          119-121deg.C
_cell_formula_units_Z            2
_exptl_crystal_recrystallization_method toluene
loop_
_atom_site_label
_atom_site_type_symbol
_atom_site_fract_x
_atom_site_fract_y
_atom_site_fract_z
C1 C 0.0934(2) 0.2500 0.2865(2)
C2 C 0.1322(3) 0.2500 0.1826(3)
C3 C 0.0281(4) 0.2500 0.0659(3)
C4 C -0.1109(3) 0.2500 0.0527(2)
C5 C -0.1501(3) 0.2500 0.1559(2)
C6 C -0.0469(2) 0.2500 0.2764(2)
C7 C -0.0571(2) 0.2500 0.3984(2)
C8 C -0.1605(2) 0.2500 0.4524(2)
C9 C -0.3037(3) 0.2500 0.3890(2)
C10 C -0.4102(3) 0.2500 0.4365(3)
C11 C -0.4005(3) 0.2500 0.5599(3)
C12 C -0.2840(3) 0.2500 0.6675(3)
C13 C -0.1445(3) 0.2500 0.6814(2)
C14 C -0.0849(2) 0.2500 0.5905(2)
C15 C 0.0599(2) 0.2500 0.6137(2)
C16 C 0.0732(2) 0.2500 0.4951(2)
C17 C 0.1698(2) 0.2500 0.7339(2)
C18 C 0.3071(3) 0.2500 0.7564(2)
C19 C 0.4173(3) 0.2500 0.8800(3)
C20 C 0.3800(4) 0.2500 0.9946(3)
H1 H 0.231(3) 0.2500 0.188(3)
H2 H 0.048(4) 0.2500 -0.007(4)
H3 H -0.180(3) 0.2500 -0.023(3)
H4 H -0.248(3) 0.2500 0.146(3)
H5 H -0.336(3) 0.2500 0.298(3)
H6 H -0.509(4) 0.2500 0.378(3)
H7 H -0.482(3) 0.2500 0.574(2)
H8 H -0.299(3) 0.2500 0.745(3)
H9 H -0.081(3) 0.2500 0.762(2)
H10 H 0.143(3) 0.2500 0.801(3)
H11 H 0.347(3) 0.2500 0.685(3)
H12 H 0.331(3) 0.137(4) 1.000(3)
H13 H 0.464(5) 0.2500 1.068(4)
O1 O 0.5390(2) 0.2500 0.8895(2)
S1 S 0.20999(6) 0.2500 0.44182(5)
H12A H 0.331(3) 0.363(4) 1.000(3)
loop_
_geom_bond_atom_site_label_1
_geom_bond_atom_site_label_2
_geom_bond_site_symmetry_1
_geom_bond_site_symmetry_2
C1 C2 1_555 1_555
C2 C3 1_555 1_555
C3 C4 1_555 1_555
C4 C5 1_555 1_555
C5 C6 1_555 1_555
C6 C1 1_555 1_555
C7 C6 1_555 1_555
C8 C7 1_555 1_555
C9 C8 1_555 1_555
C10 C9 1_555 1_555
C11 C10 1_555 1_555
C12 C11 1_555 1_555
C13 C12 1_555 1_555
C14 C8 1_555 1_555
C15 C14 1_555 1_555
C16 C7 1_555 1_555
C17 C15 1_555 1_555
C18 C17 1_555 1_555
C19 C18 1_555 1_555
C20 C19 1_555 1_555
H1 C2 1_555 1_555
H2 C3 1_555 1_555
H3 C4 1_555 1_555
H4 C5 1_555 1_555
H5 C9 1_555 1_555
H6 C10 1_555 1_555
H7 C11 1_555 1_555
H8 C12 1_555 1_555
H9 C13 1_555 1_555
H10 C17 1_555 1_555
H11 C18 1_555 1_555
H12 C20 1_555 1_555
H13 C20 1_555 1_555
O1 C19 1_555 1_555
S1 C1 1_555 1_555
H12A C20 1_555 1_555
C13 C14 1_555 1_555
C15 C16 1_555 1_555
C16 S1 1_555 1_555

#END
