
#######################################################################
#
#                 Cambridge Crystallographic Data Centre
#                                CCDC 
#
#######################################################################
#
# If this CIF has been generated from an entry in the Cambridge 
# Structural Database, then it will include bibliographic, chemical, 
# crystal, experimental, refinement or atomic coordinate data resulting 
# from the CCDC's data processing and validation procedures.
#
#######################################################################

data_BETPIZ01
_chemical_formula_moiety         'C12 H13 N2 O1 P1'
_chemical_name_systematic        'bis(Anilino)-phosphine oxide'
_symmetry_cell_setting           orthorhombic
_symmetry_space_group_name_H-M   'P n m a'
_symmetry_Int_Tables_number      62
_space_group_name_Hall           '-P 2ac 2n'
loop_
_symmetry_equiv_pos_site_id
_symmetry_equiv_pos_as_xyz
1 x,y,z
2 1/2-x,1/2+y,1/2+z
3 x,1/2-y,z
4 1/2-x,-y,1/2+z
5 -x,-y,-z
6 1/2+x,1/2-y,1/2-z
7 -x,1/2+y,-z
8 1/2+x,y,1/2-z
_cell_length_a                   7.702(3)
_cell_length_b                   26.723(9)
_cell_length_c                   5.558(3)
_cell_angle_alpha                90
_cell_angle_beta                 90
_cell_angle_gamma                90
_cell_volume                     1143.95
_chemical_melting_point          152deg.C
_cell_formula_units_Z            4
loop_
_atom_site_label
_atom_site_type_symbol
_atom_site_fract_x
_atom_site_fract_y
_atom_site_fract_z
P1 P 0.82268 0.25000 0.02192
O1 O 0.63490 0.25000 -0.02660
N1 N 0.93370 0.20276 -0.08820
C1 C 0.89380 0.15222 -0.04420
C2 C 0.95130 0.11640 -0.20780
C3 C 0.91440 0.06611 -0.16950
C4 C 0.82180 0.05134 0.03050
C5 C 0.76490 0.08673 0.19180
C6 C 0.80160 0.13658 0.15630
H1 H 0.84900 0.25000 0.25600
H2 H 0.99400 0.21550 -0.21400
H3 H 1.01500 0.12330 -0.36100
H4 H 0.96700 0.04380 -0.28900
H5 H 0.79700 0.02310 0.06200
H6 H 0.70200 0.07870 0.33300
H7 H 0.78100 0.16030 0.26700
N1B N 0.93370 0.29724 -0.08820
C1B C 0.89380 0.34778 -0.04420
H2B H 0.99400 0.28450 -0.21400
C2B C 0.95130 0.38360 -0.20780
C6B C 0.80160 0.36342 0.15630
C3B C 0.91440 0.43389 -0.16950
H3B H 1.01500 0.37670 -0.36100
C5B C 0.76490 0.41327 0.19180
H7B H 0.78100 0.33970 0.26700
C4B C 0.82180 0.44866 0.03050
H4B H 0.96700 0.45620 -0.28900
H6B H 0.70200 0.42130 0.33300
H5B H 0.79700 0.47690 0.06200
loop_
_geom_bond_atom_site_label_1
_geom_bond_atom_site_label_2
_geom_bond_site_symmetry_1
_geom_bond_site_symmetry_2
P1 O1 1_555 1_555
N1 P1 1_555 1_555
C1 N1 1_555 1_555
C2 C1 1_555 1_555
C3 C2 1_555 1_555
C4 C3 1_555 1_555
C5 C4 1_555 1_555
C6 C1 1_555 1_555
H1 P1 1_555 1_555
H2 N1 1_555 1_555
H3 C2 1_555 1_555
H4 C3 1_555 1_555
H5 C4 1_555 1_555
H6 C5 1_555 1_555
H7 C6 1_555 1_555
N1B P1 1_555 1_555
C1B N1B 1_555 1_555
H2B N1B 1_555 1_555
C2B C1B 1_555 1_555
C6B C1B 1_555 1_555
C3B C2B 1_555 1_555
H3B C2B 1_555 1_555
C5B C6B 1_555 1_555
H7B C6B 1_555 1_555
C4B C3B 1_555 1_555
H4B C3B 1_555 1_555
H6B C5B 1_555 1_555
H5B C4B 1_555 1_555
C5 C6 1_555 1_555
C5B C4B 1_555 1_555

#END
