
#######################################################################
#
#                 Cambridge Crystallographic Data Centre
#                                CCDC 
#
#######################################################################
#
# If this CIF has been generated from an entry in the Cambridge 
# Structural Database, then it will include bibliographic, chemical, 
# crystal, experimental, refinement or atomic coordinate data resulting 
# from the CCDC's data processing and validation procedures.
#
#######################################################################

data_BEVFUG
_chemical_formula_moiety         
'C18 H36 K1 N2 O6 1+,1.5(C8 N6),Br1 1-,1.39(C1 H2 Cl2)'
_chemical_name_systematic        
'(4,7,13,16,21,24-hexaoxa-1,10-diazabicyclo[8.8.8]hexacosane)-potassium bromide sesquikis(pyrazine-2,3,5,6-tetracarbonitrile) dichloromethane solvate'
_symmetry_cell_setting           rhombohedral
_symmetry_space_group_name_H-M   'R -3'
_symmetry_Int_Tables_number      148
_space_group_name_Hall           '-R 3'
loop_
_symmetry_equiv_pos_site_id
_symmetry_equiv_pos_as_xyz
1 x,y,z
2 -y,x-y,z
3 -x+y,-x,z
4 2/3+x,1/3+y,1/3+z
5 2/3-y,1/3+x-y,1/3+z
6 2/3-x+y,1/3-x,1/3+z
7 1/3+x,2/3+y,2/3+z
8 1/3-y,2/3+x-y,2/3+z
9 1/3-x+y,2/3-x,2/3+z
10 -x,-y,-z
11 y,-x+y,-z
12 x-y,x,-z
13 1/3-x,2/3-y,2/3-z
14 1/3+y,2/3-x+y,2/3-z
15 1/3+x-y,2/3+x,2/3-z
16 2/3-x,1/3-y,1/3-z
17 2/3+y,1/3-x+y,1/3-z
18 2/3+x-y,1/3+x,1/3-z
_cell_length_a                   12.4744(3)
_cell_length_b                   12.4744(3)
_cell_length_c                   45.0300(12)
_cell_angle_alpha                90
_cell_angle_beta                 90
_cell_angle_gamma                120
_cell_volume                     6068.37
_exptl_crystal_colour            orange
_exptl_crystal_description       plate
_cell_formula_units_Z            6
loop_
_atom_site_label
_atom_site_type_symbol
_atom_site_fract_x
_atom_site_fract_y
_atom_site_fract_z
N3 N 0.49594(12) 0.49530(12) 0.03124(3)
C7 C 0.44630(14) 0.39341(14) 0.01464(3)
N4 N 0.34839(14) 0.18274(14) 0.04186(3)
C8 C 0.45036(14) 0.39815(14) -0.01653(3)
C9 C 0.39619(16) 0.28524(16) -0.03378(3)
C10 C 0.39071(15) 0.27585(15) 0.02998(3)
N5 N 0.35260(18) 0.19571(16) -0.04712(4)
N3I N 0.50406(12) 0.50470(12) -0.03124(3)
C7I C 0.55370(14) 0.60659(14) -0.01464(3)
N4I N 0.65161(14) 0.81726(14) -0.04186(3)
C8I C 0.54964(14) 0.60185(14) 0.01653(3)
C9I C 0.60381(16) 0.71476(16) 0.03378(3)
C10I C 0.60929(15) 0.72415(15) -0.02998(3)
N5I N 0.64740(18) 0.80429(16) 0.04712(4)
Br1 Br 0.333333 0.666667 0.00079(2)
K1 K 0.000000 0.000000 0.16805(2)
O1 O 0.20285(9) 0.19810(9) 0.13740(2)
O2 O 0.17751(9) 0.21985(9) 0.19871(2)
N1 N 0.000000 0.000000 0.10258(4)
C1 C 0.12386(13) 0.09095(13) 0.09128(3)
H1 H 0.117108 0.104445 0.069857
H2 H 0.179198 0.055782 0.093313
N2 N 0.000000 0.000000 0.23336(4)
C2 C 0.18217(14) 0.21427(13) 0.10695(3)
H3 H 0.261774 0.272452 0.097325
H4 H 0.126878 0.249723 0.105588
C3 C 0.26854(13) 0.31389(13) 0.15222(3)
H5 H 0.219454 0.356346 0.151874
H6 H 0.348145 0.367243 0.141996
C4 C 0.29216(13) 0.29229(15) 0.18380(3)
H7 H 0.340251 0.248791 0.184101
H8 H 0.341105 0.372650 0.194084
C5 C 0.19849(14) 0.20039(14) 0.22893(3)
H9 H 0.248958 0.281159 0.238931
H10 H 0.244515 0.154836 0.229672
C6 C 0.07649(14) 0.12735(13) 0.24469(3)
H11 H 0.092363 0.123577 0.266099
H12 H 0.029343 0.171437 0.242684
O1A O -0.19810(9) 0.00475(13) 0.13740(2)
O2A O -0.21985(9) -0.04234(13) 0.19871(2)
C1A C -0.09095(13) 0.03291(18) 0.09128(3)
H1A H -0.104445 0.012663 0.069857
H2A H -0.055782 0.123416 0.093313
C2A C -0.21427(13) -0.03210(19) 0.10695(3)
H3A H -0.272452 -0.010678 0.097325
H4A H -0.249723 -0.122845 0.105588
C3A C -0.31389(13) -0.04535(18) 0.15222(3)
H5A H -0.356346 -0.136892 0.151874
H6A H -0.367243 -0.019098 0.141996
C4A C -0.29229(15) -0.00013(20) 0.18380(3)
H7A H -0.248791 0.091460 0.184101
H8A H -0.372650 -0.031545 0.194084
C5A C -0.20039(14) -0.00190(20) 0.22893(3)
H9A H -0.281159 -0.032201 0.238931
H10A H -0.154836 0.089679 0.229672
C6A C -0.12735(13) -0.05086(19) 0.24469(3)
H11A H -0.123577 -0.031214 0.266099
H12A H -0.171437 -0.142094 0.242684
O1B O -0.00475(13) -0.20285(9) 0.13740(2)
O2B O 0.04234(13) -0.17751(9) 0.19871(2)
C1B C -0.03291(18) -0.12386(13) 0.09128(3)
H1B H -0.012663 -0.117108 0.069857
H2B H -0.123416 -0.179198 0.093313
C2B C 0.03210(19) -0.18217(14) 0.10695(3)
H3B H 0.010678 -0.261774 0.097325
H4B H 0.122845 -0.126878 0.105588
C3B C 0.04535(18) -0.26854(13) 0.15222(3)
H5B H 0.136892 -0.219454 0.151874
H6B H 0.019098 -0.348145 0.141996
C4B C 0.00013(20) -0.29216(13) 0.18380(3)
H7B H -0.091460 -0.340251 0.184101
H8B H 0.031545 -0.341105 0.194084
C5B C 0.00190(20) -0.19849(14) 0.22893(3)
H9B H 0.032201 -0.248958 0.238931
H10B H -0.089679 -0.244515 0.229672
C6B C 0.05086(19) -0.07649(14) 0.24469(3)
H11B H 0.031214 -0.092363 0.266099
H12B H 0.142094 -0.029343 0.242684
C11? C 0.338(2) 0.6263(19) 0.0836(4)
H13? H 0.306468 0.647922 0.065777
H14? H 0.372359 0.572093 0.078292
Cl1? Cl 0.4411(8) 0.7581(19) 0.1060(3)
Cl2? Cl 0.233(2) 0.5707(10) 0.1137(3)
C12? C 0.3454(16) 0.6733(19) 0.0843(2)
H15? H 0.382678 0.624230 0.091503
Cl3? Cl 0.4188(14) 0.6035(11) 0.1039(2)
Cl4? Cl 0.3790(11) 0.5710(14) 0.0982(2)
H16? H 0.352627 0.682993 0.062435
C13? C 0.069(2) 0.007(2) -0.0023(6)
Cl5? Cl 0.0114(28) -0.091(2) -0.0058(4)
H17? H 0.128405 -0.002923 0.010426
H18? H 0.090899 0.009536 -0.023548
Cl6? Cl 0.0850(17) -0.0476(15) 0.0087(3)
loop_
_geom_bond_atom_site_label_1
_geom_bond_atom_site_label_2
_geom_bond_site_symmetry_1
_geom_bond_site_symmetry_2
K1 O1 1_555 1_555
O1 C2 1_555 1_555
O2 K1 1_555 1_555
N1 K1 1_555 1_555
C1 N1 1_555 1_555
H1 C1 1_555 1_555
H2 C1 1_555 1_555
N2 K1 1_555 1_555
C2 C1 1_555 1_555
H3 C2 1_555 1_555
H4 C2 1_555 1_555
C3 O1 1_555 1_555
H5 C3 1_555 1_555
H6 C3 1_555 1_555
C4 O2 1_555 1_555
H7 C4 1_555 1_555
H8 C4 1_555 1_555
C5 O2 1_555 1_555
H9 C5 1_555 1_555
H10 C5 1_555 1_555
C6 N2 1_555 1_555
H11 C6 1_555 1_555
H12 C6 1_555 1_555
N3 C7 1_555 1_555
C7 C8 1_555 1_555
N4 C10 1_555 1_555
C8 C9 1_555 1_555
C9 N5 1_555 1_555
C10 C7 1_555 1_555
O1A K1 1_555 1_555
O2A K1 1_555 1_555
C1A N1 1_555 1_555
H1A C1A 1_555 1_555
H2A C1A 1_555 1_555
C2A O1A 1_555 1_555
H3A C2A 1_555 1_555
H4A C2A 1_555 1_555
C3A O1A 1_555 1_555
H5A C3A 1_555 1_555
H6A C3A 1_555 1_555
C4A O2A 1_555 1_555
H7A C4A 1_555 1_555
H8A C4A 1_555 1_555
C5A O2A 1_555 1_555
H9A C5A 1_555 1_555
H10A C5A 1_555 1_555
C6A N2 1_555 1_555
H11A C6A 1_555 1_555
H12A C6A 1_555 1_555
O1B K1 1_555 1_555
O2B K1 1_555 1_555
C1B N1 1_555 1_555
H1B C1B 1_555 1_555
H2B C1B 1_555 1_555
C2B O1B 1_555 1_555
H3B C2B 1_555 1_555
H4B C2B 1_555 1_555
C3B O1B 1_555 1_555
H5B C3B 1_555 1_555
H6B C3B 1_555 1_555
C4B O2B 1_555 1_555
H7B C4B 1_555 1_555
H8B C4B 1_555 1_555
C5B O2B 1_555 1_555
H9B C5B 1_555 1_555
H10B C5B 1_555 1_555
C6B N2 1_555 1_555
H11B C6B 1_555 1_555
H12B C6B 1_555 1_555
N3I C8 1_555 1_555
C7I N3I 1_555 1_555
N4I C10I 1_555 1_555
C8I N3 1_555 1_555
C9I C8I 1_555 1_555
C10I C7I 1_555 1_555
N5I C9I 1_555 1_555
C3 C4 1_555 1_555
C5 C6 1_555 1_555
C1A C2A 1_555 1_555
C3A C4A 1_555 1_555
C5A C6A 1_555 1_555
C1B C2B 1_555 1_555
C3B C4B 1_555 1_555
C5B C6B 1_555 1_555
C7I C8I 1_555 1_555

#END
