
#######################################################################
#
#                 Cambridge Crystallographic Data Centre
#                                CCDC 
#
#######################################################################
#
# If this CIF has been generated from an entry in the Cambridge 
# Structural Database, then it will include bibliographic, chemical, 
# crystal, experimental, refinement or atomic coordinate data resulting 
# from the CCDC's data processing and validation procedures.
#
#######################################################################

data_BEVGOB
_chemical_formula_moiety         'C16 H36 N1 1+,4(C8 N6),Br1 1-'
_chemical_name_systematic        
'tetra-n-butylammonium bromide tetrakis(pyrazine-2,3,5,6-tetracarbonitrile)'
_symmetry_cell_setting           tetragonal
_symmetry_space_group_name_H-M   'I -4'
_symmetry_Int_Tables_number      82
_space_group_name_Hall           'I -4'
loop_
_symmetry_equiv_pos_site_id
_symmetry_equiv_pos_as_xyz
1 x,y,z
2 -x,-y,z
3 y,-x,-z
4 -y,x,-z
5 1/2+x,1/2+y,1/2+z
6 1/2-x,1/2-y,1/2+z
7 1/2+y,1/2-x,1/2-z
8 1/2-y,1/2+x,1/2-z
_cell_length_a                   13.3307(6)
_cell_length_b                   13.3307(6)
_cell_length_c                   15.2977(8)
_cell_angle_alpha                90
_cell_angle_beta                 90
_cell_angle_gamma                90
_cell_volume                     2718.52
_exptl_crystal_colour            yellow
_exptl_crystal_description       prism
_cell_formula_units_Z            2
loop_
_atom_site_label
_atom_site_type_symbol
_atom_site_fract_x
_atom_site_fract_y
_atom_site_fract_z
Br1 Br 0.500000 0.500000 0.000000
N1 N 0.79814(9) 0.45806(9) 0.08515(8)
N2 N 0.64437(9) 0.49369(9) 0.20815(9)
N3 N 0.69443(12) 0.26640(12) -0.03060(11)
N4 N 0.49476(12) 0.29095(12) 0.16726(13)
N5 N 0.73743(11) 0.71326(12) 0.29638(12)
N6 N 0.96919(11) 0.63230(12) 0.15638(11)
C1 C 0.71465(11) 0.40351(10) 0.08760(10)
C2 C 0.64019(11) 0.41840(10) 0.15142(10)
C3 C 0.72541(11) 0.55235(10) 0.20211(10)
C4 C 0.80399(10) 0.53137(10) 0.14430(9)
C5 C 0.70365(12) 0.32687(12) 0.02153(11)
C6 C 0.55697(12) 0.34898(12) 0.15952(12)
C7 C 0.73004(11) 0.64039(12) 0.25722(11)
C8 C 0.89601(11) 0.58844(11) 0.14834(10)
N7 N 1.000000 0.500000 -0.250000
C9 C 0.96136(12) 0.58658(13) -0.19362(13)
H1 H 0.935350 0.639201 -0.233272
H2 H 0.903817 0.561484 -0.159048
C10 C 1.0345(3) 0.6355(3) -0.1311(3)
H3 H 1.092518 0.662564 -0.163876
H4 H 1.059496 0.585400 -0.088658
C11 C 0.9812(2) 0.7200(3) -0.0831(2)
H5 H 0.952501 0.766949 -0.126507
H6 H 0.925029 0.691458 -0.048852
C12 C 1.04933(19) 0.7775(2) -0.02235(17)
H7 H 1.075646 0.732074 0.022526
H8 H 1.011430 0.831636 0.005642
H9 H 1.105179 0.806013 -0.055769
C9A C 1.03864(12) 0.41342(13) -0.19362(13)
H1A H 1.064650 0.360799 -0.233272
H2A H 1.096183 0.438516 -0.159048
C10A C 0.9655(3) 0.3645(3) -0.1311(3)
H3A H 0.907482 0.337436 -0.163876
H4A H 0.940504 0.414600 -0.088658
C11A C 1.0188(2) 0.2800(3) -0.0831(2)
H5A H 1.047499 0.233051 -0.126507
H6A H 1.074971 0.308542 -0.048852
C12A C 0.95067(19) 0.2225(2) -0.02235(17)
H7A H 0.924354 0.267926 0.022526
H8A H 0.988570 0.168364 0.005642
H9A H 0.894821 0.193987 -0.055769
C9F C 1.08658(13) 0.53864(12) -0.30638(13)
H1F H 1.139201 0.564650 -0.266728
H2F H 1.061484 0.596183 -0.340952
C10F C 1.1355(3) 0.4655(3) -0.3689(3)
H3F H 1.162564 0.407482 -0.336124
H4F H 1.085400 0.440504 -0.411342
C11F C 1.2200(3) 0.5188(2) -0.4169(2)
H5F H 1.266949 0.547499 -0.373493
H6F H 1.191458 0.574971 -0.451148
C12F C 1.2775(2) 0.45067(19) -0.47765(17)
H7F H 1.232074 0.424354 -0.522526
H8F H 1.331636 0.488570 -0.505642
H9F H 1.306013 0.394821 -0.444231
C9G C 0.91342(13) 0.46136(12) -0.30638(13)
H1G H 0.860799 0.435350 -0.266728
H2G H 0.938516 0.403817 -0.340952
C10G C 0.8645(3) 0.5345(3) -0.3689(3)
H3G H 0.837436 0.592518 -0.336124
H4G H 0.914600 0.559496 -0.411342
C11G C 0.7800(3) 0.4812(2) -0.4169(2)
H5G H 0.733051 0.452501 -0.373493
H6G H 0.808542 0.425029 -0.451148
C12G C 0.7225(2) 0.54933(19) -0.47765(17)
H7G H 0.767926 0.575646 -0.522526
H8G H 0.668364 0.511430 -0.505642
H9G H 0.693987 0.605179 -0.444231
C13? C 1.0363(14) 0.6098(11) -0.1187(11)
H10? H 1.038556 0.551242 -0.078897
H11? H 1.104073 0.617709 -0.144289
C14? C 1.0127(9) 0.7030(10) -0.0647(9)
H12? H 0.941515 0.700115 -0.046394
H13? H 1.054267 0.701773 -0.011064
C15? C 1.0303(9) 0.7999(8) -0.1108(8)
H14? H 1.010577 0.855666 -0.072763
H15? H 0.990329 0.801769 -0.164560
H16? H 1.101611 0.806038 -0.125494
loop_
_geom_bond_atom_site_label_1
_geom_bond_atom_site_label_2
_geom_bond_site_symmetry_1
_geom_bond_site_symmetry_2
N1 C1 1_555 1_555
N2 C2 1_555 1_555
N3 C5 1_555 1_555
N4 C6 1_555 1_555
N5 C7 1_555 1_555
N6 C8 1_555 1_555
C1 C2 1_555 1_555
C2 C6 1_555 1_555
C3 N2 1_555 1_555
C4 N1 1_555 1_555
C5 C1 1_555 1_555
C7 C3 1_555 1_555
C8 C4 1_555 1_555
N7 C9 1_555 1_555
C9 H1 1_555 1_555
H2 C9 1_555 1_555
C10 C9 1_555 1_555
H3 C10 1_555 1_555
H4 C10 1_555 1_555
C11 C10 1_555 1_555
H5 C11 1_555 1_555
H6 C11 1_555 1_555
C12 C11 1_555 1_555
H7 C12 1_555 1_555
H8 C12 1_555 1_555
H9 C12 1_555 1_555
C9A N7 1_555 1_555
H1A C9A 1_555 1_555
H2A C9A 1_555 1_555
C10A C9A 1_555 1_555
H3A C10A 1_555 1_555
H4A C10A 1_555 1_555
C11A C10A 1_555 1_555
H5A C11A 1_555 1_555
H6A C11A 1_555 1_555
C12A C11A 1_555 1_555
H7A C12A 1_555 1_555
H8A C12A 1_555 1_555
H9A C12A 1_555 1_555
C9F N7 1_555 1_555
H1F C9F 1_555 1_555
H2F C9F 1_555 1_555
C10F C9F 1_555 1_555
H3F C10F 1_555 1_555
H4F C10F 1_555 1_555
C11F C10F 1_555 1_555
H5F C11F 1_555 1_555
H6F C11F 1_555 1_555
C12F C11F 1_555 1_555
H7F C12F 1_555 1_555
H8F C12F 1_555 1_555
H9F C12F 1_555 1_555
C9G N7 1_555 1_555
H1G C9G 1_555 1_555
H2G C9G 1_555 1_555
C10G C9G 1_555 1_555
H3G C10G 1_555 1_555
H4G C10G 1_555 1_555
C11G C10G 1_555 1_555
H5G C11G 1_555 1_555
H6G C11G 1_555 1_555
C12G C11G 1_555 1_555
H7G C12G 1_555 1_555
H8G C12G 1_555 1_555
H9G C12G 1_555 1_555
C3 C4 1_555 1_555

#END
