
#######################################################################
#
#                 Cambridge Crystallographic Data Centre
#                                CCDC 
#
#######################################################################
#
# If this CIF has been generated from an entry in the Cambridge 
# Structural Database, then it will include bibliographic, chemical, 
# crystal, experimental, refinement or atomic coordinate data resulting 
# from the CCDC's data processing and validation procedures.
#
#######################################################################

data_BEVJOD
_chemical_formula_moiety         'C24 H17 N1 O1'
_chemical_name_systematic        6-(4-Methoxyphenyl)benzo[k]phenanthridine
_symmetry_cell_setting           monoclinic
_symmetry_space_group_name_H-M   'P 21/c'
_symmetry_Int_Tables_number      14
_space_group_name_Hall           '-P 2ybc'
loop_
_symmetry_equiv_pos_site_id
_symmetry_equiv_pos_as_xyz
1 x,y,z
2 -x,1/2+y,1/2-z
3 -x,-y,-z
4 x,1/2-y,1/2+z
_cell_length_a                   5.596(2)
_cell_length_b                   18.632(7)
_cell_length_c                   16.056(6)
_cell_angle_alpha                90
_cell_angle_beta                 92.180(7)
_cell_angle_gamma                90
_cell_volume                     1672.86
_exptl_crystal_colour            colorless
_exptl_crystal_description       rod
_cell_formula_units_Z            4
loop_
_atom_site_label
_atom_site_type_symbol
_atom_site_fract_x
_atom_site_fract_y
_atom_site_fract_z
O1 O 0.1456(3) 0.67583(10) 0.03387(12)
N1 N -0.2170(4) 0.91958(12) -0.20543(13)
C1 C -0.1192(4) 1.03114(14) -0.27976(15)
C2 C -0.1691(5) 1.07121(15) -0.35346(15)
H1 H -0.0627 1.1084 -0.3685
C3 C -0.3674(5) 1.05741(15) -0.40344(16)
H2 H -0.3981 1.0859 -0.4517
C4 C -0.5268(5) 1.00173(16) -0.38459(16)
H3 H -0.6696 0.9947 -0.4175
C5 C -0.4725(5) 0.95786(15) -0.31798(16)
H4 H -0.5739 0.9184 -0.3066
C6 C -0.2678(5) 0.97059(14) -0.26612(15)
C7 C -0.0200(5) 0.92648(14) -0.15931(15)
C8 C 0.1325(4) 0.98887(14) -0.16218(15)
C9 C 0.0757(4) 1.04429(14) -0.21931(15)
C10 C 0.3396(5) 0.99390(15) -0.10769(15)
H5 H 0.3731 0.9566 -0.0686
C11 C 0.4887(5) 1.05084(15) -0.11087(15)
H6 H 0.6338 1.0508 -0.0782
C12 C 0.4307(4) 1.11113(14) -0.16282(15)
C13 C 0.2164(4) 1.11006(14) -0.21412(15)
C14 C 0.5787(5) 1.17274(16) -0.16027(17)
H7 H 0.7246 1.1719 -0.1280
C15 C 0.5152(5) 1.23301(16) -0.20328(17)
H8 H 0.6181 1.2736 -0.2022
C16 C 0.2969(5) 1.23511(16) -0.24928(17)
H9 H 0.2498 1.2779 -0.2776
C17 C 0.1508(5) 1.17585(15) -0.25369(16)
H10 H 0.0020 1.1789 -0.2840
C18 C 0.0343(4) 0.86458(14) -0.10192(15)
C19 C -0.1332(5) 0.84341(15) -0.04464(16)
H11 H -0.2718 0.8719 -0.0377
C20 C -0.1012(5) 0.78131(15) 0.00261(16)
H12 H -0.2157 0.7681 0.0420
C21 C 0.0987(5) 0.73893(14) -0.00825(15)
C22 C 0.2704(5) 0.76011(15) -0.06405(16)
H13 H 0.4094 0.7317 -0.0705
C23 C 0.2386(5) 0.82248(15) -0.11003(16)
H14 H 0.3570 0.8368 -0.1475
C24 C -0.0426(6) 0.64619(18) 0.0807(2)
H15 H -0.1887 0.6430 0.0452
H16 H -0.0715 0.6771 0.1286
H17 H 0.0032 0.5981 0.1003
loop_
_geom_bond_atom_site_label_1
_geom_bond_atom_site_label_2
_geom_bond_site_symmetry_1
_geom_bond_site_symmetry_2
O1 C21 1_555 1_555
N1 C6 1_555 1_555
C1 C2 1_555 1_555
C2 H1 1_555 1_555
C3 C2 1_555 1_555
H2 C3 1_555 1_555
C4 C3 1_555 1_555
H3 C4 1_555 1_555
C5 C4 1_555 1_555
H4 C5 1_555 1_555
C6 C1 1_555 1_555
C7 N1 1_555 1_555
C8 C7 1_555 1_555
C9 C1 1_555 1_555
C10 C8 1_555 1_555
H5 C10 1_555 1_555
C11 C10 1_555 1_555
H6 C11 1_555 1_555
C12 C11 1_555 1_555
C13 C9 1_555 1_555
C14 C12 1_555 1_555
H7 C14 1_555 1_555
C15 C14 1_555 1_555
H8 C15 1_555 1_555
C16 C15 1_555 1_555
H9 C16 1_555 1_555
C17 C13 1_555 1_555
H10 C17 1_555 1_555
C18 C7 1_555 1_555
C19 C18 1_555 1_555
H11 C19 1_555 1_555
C20 C19 1_555 1_555
H12 C20 1_555 1_555
C21 C20 1_555 1_555
C22 C21 1_555 1_555
H13 C22 1_555 1_555
C23 C18 1_555 1_555
H14 C23 1_555 1_555
C24 O1 1_555 1_555
H15 C24 1_555 1_555
H16 C24 1_555 1_555
H17 C24 1_555 1_555
C5 C6 1_555 1_555
C8 C9 1_555 1_555
C12 C13 1_555 1_555
C16 C17 1_555 1_555
C22 C23 1_555 1_555

#END
