
#######################################################################
#
#                 Cambridge Crystallographic Data Centre
#                                CCDC 
#
#######################################################################
#
# If this CIF has been generated from an entry in the Cambridge 
# Structural Database, then it will include bibliographic, chemical, 
# crystal, experimental, refinement or atomic coordinate data resulting 
# from the CCDC's data processing and validation procedures.
#
#######################################################################

data_BEVJUJ
_chemical_formula_moiety         'C34 H51 B1 O1 P2,C4 H8'
_chemical_name_systematic        
'Boranyl(cyclohexyl)(1-(dicyclohexylphosphoryl)-1-phenylbut-2-en-2-yl)(phenyl)phosphorane but-2-ene solvate'
_symmetry_cell_setting           monoclinic
_symmetry_space_group_name_H-M   'P 21'
_symmetry_Int_Tables_number      4
_space_group_name_Hall           'P 2yb'
loop_
_symmetry_equiv_pos_site_id
_symmetry_equiv_pos_as_xyz
1 x,y,z
2 -x,1/2+y,-z
_cell_length_a                   12.1559(6)
_cell_length_b                   12.4838(6)
_cell_length_c                   13.5772(7)
_cell_angle_alpha                90
_cell_angle_beta                 113.549(2)
_cell_angle_gamma                90
_cell_volume                     1888.78
_exptl_crystal_colour            colorless
_exptl_crystal_description       plate
_cell_formula_units_Z            2
loop_
_atom_site_label
_atom_site_type_symbol
_atom_site_fract_x
_atom_site_fract_y
_atom_site_fract_z
P1 P 0.13826(9) 0.58189(7) 0.94352(8)
P2 P 0.23519(8) 0.91808(7) 0.91619(8)
O1 O 0.0238(3) 0.5473(2) 0.9499(3)
C1 C 0.4712(5) 0.5433(5) 1.2734(4)
H1 H 0.5085 0.4808 1.2538
H2 H 0.5211 0.5621 1.3490
C2 C 0.3470(5) 0.5140(5) 1.2628(4)
H3 H 0.3141 0.5732 1.2914
H4 H 0.3514 0.4493 1.3064
C3 C 0.2620(5) 0.4923(4) 1.1452(4)
H5 H 0.2913 0.4301 1.1173
H6 H 0.1806 0.4754 1.1408
C4 C 0.2575(4) 0.5919(3) 1.0778(3)
H7 H 0.2350 0.6528 1.1138
C5 C 0.1332(3) 0.7135(3) 0.8802(3)
H8 H 0.2036 0.7137 0.8597
C6 C 0.1476(3) 0.8149(3) 0.9482(3)
C7 C 0.2647(4) 1.0268(3) 1.0137(3)
H9 H 0.1874 1.0467 1.0187
C8 C 0.3536(4) 0.9918(3) 1.1251(3)
H10 H 0.3215 0.9283 1.1486
H11 H 0.4306 0.9714 1.1216
C9 C 0.3750(4) 1.0818(4) 1.2063(3)
H12 H 0.2994 1.0973 1.2148
H13 H 0.4355 1.0585 1.2769
C10 C 0.4187(4) 1.1830(4) 1.1710(4)
H14 H 0.4996 1.1702 1.1721
H15 H 0.4252 1.2414 1.2223
C11 C -0.0199(5) 1.0648(4) 0.5964(4)
H16 H -0.0731 1.0949 0.5303
C12 C -0.0581(5) 1.0489(5) 0.6780(5)
H17 H -0.1375 1.0685 0.6677
C13 C 0.0182(4) 1.0046(4) 0.7754(4)
H18 H -0.0088 0.9939 0.8314
C14 C 0.1343(4) 0.9762(3) 0.7902(3)
C15 C 0.3338(4) 1.2175(3) 1.0582(4)
H19 H 0.3684 1.2799 1.0356
H20 H 0.2561 1.2397 1.0591
C16 C 0.3129(4) 1.1256(3) 0.9768(3)
H21 H 0.2546 1.1486 0.9051
H22 H 0.3893 1.1076 0.9708
C17 C 0.0992(4) 0.8373(3) 1.0186(3)
H23 H 0.1170 0.9068 1.0496
C18 C 0.0215(4) 0.7702(3) 1.0562(3)
H24 H 0.0078 0.7003 1.0204
H25 H -0.0556 0.8063 1.0388
H26 H 0.0614 0.7600 1.1342
C19 C 0.4681(5) 0.6375(5) 1.2012(4)
H27 H 0.5500 0.6508 1.2052
H28 H 0.4417 0.7025 1.2275
C20 C 0.3833(4) 0.6175(4) 1.0840(3)
H29 H 0.3802 0.6818 1.0403
H30 H 0.4133 0.5568 1.0548
C21 C 0.1813(4) 0.4849(3) 0.8637(3)
H31 H 0.2147 0.4220 0.9122
C22 C 0.0708(4) 0.4419(3) 0.7693(3)
H32 H 0.0074 0.4228 0.7946
H33 H 0.0386 0.4981 0.7136
C23 C 0.1046(4) 0.3438(4) 0.7214(3)
H34 H 0.1293 0.2856 0.7754
H35 H 0.0336 0.3189 0.6587
C24 C 0.2059(4) 0.3672(4) 0.6864(4)
H36 H 0.1765 0.4163 0.6239
H37 H 0.2309 0.2996 0.6632
C25 C 0.3143(4) 0.4176(4) 0.7755(4)
H38 H 0.3734 0.4396 0.7461
H39 H 0.3530 0.3638 0.8325
C26 C 0.2778(4) 0.5160(4) 0.8243(3)
H40 H 0.3489 0.5442 0.8849
H41 H 0.2471 0.5730 0.7694
C27 C 0.0229(4) 0.7233(3) 0.7735(3)
C28 C 0.0376(4) 0.7361(3) 0.6782(3)
H42 H 0.1160 0.7350 0.6789
C29 C -0.0606(4) 0.7505(4) 0.5818(4)
H43 H -0.0492 0.7598 0.5171
C30 C -0.1755(4) 0.7511(4) 0.5802(4)
H44 H -0.2432 0.7599 0.5142
C31 C -0.1906(4) 0.7391(4) 0.6745(4)
H45 H -0.2692 0.7405 0.6735
C32 C -0.0927(4) 0.7248(4) 0.7713(3)
H46 H -0.1045 0.7162 0.8360
C33 C 0.1729(5) 0.9935(4) 0.7073(4)
H47 H 0.2525 0.9754 0.7173
C34 C 0.0946(5) 1.0374(4) 0.6100(4)
H48 H 0.1204 1.0482 0.5533
B1 B 0.3794(4) 0.8655(4) 0.9067(4)
H49 H 0.3587 0.8114 0.8498
H50 H 0.4313 0.8333 0.9755
H51 H 0.4217 0.9250 0.8901
C35 C 0.4011(11) 0.7108(7) 0.5184(6)
H52 H 0.4185 0.6366 0.5183
C36 C 0.4523(8) 0.7888(11) 0.4735(10)
H53 H 0.3953 0.8477 0.4437
H54 H 0.4707 0.7561 0.4162
H55 H 0.5263 0.8165 0.5295
C37 C 0.3250(10) 0.7493(10) 0.5620(8)
H56 H 0.3315 0.7339 0.6326
C38 C 0.2299(8) 0.8189(11) 0.4833(10)
loop_
_geom_bond_atom_site_label_1
_geom_bond_atom_site_label_2
_geom_bond_site_symmetry_1
_geom_bond_site_symmetry_2
P1 O1 1_555 1_555
P2 C6 1_555 1_555
C1 H1 1_555 1_555
H2 C1 1_555 1_555
C2 C1 1_555 1_555
H3 C2 1_555 1_555
H4 C2 1_555 1_555
C3 C2 1_555 1_555
H5 C3 1_555 1_555
H6 C3 1_555 1_555
C4 P1 1_555 1_555
H7 C4 1_555 1_555
C5 P1 1_555 1_555
H8 C5 1_555 1_555
C6 C5 1_555 1_555
C7 P2 1_555 1_555
H9 C7 1_555 1_555
C8 C7 1_555 1_555
H10 C8 1_555 1_555
H11 C8 1_555 1_555
C9 C8 1_555 1_555
H12 C9 1_555 1_555
H13 C9 1_555 1_555
C10 C9 1_555 1_555
H14 C10 1_555 1_555
H15 C10 1_555 1_555
C11 H16 1_555 1_555
C12 C11 1_555 1_555
H17 C12 1_555 1_555
C13 C12 1_555 1_555
H18 C13 1_555 1_555
C14 P2 1_555 1_555
C15 C10 1_555 1_555
H19 C15 1_555 1_555
H20 C15 1_555 1_555
C16 C7 1_555 1_555
H21 C16 1_555 1_555
H22 C16 1_555 1_555
C17 C6 1_555 1_555
H23 C17 1_555 1_555
C18 C17 1_555 1_555
H24 C18 1_555 1_555
H25 C18 1_555 1_555
H26 C18 1_555 1_555
C19 C1 1_555 1_555
H27 C19 1_555 1_555
H28 C19 1_555 1_555
C20 C4 1_555 1_555
H29 C20 1_555 1_555
H30 C20 1_555 1_555
C21 P1 1_555 1_555
H31 C21 1_555 1_555
C22 C21 1_555 1_555
H32 C22 1_555 1_555
H33 C22 1_555 1_555
C23 C22 1_555 1_555
H34 C23 1_555 1_555
H35 C23 1_555 1_555
C24 C23 1_555 1_555
H36 C24 1_555 1_555
H37 C24 1_555 1_555
C25 C24 1_555 1_555
H38 C25 1_555 1_555
H39 C25 1_555 1_555
C26 C21 1_555 1_555
H40 C26 1_555 1_555
H41 C26 1_555 1_555
C27 C5 1_555 1_555
C28 C27 1_555 1_555
H42 C28 1_555 1_555
C29 C28 1_555 1_555
H43 C29 1_555 1_555
C30 C29 1_555 1_555
H44 C30 1_555 1_555
C31 C30 1_555 1_555
H45 C31 1_555 1_555
C32 C27 1_555 1_555
H46 C32 1_555 1_555
C33 C14 1_555 1_555
H47 C33 1_555 1_555
C34 C11 1_555 1_555
H48 C34 1_555 1_555
B1 P2 1_555 1_555
H49 B1 1_555 1_555
H50 B1 1_555 1_555
H51 B1 1_555 1_555
C35 H52 1_555 1_555
C36 C35 1_555 1_555
H53 C36 1_555 1_555
H54 C36 1_555 1_555
H55 C36 1_555 1_555
C37 C35 1_555 1_555
H56 C37 1_555 1_555
C38 C37 1_555 1_555
C3 C4 1_555 1_555
C13 C14 1_555 1_555
C15 C16 1_555 1_555
C19 C20 1_555 1_555
C25 C26 1_555 1_555
C31 C32 1_555 1_555
C33 C34 1_555 1_555

#END
