
#######################################################################
#
#                 Cambridge Crystallographic Data Centre
#                                CCDC 
#
#######################################################################
#
# If this CIF has been generated from an entry in the Cambridge 
# Structural Database, then it will include bibliographic, chemical, 
# crystal, experimental, refinement or atomic coordinate data resulting 
# from the CCDC's data processing and validation procedures.
#
#######################################################################

data_BEVKUK
_chemical_name_common            
((1-Phenyl-3-hydroxybuten-2-yl)(cyclohexyl)phenylphosphine)-borane
_chemical_formula_moiety         'C22 H30 B1 O1 P1'
_chemical_name_systematic        
3-(\l^5^-Boranyl(cyclohexyl)phenylphosphoranyl)-4-phenylbut-3-en-2-ol
_symmetry_cell_setting           monoclinic
_symmetry_space_group_name_H-M   'P 21'
_symmetry_Int_Tables_number      4
_space_group_name_Hall           'P 2yb'
loop_
_symmetry_equiv_pos_site_id
_symmetry_equiv_pos_as_xyz
1 x,y,z
2 -x,1/2+y,-z
_cell_length_a                   11.4968(7)
_cell_length_b                   6.7998(4)
_cell_length_c                   12.5582(7)
_cell_angle_alpha                90
_cell_angle_beta                 92.296(3)
_cell_angle_gamma                90
_cell_volume                     980.961
_exptl_crystal_colour            colorless
_exptl_crystal_description       prism
_cell_formula_units_Z            2
loop_
_atom_site_label
_atom_site_type_symbol
_atom_site_fract_x
_atom_site_fract_y
_atom_site_fract_z
P1 P 0.29699(3) 0.24349(5) 0.19645(3)
O1 O 0.55736(10) 0.65036(19) 0.16263(9)
H1 H 0.515(2) 0.749(4) 0.1716(17)
C1 C 0.08706(14) 0.3379(3) -0.12809(13)
H2 H 0.0752 0.3506 -0.2063
H3 H 0.0100 0.3472 -0.0960
C2 C 0.14093(14) 0.1377(3) -0.10186(13)
H4 H 0.0862 0.0325 -0.1252
H5 H 0.2133 0.1216 -0.1411
C3 C 0.16861(14) 0.1182(3) 0.01758(13)
H6 H 0.2064 -0.0102 0.0325
H7 H 0.0955 0.1231 0.0566
C4 C 0.24970(13) 0.2851(2) 0.05626(11)
H8 H 0.3209 0.2778 0.0132
C5 C 0.40924(13) 0.4253(2) 0.22926(12)
C6 C 0.43169(14) 0.5001(3) 0.32591(12)
H9 H 0.4926 0.5946 0.3287
C7 C 0.37936(13) 0.4631(3) 0.42943(13)
C8 C 0.34923(14) 0.2764(3) 0.46398(12)
H10 H 0.3598 0.1660 0.4190
C9 C 0.30360(15) 0.2500(3) 0.56416(13)
H11 H 0.2831 0.1220 0.5872
C10 C 0.28813(16) 0.4102(4) 0.63004(14)
H12 H 0.2569 0.3920 0.6982
C11 C 0.31799(17) 0.5965(4) 0.59694(14)
H13 H 0.3067 0.7064 0.6420
C12 C 0.36472(15) 0.6229(3) 0.49735(14)
H14 H 0.3868 0.7508 0.4754
C13 C 0.48677(14) 0.4852(3) 0.13758(12)
H15 H 0.4364 0.5151 0.0729
C14 C 0.57080(15) 0.3203(3) 0.11162(13)
H16 H 0.6145 0.3570 0.0492
H17 H 0.5269 0.1994 0.0963
H18 H 0.6251 0.2985 0.1726
C15 C 0.16996(13) 0.3007(2) 0.27276(11)
C16 C 0.14110(14) 0.4949(3) 0.29784(12)
H19 H 0.1879 0.6006 0.2749
C17 C 0.04341(16) 0.5319(3) 0.35659(13)
H20 H 0.0242 0.6633 0.3748
C18 C -0.02618(15) 0.3779(3) 0.38878(13)
H21 H -0.0928 0.4041 0.4288
C19 C 0.00131(16) 0.1867(3) 0.36274(13)
H22 H -0.0469 0.0815 0.3841
C20 C 0.09974(15) 0.1482(3) 0.30524(12)
H23 H 0.1189 0.0163 0.2881
C21 C 0.19299(14) 0.4846(2) 0.03291(12)
H24 H 0.2467 0.5911 0.0566
H25 H 0.1208 0.4966 0.0729
C22 C 0.16406(15) 0.5053(2) -0.08652(12)
H26 H 0.1238 0.6321 -0.1001
H27 H 0.2372 0.5066 -0.1255
B1 B 0.35196(17) -0.0231(3) 0.21261(14)
H28 H 0.4051 -0.0318 0.2754
H29 H 0.3931 -0.0617 0.1490
H30 H 0.2856 -0.1111 0.2216
loop_
_geom_bond_atom_site_label_1
_geom_bond_atom_site_label_2
_geom_bond_site_symmetry_1
_geom_bond_site_symmetry_2
P1 C4 1_555 1_555
O1 H1 1_555 1_555
C1 H2 1_555 1_555
H3 C1 1_555 1_555
C2 C1 1_555 1_555
H4 C2 1_555 1_555
H5 C2 1_555 1_555
C3 C2 1_555 1_555
H6 C3 1_555 1_555
H7 C3 1_555 1_555
C4 C3 1_555 1_555
H8 C4 1_555 1_555
C5 P1 1_555 1_555
C6 C5 1_555 1_555
H9 C6 1_555 1_555
C7 C6 1_555 1_555
C8 C7 1_555 1_555
H10 C8 1_555 1_555
C9 C8 1_555 1_555
H11 C9 1_555 1_555
C10 C9 1_555 1_555
H12 C10 1_555 1_555
C11 C10 1_555 1_555
H13 C11 1_555 1_555
C12 C7 1_555 1_555
H14 C12 1_555 1_555
C13 O1 1_555 1_555
H15 C13 1_555 1_555
C14 C13 1_555 1_555
H16 C14 1_555 1_555
H17 C14 1_555 1_555
H18 C14 1_555 1_555
C15 P1 1_555 1_555
C16 C15 1_555 1_555
H19 C16 1_555 1_555
C17 C16 1_555 1_555
H20 C17 1_555 1_555
C18 C17 1_555 1_555
H21 C18 1_555 1_555
C19 C18 1_555 1_555
H22 C19 1_555 1_555
C20 C15 1_555 1_555
H23 C20 1_555 1_555
C21 C4 1_555 1_555
H24 C21 1_555 1_555
H25 C21 1_555 1_555
C22 C1 1_555 1_555
H26 C22 1_555 1_555
H27 C22 1_555 1_555
B1 P1 1_555 1_555
H28 B1 1_555 1_555
H29 B1 1_555 1_555
H30 B1 1_555 1_555
C5 C13 1_555 1_555
C11 C12 1_555 1_555
C19 C20 1_555 1_555
C21 C22 1_555 1_555

#END
