
#######################################################################
#
#                 Cambridge Crystallographic Data Centre
#                                CCDC 
#
#######################################################################
#
# If this CIF has been generated from an entry in the Cambridge 
# Structural Database, then it will include bibliographic, chemical, 
# crystal, experimental, refinement or atomic coordinate data resulting 
# from the CCDC's data processing and validation procedures.
#
#######################################################################

data_BEVKEU
_chemical_formula_moiety         'C24 H37 B1 N1 P1'
_chemical_name_systematic        
N-(3-(Boranyl(di-t-butyl)phosphoranyl)-4-phenylbut-3-en-2-yl)aniline
_symmetry_cell_setting           orthorhombic
_symmetry_space_group_name_H-M   'P 21 21 21'
_symmetry_Int_Tables_number      19
_space_group_name_Hall           'P 2ac 2ab'
loop_
_symmetry_equiv_pos_site_id
_symmetry_equiv_pos_as_xyz
1 x,y,z
2 1/2+x,1/2-y,-z
3 -x,1/2+y,1/2-z
4 1/2-x,-y,1/2+z
_cell_length_a                   12.0403(18)
_cell_length_b                   13.941(2)
_cell_length_c                   14.467(2)
_cell_angle_alpha                90
_cell_angle_beta                 90
_cell_angle_gamma                90
_cell_volume                     2428.34
_cell_formula_units_Z            4
loop_
_atom_site_label
_atom_site_type_symbol
_atom_site_fract_x
_atom_site_fract_y
_atom_site_fract_z
P1 P 0.27136(7) 0.34829(6) 0.77912(6)
B1 B 0.3522(4) 0.4051(4) 0.6755(3)
H1 H 0.419(3) 0.354(3) 0.667(2)
H2 H 0.286(3) 0.412(3) 0.618(3)
H3 H 0.383(3) 0.476(3) 0.703(3)
N1 N 0.1539(3) 0.5547(2) 0.7085(2)
H4 H 0.212(3) 0.539(3) 0.675(3)
C1 C 0.4779(3) 0.3523(4) 0.8646(3)
H5 H 0.5220 0.3611 0.9192
H6 H 0.5000 0.3980 0.8185
H7 H 0.4885 0.2885 0.8413
C2 C 0.3275(4) 0.3037(3) 0.9716(2)
H8 H 0.3758 0.3196 1.0221
H9 H 0.3374 0.2375 0.9553
H10 H 0.2517 0.3144 0.9895
C3 C 0.3394(4) 0.4729(3) 0.9158(3)
H11 H 0.3807 0.4861 0.9711
H12 H 0.2620 0.4850 0.9267
H13 H 0.3654 0.5136 0.8669
C4 C 0.3556(3) 0.3671(3) 0.8882(2)
C5 C 0.2450(3) 0.2174(3) 0.7549(2)
C6 C 0.1654(3) 0.1673(3) 0.8213(3)
H14 H 0.1569 0.1014 0.8032
H15 H 0.0945 0.1987 0.8194
H16 H 0.1947 0.1703 0.8829
C7 C 0.3561(3) 0.1626(3) 0.7539(3)
H17 H 0.3426 0.0961 0.7409
H18 H 0.3914 0.1685 0.8131
H19 H 0.4036 0.1890 0.7071
C8 C 0.1937(4) 0.2117(3) 0.6582(3)
H20 H 0.1794 0.1459 0.6428
H21 H 0.2443 0.2386 0.6139
H22 H 0.1254 0.2471 0.6572
C9 C 0.1337(2) 0.4017(2) 0.7990(2)
C10 C 0.0818(3) 0.4745(2) 0.7315(2)
H23 H 0.0168 0.5016 0.7628
C11 C 0.0395(3) 0.4300(3) 0.6410(2)
H24 H 0.0076 0.4792 0.6029
H25 H -0.0158 0.3825 0.6546
H26 H 0.1004 0.4006 0.6088
C12 C 0.2746(3) 0.6823(3) 0.7577(3)
H27 H 0.3164 0.6742 0.7042
C13 C 0.3041(4) 0.7512(3) 0.8207(4)
H28 H 0.3668 0.7885 0.8097
C14 C 0.2440(4) 0.7663(3) 0.8986(3)
H29 H 0.2654 0.8129 0.9409
C15 C 0.1509(4) 0.7116(3) 0.9141(3)
H30 H 0.1083 0.7223 0.9667
C16 C 0.1203(3) 0.6411(2) 0.8526(2)
H31 H 0.0574 0.6043 0.8642
C17 C 0.1820(3) 0.6244(2) 0.7738(3)
C18 C 0.0791(3) 0.3793(2) 0.8767(2)
H32 H 0.1155 0.3374 0.9165
C19 C -0.1260(3) 0.3952(3) 0.8559(3)
H33 H -0.1207 0.3627 0.7999
C20 C -0.2271(4) 0.4255(3) 0.8866(4)
H34 H -0.2902 0.4136 0.8514
C21 C -0.2362(4) 0.4736(3) 0.9691(4)
H35 H -0.3054 0.4945 0.9895
C22 C -0.1440(5) 0.4905(3) 1.0212(3)
H36 H -0.1503 0.5235 1.0769
C23 C -0.0411(3) 0.4587(3) 0.9917(2)
H37 H 0.0214 0.4685 1.0283
C24 C -0.0313(3) 0.4123(2) 0.9074(2)
loop_
_geom_bond_atom_site_label_1
_geom_bond_atom_site_label_2
_geom_bond_site_symmetry_1
_geom_bond_site_symmetry_2
P1 B1 1_555 1_555
B1 H1 1_555 1_555
H2 B1 1_555 1_555
H3 B1 1_555 1_555
N1 H4 1_555 1_555
C1 H5 1_555 1_555
H6 C1 1_555 1_555
H7 C1 1_555 1_555
C2 H8 1_555 1_555
H9 C2 1_555 1_555
H10 C2 1_555 1_555
C3 H11 1_555 1_555
H12 C3 1_555 1_555
H13 C3 1_555 1_555
C4 P1 1_555 1_555
C5 P1 1_555 1_555
C6 C5 1_555 1_555
H14 C6 1_555 1_555
H15 C6 1_555 1_555
H16 C6 1_555 1_555
C7 C5 1_555 1_555
H17 C7 1_555 1_555
H18 C7 1_555 1_555
H19 C7 1_555 1_555
C8 C5 1_555 1_555
H20 C8 1_555 1_555
H21 C8 1_555 1_555
H22 C8 1_555 1_555
C9 P1 1_555 1_555
C10 N1 1_555 1_555
H23 C10 1_555 1_555
C11 C10 1_555 1_555
H24 C11 1_555 1_555
H25 C11 1_555 1_555
H26 C11 1_555 1_555
C12 H27 1_555 1_555
C13 C12 1_555 1_555
H28 C13 1_555 1_555
C14 C13 1_555 1_555
H29 C14 1_555 1_555
C15 C14 1_555 1_555
H30 C15 1_555 1_555
C16 C15 1_555 1_555
H31 C16 1_555 1_555
C17 N1 1_555 1_555
C18 C9 1_555 1_555
H32 C18 1_555 1_555
C19 H33 1_555 1_555
C20 C19 1_555 1_555
H34 C20 1_555 1_555
C21 C20 1_555 1_555
H35 C21 1_555 1_555
C22 C21 1_555 1_555
H36 C22 1_555 1_555
C23 C22 1_555 1_555
H37 C23 1_555 1_555
C24 C18 1_555 1_555
C1 C4 1_555 1_555
C2 C4 1_555 1_555
C3 C4 1_555 1_555
C9 C10 1_555 1_555
C12 C17 1_555 1_555
C16 C17 1_555 1_555
C19 C24 1_555 1_555
C23 C24 1_555 1_555

#END
