
#######################################################################
#
#                 Cambridge Crystallographic Data Centre
#                                CCDC 
#
#######################################################################
#
# If this CIF has been generated from an entry in the Cambridge 
# Structural Database, then it will include bibliographic, chemical, 
# crystal, experimental, refinement or atomic coordinate data resulting 
# from the CCDC's data processing and validation procedures.
#
#######################################################################

data_BEVNEY
_chemical_formula_moiety         'C23 H21 B1 Br1 N1'
_chemical_name_systematic        
3-[(4-bromophenyl)methylidene]-2-(2,4,6-trimethylphenyl)-2,3-dihydro-1H-1,2-benzazaborole
_symmetry_cell_setting           monoclinic
_symmetry_space_group_name_H-M   'P 21/n'
_symmetry_Int_Tables_number      14
_space_group_name_Hall           '-P 2yn'
loop_
_symmetry_equiv_pos_site_id
_symmetry_equiv_pos_as_xyz
1 x,y,z
2 1/2-x,1/2+y,1/2-z
3 -x,-y,-z
4 1/2+x,1/2-y,1/2+z
_cell_length_a                   12.4713(7)
_cell_length_b                   10.4714(6)
_cell_length_c                   16.2799(10)
_cell_angle_alpha                90
_cell_angle_beta                 111.268(2)
_cell_angle_gamma                90
_cell_volume                     1981.23
_exptl_crystal_colour            yellow
_exptl_crystal_description       block
_cell_formula_units_Z            4
loop_
_atom_site_label
_atom_site_type_symbol
_atom_site_fract_x
_atom_site_fract_y
_atom_site_fract_z
Br1 Br 0.70209(8) -0.02238(8) 0.37063(6)
B1 B 0.1742(6) 0.4253(7) 0.4590(5)
N1 N 0.1507(5) 0.5482(5) 0.4236(4)
H1 H 0.0968 0.5981 0.4289
C1 C 0.2774(5) 0.3766(5) 0.4324(4)
C2 C 0.3023(6) 0.4853(5) 0.3828(4)
C3 C 0.3796(6) 0.5045(6) 0.3423(5)
H2 H 0.4329 0.4389 0.3436
C4 C 0.3814(6) 0.6180(7) 0.2993(5)
H3 H 0.4367 0.6305 0.2725
C5 C 0.3039(7) 0.7121(7) 0.2954(5)
H4 H 0.3053 0.7894 0.2652
C6 C 0.2236(7) 0.6964(7) 0.3347(5)
H5 H 0.1697 0.7619 0.3319
C7 C 0.2235(6) 0.5828(6) 0.3783(4)
C8 C 0.1142(5) 0.3490(6) 0.5116(4)
C9 C 0.1630(6) 0.3431(7) 0.6038(5)
C10 C 0.1190(8) 0.2588(10) 0.6498(6)
H6 H 0.1514 0.2563 0.7123
C11 C 0.0296(10) 0.1795(9) 0.6055(9)
C12 C -0.0226(7) 0.1887(8) 0.5157(8)
H7 H -0.0873 0.1364 0.4858
C13 C 0.0180(6) 0.2736(7) 0.4678(5)
C14 C -0.0404(7) 0.2859(9) 0.3676(6)
H8 H -0.1089 0.2314 0.3470
H9 H 0.0134 0.2592 0.3394
H10 H -0.0629 0.3750 0.3522
C15 C 0.2658(8) 0.4220(11) 0.6541(5)
H11 H 0.2849 0.4090 0.7175
H12 H 0.2485 0.5124 0.6398
H13 H 0.3312 0.3963 0.6381
C16 C -0.0115(12) 0.0769(11) 0.6565(11)
H14 H -0.0920 0.0552 0.6231
H15 H -0.0046 0.1107 0.7144
H16 H 0.0363 0.0003 0.6644
C17 C 0.3228(8) 0.2636(9) 0.4512(7)
H17 H 0.2879 0.2115 0.4823
C18 C 0.4183(6) 0.2007(7) 0.4334(5)
C19 C 0.3991(6) 0.0806(8) 0.3964(6)
H18 H 0.3269 0.0405 0.3858
C20 C 0.4809(7) 0.0172(7) 0.3744(6)
H19 H 0.4640 -0.0631 0.3454
C21 C 0.5872(5) 0.0710(6) 0.3948(4)
C22 C 0.6125(6) 0.1880(6) 0.4346(5)
H20 H 0.6867 0.2246 0.4482
C23 C 0.5276(7) 0.2524(7) 0.4549(5)
H21 H 0.5447 0.3328 0.4838
loop_
_geom_bond_atom_site_label_1
_geom_bond_atom_site_label_2
_geom_bond_site_symmetry_1
_geom_bond_site_symmetry_2
Br1 C21 1_555 1_555
B1 N1 1_555 1_555
N1 H1 1_555 1_555
C1 B1 1_555 1_555
C2 C1 1_555 1_555
C3 C2 1_555 1_555
H2 C3 1_555 1_555
C4 C3 1_555 1_555
H3 C4 1_555 1_555
C5 C4 1_555 1_555
H4 C5 1_555 1_555
C6 C5 1_555 1_555
H5 C6 1_555 1_555
C7 N1 1_555 1_555
C8 B1 1_555 1_555
C9 C8 1_555 1_555
C10 C9 1_555 1_555
H6 C10 1_555 1_555
C11 C10 1_555 1_555
C12 C11 1_555 1_555
H7 C12 1_555 1_555
C13 C8 1_555 1_555
C14 C13 1_555 1_555
H8 C14 1_555 1_555
H9 C14 1_555 1_555
H10 C14 1_555 1_555
C15 C9 1_555 1_555
H11 C15 1_555 1_555
H12 C15 1_555 1_555
H13 C15 1_555 1_555
C16 C11 1_555 1_555
H14 C16 1_555 1_555
H15 C16 1_555 1_555
H16 C16 1_555 1_555
C17 C1 1_555 1_555
H17 C17 1_555 1_555
C18 C17 1_555 1_555
C19 C18 1_555 1_555
H18 C19 1_555 1_555
C20 C19 1_555 1_555
H19 C20 1_555 1_555
C21 C20 1_555 1_555
C22 C21 1_555 1_555
H20 C22 1_555 1_555
C23 C18 1_555 1_555
H21 C23 1_555 1_555
C2 C7 1_555 1_555
C6 C7 1_555 1_555
C12 C13 1_555 1_555
C22 C23 1_555 1_555

#END
