
#######################################################################
#
#                 Cambridge Crystallographic Data Centre
#                                CCDC 
#
#######################################################################
#
# If this CIF has been generated from an entry in the Cambridge 
# Structural Database, then it will include bibliographic, chemical, 
# crystal, experimental, refinement or atomic coordinate data resulting 
# from the CCDC's data processing and validation procedures.
#
#######################################################################

data_BEVTED
_chemical_name_common            "4'-acetylbenzo-15-crown-5 thiosemicarbazone"
_chemical_formula_moiety         'C17 H25 N3 O5 S1'
_chemical_name_systematic        
2-(1-(2,3,5,6,8,9,11,12-Octahydro-1,4,7,10,13-benzopentaoxacyclopentadecin-15-yl)ethylidene)hydrazinecarbothioamide
_symmetry_cell_setting           triclinic
_symmetry_space_group_name_H-M   'P -1'
_symmetry_Int_Tables_number      2
_space_group_name_Hall           '-P 1'
loop_
_symmetry_equiv_pos_site_id
_symmetry_equiv_pos_as_xyz
1 x,y,z
2 -x,-y,-z
_cell_length_a                   9.5470(19)
_cell_length_b                   13.637(3)
_cell_length_c                   16.029(3)
_cell_angle_alpha                75.33(3)
_cell_angle_beta                 83.62(3)
_cell_angle_gamma                70.99(3)
_cell_volume                     1907.79
_cell_formula_units_Z            4
loop_
_atom_site_label
_atom_site_type_symbol
_atom_site_fract_x
_atom_site_fract_y
_atom_site_fract_z
S1 S -0.29406 0.39151 0.95814
O1 O 0.31345 0.26660 0.51829
O2 O 0.30512 0.16095 0.39359
O3 O 0.49926 0.19729 0.25187
O4 O 0.47806 0.40706 0.25717
O5 O 0.41200 0.41880 0.43112
N1 N -0.04563 0.27297 0.89379
N2 N -0.15774 0.43597 0.80966
N3 N -0.04665 0.41714 0.74648
C1 C -0.15709 0.36256 0.88418
C2 C -0.03212 0.49968 0.69135
C3 C -0.12317 0.61116 0.69449
C4 C 0.08287 0.48254 0.62187
C5 C 0.13638 0.56333 0.57340
C6 C 0.24587 0.54528 0.50944
C7 C 0.30368 0.44601 0.49232
C8 C 0.25079 0.36308 0.53986
C9 C 0.14315 0.38153 0.60336
C10 C 0.22402 0.19798 0.52999
C11 C 0.29548 0.11345 0.48173
C12 C 0.36851 0.08747 0.34096
C13 C 0.39011 0.14889 0.25186
C14 C 0.50551 0.27883 0.17738
C15 C 0.57578 0.35055 0.19948
C16 C 0.54888 0.45485 0.30150
C17 C 0.44161 0.50339 0.36627
S2 S 0.10548 0.90687 0.62720
O6 O 0.76218 0.81270 0.21611
O7 O 0.79998 0.95324 0.05771
O8 O 0.97010 0.89512 -0.08546
O9 O 0.84327 0.73268 -0.07430
O10 O 0.72686 0.71299 0.09963
N4 N 0.37976 0.81308 0.57718
N5 N 0.20084 0.85797 0.47904
N6 N 0.31103 0.82962 0.41734
C18 C 0.23879 0.85647 0.55817
C19 C 0.26945 0.81932 0.34781
C20 C 0.11316 0.82950 0.33146
C21 C 0.38599 0.79419 0.28049
C22 C 0.35790 0.74838 0.21664
C23 C 0.47876 0.71946 0.15665
C24 C 0.61102 0.73988 0.15625
C25 C 0.62944 0.79108 0.21773
C26 C 0.52049 0.81538 0.27926
C27 C 0.75041 0.92139 0.20729
C28 C 0.69957 0.98849 0.12026
C29 C 0.76627 1.01238 -0.02614
C30 C 0.89078 0.99446 -0.08751
C31 C 0.98076 0.84354 -0.15217
C32 C 0.98167 0.73347 -0.11646
C33 C 0.84531 0.63592 -0.01671
C34 C 0.71021 0.65459 0.04054
C35? C 0.79860 0.96077 -0.08752
loop_
_geom_bond_atom_site_label_1
_geom_bond_atom_site_label_2
_geom_bond_site_symmetry_1
_geom_bond_site_symmetry_2
S1 C1 1_555 1_555
O1 C8 1_555 1_555
O2 C11 1_555 1_555
O3 C13 1_555 1_555
O4 C15 1_555 1_555
O5 C7 1_555 1_555
N1 C1 1_555 1_555
N2 N3 1_555 1_555
N3 C2 1_555 1_555
C1 N2 1_555 1_555
C2 C3 1_555 1_555
C4 C2 1_555 1_555
C5 C4 1_555 1_555
C6 C5 1_555 1_555
C7 C6 1_555 1_555
C8 C7 1_555 1_555
C9 C4 1_555 1_555
C10 O1 1_555 1_555
C11 C10 1_555 1_555
C12 O2 1_555 1_555
C13 C12 1_555 1_555
C14 O3 1_555 1_555
C15 C14 1_555 1_555
C16 O4 1_555 1_555
C17 O5 1_555 1_555
S2 C18 1_555 1_555
O6 C25 1_555 1_555
O7 C28 1_555 1_555
O8 C30 1_555 1_555
O9 C32 1_555 1_555
O10 C24 1_555 1_555
N4 C18 1_555 1_555
N5 N6 1_555 1_555
N6 C19 1_555 1_555
C18 N5 1_555 1_555
C19 C20 1_555 1_555
C21 C19 1_555 1_555
C22 C21 1_555 1_555
C23 C22 1_555 1_555
C24 C23 1_555 1_555
C25 C24 1_555 1_555
C26 C21 1_555 1_555
C27 O6 1_555 1_555
C28 C27 1_555 1_555
C29 O7 1_555 1_555
C30 C29 1_555 1_555
C31 O8 1_555 1_555
C32 C31 1_555 1_555
C33 O9 1_555 1_555
C34 O10 1_555 1_555
C8 C9 1_555 1_555
C16 C17 1_555 1_555
C25 C26 1_555 1_555
C33 C34 1_555 1_555

#END
