
#######################################################################
#
#                 Cambridge Crystallographic Data Centre
#                                CCDC 
#
#######################################################################
#
# If this CIF has been generated from an entry in the Cambridge 
# Structural Database, then it will include bibliographic, chemical, 
# crystal, experimental, refinement or atomic coordinate data resulting 
# from the CCDC's data processing and validation procedures.
#
#######################################################################

data_BEWLUL01
_chemical_formula_moiety         'C18 H16 N2 O2 Se2'
_chemical_name_systematic        
2,2'-(Diselane-1,2-diyldi-2,1-phenylene)bis(4,5-dihydro-1,3-oxazole)
_symmetry_cell_setting           triclinic
_symmetry_space_group_name_H-M   'P -1'
_symmetry_Int_Tables_number      2
_space_group_name_Hall           '-P 1'
loop_
_symmetry_equiv_pos_site_id
_symmetry_equiv_pos_as_xyz
1 x,y,z
2 -x,-y,-z
_cell_length_a                   7.8431(5)
_cell_length_b                   9.7684(6)
_cell_length_c                   11.1655(7)
_cell_angle_alpha                77.538(3)
_cell_angle_beta                 78.122(3)
_cell_angle_gamma                82.812(3)
_cell_volume                     814.479
_exptl_crystal_colour            colorless
_exptl_crystal_description       plate
_cell_formula_units_Z            2
loop_
_atom_site_label
_atom_site_type_symbol
_atom_site_fract_x
_atom_site_fract_y
_atom_site_fract_z
C1 C 0.7003(4) 0.6679(3) 0.9429(3)
C2 C 0.7186(4) 0.5300(3) 1.0131(3)
C3 C 0.6295(4) 0.4998(4) 1.1367(3)
H1 H 0.6425 0.4092 1.1834
C4 C 0.5220(4) 0.6027(4) 1.1904(3)
H2 H 0.4619 0.5812 1.2722
C5 C 0.5052(4) 0.7383(4) 1.1209(3)
H3 H 0.4340 0.8079 1.1567
C6 C 0.5934(4) 0.7707(3) 0.9986(3)
H4 H 0.5812 0.8620 0.9533
C7 C 0.8272(4) 0.4165(3) 0.9598(3)
C8 C 0.9420(5) 0.1931(3) 0.9662(3)
H5 H 0.8723 0.1206 0.9599
H6 H 1.0422 0.1489 1.0027
C9 C 1.0002(5) 0.2859(3) 0.8378(3)
H7 H 1.1258 0.2913 0.8201
H8 H 0.9673 0.2493 0.7724
C10 C 0.5576(4) 1.0005(3) 0.6790(3)
C11 C 0.4276(4) 0.9072(3) 0.7268(3)
H9 H 0.4515 0.8232 0.7806
C12 C 0.2628(4) 0.9386(3) 0.6948(3)
H10 H 0.1771 0.8761 0.7285
C13 C 0.2251(4) 1.0628(3) 0.6127(3)
H11 H 0.1156 1.0829 0.5902
C14 C 0.3538(4) 1.1562(3) 0.5649(3)
H12 H 0.3299 1.2388 0.5093
C15 C 0.5188(4) 1.1281(3) 0.5989(3)
C16 C 0.6470(4) 1.2336(3) 0.5524(3)
C17 C 0.7591(5) 1.4286(3) 0.4304(3)
H13 H 0.7211 1.5260 0.4351
H14 H 0.8246 1.4246 0.3473
C18 C 0.8698(4) 1.3619(3) 0.5297(3)
H15 H 0.9898 1.3392 0.4914
H16 H 0.8689 1.4247 0.5863
N1 N 0.9068(4) 0.4253(3) 0.8480(3)
N2 N 0.7850(4) 1.2330(3) 0.5961(2)
O1 O 0.8388(4) 0.2905(2) 1.0397(2)
O2 O 0.6097(3) 1.3433(2) 0.46071(19)
Se1 Se 0.78830(4) 0.95514(3) 0.72009(3)
Se2 Se 0.81378(4) 0.70900(3) 0.77027(3)
loop_
_geom_bond_atom_site_label_1
_geom_bond_atom_site_label_2
_geom_bond_site_symmetry_1
_geom_bond_site_symmetry_2
C1 C2 1_555 1_555
C2 C3 1_555 1_555
C3 H1 1_555 1_555
C4 C3 1_555 1_555
H2 C4 1_555 1_555
C5 C4 1_555 1_555
H3 C5 1_555 1_555
C6 C1 1_555 1_555
H4 C6 1_555 1_555
C7 C2 1_555 1_555
C8 H5 1_555 1_555
H6 C8 1_555 1_555
C9 C8 1_555 1_555
H7 C9 1_555 1_555
H8 C9 1_555 1_555
C10 C11 1_555 1_555
C11 H9 1_555 1_555
C12 C11 1_555 1_555
H10 C12 1_555 1_555
C13 C12 1_555 1_555
H11 C13 1_555 1_555
C14 C13 1_555 1_555
H12 C14 1_555 1_555
C15 C10 1_555 1_555
C16 C15 1_555 1_555
C17 H13 1_555 1_555
H14 C17 1_555 1_555
C18 C17 1_555 1_555
H15 C18 1_555 1_555
H16 C18 1_555 1_555
N1 C7 1_555 1_555
N2 C16 1_555 1_555
O1 C7 1_555 1_555
O2 C16 1_555 1_555
Se1 C10 1_555 1_555
Se2 C1 1_555 1_555
C5 C6 1_555 1_555
C8 O1 1_555 1_555
C9 N1 1_555 1_555
C14 C15 1_555 1_555
C17 O2 1_555 1_555
C18 N2 1_555 1_555
Se1 Se2 1_555 1_555

#END
