
#######################################################################
#
#                 Cambridge Crystallographic Data Centre
#                                CCDC 
#
#######################################################################
#
# If this CIF has been generated from an entry in the Cambridge 
# Structural Database, then it will include bibliographic, chemical, 
# crystal, experimental, refinement or atomic coordinate data resulting 
# from the CCDC's data processing and validation procedures.
#
#######################################################################

data_BEXDIU
_chemical_formula_moiety         'C17 H14 N2 O4 S1'
_chemical_name_systematic        
'2-(nitromethylidene)-3,4-diphenyl-1,3-thiazolidine-5-carboxylic acid'
_symmetry_cell_setting           monoclinic
_symmetry_space_group_name_H-M   'P 21/c'
_symmetry_Int_Tables_number      14
_space_group_name_Hall           '-P 2ybc'
loop_
_symmetry_equiv_pos_site_id
_symmetry_equiv_pos_as_xyz
1 x,y,z
2 -x,1/2+y,1/2-z
3 -x,-y,-z
4 x,1/2-y,1/2+z
_cell_length_a                   7.6656(16)
_cell_length_b                   19.475(4)
_cell_length_c                   10.707(2)
_cell_angle_alpha                90
_cell_angle_beta                 93.755(4)
_cell_angle_gamma                90
_cell_volume                     1594.99
_exptl_crystal_colour            colorless
_exptl_crystal_description       prismatic
_cell_formula_units_Z            4
loop_
_atom_site_label
_atom_site_type_symbol
_atom_site_fract_x
_atom_site_fract_y
_atom_site_fract_z
S1 S 0.22229(8) 0.32716(4) 0.70747(6)
N1 N 0.4827(2) 0.35733(10) 0.57864(17)
N2 N 0.2743(3) 0.18936(13) 0.5697(2)
O1 O 0.2019(2) 0.46988(10) 0.50879(17)
O2 O 0.0209(2) 0.47017(12) 0.66274(18)
H1 H -0.0442 0.4900 0.6106
O3 O 0.1630(3) 0.19840(12) 0.6470(2)
O4 O 0.2935(3) 0.13335(11) 0.5190(3)
C1 C 0.2923(3) 0.41737(13) 0.7045(2)
H2 H 0.2903 0.4374 0.7883
C2 C 0.4784(3) 0.41607(12) 0.6634(2)
H3 H 0.4993 0.4581 0.6163
C3 C 0.3724(3) 0.30536(13) 0.5995(2)
C4 C 0.3830(3) 0.24291(13) 0.5431(2)
H4 H 0.4662 0.2363 0.4849
C5 C 0.1678(3) 0.45576(13) 0.6141(2)
C6 C 0.6123(3) 0.41176(12) 0.7739(2)
C7 C 0.6576(3) 0.47164(13) 0.8367(2)
H5 H 0.6066 0.5129 0.8103
C8 C 0.7775(4) 0.47094(16) 0.9382(3)
H6 H 0.8057 0.5114 0.9809
C9 C 0.8546(4) 0.41099(17) 0.9758(3)
H7 H 0.9380 0.4107 1.0429
C10 C 0.8102(3) 0.35140(15) 0.9157(3)
H8 H 0.8625 0.3104 0.9427
C11 C 0.6876(3) 0.35124(13) 0.8147(2)
H9 H 0.6566 0.3102 0.7747
C12 C 0.6009(3) 0.35509(11) 0.4804(2)
C13 C 0.7755(3) 0.34081(15) 0.5059(3)
H10 H 0.8195 0.3327 0.5876
C14 C 0.8840(4) 0.33874(17) 0.4084(3)
H11 H 1.0021 0.3291 0.4248
C15 C 0.8212(4) 0.35058(16) 0.2885(3)
H12 H 0.8959 0.3490 0.2236
C16 C 0.6468(4) 0.36490(17) 0.2639(3)
H13 H 0.6032 0.3731 0.1821
C17 C 0.5367(3) 0.36710(14) 0.3602(2)
H14 H 0.4186 0.3767 0.3435
loop_
_geom_bond_atom_site_label_1
_geom_bond_atom_site_label_2
_geom_bond_site_symmetry_1
_geom_bond_site_symmetry_2
S1 C1 1_555 1_555
N1 C2 1_555 1_555
N2 O3 1_555 1_555
O1 C5 1_555 1_555
O2 H1 1_555 1_555
O4 N2 1_555 1_555
C1 H2 1_555 1_555
C2 C1 1_555 1_555
H3 C2 1_555 1_555
C3 S1 1_555 1_555
C4 N2 1_555 1_555
H4 C4 1_555 1_555
C5 O2 1_555 1_555
C6 C2 1_555 1_555
C7 C6 1_555 1_555
H5 C7 1_555 1_555
C8 C7 1_555 1_555
H6 C8 1_555 1_555
C9 C8 1_555 1_555
H7 C9 1_555 1_555
C10 C9 1_555 1_555
H8 C10 1_555 1_555
C11 C6 1_555 1_555
H9 C11 1_555 1_555
C12 N1 1_555 1_555
C13 C12 1_555 1_555
H10 C13 1_555 1_555
C14 C13 1_555 1_555
H11 C14 1_555 1_555
C15 C14 1_555 1_555
H12 C15 1_555 1_555
C16 C15 1_555 1_555
H13 C16 1_555 1_555
C17 C12 1_555 1_555
H14 C17 1_555 1_555
N1 C3 1_555 1_555
C1 C5 1_555 1_555
C3 C4 1_555 1_555
C10 C11 1_555 1_555
C16 C17 1_555 1_555

#END
