
#######################################################################
#
#                 Cambridge Crystallographic Data Centre
#                                CCDC 
#
#######################################################################
#
# If this CIF has been generated from an entry in the Cambridge 
# Structural Database, then it will include bibliographic, chemical, 
# crystal, experimental, refinement or atomic coordinate data resulting 
# from the CCDC's data processing and validation procedures.
#
#######################################################################

data_BEXMUM
_chemical_formula_moiety         'C48 H68 N4 O8'
_chemical_name_systematic        
bis(2,6-((\m~2~-1,10-Diaza-4,7,13,16-tetraoxacyclo-octadeca-1,10-diyl)-methyl)-naphthalene)
_symmetry_cell_setting           monoclinic
_symmetry_space_group_name_H-M   'P 21/n'
_symmetry_Int_Tables_number      14
_space_group_name_Hall           '-P 2yn'
loop_
_symmetry_equiv_pos_site_id
_symmetry_equiv_pos_as_xyz
1 x,y,z
2 1/2-x,1/2+y,1/2-z
3 -x,-y,-z
4 1/2+x,1/2-y,1/2+z
_cell_length_a                   19.140(4)
_cell_length_b                   10.375(1)
_cell_length_c                   11.494(1)
_cell_angle_alpha                90
_cell_angle_beta                 94.00(2)
_cell_angle_gamma                90
_cell_volume                     2276.89
_cell_formula_units_Z            2
loop_
_atom_site_label
_atom_site_type_symbol
_atom_site_fract_x
_atom_site_fract_y
_atom_site_fract_z
O1 O 0.78850 0.20710 0.44750
O2 O 0.73560 0.36140 0.63800
O3 O 0.60530 0.00200 0.67030
O4 O 0.64020 -0.22570 0.51270
N1 N 0.72190 -0.03960 0.36790
N2 N 0.59020 0.35020 0.72010
C1 C 0.77930 0.02780 0.31640
C2 C 0.82570 0.10030 0.40440
C3 C 0.82870 0.27550 0.53490
C4 C 0.78980 0.39510 0.56550
C5 C 0.69640 0.47160 0.66760
C6 C 0.64580 0.44050 0.75680
C7 C 0.61630 0.21650 0.73480
C8 C 0.57070 0.12370 0.66530
C9 C 0.56270 -0.09320 0.61930
C10 C 0.59860 -0.21900 0.61020
C11 C 0.70890 -0.18440 0.54020
C12 C 0.74520 -0.16090 0.42520
C13 C 0.52930 0.36940 0.78960
C14 C 0.49080 0.49340 0.75930
C15 C 0.48870 0.59320 0.83670
C16 C 0.45180 0.70820 0.80960
C17 C 0.45040 0.81340 0.88690
C18 C 0.41380 0.92220 0.85690
C19 C 0.37600 0.93500 0.74740
C20 C 0.37680 0.83320 0.67080
C21 C 0.41500 0.71950 0.69860
C22 C 0.41780 0.61540 0.61870
C23 C 0.45440 0.50680 0.64820
C24 C 0.66260 -0.05890 0.28380
H1 H 0.80800 -0.03600 0.27700
H2 H 0.84000 0.04100 0.47000
H3 H 0.86800 0.13200 0.36600
H4 H 0.75800 0.09000 0.25700
H5 H 0.87800 0.30700 0.50000
H6 H 0.83100 0.20600 0.61000
H7 H 0.76900 0.43600 0.49200
H8 H 0.82200 0.45600 0.60700
H9 H 0.72900 0.53900 0.69900
H10 H 0.66900 0.50400 0.59500
H11 H 0.62300 0.52200 0.77900
H12 H 0.67200 0.40200 0.82600
H13 H 0.66700 0.20100 0.70900
H14 H 0.61600 0.18400 0.83200
H15 H 0.52200 0.11300 0.71300
H16 H 0.56100 0.15700 0.57000
H17 H 0.54500 -0.06400 0.53900
H18 H 0.52100 -0.10500 0.66700
H19 H 0.62900 -0.23300 0.68200
H20 H 0.56200 -0.28800 0.60200
H21 H 0.73500 -0.25100 0.58700
H22 H 0.70800 -0.10200 0.58600
H23 H 0.79700 -0.15700 0.44300
H24 H 0.73300 -0.23400 0.37000
H25 H 0.49600 0.29500 0.77500
H26 H 0.54500 0.37100 0.87400
H27 H 0.51400 0.58400 0.91500
H28 H 0.47600 0.80800 0.96500
H29 H 0.41300 0.99500 0.91300
H30 H 0.34900 0.83900 0.59300
H31 H 0.39200 0.62200 0.53900
H32 H 0.45500 0.43400 0.59000
H33 H 0.62900 -0.12000 0.31700
H34 H 0.67900 -0.09600 0.21100
C24B C 0.33740 1.05890 0.71620
C19B C 0.62400 0.06500 0.25260
N1B N 0.27810 1.03960 0.63210
H33B H 0.37100 1.12000 0.68300
H34B H 0.32100 1.09600 0.78900
C18B C 0.58620 0.07780 0.14310
C20B C 0.62320 0.16680 0.32920
C1B C 0.22070 0.97220 0.68360
C12B C 0.25480 1.16090 0.57480
C17B C 0.54960 0.18660 0.11310
H29B H 0.58700 0.00500 0.08700
C21B C 0.58500 0.28050 0.30140
H30B H 0.65100 0.16100 0.40700
C2B C 0.17430 0.89970 0.59560
H1B H 0.19200 1.03600 0.72300
H4B H 0.24200 0.91000 0.74300
C11B C 0.29110 1.18440 0.45980
H23B H 0.20300 1.15700 0.55700
H24B H 0.26700 1.23400 0.63000
C16B C 0.54820 0.29180 0.19040
H28B H 0.52400 0.19200 0.03500
C22B C 0.58220 0.38460 0.38130
O1B O 0.21150 0.79290 0.55250
H2B H 0.16000 0.95900 0.53000
H3B H 0.13200 0.86800 0.63400
O4B O 0.35980 1.22570 0.48730
H21B H 0.26500 1.25100 0.41300
H22B H 0.29200 1.10200 0.41400
C15B C 0.51130 0.40680 0.16330
C23B C 0.54560 0.49320 0.35180
H31B H 0.60800 0.37800 0.46100
C3B C 0.17130 0.72450 0.46510
C10B C 0.40140 1.21900 0.38980
C14B C 0.50920 0.50660 0.24070
H27B H 0.48600 0.41600 0.08500
H32B H 0.54500 0.56600 0.41000
C4B C 0.21020 0.60490 0.43450
H5B H 0.12200 0.69300 0.50000
H6B H 0.16900 0.79400 0.39000
C9B C 0.43730 1.09320 0.38070
H19B H 0.37100 1.23300 0.31800
H20B H 0.43800 1.28800 0.39800
C13B C 0.47070 0.63060 0.21040
O2B O 0.26440 0.63860 0.36200
H7B H 0.23100 0.56400 0.50800
H8B H 0.17800 0.54400 0.39300
O3B O 0.39470 0.99800 0.32970
H17B H 0.45500 1.06400 0.46100
H18B H 0.47900 1.10500 0.33300
N2B N 0.40980 0.64980 0.27990
H25B H 0.50400 0.70500 0.22500
H26B H 0.45500 0.62900 0.12600
C5B C 0.30360 0.52840 0.33240
C8B C 0.42930 0.87630 0.33470
C6B C 0.35420 0.55950 0.24320
C7B C 0.38370 0.78350 0.26520
H9B H 0.27100 0.46100 0.30100
H10B H 0.33100 0.49600 0.40500
H15B H 0.47800 0.88700 0.28700
H16B H 0.43900 0.84300 0.43000
H11B H 0.37700 0.47800 0.22100
H12B H 0.32800 0.59800 0.17400
H13B H 0.33300 0.79900 0.29100
H14B H 0.38400 0.81600 0.16800
loop_
_geom_bond_atom_site_label_1
_geom_bond_atom_site_label_2
_geom_bond_site_symmetry_1
_geom_bond_site_symmetry_2
O1 C2 1_555 1_555
O2 C4 1_555 1_555
O3 C8 1_555 1_555
O4 C10 1_555 1_555
N1 C1 1_555 1_555
N2 C6 1_555 1_555
C1 C2 1_555 1_555
C2 H2 1_555 1_555
C3 O1 1_555 1_555
C4 C3 1_555 1_555
C5 O2 1_555 1_555
C6 C5 1_555 1_555
C7 N2 1_555 1_555
C8 C7 1_555 1_555
C9 O3 1_555 1_555
C10 C9 1_555 1_555
C11 O4 1_555 1_555
C12 N1 1_555 1_555
C13 N2 1_555 1_555
C14 C13 1_555 1_555
C15 C14 1_555 1_555
C16 C15 1_555 1_555
C17 C16 1_555 1_555
C18 C17 1_555 1_555
C19 C18 1_555 1_555
C20 C19 1_555 1_555
C21 C16 1_555 1_555
C22 C21 1_555 1_555
C23 C14 1_555 1_555
C24 N1 1_555 1_555
H1 C1 1_555 1_555
H3 C2 1_555 1_555
H4 C1 1_555 1_555
H5 C3 1_555 1_555
H6 C3 1_555 1_555
H7 C4 1_555 1_555
H8 C4 1_555 1_555
H9 C5 1_555 1_555
H10 C5 1_555 1_555
H11 C6 1_555 1_555
H12 C6 1_555 1_555
H13 C7 1_555 1_555
H14 C7 1_555 1_555
H15 C8 1_555 1_555
H16 C8 1_555 1_555
H17 C9 1_555 1_555
H18 C9 1_555 1_555
H19 C10 1_555 1_555
H20 C10 1_555 1_555
H21 C11 1_555 1_555
H22 C11 1_555 1_555
H23 C12 1_555 1_555
H24 C12 1_555 1_555
H25 C13 1_555 1_555
H26 C13 1_555 1_555
H27 C15 1_555 1_555
H28 C17 1_555 1_555
H29 C18 1_555 1_555
H30 C20 1_555 1_555
H31 C22 1_555 1_555
H32 C23 1_555 1_555
H33 C24 1_555 1_555
H34 C24 1_555 1_555
C24B C19 1_555 1_555
C19B C24 1_555 1_555
N1B C24B 1_555 1_555
H33B C24B 1_555 1_555
H34B C24B 1_555 1_555
C18B C19B 1_555 1_555
C20B C19B 1_555 1_555
C1B N1B 1_555 1_555
C12B N1B 1_555 1_555
C17B C18B 1_555 1_555
H29B C18B 1_555 1_555
C21B C20B 1_555 1_555
H30B C20B 1_555 1_555
C2B C1B 1_555 1_555
H1B C1B 1_555 1_555
H4B C1B 1_555 1_555
C11B C12B 1_555 1_555
H23B C12B 1_555 1_555
H24B C12B 1_555 1_555
C16B C17B 1_555 1_555
H28B C17B 1_555 1_555
C22B C21B 1_555 1_555
O1B C2B 1_555 1_555
H2B C2B 1_555 1_555
H3B C2B 1_555 1_555
O4B C11B 1_555 1_555
H21B C11B 1_555 1_555
H22B C11B 1_555 1_555
C15B C16B 1_555 1_555
C23B C22B 1_555 1_555
H31B C22B 1_555 1_555
C3B O1B 1_555 1_555
C10B O4B 1_555 1_555
C14B C15B 1_555 1_555
H27B C15B 1_555 1_555
H32B C23B 1_555 1_555
C4B C3B 1_555 1_555
H5B C3B 1_555 1_555
H6B C3B 1_555 1_555
C9B C10B 1_555 1_555
H19B C10B 1_555 1_555
H20B C10B 1_555 1_555
C13B C14B 1_555 1_555
O2B C4B 1_555 1_555
H7B C4B 1_555 1_555
H8B C4B 1_555 1_555
O3B C9B 1_555 1_555
H17B C9B 1_555 1_555
H18B C9B 1_555 1_555
N2B C13B 1_555 1_555
H25B C13B 1_555 1_555
H26B C13B 1_555 1_555
C5B O2B 1_555 1_555
C8B O3B 1_555 1_555
C6B N2B 1_555 1_555
C7B N2B 1_555 1_555
H9B C5B 1_555 1_555
H10B C5B 1_555 1_555
H15B C8B 1_555 1_555
H16B C8B 1_555 1_555
H11B C6B 1_555 1_555
H12B C6B 1_555 1_555
H13B C7B 1_555 1_555
H14B C7B 1_555 1_555
C11 C12 1_555 1_555
C20 C21 1_555 1_555
C22 C23 1_555 1_555
C21B C16B 1_555 1_555
C23B C14B 1_555 1_555
C5B C6B 1_555 1_555
C8B C7B 1_555 1_555

#END
