
#######################################################################
#
#                 Cambridge Crystallographic Data Centre
#                                CCDC 
#
#######################################################################
#
# If this CIF has been generated from an entry in the Cambridge 
# Structural Database, then it will include bibliographic, chemical, 
# crystal, experimental, refinement or atomic coordinate data resulting 
# from the CCDC's data processing and validation procedures.
#
#######################################################################

data_BEXPUQ
_chemical_formula_moiety         'C5 H7 N2 1+,C7 H6 N1 O2 1-'
_chemical_name_systematic        '2-Aminopyridinium 3-aminobenzoate'
_symmetry_cell_setting           monoclinic
_symmetry_space_group_name_H-M   'P 21/c'
_symmetry_Int_Tables_number      14
_space_group_name_Hall           '-P 2ybc'
loop_
_symmetry_equiv_pos_site_id
_symmetry_equiv_pos_as_xyz
1 x,y,z
2 x,1/2-y,1/2+z
3 -x,-y,-z
4 -x,1/2+y,1/2-z
_cell_length_a                   9.6455(5)
_cell_length_b                   10.9229(7)
_cell_length_c                   11.9761(15)
_cell_angle_alpha                90
_cell_angle_beta                 112.932(7)
_cell_angle_gamma                90
_cell_volume                     1162.04
_exptl_crystal_colour            'deep brown'
_exptl_crystal_description       plates
_chemical_melting_point          '146-148 deg.C'
_cell_formula_units_Z            4
loop_
_atom_site_label
_atom_site_type_symbol
_atom_site_fract_x
_atom_site_fract_y
_atom_site_fract_z
C1 C 0.20611(17) -0.08602(14) 0.56034(13)
C2 C 0.28811(16) 0.02338(13) 0.63327(12)
C3 C 0.38342(17) 0.09075(14) 0.59441(13)
C4 C 0.46184(16) 0.19230(14) 0.65923(14)
C5 C 0.44335(19) 0.22410(17) 0.76556(16)
C6 C 0.3502(2) 0.15698(18) 0.80463(16)
C7 C 0.2704(2) 0.05764(16) 0.73889(14)
N1 N 0.55350(18) 0.26095(17) 0.61804(17)
O1 O 0.23623(14) -0.11756(11) 0.47200(10)
O2 O 0.11162(14) -0.14054(11) 0.59202(10)
H1 H 0.611(3) 0.321(2) 0.670(2)
H2 H 0.593(2) 0.2234(19) 0.573(2)
H4 H 0.3950(18) 0.0664(15) 0.5230(16)
H7 H 0.500(2) 0.2961(17) 0.8123(17)
H8 H 0.338(2) 0.1799(18) 0.879(2)
H9 H 0.203(2) 0.0107(16) 0.7645(16)
C8 C 0.03940(17) 0.34745(15) 0.66535(14)
C9 C 0.1265(2) 0.44670(17) 0.73076(18)
C10 C 0.2183(2) 0.5064(2) 0.6871(2)
C11 C 0.2289(2) 0.4703(2) 0.5784(2)
C12 C 0.1444(2) 0.37490(17) 0.51779(18)
N2 N 0.05223(15) 0.31511(13) 0.56055(12)
N3 N -0.05418(18) 0.28448(16) 0.70035(15)
H3 H -0.007(2) 0.2484(19) 0.514(2)
H5 H -0.075(2) 0.3121(19) 0.762(2)
H6 H -0.116(2) 0.2234(19) 0.6467(19)
H10 H 0.118(2) 0.4697(19) 0.807(2)
H11 H 0.280(3) 0.573(2) 0.737(2)
H12 H 0.296(2) 0.510(2) 0.5499(18)
H13 H 0.147(2) 0.3420(17) 0.4439(18)
loop_
_geom_bond_atom_site_label_1
_geom_bond_atom_site_label_2
_geom_bond_site_symmetry_1
_geom_bond_site_symmetry_2
C1 C2 1_555 1_555
C2 C3 1_555 1_555
C3 C4 1_555 1_555
C4 C5 1_555 1_555
C5 C6 1_555 1_555
C6 C7 1_555 1_555
C7 C2 1_555 1_555
C8 C9 1_555 1_555
C9 C10 1_555 1_555
C10 C11 1_555 1_555
C11 C12 1_555 1_555
C12 N2 1_555 1_555
N1 C4 1_555 1_555
N2 C8 1_555 1_555
N3 C8 1_555 1_555
O1 C1 1_555 1_555
O2 C1 1_555 1_555
H1 N1 1_555 1_555
H2 N1 1_555 1_555
H3 N2 1_555 1_555
H4 C3 1_555 1_555
H5 N3 1_555 1_555
H6 N3 1_555 1_555
H7 C5 1_555 1_555
H8 C6 1_555 1_555
H9 C7 1_555 1_555
H10 C9 1_555 1_555
H11 C10 1_555 1_555
H12 C11 1_555 1_555
H13 C12 1_555 1_555

#END
