
#######################################################################
#
#                 Cambridge Crystallographic Data Centre
#                                CCDC 
#
#######################################################################
#
# If this CIF has been generated from an entry in the Cambridge 
# Structural Database, then it will include bibliographic, chemical, 
# crystal, experimental, refinement or atomic coordinate data resulting 
# from the CCDC's data processing and validation procedures.
#
#######################################################################

data_BEYPUR
_chemical_formula_moiety         'C10 H10 N4 O1'
_chemical_name_systematic        2-(Acetamido)-7-amino-1,8-naphthyridine
_symmetry_cell_setting           orthorhombic
_symmetry_space_group_name_H-M   'F d d 2'
_symmetry_Int_Tables_number      43
_space_group_name_Hall           'F 2 -2d'
loop_
_symmetry_equiv_pos_site_id
_symmetry_equiv_pos_as_xyz
1 x,y,z
2 -x,-y,z
3 1/4-x,1/4+y,1/4+z
4 3/4+x,3/4-y,1/4+z
5 x,1/2+y,1/2+z
6 -x,1/2-y,1/2+z
7 1/4-x,3/4+y,3/4+z
8 3/4+x,1/4-y,3/4+z
9 1/2+x,y,1/2+z
10 1/2-x,-y,1/2+z
11 3/4-x,1/4+y,3/4+z
12 1/4+x,3/4-y,3/4+z
13 1/2+x,1/2+y,z
14 1/2-x,1/2-y,z
15 3/4-x,3/4+y,1/4+z
16 1/4+x,1/4-y,1/4+z
_cell_length_a                   19.001(3)
_cell_length_b                   25.829(8)
_cell_length_c                   7.844(2)
_cell_angle_alpha                90
_cell_angle_beta                 90
_cell_angle_gamma                90
_cell_volume                     3849.65
_exptl_crystal_colour            colorless
_exptl_crystal_description       needle
_chemical_melting_point          '261-263 deg.C'
_cell_formula_units_Z            16
loop_
_atom_site_label
_atom_site_type_symbol
_atom_site_fract_x
_atom_site_fract_y
_atom_site_fract_z
N1 N 0.02441(19) 0.19096(12) 0.2541(4)
C1 C -0.0010(4) 0.10878(11) 0.1213(6)
C2 C 0.0498(3) 0.16476(18) 0.3879(5)
N2 N -0.02820(18) 0.19240(13) -0.0096(4)
N3 N -0.0795(2) 0.19521(18) -0.2761(5)
C3 C -0.0018(4) 0.16337(11) 0.1208(6)
C4 C -0.0562(3) 0.11198(19) -0.1527(6)
H1 H -0.0754 0.0955 -0.2473
C5 C 0.0524(3) 0.11109(18) 0.3967(5)
H2 H 0.0710 0.0945 0.4918
O1 O 0.11980(17) 0.13983(12) 0.7078(4)
C6 C 0.0269(3) 0.08327(17) 0.2619(6)
H3 H 0.0283 0.0473 0.2642
N4 N 0.0736(2) 0.19774(15) 0.5187(4)
H4 H 0.0673 0.2304 0.5029
C7 C -0.0309(3) 0.08458(17) -0.0239(6)
H5 H -0.0328 0.0486 -0.0288
C8 C 0.1054(3) 0.18394(19) 0.6673(5)
C9 C -0.0537(3) 0.16743(17) -0.1445(5)
C10 C 0.1247(2) 0.22980(16) 0.7785(5)
H6 H 0.1091 0.2612 0.7249
H7 H 0.1748 0.2309 0.7935
H8 H 0.1023 0.2263 0.8877
H9 H -0.058(3) 0.229(2) -0.290(6)
H10 H -0.099(4) 0.179(2) -0.366(7)
loop_
_geom_bond_atom_site_label_1
_geom_bond_atom_site_label_2
_geom_bond_site_symmetry_1
_geom_bond_site_symmetry_2
N1 C2 1_555 1_555
C1 C3 1_555 1_555
C2 C5 1_555 1_555
N2 C3 1_555 1_555
N3 C9 1_555 1_555
C3 N1 1_555 1_555
C4 H1 1_555 1_555
C5 H2 1_555 1_555
O1 C8 1_555 1_555
C6 C1 1_555 1_555
H3 C6 1_555 1_555
N4 C2 1_555 1_555
H4 N4 1_555 1_555
C7 C1 1_555 1_555
H5 C7 1_555 1_555
C8 N4 1_555 1_555
C9 N2 1_555 1_555
C10 C8 1_555 1_555
H6 C10 1_555 1_555
H7 C10 1_555 1_555
H8 C10 1_555 1_555
H9 N3 1_555 1_555
H10 N3 1_555 1_555
C4 C9 1_555 1_555
C4 C7 1_555 1_555
C5 C6 1_555 1_555

#END
