
#######################################################################
#
#                 Cambridge Crystallographic Data Centre
#                                CCDC 
#
#######################################################################
#
# If this CIF has been generated from an entry in the Cambridge 
# Structural Database, then it will include bibliographic, chemical, 
# crystal, experimental, refinement or atomic coordinate data resulting 
# from the CCDC's data processing and validation procedures.
#
#######################################################################

data_BEYPIG
_chemical_formula_moiety         'C29 H22 N3 O1 1+,0.5(H2 O1),Cl1 1-'
_chemical_name_systematic        
"3-(2'-Hydroxy-1,1'-binaphthalen-2-yl)-1-(pyridin-2-ylmethyl)-1H-imidazolium chloride hemihydrate"
_symmetry_cell_setting           orthorhombic
_symmetry_space_group_name_H-M   'P 21 21 2'
_symmetry_Int_Tables_number      18
_space_group_name_Hall           'P 2 2ab'
loop_
_symmetry_equiv_pos_site_id
_symmetry_equiv_pos_as_xyz
1 x,y,z
2 1/2+x,1/2-y,-z
3 1/2-x,1/2+y,-z
4 -x,-y,z
_cell_length_a                   12.2980(14)
_cell_length_b                   20.556(2)
_cell_length_c                   9.4847(7)
_cell_angle_alpha                90
_cell_angle_beta                 90
_cell_angle_gamma                90
_cell_volume                     2397.71
_exptl_crystal_colour            colorless
_exptl_crystal_description       prism
_cell_formula_units_Z            4
loop_
_atom_site_label
_atom_site_type_symbol
_atom_site_fract_x
_atom_site_fract_y
_atom_site_fract_z
Cl1 Cl 0.33416(6) 0.48406(3) 0.45633(8)
O1 O 0.48145(17) 0.36757(10) 0.3821(2)
H1 H 0.451(2) 0.4036(8) 0.402(3)
N1 N 0.77487(17) 0.31434(11) 0.2806(3)
N2 N 0.83725(17) 0.40869(11) 0.2215(3)
N3 N 0.88902(18) 0.55050(11) 0.0097(3)
C1 C 0.55312(19) 0.30875(13) 0.1896(3)
C2 C 0.4949(2) 0.36181(13) 0.2385(3)
C3 C 0.4530(2) 0.40897(13) 0.1438(3)
H2 H 0.4141 0.4454 0.1792
C4 C 0.4684(2) 0.40210(13) 0.0015(3)
H3 H 0.4393 0.4337 -0.0611
C5 C 0.5279(2) 0.34767(13) -0.0544(3)
C6 C 0.56958(19) 0.30135(12) 0.0401(3)
C7 C 0.6296(2) 0.24772(13) -0.0167(3)
H4 H 0.6592 0.2158 0.0448
C8 C 0.6444(2) 0.24229(15) -0.1589(3)
H5 H 0.6842 0.2064 -0.1952
C9 C 0.6010(2) 0.28952(15) -0.2538(3)
H6 H 0.6116 0.2850 -0.3525
C10 C 0.5442(2) 0.34126(14) -0.2012(3)
H7 H 0.5155 0.3731 -0.2636
C11 C 0.5988(2) 0.26130(12) 0.2933(3)
C12 C 0.7057(2) 0.26370(12) 0.3360(3)
C13 C 0.7540(2) 0.21856(12) 0.4278(3)
H8 H 0.8283 0.2227 0.4538
C14 C 0.6917(2) 0.16828(12) 0.4794(3)
H9 H 0.7228 0.1378 0.5431
C15 C 0.5811(2) 0.16175(12) 0.4378(3)
C16 C 0.5347(2) 0.20808(12) 0.3461(3)
C17 C 0.42337(19) 0.19940(13) 0.3016(3)
H10 H 0.3899 0.2306 0.2417
C18 C 0.3661(2) 0.14590(14) 0.3462(4)
H11 H 0.2931 0.1402 0.3158
C19 C 0.4135(2) 0.09914(14) 0.4364(4)
H12 H 0.3727 0.0622 0.4654
C20 C 0.5186(2) 0.10714(13) 0.4821(3)
H13 H 0.5499 0.0759 0.5439
C21 C 0.7560(2) 0.37810(13) 0.2905(3)
H14 H 0.6966 0.3982 0.3374
C22 C 0.8705(2) 0.30414(15) 0.2047(3)
H15 H 0.9033 0.2634 0.1835
C23 C 0.9073(2) 0.36351(14) 0.1675(3)
H16 H 0.9706 0.3723 0.1134
C24 C 0.8460(2) 0.47957(13) 0.2032(3)
H17 H 0.9186 0.4942 0.2354
H18 H 0.7906 0.5014 0.2623
C25 C 0.8301(2) 0.49906(12) 0.0515(3)
C26 C 0.7581(2) 0.46688(13) -0.0360(3)
H19 H 0.7176 0.4308 -0.0020
C27 C 0.7458(2) 0.48773(14) -0.1731(3)
H20 H 0.6976 0.4660 -0.2356
C28 C 0.8053(2) 0.54097(14) -0.2177(3)
H21 H 0.7979 0.5573 -0.3108
C29 C 0.8761(3) 0.56979(15) -0.1226(4)
H22 H 0.9182 0.6057 -0.1544
O2 O 0.5000 0.5000 0.6972(4)
H23 H 0.448(2) 0.4796(18) 0.645(4)
H23C H 0.552(2) 0.5204(18) 0.645(4)
loop_
_geom_bond_atom_site_label_1
_geom_bond_atom_site_label_2
_geom_bond_site_symmetry_1
_geom_bond_site_symmetry_2
O1 H1 1_555 1_555
N1 C12 1_555 1_555
N2 C21 1_555 1_555
N3 C25 1_555 1_555
C1 C2 1_555 1_555
C2 O1 1_555 1_555
C3 C2 1_555 1_555
H2 C3 1_555 1_555
C4 C3 1_555 1_555
H3 C4 1_555 1_555
C5 C4 1_555 1_555
C6 C1 1_555 1_555
C7 C6 1_555 1_555
H4 C7 1_555 1_555
C8 C7 1_555 1_555
H5 C8 1_555 1_555
C9 C8 1_555 1_555
H6 C9 1_555 1_555
C10 C5 1_555 1_555
H7 C10 1_555 1_555
C11 C1 1_555 1_555
C12 C11 1_555 1_555
C13 C12 1_555 1_555
H8 C13 1_555 1_555
C14 C13 1_555 1_555
H9 C14 1_555 1_555
C15 C14 1_555 1_555
C16 C11 1_555 1_555
C17 C16 1_555 1_555
H10 C17 1_555 1_555
C18 C17 1_555 1_555
H11 C18 1_555 1_555
C19 C18 1_555 1_555
H12 C19 1_555 1_555
C20 C15 1_555 1_555
H13 C20 1_555 1_555
C21 N1 1_555 1_555
H14 C21 1_555 1_555
C22 N1 1_555 1_555
H15 C22 1_555 1_555
C23 N2 1_555 1_555
H16 C23 1_555 1_555
C24 N2 1_555 1_555
H17 C24 1_555 1_555
H18 C24 1_555 1_555
C25 C24 1_555 1_555
C26 C25 1_555 1_555
H19 C26 1_555 1_555
C27 C26 1_555 1_555
H20 C27 1_555 1_555
C28 C27 1_555 1_555
H21 C28 1_555 1_555
C29 N3 1_555 1_555
H22 C29 1_555 1_555
O2 H23 1_555 1_555
H23C O2 1_555 1_555
C5 C6 1_555 1_555
C9 C10 1_555 1_555
C15 C16 1_555 1_555
C19 C20 1_555 1_555
C22 C23 1_555 1_555
C28 C29 1_555 1_555

#END
