
#######################################################################
#
#                 Cambridge Crystallographic Data Centre
#                                CCDC 
#
#######################################################################
#
# If this CIF has been generated from an entry in the Cambridge 
# Structural Database, then it will include bibliographic, chemical, 
# crystal, experimental, refinement or atomic coordinate data resulting 
# from the CCDC's data processing and validation procedures.
#
#######################################################################

data_BEZSIL
_chemical_formula_moiety         'C35 H43 B1 F5 O1 P1'
_chemical_name_systematic        
7-methyl-1-(pentafluorophenyl)-3-phenyl-4-(2,4,6-tri-t-butylphenyl)-2-oxa-4-phospha-1-borabicyclo[2.2.1]heptane
_symmetry_cell_setting           triclinic
_symmetry_space_group_name_H-M   'P -1'
_symmetry_Int_Tables_number      2
_space_group_name_Hall           '-P 1'
loop_
_symmetry_equiv_pos_site_id
_symmetry_equiv_pos_as_xyz
1 x,y,z
2 -x,-y,-z
_cell_length_a                   9.8784(7)
_cell_length_b                   12.2893(9)
_cell_length_c                   14.1512(11)
_cell_angle_alpha                71.507(4)
_cell_angle_beta                 75.714(3)
_cell_angle_gamma                88.224(4)
_cell_volume                     1576.75
_exptl_crystal_colour            colorless
_exptl_crystal_description       prism
_cell_formula_units_Z            2
loop_
_atom_site_label
_atom_site_type_symbol
_atom_site_fract_x
_atom_site_fract_y
_atom_site_fract_z
P1 P 0.58002(4) 0.25875(3) 0.31314(3)
B1 B 0.49565(19) 0.10100(15) 0.26633(14)
O1 O 0.43523(11) 0.06741(9) 0.38175(8)
C1 C 0.72946(16) 0.17785(14) 0.27160(12)
H1 H 0.8 0.2286 0.2127
H2 H 0.7742 0.1414 0.3285
C2 C 0.66433(17) 0.08546(14) 0.23964(13)
H3 H 0.6859 0.0074 0.2787
H4 H 0.7016 0.0975 0.1652
C3 C 0.48351(16) 0.24384(13) 0.22545(12)
H5 H 0.3845 0.2654 0.2451
C4 C 0.55082(17) 0.30468(14) 0.11126(12)
H6 H 0.6483 0.2837 0.0945
H7 H 0.5479 0.388 0.0969
H8 H 0.4994 0.2812 0.0693
C5 C 0.48081(17) 0.13776(13) 0.43075(12)
H9 H 0.5505 0.0953 0.4676
C6 C 0.64198(16) 0.40538(13) 0.29331(11)
C7 C 0.57180(16) 0.49834(13) 0.23828(12)
C8 C 0.65430(16) 0.58806(14) 0.15995(12)
H10 H 0.6088 0.6481 0.1203
C9 C 0.80003(16) 0.59429(13) 0.13678(12)
C10 C 0.86107(16) 0.51605(14) 0.20751(12)
H11 H 0.9584 0.5258 0.2006
C11 C 0.78557(16) 0.42385(13) 0.28818(12)
C12 C 0.41314(16) 0.51660(14) 0.26837(12)
C13 C 0.40124(17) 0.62950(14) 0.29573(14)
H12 H 0.3024 0.6449 0.3171
H13 H 0.4482 0.6931 0.2353
H14 H 0.4456 0.6219 0.3521
C14 C 0.34219(17) 0.53035(15) 0.18047(13)
H15 H 0.3401 0.457 0.1671
H16 H 0.3948 0.589 0.1182
H17 H 0.2464 0.5538 0.2
C15 C 0.33216(16) 0.42439(14) 0.36556(12)
H18 H 0.2371 0.4484 0.3869
H19 H 0.3797 0.4139 0.4208
H20 H 0.3279 0.3518 0.3513
C16 C 0.88499(16) 0.68807(14) 0.04274(12)
C17 C 1.04266(18) 0.67669(15) 0.02830(14)
H21 H 1.069 0.6811 0.0894
H22 H 1.0922 0.7391 -0.0322
H23 H 1.068 0.6026 0.0184
C18 C 0.84876(18) 0.80649(14) 0.05451(13)
H24 H 0.7501 0.819 0.0554
H25 H 0.9075 0.8664 -0.0035
H26 H 0.8656 0.8095 0.1191
C19 C 0.84693(19) 0.68017(15) -0.05414(13)
H27 H 0.8675 0.604 -0.0607
H28 H 0.902 0.7391 -0.115
H29 H 0.7471 0.6923 -0.0483
C20 C 0.86229(16) 0.36146(14) 0.37198(12)
C21 C 0.90609(18) 0.45573(15) 0.41157(13)
H30 H 0.8233 0.4952 0.4354
H31 H 0.9734 0.5113 0.3556
H32 H 0.9493 0.4203 0.4687
C22 C 0.99441(16) 0.30497(15) 0.33074(13)
H33 H 1.0432 0.2736 0.3853
H34 H 1.0561 0.3624 0.2724
H35 H 0.9683 0.2428 0.3082
C23 C 0.76791(17) 0.27456(15) 0.46671(12)
H36 H 0.7439 0.2082 0.4486
H37 H 0.6821 0.3107 0.4906
H38 H 0.8172 0.2491 0.5216
C24 C 0.39914(17) 0.03555(13) 0.22045(12)
C25 C 0.44858(18) -0.03538(14) 0.16139(13)
F1 F 0.58419(11) -0.06107(9) 0.14234(8)
C26 C 0.3657(2) -0.08453(14) 0.11787(13)
F2 F 0.42153(12) -0.15204(9) 0.06092(8)
C27 C 0.2257(2) -0.06431(15) 0.13336(14)
F3 F 0.14403(12) -0.11016(10) 0.09115(9)
C28 C 0.16987(18) 0.00428(15) 0.19227(13)
F4 F 0.03372(10) 0.02729(9) 0.20630(8)
C29 C 0.25673(18) 0.05159(14) 0.23368(12)
F5 F 0.19395(10) 0.11952(8) 0.28908(7)
C30 C 0.36216(17) 0.16453(13) 0.50933(12)
C31 C 0.38950(18) 0.21074(14) 0.58159(13)
H39 H 0.4835 0.2238 0.5822
C32 C 0.2810(2) 0.23764(15) 0.65227(13)
H40 H 0.3008 0.2712 0.6996
C33 C 0.14341(19) 0.21558(15) 0.65399(13)
H41 H 0.0688 0.2347 0.7019
C34 C 0.11554(18) 0.16545(16) 0.58542(13)
H42 H 0.0215 0.1481 0.5878
C35 C 0.22444(18) 0.14025(15) 0.51300(13)
H43 H 0.2043 0.1063 0.466
loop_
_geom_bond_atom_site_label_1
_geom_bond_atom_site_label_2
_geom_bond_site_symmetry_1
_geom_bond_site_symmetry_2
P1 C1 1_555 1_555
B1 O1 1_555 1_555
O1 C5 1_555 1_555
C1 H1 1_555 1_555
H2 C1 1_555 1_555
C2 B1 1_555 1_555
H3 C2 1_555 1_555
H4 C2 1_555 1_555
C3 P1 1_555 1_555
H5 C3 1_555 1_555
C4 C3 1_555 1_555
H6 C4 1_555 1_555
H7 C4 1_555 1_555
H8 C4 1_555 1_555
C5 P1 1_555 1_555
H9 C5 1_555 1_555
C6 P1 1_555 1_555
C7 C6 1_555 1_555
C8 C7 1_555 1_555
H10 C8 1_555 1_555
C9 C8 1_555 1_555
C10 C9 1_555 1_555
H11 C10 1_555 1_555
C11 C6 1_555 1_555
C12 C7 1_555 1_555
C13 C12 1_555 1_555
H12 C13 1_555 1_555
H13 C13 1_555 1_555
H14 C13 1_555 1_555
C14 C12 1_555 1_555
H15 C14 1_555 1_555
H16 C14 1_555 1_555
H17 C14 1_555 1_555
C15 C12 1_555 1_555
H18 C15 1_555 1_555
H19 C15 1_555 1_555
H20 C15 1_555 1_555
C16 C9 1_555 1_555
C17 C16 1_555 1_555
H21 C17 1_555 1_555
H22 C17 1_555 1_555
H23 C17 1_555 1_555
C18 C16 1_555 1_555
H24 C18 1_555 1_555
H25 C18 1_555 1_555
H26 C18 1_555 1_555
C19 C16 1_555 1_555
H27 C19 1_555 1_555
H28 C19 1_555 1_555
H29 C19 1_555 1_555
C20 C11 1_555 1_555
C21 C20 1_555 1_555
H30 C21 1_555 1_555
H31 C21 1_555 1_555
H32 C21 1_555 1_555
C22 C20 1_555 1_555
H33 C22 1_555 1_555
H34 C22 1_555 1_555
H35 C22 1_555 1_555
C23 C20 1_555 1_555
H36 C23 1_555 1_555
H37 C23 1_555 1_555
H38 C23 1_555 1_555
C24 B1 1_555 1_555
C25 C24 1_555 1_555
F1 C25 1_555 1_555
C26 C25 1_555 1_555
F2 C26 1_555 1_555
C27 C26 1_555 1_555
F3 C27 1_555 1_555
C28 C27 1_555 1_555
F4 C28 1_555 1_555
C29 C24 1_555 1_555
F5 C29 1_555 1_555
C30 C5 1_555 1_555
C31 C30 1_555 1_555
H39 C31 1_555 1_555
C32 C31 1_555 1_555
H40 C32 1_555 1_555
C33 C32 1_555 1_555
H41 C33 1_555 1_555
C34 C33 1_555 1_555
H42 C34 1_555 1_555
C35 C30 1_555 1_555
H43 C35 1_555 1_555
B1 C3 1_555 1_555
C1 C2 1_555 1_555
C10 C11 1_555 1_555
C28 C29 1_555 1_555
C34 C35 1_555 1_555

#END
