
#######################################################################
#
#                 Cambridge Crystallographic Data Centre
#                                CCDC 
#
#######################################################################
#
# If this CIF has been generated from an entry in the Cambridge 
# Structural Database, then it will include bibliographic, chemical, 
# crystal, experimental, refinement or atomic coordinate data resulting 
# from the CCDC's data processing and validation procedures.
#
#######################################################################

data_BEZSOR
_chemical_formula_moiety         'C40 H43 B1 F5 O1 P1'
_chemical_name_systematic        
9-methyl-1-(pentafluorophenyl)-3,5-diphenyl-6-[2,4,6-tris(propan-2-yl)phenyl]-2-oxa-6-phospha-1-borabicyclo[4.2.1]non-3-ene
_symmetry_cell_setting           triclinic
_symmetry_space_group_name_H-M   'P -1'
_symmetry_Int_Tables_number      2
_space_group_name_Hall           '-P 1'
loop_
_symmetry_equiv_pos_site_id
_symmetry_equiv_pos_as_xyz
1 x,y,z
2 -x,-y,-z
_cell_length_a                   11.3401(14)
_cell_length_b                   12.3804(15)
_cell_length_c                   13.2251(16)
_cell_angle_alpha                80.247(4)
_cell_angle_beta                 71.021(4)
_cell_angle_gamma                87.949(4)
_cell_volume                     1730.05
_exptl_crystal_colour            colorless
_exptl_crystal_description       plate
_cell_formula_units_Z            2
loop_
_atom_site_label
_atom_site_type_symbol
_atom_site_fract_x
_atom_site_fract_y
_atom_site_fract_z
P1 P 0.82971(6) 0.72186(5) 0.43391(5)
B1 B 0.6760(3) 0.6115(2) 0.6110(2)
O1 O 0.74640(16) 0.66878(14) 0.66794(13)
C1 C 0.8829(2) 0.58325(19) 0.4685(2)
H1 H 0.9054 0.5454 0.4048
H2 H 0.9572 0.5865 0.4918
C2 C 0.7738(2) 0.5209(2) 0.5624(2)
H3 H 0.805 0.48 0.6192
H4 H 0.7332 0.4682 0.5349
C3 C 0.6656(2) 0.6949(2) 0.50245(19)
H5 H 0.6205 0.7632 0.5219
C4 C 0.6086(2) 0.6382(2) 0.4340(2)
H6 H 0.6606 0.5767 0.4092
H7 H 0.6044 0.6908 0.371
H8 H 0.5244 0.6108 0.478
C5 C 0.7338(2) 0.7762(2) 0.6774(2)
C6 C 0.8021(2) 0.8522(2) 0.5968(2)
H9 H 0.7937 0.9267 0.6066
C7 C 0.8916(2) 0.8264(2) 0.4912(2)
H10 H 0.9007 0.8958 0.4378
C8 C 0.8642(2) 0.7737(2) 0.2897(2)
C9 C 0.9501(2) 0.7266(2) 0.2058(2)
C10 C 0.9456(2) 0.7555(2) 0.1004(2)
H11 H 1.0023 0.7224 0.0445
C11 C 0.8618(3) 0.8306(2) 0.0735(2)
C12 C 0.7880(2) 0.8846(2) 0.1558(2)
H12 H 0.7355 0.941 0.1382
C13 C 0.7878(2) 0.8596(2) 0.2618(2)
C14 C 1.0547(2) 0.6512(2) 0.2210(2)
H13 H 1.051 0.6438 0.2984
C15 C 1.0411(3) 0.5361(2) 0.1975(2)
H14 H 0.9583 0.5054 0.2415
H15 H 1.1051 0.4889 0.2156
H16 H 1.0513 0.5403 0.1205
C16 C 1.1823(3) 0.7015(3) 0.1499(2)
H17 H 1.1908 0.7046 0.0733
H18 H 1.2483 0.6563 0.1669
H19 H 1.1894 0.7758 0.164
C17 C 0.8480(3) 0.8564(2) -0.0388(2)
H20 H 0.7573 0.8466 -0.0279
C18 C 0.9157(3) 0.7803(2) -0.1148(2)
H21 H 1.0058 0.7894 -0.1311
H22 H 0.8951 0.7974 -0.1821
H23 H 0.8903 0.7044 -0.0807
C19 C 0.8809(3) 0.9759(2) -0.0887(2)
H24 H 0.8306 1.023 -0.039
H25 H 0.8637 0.992 -0.1576
H26 H 0.9696 0.9896 -0.1015
C20 C 0.7106(2) 0.9326(2) 0.3410(2)
H27 H 0.7155 0.9023 0.4146
C21 C 0.7678(3) 1.0485(2) 0.3081(2)
H28 H 0.8549 1.0455 0.3063
H29 H 0.721 1.0942 0.3609
H30 H 0.7642 1.0801 0.2361
C22 C 0.5731(3) 0.9362(2) 0.3492(2)
H31 H 0.5657 0.9653 0.2778
H32 H 0.5288 0.9836 0.4012
H33 H 0.5364 0.862 0.3737
C23 C 0.5365(2) 0.5699(2) 0.6951(2)
C24 C 0.4386(2) 0.6410(2) 0.7275(2)
F1 F 0.45449(13) 0.74949(12) 0.68482(12)
C25 C 0.3240(2) 0.6106(2) 0.8028(2)
F2 F 0.23596(14) 0.68576(13) 0.83309(13)
C26 C 0.2994(2) 0.5026(2) 0.8488(2)
F3 F 0.18770(14) 0.47165(14) 0.92298(13)
C27 C 0.3898(3) 0.4275(2) 0.8186(2)
F4 F 0.36619(15) 0.31987(13) 0.85967(13)
C28 C 0.5047(2) 0.4617(2) 0.7447(2)
F5 F 0.58909(14) 0.38142(12) 0.72118(12)
C29 C 0.6464(2) 0.7995(2) 0.7825(2)
C30 C 0.5987(3) 0.7130(2) 0.8671(2)
H34 H 0.6264 0.6407 0.8588
C31 C 0.5107(3) 0.7314(3) 0.9635(2)
H35 H 0.4777 0.6716 1.0203
C32 C 0.4714(3) 0.8356(3) 0.9772(2)
H36 H 0.4108 0.8479 1.0431
C33 C 0.5202(3) 0.9225(3) 0.8948(2)
H37 H 0.4937 0.9948 0.9044
C34 C 0.6082(3) 0.9049(2) 0.7976(2)
H38 H 0.6421 0.9652 0.7415
C35 C 1.0233(2) 0.7991(2) 0.4927(2)
C36 C 1.1241(2) 0.8319(2) 0.4010(2)
H39 H 1.111 0.8708 0.3373
C37 C 1.2451(3) 0.8082(2) 0.4015(2)
H40 H 1.3142 0.8306 0.3381
C38 C 1.2646(3) 0.7524(2) 0.4937(2)
H41 H 1.3471 0.7371 0.4943
C39 C 1.1642(3) 0.7185(2) 0.5855(2)
H42 H 1.1777 0.6796 0.649
C40 C 1.0441(3) 0.7411(2) 0.5851(2)
H43 H 0.9753 0.7169 0.6482
loop_
_geom_bond_atom_site_label_1
_geom_bond_atom_site_label_2
_geom_bond_site_symmetry_1
_geom_bond_site_symmetry_2
P1 C1 1_555 1_555
B1 O1 1_555 1_555
O1 C5 1_555 1_555
C1 H1 1_555 1_555
H2 C1 1_555 1_555
C2 B1 1_555 1_555
H3 C2 1_555 1_555
H4 C2 1_555 1_555
C3 P1 1_555 1_555
H5 C3 1_555 1_555
C4 C3 1_555 1_555
H6 C4 1_555 1_555
H7 C4 1_555 1_555
H8 C4 1_555 1_555
C5 C6 1_555 1_555
C6 H9 1_555 1_555
C7 P1 1_555 1_555
H10 C7 1_555 1_555
C8 P1 1_555 1_555
C9 C8 1_555 1_555
C10 C9 1_555 1_555
H11 C10 1_555 1_555
C11 C10 1_555 1_555
C12 C11 1_555 1_555
H12 C12 1_555 1_555
C13 C8 1_555 1_555
C14 C9 1_555 1_555
H13 C14 1_555 1_555
C15 C14 1_555 1_555
H14 C15 1_555 1_555
H15 C15 1_555 1_555
H16 C15 1_555 1_555
C16 C14 1_555 1_555
H17 C16 1_555 1_555
H18 C16 1_555 1_555
H19 C16 1_555 1_555
C17 C11 1_555 1_555
H20 C17 1_555 1_555
C18 C17 1_555 1_555
H21 C18 1_555 1_555
H22 C18 1_555 1_555
H23 C18 1_555 1_555
C19 C17 1_555 1_555
H24 C19 1_555 1_555
H25 C19 1_555 1_555
H26 C19 1_555 1_555
C20 C13 1_555 1_555
H27 C20 1_555 1_555
C21 C20 1_555 1_555
H28 C21 1_555 1_555
H29 C21 1_555 1_555
H30 C21 1_555 1_555
C22 C20 1_555 1_555
H31 C22 1_555 1_555
H32 C22 1_555 1_555
H33 C22 1_555 1_555
C23 B1 1_555 1_555
C24 C23 1_555 1_555
F1 C24 1_555 1_555
C25 C24 1_555 1_555
F2 C25 1_555 1_555
C26 C25 1_555 1_555
F3 C26 1_555 1_555
C27 C26 1_555 1_555
F4 C27 1_555 1_555
C28 C23 1_555 1_555
F5 C28 1_555 1_555
C29 C5 1_555 1_555
C30 C29 1_555 1_555
H34 C30 1_555 1_555
C31 C30 1_555 1_555
H35 C31 1_555 1_555
C32 C31 1_555 1_555
H36 C32 1_555 1_555
C33 C32 1_555 1_555
H37 C33 1_555 1_555
C34 C29 1_555 1_555
H38 C34 1_555 1_555
C35 C7 1_555 1_555
C36 C35 1_555 1_555
H39 C36 1_555 1_555
C37 C36 1_555 1_555
H40 C37 1_555 1_555
C38 C37 1_555 1_555
H41 C38 1_555 1_555
C39 C38 1_555 1_555
H42 C39 1_555 1_555
C40 C35 1_555 1_555
H43 C40 1_555 1_555
B1 C3 1_555 1_555
C1 C2 1_555 1_555
C6 C7 1_555 1_555
C12 C13 1_555 1_555
C27 C28 1_555 1_555
C33 C34 1_555 1_555
C39 C40 1_555 1_555

#END
