
#######################################################################
#
#                 Cambridge Crystallographic Data Centre
#                                CCDC 
#
#######################################################################
#
# If this CIF has been generated from an entry in the Cambridge 
# Structural Database, then it will include bibliographic, chemical, 
# crystal, experimental, refinement or atomic coordinate data resulting 
# from the CCDC's data processing and validation procedures.
#
#######################################################################

data_BEZYOV
_chemical_formula_moiety         'C44 H46 O8'
_chemical_name_systematic        
(E,E)-1,4-bis(2-(2,4,6-Trimethoxyphenyl)ethenyl)-3,5-bis(2-phenylethoxy)benzene
_symmetry_cell_setting           triclinic
_symmetry_space_group_name_H-M   'P -1'
_symmetry_Int_Tables_number      2
_space_group_name_Hall           '-P 1'
loop_
_symmetry_equiv_pos_site_id
_symmetry_equiv_pos_as_xyz
1 x,y,z
2 -x,-y,-z
_cell_length_a                   6.897(2)
_cell_length_b                   9.628(2)
_cell_length_c                   14.066(2)
_cell_angle_alpha                88.79(2)
_cell_angle_beta                 79.84(2)
_cell_angle_gamma                87.72(2)
_cell_volume                     918.574
_exptl_crystal_colour            yellow
_exptl_crystal_description       needle
_chemical_melting_point          '461-464 K'
_cell_formula_units_Z            1
_exptl_crystal_recrystallization_method p-xylene
loop_
_atom_site_label
_atom_site_type_symbol
_atom_site_fract_x
_atom_site_fract_y
_atom_site_fract_z
C1 C -0.5830(6) 0.0841(4) 0.3648(3)
C2 C -0.3507(6) 0.2335(5) 0.4099(3)
C3 C -0.1257(6) 0.0177(4) 0.0908(3)
O1 O -0.3369(5) -0.1486(3) 0.0511(2)
C4 C -0.2587(6) 0.1234(5) 0.2499(3)
H1 H -0.164(6) 0.178(4) 0.242(3)
C5 C -0.3975(6) 0.1450(4) 0.3404(3)
C6 C -0.1094(8) 0.3815(6) 0.4523(4)
H2 H -0.205(4) 0.463(3) 0.465(2)
H3 H 0.025(4) 0.415(3) 0.4254(14)
H4 H -0.105(5) 0.3286(18) 0.514(2)
C7 C -0.6486(7) 0.1950(5) 0.5166(3)
O2 O -0.1704(5) 0.2932(4) 0.3848(2)
O3 O -0.7820(5) 0.2125(4) 0.6006(2)
C8 C -0.2657(6) 0.0354(4) 0.1806(3)
H5 H -0.372(6) -0.021(4) 0.191(3)
C9 C -0.7188(9) 0.2815(6) 0.6767(4)
H6 H -0.597(5) 0.234(3) 0.6916(19)
H7 H -0.824(4) 0.280(4) 0.735(2)
H8 H -0.691(6) 0.380(3) 0.6570(12)
O4 O -0.6333(4) 0.0006(3) 0.2969(2)
C10 C 0.0446(6) 0.0924(4) 0.0650(3)
H9 H 0.075(6) 0.158(4) 0.109(3)
C11 C -0.8198(7) -0.0629(6) 0.3154(4)
H10 H -0.827(2) -0.124(4) 0.372(2)
H11 H -0.836(3) -0.117(4) 0.259(2)
H12 H -0.925(3) 0.009(2) 0.327(3)
C12 C -0.6455(7) -0.3723(4) 0.0993(3)
C13 C -0.4965(9) -0.4346(6) 0.1388(4)
H13 H -0.378(8) -0.407(5) 0.119(4)
C14 C -0.1668(6) -0.0767(4) 0.0223(3)
C15 C -0.8650(11) -0.5262(7) 0.2000(5)
H14 H -0.9914 -0.5583 0.2198
C16 C -0.7075(7) 0.1092(5) 0.4509(3)
H15 H -0.824(7) 0.065(5) 0.466(3)
C17 C -0.4714(7) 0.2592(5) 0.4970(3)
H16 H -0.441(7) 0.318(5) 0.541(3)
C18 C -0.8349(8) -0.4205(6) 0.1315(4)
H17 H -0.950(8) -0.378(5) 0.104(4)
C19 C -0.5272(11) -0.5401(7) 0.2066(5)
H18 H -0.429(9) -0.578(6) 0.231(5)
C20 C -0.7144(13) -0.5837(6) 0.2388(5)
H19 H -0.7375 -0.6520 0.2867
C21 C -0.4145(7) -0.2224(5) -0.0201(3)
H20 H -0.323(6) -0.302(5) -0.043(3)
H21 H -0.424(7) -0.164(4) -0.074(3)
C22 C -0.6208(7) -0.2599(5) 0.0244(4)
H22 H -0.694(7) -0.283(5) -0.026(4)
H23 H -0.706(7) -0.173(5) 0.047(3)
C14A C 0.1668(6) 0.0767(4) -0.0223(3)
C3A C 0.1257(6) -0.0177(4) -0.0908(3)
C8A C 0.2657(6) -0.0354(4) -0.1806(3)
C4A C 0.2587(6) -0.1234(5) -0.2499(3)
H1A H 0.164(6) -0.178(4) -0.242(3)
C5A C 0.3975(6) -0.1450(4) -0.3404(3)
C1A C 0.5830(6) -0.0841(4) -0.3648(3)
O4A O 0.6333(4) -0.0006(3) -0.2969(2)
C11A C 0.8198(7) 0.0629(6) -0.3154(4)
H10A H 0.827(2) 0.124(4) -0.372(2)
H11A H 0.836(3) 0.117(4) -0.259(2)
H12A H 0.925(3) -0.009(2) -0.327(3)
C16A C 0.7075(7) -0.1092(5) -0.4509(3)
C7A C 0.6486(7) -0.1950(5) -0.5166(3)
O3A O 0.7820(5) -0.2125(4) -0.6006(2)
C9A C 0.7188(9) -0.2815(6) -0.6767(4)
H6A H 0.597(5) -0.234(3) -0.6916(19)
H7A H 0.824(4) -0.280(4) -0.735(2)
H8A H 0.691(6) -0.380(3) -0.6570(12)
C17A C 0.4714(7) -0.2592(5) -0.4970(3)
C2A C 0.3507(6) -0.2335(5) -0.4099(3)
O2A O 0.1704(5) -0.2932(4) -0.3848(2)
C6A C 0.1094(8) -0.3815(6) -0.4523(4)
H2A H 0.205(4) -0.463(3) -0.465(2)
H3A H -0.025(4) -0.415(3) -0.4254(14)
H4A H 0.105(5) -0.3286(18) -0.514(2)
H16A H 0.441(7) -0.318(5) -0.541(3)
H15A H 0.824(7) -0.065(5) -0.466(3)
H5A H 0.372(6) 0.021(4) -0.191(3)
C10A C -0.0446(6) -0.0924(4) -0.0650(3)
H9A H -0.075(6) -0.158(4) -0.109(3)
O1A O 0.3369(5) 0.1486(3) -0.0511(2)
C21A C 0.4145(7) 0.2224(5) 0.0201(3)
H20A H 0.323(6) 0.302(5) 0.043(3)
H21A H 0.424(7) 0.164(4) 0.074(3)
C22A C 0.6208(7) 0.2599(5) -0.0244(4)
C12A C 0.6455(7) 0.3723(4) -0.0993(3)
C13A C 0.4965(9) 0.4346(6) -0.1388(4)
H13A H 0.378(8) 0.407(5) -0.119(4)
C19A C 0.5272(11) 0.5401(7) -0.2066(5)
H18A H 0.429(9) 0.578(6) -0.231(5)
C20A C 0.7144(13) 0.5837(6) -0.2388(5)
C15A C 0.8650(11) 0.5262(7) -0.2000(5)
H14A H 0.9914 0.5583 -0.2198
C18A C 0.8349(8) 0.4205(6) -0.1315(4)
H17A H 0.950(8) 0.378(5) -0.104(4)
H19A H 0.7375 0.6520 -0.2867
H22A H 0.694(7) 0.283(5) 0.026(4)
H23A H 0.706(7) 0.173(5) -0.047(3)
loop_
_geom_bond_atom_site_label_1
_geom_bond_atom_site_label_2
_geom_bond_site_symmetry_1
_geom_bond_site_symmetry_2
C1 C5 1_555 1_555
C2 C5 1_555 1_555
C3 C8 1_555 1_555
O1 C14 1_555 1_555
C4 H1 1_555 1_555
C5 C4 1_555 1_555
C6 H2 1_555 1_555
H3 C6 1_555 1_555
H4 C6 1_555 1_555
C7 O3 1_555 1_555
O2 C2 1_555 1_555
O3 C9 1_555 1_555
C8 C4 1_555 1_555
H5 C8 1_555 1_555
C9 H6 1_555 1_555
H7 C9 1_555 1_555
H8 C9 1_555 1_555
O4 C1 1_555 1_555
C10 C3 1_555 1_555
H9 C10 1_555 1_555
C11 O4 1_555 1_555
H10 C11 1_555 1_555
H11 C11 1_555 1_555
H12 C11 1_555 1_555
C12 C13 1_555 1_555
C13 H13 1_555 1_555
C14 C3 1_555 1_555
C15 H14 1_555 1_555
C16 C1 1_555 1_555
H15 C16 1_555 1_555
C17 C2 1_555 1_555
H16 C17 1_555 1_555
C18 C12 1_555 1_555
H17 C18 1_555 1_555
C19 C13 1_555 1_555
H18 C19 1_555 1_555
C20 C15 1_555 1_555
H19 C20 1_555 1_555
C21 O1 1_555 1_555
H20 C21 1_555 1_555
H21 C21 1_555 1_555
C22 C12 1_555 1_555
H22 C22 1_555 1_555
H23 C22 1_555 1_555
C14A C10 1_555 1_555
C3A C14A 1_555 1_555
C8A C3A 1_555 1_555
C4A C8A 1_555 1_555
H1A C4A 1_555 1_555
C5A C4A 1_555 1_555
C1A C5A 1_555 1_555
O4A C1A 1_555 1_555
C11A O4A 1_555 1_555
H10A C11A 1_555 1_555
H11A C11A 1_555 1_555
H12A C11A 1_555 1_555
C16A C1A 1_555 1_555
C7A C16A 1_555 1_555
O3A C7A 1_555 1_555
C9A O3A 1_555 1_555
H6A C9A 1_555 1_555
H7A C9A 1_555 1_555
H8A C9A 1_555 1_555
C17A C7A 1_555 1_555
C2A C5A 1_555 1_555
O2A C2A 1_555 1_555
C6A O2A 1_555 1_555
H2A C6A 1_555 1_555
H3A C6A 1_555 1_555
H4A C6A 1_555 1_555
H16A C17A 1_555 1_555
H15A C16A 1_555 1_555
H5A C8A 1_555 1_555
C10A C14 1_555 1_555
H9A C10A 1_555 1_555
O1A C14A 1_555 1_555
C21A O1A 1_555 1_555
H20A C21A 1_555 1_555
H21A C21A 1_555 1_555
C22A C21A 1_555 1_555
C12A C22A 1_555 1_555
C13A C12A 1_555 1_555
H13A C13A 1_555 1_555
C19A C13A 1_555 1_555
H18A C19A 1_555 1_555
C20A C19A 1_555 1_555
C15A C20A 1_555 1_555
H14A C15A 1_555 1_555
C18A C12A 1_555 1_555
H17A C18A 1_555 1_555
H19A C20A 1_555 1_555
H22A C22A 1_555 1_555
H23A C22A 1_555 1_555
C6 O2 1_555 1_555
C7 C17 1_555 1_555
C7 C16 1_555 1_555
C15 C18 1_555 1_555
C19 C20 1_555 1_555
C21 C22 1_555 1_555
C3A C10A 1_555 1_555
C17A C2A 1_555 1_555
C15A C18A 1_555 1_555

#END
