
#######################################################################
#
#                 Cambridge Crystallographic Data Centre
#                                CCDC 
#
#######################################################################
#
# If this CIF has been generated from an entry in the Cambridge 
# Structural Database, then it will include bibliographic, chemical, 
# crystal, experimental, refinement or atomic coordinate data resulting 
# from the CCDC's data processing and validation procedures.
#
#######################################################################

data_BIBHAX
_chemical_formula_moiety         'C16 H17 N1'
_chemical_name_systematic        2-Phenyl-1-(1-phenylethyl)aziridine
_symmetry_cell_setting           monoclinic
_symmetry_space_group_name_H-M   'P 21'
_symmetry_Int_Tables_number      4
_space_group_name_Hall           'P 2yb'
loop_
_symmetry_equiv_pos_site_id
_symmetry_equiv_pos_as_xyz
1 x,y,z
2 -x,1/2+y,-z
_cell_length_a                   7.736(4)
_cell_length_b                   8.914(4)
_cell_length_c                   9.594(4)
_cell_angle_alpha                90
_cell_angle_beta                 98.839(6)
_cell_angle_gamma                90
_cell_volume                     653.733
_exptl_crystal_colour            colorless
_exptl_crystal_description       platelet
_cell_formula_units_Z            2
loop_
_atom_site_label
_atom_site_type_symbol
_atom_site_fract_x
_atom_site_fract_y
_atom_site_fract_z
N1 N 0.93555(13) 0.52333(13) 0.05735(10)
C1 C 0.63970(16) 0.48992(16) -0.09908(12)
C2 C 0.80569(16) 0.42307(15) -0.02469(12)
C3 C 0.50479(17) 0.39516(16) -0.16012(13)
C4 C 0.78316(17) 0.56601(16) 0.29936(13)
C5 C 0.92859(16) 0.47251(14) 0.30799(12)
C6 C 0.61944(18) 0.64453(16) -0.11731(14)
C7 C 0.97969(19) 0.39055(17) 0.43221(14)
C8 C 1.03237(16) 0.45513(15) 0.18676(13)
C9 C 0.35504(17) 0.45401(17) -0.24116(14)
C10 C 0.33691(19) 0.60825(18) -0.26082(15)
C11 C 0.69004(19) 0.57865(18) 0.41261(14)
C12 C 0.97692(17) 0.45655(18) -0.07333(13)
C13 C 0.46869(19) 0.70331(17) -0.19761(16)
C14 C 0.74190(19) 0.49640(19) 0.53522(14)
C15 C 1.21220(18) 0.53015(19) 0.21902(15)
C16 C 0.8866(2) 0.40309(19) 0.54452(15)
H1 H 1.280(2) 0.515(3) 0.1373(19)
H2 H 0.459(2) 0.811(2) -0.2101(19)
H3 H 0.586(2) 0.644(2) 0.4049(19)
H4 H 1.048(2) 0.347(2) 0.1726(19)
H5 H 0.516(2) 0.285(2) -0.1457(19)
H6 H 1.279(2) 0.484(2) 0.306(2)
H7 H 1.202(3) 0.643(3) 0.235(2)
H8 H 0.746(2) 0.626(2) 0.2129(19)
H9 H 0.796(2) 0.319(2) 0.0138(19)
H10 H 1.064(2) 0.378(2) -0.0636(19)
H11 H 0.978(2) 0.528(2) -0.1524(18)
H12 H 0.676(2) 0.499(2) 0.6121(18)
H13 H 0.921(2) 0.345(2) 0.6288(19)
H14 H 0.261(2) 0.391(2) -0.2863(19)
H15 H 0.233(2) 0.647(2) -0.3173(19)
H16 H 1.082(2) 0.325(2) 0.4387(19)
H17 H 0.714(2) 0.705(2) -0.076(2)
loop_
_geom_bond_atom_site_label_1
_geom_bond_atom_site_label_2
_geom_bond_site_symmetry_1
_geom_bond_site_symmetry_2
N1 C2 1_555 1_555
C1 C2 1_555 1_555
C2 C12 1_555 1_555
C3 C1 1_555 1_555
C4 C5 1_555 1_555
C5 C7 1_555 1_555
C6 C1 1_555 1_555
C7 C16 1_555 1_555
C8 N1 1_555 1_555
C9 C3 1_555 1_555
C10 C9 1_555 1_555
C11 C4 1_555 1_555
C12 N1 1_555 1_555
C13 C6 1_555 1_555
C14 C11 1_555 1_555
C15 C8 1_555 1_555
C16 C14 1_555 1_555
H1 C15 1_555 1_555
H2 C13 1_555 1_555
H3 C11 1_555 1_555
H4 C8 1_555 1_555
H5 C3 1_555 1_555
H6 C15 1_555 1_555
H7 C15 1_555 1_555
H8 C4 1_555 1_555
H9 C2 1_555 1_555
H10 C12 1_555 1_555
H11 C12 1_555 1_555
H12 C14 1_555 1_555
H13 C16 1_555 1_555
H14 C9 1_555 1_555
H15 C10 1_555 1_555
H16 C7 1_555 1_555
H17 C6 1_555 1_555
C5 C8 1_555 1_555
C10 C13 1_555 1_555

#END
