
#######################################################################
#
#                 Cambridge Crystallographic Data Centre
#                                CCDC 
#
#######################################################################
#
# If this CIF has been generated from an entry in the Cambridge 
# Structural Database, then it will include bibliographic, chemical, 
# crystal, experimental, refinement or atomic coordinate data resulting 
# from the CCDC's data processing and validation procedures.
#
#######################################################################

data_BIBRAH
_chemical_formula_moiety         'C20 H23 B1 F2 N2 Si1'
_chemical_name_systematic        
5,5-Difluoro-3,7-dimethyl-10-(4-(trimethylsilyl)phenyl)-5H-dipyrrolo[1,2-c:2',1'-f][1,3,2]diazaborinine
_symmetry_cell_setting           monoclinic
_symmetry_space_group_name_H-M   'P 21/c'
_symmetry_Int_Tables_number      14
_space_group_name_Hall           '-P 2ybc'
loop_
_symmetry_equiv_pos_site_id
_symmetry_equiv_pos_as_xyz
1 x,y,z
2 -x,1/2+y,1/2-z
3 -x,-y,-z
4 x,1/2-y,1/2+z
_cell_length_a                   9.301(4)
_cell_length_b                   12.332(5)
_cell_length_c                   17.567(7)
_cell_angle_alpha                90
_cell_angle_beta                 103.820(9)
_cell_angle_gamma                90
_cell_volume                     1956.6
_exptl_crystal_colour            orange
_exptl_crystal_description       'plate like'
_cell_formula_units_Z            4
loop_
_atom_site_label
_atom_site_type_symbol
_atom_site_fract_x
_atom_site_fract_y
_atom_site_fract_z
Si1 Si -0.2736(2) 0.17716(15) 1.00303(11)
F1 F 0.4899(4) 0.2007(3) 0.6833(2)
F2 F 0.3121(4) 0.2898(3) 0.5961(2)
N1 N 0.2361(6) 0.1461(4) 0.6704(3)
N2 N 0.3311(6) 0.3218(4) 0.7337(3)
B1 B 0.3485(8) 0.2396(6) 0.6702(4)
C1 C 0.1494(7) 0.2161(5) 0.7803(4)
C2 C 0.2372(7) 0.3101(5) 0.7837(4)
C3 C 0.2501(7) 0.4036(5) 0.8303(4)
H1 H 0.1995 0.4179 0.8689
C4 C 0.3513(7) 0.4701(5) 0.8083(4)
H2 H 0.3822 0.5377 0.8294
C5 C 0.3998(7) 0.4174(5) 0.7482(4)
C6 C 0.5104(7) 0.4566(6) 0.7056(4)
H3 H 0.5971 0.4117 0.7188
H4 H 0.5369 0.5302 0.7205
H5 H 0.4684 0.4531 0.6502
C7 C 0.1541(7) 0.1345(6) 0.7280(4)
C8 C 0.0844(7) 0.0328(6) 0.7160(4)
H6 H 0.0246 0.0026 0.7459
C9 C 0.1209(7) -0.0140(6) 0.6520(4)
H7 H 0.0875 -0.0806 0.6299
C10 C 0.2160(7) 0.0558(6) 0.6263(4)
C11 C 0.2852(8) 0.0415(6) 0.5588(4)
H8 H 0.2319 0.0836 0.5151
H9 H 0.2821 -0.0337 0.5443
H10 H 0.3863 0.0654 0.5734
C12 C 0.0496(7) 0.2057(5) 0.8358(4)
C13 C -0.1010(7) 0.1855(6) 0.8050(4)
H11 H -0.1369 0.1756 0.7514
C14 C -0.1968(7) 0.1802(6) 0.8542(4)
H12 H -0.2970 0.1676 0.8331
C15 C -0.1451(7) 0.1935(5) 0.9354(4)
C16 C 0.0038(7) 0.2147(5) 0.9639(4)
H13 H 0.0395 0.2249 1.0175
C17 C 0.1021(7) 0.2216(5) 0.9162(4)
H14 H 0.2016 0.2365 0.9375
C18 C -0.2071(8) 0.2664(7) 1.0911(4)
H15 H -0.2702 0.2571 1.1266
H16 H -0.2095 0.3408 1.0747
H17 H -0.1075 0.2468 1.1169
C19 C -0.4674(7) 0.2161(6) 0.9501(4)
H18 H -0.4974 0.1738 0.9031
H19 H -0.4700 0.2917 0.9368
H20 H -0.5337 0.2026 0.9834
C20 C -0.2655(8) 0.0349(6) 1.0362(5)
H21 H -0.2932 -0.0122 0.9916
H22 H -0.3325 0.0247 1.0696
H23 H -0.1665 0.0180 1.0648
loop_
_geom_bond_atom_site_label_1
_geom_bond_atom_site_label_2
_geom_bond_site_symmetry_1
_geom_bond_site_symmetry_2
Si1 C15 1_555 1_555
F1 B1 1_555 1_555
F2 B1 1_555 1_555
N1 B1 1_555 1_555
N2 B1 1_555 1_555
C1 C2 1_555 1_555
C2 N2 1_555 1_555
C3 C2 1_555 1_555
H1 C3 1_555 1_555
C4 C3 1_555 1_555
H2 C4 1_555 1_555
C5 N2 1_555 1_555
C6 C5 1_555 1_555
H3 C6 1_555 1_555
H4 C6 1_555 1_555
H5 C6 1_555 1_555
C7 N1 1_555 1_555
C8 C7 1_555 1_555
H6 C8 1_555 1_555
C9 C8 1_555 1_555
H7 C9 1_555 1_555
C10 N1 1_555 1_555
C11 C10 1_555 1_555
H8 C11 1_555 1_555
H9 C11 1_555 1_555
H10 C11 1_555 1_555
C12 C1 1_555 1_555
C13 C12 1_555 1_555
H11 C13 1_555 1_555
C14 C13 1_555 1_555
H12 C14 1_555 1_555
C15 C14 1_555 1_555
C16 C15 1_555 1_555
H13 C16 1_555 1_555
C17 C12 1_555 1_555
H14 C17 1_555 1_555
C18 Si1 1_555 1_555
H15 C18 1_555 1_555
H16 C18 1_555 1_555
H17 C18 1_555 1_555
C19 Si1 1_555 1_555
H18 C19 1_555 1_555
H19 C19 1_555 1_555
H20 C19 1_555 1_555
C20 Si1 1_555 1_555
H21 C20 1_555 1_555
H22 C20 1_555 1_555
H23 C20 1_555 1_555
C1 C7 1_555 1_555
C4 C5 1_555 1_555
C9 C10 1_555 1_555
C16 C17 1_555 1_555

#END
