
#######################################################################
#
#                 Cambridge Crystallographic Data Centre
#                                CCDC 
#
#######################################################################
#
# If this CIF has been generated from an entry in the Cambridge 
# Structural Database, then it will include bibliographic, chemical, 
# crystal, experimental, refinement or atomic coordinate data resulting 
# from the CCDC's data processing and validation procedures.
#
#######################################################################

data_BIBSOW
_chemical_formula_moiety         'C40 H38 Br1 N3 O6,C4 H10 O1'
_chemical_name_systematic        
"(3S,4'R,5'S)-1-t-Butyl 4'-ethyl 5'-benzyl-5'-(benzylcarbamoyl)-6-bromo-2-oxo-2'-phenyl-4',5'-dihydrospiro[indole-3,3'-pyrrole]-1,4'(2H)-dicarboxylate diethyl ether solvate"
_symmetry_cell_setting           orthorhombic
_symmetry_space_group_name_H-M   'P 21 21 21'
_symmetry_Int_Tables_number      19
_space_group_name_Hall           'P 2ac 2ab'
loop_
_symmetry_equiv_pos_site_id
_symmetry_equiv_pos_as_xyz
1 x,y,z
2 1/2+x,1/2-y,-z
3 -x,1/2+y,1/2-z
4 1/2-x,-y,1/2+z
_cell_length_a                   10.886(3)
_cell_length_b                   13.503(3)
_cell_length_c                   28.725(7)
_cell_angle_alpha                90
_cell_angle_beta                 90
_cell_angle_gamma                90
_cell_volume                     4222.39
_exptl_crystal_colour            colorless
_exptl_crystal_description       needle
_cell_formula_units_Z            4
loop_
_atom_site_label
_atom_site_type_symbol
_atom_site_fract_x
_atom_site_fract_y
_atom_site_fract_z
Br1 Br 1.10034(8) 0.63007(6) 1.20690(2)
O1 O 0.6838(5) 0.4949(4) 1.15382(17)
O2 O 0.5692(4) 0.4654(3) 1.09258(13)
O3 O 0.6721(4) 0.4873(3) 1.01049(13)
O4 O 0.8807(4) 0.7715(3) 0.89652(13)
O5 O 1.0276(5) 0.7499(3) 0.98370(15)
O6 O 0.8532(4) 0.8167(3) 1.01179(14)
N1 N 0.7560(4) 0.5287(3) 1.08255(13)
N2 N 1.0247(5) 0.6595(4) 0.87860(19)
H1 H 1.0521 0.6002 0.8821
N3 N 0.9325(4) 0.5235(3) 0.93715(15)
C1 C 0.7436(9) 0.3887(7) 0.8161(3)
H2 H 0.7372 0.3201 0.8150
C2 C 0.7567(10) 0.4408(11) 0.7761(4)
H3 H 0.7601 0.4080 0.7477
C3 C 0.7650(10) 0.5429(11) 0.7777(3)
H4 H 0.7760 0.5791 0.7505
C4 C 0.7567(7) 0.5921(6) 0.8214(3)
H5 H 0.7575 0.6609 0.8228
C5 C 0.7473(6) 0.5372(5) 0.8612(2)
C6 C 0.7398(7) 0.4354(6) 0.8574(2)
H6 H 0.7319 0.3979 0.8844
C7 C 0.7371(6) 0.5880(4) 0.90800(18)
H7 H 0.6901 0.5458 0.9287
H8 H 0.6913 0.6490 0.9040
C8 C 0.8621(5) 0.6128(4) 0.93180(17)
C9 C 0.9368(5) 0.4963(4) 0.97969(18)
C10 C 0.8735(5) 0.5662(3) 1.01452(16)
C11 C 0.8401(5) 0.6561(3) 0.98176(17)
H9 H 0.7533 0.6737 0.9856
C12 C 0.9195(7) 0.7442(4) 0.99239(19)
C13 C 0.9228(8) 0.9059(4) 1.0226(3)
H10 H 0.9841 0.8917 1.0462
H11 H 0.9646 0.9297 0.9950
C14 C 0.8387(9) 0.9797(5) 1.0393(3)
H12 H 0.7821 0.9968 1.0150
H13 H 0.8836 1.0376 1.0486
H14 H 0.7941 0.9540 1.0655
C15 C 0.9442(5) 0.5880(3) 1.05833(19)
C16 C 1.0629(5) 0.6185(4) 1.06442(19)
H15 H 1.1120 0.6308 1.0386
C17 C 1.1106(6) 0.6311(4) 1.1086(2)
H16 H 1.1910 0.6524 1.1129
C18 C 1.0351(7) 0.6112(4) 1.1463(2)
C19 C 0.9170(6) 0.5787(4) 1.1420(2)
H17 H 0.8688 0.5650 1.1679
C20 C 0.8721(5) 0.5671(4) 1.09719(18)
C21 C 0.7536(6) 0.5209(4) 1.03358(18)
C22 C 0.6647(6) 0.4942(4) 1.1136(2)
C23 C 0.4620(7) 0.4236(5) 1.1193(2)
C24 C 0.4174(8) 0.4984(6) 1.1545(3)
H18 H 0.4753 0.5028 1.1796
H19 H 0.3390 0.4780 1.1665
H20 H 0.4094 0.5620 1.1399
C25 C 0.3745(9) 0.4042(11) 1.0813(3)
H21 H 0.2971 0.3839 1.0941
H22 H 0.4060 0.3526 1.0616
H23 H 0.3633 0.4634 1.0633
C26 C 0.5010(8) 0.3290(5) 1.1432(3)
H24 H 0.5400 0.3447 1.1722
H25 H 0.5576 0.2938 1.1236
H26 H 0.4301 0.2885 1.1489
C27 C 1.0002(6) 0.4052(4) 0.99440(18)
C28 C 1.0848(6) 0.3643(4) 0.96448(18)
H27 H 1.0989 0.3933 0.9356
C29 C 1.1489(8) 0.2800(5) 0.9773(2)
H28 H 1.2084 0.2540 0.9575
C30 C 1.1249(9) 0.2348(5) 1.0190(3)
H29 H 1.1657 0.1769 1.0273
C31 C 1.0413(7) 0.2752(5) 1.0481(2)
H30 H 1.0260 0.2453 1.0767
C32 C 0.9799(6) 0.3582(4) 1.03650(19)
H31 H 0.9226 0.3843 1.0572
C33 C 0.9263(6) 0.6889(5) 0.9009(2)
C34 C 1.0880(10) 0.7299(7) 0.8473(3)
H32 H 1.0316 0.7497 0.8228
H33 H 1.1095 0.7888 0.8648
C35 C 1.1979(8) 0.6900(4) 0.8262(3)
C36 C 1.3011(11) 0.6806(6) 0.8530(3)
H34 H 1.3014 0.7013 0.8838
C37 C 1.4035(10) 0.6402(7) 0.8334(4)
H35 H 1.4722 0.6307 0.8522
C38 C 1.4101(12) 0.6134(8) 0.7888(5)
H36 H 1.4832 0.5886 0.7768
C39 C 1.3116(14) 0.6223(8) 0.7613(4)
H37 H 1.3152 0.6032 0.7302
C40 C 1.2045(9) 0.6604(6) 0.7798(3)
H38 H 1.1355 0.6664 0.7610
O7 O 0.2581(8) 0.3288(5) 0.80900(17)
C41 C 0.0977(14) 0.4038(8) 0.7931(5)
H39 H 0.1107 0.4592 0.7727
H40 H 0.0119 0.3987 0.8004
H41 H 0.1244 0.3441 0.7780
C42 C 0.1809(9) 0.4209(10) 0.8440(6)
H42 H 0.1429 0.3976 0.8725
H43 H 0.2224 0.4841 0.8475
C43 C 0.3417(12) 0.2988(12) 0.8453(6)
H44 H 0.2967 0.2745 0.8722
H45 H 0.3924 0.3542 0.8550
C44 C 0.4210(12) 0.2166(10) 0.8245(3)
H46 H 0.3745 0.1812 0.8015
H47 H 0.4458 0.1717 0.8487
H48 H 0.4925 0.2451 0.8103
loop_
_geom_bond_atom_site_label_1
_geom_bond_atom_site_label_2
_geom_bond_site_symmetry_1
_geom_bond_site_symmetry_2
Br1 C18 1_555 1_555
O1 C22 1_555 1_555
O2 C22 1_555 1_555
O3 C21 1_555 1_555
O4 C33 1_555 1_555
O5 C12 1_555 1_555
O6 C12 1_555 1_555
N1 C20 1_555 1_555
N2 H1 1_555 1_555
N3 C8 1_555 1_555
C1 H2 1_555 1_555
C2 C1 1_555 1_555
H3 C2 1_555 1_555
C3 C2 1_555 1_555
H4 C3 1_555 1_555
C4 C3 1_555 1_555
H5 C4 1_555 1_555
C5 C4 1_555 1_555
C6 C1 1_555 1_555
H6 C6 1_555 1_555
C7 C5 1_555 1_555
H7 C7 1_555 1_555
H8 C7 1_555 1_555
C8 C7 1_555 1_555
C9 N3 1_555 1_555
C10 C9 1_555 1_555
C11 C8 1_555 1_555
H9 C11 1_555 1_555
C12 C11 1_555 1_555
C13 O6 1_555 1_555
H10 C13 1_555 1_555
H11 C13 1_555 1_555
C14 C13 1_555 1_555
H12 C14 1_555 1_555
H13 C14 1_555 1_555
H14 C14 1_555 1_555
C15 C10 1_555 1_555
C16 C15 1_555 1_555
H15 C16 1_555 1_555
C17 C16 1_555 1_555
H16 C17 1_555 1_555
C18 C17 1_555 1_555
C19 C18 1_555 1_555
H17 C19 1_555 1_555
C20 C15 1_555 1_555
C21 N1 1_555 1_555
C22 N1 1_555 1_555
C23 O2 1_555 1_555
C24 C23 1_555 1_555
H18 C24 1_555 1_555
H19 C24 1_555 1_555
H20 C24 1_555 1_555
C25 C23 1_555 1_555
H21 C25 1_555 1_555
H22 C25 1_555 1_555
H23 C25 1_555 1_555
C26 C23 1_555 1_555
H24 C26 1_555 1_555
H25 C26 1_555 1_555
H26 C26 1_555 1_555
C27 C9 1_555 1_555
C28 C27 1_555 1_555
H27 C28 1_555 1_555
C29 C28 1_555 1_555
H28 C29 1_555 1_555
C30 C29 1_555 1_555
H29 C30 1_555 1_555
C31 C30 1_555 1_555
H30 C31 1_555 1_555
C32 C27 1_555 1_555
H31 C32 1_555 1_555
C33 N2 1_555 1_555
C34 N2 1_555 1_555
H32 C34 1_555 1_555
H33 C34 1_555 1_555
C35 C34 1_555 1_555
C36 C35 1_555 1_555
H34 C36 1_555 1_555
C37 C36 1_555 1_555
H35 C37 1_555 1_555
C38 C37 1_555 1_555
H36 C38 1_555 1_555
C39 C38 1_555 1_555
H37 C39 1_555 1_555
C40 C35 1_555 1_555
H38 C40 1_555 1_555
O7 C42 1_555 1_555
C41 H39 1_555 1_555
H40 C41 1_555 1_555
H41 C41 1_555 1_555
C42 C41 1_555 1_555
H42 C42 1_555 1_555
H43 C42 1_555 1_555
C43 O7 1_555 1_555
H44 C43 1_555 1_555
H45 C43 1_555 1_555
C44 C43 1_555 1_555
H46 C44 1_555 1_555
H47 C44 1_555 1_555
H48 C44 1_555 1_555
C5 C6 1_555 1_555
C8 C33 1_555 1_555
C10 C11 1_555 1_555
C10 C21 1_555 1_555
C19 C20 1_555 1_555
C31 C32 1_555 1_555
C39 C40 1_555 1_555

#END
