
#######################################################################
#
#                 Cambridge Crystallographic Data Centre
#                                CCDC 
#
#######################################################################
#
# If this CIF has been generated from an entry in the Cambridge 
# Structural Database, then it will include bibliographic, chemical, 
# crystal, experimental, refinement or atomic coordinate data resulting 
# from the CCDC's data processing and validation procedures.
#
#######################################################################

data_BIBZUJ03
_chemical_formula_moiety         'C40 H28 N4 S2'
_chemical_name_systematic        
4,4'-[1,3]thiazolo[5,4-d][1,3]thiazole-2,5-diylbis(N,N-diphenylaniline)
_symmetry_cell_setting           monoclinic
_symmetry_space_group_name_H-M   'P 21/c'
_symmetry_Int_Tables_number      14
_space_group_name_Hall           '-P 2ybc'
loop_
_symmetry_equiv_pos_site_id
_symmetry_equiv_pos_as_xyz
1 x,y,z
2 -x,1/2+y,1/2-z
3 -x,-y,-z
4 x,1/2-y,1/2+z
_cell_length_a                   9.793(2)
_cell_length_b                   17.022(3)
_cell_length_c                   11.725(5)
_cell_angle_alpha                90
_cell_angle_beta                 125.757(19)
_cell_angle_gamma                90
_cell_volume                     1586.09
_cell_formula_units_Z            2
loop_
_atom_site_label
_atom_site_type_symbol
_atom_site_fract_x
_atom_site_fract_y
_atom_site_fract_z
S1 S 0.55920(5) 0.61428(2) -0.43006(4)
N1 N 0.62691(15) 0.47432(7) -0.31700(12)
N2 N 1.04612(15) 0.66584(8) 0.27506(12)
C1 C 0.76028(16) 0.57978(8) -0.14204(14)
C2 C 0.80909(17) 0.65860(9) -0.11286(15)
H1 H 0.7777 0.6926 -0.1865
C3 C 0.81242(18) 0.53013(9) -0.02874(15)
H2 H 0.7828 0.4773 -0.0454
C4 C 0.95286(17) 0.63699(9) 0.13510(14)
C5 C 0.65614(16) 0.54944(8) -0.28622(14)
C6 C 1.18137(17) 0.71909(8) 0.32348(14)
C7 C 1.00038(18) 0.64060(9) 0.36461(15)
C8 C 1.27988(18) 0.71364(9) 0.27355(15)
H3 H 1.2570 0.6749 0.2087
C9 C 1.1212(2) 0.62131(9) 0.50414(16)
H4 H 1.2348 0.6251 0.5412
C10 C 0.90293(18) 0.68686(9) 0.02309(15)
H5 H 0.9330 0.7396 0.0399
C11 C 1.41175(18) 0.76553(10) 0.31979(16)
H6 H 1.4749 0.7621 0.2840
C12 C 0.90710(19) 0.55795(9) 0.10763(15)
H7 H 0.9405 0.5238 0.1816
C13 C 1.4499(2) 0.82216(11) 0.41855(17)
H8 H 1.5388 0.8567 0.4499
C14 C 0.83116(19) 0.63411(10) 0.31123(16)
H9 H 0.7487 0.6475 0.2182
C15 C 0.7851(2) 0.60777(10) 0.3960(2)
H10 H 0.6718 0.6029 0.3592
C16 C 1.0735(2) 0.59643(10) 0.58851(17)
H11 H 1.1555 0.5848 0.6825
C17 C 1.21930(19) 0.77684(10) 0.42195(16)
H12 H 1.1539 0.7819 0.4554
C18 C 0.9065(2) 0.58873(10) 0.53498(19)
H13 H 0.8754 0.5709 0.5917
C19 C 1.3550(2) 0.82703(10) 0.47032(17)
H14 H 1.3820 0.8643 0.5385
C20 C 0.47459(16) 0.53334(8) -0.53987(14)
S1B S 0.44080(5) 0.38572(2) -0.56994(4)
N1B N 0.37309(15) 0.52568(7) -0.68300(12)
N2B N -0.04612(15) 0.33416(8) -1.27506(12)
C1B C 0.23972(16) 0.42022(8) -0.85796(14)
C2B C 0.19091(17) 0.34140(9) -0.88714(15)
H1B H 0.2223 0.3074 -0.8135
C3B C 0.18758(18) 0.46987(9) -0.97126(15)
H2B H 0.2172 0.5227 -0.9546
C4B C 0.04714(17) 0.36301(9) -1.13510(14)
C5B C 0.34386(16) 0.45056(8) -0.71378(14)
C6B C -0.18137(17) 0.28091(8) -1.32348(14)
C7B C -0.00038(18) 0.35940(9) -1.36461(15)
C8B C -0.27988(18) 0.28636(9) -1.27355(15)
H3B H -0.2570 0.3251 -1.2087
C9B C -0.1212(2) 0.37869(9) -1.50414(16)
H4B H -0.2348 0.3749 -1.5412
C10B C 0.09707(18) 0.31314(9) -1.02309(15)
H5B H 0.0670 0.2604 -1.0399
C11B C -0.41175(18) 0.23447(10) -1.31979(16)
H6B H -0.4749 0.2379 -1.2840
C12B C 0.09290(19) 0.44205(9) -1.10763(15)
H7B H 0.0595 0.4762 -1.1816
C13B C -0.4499(2) 0.17784(11) -1.41855(17)
H8B H -0.5388 0.1433 -1.4499
C14B C 0.16884(19) 0.36589(10) -1.31123(16)
H9B H 0.2513 0.3525 -1.2182
C15B C 0.2149(2) 0.39223(10) -1.3960(2)
H10B H 0.3282 0.3971 -1.3592
C16B C -0.0735(2) 0.40357(10) -1.58851(17)
H11B H -0.1555 0.4152 -1.6825
C17B C -0.21930(19) 0.22316(10) -1.42195(16)
H12B H -0.1539 0.2181 -1.4554
C18B C 0.0935(2) 0.41127(10) -1.53498(19)
H13B H 0.1246 0.4291 -1.5917
C19B C -0.3550(2) 0.17297(10) -1.47032(17)
H14B H -0.3820 0.1357 -1.5385
C20B C 0.52541(16) 0.46666(8) -0.46013(14)
loop_
_geom_bond_atom_site_label_1
_geom_bond_atom_site_label_2
_geom_bond_site_symmetry_1
_geom_bond_site_symmetry_2
S1 C5 1_555 1_555
N1 C5 1_555 1_555
N2 C4 1_555 1_555
C1 C2 1_555 1_555
C2 H1 1_555 1_555
C3 C1 1_555 1_555
H2 C3 1_555 1_555
C4 C10 1_555 1_555
C5 C1 1_555 1_555
C6 N2 1_555 1_555
C7 N2 1_555 1_555
C8 C6 1_555 1_555
H3 C8 1_555 1_555
C9 C7 1_555 1_555
H4 C9 1_555 1_555
C10 C2 1_555 1_555
H5 C10 1_555 1_555
C11 C8 1_555 1_555
H6 C11 1_555 1_555
C12 C3 1_555 1_555
H7 C12 1_555 1_555
C13 C11 1_555 1_555
H8 C13 1_555 1_555
C14 C7 1_555 1_555
H9 C14 1_555 1_555
C15 C14 1_555 1_555
H10 C15 1_555 1_555
C16 C9 1_555 1_555
H11 C16 1_555 1_555
C17 C6 1_555 1_555
H12 C17 1_555 1_555
C18 C15 1_555 1_555
H13 C18 1_555 1_555
C19 C13 1_555 1_555
H14 C19 1_555 1_555
C20 S1 1_555 1_555
S1B C5B 1_555 1_555
N1B C20 1_555 1_555
N2B C4B 1_555 1_555
C1B C2B 1_555 1_555
C2B H1B 1_555 1_555
C3B C1B 1_555 1_555
H2B C3B 1_555 1_555
C4B C10B 1_555 1_555
C5B N1B 1_555 1_555
C6B N2B 1_555 1_555
C7B N2B 1_555 1_555
C8B C6B 1_555 1_555
H3B C8B 1_555 1_555
C9B C7B 1_555 1_555
H4B C9B 1_555 1_555
C10B C2B 1_555 1_555
H5B C10B 1_555 1_555
C11B C8B 1_555 1_555
H6B C11B 1_555 1_555
C12B C3B 1_555 1_555
H7B C12B 1_555 1_555
C13B C11B 1_555 1_555
H8B C13B 1_555 1_555
C14B C7B 1_555 1_555
H9B C14B 1_555 1_555
C15B C14B 1_555 1_555
H10B C15B 1_555 1_555
C16B C9B 1_555 1_555
H11B C16B 1_555 1_555
C17B C6B 1_555 1_555
H12B C17B 1_555 1_555
C18B C15B 1_555 1_555
H13B C18B 1_555 1_555
C19B C13B 1_555 1_555
H14B C19B 1_555 1_555
C20B N1 1_555 1_555
C4 C12 1_555 1_555
C16 C18 1_555 1_555
C17 C19 1_555 1_555
C20 C20B 1_555 1_555
S1B C20B 1_555 1_555
C1B C5B 1_555 1_555
C4B C12B 1_555 1_555
C16B C18B 1_555 1_555
C17B C19B 1_555 1_555

#END
