
#######################################################################
#
#                 Cambridge Crystallographic Data Centre
#                                CCDC 
#
#######################################################################
#
# If this CIF has been generated from an entry in the Cambridge 
# Structural Database, then it will include bibliographic, chemical, 
# crystal, experimental, refinement or atomic coordinate data resulting 
# from the CCDC's data processing and validation procedures.
#
#######################################################################

data_BICMIM
_chemical_formula_moiety         'C12 H24 O6,2(B1 F4 1-),2(H3 O1 1+)'
_chemical_name_systematic        
'bis(Oxonium) 1,4,7,10,13,16-hexaoxacyclooctadecane bis(tetrafluoroborate)'
_symmetry_cell_setting           triclinic
_symmetry_space_group_name_H-M   'P -1'
_symmetry_Int_Tables_number      2
_space_group_name_Hall           '-P 1'
loop_
_symmetry_equiv_pos_site_id
_symmetry_equiv_pos_as_xyz
1 x,y,z
2 -x,-y,-z
_cell_length_a                   7.3420(15)
_cell_length_b                   8.3560(17)
_cell_length_c                   10.378(2)
_cell_angle_alpha                93.36(3)
_cell_angle_beta                 108.64(3)
_cell_angle_gamma                112.15(3)
_cell_volume                     547.006
_cell_formula_units_Z            1
loop_
_atom_site_label
_atom_site_type_symbol
_atom_site_fract_x
_atom_site_fract_y
_atom_site_fract_z
O1 O 0.7071(5) 0.1746(5) -0.0066(4)
H1 H 0.7333 0.1444 0.0718
H2 H 0.671(16) 0.118(13) -0.081(11)
C1 C 0.0379(7) 0.8029(6) 0.6625(5)
H3 H -0.0456 0.7252 0.7080
H4 H -0.0326 0.7580 0.5630
C2 C 0.2450(7) 0.6390(6) 0.6851(5)
H5 H 0.1902 0.5908 0.5864
H6 H 0.1564 0.5585 0.7264
C3 C 0.4688(7) 0.6592(7) 0.7504(5)
H7 H 0.4762 0.5483 0.7267
H8 H 0.5596 0.7479 0.7154
C4 C 0.7497(7) 0.7255(7) 0.9664(5)
H9 H 0.8471 0.8141 0.9352
H10 H 0.7557 0.6138 0.9437
C5 C 0.8131(8) 0.7759(7) 1.1186(5)
H11 H 0.7012 0.7014 1.1470
H12 H 0.9394 0.7585 1.1657
C6 C 0.9476(7) 1.0179(7) 1.3040(5)
H13 H 1.0879 1.0197 1.3389
H14 H 0.8627 0.9395 1.3484
O2 O 0.2416(4) 0.8047(4) 0.7067(3)
O3 O 0.5388(4) 0.7100(4) 0.8966(3)
O4 O 0.8533(4) 0.9546(4) 1.1566(3)
C1A C 0.9621(7) 1.1971(6) 1.3375(5)
H3A H 1.0456 1.2748 1.2920
H4A H 1.0326 1.2420 1.4370
C2A C 0.7550(7) 1.3610(6) 1.3149(5)
H5A H 0.8098 1.4092 1.4136
H6A H 0.8436 1.4415 1.2736
C3A C 0.5312(7) 1.3408(7) 1.2496(5)
H7A H 0.5238 1.4517 1.2733
H8A H 0.4404 1.2521 1.2846
C4A C 0.2503(7) 1.2745(7) 1.0336(5)
H9A H 0.1529 1.1859 1.0648
H10A H 0.2443 1.3862 1.0563
C5A C 0.1869(8) 1.2241(7) 0.8814(5)
H11A H 0.2988 1.2986 0.8530
H12A H 0.0606 1.2415 0.8343
C6A C 0.0524(7) 0.9821(7) 0.6960(5)
H13A H -0.0879 0.9803 0.6611
H14A H 0.1373 1.0605 0.6516
O2A O 0.7584(4) 1.1953(4) 1.2933(3)
O3A O 0.4612(4) 1.2900(4) 1.1034(3)
O4A O 0.1467(4) 1.0454(4) 0.8434(3)
B1 B 0.6273(8) 0.2350(7) 0.6523(5)
F1 F 0.7274(8) 0.2000(7) 0.5748(5)
F2 F 0.7590(6) 0.3907(4) 0.7430(4)
F3 F 0.4412(5) 0.2390(6) 0.5733(4)
F4 F 0.5901(5) 0.0995(4) 0.7372(3)
loop_
_geom_bond_atom_site_label_1
_geom_bond_atom_site_label_2
_geom_bond_site_symmetry_1
_geom_bond_site_symmetry_2
O1 H1 1_555 1_555
H2 O1 1_555 1_555
C1 H3 1_555 1_555
H4 C1 1_555 1_555
C2 H5 1_555 1_555
H6 C2 1_555 1_555
C3 C2 1_555 1_555
H7 C3 1_555 1_555
H8 C3 1_555 1_555
C4 H9 1_555 1_555
H10 C4 1_555 1_555
C5 C4 1_555 1_555
H11 C5 1_555 1_555
H12 C5 1_555 1_555
C6 H13 1_555 1_555
H14 C6 1_555 1_555
O2 C1 1_555 1_555
O3 C3 1_555 1_555
O4 C5 1_555 1_555
B1 F1 1_555 1_555
F2 B1 1_555 1_555
F3 B1 1_555 1_555
F4 B1 1_555 1_555
C1A C6 1_555 1_555
H3A C1A 1_555 1_555
H4A C1A 1_555 1_555
C2A H5A 1_555 1_555
H6A C2A 1_555 1_555
C3A C2A 1_555 1_555
H7A C3A 1_555 1_555
H8A C3A 1_555 1_555
C4A H9A 1_555 1_555
H10A C4A 1_555 1_555
C5A C4A 1_555 1_555
H11A C5A 1_555 1_555
H12A C5A 1_555 1_555
C6A C1 1_555 1_555
H13A C6A 1_555 1_555
H14A C6A 1_555 1_555
O2A C1A 1_555 1_555
O3A C3A 1_555 1_555
O4A C5A 1_555 1_555
C2 O2 1_555 1_555
C4 O3 1_555 1_555
C6 O4 1_555 1_555
C2A O2A 1_555 1_555
C4A O3A 1_555 1_555
C6A O4A 1_555 1_555

#END
