
#######################################################################
#
#                 Cambridge Crystallographic Data Centre
#                                CCDC 
#
#######################################################################
#
# If this CIF has been generated from an entry in the Cambridge 
# Structural Database, then it will include bibliographic, chemical, 
# crystal, experimental, refinement or atomic coordinate data resulting 
# from the CCDC's data processing and validation procedures.
#
#######################################################################

data_BIDGEC
_chemical_formula_moiety         'C6 H6 N8 O9 2-,2(C1 H6 N3 1+),H2 O1'
_chemical_name_systematic        
"bis(Guanidinium) N,N'-1,2,5-oxadiazole-3,4-diylbis(1,1-dinitroethanidamine) monohydrate"
_symmetry_cell_setting           triclinic
_symmetry_space_group_name_H-M   'P -1'
_symmetry_Int_Tables_number      2
_space_group_name_Hall           '-P 1'
loop_
_symmetry_equiv_pos_site_id
_symmetry_equiv_pos_as_xyz
1 x,y,z
2 -x,-y,-z
_cell_length_a                   7.359(2)
_cell_length_b                   9.487(3)
_cell_length_c                   14.286(4)
_cell_angle_alpha                96.444(19)
_cell_angle_beta                 101.750(11)
_cell_angle_gamma                101.692(13)
_cell_volume                     943.879
_exptl_crystal_colour            yellow
_exptl_crystal_description       Prism
_cell_formula_units_Z            2
loop_
_atom_site_label
_atom_site_type_symbol
_atom_site_fract_x
_atom_site_fract_y
_atom_site_fract_z
O1 O 0.5752(3) 0.6287(2) 0.43063(14)
O2 O 1.2393(3) 1.18363(19) 0.76119(13)
O3 O 1.2337(3) 1.0828(2) 0.89059(12)
O4 O 0.9896(3) 0.83724(19) 0.87057(12)
O5 O 0.8047(2) 0.76189(19) 0.72605(13)
O6 O 1.2165(2) 0.74278(19) 0.28193(13)
O7 O 1.0275(3) 0.6760(2) 0.13768(13)
O8 O 0.7791(3) 0.4325(2) 0.11350(12)
O9 O 0.7732(2) 0.32299(18) 0.23920(12)
C1 C 0.8783(3) 0.6528(3) 0.44491(17)
C2 C 0.8464(4) 0.7655(3) 0.51262(17)
C3 C 0.9424(3) 0.9800(3) 0.64179(16)
H1 H 0.8024 0.9675 0.6303
H2 H 0.9966 1.0780 0.6285
C4 C 1.0205(3) 0.9722(2) 0.74584(17)
C5 C 1.0719(3) 0.5219(3) 0.36213(16)
H3 H 1.0082 0.4258 0.3747
H4 H 1.2095 0.5243 0.3709
C6 C 0.9931(3) 0.5351(2) 0.25942(16)
N1 N 0.7144(3) 0.5695(3) 0.39611(16)
N2 N 0.6634(3) 0.7508(3) 0.50357(17)
N3 N 0.9842(3) 0.8699(2) 0.57419(15)
H5 H 1.109(4) 0.852(3) 0.571(2)
N4 N 1.1692(3) 1.0818(2) 0.80257(14)
N5 N 0.9391(3) 0.8550(2) 0.78434(14)
N6 N 1.0494(3) 0.6350(2) 0.43367(14)
H6 H 1.154(4) 0.704(3) 0.475(2)
N7 N 1.0788(3) 0.6541(2) 0.22292(14)
N8 N 0.8446(3) 0.4287(2) 0.20123(14)
O10 O 1.3727(3) 0.7853(2) 0.60596(14)
H7 H 1.4708 0.7893 0.5827
H8 H 1.3500 0.7051 0.6281
C7 C 0.3582(3) 0.5052(3) 0.11400(17)
N9 N 0.4125(3) 0.4832(3) 0.20494(16)
N10 N 0.2179(3) 0.4076(3) 0.05311(17)
N11 N 0.4437(3) 0.6237(2) 0.08500(17)
H9 H 0.350(5) 0.397(4) 0.222(3)
H10 H 0.508(6) 0.549(4) 0.251(3)
H11 H 0.193(5) 0.417(4) 0.000(3)
H12 H 0.164(5) 0.335(4) 0.075(2)
H13 H 0.538(5) 0.670(4) 0.119(2)
H14 H 0.408(5) 0.640(4) 0.027(3)
C8 C 0.3722(3) 0.0150(3) 0.12173(17)
N12 N 0.4269(3) -0.0050(2) 0.21298(16)
N13 N 0.2418(3) -0.0869(2) 0.05894(17)
N14 N 0.4511(3) 0.1362(3) 0.09336(18)
H15 H 0.502(5) 0.071(4) 0.264(2)
H16 H 0.367(5) -0.094(4) 0.231(2)
H17 H 0.190(5) -0.151(4) 0.081(2)
H18 H 0.215(5) -0.071(4) -0.001(3)
H19 H 0.542(6) 0.189(4) 0.128(3)
H20 H 0.421(5) 0.149(4) 0.037(3)
loop_
_geom_bond_atom_site_label_1
_geom_bond_atom_site_label_2
_geom_bond_site_symmetry_1
_geom_bond_site_symmetry_2
O1 N1 1_555 1_555
O2 N4 1_555 1_555
O3 N4 1_555 1_555
O4 N5 1_555 1_555
O5 N5 1_555 1_555
O6 N7 1_555 1_555
O7 N7 1_555 1_555
O8 N8 1_555 1_555
O9 N8 1_555 1_555
C1 C2 1_555 1_555
C2 N2 1_555 1_555
C3 H1 1_555 1_555
H2 C3 1_555 1_555
C4 C3 1_555 1_555
C5 H3 1_555 1_555
H4 C5 1_555 1_555
C6 C5 1_555 1_555
N1 C1 1_555 1_555
N2 O1 1_555 1_555
N3 C2 1_555 1_555
H5 N3 1_555 1_555
N4 C4 1_555 1_555
N5 C4 1_555 1_555
N6 C1 1_555 1_555
H6 N6 1_555 1_555
N7 C6 1_555 1_555
N8 C6 1_555 1_555
O10 H7 1_555 1_555
H8 O10 1_555 1_555
C7 N9 1_555 1_555
N9 H9 1_555 1_555
N10 C7 1_555 1_555
N11 C7 1_555 1_555
H10 N9 1_555 1_555
H11 N10 1_555 1_555
H12 N10 1_555 1_555
H13 N11 1_555 1_555
H14 N11 1_555 1_555
C8 N12 1_555 1_555
N12 H15 1_555 1_555
N13 C8 1_555 1_555
N14 C8 1_555 1_555
H16 N12 1_555 1_555
H17 N13 1_555 1_555
H18 N13 1_555 1_555
H19 N14 1_555 1_555
H20 N14 1_555 1_555
C3 N3 1_555 1_555
C5 N6 1_555 1_555

#END
