
#######################################################################
#
#                 Cambridge Crystallographic Data Centre
#                                CCDC 
#
#######################################################################
#
# If this CIF has been generated from an entry in the Cambridge 
# Structural Database, then it will include bibliographic, chemical, 
# crystal, experimental, refinement or atomic coordinate data resulting 
# from the CCDC's data processing and validation procedures.
#
#######################################################################

data_BIDQAG
_chemical_formula_moiety         'C23 H18 Cl4 N2'
_chemical_name_systematic        
1,1-Dichloro-3-dichloromethyl-1a,3-diphenyl-1a,2,3,4-tetrahydro-1H-azirino(1,2-a)(1,5)benzodiazepine
_symmetry_cell_setting           triclinic
_symmetry_space_group_name_H-M   'P -1'
_symmetry_Int_Tables_number      2
_space_group_name_Hall           '-P 1'
loop_
_symmetry_equiv_pos_site_id
_symmetry_equiv_pos_as_xyz
1 x,y,z
2 -x,-y,-z
_cell_length_a                   9.621(7)
_cell_length_b                   9.694(9)
_cell_length_c                   12.669(6)
_cell_angle_alpha                107.99(5)
_cell_angle_beta                 101.42(5)
_cell_angle_gamma                69.94(6)
_cell_volume                     1050.02
_exptl_crystal_colour            colorless
_exptl_crystal_description       prismatic
_cell_formula_units_Z            2
loop_
_atom_site_label
_atom_site_type_symbol
_atom_site_fract_x
_atom_site_fract_y
_atom_site_fract_z
Cl1 Cl 0.1634(2) 0.6876(2) 0.2550(2)
Cl2 Cl 0.2169(2) 0.4363(2) 0.0556(2)
Cl3 Cl -0.1764(2) 0.1534(2) -0.0063(2)
Cl4 Cl -0.1782(2) -0.0032(2) 0.1535(2)
C1 C -0.2480(2) 0.4350(7) 0.2019(5)
C2 C -0.0143(7) 0.2115(7) 0.2106(7)
C3 C 0.0628(7) 0.2829(7) 0.1577(5)
C4 C 0.0970(7) 0.4271(7) 0.2424(5)
C5 C -0.1755(7) 0.5500(7) 0.2466(6)
C6 C -0.2542(7) 0.6945(7) 0.2374(6)
C7 C -0.3992(8) 0.7301(8) 0.1884(7)
C8 C -0.4674(7) 0.6181(9) 0.1454(7)
C9 C -0.3909(7) 0.4726(8) 0.1539(6)
C10 C -0.1370(7) 0.1527(7) 0.1337(7)
C11 C 0.0706(7) 0.1424(7) 0.3019(5)
C12 C 0.0034(8) 0.1750(7) 0.3997(6)
C13 C 0.0856(9) 0.1170(8) 0.4885(6)
C14 C 0.2317(9) 0.0280(8) 0.4829(7)
C15 C 0.2968(8) -0.0048(8) 0.3864(7)
C16 C 0.2167(7) 0.0511(7) 0.2965(6)
C17 C 0.2384(7) 0.3853(7) 0.3209(5)
C18 C 0.2330(7) 0.4223(7) 0.4354(6)
C19 C 0.3606(8) 0.3865(8) 0.5061(6)
C20 C 0.4972(8) 0.3149(8) 0.4653(7)
C21 C 0.5043(8) 0.2758(9) 0.3512(7)
C22 C 0.3753(7) 0.3106(8) 0.2803(6)
C23 C 0.1058(7) 0.5276(7) 0.1692(6)
N1 N -0.1741(6) 0.2888(6) 0.2215(5)
N2 N -0.0314(5) 0.5143(6) 0.3061(5)
loop_
_geom_bond_atom_site_label_1
_geom_bond_atom_site_label_2
_geom_bond_site_symmetry_1
_geom_bond_site_symmetry_2
Cl1 C23 1_555 1_555
Cl2 C23 1_555 1_555
Cl3 C10 1_555 1_555
Cl4 C10 1_555 1_555
C1 C5 1_555 1_555
C2 C3 1_555 1_555
C3 C4 1_555 1_555
C4 C17 1_555 1_555
C5 C6 1_555 1_555
C6 C7 1_555 1_555
C7 C8 1_555 1_555
C8 C9 1_555 1_555
C9 C1 1_555 1_555
C10 C2 1_555 1_555
C11 C2 1_555 1_555
C12 C11 1_555 1_555
C13 C12 1_555 1_555
C14 C13 1_555 1_555
C15 C14 1_555 1_555
C16 C11 1_555 1_555
C17 C18 1_555 1_555
C18 C19 1_555 1_555
C19 C20 1_555 1_555
C20 C21 1_555 1_555
C21 C22 1_555 1_555
C22 C17 1_555 1_555
C23 C4 1_555 1_555
N1 C1 1_555 1_555
N2 C4 1_555 1_555
C2 N1 1_555 1_555
C5 N2 1_555 1_555
C10 N1 1_555 1_555
C15 C16 1_555 1_555

#END
