
#######################################################################
#
#                 Cambridge Crystallographic Data Centre
#                                CCDC 
#
#######################################################################
#
# If this CIF has been generated from an entry in the Cambridge 
# Structural Database, then it will include bibliographic, chemical, 
# crystal, experimental, refinement or atomic coordinate data resulting 
# from the CCDC's data processing and validation procedures.
#
#######################################################################

data_BIDRUD
_chemical_formula_moiety         'C25 H34 N6 O6'
_chemical_name_systematic        
N,N'-Methylenebis(2-(2-isobutoxybenzoyl)hydrazinecarboxamide)
_symmetry_cell_setting           triclinic
_symmetry_space_group_name_H-M   'P -1'
_symmetry_Int_Tables_number      2
_space_group_name_Hall           '-P 1'
loop_
_symmetry_equiv_pos_site_id
_symmetry_equiv_pos_as_xyz
1 x,y,z
2 -x,-y,-z
_cell_length_a                   8.2833(17)
_cell_length_b                   11.337(2)
_cell_length_c                   14.145(3)
_cell_angle_alpha                88.66(3)
_cell_angle_beta                 84.99(3)
_cell_angle_gamma                80.94(3)
_cell_volume                     1306.68
_exptl_crystal_colour            colorless
_exptl_crystal_description       block
_cell_formula_units_Z            2
loop_
_atom_site_label
_atom_site_type_symbol
_atom_site_fract_x
_atom_site_fract_y
_atom_site_fract_z
O1 O 0.4760(4) 0.2795(3) 0.9708(3)
O2 O 0.7527(4) 0.5175(3) 0.8327(3)
O3 O 0.2946(4) 0.3608(3) 0.7398(3)
O4 O -0.0070(4) 0.7121(3) 0.5588(3)
O5 O -0.4374(4) 0.6700(3) 0.6325(3)
O6 O -0.3686(4) 1.0220(3) 0.6648(3)
N1 N 0.5414(5) 0.4175(4) 0.8258(3)
H1 H 0.4776 0.3694 0.8535
N2 N 0.5141(5) 0.4605(4) 0.7342(3)
H2 H 0.5817 0.5011 0.7008
N3 N 0.3328(5) 0.4955(4) 0.6203(3)
H3 H 0.3982 0.5417 0.5915
N4 N 0.0354(5) 0.5365(4) 0.6418(3)
H4 H -0.0040 0.4937 0.6884
N5 N -0.1539(5) 0.6931(4) 0.7024(3)
H5 H -0.1523 0.6596 0.7591
N6 N -0.2707(5) 0.7909(4) 0.6826(3)
H6 H -0.2536 0.8638 0.6935
C1 C 0.0983(8) 0.1385(7) 1.0117(5)
H7 H 0.0081 0.1373 0.9715
H8 H 0.0589 0.1883 1.0673
H9 H 0.1387 0.0570 1.0326
C2 C 0.2372(7) 0.1900(5) 0.9554(4)
H10 H 0.1900 0.2674 0.9259
C3 C 0.3192(8) 0.1060(6) 0.8764(5)
H11 H 0.3658 0.0295 0.9041
H12 H 0.4068 0.1418 0.8411
H13 H 0.2376 0.0928 0.8332
C4 C 0.3596(7) 0.2146(5) 1.0226(4)
H14 H 0.3027 0.2625 1.0768
H15 H 0.4170 0.1386 1.0475
C5 C 0.5945(6) 0.3198(5) 1.0188(4)
C6 C 0.6275(6) 0.2813(5) 1.1109(4)
H16 H 0.5671 0.2258 1.1434
C7 C 0.7489(6) 0.3249(5) 1.1539(4)
H17 H 0.7726 0.2984 1.2161
C8 C 0.8368(7) 0.4069(5) 1.1076(4)
H18 H 0.9190 0.4374 1.1383
C9 C 0.8041(6) 0.4438(5) 1.0168(4)
H19 H 0.8654 0.4995 0.9854
C10 C 0.6830(6) 0.4018(5) 0.9691(4)
C11 C 0.6615(6) 0.4477(5) 0.8718(4)
C12 C 0.3745(6) 0.4345(5) 0.7008(4)
C13 C 0.1776(6) 0.4832(5) 0.5823(4)
H20 H 0.1746 0.5212 0.5186
H21 H 0.1726 0.3973 0.5748
C14 C -0.0402(6) 0.6512(5) 0.6281(4)
C15 C -0.4106(6) 0.7731(5) 0.6465(4)
C16 C -0.5347(6) 0.8799(5) 0.6267(4)
C17 C -0.6814(6) 0.8572(5) 0.5955(4)
H22 H -0.7000 0.7768 0.5929
C18 C -0.8005(6) 0.9473(5) 0.5682(4)
H23 H -0.9002 0.9292 0.5480
C19 C -0.7731(6) 1.0653(5) 0.5706(4)
H24 H -0.8526 1.1279 0.5497
C20 C -0.6312(6) 1.0915(5) 0.6032(4)
H25 H -0.6143 1.1723 0.6059
C21 C -0.5127(6) 1.0004(5) 0.6321(4)
C22 C -0.3341(6) 1.1438(5) 0.6650(4)
H26 H -0.4157 1.1937 0.7085
H27 H -0.3377 1.1793 0.6004
C23 C -0.1600(8) 1.0910(7) 0.8003(5)
H28 H -0.2255 1.1508 0.8428
H29 H -0.0462 1.0773 0.8172
H30 H -0.2050 1.0160 0.8068
C24 C -0.1648(6) 1.1360(5) 0.6981(4)
H31 H -0.0891 1.0770 0.6571
C25 C -0.1044(7) 1.2560(5) 0.6858(5)
H32 H -0.1051 1.2812 0.6190
H33 H 0.0076 1.2484 0.7051
H34 H -0.1767 1.3158 0.7252
loop_
_geom_bond_atom_site_label_1
_geom_bond_atom_site_label_2
_geom_bond_site_symmetry_1
_geom_bond_site_symmetry_2
O1 C4 1_555 1_555
O2 C11 1_555 1_555
O3 C12 1_555 1_555
O4 C14 1_555 1_555
O5 C15 1_555 1_555
O6 C21 1_555 1_555
N1 H1 1_555 1_555
N2 N1 1_555 1_555
H2 N2 1_555 1_555
N3 H3 1_555 1_555
N4 H4 1_555 1_555
N5 H5 1_555 1_555
N6 N5 1_555 1_555
H6 N6 1_555 1_555
C1 H7 1_555 1_555
H8 C1 1_555 1_555
H9 C1 1_555 1_555
C2 C1 1_555 1_555
H10 C2 1_555 1_555
C3 C2 1_555 1_555
H11 C3 1_555 1_555
H12 C3 1_555 1_555
H13 C3 1_555 1_555
C4 C2 1_555 1_555
H14 C4 1_555 1_555
H15 C4 1_555 1_555
C5 O1 1_555 1_555
C6 C5 1_555 1_555
H16 C6 1_555 1_555
C7 C6 1_555 1_555
H17 C7 1_555 1_555
C8 C7 1_555 1_555
H18 C8 1_555 1_555
C9 C8 1_555 1_555
H19 C9 1_555 1_555
C10 C5 1_555 1_555
C11 N1 1_555 1_555
C12 N2 1_555 1_555
C13 N3 1_555 1_555
H20 C13 1_555 1_555
H21 C13 1_555 1_555
C14 N4 1_555 1_555
C15 N6 1_555 1_555
C16 C15 1_555 1_555
C17 C16 1_555 1_555
H22 C17 1_555 1_555
C18 C17 1_555 1_555
H23 C18 1_555 1_555
C19 C18 1_555 1_555
H24 C19 1_555 1_555
C20 C19 1_555 1_555
H25 C20 1_555 1_555
C21 C16 1_555 1_555
C22 O6 1_555 1_555
H26 C22 1_555 1_555
H27 C22 1_555 1_555
C23 H28 1_555 1_555
H29 C23 1_555 1_555
H30 C23 1_555 1_555
C24 C22 1_555 1_555
H31 C24 1_555 1_555
C25 C24 1_555 1_555
H32 C25 1_555 1_555
H33 C25 1_555 1_555
H34 C25 1_555 1_555
N3 C12 1_555 1_555
N4 C13 1_555 1_555
N5 C14 1_555 1_555
C9 C10 1_555 1_555
C10 C11 1_555 1_555
C20 C21 1_555 1_555
C23 C24 1_555 1_555

#END
