
#######################################################################
#
#                 Cambridge Crystallographic Data Centre
#                                CCDC 
#
#######################################################################
#
# If this CIF has been generated from an entry in the Cambridge 
# Structural Database, then it will include bibliographic, chemical, 
# crystal, experimental, refinement or atomic coordinate data resulting 
# from the CCDC's data processing and validation procedures.
#
#######################################################################

data_BIDZUL
_chemical_formula_moiety         'C21 H20 O3'
_chemical_name_systematic        
7-(Cyclopropylethynyl)-2-(4-methoxyphenyl)-2-methyl-2,3-dihydro-1-benzofuran-5-ol
_symmetry_cell_setting           monoclinic
_symmetry_space_group_name_H-M   'P 21/c'
_symmetry_Int_Tables_number      14
_space_group_name_Hall           '-P 2ybc'
loop_
_symmetry_equiv_pos_site_id
_symmetry_equiv_pos_as_xyz
1 x,y,z
2 -x,1/2+y,1/2-z
3 -x,-y,-z
4 x,1/2-y,1/2+z
_cell_length_a                   10.302(5)
_cell_length_b                   10.818(5)
_cell_length_c                   15.186(8)
_cell_angle_alpha                90
_cell_angle_beta                 99.154(6)
_cell_angle_gamma                90
_cell_volume                     1670.88
_exptl_crystal_colour            colorless
_exptl_crystal_description       block
_cell_formula_units_Z            4
loop_
_atom_site_label
_atom_site_type_symbol
_atom_site_fract_x
_atom_site_fract_y
_atom_site_fract_z
O1 O 0.7938(3) 0.7357(2) 0.57542(14)
O2 O 0.70875(15) 0.34795(13) 0.25625(9)
O3 O 0.6954(2) 0.33825(18) -0.10787(10)
H1 H 0.7032 0.2689 -0.1281
C1 C 0.9275(5) 0.7621(4) 0.6005(2)
H2 H 0.9754 0.6865 0.6138
H3 H 0.9393 0.8141 0.6524
H4 H 0.9597 0.8039 0.5525
C2 C 0.7579(3) 0.6619(2) 0.50161(17)
C3 C 0.8453(3) 0.6057(2) 0.45486(17)
H5 H 0.9353 0.6135 0.4737
C4 C 0.7979(2) 0.5369(2) 0.37887(15)
H6 H 0.8577 0.5007 0.3469
C5 C 0.6655(2) 0.5208(2) 0.34949(13)
C6 C 0.5794(3) 0.5775(3) 0.39911(18)
H7 H 0.4893 0.5680 0.3817
C7 C 0.6251(3) 0.6470(3) 0.4732(2)
H8 H 0.5655 0.6847 0.5046
C8 C 0.6162(2) 0.4529(2) 0.26344(14)
C9 C 0.4811(3) 0.3956(3) 0.2594(2)
H9 H 0.4589 0.3505 0.2047
H10 H 0.4173 0.4597 0.2621
H11 H 0.4814 0.3405 0.3090
C10 C 0.6253(3) 0.5312(2) 0.17880(14)
H12 H 0.5413 0.5686 0.1552
H13 H 0.6914 0.5954 0.1910
C11 C 0.6642(2) 0.4352(2) 0.11615(14)
C12 C 0.7123(2) 0.33330(19) 0.16606(13)
C13 C 0.7605(2) 0.2289(2) 0.12812(14)
C14 C 0.7541(2) 0.2309(2) 0.03395(14)
H14 H 0.7840 0.1629 0.0055
C15 C 0.7047(2) 0.3313(2) -0.01588(14)
C16 C 0.6617(2) 0.4360(2) 0.02472(14)
H15 H 0.6320 0.5051 -0.0090
C17 C 0.8186(2) 0.1271(2) 0.18118(15)
C18 C 0.8728(3) 0.0463(2) 0.22701(16)
C19 C 0.9475(3) -0.0477(3) 0.28319(18)
H16 H 1.0381 -0.0593 0.2726
C20 C 0.9280(5) -0.0664(4) 0.3761(2)
H17 H 1.0049 -0.0843 0.4200
H18 H 0.8614 -0.0168 0.3980
C21 C 0.8842(4) -0.1601(3) 0.3111(3)
H19 H 0.7903 -0.1692 0.2921
H20 H 0.9337 -0.2367 0.3141
loop_
_geom_bond_atom_site_label_1
_geom_bond_atom_site_label_2
_geom_bond_site_symmetry_1
_geom_bond_site_symmetry_2
O1 C1 1_555 1_555
O2 C8 1_555 1_555
O3 H1 1_555 1_555
C1 H2 1_555 1_555
H3 C1 1_555 1_555
H4 C1 1_555 1_555
C2 O1 1_555 1_555
C3 C2 1_555 1_555
H5 C3 1_555 1_555
C4 C3 1_555 1_555
H6 C4 1_555 1_555
C5 C4 1_555 1_555
C6 C5 1_555 1_555
H7 C6 1_555 1_555
C7 C2 1_555 1_555
H8 C7 1_555 1_555
C8 C5 1_555 1_555
C9 C8 1_555 1_555
H9 C9 1_555 1_555
H10 C9 1_555 1_555
H11 C9 1_555 1_555
C10 C8 1_555 1_555
H12 C10 1_555 1_555
H13 C10 1_555 1_555
C11 C10 1_555 1_555
C12 O2 1_555 1_555
C13 C12 1_555 1_555
C14 C13 1_555 1_555
H14 C14 1_555 1_555
C15 O3 1_555 1_555
C16 C11 1_555 1_555
H15 C16 1_555 1_555
C17 C13 1_555 1_555
C18 C17 1_555 1_555
C19 C18 1_555 1_555
H16 C19 1_555 1_555
C20 C19 1_555 1_555
H17 C20 1_555 1_555
H18 C20 1_555 1_555
C21 C19 1_555 1_555
H19 C21 1_555 1_555
H20 C21 1_555 1_555
C6 C7 1_555 1_555
C11 C12 1_555 1_555
C14 C15 1_555 1_555
C15 C16 1_555 1_555
C20 C21 1_555 1_555

#END
