
#######################################################################
#
#                 Cambridge Crystallographic Data Centre
#                                CCDC 
#
#######################################################################
#
# If this CIF has been generated from an entry in the Cambridge 
# Structural Database, then it will include bibliographic, chemical, 
# crystal, experimental, refinement or atomic coordinate data resulting 
# from the CCDC's data processing and validation procedures.
#
#######################################################################

data_BIFBAV
_chemical_formula_moiety         'C27 H30 N2 O3 S2'
_chemical_name_systematic        
N-Benzyl-N-(3-((t-butylsulfinyl)amino)-3-phenylprop-1-yn-1-yl)-4-methylbenzenesulfonamide
_symmetry_cell_setting           orthorhombic
_symmetry_space_group_name_H-M   'P 21 21 21'
_symmetry_Int_Tables_number      19
_space_group_name_Hall           'P 2ac 2ab'
loop_
_symmetry_equiv_pos_site_id
_symmetry_equiv_pos_as_xyz
1 x,y,z
2 1/2-x,-y,1/2+z
3 -x,1/2+y,1/2-z
4 1/2+x,1/2-y,-z
_cell_length_a                   6.2139(7)
_cell_length_b                   15.0497(17)
_cell_length_c                   26.986(3)
_cell_angle_alpha                90
_cell_angle_beta                 90
_cell_angle_gamma                90
_cell_volume                     2523.66
_exptl_crystal_colour            colorless
_exptl_crystal_description       Needle
_cell_formula_units_Z            4
loop_
_atom_site_label
_atom_site_type_symbol
_atom_site_fract_x
_atom_site_fract_y
_atom_site_fract_z
S1 S 0.84365(10) 0.49580(4) 0.47650(2)
S2 S 0.50635(12) 0.39133(5) 0.73089(2)
O1 O 0.6630(3) 0.52097(12) 0.44354(6)
O2 O 0.7329(3) 0.39054(14) 0.72237(7)
O3 O 0.4213(3) 0.42020(13) 0.77721(7)
N1 N 0.7686(3) 0.50083(14) 0.53609(7)
H1 H 0.697(4) 0.5526(9) 0.5416(9)
N2 N 0.4051(3) 0.46169(14) 0.68892(8)
C1 C 1.0287(4) 0.59175(16) 0.47655(10)
C2 C 1.2029(4) 0.57553(18) 0.51494(12)
H2 H 1.3216 0.6173 0.5096
H3 H 1.2564 0.5145 0.5118
H4 H 1.1431 0.5843 0.5482
C3 C 1.1216(5) 0.5920(2) 0.42411(11)
H5 H 1.2216 0.6419 0.4205
H6 H 1.0045 0.5980 0.4000
H7 H 1.1984 0.5361 0.4182
C4 C 0.9017(5) 0.67637(17) 0.48653(12)
H8 H 0.9939 0.7281 0.4806
H9 H 0.8528 0.6767 0.5210
H10 H 0.7769 0.6788 0.4644
C5 C 0.6432(4) 0.42228(15) 0.55293(9)
H11 H 0.5265 0.4094 0.5285
C6 C 0.7854(4) 0.34072(16) 0.55866(8)
C7 C 0.9906(4) 0.34853(17) 0.57891(9)
H12 H 1.0480 0.4056 0.5860
C8 C 1.1107(4) 0.27353(18) 0.58867(9)
H13 H 1.2502 0.2792 0.6027
C9 C 1.0292(5) 0.19025(18) 0.57815(9)
H14 H 1.1122 0.1387 0.5850
C10 C 0.8266(5) 0.18249(17) 0.55770(9)
H15 H 0.7702 0.1252 0.5505
C11 C 0.7045(4) 0.25748(16) 0.54748(9)
H16 H 0.5661 0.2517 0.5329
C12 C 0.5468(4) 0.44239(16) 0.60144(10)
C13 C 0.4788(4) 0.45145(16) 0.64174(9)
C14 C 0.4012(4) 0.28659(17) 0.71632(9)
C15 C 0.1949(4) 0.26502(19) 0.73266(10)
H17 H 0.1145 0.3060 0.7520
C16 C 0.1095(5) 0.1838(2) 0.72046(10)
H18 H -0.0313 0.1690 0.7314
C17 C 0.2252(5) 0.12246(19) 0.69227(10)
C18 C 0.4302(5) 0.1451(2) 0.67643(10)
H19 H 0.5114 0.1038 0.6575
C19 C 0.5180(5) 0.22711(18) 0.68784(9)
H20 H 0.6575 0.2425 0.6762
C20 C 0.1248(5) 0.0340(2) 0.67861(11)
H21 H -0.0194 0.0300 0.6932
H22 H 0.2145 -0.0144 0.6914
H23 H 0.1143 0.0293 0.6425
C21 C 0.1799(4) 0.49415(18) 0.69521(10)
H24 H 0.1419 0.4939 0.7308
H25 H 0.0799 0.4537 0.6778
C22 C 0.1556(4) 0.58742(16) 0.67470(9)
C23 C 0.3154(5) 0.65067(18) 0.67963(10)
H26 H 0.4489 0.6351 0.6944
C24 C 0.2814(5) 0.7369(2) 0.66305(10)
H27 H 0.3927 0.7799 0.6660
C25 C 0.0873(5) 0.7604(2) 0.64237(11)
H28 H 0.0634 0.8196 0.6316
C26 C -0.0717(5) 0.6977(2) 0.63738(11)
H29 H -0.2056 0.7137 0.6229
C27 C -0.0381(4) 0.6111(2) 0.65339(10)
H30 H -0.1486 0.5680 0.6497
loop_
_geom_bond_atom_site_label_1
_geom_bond_atom_site_label_2
_geom_bond_site_symmetry_1
_geom_bond_site_symmetry_2
S1 O1 1_555 1_555
S2 O2 1_555 1_555
O3 S2 1_555 1_555
N1 S1 1_555 1_555
H1 N1 1_555 1_555
N2 S2 1_555 1_555
C1 S1 1_555 1_555
C2 C1 1_555 1_555
H2 C2 1_555 1_555
H3 C2 1_555 1_555
H4 C2 1_555 1_555
C3 C1 1_555 1_555
H5 C3 1_555 1_555
H6 C3 1_555 1_555
H7 C3 1_555 1_555
C4 C1 1_555 1_555
H8 C4 1_555 1_555
H9 C4 1_555 1_555
H10 C4 1_555 1_555
C5 N1 1_555 1_555
H11 C5 1_555 1_555
C6 C5 1_555 1_555
C7 C6 1_555 1_555
H12 C7 1_555 1_555
C8 C7 1_555 1_555
H13 C8 1_555 1_555
C9 C8 1_555 1_555
H14 C9 1_555 1_555
C10 C9 1_555 1_555
H15 C10 1_555 1_555
C11 C6 1_555 1_555
H16 C11 1_555 1_555
C12 C5 1_555 1_555
C13 N2 1_555 1_555
C14 S2 1_555 1_555
C15 C14 1_555 1_555
H17 C15 1_555 1_555
C16 C15 1_555 1_555
H18 C16 1_555 1_555
C17 C16 1_555 1_555
C18 C17 1_555 1_555
H19 C18 1_555 1_555
C19 C14 1_555 1_555
H20 C19 1_555 1_555
C20 C17 1_555 1_555
H21 C20 1_555 1_555
H22 C20 1_555 1_555
H23 C20 1_555 1_555
C21 N2 1_555 1_555
H24 C21 1_555 1_555
H25 C21 1_555 1_555
C22 C21 1_555 1_555
C23 C22 1_555 1_555
H26 C23 1_555 1_555
C24 C23 1_555 1_555
H27 C24 1_555 1_555
C25 C24 1_555 1_555
H28 C25 1_555 1_555
C26 C25 1_555 1_555
H29 C26 1_555 1_555
C27 C22 1_555 1_555
H30 C27 1_555 1_555
C10 C11 1_555 1_555
C12 C13 1_555 1_555
C18 C19 1_555 1_555
C26 C27 1_555 1_555

#END
