
#######################################################################
#
#                 Cambridge Crystallographic Data Centre
#                                CCDC 
#
#######################################################################
#
# If this CIF has been generated from an entry in the Cambridge 
# Structural Database, then it will include bibliographic, chemical, 
# crystal, experimental, refinement or atomic coordinate data resulting 
# from the CCDC's data processing and validation procedures.
#
#######################################################################

data_BIFPEL
_chemical_formula_moiety         'C5 H11 N1 O2'
_chemical_name_systematic        't-Butyl carbamate'
_symmetry_cell_setting           monoclinic
_symmetry_space_group_name_H-M   'P 21/c'
_symmetry_Int_Tables_number      14
_space_group_name_Hall           '-P 2ybc'
loop_
_symmetry_equiv_pos_site_id
_symmetry_equiv_pos_as_xyz
1 x,y,z
2 -x,1/2+y,1/2-z
3 -x,-y,-z
4 x,1/2-y,1/2+z
_cell_length_a                   5.255(1)
_cell_length_b                   10.325(1)
_cell_length_c                   13.037(2)
_cell_angle_alpha                90
_cell_angle_beta                 81.73(2)
_cell_angle_gamma                90
_cell_volume                     700.004
_cell_formula_units_Z            4
loop_
_atom_site_label
_atom_site_type_symbol
_atom_site_fract_x
_atom_site_fract_y
_atom_site_fract_z
C1 C 0.49390 0.91790 0.35560
C2 C 0.67600 0.85340 0.17970
C3 C 0.83530 0.74200 0.21320
C4 C 0.54530 0.81120 0.08900
C5 C 0.83140 0.97590 0.15530
N1 N 0.26870 0.92950 0.41730
O1 O 0.70210 0.93940 0.38260
O2 O 0.45790 0.87900 0.26020
H1 H 0.98400 0.70200 0.16400
H2 H 0.93400 0.78500 0.26400
H3 H 0.75000 0.66900 0.25600
H4 H 0.42000 0.87700 0.06300
H5 H 0.46500 0.71900 0.09400
H6 H 0.67300 0.79600 0.01700
H7 H 0.73700 1.05800 0.14500
H8 H 0.93400 1.00400 0.21800
H9 H 0.98700 0.97200 0.09700
H10 H 0.26800 0.95900 0.48600
H11 H 0.10800 0.91200 0.38300
loop_
_geom_bond_atom_site_label_1
_geom_bond_atom_site_label_2
_geom_bond_site_symmetry_1
_geom_bond_site_symmetry_2
C1 N1 1_555 1_555
C2 C3 1_555 1_555
C3 H1 1_555 1_555
C4 C2 1_555 1_555
C5 C2 1_555 1_555
N1 H10 1_555 1_555
O1 C1 1_555 1_555
O2 C1 1_555 1_555
H2 C3 1_555 1_555
H3 C3 1_555 1_555
H4 C4 1_555 1_555
H5 C4 1_555 1_555
H6 C4 1_555 1_555
H7 C5 1_555 1_555
H8 C5 1_555 1_555
H9 C5 1_555 1_555
H11 N1 1_555 1_555
C2 O2 1_555 1_555

#END
