
#######################################################################
#
#                 Cambridge Crystallographic Data Centre
#                                CCDC 
#
#######################################################################
#
# If this CIF has been generated from an entry in the Cambridge 
# Structural Database, then it will include bibliographic, chemical, 
# crystal, experimental, refinement or atomic coordinate data resulting 
# from the CCDC's data processing and validation procedures.
#
#######################################################################

data_BIFSOA
_chemical_formula_moiety         'C20 H28 O4'
_chemical_name_systematic        
'Ethyl 3a,6,9-trimethyl-2,4-dioxo-1,2,3,3a,4,6,7,8,8a,9,10,10a-dodecahydrobenzo[f]azulene-5-carboxylate'
_symmetry_cell_setting           orthorhombic
_symmetry_space_group_name_H-M   'P 21 21 21'
_symmetry_Int_Tables_number      19
_space_group_name_Hall           'P 2ac 2ab'
loop_
_symmetry_equiv_pos_site_id
_symmetry_equiv_pos_as_xyz
1 x,y,z
2 1/2+x,1/2-y,-z
3 -x,1/2+y,1/2-z
4 1/2-x,-y,1/2+z
_cell_length_a                   6.2811(2)
_cell_length_b                   9.4985(5)
_cell_length_c                   31.822(2)
_cell_angle_alpha                90
_cell_angle_beta                 90
_cell_angle_gamma                90
_cell_volume                     1898.53
_exptl_crystal_colour            colorless
_exptl_crystal_description       prism
_cell_formula_units_Z            4
loop_
_atom_site_label
_atom_site_type_symbol
_atom_site_fract_x
_atom_site_fract_y
_atom_site_fract_z
O1 O 1.2033(4) 0.5494(3) 0.10620(9)
O2 O 1.0813(5) 0.8414(4) 0.12977(12)
O3 O 1.3102(6) 0.4683(4) -0.00317(12)
O4 O 1.2466(5) 0.8109(6) 0.19093(13)
C1 C 0.8882(6) 0.5729(5) 0.06578(11)
C2 C 0.8924(5) 0.5720(5) 0.14751(12)
C3 C 1.0082(6) 0.5671(4) 0.10654(12)
C4 C 0.7406(7) 0.4528(5) 0.15689(14)
C5 C 0.9449(6) 0.6727(6) 0.17504(12)
C6 C 1.1079(7) 0.7773(6) 0.16677(17)
C7 C 0.7890(8) 0.3187(5) 0.13091(15)
C8 C 1.1546(8) 0.4756(6) 0.01794(14)
C9 C 0.8535(8) 0.6806(6) 0.21904(13)
C10 C 0.8230(6) 0.4180(5) 0.05409(14)
C11 C 0.7026(8) 0.3293(6) 0.08595(16)
C12 C 0.6946(7) 0.6689(5) 0.06843(13)
C13 C 0.7654(8) 0.8278(7) 0.22879(17)
C14 C 1.0402(7) 0.6093(5) 0.02976(14)
C15 C 0.6885(11) 0.1863(6) 0.1507(2)
C16 C 0.6817(10) 0.5675(7) 0.22630(16)
C17 C 0.7381(10) 0.4328(7) 0.20462(16)
C18 C 1.0339(8) 0.3550(5) 0.03797(16)
C19 C 1.2282(14) 0.9891(8) 0.0794(2)
C20 C 1.2464(14) 0.9439(8) 0.1187(2)
H1 H 0.582(6) 0.483(4) 0.1491(12)
H2 H 0.9437 0.3058 0.1296
H3 H 0.9698 0.6622 0.2388
H4 H 0.7298 0.4256 0.0295
H5 H 0.6928 0.2345 0.0748
H6 H 0.5586 0.3658 0.0876
H7 H 0.9612 0.6455 0.0059
H8 H 1.1415 0.6804 0.0387
H9 H 0.6668 0.5504 0.2562
H10 H 0.5462 0.6013 0.2158
H11 H 0.6351 0.3608 0.2120
H12 H 0.8772 0.4015 0.2140
H13 H 1.1150 0.3152 0.0610
H14 H 1.0066 0.2816 0.0175
H15 H 1.2372 1.0237 0.1376
H16 H 1.3852 0.9009 0.1224
H17 H 0.5430 0.2056 0.1580
H18 H 0.7662 0.1610 0.1756
H19 H 0.6936 0.1101 0.1310
H20 H 0.6038 0.6380 0.0909
H21 H 0.6177 0.6654 0.0424
H22 H 0.7402 0.7637 0.0737
H23 H 0.8711 0.8974 0.2222
H24 H 0.7299 0.8337 0.2581
H25 H 0.6401 0.8444 0.2122
H26 H 1.2553 0.9126 0.0604
H27 H 1.3294 1.0630 0.0745
H28 H 1.0868 1.0243 0.0749
loop_
_geom_bond_atom_site_label_1
_geom_bond_atom_site_label_2
_geom_bond_site_symmetry_1
_geom_bond_site_symmetry_2
O1 C3 1_555 1_555
O2 C6 1_555 1_555
O3 C8 1_555 1_555
O4 C6 1_555 1_555
C1 C3 1_555 1_555
C2 C3 1_555 1_555
C4 C2 1_555 1_555
C5 C2 1_555 1_555
C6 C5 1_555 1_555
C7 C4 1_555 1_555
C8 C14 1_555 1_555
C9 C5 1_555 1_555
C10 C1 1_555 1_555
C11 C7 1_555 1_555
C12 C1 1_555 1_555
C13 C9 1_555 1_555
C14 C1 1_555 1_555
C15 C7 1_555 1_555
C16 C9 1_555 1_555
C17 C4 1_555 1_555
C18 C8 1_555 1_555
C19 C20 1_555 1_555
C20 O2 1_555 1_555
H1 C4 1_555 1_555
H2 C7 1_555 1_555
H3 C9 1_555 1_555
H4 C10 1_555 1_555
H5 C11 1_555 1_555
H6 C11 1_555 1_555
H7 C14 1_555 1_555
H8 C14 1_555 1_555
H9 C16 1_555 1_555
H10 C16 1_555 1_555
H11 C17 1_555 1_555
H12 C17 1_555 1_555
H13 C18 1_555 1_555
H14 C18 1_555 1_555
H15 C20 1_555 1_555
H16 C20 1_555 1_555
H17 C15 1_555 1_555
H18 C15 1_555 1_555
H19 C15 1_555 1_555
H20 C12 1_555 1_555
H21 C12 1_555 1_555
H22 C12 1_555 1_555
H23 C13 1_555 1_555
H24 C13 1_555 1_555
H25 C13 1_555 1_555
H26 C19 1_555 1_555
H27 C19 1_555 1_555
H28 C19 1_555 1_555
C10 C11 1_555 1_555
C10 C18 1_555 1_555
C16 C17 1_555 1_555

#END
