
#######################################################################
#
#                 Cambridge Crystallographic Data Centre
#                                CCDC 
#
#######################################################################
#
# If this CIF has been generated from an entry in the Cambridge 
# Structural Database, then it will include bibliographic, chemical, 
# crystal, experimental, refinement or atomic coordinate data resulting 
# from the CCDC's data processing and validation procedures.
#
#######################################################################

data_BIGFOP
_chemical_formula_moiety         'C21 H16 F1 N1 O1'
_chemical_name_systematic        
2-[4-fluoro-2-(1,2,3,4-tetrahydro-1,4-epoxynaphthalen-2-yl)phenyl]pyridine
_symmetry_cell_setting           triclinic
_symmetry_space_group_name_H-M   'P -1'
_symmetry_Int_Tables_number      2
_space_group_name_Hall           '-P 1'
loop_
_symmetry_equiv_pos_site_id
_symmetry_equiv_pos_as_xyz
1 x,y,z
2 -x,-y,-z
_cell_length_a                   10.257(2)
_cell_length_b                   12.011(2)
_cell_length_c                   13.077(3)
_cell_angle_alpha                86.763(4)
_cell_angle_beta                 89.359(4)
_cell_angle_gamma                75.968(5)
_cell_volume                     1560.47
_exptl_crystal_colour            colorless
_exptl_crystal_description       tablet
_cell_formula_units_Z            4
loop_
_atom_site_label
_atom_site_type_symbol
_atom_site_fract_x
_atom_site_fract_y
_atom_site_fract_z
O1 O 0.12363(10) 0.49578(9) 0.59110(7)
F1 F -0.21264(9) 0.86359(8) 0.52648(8)
N1 N 0.36750(12) 0.73924(11) 0.72547(9)
C1 C 0.53194(15) 0.24203(13) 0.59937(11)
H1 H 0.5971 0.1739 0.5848
C2 C 0.42662(15) 0.28626(13) 0.53021(11)
H2 H 0.4203 0.2502 0.4682
C3 C 0.33225(14) 0.38388(12) 0.55494(10)
C4 C 0.20666(15) 0.45729(13) 0.50294(11)
H3 H 0.1644 0.4169 0.4526
C5 C 0.23783(15) 0.57076(13) 0.46032(11)
H4 H 0.1646 0.6158 0.4153
H5 H 0.3235 0.5562 0.4220
C6 C 0.24791(14) 0.63305(12) 0.56040(10)
H6 H 0.3405 0.6447 0.5680
C7 C 0.14424(14) 0.74544(12) 0.57240(10)
C8 C 0.17501(14) 0.83688(12) 0.62270(10)
C9 C 0.31173(14) 0.83159(12) 0.66327(10)
C10 C 0.37550(14) 0.91980(12) 0.63990(11)
H7 H 0.3333 0.9839 0.5961
C11 C 0.50125(15) 0.91310(13) 0.68129(12)
H8 H 0.5463 0.9725 0.6666
C12 C 0.55984(15) 0.81813(13) 0.74441(11)
H9 H 0.6463 0.8105 0.7734
C13 C 0.54294(15) 0.29617(13) 0.68909(11)
H10 H 0.6152 0.2644 0.7350
C14 C 0.44884(14) 0.39685(12) 0.71240(11)
H11 H 0.4572 0.4352 0.7726
C15 C 0.34307(14) 0.43880(12) 0.64489(10)
C16 C 0.22320(14) 0.54110(12) 0.64281(11)
H12 H 0.1950 0.5714 0.7114
C17 C 0.48950(15) 0.73457(13) 0.76421(11)
H13 H 0.5300 0.6698 0.8079
C18 C 0.07389(15) 0.93659(13) 0.63722(11)
H14 H 0.0959 0.9987 0.6693
C19 C -0.05762(15) 0.94675(14) 0.60593(11)
H15 H -0.1263 1.0137 0.6175
C20 C -0.08422(15) 0.85631(14) 0.55776(12)
C21 C 0.01177(15) 0.75816(13) 0.53892(11)
H16 H -0.0115 0.6990 0.5033
F2 F 0.48718(9) 0.12824(8) 0.98779(7)
O2 O 0.61801(9) 0.49562(8) 0.91107(7)
N2 N 0.99773(12) 0.24745(10) 0.77204(9)
C22 C 1.23689(15) 0.17251(13) 0.76266(11)
H17 H 1.3204 0.1796 0.7344
C23 C 1.11925(15) 0.25171(13) 0.73524(11)
H18 H 1.1246 0.3130 0.6874
C24 C 0.99244(14) 0.15958(12) 0.83978(10)
C25 C 0.85716(14) 0.15472(12) 0.88028(10)
C26 C 0.77616(14) 0.24600(12) 0.93278(10)
C27 C 0.81783(14) 0.35754(12) 0.94311(10)
H19 H 0.9174 0.3446 0.9353
C28 C 0.77088(14) 0.42148(12) 1.04243(10)
H20 H 0.7217 0.3776 1.0884
H21 H 0.8478 0.4361 1.0800
C29 C 0.67739(14) 0.53452(12) 0.99902(10)
H22 H 0.6113 0.5762 1.0490
C30 C 0.76455(14) 0.60544(12) 0.94628(10)
C31 C 0.80723(14) 0.70116(12) 0.97181(11)
H23 H 0.7802 0.7373 1.0340
C32 C 0.89155(14) 0.74274(12) 0.90273(11)
H24 H 0.9209 0.8093 0.9176
C33 C 1.10640(14) 0.07561(12) 0.87074(11)
H25 H 1.0989 0.0143 0.9178
C34 C 1.23093(15) 0.08251(13) 0.83214(11)
H26 H 1.3102 0.0268 0.8529
C35 C 0.65177(14) 0.23363(12) 0.96948(11)
H27 H 0.5958 0.2930 1.0062
C36 C 0.61022(14) 0.13543(13) 0.95244(11)
C37 C 0.68655(15) 0.04558(13) 0.90099(11)
H28 H 0.6552 -0.0210 0.8900
C38 C 0.81138(15) 0.05640(12) 0.86579(11)
H29 H 0.8671 -0.0048 0.8309
C39 C 0.74428(13) 0.44873(12) 0.85972(10)
H30 H 0.7349 0.4177 0.7916
C40 C 0.80807(13) 0.54986(12) 0.85662(10)
C41 C 0.93326(14) 0.68863(12) 0.81278(11)
H31 H 0.9895 0.7194 0.7667
C42 C 0.89371(14) 0.58943(12) 0.78887(10)
H32 H 0.9244 0.5508 0.7285
loop_
_geom_bond_atom_site_label_1
_geom_bond_atom_site_label_2
_geom_bond_site_symmetry_1
_geom_bond_site_symmetry_2
O1 C4 1_555 1_555
F1 C20 1_555 1_555
N1 C9 1_555 1_555
C1 H1 1_555 1_555
C2 C1 1_555 1_555
H2 C2 1_555 1_555
C3 C2 1_555 1_555
C4 C3 1_555 1_555
H3 C4 1_555 1_555
C5 C4 1_555 1_555
H4 C5 1_555 1_555
H5 C5 1_555 1_555
C6 C5 1_555 1_555
H6 C6 1_555 1_555
C7 C6 1_555 1_555
C8 C7 1_555 1_555
C9 C8 1_555 1_555
C10 C9 1_555 1_555
H7 C10 1_555 1_555
C11 C10 1_555 1_555
H8 C11 1_555 1_555
C12 C11 1_555 1_555
H9 C12 1_555 1_555
C13 C1 1_555 1_555
H10 C13 1_555 1_555
C14 C13 1_555 1_555
H11 C14 1_555 1_555
C15 C3 1_555 1_555
C16 O1 1_555 1_555
H12 C16 1_555 1_555
C17 N1 1_555 1_555
H13 C17 1_555 1_555
C18 C8 1_555 1_555
H14 C18 1_555 1_555
C19 C18 1_555 1_555
H15 C19 1_555 1_555
C20 C19 1_555 1_555
C21 C7 1_555 1_555
H16 C21 1_555 1_555
F2 C36 1_555 1_555
O2 C29 1_555 1_555
N2 C23 1_555 1_555
C22 H17 1_555 1_555
C23 C22 1_555 1_555
H18 C23 1_555 1_555
C24 N2 1_555 1_555
C25 C24 1_555 1_555
C26 C25 1_555 1_555
C27 C26 1_555 1_555
H19 C27 1_555 1_555
C28 C27 1_555 1_555
H20 C28 1_555 1_555
H21 C28 1_555 1_555
C29 C28 1_555 1_555
H22 C29 1_555 1_555
C30 C29 1_555 1_555
C31 C30 1_555 1_555
H23 C31 1_555 1_555
C32 C31 1_555 1_555
H24 C32 1_555 1_555
C33 C24 1_555 1_555
H25 C33 1_555 1_555
C34 C22 1_555 1_555
H26 C34 1_555 1_555
C35 C26 1_555 1_555
H27 C35 1_555 1_555
C36 C35 1_555 1_555
C37 C36 1_555 1_555
H28 C37 1_555 1_555
C38 C25 1_555 1_555
H29 C38 1_555 1_555
C39 O2 1_555 1_555
H30 C39 1_555 1_555
C40 C30 1_555 1_555
C41 C32 1_555 1_555
H31 C41 1_555 1_555
C42 C40 1_555 1_555
H32 C42 1_555 1_555
C6 C16 1_555 1_555
C12 C17 1_555 1_555
C14 C15 1_555 1_555
C15 C16 1_555 1_555
C20 C21 1_555 1_555
C27 C39 1_555 1_555
C33 C34 1_555 1_555
C37 C38 1_555 1_555
C39 C40 1_555 1_555
C41 C42 1_555 1_555

#END
