
#######################################################################
#
#                 Cambridge Crystallographic Data Centre
#                                CCDC 
#
#######################################################################
#
# If this CIF has been generated from an entry in the Cambridge 
# Structural Database, then it will include bibliographic, chemical, 
# crystal, experimental, refinement or atomic coordinate data resulting 
# from the CCDC's data processing and validation procedures.
#
#######################################################################

data_BIGLUB
_chemical_formula_moiety         'C40 H56 O10 Si1'
_chemical_name_systematic        
"13-(benzyloxy)-10-({[t-butyl(dimethyl)silyl]oxy}methyl)-7a-hydroxy-3,4',4a,10-tetramethyltetradecahydro-4H,5'H,8H-spiro[6a,13a-epoxy-1,9-dioxapentaleno[1',6':4,5,6]cyclo-octa[1,2-f]azulene-2,2'-oxolane]-4,5',8-trione unknown solvate"
_symmetry_cell_setting           triclinic
_symmetry_space_group_name_H-M   'P -1'
_symmetry_Int_Tables_number      2
_space_group_name_Hall           '-P 1'
loop_
_symmetry_equiv_pos_site_id
_symmetry_equiv_pos_as_xyz
1 x,y,z
2 -x,-y,-z
_cell_length_a                   8.5380(5)
_cell_length_b                   14.3233(9)
_cell_length_c                   19.3139(12)
_cell_angle_alpha                69.177(6)
_cell_angle_beta                 77.656(5)
_cell_angle_gamma                85.101(5)
_cell_volume                     2156.52
_cell_formula_units_Z            2
loop_
_atom_site_label
_atom_site_type_symbol
_atom_site_fract_x
_atom_site_fract_y
_atom_site_fract_z
C1 C 0.5760(6) 0.3547(3) 0.4914(3)
C2 C 0.4103(5) 0.3116(3) 0.5300(2)
C3 C 0.3205(5) 0.3813(3) 0.5699(2)
H1 H 0.2905 0.4422 0.5305
H2 H 0.3973 0.4018 0.5935
C4 C 0.1695(5) 0.3444(3) 0.6305(2)
C5 C 0.1045(5) 0.4336(3) 0.6544(2)
H3 H 0.1968 0.4677 0.6580
H4 H 0.0548 0.4810 0.6134
C6 C -0.0170(5) 0.4131(3) 0.7279(3)
H5 H -0.1134 0.3844 0.7227
H6 H -0.0495 0.4780 0.7344
C7 C 0.0357(6) 0.3430(3) 0.8008(3)
C8 C 0.2071(6) 0.3556(4) 0.8074(3)
C9 C 0.2836(6) 0.2559(4) 0.8422(3)
H7 H 0.3683 0.2429 0.8020
C10 C 0.1481(6) 0.1790(4) 0.8641(3)
H8 H 0.0945 0.1634 0.9182
C11 C 0.1855(6) 0.0849(4) 0.8467(3)
C12 C 0.3344(7) 0.0239(4) 0.8638(4)
H9 H 0.4052 0.0218 0.8165
H10 H 0.3944 0.0534 0.8894
C13 C 0.2832(7) -0.0730(4) 0.9113(4)
H11 H 0.2957 -0.0950 0.8667
C14 C 0.1075(7) -0.0751(4) 0.9221(3)
C15 C 0.0315(6) 0.2324(3) 0.8125(3)
H12 H -0.0793 0.2057 0.8355
C16 C 0.1006(5) 0.2045(3) 0.7427(3)
C17 C -0.0130(5) 0.2041(3) 0.6919(3)
H13 H 0.0009 0.1394 0.6823
C18 C 0.0383(5) 0.2903(3) 0.6159(3)
H14 H -0.0551 0.3372 0.6076
C19 C 0.0772(5) 0.2491(3) 0.5514(3)
H15 H 0.1466 0.1892 0.5665
H16 H -0.0241 0.2268 0.5454
C20 C 0.1589(5) 0.3190(3) 0.4753(3)
H17 H 0.1287 0.3888 0.4711
H18 H 0.1219 0.3049 0.4348
C21 C 0.3412(5) 0.3070(3) 0.4647(2)
H19 H 0.3674 0.2390 0.4616
C22 C 0.4401(5) 0.3816(3) 0.3933(3)
C23 C 0.3662(6) 0.4853(3) 0.3618(3)
H20 H 0.3377 0.5146 0.4017
H21 H 0.2696 0.4796 0.3439
H22 H 0.4438 0.5281 0.3198
C24 C 0.4935(6) 0.3410(3) 0.3291(3)
H23 H 0.3991 0.3350 0.3088
H24 H 0.5689 0.3884 0.2879
C25 C 0.7758(7) 0.1994(5) 0.2337(3)
H25 H 0.7180 0.1394 0.2409
H26 H 0.8893 0.1920 0.2128
H27 H 0.7303 0.2577 0.1987
C26 C 0.8954(6) 0.3158(4) 0.3150(4)
H28 H 0.8647 0.3794 0.2796
H29 H 1.0053 0.2979 0.2958
H30 H 0.8896 0.3222 0.3643
C27 C 0.7898(6) 0.0975(3) 0.4016(3)
C28 C 0.9600(6) 0.0580(4) 0.3847(4)
H31 H 1.0370 0.1075 0.3807
H32 H 0.9773 0.0455 0.3369
H33 H 0.9750 -0.0044 0.4255
C29 C 0.7593(7) 0.1131(4) 0.4776(3)
H34 H 0.6484 0.1358 0.4891
H35 H 0.8330 0.1634 0.4753
H36 H 0.7769 0.0499 0.5172
C30 C 0.6725(6) 0.0169(3) 0.4088(4)
H37 H 0.6866 -0.0436 0.4515
H38 H 0.6943 0.0013 0.3622
H39 H 0.5621 0.0418 0.4174
C31 C -0.0725(7) 0.3618(4) 0.8690(3)
H40 H -0.0398 0.3175 0.9155
H41 H -0.1841 0.3485 0.8705
H42 H -0.0629 0.4315 0.8645
C32 C 0.3642(8) 0.2516(5) 0.9080(4)
H43 H 0.4419 0.3057 0.8904
H44 H 0.4194 0.1872 0.9255
H45 H 0.2822 0.2592 0.9497
C33 C 0.3637(11) -0.1578(6) 0.9492(6)
H46 H 0.4386 -0.1809 0.9124
H47 H 0.2862 -0.2104 0.9802
H48 H 0.4233 -0.1419 0.9816
C34 C -0.2904(6) 0.1729(3) 0.7028(3)
H49 H -0.2677 0.1993 0.6469
H50 H -0.3985 0.1968 0.7204
C35 C -0.2900(6) 0.0612(3) 0.7294(3)
C36 C -0.2336(6) 0.0036(4) 0.7936(3)
H51 H -0.1900 0.0353 0.8208
C37 C -0.2397(6) -0.0995(4) 0.8188(3)
H52 H -0.1987 -0.1378 0.8626
C38 C -0.3048(7) -0.1470(4) 0.7811(4)
H53 H -0.3107 -0.2178 0.7989
C39 C -0.3613(6) -0.0899(4) 0.7171(4)
H54 H -0.4059 -0.1220 0.6905
C40 C -0.3542(6) 0.0128(4) 0.6909(3)
H55 H -0.3933 0.0507 0.6465
O1 O 0.5876(3) 0.39563(19) 0.41626(17)
O2 O 0.6863(4) 0.3570(2) 0.52044(18)
O3 O 0.4313(3) 0.21430(18) 0.58240(17)
H56 H 0.3820 0.2108 0.6258
O4 O 0.2290(3) 0.26908(18) 0.69359(16)
O5 O 0.1765(4) 0.1103(2) 0.77015(19)
O6 O 0.0537(4) 0.0159(3) 0.8906(2)
O7 O 0.0185(5) -0.1442(3) 0.9559(2)
O8 O 0.2714(5) 0.4354(3) 0.7893(2)
O9 O -0.1748(4) 0.2114(2) 0.72939(18)
O10 O 0.5691(4) 0.24674(19) 0.35358(17)
Si1 Si 0.75645(16) 0.21653(9) 0.32521(8)
loop_
_geom_bond_atom_site_label_1
_geom_bond_atom_site_label_2
_geom_bond_site_symmetry_1
_geom_bond_site_symmetry_2
C1 C2 1_555 1_555
C2 C3 1_555 1_555
C3 H1 1_555 1_555
H2 C3 1_555 1_555
C4 C3 1_555 1_555
C5 C4 1_555 1_555
H3 C5 1_555 1_555
H4 C5 1_555 1_555
C6 C5 1_555 1_555
H5 C6 1_555 1_555
H6 C6 1_555 1_555
C7 C6 1_555 1_555
C8 C7 1_555 1_555
C9 C8 1_555 1_555
H7 C9 1_555 1_555
C10 C9 1_555 1_555
H8 C10 1_555 1_555
C11 C10 1_555 1_555
C12 C11 1_555 1_555
H9 C12 1_555 1_555
H10 C12 1_555 1_555
C13 C12 1_555 1_555
H11 C13 1_555 1_555
C14 C13 1_555 1_555
C15 C7 1_555 1_555
H12 C15 1_555 1_555
C16 C15 1_555 1_555
C17 C16 1_555 1_555
H13 C17 1_555 1_555
C18 C4 1_555 1_555
H14 C18 1_555 1_555
C19 C18 1_555 1_555
H15 C19 1_555 1_555
H16 C19 1_555 1_555
C20 C19 1_555 1_555
H17 C20 1_555 1_555
H18 C20 1_555 1_555
C21 C2 1_555 1_555
H19 C21 1_555 1_555
C22 C21 1_555 1_555
C23 C22 1_555 1_555
H20 C23 1_555 1_555
H21 C23 1_555 1_555
H22 C23 1_555 1_555
C24 C22 1_555 1_555
H23 C24 1_555 1_555
H24 C24 1_555 1_555
C25 H25 1_555 1_555
H26 C25 1_555 1_555
H27 C25 1_555 1_555
C26 H28 1_555 1_555
H29 C26 1_555 1_555
H30 C26 1_555 1_555
C27 C28 1_555 1_555
C28 H31 1_555 1_555
H32 C28 1_555 1_555
H33 C28 1_555 1_555
C29 C27 1_555 1_555
H34 C29 1_555 1_555
H35 C29 1_555 1_555
H36 C29 1_555 1_555
C30 C27 1_555 1_555
H37 C30 1_555 1_555
H38 C30 1_555 1_555
H39 C30 1_555 1_555
C31 C7 1_555 1_555
H40 C31 1_555 1_555
H41 C31 1_555 1_555
H42 C31 1_555 1_555
C32 C9 1_555 1_555
H43 C32 1_555 1_555
H44 C32 1_555 1_555
H45 C32 1_555 1_555
C33 C13 1_555 1_555
H46 C33 1_555 1_555
H47 C33 1_555 1_555
H48 C33 1_555 1_555
C34 H49 1_555 1_555
H50 C34 1_555 1_555
C35 C34 1_555 1_555
C36 C35 1_555 1_555
H51 C36 1_555 1_555
C37 C36 1_555 1_555
H52 C37 1_555 1_555
C38 C37 1_555 1_555
H53 C38 1_555 1_555
C39 C38 1_555 1_555
H54 C39 1_555 1_555
C40 C35 1_555 1_555
H55 C40 1_555 1_555
O1 C1 1_555 1_555
O2 C1 1_555 1_555
O3 C2 1_555 1_555
H56 O3 1_555 1_555
O4 C4 1_555 1_555
O5 C11 1_555 1_555
O6 C11 1_555 1_555
O7 C14 1_555 1_555
O8 C8 1_555 1_555
O9 C17 1_555 1_555
O10 C24 1_555 1_555
Si1 C25 1_555 1_555
C10 C15 1_555 1_555
C14 O6 1_555 1_555
C16 O4 1_555 1_555
C16 O5 1_555 1_555
C17 C18 1_555 1_555
C20 C21 1_555 1_555
C22 O1 1_555 1_555
C26 Si1 1_555 1_555
C27 Si1 1_555 1_555
C34 O9 1_555 1_555
C39 C40 1_555 1_555
O10 Si1 1_555 1_555

#END
