
#######################################################################
#
#                 Cambridge Crystallographic Data Centre
#                                CCDC 
#
#######################################################################
#
# If this CIF has been generated from an entry in the Cambridge 
# Structural Database, then it will include bibliographic, chemical, 
# crystal, experimental, refinement or atomic coordinate data resulting 
# from the CCDC's data processing and validation procedures.
#
#######################################################################

data_BIHKEL
_chemical_formula_moiety         'C22 H21 N3 O2'
_chemical_name_systematic        
3-[4-(dimethylamino)phenyl]-4-[(1,3-dimethyl-1,3-dihydro-2H-benzimidazol-2-ylidene)methyl]cyclobut-3-ene-1,2-dione
_symmetry_cell_setting           monoclinic
_symmetry_space_group_name_H-M   'P 21/n'
_symmetry_Int_Tables_number      14
_space_group_name_Hall           '-P 2yn'
loop_
_symmetry_equiv_pos_site_id
_symmetry_equiv_pos_as_xyz
1 x,y,z
2 1/2-x,1/2+y,1/2-z
3 -x,-y,-z
4 1/2+x,1/2-y,1/2+z
_cell_length_a                   18.877(4)
_cell_length_b                   7.5729(15)
_cell_length_c                   26.038(5)
_cell_angle_alpha                90
_cell_angle_beta                 104.346(3)
_cell_angle_gamma                90
_cell_volume                     3606.16
_cell_formula_units_Z            8
loop_
_atom_site_label
_atom_site_type_symbol
_atom_site_fract_x
_atom_site_fract_y
_atom_site_fract_z
O1 O 0.40466(9) -0.0237(2) 0.29117(7)
O2 O 0.37418(10) -0.0108(3) 0.40879(7)
N1 N 0.03910(13) 0.3072(3) 0.42805(9)
N2 N 0.35032(10) 0.2513(3) 0.19534(7)
N3 N 0.24785(11) 0.1537(3) 0.14494(7)
C1 C -0.02751(15) 0.3817(5) 0.39618(12)
H1 H -0.0184 0.4998 0.3860
H2 H -0.0638 0.3841 0.4163
H3 H -0.0447 0.3109 0.3650
C2 C 0.0392(2) 0.2564(5) 0.48106(12)
H4 H 0.0371 0.1300 0.4832
H5 H -0.0026 0.3066 0.4904
H6 H 0.0830 0.2984 0.5051
C3 C 0.09631(15) 0.2689(3) 0.40665(10)
C4 C 0.15969(15) 0.1863(4) 0.43671(10)
H7 H 0.1634 0.1609 0.4722
C5 C 0.21589(14) 0.1427(3) 0.41497(9)
H8 H 0.2568 0.0869 0.4360
C6 C 0.21406(13) 0.1792(3) 0.36219(9)
C7 C 0.15223(14) 0.2661(3) 0.33274(9)
H9 H 0.1495 0.2953 0.2976
C8 C 0.09557(14) 0.3093(3) 0.35425(9)
H10 H 0.0552 0.3674 0.3333
C9 C 0.27354(13) 0.1269(3) 0.34051(9)
C10 C 0.34230(14) 0.0423(3) 0.36447(10)
C11 C 0.35832(13) 0.0398(3) 0.31087(9)
C12 C 0.28778(13) 0.1333(3) 0.28926(9)
C13 C 0.25138(13) 0.1843(3) 0.23924(9)
H11 H 0.2023 0.2147 0.2337
C14 C 0.28249(13) 0.1941(3) 0.19567(9)
C15 C 0.17531(13) 0.0762(4) 0.12815(10)
H12 H 0.1625 0.0228 0.1581
H13 H 0.1751 -0.0121 0.1016
H14 H 0.1404 0.1666 0.1137
C16 C 0.29427(14) 0.1833(3) 0.11247(9)
C17 C 0.28634(16) 0.1603(4) 0.05868(10)
H15 H 0.2431 0.1179 0.0368
C18 C 0.34537(19) 0.2032(4) 0.03903(11)
H16 H 0.3420 0.1892 0.0030
C19 C 0.40962(17) 0.2666(4) 0.07156(11)
H17 H 0.4482 0.2951 0.0567
C20 C 0.41824(15) 0.2888(3) 0.12478(10)
H18 H 0.4617 0.3310 0.1465
C21 C 0.35948(14) 0.2455(3) 0.14457(9)
C22 C 0.40098(13) 0.3425(4) 0.23840(9)
H19 H 0.3761 0.3755 0.2650
H20 H 0.4191 0.4465 0.2249
H21 H 0.4411 0.2657 0.2538
O3 O 0.93812(10) -0.0636(3) 0.27886(7)
O4 O 0.90300(10) -0.0905(3) 0.39506(7)
N4 N 0.57322(14) 0.2583(3) 0.41921(9)
N5 N 0.88610(11) 0.2336(3) 0.18862(8)
N6 N 0.78427(11) 0.1429(3) 0.13604(8)
C23 C 0.50444(15) 0.3197(4) 0.38669(12)
H22 H 0.5112 0.4326 0.3718
H23 H 0.4697 0.3307 0.4079
H24 H 0.4865 0.2368 0.3586
C24 C 0.57797(18) 0.2397(5) 0.47520(11)
H25 H 0.5771 0.1167 0.4840
H26 H 0.5372 0.2983 0.4837
H27 H 0.6227 0.2917 0.4952
C25 C 0.62957(15) 0.2118(4) 0.39762(10)
C26 C 0.69444(16) 0.1365(4) 0.42783(10)
H28 H 0.7003 0.1196 0.4640
C27 C 0.74938(15) 0.0874(3) 0.40492(10)
H29 H 0.7910 0.0347 0.4260
C28 C 0.74532(14) 0.1131(3) 0.35143(9)
C29 C 0.68145(15) 0.1909(3) 0.32161(10)
H30 H 0.6767 0.2111 0.2857
C30 C 0.62520(15) 0.2389(4) 0.34375(10)
H31 H 0.5834 0.2903 0.3225
C31 C 0.80522(13) 0.0652(3) 0.32946(9)
C32 C 0.87263(14) -0.0247(4) 0.35215(10)
C33 C 0.89081(15) -0.0108(4) 0.29889(10)
C34 C 0.82085(13) 0.0878(3) 0.27918(9)
C35 C 0.78591(14) 0.1533(4) 0.23038(9)
H32 H 0.7373 0.1870 0.2253
C36 C 0.81832(14) 0.1732(3) 0.18729(9)
C37 C 0.71229(14) 0.0659(4) 0.11768(10)
H33 H 0.7001 0.0017 0.1461
H34 H 0.7120 -0.0131 0.0888
H35 H 0.6770 0.1579 0.1059
C38 C 0.83076(15) 0.1825(3) 0.10424(9)
C39 C 0.82199(17) 0.1767(4) 0.05020(10)
H36 H 0.7787 0.1379 0.0275
C40 C 0.8805(2) 0.2314(4) 0.03149(12)
H37 H 0.8766 0.2298 -0.0048
C41 C 0.94496(19) 0.2885(4) 0.06532(13)
H38 H 0.9834 0.3237 0.0512
C42 C 0.95377(16) 0.2945(4) 0.11876(11)
H39 H 0.9971 0.3336 0.1414
C43 C 0.89563(15) 0.2402(3) 0.13778(9)
C44 C 0.93633(14) 0.3149(4) 0.23380(10)
H40 H 0.9108 0.3430 0.2604
H41 H 0.9560 0.4211 0.2226
H42 H 0.9755 0.2344 0.2483
loop_
_geom_bond_atom_site_label_1
_geom_bond_atom_site_label_2
_geom_bond_site_symmetry_1
_geom_bond_site_symmetry_2
O1 C11 1_555 1_555
O2 C10 1_555 1_555
N1 C1 1_555 1_555
N2 C14 1_555 1_555
N3 C14 1_555 1_555
C1 H1 1_555 1_555
H2 C1 1_555 1_555
H3 C1 1_555 1_555
C2 N1 1_555 1_555
H4 C2 1_555 1_555
H5 C2 1_555 1_555
H6 C2 1_555 1_555
C3 N1 1_555 1_555
C4 C3 1_555 1_555
H7 C4 1_555 1_555
C5 C4 1_555 1_555
H8 C5 1_555 1_555
C6 C5 1_555 1_555
C7 C6 1_555 1_555
H9 C7 1_555 1_555
C8 C3 1_555 1_555
H10 C8 1_555 1_555
C9 C6 1_555 1_555
C10 C9 1_555 1_555
C11 C10 1_555 1_555
C12 C9 1_555 1_555
C13 C12 1_555 1_555
H11 C13 1_555 1_555
C14 C13 1_555 1_555
C15 N3 1_555 1_555
H12 C15 1_555 1_555
H13 C15 1_555 1_555
H14 C15 1_555 1_555
C16 N3 1_555 1_555
C17 C16 1_555 1_555
H15 C17 1_555 1_555
C18 C17 1_555 1_555
H16 C18 1_555 1_555
C19 C18 1_555 1_555
H17 C19 1_555 1_555
C20 C19 1_555 1_555
H18 C20 1_555 1_555
C21 N2 1_555 1_555
C22 N2 1_555 1_555
H19 C22 1_555 1_555
H20 C22 1_555 1_555
H21 C22 1_555 1_555
O3 C33 1_555 1_555
O4 C32 1_555 1_555
N4 C23 1_555 1_555
N5 C36 1_555 1_555
N6 C36 1_555 1_555
C23 H22 1_555 1_555
H23 C23 1_555 1_555
H24 C23 1_555 1_555
C24 N4 1_555 1_555
H25 C24 1_555 1_555
H26 C24 1_555 1_555
H27 C24 1_555 1_555
C25 N4 1_555 1_555
C26 C25 1_555 1_555
H28 C26 1_555 1_555
C27 C26 1_555 1_555
H29 C27 1_555 1_555
C28 C27 1_555 1_555
C29 C28 1_555 1_555
H30 C29 1_555 1_555
C30 C25 1_555 1_555
H31 C30 1_555 1_555
C31 C28 1_555 1_555
C32 C31 1_555 1_555
C33 C32 1_555 1_555
C34 C31 1_555 1_555
C35 C34 1_555 1_555
H32 C35 1_555 1_555
C36 C35 1_555 1_555
C37 N6 1_555 1_555
H33 C37 1_555 1_555
H34 C37 1_555 1_555
H35 C37 1_555 1_555
C38 N6 1_555 1_555
C39 C38 1_555 1_555
H36 C39 1_555 1_555
C40 C39 1_555 1_555
H37 C40 1_555 1_555
C41 C40 1_555 1_555
H38 C41 1_555 1_555
C42 C41 1_555 1_555
H39 C42 1_555 1_555
C43 N5 1_555 1_555
C44 N5 1_555 1_555
H40 C44 1_555 1_555
H41 C44 1_555 1_555
H42 C44 1_555 1_555
C7 C8 1_555 1_555
C11 C12 1_555 1_555
C16 C21 1_555 1_555
C20 C21 1_555 1_555
C29 C30 1_555 1_555
C33 C34 1_555 1_555
C38 C43 1_555 1_555
C42 C43 1_555 1_555

#END
