
#######################################################################
#
#                 Cambridge Crystallographic Data Centre
#                                CCDC 
#
#######################################################################
#
# If this CIF has been generated from an entry in the Cambridge 
# Structural Database, then it will include bibliographic, chemical, 
# crystal, experimental, refinement or atomic coordinate data resulting 
# from the CCDC's data processing and validation procedures.
#
#######################################################################

data_BIHLOW
_chemical_compound_source        'twigs and leaves of Cllistemon rigidus'
_chemical_name_common            'callistrilone J'
_chemical_formula_moiety         'C35 H46 O6'
_chemical_name_systematic        
12-methoxy-2,2,4,4,7a-pentamethyl-6-(2-methylpropanoyl)-10,13-bis(propan-2-yl)-4,7a,10,11,11a,13-hexahydro-1H-[1]benzofuro[3,2-b]xanthene-1,3(2H)-dione
_chemical_properties_biological  
'tested for antiviral activity against HSV-1 and HEp-2 cells'
_symmetry_cell_setting           orthorhombic
_symmetry_space_group_name_H-M   'P 21 21 21'
_symmetry_Int_Tables_number      19
_space_group_name_Hall           'P 2ac 2ab'
loop_
_symmetry_equiv_pos_site_id
_symmetry_equiv_pos_as_xyz
1 x,y,z
2 1/2-x,-y,1/2+z
3 1/2+x,1/2-y,-z
4 -x,1/2+y,1/2-z
_cell_length_a                   9.26620(10)
_cell_length_b                   28.71590(10)
_cell_length_c                   36.5173(2)
_cell_angle_alpha                90
_cell_angle_beta                 90
_cell_angle_gamma                90
_cell_volume                     9716.79
_exptl_crystal_colour            colorless
_exptl_crystal_description       block
_cell_formula_units_Z            12
loop_
_atom_site_label
_atom_site_type_symbol
_atom_site_fract_x
_atom_site_fract_y
_atom_site_fract_z
O1 O -0.52774(16) -0.46021(4) -0.00738(4)
O2 O -0.41695(14) -0.32471(4) 0.05778(3)
O3 O -0.13133(15) -0.45897(4) 0.08649(4)
O4 O -0.14881(16) -0.33311(5) 0.16911(4)
O5 O -0.48513(16) -0.27403(5) 0.12205(5)
O6 O -0.79590(17) -0.32434(5) -0.02767(4)
C1 C -0.3565(2) -0.27998(6) 0.12371(5)
C2 C -0.13935(19) -0.39372(6) 0.12822(5)
C3 C -0.1821(2) -0.41545(6) 0.09621(5)
C4 C -0.31049(19) -0.41342(6) 0.03456(5)
H1 H -0.3277 -0.4476 0.0377
C5 C -0.6101(2) -0.31939(6) 0.01630(5)
C6 C -0.1957(2) -0.34999(6) 0.13628(5)
C7 C -0.2923(2) -0.32660(6) 0.11399(5)
C8 C -0.44747(18) -0.39140(6) 0.02015(5)
C9 C -0.48789(19) -0.34841(6) 0.03084(5)
C10 C -0.0218(2) -0.36148(6) 0.17995(5)
C11 C -0.32732(19) -0.34941(6) 0.08135(5)
C12 C -0.27499(19) -0.39293(6) 0.07151(5)
C13 C -0.0284(3) -0.36594(8) 0.22106(5)
H2 H -0.0159 -0.3352 0.2322
H3 H 0.0487 -0.3867 0.2294
H4 H -0.1222 -0.3788 0.2282
C14 C 0.1954(2) -0.39684(7) 0.12480(5)
H5 H 0.1437 -0.3932 0.1009
C15 C -0.6556(2) -0.39315(6) -0.02706(5)
C16 C 0.1083(2) -0.33473(7) 0.16708(6)
H6 H 0.1246 -0.3049 0.1776
C17 C -0.6949(2) -0.34430(6) -0.01374(5)
C18 C -0.1805(2) -0.40666(6) 0.00778(5)
H7 H -0.0939 -0.4207 0.0198
C19 C -0.0403(2) -0.40813(6) 0.15921(5)
H8 H -0.0930 -0.4305 0.1754
C20 C -0.2518(2) -0.24137(6) 0.13400(6)
H9 H -0.2040 -0.2503 0.1575
C21 C 0.1052(2) -0.42966(6) 0.14849(5)
H10 H 0.1598 -0.4374 0.1710
H11 H 0.0879 -0.4590 0.1349
C22 C -0.54147(19) -0.41816(6) -0.00415(5)
C23 C -0.1459(2) -0.35538(7) 0.00094(6)
H12 H -0.2286 -0.3403 -0.0109
H13 H -0.0611 -0.3530 -0.0150
H14 H -0.1260 -0.3399 0.0243
C24 C -0.2035(2) -0.43253(8) -0.02823(5)
H15 H -0.2250 -0.4653 -0.0232
H16 H -0.1158 -0.4304 -0.0432
H17 H -0.2844 -0.4185 -0.0415
C25 C -0.5477(3) -0.27409(7) -0.00006(7)
H18 H -0.5006 -0.2560 0.0193
H19 H -0.6259 -0.2557 -0.0108
H20 H -0.4769 -0.2818 -0.0190
C26 C -0.1760(2) -0.49523(6) 0.11088(6)
H21 H -0.1309 -0.5247 0.1035
H22 H -0.2812 -0.4984 0.1099
H23 H -0.1464 -0.4874 0.1359
C27 C -0.5886(3) -0.38703(9) -0.06564(6)
H24 H -0.6593 -0.3723 -0.0819
H25 H -0.5617 -0.4176 -0.0755
H26 H -0.5026 -0.3673 -0.0639
C28 C 0.3451(3) -0.45907(11) 0.09320(8)
H27 H 0.3047 -0.4846 0.1077
H28 H 0.4434 -0.4671 0.0856
H29 H 0.2850 -0.4539 0.0715
C29 C 0.3486(2) -0.41512(9) 0.11610(6)
H30 H 0.3971 -0.3907 0.1010
C30 C -0.3296(3) -0.19534(7) 0.14001(8)
H31 H -0.3773 -0.1858 0.1173
H32 H -0.2597 -0.1715 0.1473
H33 H -0.4020 -0.1991 0.1594
C31 C -0.7909(3) -0.42274(8) -0.03033(8)
H34 H -0.8347 -0.4266 -0.0061
H35 H -0.7655 -0.4534 -0.0403
H36 H -0.8597 -0.4074 -0.0467
C32 C -0.7168(3) -0.30725(9) 0.04728(6)
H37 H -0.7592 -0.3360 0.0570
H38 H -0.7934 -0.2872 0.0376
H39 H -0.6654 -0.2909 0.0669
C33 C 0.2014(2) -0.34951(7) 0.14236(6)
H40 H 0.2768 -0.3290 0.1352
C34 C 0.4407(3) -0.42164(11) 0.15043(8)
H41 H 0.4355 -0.3935 0.1656
H42 H 0.5412 -0.4273 0.1433
H43 H 0.4046 -0.4483 0.1644
C35 C -0.1359(3) -0.23696(8) 0.10498(9)
H44 H -0.0772 -0.2653 0.1046
H45 H -0.0744 -0.2101 0.1105
H46 H -0.1812 -0.2325 0.0810
O7 O -0.91512(15) -0.14042(4) 0.23429(3)
O8 O -0.60960(15) -0.01192(4) 0.26786(4)
O9 O -1.00940(18) -0.07060(5) 0.34701(4)
O10 O -0.96585(16) -0.13489(5) 0.15014(4)
O11 O -0.64780(16) -0.05687(5) 0.14417(3)
O12 O -1.27738(19) -0.20151(6) 0.31067(5)
C36 C -0.8216(2) -0.10412(6) 0.22522(5)
C37 C -0.5347(3) 0.00831(8) 0.11439(6)
H47 H -0.5254 -0.0093 0.0915
H48 H -0.4580 0.0317 0.1157
H49 H -0.6289 0.0238 0.1150
C38 C -1.1475(2) -0.13841(7) 0.33585(5)
C39 C -0.8412(2) -0.13396(6) 0.15948(5)
C40 C -0.6906(2) -0.06549(6) 0.17917(5)
C41 C -0.6691(2) -0.03996(6) 0.24105(5)
C42 C -1.1077(2) -0.17227(6) 0.26816(5)
C43 C -0.5383(2) -0.00048(6) 0.18441(5)
H50 H -0.5938 0.0291 0.1811
C44 C -0.6316(2) -0.03490(6) 0.20473(5)
C45 C -0.9824(2) -0.13907(6) 0.26765(5)
C46 C -0.5221(2) -0.02459(6) 0.14666(5)
C47 C -0.7646(2) -0.07532(6) 0.25216(5)
C48 C -0.7963(2) -0.08472(6) 0.29186(5)
H51 H -0.8084 -0.0542 0.3046
C49 C -0.7874(2) -0.10050(6) 0.18816(5)
C50 C -0.93623(19) -0.11131(6) 0.29478(5)
C51 C -1.0283(2) -0.10386(7) 0.32683(5)
C52 C -0.3920(2) 0.01111(6) 0.20151(5)
H52 H -0.3406 0.0336 0.1856
H53 H -0.4075 0.0261 0.2256
C53 C -1.1836(2) -0.17297(7) 0.30531(5)
C54 C -0.3902(2) -0.05486(7) 0.14477(6)
H54 H -0.3753 -0.0724 0.1230
C55 C -0.6685(2) -0.11117(7) 0.31002(5)
H55 H -0.5805 -0.0915 0.3067
C56 C -0.6908(3) -0.11713(9) 0.35121(6)
H56 H -0.7072 -0.0866 0.3625
H57 H -0.6048 -0.1315 0.3620
H58 H -0.7747 -0.1371 0.3556
C57 C -0.2931(2) -0.05897(7) 0.17119(6)
H59 H -0.2154 -0.0801 0.1676
C58 C -0.2987(2) -0.03222(6) 0.20657(6)
H60 H -0.3494 -0.0525 0.2247
C59 C -0.7277(2) -0.16756(7) 0.14514(6)
H61 H -0.6309 -0.1529 0.1487
C60 C -0.1465(2) -0.02276(8) 0.22203(6)
H62 H -0.0972 -0.0536 0.2241
C61 C -0.6805(3) 0.03215(7) 0.27095(6)
H63 H -0.6713 0.0492 0.2478
H64 H -0.6358 0.0502 0.2907
H65 H -0.7828 0.0272 0.2765
C62 C -0.7445(3) -0.17875(11) 0.10471(7)
H66 H -0.8366 -0.1947 0.1007
H67 H -0.6651 -0.1990 0.0968
H68 H -0.7425 -0.1498 0.0905
C63 C -1.0944(3) -0.16686(9) 0.36902(6)
H69 H -1.0095 -0.1851 0.3620
H70 H -1.1712 -0.1879 0.3772
H71 H -1.0686 -0.1457 0.3890
C64 C -0.1532(3) -0.00259(11) 0.26043(7)
H72 H -0.1936 0.0289 0.2594
H73 H -0.0558 -0.0014 0.2708
H74 H -0.2147 -0.0223 0.2758
C65 C -1.2209(3) -0.15813(10) 0.23946(7)
H75 H -1.2610 -0.1276 0.2458
H76 H -1.2985 -0.1813 0.2390
H77 H -1.1753 -0.1565 0.2153
C66 C -0.6374(3) -0.15810(8) 0.29198(6)
H78 H -0.7213 -0.1785 0.2948
H79 H -0.5532 -0.1725 0.3037
H80 H -0.6176 -0.1534 0.2659
C67 C -1.0525(3) -0.22183(7) 0.26002(8)
H81 H -1.0084 -0.2226 0.2356
H82 H -1.1335 -0.2438 0.2608
H83 H -0.9805 -0.2307 0.2784
C68 C -1.2850(3) -0.11195(10) 0.34649(9)
H84 H -1.2634 -0.0903 0.3665
H85 H -1.3589 -0.1342 0.3545
H86 H -1.3207 -0.0945 0.3253
C69 C -0.7361(4) -0.21019(9) 0.16965(9)
H87 H -0.7168 -0.2011 0.1950
H88 H -0.6642 -0.2331 0.1618
H89 H -0.8328 -0.2239 0.1680
C70 C -0.0533(3) 0.00726(11) 0.19722(8)
H90 H -0.0520 -0.0061 0.1725
H91 H 0.0453 0.0084 0.2069
H92 H -0.0931 0.0389 0.1962
O13 O -0.08114(16) -0.68411(4) -0.09196(4)
O14 O 0.03618(17) -0.68912(5) -0.02163(4)
O15 O -0.43533(18) -0.56521(5) -0.10129(4)
O16 O -0.32771(16) -0.63199(4) 0.01426(3)
O17 O -0.10559(19) -0.60836(5) -0.20547(4)
O18 O 0.2548(2) -0.71919(7) -0.18371(5)
C71 C -0.4300(2) -0.59337(6) 0.02203(5)
C72 C -0.0716(8) -0.7403(3) 0.03862(18)
H93 H 0.0111 -0.7564 0.0277
H94 H -0.1282 -0.7623 0.0532
H95 H -0.0370 -0.7150 0.0544
C73 C -0.7483(2) -0.60097(6) 0.00825(6)
H96 H -0.8252 -0.6248 0.0040
C74 C -0.1162(2) -0.64953(6) -0.15019(5)
C75 C -0.0929(2) -0.68910(6) -0.01629(5)
C76 C -0.0580(2) -0.64007(6) -0.18667(5)
C77 C -0.2602(2) -0.62376(6) -0.09702(5)
C78 C -0.1901(2) -0.65782(6) -0.03784(5)
C79 C -0.0407(2) -0.67687(6) -0.12733(5)
C80 C -0.3593(2) -0.59440(6) -0.07893(5)
C81 C -0.4960(2) -0.58058(6) -0.01543(5)
H97 H -0.5089 -0.5461 -0.0178
C82 C -0.3800(2) -0.59809(6) -0.04128(5)
C83 C -0.1790(2) -0.65373(6) -0.07593(5)
C84 C -0.2573(2) -0.62760(6) -0.13820(5)
H98 H -0.2631 -0.5955 -0.1488
C85 C -0.2958(2) -0.63017(6) -0.02195(5)
C86 C 0.0995(2) -0.70148(7) -0.13438(6)
C87 C -0.3921(2) -0.65562(7) -0.15099(5)
H99 H -0.4784 -0.6404 -0.1397
C88 C -0.5355(3) -0.61113(8) 0.04951(5)
H100 H -0.4995 -0.6216 0.0724
C89 C -0.6764(3) -0.61313(8) 0.04389(6)
H101 H -0.7359 -0.6229 0.0636
C90 C 0.0586(2) -0.67198(7) -0.20275(6)
C91 C -0.0228(3) -0.70902(8) -0.22566(7)
H102 H -0.0875 -0.7268 -0.2097
H103 H 0.0471 -0.7302 -0.2370
H104 H -0.0793 -0.6935 -0.2448
C92 C -0.4784(3) -0.52098(7) -0.08724(6)
H105 H -0.4895 -0.4989 -0.1075
H106 H -0.4048 -0.5095 -0.0702
H107 H -0.5706 -0.5242 -0.0743
C93 C -0.8241(2) -0.55289(7) 0.00948(6)
H108 H -0.7484 -0.5281 0.0103
C94 C -0.6382(2) -0.60627(6) -0.02269(5)
H109 H -0.6811 -0.5943 -0.0457
H110 H -0.6174 -0.6398 -0.0263
C95 C -0.3909(2) -0.70591(7) -0.13786(6)
H111 H -0.3076 -0.7221 -0.1484
H112 H -0.4800 -0.7214 -0.1456
H113 H -0.3842 -0.7066 -0.1111
C96 C -0.4131(3) -0.65385(9) -0.19214(6)
H114 H -0.4140 -0.6213 -0.2003
H115 H -0.5051 -0.6686 -0.1985
H116 H -0.3339 -0.6705 -0.2042
C97 C -0.3398(3) -0.55407(7) 0.03766(6)
H117 H -0.2884 -0.5651 0.0594
H118 H -0.4028 -0.5280 0.0444
H119 H -0.2698 -0.5437 0.0193
C98 C -0.9156(3) -0.54556(9) -0.02451(7)
H120 H -0.8534 -0.5453 -0.0462
H121 H -0.9665 -0.5157 -0.0227
H122 H -0.9861 -0.5709 -0.0266
C99 C 0.1461(2) -0.69885(7) -0.17440(6)
C100 C 0.0860(3) -0.75323(8) -0.12353(8)
H123 H 0.0659 -0.7556 -0.0972
H124 H 0.1765 -0.7694 -0.1291
H125 H 0.0069 -0.7676 -0.1373
C101 C -0.9194(3) -0.54830(9) 0.04352(7)
H126 H -0.9900 -0.5737 0.0439
H127 H -0.9702 -0.5184 0.0429
H128 H -0.8592 -0.5499 0.0655
C102 C 0.2170(3) -0.67742(11) -0.11106(7)
H129 H 0.2304 -0.6454 -0.1196
H130 H 0.3080 -0.6945 -0.1134
H131 H 0.1871 -0.6771 -0.0853
C103 C 0.1600(3) -0.64412(9) -0.22752(8)
H132 H 0.1033 -0.6276 -0.2461
H133 H 0.2278 -0.6654 -0.2396
H134 H 0.2138 -0.6215 -0.2128
C104 C -0.1577(3) -0.72187(11) 0.01095(10)
H135 H -0.2535 -0.7109 0.0202
C105 C -0.1735(6) -0.76878(14) -0.02076(19)
H136 H -0.0772 -0.7807 -0.0267
H137 H -0.2207 -0.7577 -0.0431
H138 H -0.2312 -0.7938 -0.0098
H139? H -0.2652 -0.7189 0.0102
C106? C -0.1221(7) -0.76719(18) 0.0114(2)
H140? H -0.0170 -0.7703 0.0097
H141? H -0.1674 -0.7830 -0.0094
H142? H -0.1558 -0.7813 0.0343
C107? C -0.0926(6) -0.6971(2) 0.05238(14)
H143? H -0.1232 -0.7163 0.0731
H144? H -0.1316 -0.6656 0.0552
H145? H 0.0131 -0.6957 0.0517
loop_
_geom_bond_atom_site_label_1
_geom_bond_atom_site_label_2
_geom_bond_site_symmetry_1
_geom_bond_site_symmetry_2
O1 C22 1_555 1_555
O2 C9 1_555 1_555
O3 C3 1_555 1_555
O4 C6 1_555 1_555
O5 C1 1_555 1_555
O6 C17 1_555 1_555
C1 C7 1_555 1_555
C2 C3 1_555 1_555
C3 C12 1_555 1_555
C4 H1 1_555 1_555
C5 C9 1_555 1_555
C6 C2 1_555 1_555
C7 C6 1_555 1_555
C8 C4 1_555 1_555
C9 C8 1_555 1_555
C10 O4 1_555 1_555
C11 O2 1_555 1_555
C12 C4 1_555 1_555
C13 C10 1_555 1_555
H2 C13 1_555 1_555
H3 C13 1_555 1_555
H4 C13 1_555 1_555
C14 H5 1_555 1_555
C15 C17 1_555 1_555
C16 C10 1_555 1_555
H6 C16 1_555 1_555
C17 C5 1_555 1_555
C18 C4 1_555 1_555
H7 C18 1_555 1_555
C19 C2 1_555 1_555
H8 C19 1_555 1_555
C20 C1 1_555 1_555
H9 C20 1_555 1_555
C21 C14 1_555 1_555
H10 C21 1_555 1_555
H11 C21 1_555 1_555
C22 C8 1_555 1_555
C23 C18 1_555 1_555
H12 C23 1_555 1_555
H13 C23 1_555 1_555
H14 C23 1_555 1_555
C24 C18 1_555 1_555
H15 C24 1_555 1_555
H16 C24 1_555 1_555
H17 C24 1_555 1_555
C25 C5 1_555 1_555
H18 C25 1_555 1_555
H19 C25 1_555 1_555
H20 C25 1_555 1_555
C26 O3 1_555 1_555
H21 C26 1_555 1_555
H22 C26 1_555 1_555
H23 C26 1_555 1_555
C27 C15 1_555 1_555
H24 C27 1_555 1_555
H25 C27 1_555 1_555
H26 C27 1_555 1_555
C28 H27 1_555 1_555
H28 C28 1_555 1_555
H29 C28 1_555 1_555
C29 C14 1_555 1_555
H30 C29 1_555 1_555
C30 C20 1_555 1_555
H31 C30 1_555 1_555
H32 C30 1_555 1_555
H33 C30 1_555 1_555
C31 C15 1_555 1_555
H34 C31 1_555 1_555
H35 C31 1_555 1_555
H36 C31 1_555 1_555
C32 C5 1_555 1_555
H37 C32 1_555 1_555
H38 C32 1_555 1_555
H39 C32 1_555 1_555
C33 C14 1_555 1_555
H40 C33 1_555 1_555
C34 C29 1_555 1_555
H41 C34 1_555 1_555
H42 C34 1_555 1_555
H43 C34 1_555 1_555
C35 C20 1_555 1_555
H44 C35 1_555 1_555
H45 C35 1_555 1_555
H46 C35 1_555 1_555
O7 C36 1_555 1_555
O8 C41 1_555 1_555
O9 C51 1_555 1_555
O10 C39 1_555 1_555
O11 C40 1_555 1_555
O12 C53 1_555 1_555
C36 C47 1_555 1_555
C37 H47 1_555 1_555
H48 C37 1_555 1_555
H49 C37 1_555 1_555
C38 C51 1_555 1_555
C39 C49 1_555 1_555
C40 C44 1_555 1_555
C41 C44 1_555 1_555
C42 C45 1_555 1_555
C43 H50 1_555 1_555
C44 C43 1_555 1_555
C45 O7 1_555 1_555
C46 O11 1_555 1_555
C47 C41 1_555 1_555
C48 C47 1_555 1_555
H51 C48 1_555 1_555
C49 C36 1_555 1_555
C50 C45 1_555 1_555
C51 C50 1_555 1_555
C52 C43 1_555 1_555
H52 C52 1_555 1_555
H53 C52 1_555 1_555
C53 C38 1_555 1_555
C54 C46 1_555 1_555
H54 C54 1_555 1_555
C55 C48 1_555 1_555
H55 C55 1_555 1_555
C56 C55 1_555 1_555
H56 C56 1_555 1_555
H57 C56 1_555 1_555
H58 C56 1_555 1_555
C57 C54 1_555 1_555
H59 C57 1_555 1_555
C58 C52 1_555 1_555
H60 C58 1_555 1_555
C59 C39 1_555 1_555
H61 C59 1_555 1_555
C60 C58 1_555 1_555
H62 C60 1_555 1_555
C61 O8 1_555 1_555
H63 C61 1_555 1_555
H64 C61 1_555 1_555
H65 C61 1_555 1_555
C62 C59 1_555 1_555
H66 C62 1_555 1_555
H67 C62 1_555 1_555
H68 C62 1_555 1_555
C63 C38 1_555 1_555
H69 C63 1_555 1_555
H70 C63 1_555 1_555
H71 C63 1_555 1_555
C64 C60 1_555 1_555
H72 C64 1_555 1_555
H73 C64 1_555 1_555
H74 C64 1_555 1_555
C65 C42 1_555 1_555
H75 C65 1_555 1_555
H76 C65 1_555 1_555
H77 C65 1_555 1_555
C66 C55 1_555 1_555
H78 C66 1_555 1_555
H79 C66 1_555 1_555
H80 C66 1_555 1_555
C67 C42 1_555 1_555
H81 C67 1_555 1_555
H82 C67 1_555 1_555
H83 C67 1_555 1_555
C68 C38 1_555 1_555
H84 C68 1_555 1_555
H85 C68 1_555 1_555
H86 C68 1_555 1_555
C69 C59 1_555 1_555
H87 C69 1_555 1_555
H88 C69 1_555 1_555
H89 C69 1_555 1_555
C70 C60 1_555 1_555
H90 C70 1_555 1_555
H91 C70 1_555 1_555
H92 C70 1_555 1_555
O13 C79 1_555 1_555
O14 C75 1_555 1_555
O15 C80 1_555 1_555
O16 C71 1_555 1_555
O17 C76 1_555 1_555
O18 C99 1_555 1_555
C71 C81 1_555 1_555
C72 H93 1_555 1_555
H94 C72 1_555 1_555
H95 C72 1_555 1_555
C73 H96 1_555 1_555
C74 C76 1_555 1_555
C75 C78 1_555 1_555
C76 C90 1_555 1_555
C77 C80 1_555 1_555
C78 C83 1_555 1_555
C79 C74 1_555 1_555
C80 C82 1_555 1_555
C81 H97 1_555 1_555
C82 C81 1_555 1_555
C83 O13 1_555 1_555
C84 C74 1_555 1_555
H98 C84 1_555 1_555
C85 O16 1_555 1_555
C86 C79 1_555 1_555
C87 C84 1_555 1_555
H99 C87 1_555 1_555
C88 C71 1_555 1_555
H100 C88 1_555 1_555
C89 C73 1_555 1_555
H101 C89 1_555 1_555
C90 C91 1_555 1_555
C91 H102 1_555 1_555
H103 C91 1_555 1_555
H104 C91 1_555 1_555
C92 O15 1_555 1_555
H105 C92 1_555 1_555
H106 C92 1_555 1_555
H107 C92 1_555 1_555
C93 C73 1_555 1_555
H108 C93 1_555 1_555
C94 C73 1_555 1_555
H109 C94 1_555 1_555
H110 C94 1_555 1_555
C95 C87 1_555 1_555
H111 C95 1_555 1_555
H112 C95 1_555 1_555
H113 C95 1_555 1_555
C96 C87 1_555 1_555
H114 C96 1_555 1_555
H115 C96 1_555 1_555
H116 C96 1_555 1_555
C97 C71 1_555 1_555
H117 C97 1_555 1_555
H118 C97 1_555 1_555
H119 C97 1_555 1_555
C98 C93 1_555 1_555
H120 C98 1_555 1_555
H121 C98 1_555 1_555
H122 C98 1_555 1_555
C99 C86 1_555 1_555
C100 C86 1_555 1_555
H123 C100 1_555 1_555
H124 C100 1_555 1_555
H125 C100 1_555 1_555
C101 C93 1_555 1_555
H126 C101 1_555 1_555
H127 C101 1_555 1_555
H128 C101 1_555 1_555
C102 C86 1_555 1_555
H129 C102 1_555 1_555
H130 C102 1_555 1_555
H131 C102 1_555 1_555
C103 C90 1_555 1_555
H132 C103 1_555 1_555
H133 C103 1_555 1_555
H134 C103 1_555 1_555
C104 C72 1_555 1_555
H135 C104 1_555 1_555
C105 C104 1_555 1_555
H136 C105 1_555 1_555
H137 C105 1_555 1_555
H138 C105 1_555 1_555
C7 C11 1_555 1_555
C10 C19 1_555 1_555
C11 C12 1_555 1_555
C15 C22 1_555 1_555
C16 C33 1_555 1_555
C19 C21 1_555 1_555
C28 C29 1_555 1_555
C37 C46 1_555 1_555
C40 C49 1_555 1_555
C42 C53 1_555 1_555
C43 C46 1_555 1_555
C48 C50 1_555 1_555
C57 C58 1_555 1_555
C75 C104 1_555 1_555
C77 C83 1_555 1_555
C77 C84 1_555 1_555
C78 C85 1_555 1_555
C81 C94 1_555 1_555
C82 C85 1_555 1_555
C88 C89 1_555 1_555
C90 C99 1_555 1_555

#END
