
#######################################################################
#
#                 Cambridge Crystallographic Data Centre
#                                CCDC 
#
#######################################################################
#
# If this CIF has been generated from an entry in the Cambridge 
# Structural Database, then it will include bibliographic, chemical, 
# crystal, experimental, refinement or atomic coordinate data resulting 
# from the CCDC's data processing and validation procedures.
#
#######################################################################

data_BIJHUA
_chemical_formula_moiety         'C30 H21 B1 F15 N1'
_chemical_name_systematic        
tris(pentafluorophenyl)[1-(2,2,6,6-tetramethylpiperidin-1-ium-1-ylidene)prop-1-en-2-yl]borate
_symmetry_cell_setting           monoclinic
_symmetry_space_group_name_H-M   'P 21/n'
_symmetry_Int_Tables_number      14
_space_group_name_Hall           '-P 2yn'
loop_
_symmetry_equiv_pos_site_id
_symmetry_equiv_pos_as_xyz
1 x,y,z
2 1/2-x,1/2+y,1/2-z
3 -x,-y,-z
4 1/2+x,1/2-y,1/2+z
_cell_length_a                   9.0404(3)
_cell_length_b                   16.5379(6)
_cell_length_c                   19.3560(7)
_cell_angle_alpha                90
_cell_angle_beta                 99.7720(10)
_cell_angle_gamma                90
_cell_volume                     2851.91
_exptl_crystal_colour            colorless
_exptl_crystal_description       prism
_cell_formula_units_Z            4
loop_
_atom_site_label
_atom_site_type_symbol
_atom_site_fract_x
_atom_site_fract_y
_atom_site_fract_z
B1 B 0.50857(16) 0.30083(8) 0.35221(7)
N1 N 0.73926(12) 0.26443(7) 0.20709(6)
C1 C 0.62877(14) 0.27552(8) 0.23833(6)
C2 C 0.51288(14) 0.27895(7) 0.26865(6)
C3 C 0.36273(15) 0.25646(8) 0.22384(7)
H1 H 0.3667 0.2673 0.1744
H2 H 0.2825 0.2888 0.2384
H3 H 0.3426 0.1989 0.2299
C4 C 0.80563(16) 0.33578(10) 0.17084(7)
C5 C 0.86331(19) 0.30304(11) 0.10626(8)
H4 H 0.7764 0.2875 0.0704
H5 H 0.9179 0.3467 0.0862
C6 C 0.96644(18) 0.23069(12) 0.12205(9)
H6 H 1.008 0.2153 0.0798
H7 H 1.051 0.2441 0.1599
C7 C 0.87661(17) 0.16172(11) 0.14455(8)
H8 H 0.9425 0.1137 0.1532
H9 H 0.7947 0.1483 0.1054
C8 C 0.80759(16) 0.17799(9) 0.21036(7)
C9 C 0.68190(19) 0.39720(10) 0.14912(8)
H10 H 0.7203 0.4416 0.1237
H11 H 0.6478 0.4186 0.1909
H12 H 0.5977 0.3711 0.1187
C10 C 0.93463(17) 0.37327(10) 0.22275(8)
H13 H 0.9814 0.4166 0.1995
H14 H 1.0096 0.3316 0.239
H15 H 0.8953 0.3955 0.2629
C11 C 0.68068(18) 0.11772(9) 0.21186(8)
H16 H 0.7189 0.0626 0.2088
H17 H 0.6003 0.1278 0.172
H18 H 0.6412 0.124 0.2557
C12 C 0.92327(19) 0.17214(11) 0.27767(8)
H19 H 0.878 0.1906 0.3174
H20 H 1.01 0.2062 0.2734
H21 H 0.9559 0.1159 0.2853
C13 C 0.41641(14) 0.38639(7) 0.35689(7)
C14 C 0.36658(15) 0.44066(8) 0.30321(7)
F1 F 0.38623(10) 0.42635(5) 0.23649(4)
C15 C 0.29649(15) 0.51329(8) 0.31252(7)
F2 F 0.24905(11) 0.56176(5) 0.25727(4)
C16 C 0.27730(15) 0.53682(8) 0.37873(7)
F3 F 0.21052(10) 0.60709(5) 0.38854(4)
C17 C 0.32833(14) 0.48645(8) 0.43446(7)
F4 F 0.31218(9) 0.50856(5) 0.49961(4)
C18 C 0.39390(14) 0.41385(8) 0.42241(7)
F5 F 0.43904(9) 0.36688(5) 0.47928(4)
C19 C 0.42274(15) 0.22179(8) 0.38020(7)
C20 C 0.27836(15) 0.22009(8) 0.39617(7)
F6 F 0.19026(9) 0.28683(5) 0.38856(4)
C21 C 0.21277(16) 0.15231(9) 0.42041(7)
F7 F 0.07452(9) 0.15683(6) 0.43714(5)
C22 C 0.28939(18) 0.08013(9) 0.42754(8)
F8 F 0.22732(12) 0.01392(6) 0.45024(5)
C23 C 0.43128(18) 0.07737(8) 0.41040(8)
F9 F 0.50847(11) 0.00726(5) 0.41659(5)
C24 C 0.49291(16) 0.14654(8) 0.38744(7)
F10 F 0.63330(9) 0.13887(5) 0.37265(4)
C25 C 0.67675(14) 0.31782(8) 0.39821(6)
C26 C 0.74584(15) 0.28033(8) 0.45995(7)
F11 F 0.67597(9) 0.22212(5) 0.49106(4)
C27 C 0.88724(15) 0.30088(9) 0.49527(7)
F12 F 0.94822(9) 0.26142(6) 0.55397(4)
C28 C 0.96497(15) 0.36359(9) 0.47151(7)
F13 F 1.10058(9) 0.38486(6) 0.50601(4)
C29 C 0.90020(15) 0.40503(8) 0.41252(7)
F14 F 0.97196(9) 0.46840(5) 0.38965(4)
C30 C 0.76023(14) 0.38163(8) 0.37837(6)
F15 F 0.70075(8) 0.42747(4) 0.32213(4)
loop_
_geom_bond_atom_site_label_1
_geom_bond_atom_site_label_2
_geom_bond_site_symmetry_1
_geom_bond_site_symmetry_2
B1 C2 1_555 1_555
N1 C1 1_555 1_555
C1 C2 1_555 1_555
C2 C3 1_555 1_555
C3 H1 1_555 1_555
H2 C3 1_555 1_555
H3 C3 1_555 1_555
C4 N1 1_555 1_555
C5 C4 1_555 1_555
H4 C5 1_555 1_555
H5 C5 1_555 1_555
C6 C5 1_555 1_555
H6 C6 1_555 1_555
H7 C6 1_555 1_555
C7 C6 1_555 1_555
H8 C7 1_555 1_555
H9 C7 1_555 1_555
C8 N1 1_555 1_555
C9 C4 1_555 1_555
H10 C9 1_555 1_555
H11 C9 1_555 1_555
H12 C9 1_555 1_555
C10 C4 1_555 1_555
H13 C10 1_555 1_555
H14 C10 1_555 1_555
H15 C10 1_555 1_555
C11 C8 1_555 1_555
H16 C11 1_555 1_555
H17 C11 1_555 1_555
H18 C11 1_555 1_555
C12 C8 1_555 1_555
H19 C12 1_555 1_555
H20 C12 1_555 1_555
H21 C12 1_555 1_555
C13 B1 1_555 1_555
C14 C13 1_555 1_555
F1 C14 1_555 1_555
C15 C14 1_555 1_555
F2 C15 1_555 1_555
C16 C15 1_555 1_555
F3 C16 1_555 1_555
C17 C16 1_555 1_555
F4 C17 1_555 1_555
C18 C13 1_555 1_555
F5 C18 1_555 1_555
C19 B1 1_555 1_555
C20 C19 1_555 1_555
F6 C20 1_555 1_555
C21 C20 1_555 1_555
F7 C21 1_555 1_555
C22 C21 1_555 1_555
F8 C22 1_555 1_555
C23 C22 1_555 1_555
F9 C23 1_555 1_555
C24 C19 1_555 1_555
F10 C24 1_555 1_555
C25 B1 1_555 1_555
C26 C25 1_555 1_555
F11 C26 1_555 1_555
C27 C26 1_555 1_555
F12 C27 1_555 1_555
C28 C27 1_555 1_555
F13 C28 1_555 1_555
C29 C28 1_555 1_555
F14 C29 1_555 1_555
C30 C25 1_555 1_555
F15 C30 1_555 1_555
C7 C8 1_555 1_555
C17 C18 1_555 1_555
C23 C24 1_555 1_555
C29 C30 1_555 1_555

#END
