
#######################################################################
#
#                 Cambridge Crystallographic Data Centre
#                                CCDC 
#
#######################################################################
#
# If this CIF has been generated from an entry in the Cambridge 
# Structural Database, then it will include bibliographic, chemical, 
# crystal, experimental, refinement or atomic coordinate data resulting 
# from the CCDC's data processing and validation procedures.
#
#######################################################################

data_BIJHEK
_chemical_formula_moiety         'C24 H22 B1 F10 N1'
_chemical_name_systematic        
1-{2-[bis(pentafluorophenyl)boranyl]prop-1-en-1-yl}-2,2,6,6-tetramethylpiperidine
_symmetry_cell_setting           triclinic
_symmetry_space_group_name_H-M   'P -1'
_symmetry_Int_Tables_number      2
_space_group_name_Hall           '-P 1'
loop_
_symmetry_equiv_pos_site_id
_symmetry_equiv_pos_as_xyz
1 x,y,z
2 -x,-y,-z
_cell_length_a                   13.7333(3)
_cell_length_b                   13.9943(3)
_cell_length_c                   14.2142(5)
_cell_angle_alpha                75.8940(10)
_cell_angle_beta                 88.5530(10)
_cell_angle_gamma                64.471(2)
_cell_volume                     2380.8
_exptl_crystal_colour            yellow
_exptl_crystal_description       plate
_cell_formula_units_Z            4
loop_
_atom_site_label
_atom_site_type_symbol
_atom_site_fract_x
_atom_site_fract_y
_atom_site_fract_z
N1 N 1.0423(3) 0.1727(3) 0.0989(3)
B1 B 0.8632(4) 0.0341(4) 0.1903(4)
C1 C 0.9900(3) 0.1140(4) 0.1414(3)
H1 H 1.0165 0.0773 0.2076
C2 C 0.9059(4) 0.0938(4) 0.1117(3)
C3 C 0.8671(4) 0.1177(4) 0.0048(3)
H2 H 0.8236 0.1968 -0.0213
H3 H 0.8230 0.0793 0.0000
H4 H 0.9300 0.0923 -0.0327
C4 C 1.1547(4) 0.1381(4) 0.1475(4)
C5 C 1.2181(5) 0.1771(6) 0.0717(5)
H5 H 1.2915 0.1540 0.1020
H6 H 1.2265 0.1402 0.0188
C6 C 1.1676(6) 0.2994(7) 0.0275(5)
H7 H 1.1850 0.3145 -0.0409
H8 H 1.1989 0.3334 0.0636
C7 C 1.0460(5) 0.3502(5) 0.0306(5)
H9 H 1.0139 0.4191 -0.0219
H10 H 1.0292 0.3698 0.0934
C8 C 0.9913(4) 0.2785(4) 0.0194(4)
C9 C 1.2134(4) 0.0126(5) 0.1803(5)
H11 H 1.2899 -0.0106 0.1994
H12 H 1.2078 -0.0177 0.1265
H13 H 1.1800 -0.0140 0.2359
C10 C 1.1463(5) 0.1823(5) 0.2366(4)
H14 H 1.2185 0.1517 0.2710
H15 H 1.0984 0.1614 0.2802
H16 H 1.1167 0.2624 0.2161
C11 C 1.0059(5) 0.2573(5) -0.0826(4)
H17 H 1.0833 0.2226 -0.0915
H18 H 0.9702 0.3271 -0.1323
H19 H 0.9734 0.2088 -0.0890
C12 C 0.8729(4) 0.3409(4) 0.0358(4)
H20 H 0.8335 0.2986 0.0288
H21 H 0.8409 0.4121 -0.0123
H22 H 0.8680 0.3520 0.1015
C13 C 0.9179(4) -0.0219(4) 0.2997(3)
F1 F 1.0804(2) -0.1484(2) 0.2556(2)
C14 C 1.0197(4) -0.1096(4) 0.3253(4)
F2 F 1.1628(2) -0.2431(2) 0.4417(2)
C15 C 1.0623(4) -0.1604(4) 0.4204(4)
F3 F 1.0446(2) -0.1740(2) 0.5875(2)
C16 C 1.0031(4) -0.1254(4) 0.4947(4)
F4 F 0.8444(2) -0.0022(2) 0.5449(2)
C17 C 0.9018(4) -0.0394(4) 0.4729(4)
F5 F 0.7618(2) 0.0949(2) 0.3589(2)
C18 C 0.8613(4) 0.0096(4) 0.3768(4)
C19 C 0.7596(4) 0.0170(4) 0.1696(3)
F6 F 0.8487(2) -0.1722(2) 0.2459(2)
C20 C 0.7599(4) -0.0855(4) 0.1972(4)
F7 F 0.6785(3) -0.2052(3) 0.2062(3)
C21 C 0.6731(5) -0.1045(5) 0.1768(4)
F8 F 0.4937(3) -0.0347(3) 0.1094(3)
C22 C 0.5804(5) -0.0185(5) 0.1284(4)
F9 F 0.4814(3) 0.1701(3) 0.0556(3)
C23 C 0.5737(4) 0.0850(5) 0.1014(4)
F10 F 0.6513(2) 0.2044(2) 0.0950(2)
C24 C 0.6623(4) 0.1006(4) 0.1217(4)
N2 N 0.5096(3) 0.5080(3) 0.2662(3)
B2 B 0.3348(5) 0.3727(5) 0.3750(4)
C25 C 0.4594(4) 0.4500(4) 0.3149(3)
H23 H 0.5087 0.3779 0.3492
C26 C 0.3523(4) 0.4706(4) 0.3269(4)
C27 C 0.2596(4) 0.5851(4) 0.3069(4)
H24 H 0.2872 0.6367 0.3155
H25 H 0.2048 0.5853 0.3525
H26 H 0.2271 0.6072 0.2400
C28 C 0.6257(4) 0.4700(4) 0.3056(4)
C29 C 0.6601(4) 0.5604(4) 0.2628(4)
H27 H 0.6138 0.6261 0.2853
H28 H 0.7357 0.5360 0.2885
C30 C 0.6532(4) 0.5926(4) 0.1521(4)
H29 H 0.6386 0.6707 0.1289
H30 H 0.7235 0.5481 0.1301
C31 C 0.5643(4) 0.5753(4) 0.1084(4)
H31 H 0.5961 0.5003 0.0991
H32 H 0.5380 0.6273 0.0433
C32 C 0.4671(4) 0.5900(4) 0.1681(3)
C33 C 0.6286(4) 0.4547(4) 0.4164(4)
H33 H 0.6993 0.4441 0.4415
H34 H 0.6167 0.3903 0.4472
H35 H 0.5715 0.5199 0.4312
C34 C 0.7011(4) 0.3622(4) 0.2823(4)
H36 H 0.6989 0.3726 0.2116
H37 H 0.6774 0.3057 0.3119
H38 H 0.7753 0.3393 0.3087
C35 C 0.3935(4) 0.5619(5) 0.1125(4)
H39 H 0.4315 0.4851 0.1103
H40 H 0.3744 0.6094 0.0460
H41 H 0.3274 0.5733 0.1455
C36 C 0.4105(4) 0.7081(4) 0.1755(4)
H42 H 0.3455 0.7187 0.2102
H43 H 0.3897 0.7578 0.1099
H44 H 0.4598 0.7236 0.2111
C37 C 0.4310(4) 0.2524(4) 0.4122(4)
F11 F 0.4763(2) 0.2840(2) 0.5570(2)
C38 C 0.4941(4) 0.2158(4) 0.4990(4)
F12 F 0.6326(3) 0.0795(3) 0.6185(2)
C39 C 0.5757(4) 0.1112(4) 0.5322(4)
F13 F 0.6769(2) -0.0637(2) 0.5065(3)
C40 C 0.5971(4) 0.0391(4) 0.4761(4)
F14 F 0.5587(3) -0.0006(3) 0.3353(3)
C41 C 0.5372(4) 0.0714(4) 0.3895(4)
F15 F 0.3986(3) 0.2042(3) 0.2729(2)
C42 C 0.4560(4) 0.1761(4) 0.3594(4)
C43 C 0.2157(4) 0.3825(4) 0.3885(4)
F16 F 0.2533(2) 0.3092(3) 0.5585(2)
C44 C 0.1825(4) 0.3510(4) 0.4787(4)
F17 F 0.0495(3) 0.3340(3) 0.5826(2)
C45 C 0.0786(4) 0.3625(4) 0.4935(4)
F18 F -0.0976(2) 0.4173(3) 0.4270(3)
C46 C 0.0037(4) 0.4057(4) 0.4140(4)
F19 F -0.0412(2) 0.4783(3) 0.2456(2)
C47 C 0.0323(4) 0.4366(4) 0.3234(4)
F20 F 0.1605(2) 0.4554(3) 0.2203(2)
C48 C 0.1359(4) 0.4256(4) 0.3117(4)
loop_
_geom_bond_atom_site_label_1
_geom_bond_atom_site_label_2
_geom_bond_site_symmetry_1
_geom_bond_site_symmetry_2
N1 C1 1_555 1_555
B1 C2 1_555 1_555
C1 H1 1_555 1_555
C2 C1 1_555 1_555
C3 C2 1_555 1_555
H2 C3 1_555 1_555
H3 C3 1_555 1_555
H4 C3 1_555 1_555
C4 N1 1_555 1_555
C5 C4 1_555 1_555
H5 C5 1_555 1_555
H6 C5 1_555 1_555
C6 C5 1_555 1_555
H7 C6 1_555 1_555
H8 C6 1_555 1_555
C7 C6 1_555 1_555
H9 C7 1_555 1_555
H10 C7 1_555 1_555
C8 N1 1_555 1_555
C9 C4 1_555 1_555
H11 C9 1_555 1_555
H12 C9 1_555 1_555
H13 C9 1_555 1_555
C10 C4 1_555 1_555
H14 C10 1_555 1_555
H15 C10 1_555 1_555
H16 C10 1_555 1_555
C11 C8 1_555 1_555
H17 C11 1_555 1_555
H18 C11 1_555 1_555
H19 C11 1_555 1_555
C12 C8 1_555 1_555
H20 C12 1_555 1_555
H21 C12 1_555 1_555
H22 C12 1_555 1_555
C13 B1 1_555 1_555
F1 C14 1_555 1_555
C14 C13 1_555 1_555
F2 C15 1_555 1_555
C15 C14 1_555 1_555
F3 C16 1_555 1_555
C16 C15 1_555 1_555
F4 C17 1_555 1_555
C17 C16 1_555 1_555
F5 C18 1_555 1_555
C18 C13 1_555 1_555
C19 B1 1_555 1_555
F6 C20 1_555 1_555
C20 C19 1_555 1_555
F7 C21 1_555 1_555
C21 C20 1_555 1_555
F8 C22 1_555 1_555
C22 C21 1_555 1_555
F9 C23 1_555 1_555
C23 C22 1_555 1_555
F10 C24 1_555 1_555
C24 C19 1_555 1_555
N2 C25 1_555 1_555
B2 C26 1_555 1_555
C25 H23 1_555 1_555
C26 C25 1_555 1_555
C27 C26 1_555 1_555
H24 C27 1_555 1_555
H25 C27 1_555 1_555
H26 C27 1_555 1_555
C28 N2 1_555 1_555
C29 C28 1_555 1_555
H27 C29 1_555 1_555
H28 C29 1_555 1_555
C30 C29 1_555 1_555
H29 C30 1_555 1_555
H30 C30 1_555 1_555
C31 C30 1_555 1_555
H31 C31 1_555 1_555
H32 C31 1_555 1_555
C32 N2 1_555 1_555
C33 C28 1_555 1_555
H33 C33 1_555 1_555
H34 C33 1_555 1_555
H35 C33 1_555 1_555
C34 C28 1_555 1_555
H36 C34 1_555 1_555
H37 C34 1_555 1_555
H38 C34 1_555 1_555
C35 C32 1_555 1_555
H39 C35 1_555 1_555
H40 C35 1_555 1_555
H41 C35 1_555 1_555
C36 C32 1_555 1_555
H42 C36 1_555 1_555
H43 C36 1_555 1_555
H44 C36 1_555 1_555
C37 B2 1_555 1_555
F11 C38 1_555 1_555
C38 C37 1_555 1_555
F12 C39 1_555 1_555
C39 C38 1_555 1_555
F13 C40 1_555 1_555
C40 C39 1_555 1_555
F14 C41 1_555 1_555
C41 C40 1_555 1_555
F15 C42 1_555 1_555
C42 C37 1_555 1_555
C43 B2 1_555 1_555
F16 C44 1_555 1_555
C44 C43 1_555 1_555
F17 C45 1_555 1_555
C45 C44 1_555 1_555
F18 C46 1_555 1_555
C46 C45 1_555 1_555
F19 C47 1_555 1_555
C47 C46 1_555 1_555
F20 C48 1_555 1_555
C48 C43 1_555 1_555
C7 C8 1_555 1_555
C17 C18 1_555 1_555
C23 C24 1_555 1_555
C31 C32 1_555 1_555
C41 C42 1_555 1_555
C47 C48 1_555 1_555

#END
