
#######################################################################
#
#                 Cambridge Crystallographic Data Centre
#                                CCDC 
#
#######################################################################
#
# If this CIF has been generated from an entry in the Cambridge 
# Structural Database, then it will include bibliographic, chemical, 
# crystal, experimental, refinement or atomic coordinate data resulting 
# from the CCDC's data processing and validation procedures.
#
#######################################################################

data_BIJJIQ
_chemical_formula_moiety         'C28 H30 B1 F10 N1 Si1'
_chemical_name_systematic        
{2-[bis(propan-2-yl)iminio]-1-(trimethylsilyl)ethenyl}(3-methylbuta-1,3-dien-1-yl)bis(pentafluorophenyl)borate
_symmetry_cell_setting           monoclinic
_symmetry_space_group_name_H-M   'P 21/n'
_symmetry_Int_Tables_number      14
_space_group_name_Hall           '-P 2yn'
loop_
_symmetry_equiv_pos_site_id
_symmetry_equiv_pos_as_xyz
1 x,y,z
2 1/2-x,1/2+y,1/2-z
3 -x,-y,-z
4 1/2+x,1/2-y,1/2+z
_cell_length_a                   10.0190(2)
_cell_length_b                   19.0596(3)
_cell_length_c                   15.5129(3)
_cell_angle_alpha                90
_cell_angle_beta                 94.4220(10)
_cell_angle_gamma                90
_cell_volume                     2953.5
_exptl_crystal_colour            colorless
_exptl_crystal_description       prism
_cell_formula_units_Z            4
loop_
_atom_site_label
_atom_site_type_symbol
_atom_site_fract_x
_atom_site_fract_y
_atom_site_fract_z
C1 C -0.13078(17) 0.25420(9) 0.68102(11)
C2 C -0.12478(17) 0.31791(10) 0.70457(12)
N1 N -0.11480(16) 0.38200(8) 0.72645(11)
C3 C -0.0779(8) 0.4377(5) 0.6643(5)
H1 H -0.0279 0.4748 0.6979
C4 C 0.0126(9) 0.4088(3) 0.5998(5)
H2 H 0.0902 0.3872 0.6303
H3 H 0.0415 0.4466 0.5637
H4 H -0.0355 0.3740 0.5639
C5 C -0.2038(7) 0.4705(4) 0.6219(6)
H5 H -0.2535 0.4356 0.5872
H6 H -0.1799 0.5090 0.5852
H7 H -0.2586 0.4880 0.6661
C6 C -0.1430(9) 0.4060(6) 0.8156(5)
H8 H -0.1982 0.4489 0.8081
C7 C -0.0130(7) 0.4276(3) 0.8660(5)
H9 H 0.0414 0.3863 0.8790
H10 H -0.0331 0.4502 0.9194
H11 H 0.0354 0.4599 0.8315
C8 C -0.2209(7) 0.3555(4) 0.8651(4)
H12 H -0.2994 0.3403 0.8294
H13 H -0.2486 0.3781 0.9168
H14 H -0.1655 0.3151 0.8813
Si1 Si 0.03451(5) 0.20403(3) 0.70387(4)
C9 C 0.1333(3) 0.24731(14) 0.79530(18)
H15 H 0.2161 0.2217 0.8084
H16 H 0.0818 0.2476 0.8457
H17 H 0.1535 0.2952 0.7795
C10 C 0.1293(2) 0.20810(16) 0.60559(17)
H18 H 0.2240 0.2019 0.6218
H19 H 0.1149 0.2534 0.5778
H20 H 0.0985 0.1712 0.5659
C11 C 0.0001(2) 0.11190(11) 0.73462(16)
H21 H -0.0313 0.0856 0.6835
H22 H -0.0680 0.1113 0.7758
H23 H 0.0815 0.0907 0.7606
C12 C -0.36503(18) 0.28083(10) 0.58761(12)
H24 H -0.3583 0.2894 0.5284
C13 C -0.4502(2) 0.32063(11) 0.62636(13)
H25 H -0.4605 0.3108 0.6849
C14 C -0.5305(2) 0.37868(11) 0.58777(15)
C15 C -0.5997(3) 0.41989(17) 0.6365(2)
H26 H -0.5978 0.4121 0.6964
H27 H -0.6509 0.4569 0.6112
C16 C -0.5294(3) 0.39112(15) 0.49288(17)
H28 H -0.5833 0.4320 0.4769
H29 H -0.5660 0.3505 0.4617
H30 H -0.4381 0.3989 0.4783
B1 B -0.2709(2) 0.21897(10) 0.63015(13)
C17 C -0.21777(17) 0.16810(9) 0.55340(11)
F1 F -0.27369(13) 0.05795(6) 0.61267(8)
C18 C -0.2213(2) 0.09570(10) 0.54947(12)
F2 F -0.17804(18) -0.01434(7) 0.48688(10)
C19 C -0.1719(2) 0.05603(10) 0.48469(14)
F3 F -0.06546(19) 0.05083(8) 0.35513(10)
C20 C -0.1152(2) 0.08854(12) 0.41821(14)
F4 F -0.05186(14) 0.19378(8) 0.35318(8)
C21 C -0.1087(2) 0.16046(11) 0.41773(13)
F5 F -0.14140(12) 0.26816(6) 0.47982(7)
C22 C -0.15822(18) 0.19794(9) 0.48384(12)
C23 C -0.35801(19) 0.17665(9) 0.69928(12)
F6 F -0.21999(14) 0.19898(7) 0.82819(8)
C24 C -0.3343(2) 0.17317(11) 0.78799(13)
F7 F -0.38998(19) 0.14418(9) 0.92893(10)
C25 C -0.4214(3) 0.14397(12) 0.84306(15)
F8 F -0.62254(17) 0.08472(9) 0.86183(13)
C26 C -0.5370(3) 0.11433(12) 0.81004(19)
F9 F -0.67659(14) 0.08148(8) 0.68762(13)
C27 C -0.5651(2) 0.11365(12) 0.72204(19)
F10 F -0.51209(13) 0.14290(7) 0.58341(9)
C28 C -0.4780(2) 0.14502(11) 0.66934(15)
C29? C -0.0702(17) 0.4341(13) 0.6610(12)
H31? H -0.0534 0.4794 0.6913
C30? C 0.0596(17) 0.4107(11) 0.6281(13)
H32? H 0.1257 0.4040 0.6765
H33? H 0.0910 0.4461 0.5896
H34? H 0.0460 0.3668 0.5970
C31? C -0.1797(17) 0.4462(9) 0.5897(10)
H35? H -0.1836 0.4065 0.5504
H36? H -0.1606 0.4886 0.5583
H37? H -0.2650 0.4512 0.6147
C32? C -0.1467(17) 0.4139(13) 0.8114(9)
H38? H -0.1656 0.4645 0.8026
C33? C -0.025(2) 0.4058(13) 0.8742(13)
H39? H -0.0152 0.3570 0.8915
H40? H -0.0348 0.4347 0.9247
H41? H 0.0544 0.4205 0.8466
C34? C -0.2714(18) 0.3779(10) 0.8369(12)
H42? H -0.3418 0.3827 0.7908
H43? H -0.2999 0.3992 0.8892
H44? H -0.2529 0.3285 0.8473
loop_
_geom_bond_atom_site_label_1
_geom_bond_atom_site_label_2
_geom_bond_site_symmetry_1
_geom_bond_site_symmetry_2
C1 C2 1_555 1_555
C2 N1 1_555 1_555
N1 C3 1_555 1_555
C3 H1 1_555 1_555
C4 C3 1_555 1_555
H2 C4 1_555 1_555
H3 C4 1_555 1_555
H4 C4 1_555 1_555
C5 C3 1_555 1_555
H5 C5 1_555 1_555
H6 C5 1_555 1_555
H7 C5 1_555 1_555
C6 N1 1_555 1_555
H8 C6 1_555 1_555
C7 C6 1_555 1_555
H9 C7 1_555 1_555
H10 C7 1_555 1_555
H11 C7 1_555 1_555
C8 C6 1_555 1_555
H12 C8 1_555 1_555
H13 C8 1_555 1_555
H14 C8 1_555 1_555
Si1 C1 1_555 1_555
C9 Si1 1_555 1_555
H15 C9 1_555 1_555
H16 C9 1_555 1_555
H17 C9 1_555 1_555
C10 Si1 1_555 1_555
H18 C10 1_555 1_555
H19 C10 1_555 1_555
H20 C10 1_555 1_555
C11 Si1 1_555 1_555
H21 C11 1_555 1_555
H22 C11 1_555 1_555
H23 C11 1_555 1_555
C12 H24 1_555 1_555
C13 C12 1_555 1_555
H25 C13 1_555 1_555
C14 C13 1_555 1_555
C15 C14 1_555 1_555
H26 C15 1_555 1_555
H27 C15 1_555 1_555
C16 C14 1_555 1_555
H28 C16 1_555 1_555
H29 C16 1_555 1_555
H30 C16 1_555 1_555
B1 C1 1_555 1_555
C17 B1 1_555 1_555
F1 C18 1_555 1_555
C18 C17 1_555 1_555
F2 C19 1_555 1_555
C19 C18 1_555 1_555
F3 C20 1_555 1_555
C20 C19 1_555 1_555
F4 C21 1_555 1_555
C21 C20 1_555 1_555
F5 C22 1_555 1_555
C22 C17 1_555 1_555
C23 B1 1_555 1_555
F6 C24 1_555 1_555
C24 C23 1_555 1_555
F7 C25 1_555 1_555
C25 C24 1_555 1_555
F8 C26 1_555 1_555
C26 C25 1_555 1_555
F9 C27 1_555 1_555
C27 C26 1_555 1_555
F10 C28 1_555 1_555
C28 C23 1_555 1_555
C12 B1 1_555 1_555
C21 C22 1_555 1_555
C27 C28 1_555 1_555

#END
