
#######################################################################
#
#                 Cambridge Crystallographic Data Centre
#                                CCDC 
#
#######################################################################
#
# If this CIF has been generated from an entry in the Cambridge 
# Structural Database, then it will include bibliographic, chemical, 
# crystal, experimental, refinement or atomic coordinate data resulting 
# from the CCDC's data processing and validation procedures.
#
#######################################################################

data_BIJSAR
_chemical_formula_moiety         'C25 H29 N1 O5 S1'
_chemical_name_systematic        
't-butyl 2-{2,5-dimethyl-1-[(4-methylphenyl)sulfonyl]-1H-indol-3-yl}-3-hydroxybut-2-enoate'
_symmetry_cell_setting           triclinic
_symmetry_space_group_name_H-M   'P -1'
_symmetry_Int_Tables_number      2
_space_group_name_Hall           '-P 1'
loop_
_symmetry_equiv_pos_site_id
_symmetry_equiv_pos_as_xyz
1 x,y,z
2 -x,-y,-z
_cell_length_a                   9.0009(6)
_cell_length_b                   9.4814(5)
_cell_length_c                   14.6222(10)
_cell_angle_alpha                92.269(5)
_cell_angle_beta                 102.450(6)
_cell_angle_gamma                100.774(5)
_cell_volume                     1192.89
_exptl_crystal_colour            colorless
_exptl_crystal_description       block
_cell_formula_units_Z            2
loop_
_atom_site_label
_atom_site_type_symbol
_atom_site_fract_x
_atom_site_fract_y
_atom_site_fract_z
S1 S 0.38847(7) 0.48889(7) 0.71239(5)
O1 O 0.3682(2) 0.5570(2) 0.79607(15)
O2 O 0.5899(2) -0.1509(2) 0.95045(14)
H1 H 0.683337 -0.117174 0.960994
O3 O 0.2789(2) 0.4875(2) 0.62645(15)
O4 O 0.8367(2) 0.0103(2) 0.93138(15)
O5 O 0.8149(2) 0.1988(2) 0.84339(15)
N1 N 0.3900(3) 0.3167(2) 0.73109(16)
C1 C 0.3529(3) 0.2026(3) 0.65848(19)
C2 C 0.4021(3) -0.0387(3) 0.64052(19)
H2 H 0.445496 -0.114330 0.665630
C3 C 0.4204(3) 0.0900(3) 0.69633(19)
C4 C 0.4995(3) 0.1356(3) 0.79208(19)
C5 C 0.4838(3) 0.2728(3) 0.81172(19)
C6 C 0.7719(3) 0.5649(3) 0.6093(2)
H3 H 0.805797 0.528079 0.559305
C7 C 0.6245(3) 0.5071(3) 0.6220(2)
H4 H 0.559533 0.432903 0.580480
C8 C 0.5761(3) 0.5615(3) 0.69732(19)
C9 C 0.2661(3) 0.1896(3) 0.5673(2)
H5 H 0.218942 0.263528 0.542771
C10 C 0.5127(3) -0.0689(3) 0.89337(19)
C11 C 0.7559(3) 0.0809(3) 0.88062(19)
C12 C 0.8694(3) 0.6778(3) 0.6706(2)
C13 C 0.3200(4) -0.0527(3) 0.5487(2)
C14 C 0.6706(3) 0.6717(3) 0.7603(2)
H6 H 0.637396 0.706109 0.811295
C15 C 0.5872(3) 0.0479(3) 0.85687(18)
C16 C 0.2519(4) 0.0613(3) 0.5136(2)
H7 H 0.194892 0.050799 0.451744
C17 C 0.3418(3) -0.1170(3) 0.8755(2)
H8 H 0.312781 -0.214249 0.847269
H9 H 0.292433 -0.055214 0.833737
H10 H 0.309496 -0.112713 0.933764
C18 C 0.8170(3) 0.7298(3) 0.7453(2)
H11 H 0.880853 0.805190 0.786358
C19 C 0.5489(4) 0.3666(3) 0.9006(2)
H12 H 0.623206 0.447435 0.889984
H13 H 0.598909 0.312588 0.947788
H14 H 0.466566 0.400317 0.921362
C20 C 1.0274(4) 0.7399(4) 0.6551(2)
H15 H 1.100393 0.683949 0.684115
H16 H 1.059606 0.837633 0.682280
H17 H 1.023127 0.737870 0.588835
C21 C 0.3024(4) -0.1875(3) 0.4859(2)
H18 H 0.372491 -0.170437 0.444637
H19 H 0.197633 -0.213623 0.449354
H20 H 0.326009 -0.264392 0.523747
C22 C 0.9844(3) 0.2576(3) 0.8637(2)
C23 C 1.0437(4) 0.2985(4) 0.9684(3)
H21 H 0.977763 0.354632 0.990022
H22 H 1.147705 0.353944 0.980290
H23 H 1.043200 0.212670 1.001186
C24 C 1.0665(4) 0.1495(4) 0.8269(3)
H24 H 1.058230 0.066193 0.862093
H25 H 1.174061 0.192487 0.833445
H26 H 1.019275 0.121406 0.761745
C25 C 0.9910(4) 0.3903(4) 0.8087(3)
H27 H 0.950165 0.361697 0.742987
H28 H 1.096840 0.440747 0.818402
H29 H 0.930298 0.452502 0.829911
loop_
_geom_bond_atom_site_label_1
_geom_bond_atom_site_label_2
_geom_bond_site_symmetry_1
_geom_bond_site_symmetry_2
S1 O1 1_555 1_555
O2 H1 1_555 1_555
O3 S1 1_555 1_555
O4 C11 1_555 1_555
O5 C11 1_555 1_555
N1 S1 1_555 1_555
C1 N1 1_555 1_555
C2 H2 1_555 1_555
C3 C1 1_555 1_555
C4 C3 1_555 1_555
C5 N1 1_555 1_555
C6 H3 1_555 1_555
C7 C6 1_555 1_555
H4 C7 1_555 1_555
C8 S1 1_555 1_555
C9 C1 1_555 1_555
H5 C9 1_555 1_555
C10 O2 1_555 1_555
C11 C15 1_555 1_555
C12 C6 1_555 1_555
C13 C2 1_555 1_555
C14 C8 1_555 1_555
H6 C14 1_555 1_555
C15 C4 1_555 1_555
C16 C9 1_555 1_555
H7 C16 1_555 1_555
C17 C10 1_555 1_555
H8 C17 1_555 1_555
H9 C17 1_555 1_555
H10 C17 1_555 1_555
C18 C12 1_555 1_555
H11 C18 1_555 1_555
C19 C5 1_555 1_555
H12 C19 1_555 1_555
H13 C19 1_555 1_555
H14 C19 1_555 1_555
C20 C12 1_555 1_555
H15 C20 1_555 1_555
H16 C20 1_555 1_555
H17 C20 1_555 1_555
C21 C13 1_555 1_555
H18 C21 1_555 1_555
H19 C21 1_555 1_555
H20 C21 1_555 1_555
C22 O5 1_555 1_555
C23 C22 1_555 1_555
H21 C23 1_555 1_555
H22 C23 1_555 1_555
H23 C23 1_555 1_555
C24 C22 1_555 1_555
H24 C24 1_555 1_555
H25 C24 1_555 1_555
H26 C24 1_555 1_555
C25 C22 1_555 1_555
H27 C25 1_555 1_555
H28 C25 1_555 1_555
H29 C25 1_555 1_555
C2 C3 1_555 1_555
C4 C5 1_555 1_555
C7 C8 1_555 1_555
C10 C15 1_555 1_555
C13 C16 1_555 1_555
C14 C18 1_555 1_555

#END
