
#######################################################################
#
#                 Cambridge Crystallographic Data Centre
#                                CCDC 
#
#######################################################################
#
# If this CIF has been generated from an entry in the Cambridge 
# Structural Database, then it will include bibliographic, chemical, 
# crystal, experimental, refinement or atomic coordinate data resulting 
# from the CCDC's data processing and validation procedures.
#
#######################################################################

data_BIJWAV
_chemical_formula_moiety         'C16 H12 Br1 F2 N1 O1 S1'
_chemical_name_systematic        
3-[(4-bromophenyl)sulfanyl]-2,2-difluoro-N-phenylcyclopropane-1-carboxamide
_symmetry_cell_setting           monoclinic
_symmetry_space_group_name_H-M   'P 21/n'
_symmetry_Int_Tables_number      14
_space_group_name_Hall           '-P 2yn'
loop_
_symmetry_equiv_pos_site_id
_symmetry_equiv_pos_as_xyz
1 x,y,z
2 1/2-x,1/2+y,1/2-z
3 -x,-y,-z
4 1/2+x,1/2-y,1/2+z
_cell_length_a                   4.81051(8)
_cell_length_b                   9.39477(13)
_cell_length_c                   34.2042(5)
_cell_angle_alpha                90
_cell_angle_beta                 92.9598(14)
_cell_angle_gamma                90
_cell_volume                     1543.75
_exptl_crystal_colour            colorless
_exptl_crystal_description       rod
_cell_formula_units_Z            4
_exptl_crystal_recrystallization_method Chloroform
loop_
_atom_site_label
_atom_site_type_symbol
_atom_site_fract_x
_atom_site_fract_y
_atom_site_fract_z
Br1 Br 0.68747(6) 0.72152(3) 0.51908(2)
S1 S 0.30727(11) 0.49635(5) 0.68572(2)
F1 F 0.2087(3) 0.80937(13) 0.70848(4)
F2 F 0.6137(3) 0.84209(13) 0.73895(4)
O1 O 0.7561(2) 0.62640(16) 0.80010(4)
N1 N 0.3363(3) 0.62161(15) 0.82799(4)
H1 H 0.140(2) 0.611(2) 0.8229(6)
C1 C 0.3416(3) 0.63681(19) 0.75882(5)
H2 H 0.140679 0.609476 0.758711
C2 C 0.4149(4) 0.74546(19) 0.72998(6)
C3 C 0.4954(3) 0.59878(18) 0.72145(5)
H3 H 0.697948 0.576078 0.725453
C4 C 0.5011(3) 0.62750(17) 0.79751(5)
C5 C 0.4303(3) 0.61649(19) 0.86809(5)
C6 C 0.2897(4) 0.5289(2) 0.89290(6)
H4 H 0.140996 0.470861 0.882826
C7 C 0.3668(5) 0.5263(3) 0.93263(7)
H5 H 0.270127 0.466278 0.949695
C8 C 0.5822(5) 0.6099(3) 0.94737(6)
H6 H 0.634960 0.607341 0.974509
C9 C 0.7213(5) 0.6976(3) 0.92262(7)
H7 H 0.868822 0.755953 0.932903
C10 C 0.6478(4) 0.7016(2) 0.88269(6)
H8 H 0.745113 0.761567 0.865702
C11 C 0.4243(4) 0.56576(19) 0.64125(5)
C12 C 0.6279(4) 0.6683(2) 0.63868(6)
H9 H 0.715199 0.707160 0.661844
C13 C 0.7053(5) 0.7148(3) 0.60232(6)
H10 H 0.845748 0.785227 0.600526
C14 C 0.5779(4) 0.6585(2) 0.56885(6)
C15 C 0.3755(5) 0.5571(3) 0.57084(6)
H11 H 0.288398 0.519012 0.547570
C16 C 0.2986(5) 0.5105(2) 0.60707(6)
H12 H 0.158269 0.439903 0.608600
loop_
_geom_bond_atom_site_label_1
_geom_bond_atom_site_label_2
_geom_bond_site_symmetry_1
_geom_bond_site_symmetry_2
Br1 C14 1_555 1_555
S1 C3 1_555 1_555
F1 C2 1_555 1_555
F2 C2 1_555 1_555
O1 C4 1_555 1_555
N1 H1 1_555 1_555
C1 H2 1_555 1_555
C2 C1 1_555 1_555
C3 C1 1_555 1_555
H3 C3 1_555 1_555
C4 N1 1_555 1_555
C5 N1 1_555 1_555
C6 C5 1_555 1_555
H4 C6 1_555 1_555
C7 C6 1_555 1_555
H5 C7 1_555 1_555
C8 C7 1_555 1_555
H6 C8 1_555 1_555
C9 C8 1_555 1_555
H7 C9 1_555 1_555
C10 C5 1_555 1_555
H8 C10 1_555 1_555
C11 S1 1_555 1_555
C12 C11 1_555 1_555
H9 C12 1_555 1_555
C13 C12 1_555 1_555
H10 C13 1_555 1_555
C14 C13 1_555 1_555
C15 C14 1_555 1_555
H11 C15 1_555 1_555
C16 C11 1_555 1_555
H12 C16 1_555 1_555
C1 C4 1_555 1_555
C2 C3 1_555 1_555
C9 C10 1_555 1_555
C15 C16 1_555 1_555

#END
