
#######################################################################
#
#                 Cambridge Crystallographic Data Centre
#                                CCDC 
#
#######################################################################
#
# If this CIF has been generated from an entry in the Cambridge 
# Structural Database, then it will include bibliographic, chemical, 
# crystal, experimental, refinement or atomic coordinate data resulting 
# from the CCDC's data processing and validation procedures.
#
#######################################################################

data_BIJZOM
_chemical_formula_moiety         'C24 H22 O2'
_chemical_name_systematic        
(6S,12aS)-(+)-4,6-dimethyl-5-phenyl-4,6-dimethyl-5-phenyl-1,3,6,8-tetrahydrobenzo[5,6]oxepino[4,3-e]isobenzofuran
_symmetry_cell_setting           orthorhombic
_symmetry_space_group_name_H-M   'P 21 21 21'
_symmetry_Int_Tables_number      19
_space_group_name_Hall           'P 2ac 2ab'
loop_
_symmetry_equiv_pos_site_id
_symmetry_equiv_pos_as_xyz
1 x,y,z
2 1/2-x,-y,1/2+z
3 -x,1/2+y,1/2-z
4 1/2+x,1/2-y,-z
_cell_length_a                   8.7794(14)
_cell_length_b                   9.9258(16)
_cell_length_c                   21.107(3)
_cell_angle_alpha                90
_cell_angle_beta                 90
_cell_angle_gamma                90
_cell_volume                     1839.32
_exptl_crystal_colour            colorless
_exptl_crystal_description       block
_chemical_melting_point          '163.5-165.3 deg.C'
_cell_formula_units_Z            4
_exptl_crystal_recrystallization_method dichloromethane/n-hexane
loop_
_atom_site_label
_atom_site_type_symbol
_atom_site_fract_x
_atom_site_fract_y
_atom_site_fract_z
O1 O 0.6976(3) 0.6456(3) 0.34066(12)
O2 O 0.0133(3) 0.3657(3) 0.29231(14)
C1 C 0.4099(4) 0.6335(3) 0.25083(15)
C2 C 0.3487(4) 0.5856(3) 0.31264(16)
C3 C 0.4253(4) 0.6106(3) 0.37062(16)
C4 C 0.5666(4) 0.6995(3) 0.37254(17)
H1 H 0.595256 0.705015 0.417336
C5 C 0.3672(4) 0.5609(3) 0.42817(16)
C6 C 0.2295(4) 0.4888(4) 0.42965(17)
C7 C 0.5667(4) 0.6248(3) 0.23887(16)
C8 C 0.2150(4) 0.5102(3) 0.31544(16)
C9 C 0.1575(4) 0.4641(4) 0.37237(19)
C10 C 0.5273(5) 0.7221(4) 0.13556(17)
H2 H 0.566492 0.751600 0.097035
C11 C 0.4527(5) 0.5829(4) 0.48919(16)
C12 C 0.6685(4) 0.5627(4) 0.28708(18)
H3 H 0.622756 0.479129 0.301470
H4 H 0.764737 0.540480 0.267097
C13 C 0.3155(4) 0.6865(3) 0.20401(16)
H5 H 0.211378 0.693237 0.211406
C14 C 0.6237(4) 0.6712(3) 0.18153(17)
H6 H 0.727984 0.667916 0.173939
C15 C 0.5761(5) 0.5037(4) 0.50452(17)
H7 H 0.608955 0.437964 0.476224
C16 C 0.3742(5) 0.7289(4) 0.14702(17)
H8 H 0.309221 0.762517 0.116013
C17 C 0.4079(5) 0.6808(5) 0.5322(2)
H9 H 0.325259 0.736105 0.522917
C18 C 0.1122(4) 0.4600(4) 0.26270(19)
H10 H 0.054652 0.533773 0.244362
H11 H 0.171353 0.417047 0.229567
C19 C 0.0169(5) 0.3839(5) 0.3597(2)
H12 H 0.021333 0.297628 0.381157
H13 H -0.072862 0.432084 0.373982
C20 C 0.4858(5) 0.6969(5) 0.5889(2)
H14 H 0.455214 0.763211 0.617331
C21 C 0.6060(5) 0.6166(6) 0.6034(2)
H15 H 0.657042 0.626931 0.641692
C22 C 0.1632(5) 0.4345(5) 0.49091(19)
H16 H 0.243286 0.422760 0.521385
H17 H 0.114982 0.349324 0.482970
H18 H 0.089401 0.496936 0.507149
C23 C 0.5359(5) 0.8433(4) 0.35216(18)
H19 H 0.628192 0.894800 0.355167
H20 H 0.459876 0.882153 0.379240
H21 H 0.500325 0.843982 0.309161
C24 C 0.6512(6) 0.5203(5) 0.5609(2)
H22 H 0.734056 0.465531 0.570429
loop_
_geom_bond_atom_site_label_1
_geom_bond_atom_site_label_2
_geom_bond_site_symmetry_1
_geom_bond_site_symmetry_2
O1 C4 1_555 1_555
O2 C18 1_555 1_555
C1 C2 1_555 1_555
C2 C3 1_555 1_555
C3 C4 1_555 1_555
C4 H1 1_555 1_555
C5 C3 1_555 1_555
C6 C5 1_555 1_555
C7 C1 1_555 1_555
C8 C2 1_555 1_555
C9 C6 1_555 1_555
C10 H2 1_555 1_555
C11 C5 1_555 1_555
C12 O1 1_555 1_555
H3 C12 1_555 1_555
H4 C12 1_555 1_555
C13 C1 1_555 1_555
H5 C13 1_555 1_555
C14 C7 1_555 1_555
H6 C14 1_555 1_555
C15 C11 1_555 1_555
H7 C15 1_555 1_555
C16 C10 1_555 1_555
H8 C16 1_555 1_555
C17 C11 1_555 1_555
H9 C17 1_555 1_555
C18 C8 1_555 1_555
H10 C18 1_555 1_555
H11 C18 1_555 1_555
C19 O2 1_555 1_555
H12 C19 1_555 1_555
H13 C19 1_555 1_555
C20 C17 1_555 1_555
H14 C20 1_555 1_555
C21 C20 1_555 1_555
H15 C21 1_555 1_555
C22 C6 1_555 1_555
H16 C22 1_555 1_555
H17 C22 1_555 1_555
H18 C22 1_555 1_555
C23 C4 1_555 1_555
H19 C23 1_555 1_555
H20 C23 1_555 1_555
H21 C23 1_555 1_555
C24 C15 1_555 1_555
H22 C24 1_555 1_555
C7 C12 1_555 1_555
C8 C9 1_555 1_555
C9 C19 1_555 1_555
C10 C14 1_555 1_555
C13 C16 1_555 1_555
C21 C24 1_555 1_555

#END
