
#######################################################################
#
#                 Cambridge Crystallographic Data Centre
#                                CCDC 
#
#######################################################################
#
# If this CIF has been generated from an entry in the Cambridge 
# Structural Database, then it will include bibliographic, chemical, 
# crystal, experimental, refinement or atomic coordinate data resulting 
# from the CCDC's data processing and validation procedures.
#
#######################################################################

data_BIKMOX
_chemical_compound_source        'Streptomyces griseus'
_chemical_name_common            'Fredericamycin A'
_chemical_formula_moiety         'C30 H21 N1 O9'
_chemical_name_systematic        
(E,E)-6',7'-Dihydro-4,9,9'-trihydroxy-6-methoxy-3'-(1,3-pentadienyl)spiro(2H-benz(f)indene-2,8'-(8H)cyclopent(g)isoquinoline)-1,1',3,5,8(2'H)-pentaone
_symmetry_cell_setting           orthorhombic
_symmetry_space_group_name_H-M   'P 21 21 21'
_symmetry_Int_Tables_number      19
_space_group_name_Hall           'P 2ac 2ab'
loop_
_symmetry_equiv_pos_site_id
_symmetry_equiv_pos_as_xyz
1 x,y,z
2 1/2+x,1/2-y,-z
3 -x,1/2+y,1/2-z
4 1/2-x,-y,1/2+z
_cell_length_a                   10.226(1)
_cell_length_b                   20.202(1)
_cell_length_c                   23.736(2)
_cell_angle_alpha                90
_cell_angle_beta                 90
_cell_angle_gamma                90
_cell_volume                     4903.52
_exptl_crystal_colour            red
_chemical_melting_point          350deg.C(dec.)
_cell_formula_units_Z            8
loop_
_atom_site_label
_atom_site_type_symbol
_atom_site_fract_x
_atom_site_fract_y
_atom_site_fract_z
C1 C 1.62080 0.89650 0.02620
C2 C 1.53800 0.87200 0.07320
C3 C 1.43650 0.90220 0.09670
C4 C 1.35700 0.87830 0.14190
C5 C 1.25260 0.90960 0.16220
C6 C 1.16830 0.89100 0.20880
C7 C 1.06900 0.92780 0.22620
N1 N 1.19190 0.83180 0.23680
C8 C 1.12360 0.80970 0.28370
C9 C 0.99230 0.91320 0.27410
O1 O 1.15430 0.75600 0.30540
C10 C 1.02310 0.85380 0.30380
C11 C 0.89270 0.95370 0.29410
C12 C 0.83280 0.93940 0.34500
C13 C 0.96030 0.83970 0.35530
O2 O 0.98760 0.78530 0.38590
C14 C 0.86840 0.88210 0.37570
C15 C 0.73090 0.97650 0.37740
O3 O 0.97180 0.96270 0.46780
C16 C 0.69540 0.93250 0.42610
C17 C 0.81110 0.88440 0.43440
C18 C 0.91170 0.91180 0.47520
O4 O 0.68710 0.78240 0.44430
C19 C 0.77060 0.81880 0.46260
C20 C 0.92460 0.86620 0.52220
O5 O 1.09060 0.92320 0.57520
C21 C 0.84330 0.81310 0.51620
C22 C 1.01090 0.87060 0.56820
C23 C 0.84110 0.76050 0.55680
C24 C 1.01440 0.81860 0.60700
O6 O 0.75220 0.71220 0.54980
O7 O 1.18820 0.86830 0.65700
C25 C 0.92970 0.76470 0.60040
C26 C 1.11640 0.81990 0.65220
C27 C 0.94000 0.70670 0.64000
C28 C 1.12160 0.76430 0.69030
O8 O 0.86980 0.65890 0.63590
C29 C 1.04250 0.71110 0.68410
O9 O 1.04250 0.65630 0.71720
C30 C 1.14090 0.65590 0.76150
H1 H 1.72500 0.90000 0.03700
H2 H 1.57500 0.87500 0.00000
H3 H 1.57500 0.95000 0.02500
H4 H 1.57100 0.84400 0.09700
H5 H 1.41400 0.94300 0.08900
H6 H 1.39600 0.83900 0.16300
H7 H 1.21200 0.94800 0.14700
H8 H 1.04700 0.96600 0.21100
H9 H 1.26400 0.81400 0.22700
H10 H 0.87200 0.99100 0.27300
H11 H 1.04700 0.76700 0.37100
H12 H 0.78200 1.01700 0.39100
H13 H 0.66700 0.99900 0.35500
H14 H 0.67600 0.95900 0.45600
H15 H 0.61900 0.91800 0.41900
H16 H 1.06200 0.96800 0.55000
H17 H 1.20200 0.74700 0.71200
H18 H 1.24400 0.65700 0.74500
H19 H 1.11800 0.71100 0.78500
H20 H 1.12400 0.62000 0.78300
C31 C 0.90720 0.60040 0.47520
C32 C 0.99790 0.61810 0.42860
C33 C 1.09320 0.58180 0.40750
C34 C 1.17650 0.60250 0.36250
C35 C 1.27180 0.56910 0.34010
C36 C 1.35510 0.58560 0.29340
C37 C 1.44740 0.54590 0.27200
N2 N 1.33960 0.64870 0.26860
C38 C 1.40520 0.67070 0.22240
C39 C 1.52110 0.56170 0.22230
O10 O 1.38590 0.72830 0.20400
C40 C 1.49930 0.62450 0.19810
C41 C 1.60470 0.51750 0.19450
C42 C 1.65910 0.53440 0.14500
C43 C 1.56060 0.64090 0.14640
O11 O 1.54240 0.70180 0.12160
C44 C 1.63700 0.59570 0.12030
C45 C 1.74370 0.49220 0.10560
O12 O 1.84620 0.68940 0.06940
C46 C 1.78710 0.53960 0.05950
C47 C 1.69110 0.59900 0.06130
C48 C 1.75790 0.66290 0.04450
O13 O 1.49630 0.55140 0.01750
C49 C 1.58320 0.59240 0.01700
C50 C 1.70000 0.68830 -0.00910
O14 O 1.83220 0.78070 -0.02360
C51 C 1.59780 0.64580 -0.02560
C52 C 1.73200 0.74420 -0.04150
C53 C 1.52390 0.65770 -0.07480
C54 C 1.65540 0.75840 -0.08720
O15 O 1.43020 0.61670 -0.09180
O16 O 1.76570 0.85850 -0.10480
C55 C 1.55140 0.71610 -0.10440
C56 C 1.67300 0.82110 -0.11950
C57 C 1.46740 0.73450 -0.15150
C58 C 1.59010 0.83990 -0.16360
O17 O 1.38120 0.69740 -0.16880
C59 C 1.49230 0.80230 -0.17850
O18 O 1.40180 0.81430 -0.21810
C60 C 1.41200 0.88040 -0.24480
H21 H 0.86000 0.55700 0.46300
H22 H 0.96100 0.58700 0.50900
H23 H 0.83100 0.62500 0.49300
H24 H 0.99400 0.66000 0.41700
H25 H 1.10900 0.53900 0.41700
H26 H 1.17900 0.64800 0.34300
H27 H 1.28100 0.52400 0.35300
H28 H 1.46200 0.50100 0.29100
H29 H 1.28000 0.67700 0.28200
H30 H 1.80900 0.46700 0.13300
H31 H 1.69400 0.46200 0.09000
H32 H 1.88500 0.56100 0.07500
H33 H 1.78900 0.52600 0.02300
H34 H 1.83200 0.82200 -0.04300
H35 H 1.60000 0.88500 -0.18500
H36 H 1.40300 0.91600 -0.21500
H37 H 1.50100 0.88500 -0.26300
H38 H 1.34600 0.89100 -0.27500
loop_
_geom_bond_atom_site_label_1
_geom_bond_atom_site_label_2
_geom_bond_site_symmetry_1
_geom_bond_site_symmetry_2
C1 C2 1_555 1_555
C2 C3 1_555 1_555
C3 C4 1_555 1_555
C4 C5 1_555 1_555
C5 C6 1_555 1_555
C6 C7 1_555 1_555
C7 C9 1_555 1_555
N1 C6 1_555 1_555
C8 N1 1_555 1_555
C9 C10 1_555 1_555
O1 C8 1_555 1_555
C10 C8 1_555 1_555
C11 C9 1_555 1_555
C12 C11 1_555 1_555
C13 C10 1_555 1_555
O2 C13 1_555 1_555
C14 C12 1_555 1_555
C15 C12 1_555 1_555
O3 C18 1_555 1_555
C16 C15 1_555 1_555
C17 C14 1_555 1_555
C18 C17 1_555 1_555
O4 C19 1_555 1_555
C19 C17 1_555 1_555
C20 C18 1_555 1_555
O5 C22 1_555 1_555
C21 C19 1_555 1_555
C22 C20 1_555 1_555
C23 C21 1_555 1_555
C24 C22 1_555 1_555
O6 C23 1_555 1_555
O7 C26 1_555 1_555
C25 C23 1_555 1_555
C26 C24 1_555 1_555
C27 C25 1_555 1_555
C28 C26 1_555 1_555
O8 C27 1_555 1_555
C29 C27 1_555 1_555
O9 C29 1_555 1_555
C30 O9 1_555 1_555
H1 C1 1_555 1_555
H2 C1 1_555 1_555
H3 C1 1_555 1_555
H4 C2 1_555 1_555
H5 C3 1_555 1_555
H6 C4 1_555 1_555
H7 C5 1_555 1_555
H8 C7 1_555 1_555
H9 N1 1_555 1_555
H10 C11 1_555 1_555
H11 O2 1_555 1_555
H12 C15 1_555 1_555
H13 C15 1_555 1_555
H14 C16 1_555 1_555
H15 C16 1_555 1_555
H16 O5 1_555 1_555
H17 C28 1_555 1_555
H18 C30 1_555 1_555
H19 C30 1_555 1_555
H20 C30 1_555 1_555
C31 C32 1_555 1_555
C32 C33 1_555 1_555
C33 C34 1_555 1_555
C34 C35 1_555 1_555
C35 C36 1_555 1_555
C36 C37 1_555 1_555
C37 C39 1_555 1_555
N2 C36 1_555 1_555
C38 N2 1_555 1_555
C39 C40 1_555 1_555
O10 C38 1_555 1_555
C40 C38 1_555 1_555
C41 C39 1_555 1_555
C42 C41 1_555 1_555
C43 C40 1_555 1_555
O11 C43 1_555 1_555
C44 C42 1_555 1_555
C45 C42 1_555 1_555
O12 C48 1_555 1_555
C46 C45 1_555 1_555
C47 C44 1_555 1_555
C48 C47 1_555 1_555
O13 C49 1_555 1_555
C49 C47 1_555 1_555
C50 C48 1_555 1_555
O14 C52 1_555 1_555
C51 C49 1_555 1_555
C52 C50 1_555 1_555
C53 C51 1_555 1_555
C54 C52 1_555 1_555
O15 C53 1_555 1_555
O16 C56 1_555 1_555
C55 C53 1_555 1_555
C56 C54 1_555 1_555
C57 C55 1_555 1_555
C58 C56 1_555 1_555
O17 C57 1_555 1_555
C59 C57 1_555 1_555
O18 C59 1_555 1_555
C60 O18 1_555 1_555
H21 C31 1_555 1_555
H22 C31 1_555 1_555
H23 C31 1_555 1_555
H24 C32 1_555 1_555
H25 C33 1_555 1_555
H26 C34 1_555 1_555
H27 C35 1_555 1_555
H28 C37 1_555 1_555
H29 N2 1_555 1_555
H30 C45 1_555 1_555
H31 C45 1_555 1_555
H32 C46 1_555 1_555
H33 C46 1_555 1_555
H34 O14 1_555 1_555
H35 C58 1_555 1_555
H36 C60 1_555 1_555
H37 C60 1_555 1_555
H38 C60 1_555 1_555
C13 C14 1_555 1_555
C16 C17 1_555 1_555
C20 C21 1_555 1_555
C24 C25 1_555 1_555
C28 C29 1_555 1_555
C43 C44 1_555 1_555
C46 C47 1_555 1_555
C50 C51 1_555 1_555
C54 C55 1_555 1_555
C58 C59 1_555 1_555

#END
