
#######################################################################
#
#                 Cambridge Crystallographic Data Centre
#                                CCDC 
#
#######################################################################
#
# If this CIF has been generated from an entry in the Cambridge 
# Structural Database, then it will include bibliographic, chemical, 
# crystal, experimental, refinement or atomic coordinate data resulting 
# from the CCDC's data processing and validation procedures.
#
#######################################################################

data_BILCOO02
_chemical_formula_moiety         'C14 H14 O2 S2'
_chemical_name_systematic        'S-(p-Tolyl) p-toluenethiosulfonate'
_symmetry_cell_setting           monoclinic
_symmetry_space_group_name_H-M   'P 21/c'
_symmetry_Int_Tables_number      14
_space_group_name_Hall           '-P 2ybc'
loop_
_symmetry_equiv_pos_site_id
_symmetry_equiv_pos_as_xyz
1 x,y,z
2 -x,1/2+y,1/2-z
3 -x,-y,-z
4 x,1/2-y,1/2+z
_cell_length_a                   13.3579(7)
_cell_length_b                   6.6176(4)
_cell_length_c                   15.2123(11)
_cell_angle_alpha                90
_cell_angle_beta                 92.1322(19)
_cell_angle_gamma                90
_cell_volume                     1343.79
_exptl_crystal_colour            colorless
_exptl_crystal_description       plate
_chemical_melting_point          356-357K
_cell_formula_units_Z            4
_exptl_crystal_recrystallization_method ethanol
loop_
_atom_site_label
_atom_site_type_symbol
_atom_site_fract_x
_atom_site_fract_y
_atom_site_fract_z
S1 S 0.22084(6) 0.25607(12) 0.63556(5)
S2 S 0.37588(6) 0.25138(13) 0.66376(5)
O1 O 0.21256(16) 0.3729(4) 0.55599(14)
O2 O 0.18280(16) 0.0557(3) 0.63676(15)
C1 C 0.1684(2) 0.3933(5) 0.72145(19)
C2 C 0.1380(2) 0.5921(5) 0.7075(2)
C3 C 0.1018(2) 0.7025(5) 0.7758(2)
C4 C 0.0974(2) 0.6212(6) 0.8594(2)
C5 C 0.1263(2) 0.4218(5) 0.8720(2)
C6 C 0.1607(2) 0.3065(5) 0.8041(2)
C7 C 0.0643(3) 0.7483(6) 0.9351(3)
C8 C 0.3814(2) 0.0896(5) 0.75637(19)
C9 C 0.3615(2) -0.1153(5) 0.7476(2)
C10 C 0.3577(2) -0.2366(5) 0.8208(2)
C11 C 0.3742(2) -0.1589(6) 0.9046(2)
C12 C 0.3980(2) 0.0438(5) 0.9118(2)
C13 C 0.4016(2) 0.1672(5) 0.8396(2)
C14 C 0.3666(3) -0.2917(6) 0.9845(2)
H1 H 0.1423 0.6502 0.6521
H2 H 0.0798 0.8341 0.7658
H3 H 0.1223 0.3645 0.9276
H4 H 0.1786 0.1722 0.8134
H5 H 0.0568 0.6641 0.9859
H6 H 0.0013 0.8113 0.9196
H7 H 0.1136 0.8504 0.9483
H8 H 0.3507 -0.1709 0.6919
H9 H 0.3437 -0.3735 0.8139
H10 H 0.4120 0.0982 0.9673
H11 H 0.4177 0.3031 0.8466
H12 H 0.3609 -0.2089 1.0359
H13 H 0.4255 -0.3744 0.9909
H14 H 0.3085 -0.3766 0.9778
O3? O 0.393(3) 0.4639(12) 0.672(2)
O4? O 0.397(3) 0.145(4) 0.5846(13)
H15? H 0.0577 0.8865 0.9166
H16? H 0.1131 0.7392 0.9829
H17? H 0.0009 0.7001 0.9542
H18? H 0.3690 -0.4310 0.9671
H19? H 0.3045 -0.2655 1.0122
H20? H 0.4214 -0.2633 1.0253
loop_
_geom_bond_atom_site_label_1
_geom_bond_atom_site_label_2
_geom_bond_site_symmetry_1
_geom_bond_site_symmetry_2
S1 S2 1_555 1_555
S2 C8 1_555 1_555
O1 S1 1_555 1_555
O2 S1 1_555 1_555
C1 S1 1_555 1_555
C2 C1 1_555 1_555
C3 C2 1_555 1_555
C4 C3 1_555 1_555
C5 C4 1_555 1_555
C6 C1 1_555 1_555
C7 C4 1_555 1_555
C8 C9 1_555 1_555
C9 C10 1_555 1_555
C10 C11 1_555 1_555
C11 C12 1_555 1_555
C12 C13 1_555 1_555
C13 C8 1_555 1_555
C14 C11 1_555 1_555
H1 C2 1_555 1_555
H2 C3 1_555 1_555
H3 C5 1_555 1_555
H4 C6 1_555 1_555
H5 C7 1_555 1_555
H6 C7 1_555 1_555
H7 C7 1_555 1_555
H8 C9 1_555 1_555
H9 C10 1_555 1_555
H10 C12 1_555 1_555
H11 C13 1_555 1_555
H12 C14 1_555 1_555
H13 C14 1_555 1_555
H14 C14 1_555 1_555
C5 C6 1_555 1_555

#END
