
#######################################################################
#
#                 Cambridge Crystallographic Data Centre
#                                CCDC 
#
#######################################################################
#
# If this CIF has been generated from an entry in the Cambridge 
# Structural Database, then it will include bibliographic, chemical, 
# crystal, experimental, refinement or atomic coordinate data resulting 
# from the CCDC's data processing and validation procedures.
#
#######################################################################

data_BILCOO12
_chemical_formula_moiety         'C14 H14 O2 S2'
_chemical_name_systematic        
'S-(4-Methylphenyl) 4-methylbenzenesulfonothioate'
_symmetry_cell_setting           monoclinic
_symmetry_space_group_name_H-M   'P 21/c'
_symmetry_Int_Tables_number      14
_space_group_name_Hall           '-P 2ybc'
loop_
_symmetry_equiv_pos_site_id
_symmetry_equiv_pos_as_xyz
1 x,y,z
2 -x,1/2+y,1/2-z
3 -x,-y,-z
4 x,1/2-y,1/2+z
_cell_length_a                   13.353(5)
_cell_length_b                   6.664(3)
_cell_length_c                   15.214(6)
_cell_angle_alpha                90
_cell_angle_beta                 92.067(8)
_cell_angle_gamma                90
_cell_volume                     1352.93
_exptl_crystal_colour            colorless
_exptl_crystal_description       block
_cell_formula_units_Z            4
loop_
_atom_site_label
_atom_site_type_symbol
_atom_site_fract_x
_atom_site_fract_y
_atom_site_fract_z
S1 S 0.71928(10) 0.2562(2) 0.13603(8)
S2 S 0.87367(10) 0.2514(2) 0.16375(8)
O1 O 0.7117(3) 0.3710(7) 0.0563(2)
O2 O 0.6821(3) 0.0595(6) 0.1379(3)
C1 C 0.5655(5) 0.7508(11) 0.4350(4)
H1 H 0.6213 0.8296 0.4566
H2 H 0.5427 0.6661 0.4813
H3 H 0.5121 0.8382 0.4154
C2 C 0.5975(4) 0.6228(10) 0.3593(4)
C3 C 0.6013(4) 0.7000(9) 0.2750(4)
H4 H 0.5786 0.8299 0.2641
C4 C 0.6378(4) 0.5896(9) 0.2072(3)
H5 H 0.6427 0.6464 0.1516
C5 C 0.6674(3) 0.3937(8) 0.2220(3)
C6 C 0.6598(4) 0.3077(9) 0.3042(3)
H6 H 0.6773 0.1741 0.3135
C7 C 0.6260(4) 0.4236(10) 0.3723(3)
H7 H 0.6222 0.3674 0.4280
C8 C 0.8804(3) 0.0893(8) 0.2566(3)
C9 C 0.8616(4) -0.1130(8) 0.2476(3)
H8 H 0.8514 -0.1686 0.1919
C10 C 0.8581(4) -0.2319(9) 0.3209(4)
H9 H 0.8442 -0.3680 0.3142
C11 C 0.8745(4) -0.1552(9) 0.4043(3)
C12 C 0.8970(4) 0.0456(9) 0.4118(3)
H10 H 0.9100 0.0998 0.4674
C13 C 0.9008(4) 0.1685(9) 0.3394(3)
H11 H 0.9170 0.3035 0.3460
C14 C 0.8667(5) -0.2869(11) 0.4835(4)
H12 H 0.9268 -0.3651 0.4912
H13 H 0.8102 -0.3750 0.4756
H14 H 0.8582 -0.2052 0.5347
loop_
_geom_bond_atom_site_label_1
_geom_bond_atom_site_label_2
_geom_bond_site_symmetry_1
_geom_bond_site_symmetry_2
S1 S2 1_555 1_555
S2 C8 1_555 1_555
O1 S1 1_555 1_555
O2 S1 1_555 1_555
C1 H1 1_555 1_555
H2 C1 1_555 1_555
H3 C1 1_555 1_555
C2 C1 1_555 1_555
C3 C2 1_555 1_555
H4 C3 1_555 1_555
C4 C3 1_555 1_555
H5 C4 1_555 1_555
C5 S1 1_555 1_555
C6 C5 1_555 1_555
H6 C6 1_555 1_555
C7 C2 1_555 1_555
H7 C7 1_555 1_555
C8 C9 1_555 1_555
C9 H8 1_555 1_555
C10 C9 1_555 1_555
H9 C10 1_555 1_555
C11 C10 1_555 1_555
C12 C11 1_555 1_555
H10 C12 1_555 1_555
C13 C8 1_555 1_555
H11 C13 1_555 1_555
C14 C11 1_555 1_555
H12 C14 1_555 1_555
H13 C14 1_555 1_555
H14 C14 1_555 1_555
C4 C5 1_555 1_555
C6 C7 1_555 1_555
C12 C13 1_555 1_555

#END
