
#######################################################################
#
#                 Cambridge Crystallographic Data Centre
#                                CCDC 
#
#######################################################################
#
# If this CIF has been generated from an entry in the Cambridge 
# Structural Database, then it will include bibliographic, chemical, 
# crystal, experimental, refinement or atomic coordinate data resulting 
# from the CCDC's data processing and validation procedures.
#
#######################################################################

data_BILJEO
_chemical_formula_moiety         'H4 N1 1+,C7 H16 N2 2+,3(Br1 1-)'
_chemical_name_systematic        
'ammonium rac-3-ammonio-1-azoniabicyclo[2.2.2]octane tribromide'
_symmetry_cell_setting           cubic
_symmetry_space_group_name_H-M   'P 4 3 2'
_symmetry_Int_Tables_number      207
_space_group_name_Hall           'P 4 2 3'
loop_
_symmetry_equiv_pos_site_id
_symmetry_equiv_pos_as_xyz
1 x,y,z
2 -x,-y,z
3 -x,y,-z
4 x,-y,-z
5 z,x,y
6 z,-x,-y
7 -z,-x,y
8 -z,x,-y
9 y,z,x
10 -y,z,-x
11 y,-z,-x
12 -y,-z,x
13 y,x,-z
14 -y,-x,-z
15 y,-x,z
16 -y,x,z
17 x,z,-y
18 -x,z,y
19 -x,-z,-y
20 x,-z,y
21 z,y,-x
22 z,-y,x
23 -z,y,x
24 -z,-y,-x
_cell_length_a                   7.062(4)
_cell_length_b                   7.062(4)
_cell_length_c                   7.062(4)
_cell_angle_alpha                90
_cell_angle_beta                 90
_cell_angle_gamma                90
_cell_volume                     352.195
_exptl_crystal_colour            colorless
_exptl_crystal_description       block
_cell_formula_units_Z            1
loop_
_atom_site_label
_atom_site_type_symbol
_atom_site_fract_x
_atom_site_fract_y
_atom_site_fract_z
Br1 Br 0.5000 1.0000 1.0000
C1 C 0.301(4) 1.452(4) 0.608(4)
C1C C 0.301(4) 1.548(4) 0.392(4)
C1F C 0.392(4) 1.699(4) 0.452(4)
C1G C 0.392(4) 1.301(4) 0.548(4)
C1J C 0.452(4) 1.392(4) 0.699(4)
C1L C 0.452(4) 1.301(4) 0.392(4)
C1M C 0.548(4) 1.699(4) 0.392(4)
C1N C 0.452(4) 1.699(4) 0.608(4)
C1O C 0.548(4) 1.301(4) 0.608(4)
C1P C 0.301(4) 1.608(4) 0.548(4)
C1S C 0.301(4) 1.392(4) 0.452(4)
C1W C 0.392(4) 1.548(4) 0.699(4)
C1D C 0.608(4) 1.301(4) 0.452(4)
C1E C 0.608(4) 1.699(4) 0.548(4)
C1H C 0.452(4) 1.608(4) 0.301(4)
C1I C 0.548(4) 1.608(4) 0.699(4)
C1K C 0.548(4) 1.392(4) 0.301(4)
C1Q C 0.699(4) 1.608(4) 0.452(4)
C1R C 0.699(4) 1.392(4) 0.548(4)
C1T C 0.608(4) 1.452(4) 0.699(4)
C1U C 0.608(4) 1.548(4) 0.301(4)
C1V C 0.392(4) 1.452(4) 0.301(4)
C1A C 0.699(4) 1.548(4) 0.608(4)
C1B C 0.699(4) 1.452(4) 0.392(4)
N1 N 1.0000 1.0000 0.0000
loop_
_geom_bond_atom_site_label_1
_geom_bond_atom_site_label_2
_geom_bond_site_symmetry_1
_geom_bond_site_symmetry_2
C1 C1C 1_555 1_555
C1C C1F 1_555 1_555
C1F C1M 1_555 1_555
C1G C1 1_555 1_555
C1J C1 1_555 1_555
C1L C1G 1_555 1_555
C1M C1N 1_555 1_555
C1N C1F 1_555 1_555
C1O C1G 1_555 1_555
C1P C1 1_555 1_555
C1S C1 1_555 1_555
C1W C1 1_555 1_555
C1D C1G 1_555 1_555
C1E C1F 1_555 1_555
C1H C1C 1_555 1_555
C1I C1J 1_555 1_555
C1K C1L 1_555 1_555
C1Q C1M 1_555 1_555
C1R C1O 1_555 1_555
C1T C1J 1_555 1_555
C1U C1M 1_555 1_555
C1V C1C 1_555 1_555
C1A C1E 1_555 1_555
C1B C1D 1_555 1_555
C1C C1P 1_555 1_555
C1C C1S 1_555 1_555
C1F C1P 1_555 1_555
C1F C1H 1_555 1_555
C1G C1J 1_555 1_555
C1G C1S 1_555 1_555
C1J C1O 1_555 1_555
C1J C1W 1_555 1_555
C1L C1O 1_555 1_555
C1L C1S 1_555 1_555
C1L C1D 1_555 1_555
C1L C1V 1_555 1_555
C1M C1E 1_555 1_555
C1M C1H 1_555 1_555
C1N C1P 1_555 1_555
C1N C1W 1_555 1_555
C1N C1E 1_555 1_555
C1N C1I 1_555 1_555
C1O C1D 1_555 1_555
C1O C1T 1_555 1_555
C1P C1S 1_555 1_555
C1P C1W 1_555 1_555
C1S C1V 1_555 1_555
C1W C1I 1_555 1_555
C1W C1T 1_555 1_555
C1D C1K 1_555 1_555
C1D C1R 1_555 1_555
C1E C1I 1_555 1_555
C1E C1Q 1_555 1_555
C1H C1K 1_555 1_555
C1H C1U 1_555 1_555
C1H C1V 1_555 1_555
C1I C1T 1_555 1_555
C1I C1A 1_555 1_555
C1K C1U 1_555 1_555
C1K C1V 1_555 1_555
C1K C1B 1_555 1_555
C1Q C1R 1_555 1_555
C1Q C1U 1_555 1_555
C1Q C1A 1_555 1_555
C1Q C1B 1_555 1_555
C1R C1T 1_555 1_555
C1R C1A 1_555 1_555
C1R C1B 1_555 1_555
C1T C1A 1_555 1_555
C1U C1V 1_555 1_555
C1U C1B 1_555 1_555
C1A C1B 1_555 1_555

#END
