
#######################################################################
#
#                 Cambridge Crystallographic Data Centre
#                                CCDC 
#
#######################################################################
#
# If this CIF has been generated from an entry in the Cambridge 
# Structural Database, then it will include bibliographic, chemical, 
# crystal, experimental, refinement or atomic coordinate data resulting 
# from the CCDC's data processing and validation procedures.
#
#######################################################################

data_BILLUG
_chemical_formula_moiety         'C4 H12 N2 2+,H4 N1 1+,3(Cl1 1-)'
_chemical_name_systematic        
'ammonium (S)-3-ammoniopyrrolidin-1-ium trichloride'
_symmetry_cell_setting           monoclinic
_symmetry_space_group_name_H-M   'P 21'
_symmetry_Int_Tables_number      4
_space_group_name_Hall           'P 2yb'
loop_
_symmetry_equiv_pos_site_id
_symmetry_equiv_pos_as_xyz
1 x,y,z
2 -x,1/2+y,-z
_cell_length_a                   9.1363(8)
_cell_length_b                   9.1207(10)
_cell_length_c                   12.4590(14)
_cell_angle_alpha                90
_cell_angle_beta                 91.950(7)
_cell_angle_gamma                90
_cell_volume                     1037.6
_exptl_crystal_colour            colorless
_exptl_crystal_description       block
_cell_formula_units_Z            4
loop_
_atom_site_label
_atom_site_type_symbol
_atom_site_fract_x
_atom_site_fract_y
_atom_site_fract_z
N1 N 1.7732(4) -0.3042(5) -0.2480(3)
H1 H 1.8479 -0.3570 -0.2266
H2 H 1.7811 -0.2705 -0.3130
H3 H 1.6901 -0.3504 -0.2445
H4 H 1.7560 -0.2305 -0.2057
N2 N 1.2779(5) 0.2087(5) -0.2490(3)
H5 H 1.1917 0.2492 -0.2486
H6 H 1.2955 0.1696 -0.1862
H7 H 1.2739 0.1347 -0.2932
H8 H 1.3428 0.2782 -0.2540
Cl1 Cl 1.50955(13) -0.07027(16) -0.26416(9)
Cl2 Cl 1.81207(13) -0.32095(14) -0.50170(9)
Cl3 Cl 1.68655(13) -0.34863(14) -0.00137(9)
Cl4 Cl 1.55456(11) -0.59182(13) -0.33020(8)
Cl5 Cl 2.04700(11) -0.09522(14) -0.17294(8)
Cl6 Cl 1.99651(11) -0.58358(15) -0.21990(9)
N3 N 0.5574(4) 0.1078(4) 0.5276(3)
H9 H 0.5306 0.0622 0.5870
H10 H 0.5463 0.2041 0.5355
H11 H 0.5018 0.0769 0.4720
N4 N 0.8720(5) 0.2802(5) 0.5527(3)
H12 H 0.8458 0.3544 0.5943
H13 H 0.9693 0.2778 0.5519
C1 C 0.8107(6) 0.3013(6) 0.4429(4)
H14 H 0.8834 0.3423 0.3966
H15 H 0.7265 0.3660 0.4428
C2 C 0.7671(6) 0.1496(6) 0.4069(4)
H16 H 0.8500 0.0976 0.3788
H17 H 0.6896 0.1537 0.3517
C3 C 0.7134(5) 0.0745(5) 0.5081(4)
H18 H 0.7273 -0.0318 0.5027
C4 C 0.8148(5) 0.1369(6) 0.5971(4)
H19 H 0.7614 0.1540 0.6619
H20 H 0.8949 0.0698 0.6136
N5 N 1.0567(4) 0.6862(5) 0.0374(3)
H21 H 1.0241 0.7494 0.0856
H22 H 1.0510 0.7268 -0.0275
H23 H 1.0021 0.6054 0.0378
N6 N 1.3728(5) 0.7729(5) -0.0533(3)
H24 H 1.4702 0.7755 -0.0496
H25 H 1.3412 0.8499 -0.0914
C5 C 1.3150(6) 0.7803(6) 0.0568(4)
H26 H 1.2619 0.8710 0.0669
H27 H 1.3942 0.7744 0.1105
C6 C 1.2123(5) 0.6478(5) 0.0652(4)
H28 H 1.2197 0.6072 0.1380
C7 C 1.2756(6) 0.5406(5) -0.0131(4)
H29 H 1.2026 0.4693 -0.0367
H30 H 1.3588 0.4892 0.0194
C8 C 1.3228(6) 0.6352(6) -0.1070(4)
H31 H 1.4017 0.5892 -0.1448
H32 H 1.2414 0.6535 -0.1573
loop_
_geom_bond_atom_site_label_1
_geom_bond_atom_site_label_2
_geom_bond_site_symmetry_1
_geom_bond_site_symmetry_2
N1 H1 1_555 1_555
H2 N1 1_555 1_555
H3 N1 1_555 1_555
H4 N1 1_555 1_555
N2 H5 1_555 1_555
H6 N2 1_555 1_555
H7 N2 1_555 1_555
H8 N2 1_555 1_555
N3 H9 1_555 1_555
H10 N3 1_555 1_555
H11 N3 1_555 1_555
N4 H12 1_555 1_555
H13 N4 1_555 1_555
C1 N4 1_555 1_555
H14 C1 1_555 1_555
H15 C1 1_555 1_555
C2 C1 1_555 1_555
H16 C2 1_555 1_555
H17 C2 1_555 1_555
C3 N3 1_555 1_555
H18 C3 1_555 1_555
C4 N4 1_555 1_555
H19 C4 1_555 1_555
H20 C4 1_555 1_555
N5 H21 1_555 1_555
H22 N5 1_555 1_555
H23 N5 1_555 1_555
N6 H24 1_555 1_555
H25 N6 1_555 1_555
C5 N6 1_555 1_555
H26 C5 1_555 1_555
H27 C5 1_555 1_555
C6 N5 1_555 1_555
H28 C6 1_555 1_555
C7 C6 1_555 1_555
H29 C7 1_555 1_555
H30 C7 1_555 1_555
C8 N6 1_555 1_555
H31 C8 1_555 1_555
H32 C8 1_555 1_555
C2 C3 1_555 1_555
C3 C4 1_555 1_555
C5 C6 1_555 1_555
C7 C8 1_555 1_555

#END
