
#######################################################################
#
#                 Cambridge Crystallographic Data Centre
#                                CCDC 
#
#######################################################################
#
# If this CIF has been generated from an entry in the Cambridge 
# Structural Database, then it will include bibliographic, chemical, 
# crystal, experimental, refinement or atomic coordinate data resulting 
# from the CCDC's data processing and validation procedures.
#
#######################################################################

data_BILNOC
_chemical_formula_moiety         'H4 N1 1+,C7 H16 N2 2+,3(I1 1-)'
_chemical_name_systematic        
'ammonium 1-methyl-1,4-diazoniabicyclo[2.2.2]octane tris(iodide)'
_symmetry_cell_setting           rhombohedral
_symmetry_space_group_name_H-M   'R 3'
_symmetry_Int_Tables_number      146
_space_group_name_Hall           'P 3*'
loop_
_symmetry_equiv_pos_site_id
_symmetry_equiv_pos_as_xyz
1 x,y,z
2 z,x,y
3 y,z,x
_cell_length_a                   7.259(4)
_cell_length_b                   7.259(4)
_cell_length_c                   7.259(4)
_cell_angle_alpha                84.767(4)
_cell_angle_beta                 84.767(4)
_cell_angle_gamma                84.767(4)
_cell_volume                     377.99
_exptl_crystal_colour            'light yellow'
_exptl_crystal_description       block
_cell_formula_units_Z            1
loop_
_atom_site_label
_atom_site_type_symbol
_atom_site_fract_x
_atom_site_fract_y
_atom_site_fract_z
I1 I 0.0043(3) -0.0650(3) -0.4981(3)
N1 N -0.0005(11) -0.0005(11) -0.0005(11)
H1 H -0.0359 0.1210 -0.0239
H2 H -0.0663 -0.0663 -0.0663
H1A H -0.0239 -0.0359 0.1210
H1B H 0.1210 -0.0239 -0.0359
N2 N 0.6171(12) 0.6171(12) -0.3829(12)
H3 H 0.6828 0.6828 -0.3172
N3 N 0.4396(18) 0.4396(18) -0.5604(18)
C1 C 0.6221(18) 0.335(2) -0.541(2)
H4 H 0.6771 0.2998 -0.6612
H5 H 0.6087 0.2230 -0.4589
C2 C 0.7427(19) 0.462(2) -0.4616(19)
H6 H 0.8115 0.3941 -0.3649
H7 H 0.8307 0.5115 -0.5580
C3 C 0.3248(17) 0.3248(17) -0.6752(17)
H8 H 0.2052 0.3911 -0.6895
C1A C 0.459(2) 0.6221(18) -0.665(2)
H4A H 0.3388 0.6771 -0.7002
H5A H 0.5411 0.6087 -0.7770
C2A C 0.5384(19) 0.7427(19) -0.538(2)
H6A H 0.6351 0.8115 -0.6059
H7A H 0.4420 0.8307 -0.4885
H8A H 0.3105 0.2052 -0.6089
C1B C 0.335(2) 0.459(2) -0.3779(18)
H4B H 0.2998 0.3388 -0.3229
H5B H 0.2230 0.5411 -0.3913
C2B C 0.462(2) 0.5384(19) -0.2573(19)
H6B H 0.3941 0.6351 -0.1885
H7B H 0.5115 0.4420 -0.1693
H8B H 0.3911 0.3105 -0.7948
loop_
_geom_bond_atom_site_label_1
_geom_bond_atom_site_label_2
_geom_bond_site_symmetry_1
_geom_bond_site_symmetry_2
N1 H1 1_555 1_555
H2 N1 1_555 1_555
N2 H3 1_555 1_555
N3 C1 1_555 1_555
C1 H4 1_555 1_555
H5 C1 1_555 1_555
C2 N2 1_555 1_555
H6 C2 1_555 1_555
H7 C2 1_555 1_555
C3 N3 1_555 1_555
H8 C3 1_555 1_555
H1A N1 1_555 1_555
H1B N1 1_555 1_555
C1A N3 1_555 1_555
H4A C1A 1_555 1_555
H5A C1A 1_555 1_555
C2A N2 1_555 1_555
H6A C2A 1_555 1_555
H7A C2A 1_555 1_555
H8A C3 1_555 1_555
C1B N3 1_555 1_555
H4B C1B 1_555 1_555
H5B C1B 1_555 1_555
C2B N2 1_555 1_555
H6B C2B 1_555 1_555
H7B C2B 1_555 1_555
H8B C3 1_555 1_555
C1 C2 1_555 1_555
C1A C2A 1_555 1_555
C1B C2B 1_555 1_555

#END
