
#######################################################################
#
#                 Cambridge Crystallographic Data Centre
#                                CCDC 
#
#######################################################################
#
# If this CIF has been generated from an entry in the Cambridge 
# Structural Database, then it will include bibliographic, chemical, 
# crystal, experimental, refinement or atomic coordinate data resulting 
# from the CCDC's data processing and validation procedures.
#
#######################################################################

data_BILQEU
_chemical_formula_moiety         'C10 H12 S3'
_chemical_name_systematic        
2,6-Dimethyl-4,5-dihydro-3H-8\l^4^-[1,2]dithiolo[4,5,1-hi][1,2]benzodithiole
_symmetry_cell_setting           monoclinic
_symmetry_space_group_name_H-M   'P 21/n'
_symmetry_Int_Tables_number      14
_space_group_name_Hall           '-P 2yn'
loop_
_symmetry_equiv_pos_site_id
_symmetry_equiv_pos_as_xyz
1 x,y,z
2 1/2-x,1/2+y,1/2-z
3 -x,-y,-z
4 1/2+x,1/2-y,1/2+z
_cell_length_a                   8.1072(5)
_cell_length_b                   11.0499(6)
_cell_length_c                   11.4713(8)
_cell_angle_alpha                90
_cell_angle_beta                 90.187(3)
_cell_angle_gamma                90
_cell_volume                     1027.64
_exptl_crystal_colour            red
_exptl_crystal_description       block
_cell_formula_units_Z            4
loop_
_atom_site_label
_atom_site_type_symbol
_atom_site_fract_x
_atom_site_fract_y
_atom_site_fract_z
S1 S 0.736328(16) 0.734796(12) 0.040715(12)
S2 S 0.702867(14) 0.524546(12) 0.037807(10)
S3 S 0.683613(17) 0.314551(12) 0.030017(12)
C1 C 0.90154(6) 0.72899(4) 0.13169(4)
C2 C 0.95096(6) 0.61746(4) 0.17385(4)
C3 C 0.86968(5) 0.51104(4) 0.13413(4)
C4 C 0.92299(6) 0.39358(4) 0.16834(4)
C5 C 0.84624(6) 0.29286(4) 0.12168(4)
C6 C 1.09177(6) 0.60682(5) 0.26021(5)
C7 C 1.07825(7) 0.49137(5) 0.33221(4)
C8 C 1.06644(6) 0.38162(5) 0.25216(5)
C9 C 0.98870(7) 0.84450(5) 0.16275(5)
C10 C 0.90169(8) 0.16568(5) 0.14698(5)
H1 H 1.1973(16) 0.6065(11) 0.2166(11)
H2 H 1.0937(15) 0.6762(11) 0.3111(11)
H3 H 0.9764(15) 0.4945(11) 0.3830(11)
H4 H 1.1715(16) 0.4839(11) 0.3844(12)
H5 H 1.1675(16) 0.3738(11) 0.2073(11)
H6 H 1.0532(15) 0.3061(11) 0.2986(11)
H7 H 1.1088(18) 0.8363(12) 0.1489(12)
H8 H 0.951(2) 0.9104(15) 0.1119(15)
H9 H 0.9723(18) 0.8645(13) 0.2440(12)
H10 H 1.0157(18) 0.1553(12) 0.1193(12)
H11 H 0.8963(16) 0.1484(12) 0.2295(12)
H12 H 0.8334(18) 0.1068(13) 0.1062(12)
loop_
_geom_bond_atom_site_label_1
_geom_bond_atom_site_label_2
_geom_bond_site_symmetry_1
_geom_bond_site_symmetry_2
S1 S2 1_555 1_555
S2 S3 1_555 1_555
S3 C5 1_555 1_555
C1 S1 1_555 1_555
C2 C1 1_555 1_555
C3 S2 1_555 1_555
C4 C3 1_555 1_555
C5 C4 1_555 1_555
C6 C2 1_555 1_555
C7 C6 1_555 1_555
C8 C4 1_555 1_555
C9 C1 1_555 1_555
C10 C5 1_555 1_555
H1 C6 1_555 1_555
H2 C6 1_555 1_555
H3 C7 1_555 1_555
H4 C7 1_555 1_555
H5 C8 1_555 1_555
H6 C8 1_555 1_555
H7 C9 1_555 1_555
H8 C9 1_555 1_555
H9 C9 1_555 1_555
H10 C10 1_555 1_555
H11 C10 1_555 1_555
H12 C10 1_555 1_555
C2 C3 1_555 1_555
C7 C8 1_555 1_555

#END
