
#######################################################################
#
#                 Cambridge Crystallographic Data Centre
#                                CCDC 
#
#######################################################################
#
# If this CIF has been generated from an entry in the Cambridge 
# Structural Database, then it will include bibliographic, chemical, 
# crystal, experimental, refinement or atomic coordinate data resulting 
# from the CCDC's data processing and validation procedures.
#
#######################################################################

data_BIMSIZ01
_chemical_formula_moiety         'C11 H9 N1 O3'
_chemical_name_systematic        8-Acetato-1H-quinolin-2-one
_symmetry_cell_setting           orthorhombic
_symmetry_space_group_name_H-M   'P b c a'
_symmetry_Int_Tables_number      61
_space_group_name_Hall           '-P 2ac 2ab'
loop_
_symmetry_equiv_pos_site_id
_symmetry_equiv_pos_as_xyz
1 x,y,z
2 1/2-x,-y,1/2+z
3 1/2+x,1/2-y,-z
4 -x,1/2+y,1/2-z
5 -x,-y,-z
6 1/2+x,y,1/2-z
7 1/2-x,1/2+y,z
8 x,1/2-y,1/2+z
_cell_length_a                   23.092(3)
_cell_length_b                   10.219(4)
_cell_length_c                   8.059(3)
_cell_angle_alpha                90
_cell_angle_beta                 90
_cell_angle_gamma                90
_cell_volume                     1901.74
_exptl_crystal_colour            colorless
_exptl_crystal_description       prism
_cell_formula_units_Z            8
loop_
_atom_site_label
_atom_site_type_symbol
_atom_site_fract_x
_atom_site_fract_y
_atom_site_fract_z
O1 O 0.5400(1) -0.1383(3) 0.4859(4)
O2 O 0.3721(1) 0.0656(3) 0.2303(4)
O3 O 0.3075(2) 0.0885(4) 0.4392(5)
N1 N 0.4525(2) -0.1042(4) 0.3629(5)
C1 C 0.4962(3) -0.1852(5) 0.4178(6)
C2 C 0.4885(2) -0.3258(5) 0.3918(7)
C3 C 0.4409(2) -0.3745(5) 0.3182(7)
C4 C 0.3957(2) -0.2901(5) 0.2605(7)
C5 C 0.3452(3) -0.3358(5) 0.1802(7)
C6 C 0.3039(2) -0.2492(7) 0.1236(7)
C7 C 0.3119(2) -0.1156(5) 0.1447(7)
C8 C 0.3611(2) -0.0696(5) 0.2231(6)
C9 C 0.4036(2) -0.1547(5) 0.2844(6)
C10 C 0.3401(2) 0.1364(5) 0.3449(7)
C11 C 0.3540(2) 0.2795(5) 0.3251(7)
H1 H 0.5179 -0.3844 0.4284
H2 H 0.4373 -0.4665 0.3042
H3 H 0.3397 -0.4272 0.1652
H4 H 0.2700 -0.2813 0.0700
H5 H 0.2834 -0.0560 0.1047
H6 H 0.3940 0.2925 0.3440
H7 H 0.3442 0.3060 0.2159
H8 H 0.3320 0.3281 0.4032
loop_
_geom_bond_atom_site_label_1
_geom_bond_atom_site_label_2
_geom_bond_site_symmetry_1
_geom_bond_site_symmetry_2
O1 C1 1_555 1_555
O2 C8 1_555 1_555
O3 C10 1_555 1_555
N1 C1 1_555 1_555
C1 C2 1_555 1_555
C2 C3 1_555 1_555
C3 C4 1_555 1_555
C4 C5 1_555 1_555
C5 C6 1_555 1_555
C6 C7 1_555 1_555
C7 C8 1_555 1_555
C8 C9 1_555 1_555
C9 N1 1_555 1_555
C10 O2 1_555 1_555
C11 C10 1_555 1_555
H1 C2 1_555 1_555
H2 C3 1_555 1_555
H3 C5 1_555 1_555
H4 C6 1_555 1_555
H5 C7 1_555 1_555
H6 C11 1_555 1_555
H7 C11 1_555 1_555
H8 C11 1_555 1_555
C4 C9 1_555 1_555

#END
