
#######################################################################
#
#                 Cambridge Crystallographic Data Centre
#                                CCDC 
#
#######################################################################
#
# If this CIF has been generated from an entry in the Cambridge 
# Structural Database, then it will include bibliographic, chemical, 
# crystal, experimental, refinement or atomic coordinate data resulting 
# from the CCDC's data processing and validation procedures.
#
#######################################################################

data_BIMVAV
_chemical_formula_moiety         'C13 H8 Cl2 O1'
_chemical_name_systematic        2,5-Dichlorobenzophenone
_symmetry_cell_setting           orthorhombic
_symmetry_space_group_name_H-M   'P b c a'
_symmetry_Int_Tables_number      61
_space_group_name_Hall           '-P 2ac 2ab'
loop_
_symmetry_equiv_pos_site_id
_symmetry_equiv_pos_as_xyz
1 x,y,z
2 1/2+x,y,1/2-z
3 x,1/2-y,1/2+z
4 1/2-x,1/2+y,z
5 -x,-y,-z
6 1/2-x,-y,1/2+z
7 -x,1/2+y,1/2-z
8 1/2+x,1/2-y,-z
_cell_length_a                   16.414(3)
_cell_length_b                   7.7896(17)
_cell_length_c                   17.754(4)
_cell_angle_alpha                90
_cell_angle_beta                 90
_cell_angle_gamma                90
_cell_volume                     2270
_exptl_crystal_colour            colorless
_exptl_crystal_description       plate
_chemical_melting_point          88.5-89.5deg.C
_cell_formula_units_Z            8
_exptl_crystal_recrystallization_method '95% ethanol'
loop_
_atom_site_label
_atom_site_type_symbol
_atom_site_fract_x
_atom_site_fract_y
_atom_site_fract_z
C1 C 0.43024(8) 0.10605(17) 0.41423(8)
C2 C 0.35349(8) 0.13557(16) 0.45801(8)
C3 C 0.28149(8) 0.19100(18) 0.42511(8)
C4 C 0.21044(8) 0.20357(17) 0.46639(8)
H1 H 0.1627 0.2410 0.4435
C5 C 0.21064(9) 0.16041(17) 0.54172(8)
H2 H 0.1631 0.1684 0.5700
C6 C 0.28193(8) 0.10544(18) 0.57471(8)
C7 C 0.35308(8) 0.09171(16) 0.53385(8)
H3 H 0.4005 0.0533 0.5570
C8 C 0.47442(8) 0.25347(17) 0.38126(8)
C9 C 0.46106(9) 0.41923(18) 0.40665(9)
H4 H 0.4224 0.4401 0.4438
C10 C 0.50550(10) 0.55357(18) 0.37648(10)
H5 H 0.4974 0.6647 0.3941
C11 C 0.56145(9) 0.5235(2) 0.32070(9)
H6 H 0.5911 0.6144 0.3006
C12 C 0.57413(9) 0.3588(2) 0.29416(9)
H7 H 0.6114 0.3393 0.2556
C13 C 0.53154(8) 0.2233(2) 0.32495(8)
H8 H 0.5410 0.1121 0.3081
Cl1 Cl 0.27884(2) 0.24010(5) 0.32999(2)
Cl2 Cl 0.28306(2) 0.04603(5) 0.66873(2)
O1 O 0.45557(6) -0.03998(12) 0.40856(7)
loop_
_geom_bond_atom_site_label_1
_geom_bond_atom_site_label_2
_geom_bond_site_symmetry_1
_geom_bond_site_symmetry_2
C1 C2 1_555 1_555
C2 C3 1_555 1_555
C3 C4 1_555 1_555
C4 H1 1_555 1_555
C5 C4 1_555 1_555
H2 C5 1_555 1_555
C6 C5 1_555 1_555
C7 C2 1_555 1_555
H3 C7 1_555 1_555
C8 C1 1_555 1_555
C9 C8 1_555 1_555
H4 C9 1_555 1_555
C10 C9 1_555 1_555
H5 C10 1_555 1_555
C11 C10 1_555 1_555
H6 C11 1_555 1_555
C12 C11 1_555 1_555
H7 C12 1_555 1_555
C13 C8 1_555 1_555
H8 C13 1_555 1_555
Cl1 C3 1_555 1_555
Cl2 C6 1_555 1_555
O1 C1 1_555 1_555
C6 C7 1_555 1_555
C12 C13 1_555 1_555

#END
