
#######################################################################
#
#                 Cambridge Crystallographic Data Centre
#                                CCDC 
#
#######################################################################
#
# If this CIF has been generated from an entry in the Cambridge 
# Structural Database, then it will include bibliographic, chemical, 
# crystal, experimental, refinement or atomic coordinate data resulting 
# from the CCDC's data processing and validation procedures.
#
#######################################################################

data_BIQQAW
_chemical_formula_moiety         'C9 H13 Br1 N2 O2'
_chemical_name_systematic        
(R)-1-(4-bromobutan-2-yl)-5-methylpyrimidine-2,4(1H,3H)-dione
_symmetry_cell_setting           tetragonal
_symmetry_space_group_name_H-M   'P 41'
_symmetry_Int_Tables_number      76
_space_group_name_Hall           'P 4w'
loop_
_symmetry_equiv_pos_site_id
_symmetry_equiv_pos_as_xyz
1 x,y,z
2 -x,-y,1/2+z
3 -y,x,1/4+z
4 y,-x,3/4+z
_cell_length_a                   11.1159(3)
_cell_length_b                   11.1159(3)
_cell_length_c                   18.9404(12)
_cell_angle_alpha                90
_cell_angle_beta                 90
_cell_angle_gamma                90
_cell_volume                     2340.34
_exptl_crystal_colour            colorless
_exptl_crystal_description       Block
_cell_formula_units_Z            8
_exptl_crystal_recrystallization_method dichloromethane/pentane
loop_
_atom_site_label
_atom_site_type_symbol
_atom_site_fract_x
_atom_site_fract_y
_atom_site_fract_z
C1 C 0.5261(5) 0.8025(5) 0.0348(3)
O1 O 0.4568(4) 0.8722(4) 0.0039(2)
N1 N 0.5380(4) 0.8064(4) 0.1068(3)
H1 H 0.4936 0.8588 0.1289
C2 C 0.6106(5) 0.7384(5) 0.1472(3)
O2 O 0.6148(4) 0.7520(4) 0.2118(2)
N2 N 0.6797(5) 0.6554(4) 0.1127(3)
C3 C 0.6726(6) 0.6466(6) 0.0384(3)
H2 H 0.7216 0.5897 0.0156
C4 C 0.6003(6) 0.7145(6) -0.0012(3)
C5 C 0.5887(10) 0.7042(9) -0.0803(4)
H3 H 0.6538 0.6551 -0.0985
H4 H 0.5926 0.7837 -0.1012
H5 H 0.5122 0.6671 -0.0919
C6 C 0.7709(7) 0.5847(6) 0.1519(3)
H6 H 0.7561 0.5974 0.2029
C7 C 0.8973(8) 0.6315(10) 0.1358(6)
H7 H 0.9092 0.6341 0.0851
H8 H 0.9564 0.5784 0.1569
H9 H 0.9064 0.7118 0.1552
C8 C 0.7589(9) 0.4523(7) 0.1377(4)
H10 H 0.7756 0.4380 0.0876
H11 H 0.8207 0.4099 0.1650
C9 C 0.6389(13) 0.3981(9) 0.1550(7)
H12 H 0.6387 0.3134 0.1407
H13 H 0.5764 0.4397 0.1279
Br1 Br 0.60083(19) 0.40864(13) 0.25502(11)
C10 C 0.3269(6) 0.0474(6) 0.1464(3)
O3 O 0.3997(5) -0.0185(5) 0.1781(3)
N3 N 0.3146(4) 0.0401(5) 0.0748(3)
H14 H 0.3638 -0.0085 0.0532
C11 C 0.2332(5) 0.1007(5) 0.0323(3)
O4 O 0.2272(4) 0.0847(4) -0.0303(2)
N4 N 0.1589(4) 0.1786(4) 0.0693(2)
C12 C 0.1706(6) 0.1942(6) 0.1415(3)
H15 H 0.1201 0.2506 0.1637
C13 C 0.2494(6) 0.1340(6) 0.1816(3)
C14 C 0.2594(9) 0.1504(10) 0.2599(4)
H16 H 0.3370 0.1854 0.2712
H17 H 0.2518 0.0730 0.2831
H18 H 0.1959 0.2035 0.2761
C15 C 0.0620(5) 0.2412(6) 0.0298(3)
H19 H 0.0777 0.2297 -0.0212
C16 C 0.0623(7) 0.3740(6) 0.0442(5)
H20 H 0.0470 0.3880 0.0939
H21 H 0.0001 0.4126 0.0163
H22 H 0.1401 0.4074 0.0317
C17 C -0.0605(6) 0.1818(7) 0.0469(4)
H23 H -0.0787 0.1949 0.0969
H24 H -0.1232 0.2220 0.0192
C18 C -0.0654(9) 0.0547(9) 0.0326(7)
H25 H 0.0006 0.0144 0.0574
H26 H -0.0544 0.0412 -0.0181
Br2 Br -0.21671(15) -0.01554(16) 0.06198(11)
loop_
_geom_bond_atom_site_label_1
_geom_bond_atom_site_label_2
_geom_bond_site_symmetry_1
_geom_bond_site_symmetry_2
C1 O1 1_555 1_555
N1 C1 1_555 1_555
H1 N1 1_555 1_555
C2 N1 1_555 1_555
O2 C2 1_555 1_555
N2 C2 1_555 1_555
C3 N2 1_555 1_555
H2 C3 1_555 1_555
C4 C1 1_555 1_555
C5 C4 1_555 1_555
H3 C5 1_555 1_555
H4 C5 1_555 1_555
H5 C5 1_555 1_555
C6 N2 1_555 1_555
H6 C6 1_555 1_555
C7 C6 1_555 1_555
H7 C7 1_555 1_555
H8 C7 1_555 1_555
H9 C7 1_555 1_555
C8 C6 1_555 1_555
H10 C8 1_555 1_555
H11 C8 1_555 1_555
C9 C8 1_555 1_555
H12 C9 1_555 1_555
H13 C9 1_555 1_555
Br1 C9 1_555 1_555
C10 O3 1_555 1_555
N3 C10 1_555 1_555
H14 N3 1_555 1_555
C11 N3 1_555 1_555
O4 C11 1_555 1_555
N4 C11 1_555 1_555
C12 N4 1_555 1_555
H15 C12 1_555 1_555
C13 C10 1_555 1_555
C14 C13 1_555 1_555
H16 C14 1_555 1_555
H17 C14 1_555 1_555
H18 C14 1_555 1_555
C15 N4 1_555 1_555
H19 C15 1_555 1_555
C16 C15 1_555 1_555
H20 C16 1_555 1_555
H21 C16 1_555 1_555
H22 C16 1_555 1_555
C17 C15 1_555 1_555
H23 C17 1_555 1_555
H24 C17 1_555 1_555
C18 C17 1_555 1_555
H25 C18 1_555 1_555
H26 C18 1_555 1_555
Br2 C18 1_555 1_555
C3 C4 1_555 1_555
C12 C13 1_555 1_555

#END
