
#######################################################################
#
#                 Cambridge Crystallographic Data Centre
#                                CCDC 
#
#######################################################################
#
# If this CIF has been generated from an entry in the Cambridge 
# Structural Database, then it will include bibliographic, chemical, 
# crystal, experimental, refinement or atomic coordinate data resulting 
# from the CCDC's data processing and validation procedures.
#
#######################################################################

data_BIRJIY
_chemical_formula_moiety         'C47 H39 B1 N2,0.5(C1 H2 Cl2)'
_chemical_name_systematic        
"5,5-bis(2,4,6-trimethylphenyl)-5H-6\l^5^,5\l^5^-isoindolo[1',2',3':3,4,5]indolizino[1,2-d]isoquinolino[2,1-b][2,1]benzazaborepine dichloromethane solvate"
_symmetry_cell_setting           monoclinic
_symmetry_space_group_name_H-M   'C c'
_symmetry_Int_Tables_number      9
_space_group_name_Hall           'C -2yc'
loop_
_symmetry_equiv_pos_site_id
_symmetry_equiv_pos_as_xyz
1 x,y,z
2 x,-y,1/2+z
3 1/2+x,1/2+y,z
4 1/2+x,1/2-y,1/2+z
_cell_length_a                   22.13(4)
_cell_length_b                   17.76(3)
_cell_length_c                   19.24(3)
_cell_angle_alpha                90
_cell_angle_beta                 106.15(6)
_cell_angle_gamma                90
_cell_volume                     7263.46
_exptl_crystal_colour            orange
_exptl_crystal_description       Block
_cell_formula_units_Z            8
loop_
_atom_site_label
_atom_site_type_symbol
_atom_site_fract_x
_atom_site_fract_y
_atom_site_fract_z
B1 B 0.2898(6) 0.4419(7) 0.4174(7)
N1 N 0.3450(4) 0.3910(5) 0.4786(5)
N2 N 0.1790(4) 0.2927(5) 0.5442(5)
C1 C 0.2505(5) 0.3803(7) 0.3558(6)
C2 C 0.2438(6) 0.3891(7) 0.2821(6)
H1 H 0.2657 0.4292 0.2671
C3 C 0.2066(6) 0.3418(8) 0.2290(7)
H2 H 0.2027 0.3509 0.1793
C4 C 0.1758(6) 0.2821(8) 0.2493(7)
H3 H 0.1507 0.2496 0.2135
C5 C 0.1811(5) 0.2694(6) 0.3208(6)
H4 H 0.1601 0.2277 0.3346
C6 C 0.2175(5) 0.3175(7) 0.3739(6)
C7 C 0.2137(5) 0.3062(6) 0.4487(6)
C8 C 0.1601(5) 0.2917(6) 0.4703(6)
C9 C 0.0922(6) 0.2921(6) 0.4505(7)
C10 C 0.0463(6) 0.2931(8) 0.3856(7)
H5 H 0.0565 0.2937 0.3407
C11 C -0.0162(7) 0.2933(9) 0.3887(10)
H6 H -0.0488 0.2961 0.3446
C12 C -0.0321(6) 0.2896(8) 0.4515(9)
H7 H -0.0754 0.2891 0.4498
C13 C 0.0125(6) 0.2864(8) 0.5185(8)
H8 H 0.0008 0.2834 0.5624
C14 C 0.0748(6) 0.2880(6) 0.5177(7)
C15 C 0.1314(6) 0.2936(7) 0.5764(7)
C16 C 0.1505(6) 0.3023(7) 0.6509(7)
H9 H 0.1206 0.3015 0.6781
C17 C 0.2143(6) 0.3123(7) 0.6850(7)
H10 H 0.2273 0.3158 0.7363
C18 C 0.2600(6) 0.3176(7) 0.6483(6)
H11 H 0.3025 0.3289 0.6730
C19 C 0.2412(5) 0.3056(6) 0.5748(6)
C20 C 0.2658(5) 0.3158(6) 0.5115(5)
C21 C 0.3304(5) 0.3303(6) 0.5169(5)
C22 C 0.4063(6) 0.4119(8) 0.4930(6)
H12 H 0.4162 0.4532 0.4667
C23 C 0.4535(6) 0.3782(8) 0.5416(7)
H13 H 0.4949 0.3981 0.5518
C24 C 0.4419(6) 0.3132(7) 0.5779(6)
C25 C 0.4915(6) 0.2699(8) 0.6272(6)
H14 H 0.5341 0.2854 0.6367
C26 C 0.4768(6) 0.2074(8) 0.6593(7)
H15 H 0.5091 0.1804 0.6929
C27 C 0.4146(6) 0.1820(7) 0.6438(6)
H16 H 0.4053 0.1372 0.6658
C28 C 0.3666(6) 0.2218(7) 0.5966(6)
H17 H 0.3245 0.2040 0.5861
C29 C 0.3797(6) 0.2880(7) 0.5643(6)
C30 C 0.3281(6) 0.4999(7) 0.3774(6)
C31 C 0.3216(5) 0.5811(7) 0.3748(6)
C32 C 0.3520(6) 0.6243(7) 0.3358(6)
H18 H 0.3468 0.6774 0.3367
C33 C 0.3896(6) 0.5961(7) 0.2956(6)
C34 C 0.3988(6) 0.5177(8) 0.2983(6)
H19 H 0.4258 0.4961 0.2730
C35 C 0.3696(6) 0.4711(7) 0.3367(6)
C36 C 0.3857(6) 0.3878(7) 0.3336(7)
H20 H 0.3685 0.3691 0.2842
H21 H 0.3676 0.3593 0.3666
H22 H 0.4316 0.3816 0.3483
C37 C 0.2812(8) 0.6251(9) 0.4129(8)
H23 H 0.2929 0.6784 0.4152
H24 H 0.2878 0.6055 0.4621
H25 H 0.2367 0.6196 0.3861
C38 C 0.2433(5) 0.4749(6) 0.4638(6)
C39 C 0.1770(6) 0.4813(7) 0.4320(6)
C40 C 0.1363(6) 0.4875(7) 0.4769(8)
H26 H 0.0923 0.4853 0.4549
C41 C 0.1573(6) 0.4965(8) 0.5513(8)
C42 C 0.2215(7) 0.5004(7) 0.5811(7)
H27 H 0.2383 0.5095 0.6315
C43 C 0.2626(5) 0.4911(7) 0.5373(6)
C44 C 0.3313(6) 0.5049(8) 0.5768(7)
H28 H 0.3463 0.4651 0.6128
H29 H 0.3356 0.5539 0.6012
H30 H 0.3563 0.5045 0.5420
C45 C 0.1457(7) 0.4816(8) 0.3518(8)
H31 H 0.1363 0.4297 0.3348
H32 H 0.1738 0.5047 0.3266
H33 H 0.1065 0.5105 0.3419
C46 C 0.4245(7) 0.6463(9) 0.2554(8)
H34 H 0.3968 0.6872 0.2314
H35 H 0.4373 0.6164 0.2190
H36 H 0.4619 0.6675 0.2898
C47 C 0.1126(8) 0.4988(9) 0.5971(10)
H37 H 0.1099 0.4488 0.6174
H38 H 0.0709 0.5142 0.5674
H39 H 0.1278 0.5351 0.6365
B2 B 0.8328(5) 0.4366(7) 0.5952(7)
N3 N 0.8599(4) 0.4852(5) 0.5324(4)
N4 N 0.6636(5) 0.5813(6) 0.4542(5)
C48 C 0.8236(5) 0.5036(6) 0.6518(6)
C49 C 0.8526(6) 0.5022(8) 0.7251(6)
H40 H 0.8818 0.4629 0.7435
C50 C 0.8415(6) 0.5553(7) 0.7742(6)
H41 H 0.8626 0.5511 0.8243
C51 C 0.8005(7) 0.6130(8) 0.7499(7)
H42 H 0.7947 0.6508 0.7824
C52 C 0.7673(6) 0.6161(7) 0.6778(5)
H43 H 0.7365 0.6542 0.6612
C53 C 0.7789(5) 0.5635(6) 0.6290(5)
C54 C 0.7426(5) 0.5705(6) 0.5544(5)
C55 C 0.6772(5) 0.5836(7) 0.5289(6)
C56 C 0.6165(5) 0.5860(6) 0.5432(7)
C57 C 0.5994(6) 0.5860(7) 0.6081(7)
H44 H 0.6304 0.5857 0.6537
C58 C 0.5364(7) 0.5866(9) 0.6035(8)
H45 H 0.5239 0.5865 0.6469
C59 C 0.4906(7) 0.5874(9) 0.5381(9)
H46 H 0.4475 0.5877 0.5376
C60 C 0.5061(6) 0.5876(9) 0.4736(9)
H47 H 0.4747 0.5887 0.4283
C61 C 0.5708(5) 0.5861(6) 0.4779(6)
C62 C 0.6007(6) 0.5793(7) 0.4175(8)
C63 C 0.5868(6) 0.5689(7) 0.3459(7)
H48 H 0.5443 0.5696 0.3170
C64 C 0.6352(6) 0.5573(9) 0.3148(7)
H49 H 0.6247 0.5496 0.2639
C65 C 0.6987(6) 0.5561(8) 0.3536(6)
H50 H 0.7305 0.5478 0.3299
C66 C 0.7144(5) 0.5675(6) 0.4296(6)
C67 C 0.7645(5) 0.5603(6) 0.4916(6)
C68 C 0.8296(5) 0.5418(6) 0.4918(5)
C69 C 0.8575(5) 0.5848(7) 0.4451(5)
C70 C 0.8282(6) 0.6519(7) 0.4089(6)
H51 H 0.7904 0.6708 0.4167
C71 C 0.8562(7) 0.6877(8) 0.3633(6)
H52 H 0.8363 0.7310 0.3380
C72 C 0.9126(6) 0.6636(8) 0.3521(7)
H53 H 0.9306 0.6903 0.3200
C73 C 0.9420(7) 0.6005(8) 0.3883(7)
H54 H 0.9809 0.5841 0.3817
C74 C 0.9148(5) 0.5605(6) 0.4346(6)
C75 C 0.9418(5) 0.4962(8) 0.4717(6)
H55 H 0.9794 0.4764 0.4641
C76 C 0.9148(5) 0.4605(7) 0.5198(6)
H56 H 0.9349 0.4173 0.5449
C77 C 0.8879(6) 0.3744(7) 0.6367(6)
C78 C 0.9483(6) 0.3991(7) 0.6736(5)
C79 C 0.9941(7) 0.3467(8) 0.7094(7)
H57 H 1.0346 0.3648 0.7348
C80 C 0.9829(8) 0.2698(8) 0.7091(7)
C81 C 0.9239(7) 0.2455(8) 0.6713(7)
H58 H 0.9153 0.1930 0.6686
C82 C 0.8756(6) 0.2957(7) 0.6363(7)
C83 C 0.8142(7) 0.2553(8) 0.6005(8)
H59 H 0.8177 0.2023 0.6153
H60 H 0.8056 0.2584 0.5478
H61 H 0.7798 0.2791 0.6152
C84 C 1.0334(9) 0.2156(11) 0.7478(8)
H62 H 1.0419 0.2224 0.8002
H63 H 1.0719 0.2252 0.7335
H64 H 1.0193 0.1638 0.7349
C85 C 0.9723(6) 0.4789(7) 0.6794(6)
H65 H 0.9799 0.4964 0.7294
H66 H 0.9410 0.5113 0.6471
H67 H 1.0117 0.4807 0.6656
C86 C 0.7619(5) 0.4053(6) 0.5524(5)
C87 C 0.7126(5) 0.4004(6) 0.5869(6)
C88 C 0.6512(6) 0.3929(7) 0.5481(7)
H68 H 0.6199 0.3930 0.5733
C89 C 0.6325(6) 0.3850(7) 0.4737(7)
C90 C 0.6797(6) 0.3786(7) 0.4406(7)
H69 H 0.6683 0.3697 0.3899
C91 C 0.7426(5) 0.3842(7) 0.4766(6)
C92 C 0.7894(6) 0.3704(7) 0.4349(7)
H70 H 0.7708 0.3372 0.3938
H71 H 0.8271 0.3466 0.4665
H72 H 0.8010 0.4185 0.4170
C93 C 0.7262(7) 0.4029(8) 0.6701(7)
H73 H 0.7271 0.4554 0.6861
H74 H 0.7669 0.3792 0.6925
H75 H 0.6930 0.3757 0.6846
C94 C 0.5636(7) 0.3810(10) 0.4314(9)
H76 H 0.5496 0.3284 0.4279
H77 H 0.5582 0.4013 0.3826
H78 H 0.5385 0.4107 0.4562
C95 C 0.6507(7) 0.1872(10) 0.4941(8)
H79 H 0.6785 0.2319 0.5043
H80 H 0.6769 0.1421 0.5114
Cl1 Cl 0.6162(3) 0.1799(3) 0.4008(3)
Cl2 Cl 0.5929(3) 0.1951(3) 0.5406(3)
H81? H 0.1634 0.2358 0.4667
loop_
_geom_bond_atom_site_label_1
_geom_bond_atom_site_label_2
_geom_bond_site_symmetry_1
_geom_bond_site_symmetry_2
B1 N1 1_555 1_555
N1 C21 1_555 1_555
N2 C8 1_555 1_555
C1 B1 1_555 1_555
C2 C1 1_555 1_555
H1 C2 1_555 1_555
C3 C2 1_555 1_555
H2 C3 1_555 1_555
C4 C3 1_555 1_555
H3 C4 1_555 1_555
C5 C4 1_555 1_555
H4 C5 1_555 1_555
C6 C1 1_555 1_555
C7 C6 1_555 1_555
C8 C7 1_555 1_555
C9 C8 1_555 1_555
C10 C9 1_555 1_555
H5 C10 1_555 1_555
C11 C10 1_555 1_555
H6 C11 1_555 1_555
C12 C11 1_555 1_555
H7 C12 1_555 1_555
C13 C12 1_555 1_555
H8 C13 1_555 1_555
C14 C9 1_555 1_555
C15 N2 1_555 1_555
C16 C15 1_555 1_555
H9 C16 1_555 1_555
C17 C16 1_555 1_555
H10 C17 1_555 1_555
C18 C17 1_555 1_555
H11 C18 1_555 1_555
C19 N2 1_555 1_555
C20 C7 1_555 1_555
C21 C20 1_555 1_555
C22 N1 1_555 1_555
H12 C22 1_555 1_555
C23 C22 1_555 1_555
H13 C23 1_555 1_555
C24 C23 1_555 1_555
C25 C24 1_555 1_555
H14 C25 1_555 1_555
C26 C25 1_555 1_555
H15 C26 1_555 1_555
C27 C26 1_555 1_555
H16 C27 1_555 1_555
C28 C27 1_555 1_555
H17 C28 1_555 1_555
C29 C21 1_555 1_555
C30 B1 1_555 1_555
C31 C30 1_555 1_555
C32 C31 1_555 1_555
H18 C32 1_555 1_555
C33 C32 1_555 1_555
C34 C33 1_555 1_555
H19 C34 1_555 1_555
C35 C30 1_555 1_555
C36 C35 1_555 1_555
H20 C36 1_555 1_555
H21 C36 1_555 1_555
H22 C36 1_555 1_555
C37 C31 1_555 1_555
H23 C37 1_555 1_555
H24 C37 1_555 1_555
H25 C37 1_555 1_555
C38 B1 1_555 1_555
C39 C38 1_555 1_555
C40 C39 1_555 1_555
H26 C40 1_555 1_555
C41 C40 1_555 1_555
C42 C41 1_555 1_555
H27 C42 1_555 1_555
C43 C38 1_555 1_555
C44 C43 1_555 1_555
H28 C44 1_555 1_555
H29 C44 1_555 1_555
H30 C44 1_555 1_555
C45 C39 1_555 1_555
H31 C45 1_555 1_555
H32 C45 1_555 1_555
H33 C45 1_555 1_555
C46 C33 1_555 1_555
H34 C46 1_555 1_555
H35 C46 1_555 1_555
H36 C46 1_555 1_555
C47 C41 1_555 1_555
H37 C47 1_555 1_555
H38 C47 1_555 1_555
H39 C47 1_555 1_555
B2 N3 1_555 1_555
N3 C68 1_555 1_555
N4 C55 1_555 1_555
C48 B2 1_555 1_555
C49 C48 1_555 1_555
H40 C49 1_555 1_555
C50 C49 1_555 1_555
H41 C50 1_555 1_555
C51 C50 1_555 1_555
H42 C51 1_555 1_555
C52 C51 1_555 1_555
H43 C52 1_555 1_555
C53 C48 1_555 1_555
C54 C53 1_555 1_555
C55 C54 1_555 1_555
C56 C55 1_555 1_555
C57 C56 1_555 1_555
H44 C57 1_555 1_555
C58 C57 1_555 1_555
H45 C58 1_555 1_555
C59 C58 1_555 1_555
H46 C59 1_555 1_555
C60 C59 1_555 1_555
H47 C60 1_555 1_555
C61 C56 1_555 1_555
C62 N4 1_555 1_555
C63 C62 1_555 1_555
H48 C63 1_555 1_555
C64 C63 1_555 1_555
H49 C64 1_555 1_555
C65 C64 1_555 1_555
H50 C65 1_555 1_555
C66 N4 1_555 1_555
C67 C54 1_555 1_555
C68 C67 1_555 1_555
C69 C68 1_555 1_555
C70 C69 1_555 1_555
H51 C70 1_555 1_555
C71 C70 1_555 1_555
H52 C71 1_555 1_555
C72 C71 1_555 1_555
H53 C72 1_555 1_555
C73 C72 1_555 1_555
H54 C73 1_555 1_555
C74 C69 1_555 1_555
C75 C74 1_555 1_555
H55 C75 1_555 1_555
C76 N3 1_555 1_555
H56 C76 1_555 1_555
C77 B2 1_555 1_555
C78 C77 1_555 1_555
C79 C78 1_555 1_555
H57 C79 1_555 1_555
C80 C79 1_555 1_555
C81 C80 1_555 1_555
H58 C81 1_555 1_555
C82 C77 1_555 1_555
C83 C82 1_555 1_555
H59 C83 1_555 1_555
H60 C83 1_555 1_555
H61 C83 1_555 1_555
C84 C80 1_555 1_555
H62 C84 1_555 1_555
H63 C84 1_555 1_555
H64 C84 1_555 1_555
C85 C78 1_555 1_555
H65 C85 1_555 1_555
H66 C85 1_555 1_555
H67 C85 1_555 1_555
C86 B2 1_555 1_555
C87 C86 1_555 1_555
C88 C87 1_555 1_555
H68 C88 1_555 1_555
C89 C88 1_555 1_555
C90 C89 1_555 1_555
H69 C90 1_555 1_555
C91 C86 1_555 1_555
C92 C91 1_555 1_555
H70 C92 1_555 1_555
H71 C92 1_555 1_555
H72 C92 1_555 1_555
C93 C87 1_555 1_555
H73 C93 1_555 1_555
H74 C93 1_555 1_555
H75 C93 1_555 1_555
C94 C89 1_555 1_555
H76 C94 1_555 1_555
H77 C94 1_555 1_555
H78 C94 1_555 1_555
C95 H79 1_555 1_555
H80 C95 1_555 1_555
Cl1 C95 1_555 1_555
Cl2 C95 1_555 1_555
C5 C6 1_555 1_555
C13 C14 1_555 1_555
C14 C15 1_555 1_555
C18 C19 1_555 1_555
C19 C20 1_555 1_555
C24 C29 1_555 1_555
C28 C29 1_555 1_555
C34 C35 1_555 1_555
C42 C43 1_555 1_555
C52 C53 1_555 1_555
C60 C61 1_555 1_555
C61 C62 1_555 1_555
C65 C66 1_555 1_555
C66 C67 1_555 1_555
C73 C74 1_555 1_555
C75 C76 1_555 1_555
C81 C82 1_555 1_555
C90 C91 1_555 1_555

#END
