
#######################################################################
#
#                 Cambridge Crystallographic Data Centre
#                                CCDC 
#
#######################################################################
#
# If this CIF has been generated from an entry in the Cambridge 
# Structural Database, then it will include bibliographic, chemical, 
# crystal, experimental, refinement or atomic coordinate data resulting 
# from the CCDC's data processing and validation procedures.
#
#######################################################################

data_BIRSOK
_chemical_formula_moiety         'C21 H28 O3'
_chemical_name_systematic        
11\b-Hydroxy-3-methoxy-19-norpregna-1,3,5(10)-trien-20-one
_symmetry_cell_setting           monoclinic
_symmetry_space_group_name_H-M   'P 21/n'
_symmetry_Int_Tables_number      14
_space_group_name_Hall           '-P 2yn'
loop_
_symmetry_equiv_pos_site_id
_symmetry_equiv_pos_as_xyz
1 x,y,z
2 1/2-x,1/2+y,1/2-z
3 -x,-y,-z
4 1/2+x,1/2-y,1/2+z
_cell_length_a                   13.078(12)
_cell_length_b                   6.414(9)
_cell_length_c                   22.169(6)
_cell_angle_alpha                90
_cell_angle_beta                 110.06(6)
_cell_angle_gamma                90
_cell_volume                     1746.77
_exptl_crystal_colour            colorless
_cell_formula_units_Z            4
loop_
_atom_site_label
_atom_site_type_symbol
_atom_site_fract_x
_atom_site_fract_y
_atom_site_fract_z
O1 O 0.43450 0.51100 0.07600
O2 O 0.02870 -0.07400 -0.06260
O3 O -0.15710 -0.73800 -0.27030
C1 C 0.25190 0.06000 0.03950
C2 C 0.30650 0.23100 0.07280
C3 C 0.37770 0.33700 0.04780
C4 C 0.39460 0.26700 -0.00640
C5 C 0.34190 0.09200 -0.03820
C6 C 0.36680 0.02200 -0.09790
C7 C 0.32260 -0.19200 -0.12110
C8 C 0.20640 -0.22400 -0.12080
C9 C 0.21050 -0.22000 -0.04960
C10 C 0.26910 -0.01400 -0.01520
C11 C 0.09870 -0.25300 -0.04290
C12 C 0.03710 -0.44400 -0.08280
C13 C 0.03720 -0.45200 -0.15070
C14 C 0.15640 -0.43000 -0.14860
C15 C 0.15140 -0.48900 -0.21620
C16 C 0.06500 -0.66700 -0.23690
C17 C 0.01000 -0.66900 -0.18420
C18 C -0.03640 -0.27900 -0.19290
C19 C -0.11040 -0.72100 -0.21270
C20 C -0.17490 -0.75600 -0.16850
C21 C 0.41760 0.60600 0.13010
loop_
_geom_bond_atom_site_label_1
_geom_bond_atom_site_label_2
_geom_bond_site_symmetry_1
_geom_bond_site_symmetry_2
O1 C3 1_555 1_555
O2 C11 1_555 1_555
O3 C19 1_555 1_555
C1 C2 1_555 1_555
C2 C3 1_555 1_555
C3 C4 1_555 1_555
C4 C5 1_555 1_555
C5 C6 1_555 1_555
C6 C7 1_555 1_555
C7 C8 1_555 1_555
C8 C9 1_555 1_555
C9 C10 1_555 1_555
C10 C1 1_555 1_555
C11 C9 1_555 1_555
C12 C11 1_555 1_555
C13 C12 1_555 1_555
C14 C8 1_555 1_555
C15 C14 1_555 1_555
C16 C15 1_555 1_555
C17 C13 1_555 1_555
C18 C13 1_555 1_555
C19 C17 1_555 1_555
C20 C19 1_555 1_555
C21 O1 1_555 1_555
C5 C10 1_555 1_555
C13 C14 1_555 1_555
C16 C17 1_555 1_555

#END
