
#######################################################################
#
#                 Cambridge Crystallographic Data Centre
#                                CCDC 
#
#######################################################################
#
# If this CIF has been generated from an entry in the Cambridge 
# Structural Database, then it will include bibliographic, chemical, 
# crystal, experimental, refinement or atomic coordinate data resulting 
# from the CCDC's data processing and validation procedures.
#
#######################################################################

data_BISJOE
_chemical_formula_moiety         'C16 H22 B9 N2 O2 1-,C6 H8 N1 1+,C4 H10 O1'
_chemical_name_systematic        
"anilinium N,N'-diphenyl-7,8-dicarba-nido-undecaborate-7,8-dicarboxamide diethyl ether solvate"
_symmetry_cell_setting           triclinic
_symmetry_space_group_name_H-M   'P -1'
_symmetry_Int_Tables_number      2
_space_group_name_Hall           '-P 1'
loop_
_symmetry_equiv_pos_site_id
_symmetry_equiv_pos_as_xyz
1 x,y,z
2 -x,-y,-z
_cell_length_a                   11.4781(11)
_cell_length_b                   12.5873(14)
_cell_length_c                   24.400(2)
_cell_angle_alpha                87.665(8)
_cell_angle_beta                 82.728(8)
_cell_angle_gamma                63.274(10)
_cell_volume                     3122.81
_cell_formula_units_Z            4
loop_
_atom_site_label
_atom_site_type_symbol
_atom_site_fract_x
_atom_site_fract_y
_atom_site_fract_z
O1 O 0.4133(3) 0.6391(3) 1.02229(13)
O2 O 0.2319(3) 0.6849(3) 0.93823(14)
N1 N 0.3463(3) 0.8256(3) 0.99149(15)
H1 H 0.2776 0.8929 0.9910
N2 N 0.0287(4) 0.7086(4) 0.93628(16)
H2 H -0.0464 0.7258 0.9550
C1 C 0.1870(4) 0.7831(3) 1.04810(17)
C2 C 0.0798(4) 0.7697(3) 1.01878(16)
C3 C 0.1206(4) 0.7172(3) 0.96240(18)
C4 C 0.3262(4) 0.7404(4) 1.01870(17)
C5 C 0.4637(4) 0.8223(4) 0.96315(17)
C6 C 0.0466(4) 0.6734(4) 0.88027(19)
B1 B 0.1234(5) 0.9040(4) 1.0857(2)
B2 B -0.0691(4) 0.8736(4) 1.0362(2)
C7 C 0.5781(4) 0.7173(4) 0.95100(19)
H3 H 0.5809 0.6443 0.9613
B3 B -0.0220(5) 0.7303(4) 1.0657(2)
H4 H -0.0672 0.6724 1.0580
C8 C 0.4613(5) 0.9297(4) 0.9471(2)
H5 H 0.3847 1.0002 0.9547
B4 B -0.1030(5) 0.8610(4) 1.1064(2)
H6 H -0.2042 0.8885 1.1261
C9 C 0.6881(5) 0.7235(5) 0.9232(2)
H7 H 0.7649 0.6535 0.9150
B5 B 0.0174(5) 0.8812(5) 1.1396(2)
H8 H -0.0022 0.9217 1.1809
B6 B 0.1479(5) 0.6711(4) 1.0713(2)
H9 H 0.2134 0.5752 1.0662
C10 C 0.6868(5) 0.8279(6) 0.9079(2)
H10 H 0.7617 0.8301 0.8894
C11 C 0.0451(5) 0.5701(5) 0.8669(2)
H11 H 0.0347 0.5209 0.8946
B7 B -0.0567(5) 0.9725(5) 1.0840(2)
C12 C 0.5721(5) 0.9322(5) 0.9201(2)
H12 H 0.5704 1.0047 0.9097
B8 B 0.0333(6) 0.7323(5) 1.1288(2)
H13 H 0.0217 0.6769 1.1630
C13 C 0.0629(6) 0.7437(5) 0.8390(2)
H14 H 0.0631 0.8148 0.8479
B9 B 0.1704(5) 0.7617(5) 1.1173(2)
H15 H 0.2495 0.7245 1.1440
C14 C 0.0593(6) 0.5390(6) 0.8119(3)
H16 H 0.0571 0.4689 0.8029
C15 C 0.0762(6) 0.6072(7) 0.7713(3)
H17 H 0.0860 0.5850 0.7344
C16 C 0.0788(6) 0.7113(6) 0.7851(3)
H18 H 0.0915 0.7594 0.7574
H19 H 0.187(4) 0.944(3) 1.0924(15)
H20 H -0.136(4) 0.896(4) 1.0041(17)
H21 H -0.123(4) 1.064(4) 1.0919(16)
H22 H 0.013(5) 0.981(4) 1.0429(19)
O3 O 0.4036(4) 0.8359(4) 0.45436(15)
O4 O 0.5626(3) 0.8529(3) 0.54297(15)
N3 N 0.6716(4) 0.6760(3) 0.49821(16)
H23 H 0.6679 0.6104 0.4931
N4 N 0.2481(5) 0.7843(5) 0.44565(19)
H24 H 0.1995 0.7548 0.4628
C17 C 0.3378(4) 0.7888(4) 0.47365(18)
C18 C 0.4745(4) 0.7103(3) 0.55771(16)
C19 C 0.3530(4) 0.7270(4) 0.52775(16)
C20 C 0.5711(5) 0.7561(4) 0.53142(18)
C21 C 0.2222(5) 0.8218(5) 0.3914(2)
C22 C 0.7831(5) 0.6838(4) 0.47035(19)
B10 B 0.3067(5) 0.6232(4) 0.5407(2)
B11 B 0.5303(6) 0.5857(5) 0.5912(2)
B12 B 0.4160(5) 0.5200(5) 0.5860(2)
C23 C 0.7892(5) 0.7904(5) 0.4621(2)
H25 H 0.7194 0.8614 0.4757
B13 B 0.2138(5) 0.7634(5) 0.5756(2)
H26 H 0.1113 0.8229 0.5695
B14 B 0.3236(6) 0.8218(5) 0.5842(2)
H27 H 0.2935 0.9180 0.5827
B15 B 0.2601(6) 0.6310(5) 0.6117(3)
H28 H 0.1853 0.6036 0.6298
C24 C 0.2611(8) 0.7879(7) 0.2950(3)
H29 H 0.3128 0.7404 0.2646
C25 C 1.0053(6) 0.6858(7) 0.4133(3)
H30 H 1.0806 0.6864 0.3943
B16 B 0.2707(6) 0.7547(5) 0.6400(2)
H31 H 0.2056 0.8059 0.6764
C26 C 0.1121(6) 0.9238(5) 0.3835(3)
H32 H 0.0600 0.9723 0.4135
C27 C 0.8881(5) 0.5786(5) 0.4504(2)
H33 H 0.8849 0.5064 0.4564
B17 B 0.4386(6) 0.7262(5) 0.6275(2)
H34 H 0.4823 0.7607 0.6553
C28 C 0.1494(9) 0.8894(8) 0.2876(3)
H35 H 0.1240 0.9120 0.2525
B18 B 0.4015(6) 0.6055(5) 0.6446(2)
H36 H 0.4225 0.5608 0.6844
C29 C 0.9021(7) 0.7891(7) 0.4329(3)
H37 H 0.9070 0.8605 0.4267
C30 C 0.2970(6) 0.7558(6) 0.3469(3)
H38 H 0.3740 0.6876 0.3513
C31 C 0.9977(6) 0.5821(6) 0.4217(3)
H39 H 1.0680 0.5116 0.4077
C32 C 0.0788(7) 0.9542(7) 0.3321(4)
H40 H 0.0031 1.0238 0.3277
H41 H 0.651(4) 0.536(4) 0.5960(16)
H42 H 0.262(4) 0.606(3) 0.5083(17)
H43 H 0.439(5) 0.431(4) 0.5917(18)
H44 H 0.474(5) 0.531(5) 0.550(2)
N5 N 0.5386(3) 0.4948(3) 0.10681(15)
H45 H 0.4847 0.5338 0.0819
H46 H 0.4986 0.4652 0.1321
H47 H 0.6110 0.4357 0.0902
C33 C 0.5736(4) 0.5766(4) 0.1336(2)
C34 C 0.6151(5) 0.6482(5) 0.1017(3)
H48 H 0.6199 0.6447 0.0634
C35 C 0.6495(6) 0.7243(6) 0.1255(4)
H49 H 0.6784 0.7722 0.1037
C36 C 0.5653(6) 0.5803(5) 0.1893(3)
H50 H 0.5367 0.5317 0.2107
C37 C 0.6412(7) 0.7299(7) 0.1825(4)
H51 H 0.6633 0.7822 0.1993
C38 C 0.5997(7) 0.6567(8) 0.2142(3)
H52 H 0.5950 0.6591 0.2525
O5 O 0.4328(4) 0.3877(4) 0.19037(17)
C39 C 0.2900(7) 0.4477(8) 0.2077(4)
H53 H 0.2502 0.5156 0.1843
H54 H 0.2539 0.3933 0.2019
C40 C 0.4919(9) 0.2696(7) 0.2046(3)
H55 H 0.4532 0.2275 0.1870
H56 H 0.4744 0.2637 0.2442
C41 C 0.6301(8) 0.2135(8) 0.1889(4)
H57 H 0.6482 0.2151 0.1495
H58 H 0.6664 0.1325 0.2008
H59 H 0.6691 0.2552 0.2059
C42 C 0.2543(10) 0.4871(8) 0.2631(5)
H60 H 0.1661 0.5500 0.2676
H61 H 0.3132 0.5161 0.2732
H62 H 0.2594 0.4222 0.2864
N6 N 0.4712(4) 0.9775(3) 0.38110(16)
H63 H 0.4119 1.0200 0.3587
H64 H 0.4820 1.0262 0.4031
H65 H 0.4435 0.9311 0.4015
C43 C 0.5964(5) 0.9036(4) 0.34827(19)
C44 C 0.6447(7) 0.7810(5) 0.3502(2)
H66 H 0.5990 0.7452 0.3711
C45 C 0.6627(6) 0.9554(5) 0.3176(2)
H67 H 0.6281 1.0379 0.3171
C46 C 0.7664(8) 0.7139(6) 0.3189(3)
H68 H 0.8026 0.6313 0.3197
C47 C 0.7832(7) 0.8852(7) 0.2867(3)
H69 H 0.8295 0.9202 0.2655
C48 C 0.8320(7) 0.7637(8) 0.2882(3)
H70 H 0.9116 0.7159 0.2676
O6 O 0.2748(5) 0.1290(4) 0.3149(2)
C49 C 0.2628(8) 0.1138(7) 0.2600(4)
H71 H 0.2516 0.1846 0.2394
H72 H 0.1867 0.1002 0.2580
C50 C 0.3820(9) 0.0115(7) 0.2366(3)
H73 H 0.3746 -0.0016 0.1990
H74 H 0.3931 -0.0579 0.2577
H75 H 0.4565 0.0265 0.2378
C51 C 0.1438(8) 0.2277(9) 0.3973(4)
H76 H 0.1943 0.2656 0.4077
H77 H 0.1772 0.1487 0.4116
H78 H 0.0535 0.2728 0.4122
C52 C 0.1530(11) 0.2223(9) 0.3411(5)
H79 H 0.1437 0.2982 0.3265
H80 H 0.0804 0.2105 0.3312
loop_
_geom_bond_atom_site_label_1
_geom_bond_atom_site_label_2
_geom_bond_site_symmetry_1
_geom_bond_site_symmetry_2
O1 C4 1_555 1_555
O2 C3 1_555 1_555
N1 H1 1_555 1_555
N2 H2 1_555 1_555
C1 C2 1_555 1_555
C2 C3 1_555 1_555
C3 N2 1_555 1_555
C4 N1 1_555 1_555
C5 N1 1_555 1_555
C6 N2 1_555 1_555
B1 C1 1_555 1_555
B2 C2 1_555 1_555
C7 C5 1_555 1_555
H3 C7 1_555 1_555
B3 C2 1_555 1_555
H4 B3 1_555 1_555
C8 C5 1_555 1_555
H5 C8 1_555 1_555
B4 B2 1_555 1_555
H6 B4 1_555 1_555
C9 C7 1_555 1_555
H7 C9 1_555 1_555
B5 B1 1_555 1_555
H8 B5 1_555 1_555
B6 C1 1_555 1_555
H9 B6 1_555 1_555
C10 C9 1_555 1_555
H10 C10 1_555 1_555
C11 C6 1_555 1_555
H11 C11 1_555 1_555
B7 B1 1_555 1_555
C12 C8 1_555 1_555
H12 C12 1_555 1_555
B8 B3 1_555 1_555
H13 B8 1_555 1_555
C13 C6 1_555 1_555
H14 C13 1_555 1_555
B9 C1 1_555 1_555
H15 B9 1_555 1_555
C14 C11 1_555 1_555
H16 C14 1_555 1_555
C15 C14 1_555 1_555
H17 C15 1_555 1_555
C16 C13 1_555 1_555
H18 C16 1_555 1_555
H19 B1 1_555 1_555
H20 B2 1_555 1_555
H21 B7 1_555 1_555
H22 B7 1_555 1_555
O3 C17 1_555 1_555
O4 C20 1_555 1_555
N3 H23 1_555 1_555
N4 H24 1_555 1_555
C17 N4 1_555 1_555
C18 C19 1_555 1_555
C19 C17 1_555 1_555
C20 N3 1_555 1_555
C21 N4 1_555 1_555
C22 N3 1_555 1_555
B10 C19 1_555 1_555
B11 C18 1_555 1_555
B12 B10 1_555 1_555
C23 C22 1_555 1_555
H25 C23 1_555 1_555
B13 C19 1_555 1_555
H26 B13 1_555 1_555
B14 C18 1_555 1_555
H27 B14 1_555 1_555
B15 B10 1_555 1_555
H28 B15 1_555 1_555
C24 H29 1_555 1_555
C25 H30 1_555 1_555
B16 B13 1_555 1_555
H31 B16 1_555 1_555
C26 C21 1_555 1_555
H32 C26 1_555 1_555
C27 C22 1_555 1_555
H33 C27 1_555 1_555
B17 C18 1_555 1_555
H34 B17 1_555 1_555
C28 C24 1_555 1_555
H35 C28 1_555 1_555
B18 B11 1_555 1_555
H36 B18 1_555 1_555
C29 C23 1_555 1_555
H37 C29 1_555 1_555
C30 C21 1_555 1_555
H38 C30 1_555 1_555
C31 C25 1_555 1_555
H39 C31 1_555 1_555
C32 C26 1_555 1_555
H40 C32 1_555 1_555
H41 B11 1_555 1_555
H42 B10 1_555 1_555
H43 B12 1_555 1_555
H44 B12 1_555 1_555
N5 H45 1_555 1_555
H46 N5 1_555 1_555
H47 N5 1_555 1_555
C33 N5 1_555 1_555
C34 C33 1_555 1_555
H48 C34 1_555 1_555
C35 C34 1_555 1_555
H49 C35 1_555 1_555
C36 C33 1_555 1_555
H50 C36 1_555 1_555
C37 C35 1_555 1_555
H51 C37 1_555 1_555
C38 C36 1_555 1_555
H52 C38 1_555 1_555
O5 C39 1_555 1_555
C39 H53 1_555 1_555
H54 C39 1_555 1_555
C40 O5 1_555 1_555
H55 C40 1_555 1_555
H56 C40 1_555 1_555
C41 C40 1_555 1_555
H57 C41 1_555 1_555
H58 C41 1_555 1_555
H59 C41 1_555 1_555
C42 C39 1_555 1_555
H60 C42 1_555 1_555
H61 C42 1_555 1_555
H62 C42 1_555 1_555
N6 H63 1_555 1_555
H64 N6 1_555 1_555
H65 N6 1_555 1_555
C43 N6 1_555 1_555
C44 C43 1_555 1_555
H66 C44 1_555 1_555
C45 C43 1_555 1_555
H67 C45 1_555 1_555
C46 C44 1_555 1_555
H68 C46 1_555 1_555
C47 C45 1_555 1_555
H69 C47 1_555 1_555
C48 C46 1_555 1_555
H70 C48 1_555 1_555
O6 C49 1_555 1_555
C49 H71 1_555 1_555
H72 C49 1_555 1_555
C50 C49 1_555 1_555
H73 C50 1_555 1_555
H74 C50 1_555 1_555
H75 C50 1_555 1_555
C51 H76 1_555 1_555
H77 C51 1_555 1_555
H78 C51 1_555 1_555
C52 O6 1_555 1_555
H79 C52 1_555 1_555
H80 C52 1_555 1_555
C1 C4 1_555 1_555
C2 B6 1_555 1_555
B1 B9 1_555 1_555
B2 B3 1_555 1_555
B2 B7 1_555 1_555
B3 B4 1_555 1_555
B3 B6 1_555 1_555
B4 B5 1_555 1_555
B4 B7 1_555 1_555
B4 B8 1_555 1_555
B5 B7 1_555 1_555
B5 B8 1_555 1_555
B5 B9 1_555 1_555
B6 B8 1_555 1_555
B6 B9 1_555 1_555
C10 C12 1_555 1_555
B8 B9 1_555 1_555
C15 C16 1_555 1_555
C18 C20 1_555 1_555
C19 B14 1_555 1_555
B10 B13 1_555 1_555
B11 B12 1_555 1_555
B11 B17 1_555 1_555
B12 B15 1_555 1_555
B12 B18 1_555 1_555
B13 B14 1_555 1_555
B13 B15 1_555 1_555
B14 B16 1_555 1_555
B14 B17 1_555 1_555
B15 B16 1_555 1_555
B15 B18 1_555 1_555
C24 C30 1_555 1_555
C25 C29 1_555 1_555
B16 B17 1_555 1_555
B16 B18 1_555 1_555
C27 C31 1_555 1_555
B17 B18 1_555 1_555
C28 C32 1_555 1_555
C37 C38 1_555 1_555
C47 C48 1_555 1_555
C51 C52 1_555 1_555

#END
