
#######################################################################
#
#                 Cambridge Crystallographic Data Centre
#                                CCDC 
#
#######################################################################
#
# If this CIF has been generated from an entry in the Cambridge 
# Structural Database, then it will include bibliographic, chemical, 
# crystal, experimental, refinement or atomic coordinate data resulting 
# from the CCDC's data processing and validation procedures.
#
#######################################################################

data_BISNIC
_chemical_formula_moiety         'C37 H33 N3 O3'
_chemical_name_systematic        
1'-Acetyl-1,1''-dibenzyl-5',6',7',7a'-tetrahydro-1'H-dispiro[indole-3,2'-pyrrolizine-3',3''-indole]-2,2''(1H,1''H)-dione
_symmetry_cell_setting           monoclinic
_symmetry_space_group_name_H-M   'P 21/c'
_symmetry_Int_Tables_number      14
_space_group_name_Hall           '-P 2ybc'
loop_
_symmetry_equiv_pos_site_id
_symmetry_equiv_pos_as_xyz
1 x,y,z
2 -x,1/2+y,1/2-z
3 -x,-y,-z
4 x,1/2-y,1/2+z
_cell_length_a                   9.2909(2)
_cell_length_b                   19.3115(5)
_cell_length_c                   17.4290(5)
_cell_angle_alpha                90
_cell_angle_beta                 112.188(2)
_cell_angle_gamma                90
_cell_volume                     2895.57
_exptl_crystal_colour            colorless
_exptl_crystal_description       BLOCK
_cell_formula_units_Z            4
loop_
_atom_site_label
_atom_site_type_symbol
_atom_site_fract_x
_atom_site_fract_y
_atom_site_fract_z
O1 O 0.55442(16) -0.39641(7) 0.85505(9)
O2 O 0.98358(15) -0.20583(7) 0.87997(8)
O3 O 0.45066(17) -0.31587(9) 0.69396(10)
N1 N 0.44109(18) -0.29555(9) 0.87182(11)
N2 N 0.91345(17) -0.35137(8) 0.89220(10)
N3 N 1.00232(18) -0.21336(8) 1.01429(10)
C1 C 0.3285(2) -0.35607(11) 0.96200(14)
C2 C 0.3561(3) -0.42490(12) 0.97942(17)
H1 H 0.3593 -0.4549 0.9383
C3 C 0.3796(3) -0.45075(14) 1.05723(19)
H2 H 0.3980 -0.4977 1.0682
C4 C 0.3754(3) -0.40704(17) 1.11767(18)
H3 H 0.3926 -0.4241 1.1703
C5 C 0.3461(3) -0.33855(16) 1.10109(18)
H4 H 0.3414 -0.3089 1.1421
C6 C 0.3234(3) -0.31304(12) 1.02354(16)
H5 H 0.3044 -0.2661 1.0128
C7 C 0.3016(2) -0.32810(12) 0.87675(14)
H6 H 0.2685 -0.3657 0.8370
H7 H 0.2183 -0.2942 0.8617
C8 C 0.4649(2) -0.22468(10) 0.86658(13)
C9 C 0.3714(3) -0.17045(12) 0.87057(15)
H8 H 0.2803 -0.1782 0.8796
C10 C 0.4178(3) -0.10409(12) 0.86068(16)
H9 H 0.3569 -0.0666 0.8634
C11 C 0.5521(3) -0.09243(11) 0.84692(15)
H10 H 0.5812 -0.0474 0.8407
C12 C 0.6448(2) -0.14758(10) 0.84228(13)
H11 H 0.7346 -0.1396 0.8320
C13 C 0.6023(2) -0.21413(10) 0.85298(12)
C14 C 0.6759(2) -0.28348(9) 0.85097(11)
C15 C 0.5536(2) -0.33357(11) 0.85883(12)
C16 C 0.5819(2) -0.31468(11) 0.69575(13)
C17 C 0.7163(2) -0.29791(10) 0.77414(12)
H12 H 0.7615 -0.2550 0.7633
C18 C 0.8498(2) -0.35212(11) 0.80105(12)
H13 H 0.9307 -0.3369 0.7816
C19 C 0.8130(3) -0.42808(11) 0.77803(15)
H14 H 0.7074 -0.4394 0.7716
H15 H 0.8276 -0.4394 0.7272
C20 C 0.9308(3) -0.46549(12) 0.85206(15)
H16 H 0.8986 -0.5127 0.8559
H17 H 1.0329 -0.4659 0.8491
C21 C 0.9298(3) -0.42243(10) 0.92408(14)
H18 H 0.8433 -0.4349 0.9395
H19 H 1.0260 -0.4280 0.9718
C22 C 0.8390(2) -0.29670(9) 0.92257(11)
C23 C 0.9469(2) -0.23281(10) 0.93339(12)
C24 C 0.8465(2) -0.30697(10) 1.01016(12)
C25 C 0.7777(3) -0.35440(11) 1.04472(14)
H20 H 0.7043 -0.3856 1.0114
C26 C 0.8200(3) -0.35481(13) 1.13032(16)
H21 H 0.7739 -0.3864 1.1543
C27 C 0.9288(3) -0.30912(14) 1.17986(15)
H22 H 0.9589 -0.3118 1.2371
C28 C 0.9945(3) -0.25935(12) 1.14634(13)
H23 H 1.0662 -0.2276 1.1797
C29 C 0.9493(2) -0.25880(10) 1.06120(12)
C30 C 1.1177(2) -0.15925(11) 1.04877(14)
H24 H 1.1521 -0.1431 1.0058
H25 H 1.2070 -0.1791 1.0926
C31 C 1.0615(2) -0.09792(10) 1.08327(13)
C32 C 1.1615(3) -0.06572(11) 1.15407(14)
H26 H 1.2595 -0.0844 1.1827
C33 C 1.1172(3) -0.00616(12) 1.18264(17)
H27 H 1.1855 0.0153 1.2302
C34 C 0.9729(4) 0.02158(13) 1.1413(2)
H28 H 0.9436 0.0621 1.1602
C35 C 0.8726(3) -0.01044(13) 1.07231(19)
H29 H 0.7740 0.0080 1.0447
C36 C 0.9159(3) -0.07006(12) 1.04300(15)
H30 H 0.8464 -0.0915 0.9958
C37 C 0.6165(3) -0.32627(15) 0.61964(14)
H31 H 0.5412 -0.3575 0.5832
H32 H 0.7186 -0.3458 0.6349
H33 H 0.6120 -0.2829 0.5919
loop_
_geom_bond_atom_site_label_1
_geom_bond_atom_site_label_2
_geom_bond_site_symmetry_1
_geom_bond_site_symmetry_2
O1 C15 1_555 1_555
O2 C23 1_555 1_555
O3 C16 1_555 1_555
N1 C7 1_555 1_555
N2 C18 1_555 1_555
N3 C23 1_555 1_555
C1 C2 1_555 1_555
C2 H1 1_555 1_555
C3 C2 1_555 1_555
H2 C3 1_555 1_555
C4 C3 1_555 1_555
H3 C4 1_555 1_555
C5 C4 1_555 1_555
H4 C5 1_555 1_555
C6 C1 1_555 1_555
H5 C6 1_555 1_555
C7 C1 1_555 1_555
H6 C7 1_555 1_555
H7 C7 1_555 1_555
C8 N1 1_555 1_555
C9 C8 1_555 1_555
H8 C9 1_555 1_555
C10 C9 1_555 1_555
H9 C10 1_555 1_555
C11 C10 1_555 1_555
H10 C11 1_555 1_555
C12 C11 1_555 1_555
H11 C12 1_555 1_555
C13 C8 1_555 1_555
C14 C13 1_555 1_555
C15 N1 1_555 1_555
C16 C17 1_555 1_555
C17 C14 1_555 1_555
H12 C17 1_555 1_555
C18 C17 1_555 1_555
H13 C18 1_555 1_555
C19 C18 1_555 1_555
H14 C19 1_555 1_555
H15 C19 1_555 1_555
C20 C19 1_555 1_555
H16 C20 1_555 1_555
H17 C20 1_555 1_555
C21 N2 1_555 1_555
H18 C21 1_555 1_555
H19 C21 1_555 1_555
C22 N2 1_555 1_555
C23 C22 1_555 1_555
C24 C22 1_555 1_555
C25 C24 1_555 1_555
H20 C25 1_555 1_555
C26 C25 1_555 1_555
H21 C26 1_555 1_555
C27 C26 1_555 1_555
H22 C27 1_555 1_555
C28 C27 1_555 1_555
H23 C28 1_555 1_555
C29 N3 1_555 1_555
C30 N3 1_555 1_555
H24 C30 1_555 1_555
H25 C30 1_555 1_555
C31 C30 1_555 1_555
C32 C31 1_555 1_555
H26 C32 1_555 1_555
C33 C32 1_555 1_555
H27 C33 1_555 1_555
C34 C33 1_555 1_555
H28 C34 1_555 1_555
C35 C34 1_555 1_555
H29 C35 1_555 1_555
C36 C31 1_555 1_555
H30 C36 1_555 1_555
C37 C16 1_555 1_555
H31 C37 1_555 1_555
H32 C37 1_555 1_555
H33 C37 1_555 1_555
C5 C6 1_555 1_555
C12 C13 1_555 1_555
C14 C15 1_555 1_555
C14 C22 1_555 1_555
C20 C21 1_555 1_555
C24 C29 1_555 1_555
C28 C29 1_555 1_555
C35 C36 1_555 1_555

#END
