
#######################################################################
#
#                 Cambridge Crystallographic Data Centre
#                                CCDC 
#
#######################################################################
#
# If this CIF has been generated from an entry in the Cambridge 
# Structural Database, then it will include bibliographic, chemical, 
# crystal, experimental, refinement or atomic coordinate data resulting 
# from the CCDC's data processing and validation procedures.
#
#######################################################################

data_BISVOR
_chemical_compound_source        
'cultures of the endophytic fungus Penicillium purpurogenum IMM003'
_chemical_name_common            'purpurolide B'
_chemical_formula_moiety         'C17 H20 O7'
_chemical_name_systematic        
"(3'-hydroxy-5''-methyl-4''-oxodispiro[bicyclo[3.1.1]hept-2-ene-6,4'-oxolane-2',2''-[3,6]dioxabicyclo[3.1.0]hexan]-2-yl)methyl acetate"
_chemical_properties_biological  
'tested for pancreatic lipase inhibitory activity and antibacterial activity'
_symmetry_cell_setting           monoclinic
_symmetry_space_group_name_H-M   'P 21'
_symmetry_Int_Tables_number      4
_space_group_name_Hall           'P 2yb'
loop_
_symmetry_equiv_pos_site_id
_symmetry_equiv_pos_as_xyz
1 x,y,z
2 -x,1/2+y,-z
_cell_length_a                   7.04787(11)
_cell_length_b                   14.3136(2)
_cell_length_c                   7.95091(12)
_cell_angle_alpha                90
_cell_angle_beta                 96.2849(14)
_cell_angle_gamma                90
_cell_volume                     797.27
_exptl_crystal_colour            colorless
_exptl_crystal_description       block
_cell_formula_units_Z            2
loop_
_atom_site_label
_atom_site_type_symbol
_atom_site_fract_x
_atom_site_fract_y
_atom_site_fract_z
O1 O 0.7500(2) 0.35429(10) 0.80888(18)
H1 H 0.710349 0.391875 0.874565
O2 O 0.58487(19) 0.51364(10) 0.59278(18)
O3 O 0.7322(2) 0.44204(11) 0.37820(18)
O4 O 0.8115(2) 0.63645(11) 1.10387(19)
O5 O 0.8250(2) 0.72111(12) 1.34161(19)
O6 O 0.5529(2) 0.27862(10) 0.42618(19)
O7 O 0.6241(3) 0.42277(13) 0.10446(19)
C1 C 0.8221(3) 0.40299(14) 0.6744(2)
H2 H 0.914873 0.364322 0.622943
C2 C 0.9078(3) 0.49965(14) 0.7220(2)
C3 C 1.0259(3) 0.50573(15) 0.8993(2)
H3 H 0.981011 0.467760 0.989610
C4 C 0.7341(3) 0.67585(14) 1.2327(3)
C5 C 0.7401(3) 0.56708(14) 0.6818(3)
H4 H 0.701237 0.593035 0.785370
H5 H 0.776497 0.618011 0.611497
C6 C 1.1314(3) 0.66049(15) 0.8197(3)
H6 H 1.160480 0.723093 0.840548
C7 C 0.4940(3) 0.36182(14) 0.5066(3)
H7 H 0.389219 0.360149 0.578043
C8 C 0.6564(3) 0.42943(13) 0.5427(2)
C9 C 1.1967(3) 0.46632(15) 0.8135(3)
H8 H 1.319764 0.491849 0.857204
H9 H 1.200484 0.398673 0.807415
C10 C 0.4565(3) 0.35157(15) 0.3226(3)
C11 C 0.6078(3) 0.40806(16) 0.2512(3)
C12 C 1.0632(3) 0.60841(15) 0.9386(3)
C13 C 0.5239(3) 0.65774(16) 1.2226(3)
H10 H 0.455749 0.715272 1.200195
H11 H 0.493440 0.632217 1.328015
H12 H 0.487674 0.614133 1.133059
C14 C 1.1042(3) 0.51427(15) 0.6496(3)
H13 H 1.118960 0.480937 0.544138
C15 C 1.0177(3) 0.64724(17) 1.1036(3)
H14 H 1.085451 0.613168 1.197093
H15 H 1.053508 0.712604 1.113439
C16 C 1.1612(3) 0.61761(15) 0.6521(3)
H16 H 1.294258 0.623345 0.632879
H17 H 1.084710 0.650551 0.562010
C17 C 0.2723(4) 0.32897(18) 0.2216(3)
H18 H 0.296073 0.292772 0.124439
H19 H 0.208080 0.385815 0.185241
H20 H 0.193640 0.293719 0.289790
loop_
_geom_bond_atom_site_label_1
_geom_bond_atom_site_label_2
_geom_bond_site_symmetry_1
_geom_bond_site_symmetry_2
O1 H1 1_555 1_555
O2 C5 1_555 1_555
O3 C8 1_555 1_555
O4 C4 1_555 1_555
O5 C4 1_555 1_555
O6 C7 1_555 1_555
O7 C11 1_555 1_555
C1 O1 1_555 1_555
H2 C1 1_555 1_555
C2 C1 1_555 1_555
C3 C2 1_555 1_555
H3 C3 1_555 1_555
C4 C13 1_555 1_555
C5 C2 1_555 1_555
H4 C5 1_555 1_555
H5 C5 1_555 1_555
C6 H6 1_555 1_555
C7 H7 1_555 1_555
C8 O2 1_555 1_555
C9 C3 1_555 1_555
H8 C9 1_555 1_555
H9 C9 1_555 1_555
C10 O6 1_555 1_555
C11 O3 1_555 1_555
C12 C3 1_555 1_555
C13 H10 1_555 1_555
H11 C13 1_555 1_555
H12 C13 1_555 1_555
C14 C2 1_555 1_555
H13 C14 1_555 1_555
C15 O4 1_555 1_555
H14 C15 1_555 1_555
H15 C15 1_555 1_555
C16 C6 1_555 1_555
H16 C16 1_555 1_555
H17 C16 1_555 1_555
C17 C10 1_555 1_555
H18 C17 1_555 1_555
H19 C17 1_555 1_555
H20 C17 1_555 1_555
C1 C8 1_555 1_555
C6 C12 1_555 1_555
C7 C8 1_555 1_555
C7 C10 1_555 1_555
C9 C14 1_555 1_555
C10 C11 1_555 1_555
C12 C15 1_555 1_555
C14 C16 1_555 1_555

#END
