
#######################################################################
#
#                 Cambridge Crystallographic Data Centre
#                                CCDC 
#
#######################################################################
#
# If this CIF has been generated from an entry in the Cambridge 
# Structural Database, then it will include bibliographic, chemical, 
# crystal, experimental, refinement or atomic coordinate data resulting 
# from the CCDC's data processing and validation procedures.
#
#######################################################################

data_BISYUA
_chemical_formula_moiety         'C54 H54 N2 S2,2(C1 H1 Cl3)'
_chemical_name_systematic        
"9,18-di-t-butyl-2,11-dihexylquinolino[8',7',6',5':6,7]bisthieno[3',2':2,3;3'',2'':8,9]perylo[1,12-fgh]quinoline chloroform solvate"
_symmetry_cell_setting           monoclinic
_symmetry_space_group_name_H-M   'P 21/c'
_symmetry_Int_Tables_number      14
_space_group_name_Hall           '-P 2ybc'
loop_
_symmetry_equiv_pos_site_id
_symmetry_equiv_pos_as_xyz
1 x,y,z
2 -x,1/2+y,1/2-z
3 -x,-y,-z
4 x,1/2-y,1/2+z
_cell_length_a                   10.4995(5)
_cell_length_b                   28.3367(12)
_cell_length_c                   8.5764(4)
_cell_angle_alpha                90
_cell_angle_beta                 104.521(3)
_cell_angle_gamma                90
_cell_volume                     2470.15
_exptl_crystal_colour            yellow
_exptl_crystal_description       plank
_cell_formula_units_Z            2
loop_
_atom_site_label
_atom_site_type_symbol
_atom_site_fract_x
_atom_site_fract_y
_atom_site_fract_z
C1 C 0.3279(4) 0.42117(16) 0.6658(5)
S1 S 0.27952(12) 0.36901(4) 0.56018(16)
C2 C 0.1205(4) 0.37277(18) 0.5829(6)
C3 C 0.1050(4) 0.41198(17) 0.6653(6)
H1 H 0.024100 0.420126 0.688822
C4 C 0.2214(4) 0.44032(16) 0.7142(5)
C5 C 0.2413(4) 0.48044(16) 0.8178(5)
C6 C 0.1334(4) 0.51027(16) 0.8396(5)
C7 C 0.0088(4) 0.51131(17) 0.7298(6)
H2 H -0.008580 0.492256 0.635638
C8 C -0.0866(5) 0.53992(17) 0.7598(6)
H3 H -0.170937 0.541238 0.686377
C9 C -0.0590(5) 0.56723(18) 0.8994(6)
H4 H -0.128046 0.585561 0.921858
N1 N 0.0583(4) 0.56899(14) 1.0023(5)
C10 C 0.1549(4) 0.54145(16) 0.9705(5)
C11 C 0.2847(4) 0.54511(16) 1.0786(5)
C12 C 0.3047(4) 0.56852(16) 1.2266(6)
H5 H 0.229823 0.581099 1.255277
C13 C 0.4256(4) 0.57450(16) 1.3331(5)
C14 C 0.5395(4) 0.56230(15) 1.2745(5)
C15 C 0.5203(4) 0.53266(15) 1.1352(5)
C16 C 0.3915(4) 0.52265(16) 1.0397(5)
C17 C 0.3702(4) 0.49022(16) 0.9061(5)
C18 C 0.0196(5) 0.33577(18) 0.5139(6)
H6 H -0.049245 0.335829 0.574307
H7 H 0.062270 0.304352 0.527678
C19 C -0.0442(5) 0.3438(2) 0.3363(7)
H8 H 0.024489 0.342855 0.275704
H9 H -0.084386 0.375629 0.322364
C20 C -0.1499(6) 0.3072(2) 0.2656(7)
H10 H -0.210395 0.304240 0.337007
H11 H -0.107406 0.276166 0.262287
C21 C -0.2299(6) 0.3202(3) 0.0949(8)
H12 H -0.273013 0.351070 0.098588
H13 H -0.169192 0.323484 0.023955
C22 C -0.3312(7) 0.2848(3) 0.0252(8)
H14 H -0.395188 0.282916 0.092367
H15 H -0.288843 0.253470 0.027818
C23 C -0.4028(8) 0.2959(4) -0.1436(9)
H16 H -0.471330 0.272131 -0.182245
H17 H -0.340930 0.295655 -0.212178
H18 H -0.443380 0.327139 -0.147421
C24 C 0.4271(4) 0.58921(17) 1.5068(6)
C25 C 0.5440(5) 0.56735(18) 1.6333(6)
H19 H 0.529860 0.571366 1.741145
H20 H 0.625772 0.583207 1.627870
H21 H 0.550443 0.533647 1.610745
C26 C 0.4229(5) 0.64299(18) 1.5261(6)
H22 H 0.423600 0.650697 1.637721
H23 H 0.342563 0.655465 1.453639
H24 H 0.499927 0.657141 1.499340
C27 C 0.3024(5) 0.5695(2) 1.5507(6)
H25 H 0.308027 0.575716 1.664619
H26 H 0.296591 0.535400 1.531143
H27 H 0.224046 0.584954 1.483982
C1B C 0.6721(4) 0.57883(16) 1.3342(5)
S1B S 0.72048(12) 0.63099(4) 1.43982(16)
C2B C 0.8795(4) 0.62723(18) 1.4171(6)
C3B C 0.8950(4) 0.58802(17) 1.3347(6)
H1B H 0.975900 0.579874 1.311178
C4B C 0.7786(4) 0.55968(16) 1.2858(5)
C5B C 0.7587(4) 0.51956(16) 1.1822(5)
C6B C 0.8666(4) 0.48973(16) 1.1604(5)
C7B C 0.9912(4) 0.48869(17) 1.2702(6)
H2B H 1.008580 0.507744 1.364362
C8B C 1.0866(5) 0.46008(17) 1.2402(6)
H3B H 1.170937 0.458762 1.313623
C9B C 1.0590(5) 0.43277(18) 1.1006(6)
H4B H 1.128046 0.414439 1.078142
N1B N 0.9417(4) 0.43101(14) 0.9977(5)
C10B C 0.8451(4) 0.45855(16) 1.0295(5)
C11B C 0.7153(4) 0.45489(16) 0.9214(5)
C12B C 0.6953(4) 0.43148(16) 0.7734(6)
H5B H 0.770177 0.418901 0.744723
C13B C 0.5744(4) 0.42550(16) 0.6669(5)
C14B C 0.4605(4) 0.43770(15) 0.7255(5)
C15B C 0.4797(4) 0.46734(15) 0.8648(5)
C16B C 0.6085(4) 0.47735(16) 0.9603(5)
C17B C 0.6298(4) 0.50978(16) 1.0939(5)
C18B C 0.9804(5) 0.66423(18) 1.4861(6)
H6B H 1.049245 0.664171 1.425693
H7B H 0.937730 0.695648 1.472322
C19B C 1.0442(5) 0.6562(2) 1.6637(7)
H8B H 0.975511 0.657145 1.724296
H9B H 1.084386 0.624371 1.677636
C20B C 1.1499(6) 0.6928(2) 1.7344(7)
H10B H 1.210395 0.695760 1.662993
H11B H 1.107406 0.723834 1.737713
C21B C 1.2299(6) 0.6798(3) 1.9051(8)
H12B H 1.273013 0.648930 1.901412
H13B H 1.169192 0.676516 1.976045
C22B C 1.3312(7) 0.7152(3) 1.9748(8)
H14B H 1.395188 0.717084 1.907633
H15B H 1.288843 0.746530 1.972182
C23B C 1.4028(8) 0.7041(4) 2.1436(9)
H16B H 1.471330 0.727869 2.182245
H17B H 1.340930 0.704345 2.212178
H18B H 1.443380 0.672861 2.147421
C24B C 0.5729(4) 0.41079(17) 0.4932(6)
C25B C 0.4560(5) 0.43265(18) 0.3667(6)
H19B H 0.470140 0.428634 0.258855
H20B H 0.374228 0.416793 0.372130
H21B H 0.449557 0.466353 0.389255
C26B C 0.5771(5) 0.35701(18) 0.4739(6)
H22B H 0.576400 0.349303 0.362279
H23B H 0.657437 0.344535 0.546361
H24B H 0.500073 0.342859 0.500660
C27B C 0.6976(5) 0.4305(2) 0.4493(6)
H25B H 0.691973 0.424284 0.335381
H26B H 0.703409 0.464600 0.468857
H27B H 0.775954 0.415046 0.516018
C28 C 0.2425(8) 0.1954(3) 0.4372(11)
H28 H 0.249602 0.185446 0.327840
Cl1 Cl 0.3402(9) 0.1599(3) 0.5813(14)
Cl2 Cl 0.3033(5) 0.25265(15) 0.4768(9)
Cl3 Cl 0.0794(3) 0.19215(11) 0.4470(3)
C29? C 0.254(3) 0.2042(9) 0.532(5)
H29? H 0.288633 0.219747 0.638654
Cl4? Cl 0.3377(10) 0.1517(3) 0.534(2)
Cl5? Cl 0.272(2) 0.2440(6) 0.385(3)
Cl6? Cl 0.088(3) 0.1941(11) 0.509(7)
loop_
_geom_bond_atom_site_label_1
_geom_bond_atom_site_label_2
_geom_bond_site_symmetry_1
_geom_bond_site_symmetry_2
C1 S1 1_555 1_555
S1 C2 1_555 1_555
C2 C3 1_555 1_555
C3 H1 1_555 1_555
C4 C1 1_555 1_555
C5 C4 1_555 1_555
C6 C5 1_555 1_555
C7 C6 1_555 1_555
H2 C7 1_555 1_555
C8 C7 1_555 1_555
H3 C8 1_555 1_555
C9 C8 1_555 1_555
H4 C9 1_555 1_555
N1 C9 1_555 1_555
C10 C6 1_555 1_555
C11 C10 1_555 1_555
C12 C11 1_555 1_555
H5 C12 1_555 1_555
C13 C12 1_555 1_555
C14 C13 1_555 1_555
C15 C14 1_555 1_555
C16 C11 1_555 1_555
C17 C5 1_555 1_555
C18 C2 1_555 1_555
H6 C18 1_555 1_555
H7 C18 1_555 1_555
C19 C18 1_555 1_555
H8 C19 1_555 1_555
H9 C19 1_555 1_555
C20 C19 1_555 1_555
H10 C20 1_555 1_555
H11 C20 1_555 1_555
C21 C20 1_555 1_555
H12 C21 1_555 1_555
H13 C21 1_555 1_555
C22 C21 1_555 1_555
H14 C22 1_555 1_555
H15 C22 1_555 1_555
C23 C22 1_555 1_555
H16 C23 1_555 1_555
H17 C23 1_555 1_555
H18 C23 1_555 1_555
C24 C13 1_555 1_555
C25 C24 1_555 1_555
H19 C25 1_555 1_555
H20 C25 1_555 1_555
H21 C25 1_555 1_555
C26 C24 1_555 1_555
H22 C26 1_555 1_555
H23 C26 1_555 1_555
H24 C26 1_555 1_555
C27 C24 1_555 1_555
H25 C27 1_555 1_555
H26 C27 1_555 1_555
H27 C27 1_555 1_555
C28 H28 1_555 1_555
Cl1 C28 1_555 1_555
Cl2 C28 1_555 1_555
Cl3 C28 1_555 1_555
C1B C14 1_555 1_555
S1B C1B 1_555 1_555
C2B S1B 1_555 1_555
C3B C2B 1_555 1_555
H1B C3B 1_555 1_555
C4B C1B 1_555 1_555
C5B C4B 1_555 1_555
C6B C5B 1_555 1_555
C7B C6B 1_555 1_555
H2B C7B 1_555 1_555
C8B C7B 1_555 1_555
H3B C8B 1_555 1_555
C9B C8B 1_555 1_555
H4B C9B 1_555 1_555
N1B C9B 1_555 1_555
C10B C6B 1_555 1_555
C11B C10B 1_555 1_555
C12B C11B 1_555 1_555
H5B C12B 1_555 1_555
C13B C12B 1_555 1_555
C14B C1 1_555 1_555
C15B C17 1_555 1_555
C16B C11B 1_555 1_555
C17B C15 1_555 1_555
C18B C2B 1_555 1_555
H6B C18B 1_555 1_555
H7B C18B 1_555 1_555
C19B C18B 1_555 1_555
H8B C19B 1_555 1_555
H9B C19B 1_555 1_555
C20B C19B 1_555 1_555
H10B C20B 1_555 1_555
H11B C20B 1_555 1_555
C21B C20B 1_555 1_555
H12B C21B 1_555 1_555
H13B C21B 1_555 1_555
C22B C21B 1_555 1_555
H14B C22B 1_555 1_555
H15B C22B 1_555 1_555
C23B C22B 1_555 1_555
H16B C23B 1_555 1_555
H17B C23B 1_555 1_555
H18B C23B 1_555 1_555
C24B C13B 1_555 1_555
C25B C24B 1_555 1_555
H19B C25B 1_555 1_555
H20B C25B 1_555 1_555
H21B C25B 1_555 1_555
C26B C24B 1_555 1_555
H22B C26B 1_555 1_555
H23B C26B 1_555 1_555
H24B C26B 1_555 1_555
C27B C24B 1_555 1_555
H25B C27B 1_555 1_555
H26B C27B 1_555 1_555
H27B C27B 1_555 1_555
C3 C4 1_555 1_555
N1 C10 1_555 1_555
C15 C16 1_555 1_555
C16 C17 1_555 1_555
C3B C4B 1_555 1_555
C5B C17B 1_555 1_555
N1B C10B 1_555 1_555
C13B C14B 1_555 1_555
C14B C15B 1_555 1_555
C15B C16B 1_555 1_555
C16B C17B 1_555 1_555

#END
