
#######################################################################
#
#                 Cambridge Crystallographic Data Centre
#                                CCDC 
#
#######################################################################
#
# If this CIF has been generated from an entry in the Cambridge 
# Structural Database, then it will include bibliographic, chemical, 
# crystal, experimental, refinement or atomic coordinate data resulting 
# from the CCDC's data processing and validation procedures.
#
#######################################################################

data_BIVHEW
_chemical_formula_moiety         'C38 H44 S2'
_chemical_name_systematic        
4,10-dinonylidene-4,10-dihydrothieno[2'',3'':1',2']indeno[5',4':4,5]indeno[1,2-b]thiophene
_symmetry_cell_setting           monoclinic
_symmetry_space_group_name_H-M   'P 21/n'
_symmetry_Int_Tables_number      14
_space_group_name_Hall           '-P 2yn'
loop_
_symmetry_equiv_pos_site_id
_symmetry_equiv_pos_as_xyz
1 x,y,z
2 1/2-x,1/2+y,1/2-z
3 -x,-y,-z
4 1/2+x,1/2-y,1/2+z
_cell_length_a                   16.506(3)
_cell_length_b                   4.8605(6)
_cell_length_c                   19.822(2)
_cell_angle_alpha                90
_cell_angle_beta                 103.922(9)
_cell_angle_gamma                90
_cell_volume                     1543.55
_exptl_crystal_colour            orange
_exptl_crystal_description       block
_cell_formula_units_Z            2
loop_
_atom_site_label
_atom_site_type_symbol
_atom_site_fract_x
_atom_site_fract_y
_atom_site_fract_z
C1 C 0.15871(12) 0.8183(4) 0.73916(9)
H1 H 0.181268 0.942651 0.775842
S1 S 0.08019(3) 0.58746(10) 0.74162(2)
C2 C 0.18483(10) 0.8041(4) 0.67983(9)
H2 H 0.227560 0.916883 0.669986
C3 C 0.14073(9) 0.5996(3) 0.63351(8)
C4 C 0.08228(10) 0.4696(3) 0.66067(8)
C5 C 0.03633(9) 0.2673(3) 0.61258(7)
C6 C 0.13778(9) 0.4767(3) 0.56449(8)
C7 C 0.06798(8) 0.2713(3) 0.55329(7)
C8 C -0.02673(9) 0.0864(3) 0.61947(8)
H3 H -0.046745 0.086201 0.660577
C9 C -0.05932(9) -0.0904(3) 0.56639(8)
H4 H -0.101195 -0.216824 0.571816
C10 C -0.03290(8) -0.0921(3) 0.50352(7)
C11 C 0.19065(10) 0.5286(4) 0.52483(10)
H5 H 0.180632 0.432331 0.481900
C12 C 0.26385(10) 0.7196(4) 0.53947(10)
H6 H 0.258233 0.852788 0.575847
H7 H 0.265086 0.824078 0.496857
C13 C 0.34495(10) 0.5592(4) 0.56368(9)
H8 H 0.344258 0.464750 0.607791
H9 H 0.347301 0.415699 0.528744
C14 C 0.42351(10) 0.7335(4) 0.57492(9)
H10 H 0.426507 0.818557 0.530212
H11 H 0.420137 0.883598 0.607890
C15 C 0.50248(10) 0.5686(4) 0.60307(9)
H12 H 0.504362 0.414674 0.570786
H13 H 0.499698 0.487999 0.648323
C16 C 0.58300(10) 0.7333(4) 0.61308(9)
H14 H 0.585959 0.814670 0.567948
H15 H 0.581617 0.886396 0.645724
C17 C 0.66078(11) 0.5637(4) 0.64077(9)
H16 H 0.661095 0.407696 0.608711
H17 H 0.658163 0.485963 0.686364
C18 C 0.74203(10) 0.7213(4) 0.64956(9)
H18 H 0.745343 0.797468 0.603972
H19 H 0.742030 0.877839 0.681516
C19 C 0.81829(12) 0.5455(5) 0.67781(10)
H20 H 0.819570 0.392916 0.645766
H21 H 0.815986 0.472134 0.723357
H22 H 0.868710 0.657603 0.682598
C1B C -0.15871(12) -0.8183(4) 0.26084(9)
H1B H -0.181268 -0.942651 0.224158
S1B S -0.08019(3) -0.58746(10) 0.25838(2)
C2B C -0.18483(10) -0.8041(4) 0.32017(9)
H2B H -0.227560 -0.916883 0.330014
C3B C -0.14073(9) -0.5996(3) 0.36649(8)
C4B C -0.08228(10) -0.4696(3) 0.33933(8)
C5B C -0.03633(9) -0.2673(3) 0.38742(7)
C6B C -0.13778(9) -0.4767(3) 0.43551(8)
C7B C -0.06798(8) -0.2713(3) 0.44671(7)
C8B C 0.02673(9) -0.0864(3) 0.38053(8)
H3B H 0.046745 -0.086201 0.339423
C9B C 0.05932(9) 0.0904(3) 0.43361(8)
H4B H 0.101195 0.216824 0.428184
C10B C 0.03290(8) 0.0921(3) 0.49648(7)
C11B C -0.19065(10) -0.5286(4) 0.47517(10)
H5B H -0.180632 -0.432331 0.518100
C12B C -0.26385(10) -0.7196(4) 0.46053(10)
H6B H -0.258233 -0.852788 0.424153
H7B H -0.265086 -0.824078 0.503143
C13B C -0.34495(10) -0.5592(4) 0.43632(9)
H8B H -0.344258 -0.464750 0.392209
H9B H -0.347301 -0.415699 0.471256
C14B C -0.42351(10) -0.7335(4) 0.42508(9)
H10B H -0.426507 -0.818557 0.469788
H11B H -0.420137 -0.883598 0.392110
C15B C -0.50248(10) -0.5686(4) 0.39693(9)
H12B H -0.504362 -0.414674 0.429214
H13B H -0.499698 -0.487999 0.351677
C16B C -0.58300(10) -0.7333(4) 0.38692(9)
H14B H -0.585959 -0.814670 0.432052
H15B H -0.581617 -0.886396 0.354276
C17B C -0.66078(11) -0.5637(4) 0.35923(9)
H16B H -0.661095 -0.407696 0.391289
H17B H -0.658163 -0.485963 0.313636
C18B C -0.74203(10) -0.7213(4) 0.35044(9)
H18B H -0.745343 -0.797468 0.396028
H19B H -0.742030 -0.877839 0.318484
C19B C -0.81829(12) -0.5455(5) 0.32219(10)
H20B H -0.819570 -0.392916 0.354234
H21B H -0.815986 -0.472134 0.276643
H22B H -0.868710 -0.657603 0.317402
loop_
_geom_bond_atom_site_label_1
_geom_bond_atom_site_label_2
_geom_bond_site_symmetry_1
_geom_bond_site_symmetry_2
C1 H1 1_555 1_555
S1 C1 1_555 1_555
C2 C1 1_555 1_555
H2 C2 1_555 1_555
C3 C2 1_555 1_555
C4 S1 1_555 1_555
C5 C4 1_555 1_555
C6 C3 1_555 1_555
C7 C5 1_555 1_555
C8 C5 1_555 1_555
H3 C8 1_555 1_555
C9 C8 1_555 1_555
H4 C9 1_555 1_555
C10 C9 1_555 1_555
C11 C6 1_555 1_555
H5 C11 1_555 1_555
C12 C11 1_555 1_555
H6 C12 1_555 1_555
H7 C12 1_555 1_555
C13 C12 1_555 1_555
H8 C13 1_555 1_555
H9 C13 1_555 1_555
C14 C13 1_555 1_555
H10 C14 1_555 1_555
H11 C14 1_555 1_555
C15 C14 1_555 1_555
H12 C15 1_555 1_555
H13 C15 1_555 1_555
C16 C15 1_555 1_555
H14 C16 1_555 1_555
H15 C16 1_555 1_555
C17 C16 1_555 1_555
H16 C17 1_555 1_555
H17 C17 1_555 1_555
C18 C17 1_555 1_555
H18 C18 1_555 1_555
H19 C18 1_555 1_555
C19 C18 1_555 1_555
H20 C19 1_555 1_555
H21 C19 1_555 1_555
H22 C19 1_555 1_555
C1B H1B 1_555 1_555
S1B C1B 1_555 1_555
C2B C1B 1_555 1_555
H2B C2B 1_555 1_555
C3B C2B 1_555 1_555
C4B S1B 1_555 1_555
C5B C4B 1_555 1_555
C6B C3B 1_555 1_555
C7B C10 1_555 1_555
C8B C5B 1_555 1_555
H3B C8B 1_555 1_555
C9B C8B 1_555 1_555
H4B C9B 1_555 1_555
C10B C7 1_555 1_555
C11B C6B 1_555 1_555
H5B C11B 1_555 1_555
C12B C11B 1_555 1_555
H6B C12B 1_555 1_555
H7B C12B 1_555 1_555
C13B C12B 1_555 1_555
H8B C13B 1_555 1_555
H9B C13B 1_555 1_555
C14B C13B 1_555 1_555
H10B C14B 1_555 1_555
H11B C14B 1_555 1_555
C15B C14B 1_555 1_555
H12B C15B 1_555 1_555
H13B C15B 1_555 1_555
C16B C15B 1_555 1_555
H14B C16B 1_555 1_555
H15B C16B 1_555 1_555
C17B C16B 1_555 1_555
H16B C17B 1_555 1_555
H17B C17B 1_555 1_555
C18B C17B 1_555 1_555
H18B C18B 1_555 1_555
H19B C18B 1_555 1_555
C19B C18B 1_555 1_555
H20B C19B 1_555 1_555
H21B C19B 1_555 1_555
H22B C19B 1_555 1_555
C3 C4 1_555 1_555
C6 C7 1_555 1_555
C10 C10B 1_555 1_555
C3B C4B 1_555 1_555
C5B C7B 1_555 1_555
C6B C7B 1_555 1_555
C9B C10B 1_555 1_555

#END
