
#######################################################################
#
#                 Cambridge Crystallographic Data Centre
#                                CCDC 
#
#######################################################################
#
# If this CIF has been generated from an entry in the Cambridge 
# Structural Database, then it will include bibliographic, chemical, 
# crystal, experimental, refinement or atomic coordinate data resulting 
# from the CCDC's data processing and validation procedures.
#
#######################################################################

data_BIVSIJ02
_chemical_formula_moiety         'C12 H10 N2,C13 H10 O3'
_chemical_name_systematic        
"4,4'-Dihydroxybenzophenone 1,2-bis(4-pyridyl)ethene"
_symmetry_cell_setting           monoclinic
_symmetry_space_group_name_H-M   'C 2/c'
_symmetry_Int_Tables_number      15
_space_group_name_Hall           '-C 2yn'
loop_
_symmetry_equiv_pos_site_id
_symmetry_equiv_pos_as_xyz
1 x,y,z
2 1/2+x,1/2+y,z
3 -x,y,1/2-z
4 1/2-x,1/2+y,1/2-z
5 -x,-y,-z
6 1/2-x,1/2-y,-z
7 x,-y,1/2+z
8 1/2+x,1/2-y,1/2+z
_cell_length_a                   23.760(2)
_cell_length_b                   6.0368(5)
_cell_length_c                   13.6085(12)
_cell_angle_alpha                90
_cell_angle_beta                 101.123(3)
_cell_angle_gamma                90
_cell_volume                     1915.26
_exptl_crystal_colour            yellow
_exptl_crystal_description       block
_cell_formula_units_Z            4
loop_
_atom_site_label
_atom_site_type_symbol
_atom_site_fract_x
_atom_site_fract_y
_atom_site_fract_z
N1 N 0.16434(4) -0.25068(15) 0.74787(6)
C8 C 0.14486(4) -0.45177(18) 0.76752(7)
C9 C 0.17313(4) -0.59130(17) 0.84223(7)
C10 C 0.22551(4) -0.52340(16) 0.90032(7)
C11 C 0.24628(4) -0.31585(16) 0.87893(7)
C12 C 0.21441(4) -0.18615(17) 0.80400(7)
C13 C 0.25934(4) -0.65861(16) 0.98032(7)
H1 H 0.2983(6) -0.603(2) 1.0066(10)
H5 H 0.1547(6) -0.736(2) 0.8518(10)
H6 H 0.2275(6) -0.039(2) 0.7889(10)
H8 H 0.1083(6) -0.497(2) 0.7266(11)
H9 H 0.2838(6) -0.264(2) 0.9145(10)
N1E N 0.33566(4) -1.24932(15) 1.25213(6)
C8E C 0.35514(4) -1.04823(18) 1.23248(7)
C9E C 0.32687(4) -0.90870(17) 1.15777(7)
C10E C 0.27449(4) -0.97660(16) 1.09968(7)
C11E C 0.25372(4) -1.18415(16) 1.12107(7)
C12E C 0.28559(4) -1.31385(17) 1.19600(7)
C13E C 0.24066(4) -0.84139(16) 1.01968(7)
H1E H 0.2017(6) -0.897(2) 0.9934(10)
H5E H 0.3453(6) -0.764(2) 1.1482(10)
H6E H 0.2725(6) -1.461(2) 1.2111(10)
H8E H 0.3917(6) -1.003(2) 1.2734(11)
H9E H 0.2162(6) -1.236(2) 1.0855(10)
O1 O 0.11904(3) 0.07490(13) 0.60992(5)
O2 O 0.0000 -0.50730(18) 0.2500
C1 C 0.05218(4) 0.02577(16) 0.34599(7)
C2 C 0.08279(4) 0.11070(17) 0.43586(7)
C3 C 0.08902(4) -0.01368(17) 0.52390(7)
C4 C 0.06470(4) -0.22452(18) 0.52128(7)
C5 C 0.03557(4) -0.30980(17) 0.43154(7)
C6 C 0.02845(4) -0.18685(16) 0.34260(7)
C7 C 0.0000 -0.3030(2) 0.2500
H2 H 0.0673(7) -0.309(3) 0.5833(12)
H3 H 0.1012(6) 0.255(2) 0.4385(10)
H4 H 0.0497(6) 0.112(2) 0.2863(10)
H7 H 0.0190(6) -0.459(2) 0.4282(11)
H10 H 0.1295(8) -0.049(3) 0.6551(14)
O1B O -0.11904(3) 0.07490(13) -0.10992(5)
C1B C -0.05218(4) 0.02577(16) 0.15401(7)
C2B C -0.08279(4) 0.11070(17) 0.06414(7)
C3B C -0.08902(4) -0.01368(17) -0.02390(7)
C4B C -0.06470(4) -0.22452(18) -0.02128(7)
C5B C -0.03557(4) -0.30980(17) 0.06846(7)
C6B C -0.02845(4) -0.18685(16) 0.15740(7)
H2B H -0.0673(7) -0.309(3) -0.0833(12)
H3B H -0.1012(6) 0.255(2) 0.0615(10)
H4B H -0.0497(6) 0.112(2) 0.2137(10)
H7B H -0.0190(6) -0.459(2) 0.0718(11)
H10B H -0.1295(8) -0.049(3) -0.1551(14)
loop_
_geom_bond_atom_site_label_1
_geom_bond_atom_site_label_2
_geom_bond_site_symmetry_1
_geom_bond_site_symmetry_2
N1 C8 1_555 1_555
O1 C3 1_555 1_555
O2 C7 1_555 1_555
C1 C2 1_555 1_555
C2 C3 1_555 1_555
C3 C4 1_555 1_555
C4 C5 1_555 1_555
C5 C6 1_555 1_555
C6 C1 1_555 1_555
C7 C6 1_555 1_555
C8 C9 1_555 1_555
C9 C10 1_555 1_555
C10 C11 1_555 1_555
C11 C12 1_555 1_555
C12 N1 1_555 1_555
C13 C10 1_555 1_555
H1 C13 1_555 1_555
H2 C4 1_555 1_555
H3 C2 1_555 1_555
H4 C1 1_555 1_555
H5 C9 1_555 1_555
H6 C12 1_555 1_555
H7 C5 1_555 1_555
H8 C8 1_555 1_555
H9 C11 1_555 1_555
H10 O1 1_555 1_555
N1E C8E 1_555 1_555
O1B C3B 1_555 1_555
C1B C2B 1_555 1_555
C2B C3B 1_555 1_555
C3B C4B 1_555 1_555
C4B C5B 1_555 1_555
C5B C6B 1_555 1_555
C6B C7 1_555 1_555
C8E C9E 1_555 1_555
C9E C10E 1_555 1_555
C10E C11E 1_555 1_555
C11E C12E 1_555 1_555
C12E N1E 1_555 1_555
C13E C13 1_555 1_555
H1E C13E 1_555 1_555
H2B C4B 1_555 1_555
H3B C2B 1_555 1_555
H4B C1B 1_555 1_555
H5E C9E 1_555 1_555
H6E C12E 1_555 1_555
H7B C5B 1_555 1_555
H8E C8E 1_555 1_555
H9E C11E 1_555 1_555
H10B O1B 1_555 1_555
C1B C6B 1_555 1_555
C10E C13E 1_555 1_555

#END
