
#######################################################################
#
#                 Cambridge Crystallographic Data Centre
#                                CCDC 
#
#######################################################################
#
# If this CIF has been generated from an entry in the Cambridge 
# Structural Database, then it will include bibliographic, chemical, 
# crystal, experimental, refinement or atomic coordinate data resulting 
# from the CCDC's data processing and validation procedures.
#
#######################################################################

data_BIVVEK
_chemical_formula_moiety         'C23 H17 N1 O2'
_chemical_name_systematic        N-benzyl-N-(3-phenylprop-2-ynoyl)benzamide
_symmetry_cell_setting           triclinic
_symmetry_space_group_name_H-M   'P -1'
_symmetry_Int_Tables_number      2
_space_group_name_Hall           '-P 1'
loop_
_symmetry_equiv_pos_site_id
_symmetry_equiv_pos_as_xyz
1 x,y,z
2 -x,-y,-z
_cell_length_a                   9.707(2)
_cell_length_b                   9.803(2)
_cell_length_c                   10.147(2)
_cell_angle_alpha                75.339(3)
_cell_angle_beta                 78.061(3)
_cell_angle_gamma                81.434(3)
_cell_volume                     909.149
_exptl_crystal_colour            'light yellow'
_exptl_crystal_description       block
_cell_formula_units_Z            2
loop_
_atom_site_label
_atom_site_type_symbol
_atom_site_fract_x
_atom_site_fract_y
_atom_site_fract_z
O1 O 0.35238(13) 0.57616(13) 0.35449(11)
O2 O 0.01108(10) 0.31028(11) 0.61508(11)
N1 N 0.20189(12) 0.41762(10) 0.48674(10)
C1 C 0.28207(14) 0.52950(13) 0.46583(13)
C2 C 0.27193(15) 0.59532(14) 0.58078(14)
C3 C 0.26755(15) 0.66038(14) 0.66682(14)
C4 C 0.25886(14) 0.72900(15) 0.77772(14)
C5 C 0.20492(17) 0.87007(16) 0.76556(17)
H1 H 0.176755 0.922492 0.683694
C6 C 0.1934(2) 0.9321(2) 0.8759(2)
H2 H 0.155460 1.025978 0.868873
C7 C 0.2375(3) 0.8559(3) 0.9960(2)
H3 H 0.230134 0.898836 1.069355
C8 C 0.2919(2) 0.7180(2) 1.00830(18)
H4 H 0.321532 0.667290 1.090042
C9 C 0.30352(19) 0.65246(19) 0.89959(17)
H5 H 0.340827 0.558215 0.908166
C10 C 0.12205(13) 0.35348(12) 0.61393(13)
C11 C 0.18310(13) 0.32742(12) 0.74164(12)
C12 C 0.09177(16) 0.33078(16) 0.86621(15)
H6 H -0.004187 0.358820 0.867027
C13 C 0.1435(2) 0.29260(19) 0.98818(15)
H7 H 0.082701 0.297095 1.071193
C14 C 0.2847(2) 0.24776(18) 0.98796(15)
H8 H 0.318747 0.219970 1.070968
C15 C 0.37563(17) 0.24398(17) 0.86526(15)
H9 H 0.471044 0.213631 0.865516
C16 C 0.32582(14) 0.28508(14) 0.74149(13)
H10 H 0.387863 0.284330 0.658434
C17 C 0.17548(17) 0.37825(14) 0.36335(14)
H11 H 0.223663 0.438541 0.280665
H12 H 0.074838 0.394584 0.361230
C18 C 0.22562(13) 0.22597(13) 0.36247(11)
C19 C 0.13126(14) 0.13315(15) 0.36415(14)
H13 H 0.035362 0.164203 0.369821
C20 C 0.17799(18) -0.00601(16) 0.35747(16)
H14 H 0.113537 -0.067763 0.358504
C21 C 0.31888(19) -0.05261(16) 0.34935(16)
H15 H 0.350366 -0.145771 0.344131
C22 C 0.41381(18) 0.03864(18) 0.34892(18)
H16 H 0.509460 0.006783 0.344390
C23 C 0.36767(15) 0.17700(16) 0.35518(15)
H17 H 0.432565 0.238157 0.354516
loop_
_geom_bond_atom_site_label_1
_geom_bond_atom_site_label_2
_geom_bond_site_symmetry_1
_geom_bond_site_symmetry_2
O1 C1 1_555 1_555
O2 C10 1_555 1_555
N1 C1 1_555 1_555
C1 C2 1_555 1_555
C2 C3 1_555 1_555
C3 C4 1_555 1_555
C4 C5 1_555 1_555
C5 H1 1_555 1_555
C6 C5 1_555 1_555
H2 C6 1_555 1_555
C7 C6 1_555 1_555
H3 C7 1_555 1_555
C8 C7 1_555 1_555
H4 C8 1_555 1_555
C9 C4 1_555 1_555
H5 C9 1_555 1_555
C10 N1 1_555 1_555
C11 C10 1_555 1_555
C12 C11 1_555 1_555
H6 C12 1_555 1_555
C13 C12 1_555 1_555
H7 C13 1_555 1_555
C14 C13 1_555 1_555
H8 C14 1_555 1_555
C15 C14 1_555 1_555
H9 C15 1_555 1_555
C16 C11 1_555 1_555
H10 C16 1_555 1_555
C17 N1 1_555 1_555
H11 C17 1_555 1_555
H12 C17 1_555 1_555
C18 C17 1_555 1_555
C19 C18 1_555 1_555
H13 C19 1_555 1_555
C20 C19 1_555 1_555
H14 C20 1_555 1_555
C21 C20 1_555 1_555
H15 C21 1_555 1_555
C22 C21 1_555 1_555
H16 C22 1_555 1_555
C23 C18 1_555 1_555
H17 C23 1_555 1_555
C8 C9 1_555 1_555
C15 C16 1_555 1_555
C22 C23 1_555 1_555

#END
