
#######################################################################
#
#                 Cambridge Crystallographic Data Centre
#                                CCDC 
#
#######################################################################
#
# If this CIF has been generated from an entry in the Cambridge 
# Structural Database, then it will include bibliographic, chemical, 
# crystal, experimental, refinement or atomic coordinate data resulting 
# from the CCDC's data processing and validation procedures.
#
#######################################################################

data_BIVWIN
_chemical_formula_moiety         'C22 H19 Cl2 N1 O5'
_chemical_name_systematic        
8-Acetoxy-5,7-dichloro-2-(2-(3,4,5-trimethoxyphenyl)vinyl)-quinoline
_symmetry_cell_setting           orthorhombic
_symmetry_space_group_name_H-M   'P 21 21 21'
_symmetry_Int_Tables_number      19
_space_group_name_Hall           'P 2ac 2ab'
loop_
_symmetry_equiv_pos_site_id
_symmetry_equiv_pos_as_xyz
1 x,y,z
2 1/2-x,-y,1/2+z
3 -x,1/2+y,1/2-z
4 1/2+x,1/2-y,-z
_cell_length_a                   5.3052(2)
_cell_length_b                   12.2153(5)
_cell_length_c                   31.6620(13)
_cell_angle_alpha                90
_cell_angle_beta                 90
_cell_angle_gamma                90
_cell_volume                     2051.84
_chemical_melting_point          178deg.C
_cell_formula_units_Z            4
_exptl_crystal_recrystallization_method 'hexane/ethyl acetate'
loop_
_atom_site_label
_atom_site_type_symbol
_atom_site_fract_x
_atom_site_fract_y
_atom_site_fract_z
Cl1 Cl 0.4062(3) -0.01600(11) 0.16638(4)
Cl2 Cl 1.1559(2) 0.26347(10) 0.13116(4)
O1 O 0.3921(5) -0.0529(2) 0.07379(9)
O2 O 0.6493(6) -0.1971(2) 0.06773(10)
O3 O 1.2497(6) -0.0026(3) -0.23528(9)
O4 O 0.9022(6) -0.1582(2) -0.24783(8)
O5 O 0.6078(6) -0.2275(3) -0.18584(8)
N1 N 0.7345(6) 0.0227(3) 0.01738(10)
C1 C 0.6031(9) 0.0422(4) 0.12958(13)
C2 C 0.7818(9) 0.1186(4) 0.14302(14)
H1 H 0.7911 0.1381 0.1714
C3 C 0.9430(8) 0.1648(3) 0.11444(14)
C4 C 0.9385(8) 0.1347(3) 0.07108(12)
C5 C 1.1068(9) 0.1728(3) 0.04029(13)
H2 H 1.2297 0.2238 0.0475
C6 C 1.0903(10) 0.1352(3) -0.00019(13)
H3 H 1.2039 0.1591 -0.0206
C7 C 0.8988(9) 0.0592(3) -0.01093(13)
C8 C 0.7557(8) 0.0575(3) 0.05821(13)
C9 C 0.5867(8) 0.0132(3) 0.08801(13)
C10 C 0.4539(9) -0.1550(4) 0.05908(13)
C11 C 0.2459(8) -0.1996(4) 0.03308(16)
H4 H 0.2918 -0.2707 0.0227
H5 H 0.2147 -0.1515 0.0097
H6 H 0.0963 -0.2054 0.0500
C12 C 0.8668(9) 0.0146(3) -0.05360(12)
H7 H 0.7254 -0.0290 -0.0579
C13 C 1.0141(9) 0.0289(4) -0.08659(13)
H8 H 1.1530 0.0744 -0.0830
C14 C 0.9802(8) -0.0204(4) -0.12875(13)
C15 C 1.1339(9) 0.0142(3) -0.16152(12)
H9 H 1.2539 0.0683 -0.1567
C16 C 1.1097(8) -0.0313(4) -0.20128(13)
C17 C 0.9316(8) -0.1130(3) -0.20818(12)
C18 C 0.7750(8) -0.1474(3) -0.17540(13)
C19 C 0.7998(8) -0.1003(3) -0.13605(13)
H10 H 0.6944 -0.1224 -0.1142
C20 C 1.4438(10) 0.0764(4) -0.23056(15)
H11 H 1.5252 0.0879 -0.2573
H12 H 1.5650 0.0506 -0.2104
H13 H 1.3725 0.1441 -0.2208
C21 C 1.0936(10) -0.2355(4) -0.25815(14)
H14 H 1.0641 -0.2638 -0.2860
H15 H 1.0904 -0.2945 -0.2381
H16 H 1.2553 -0.2003 -0.2573
C22 C 0.4477(9) -0.2670(4) -0.15275(13)
H17 H 0.3400 -0.3235 -0.1636
H18 H 0.3466 -0.2079 -0.1422
H19 H 0.5493 -0.2961 -0.1303
loop_
_geom_bond_atom_site_label_1
_geom_bond_atom_site_label_2
_geom_bond_site_symmetry_1
_geom_bond_site_symmetry_2
Cl1 C1 1_555 1_555
Cl2 C3 1_555 1_555
O1 C9 1_555 1_555
O2 C10 1_555 1_555
O3 C16 1_555 1_555
O4 C17 1_555 1_555
O5 C18 1_555 1_555
N1 C7 1_555 1_555
C1 C2 1_555 1_555
C2 H1 1_555 1_555
C3 C2 1_555 1_555
C4 C3 1_555 1_555
C5 C4 1_555 1_555
H2 C5 1_555 1_555
C6 C5 1_555 1_555
H3 C6 1_555 1_555
C7 C6 1_555 1_555
C8 N1 1_555 1_555
C9 C1 1_555 1_555
C10 O1 1_555 1_555
C11 C10 1_555 1_555
H4 C11 1_555 1_555
H5 C11 1_555 1_555
H6 C11 1_555 1_555
C12 C7 1_555 1_555
H7 C12 1_555 1_555
C13 C12 1_555 1_555
H8 C13 1_555 1_555
C14 C13 1_555 1_555
C15 C14 1_555 1_555
H9 C15 1_555 1_555
C16 C15 1_555 1_555
C17 C16 1_555 1_555
C18 C17 1_555 1_555
C19 C14 1_555 1_555
H10 C19 1_555 1_555
C20 O3 1_555 1_555
H11 C20 1_555 1_555
H12 C20 1_555 1_555
H13 C20 1_555 1_555
C21 O4 1_555 1_555
H14 C21 1_555 1_555
H15 C21 1_555 1_555
H16 C21 1_555 1_555
C22 O5 1_555 1_555
H17 C22 1_555 1_555
H18 C22 1_555 1_555
H19 C22 1_555 1_555
C4 C8 1_555 1_555
C8 C9 1_555 1_555
C18 C19 1_555 1_555

#END
