
#######################################################################
#
#                 Cambridge Crystallographic Data Centre
#                                CCDC 
#
#######################################################################
#
# If this CIF has been generated from an entry in the Cambridge 
# Structural Database, then it will include bibliographic, chemical, 
# crystal, experimental, refinement or atomic coordinate data resulting 
# from the CCDC's data processing and validation procedures.
#
#######################################################################

data_BIXLAW
_chemical_name_common            
11,12,13-Naphtha-2,10-dithia-5,7-dioxa(4.4.3)propellane
_chemical_formula_moiety         'C16 H14 O2 S2'
_chemical_name_systematic        
12,19-Dioxa-15,16-dithiapentacyclo(9.4.4.1^2,6^.0^1,11^.0^10,20^)icosa-2,4,6(20),7,9-pentaene
_symmetry_cell_setting           orthorhombic
_symmetry_space_group_name_H-M   'P b c a'
_symmetry_Int_Tables_number      61
_space_group_name_Hall           '-P 2ac 2ab'
loop_
_symmetry_equiv_pos_site_id
_symmetry_equiv_pos_as_xyz
1 x,y,z
2 1/2-x,-y,1/2+z
3 -x,1/2+y,1/2-z
4 1/2+x,1/2-y,-z
5 -x,-y,-z
6 1/2+x,y,1/2-z
7 x,1/2-y,1/2+z
8 1/2-x,1/2+y,z
_cell_length_a                   11.6663(17)
_cell_length_b                   13.898(2)
_cell_length_c                   16.719(2)
_cell_angle_alpha                90
_cell_angle_beta                 90
_cell_angle_gamma                90
_cell_volume                     2710.79
_exptl_crystal_colour            colorless
_exptl_crystal_description       prism
_cell_formula_units_Z            8
loop_
_atom_site_label
_atom_site_type_symbol
_atom_site_fract_x
_atom_site_fract_y
_atom_site_fract_z
C1 C 0.11224(17) 0.03610(15) 0.77166(12)
C2 C 0.1041(2) -0.05479(16) 0.80098(15)
H1 H 0.0981 -0.1073 0.7667
C3 C 0.1048(2) -0.06749(19) 0.88472(17)
H2 H 0.0993 -0.1296 0.9051
C4 C 0.1133(2) 0.0073(2) 0.93695(15)
H3 H 0.1160 -0.0045 0.9917
C5 C 0.11794(18) 0.10274(17) 0.90836(12)
C6 C 0.12126(19) 0.18882(19) 0.95299(14)
H4 H 0.1225 0.1862 1.0086
C7 C 0.1227(2) 0.27588(19) 0.91532(15)
H5 H 0.1260 0.3315 0.9462
C8 C 0.1194(2) 0.28483(17) 0.83150(14)
H6 H 0.1193 0.3450 0.8071
C9 C 0.11621(17) 0.20283(15) 0.78729(12)
C10 C 0.11631(17) 0.11349(15) 0.82517(12)
C11 C 0.13038(17) 0.07629(15) 0.68861(12)
C12 C 0.09436(17) 0.18540(14) 0.69905(12)
C13 C -0.08007(19) 0.05948(18) 0.61411(14)
H7 H -0.1242 0.0400 0.5677
H8 H -0.1164 0.0328 0.6613
C14 C -0.07798(19) 0.16615(17) 0.61971(14)
H9 H -0.0365 0.1922 0.5743
H10 H -0.1558 0.1906 0.6176
C15 C 0.3130(2) 0.1627(2) 0.60853(15)
H11 H 0.3951 0.1695 0.6012
H12 H 0.2786 0.1515 0.5565
C16 C 0.2655(2) 0.2530(2) 0.64367(16)
H13 H 0.2946 0.2611 0.6976
H14 H 0.2905 0.3077 0.6121
O1 O -0.02456(12) 0.19761(10) 0.69224(9)
O2 O 0.14367(14) 0.25053(11) 0.64551(9)
S1 S 0.06411(5) 0.01432(4) 0.60582(3)
S2 S 0.28452(5) 0.06194(5) 0.67283(4)
loop_
_geom_bond_atom_site_label_1
_geom_bond_atom_site_label_2
_geom_bond_site_symmetry_1
_geom_bond_site_symmetry_2
C1 C2 1_555 1_555
C2 H1 1_555 1_555
C3 C2 1_555 1_555
H2 C3 1_555 1_555
C4 C3 1_555 1_555
H3 C4 1_555 1_555
C5 C4 1_555 1_555
C6 C5 1_555 1_555
H4 C6 1_555 1_555
C7 C6 1_555 1_555
H5 C7 1_555 1_555
C8 C7 1_555 1_555
H6 C8 1_555 1_555
C9 C8 1_555 1_555
C10 C1 1_555 1_555
C11 C1 1_555 1_555
C12 C9 1_555 1_555
C13 H7 1_555 1_555
H8 C13 1_555 1_555
C14 C13 1_555 1_555
H9 C14 1_555 1_555
H10 C14 1_555 1_555
C15 H11 1_555 1_555
H12 C15 1_555 1_555
C16 C15 1_555 1_555
H13 C16 1_555 1_555
H14 C16 1_555 1_555
O1 C12 1_555 1_555
O2 C12 1_555 1_555
S1 C11 1_555 1_555
S2 C11 1_555 1_555
C5 C10 1_555 1_555
C9 C10 1_555 1_555
C11 C12 1_555 1_555
C13 S1 1_555 1_555
C14 O1 1_555 1_555
C15 S2 1_555 1_555
C16 O2 1_555 1_555

#END
