
#######################################################################
#
#                 Cambridge Crystallographic Data Centre
#                                CCDC 
#
#######################################################################
#
# If this CIF has been generated from an entry in the Cambridge 
# Structural Database, then it will include bibliographic, chemical, 
# crystal, experimental, refinement or atomic coordinate data resulting 
# from the CCDC's data processing and validation procedures.
#
#######################################################################

data_BIXMOK
_chemical_compound_source        'Escherichia coli'
_chemical_formula_moiety         'C5 H7 N1 O6,H2 O1'
_chemical_name_systematic        'D,L-\b-Carboxyaspartic acid monohydrate'
_symmetry_cell_setting           monoclinic
_symmetry_space_group_name_H-M   'C c'
_symmetry_Int_Tables_number      9
_space_group_name_Hall           'C -2yc'
loop_
_symmetry_equiv_pos_site_id
_symmetry_equiv_pos_as_xyz
1 x,y,z
2 1/2+x,1/2+y,z
3 x,-y,1/2+z
4 1/2+x,1/2-y,1/2+z
_cell_length_a                   13.112(3)
_cell_length_b                   8.207(3)
_cell_length_c                   7.292(2)
_cell_angle_alpha                90
_cell_angle_beta                 108.03(2)
_cell_angle_gamma                90
_cell_volume                     746.161
_cell_formula_units_Z            4
loop_
_atom_site_label
_atom_site_type_symbol
_atom_site_fract_x
_atom_site_fract_y
_atom_site_fract_z
O1 O 0.12700 -0.33170 0.66020
O2 O 0.26600 -0.16210 0.70290
O3 O -0.06790 -0.08570 0.12160
O4 O 0.07500 0.00120 0.35370
O5 O 0.15120 -0.32030 0.00600
O6 O -0.02000 -0.38450 -0.05760
N1 N 0.26180 -0.16960 0.33900
C1 C 0.19500 -0.25190 0.60550
C2 C 0.18740 -0.28230 0.39360
C3 C 0.07360 -0.27570 0.25450
C4 C 0.02690 -0.10490 0.24880
C5 C 0.06370 -0.33350 0.04980
H1 H 0.14200 -0.32000 -0.15300
H2 H 0.21300 -0.38700 0.40000
H3 H 0.03100 -0.34900 0.29200
H4 H -0.08200 0.00100 0.12400
H5 H 0.25700 -0.20500 0.21900
H6 H 0.33000 -0.16800 0.43700
H7 H 0.23100 -0.05400 0.33000
O7 O 0.38470 -0.27220 1.06910
H8 H 0.36100 -0.23800 0.95500
H9 H 0.44600 -0.21700 1.15700
loop_
_geom_bond_atom_site_label_1
_geom_bond_atom_site_label_2
_geom_bond_site_symmetry_1
_geom_bond_site_symmetry_2
O1 C1 1_555 1_555
O2 C1 1_555 1_555
O3 C4 1_555 1_555
O4 C4 1_555 1_555
O5 C5 1_555 1_555
O6 C5 1_555 1_555
N1 C2 1_555 1_555
C1 C2 1_555 1_555
C2 C3 1_555 1_555
C3 C4 1_555 1_555
C5 C3 1_555 1_555
H1 O5 1_555 1_555
H2 C2 1_555 1_555
H3 C3 1_555 1_555
H4 O3 1_555 1_555
H5 N1 1_555 1_555
H6 N1 1_555 1_555
H7 N1 1_555 1_555
O7 H8 1_555 1_555
H9 O7 1_555 1_555

#END
