
#######################################################################
#
#                 Cambridge Crystallographic Data Centre
#                                CCDC 
#
#######################################################################
#
# If this CIF has been generated from an entry in the Cambridge 
# Structural Database, then it will include bibliographic, chemical, 
# crystal, experimental, refinement or atomic coordinate data resulting 
# from the CCDC's data processing and validation procedures.
#
#######################################################################

data_BIXPOQ
_chemical_formula_moiety         'C13 H13 N1 O2'
_chemical_name_systematic        
1,2a-dimethyl-2a,5-dihydrobenzo[cd]indole-2,4(1H,3H)-dione
_symmetry_cell_setting           tetragonal
_symmetry_space_group_name_H-M   'P 43'
_symmetry_Int_Tables_number      78
_space_group_name_Hall           'P 4cw'
loop_
_symmetry_equiv_pos_site_id
_symmetry_equiv_pos_as_xyz
1 x,y,z
2 -y,x,3/4+z
3 y,-x,1/4+z
4 -x,-y,1/2+z
_cell_length_a                   9.2993(3)
_cell_length_b                   9.2993(3)
_cell_length_c                   12.7381(5)
_cell_angle_alpha                90
_cell_angle_beta                 90
_cell_angle_gamma                90
_cell_volume                     1101.55
_exptl_crystal_colour            yellow
_exptl_crystal_description       block
_cell_formula_units_Z            4
loop_
_atom_site_label
_atom_site_type_symbol
_atom_site_fract_x
_atom_site_fract_y
_atom_site_fract_z
O1 O 0.55902(18) 0.2006(2) 0.43064(16)
O2 O 0.88409(19) 0.69660(18) 0.45186(14)
N1 N 1.0773(2) 0.5433(2) 0.43078(15)
C1 C 0.8007(2) 0.1261(3) 0.45656(19)
H1 H 0.787996 0.089912 0.529063
H2 H 0.787136 0.043837 0.408230
C2 C 0.9521(2) 0.1810(2) 0.44484(18)
C3 C 0.9720(2) 0.3261(2) 0.45608(17)
C4 C 1.1004(2) 0.3937(3) 0.43120(17)
C5 C 1.1851(3) 0.6484(3) 0.4018(2)
H3 H 1.146413 0.745427 0.412088
H4 H 1.211132 0.635419 0.327817
H5 H 1.270589 0.635544 0.445714
C6 C 0.6843(2) 0.2380(3) 0.4343(2)
C7 C 0.7254(2) 0.3949(3) 0.41626(19)
H6 H 0.644176 0.457719 0.436740
H7 H 0.745114 0.410604 0.340754
C8 C 0.8588(2) 0.4349(3) 0.48056(18)
C9 C 1.0729(3) 0.0981(3) 0.41900(18)
H8 H 1.064405 -0.003295 0.412008
C10 C 1.2050(3) 0.1645(3) 0.4036(2)
H9 H 1.287129 0.106368 0.390876
C11 C 1.2214(2) 0.3139(3) 0.40631(19)
H10 H 1.311106 0.358427 0.391759
C12 C 0.9356(2) 0.5756(2) 0.45126(18)
C13 C 0.8230(3) 0.4442(3) 0.59837(18)
H11 H 0.781768 0.352650 0.621815
H12 H 0.753462 0.521648 0.610179
H13 H 0.911044 0.464029 0.638106
loop_
_geom_bond_atom_site_label_1
_geom_bond_atom_site_label_2
_geom_bond_site_symmetry_1
_geom_bond_site_symmetry_2
O1 C6 1_555 1_555
O2 C12 1_555 1_555
N1 C4 1_555 1_555
C1 H1 1_555 1_555
H2 C1 1_555 1_555
C2 C1 1_555 1_555
C3 C2 1_555 1_555
C4 C3 1_555 1_555
C5 N1 1_555 1_555
H3 C5 1_555 1_555
H4 C5 1_555 1_555
H5 C5 1_555 1_555
C6 C1 1_555 1_555
C7 C6 1_555 1_555
H6 C7 1_555 1_555
H7 C7 1_555 1_555
C8 C3 1_555 1_555
C9 C2 1_555 1_555
H8 C9 1_555 1_555
C10 C9 1_555 1_555
H9 C10 1_555 1_555
C11 C4 1_555 1_555
H10 C11 1_555 1_555
C12 N1 1_555 1_555
C13 C8 1_555 1_555
H11 C13 1_555 1_555
H12 C13 1_555 1_555
H13 C13 1_555 1_555
C7 C8 1_555 1_555
C8 C12 1_555 1_555
C10 C11 1_555 1_555

#END
