
#######################################################################
#
#                 Cambridge Crystallographic Data Centre
#                                CCDC 
#
#######################################################################
#
# If this CIF has been generated from an entry in the Cambridge 
# Structural Database, then it will include bibliographic, chemical, 
# crystal, experimental, refinement or atomic coordinate data resulting 
# from the CCDC's data processing and validation procedures.
#
#######################################################################

data_BIYBOC
_chemical_formula_moiety         'C25 H35 N4 1+,C1 F3 O3 S1 1-'
_chemical_name_systematic        
'4,5-bis(dimethylamino)-1,3-dimesityl-1H-imidazol-3-ium trifluoromethanesulfonate'
_symmetry_cell_setting           monoclinic
_symmetry_space_group_name_H-M   'P 21/c'
_symmetry_Int_Tables_number      14
_space_group_name_Hall           '-P 2ybc'
loop_
_symmetry_equiv_pos_site_id
_symmetry_equiv_pos_as_xyz
1 x,y,z
2 -x,1/2+y,1/2-z
3 -x,-y,-z
4 x,1/2-y,1/2+z
_cell_length_a                   11.679(2)
_cell_length_b                   16.176(2)
_cell_length_c                   30.263(6)
_cell_angle_alpha                90
_cell_angle_beta                 91.278(2)
_cell_angle_gamma                90
_cell_volume                     5715.85
_exptl_crystal_colour            colorless
_exptl_crystal_description       block
_cell_formula_units_Z            8
loop_
_atom_site_label
_atom_site_type_symbol
_atom_site_fract_x
_atom_site_fract_y
_atom_site_fract_z
C1 C 0.74722(15) 0.12331(10) 0.81001(6)
H1 H 0.6743 0.1275 0.8215
C2 C 0.91073(16) 0.07159(11) 0.78549(6)
C3 C 0.91631(15) 0.15587(11) 0.78255(6)
C4 C 0.9754(3) -0.0381(2) 0.73775(13)
H2 H 0.8956 -0.0484 0.7318
H3 H 1.0151 -0.0898 0.7412
H4 H 1.0069 -0.0078 0.7136
C5 C 1.0995(2) 0.0139(2) 0.79829(14)
H5 H 1.1518 0.0398 0.7785
H6 H 1.1261 -0.0408 0.8053
H7 H 1.0954 0.0459 0.8249
C6 C 1.0544(3) 0.1879(2) 0.72687(11)
H8 H 1.1162 0.1507 0.734
H9 H 1.0843 0.2366 0.7131
H10 H 1.001 0.1612 0.707
C7 C 1.07243(19) 0.24798(14) 0.80070(9)
H11 H 1.0273 0.2707 0.8239
H12 H 1.1168 0.2911 0.7876
H13 H 1.1228 0.2064 0.8127
C8 C 0.75508(15) -0.02754(10) 0.81125(6)
C9 C 0.67488(16) -0.05936(11) 0.78103(6)
C10 C 0.62781(16) -0.13603(11) 0.79044(7)
H14 H 0.5741 -0.1588 0.7708
C11 C 0.65877(16) -0.17931(11) 0.82829(7)
C12 C 0.73858(18) -0.14506(12) 0.85743(7)
H15 H 0.7595 -0.1741 0.8829
C13 C 0.78847(17) -0.06839(11) 0.84979(6)
C14 C 0.6388(2) -0.01222(13) 0.74020(7)
H16 H 0.5927 -0.0472 0.7213
H17 H 0.7055 0.0052 0.7247
H18 H 0.5951 0.0354 0.7485
C15 C 0.6045(2) -0.26164(13) 0.83787(9)
H19 H 0.5255 -0.2536 0.8448
H20 H 0.6439 -0.2871 0.8625
H21 H 0.6096 -0.2967 0.8124
C16 C 0.8714(3) -0.03190(16) 0.88309(9)
H22 H 0.8669 -0.0617 0.9104
H23 H 0.8526 0.0251 0.8879
H24 H 0.9478 -0.0358 0.8722
C17 C 0.77958(14) 0.27191(10) 0.80238(6)
C18 C 0.73670(15) 0.31257(11) 0.76523(6)
C19 C 0.70174(16) 0.39402(11) 0.77039(6)
H25 H 0.6718 0.4225 0.746
C20 C 0.71028(16) 0.43407(11) 0.81088(7)
C21 C 0.75379(16) 0.39105(11) 0.84683(6)
H26 H 0.7605 0.4177 0.874
C22 C 0.78808(15) 0.30881(11) 0.84369(6)
C23 C 0.7258(2) 0.26982(14) 0.72125(6)
H27 H 0.69 0.3064 0.7001
H28 H 0.6799 0.221 0.7242
H29 H 0.8005 0.2548 0.7113
C24 C 0.6718(2) 0.52271(13) 0.81532(9)
H30 H 0.5993 0.5243 0.8297
H31 H 0.6641 0.5472 0.7865
H32 H 0.7275 0.553 0.8326
C25 C 0.8275(2) 0.26141(13) 0.88411(7)
H33 H 0.7648 0.2297 0.8952
H34 H 0.854 0.2994 0.9064
H35 H 0.8888 0.2249 0.8765
N1 N 0.80283(12) 0.05333(9) 0.80251(5)
N2 N 0.81271(12) 0.18612(8) 0.79844(5)
N3 N 0.98835(15) 0.00929(11) 0.77761(7)
N4 N 0.99679(14) 0.21099(10) 0.76696(6)
C26 C 0.74344(15) 0.25197(10) 1.05766(5)
H36 H 0.8141 0.2513 1.0725
C27 C 0.58315(15) 0.21129(11) 1.02299(6)
C28 C 0.58324(15) 0.29608(11) 1.02422(6)
C29 C 0.5251(2) 0.11211(16) 0.96619(9)
H37 H 0.5058 0.1495 0.9425
H38 H 0.4782 0.0635 0.9637
H39 H 0.6043 0.0968 0.9645
C30 C 0.3883(2) 0.1612(2) 1.02069(11)
H40 H 0.3852 0.1868 1.0493
H41 H 0.3528 0.1078 1.0217
H42 H 0.3485 0.1951 0.9993
C31 C 0.4631(3) 0.34162(18) 0.96278(9)
H43 H 0.5189 0.3151 0.9448
H44 H 0.4407 0.3932 0.9495
H45 H 0.3972 0.3065 0.9651
C32 C 0.4349(2) 0.39788(16) 1.03672(9)
H46 H 0.3717 0.3619 1.0428
H47 H 0.4066 0.4479 1.0234
H48 H 0.4753 0.4108 1.0638
C33 C 0.72596(14) 0.10209(10) 1.05021(6)
C34 C 0.68504(15) 0.05624(11) 1.08548(6)
C35 C 0.72955(16) -0.02292(11) 1.09136(6)
H49 H 0.7049 -0.0547 1.1149
C36 C 0.80941(16) -0.05587(11) 1.06320(7)
C37 C 0.84611(16) -0.00813(11) 1.02801(6)
H50 H 0.8986 -0.0303 1.0086
C38 C 0.80635(15) 0.07187(10) 1.02110(6)
C39 C 0.5969(2) 0.08962(14) 1.11621(7)
H51 H 0.5245 0.0942 1.1007
H52 H 0.6204 0.1432 1.1267
H53 H 0.5894 0.0528 1.1409
C40 C 0.8560(2) -0.14176(13) 1.07043(9)
H54 H 0.9297 -0.1385 1.085
H55 H 0.8633 -0.169 1.0424
H56 H 0.8046 -0.1726 1.0885
C41 C 0.85113(18) 0.12402(12) 0.98402(6)
H57 H 0.7881 0.1498 0.9685
H58 H 0.8925 0.0897 0.964
H59 H 0.9013 0.1658 0.996
C42 C 0.72451(14) 0.40256(10) 1.05578(6)
C43 C 0.71377(15) 0.43358(11) 1.09831(6)
C44 C 0.76077(17) 0.51132(11) 1.10677(6)
H60 H 0.7534 0.5344 1.1347
C45 C 0.81808(16) 0.55522(11) 1.07488(6)
C46 C 0.82480(16) 0.52200(11) 1.03268(6)
H61 H 0.8614 0.5519 1.0109
C47 C 0.77834(15) 0.44547(10) 1.02222(5)
C48 C 0.6576(2) 0.38539(14) 1.13435(7)
H62 H 0.5952 0.3537 1.122
H63 H 0.6291 0.4229 1.1561
H64 H 0.7126 0.3488 1.148
C49 C 0.8750(2) 0.63629(13) 1.08567(9)
H65 H 0.9429 0.6265 1.1033
H66 H 0.8233 0.6705 1.1018
H67 H 0.8951 0.6637 1.0588
C50 C 0.78825(19) 0.40977(13) 0.97672(6)
H68 H 0.7147 0.411 0.9619
H69 H 0.8146 0.3537 0.9789
H70 H 0.8418 0.4418 0.9603
N5 N 0.68576(12) 0.18601(8) 1.04412(5)
N6 N 0.68445(12) 0.31922(8) 1.04675(5)
N7 N 0.50535(14) 0.15230(11) 1.00837(6)
N8 N 0.51234(15) 0.35681(10) 1.00661(6)
C51 C 0.4121(2) 0.25396(17) 0.83835(8)
O1 O 0.32161(15) 0.12678(13) 0.80308(8)
O2 O 0.50129(15) 0.11180(13) 0.84227(7)
O3 O 0.49742(15) 0.18144(12) 0.77183(6)
F1 F 0.34737(17) 0.30648(10) 0.81431(6)
F2 F 0.50863(16) 0.29204(15) 0.84800(7)
F3 F 0.35741(14) 0.24309(12) 0.87588(5)
S1 S 0.43462(4) 0.15770(4) 0.81005(2)
C52 C 1.0740(2) 0.36010(16) 1.09700(8)
O4 O 0.99565(15) 0.31580(11) 1.02104(6)
O5 O 1.00517(17) 0.21567(12) 1.07940(8)
O6 O 1.17926(16) 0.26223(17) 1.04671(7)
F4 F 0.97179(18) 0.37919(15) 1.11234(6)
F5 F 1.1195(3) 0.42785(12) 1.08101(7)
F6 F 1.13861(13) 0.33771(11) 1.13165(5)
S2 S 1.06332(4) 0.27954(4) 1.055995(19)
loop_
_geom_bond_atom_site_label_1
_geom_bond_atom_site_label_2
_geom_bond_site_symmetry_1
_geom_bond_site_symmetry_2
C1 H1 1_555 1_555
C2 C3 1_555 1_555
C3 N2 1_555 1_555
C4 H2 1_555 1_555
H3 C4 1_555 1_555
H4 C4 1_555 1_555
C5 H5 1_555 1_555
H6 C5 1_555 1_555
H7 C5 1_555 1_555
C6 H8 1_555 1_555
H9 C6 1_555 1_555
H10 C6 1_555 1_555
C7 H11 1_555 1_555
H12 C7 1_555 1_555
H13 C7 1_555 1_555
C8 C9 1_555 1_555
C9 C10 1_555 1_555
C10 H14 1_555 1_555
C11 C10 1_555 1_555
C12 C11 1_555 1_555
H15 C12 1_555 1_555
C13 C8 1_555 1_555
C14 C9 1_555 1_555
H16 C14 1_555 1_555
H17 C14 1_555 1_555
H18 C14 1_555 1_555
C15 C11 1_555 1_555
H19 C15 1_555 1_555
H20 C15 1_555 1_555
H21 C15 1_555 1_555
C16 C13 1_555 1_555
H22 C16 1_555 1_555
H23 C16 1_555 1_555
H24 C16 1_555 1_555
C17 C18 1_555 1_555
C18 C19 1_555 1_555
C19 H25 1_555 1_555
C20 C19 1_555 1_555
C21 C20 1_555 1_555
H26 C21 1_555 1_555
C22 C17 1_555 1_555
C23 C18 1_555 1_555
H27 C23 1_555 1_555
H28 C23 1_555 1_555
H29 C23 1_555 1_555
C24 C20 1_555 1_555
H30 C24 1_555 1_555
H31 C24 1_555 1_555
H32 C24 1_555 1_555
C25 C22 1_555 1_555
H33 C25 1_555 1_555
H34 C25 1_555 1_555
H35 C25 1_555 1_555
N1 C1 1_555 1_555
N2 C1 1_555 1_555
N3 C2 1_555 1_555
N4 C3 1_555 1_555
C26 H36 1_555 1_555
C27 C28 1_555 1_555
C28 N6 1_555 1_555
C29 H37 1_555 1_555
H38 C29 1_555 1_555
H39 C29 1_555 1_555
C30 H40 1_555 1_555
H41 C30 1_555 1_555
H42 C30 1_555 1_555
C31 H43 1_555 1_555
H44 C31 1_555 1_555
H45 C31 1_555 1_555
C32 H46 1_555 1_555
H47 C32 1_555 1_555
H48 C32 1_555 1_555
C33 C34 1_555 1_555
C34 C35 1_555 1_555
C35 H49 1_555 1_555
C36 C35 1_555 1_555
C37 C36 1_555 1_555
H50 C37 1_555 1_555
C38 C33 1_555 1_555
C39 C34 1_555 1_555
H51 C39 1_555 1_555
H52 C39 1_555 1_555
H53 C39 1_555 1_555
C40 C36 1_555 1_555
H54 C40 1_555 1_555
H55 C40 1_555 1_555
H56 C40 1_555 1_555
C41 C38 1_555 1_555
H57 C41 1_555 1_555
H58 C41 1_555 1_555
H59 C41 1_555 1_555
C42 C43 1_555 1_555
C43 C44 1_555 1_555
C44 H60 1_555 1_555
C45 C44 1_555 1_555
C46 C45 1_555 1_555
H61 C46 1_555 1_555
C47 C42 1_555 1_555
C48 C43 1_555 1_555
H62 C48 1_555 1_555
H63 C48 1_555 1_555
H64 C48 1_555 1_555
C49 C45 1_555 1_555
H65 C49 1_555 1_555
H66 C49 1_555 1_555
H67 C49 1_555 1_555
C50 C47 1_555 1_555
H68 C50 1_555 1_555
H69 C50 1_555 1_555
H70 C50 1_555 1_555
N5 C26 1_555 1_555
N6 C26 1_555 1_555
N7 C27 1_555 1_555
N8 C28 1_555 1_555
C51 F1 1_555 1_555
O1 S1 1_555 1_555
O2 S1 1_555 1_555
O3 S1 1_555 1_555
F2 C51 1_555 1_555
F3 C51 1_555 1_555
S1 C51 1_555 1_555
C52 F4 1_555 1_555
O4 S2 1_555 1_555
O5 S2 1_555 1_555
O6 S2 1_555 1_555
F5 C52 1_555 1_555
F6 C52 1_555 1_555
S2 C52 1_555 1_555
C2 N1 1_555 1_555
C4 N3 1_555 1_555
C5 N3 1_555 1_555
C6 N4 1_555 1_555
C7 N4 1_555 1_555
C8 N1 1_555 1_555
C12 C13 1_555 1_555
C17 N2 1_555 1_555
C21 C22 1_555 1_555
C27 N5 1_555 1_555
C29 N7 1_555 1_555
C30 N7 1_555 1_555
C31 N8 1_555 1_555
C32 N8 1_555 1_555
C33 N5 1_555 1_555
C37 C38 1_555 1_555
C42 N6 1_555 1_555
C46 C47 1_555 1_555

#END
