
#######################################################################
#
#                 Cambridge Crystallographic Data Centre
#                                CCDC 
#
#######################################################################
#
# If this CIF has been generated from an entry in the Cambridge 
# Structural Database, then it will include bibliographic, chemical, 
# crystal, experimental, refinement or atomic coordinate data resulting 
# from the CCDC's data processing and validation procedures.
#
#######################################################################

data_BIYCEU
_chemical_formula_moiety         'C19 H24 N2 O2'
_chemical_name_systematic        
6-t-butyl-5-methyl-1,2,3,5,6,12b-hexahydro-4H,8H-cyclopenta[c]imidazo[1,5-b]isoquinoline-4,8-dione
_symmetry_cell_setting           orthorhombic
_symmetry_space_group_name_H-M   'P 21 21 21'
_symmetry_Int_Tables_number      19
_space_group_name_Hall           'P 2ac 2ab'
loop_
_symmetry_equiv_pos_site_id
_symmetry_equiv_pos_as_xyz
1 x,y,z
2 1/2+x,1/2-y,-z
3 -x,1/2+y,1/2-z
4 1/2-x,-y,1/2+z
_cell_length_a                   6.6476(5)
_cell_length_b                   8.7006(6)
_cell_length_c                   28.1553(18)
_cell_angle_alpha                90
_cell_angle_beta                 90
_cell_angle_gamma                90
_cell_volume                     1628.45
_exptl_crystal_colour            white
_exptl_crystal_description       block
_cell_formula_units_Z            4
loop_
_atom_site_label
_atom_site_type_symbol
_atom_site_fract_x
_atom_site_fract_y
_atom_site_fract_z
C1 C 0.1182(2) 0.13756(19) 0.09223(5)
C2 C 0.3730(2) -0.06353(19) 0.10054(5)
H1 H 0.5180 -0.0412 0.0941
C3 C 0.0963(3) 0.01623(19) 0.05360(6)
C4 C 0.1767(3) 0.2890(2) 0.06570(6)
H2 H 0.2666 0.3531 0.0855
H3 H 0.2452 0.2658 0.0353
C5 C -0.0238(4) 0.3705(2) 0.05692(7)
H4 H -0.0559 0.3711 0.0226
H5 H -0.0171 0.4782 0.0682
C6 C -0.1850(3) 0.2812(2) 0.08459(7)
H6 H -0.2780 0.3525 0.1010
H7 H -0.2638 0.2145 0.0630
C7 C -0.0672(2) 0.1844(2) 0.12065(6)
H8 H -0.1462 0.0925 0.1310
C8 C 0.0050(3) 0.27841(18) 0.16346(6)
C9 C -0.1239(3) 0.3773(2) 0.18754(6)
H9 H -0.2610 0.3835 0.1782
C10 C -0.0557(3) 0.4675(2) 0.22519(6)
H10 H -0.1466 0.5343 0.2410
C11 C 0.1433(3) 0.4606(2) 0.23972(5)
H11 H 0.1900 0.5231 0.2651
C12 C 0.2733(3) 0.3606(2) 0.21655(5)
H12 H 0.4097 0.3540 0.2264
C13 C 0.2059(2) 0.26970(18) 0.17895(5)
C14 C 0.3514(2) 0.15514(19) 0.15869(5)
C15 C 0.3529(3) -0.21391(19) 0.13057(6)
C16 C 0.4845(3) -0.3408(2) 0.10860(7)
H13 H 0.4863 -0.4303 0.1297
H14 H 0.6219 -0.3023 0.1044
H15 H 0.4292 -0.3706 0.0777
C17 C 0.4298(3) -0.1909(2) 0.18136(6)
H16 H 0.3444 -0.1160 0.1978
H17 H 0.5685 -0.1530 0.1804
H18 H 0.4256 -0.2891 0.1984
C18 C 0.1330(3) -0.2631(2) 0.13247(7)
H19 H 0.1207 -0.3570 0.1514
H20 H 0.0842 -0.2826 0.1002
H21 H 0.0526 -0.1812 0.1470
C19 C 0.3127(3) -0.1757(2) 0.01702(6)
H22 H 0.2619 -0.2790 0.0240
H23 H 0.4592 -0.1795 0.0134
H24 H 0.2517 -0.1382 -0.0125
N1 N 0.2757(2) 0.07144(16) 0.12198(4)
N2 N 0.2615(2) -0.07274(16) 0.05575(4)
O1 O -0.0342(2) 0.01028(15) 0.02303(5)
O2 O 0.51894(18) 0.13520(14) 0.17551(5)
loop_
_geom_bond_atom_site_label_1
_geom_bond_atom_site_label_2
_geom_bond_site_symmetry_1
_geom_bond_site_symmetry_2
C1 C3 1_555 1_555
C2 H1 1_555 1_555
C3 N2 1_555 1_555
C4 C1 1_555 1_555
H2 C4 1_555 1_555
H3 C4 1_555 1_555
C5 C4 1_555 1_555
H4 C5 1_555 1_555
H5 C5 1_555 1_555
C6 C5 1_555 1_555
H6 C6 1_555 1_555
H7 C6 1_555 1_555
C7 C1 1_555 1_555
H8 C7 1_555 1_555
C8 C7 1_555 1_555
C9 C8 1_555 1_555
H9 C9 1_555 1_555
C10 C9 1_555 1_555
H10 C10 1_555 1_555
C11 C10 1_555 1_555
H11 C11 1_555 1_555
C12 C11 1_555 1_555
H12 C12 1_555 1_555
C13 C8 1_555 1_555
C14 C13 1_555 1_555
C15 C2 1_555 1_555
C16 C15 1_555 1_555
H13 C16 1_555 1_555
H14 C16 1_555 1_555
H15 C16 1_555 1_555
C17 C15 1_555 1_555
H16 C17 1_555 1_555
H17 C17 1_555 1_555
H18 C17 1_555 1_555
C18 C15 1_555 1_555
H19 C18 1_555 1_555
H20 C18 1_555 1_555
H21 C18 1_555 1_555
C19 H22 1_555 1_555
H23 C19 1_555 1_555
H24 C19 1_555 1_555
N1 C1 1_555 1_555
N2 C2 1_555 1_555
O1 C3 1_555 1_555
O2 C14 1_555 1_555
C2 N1 1_555 1_555
C6 C7 1_555 1_555
C12 C13 1_555 1_555
C14 N1 1_555 1_555
C19 N2 1_555 1_555

#END
