
#######################################################################
#
#                 Cambridge Crystallographic Data Centre
#                                CCDC 
#
#######################################################################
#
# If this CIF has been generated from an entry in the Cambridge 
# Structural Database, then it will include bibliographic, chemical, 
# crystal, experimental, refinement or atomic coordinate data resulting 
# from the CCDC's data processing and validation procedures.
#
#######################################################################

data_BIYSEJ
_chemical_formula_moiety         'C20 H14 N2 O8,2(C2 H6 O1 S1)'
_chemical_name_systematic        
"2,2'-(1,3,6,8-tetraoxo-1,3,6,8-tetrahydrobenzo[lmn][3,8]phenanthroline-2,7-diyl)dipropanoic acid dimethyl sulfoxide solvate"
_symmetry_cell_setting           monoclinic
_symmetry_space_group_name_H-M   'C 2'
_symmetry_Int_Tables_number      5
_space_group_name_Hall           'C 2y'
loop_
_symmetry_equiv_pos_site_id
_symmetry_equiv_pos_as_xyz
1 x,y,z
2 -x,y,-z
3 1/2+x,1/2+y,z
4 1/2-x,1/2+y,-z
_cell_length_a                   24.302(2)
_cell_length_b                   7.0441(6)
_cell_length_c                   14.8026(11)
_cell_angle_alpha                90
_cell_angle_beta                 90.782(5)
_cell_angle_gamma                90
_cell_volume                     2533.76
_exptl_crystal_colour            yellow
_exptl_crystal_description       needle
_cell_formula_units_Z            4
loop_
_atom_site_label
_atom_site_type_symbol
_atom_site_fract_x
_atom_site_fract_y
_atom_site_fract_z
S1 S 0.09360(5) 0.1953(2) 0.47479(7)
O1 O 0.06187(13) 0.2092(5) 0.56258(18)
C1 C 0.0644(3) -0.0058(8) 0.4193(3)
H1 H 0.0757 -0.1217 0.4511
H2 H 0.0772 -0.0107 0.3568
H3 H 0.0242 0.0043 0.4193
C2 C 0.0666(2) 0.3767(8) 0.4037(3)
H4 H 0.0794 0.5006 0.4255
H5 H 0.0263 0.3727 0.4045
H6 H 0.0792 0.3568 0.3418
N1 N 0.09002(12) 0.7088(6) 0.81482(19)
C3 C 0.07541(15) 0.7067(7) 0.9790(2)
C4 C 0.11386(15) 0.7094(7) 0.9016(2)
C5 C 0.01812(15) 0.7079(7) 0.9628(2)
C6 C -0.00406(15) 0.7089(7) 0.8739(2)
O2 O 0.16345(11) 0.7183(5) 0.91278(17)
C7 C 0.09623(15) 0.7034(7) 1.0662(2)
H7 H 0.1349 0.6985 1.0762
C8 C -0.06058(15) 0.7071(7) 0.8594(2)
H8 H -0.0752 0.7083 0.7996
O3 O 0.01691(11) 0.7357(5) 0.71811(17)
C9 C 0.03346(15) 0.7192(7) 0.7954(2)
O4 O 0.09386(13) 0.4243(5) 0.6892(2)
H9 H 0.082(2) 0.354(8) 0.640(3)
C10 C 0.12832(16) 0.7227(7) 0.7377(2)
H10 H 0.1650 0.6777 0.7605
O5 O 0.11953(13) 0.6306(5) 0.58272(19)
C11 C 0.11160(18) 0.5900(7) 0.6610(3)
C12 C 0.1361(2) 0.9250(7) 0.7075(3)
H11 H 0.1469 1.0034 0.7596
H12 H 0.1016 0.9732 0.6814
H13 H 0.1650 0.9302 0.6620
N1A N -0.09002(12) 0.7088(6) 1.18518(19)
C3A C -0.07541(15) 0.7067(7) 1.0210(2)
C4A C -0.11386(15) 0.7094(7) 1.0984(2)
C5A C -0.01812(15) 0.7079(7) 1.0372(2)
C6A C 0.00406(15) 0.7089(7) 1.1261(2)
O2A O -0.16345(11) 0.7183(5) 1.08722(17)
C7A C -0.09623(15) 0.7034(7) 0.9338(2)
H7A H -0.1349 0.6985 0.9238
C8A C 0.06058(15) 0.7071(7) 1.1406(2)
H8A H 0.0752 0.7083 1.2004
O3A O -0.01691(11) 0.7357(5) 1.28189(17)
C9A C -0.03346(15) 0.7192(7) 1.2046(2)
O4A O -0.09386(13) 0.4243(5) 1.3108(2)
H9A H -0.082(2) 0.354(8) 1.360(3)
C10A C -0.12832(16) 0.7227(7) 1.2623(2)
H10A H -0.1650 0.6777 1.2395
O5A O -0.11953(13) 0.6306(5) 1.41728(19)
C11A C -0.11160(18) 0.5900(7) 1.3390(3)
C12A C -0.1361(2) 0.9250(7) 1.2925(3)
H11A H -0.1469 1.0034 1.2404
H12A H -0.1016 0.9732 1.3186
H13A H -0.1650 0.9302 1.3380
N2 N 0.36121(12) 0.7049(6) 0.9248(2)
C13 C 0.47227(14) 0.7032(7) 0.9849(2)
C14 C 0.46018(15) 0.6974(7) 0.8913(2)
C15 C 0.42977(15) 0.7079(7) 1.0490(2)
C16 C 0.37119(16) 0.7144(7) 1.0185(2)
O6 O 0.33367(11) 0.7247(5) 1.07124(18)
C17 C 0.40191(15) 0.6838(7) 0.8601(3)
C18 C 0.44265(15) 0.7090(7) 1.1393(2)
H14 H 0.4139 0.7152 1.1821
O7 O 0.38931(12) 0.6551(5) 0.78151(18)
C19 C 0.30298(15) 0.6993(8) 0.8932(3)
H15 H 0.2804 0.7577 0.9420
O8 O 0.26603(12) 0.7715(5) 0.74529(19)
C20 C 0.50236(15) 0.7011(7) 0.8299(2)
H16 H 0.4943 0.6983 0.7670
O9 O 0.31935(14) 0.9865(5) 0.8156(2)
H17 H 0.322(3) 1.065(12) 0.762(5)
C21 C 0.28323(18) 0.4948(7) 0.8822(3)
H18 H 0.2892 0.4258 0.9389
H19 H 0.3039 0.4331 0.8339
H20 H 0.2439 0.4942 0.8665
C22 C 0.29537(18) 0.8223(7) 0.8097(3)
N2A N 0.63879(12) 0.7049(6) 1.0752(2)
C13A C 0.52773(14) 0.7032(7) 1.0151(2)
C14A C 0.53982(15) 0.6974(7) 1.1087(2)
C15A C 0.57023(15) 0.7079(7) 0.9510(2)
C16A C 0.62881(16) 0.7144(7) 0.9815(2)
O6A O 0.66633(11) 0.7247(5) 0.92876(18)
C17A C 0.59809(15) 0.6838(7) 1.1399(3)
C18A C 0.55735(15) 0.7090(7) 0.8607(2)
H14A H 0.5861 0.7152 0.8179
O7A O 0.61069(12) 0.6551(5) 1.21849(18)
C19A C 0.69702(15) 0.6993(8) 1.1068(3)
H15A H 0.7196 0.7577 1.0580
O8A O 0.73397(12) 0.7715(5) 1.25471(19)
C20A C 0.49764(15) 0.7011(7) 1.1701(2)
H16A H 0.5057 0.6983 1.2330
O9A O 0.68065(14) 0.9865(5) 1.1844(2)
H17A H 0.678(3) 1.065(12) 1.238(5)
C21A C 0.71677(18) 0.4948(7) 1.1178(3)
H18A H 0.7108 0.4258 1.0611
H19A H 0.6961 0.4331 1.1661
H20A H 0.7561 0.4942 1.1335
C22A C 0.70463(18) 0.8223(7) 1.1903(3)
S2 S 0.29669(8) 1.2775(2) 0.60956(12)
O10 O 0.33415(16) 1.2082(7) 0.6855(3)
C23 C 0.2303(5) 1.3097(14) 0.6692(7)
H21 H 0.2326 1.4225 0.7079
H22 H 0.2230 1.1977 0.7064
H23 H 0.2005 1.3259 0.6247
C24 C 0.2741(3) 1.0682(15) 0.5514(5)
H24 H 0.3035 1.0220 0.5126
H25 H 0.2415 1.0980 0.5143
H26 H 0.2648 0.9700 0.5956
S3? S 0.2621(2) 1.1757(10) 0.5795(4)
O11? O 0.2613(5) 0.968(2) 0.5946(9)
C25? C 0.3271(12) 1.256(4) 0.622(2)
H27? H 0.3563 1.1756 0.5972
H28? H 0.3277 1.2479 0.6877
H29? H 0.3329 1.3876 0.6030
C26? C 0.2353(17) 1.382(5) 0.645(2)
H30? H 0.1953 1.3893 0.6369
H31? H 0.2521 1.4991 0.6224
H32? H 0.2446 1.3656 0.7088
loop_
_geom_bond_atom_site_label_1
_geom_bond_atom_site_label_2
_geom_bond_site_symmetry_1
_geom_bond_site_symmetry_2
S1 O1 1_555 1_555
C1 S1 1_555 1_555
H1 C1 1_555 1_555
H2 C1 1_555 1_555
H3 C1 1_555 1_555
C2 S1 1_555 1_555
H4 C2 1_555 1_555
H5 C2 1_555 1_555
H6 C2 1_555 1_555
N1 C4 1_555 1_555
C3 C4 1_555 1_555
C4 O2 1_555 1_555
C5 C3 1_555 1_555
C6 C5 1_555 1_555
C7 C3 1_555 1_555
H7 C7 1_555 1_555
C8 C6 1_555 1_555
H8 C8 1_555 1_555
O3 C9 1_555 1_555
C9 N1 1_555 1_555
O4 H9 1_555 1_555
C10 N1 1_555 1_555
H10 C10 1_555 1_555
O5 C11 1_555 1_555
C11 O4 1_555 1_555
C12 C10 1_555 1_555
H11 C12 1_555 1_555
H12 C12 1_555 1_555
H13 C12 1_555 1_555
N2 C16 1_555 1_555
C13 C14 1_555 1_555
C14 C17 1_555 1_555
C15 C13 1_555 1_555
C16 C15 1_555 1_555
O6 C16 1_555 1_555
C17 N2 1_555 1_555
C18 C15 1_555 1_555
H14 C18 1_555 1_555
O7 C17 1_555 1_555
C19 N2 1_555 1_555
H15 C19 1_555 1_555
O8 C22 1_555 1_555
C20 C14 1_555 1_555
H16 C20 1_555 1_555
O9 H17 1_555 1_555
C21 C19 1_555 1_555
H18 C21 1_555 1_555
H19 C21 1_555 1_555
H20 C21 1_555 1_555
C22 C19 1_555 1_555
S2 O10 1_555 1_555
C23 S2 1_555 1_555
H21 C23 1_555 1_555
H22 C23 1_555 1_555
H23 C23 1_555 1_555
C24 S2 1_555 1_555
H24 C24 1_555 1_555
H25 C24 1_555 1_555
H26 C24 1_555 1_555
N1A C4A 1_555 1_555
C3A C4A 1_555 1_555
C4A O2A 1_555 1_555
C5A C5 1_555 1_555
C6A C5A 1_555 1_555
C7A C8 1_555 1_555
H7A C7A 1_555 1_555
C8A C7 1_555 1_555
H8A C8A 1_555 1_555
O3A C9A 1_555 1_555
C9A N1A 1_555 1_555
O4A H9A 1_555 1_555
C10A N1A 1_555 1_555
H10A C10A 1_555 1_555
O5A C11A 1_555 1_555
C11A O4A 1_555 1_555
C12A C10A 1_555 1_555
H11A C12A 1_555 1_555
H12A C12A 1_555 1_555
H13A C12A 1_555 1_555
N2A C16A 1_555 1_555
C13A C13 1_555 1_555
C14A C13A 1_555 1_555
C15A C13A 1_555 1_555
C16A C15A 1_555 1_555
O6A C16A 1_555 1_555
C17A N2A 1_555 1_555
C18A C20 1_555 1_555
H14A C18A 1_555 1_555
O7A C17A 1_555 1_555
C19A N2A 1_555 1_555
H15A C19A 1_555 1_555
O8A C22A 1_555 1_555
C20A C18 1_555 1_555
H16A C20A 1_555 1_555
O9A H17A 1_555 1_555
C21A C19A 1_555 1_555
H18A C21A 1_555 1_555
H19A C21A 1_555 1_555
H20A C21A 1_555 1_555
C22A C19A 1_555 1_555
C6 C9 1_555 1_555
C10 C11 1_555 1_555
O9 C22 1_555 1_555
C3A C5A 1_555 1_555
C3A C7A 1_555 1_555
C6A C8A 1_555 1_555
C6A C9A 1_555 1_555
C10A C11A 1_555 1_555
C14A C17A 1_555 1_555
C14A C20A 1_555 1_555
C15A C18A 1_555 1_555
O9A C22A 1_555 1_555

#END
