
#######################################################################
#
#                 Cambridge Crystallographic Data Centre
#                                CCDC 
#
#######################################################################
#
# If this CIF has been generated from an entry in the Cambridge 
# Structural Database, then it will include bibliographic, chemical, 
# crystal, experimental, refinement or atomic coordinate data resulting 
# from the CCDC's data processing and validation procedures.
#
#######################################################################

data_BOANDR
_chemical_name_common            
9-bromo-17-hydroxy-17-methylandrost-4-ene-3,11-dione
_chemical_formula_moiety         'C20 H27 Br1 O3'
_chemical_name_systematic        
9\a-Bromo-17\b-hydroxy-17\a-methylandrost-4-ene-3,11-dione
_symmetry_cell_setting           monoclinic
_symmetry_space_group_name_H-M   'P 21'
_symmetry_Int_Tables_number      4
_space_group_name_Hall           'P 2yb'
loop_
_symmetry_equiv_pos_site_id
_symmetry_equiv_pos_as_xyz
1 x,y,z
2 -x,1/2+y,-z
_cell_length_a                   7.042(1)
_cell_length_b                   20.429(2)
_cell_length_c                   6.481(1)
_cell_angle_alpha                90
_cell_angle_beta                 104.30(1)
_cell_angle_gamma                90
_cell_volume                     903.475
_cell_formula_units_Z            2
loop_
_atom_site_label
_atom_site_type_symbol
_atom_site_fract_x
_atom_site_fract_y
_atom_site_fract_z
Br1 Br 0.24011 0.00010 0.04650
C1 C -0.16523 -0.07067 0.08704
C2 C -0.00290 -0.06181 0.29569
C3 C -0.01574 0.06630 0.23950
C4 C 0.09262 0.13151 0.24150
C5 C 0.24165 0.13923 0.45656
C6 C 0.38043 0.07932 0.49370
C7 C 0.54331 0.09907 0.69229
C8 C 0.55879 0.17463 0.66923
C9 C 0.39545 0.19563 0.47298
C10 C 0.13301 0.14734 0.63219
C11 C -0.09767 -0.06274 0.48619
C12 C -0.21277 -0.14228 0.02615
C13 C 0.47558 0.20342 0.27480
C14 C -0.02762 -0.17615 0.01202
C15 C 0.13891 -0.16699 0.19078
C16 C 0.15033 -0.11583 0.32677
C17 C 0.32072 -0.10994 0.51841
C18 C 0.41881 -0.04318 0.53775
C19 C 0.27715 0.01443 0.49887
C20 C 0.11135 0.00472 0.29355
H1 H -0.12970 -0.04580 -0.03920
H2 H -0.29030 -0.04020 0.11190
H3 H 0.00700 0.16280 0.21540
H4 H 0.14470 0.13120 0.11990
H5 H 0.44950 0.07520 0.35580
H6 H 0.65610 0.08600 0.63700
H7 H 0.48870 0.09030 0.84590
H8 H 0.68350 0.19060 0.65120
H9 H 0.53390 0.20100 0.81110
H10 H 0.25760 0.26760 0.40590
H11 H 0.03210 0.10970 0.63240
H12 H 0.08100 0.16870 0.60900
H13 H 0.23230 0.15260 0.77560
H14 H -0.16710 -0.02230 0.48610
H15 H 0.02000 -0.06410 0.64190
H16 H -0.17690 -0.10140 0.45850
H17 H -0.31900 -0.14500 -0.11910
H18 H -0.25730 -0.16360 0.13390
H19 H 0.58410 0.23640 0.30890
H20 H 0.36850 0.21450 0.15480
H21 H 0.52090 0.16670 0.22870
H22 H 0.25930 -0.19800 0.21690
H23 H 0.43060 -0.15150 0.49910
H24 H 0.27900 -0.11840 0.64410
H25 H 0.49130 -0.03760 0.44160
H26 H 0.50580 -0.03300 0.69210
H27 H 0.20080 0.01790 0.60940
O1 O -0.19314 0.06382 0.21420
O2 O 0.32156 0.25843 0.52012
O3 O -0.01898 -0.21232 -0.13890
loop_
_geom_bond_atom_site_label_1
_geom_bond_atom_site_label_2
_geom_bond_site_symmetry_1
_geom_bond_site_symmetry_2
Br1 C20 1_555 1_555
C1 C2 1_555 1_555
C2 C11 1_555 1_555
C3 C4 1_555 1_555
C4 C5 1_555 1_555
C5 C6 1_555 1_555
C6 C7 1_555 1_555
C7 C8 1_555 1_555
C8 C9 1_555 1_555
C9 C5 1_555 1_555
C10 C5 1_555 1_555
C11 H14 1_555 1_555
C12 C1 1_555 1_555
C13 C9 1_555 1_555
C14 C12 1_555 1_555
C15 C14 1_555 1_555
C16 C2 1_555 1_555
C17 C16 1_555 1_555
C18 C17 1_555 1_555
C19 C6 1_555 1_555
C20 C2 1_555 1_555
H1 C1 1_555 1_555
H2 C1 1_555 1_555
H3 C4 1_555 1_555
H4 C4 1_555 1_555
H5 C6 1_555 1_555
H6 C7 1_555 1_555
H7 C7 1_555 1_555
H8 C8 1_555 1_555
H9 C8 1_555 1_555
H10 O2 1_555 1_555
H11 C10 1_555 1_555
H12 C10 1_555 1_555
H13 C10 1_555 1_555
H15 C11 1_555 1_555
H16 C11 1_555 1_555
H17 C12 1_555 1_555
H18 C12 1_555 1_555
H19 C13 1_555 1_555
H20 C13 1_555 1_555
H21 C13 1_555 1_555
H22 C15 1_555 1_555
H23 C17 1_555 1_555
H24 C17 1_555 1_555
H25 C18 1_555 1_555
H26 C18 1_555 1_555
H27 C19 1_555 1_555
O1 C3 1_555 1_555
O2 C9 1_555 1_555
O3 C14 1_555 1_555
C3 C20 1_555 1_555
C15 C16 1_555 1_555
C18 C19 1_555 1_555
C19 C20 1_555 1_555

#END
