
#######################################################################
#
#                 Cambridge Crystallographic Data Centre
#                                CCDC 
#
#######################################################################
#
# If this CIF has been generated from an entry in the Cambridge 
# Structural Database, then it will include bibliographic, chemical, 
# crystal, experimental, refinement or atomic coordinate data resulting 
# from the CCDC's data processing and validation procedures.
#
#######################################################################

data_BOBQEP
_chemical_formula_moiety         'C20 H18 O3'
_chemical_name_systematic        
'Methyl 4,6-diphenyl-7-oxabicyclo(4.1.0)hept-2-ene-3-carboxylate'
_symmetry_cell_setting           monoclinic
_symmetry_space_group_name_H-M   'P 21/c'
_symmetry_Int_Tables_number      14
_space_group_name_Hall           '-P 2ybc'
loop_
_symmetry_equiv_pos_site_id
_symmetry_equiv_pos_as_xyz
1 x,y,z
2 -x,1/2+y,1/2-z
3 -x,-y,-z
4 x,1/2-y,1/2+z
_cell_length_a                   17.481(17)
_cell_length_b                   10.909(10)
_cell_length_c                   8.872(8)
_cell_angle_alpha                90
_cell_angle_beta                 92.071(18)
_cell_angle_gamma                90
_cell_volume                     1690.79
_exptl_crystal_colour            colorless
_chemical_melting_point          '86-88 deg.C'
_cell_formula_units_Z            4
loop_
_atom_site_label
_atom_site_type_symbol
_atom_site_fract_x
_atom_site_fract_y
_atom_site_fract_z
O1 O 0.3697(2) 0.2491(3) 0.1084(4)
O2 O 0.1224(3) 0.4902(4) -0.0217(5)
O3 O 0.1132(2) 0.3587(4) 0.1724(5)
C1 C 0.3996(3) 0.3692(4) 0.1569(5)
C2 C 0.3611(3) 0.3545(4) 0.0048(5)
H1 H 0.3924 0.3572 -0.0845
C3 C 0.2786(3) 0.3950(4) -0.0104(6)
H2 H 0.2573 0.4079 -0.1067
C4 C 0.2356(3) 0.4130(4) 0.1049(6)
C5 C 0.2670(3) 0.4039(4) 0.2650(5)
H3 H 0.2598 0.3192 0.2984
C6 C 0.3523(3) 0.4308(5) 0.2756(6)
H4 H 0.3719 0.4055 0.3744
H5 H 0.3594 0.5188 0.2683
C7 C 0.4842(3) 0.3731(4) 0.1720(5)
C8 C 0.5285(3) 0.2971(5) 0.0858(6)
H6 H 0.5043 0.2455 0.0156
C9 C 0.6080(4) 0.2952(5) 0.1007(7)
H7 H 0.6363 0.2425 0.0420
C10 C 0.6446(4) 0.3726(5) 0.2037(7)
H8 H 0.6977 0.3729 0.2153
C11 C 0.6001(3) 0.4504(5) 0.2902(6)
H9 H 0.6240 0.5020 0.3608
C12 C 0.5218(3) 0.4521(5) 0.2728(6)
H10 H 0.4936 0.5068 0.3290
C13 C 0.1502(3) 0.4274(5) 0.0782(7)
C14 C 0.0306(4) 0.3626(11) 0.1580(10)
H11 H 0.0143 0.4442 0.1322
H12 H 0.0092 0.3392 0.2519
H13 H 0.0132 0.3069 0.0802
C15 C 0.2229(3) 0.4890(5) 0.3739(6)
C16 C 0.2136(4) 0.6125(5) 0.3393(7)
H14 H 0.2340 0.6418 0.2508
C17 C 0.1765(4) 0.6927(6) 0.4280(8)
H15 H 0.1718 0.7750 0.4018
C18 C 0.1459(4) 0.6476(7) 0.5594(9)
H16 H 0.1189 0.6996 0.6215
C19 C 0.1554(5) 0.5247(8) 0.5980(8)
H17 H 0.1354 0.4948 0.6864
C20 C 0.1955(4) 0.4453(6) 0.5028(7)
H18 H 0.2029 0.3636 0.5292
loop_
_geom_bond_atom_site_label_1
_geom_bond_atom_site_label_2
_geom_bond_site_symmetry_1
_geom_bond_site_symmetry_2
O1 C1 1_555 1_555
O2 C13 1_555 1_555
O3 C13 1_555 1_555
C1 C2 1_555 1_555
C2 O1 1_555 1_555
H1 C2 1_555 1_555
C3 C2 1_555 1_555
H2 C3 1_555 1_555
C4 C3 1_555 1_555
C5 C4 1_555 1_555
H3 C5 1_555 1_555
C6 C1 1_555 1_555
H4 C6 1_555 1_555
H5 C6 1_555 1_555
C7 C1 1_555 1_555
C8 C7 1_555 1_555
H6 C8 1_555 1_555
C9 C8 1_555 1_555
H7 C9 1_555 1_555
C10 C9 1_555 1_555
H8 C10 1_555 1_555
C11 C10 1_555 1_555
H9 C11 1_555 1_555
C12 C7 1_555 1_555
H10 C12 1_555 1_555
C13 C4 1_555 1_555
C14 O3 1_555 1_555
H11 C14 1_555 1_555
H12 C14 1_555 1_555
H13 C14 1_555 1_555
C15 C5 1_555 1_555
C16 C15 1_555 1_555
H14 C16 1_555 1_555
C17 C16 1_555 1_555
H15 C17 1_555 1_555
C18 C17 1_555 1_555
H16 C18 1_555 1_555
C19 C18 1_555 1_555
H17 C19 1_555 1_555
C20 C15 1_555 1_555
H18 C20 1_555 1_555
C5 C6 1_555 1_555
C11 C12 1_555 1_555
C19 C20 1_555 1_555

#END
