
#######################################################################
#
#                 Cambridge Crystallographic Data Centre
#                                CCDC 
#
#######################################################################
#
# If this CIF has been generated from an entry in the Cambridge 
# Structural Database, then it will include bibliographic, chemical, 
# crystal, experimental, refinement or atomic coordinate data resulting 
# from the CCDC's data processing and validation procedures.
#
#######################################################################

data_BOBTOD
_chemical_formula_moiety         'C16 H40 B10 Si2'
_chemical_name_systematic        
1,2-(1,1-bis(trimethylsilyl)oct-1-ene-2,4-diyl)-1,2-dicarba-dodecaborane
_symmetry_cell_setting           orthorhombic
_symmetry_space_group_name_H-M   'P 21 21 21'
_symmetry_Int_Tables_number      19
_space_group_name_Hall           'P 2ac 2ab'
loop_
_symmetry_equiv_pos_site_id
_symmetry_equiv_pos_as_xyz
1 x,y,z
2 1/2-x,-y,1/2+z
3 -x,1/2+y,1/2-z
4 1/2+x,1/2-y,-z
_cell_length_a                   40.858(2)
_cell_length_b                   6.6959(3)
_cell_length_c                   9.2019(5)
_cell_angle_alpha                90
_cell_angle_beta                 90
_cell_angle_gamma                90
_cell_volume                     2517.47
_exptl_crystal_colour            colorless
_exptl_crystal_description       block
_cell_formula_units_Z            4
loop_
_atom_site_label
_atom_site_type_symbol
_atom_site_fract_x
_atom_site_fract_y
_atom_site_fract_z
Si1 Si 0.07207(3) 0.20804(17) 0.27730(11)
Si2 Si 0.05474(3) 0.2715(2) 0.61049(13)
B1 B 0.14340(10) -0.2199(7) 0.6568(5)
H1 H 0.1304 -0.3467 0.6072
B2 B 0.18611(11) -0.2262(7) 0.6870(6)
H2 H 0.2009 -0.3577 0.6584
B3 B 0.20152(11) 0.0195(7) 0.6642(6)
H3 H 0.2262 0.0463 0.6202
B4 B 0.16825(11) 0.1792(6) 0.6241(5)
H4 H 0.1712 0.3103 0.5534
B5 B 0.12515(11) -0.0673(7) 0.7917(5)
H5 H 0.1002 -0.0960 0.8308
B6 B 0.15836(13) -0.2257(8) 0.8371(6)
H6 H 0.1552 -0.3569 0.9076
B7 B 0.19444(13) -0.0768(8) 0.8425(7)
H7 H 0.2148 -0.1115 0.9167
B8 B 0.18332(12) 0.1739(8) 0.8017(6)
H8 H 0.1965 0.3016 0.8491
B9 B 0.14077(11) 0.1805(7) 0.7709(5)
H9 H 0.1259 0.3127 0.7969
B10 B 0.15667(11) 0.0226(7) 0.9071(6)
H10 H 0.1523 0.0522 1.0231
C1 C 0.16946(8) -0.0648(5) 0.5650(4)
C2 C 0.13395(8) 0.0288(5) 0.6240(4)
C3 C 0.16712(9) -0.0788(5) 0.4006(5)
H11 H 0.1790 0.0346 0.3590
C4 C 0.18016(10) -0.2705(7) 0.3303(6)
H12 H 0.1732 -0.3839 0.3882
H13 H 0.1704 -0.2844 0.2346
C5 C 0.21661(10) -0.2765(8) 0.3153(7)
H14 H 0.2235 -0.1669 0.2535
H15 H 0.2264 -0.2563 0.4103
C6 C 0.22907(16) -0.4645(14) 0.2541(17)
H16 H 0.2463 -0.4200 0.1892
H17 H 0.2404 -0.5248 0.3358
C7 C 0.2163(2) -0.6259(13) 0.1828(13)
H18 H 0.2338 -0.7070 0.1457
H19 H 0.2029 -0.5809 0.1037
H20 H 0.2033 -0.7032 0.2490
C8 C 0.13057(11) -0.0507(7) 0.3675(5)
H21 H 0.1204 -0.1803 0.3544
H22 H 0.1281 0.0237 0.2777
C9 C 0.11325(9) 0.0616(6) 0.4913(4)
C10 C 0.08490(9) 0.1626(6) 0.4764(4)
C11 C 0.10409(12) 0.3679(7) 0.1890(6)
H23 H 0.0981 0.3923 0.0897
H24 H 0.1248 0.3004 0.1923
H25 H 0.1057 0.4926 0.2399
C12 C 0.06505(14) -0.0339(8) 0.1801(6)
H26 H 0.0587 -0.0074 0.0815
H27 H 0.0480 -0.1072 0.2281
H28 H 0.0848 -0.1111 0.1808
C13 C 0.03298(13) 0.3482(10) 0.2494(6)
H29 H 0.0289 0.3624 0.1472
H30 H 0.0347 0.4779 0.2931
H31 H 0.0153 0.2761 0.2935
C14 C 0.01530(14) 0.1450(10) 0.5697(7)
H32 H -0.0013 0.1936 0.6344
H33 H 0.0178 0.0035 0.5825
H34 H 0.0091 0.1724 0.4711
C15 C 0.05270(14) 0.5447(8) 0.5809(10)
H35 H 0.0374 0.6026 0.6480
H36 H 0.0457 0.5711 0.4832
H37 H 0.0740 0.6021 0.5960
C16 C 0.05694(17) 0.2289(19) 0.8082(6)
H38 H 0.0390 0.2960 0.8550
H39 H 0.0773 0.2804 0.8449
H40 H 0.0557 0.0883 0.8277
loop_
_geom_bond_atom_site_label_1
_geom_bond_atom_site_label_2
_geom_bond_site_symmetry_1
_geom_bond_site_symmetry_2
Si1 C10 1_555 1_555
Si2 C10 1_555 1_555
B1 H1 1_555 1_555
B2 B1 1_555 1_555
H2 B2 1_555 1_555
B3 B2 1_555 1_555
H3 B3 1_555 1_555
B4 B3 1_555 1_555
H4 B4 1_555 1_555
B5 B1 1_555 1_555
H5 B5 1_555 1_555
B6 B1 1_555 1_555
H6 B6 1_555 1_555
B7 B2 1_555 1_555
H7 B7 1_555 1_555
B8 B3 1_555 1_555
H8 B8 1_555 1_555
B9 B4 1_555 1_555
H9 B9 1_555 1_555
B10 B5 1_555 1_555
H10 B10 1_555 1_555
C1 B1 1_555 1_555
C2 B1 1_555 1_555
C3 C1 1_555 1_555
H11 C3 1_555 1_555
C4 C3 1_555 1_555
H12 C4 1_555 1_555
H13 C4 1_555 1_555
C5 C4 1_555 1_555
H14 C5 1_555 1_555
H15 C5 1_555 1_555
C6 C5 1_555 1_555
H16 C6 1_555 1_555
H17 C6 1_555 1_555
C7 C6 1_555 1_555
H18 C7 1_555 1_555
H19 C7 1_555 1_555
H20 C7 1_555 1_555
C8 C3 1_555 1_555
H21 C8 1_555 1_555
H22 C8 1_555 1_555
C9 C2 1_555 1_555
C10 C9 1_555 1_555
C11 Si1 1_555 1_555
H23 C11 1_555 1_555
H24 C11 1_555 1_555
H25 C11 1_555 1_555
C12 Si1 1_555 1_555
H26 C12 1_555 1_555
H27 C12 1_555 1_555
H28 C12 1_555 1_555
C13 Si1 1_555 1_555
H29 C13 1_555 1_555
H30 C13 1_555 1_555
H31 C13 1_555 1_555
C14 Si2 1_555 1_555
H32 C14 1_555 1_555
H33 C14 1_555 1_555
H34 C14 1_555 1_555
C15 Si2 1_555 1_555
H35 C15 1_555 1_555
H36 C15 1_555 1_555
H37 C15 1_555 1_555
C16 Si2 1_555 1_555
H38 C16 1_555 1_555
H39 C16 1_555 1_555
H40 C16 1_555 1_555
B2 B6 1_555 1_555
B2 C1 1_555 1_555
B3 B7 1_555 1_555
B3 C1 1_555 1_555
B4 B8 1_555 1_555
B4 C1 1_555 1_555
B4 C2 1_555 1_555
B5 B6 1_555 1_555
B5 B9 1_555 1_555
B5 C2 1_555 1_555
B6 B7 1_555 1_555
B6 B10 1_555 1_555
B7 B8 1_555 1_555
B7 B10 1_555 1_555
B8 B9 1_555 1_555
B8 B10 1_555 1_555
B9 B10 1_555 1_555
B9 C2 1_555 1_555
C1 C2 1_555 1_555
C8 C9 1_555 1_555

#END
