
#######################################################################
#
#                 Cambridge Crystallographic Data Centre
#                                CCDC 
#
#######################################################################
#
# If this CIF has been generated from an entry in the Cambridge 
# Structural Database, then it will include bibliographic, chemical, 
# crystal, experimental, refinement or atomic coordinate data resulting 
# from the CCDC's data processing and validation procedures.
#
#######################################################################

data_BOBTIX
_chemical_formula_moiety         'C17 H34 B10 S1 Si1'
_chemical_name_systematic        
E-1,2-(1-(thiophen-3-yl)-1-(trimethylsilyl)oct-1-ene-2,4-diyl)-1,2-dicarba-dodecaborane
_symmetry_cell_setting           monoclinic
_symmetry_space_group_name_H-M   'P 21/c'
_symmetry_Int_Tables_number      14
_space_group_name_Hall           '-P 2ybc'
loop_
_symmetry_equiv_pos_site_id
_symmetry_equiv_pos_as_xyz
1 x,y,z
2 -x,1/2+y,1/2-z
3 -x,-y,-z
4 x,1/2-y,1/2+z
_cell_length_a                   13.8786(17)
_cell_length_b                   8.7325(11)
_cell_length_c                   19.944(3)
_cell_angle_alpha                90
_cell_angle_beta                 93.428(2)
_cell_angle_gamma                90
_cell_volume                     2412.79
_exptl_crystal_colour            colorless
_exptl_crystal_description       block
_cell_formula_units_Z            4
loop_
_atom_site_label
_atom_site_type_symbol
_atom_site_fract_x
_atom_site_fract_y
_atom_site_fract_z
S1 S 1.02180(17) 1.1880(3) 0.12066(13)
Si1 Si 0.79998(10) 0.75586(15) 0.12203(7)
C1 C 0.6918(3) 1.0450(5) 0.3372(2)
C2 C 0.7434(3) 1.1038(5) 0.2688(2)
C3 C 0.6712(3) 0.8748(5) 0.3289(2)
H1 H 0.7223 0.8193 0.3547
C4 C 0.5755(4) 0.8184(6) 0.3517(2)
H2 H 0.5618 0.7196 0.3311
H3 H 0.5254 0.8887 0.3352
C5 C 0.5697(4) 0.8022(7) 0.4269(3)
H4 H 0.5847 0.9002 0.4479
H5 H 0.6182 0.7294 0.4435
C6 C 0.4705(5) 0.7488(7) 0.4478(3)
H6 H 0.4705 0.7505 0.4965
H7 H 0.4220 0.8211 0.4307
C7 C 0.4419(4) 0.5895(7) 0.4233(3)
H8 H 0.3791 0.5647 0.4378
H9 H 0.4881 0.5163 0.4414
H10 H 0.4406 0.5869 0.3751
C8 C 0.6832(3) 0.8417(6) 0.2538(2)
H11 H 0.7119 0.7414 0.2488
H12 H 0.6205 0.8420 0.2296
C9 C 0.7475(3) 0.9635(5) 0.2248(2)
C10 C 0.7972(3) 0.9422(5) 0.1702(2)
C11 C 0.8874(5) 0.6296(7) 0.1690(3)
H13 H 0.8909 0.5331 0.1462
H14 H 0.8666 0.6132 0.2135
H15 H 0.9499 0.6770 0.1716
C12 C 0.6789(4) 0.6601(7) 0.1101(3)
H16 H 0.6854 0.5666 0.0855
H17 H 0.6347 0.7271 0.0856
H18 H 0.6549 0.6378 0.1532
C13 C 0.8423(6) 0.7966(9) 0.0365(3)
H19 H 0.8440 0.7030 0.0114
H20 H 0.9058 0.8404 0.0407
H21 H 0.7988 0.8673 0.0136
C14 C 0.8636(3) 1.0580(5) 0.1450(2)
C15 C 0.9619(4) 1.0563(7) 0.1600(3)
H22 H 0.9918 0.9867 0.1899
C16 C 0.9275(3) 1.2651(4) 0.0718(2)
H23 H 0.9287 1.3417 0.0395
C17 C 0.8418(4) 1.1754(6) 0.0953(3)
H24 H 0.7789 1.1950 0.0786
B1 B 0.6260(4) 1.1591(6) 0.2804(3)
H25 H 0.5624 1.1214 0.2491
B2 B 0.6210(4) 1.1836(7) 0.3676(3)
H26 H 0.5544 1.1605 0.3931
B3 B 0.7376(4) 1.1431(7) 0.4066(3)
H27 H 0.7459 1.0953 0.4577
B4 B 0.8142(4) 1.0864(6) 0.3430(3)
H28 H 0.8716 1.0007 0.3521
B5 B 0.7130(4) 1.2866(7) 0.2491(3)
H29 H 0.7062 1.3308 0.1974
B6 B 0.6354(4) 1.3448(7) 0.3141(3)
H30 H 0.5775 1.4298 0.3053
B7 B 0.7036(5) 1.3366(8) 0.3911(3)
H31 H 0.6901 1.4161 0.4323
B8 B 0.8226(5) 1.2739(7) 0.3761(3)
H32 H 0.8862 1.3117 0.4072
B9 B 0.8269(4) 1.2455(6) 0.2873(3)
H33 H 0.8931 1.2641 0.2607
B10 B 0.7576(5) 1.3984(7) 0.3182(3)
H34 H 0.7789 1.5186 0.3118
loop_
_geom_bond_atom_site_label_1
_geom_bond_atom_site_label_2
_geom_bond_site_symmetry_1
_geom_bond_site_symmetry_2
S1 C15 1_555 1_555
Si1 C10 1_555 1_555
C1 C2 1_555 1_555
C2 C9 1_555 1_555
C3 C1 1_555 1_555
H1 C3 1_555 1_555
C4 C3 1_555 1_555
H2 C4 1_555 1_555
H3 C4 1_555 1_555
C5 C4 1_555 1_555
H4 C5 1_555 1_555
H5 C5 1_555 1_555
C6 C5 1_555 1_555
H6 C6 1_555 1_555
H7 C6 1_555 1_555
C7 C6 1_555 1_555
H8 C7 1_555 1_555
H9 C7 1_555 1_555
H10 C7 1_555 1_555
C8 C3 1_555 1_555
H11 C8 1_555 1_555
H12 C8 1_555 1_555
C9 C8 1_555 1_555
C10 C9 1_555 1_555
C11 Si1 1_555 1_555
H13 C11 1_555 1_555
H14 C11 1_555 1_555
H15 C11 1_555 1_555
C12 Si1 1_555 1_555
H16 C12 1_555 1_555
H17 C12 1_555 1_555
H18 C12 1_555 1_555
C13 Si1 1_555 1_555
H19 C13 1_555 1_555
H20 C13 1_555 1_555
H21 C13 1_555 1_555
C14 C10 1_555 1_555
C15 C14 1_555 1_555
H22 C15 1_555 1_555
C16 S1 1_555 1_555
H23 C16 1_555 1_555
C17 C14 1_555 1_555
H24 C17 1_555 1_555
B1 C1 1_555 1_555
H25 B1 1_555 1_555
B2 C1 1_555 1_555
H26 B2 1_555 1_555
B3 C1 1_555 1_555
H27 B3 1_555 1_555
B4 C1 1_555 1_555
H28 B4 1_555 1_555
B5 C2 1_555 1_555
H29 B5 1_555 1_555
B6 B1 1_555 1_555
H30 B6 1_555 1_555
B7 B2 1_555 1_555
H31 B7 1_555 1_555
B8 B3 1_555 1_555
H32 B8 1_555 1_555
B9 C2 1_555 1_555
H33 B9 1_555 1_555
B10 B5 1_555 1_555
H34 B10 1_555 1_555
C2 B1 1_555 1_555
C2 B4 1_555 1_555
C16 C17 1_555 1_555
B1 B2 1_555 1_555
B1 B5 1_555 1_555
B2 B3 1_555 1_555
B2 B6 1_555 1_555
B3 B4 1_555 1_555
B3 B7 1_555 1_555
B4 B8 1_555 1_555
B4 B9 1_555 1_555
B5 B6 1_555 1_555
B5 B9 1_555 1_555
B6 B7 1_555 1_555
B6 B10 1_555 1_555
B7 B8 1_555 1_555
B7 B10 1_555 1_555
B8 B9 1_555 1_555
B8 B10 1_555 1_555
B9 B10 1_555 1_555

#END
