
#######################################################################
#
#                 Cambridge Crystallographic Data Centre
#                                CCDC 
#
#######################################################################
#
# If this CIF has been generated from an entry in the Cambridge 
# Structural Database, then it will include bibliographic, chemical, 
# crystal, experimental, refinement or atomic coordinate data resulting 
# from the CCDC's data processing and validation procedures.
#
#######################################################################

data_BOCRAO
_chemical_name_common            'Deacetylcinobufalactam monohydrate'
_chemical_formula_moiety         'C24 H33 N1 O4,H2 O1'
_chemical_name_systematic        
'5-(3,16-Dihydroxy-14,15-epoxyandrostan-17-yl)pyridin-2(1H)-one monohydrate'
_symmetry_cell_setting           monoclinic
_symmetry_space_group_name_H-M   'P 21'
_symmetry_Int_Tables_number      4
_space_group_name_Hall           'P 2yb'
loop_
_symmetry_equiv_pos_site_id
_symmetry_equiv_pos_as_xyz
1 x,y,z
2 -x,1/2+y,-z
_cell_length_a                   8.0097(2)
_cell_length_b                   12.1155(4)
_cell_length_c                   11.3627(3)
_cell_angle_alpha                90
_cell_angle_beta                 95.077(3)
_cell_angle_gamma                90
_cell_volume                     1098.33
_exptl_crystal_colour            colorless
_exptl_crystal_description       plate
_cell_formula_units_Z            2
loop_
_atom_site_label
_atom_site_type_symbol
_atom_site_fract_x
_atom_site_fract_y
_atom_site_fract_z
N1 N -0.2500(2) 0.63824(18) 0.52081(16)
H1 H -0.3296 0.6720 0.5520
O1 O 0.5226(2) 0.78557(15) -0.38275(14)
H2 H 0.5728 0.8339 -0.4159
O2 O 0.2223(2) 0.53707(14) 0.21889(13)
O3 O 0.3082(2) 0.66560(16) 0.44674(14)
H3 H 0.3830 0.7042 0.4788
O4 O -0.3079(2) 0.48508(18) 0.62396(15)
C1 C 0.2137(3) 0.8092(2) -0.2603(2)
H4 H 0.2009 0.7931 -0.3442
H5 H 0.1184 0.8536 -0.2424
C2 C 0.3714(3) 0.8770(2) -0.2341(2)
H6 H 0.3799 0.9003 -0.1521
H7 H 0.3653 0.9426 -0.2832
C3 C 0.5255(3) 0.8109(2) -0.2575(2)
H8 H 0.6263 0.8537 -0.2327
C4 C 0.5291(3) 0.7026(2) -0.1897(2)
H9 H 0.6233 0.6591 -0.2113
H10 H 0.5473 0.7185 -0.1058
C5 C 0.3701(3) 0.6345(2) -0.21181(18)
H11 H 0.3617 0.6135 -0.2954
C6 C 0.3824(4) 0.5274(2) -0.1411(2)
H12 H 0.4896 0.4928 -0.1504
H13 H 0.2951 0.4773 -0.1727
C7 C 0.3649(3) 0.5455(2) -0.0095(2)
H14 H 0.3630 0.4745 0.0299
H15 H 0.4614 0.5862 0.0251
C8 C 0.2052(3) 0.6091(2) 0.01045(19)
H16 H 0.1104 0.5640 -0.0218
C9 C 0.1961(3) 0.71946(19) -0.05767(19)
H17 H 0.2951 0.7624 -0.0287
C10 C 0.2087(3) 0.6997(2) -0.19199(18)
C11 C 0.0424(3) 0.7867(2) -0.0302(2)
H18 H 0.0466 0.8585 -0.0675
H19 H -0.0581 0.7494 -0.0634
C12 C 0.0323(3) 0.8024(2) 0.1027(2)
H20 H -0.0680 0.8441 0.1151
H21 H 0.1281 0.8452 0.1345
C13 C 0.0287(3) 0.69225(19) 0.17083(18)
C14 C 0.1819(3) 0.62930(19) 0.13928(18)
C15 C 0.3140(3) 0.6388(2) 0.2355(2)
H22 H 0.4314 0.6419 0.2177
C16 C 0.2557(3) 0.7099(2) 0.33232(19)
H23 H 0.3031 0.7840 0.3260
C17 C 0.0623(3) 0.71678(19) 0.30680(18)
H24 H 0.0313 0.7941 0.3181
C18 C 0.0561(3) 0.6373(3) -0.2475(2)
H25 H 0.0675 0.6258 -0.3300
H26 H -0.0433 0.6797 -0.2385
H27 H 0.0479 0.5673 -0.2090
C19 C -0.1342(3) 0.6303(3) 0.1395(2)
H28 H -0.1484 0.6179 0.0558
H29 H -0.2264 0.6732 0.1630
H30 H -0.1307 0.5607 0.1800
C20 C -0.0349(3) 0.6490(2) 0.38948(18)
C21 C -0.1599(3) 0.6964(2) 0.44449(19)
H31 H -0.1854 0.7703 0.4301
C22 C -0.0037(3) 0.5362(2) 0.41596(18)
H32 H 0.0805 0.4998 0.3800
C23 C -0.0930(3) 0.4799(2) 0.49229(19)
H33 H -0.0689 0.4058 0.5068
C24 C -0.2220(3) 0.5307(2) 0.55044(19)
O5 O 0.3771(3) 0.4443(2) 0.5263(2)
H34 H 0.480(5) 0.462(3) 0.567(3)
H35 H 0.355(5) 0.503(4) 0.496(3)
loop_
_geom_bond_atom_site_label_1
_geom_bond_atom_site_label_2
_geom_bond_site_symmetry_1
_geom_bond_site_symmetry_2
N1 H1 1_555 1_555
O1 H2 1_555 1_555
O2 C14 1_555 1_555
O3 H3 1_555 1_555
O4 C24 1_555 1_555
C1 H4 1_555 1_555
H5 C1 1_555 1_555
C2 C1 1_555 1_555
H6 C2 1_555 1_555
H7 C2 1_555 1_555
C3 O1 1_555 1_555
H8 C3 1_555 1_555
C4 C3 1_555 1_555
H9 C4 1_555 1_555
H10 C4 1_555 1_555
C5 C4 1_555 1_555
H11 C5 1_555 1_555
C6 C5 1_555 1_555
H12 C6 1_555 1_555
H13 C6 1_555 1_555
C7 C6 1_555 1_555
H14 C7 1_555 1_555
H15 C7 1_555 1_555
C8 C7 1_555 1_555
H16 C8 1_555 1_555
C9 C8 1_555 1_555
H17 C9 1_555 1_555
C10 C1 1_555 1_555
C11 C9 1_555 1_555
H18 C11 1_555 1_555
H19 C11 1_555 1_555
C12 C11 1_555 1_555
H20 C12 1_555 1_555
H21 C12 1_555 1_555
C13 C12 1_555 1_555
C14 C8 1_555 1_555
C15 O2 1_555 1_555
H22 C15 1_555 1_555
C16 O3 1_555 1_555
H23 C16 1_555 1_555
C17 C13 1_555 1_555
H24 C17 1_555 1_555
C18 C10 1_555 1_555
H25 C18 1_555 1_555
H26 C18 1_555 1_555
H27 C18 1_555 1_555
C19 C13 1_555 1_555
H28 C19 1_555 1_555
H29 C19 1_555 1_555
H30 C19 1_555 1_555
C20 C17 1_555 1_555
C21 N1 1_555 1_555
H31 C21 1_555 1_555
C22 C20 1_555 1_555
H32 C22 1_555 1_555
C23 C22 1_555 1_555
H33 C23 1_555 1_555
C24 N1 1_555 1_555
O5 H34 1_555 1_555
H35 O5 1_555 1_555
C2 C3 1_555 1_555
C5 C10 1_555 1_555
C9 C10 1_555 1_555
C13 C14 1_555 1_555
C14 C15 1_555 1_555
C15 C16 1_555 1_555
C16 C17 1_555 1_555
C20 C21 1_555 1_555
C23 C24 1_555 1_555

#END
