
#######################################################################
#
#                 Cambridge Crystallographic Data Centre
#                                CCDC 
#
#######################################################################
#
# If this CIF has been generated from an entry in the Cambridge 
# Structural Database, then it will include bibliographic, chemical, 
# crystal, experimental, refinement or atomic coordinate data resulting 
# from the CCDC's data processing and validation procedures.
#
#######################################################################

data_BODTAR
_chemical_formula_moiety         'C34 H40 N2 O4 2+,2(B1 F4 1-)'
_chemical_name_systematic        
"4,4'-(2,4-bis(3,4-dimethoxyphenyl)cyclobutane-1,3-diyl)bis(1-ethylpyridinium) bis(tetrafluoroborate)"
_symmetry_cell_setting           monoclinic
_symmetry_space_group_name_H-M   'P 21/c'
_symmetry_Int_Tables_number      14
_space_group_name_Hall           '-P 2ybc'
loop_
_symmetry_equiv_pos_site_id
_symmetry_equiv_pos_as_xyz
1 x,y,z
2 -x,1/2+y,1/2-z
3 -x,-y,-z
4 x,1/2-y,1/2+z
_cell_length_a                   7.3008(3)
_cell_length_b                   20.8807(6)
_cell_length_c                   11.3281(4)
_cell_angle_alpha                90
_cell_angle_beta                 91.918(2)
_cell_angle_gamma                90
_cell_volume                     1725.95
_exptl_crystal_colour            'pale yellow'
_exptl_crystal_description       block
_cell_formula_units_Z            2
loop_
_atom_site_label
_atom_site_type_symbol
_atom_site_fract_x
_atom_site_fract_y
_atom_site_fract_z
O1 O 0.3637(2) 0.63277(7) 0.62257(11)
O2 O 0.38558(19) 0.73757(6) 0.74677(12)
N1 N 0.2275(2) 0.34369(7) 1.30368(13)
C1 C 0.2250(3) 0.33630(10) 1.18529(16)
C2 C 0.1923(3) 0.38806(9) 1.11133(16)
C3 C 0.1570(3) 0.44845(9) 1.15910(16)
C4 C 0.1730(3) 0.45499(9) 1.28183(17)
C5 C 0.2074(3) 0.40220(10) 1.35233(17)
C6 C 0.0793(3) 0.50258(9) 1.08599(15)
C7 C 0.1315(3) 0.50803(9) 0.95499(15)
C8 C 0.2191(3) 0.56904(9) 0.91213(16)
C9 C 0.2655(3) 0.57043(9) 0.79191(16)
C10 C 0.3204(3) 0.62681(9) 0.73955(16)
C11 C 0.3339(3) 0.68394(9) 0.80715(17)
C12 C 0.2979(3) 0.68192(10) 0.92634(18)
C13 C 0.2387(3) 0.62444(9) 0.97797(17)
C14 C 0.3386(3) 0.57645(11) 0.55063(19)
C15 C 0.3716(3) 0.79758(10) 0.8084(2)
C16 C 0.2349(3) 0.28584(10) 1.38171(18)
C17 C 0.0423(3) 0.26372(11) 1.4044(2)
H1 H 0.243(3) 0.2951(11) 1.1602(18)
H2 H 0.191(3) 0.3790(10) 1.031(2)
H3 H 0.151(3) 0.4962(11) 1.3195(19)
H4 H 0.208(3) 0.4044(10) 1.4383(19)
H5 H 0.257(3) 0.5313(11) 0.745(2)
H6 H 0.312(3) 0.7185(10) 0.9724(18)
H7 H 0.207(3) 0.6268(11) 1.063(2)
H8 H 0.377(3) 0.5867(11) 0.472(2)
H9 H 0.205(4) 0.5612(13) 0.546(2)
H10 H 0.419(3) 0.5391(11) 0.5811(19)
H11 H 0.407(3) 0.8314(13) 0.754(2)
H12 H 0.458(3) 0.7991(11) 0.872(2)
H13 H 0.236(4) 0.8035(12) 0.830(2)
H14 H 0.301(3) 0.2983(11) 1.452(2)
H15 H 0.308(3) 0.2533(11) 1.345(2)
H16 H 0.048(3) 0.2250(11) 1.457(2)
H17 H -0.020(3) 0.2496(11) 1.332(2)
H18 H -0.028(3) 0.3000(12) 1.442(2)
H19 H 0.094(3) 0.5436(11) 1.1302(18)
H20 H 0.203(3) 0.4712(10) 0.9298(16)
O1B O -0.3637(2) 0.36723(7) 1.37743(11)
O2B O -0.38558(19) 0.26243(6) 1.25323(12)
N1B N -0.2275(2) 0.65631(7) 0.69632(13)
C1B C -0.2250(3) 0.66370(10) 0.81471(16)
C2B C -0.1923(3) 0.61194(9) 0.88867(16)
C3B C -0.1570(3) 0.55155(9) 0.84090(16)
C4B C -0.1730(3) 0.54501(9) 0.71817(17)
C5B C -0.2074(3) 0.59780(10) 0.64767(17)
C6B C -0.0793(3) 0.49742(9) 0.91401(15)
C7B C -0.1315(3) 0.49197(9) 1.04501(15)
C8B C -0.2191(3) 0.43096(9) 1.08787(16)
C9B C -0.2655(3) 0.42957(9) 1.20809(16)
C10B C -0.3204(3) 0.37319(9) 1.26045(16)
C11B C -0.3339(3) 0.31606(9) 1.19285(17)
C12B C -0.2979(3) 0.31808(10) 1.07366(18)
C13B C -0.2387(3) 0.37556(9) 1.02203(17)
C14B C -0.3386(3) 0.42355(11) 1.44937(19)
C15B C -0.3716(3) 0.20242(10) 1.1916(2)
C16B C -0.2349(3) 0.71416(10) 0.61829(18)
C17B C -0.0423(3) 0.73628(11) 0.5956(2)
H1B H -0.243(3) 0.7049(11) 0.8398(18)
H2B H -0.191(3) 0.6210(10) 0.969(2)
H3B H -0.151(3) 0.5038(11) 0.6805(19)
H4B H -0.208(3) 0.5956(10) 0.5617(19)
H5B H -0.257(3) 0.4687(11) 1.255(2)
H6B H -0.312(3) 0.2815(10) 1.0276(18)
H7B H -0.207(3) 0.3732(11) 0.937(2)
H8B H -0.377(3) 0.4133(11) 1.528(2)
H9B H -0.205(4) 0.4388(13) 1.454(2)
H10B H -0.419(3) 0.4609(11) 1.4189(19)
H11B H -0.407(3) 0.1686(13) 1.246(2)
H12B H -0.458(3) 0.2009(11) 1.128(2)
H13B H -0.236(4) 0.1965(12) 1.170(2)
H14B H -0.301(3) 0.7017(11) 0.548(2)
H15B H -0.308(3) 0.7467(11) 0.655(2)
H16B H -0.048(3) 0.7750(11) 0.543(2)
H17B H 0.020(3) 0.7504(11) 0.668(2)
H18B H 0.028(3) 0.7000(12) 0.558(2)
H19B H -0.094(3) 0.4564(11) 0.8698(18)
H20B H -0.203(3) 0.5288(10) 1.0702(16)
B1 B 0.1698(4) 0.37705(11) 0.6974(2)
F1 F 0.1792(6) 0.31390(17) 0.6547(3)
F2 F 0.2188(5) 0.37449(12) 0.8167(2)
F3 F 0.2926(7) 0.41448(19) 0.6376(3)
F4 F 0.0000(6) 0.4030(2) 0.6846(4)
F5? F 0.1292(10) 0.3152(3) 0.6449(6)
F6? F 0.1515(10) 0.3757(3) 0.8143(6)
F7? F 0.3324(17) 0.4116(6) 0.6488(11)
F8? F -0.0035(13) 0.4049(4) 0.6450(8)
F9? F 0.2108(12) 0.3224(4) 0.6399(7)
F10? F 0.2779(11) 0.3772(3) 0.8139(6)
F11? F 0.2357(11) 0.4273(4) 0.6345(6)
F12? F -0.0332(12) 0.3905(4) 0.7035(8)
loop_
_geom_bond_atom_site_label_1
_geom_bond_atom_site_label_2
_geom_bond_site_symmetry_1
_geom_bond_site_symmetry_2
O1 C10 1_555 1_555
O2 C11 1_555 1_555
N1 C1 1_555 1_555
C1 C2 1_555 1_555
C2 C3 1_555 1_555
C3 C4 1_555 1_555
C4 C5 1_555 1_555
C5 N1 1_555 1_555
C6 C3 1_555 1_555
C7 C6 1_555 1_555
C8 C7 1_555 1_555
C9 C8 1_555 1_555
C10 C9 1_555 1_555
C11 C10 1_555 1_555
C12 C11 1_555 1_555
C13 C8 1_555 1_555
C14 O1 1_555 1_555
C15 O2 1_555 1_555
C16 N1 1_555 1_555
C17 C16 1_555 1_555
H1 C1 1_555 1_555
H2 C2 1_555 1_555
H3 C4 1_555 1_555
H4 C5 1_555 1_555
H5 C9 1_555 1_555
H6 C12 1_555 1_555
H7 C13 1_555 1_555
H8 C14 1_555 1_555
H9 C14 1_555 1_555
H10 C14 1_555 1_555
H11 C15 1_555 1_555
H12 C15 1_555 1_555
H13 C15 1_555 1_555
H14 C16 1_555 1_555
H15 C16 1_555 1_555
H16 C17 1_555 1_555
H17 C17 1_555 1_555
H18 C17 1_555 1_555
H19 C6 1_555 1_555
H20 C7 1_555 1_555
B1 F1 1_555 1_555
F2 B1 1_555 1_555
F3 B1 1_555 1_555
F4 B1 1_555 1_555
O1B C10B 1_555 1_555
O2B C11B 1_555 1_555
N1B C1B 1_555 1_555
C1B C2B 1_555 1_555
C2B C3B 1_555 1_555
C3B C4B 1_555 1_555
C4B C5B 1_555 1_555
C5B N1B 1_555 1_555
C6B C7 1_555 1_555
C7B C6 1_555 1_555
C8B C7B 1_555 1_555
C9B C8B 1_555 1_555
C10B C9B 1_555 1_555
C11B C10B 1_555 1_555
C12B C11B 1_555 1_555
C13B C8B 1_555 1_555
C14B O1B 1_555 1_555
C15B O2B 1_555 1_555
C16B N1B 1_555 1_555
C17B C16B 1_555 1_555
H1B C1B 1_555 1_555
H2B C2B 1_555 1_555
H3B C4B 1_555 1_555
H4B C5B 1_555 1_555
H5B C9B 1_555 1_555
H6B C12B 1_555 1_555
H7B C13B 1_555 1_555
H8B C14B 1_555 1_555
H9B C14B 1_555 1_555
H10B C14B 1_555 1_555
H11B C15B 1_555 1_555
H12B C15B 1_555 1_555
H13B C15B 1_555 1_555
H14B C16B 1_555 1_555
H15B C16B 1_555 1_555
H16B C17B 1_555 1_555
H17B C17B 1_555 1_555
H18B C17B 1_555 1_555
H19B C6B 1_555 1_555
H20B C7B 1_555 1_555
C12 C13 1_555 1_555
C3B C6B 1_555 1_555
C6B C7B 1_555 1_555
C12B C13B 1_555 1_555

#END
