
#######################################################################
#
#                 Cambridge Crystallographic Data Centre
#                                CCDC 
#
#######################################################################
#
# If this CIF has been generated from an entry in the Cambridge 
# Structural Database, then it will include bibliographic, chemical, 
# crystal, experimental, refinement or atomic coordinate data resulting 
# from the CCDC's data processing and validation procedures.
#
#######################################################################

data_BODYAV
_chemical_formula_moiety         'C24 H24 N4 O2'
_chemical_name_systematic        
5,7,12,14-Tetrahydro-13b,13c-butano-5a,6a,12a,13a-tetra-azabenzo(5,6)azuleno(2,1,8-ija)benzo(f)azulene-6,13(13bH)-dione
_symmetry_cell_setting           monoclinic
_symmetry_space_group_name_H-M   'C 2/c'
_symmetry_Int_Tables_number      15
_space_group_name_Hall           '-C 2yn'
loop_
_symmetry_equiv_pos_site_id
_symmetry_equiv_pos_as_xyz
1 x,y,z
2 1/2+x,1/2+y,z
3 -x,y,1/2-z
4 1/2-x,1/2+y,1/2-z
5 -x,-y,-z
6 1/2-x,1/2-y,-z
7 x,-y,1/2+z
8 1/2+x,1/2-y,1/2+z
_cell_length_a                   15.587(2)
_cell_length_b                   8.5805(12)
_cell_length_c                   15.259(2)
_cell_angle_alpha                90
_cell_angle_beta                 102.448(3)
_cell_angle_gamma                90
_cell_volume                     1992.83
_exptl_crystal_colour            colorless
_exptl_crystal_description       block
_cell_formula_units_Z            4
_exptl_crystal_recrystallization_method chloroform
loop_
_atom_site_label
_atom_site_type_symbol
_atom_site_fract_x
_atom_site_fract_y
_atom_site_fract_z
C1 C 0.38111(13) 0.7688(2) 0.06681(12)
C2 C 0.38542(15) 0.8956(3) 0.01222(14)
H1 H 0.4236 0.8928 -0.0269
C3 C 0.33429(16) 1.0266(3) 0.01443(16)
H2 H 0.3378 1.1104 -0.0233
C4 C 0.27881(15) 1.0323(3) 0.07192(17)
H3 H 0.2439 1.1197 0.0734
C5 C 0.27462(13) 0.9084(2) 0.12784(15)
H4 H 0.2371 0.9139 0.1676
C6 C 0.32474(12) 0.7754(2) 0.12650(12)
C7 C 0.31496(14) 0.6416(3) 0.18722(15)
H5 H 0.2759 0.6733 0.2256
H6 H 0.2871 0.5556 0.1505
C8 C 0.42819(15) 0.6382(3) 0.32854(14)
C9 C 0.45921(13) 0.4916(2) 0.20971(14)
C10 C 0.43374(16) 0.6237(3) 0.05737(14)
H7 H 0.3931 0.5406 0.0338
H8 H 0.4690 0.6443 0.0134
O1 O 0.39039(12) 0.7248(2) 0.37022(12)
N1 N 0.39656(11) 0.5859(2) 0.24358(11)
N2 N 0.49168(12) 0.5689(2) 0.13956(11)
C11 C 0.4226(2) 0.3287(3) 0.1846(3)
C12 C 0.4825(4) 0.2077(7) 0.1869(4)
H9 H 0.4930 0.1944 0.1269
H10 H 0.4557 0.1124 0.2023
H13 H 0.3707(10) 0.338(3) 0.1369(12)
C1B C 0.61889(13) 0.7688(2) 0.43319(12)
C2B C 0.61458(15) 0.8956(3) 0.48778(14)
H1B H 0.5764 0.8928 0.5269
C3B C 0.66571(16) 1.0266(3) 0.48557(16)
H2B H 0.6622 1.1104 0.5233
C4B C 0.72119(15) 1.0323(3) 0.42808(17)
H3B H 0.7561 1.1197 0.4266
C5B C 0.72538(13) 0.9084(2) 0.37216(15)
H4B H 0.7629 0.9139 0.3324
C6B C 0.67526(12) 0.7754(2) 0.37350(12)
C7B C 0.68504(14) 0.6416(3) 0.31278(15)
H5B H 0.7241 0.6733 0.2744
H6B H 0.7129 0.5556 0.3495
C8B C 0.57181(15) 0.6382(3) 0.17146(14)
C9B C 0.54079(13) 0.4916(2) 0.29029(14)
C10B C 0.56626(16) 0.6237(3) 0.44263(14)
H7B H 0.6069 0.5406 0.4662
H8B H 0.5310 0.6443 0.4866
O1B O 0.60961(12) 0.7248(2) 0.12978(12)
N1B N 0.60344(11) 0.5859(2) 0.25642(11)
N2B N 0.50832(12) 0.5689(2) 0.36044(11)
C11B C 0.5774(2) 0.3287(3) 0.3154(3)
C12B C 0.5175(4) 0.2077(7) 0.3131(4)
H9B H 0.5070 0.1944 0.3731
H10B H 0.5443 0.1124 0.2977
H13B H 0.6293(10) 0.338(3) 0.3631(12)
C13? C 0.4303(4) 0.2272(7) 0.2492(4)
H11? H 0.4135 0.1264 0.2220
H12? H 0.3874 0.2536 0.2844
H14? H 0.467(3) 0.298(6) 0.152(3)
loop_
_geom_bond_atom_site_label_1
_geom_bond_atom_site_label_2
_geom_bond_site_symmetry_1
_geom_bond_site_symmetry_2
C1 C2 1_555 1_555
C2 H1 1_555 1_555
C3 C2 1_555 1_555
H2 C3 1_555 1_555
C4 C3 1_555 1_555
H3 C4 1_555 1_555
C5 C4 1_555 1_555
H4 C5 1_555 1_555
C6 C1 1_555 1_555
C7 C6 1_555 1_555
H5 C7 1_555 1_555
H6 C7 1_555 1_555
C8 O1 1_555 1_555
C9 N1 1_555 1_555
C10 C1 1_555 1_555
H7 C10 1_555 1_555
H8 C10 1_555 1_555
N1 C7 1_555 1_555
N2 C9 1_555 1_555
C11 C9 1_555 1_555
C12 C11 1_555 1_555
H9 C12 1_555 1_555
H10 C12 1_555 1_555
H13 C11 1_555 1_555
C1B C2B 1_555 1_555
C2B H1B 1_555 1_555
C3B C2B 1_555 1_555
H2B C3B 1_555 1_555
C4B C3B 1_555 1_555
H3B C4B 1_555 1_555
C5B C4B 1_555 1_555
H4B C5B 1_555 1_555
C6B C1B 1_555 1_555
C7B C6B 1_555 1_555
H5B C7B 1_555 1_555
H6B C7B 1_555 1_555
C8B N2 1_555 1_555
C9B C9 1_555 1_555
C10B C1B 1_555 1_555
H7B C10B 1_555 1_555
H8B C10B 1_555 1_555
O1B C8B 1_555 1_555
N1B C7B 1_555 1_555
N2B C8 1_555 1_555
C11B C9B 1_555 1_555
C12B C12 1_555 1_555
H9B C12B 1_555 1_555
H10B C12B 1_555 1_555
H13B C11B 1_555 1_555
C5 C6 1_555 1_555
C8 N1 1_555 1_555
C10 N2 1_555 1_555
C5B C6B 1_555 1_555
C8B N1B 1_555 1_555
C9B N1B 1_555 1_555
C9B N2B 1_555 1_555
C10B N2B 1_555 1_555
C11B C12B 1_555 1_555

#END
