
#######################################################################
#
#                 Cambridge Crystallographic Data Centre
#                                CCDC 
#
#######################################################################
#
# If this CIF has been generated from an entry in the Cambridge 
# Structural Database, then it will include bibliographic, chemical, 
# crystal, experimental, refinement or atomic coordinate data resulting 
# from the CCDC's data processing and validation procedures.
#
#######################################################################

data_BOFDAD
_chemical_formula_moiety         'C20 H20 O3 S1'
_chemical_name_systematic        
3-(3-furyl)-6-methyl-8a-(phenylsulfanyl)-3,4,4a,7,8,8a-hexahydro-1H-isochromen-1-one
_symmetry_cell_setting           monoclinic
_symmetry_space_group_name_H-M   'P 21/c'
_symmetry_Int_Tables_number      14
_space_group_name_Hall           '-P 2ybc'
loop_
_symmetry_equiv_pos_site_id
_symmetry_equiv_pos_as_xyz
1 x,y,z
2 -x,1/2+y,1/2-z
3 -x,-y,-z
4 x,1/2-y,1/2+z
_cell_length_a                   8.855(3)
_cell_length_b                   11.639(1)
_cell_length_c                   17.251(2)
_cell_angle_alpha                90
_cell_angle_beta                 95.89(1)
_cell_angle_gamma                90
_cell_volume                     1768.56
_exptl_crystal_colour            colorless
_exptl_crystal_description       block
_cell_formula_units_Z            4
loop_
_atom_site_label
_atom_site_type_symbol
_atom_site_fract_x
_atom_site_fract_y
_atom_site_fract_z
S1 S 0.41334(5) 0.65240(4) 0.17062(3)
O1 O 0.17150(13) 0.83741(10) 0.09219(7)
O2 O 0.03985(13) 0.67836(11) 0.08405(8)
O3 O 0.28069(18) 1.20573(11) 0.11881(9)
C1 C 0.31777(18) 0.89516(14) 0.09081(10)
H1 H 0.3841 0.8776 0.1398
C2 C 0.16192(18) 0.72290(14) 0.08229(9)
C3 C 0.30647(18) 0.65694(14) 0.07213(9)
C4 C 0.2722(2) 0.53443(15) 0.04417(11)
H2 H 0.3679 0.4899 0.0477
H3 H 0.2040 0.4975 0.0788
C5 C 0.1980(2) 0.53091(17) -0.03902(11)
H4 H 0.1948 0.4504 -0.0576
H5 H 0.0920 0.5585 -0.0401
C6 C 0.2801(2) 0.60272(16) -0.09296(11)
C7 C 0.3766(2) 0.68350(16) -0.06573(11)
H6 H 0.4307 0.7221 -0.1028
C8 C 0.40937(19) 0.72048(14) 0.01800(10)
H7 H 0.5174 0.7009 0.0356
C9 C 0.3923(2) 0.85209(16) 0.02128(13)
H8 H 0.4942 0.8874 0.0222
H9 H 0.3315 0.8781 -0.0269
C10 C 0.2453(3) 0.5777(2) -0.17805(12)
H10 H 0.3074 0.6273 -0.2080
H11 H 0.1376 0.5926 -0.1938
H12 H 0.2683 0.4970 -0.1880
C11 C 0.28223(18) 1.02040(14) 0.08738(9)
C12 C 0.3321(2) 1.09941(16) 0.13992(11)
H13 H 0.3957 1.0832 0.1864
C13 C 0.1941(2) 1.19191(17) 0.05056(13)
H14 H 0.1422 1.2523 0.0219
C14 C 0.1910(2) 1.08244(17) 0.02876(11)
H15 H 0.1380 1.0514 -0.0172
C15 C 0.2994(2) 0.56356(16) 0.22524(10)
C16 C 0.1829(2) 0.6087(2) 0.26326(12)
H16 H 0.1595 0.6882 0.2591
C17 C 0.0995(3) 0.5367(3) 0.30788(13)
H17 H 0.0189 0.5675 0.3337
C18 C 0.1339(3) 0.4217(2) 0.31451(12)
H18 H 0.0770 0.3731 0.3449
C19 C 0.2500(3) 0.3774(2) 0.27737(13)
H19 H 0.2738 0.2980 0.2824
C20 C 0.3330(2) 0.44705(17) 0.23262(12)
H20 H 0.4132 0.4153 0.2068
loop_
_geom_bond_atom_site_label_1
_geom_bond_atom_site_label_2
_geom_bond_site_symmetry_1
_geom_bond_site_symmetry_2
S1 C3 1_555 1_555
O1 C1 1_555 1_555
O2 C2 1_555 1_555
O3 C12 1_555 1_555
C1 H1 1_555 1_555
C2 O1 1_555 1_555
C3 C2 1_555 1_555
C4 C3 1_555 1_555
H2 C4 1_555 1_555
H3 C4 1_555 1_555
C5 C4 1_555 1_555
H4 C5 1_555 1_555
H5 C5 1_555 1_555
C6 C5 1_555 1_555
C7 C6 1_555 1_555
H6 C7 1_555 1_555
C8 C3 1_555 1_555
H7 C8 1_555 1_555
C9 C1 1_555 1_555
H8 C9 1_555 1_555
H9 C9 1_555 1_555
C10 C6 1_555 1_555
H10 C10 1_555 1_555
H11 C10 1_555 1_555
H12 C10 1_555 1_555
C11 C1 1_555 1_555
C12 C11 1_555 1_555
H13 C12 1_555 1_555
C13 O3 1_555 1_555
H14 C13 1_555 1_555
C14 C11 1_555 1_555
H15 C14 1_555 1_555
C15 S1 1_555 1_555
C16 C15 1_555 1_555
H16 C16 1_555 1_555
C17 C16 1_555 1_555
H17 C17 1_555 1_555
C18 C17 1_555 1_555
H18 C18 1_555 1_555
C19 C18 1_555 1_555
H19 C19 1_555 1_555
C20 C15 1_555 1_555
H20 C20 1_555 1_555
C7 C8 1_555 1_555
C8 C9 1_555 1_555
C13 C14 1_555 1_555
C19 C20 1_555 1_555

#END
