
#######################################################################
#
#                 Cambridge Crystallographic Data Centre
#                                CCDC 
#
#######################################################################
#
# If this CIF has been generated from an entry in the Cambridge 
# Structural Database, then it will include bibliographic, chemical, 
# crystal, experimental, refinement or atomic coordinate data resulting 
# from the CCDC's data processing and validation procedures.
#
#######################################################################

data_BOGREV
_chemical_name_common            
4-Phenyl-3,4-dihydropyrimido[1,2-a]benzimidazol-2(1H)-one
_chemical_formula_moiety         'C16 H13 N3 O1'
_chemical_name_systematic        
4-Phenyl-1,2,3,4-tetrahydropyrimido(1,2-a)benzimidazol-2-one
_symmetry_cell_setting           orthorhombic
_symmetry_space_group_name_H-M   'P b c a'
_symmetry_Int_Tables_number      61
_space_group_name_Hall           '-P 2ac 2ab'
loop_
_symmetry_equiv_pos_site_id
_symmetry_equiv_pos_as_xyz
1 x,y,z
2 1/2-x,-y,1/2+z
3 -x,1/2+y,1/2-z
4 1/2+x,1/2-y,-z
5 -x,-y,-z
6 1/2+x,y,1/2-z
7 x,1/2-y,1/2+z
8 1/2-x,1/2+y,z
_cell_length_a                   13.606(3)
_cell_length_b                   7.5674(15)
_cell_length_c                   24.578(5)
_cell_angle_alpha                90
_cell_angle_beta                 90
_cell_angle_gamma                90
_cell_volume                     2530.6
_exptl_crystal_colour            colorless
_exptl_crystal_description       block
_cell_formula_units_Z            8
_exptl_crystal_recrystallization_method ethanol
loop_
_atom_site_label
_atom_site_type_symbol
_atom_site_fract_x
_atom_site_fract_y
_atom_site_fract_z
O1 O 1.17082(8) -0.08466(14) 0.37667(4)
N1 N 1.05925(9) 0.04671(16) 0.43091(5)
N2 N 0.98285(9) 0.31430(15) 0.40471(4)
N3 N 0.95726(9) 0.21752(16) 0.48971(5)
C1 C 1.11740(10) 0.0412(2) 0.38584(6)
C2 C 1.11420(10) 0.2022(2) 0.34972(6)
H1 H 1.1314 0.1673 0.3130
H2 H 1.1635 0.2856 0.3621
C3 C 1.01412(10) 0.29573(19) 0.34843(5)
H3 H 1.0234 0.4141 0.3331
C4 C 1.00072(10) 0.18918(18) 0.44299(5)
C5 C 0.93882(10) 0.19885(19) 0.31400(6)
C6 C 0.93352(11) 0.2371(2) 0.25863(6)
H4 H 0.9748 0.3225 0.2438
C7 C 0.86734(12) 0.1491(2) 0.22546(6)
H5 H 0.8639 0.1764 0.1886
C8 C 0.80641(11) 0.0207(2) 0.24712(6)
H6 H 0.7624 -0.0392 0.2248
C9 C 0.81109(11) -0.0182(2) 0.30193(6)
H7 H 0.7702 -0.1045 0.3165
C10 C 0.87656(11) 0.0711(2) 0.33525(6)
H8 H 0.8788 0.0451 0.3722
C11 C 0.92020(10) 0.43649(18) 0.42860(6)
C12 C 0.87700(10) 0.58958(19) 0.40932(6)
H9 H 0.8868 0.6287 0.3739
C13 C 0.81828(11) 0.6814(2) 0.44562(6)
H10 H 0.7873 0.7846 0.4343
C14 C 0.80457(11) 0.6224(2) 0.49899(6)
H11 H 0.7646 0.6873 0.5223
C15 C 0.84877(10) 0.47015(19) 0.51797(6)
H12 H 0.8403 0.4329 0.5537
C16 C 0.90620(10) 0.37505(19) 0.48182(5)
H13 H 1.0597(14) -0.043(2) 0.4548(6)
loop_
_geom_bond_atom_site_label_1
_geom_bond_atom_site_label_2
_geom_bond_site_symmetry_1
_geom_bond_site_symmetry_2
O1 C1 1_555 1_555
N1 C1 1_555 1_555
N2 C3 1_555 1_555
N3 C4 1_555 1_555
C1 C2 1_555 1_555
C2 H1 1_555 1_555
H2 C2 1_555 1_555
C3 C2 1_555 1_555
H3 C3 1_555 1_555
C4 N1 1_555 1_555
C5 C3 1_555 1_555
C6 C5 1_555 1_555
H4 C6 1_555 1_555
C7 C6 1_555 1_555
H5 C7 1_555 1_555
C8 C7 1_555 1_555
H6 C8 1_555 1_555
C9 C8 1_555 1_555
H7 C9 1_555 1_555
C10 C5 1_555 1_555
H8 C10 1_555 1_555
C11 N2 1_555 1_555
C12 C11 1_555 1_555
H9 C12 1_555 1_555
C13 C12 1_555 1_555
H10 C13 1_555 1_555
C14 C13 1_555 1_555
H11 C14 1_555 1_555
C15 C14 1_555 1_555
H12 C15 1_555 1_555
C16 N3 1_555 1_555
H13 N1 1_555 1_555
N2 C4 1_555 1_555
C9 C10 1_555 1_555
C11 C16 1_555 1_555
C15 C16 1_555 1_555

#END
