
#######################################################################
#
#                 Cambridge Crystallographic Data Centre
#                                CCDC 
#
#######################################################################
#
# If this CIF has been generated from an entry in the Cambridge 
# Structural Database, then it will include bibliographic, chemical, 
# crystal, experimental, refinement or atomic coordinate data resulting 
# from the CCDC's data processing and validation procedures.
#
#######################################################################

data_BOGRIZ
_chemical_formula_moiety         '2(C11 H14 N2 O3),C16 H16 N2 O4'
_chemical_name_systematic        
'bis(2-Hydroxy-4-methyl-N-propanoylbenzohydrazide) 2-hydroxy-N-(2-hydroxy-4-methylbenzoyl)-6-methylbenzohydrazide'
_symmetry_cell_setting           triclinic
_symmetry_space_group_name_H-M   'P -1'
_symmetry_Int_Tables_number      2
_space_group_name_Hall           '-P 1'
loop_
_symmetry_equiv_pos_site_id
_symmetry_equiv_pos_as_xyz
1 x,y,z
2 -x,-y,-z
_cell_length_a                   6.5778(10)
_cell_length_b                   10.7618(17)
_cell_length_c                   13.936(2)
_cell_angle_alpha                109.522(3)
_cell_angle_beta                 93.6080(10)
_cell_angle_gamma                104.448(4)
_cell_volume                     888.755
_exptl_crystal_colour            colorless
_exptl_crystal_description       block
_cell_formula_units_Z            1
loop_
_atom_site_label
_atom_site_type_symbol
_atom_site_fract_x
_atom_site_fract_y
_atom_site_fract_z
C1 C 0.5753(4) 1.1759(2) 0.25135(19)
H1 H 0.6241 1.2745 0.2819
H2 H 0.5448 1.1483 0.1777
H3 H 0.6836 1.1382 0.2689
C2 C 0.3767(3) 1.1237(2) 0.29126(16)
C3 C 0.2717(3) 1.2119(2) 0.35009(16)
H4 H 0.3247 1.3062 0.3659
C4 C 0.0896(3) 1.1610(2) 0.38542(16)
H5 H 0.0227 1.2222 0.4251
C5 C 0.2941(3) 0.9840(2) 0.27002(16)
H6 H 0.3639 0.9236 0.2317
C6 C 0.1100(3) 0.9315(2) 0.30440(15)
C7 C 0.0027(3) 1.0199(2) 0.36312(15)
C8 C -0.1966(3) 0.9769(2) 0.40407(15)
C9 C -0.5330(3) 0.6593(2) 0.40029(15)
C10 C -0.7217(3) 0.6153(2) 0.44886(17)
H7 H -0.7506 0.6963 0.4956
H8 H -0.6883 0.5625 0.4890
C11 C -0.9200(4) 0.5283(3) 0.3690(2)
H9 H -1.0362 0.5022 0.4034
H10 H -0.8929 0.4472 0.3232
H11 H -0.9558 0.5809 0.3303
N1 N -0.2872(3) 0.84114(17) 0.37670(13)
H18 H -0.2337 0.7838 0.3347
N2 N -0.4659(3) 0.79291(17) 0.41560(13)
H19 H -0.5328 0.8484 0.4492
O2 O 0.0312(2) 0.79309(14) 0.28105(11)
H20 H 0.1084 0.7533 0.2467
O3 O -0.2773(2) 1.06102(14) 0.45964(11)
O4 O -0.4433(2) 0.57635(14) 0.34881(11)
C12 C 0.0539(4) 0.8165(3) -0.0799(2)
H12 H 0.0282 0.8592 -0.1281
H13 H 0.1120 0.7422 -0.1122
H14 H 0.1528 0.8831 -0.0208
C13 C -0.1525(3) 0.7613(2) -0.04652(17)
C14 C -0.1808(3) 0.8096(2) 0.05601(17)
H15 H -0.0707 0.8769 0.1054
C15 C -0.3190(3) 0.6616(2) -0.11824(16)
H16 H -0.3015 0.6282 -0.1870
C16 C -0.5116(3) 0.6101(2) -0.08999(16)
C17 C -0.3713(3) 0.7582(2) 0.08499(17)
H17 H -0.3864 0.7910 0.1541
C18 C -0.5413(3) 0.6587(2) 0.01368(16)
C19 C -0.7400(3) 0.6131(2) 0.05327(16)
O1 O -0.7540(2) 0.65694(15) 0.14648(11)
N3 N -0.9057(3) 0.52334(18) -0.01587(15)
O5 O -0.6754(2) 0.51267(15) -0.16289(12)
H21 H -0.896(4) 0.490(2) -0.0786(19)
H22 H -0.632(4) 0.481(3) -0.223(2)
C12A C -2.0539(4) 0.1835(3) 0.0799(2)
H12A H -2.0282 0.1408 0.1281
H13A H -2.1120 0.2578 0.1122
H14A H -2.1528 0.1169 0.0208
C13A C -1.8475(3) 0.2387(2) 0.04652(17)
C14A C -1.8192(3) 0.1904(2) -0.05601(17)
H15A H -1.9293 0.1231 -0.1054
C15A C -1.6810(3) 0.3384(2) 0.11824(16)
H16A H -1.6985 0.3718 0.1870
C16A C -1.4884(3) 0.3899(2) 0.08999(16)
C17A C -1.6287(3) 0.2418(2) -0.08499(17)
H17A H -1.6136 0.2090 -0.1541
C18A C -1.4587(3) 0.3413(2) -0.01368(16)
C19A C -1.2600(3) 0.3869(2) -0.05327(16)
O1A O -1.2460(2) 0.34306(15) -0.14648(11)
N3A N -1.0943(3) 0.47666(18) 0.01587(15)
O5A O -1.3246(2) 0.48733(15) 0.16289(12)
H21A H -1.104(4) 0.510(2) 0.0786(19)
H22A H -1.368(4) 0.519(3) 0.223(2)
loop_
_geom_bond_atom_site_label_1
_geom_bond_atom_site_label_2
_geom_bond_site_symmetry_1
_geom_bond_site_symmetry_2
C1 H1 1_555 1_555
H2 C1 1_555 1_555
H3 C1 1_555 1_555
C2 C1 1_555 1_555
C3 C2 1_555 1_555
H4 C3 1_555 1_555
C4 C3 1_555 1_555
H5 C4 1_555 1_555
C5 C2 1_555 1_555
H6 C5 1_555 1_555
C6 C5 1_555 1_555
C7 C4 1_555 1_555
C8 C7 1_555 1_555
C9 C10 1_555 1_555
C10 H7 1_555 1_555
H8 C10 1_555 1_555
C11 C10 1_555 1_555
H9 C11 1_555 1_555
H10 C11 1_555 1_555
H11 C11 1_555 1_555
C12 H12 1_555 1_555
H13 C12 1_555 1_555
H14 C12 1_555 1_555
C13 C12 1_555 1_555
C14 C13 1_555 1_555
H15 C14 1_555 1_555
C15 C13 1_555 1_555
H16 C15 1_555 1_555
C16 C15 1_555 1_555
C17 C14 1_555 1_555
H17 C17 1_555 1_555
C18 C16 1_555 1_555
C19 C18 1_555 1_555
N1 C8 1_555 1_555
H18 N1 1_555 1_555
N2 C9 1_555 1_555
H19 N2 1_555 1_555
O1 C19 1_555 1_555
O2 C6 1_555 1_555
H20 O2 1_555 1_555
O3 C8 1_555 1_555
O4 C9 1_555 1_555
N3 C19 1_555 1_555
O5 C16 1_555 1_555
H21 N3 1_555 1_555
H22 O5 1_555 1_555
C12A H12A 1_555 1_555
H13A C12A 1_555 1_555
H14A C12A 1_555 1_555
C13A C12A 1_555 1_555
C14A C13A 1_555 1_555
H15A C14A 1_555 1_555
C15A C13A 1_555 1_555
H16A C15A 1_555 1_555
C16A C15A 1_555 1_555
C17A C14A 1_555 1_555
H17A C17A 1_555 1_555
C18A C16A 1_555 1_555
C19A C18A 1_555 1_555
O1A C19A 1_555 1_555
N3A N3 1_555 1_555
O5A C16A 1_555 1_555
H21A N3A 1_555 1_555
H22A O5A 1_555 1_555
C6 C7 1_555 1_555
C17 C18 1_555 1_555
N1 N2 1_555 1_555
C17A C18A 1_555 1_555
C19A N3A 1_555 1_555

#END
