
#######################################################################
#
#                 Cambridge Crystallographic Data Centre
#                                CCDC 
#
#######################################################################
#
# If this CIF has been generated from an entry in the Cambridge 
# Structural Database, then it will include bibliographic, chemical, 
# crystal, experimental, refinement or atomic coordinate data resulting 
# from the CCDC's data processing and validation procedures.
#
#######################################################################

data_BOGYUS
_chemical_formula_moiety         'C17 H16 N2 O2'
_chemical_name_systematic        
'Ethyl 3,3-dicyano-2-phenylcyclopentene-4-carboxylate'
_symmetry_cell_setting           orthorhombic
_symmetry_space_group_name_H-M   'P 21 21 21'
_symmetry_Int_Tables_number      19
_space_group_name_Hall           'P 2ac 2ab'
loop_
_symmetry_equiv_pos_site_id
_symmetry_equiv_pos_as_xyz
1 x,y,z
2 1/2-x,-y,1/2+z
3 -x,1/2+y,1/2-z
4 1/2+x,1/2-y,-z
_cell_length_a                   7.8235(7)
_cell_length_b                   18.7193(18)
_cell_length_c                   20.708(2)
_cell_angle_alpha                90
_cell_angle_beta                 90
_cell_angle_gamma                90
_cell_volume                     3032.7
_exptl_crystal_colour            colorless
_exptl_crystal_description       prismatic
_chemical_melting_point          '64-65 deg.C'
_cell_formula_units_Z            8
loop_
_atom_site_label
_atom_site_type_symbol
_atom_site_fract_x
_atom_site_fract_y
_atom_site_fract_z
N1 N -0.1792(8) 0.6656(3) 0.1807(3)
N2 N 0.0711(8) 0.7256(3) 0.0074(3)
O1 O 0.1111(10) 0.5479(3) 0.1447(4)
O2 O 0.2778(8) 0.5222(3) 0.0635(3)
C1 C 0.0939(7) 0.7250(3) 0.1325(3)
C2 C 0.1137(7) 0.8024(3) 0.1580(2)
C3 C 0.2739(7) 0.8112(3) 0.1776(3)
H1 H 0.3131 0.8539 0.1951
C4 C 0.3867(8) 0.7473(3) 0.1697(3)
H2 H 0.4524 0.7382 0.2086
H3 H 0.4645 0.7533 0.1336
C5 C 0.2613(8) 0.6878(3) 0.1570(3)
H4 H 0.2341 0.6666 0.1990
C6 C 0.3294(9) 0.6299(3) 0.1165(4)
H5 H 0.3508 0.6492 0.0737
H6 H 0.4389 0.6155 0.1342
C7 C 0.2263(11) 0.5670(4) 0.1093(5)
C8 C 0.1863(12) 0.4550(4) 0.0557(4)
H7 H 0.0674 0.4638 0.0449
H8 H 0.1908 0.4272 0.0952
C9 C 0.2728(12) 0.4166(4) 0.0025(4)
H9 H 0.2563 0.4421 -0.0372
H10 H 0.2255 0.3695 -0.0014
H11 H 0.3928 0.4132 0.0117
C10 C -0.0599(8) 0.6911(3) 0.1591(3)
C11 C 0.0793(8) 0.7248(3) 0.0624(3)
C12 C -0.0221(7) 0.8562(3) 0.1571(3)
C13 C -0.0076(8) 0.9198(3) 0.1913(3)
H12 H 0.0880 0.9272 0.2171
C14 C -0.1300(12) 0.9718(4) 0.1881(4)
H13 H -0.1169 1.0137 0.2117
C15 C -0.2676(10) 0.9625(4) 0.1515(4)
H14 H -0.3477 0.9990 0.1484
C16 C -0.2941(9) 0.8999(4) 0.1179(3)
H15 H -0.3942 0.8931 0.0944
C17 C -0.1689(8) 0.8470(3) 0.1194(3)
H16 H -0.1829 0.8055 0.0953
N3 N 0.4015(8) 0.2251(3) 0.0035(3)
N4 N 0.6420(7) 0.1538(3) 0.1769(3)
O3 O 0.3489(9) 0.0404(3) 0.1280(4)
O4 O 0.1830(8) 0.0177(3) 0.0467(3)
C18 C 0.3712(7) 0.2163(3) 0.1286(2)
C19 C 0.3485(7) 0.2913(3) 0.1581(2)
C20 C 0.1879(8) 0.2984(3) 0.1773(3)
H17 H 0.1481 0.3394 0.1977
C21 C 0.0774(8) 0.2366(3) 0.1639(3)
H18 H 0.0037 0.2457 0.1271
H19 H 0.0074 0.2249 0.2011
C22 C 0.2028(8) 0.1782(3) 0.1496(3)
H20 H 0.2265 0.1537 0.1904
C23 C 0.1347(9) 0.1231(3) 0.1034(3)
H21 H 0.0229 0.1084 0.1186
H22 H 0.1185 0.1460 0.0618
C24 C 0.2383(10) 0.0584(4) 0.0933(5)
C25 C 0.2735(11) -0.0503(4) 0.0366(4)
H23 H 0.3918 -0.0417 0.0249
H24 H 0.2706 -0.0791 0.0755
C26 C 0.1847(14) -0.0857(4) -0.0151(4)
H25 H 0.0636 -0.0808 -0.0090
H26 H 0.2146 -0.1354 -0.0154
H27 H 0.2165 -0.0645 -0.0556
C27 C 0.3933(7) 0.2212(3) 0.0580(3)
C28 C 0.5246(8) 0.1796(3) 0.1555(3)
C29 C 0.4857(8) 0.3446(3) 0.1602(2)
C30 C 0.4683(9) 0.4053(3) 0.1975(3)
H28 H 0.3711 0.4099 0.2230
C31 C 0.5858(12) 0.4587(4) 0.1988(3)
H29 H 0.5669 0.4994 0.2236
C32 C 0.7335(11) 0.4519(4) 0.1629(4)
H30 H 0.8165 0.4875 0.1638
C33 C 0.7561(8) 0.3919(4) 0.1258(3)
H31 H 0.8544 0.3872 0.1009
C34 C 0.6358(8) 0.3390(3) 0.1251(3)
H32 H 0.6551 0.2982 0.1004
loop_
_geom_bond_atom_site_label_1
_geom_bond_atom_site_label_2
_geom_bond_site_symmetry_1
_geom_bond_site_symmetry_2
N1 C10 1_555 1_555
N2 C11 1_555 1_555
N3 C27 1_555 1_555
N4 C28 1_555 1_555
O1 C7 1_555 1_555
O2 C7 1_555 1_555
O3 C24 1_555 1_555
O4 C24 1_555 1_555
C1 C2 1_555 1_555
C2 C3 1_555 1_555
C3 H1 1_555 1_555
C4 C3 1_555 1_555
H2 C4 1_555 1_555
H3 C4 1_555 1_555
C5 C1 1_555 1_555
H4 C5 1_555 1_555
C6 C5 1_555 1_555
H5 C6 1_555 1_555
H6 C6 1_555 1_555
C7 C6 1_555 1_555
C8 O2 1_555 1_555
H7 C8 1_555 1_555
H8 C8 1_555 1_555
C9 C8 1_555 1_555
H9 C9 1_555 1_555
H10 C9 1_555 1_555
H11 C9 1_555 1_555
C10 C1 1_555 1_555
C11 C1 1_555 1_555
C12 C2 1_555 1_555
C13 C12 1_555 1_555
H12 C13 1_555 1_555
C14 C13 1_555 1_555
H13 C14 1_555 1_555
C15 C14 1_555 1_555
H14 C15 1_555 1_555
C16 C15 1_555 1_555
H15 C16 1_555 1_555
C17 C12 1_555 1_555
H16 C17 1_555 1_555
C18 C19 1_555 1_555
C19 C20 1_555 1_555
C20 H17 1_555 1_555
C21 C20 1_555 1_555
H18 C21 1_555 1_555
H19 C21 1_555 1_555
C22 C18 1_555 1_555
H20 C22 1_555 1_555
C23 C22 1_555 1_555
H21 C23 1_555 1_555
H22 C23 1_555 1_555
C24 C23 1_555 1_555
C25 O4 1_555 1_555
H23 C25 1_555 1_555
H24 C25 1_555 1_555
C26 C25 1_555 1_555
H25 C26 1_555 1_555
H26 C26 1_555 1_555
H27 C26 1_555 1_555
C27 C18 1_555 1_555
C28 C18 1_555 1_555
C29 C19 1_555 1_555
C30 C29 1_555 1_555
H28 C30 1_555 1_555
C31 C30 1_555 1_555
H29 C31 1_555 1_555
C32 C31 1_555 1_555
H30 C32 1_555 1_555
C33 C32 1_555 1_555
H31 C33 1_555 1_555
C34 C29 1_555 1_555
H32 C34 1_555 1_555
C4 C5 1_555 1_555
C16 C17 1_555 1_555
C21 C22 1_555 1_555
C33 C34 1_555 1_555

#END
