
#######################################################################
#
#                 Cambridge Crystallographic Data Centre
#                                CCDC 
#
#######################################################################
#
# If this CIF has been generated from an entry in the Cambridge 
# Structural Database, then it will include bibliographic, chemical, 
# crystal, experimental, refinement or atomic coordinate data resulting 
# from the CCDC's data processing and validation procedures.
#
#######################################################################

data_BOHMIW
_chemical_formula_moiety         'C27 H36 N2 Se1'
_chemical_name_systematic        
1,3-bis(2,6-di-isopropylphenyl)-1,3-dihydro-2H-imidazole-2-selenone
_symmetry_cell_setting           monoclinic
_symmetry_space_group_name_H-M   'P 21/n'
_symmetry_Int_Tables_number      14
_space_group_name_Hall           '-P 2yn'
loop_
_symmetry_equiv_pos_site_id
_symmetry_equiv_pos_as_xyz
1 x,y,z
2 1/2-x,1/2+y,1/2-z
3 -x,-y,-z
4 1/2+x,1/2-y,1/2+z
_cell_length_a                   19.55(3)
_cell_length_b                   7.027(12)
_cell_length_c                   20.40(4)
_cell_angle_alpha                90
_cell_angle_beta                 101.251(16)
_cell_angle_gamma                90
_cell_volume                     2748.65
_exptl_crystal_colour            colorless
_exptl_crystal_description       prism
_cell_formula_units_Z            4
loop_
_atom_site_label
_atom_site_type_symbol
_atom_site_fract_x
_atom_site_fract_y
_atom_site_fract_z
Se1 Se 0.43666(3) 1.03558(10) 0.74561(4)
N1 N 0.4670(3) 0.6270(8) 0.7427(3)
N2 N 0.5602(3) 0.8045(7) 0.7460(3)
C1 C 0.4893(3) 0.8167(9) 0.7447(3)
C2 C 0.5232(3) 0.5058(9) 0.7416(4)
C3 C 0.5810(4) 0.6152(10) 0.7433(4)
C4 C 0.3946(3) 0.5705(8) 0.7402(4)
C5 C 0.3485(3) 0.5565(9) 0.6769(4)
C6 C 0.2807(4) 0.4976(9) 0.6769(4)
C7 C 0.2581(4) 0.4476(11) 0.7352(5)
C8 C 0.3031(4) 0.4612(10) 0.7955(5)
C9 C 0.3732(4) 0.5244(9) 0.8002(4)
C10 C 0.3719(5) 0.6107(14) 0.6118(4)
C11 C 0.3328(6) 0.7822(14) 0.5779(5)
C12 C 0.3651(6) 0.4358(16) 0.5646(5)
C13 C 0.4229(4) 0.5371(11) 0.8687(4)
C14 C 0.4071(6) 0.7177(13) 0.9065(5)
C15 C 0.4199(6) 0.3554(14) 0.9116(5)
C16 C 0.6096(3) 0.9622(9) 0.7532(4)
C17 C 0.6211(3) 1.0626(9) 0.6968(4)
C18 C 0.6743(3) 1.1993(9) 0.7062(4)
C19 C 0.7115(4) 1.2400(10) 0.7700(5)
C20 C 0.6980(4) 1.1463(11) 0.8257(4)
C21 C 0.6449(3) 1.0061(9) 0.8189(4)
C22 C 0.5802(4) 1.0172(11) 0.6273(4)
C23 C 0.5595(6) 1.1963(13) 0.5843(4)
C24 C 0.6201(5) 0.8783(14) 0.5897(4)
C25 C 0.6284(4) 0.9036(14) 0.8805(4)
C26 C 0.6116(7) 1.0448(17) 0.9327(5)
C27 C 0.6856(6) 0.7671(17) 0.9112(5)
H1 H 0.52146 0.37075 0.73996
H2 H 0.62683 0.57103 0.74273
H3 H 0.24848 0.49121 0.63555
H4 H 0.21174 0.40418 0.7332
H5 H 0.28727 0.42775 0.83515
H6 H 0.42241 0.6453 0.62348
H7 H 0.34297 0.89356 0.60714
H8 H 0.28261 0.75653 0.56926
H9 H 0.34774 0.80713 0.53557
H10 H 0.39004 0.46083 0.52818
H11 H 0.31575 0.41231 0.54589
H12 H 0.38526 0.32383 0.58981
H13 H 0.4715 0.54895 0.86044
H14 H 0.36034 0.70773 0.91678
H15 H 0.40941 0.82995 0.87846
H16 H 0.4416 0.72991 0.94814
H17 H 0.37254 0.3391 0.91988
H18 H 0.45267 0.36855 0.95434
H19 H 0.43266 0.24408 0.88764
H20 H 0.68498 1.26482 0.66874
H21 H 0.74701 1.33422 0.77535
H22 H 0.72442 1.17594 0.86864
H23 H 0.53616 0.9525 0.63283
H24 H 0.60129 1.27134 0.58229
H25 H 0.52702 1.27319 0.60419
H26 H 0.53696 1.15817 0.53898
H27 H 0.6249 0.75493 0.61254
H28 H 0.66651 0.92995 0.58884
H29 H 0.59428 0.86181 0.54379
H30 H 0.5855 0.82599 0.86485
H31 H 0.65406 1.1134 0.95313
H32 H 0.59357 0.9751 0.96736
H33 H 0.57639 1.13579 0.91094
H34 H 0.72901 0.83777 0.92638
H35 H 0.6926 0.67263 0.87776
H36 H 0.67221 0.70231 0.94934
loop_
_geom_bond_atom_site_label_1
_geom_bond_atom_site_label_2
_geom_bond_site_symmetry_1
_geom_bond_site_symmetry_2
Se1 C1 1_555 1_555
N1 C1 1_555 1_555
N2 C1 1_555 1_555
C2 N1 1_555 1_555
C3 N2 1_555 1_555
C4 N1 1_555 1_555
C5 C4 1_555 1_555
C6 C5 1_555 1_555
C7 C6 1_555 1_555
C8 C7 1_555 1_555
C9 C4 1_555 1_555
C10 C5 1_555 1_555
C11 C10 1_555 1_555
C12 C10 1_555 1_555
C13 C9 1_555 1_555
C14 C13 1_555 1_555
C15 C13 1_555 1_555
C16 N2 1_555 1_555
C17 C16 1_555 1_555
C18 C17 1_555 1_555
C19 C18 1_555 1_555
C20 C19 1_555 1_555
C21 C16 1_555 1_555
C22 C17 1_555 1_555
C23 C22 1_555 1_555
C24 C22 1_555 1_555
C25 C21 1_555 1_555
C26 C25 1_555 1_555
C27 C25 1_555 1_555
H1 C2 1_555 1_555
H2 C3 1_555 1_555
H3 C6 1_555 1_555
H4 C7 1_555 1_555
H5 C8 1_555 1_555
H6 C10 1_555 1_555
H7 C11 1_555 1_555
H8 C11 1_555 1_555
H9 C11 1_555 1_555
H10 C12 1_555 1_555
H11 C12 1_555 1_555
H12 C12 1_555 1_555
H13 C13 1_555 1_555
H14 C14 1_555 1_555
H15 C14 1_555 1_555
H16 C14 1_555 1_555
H17 C15 1_555 1_555
H18 C15 1_555 1_555
H19 C15 1_555 1_555
H20 C18 1_555 1_555
H21 C19 1_555 1_555
H22 C20 1_555 1_555
H23 C22 1_555 1_555
H24 C23 1_555 1_555
H25 C23 1_555 1_555
H26 C23 1_555 1_555
H27 C24 1_555 1_555
H28 C24 1_555 1_555
H29 C24 1_555 1_555
H30 C25 1_555 1_555
H31 C26 1_555 1_555
H32 C26 1_555 1_555
H33 C26 1_555 1_555
H34 C27 1_555 1_555
H35 C27 1_555 1_555
H36 C27 1_555 1_555
C2 C3 1_555 1_555
C8 C9 1_555 1_555
C20 C21 1_555 1_555

#END
