
#######################################################################
#
#                 Cambridge Crystallographic Data Centre
#                                CCDC 
#
#######################################################################
#
# If this CIF has been generated from an entry in the Cambridge 
# Structural Database, then it will include bibliographic, chemical, 
# crystal, experimental, refinement or atomic coordinate data resulting 
# from the CCDC's data processing and validation procedures.
#
#######################################################################

data_BOHNET
_chemical_formula_moiety         'C29 H42 N2 O2 Se1'
_chemical_name_systematic        
1,3-bis(2,6-diisopropyl-4-methoxyphenyl)imidazolidine-2-selone
_symmetry_cell_setting           orthorhombic
_symmetry_space_group_name_H-M   'P 21 21 21'
_symmetry_Int_Tables_number      19
_space_group_name_Hall           'P 2ac 2ab'
loop_
_symmetry_equiv_pos_site_id
_symmetry_equiv_pos_as_xyz
1 x,y,z
2 1/2+x,1/2-y,-z
3 -x,1/2+y,1/2-z
4 1/2-x,-y,1/2+z
_cell_length_a                   10.9976(9)
_cell_length_b                   13.7065(10)
_cell_length_c                   18.7135(15)
_cell_angle_alpha                90
_cell_angle_beta                 90
_cell_angle_gamma                90
_cell_volume                     2820.85
_exptl_crystal_colour            colorless
_exptl_crystal_description       prism
_cell_formula_units_Z            4
loop_
_atom_site_label
_atom_site_type_symbol
_atom_site_fract_x
_atom_site_fract_y
_atom_site_fract_z
Se1 Se 0.18391(2) 0.27378(2) 0.07631(2)
O1 O 0.26939(15) -0.15494(11) 0.21906(9)
O2 O 0.26302(17) 0.73454(13) 0.00302(10)
N1 N 0.40922(15) 0.21899(13) 0.13665(9)
N2 N 0.41279(15) 0.36691(12) 0.09220(9)
C1 C 0.34326(17) 0.28723(14) 0.10298(10)
C2 C 0.53530(19) 0.25043(16) 0.14885(14)
C3 C 0.5324(2) 0.35706(16) 0.12664(13)
C4 C 0.36932(19) 0.12372(15) 0.15815(11)
C5 C 0.3129(2) 0.11212(15) 0.22450(11)
C6 C 0.2783(2) 0.01881(17) 0.24557(12)
C7 C 0.3010(2) -0.06050(15) 0.20221(11)
C8 C 0.3595(2) -0.04832(16) 0.13728(12)
C9 C 0.39237(19) 0.04396(16) 0.11343(12)
C10 C 0.2894(3) 0.19803(18) 0.27410(13)
C11 C 0.3708(4) 0.1923(3) 0.34043(18)
C12 C 0.1563(3) 0.2054(3) 0.2955(2)
C13 C 0.1794(3) -0.16877(18) 0.27248(14)
C14 C 0.4490(2) 0.05552(18) 0.03997(13)
C15 C 0.5607(3) -0.0073(2) 0.03050(16)
C16 C 0.3565(3) 0.0352(3) -0.01859(15)
C17 C 0.37078(17) 0.46156(14) 0.07055(12)
C18 C 0.3065(2) 0.51931(15) 0.11845(11)
C19 C 0.2709(2) 0.61260(16) 0.09672(12)
C20 C 0.2986(2) 0.64527(16) 0.02903(13)
C21 C 0.3648(2) 0.58737(16) -0.01763(12)
C22 C 0.40127(19) 0.49433(15) 0.00180(12)
C23 C 0.2739(2) 0.48521(19) 0.19356(13)
C24 C 0.3454(2) 0.5425(2) 0.24983(14)
C25 C 0.1383(3) 0.4916(2) 0.20737(16)
C26 C 0.1612(3) 0.7798(2) 0.03632(15)
C27 C 0.4671(2) 0.42830(16) -0.05080(12)
C28 C 0.5457(2) 0.48150(18) -0.10479(14)
C29 C 0.3782(2) 0.36106(18) -0.08906(14)
H1 H 0.59284 0.21266 0.11902
H2 H 0.55833 0.2434 0.19973
H3 H 0.53922 0.40058 0.16867
H4 H 0.59888 0.37215 0.09274
H5 H 0.23877 0.00965 0.29021
H6 H 0.37741 -0.10377 0.1087
H7 H 0.31107 0.25899 0.24765
H8 H 0.35713 0.24993 0.37041
H9 H 0.45623 0.19012 0.32567
H10 H 0.35103 0.13333 0.36764
H11 H 0.14341 0.26513 0.3232
H12 H 0.13405 0.14863 0.32453
H13 H 0.10556 0.20707 0.25242
H14 H 0.1556 -0.23765 0.27386
H15 H 0.10815 -0.12859 0.2614
H16 H 0.21232 -0.14962 0.31908
H17 H 0.47499 0.12511 0.03507
H18 H 0.59997 0.0087 -0.01502
H19 H 0.53702 -0.07621 0.03056
H20 H 0.61752 0.00495 0.06983
H21 H 0.3329 -0.03375 -0.01712
H22 H 0.39246 0.05011 -0.06524
H23 H 0.28447 0.07605 -0.01116
H24 H 0.22751 0.6536 0.12873
H25 H 0.3854 0.61182 -0.06356
H26 H 0.29811 0.4151 0.19769
H27 H 0.32146 0.61135 0.24811
H28 H 0.43267 0.53687 0.24002
H29 H 0.3279 0.51605 0.29737
H30 H 0.09444 0.45641 0.16974
H31 H 0.11309 0.56014 0.20743
H32 H 0.11965 0.46224 0.25386
H33 H 0.18291 0.79912 0.08508
H34 H 0.09309 0.73366 0.03787
H35 H 0.13736 0.83762 0.00891
H36 H 0.52253 0.38572 -0.02214
H37 H 0.49416 0.52232 -0.13531
H38 H 0.58913 0.43386 -0.13433
H39 H 0.60455 0.52271 -0.0796
H40 H 0.3232 0.40002 -0.11877
H41 H 0.33083 0.32451 -0.0537
H42 H 0.42341 0.31536 -0.11934
loop_
_geom_bond_atom_site_label_1
_geom_bond_atom_site_label_2
_geom_bond_site_symmetry_1
_geom_bond_site_symmetry_2
Se1 C1 1_555 1_555
O1 C7 1_555 1_555
O2 C20 1_555 1_555
N1 C1 1_555 1_555
N2 C1 1_555 1_555
C2 N1 1_555 1_555
C3 N2 1_555 1_555
C4 N1 1_555 1_555
C5 C4 1_555 1_555
C6 C5 1_555 1_555
C7 C6 1_555 1_555
C8 C7 1_555 1_555
C9 C4 1_555 1_555
C10 C5 1_555 1_555
C11 C10 1_555 1_555
C12 C10 1_555 1_555
C13 O1 1_555 1_555
C14 C9 1_555 1_555
C15 C14 1_555 1_555
C16 C14 1_555 1_555
C17 N2 1_555 1_555
C18 C17 1_555 1_555
C19 C18 1_555 1_555
C20 C19 1_555 1_555
C21 C20 1_555 1_555
C22 C17 1_555 1_555
C23 C18 1_555 1_555
C24 C23 1_555 1_555
C25 C23 1_555 1_555
C26 O2 1_555 1_555
C27 C22 1_555 1_555
C28 C27 1_555 1_555
C29 C27 1_555 1_555
H1 C2 1_555 1_555
H2 C2 1_555 1_555
H3 C3 1_555 1_555
H4 C3 1_555 1_555
H5 C6 1_555 1_555
H6 C8 1_555 1_555
H7 C10 1_555 1_555
H8 C11 1_555 1_555
H9 C11 1_555 1_555
H10 C11 1_555 1_555
H11 C12 1_555 1_555
H12 C12 1_555 1_555
H13 C12 1_555 1_555
H14 C13 1_555 1_555
H15 C13 1_555 1_555
H16 C13 1_555 1_555
H17 C14 1_555 1_555
H18 C15 1_555 1_555
H19 C15 1_555 1_555
H20 C15 1_555 1_555
H21 C16 1_555 1_555
H22 C16 1_555 1_555
H23 C16 1_555 1_555
H24 C19 1_555 1_555
H25 C21 1_555 1_555
H26 C23 1_555 1_555
H27 C24 1_555 1_555
H28 C24 1_555 1_555
H29 C24 1_555 1_555
H30 C25 1_555 1_555
H31 C25 1_555 1_555
H32 C25 1_555 1_555
H33 C26 1_555 1_555
H34 C26 1_555 1_555
H35 C26 1_555 1_555
H36 C27 1_555 1_555
H37 C28 1_555 1_555
H38 C28 1_555 1_555
H39 C28 1_555 1_555
H40 C29 1_555 1_555
H41 C29 1_555 1_555
H42 C29 1_555 1_555
C2 C3 1_555 1_555
C8 C9 1_555 1_555
C21 C22 1_555 1_555

#END
