
#######################################################################
#
#                 Cambridge Crystallographic Data Centre
#                                CCDC 
#
#######################################################################
#
# If this CIF has been generated from an entry in the Cambridge 
# Structural Database, then it will include bibliographic, chemical, 
# crystal, experimental, refinement or atomic coordinate data resulting 
# from the CCDC's data processing and validation procedures.
#
#######################################################################

data_BOJWON
_chemical_formula_moiety         'C16 H16 N2 O2'
_chemical_name_systematic        5-(4-methoxyphenyl)-2-phenylpyrazolidin-3-one
_symmetry_cell_setting           monoclinic
_symmetry_space_group_name_H-M   'P 21/c'
_symmetry_Int_Tables_number      14
_space_group_name_Hall           '-P 2ybc'
loop_
_symmetry_equiv_pos_site_id
_symmetry_equiv_pos_as_xyz
1 x,y,z
2 -x,1/2+y,1/2-z
3 -x,-y,-z
4 x,1/2-y,1/2+z
_cell_length_a                   8.6609(4)
_cell_length_b                   6.0272(3)
_cell_length_c                   27.1719(13)
_cell_angle_alpha                90
_cell_angle_beta                 105.494(4)
_cell_angle_gamma                90
_cell_volume                     1366.85
_exptl_crystal_colour            colorless
_exptl_crystal_description       sheet
_chemical_melting_point          '103-104 deg.C'
_cell_formula_units_Z            4
_exptl_crystal_recrystallization_method 'ethyl acetate'
loop_
_atom_site_label
_atom_site_type_symbol
_atom_site_fract_x
_atom_site_fract_y
_atom_site_fract_z
N1 N 0.7451(2) 0.4141(3) -0.00020(6)
N2 N 0.7845(2) 0.2401(3) 0.03719(6)
H1 H 0.7947 0.1006 0.0322
O1 O 0.6359(2) 0.7648(3) -0.00726(7)
O2 O 0.7291(2) -0.2062(3) 0.24478(6)
C1 C 0.7365(3) 0.5334(4) -0.08701(8)
H2 H 0.6935 0.6693 -0.0813
C2 C 0.7636(3) 0.4869(5) -0.13379(9)
H3 H 0.7370 0.5919 -0.1598
C3 C 0.8288(3) 0.2892(5) -0.14261(9)
H4 H 0.8464 0.2598 -0.1743
C4 C 0.8679(3) 0.1349(5) -0.10426(10)
H5 H 0.9140 0.0011 -0.1099
C5 C 0.8397(3) 0.1757(4) -0.05723(9)
H6 H 0.8649 0.0688 -0.0317
C6 C 0.7742(3) 0.3748(4) -0.04854(8)
C7 C 0.6857(3) 0.5977(4) 0.01736(9)
C8 C 0.6929(3) 0.5569(4) 0.07240(9)
H7 H 0.5875 0.5240 0.0766
H8 H 0.7368 0.6842 0.0933
C9 C 0.8033(3) 0.3572(4) 0.08616(8)
H9 H 0.9137 0.4122 0.0974
C10 C 0.7761(3) 0.2082(4) 0.12735(8)
C11 C 0.6362(3) 0.0896(4) 0.12211(8)
H10 H 0.5544 0.1041 0.0921
C12 C 0.6137(3) -0.0503(4) 0.16014(8)
H11 H 0.5184 -0.1286 0.1557
C13 C 0.7356(3) -0.0716(4) 0.20478(8)
C14 C 0.8742(3) 0.0508(4) 0.21110(8)
H12 H 0.9547 0.0408 0.2415
C15 C 0.8942(3) 0.1871(4) 0.17284(8)
H13 H 0.9889 0.2670 0.1776
C16 C 0.6190(4) -0.3826(5) 0.23534(11)
H14 H 0.6272 -0.4628 0.2665
H15 H 0.6423 -0.4805 0.2104
H16 H 0.5124 -0.3252 0.2227
loop_
_geom_bond_atom_site_label_1
_geom_bond_atom_site_label_2
_geom_bond_site_symmetry_1
_geom_bond_site_symmetry_2
N1 N2 1_555 1_555
N2 H1 1_555 1_555
O1 C7 1_555 1_555
O2 C13 1_555 1_555
C1 H2 1_555 1_555
C2 C1 1_555 1_555
H3 C2 1_555 1_555
C3 C2 1_555 1_555
H4 C3 1_555 1_555
C4 C3 1_555 1_555
H5 C4 1_555 1_555
C5 C4 1_555 1_555
H6 C5 1_555 1_555
C6 N1 1_555 1_555
C7 N1 1_555 1_555
C8 C7 1_555 1_555
H7 C8 1_555 1_555
H8 C8 1_555 1_555
C9 N2 1_555 1_555
H9 C9 1_555 1_555
C10 C9 1_555 1_555
C11 C10 1_555 1_555
H10 C11 1_555 1_555
C12 C11 1_555 1_555
H11 C12 1_555 1_555
C13 C12 1_555 1_555
C14 C13 1_555 1_555
H12 C14 1_555 1_555
C15 C10 1_555 1_555
H13 C15 1_555 1_555
C16 O2 1_555 1_555
H14 C16 1_555 1_555
H15 C16 1_555 1_555
H16 C16 1_555 1_555
C1 C6 1_555 1_555
C5 C6 1_555 1_555
C8 C9 1_555 1_555
C14 C15 1_555 1_555

#END
