
#######################################################################
#
#                 Cambridge Crystallographic Data Centre
#                                CCDC 
#
#######################################################################
#
# If this CIF has been generated from an entry in the Cambridge 
# Structural Database, then it will include bibliographic, chemical, 
# crystal, experimental, refinement or atomic coordinate data resulting 
# from the CCDC's data processing and validation procedures.
#
#######################################################################

data_BOKVAA
_chemical_formula_moiety         'C30 H20 F9 N1 O1 S1'
_chemical_name_systematic        
2',3',4'-Triphenyl-3,3,3'-tris(trifluoromethyl)-3H-spiro[2,1-benzoxathiole-1,1'-[1,2]thiazetidine]
_symmetry_cell_setting           monoclinic
_symmetry_space_group_name_H-M   'P 21/a'
_symmetry_Int_Tables_number      14
_space_group_name_Hall           '-P 2yab'
loop_
_symmetry_equiv_pos_site_id
_symmetry_equiv_pos_as_xyz
1 x,y,z
2 1/2-x,1/2+y,-z
3 -x,-y,-z
4 1/2+x,1/2-y,z
_cell_length_a                   19.824(6)
_cell_length_b                   12.727(3)
_cell_length_c                   22.412(6)
_cell_angle_alpha                90
_cell_angle_beta                 107.373(4)
_cell_angle_gamma                90
_cell_volume                     5396.59
_exptl_crystal_colour            colorless
_exptl_crystal_description       Platelet
_cell_formula_units_Z            8
loop_
_atom_site_label
_atom_site_type_symbol
_atom_site_fract_x
_atom_site_fract_y
_atom_site_fract_z
S1 S 0.76215(3) 0.79824(4) 0.86210(3)
N1 N 0.74927(10) 0.79229(16) 0.93836(9)
O1 O 0.75059(9) 0.81767(13) 0.77494(7)
C1 C 0.66877(12) 0.83420(18) 0.85000(10)
H1 H 0.6653 0.9126 0.8502
C2 C 0.67224(12) 0.79266(18) 0.91715(11)
C3 C 0.81008(12) 0.92037(18) 0.87254(11)
C4 C 0.83711(13) 0.96807(19) 0.93039(11)
H2 H 0.8307 0.9371 0.9669
C5 C 0.87363(13) 1.06180(19) 0.93389(12)
H3 H 0.8932 1.0947 0.9733
C6 C 0.88196(13) 1.1080(2) 0.88097(12)
H4 H 0.9066 1.1728 0.8841
C7 C 0.85452(13) 1.06010(19) 0.82313(12)
H5 H 0.8601 1.0922 0.7866
C8 C 0.81885(13) 0.96515(19) 0.81883(11)
C9 C 0.78610(13) 0.90216(19) 0.75975(11)
C10 C 0.84519(15) 0.8587(2) 0.73458(12)
F1 F 0.88747(9) 0.79597(13) 0.77704(8)
F2 F 0.88574(9) 0.93419(13) 0.72163(8)
F3 F 0.81951(9) 0.80260(14) 0.68252(8)
C11 C 0.73283(15) 0.9681(2) 0.71031(12)
F4 F 0.68652(9) 1.01274(14) 0.73552(8)
F5 F 0.69550(10) 0.91097(14) 0.66220(7)
F6 F 0.76297(10) 1.04624(13) 0.68735(8)
C12 C 0.79494(13) 0.74701(18) 0.99232(11)
C13 C 0.86530(14) 0.7292(2) 0.99494(13)
H6 H 0.8805 0.7428 0.9593
C14 C 0.91307(15) 0.6917(2) 1.04954(14)
H7 H 0.9608 0.6794 1.0508
C15 C 0.89211(16) 0.6722(2) 1.10186(13)
H8 H 0.9253 0.6485 1.1395
C16 C 0.82249(16) 0.6874(2) 1.09889(12)
H9 H 0.8076 0.6722 1.1345
C17 C 0.77362(14) 0.72450(19) 1.04492(11)
H10 H 0.7258 0.7346 1.0438
C18 C 0.61491(13) 0.79416(19) 0.79316(11)
C19 C 0.56235(14) 0.8625(2) 0.76025(12)
H11 H 0.5624 0.9332 0.7739
C20 C 0.50999(16) 0.8291(3) 0.70799(14)
H12 H 0.4744 0.8768 0.6859
C21 C 0.50937(16) 0.7266(3) 0.68781(13)
H13 H 0.4732 0.7034 0.6520
C22 C 0.56138(15) 0.6577(2) 0.71978(12)
H14 H 0.5609 0.5871 0.7059
C23 C 0.61428(14) 0.6910(2) 0.77207(12)
H15 H 0.6502 0.6435 0.7936
C24 C 0.63529(13) 0.68665(18) 0.91486(10)
C25 C 0.56205(13) 0.6805(2) 0.90203(12)
H16 H 0.5351 0.7432 0.8986
C26 C 0.52818(14) 0.5843(2) 0.89423(12)
H17 H 0.4784 0.5811 0.8860
C27 C 0.56715(15) 0.4921(2) 0.89837(12)
H18 H 0.5440 0.4259 0.8930
C28 C 0.63963(15) 0.4972(2) 0.91039(12)
H19 H 0.6663 0.4344 0.9130
C29 C 0.67359(13) 0.59390(19) 0.91871(11)
H20 H 0.7234 0.5968 0.9271
C30 C 0.64063(14) 0.8774(2) 0.95060(11)
F7 F 0.58024(8) 0.91663(11) 0.91222(7)
F8 F 0.62510(9) 0.84135(13) 1.00094(7)
F9 F 0.68504(9) 0.95788(12) 0.96917(7)
S2 S 0.29797(3) 0.20234(5) 0.65937(3)
O2 O 0.34666(9) 0.17025(14) 0.74430(8)
N2 N 0.27394(10) 0.22202(16) 0.57588(9)
C31 C 0.37991(12) 0.18178(18) 0.63821(11)
H21 H 0.3880 0.1047 0.6351
C32 C 0.34517(12) 0.22790(18) 0.57060(11)
C33 C 0.25729(12) 0.07554(18) 0.65678(11)
C34 C 0.21085(13) 0.0345(2) 0.60313(12)
H22 H 0.1983 0.0732 0.5652
C35 C 0.18274(14) -0.0651(2) 0.60599(12)
H23 H 0.1500 -0.0943 0.5698
C36 C 0.20201(14) -0.1218(2) 0.66098(12)
H24 H 0.1834 -0.1903 0.6621
C37 C 0.24851(14) -0.0793(2) 0.71461(12)
H25 H 0.2615 -0.1185 0.7524
C38 C 0.27586(13) 0.02033(19) 0.71291(11)
C39 C 0.32638(13) 0.0789(2) 0.76682(11)
C40 C 0.28844(17) 0.1099(3) 0.81499(14)
F10 F 0.23689(10) 0.1768(2) 0.78961(10)
F11 F 0.25959(15) 0.0279(2) 0.83508(10)
F12 F 0.33154(11) 0.15592(16) 0.86523(8)
C41 C 0.39285(18) 0.0146(3) 0.79707(16)
F13 F 0.42056(12) -0.0174(2) 0.75266(13)
F14 F 0.44261(10) 0.07032(16) 0.83809(10)
F15 F 0.38052(14) -0.06978(17) 0.82688(12)
C42 C 0.21175(13) 0.26892(19) 0.53860(12)
C43 C 0.15582(14) 0.2861(2) 0.56363(14)
H26 H 0.1611 0.2684 0.6060
C44 C 0.09312(15) 0.3285(2) 0.52685(16)
H27 H 0.0558 0.3410 0.5445
C45 C 0.08359(15) 0.3532(2) 0.46479(15)
H28 H 0.0399 0.3810 0.4396
C46 C 0.13875(15) 0.3367(2) 0.44000(14)
H29 H 0.1329 0.3541 0.3975
C47 C 0.20236(14) 0.2953(2) 0.47618(12)
H30 H 0.2398 0.2848 0.4585
C48 C 0.44551(13) 0.23132(19) 0.68004(11)
C49 C 0.51020(14) 0.1800(2) 0.69088(12)
H31 H 0.5121 0.1121 0.6739
C50 C 0.57172(15) 0.2284(2) 0.72642(14)
H32 H 0.6159 0.1941 0.7330
C51 C 0.56908(15) 0.3264(2) 0.75233(14)
H33 H 0.6114 0.3589 0.7770
C52 C 0.50502(14) 0.3770(2) 0.74244(12)
H34 H 0.5031 0.4439 0.7606
C53 C 0.44361(13) 0.32993(19) 0.70594(11)
H35 H 0.3997 0.3655 0.6985
C54 C 0.37368(13) 0.33682(18) 0.56301(10)
C55 C 0.44163(14) 0.3478(2) 0.55723(11)
H36 H 0.4679 0.2869 0.5538
C56 C 0.47116(15) 0.4457(2) 0.55644(12)
H37 H 0.5178 0.4517 0.5533
C57 C 0.43292(17) 0.5352(2) 0.56017(12)
H38 H 0.4526 0.6027 0.5584
C58 C 0.36630(16) 0.5257(2) 0.56648(12)
H39 H 0.3401 0.5870 0.5694
C59 C 0.33685(14) 0.42682(19) 0.56867(11)
H40 H 0.2912 0.4212 0.5741
C60 C 0.35667(14) 0.1497(2) 0.52159(12)
F16 F 0.42339(8) 0.11338(12) 0.53843(7)
F17 F 0.34495(9) 0.19232(13) 0.46482(7)
F18 F 0.31449(8) 0.06648(12) 0.51523(7)
loop_
_geom_bond_atom_site_label_1
_geom_bond_atom_site_label_2
_geom_bond_site_symmetry_1
_geom_bond_site_symmetry_2
S1 N1 1_555 1_555
N1 C2 1_555 1_555
O1 S1 1_555 1_555
C1 S1 1_555 1_555
H1 C1 1_555 1_555
C2 C1 1_555 1_555
C3 S1 1_555 1_555
C4 C3 1_555 1_555
H2 C4 1_555 1_555
C5 C4 1_555 1_555
H3 C5 1_555 1_555
C6 C5 1_555 1_555
H4 C6 1_555 1_555
C7 C6 1_555 1_555
H5 C7 1_555 1_555
C8 C3 1_555 1_555
C9 O1 1_555 1_555
C10 C9 1_555 1_555
F1 C10 1_555 1_555
F2 C10 1_555 1_555
F3 C10 1_555 1_555
C11 C9 1_555 1_555
F4 C11 1_555 1_555
F5 C11 1_555 1_555
F6 C11 1_555 1_555
C12 N1 1_555 1_555
C13 C12 1_555 1_555
H6 C13 1_555 1_555
C14 C13 1_555 1_555
H7 C14 1_555 1_555
C15 C14 1_555 1_555
H8 C15 1_555 1_555
C16 C15 1_555 1_555
H9 C16 1_555 1_555
C17 C12 1_555 1_555
H10 C17 1_555 1_555
C18 C1 1_555 1_555
C19 C18 1_555 1_555
H11 C19 1_555 1_555
C20 C19 1_555 1_555
H12 C20 1_555 1_555
C21 C20 1_555 1_555
H13 C21 1_555 1_555
C22 C21 1_555 1_555
H14 C22 1_555 1_555
C23 C18 1_555 1_555
H15 C23 1_555 1_555
C24 C2 1_555 1_555
C25 C24 1_555 1_555
H16 C25 1_555 1_555
C26 C25 1_555 1_555
H17 C26 1_555 1_555
C27 C26 1_555 1_555
H18 C27 1_555 1_555
C28 C27 1_555 1_555
H19 C28 1_555 1_555
C29 C24 1_555 1_555
H20 C29 1_555 1_555
C30 C2 1_555 1_555
F7 C30 1_555 1_555
F8 C30 1_555 1_555
F9 C30 1_555 1_555
S2 O2 1_555 1_555
O2 C39 1_555 1_555
N2 S2 1_555 1_555
C31 S2 1_555 1_555
H21 C31 1_555 1_555
C32 N2 1_555 1_555
C33 S2 1_555 1_555
C34 C33 1_555 1_555
H22 C34 1_555 1_555
C35 C34 1_555 1_555
H23 C35 1_555 1_555
C36 C35 1_555 1_555
H24 C36 1_555 1_555
C37 C36 1_555 1_555
H25 C37 1_555 1_555
C38 C33 1_555 1_555
C39 C38 1_555 1_555
C40 C39 1_555 1_555
F10 C40 1_555 1_555
F11 C40 1_555 1_555
F12 C40 1_555 1_555
C41 C39 1_555 1_555
F13 C41 1_555 1_555
F14 C41 1_555 1_555
F15 C41 1_555 1_555
C42 N2 1_555 1_555
C43 C42 1_555 1_555
H26 C43 1_555 1_555
C44 C43 1_555 1_555
H27 C44 1_555 1_555
C45 C44 1_555 1_555
H28 C45 1_555 1_555
C46 C45 1_555 1_555
H29 C46 1_555 1_555
C47 C42 1_555 1_555
H30 C47 1_555 1_555
C48 C31 1_555 1_555
C49 C48 1_555 1_555
H31 C49 1_555 1_555
C50 C49 1_555 1_555
H32 C50 1_555 1_555
C51 C50 1_555 1_555
H33 C51 1_555 1_555
C52 C51 1_555 1_555
H34 C52 1_555 1_555
C53 C48 1_555 1_555
H35 C53 1_555 1_555
C54 C32 1_555 1_555
C55 C54 1_555 1_555
H36 C55 1_555 1_555
C56 C55 1_555 1_555
H37 C56 1_555 1_555
C57 C56 1_555 1_555
H38 C57 1_555 1_555
C58 C57 1_555 1_555
H39 C58 1_555 1_555
C59 C54 1_555 1_555
H40 C59 1_555 1_555
C60 C32 1_555 1_555
F16 C60 1_555 1_555
F17 C60 1_555 1_555
F18 C60 1_555 1_555
C7 C8 1_555 1_555
C8 C9 1_555 1_555
C16 C17 1_555 1_555
C22 C23 1_555 1_555
C28 C29 1_555 1_555
C31 C32 1_555 1_555
C37 C38 1_555 1_555
C46 C47 1_555 1_555
C52 C53 1_555 1_555
C58 C59 1_555 1_555

#END
