
#######################################################################
#
#                 Cambridge Crystallographic Data Centre
#                                CCDC 
#
#######################################################################
#
# If this CIF has been generated from an entry in the Cambridge 
# Structural Database, then it will include bibliographic, chemical, 
# crystal, experimental, refinement or atomic coordinate data resulting 
# from the CCDC's data processing and validation procedures.
#
#######################################################################

data_BOLBOT01
_chemical_formula_moiety         'C8 H9 N3 S1'
_chemical_name_systematic        'Benzaldehyde thiosemicarbazone'
_symmetry_cell_setting           triclinic
_symmetry_space_group_name_H-M   'P -1'
_symmetry_Int_Tables_number      2
_space_group_name_Hall           '-P 1'
loop_
_symmetry_equiv_pos_site_id
_symmetry_equiv_pos_as_xyz
1 x,y,z
2 -x,-y,-z
_cell_length_a                   5.8692(13)
_cell_length_b                   12.513(2)
_cell_length_c                   13.519(2)
_cell_angle_alpha                112.735(3)
_cell_angle_beta                 95.384(2)
_cell_angle_gamma                96.153(2)
_cell_volume                     900.477
_exptl_crystal_colour            colorless
_exptl_crystal_description       block
_cell_formula_units_Z            4
_exptl_crystal_recrystallization_method ethanol
loop_
_atom_site_label
_atom_site_type_symbol
_atom_site_fract_x
_atom_site_fract_y
_atom_site_fract_z
N1 N 0.9674(5) 0.8260(3) 0.9684(2)
N2 N 1.1667(5) 0.8822(3) 0.9512(2)
H1 H 1.2934 0.8999 0.9956
N3 N 0.9536(5) 0.8863(3) 0.8034(2)
H2 H 0.8331 0.8563 0.8208
H3 H 0.9414 0.9020 0.7467
S1 S 1.40293(17) 0.96409(10) 0.83250(8)
C1 C 0.9813(7) 0.8063(3) 1.0543(3)
H7 H 1.1169 0.8341 1.1040
C2 C 0.7837(7) 0.7398(3) 1.0749(3)
C3 C 0.5747(7) 0.7039(3) 1.0076(3)
H8 H 0.5566 0.7229 0.9475
C4 C 0.3920(8) 0.6403(4) 1.0277(4)
H9 H 0.2516 0.6167 0.9814
C5 C 0.4178(9) 0.6118(4) 1.1169(4)
H10 H 0.2950 0.5690 1.1309
C6 C 0.6255(9) 0.6472(4) 1.1845(4)
H11 H 0.6431 0.6283 1.2447
C7 C 0.8081(8) 0.7104(3) 1.1640(3)
H12 H 0.9486 0.7336 1.2100
C8 C 1.1574(6) 0.9084(3) 0.8637(3)
N4 N 0.3374(5) 0.7659(3) 0.4823(2)
N5 N 0.4649(5) 0.8653(3) 0.5625(2)
H4 H 0.4200 0.8950 0.6249
N6 N 0.7036(6) 0.8737(3) 0.4423(3)
H5 H 0.6092 0.8166 0.3930
H6 H 0.8262 0.9031 0.4259
S2 S 0.83277(19) 1.02721(9) 0.64490(8)
C9 C 0.1484(7) 0.7251(3) 0.5034(3)
H13 H 0.0969 0.7658 0.5687
C10 C 0.0129(6) 0.6152(3) 0.4263(3)
C11 C -0.2018(7) 0.5775(4) 0.4462(4)
H14 H -0.2622 0.6246 0.5065
C12 C -0.3267(8) 0.4700(4) 0.3766(4)
H15 H -0.4716 0.4453 0.3898
C13 C -0.2378(9) 0.4002(4) 0.2889(4)
H16 H -0.3205 0.3270 0.2435
C14 C -0.0287(9) 0.4368(4) 0.2671(4)
H17 H 0.0287 0.3893 0.2060
C15 C 0.0981(7) 0.5436(3) 0.3350(3)
H18 H 0.2410 0.5680 0.3198
C16 C 0.6604(6) 0.9162(3) 0.5434(3)
loop_
_geom_bond_atom_site_label_1
_geom_bond_atom_site_label_2
_geom_bond_site_symmetry_1
_geom_bond_site_symmetry_2
N1 N2 1_555 1_555
N2 H1 1_555 1_555
N3 H2 1_555 1_555
H3 N3 1_555 1_555
N4 N5 1_555 1_555
N5 H4 1_555 1_555
N6 H5 1_555 1_555
H6 N6 1_555 1_555
S1 C8 1_555 1_555
S2 C16 1_555 1_555
C1 N1 1_555 1_555
H7 C1 1_555 1_555
C2 C1 1_555 1_555
C3 C2 1_555 1_555
H8 C3 1_555 1_555
C4 C3 1_555 1_555
H9 C4 1_555 1_555
C5 C4 1_555 1_555
H10 C5 1_555 1_555
C6 C5 1_555 1_555
H11 C6 1_555 1_555
C7 C2 1_555 1_555
H12 C7 1_555 1_555
C8 N2 1_555 1_555
C9 N4 1_555 1_555
H13 C9 1_555 1_555
C10 C9 1_555 1_555
C11 C10 1_555 1_555
H14 C11 1_555 1_555
C12 C11 1_555 1_555
H15 C12 1_555 1_555
C13 C12 1_555 1_555
H16 C13 1_555 1_555
C14 C13 1_555 1_555
H17 C14 1_555 1_555
C15 C10 1_555 1_555
H18 C15 1_555 1_555
C16 N5 1_555 1_555
N3 C8 1_555 1_555
N6 C16 1_555 1_555
C6 C7 1_555 1_555
C14 C15 1_555 1_555

#END
