
#######################################################################
#
#                 Cambridge Crystallographic Data Centre
#                                CCDC 
#
#######################################################################
#
# If this CIF has been generated from an entry in the Cambridge 
# Structural Database, then it will include bibliographic, chemical, 
# crystal, experimental, refinement or atomic coordinate data resulting 
# from the CCDC's data processing and validation procedures.
#
#######################################################################

data_BOLFAL
_chemical_compound_source        'ornamental milkweed Asclepias curassavica L.'
_chemical_name_common            14-Hydroxy-3-(lactoyloxy)card-20(22)-enolide
_chemical_formula_moiety         'C26 H38 O6'
_chemical_name_systematic        
"(3R,5S,8R,9S,10S,13R,14S,17R,20Z,2'R)-3-O-Urarigenin lactate"
_chemical_properties_biological  'inhibitory activity'
_symmetry_cell_setting           orthorhombic
_symmetry_space_group_name_H-M   'P 21 21 21'
_symmetry_Int_Tables_number      19
_space_group_name_Hall           'P 2ac 2ab'
loop_
_symmetry_equiv_pos_site_id
_symmetry_equiv_pos_as_xyz
1 x,y,z
2 1/2-x,-y,1/2+z
3 -x,1/2+y,1/2-z
4 1/2+x,1/2-y,-z
_cell_length_a                   10.4301(3)
_cell_length_b                   11.8072(3)
_cell_length_c                   18.7440(5)
_cell_angle_alpha                90
_cell_angle_beta                 90
_cell_angle_gamma                90
_cell_volume                     2308.33
_exptl_crystal_colour            colorless
_exptl_crystal_description       columnar
_cell_formula_units_Z            4
loop_
_atom_site_label
_atom_site_type_symbol
_atom_site_fract_x
_atom_site_fract_y
_atom_site_fract_z
O1 O 0.09189(14) 0.68472(12) 0.44504(8)
O2 O 0.19967(12) 0.53384(11) 0.40799(7)
O3 O 0.52266(12) 0.49987(11) 0.28381(6)
H1 H 0.5142 0.5177 0.2418
O4 O 1.29038(11) 0.56473(10) 0.07568(6)
O5 O 1.46547(15) 0.5482(2) 0.14264(8)
O6 O 1.56732(13) 0.48610(13) 0.00326(8)
H2 H 1.5214 0.4367 -0.0138
C1 C 1.09470(17) 0.65696(15) 0.23676(10)
H3 H 1.0893 0.7299 0.2603
H4 H 1.1204 0.6014 0.2721
C2 C 1.19742(18) 0.66294(16) 0.17854(10)
H5 H 1.1762 0.7229 0.1452
H6 H 1.2796 0.6809 0.2000
C3 C 1.20740(17) 0.55115(15) 0.13867(9)
H7 H 1.2436 0.4933 0.1703
C4 C 1.07823(17) 0.51152(15) 0.11102(9)
H8 H 1.0871 0.4362 0.0909
H9 H 1.0498 0.5619 0.0733
C5 C 0.97737(17) 0.50917(14) 0.17047(8)
H10 H 1.0103 0.4571 0.2068
C6 C 0.85041(18) 0.45974(16) 0.14568(10)
H11 H 0.8121 0.5095 0.1105
H12 H 0.8652 0.3868 0.1234
C7 C 0.75910(18) 0.44546(15) 0.20820(10)
H13 H 0.7938 0.3899 0.2410
H14 H 0.6775 0.4173 0.1909
C8 C 0.73775(16) 0.55722(14) 0.24778(8)
H15 H 0.6980 0.6097 0.2139
C9 C 0.86598(16) 0.61053(14) 0.27107(9)
H16 H 0.9057 0.5577 0.3048
C10 C 0.96155(17) 0.62510(13) 0.20792(9)
C11 C 0.84068(17) 0.72093(15) 0.31220(10)
H17 H 0.9213 0.7504 0.3301
H18 H 0.8049 0.7767 0.2799
C12 C 0.74862(17) 0.70329(15) 0.37456(10)
H19 H 0.7340 0.7755 0.3979
H20 H 0.7885 0.6531 0.4090
C13 C 0.61803(16) 0.65281(14) 0.35217(9)
C14 C 0.64303(16) 0.54240(14) 0.31016(9)
C15 C 0.68312(18) 0.45748(14) 0.36765(9)
H21 H 0.7756 0.4571 0.3731
H22 H 0.6553 0.3818 0.3549
C16 C 0.61827(18) 0.49563(16) 0.43760(9)
H23 H 0.6818 0.5044 0.4750
H24 H 0.5558 0.4398 0.4529
C17 C 0.55152(16) 0.61014(15) 0.42248(9)
H25 H 0.5751 0.6624 0.4609
C18 C 0.54000(19) 0.74077(16) 0.31168(11)
H26 H 0.5856 0.7630 0.2694
H27 H 0.5266 0.8058 0.3415
H28 H 0.4586 0.7090 0.2986
C19 C 0.91431(19) 0.71775(15) 0.15624(10)
H29 H 0.9747 0.7261 0.1179
H30 H 0.9066 0.7882 0.1814
H31 H 0.8323 0.6966 0.1372
C20 C 0.40764(17) 0.60393(14) 0.42002(9)
C21 C 0.33232(18) 0.50025(17) 0.40198(11)
H32 H 0.3514 0.4750 0.3539
H33 H 0.3517 0.4393 0.4350
C22 C 0.32465(17) 0.68506(16) 0.43701(10)
H34 H 0.3464 0.7584 0.4505
C23 C 0.19472(18) 0.64164(15) 0.43123(10)
C24 C 1.41557(18) 0.56318(16) 0.08587(9)
C25 C 1.49249(17) 0.58375(16) 0.01797(10)
H35 H 1.4348 0.5999 -0.0220
C26 C 1.5834(2) 0.68102(19) 0.02928(13)
H36 H 1.6320 0.6936 -0.0135
H37 H 1.6406 0.6635 0.0678
H38 H 1.5355 0.7481 0.0407
loop_
_geom_bond_atom_site_label_1
_geom_bond_atom_site_label_2
_geom_bond_site_symmetry_1
_geom_bond_site_symmetry_2
O1 C23 1_555 1_555
O2 C21 1_555 1_555
O3 H1 1_555 1_555
O4 C3 1_555 1_555
O5 C24 1_555 1_555
O6 H2 1_555 1_555
C1 H3 1_555 1_555
H4 C1 1_555 1_555
C2 C1 1_555 1_555
H5 C2 1_555 1_555
H6 C2 1_555 1_555
C3 C2 1_555 1_555
H7 C3 1_555 1_555
C4 C3 1_555 1_555
H8 C4 1_555 1_555
H9 C4 1_555 1_555
C5 C4 1_555 1_555
H10 C5 1_555 1_555
C6 C5 1_555 1_555
H11 C6 1_555 1_555
H12 C6 1_555 1_555
C7 C6 1_555 1_555
H13 C7 1_555 1_555
H14 C7 1_555 1_555
C8 C7 1_555 1_555
H15 C8 1_555 1_555
C9 C8 1_555 1_555
H16 C9 1_555 1_555
C10 C1 1_555 1_555
C11 C9 1_555 1_555
H17 C11 1_555 1_555
H18 C11 1_555 1_555
C12 C11 1_555 1_555
H19 C12 1_555 1_555
H20 C12 1_555 1_555
C13 C12 1_555 1_555
C14 O3 1_555 1_555
C15 C14 1_555 1_555
H21 C15 1_555 1_555
H22 C15 1_555 1_555
C16 C15 1_555 1_555
H23 C16 1_555 1_555
H24 C16 1_555 1_555
C17 C13 1_555 1_555
H25 C17 1_555 1_555
C18 C13 1_555 1_555
H26 C18 1_555 1_555
H27 C18 1_555 1_555
H28 C18 1_555 1_555
C19 C10 1_555 1_555
H29 C19 1_555 1_555
H30 C19 1_555 1_555
H31 C19 1_555 1_555
C20 C17 1_555 1_555
C21 C20 1_555 1_555
H32 C21 1_555 1_555
H33 C21 1_555 1_555
C22 C20 1_555 1_555
H34 C22 1_555 1_555
C23 O2 1_555 1_555
C24 O4 1_555 1_555
C25 O6 1_555 1_555
H35 C25 1_555 1_555
C26 C25 1_555 1_555
H36 C26 1_555 1_555
H37 C26 1_555 1_555
H38 C26 1_555 1_555
C5 C10 1_555 1_555
C8 C14 1_555 1_555
C9 C10 1_555 1_555
C13 C14 1_555 1_555
C16 C17 1_555 1_555
C22 C23 1_555 1_555
C24 C25 1_555 1_555

#END
