
#######################################################################
#
#                 Cambridge Crystallographic Data Centre
#                                CCDC 
#
#######################################################################
#
# If this CIF has been generated from an entry in the Cambridge 
# Structural Database, then it will include bibliographic, chemical, 
# crystal, experimental, refinement or atomic coordinate data resulting 
# from the CCDC's data processing and validation procedures.
#
#######################################################################

data_BOLFIT
_chemical_name_common            
'4-(3a,11,11a,13a-Tetrahydroxy-9,15a-dimethylicosahydro-1H,7aH-cyclopenta[7,8]phenanthro[2,3-b]pyrano[3,2-e][1,4]dioxin-1-yl)furan-2(5H)-one hydrate'
_chemical_formula_moiety         'C28 H40 O9,3.2(H2 O1)'
_chemical_name_systematic        
"(2R,3R,5S,8R,9S,10R,13R,14S,17R,20Z,1'S,2'S,3'S,5'R)-19\b-Hydroxycalotropin hydrate"
_symmetry_cell_setting           monoclinic
_symmetry_space_group_name_H-M   'P 21'
_symmetry_Int_Tables_number      4
_space_group_name_Hall           'P 2yb'
loop_
_symmetry_equiv_pos_site_id
_symmetry_equiv_pos_as_xyz
1 x,y,z
2 -x,1/2+y,-z
_cell_length_a                   8.9982(4)
_cell_length_b                   12.3600(7)
_cell_length_c                   13.3864(8)
_cell_angle_alpha                90
_cell_angle_beta                 98.572(5)
_cell_angle_gamma                90
_cell_volume                     1472.17
_exptl_crystal_colour            colorless
_exptl_crystal_description       columnar
_cell_formula_units_Z            2
loop_
_atom_site_label
_atom_site_type_symbol
_atom_site_fract_x
_atom_site_fract_y
_atom_site_fract_z
O1 O 1.5606(7) 0.4320(6) 0.0391(5)
O2 O 1.5602(6) 0.5968(5) -0.0266(6)
O3 O 1.0663(4) 0.6044(3) 0.1722(3)
H1 H 0.9902 0.5673 0.1689
O4 O 0.9417(4) 0.9238(4) 0.3923(3)
H2 H 1.0046 0.9721 0.4026
O5 O 0.5192(4) 1.1002(4) 0.4399(3)
O6 O 0.7242(4) 1.2242(3) 0.3474(3)
O7 O 0.7335(4) 1.2716(4) 0.5171(3)
H3 H 0.7554 1.2089 0.5331
O8 O 0.3927(4) 1.2256(4) 0.3376(3)
O9 O 0.7503(5) 1.4421(4) 0.3744(4)
H4 H 0.7788 1.4828 0.4218
C1 C 0.8237(6) 1.0634(5) 0.2802(4)
H5 H 0.9189 1.1002 0.2804
H6 H 0.7631 1.0750 0.2148
C2 C 0.7440(6) 1.1096(5) 0.3621(4)
H7 H 0.8062 1.0971 0.4276
C3 C 0.5942(6) 1.0530(5) 0.3615(4)
H8 H 0.5320 1.0642 0.2957
C4 C 0.6145(6) 0.9354(5) 0.3800(5)
H9 H 0.5170 0.9009 0.3762
H10 H 0.6690 0.9237 0.4472
C5 C 0.7028(6) 0.8841(5) 0.3003(5)
H11 H 0.6420 0.8955 0.2341
C6 C 0.7194(6) 0.7626(5) 0.3146(5)
H12 H 0.6210 0.7302 0.3137
H13 H 0.7788 0.7475 0.3797
C7 C 0.7958(6) 0.7132(5) 0.2307(5)
H14 H 0.7301 0.7207 0.1667
H15 H 0.8121 0.6366 0.2438
C8 C 0.9468(6) 0.7680(5) 0.2234(4)
H16 H 1.0111 0.7555 0.2881
C9 C 0.9298(6) 0.8903(5) 0.2114(4)
H17 H 0.8642 0.9038 0.1473
C10 C 0.8515(6) 0.9405(5) 0.2974(4)
C11 C 1.0826(6) 0.9409(5) 0.2033(5)
H18 H 1.1509 0.9280 0.2654
H19 H 1.0713 1.0185 0.1943
C12 C 1.1481(7) 0.8932(5) 0.1151(5)
H20 H 1.2433 0.9284 0.1106
H21 H 1.0808 0.9088 0.0532
C13 C 1.1740(6) 0.7694(5) 0.1229(4)
C14 C 1.0256(6) 0.7135(5) 0.1416(4)
C15 C 0.9325(6) 0.7097(6) 0.0368(4)
H22 H 0.8890 0.7798 0.0179
H23 H 0.8525 0.6567 0.0342
C16 C 1.0466(6) 0.6768(7) -0.0328(5)
H24 H 1.0560 0.5987 -0.0353
H25 H 1.0154 0.7036 -0.1008
C17 C 1.1972(6) 0.7289(5) 0.0142(5)
H26 H 1.2133 0.7928 -0.0262
C18 C 1.3036(6) 0.7461(6) 0.2049(5)
H27 H 1.2810 0.7732 0.2681
H28 H 1.3926 0.7808 0.1889
H29 H 1.3199 0.6694 0.2099
C19 C 1.3245(7) 0.6537(6) 0.0097(5)
C20 C 1.4602(9) 0.6881(7) -0.0357(8)
H30 H 1.4316 0.7078 -0.1061
H31 H 1.5081 0.7500 0.0004
C21 C 1.3456(8) 0.5512(7) 0.0367(7)
H32 H 1.2765 0.5074 0.0626
C22 C 1.4940(9) 0.5188(7) 0.0194(6)
C23 C 0.4966(6) 1.2125(5) 0.4258(5)
H33 H 0.4516 1.2407 0.4828
C24 C 0.6459(6) 1.2731(5) 0.4223(4)
C25 C 0.6157(6) 1.3890(5) 0.3915(5)
H34 H 0.5791 1.4259 0.4478
C26 C 0.4957(7) 1.3991(6) 0.3004(5)
H35 H 0.5339 1.3717 0.2412
H36 H 0.4704 1.4748 0.2888
C27 C 0.3558(6) 1.3366(6) 0.3154(5)
H37 H 0.3134 1.3682 0.3721
C28 C 0.2341(8) 1.3344(8) 0.2217(6)
H38 H 0.2667 1.2892 0.1709
H39 H 0.2172 1.4065 0.1959
H40 H 0.1425 1.3062 0.2400
O10 O 0.8476(9) 0.0690(7) 0.6162(5)
O11 O 0.8493(6) 0.4387(5) 0.1762(4)
O12 O 0.8271(5) 0.5787(4) 0.5496(4)
O13 O -0.0455(5) 0.7900(5) 0.5671(4)
loop_
_geom_bond_atom_site_label_1
_geom_bond_atom_site_label_2
_geom_bond_site_symmetry_1
_geom_bond_site_symmetry_2
O1 C22 1_555 1_555
O2 C20 1_555 1_555
O3 H1 1_555 1_555
O4 H2 1_555 1_555
O5 C3 1_555 1_555
O6 C2 1_555 1_555
O7 H3 1_555 1_555
O8 C23 1_555 1_555
O9 H4 1_555 1_555
C1 H5 1_555 1_555
H6 C1 1_555 1_555
C2 C1 1_555 1_555
H7 C2 1_555 1_555
C3 C2 1_555 1_555
H8 C3 1_555 1_555
C4 C3 1_555 1_555
H9 C4 1_555 1_555
H10 C4 1_555 1_555
C5 C4 1_555 1_555
H11 C5 1_555 1_555
C6 C5 1_555 1_555
H12 C6 1_555 1_555
H13 C6 1_555 1_555
C7 C6 1_555 1_555
H14 C7 1_555 1_555
H15 C7 1_555 1_555
C8 C7 1_555 1_555
H16 C8 1_555 1_555
C9 C8 1_555 1_555
H17 C9 1_555 1_555
C10 O4 1_555 1_555
C11 C9 1_555 1_555
H18 C11 1_555 1_555
H19 C11 1_555 1_555
C12 C11 1_555 1_555
H20 C12 1_555 1_555
H21 C12 1_555 1_555
C13 C12 1_555 1_555
C14 O3 1_555 1_555
C15 C14 1_555 1_555
H22 C15 1_555 1_555
H23 C15 1_555 1_555
C16 C15 1_555 1_555
H24 C16 1_555 1_555
H25 C16 1_555 1_555
C17 C13 1_555 1_555
H26 C17 1_555 1_555
C18 C13 1_555 1_555
H27 C18 1_555 1_555
H28 C18 1_555 1_555
H29 C18 1_555 1_555
C19 C17 1_555 1_555
C20 C19 1_555 1_555
H30 C20 1_555 1_555
H31 C20 1_555 1_555
C21 C19 1_555 1_555
H32 C21 1_555 1_555
C22 O2 1_555 1_555
C23 O5 1_555 1_555
H33 C23 1_555 1_555
C24 O6 1_555 1_555
C25 O9 1_555 1_555
H34 C25 1_555 1_555
C26 C25 1_555 1_555
H35 C26 1_555 1_555
H36 C26 1_555 1_555
C27 O8 1_555 1_555
H37 C27 1_555 1_555
C28 C27 1_555 1_555
H38 C28 1_555 1_555
H39 C28 1_555 1_555
H40 C28 1_555 1_555
O7 C24 1_555 1_555
C1 C10 1_555 1_555
C5 C10 1_555 1_555
C8 C14 1_555 1_555
C9 C10 1_555 1_555
C13 C14 1_555 1_555
C16 C17 1_555 1_555
C21 C22 1_555 1_555
C23 C24 1_555 1_555
C24 C25 1_555 1_555
C26 C27 1_555 1_555

#END
