
#######################################################################
#
#                 Cambridge Crystallographic Data Centre
#                                CCDC 
#
#######################################################################
#
# If this CIF has been generated from an entry in the Cambridge 
# Structural Database, then it will include bibliographic, chemical, 
# crystal, experimental, refinement or atomic coordinate data resulting 
# from the CCDC's data processing and validation procedures.
#
#######################################################################

data_BOMFAM
_chemical_formula_moiety         'C19 H24 N2 O4'
_chemical_name_systematic        'di-t-butyl 2-(1H-pyrazol-1-yl)isophthalate'
_symmetry_cell_setting           orthorhombic
_symmetry_space_group_name_H-M   'P 21 21 21'
_symmetry_Int_Tables_number      19
_space_group_name_Hall           'P 2ac 2ab'
loop_
_symmetry_equiv_pos_site_id
_symmetry_equiv_pos_as_xyz
1 x,y,z
2 1/2-x,-y,1/2+z
3 1/2+x,1/2-y,-z
4 -x,1/2+y,1/2-z
_cell_length_a                   8.088(5)
_cell_length_b                   12.766(5)
_cell_length_c                   19.413(5)
_cell_angle_alpha                90
_cell_angle_beta                 90
_cell_angle_gamma                90
_cell_volume                     2004.42
_cell_formula_units_Z            4
loop_
_atom_site_label
_atom_site_type_symbol
_atom_site_fract_x
_atom_site_fract_y
_atom_site_fract_z
O1 O 0.33392(15) -0.01059(9) 0.00511(7)
O2 O 0.85229(17) 0.13886(9) 0.17000(6)
O3 O 0.5033(2) -0.09626(11) -0.06735(8)
C1 C 0.6325(2) 0.09213(12) 0.05508(9)
N1 N 0.57193(18) 0.03309(12) 0.11207(8)
C2 C 0.5946(2) 0.05937(13) -0.01180(9)
O4 O 0.7798(3) 0.30702(13) 0.15380(10)
C3 C 0.7287(3) 0.18097(13) 0.06595(10)
C4 C 0.9182(3) 0.14929(15) 0.24097(10)
C5 C 0.4750(2) -0.02659(13) -0.02726(9)
C6 C 0.6628(3) 0.11331(16) -0.06707(10)
H1 H 0.6455 0.0890 -0.1116
C7 C 0.1881(2) -0.08088(16) -0.00411(13)
C8 C 0.6056(3) -0.06903(17) 0.12578(13)
H2 H 0.6679 -0.1147 0.0990
N2 N 0.4778(3) 0.07854(19) 0.16131(10)
C9 C 0.7852(3) 0.21752(15) 0.13515(12)
C10 C 0.9707(3) 0.03861(17) 0.25662(12)
H3 H 1.0559 0.0178 0.2250
H4 H 0.8775 -0.0074 0.2519
H5 H 1.0122 0.0349 0.3029
C11 C 0.7557(3) 0.2022(2) -0.05670(12)
H6 H 0.7987 0.2385 -0.0942
C12 C 0.7848(3) 0.23706(17) 0.00899(13)
H7 H 0.8429 0.2991 0.0156
C13 C 0.5306(4) -0.0907(3) 0.18595(17)
H8 H 0.5318 -0.1542 0.2094
C14 C 1.0679(4) 0.2204(2) 0.23956(17)
H9 H 1.1475 0.1934 0.2074
H10 H 1.1163 0.2233 0.2847
H11 H 1.0349 0.2894 0.2257
C15 C 0.2341(4) -0.1901(2) 0.01774(19)
H12 H 0.3103 -0.2194 -0.0149
H13 H 0.1365 -0.2328 0.0197
H14 H 0.2849 -0.1879 0.0624
C16 C 0.1307(4) -0.0747(3) -0.07741(18)
H15 H 0.2118 -0.1063 -0.1070
H16 H 0.1159 -0.0026 -0.0901
H17 H 0.0276 -0.1113 -0.0821
C17 C 0.4533(4) -0.0019(4) 0.20542(14)
H18 H 0.3896 0.0035 0.2452
C18 C 0.7840(5) 0.1852(3) 0.28879(13)
H19 H 0.7531 0.2557 0.2775
H20 H 0.8233 0.1826 0.3354
H21 H 0.6896 0.1401 0.2841
C19 C 0.0667(4) -0.0335(4) 0.0454(3)
H22 H 0.1088 -0.0394 0.0915
H23 H -0.0369 -0.0699 0.0421
H24 H 0.0506 0.0391 0.0342
loop_
_geom_bond_atom_site_label_1
_geom_bond_atom_site_label_2
_geom_bond_site_symmetry_1
_geom_bond_site_symmetry_2
O1 C5 1_555 1_555
O2 C4 1_555 1_555
O3 C5 1_555 1_555
C1 N1 1_555 1_555
N1 C8 1_555 1_555
C2 C1 1_555 1_555
O4 C9 1_555 1_555
C3 C1 1_555 1_555
C4 C10 1_555 1_555
C5 C2 1_555 1_555
C6 C2 1_555 1_555
H1 C6 1_555 1_555
C7 O1 1_555 1_555
C8 H2 1_555 1_555
N2 N1 1_555 1_555
C9 O2 1_555 1_555
C10 H3 1_555 1_555
H4 C10 1_555 1_555
H5 C10 1_555 1_555
C11 C6 1_555 1_555
H6 C11 1_555 1_555
C12 C3 1_555 1_555
H7 C12 1_555 1_555
C13 C8 1_555 1_555
H8 C13 1_555 1_555
C14 C4 1_555 1_555
H9 C14 1_555 1_555
H10 C14 1_555 1_555
H11 C14 1_555 1_555
C15 C7 1_555 1_555
H12 C15 1_555 1_555
H13 C15 1_555 1_555
H14 C15 1_555 1_555
C16 C7 1_555 1_555
H15 C16 1_555 1_555
H16 C16 1_555 1_555
H17 C16 1_555 1_555
C17 N2 1_555 1_555
H18 C17 1_555 1_555
C18 C4 1_555 1_555
H19 C18 1_555 1_555
H20 C18 1_555 1_555
H21 C18 1_555 1_555
C19 C7 1_555 1_555
H22 C19 1_555 1_555
H23 C19 1_555 1_555
H24 C19 1_555 1_555
C3 C9 1_555 1_555
C11 C12 1_555 1_555
C13 C17 1_555 1_555

#END
