
#######################################################################
#
#                 Cambridge Crystallographic Data Centre
#                                CCDC 
#
#######################################################################
#
# If this CIF has been generated from an entry in the Cambridge 
# Structural Database, then it will include bibliographic, chemical, 
# crystal, experimental, refinement or atomic coordinate data resulting 
# from the CCDC's data processing and validation procedures.
#
#######################################################################

data_BOMJIY
_chemical_formula_moiety         'C14 H17 N1 O2'
_chemical_name_systematic        
1-(2-Hydroxyphenyl)-3-(piperidin-1-yl)prop-2-en-1-one
_symmetry_cell_setting           orthorhombic
_symmetry_space_group_name_H-M   'P n a 21'
_symmetry_Int_Tables_number      33
_space_group_name_Hall           'P 2c -2n'
loop_
_symmetry_equiv_pos_site_id
_symmetry_equiv_pos_as_xyz
1 x,y,z
2 -x,-y,1/2+z
3 1/2-x,1/2+y,1/2+z
4 1/2+x,1/2-y,z
_cell_length_a                   10.9878(2)
_cell_length_b                   13.5883(4)
_cell_length_c                   7.94100(10)
_cell_angle_alpha                90
_cell_angle_beta                 90
_cell_angle_gamma                90
_cell_volume                     1185.64
_exptl_crystal_colour            yellow
_exptl_crystal_description       block
_cell_formula_units_Z            4
loop_
_atom_site_label
_atom_site_type_symbol
_atom_site_fract_x
_atom_site_fract_y
_atom_site_fract_z
N1 N 0.36169(11) 0.52352(9) 0.60014(19)
C1 C 0.27369(14) 0.60380(11) 0.5763(2)
H1 H 0.2399 0.6227 0.6844
H2 H 0.2074 0.5812 0.5054
C2 C 0.33449(17) 0.69228(12) 0.4952(2)
H3 H 0.2767 0.7461 0.4879
H4 H 0.3599 0.6755 0.3818
C3 C 0.44468(17) 0.72458(12) 0.5976(2)
H5 H 0.4184 0.7468 0.7078
H6 H 0.4846 0.7792 0.5415
C4 C 0.53414(15) 0.63932(12) 0.6171(2)
H7 H 0.5673 0.6223 0.5077
H8 H 0.6010 0.6597 0.6888
C5 C 0.47278(15) 0.54932(11) 0.6933(2)
H9 H 0.5288 0.4941 0.6909
H10 H 0.4523 0.5626 0.8099
C6 C 0.33092(14) 0.43144(11) 0.5641(2)
H11 H 0.2583 0.4237 0.5055
C7 C 0.39215(15) 0.34601(10) 0.6018(2)
H12 H 0.4672 0.3479 0.6559
C8 C 0.33810(14) 0.25432(11) 0.5563(2)
O1 O 0.24242(12) 0.24994(9) 0.46755(18)
C9 C 0.39008(15) 0.16024(10) 0.6208(2)
C10 C 0.31861(15) 0.07413(11) 0.6135(2)
C11 C 0.36148(16) -0.01333(12) 0.6839(2)
H13 H 0.3134 -0.0696 0.6807
C12 C 0.47469(16) -0.01672(12) 0.7581(2)
H14 H 0.5018 -0.0749 0.8069
C13 C 0.54889(17) 0.06643(12) 0.7605(2)
H15 H 0.6264 0.0634 0.8073
C14 C 0.50601(14) 0.15334(11) 0.6927(2)
H16 H 0.5556 0.2088 0.6948
O2 O 0.20767(11) 0.07405(10) 0.54086(19)
H17 H 0.203(2) 0.133(2) 0.499(4)
loop_
_geom_bond_atom_site_label_1
_geom_bond_atom_site_label_2
_geom_bond_site_symmetry_1
_geom_bond_site_symmetry_2
N1 C1 1_555 1_555
C1 H1 1_555 1_555
H2 C1 1_555 1_555
C2 C1 1_555 1_555
H3 C2 1_555 1_555
H4 C2 1_555 1_555
C3 C2 1_555 1_555
H5 C3 1_555 1_555
H6 C3 1_555 1_555
C4 C3 1_555 1_555
H7 C4 1_555 1_555
H8 C4 1_555 1_555
C5 N1 1_555 1_555
H9 C5 1_555 1_555
H10 C5 1_555 1_555
C6 N1 1_555 1_555
H11 C6 1_555 1_555
C7 C6 1_555 1_555
H12 C7 1_555 1_555
C8 C7 1_555 1_555
O1 C8 1_555 1_555
C9 C8 1_555 1_555
C10 C9 1_555 1_555
C11 C10 1_555 1_555
H13 C11 1_555 1_555
C12 C11 1_555 1_555
H14 C12 1_555 1_555
C13 C12 1_555 1_555
H15 C13 1_555 1_555
C14 C9 1_555 1_555
H16 C14 1_555 1_555
O2 C10 1_555 1_555
H17 O2 1_555 1_555
C4 C5 1_555 1_555
C13 C14 1_555 1_555

#END
