
#######################################################################
#
#                 Cambridge Crystallographic Data Centre
#                                CCDC 
#
#######################################################################
#
# If this CIF has been generated from an entry in the Cambridge 
# Structural Database, then it will include bibliographic, chemical, 
# crystal, experimental, refinement or atomic coordinate data resulting 
# from the CCDC's data processing and validation procedures.
#
#######################################################################

data_BONFOA
_chemical_formula_moiety         'C29 H31 N1 O1 P1 1+,I1 1-'
_chemical_name_systematic        
'(4-(Ethyl-(2-hydroxyethyl)amino)benzyl)(triphenyl)phosphonium iodide'
_symmetry_cell_setting           triclinic
_symmetry_space_group_name_H-M   'P -1'
_symmetry_Int_Tables_number      2
_space_group_name_Hall           '-P 1'
loop_
_symmetry_equiv_pos_site_id
_symmetry_equiv_pos_as_xyz
1 x,y,z
2 -x,-y,-z
_cell_length_a                   11.302(3)
_cell_length_b                   12.208(3)
_cell_length_c                   20.762(6)
_cell_angle_alpha                76.024(4)
_cell_angle_beta                 82.317(4)
_cell_angle_gamma                71.979(3)
_cell_volume                     2638.06
_exptl_crystal_colour            colorless
_exptl_crystal_description       plate
_chemical_melting_point          174-177deg.C
_cell_formula_units_Z            4
_exptl_crystal_recrystallization_method ethanol
loop_
_atom_site_label
_atom_site_type_symbol
_atom_site_fract_x
_atom_site_fract_y
_atom_site_fract_z
I1 I 0.861946(13) 0.831701(12) -0.540585(8)
I2 I 1.381936(12) 1.232742(13) -0.874803(7)
P1 P 0.92289(4) 2.15965(4) -1.17450(2)
C1 C 0.98656(18) 2.03482(16) -1.21393(9)
H1 H 0.9180 2.0225 -1.2338
H2 H 1.0469 2.0546 -1.2507
C2 C 1.05120(17) 1.92013(16) -1.16869(9)
C3 C 1.18100(17) 1.88309(17) -1.16885(10)
H3 H 1.2270 1.9329 -1.1955
C4 C 1.24467(17) 1.77572(17) -1.13130(10)
H4 H 1.3332 1.7531 -1.1330
C5 C 1.18013(17) 1.69954(16) -1.09064(9)
C6 C 1.04838(17) 1.73884(17) -1.08955(11)
H5 H 1.0015 1.6909 -1.0618
C7 C 0.98664(17) 1.84570(17) -1.12811(10)
H6 H 0.8981 1.8690 -1.1269
N1 N 1.24250(15) 1.59195(15) -1.05360(9)
C8 C 1.17717(18) 1.51223(17) -1.01144(11)
H7 H 1.2306 1.4299 -1.0076
H8 H 1.1001 1.5199 -1.0320
C9 C 1.1429(6) 1.5409(5) -0.9401(3)
H9 H 1.2187 1.5434 -0.9222
H10 H 1.0816 1.6199 -0.9436
O1 O 1.0940(2) 1.4594(2) -0.89678(12)
H11 H 1.1496 1.3946 -0.8887
C10 C 1.37829(17) 1.55059(18) -1.05433(10)
H12 H 1.4031 1.4941 -1.0120
H13 H 1.4104 1.6185 -1.0570
C11 C 1.4379(2) 1.4916(2) -1.11158(15)
H14 H 1.5288 1.4660 -1.1095
H15 H 1.4154 1.5475 -1.1537
H16 H 1.4083 1.4230 -1.1087
C12 C 0.86960(17) 2.29158(16) -1.23688(9)
C13 C 0.7736(2) 2.38539(18) -1.21951(11)
H17 H 0.7321 2.3770 -1.1765
C14 C 0.7390(3) 2.4914(2) -1.26585(14)
H18 H 0.6743 2.5560 -1.2542
C15 C 0.7984(3) 2.5028(2) -1.32860(14)
H19 H 0.7735 2.5750 -1.3602
C16 C 0.8936(2) 2.4102(2) -1.34577(12)
H20 H 0.9344 2.4192 -1.3890
C17 C 0.93028(19) 2.30406(18) -1.30020(10)
H21 H 0.9961 2.2404 -1.3120
C18 C 0.79215(16) 2.13989(15) -1.11798(9)
C19 C 0.7664(2) 2.18464(18) -1.05998(10)
H22 H 0.8221 2.2197 -1.0479
C20 C 0.6587(2) 2.1774(2) -1.02004(11)
H23 H 0.6402 2.2086 -0.9809
C21 C 0.57817(19) 2.12484(18) -1.03725(11)
H24 H 0.5044 2.1208 -1.0100
C22 C 0.60442(18) 2.07831(18) -1.09364(11)
H25 H 0.5498 2.0409 -1.1046
C23 C 0.71137(17) 2.08630(17) -1.13465(10)
H26 H 0.7290 2.0553 -1.1738
C24 C 1.03877(16) 2.18074(16) -1.13101(9)
C25 C 1.0854(2) 2.09851(19) -1.07376(11)
H27 H 1.0589 2.0294 -1.0589
C26 C 1.1700(2) 2.1182(2) -1.03892(12)
H28 H 1.2002 2.0631 -0.9996
C27 C 1.2114(2) 2.2173(2) -1.06050(13)
H29 H 1.2694 2.2301 -1.0361
C28 C 1.1677(2) 2.2976(2) -1.11782(12)
H30 H 1.1973 2.3648 -1.1333
C29 C 1.08065(18) 2.28040(18) -1.15286(10)
H31 H 1.0497 2.3366 -1.1917
P2 P 0.77936(4) 1.23937(4) -0.57809(2)
C30 C 0.82529(16) 1.13193(15) -0.50173(9)
H32 H 0.8355 1.0526 -0.5096
H33 H 0.9078 1.1338 -0.4918
C31 C 0.73701(17) 1.14821(15) -0.44103(9)
C32 C 0.74224(18) 1.22285(17) -0.40134(10)
H34 H 0.8017 1.2660 -0.4132
C33 C 0.66304(18) 1.23646(18) -0.34459(10)
H35 H 0.6690 1.2890 -0.3189
C34 C 0.57397(17) 1.17334(17) -0.32472(10)
C35 C 0.57065(17) 1.09621(16) -0.36456(10)
H36 H 0.5127 1.0514 -0.3525
C36 C 0.64989(17) 1.08412(16) -0.42083(10)
H37 H 0.6452 1.0310 -0.4465
N2 N 0.49543(16) 1.18461(16) -0.26778(9)
C37 C 0.3983(2) 1.1252(2) -0.25286(11)
H38 H 0.3639 1.1267 -0.2066
H39 H 0.4359 1.0416 -0.2559
C38 C 0.2914(2) 1.1809(2) -0.29965(13)
H40 H 0.2340 1.2519 -0.2857
H41 H 0.3253 1.2050 -0.3456
O2 O 0.22587(18) 1.09787(19) -0.29770(10)
H42 H 0.2062 1.1030 -0.3362
C39 C 0.4831(2) 1.2792(2) -0.23349(11)
H43 H 0.5675 1.2829 -0.2284
H44 H 0.4438 1.2593 -0.1883
C40 C 0.4072(4) 1.3999(2) -0.26822(14)
H45 H 0.4068 1.4586 -0.2432
H46 H 0.3215 1.3990 -0.2706
H47 H 0.4443 1.4201 -0.3133
C41 C 0.91077(17) 1.22482(17) -0.63766(9)
C42 C 0.9190(2) 1.3219(2) -0.68799(12)
H48 H 0.8551 1.3946 -0.6907
C43 C 1.0205(3) 1.3121(2) -0.73407(14)
H49 H 1.0258 1.3779 -0.7686
C44 C 1.1141(2) 1.2067(2) -0.72987(12)
H50 H 1.1841 1.2005 -0.7611
C45 C 1.10614(19) 1.1106(2) -0.68050(11)
H51 H 1.1707 1.0384 -0.6779
C46 C 1.00404(18) 1.11850(19) -0.63426(10)
H52 H 0.9983 1.0517 -0.6007
C47 C 0.64969(17) 1.22241(15) -0.61260(9)
C48 C 0.65620(19) 1.21763(19) -0.67933(11)
H53 H 0.7300 1.2213 -0.7066
C49 C 0.5543(2) 1.2074(2) -0.70615(12)
H54 H 0.5586 1.2044 -0.7517
C50 C 0.4468(2) 1.20175(18) -0.66639(12)
H55 H 0.3775 1.1953 -0.6849
C51 C 0.43968(18) 1.20545(18) -0.59986(11)
H56 H 0.3661 1.2002 -0.5727
C52 C 0.54037(18) 1.21688(17) -0.57265(10)
H57 H 0.5350 1.2209 -0.5272
C53 C 0.74179(17) 1.38418(15) -0.56147(9)
C54 C 0.83766(18) 1.41748(17) -0.54258(11)
H58 H 0.9193 1.3643 -0.5390
C55 C 0.81308(19) 1.52826(17) -0.52911(11)
H59 H 0.8778 1.5512 -0.5161
C56 C 0.69304(19) 1.60631(17) -0.53466(10)
H60 H 0.6764 1.6826 -0.5258
C57 C 0.59828(18) 1.57293(16) -0.55298(10)
H61 H 0.5167 1.6263 -0.5564
C58 C 0.62173(17) 1.46164(16) -0.56641(9)
H62 H 0.5565 1.4386 -0.5788
C59? C 1.1426(19) 1.5357(19) -0.9528(9)
H63? H 1.0898 1.4843 -0.9308
H64? H 1.0869 1.6175 -0.9601
H65? H 1.2958 1.4968 -0.9202
O3? O 1.2223(7) 1.5280(6) -0.9069(4)
loop_
_geom_bond_atom_site_label_1
_geom_bond_atom_site_label_2
_geom_bond_site_symmetry_1
_geom_bond_site_symmetry_2
P1 C1 1_555 1_555
C1 H1 1_555 1_555
H2 C1 1_555 1_555
C2 C1 1_555 1_555
C3 C2 1_555 1_555
H3 C3 1_555 1_555
C4 C3 1_555 1_555
H4 C4 1_555 1_555
C5 C4 1_555 1_555
C6 C5 1_555 1_555
H5 C6 1_555 1_555
C7 C2 1_555 1_555
H6 C7 1_555 1_555
N1 C5 1_555 1_555
C8 N1 1_555 1_555
H7 C8 1_555 1_555
H8 C8 1_555 1_555
C9 C8 1_555 1_555
H9 C9 1_555 1_555
H10 C9 1_555 1_555
O1 C9 1_555 1_555
H11 O1 1_555 1_555
C10 N1 1_555 1_555
H12 C10 1_555 1_555
H13 C10 1_555 1_555
C11 C10 1_555 1_555
H14 C11 1_555 1_555
H15 C11 1_555 1_555
H16 C11 1_555 1_555
C12 P1 1_555 1_555
C13 C12 1_555 1_555
H17 C13 1_555 1_555
C14 C13 1_555 1_555
H18 C14 1_555 1_555
C15 C14 1_555 1_555
H19 C15 1_555 1_555
C16 C15 1_555 1_555
H20 C16 1_555 1_555
C17 C12 1_555 1_555
H21 C17 1_555 1_555
C18 P1 1_555 1_555
C19 C18 1_555 1_555
H22 C19 1_555 1_555
C20 C19 1_555 1_555
H23 C20 1_555 1_555
C21 C20 1_555 1_555
H24 C21 1_555 1_555
C22 C21 1_555 1_555
H25 C22 1_555 1_555
C23 C18 1_555 1_555
H26 C23 1_555 1_555
C24 P1 1_555 1_555
C25 C24 1_555 1_555
H27 C25 1_555 1_555
C26 C25 1_555 1_555
H28 C26 1_555 1_555
C27 C26 1_555 1_555
H29 C27 1_555 1_555
C28 C27 1_555 1_555
H30 C28 1_555 1_555
C29 C24 1_555 1_555
H31 C29 1_555 1_555
P2 C30 1_555 1_555
C30 H32 1_555 1_555
H33 C30 1_555 1_555
C31 C30 1_555 1_555
C32 C31 1_555 1_555
H34 C32 1_555 1_555
C33 C32 1_555 1_555
H35 C33 1_555 1_555
C34 C33 1_555 1_555
C35 C34 1_555 1_555
H36 C35 1_555 1_555
C36 C31 1_555 1_555
H37 C36 1_555 1_555
N2 C34 1_555 1_555
C37 N2 1_555 1_555
H38 C37 1_555 1_555
H39 C37 1_555 1_555
C38 C37 1_555 1_555
H40 C38 1_555 1_555
H41 C38 1_555 1_555
O2 C38 1_555 1_555
H42 O2 1_555 1_555
C39 N2 1_555 1_555
H43 C39 1_555 1_555
H44 C39 1_555 1_555
C40 C39 1_555 1_555
H45 C40 1_555 1_555
H46 C40 1_555 1_555
H47 C40 1_555 1_555
C41 P2 1_555 1_555
C42 C41 1_555 1_555
H48 C42 1_555 1_555
C43 C42 1_555 1_555
H49 C43 1_555 1_555
C44 C43 1_555 1_555
H50 C44 1_555 1_555
C45 C44 1_555 1_555
H51 C45 1_555 1_555
C46 C41 1_555 1_555
H52 C46 1_555 1_555
C47 P2 1_555 1_555
C48 C47 1_555 1_555
H53 C48 1_555 1_555
C49 C48 1_555 1_555
H54 C49 1_555 1_555
C50 C49 1_555 1_555
H55 C50 1_555 1_555
C51 C50 1_555 1_555
H56 C51 1_555 1_555
C52 C47 1_555 1_555
H57 C52 1_555 1_555
C53 P2 1_555 1_555
C54 C53 1_555 1_555
H58 C54 1_555 1_555
C55 C54 1_555 1_555
H59 C55 1_555 1_555
C56 C55 1_555 1_555
H60 C56 1_555 1_555
C57 C56 1_555 1_555
H61 C57 1_555 1_555
C58 C53 1_555 1_555
H62 C58 1_555 1_555
C6 C7 1_555 1_555
C16 C17 1_555 1_555
C22 C23 1_555 1_555
C28 C29 1_555 1_555
C35 C36 1_555 1_555
C45 C46 1_555 1_555
C51 C52 1_555 1_555
C57 C58 1_555 1_555

#END
