
#######################################################################
#
#                 Cambridge Crystallographic Data Centre
#                                CCDC 
#
#######################################################################
#
# If this CIF has been generated from an entry in the Cambridge 
# Structural Database, then it will include bibliographic, chemical, 
# crystal, experimental, refinement or atomic coordinate data resulting 
# from the CCDC's data processing and validation procedures.
#
#######################################################################

data_BONJEV
_chemical_formula_moiety         'C26 H31 N1 O7'
_chemical_name_systematic        
(7-(hydroxymethyl)-5-(3,4,5-trimethoxyphenyl)-5,6,7,8-tetrahydronaphtho[2,3-d][1,3]dioxol-6-yl)(pyrrolidin-1-yl)methanone
_symmetry_cell_setting           orthorhombic
_symmetry_space_group_name_H-M   'P 21 21 21'
_symmetry_Int_Tables_number      19
_space_group_name_Hall           'P 2ac 2ab'
loop_
_symmetry_equiv_pos_site_id
_symmetry_equiv_pos_as_xyz
1 x,y,z
2 1/2-x,-y,1/2+z
3 1/2+x,1/2-y,-z
4 -x,1/2+y,1/2-z
_cell_length_a                   11.2038(8)
_cell_length_b                   11.6390(7)
_cell_length_c                   18.4876(8)
_cell_angle_alpha                90
_cell_angle_beta                 90
_cell_angle_gamma                90
_cell_volume                     2410.8
_exptl_crystal_colour            colorless
_exptl_crystal_description       block
_cell_formula_units_Z            4
loop_
_atom_site_label
_atom_site_type_symbol
_atom_site_fract_x
_atom_site_fract_y
_atom_site_fract_z
O1 O -0.0722(3) -0.0650(2) -0.39869(14)
O2 O -0.2689(3) -0.0051(2) -0.38948(14)
O3 O -0.8078(2) -0.2603(3) -0.23330(16)
O4 O -0.7923(3) -0.3895(2) -0.35264(14)
O5 O -0.5849(3) -0.4852(2) -0.39281(13)
O6 O -0.0406(3) -0.2627(3) -0.06930(15)
H1 H -0.0278 -0.2340 -0.0295
O7 O -0.4479(3) -0.3248(2) -0.05513(12)
N1 N -0.4043(3) -0.5125(2) -0.06025(14)
C1 C -0.1873(3) -0.3691(3) -0.13258(16)
H2 H -0.1605 -0.4398 -0.1088
C2 C -0.1165(3) -0.3573(3) -0.20316(16)
H3 H -0.0339 -0.3404 -0.1916
H4 H -0.1184 -0.4301 -0.2287
C3 C -0.1640(3) -0.2646(3) -0.25239(15)
C4 C -0.0855(3) -0.2126(3) -0.30272(16)
H5 H -0.0059 -0.2347 -0.3057
C5 C -0.1306(4) -0.1292(3) -0.34656(17)
C6 C -0.1603(4) 0.0097(4) -0.4280(2)
H6 H -0.1339 0.0888 -0.4241
H7 H -0.1726 -0.0078 -0.4788
C7 C -0.2465(4) -0.0935(3) -0.34157(17)
C8 C -0.3252(3) -0.1409(3) -0.29390(16)
H8 H -0.4037 -0.1156 -0.2912
C9 C -0.2826(3) -0.2308(3) -0.24847(16)
C10 C -0.3706(3) -0.2819(3) -0.19583(15)
H9 H -0.3912 -0.2219 -0.1608
C11 C -0.3204(3) -0.3855(3) -0.15247(15)
H10 H -0.3265 -0.4539 -0.1832
C12 C -0.4848(3) -0.3161(3) -0.23449(16)
C13 C -0.5942(3) -0.2756(3) -0.21220(18)
H11 H -0.5990 -0.2299 -0.1710
C14 C -0.6969(3) -0.3016(3) -0.2499(2)
C15 C -0.6909(3) -0.3715(3) -0.31154(19)
C16 C -0.5826(4) -0.4148(3) -0.33266(17)
C17 C -0.4792(3) -0.3864(3) -0.29559(17)
H12 H -0.4059 -0.4143 -0.3114
C18 C -0.1651(3) -0.2712(3) -0.08059(18)
H13 H -0.2231 -0.2247 -0.0597
C19 C -0.8169(4) -0.1769(4) -0.1772(3)
H14 H -0.7893 -0.2096 -0.1326
H15 H -0.8986 -0.1536 -0.1721
H16 H -0.7688 -0.1114 -0.1893
C20 C -0.8708(4) -0.4744(3) -0.3250(2)
H17 H -0.8736 -0.4688 -0.2732
H18 H -0.8426 -0.5492 -0.3386
H19 H -0.9493 -0.4625 -0.3444
C21 C -0.4733(5) -0.5155(4) -0.4240(2)
H20 H -0.4255 -0.5546 -0.3886
H21 H -0.4328 -0.4472 -0.4396
H22 H -0.4864 -0.5651 -0.4647
C22 C -0.3966(3) -0.4058(3) -0.08589(16)
C23 C -0.3481(5) -0.6177(3) -0.0882(2)
H23 H -0.2634 -0.6061 -0.0966
H24 H -0.3854 -0.6421 -0.1330
C24 C -0.4779(7) -0.6671(4) 0.0076(3)
H25 H -0.4780 -0.6931 0.0575
H26 H -0.5478 -0.6980 -0.0165
C25 C -0.3686(6) -0.7039(4) -0.0292(3)
H27 H -0.3783 -0.7803 -0.0494
H28 H -0.3018 -0.7047 0.0042
C26 C -0.4775(5) -0.5366(3) 0.0040(2)
H29 H -0.5577 -0.5066 -0.0017
H30 H -0.4420 -0.5036 0.0472
loop_
_geom_bond_atom_site_label_1
_geom_bond_atom_site_label_2
_geom_bond_site_symmetry_1
_geom_bond_site_symmetry_2
O1 C5 1_555 1_555
O2 C6 1_555 1_555
O3 C14 1_555 1_555
O4 C15 1_555 1_555
O5 C16 1_555 1_555
O6 H1 1_555 1_555
O7 C22 1_555 1_555
N1 C22 1_555 1_555
C1 H2 1_555 1_555
C2 C1 1_555 1_555
H3 C2 1_555 1_555
H4 C2 1_555 1_555
C3 C2 1_555 1_555
C4 C3 1_555 1_555
H5 C4 1_555 1_555
C5 C4 1_555 1_555
C6 O1 1_555 1_555
H6 C6 1_555 1_555
H7 C6 1_555 1_555
C7 O2 1_555 1_555
C8 C7 1_555 1_555
H8 C8 1_555 1_555
C9 C3 1_555 1_555
C10 C9 1_555 1_555
H9 C10 1_555 1_555
C11 C1 1_555 1_555
H10 C11 1_555 1_555
C12 C10 1_555 1_555
C13 C12 1_555 1_555
H11 C13 1_555 1_555
C14 C13 1_555 1_555
C15 C14 1_555 1_555
C16 C15 1_555 1_555
C17 C12 1_555 1_555
H12 C17 1_555 1_555
C18 O6 1_555 1_555
H13 C18 1_555 1_555
C19 O3 1_555 1_555
H14 C19 1_555 1_555
H15 C19 1_555 1_555
H16 C19 1_555 1_555
C20 O4 1_555 1_555
H17 C20 1_555 1_555
H18 C20 1_555 1_555
H19 C20 1_555 1_555
C21 O5 1_555 1_555
H20 C21 1_555 1_555
H21 C21 1_555 1_555
H22 C21 1_555 1_555
C22 C11 1_555 1_555
C23 N1 1_555 1_555
H23 C23 1_555 1_555
H24 C23 1_555 1_555
C24 H25 1_555 1_555
H26 C24 1_555 1_555
C25 C23 1_555 1_555
H27 C25 1_555 1_555
H28 C25 1_555 1_555
C26 N1 1_555 1_555
H29 C26 1_555 1_555
H30 C26 1_555 1_555
C1 C18 1_555 1_555
C5 C7 1_555 1_555
C8 C9 1_555 1_555
C10 C11 1_555 1_555
C16 C17 1_555 1_555
C24 C25 1_555 1_555
C24 C26 1_555 1_555

#END
