
#######################################################################
#
#                 Cambridge Crystallographic Data Centre
#                                CCDC 
#
#######################################################################
#
# If this CIF has been generated from an entry in the Cambridge 
# Structural Database, then it will include bibliographic, chemical, 
# crystal, experimental, refinement or atomic coordinate data resulting 
# from the CCDC's data processing and validation procedures.
#
#######################################################################

data_BONJAR
_chemical_formula_moiety         'C35 H39 N1 O8'
_chemical_name_systematic        
'(7-(piperidin-1-ylcarbonyl)-8-(3,4,5-trimethoxyphenyl)-5,6,7,8-tetrahydronaphtho[2,3-d][1,3]dioxol-6-yl)methyl 3-methylbenzoate'
_symmetry_cell_setting           orthorhombic
_symmetry_space_group_name_H-M   'P 21 21 21'
_symmetry_Int_Tables_number      19
_space_group_name_Hall           'P 2ac 2ab'
loop_
_symmetry_equiv_pos_site_id
_symmetry_equiv_pos_as_xyz
1 x,y,z
2 1/2-x,-y,1/2+z
3 1/2+x,1/2-y,-z
4 -x,1/2+y,1/2-z
_cell_length_a                   18.6774(11)
_cell_length_b                   14.0520(8)
_cell_length_c                   11.9898(6)
_cell_angle_alpha                90
_cell_angle_beta                 90
_cell_angle_gamma                90
_cell_volume                     3146.78
_exptl_crystal_colour            colorless
_exptl_crystal_description       block
_cell_formula_units_Z            4
loop_
_atom_site_label
_atom_site_type_symbol
_atom_site_fract_x
_atom_site_fract_y
_atom_site_fract_z
O1 O 1.10390(18) 0.4963(3) 0.5031(3)
O2 O 1.07326(17) 0.6075(2) 0.6369(3)
O3 O 0.77043(19) 0.89624(19) 0.7639(2)
O4 O 0.78248(17) 1.0072(2) 0.5847(2)
O5 O 0.81766(18) 0.9357(2) 0.3865(2)
O6 O 0.69718(16) 0.36415(19) 0.5095(2)
O7 O 0.70318(18) 0.3343(3) 0.6924(2)
O8 O 0.67507(16) 0.5694(2) 0.5999(2)
N1 N 0.62886(18) 0.5764(3) 0.4267(3)
C1 C 0.7798(2) 0.4649(3) 0.4130(3)
H1 H 0.7465 0.4471 0.3535
C2 C 0.8543(2) 0.4653(3) 0.3638(3)
H2 H 0.8677 0.4005 0.3452
H3 H 0.8537 0.5018 0.2951
C3 C 0.9097(2) 0.5063(3) 0.4402(3)
C4 C 0.9812(2) 0.4759(3) 0.4296(3)
H4 H 0.9941 0.4301 0.3774
C5 C 1.0306(2) 0.5157(4) 0.4981(4)
C6 C 1.1317(3) 0.5689(5) 0.5750(5)
H5 H 1.1670 0.5420 0.6254
H6 H 1.1545 0.6184 0.5313
C7 C 1.0126(2) 0.5814(3) 0.5781(3)
C8 C 0.9442(2) 0.6112(3) 0.5897(3)
H7 H 0.9325 0.6560 0.6438
C9 C 0.8910(2) 0.5740(3) 0.5195(3)
C10 C 0.8137(2) 0.6053(3) 0.5389(3)
H8 H 0.7992 0.5782 0.6108
C11 C 0.7603(2) 0.5666(3) 0.4511(3)
H9 H 0.7626 0.6082 0.3857
C12 C 0.8077(2) 0.7131(3) 0.5506(3)
C13 C 0.7916(2) 0.7527(3) 0.6537(3)
H10 H 0.7847 0.7133 0.7151
C14 C 0.7857(2) 0.8508(3) 0.6659(3)
C15 C 0.7944(2) 0.9101(3) 0.5743(3)
C16 C 0.8111(2) 0.8706(3) 0.4712(3)
C17 C 0.8171(2) 0.7736(3) 0.4600(3)
H11 H 0.8277 0.7480 0.3905
C18 C 0.7716(2) 0.3921(3) 0.5069(3)
H12 H 0.8018 0.3373 0.4930
H13 H 0.7853 0.4201 0.5777
C19 C 0.6684(3) 0.3393(3) 0.6082(3)
C20 C 0.5905(2) 0.3203(3) 0.5982(3)
C21 C 0.5504(3) 0.3162(3) 0.6947(4)
H14 H 0.5729 0.3248 0.7631
C22 C 0.4767(3) 0.2996(3) 0.6922(4)
C23 C 0.4459(3) 0.2869(3) 0.5880(4)
H15 H 0.3969 0.2762 0.5831
C24 C 0.4859(3) 0.2897(4) 0.4918(4)
H16 H 0.4635 0.2809 0.4233
C25 C 0.5586(3) 0.3054(3) 0.4959(4)
H17 H 0.5857 0.3060 0.4308
C26 C 0.4329(3) 0.2960(5) 0.7972(4)
H18 H 0.3965 0.3442 0.7945
H19 H 0.4633 0.3068 0.8605
H20 H 0.4107 0.2345 0.8038
C27 C 0.7709(3) 0.8430(3) 0.8628(3)
H21 H 0.7586 0.8834 0.9245
H22 H 0.8178 0.8167 0.8744
H23 H 0.7366 0.7923 0.8573
C28 C 0.8456(4) 1.0596(4) 0.6032(5)
H24 H 0.8718 1.0318 0.6640
H25 H 0.8336 1.1242 0.6211
H26 H 0.8746 1.0584 0.5371
C29 C 0.8394(4) 0.9021(4) 0.2804(3)
H27 H 0.8873 0.8776 0.2852
H28 H 0.8381 0.9535 0.2276
H29 H 0.8076 0.8525 0.2564
C30 C 0.6846(2) 0.5723(3) 0.4982(3)
C31 C 0.5551(2) 0.5712(4) 0.4709(4)
H30 H 0.5360 0.5079 0.4586
H31 H 0.5558 0.5829 0.5507
C32 C 0.5085(3) 0.6419(4) 0.4162(4)
H32 H 0.5246 0.7054 0.4358
H33 H 0.4600 0.6344 0.4434
C33 C 0.5090(3) 0.6313(5) 0.2902(4)
H34 H 0.4866 0.5716 0.2695
H35 H 0.4819 0.6827 0.2566
C34 C 0.5852(3) 0.6334(4) 0.2478(4)
H36 H 0.5852 0.6189 0.1687
H37 H 0.6043 0.6971 0.2570
C35 C 0.6322(2) 0.5655(4) 0.3057(3)
H38 H 0.6182 0.5012 0.2859
H39 H 0.6811 0.5751 0.2810
loop_
_geom_bond_atom_site_label_1
_geom_bond_atom_site_label_2
_geom_bond_site_symmetry_1
_geom_bond_site_symmetry_2
O1 C5 1_555 1_555
O2 C6 1_555 1_555
O3 C14 1_555 1_555
O4 C15 1_555 1_555
O5 C16 1_555 1_555
O6 C18 1_555 1_555
O7 C19 1_555 1_555
O8 C30 1_555 1_555
N1 C30 1_555 1_555
C1 H1 1_555 1_555
C2 C1 1_555 1_555
H2 C2 1_555 1_555
H3 C2 1_555 1_555
C3 C2 1_555 1_555
C4 C3 1_555 1_555
H4 C4 1_555 1_555
C5 C4 1_555 1_555
C6 O1 1_555 1_555
H5 C6 1_555 1_555
H6 C6 1_555 1_555
C7 O2 1_555 1_555
C8 C7 1_555 1_555
H7 C8 1_555 1_555
C9 C3 1_555 1_555
C10 C9 1_555 1_555
H8 C10 1_555 1_555
C11 C1 1_555 1_555
H9 C11 1_555 1_555
C12 C10 1_555 1_555
C13 C12 1_555 1_555
H10 C13 1_555 1_555
C14 C13 1_555 1_555
C15 C14 1_555 1_555
C16 C15 1_555 1_555
C17 C12 1_555 1_555
H11 C17 1_555 1_555
C18 C1 1_555 1_555
H12 C18 1_555 1_555
H13 C18 1_555 1_555
C19 O6 1_555 1_555
C20 C19 1_555 1_555
C21 C20 1_555 1_555
H14 C21 1_555 1_555
C22 C21 1_555 1_555
C23 C22 1_555 1_555
H15 C23 1_555 1_555
C24 C23 1_555 1_555
H16 C24 1_555 1_555
C25 C20 1_555 1_555
H17 C25 1_555 1_555
C26 C22 1_555 1_555
H18 C26 1_555 1_555
H19 C26 1_555 1_555
H20 C26 1_555 1_555
C27 O3 1_555 1_555
H21 C27 1_555 1_555
H22 C27 1_555 1_555
H23 C27 1_555 1_555
C28 O4 1_555 1_555
H24 C28 1_555 1_555
H25 C28 1_555 1_555
H26 C28 1_555 1_555
C29 O5 1_555 1_555
H27 C29 1_555 1_555
H28 C29 1_555 1_555
H29 C29 1_555 1_555
C30 C11 1_555 1_555
C31 N1 1_555 1_555
H30 C31 1_555 1_555
H31 C31 1_555 1_555
C32 C31 1_555 1_555
H32 C32 1_555 1_555
H33 C32 1_555 1_555
C33 C32 1_555 1_555
H34 C33 1_555 1_555
H35 C33 1_555 1_555
C34 C33 1_555 1_555
H36 C34 1_555 1_555
H37 C34 1_555 1_555
C35 N1 1_555 1_555
H38 C35 1_555 1_555
H39 C35 1_555 1_555
C5 C7 1_555 1_555
C8 C9 1_555 1_555
C10 C11 1_555 1_555
C16 C17 1_555 1_555
C24 C25 1_555 1_555
C34 C35 1_555 1_555

#END
