
#######################################################################
#
#                 Cambridge Crystallographic Data Centre
#                                CCDC 
#
#######################################################################
#
# If this CIF has been generated from an entry in the Cambridge 
# Structural Database, then it will include bibliographic, chemical, 
# crystal, experimental, refinement or atomic coordinate data resulting 
# from the CCDC's data processing and validation procedures.
#
#######################################################################

data_BOPFIX
_chemical_formula_moiety         'C20 H20 Cl1 F1 N4 O3'
_chemical_name_systematic        
6-(((6-Chloropyridin-3-yl)methyl)(ethyl)amino)-4-(3-fluorophenyl)-1-methyl-5-nitro-3,4-dihydropyridin-2(1H)-one
_symmetry_cell_setting           monoclinic
_symmetry_space_group_name_H-M   'P 21/c'
_symmetry_Int_Tables_number      14
_space_group_name_Hall           '-P 2ybc'
loop_
_symmetry_equiv_pos_site_id
_symmetry_equiv_pos_as_xyz
1 x,y,z
2 -x,1/2+y,1/2-z
3 -x,-y,-z
4 x,1/2-y,1/2+z
_cell_length_a                   11.5507(10)
_cell_length_b                   19.5754(17)
_cell_length_c                   9.0151(8)
_cell_angle_alpha                90
_cell_angle_beta                 103.952(2)
_cell_angle_gamma                90
_cell_volume                     1978.26
_exptl_crystal_colour            black
_exptl_crystal_description       block
_cell_formula_units_Z            4
loop_
_atom_site_label
_atom_site_type_symbol
_atom_site_fract_x
_atom_site_fract_y
_atom_site_fract_z
C1 C 0.0015(3) 1.03373(17) 0.7895(3)
C2 C 0.1151(3) 1.05597(16) 0.7954(4)
H1 H 0.1442 1.0961 0.8463
C3 C 0.1845(3) 1.01726(16) 0.7241(4)
H2 H 0.2619 1.0309 0.7255
C4 C 0.1387(3) 0.95760(15) 0.6497(3)
C5 C 0.0237(3) 0.94103(16) 0.6511(4)
H3 H -0.0079 0.9012 0.6011
C6 C 0.2116(3) 0.91378(15) 0.5694(3)
H4 H 0.1587 0.8837 0.4985
H5 H 0.2521 0.9428 0.5108
C7 C 0.2564(3) 0.82029(15) 0.7649(4)
H6 H 0.1959 0.8403 0.8097
H7 H 0.3214 0.8048 0.8476
C8 C 0.2040(3) 0.75994(18) 0.6684(5)
H8 H 0.1405 0.7751 0.5854
H9 H 0.1733 0.7278 0.7299
H10 H 0.2647 0.7384 0.6284
C9 C 0.4178(2) 0.89109(13) 0.7100(3)
C10 C 0.4927(3) 0.89841(14) 0.8524(3)
C11 C 0.6239(3) 0.90883(15) 0.8682(3)
H11 H 0.6563 0.9307 0.9673
C12 C 0.6341(3) 0.96027(15) 0.7438(3)
H12 H 0.5999 1.0036 0.7637
H13 H 0.7176 0.9678 0.7464
C13 C 0.5712(3) 0.93530(14) 0.5899(4)
C14 C 0.4158(3) 0.86185(16) 0.4390(3)
H14 H 0.3559 0.8898 0.3747
H15 H 0.3805 0.8199 0.4612
H16 H 0.4776 0.8521 0.3876
C15 C 0.6931(3) 0.84291(15) 0.8652(3)
C16 C 0.6521(3) 0.7813(2) 0.8991(6)
H17 H 0.5774 0.7787 0.9203
C17 C 0.7191(4) 0.7221(2) 0.9028(7)
H18 H 0.6883 0.6807 0.9263
C18 C 0.8277(4) 0.7236(2) 0.8731(5)
H19 H 0.8729 0.6841 0.8747
C19 C 0.8674(3) 0.7849(2) 0.8409(5)
C20 C 0.8040(3) 0.84376(18) 0.8350(4)
H20 H 0.8358 0.8847 0.8104
Cl1 Cl -0.09046(9) 1.08073(5) 0.87924(11)
F1 F 0.9784(2) 0.78767(14) 0.8142(4)
N1 N -0.0466(2) 0.97788(14) 0.7192(3)
N2 N 0.3008(2) 0.87233(12) 0.6765(3)
N3 N 0.4672(2) 0.89841(11) 0.5829(3)
N4 N 0.4486(3) 0.90778(14) 0.9840(3)
O1 O 0.3433(2) 0.92006(12) 0.9773(3)
O2 O 0.5227(2) 0.90487(16) 1.1099(3)
O3 O 0.60813(19) 0.94390(11) 0.4761(3)
loop_
_geom_bond_atom_site_label_1
_geom_bond_atom_site_label_2
_geom_bond_site_symmetry_1
_geom_bond_site_symmetry_2
C1 C2 1_555 1_555
C2 H1 1_555 1_555
C3 C2 1_555 1_555
H2 C3 1_555 1_555
C4 C3 1_555 1_555
C5 C4 1_555 1_555
H3 C5 1_555 1_555
C6 C4 1_555 1_555
H4 C6 1_555 1_555
H5 C6 1_555 1_555
C7 H6 1_555 1_555
H7 C7 1_555 1_555
C8 C7 1_555 1_555
H8 C8 1_555 1_555
H9 C8 1_555 1_555
H10 C8 1_555 1_555
C9 C10 1_555 1_555
C10 C11 1_555 1_555
C11 H11 1_555 1_555
C12 C11 1_555 1_555
H12 C12 1_555 1_555
H13 C12 1_555 1_555
C13 C12 1_555 1_555
C14 H14 1_555 1_555
H15 C14 1_555 1_555
H16 C14 1_555 1_555
C15 C11 1_555 1_555
C16 C15 1_555 1_555
H17 C16 1_555 1_555
C17 C16 1_555 1_555
H18 C17 1_555 1_555
C18 C17 1_555 1_555
H19 C18 1_555 1_555
C19 C18 1_555 1_555
C20 C15 1_555 1_555
H20 C20 1_555 1_555
Cl1 C1 1_555 1_555
F1 C19 1_555 1_555
N1 C1 1_555 1_555
N2 C6 1_555 1_555
N3 C9 1_555 1_555
N4 C10 1_555 1_555
O1 N4 1_555 1_555
O2 N4 1_555 1_555
O3 C13 1_555 1_555
C5 N1 1_555 1_555
C7 N2 1_555 1_555
C9 N2 1_555 1_555
C13 N3 1_555 1_555
C14 N3 1_555 1_555
C19 C20 1_555 1_555

#END
