
#######################################################################
#
#                 Cambridge Crystallographic Data Centre
#                                CCDC 
#
#######################################################################
#
# If this CIF has been generated from an entry in the Cambridge 
# Structural Database, then it will include bibliographic, chemical, 
# crystal, experimental, refinement or atomic coordinate data resulting 
# from the CCDC's data processing and validation procedures.
#
#######################################################################

data_BOPGOE
_chemical_formula_moiety         'C17 H14 O2 S9'
_chemical_name_systematic        
'2-(2-(5,6-Dihydro[1,3]dithiolo[4,5-b][1,4]dithiin-2-ylidene)-5,6-dihydro[1,3]dithiolo[4,5-b][1,4]dithiin-5-yl)ethyl thiophene-2-carboxylate'
_symmetry_cell_setting           monoclinic
_symmetry_space_group_name_H-M   'C 2/c'
_symmetry_Int_Tables_number      15
_space_group_name_Hall           '-C 2yn'
loop_
_symmetry_equiv_pos_site_id
_symmetry_equiv_pos_as_xyz
1 x,y,z
2 -x,y,1/2-z
3 1/2+x,1/2+y,z
4 1/2-x,1/2+y,1/2-z
5 -x,-y,-z
6 x,-y,1/2+z
7 1/2-x,1/2-y,-z
8 1/2+x,1/2-y,1/2+z
_cell_length_a                   37.3030(17)
_cell_length_b                   8.9433(4)
_cell_length_c                   12.9288(6)
_cell_angle_alpha                90
_cell_angle_beta                 100.327(2)
_cell_angle_gamma                90
_cell_volume                     4243.33
_exptl_crystal_colour            yellow
_exptl_crystal_description       block
_cell_formula_units_Z            8
loop_
_atom_site_label
_atom_site_type_symbol
_atom_site_fract_x
_atom_site_fract_y
_atom_site_fract_z
S1 S 0.16753(2) 0.61563(13) 0.09197(8)
S2 S 0.14190(3) 0.64816(12) -0.18373(7)
S3 S 0.08916(2) 0.54259(10) 0.08295(6)
S4 S 0.06857(2) 0.56700(10) -0.14565(6)
S5 S 0.01299(2) 0.70210(9) 0.11118(6)
S6 S -0.01188(2) 0.68849(9) -0.11784(6)
S7 S -0.03805(2) 0.94135(9) 0.14754(6)
S8 S -0.07048(2) 0.91095(10) -0.12539(6)
S9 S -0.23739(3) 0.99348(17) 0.23636(15)
O1 O -0.13661(6) 0.8932(3) 0.22677(19)
O2 O -0.18763(7) 0.7937(3) 0.1316(2)
C1 C 0.19255(13) 0.6940(7) -0.0028(4)
H1 H 0.1857 0.8006 -0.0138
H2 H 0.2189 0.6901 0.0270
C2 C 0.18636(11) 0.6179(7) -0.1061(4)
H3 H 0.1900 0.5091 -0.0945
H4 H 0.2049 0.6530 -0.1465
C3 C 0.12450(9) 0.5907(4) 0.0138(3)
C4 C 0.11479(9) 0.6025(4) -0.0912(3)
C5 C 0.05499(8) 0.5911(4) -0.0236(2)
C6 C 0.02299(8) 0.6511(4) -0.0115(2)
C7 C -0.02189(8) 0.8277(3) 0.0560(2)
C8 C -0.03364(8) 0.8194(4) -0.0482(2)
C9 C -0.08460(8) 0.9711(4) 0.0784(2)
H5 H -0.0957 1.0476 0.1193
C10 C -0.08444(9) 1.0381(4) -0.0307(3)
H6 H -0.0679 1.1256 -0.0226
H7 H -0.1093 1.0748 -0.0594
C11 C -0.10776(9) 0.8306(4) 0.0758(2)
H8 H -0.1315 0.8484 0.0292
H9 H -0.0954 0.7480 0.0451
C12 C -0.11465(9) 0.7827(4) 0.1827(3)
H10 H -0.1275 0.6853 0.1764
H11 H -0.0911 0.7696 0.2310
C13 C -0.17274(10) 0.8822(4) 0.1960(3)
C14 C -0.19146(6) 0.9901(4) 0.2493(2)
C15 C -0.17758(9) 1.0877(4) 0.3309(3)
H12 H -0.1522 1.0909 0.3589
C16 C -0.20202(10) 1.1800(6) 0.3697(4)
H13 H -0.1959 1.2612 0.4169
C17 C -0.23576(8) 1.1346(4) 0.3289(3)
H14 H -0.2570 1.1761 0.3488
S10? S -0.18361(8) 1.0606(4) 0.3684(3)
C18? C -0.22760(8) 1.0120(4) 0.2179(3)
H15? H -0.2400 0.9678 0.1547
C19? C -0.2471(5) 1.0996(16) 0.2809(12)
H16? H -0.2724 1.1222 0.2643
C20? C -0.2243(3) 1.146(2) 0.3680(15)
H17? H -0.2299 1.2136 0.4195
loop_
_geom_bond_atom_site_label_1
_geom_bond_atom_site_label_2
_geom_bond_site_symmetry_1
_geom_bond_site_symmetry_2
S1 C1 1_555 1_555
S2 C2 1_555 1_555
S3 C3 1_555 1_555
S4 C4 1_555 1_555
S5 C6 1_555 1_555
S6 C6 1_555 1_555
S7 C7 1_555 1_555
S8 C8 1_555 1_555
S9 C14 1_555 1_555
O1 C12 1_555 1_555
O2 C13 1_555 1_555
C1 H1 1_555 1_555
H2 C1 1_555 1_555
C2 C1 1_555 1_555
H3 C2 1_555 1_555
H4 C2 1_555 1_555
C3 S1 1_555 1_555
C4 S2 1_555 1_555
C5 S3 1_555 1_555
C6 C5 1_555 1_555
C7 S5 1_555 1_555
C8 S6 1_555 1_555
C9 S7 1_555 1_555
H5 C9 1_555 1_555
C10 S8 1_555 1_555
H6 C10 1_555 1_555
H7 C10 1_555 1_555
C11 C9 1_555 1_555
H8 C11 1_555 1_555
H9 C11 1_555 1_555
C12 C11 1_555 1_555
H10 C12 1_555 1_555
H11 C12 1_555 1_555
C13 O1 1_555 1_555
C14 C13 1_555 1_555
C15 C14 1_555 1_555
H12 C15 1_555 1_555
C16 C15 1_555 1_555
H13 C16 1_555 1_555
C17 S9 1_555 1_555
H14 C17 1_555 1_555
S4 C5 1_555 1_555
C3 C4 1_555 1_555
C7 C8 1_555 1_555
C9 C10 1_555 1_555
C16 C17 1_555 1_555

#END
