
#######################################################################
#
#                 Cambridge Crystallographic Data Centre
#                                CCDC 
#
#######################################################################
#
# If this CIF has been generated from an entry in the Cambridge 
# Structural Database, then it will include bibliographic, chemical, 
# crystal, experimental, refinement or atomic coordinate data resulting 
# from the CCDC's data processing and validation procedures.
#
#######################################################################

data_BOPLIC
_chemical_formula_moiety         'C33 H41 Cl1 O7'
_chemical_name_systematic        
'4-Chloro-2-ethyl-9-(1-hydroxy-3,3-dimethylbutyl)-8-methoxy-3-methyl-7-oxo-5H,7H-dibenzo[b,g][1,5]dioxocin-1-yl 7-methylbicyclo[2.2.1]heptane-7-carboxylate'
_chemical_properties_biological  
'potent cholesterol ester transfer protein inhibitor'
_symmetry_cell_setting           monoclinic
_symmetry_space_group_name_H-M   'P 21'
_symmetry_Int_Tables_number      4
_space_group_name_Hall           'P 2yb'
loop_
_symmetry_equiv_pos_site_id
_symmetry_equiv_pos_as_xyz
1 x,y,z
2 -x,1/2+y,-z
_cell_length_a                   14.7275(18)
_cell_length_b                   7.3221(9)
_cell_length_c                   15.0743(18)
_cell_angle_alpha                90
_cell_angle_beta                 99.877(2)
_cell_angle_gamma                90
_cell_volume                     1601.46
_exptl_crystal_colour            colorless
_exptl_crystal_description       prismatic
_cell_formula_units_Z            2
loop_
_atom_site_label
_atom_site_type_symbol
_atom_site_fract_x
_atom_site_fract_y
_atom_site_fract_z
Cl1 Cl 0.56855(9) 0.3096(2) 0.54163(10)
O1 O 0.1532(2) 0.1783(5) 0.6005(2)
O2 O 0.2973(2) 0.2108(4) 0.5867(2)
O3 O 0.28798(17) 0.5749(4) 0.65551(16)
O4 O 0.10314(18) 0.3142(4) 0.39837(18)
O5 O 0.0010(2) 0.8100(6) 0.3104(2)
H1 H -0.0336 0.7895 0.3464
O6 O 0.39048(19) 0.8364(5) 0.74880(18)
O7 O 0.3906(3) 0.6695(6) 0.8712(2)
C1 C 0.4346(3) 0.6937(7) 0.7092(3)
C2 C 0.5311(3) 0.6925(8) 0.7201(3)
C3 C 0.5723(3) 0.5678(8) 0.6679(3)
C4 C 0.5167(3) 0.4501(7) 0.6127(3)
C5 C 0.4220(3) 0.4410(6) 0.6060(3)
C6 C 0.3823(3) 0.5688(6) 0.6553(3)
C7 C 0.2333(3) 0.6024(5) 0.5713(3)
C8 C 0.1916(3) 0.4491(6) 0.5281(3)
C9 C 0.2115(3) 0.2709(6) 0.5742(3)
C10 C 0.3662(3) 0.3039(7) 0.5456(3)
H2 H 0.3358 0.3657 0.4916
H3 H 0.4077 0.2136 0.5274
C11 C 0.1352(3) 0.4690(6) 0.4435(3)
C12 C 0.1202(3) 0.6402(6) 0.4057(3)
C13 C 0.1609(3) 0.7897(6) 0.4536(3)
H4 H 0.1491 0.9057 0.4292
C14 C 0.2181(3) 0.7731(6) 0.5358(3)
H5 H 0.2454 0.8751 0.5661
C15 C 0.5843(3) 0.8378(9) 0.7794(4)
H6 H 0.5524 0.8633 0.8293
H7 H 0.6447 0.7901 0.8043
C16 C 0.5958(5) 1.0118(11) 0.7315(5)
H8 H 0.6303 0.9893 0.6840
H9 H 0.6283 1.0984 0.7732
H10 H 0.5363 1.0600 0.7064
C17 C 0.6765(3) 0.5595(11) 0.6738(5)
H11 H 0.7024 0.4807 0.7225
H12 H 0.7019 0.6799 0.6842
H13 H 0.6907 0.5126 0.6183
C18 C 0.0120(3) 0.2627(7) 0.4066(4)
H14 H 0.0094 0.2376 0.4687
H15 H -0.0053 0.1553 0.3713
H16 H -0.0296 0.3604 0.3856
C19 C 0.0649(3) 0.6646(7) 0.3126(3)
H17 H 0.0308 0.5516 0.2951
C20 C 0.1289(4) 0.6999(12) 0.2474(3)
H18 H 0.1859 0.6357 0.2694
H19 H 0.1432 0.8293 0.2500
C21 C 0.0990(5) 0.648(2) 0.1454(4)
C22 C 0.0626(11) 0.462(2) 0.1396(10)
H20 H -0.0030 0.4660 0.1200
H21 H 0.0761 0.4055 0.1977
H22 H 0.0905 0.3936 0.0972
C23 C 0.1694(6) 0.706(3) 0.0961(5)
H23 H 0.1628 0.6407 0.0402
H24 H 0.2290 0.6818 0.1310
H25 H 0.1632 0.8348 0.0842
C24 C 0.0077(7) 0.7241(15) 0.1112(7)
C25 C 0.3665(3) 0.8018(8) 0.8297(3)
C26 C 0.3036(4) 0.9501(8) 0.8534(3)
C27 C 0.2053(3) 0.8879(9) 0.8099(5)
H26 H 0.2061 0.8454 0.7498
H27 H 0.1635 0.9890 0.8080
H28 H 0.1855 0.7909 0.8450
C28 C 0.3230(4) 1.1435(8) 0.8292(4)
H29 H 0.3164 1.1677 0.7644
C29 C 0.2554(5) 1.2484(9) 0.8778(5)
H30 H 0.2769 1.3720 0.8919
H31 H 0.1946 1.2535 0.8410
C30 C 0.2534(5) 1.1410(11) 0.9625(4)
H32 H 0.2758 1.2132 1.0157
H33 H 0.1918 1.0976 0.9654
C31 C 0.3164(5) 0.9883(10) 0.9530(4)
H34 H 0.3087 0.8814 0.9902
C32 C 0.4190(5) 1.0630(13) 0.9641(5)
H35 H 0.4343 1.1350 1.0186
H36 H 0.4626 0.9631 0.9664
C33 C 0.4197(5) 1.1778(13) 0.8829(6)
H37 H 0.4671 1.1385 0.8497
H38 H 0.4289 1.3057 0.8986
loop_
_geom_bond_atom_site_label_1
_geom_bond_atom_site_label_2
_geom_bond_site_symmetry_1
_geom_bond_site_symmetry_2
Cl1 C4 1_555 1_555
O1 C9 1_555 1_555
O2 C9 1_555 1_555
O3 C6 1_555 1_555
O4 C11 1_555 1_555
O5 H1 1_555 1_555
O6 C1 1_555 1_555
O7 C25 1_555 1_555
C1 C2 1_555 1_555
C2 C3 1_555 1_555
C3 C4 1_555 1_555
C4 C5 1_555 1_555
C5 C6 1_555 1_555
C6 C1 1_555 1_555
C7 O3 1_555 1_555
C8 C7 1_555 1_555
C9 C8 1_555 1_555
C10 O2 1_555 1_555
H2 C10 1_555 1_555
H3 C10 1_555 1_555
C11 C8 1_555 1_555
C12 C11 1_555 1_555
C13 C12 1_555 1_555
H4 C13 1_555 1_555
C14 C7 1_555 1_555
H5 C14 1_555 1_555
C15 C2 1_555 1_555
H6 C15 1_555 1_555
H7 C15 1_555 1_555
C16 C15 1_555 1_555
H8 C16 1_555 1_555
H9 C16 1_555 1_555
H10 C16 1_555 1_555
C17 C3 1_555 1_555
H11 C17 1_555 1_555
H12 C17 1_555 1_555
H13 C17 1_555 1_555
C18 O4 1_555 1_555
H14 C18 1_555 1_555
H15 C18 1_555 1_555
H16 C18 1_555 1_555
C19 O5 1_555 1_555
H17 C19 1_555 1_555
C20 C19 1_555 1_555
H18 C20 1_555 1_555
H19 C20 1_555 1_555
C21 C20 1_555 1_555
C22 C21 1_555 1_555
H20 C22 1_555 1_555
H21 C22 1_555 1_555
H22 C22 1_555 1_555
C23 C21 1_555 1_555
H23 C23 1_555 1_555
H24 C23 1_555 1_555
H25 C23 1_555 1_555
C24 C21 1_555 1_555
C25 O6 1_555 1_555
C26 C25 1_555 1_555
C27 C26 1_555 1_555
H26 C27 1_555 1_555
H27 C27 1_555 1_555
H28 C27 1_555 1_555
C28 C26 1_555 1_555
H29 C28 1_555 1_555
C29 C28 1_555 1_555
H30 C29 1_555 1_555
H31 C29 1_555 1_555
C30 C29 1_555 1_555
H32 C30 1_555 1_555
H33 C30 1_555 1_555
C31 C26 1_555 1_555
H34 C31 1_555 1_555
C32 C31 1_555 1_555
H35 C32 1_555 1_555
H36 C32 1_555 1_555
C33 C28 1_555 1_555
H37 C33 1_555 1_555
H38 C33 1_555 1_555
C5 C10 1_555 1_555
C12 C19 1_555 1_555
C13 C14 1_555 1_555
C30 C31 1_555 1_555
C32 C33 1_555 1_555

#END
