
#######################################################################
#
#                 Cambridge Crystallographic Data Centre
#                                CCDC 
#
#######################################################################
#
# If this CIF has been generated from an entry in the Cambridge 
# Structural Database, then it will include bibliographic, chemical, 
# crystal, experimental, refinement or atomic coordinate data resulting 
# from the CCDC's data processing and validation procedures.
#
#######################################################################

data_BOQKEX
_chemical_name_common            
"N-methyl-3',4'-dimethoxy-4-stilbazolium tetraphenylborate"
_chemical_formula_moiety         'C16 H18 N1 O2 1+,C24 H20 B1 1-'
_chemical_name_systematic        
'4-(2-(3,4-Dimethoxyphenyl)ethenyl)-1-methylpyridinium tetraphenylborate'
_symmetry_cell_setting           monoclinic
_symmetry_space_group_name_H-M   'C c'
_symmetry_Int_Tables_number      9
_space_group_name_Hall           'C -2yc'
loop_
_symmetry_equiv_pos_site_id
_symmetry_equiv_pos_as_xyz
1 x,y,z
2 x,-y,1/2+z
3 1/2+x,1/2+y,z
4 1/2+x,1/2-y,1/2+z
_cell_length_a                   11.325(2)
_cell_length_b                   16.996(2)
_cell_length_c                   17.193(2)
_cell_angle_alpha                90
_cell_angle_beta                 99.780(10)
_cell_angle_gamma                90
_cell_volume                     3261.21
_exptl_crystal_colour            brown-yellow
_exptl_crystal_description       block
_chemical_melting_point          '467-468 K'
_cell_formula_units_Z            4
_exptl_crystal_recrystallization_method dimethylformamide
loop_
_atom_site_label
_atom_site_type_symbol
_atom_site_fract_x
_atom_site_fract_y
_atom_site_fract_z
O1 O 1.0962(2) 0.52460(10) 0.65637(11)
O2 O 0.90442(14) 0.44286(10) 0.65491(10)
N1 N 0.7285(2) 0.26105(12) 0.10385(11)
C1 C 0.6672(3) 0.2208(2) 0.03308(14)
H1 H 0.5961 0.1958 0.0445
H2 H 0.7195 0.1818 0.0170
H3 H 0.6459 0.2584 -0.0086
C2 C 0.7919(3) 0.3259(2) 0.0965(2)
H4 H 0.7965 0.3451 0.0464
C3 C 0.8491(2) 0.3640(2) 0.1600(2)
H5 H 0.8930 0.4089 0.1531
C4 C 0.8446(2) 0.33807(15) 0.23630(14)
C5 C 0.7793(2) 0.26946(15) 0.24190(14)
H6 H 0.7741 0.24863 0.29123
C6 C 0.7231(2) 0.23288(15) 0.17562(14)
H7 H 0.6798 0.18715 0.18034
C7 C 0.9052(2) 0.38160(15) 0.3046(2)
H8 H 0.9599 0.41999 0.2958
C8 C 0.8884(2) 0.3708(2) 0.3775(2)
H9 H 0.8331 0.3323 0.3850
C9 C 0.9468(2) 0.41247(14) 0.44873(15)
C10 C 1.0496(2) 0.45611(15) 0.4506(2)
H10 H 1.0842 0.45958 0.4054
C11 C 1.1025(2) 0.49486(14) 0.5182(2)
H11 H 1.1714 0.52461 0.5182
C12 C 1.0525(2) 0.48921(14) 0.5861(2)
C13 C 0.9482(2) 0.44483(15) 0.58480(14)
C14 C 0.8965(2) 0.40757(14) 0.51665(15)
H12 H 0.8267 0.37858 0.51604
C15 C 1.2021(3) 0.5715(2) 0.6603(2)
H13 H 1.2670 0.5390 0.6498
H14 H 1.2224 0.5941 0.7120
H15 H 1.1879 0.6127 0.6217
C16 C 0.7869(2) 0.4121(2) 0.6526(2)
H16 H 0.7664 0.4141 0.7045
H17 H 0.7843 0.3586 0.6346
H18 H 0.7306 0.4430 0.6171
B1 B 0.4826(3) 0.25256(14) 0.3841(2)
C17 C 0.5988(2) 0.19319(13) 0.38770(12)
C18 C 0.7072(2) 0.20191(15) 0.43861(13)
H19 H 0.7144 0.24130 0.47666
C19 C 0.8063(2) 0.1535(2) 0.4347(2)
H20 H 0.8777 0.1617 0.4694
C20 C 0.7984(3) 0.0943(2) 0.3803(2)
H21 H 0.8634 0.0614 0.3782
C21 C 0.6932(2) 0.0844(2) 0.32890(15)
H22 H 0.6870 0.0449 0.29093
C22 C 0.5959(2) 0.13246(14) 0.33291(14)
H23 H 0.5254 0.12390 0.29745
C23 C 0.4904(2) 0.30831(14) 0.30680(13)
C24 C 0.5569(2) 0.3776(2) 0.3097(2)
H24 H 0.5935 0.3967 0.3586
C25 C 0.5705(3) 0.4194(2) 0.2421(2)
H25 H 0.6144 0.4659 0.2467
C26 C 0.5194(3) 0.3925(2) 0.1680(2)
H26 H 0.5293 0.4200 0.1228
C27 C 0.4543(3) 0.3247(2) 0.1628(2)
H27 H 0.4195 0.3055 0.1136
C28 C 0.4396(2) 0.2840(2) 0.23046(14)
H28 H 0.3937 0.2383 0.22492
C29 C 0.3566(2) 0.20366(14) 0.37265(11)
C30 C 0.3459(2) 0.1267(2) 0.39686(14)
H29 H 0.4158 0.1006 0.41880
C31 C 0.2391(3) 0.0858(2) 0.3909(2)
H30 H 0.2383 0.0339 0.4079
C32 C 0.1349(3) 0.1228(2) 0.3596(2)
H31 H 0.0623 0.0962 0.3546
C33 C 0.1383(2) 0.2002(2) 0.33533(15)
H32 H 0.0676 0.2260 0.31438
C34 C 0.2460(2) 0.2394(2) 0.34206(14)
H33 H 0.2458 0.2915 0.32575
C35 C 0.4840(2) 0.30393(14) 0.46481(13)
C36 C 0.5180(2) 0.2702(2) 0.53896(14)
H34 H 0.5460 0.2187 0.54199
C37 C 0.5119(3) 0.3103(2) 0.60894(15)
H35 H 0.5368 0.2859 0.65738
C38 C 0.4686(3) 0.3864(2) 0.6058(2)
H36 H 0.4644 0.4140 0.6520
C39 C 0.4322(3) 0.4205(2) 0.5341(2)
H37 H 0.4020 0.4715 0.5314
C40 C 0.4393(2) 0.3806(2) 0.4659(2)
H38 H 0.4132 0.4057 0.4180
loop_
_geom_bond_atom_site_label_1
_geom_bond_atom_site_label_2
_geom_bond_site_symmetry_1
_geom_bond_site_symmetry_2
O1 C12 1_555 1_555
O2 C13 1_555 1_555
N1 C1 1_555 1_555
B1 C17 1_555 1_555
C1 H1 1_555 1_555
H2 C1 1_555 1_555
H3 C1 1_555 1_555
C2 N1 1_555 1_555
H4 C2 1_555 1_555
C3 C2 1_555 1_555
H5 C3 1_555 1_555
C4 C3 1_555 1_555
C5 C4 1_555 1_555
H6 C5 1_555 1_555
C6 N1 1_555 1_555
H7 C6 1_555 1_555
C7 C4 1_555 1_555
H8 C7 1_555 1_555
C8 C7 1_555 1_555
H9 C8 1_555 1_555
C9 C8 1_555 1_555
C10 C9 1_555 1_555
H10 C10 1_555 1_555
C11 C10 1_555 1_555
H11 C11 1_555 1_555
C12 C11 1_555 1_555
C13 C12 1_555 1_555
C14 C9 1_555 1_555
H12 C14 1_555 1_555
C15 O1 1_555 1_555
H13 C15 1_555 1_555
H14 C15 1_555 1_555
H15 C15 1_555 1_555
C16 O2 1_555 1_555
H16 C16 1_555 1_555
H17 C16 1_555 1_555
H18 C16 1_555 1_555
C17 C18 1_555 1_555
C18 H19 1_555 1_555
C19 C18 1_555 1_555
H20 C19 1_555 1_555
C20 C19 1_555 1_555
H21 C20 1_555 1_555
C21 C20 1_555 1_555
H22 C21 1_555 1_555
C22 C17 1_555 1_555
H23 C22 1_555 1_555
C23 B1 1_555 1_555
C24 C23 1_555 1_555
H24 C24 1_555 1_555
C25 C24 1_555 1_555
H25 C25 1_555 1_555
C26 C25 1_555 1_555
H26 C26 1_555 1_555
C27 C26 1_555 1_555
H27 C27 1_555 1_555
C28 C23 1_555 1_555
H28 C28 1_555 1_555
C29 B1 1_555 1_555
C30 C29 1_555 1_555
H29 C30 1_555 1_555
C31 C30 1_555 1_555
H30 C31 1_555 1_555
C32 C31 1_555 1_555
H31 C32 1_555 1_555
C33 C32 1_555 1_555
H32 C33 1_555 1_555
C34 C29 1_555 1_555
H33 C34 1_555 1_555
C35 B1 1_555 1_555
C36 C35 1_555 1_555
H34 C36 1_555 1_555
C37 C36 1_555 1_555
H35 C37 1_555 1_555
C38 C37 1_555 1_555
H36 C38 1_555 1_555
C39 C38 1_555 1_555
H37 C39 1_555 1_555
C40 C35 1_555 1_555
H38 C40 1_555 1_555
C5 C6 1_555 1_555
C13 C14 1_555 1_555
C21 C22 1_555 1_555
C27 C28 1_555 1_555
C33 C34 1_555 1_555
C39 C40 1_555 1_555

#END
