
#######################################################################
#
#                 Cambridge Crystallographic Data Centre
#                                CCDC 
#
#######################################################################
#
# If this CIF has been generated from an entry in the Cambridge 
# Structural Database, then it will include bibliographic, chemical, 
# crystal, experimental, refinement or atomic coordinate data resulting 
# from the CCDC's data processing and validation procedures.
#
#######################################################################

data_BOQXUC
_chemical_formula_moiety         'C19 H18 N2 O3'
_chemical_name_systematic        
'methyl 3-phenyl-4,5-dihydro-1H,3H-[1,4]oxazepino[4,3-a]benzimidazole-4-carboxylate'
_symmetry_cell_setting           orthorhombic
_symmetry_space_group_name_H-M   'P c a 21'
_symmetry_Int_Tables_number      29
_space_group_name_Hall           'P 2c -2ac'
loop_
_symmetry_equiv_pos_site_id
_symmetry_equiv_pos_as_xyz
1 x,y,z
2 -x,-y,1/2+z
3 1/2-x,y,1/2+z
4 1/2+x,-y,z
_cell_length_a                   9.9238(13)
_cell_length_b                   7.3322(10)
_cell_length_c                   23.028(3)
_cell_angle_alpha                90
_cell_angle_beta                 90
_cell_angle_gamma                90
_cell_volume                     1675.59
_exptl_crystal_colour            colorless
_exptl_crystal_description       block
_cell_formula_units_Z            4
loop_
_atom_site_label
_atom_site_type_symbol
_atom_site_fract_x
_atom_site_fract_y
_atom_site_fract_z
C1 C 0.4382(2) 0.3837(4) 0.11593(9)
C2 C 0.3291(3) 0.3704(5) 0.07782(11)
H1 H 0.2752 0.4711 0.0698
C3 C 0.3040(3) 0.2059(7) 0.05276(12)
H2 H 0.2330 0.1956 0.0266
C4 C 0.3806(3) 0.0547(5) 0.06498(11)
H3 H 0.3596 -0.0552 0.0470
C5 C 0.4883(3) 0.0607(4) 0.10335(9)
H4 H 0.5395 -0.0421 0.1120
C6 C 0.51486(19) 0.2287(3) 0.12797(8)
C7 C 0.71826(18) 0.1761(3) 0.19213(8)
H5 H 0.8039 0.2227 0.1783
H6 H 0.7091 0.0518 0.1783
C8 C 0.71913(16) 0.1753(2) 0.25811(8)
H7 H 0.6279 0.1496 0.2722
C9 C 0.81229(19) 0.0262(3) 0.27800(11)
C10 C 0.8540(3) -0.1888(3) 0.35086(17)
H8 H 0.8094 -0.2479 0.3827
H9 H 0.9308 -0.1229 0.3650
H10 H 0.8829 -0.2787 0.3233
C11 C 0.76835(17) 0.3568(2) 0.28451(8)
H11 H 0.8516 0.3934 0.2648
C12 C 0.6665(2) 0.5738(3) 0.21970(8)
H12 H 0.7580 0.5838 0.2052
H13 H 0.6294 0.6959 0.2221
C13 C 0.5859(2) 0.4662(3) 0.17812(8)
C14 C 0.79603(19) 0.3405(2) 0.34844(9)
C15 C 0.9245(2) 0.3012(3) 0.36803(9)
H14 H 0.9954 0.2906 0.3418
C16 C 0.9471(3) 0.2780(4) 0.42653(11)
H15 H 1.0334 0.2501 0.4394
C17 C 0.8469(3) 0.2949(4) 0.46535(12)
H16 H 0.8644 0.2791 0.5047
C18 C 0.7184(3) 0.3354(4) 0.44701(11)
H17 H 0.6491 0.3477 0.4739
C19 C 0.6932(2) 0.3577(3) 0.38873(9)
H18 H 0.6063 0.3845 0.3763
N1 N 0.4836(2) 0.5295(3) 0.14829(7)
N2 N 0.61033(15) 0.2858(2) 0.16772(7)
O1 O 0.66982(12) 0.49625(16) 0.27650(5)
O2 O 0.92024(16) -0.0028(3) 0.25663(8)
O3 O 0.76188(15) -0.06347(19) 0.32311(8)
loop_
_geom_bond_atom_site_label_1
_geom_bond_atom_site_label_2
_geom_bond_site_symmetry_1
_geom_bond_site_symmetry_2
C1 C2 1_555 1_555
C2 H1 1_555 1_555
C3 C2 1_555 1_555
H2 C3 1_555 1_555
C4 C3 1_555 1_555
H3 C4 1_555 1_555
C5 C4 1_555 1_555
H4 C5 1_555 1_555
C6 C1 1_555 1_555
C7 H5 1_555 1_555
H6 C7 1_555 1_555
C8 C7 1_555 1_555
H7 C8 1_555 1_555
C9 C8 1_555 1_555
C10 H8 1_555 1_555
H9 C10 1_555 1_555
H10 C10 1_555 1_555
C11 C8 1_555 1_555
H11 C11 1_555 1_555
C12 H12 1_555 1_555
H13 C12 1_555 1_555
C13 C12 1_555 1_555
C14 C11 1_555 1_555
C15 C14 1_555 1_555
H14 C15 1_555 1_555
C16 C15 1_555 1_555
H15 C16 1_555 1_555
C17 C16 1_555 1_555
H16 C17 1_555 1_555
C18 C17 1_555 1_555
H17 C18 1_555 1_555
C19 C14 1_555 1_555
H18 C19 1_555 1_555
N1 C1 1_555 1_555
N2 C6 1_555 1_555
O1 C11 1_555 1_555
O2 C9 1_555 1_555
O3 C9 1_555 1_555
C5 C6 1_555 1_555
C7 N2 1_555 1_555
C10 O3 1_555 1_555
C12 O1 1_555 1_555
C13 N1 1_555 1_555
C13 N2 1_555 1_555
C18 C19 1_555 1_555

#END
