
#######################################################################
#
#                 Cambridge Crystallographic Data Centre
#                                CCDC 
#
#######################################################################
#
# If this CIF has been generated from an entry in the Cambridge 
# Structural Database, then it will include bibliographic, chemical, 
# crystal, experimental, refinement or atomic coordinate data resulting 
# from the CCDC's data processing and validation procedures.
#
#######################################################################

data_BOQYAJ
_chemical_formula_moiety         'C20 H20 N2 O3'
_chemical_name_systematic        
'methyl 1-methyl-3-phenyl-4,5-dihydro-1H,3H-[1,4]oxazepino[4,3-a]benzimidazole-4-carboxylate'
_symmetry_cell_setting           orthorhombic
_symmetry_space_group_name_H-M   'P 21 21 21'
_symmetry_Int_Tables_number      19
_space_group_name_Hall           'P 2ac 2ab'
loop_
_symmetry_equiv_pos_site_id
_symmetry_equiv_pos_as_xyz
1 x,y,z
2 1/2-x,-y,1/2+z
3 1/2+x,1/2-y,-z
4 -x,1/2+y,1/2-z
_cell_length_a                   9.1115(7)
_cell_length_b                   9.6470(8)
_cell_length_c                   19.4856(15)
_cell_angle_alpha                90
_cell_angle_beta                 90
_cell_angle_gamma                90
_cell_volume                     1712.76
_exptl_crystal_colour            colorless
_exptl_crystal_description       block
_cell_formula_units_Z            4
loop_
_atom_site_label
_atom_site_type_symbol
_atom_site_fract_x
_atom_site_fract_y
_atom_site_fract_z
C1 C 0.43553(19) -0.09161(19) 0.06180(9)
C2 C 0.4623(2) -0.1711(2) 0.11986(9)
H1 H 0.5290 -0.1422 0.1530
C3 C 0.3875(2) -0.2934(2) 0.12673(10)
H2 H 0.4044 -0.3483 0.1652
C4 C 0.2871(2) -0.3375(2) 0.07775(10)
H3 H 0.2390 -0.4216 0.0840
C5 C 0.2572(2) -0.2600(2) 0.02042(10)
H4 H 0.1893 -0.2889 -0.0122
C6 C 0.33290(19) -0.13700(19) 0.01370(9)
C7 C 0.2428(2) -0.0325(2) -0.09788(9)
H5 H 0.1888 0.0541 -0.0983
H6 H 0.1719 -0.1074 -0.0958
C8 C 0.32954(19) -0.04495(18) -0.16429(8)
H7 H 0.3938 -0.1262 -0.1614
C9 C 0.21833(18) -0.06790(19) -0.22047(9)
C10 C 0.1375(3) -0.2192(3) -0.30710(11)
H8 H 0.1643 -0.3063 -0.3274
H9 H 0.1394 -0.1481 -0.3415
H10 H 0.0404 -0.2259 -0.2882
C11 C 0.42285(19) 0.08308(18) -0.18173(9)
H11 H 0.3580 0.1634 -0.1871
C12 C 0.4747(2) 0.17200(19) -0.06734(9)
H12 H 0.3866 0.2268 -0.0771
C13 C 0.4367(2) 0.05805(18) -0.01878(9)
C14 C 0.5926(3) 0.2654(2) -0.03933(12)
H13 H 0.6138 0.3370 -0.0721
H14 H 0.6797 0.2122 -0.0308
H15 H 0.5594 0.3066 0.0027
C15 C 0.50539(18) 0.06069(16) -0.24765(10)
C16 C 0.4532(2) 0.11214(19) -0.30893(9)
H16 H 0.3662 0.1626 -0.3098
C17 C 0.5294(2) 0.0891(2) -0.36909(10)
H17 H 0.4928 0.1237 -0.4102
C18 C 0.6573(2) 0.0165(2) -0.36889(11)
H18 H 0.7087 0.0025 -0.4095
C19 C 0.7098(2) -0.0359(2) -0.30812(11)
H19 H 0.7969 -0.0861 -0.3076
C20 C 0.63416(19) -0.01449(19) -0.24811(11)
H20 H 0.6702 -0.0511 -0.2073
N1 N 0.50049(16) 0.03094(16) 0.04017(7)
N2 N 0.33366(16) -0.03703(16) -0.03703(7)
O1 O 0.52857(14) 0.11254(12) -0.12973(6)
O2 O 0.11936(15) 0.01004(15) -0.23210(7)
O3 O 0.23993(15) -0.18523(13) -0.25338(7)
loop_
_geom_bond_atom_site_label_1
_geom_bond_atom_site_label_2
_geom_bond_site_symmetry_1
_geom_bond_site_symmetry_2
C1 C2 1_555 1_555
C2 H1 1_555 1_555
C3 C2 1_555 1_555
H2 C3 1_555 1_555
C4 C3 1_555 1_555
H3 C4 1_555 1_555
C5 C4 1_555 1_555
H4 C5 1_555 1_555
C6 C1 1_555 1_555
C7 H5 1_555 1_555
H6 C7 1_555 1_555
C8 C7 1_555 1_555
H7 C8 1_555 1_555
C9 C8 1_555 1_555
C10 H8 1_555 1_555
H9 C10 1_555 1_555
H10 C10 1_555 1_555
C11 C8 1_555 1_555
H11 C11 1_555 1_555
C12 H12 1_555 1_555
C13 C12 1_555 1_555
C14 C12 1_555 1_555
H13 C14 1_555 1_555
H14 C14 1_555 1_555
H15 C14 1_555 1_555
C15 C11 1_555 1_555
C16 C15 1_555 1_555
H16 C16 1_555 1_555
C17 C16 1_555 1_555
H17 C17 1_555 1_555
C18 C17 1_555 1_555
H18 C18 1_555 1_555
C19 C18 1_555 1_555
H19 C19 1_555 1_555
C20 C15 1_555 1_555
H20 C20 1_555 1_555
N1 C1 1_555 1_555
N2 C6 1_555 1_555
O1 C11 1_555 1_555
O2 C9 1_555 1_555
O3 C9 1_555 1_555
C5 C6 1_555 1_555
C7 N2 1_555 1_555
C10 O3 1_555 1_555
C12 O1 1_555 1_555
C13 N1 1_555 1_555
C13 N2 1_555 1_555
C19 C20 1_555 1_555

#END
