
#######################################################################
#
#                 Cambridge Crystallographic Data Centre
#                                CCDC 
#
#######################################################################
#
# If this CIF has been generated from an entry in the Cambridge 
# Structural Database, then it will include bibliographic, chemical, 
# crystal, experimental, refinement or atomic coordinate data resulting 
# from the CCDC's data processing and validation procedures.
#
#######################################################################

data_BORGEW
_chemical_formula_moiety         'C6 H9 N2 1+,C6 H5 N1 O3,C6 H4 N1 O3 1-'
_chemical_name_systematic        
'2-amino-4-methylpyridinium 4-nitrophenolate 4-nitrophenol'
_symmetry_cell_setting           orthorhombic
_symmetry_space_group_name_H-M   'P n a 21'
_symmetry_Int_Tables_number      33
_space_group_name_Hall           'P 2c -2n'
loop_
_symmetry_equiv_pos_site_id
_symmetry_equiv_pos_as_xyz
1 x,y,z
2 -x,-y,1/2+z
3 1/2-x,1/2+y,1/2+z
4 1/2+x,1/2-y,z
_cell_length_a                   13.0726(6)
_cell_length_b                   11.8157(4)
_cell_length_c                   12.0281(5)
_cell_angle_alpha                90
_cell_angle_beta                 90
_cell_angle_gamma                90
_cell_volume                     1857.88
_exptl_crystal_colour            yellow
_exptl_crystal_description       block
_cell_formula_units_Z            4
loop_
_atom_site_label
_atom_site_type_symbol
_atom_site_fract_x
_atom_site_fract_y
_atom_site_fract_z
C1 C 0.1726(3) 0.1477(3) 0.8404(3)
C2 C 0.1906(3) 0.2641(3) 0.8410(3)
H1 H 0.2503 0.2934 0.8102
C3 C 0.1185(3) 0.3350(3) 0.8879(3)
C4 C 0.0331(3) 0.2858(3) 0.9399(4)
H2 H -0.0154 0.3313 0.9746
C5 C 0.0218(3) 0.1721(4) 0.9392(3)
H3 H -0.0345 0.1399 0.9743
C6 C 0.1313(4) 0.4601(3) 0.8859(5)
H4 H 0.0741 0.4951 0.9222
H5 H 0.1348 0.4856 0.8102
H6 H 0.1932 0.4802 0.9239
N1 N 0.0898(3) 0.1054(2) 0.8894(3)
N2 N 0.2325(3) 0.0717(3) 0.7965(4)
H7 H 0.2168 0.0011 0.8009
H8 H 0.2877 0.0921 0.7632
H9 H 0.066(3) 0.0309(13) 0.886(3)
C7 C 0.2352(2) 0.2527(3) 0.4903(3)
C8 C 0.1743(3) 0.1634(3) 0.5257(3)
H10 H 0.1957 0.0893 0.5136
C9 C 0.0829(2) 0.1833(3) 0.5783(3)
H11 H 0.0428 0.1233 0.6027
C10 C 0.0513(2) 0.2938(3) 0.5945(3)
C11 C 0.1113(3) 0.3843(3) 0.5597(3)
H12 H 0.0893 0.4583 0.5708
C12 C 0.2041(2) 0.3631(3) 0.5084(3)
H13 H 0.2454 0.4229 0.4860
N3 N -0.0433(2) 0.3127(3) 0.6518(3)
O1 O -0.0922(2) 0.2327(3) 0.6864(3)
O2 O -0.0719(2) 0.4119(3) 0.6659(3)
O3 O 0.32214(18) 0.2267(2) 0.4396(2)
H14 H 0.3522 0.2850 0.4222
C13 C 0.0063(2) 0.1457(3) 0.2969(3)
C14 C 0.0763(3) 0.0699(3) 0.2505(3)
H15 H 0.0651 -0.0075 0.2575
C15 C 0.1629(3) 0.1083(3) 0.1936(3)
H16 H 0.2097 0.0569 0.1647
C16 C 0.1779(2) 0.2206(3) 0.1810(3)
C17 C 0.1102(3) 0.2989(3) 0.2231(3)
H17 H 0.1220 0.3760 0.2137
C18 C 0.0239(3) 0.2616(3) 0.2798(3)
H18 H -0.0228 0.3142 0.3068
N4 N 0.2661(2) 0.2597(3) 0.1225(3)
O4 O 0.2818(2) 0.3616(3) 0.1143(3)
O5 O 0.3228(2) 0.1904(4) 0.0804(3)
O6 O -0.07106(17) 0.11069(18) 0.3555(2)
loop_
_geom_bond_atom_site_label_1
_geom_bond_atom_site_label_2
_geom_bond_site_symmetry_1
_geom_bond_site_symmetry_2
C1 C2 1_555 1_555
C2 H1 1_555 1_555
C3 C2 1_555 1_555
C4 C3 1_555 1_555
H2 C4 1_555 1_555
C5 C4 1_555 1_555
H3 C5 1_555 1_555
C6 C3 1_555 1_555
H4 C6 1_555 1_555
H5 C6 1_555 1_555
H6 C6 1_555 1_555
N1 C1 1_555 1_555
N2 C1 1_555 1_555
H7 N2 1_555 1_555
H8 N2 1_555 1_555
H9 N1 1_555 1_555
C7 C8 1_555 1_555
C8 H10 1_555 1_555
C9 C8 1_555 1_555
H11 C9 1_555 1_555
C10 C9 1_555 1_555
C11 C10 1_555 1_555
H12 C11 1_555 1_555
C12 C7 1_555 1_555
H13 C12 1_555 1_555
N3 C10 1_555 1_555
O1 N3 1_555 1_555
O2 N3 1_555 1_555
O3 C7 1_555 1_555
H14 O3 1_555 1_555
C13 C14 1_555 1_555
C14 H15 1_555 1_555
C15 C14 1_555 1_555
H16 C15 1_555 1_555
C16 C15 1_555 1_555
C17 C16 1_555 1_555
H17 C17 1_555 1_555
C18 C13 1_555 1_555
H18 C18 1_555 1_555
N4 C16 1_555 1_555
O4 N4 1_555 1_555
O5 N4 1_555 1_555
O6 C13 1_555 1_555
C5 N1 1_555 1_555
C11 C12 1_555 1_555
C17 C18 1_555 1_555

#END
