
#######################################################################
#
#                 Cambridge Crystallographic Data Centre
#                                CCDC 
#
#######################################################################
#
# If this CIF has been generated from an entry in the Cambridge 
# Structural Database, then it will include bibliographic, chemical, 
# crystal, experimental, refinement or atomic coordinate data resulting 
# from the CCDC's data processing and validation procedures.
#
#######################################################################

data_BOSMIG
_chemical_formula_moiety         
'C36 H36 N24 O12,C7 H18 N2 2+,5(H2 O1),2(Br1 1-)'
_chemical_name_systematic        
'Cucurbit(6)uril N-propylpiperazinediium clathrate dibromide pentahydrate'
_symmetry_cell_setting           orthorhombic
_symmetry_space_group_name_H-M   'P n n m'
_symmetry_Int_Tables_number      58
_space_group_name_Hall           '-P 2 2n'
loop_
_symmetry_equiv_pos_site_id
_symmetry_equiv_pos_as_xyz
1 x,y,z
2 -x,-y,z
3 1/2+x,1/2-y,1/2-z
4 1/2-x,1/2+y,1/2-z
5 -x,-y,-z
6 x,y,-z
7 1/2-x,1/2+y,1/2+z
8 1/2+x,1/2-y,1/2+z
_cell_length_a                   15.9077(2)
_cell_length_b                   11.8734(2)
_cell_length_c                   14.4770(2)
_cell_angle_alpha                90
_cell_angle_beta                 90
_cell_angle_gamma                90
_cell_volume                     2734.39
_exptl_crystal_colour            colorless
_exptl_crystal_description       block
_cell_formula_units_Z            2
loop_
_atom_site_label
_atom_site_type_symbol
_atom_site_fract_x
_atom_site_fract_y
_atom_site_fract_z
O4 O 0.0000 0.5000 0.3406(3)
O5 O 0.1973(3) 0.1207(4) 0.5000
N7 N 0.4849(3) 0.1208(3) 0.5000
C11 C 0.47201(15) 0.05188(15) 0.58338(18)
C12 C 0.4407(5) 0.2297(4) 0.5000
C13 C 0.4856(5) 0.3427(5) 0.5000
C14 C 0.4427(6) 0.4571(6) 0.5000
H12 H 0.5420 0.1410 0.5000
H13 H 0.4124 0.0282 0.5866
H14 H 0.4844 0.0978 0.6388
H15 H 0.4060 0.2295 0.4464
H16 H 0.5200 0.3420 0.4464
H17 H 0.4335 0.4817 0.4362
N7A N 0.5151(3) -0.1208(3) 0.5000
C11A C 0.52799(15) -0.05188(15) 0.58338(18)
C11D C 0.52799(15) -0.05188(15) 0.41662(18)
C11E C 0.47201(15) 0.05188(15) 0.41662(18)
C12A C 0.5593(5) -0.2297(4) 0.5000
C13A C 0.5144(5) -0.3427(5) 0.5000
C14A C 0.5573(6) -0.4571(6) 0.5000
H12A H 0.4580 -0.1410 0.5000
H13E H 0.4124 0.0282 0.4134
H13D H 0.5876 -0.0282 0.4134
H13A H 0.5876 -0.0282 0.5866
H14E H 0.4844 0.0978 0.3612
H14D H 0.5156 -0.0978 0.3612
H14A H 0.5156 -0.0978 0.6388
H15E H 0.4060 0.2295 0.5536
H15A H 0.5940 -0.2295 0.4464
H15D H 0.5940 -0.2295 0.5536
H16E H 0.5200 0.3420 0.5536
H16A H 0.4800 -0.3420 0.4464
H16D H 0.4800 -0.3420 0.5536
H17E H 0.4335 0.4817 0.5638
H17A H 0.5665 -0.4817 0.4362
H17D H 0.5665 -0.4817 0.5638
Br1 Br 0.00704(3) 0.26577(4) 0.5000
O1 O 0.37099(11) 0.82569(15) 0.60746(13)
O2 O 0.25634(12) 0.33861(16) 0.62125(15)
O3 O 0.56806(13) 0.74156(16) 0.73091(17)
N1 N 0.25260(14) 0.71776(18) 0.58359(15)
N2 N 0.33171(13) 0.68304(18) 0.70623(15)
N3 N 0.21392(14) 0.51925(18) 0.58349(16)
N4 N 0.27842(15) 0.49101(18) 0.71742(16)
N5 N 0.46097(14) 0.62416(18) 0.78010(15)
N6 N 0.40672(14) 0.43278(18) 0.79510(16)
C1 C 0.20789(16) 0.6277(2) 0.62946(18)
C2 C 0.25957(16) 0.6096(2) 0.71936(18)
C3 C 0.32391(16) 0.7486(2) 0.62968(18)
C4 C 0.25056(16) 0.4397(2) 0.63838(19)
C5 C 0.39358(17) 0.7066(2) 0.77749(18)
C6 C 0.31641(17) 0.4288(2) 0.79218(19)
C7 C 0.45476(16) 0.5230(2) 0.83604(18)
C8 C 0.54284(17) 0.6540(2) 0.76481(19)
C9 C 0.2252(2) 0.7728(3) 0.5000
C10 C 0.1682(2) 0.4921(3) 0.5000
H1 H 0.1483 0.6486 0.6430
H2 H 0.2266 0.6307 0.7756
H3 H 0.4180 0.7821 0.7665
H4 H 0.3652 0.7081 0.8383
H5 H 0.2943 0.4585 0.8513
H6 H 0.2987 0.3491 0.7873
H7 H 0.4350 0.5403 0.9000
H8 H 0.1630 0.7764 0.5000
H9 H 0.2466 0.8511 0.5000
H10 H 0.1550 0.4106 0.5000
H11 H 0.1143 0.5337 0.5000
O1A O 0.62901(11) 0.17431(15) 0.60746(13)
O1D O 0.62901(11) 0.17431(15) 0.39254(13)
O1E O 0.37099(11) 0.82569(15) 0.39254(13)
O2A O 0.74366(12) 0.66139(16) 0.62125(15)
O2D O 0.74366(12) 0.66139(16) 0.37875(15)
O2E O 0.25634(12) 0.33861(16) 0.37875(15)
O3A O 0.43194(13) 0.25844(16) 0.73091(17)
O3E O 0.56806(13) 0.74156(16) 0.26909(17)
O3D O 0.43194(13) 0.25844(16) 0.26909(17)
N1A N 0.74740(14) 0.28224(18) 0.58359(15)
N1D N 0.74740(14) 0.28224(18) 0.41641(15)
N1E N 0.25260(14) 0.71776(18) 0.41641(15)
N2A N 0.66829(13) 0.31696(18) 0.70623(15)
N2D N 0.66829(13) 0.31696(18) 0.29377(15)
N2E N 0.33171(13) 0.68304(18) 0.29377(15)
N3A N 0.78608(14) 0.48075(18) 0.58349(16)
N3D N 0.78608(14) 0.48075(18) 0.41651(16)
N3E N 0.21392(14) 0.51925(18) 0.41651(16)
N4A N 0.72158(15) 0.50899(18) 0.71742(16)
N4D N 0.72158(15) 0.50899(18) 0.28258(16)
N4E N 0.27842(15) 0.49101(18) 0.28258(16)
N5A N 0.53903(14) 0.37584(18) 0.78010(15)
N5D N 0.53903(14) 0.37584(18) 0.21990(15)
N5E N 0.46097(14) 0.62416(18) 0.21990(15)
N6D N 0.59328(14) 0.56722(18) 0.20490(16)
N6E N 0.40672(14) 0.43278(18) 0.20490(16)
N6A N 0.59328(14) 0.56722(18) 0.79510(16)
C1A C 0.79211(16) 0.3723(2) 0.62946(18)
C1D C 0.79211(16) 0.3723(2) 0.37054(18)
C1E C 0.20789(16) 0.6277(2) 0.37054(18)
C2A C 0.74043(16) 0.3904(2) 0.71936(18)
C2D C 0.74043(16) 0.3904(2) 0.28064(18)
C2E C 0.25957(16) 0.6096(2) 0.28064(18)
C3A C 0.67609(16) 0.2514(2) 0.62968(18)
C3D C 0.67609(16) 0.2514(2) 0.37032(18)
C3E C 0.32391(16) 0.7486(2) 0.37032(18)
C4A C 0.74944(16) 0.5603(2) 0.63838(19)
C4D C 0.74944(16) 0.5603(2) 0.36162(19)
C4E C 0.25056(16) 0.4397(2) 0.36162(19)
C5A C 0.60642(17) 0.2934(2) 0.77749(18)
C5D C 0.60642(17) 0.2934(2) 0.22251(18)
C5E C 0.39358(17) 0.7066(2) 0.22251(18)
C6D C 0.68359(17) 0.5712(2) 0.20782(19)
C6E C 0.31641(17) 0.4288(2) 0.20782(19)
C6A C 0.68359(17) 0.5712(2) 0.79218(19)
C7D C 0.54524(16) 0.4770(2) 0.16396(18)
C7E C 0.45476(16) 0.5230(2) 0.16396(18)
C7A C 0.54524(16) 0.4770(2) 0.83604(18)
C8A C 0.45716(17) 0.3460(2) 0.76481(19)
C8E C 0.54284(17) 0.6540(2) 0.23519(19)
C8D C 0.45716(17) 0.3460(2) 0.23519(19)
C9A C 0.7748(2) 0.2272(3) 0.5000
C10A C 0.8318(2) 0.5079(3) 0.5000
H1E H 0.1483 0.6486 0.3570
H1D H 0.8517 0.3514 0.3570
H1A H 0.8517 0.3514 0.6430
H2E H 0.2266 0.6307 0.2244
H2D H 0.7734 0.3693 0.2244
H2A H 0.7734 0.3693 0.7756
H3E H 0.4180 0.7821 0.2335
H3D H 0.5820 0.2179 0.2335
H3A H 0.5820 0.2179 0.7665
H4E H 0.3652 0.7081 0.1617
H4D H 0.6348 0.2919 0.1617
H4A H 0.6348 0.2919 0.8383
H5D H 0.7057 0.5415 0.1487
H5E H 0.2943 0.4585 0.1487
H5A H 0.7057 0.5415 0.8513
H6D H 0.7013 0.6509 0.2127
H6E H 0.2987 0.3491 0.2127
H6A H 0.7013 0.6509 0.7873
H7D H 0.5650 0.4597 0.1000
H7E H 0.4350 0.5403 0.1000
H7A H 0.5650 0.4597 0.9000
H8A H 0.8370 0.2236 0.5000
H9A H 0.7534 0.1489 0.5000
H10A H 0.8450 0.5894 0.5000
H11A H 0.8857 0.4663 0.5000
O6? O 0.3548(5) 0.2323(6) 0.5000
H18? H 0.3886 0.4515 0.5319
H19? H 0.4785 0.5120 0.5319
loop_
_geom_bond_atom_site_label_1
_geom_bond_atom_site_label_2
_geom_bond_site_symmetry_1
_geom_bond_site_symmetry_2
O1 C3 1_555 1_555
O2 C4 1_555 1_555
O3 C8 1_555 1_555
N1 C1 1_555 1_555
N2 C2 1_555 1_555
N3 C1 1_555 1_555
N4 C2 1_555 1_555
N5 C5 1_555 1_555
N6 C6 1_555 1_555
C1 C2 1_555 1_555
C2 H2 1_555 1_555
C3 N1 1_555 1_555
C4 N3 1_555 1_555
C5 N2 1_555 1_555
C6 N4 1_555 1_555
C7 N5 1_555 1_555
C8 N5 1_555 1_555
C9 N1 1_555 1_555
C10 N3 1_555 1_555
H1 C1 1_555 1_555
H3 C5 1_555 1_555
H4 C5 1_555 1_555
H5 C6 1_555 1_555
H6 C6 1_555 1_555
H7 C7 1_555 1_555
H8 C9 1_555 1_555
H9 C9 1_555 1_555
H10 C10 1_555 1_555
H11 C10 1_555 1_555
N7 C11 1_555 1_555
C11 H13 1_555 1_555
C12 N7 1_555 1_555
C13 C12 1_555 1_555
C14 C13 1_555 1_555
H12 N7 1_555 1_555
H14 C11 1_555 1_555
H15 C12 1_555 1_555
H16 C13 1_555 1_555
H17 C14 1_555 1_555
O1A C3A 1_555 1_555
O1D C3D 1_555 1_555
O1E C3E 1_555 1_555
O2A C4A 1_555 1_555
O2D C4D 1_555 1_555
O2E C4E 1_555 1_555
O3A C8A 1_555 1_555
O3E C8E 1_555 1_555
O3D C8D 1_555 1_555
N1A C1A 1_555 1_555
N1D C1D 1_555 1_555
N1E C9 1_555 1_555
N2A C2A 1_555 1_555
N2D C2D 1_555 1_555
N2E C2E 1_555 1_555
N3A C1A 1_555 1_555
N3D C1D 1_555 1_555
N3E C10 1_555 1_555
N4A C2A 1_555 1_555
N4D C2D 1_555 1_555
N4E C2E 1_555 1_555
N5A C5A 1_555 1_555
N5D C5D 1_555 1_555
N5E C5E 1_555 1_555
N6D C6D 1_555 1_555
N6E C6E 1_555 1_555
N6A C8 1_555 1_555
C1A C2A 1_555 1_555
C1D C2D 1_555 1_555
C1E N1E 1_555 1_555
C2A H2A 1_555 1_555
C2D H2D 1_555 1_555
C2E C1E 1_555 1_555
C3A N1A 1_555 1_555
C3D N1D 1_555 1_555
C3E N1E 1_555 1_555
C4A N3A 1_555 1_555
C4D N3D 1_555 1_555
C4E N3E 1_555 1_555
C5A N2A 1_555 1_555
C5D N2D 1_555 1_555
C5E N2E 1_555 1_555
C6D N4D 1_555 1_555
C6E N4E 1_555 1_555
C6A N4A 1_555 1_555
C7D N5D 1_555 1_555
C7E N5E 1_555 1_555
C7A C7 1_555 1_555
C8A N6 1_555 1_555
C8E N5E 1_555 1_555
C8D N5D 1_555 1_555
C9A N1A 1_555 1_555
C10A N3A 1_555 1_555
H1E C1E 1_555 1_555
H1D C1D 1_555 1_555
H1A C1A 1_555 1_555
H2E C2E 1_555 1_555
H3E C5E 1_555 1_555
H3D C5D 1_555 1_555
H3A C5A 1_555 1_555
H4E C5E 1_555 1_555
H4D C5D 1_555 1_555
H4A C5A 1_555 1_555
H5D C6D 1_555 1_555
H5E C6E 1_555 1_555
H5A C6A 1_555 1_555
H6D C6D 1_555 1_555
H6E C6E 1_555 1_555
H6A C6A 1_555 1_555
H7D C7D 1_555 1_555
H7E C7E 1_555 1_555
H7A C7A 1_555 1_555
H8A C9A 1_555 1_555
H9A C9A 1_555 1_555
H10A C10A 1_555 1_555
H11A C10A 1_555 1_555
N7A C11A 1_555 1_555
C11A C11 1_555 1_555
C11D N7A 1_555 1_555
C11E N7 1_555 1_555
C12A N7A 1_555 1_555
C13A C12A 1_555 1_555
C14A C13A 1_555 1_555
H12A N7A 1_555 1_555
H13E C11E 1_555 1_555
H13D C11D 1_555 1_555
H13A C11A 1_555 1_555
H14E C11E 1_555 1_555
H14D C11D 1_555 1_555
H14A C11A 1_555 1_555
H15E C12 1_555 1_555
H15A C12A 1_555 1_555
H15D C12A 1_555 1_555
H16E C13 1_555 1_555
H16A C13A 1_555 1_555
H16D C13A 1_555 1_555
H17E C14 1_555 1_555
H17A C14A 1_555 1_555
H17D C14A 1_555 1_555
N2 C3 1_555 1_555
N4 C4 1_555 1_555
N6 C7 1_555 1_555
N1D C9A 1_555 1_555
N2A C3A 1_555 1_555
N2D C3D 1_555 1_555
N2E C3E 1_555 1_555
N3D C10A 1_555 1_555
N3E C1E 1_555 1_555
N4A C4A 1_555 1_555
N4D C4D 1_555 1_555
N4E C4E 1_555 1_555
N5A C7A 1_555 1_555
N5A C8A 1_555 1_555
N6D C7D 1_555 1_555
N6D C8E 1_555 1_555
N6E C7E 1_555 1_555
N6E C8D 1_555 1_555
N6A C6A 1_555 1_555
N6A C7A 1_555 1_555
C7D C7E 1_555 1_555
C11D C11E 1_555 1_555

#END
