
#######################################################################
#
#                 Cambridge Crystallographic Data Centre
#                                CCDC 
#
#######################################################################
#
# If this CIF has been generated from an entry in the Cambridge 
# Structural Database, then it will include bibliographic, chemical, 
# crystal, experimental, refinement or atomic coordinate data resulting 
# from the CCDC's data processing and validation procedures.
#
#######################################################################

data_BOTLON
_chemical_formula_moiety         'C26 H19 F3 N2 O2'
_chemical_name_systematic        
N-(2-(4,5-dihydro-1,3-oxazol-2-yl)phenyl)-2-((4-methylphenyl)ethynyl)-6-(trifluoromethyl)benzamide
_symmetry_cell_setting           monoclinic
_symmetry_space_group_name_H-M   'P 21/c'
_symmetry_Int_Tables_number      14
_space_group_name_Hall           '-P 2ybc'
loop_
_symmetry_equiv_pos_site_id
_symmetry_equiv_pos_as_xyz
1 x,y,z
2 -x,1/2+y,1/2-z
3 -x,-y,-z
4 x,1/2-y,1/2+z
_cell_length_a                   20.238(7)
_cell_length_b                   7.020(2)
_cell_length_c                   16.081(5)
_cell_angle_alpha                90
_cell_angle_beta                 104.318(7)
_cell_angle_gamma                90
_cell_volume                     2213.67
_exptl_crystal_colour            colorless
_exptl_crystal_description       prismatic
_cell_formula_units_Z            4
loop_
_atom_site_label
_atom_site_type_symbol
_atom_site_fract_x
_atom_site_fract_y
_atom_site_fract_z
H1 H 0.1947(16) 0.733(5) 0.260(2)
N1 N 0.15760(14) 0.5989(4) 0.16013(17)
N2 N 0.19194(14) 0.8373(4) 0.29225(18)
O1 O 0.06727(11) 0.6777(4) 0.05367(16)
O2 O 0.23541(13) 0.9830(3) 0.42031(15)
C1 C 0.15372(17) 0.4489(5) 0.0955(2)
H2 H 0.1475 0.3249 0.1190
H3 H 0.1948 0.4466 0.0747
C2 C 0.09306(19) 0.5017(6) 0.0251(3)
H4 H 0.1061 0.5217 -0.0283
H5 H 0.0587 0.4024 0.0166
C3 C 0.10945(16) 0.7147(5) 0.1314(2)
C4 C 0.09473(15) 0.8902(5) 0.1733(2)
C5 C 0.03878(17) 1.0011(6) 0.1334(2)
H6 H 0.0114 0.9622 0.0808
C6 C 0.0234(2) 1.1650(6) 0.1696(3)
H7 H -0.0149 1.2353 0.1427
C7 C 0.0641(2) 1.2258(6) 0.2455(3)
H8 H 0.0539 1.3389 0.2697
C8 C 0.12078(19) 1.1211(5) 0.2871(2)
H9 H 0.1484 1.1645 0.3388
C9 C 0.13628(16) 0.9519(4) 0.2518(2)
C10 C 0.23437(16) 0.8548(4) 0.3702(2)
C11 C 0.28435(15) 0.6902(4) 0.39129(19)
C12 C 0.27398(17) 0.5392(4) 0.4430(2)
C13 C 0.3215(2) 0.3933(5) 0.4623(2)
H10 H 0.3142 0.2914 0.4959
C14 C 0.3790(2) 0.3982(6) 0.4323(2)
H11 H 0.4108 0.3002 0.4458
C15 C 0.38987(17) 0.5468(5) 0.3825(2)
H12 H 0.4291 0.5490 0.3623
C16 C 0.34305(17) 0.6949(4) 0.3616(2)
C17 C 0.35494(17) 0.8517(5) 0.3098(2)
C18 C 0.36452(17) 0.9860(5) 0.2694(2)
C19 C 0.37678(16) 1.1496(5) 0.2216(2)
C20 C 0.43643(17) 1.1685(5) 0.1962(2)
H13 H 0.4690 1.0723 0.2084
C21 C 0.44852(18) 1.3285(5) 0.1527(2)
H14 H 0.4891 1.3378 0.1356
C22 C 0.40214(19) 1.4746(5) 0.1340(2)
C23 C 0.3428(2) 1.4549(5) 0.1593(2)
H15 H 0.3105 1.5520 0.1469
C24 C 0.32912(18) 1.2967(5) 0.2024(2)
H16 H 0.2882 1.2877 0.2187
C25 C 0.4170(2) 1.6475(6) 0.0864(3)
H17 H 0.3859 1.7479 0.0912
H18 H 0.4116 1.6162 0.0270
H19 H 0.4629 1.6889 0.1106
C26 C 0.2138(2) 0.5322(6) 0.4788(3)
F1 F 0.2203(3) 0.6520(6) 0.5448(4)
F2 F 0.1561(2) 0.5755(8) 0.4208(3)
F3 F 0.2107(4) 0.3665(15) 0.5167(5)
F4? F 0.2263(7) 0.5415(18) 0.5626(9)
F5? F 0.1663(8) 0.6566(17) 0.4599(9)
F6? F 0.1851(5) 0.3619(18) 0.4814(6)
loop_
_geom_bond_atom_site_label_1
_geom_bond_atom_site_label_2
_geom_bond_site_symmetry_1
_geom_bond_site_symmetry_2
H1 N2 1_555 1_555
N1 C1 1_555 1_555
N2 C9 1_555 1_555
O1 C2 1_555 1_555
O2 C10 1_555 1_555
C1 H2 1_555 1_555
H3 C1 1_555 1_555
C2 C1 1_555 1_555
H4 C2 1_555 1_555
H5 C2 1_555 1_555
C3 N1 1_555 1_555
C4 C3 1_555 1_555
C5 C4 1_555 1_555
H6 C5 1_555 1_555
C6 C5 1_555 1_555
H7 C6 1_555 1_555
C7 C6 1_555 1_555
H8 C7 1_555 1_555
C8 C7 1_555 1_555
H9 C8 1_555 1_555
C9 C4 1_555 1_555
C10 N2 1_555 1_555
C11 C10 1_555 1_555
C12 C11 1_555 1_555
C13 C12 1_555 1_555
H10 C13 1_555 1_555
C14 C13 1_555 1_555
H11 C14 1_555 1_555
C15 C14 1_555 1_555
H12 C15 1_555 1_555
C16 C11 1_555 1_555
C17 C16 1_555 1_555
C18 C17 1_555 1_555
C19 C18 1_555 1_555
C20 C19 1_555 1_555
H13 C20 1_555 1_555
C21 C20 1_555 1_555
H14 C21 1_555 1_555
C22 C21 1_555 1_555
C23 C22 1_555 1_555
H15 C23 1_555 1_555
C24 C19 1_555 1_555
H16 C24 1_555 1_555
C25 C22 1_555 1_555
H17 C25 1_555 1_555
H18 C25 1_555 1_555
H19 C25 1_555 1_555
C26 C12 1_555 1_555
F1 C26 1_555 1_555
F2 C26 1_555 1_555
F3 C26 1_555 1_555
O1 C3 1_555 1_555
C8 C9 1_555 1_555
C15 C16 1_555 1_555
C23 C24 1_555 1_555

#END
