
#######################################################################
#
#                 Cambridge Crystallographic Data Centre
#                                CCDC 
#
#######################################################################
#
# If this CIF has been generated from an entry in the Cambridge 
# Structural Database, then it will include bibliographic, chemical, 
# crystal, experimental, refinement or atomic coordinate data resulting 
# from the CCDC's data processing and validation procedures.
#
#######################################################################

data_BOTSAF
_chemical_name_common            
5-([1,3]Dithiolo[4,5-b][1,4]dithiin-2-ylidene)[1,3]dithiolo[4,5-d][1,3]dithiol-2-one
_chemical_formula_moiety         'C9 H2 O1 S8'
_chemical_name_systematic        
5-[4,5-(ethene-1,2-diyldithio)-1,3-dithiol-2-ylidene]-1,3,4,6-tetrathiapentalen-2-one
_symmetry_cell_setting           orthorhombic
_symmetry_space_group_name_H-M   'P b c a'
_symmetry_Int_Tables_number      61
_space_group_name_Hall           '-P 2ac 2ab'
loop_
_symmetry_equiv_pos_site_id
_symmetry_equiv_pos_as_xyz
1 x,y,z
2 1/2-x,-y,1/2+z
3 -x,1/2+y,1/2-z
4 1/2+x,1/2-y,-z
5 -x,-y,-z
6 1/2+x,y,1/2-z
7 x,1/2-y,1/2+z
8 1/2-x,1/2+y,z
_cell_length_a                   7.33080(10)
_cell_length_b                   12.7832(3)
_cell_length_c                   28.0416(6)
_cell_angle_alpha                90
_cell_angle_beta                 90
_cell_angle_gamma                90
_cell_volume                     2627.81
_exptl_crystal_colour            orange
_exptl_crystal_description       prism
_cell_formula_units_Z            8
_exptl_crystal_recrystallization_method 'carbon disulfide'
loop_
_atom_site_label
_atom_site_type_symbol
_atom_site_fract_x
_atom_site_fract_y
_atom_site_fract_z
S1 S 0.17125(7) 0.56037(4) 0.157258(16)
S2 S 0.18475(7) 0.78527(4) 0.181888(16)
S3 S 0.20160(8) 0.44062(4) 0.372378(18)
S4 S 0.12762(7) 0.50196(4) 0.268638(16)
S5 S 0.17168(7) 0.72691(4) 0.294304(16)
S6 S 0.25268(7) 0.66455(4) 0.397878(16)
S7 S 0.30583(8) 0.84719(4) 0.083145(17)
S8 S 0.27217(8) 0.60166(4) 0.054395(17)
C1 C 0.1733(3) 0.80180(19) 0.03483(7)
H1 H 0.112(3) 0.8484(18) 0.0213(8)
C2 C 0.1606(3) 0.70287(18) 0.02319(7)
H2 H 0.084(3) 0.6804(17) -0.0022(7)
C3 C 0.2563(2) 0.74924(14) 0.12440(6)
C4 C 0.2468(3) 0.64740(14) 0.11290(6)
C5 C 0.1749(2) 0.65570(14) 0.20241(6)
C6 C 0.1628(2) 0.63128(14) 0.24913(6)
C7 C 0.2032(2) 0.63382(15) 0.33907(6)
C8 C 0.1812(2) 0.53272(16) 0.32764(6)
C9 C 0.2519(3) 0.53244(18) 0.41809(7)
O1 O 0.2813(3) 0.50819(13) 0.45880(5)
loop_
_geom_bond_atom_site_label_1
_geom_bond_atom_site_label_2
_geom_bond_site_symmetry_1
_geom_bond_site_symmetry_2
S1 C4 1_555 1_555
S2 C3 1_555 1_555
S3 C8 1_555 1_555
S4 C6 1_555 1_555
S5 C6 1_555 1_555
S6 C7 1_555 1_555
S7 C1 1_555 1_555
S8 C2 1_555 1_555
C1 H1 1_555 1_555
C2 C1 1_555 1_555
H2 C2 1_555 1_555
C3 S7 1_555 1_555
C4 S8 1_555 1_555
C5 S1 1_555 1_555
C6 C5 1_555 1_555
C7 S5 1_555 1_555
C8 S4 1_555 1_555
C9 S3 1_555 1_555
O1 C9 1_555 1_555
S2 C5 1_555 1_555
S6 C9 1_555 1_555
C3 C4 1_555 1_555
C7 C8 1_555 1_555

#END
