
#######################################################################
#
#                 Cambridge Crystallographic Data Centre
#                                CCDC 
#
#######################################################################
#
# If this CIF has been generated from an entry in the Cambridge 
# Structural Database, then it will include bibliographic, chemical, 
# crystal, experimental, refinement or atomic coordinate data resulting 
# from the CCDC's data processing and validation procedures.
#
#######################################################################

data_BOTZOA
_chemical_formula_moiety         'C7 H6 N4 S1'
_chemical_name_systematic        5-(3-Pyridinyl)-1,3,4-thiadiazol-2-amine
_symmetry_cell_setting           monoclinic
_symmetry_space_group_name_H-M   'P 21/c'
_symmetry_Int_Tables_number      14
_space_group_name_Hall           '-P 2ybc'
loop_
_symmetry_equiv_pos_site_id
_symmetry_equiv_pos_as_xyz
1 x,y,z
2 -x,1/2+y,1/2-z
3 -x,-y,-z
4 x,1/2-y,1/2+z
_cell_length_a                   11.066(2)
_cell_length_b                   7.2380(14)
_cell_length_c                   11.271(2)
_cell_angle_alpha                90
_cell_angle_beta                 116.79(3)
_cell_angle_gamma                90
_cell_volume                     805.861
_exptl_crystal_colour            colorless
_exptl_crystal_description       block
_chemical_melting_point          '550 K'
_cell_formula_units_Z            4
_exptl_crystal_recrystallization_method acetone
loop_
_atom_site_label
_atom_site_type_symbol
_atom_site_fract_x
_atom_site_fract_y
_atom_site_fract_z
S1 S 0.69244(6) 0.09005(8) 0.45516(5)
N1 N 0.9145(3) -0.2801(4) 0.8931(2)
N2 N 0.63999(19) 0.1376(3) 0.65128(17)
N3 N 0.57605(19) 0.2824(3) 0.56552(18)
N4 N 0.5428(3) 0.3989(3) 0.3599(2)
H1 H 0.4944 0.4890 0.3645
H2 H 0.5580 0.3880 0.2918
C1 C 0.9215(3) -0.4300(4) 0.8284(3)
H3 H 0.9692 -0.5315 0.8782
C2 C 0.8626(3) -0.4435(4) 0.6931(3)
H4 H 0.8714 -0.5509 0.6523
C3 C 0.7896(3) -0.2946(3) 0.6177(3)
H5 H 0.7483 -0.3004 0.5253
C4 C 0.7792(2) -0.1374(3) 0.6817(2)
C5 C 0.8440(3) -0.1375(4) 0.8191(3)
H6 H 0.8380 -0.0315 0.8628
C6 C 0.7037(2) 0.0273(3) 0.6091(2)
C7 C 0.5946(2) 0.2753(3) 0.4591(2)
loop_
_geom_bond_atom_site_label_1
_geom_bond_atom_site_label_2
_geom_bond_site_symmetry_1
_geom_bond_site_symmetry_2
S1 C6 1_555 1_555
N1 C1 1_555 1_555
N2 N3 1_555 1_555
N3 C7 1_555 1_555
N4 H1 1_555 1_555
H2 N4 1_555 1_555
C1 H3 1_555 1_555
C2 C1 1_555 1_555
H4 C2 1_555 1_555
C3 C2 1_555 1_555
H5 C3 1_555 1_555
C4 C3 1_555 1_555
C5 N1 1_555 1_555
H6 C5 1_555 1_555
C6 N2 1_555 1_555
C7 S1 1_555 1_555
N4 C7 1_555 1_555
C4 C5 1_555 1_555
C4 C6 1_555 1_555

#END
