
#######################################################################
#
#                 Cambridge Crystallographic Data Centre
#                                CCDC 
#
#######################################################################
#
# If this CIF has been generated from an entry in the Cambridge 
# Structural Database, then it will include bibliographic, chemical, 
# crystal, experimental, refinement or atomic coordinate data resulting 
# from the CCDC's data processing and validation procedures.
#
#######################################################################

data_BOVCEW
_chemical_formula_moiety         'C21 H20 O1'
_chemical_name_systematic        
9a-(4-methoxyphenyl)-3-methyl-9,9a-dihydro-1H-cyclopenta[b]naphthalene
_symmetry_cell_setting           monoclinic
_symmetry_space_group_name_H-M   'P 21/c'
_symmetry_Int_Tables_number      14
_space_group_name_Hall           '-P 2ybc'
loop_
_symmetry_equiv_pos_site_id
_symmetry_equiv_pos_as_xyz
1 x,y,z
2 -x,1/2+y,1/2-z
3 -x,-y,-z
4 x,1/2-y,1/2+z
_cell_length_a                   11.2815(15)
_cell_length_b                   6.5835(9)
_cell_length_c                   21.733(3)
_cell_angle_alpha                90
_cell_angle_beta                 104.239(2)
_cell_angle_gamma                90
_cell_volume                     1564.56
_exptl_crystal_colour            colorless
_exptl_crystal_description       plate
_cell_formula_units_Z            4
loop_
_atom_site_label
_atom_site_type_symbol
_atom_site_fract_x
_atom_site_fract_y
_atom_site_fract_z
C1 C 0.13594(14) -0.0096(2) 0.89493(7)
C2 C 0.05196(15) -0.1561(3) 0.92110(8)
H1 H 0.0304 -0.2773 0.8937
H2 H 0.0917 -0.2004 0.9649
C3 C -0.05843(16) -0.0286(3) 0.91982(8)
H3 H -0.1190 -0.0634 0.9416
C4 C -0.06280(14) 0.1390(3) 0.88496(8)
C5 C 0.04456(13) 0.1450(2) 0.85897(7)
C6 C 0.06627(14) 0.2535(3) 0.81065(7)
H4 H 0.0092 0.3538 0.7906
C7 C 0.20180(15) -0.1096(2) 0.84916(7)
H5 H 0.2720 -0.1894 0.8738
H6 H 0.1451 -0.2047 0.8211
C8 C -0.16231(17) 0.2949(3) 0.87001(9)
H7 H -0.2283 0.2554 0.8896
H8 H -0.1943 0.3044 0.8239
H9 H -0.1294 0.4271 0.8867
C9 C 0.17676(14) 0.2187(3) 0.78860(7)
C10 C 0.24728(14) 0.0441(2) 0.80893(7)
C11 C 0.35237(15) 0.0106(3) 0.78794(8)
H10 H 0.4017 -0.1050 0.8026
C12 C 0.38624(16) 0.1438(3) 0.74585(8)
H11 H 0.4580 0.1186 0.7316
C13 C 0.31575(17) 0.3132(3) 0.72468(8)
H12 H 0.3382 0.4035 0.6954
C14 C 0.21225(16) 0.3509(3) 0.74627(8)
H13 H 0.1647 0.4686 0.7321
C15 C 0.22713(14) 0.0929(2) 0.95040(7)
C16 C 0.31666(15) -0.0230(3) 0.99079(8)
H14 H 0.3200 -0.1647 0.9831
C17 C 0.40034(15) 0.0598(3) 1.04137(8)
H15 H 0.4592 -0.0248 1.0683
C18 C 0.39906(14) 0.2661(2) 1.05318(7)
C19 C 0.30942(15) 0.3843(2) 1.01509(8)
H16 H 0.3051 0.5253 1.0236
C20 C 0.22536(15) 0.2975(2) 0.96420(7)
H17 H 0.1648 0.3814 0.9381
O1 O 0.48986(11) 0.33654(18) 1.10258(5)
C21 C 0.50499(17) 0.5503(3) 1.10911(9)
H18 H 0.5116 0.6088 1.0686
H19 H 0.5795 0.5804 1.1420
H20 H 0.4343 0.6093 1.1212
loop_
_geom_bond_atom_site_label_1
_geom_bond_atom_site_label_2
_geom_bond_site_symmetry_1
_geom_bond_site_symmetry_2
C1 C2 1_555 1_555
C2 H1 1_555 1_555
H2 C2 1_555 1_555
C3 C2 1_555 1_555
H3 C3 1_555 1_555
C4 C3 1_555 1_555
C5 C1 1_555 1_555
C6 C5 1_555 1_555
H4 C6 1_555 1_555
C7 C1 1_555 1_555
H5 C7 1_555 1_555
H6 C7 1_555 1_555
C8 C4 1_555 1_555
H7 C8 1_555 1_555
H8 C8 1_555 1_555
H9 C8 1_555 1_555
C9 C6 1_555 1_555
C10 C7 1_555 1_555
C11 C10 1_555 1_555
H10 C11 1_555 1_555
C12 C11 1_555 1_555
H11 C12 1_555 1_555
C13 C12 1_555 1_555
H12 C13 1_555 1_555
C14 C9 1_555 1_555
H13 C14 1_555 1_555
C15 C1 1_555 1_555
C16 C15 1_555 1_555
H14 C16 1_555 1_555
C17 C16 1_555 1_555
H15 C17 1_555 1_555
C18 C17 1_555 1_555
C19 C18 1_555 1_555
H16 C19 1_555 1_555
C20 C15 1_555 1_555
H17 C20 1_555 1_555
O1 C18 1_555 1_555
C21 O1 1_555 1_555
H18 C21 1_555 1_555
H19 C21 1_555 1_555
H20 C21 1_555 1_555
C4 C5 1_555 1_555
C9 C10 1_555 1_555
C13 C14 1_555 1_555
C19 C20 1_555 1_555

#END
