
#######################################################################
#
#                 Cambridge Crystallographic Data Centre
#                                CCDC 
#
#######################################################################
#
# If this CIF has been generated from an entry in the Cambridge 
# Structural Database, then it will include bibliographic, chemical, 
# crystal, experimental, refinement or atomic coordinate data resulting 
# from the CCDC's data processing and validation procedures.
#
#######################################################################

data_BOVQEK
_chemical_formula_moiety         'C15 H10 B1 F2 N3 S1'
_chemical_name_systematic        
8,8-Difluoro-10-methyl-8H-9\l^5^,8\l^5^-benzo[cd][1,3]thiazolo[3',2':3,4][1,3,5,2]triazaborinino[1,6-a]indole
_symmetry_cell_setting           monoclinic
_symmetry_space_group_name_H-M   'P 21/c'
_symmetry_Int_Tables_number      14
_space_group_name_Hall           '-P 2ybc'
loop_
_symmetry_equiv_pos_site_id
_symmetry_equiv_pos_as_xyz
1 x,y,z
2 -x,1/2+y,1/2-z
3 -x,-y,-z
4 x,1/2-y,1/2+z
_cell_length_a                   7.9215(9)
_cell_length_b                   14.0077(15)
_cell_length_c                   25.071(3)
_cell_angle_alpha                90
_cell_angle_beta                 102.609(3)
_cell_angle_gamma                90
_cell_volume                     2714.83
_exptl_crystal_colour            orange
_exptl_crystal_description       block
_cell_formula_units_Z            8
loop_
_atom_site_label
_atom_site_type_symbol
_atom_site_fract_x
_atom_site_fract_y
_atom_site_fract_z
B1 B 0.3456(4) 0.6234(2) 0.98279(11)
C1 C 0.7742(4) 0.7421(2) 1.03801(12)
H1 H 0.8470 0.7755 1.0659
C2 C 0.6168(3) 0.71303(19) 1.04077(11)
C3 C 0.5263(4) 0.7261(2) 1.08660(10)
H2 H 0.5094 0.6650 1.1020
H3 H 0.4161 0.7559 1.0731
H4 H 0.5952 0.7658 1.1142
C4 C 0.6312(3) 0.65835(18) 0.95577(10)
C5 C 0.4420(3) 0.57088(17) 0.89643(10)
C6 C 0.3746(3) 0.51329(17) 0.84779(9)
C7 C 0.4290(3) 0.48775(18) 0.80114(10)
H5 H 0.5357 0.5075 0.7953
C8 C 0.3179(4) 0.43101(19) 0.76279(11)
H6 H 0.3527 0.4136 0.7311
C9 C 0.1602(4) 0.40000(18) 0.76984(11)
H7 H 0.0908 0.3631 0.7428
C10 C 0.1014(3) 0.42324(17) 0.81755(10)
C11 C -0.0567(3) 0.4005(2) 0.83236(11)
H8 H -0.1387 0.3633 0.8093
C12 C -0.0884(3) 0.4333(2) 0.88047(12)
H9 H -0.1929 0.4171 0.8893
C13 C 0.0289(3) 0.49071(19) 0.91772(10)
H10 H 0.0035 0.5118 0.9502
C14 C 0.1811(3) 0.51361(17) 0.90373(9)
C15 C 0.2146(3) 0.47987(17) 0.85453(9)
F1 F 0.23156(19) 0.69823(12) 0.97863(7)
F2 F 0.3269(2) 0.56372(12) 1.02437(6)
N1 N 0.5357(2) 0.66431(14) 0.99342(8)
N2 N 0.5921(3) 0.61628(15) 0.90704(8)
N3 N 0.3257(2) 0.56952(14) 0.92907(8)
S1 S 0.82941(9) 0.71215(6) 0.97804(3)
B2 B 0.9755(3) 0.5243(2) 0.62187(11)
C16 C 0.5405(3) 0.4168(2) 0.56007(11)
H11 H 0.4689 0.3846 0.5313
C17 C 0.7027(3) 0.44184(18) 0.55995(10)
C18 C 0.8000(4) 0.4259(2) 0.51686(11)
H12 H 0.7314 0.3883 0.4881
H13 H 0.9056 0.3927 0.5320
H14 H 0.8263 0.4862 0.5025
C19 C 0.6784(3) 0.49914(18) 0.64327(10)
C20 C 0.8694(3) 0.58171(17) 0.70572(9)
C21 C 0.9367(3) 0.63597(17) 0.75543(9)
C22 C 0.8806(3) 0.65996(18) 0.80218(10)
H15 H 0.7723 0.6413 0.8071
C23 C 0.9932(4) 0.71347(19) 0.84190(10)
H16 H 0.9571 0.7303 0.8735
C24 C 1.1546(4) 0.74243(19) 0.83646(10)
H17 H 1.2244 0.7775 0.8643
C25 C 1.2155(3) 0.71955(17) 0.78913(10)
C26 C 1.3760(3) 0.74103(19) 0.77552(11)
H18 H 1.4593 0.7759 0.7996
C27 C 1.4080(3) 0.71039(19) 0.72696(11)
H19 H 1.5135 0.7262 0.7188
C28 C 1.2903(3) 0.65619(18) 0.68862(10)
H20 H 1.3165 0.6363 0.6560
C29 C 1.1357(3) 0.63401(17) 0.70142(9)
C30 C 1.1009(3) 0.66650(16) 0.75069(9)
F3 F 1.08175(18) 0.44592(10) 0.62893(6)
F4 F 1.0105(2) 0.58086(11) 0.58094(6)
N4 N 0.7808(2) 0.49013(14) 0.60782(7)
N5 N 0.7143(2) 0.54149(15) 0.69229(8)
N6 N 0.9900(2) 0.58121(14) 0.67421(8)
S2 S 0.47742(8) 0.44997(5) 0.61871(3)
loop_
_geom_bond_atom_site_label_1
_geom_bond_atom_site_label_2
_geom_bond_site_symmetry_1
_geom_bond_site_symmetry_2
B1 F1 1_555 1_555
C1 H1 1_555 1_555
C2 C1 1_555 1_555
C3 C2 1_555 1_555
H2 C3 1_555 1_555
H3 C3 1_555 1_555
H4 C3 1_555 1_555
C4 N1 1_555 1_555
C5 C6 1_555 1_555
C6 C7 1_555 1_555
C7 H5 1_555 1_555
C8 C7 1_555 1_555
H6 C8 1_555 1_555
C9 C8 1_555 1_555
H7 C9 1_555 1_555
C10 C9 1_555 1_555
C11 C10 1_555 1_555
H8 C11 1_555 1_555
C12 C11 1_555 1_555
H9 C12 1_555 1_555
C13 C12 1_555 1_555
H10 C13 1_555 1_555
C14 C13 1_555 1_555
C15 C6 1_555 1_555
F2 B1 1_555 1_555
N1 B1 1_555 1_555
N2 C4 1_555 1_555
N3 B1 1_555 1_555
S1 C1 1_555 1_555
B2 F3 1_555 1_555
C16 H11 1_555 1_555
C17 C16 1_555 1_555
C18 C17 1_555 1_555
H12 C18 1_555 1_555
H13 C18 1_555 1_555
H14 C18 1_555 1_555
C19 N4 1_555 1_555
C20 C21 1_555 1_555
C21 C22 1_555 1_555
C22 H15 1_555 1_555
C23 C22 1_555 1_555
H16 C23 1_555 1_555
C24 C23 1_555 1_555
H17 C24 1_555 1_555
C25 C24 1_555 1_555
C26 C25 1_555 1_555
H18 C26 1_555 1_555
C27 C26 1_555 1_555
H19 C27 1_555 1_555
C28 C27 1_555 1_555
H20 C28 1_555 1_555
C29 C28 1_555 1_555
C30 C21 1_555 1_555
F4 B2 1_555 1_555
N4 B2 1_555 1_555
N5 C19 1_555 1_555
N6 B2 1_555 1_555
S2 C16 1_555 1_555
C2 N1 1_555 1_555
C4 S1 1_555 1_555
C5 N2 1_555 1_555
C5 N3 1_555 1_555
C10 C15 1_555 1_555
C14 C15 1_555 1_555
C14 N3 1_555 1_555
C17 N4 1_555 1_555
C19 S2 1_555 1_555
C20 N5 1_555 1_555
C20 N6 1_555 1_555
C25 C30 1_555 1_555
C29 C30 1_555 1_555
C29 N6 1_555 1_555

#END
