
#######################################################################
#
#                 Cambridge Crystallographic Data Centre
#                                CCDC 
#
#######################################################################
#
# If this CIF has been generated from an entry in the Cambridge 
# Structural Database, then it will include bibliographic, chemical, 
# crystal, experimental, refinement or atomic coordinate data resulting 
# from the CCDC's data processing and validation procedures.
#
#######################################################################

data_BOVREL
_chemical_formula_moiety         'C22 H18 B1 F2 N3 S1'
_chemical_name_systematic        
10-t-Butyl-14,14-difluoro-14H-13\l^5^,14\l^5^-benzo[3',4']indolo[1',2':3,4][1,3,5,2]triazaborinino[6,1-b][1,3]benzothiazole
_symmetry_cell_setting           triclinic
_symmetry_space_group_name_H-M   'P -1'
_symmetry_Int_Tables_number      2
_space_group_name_Hall           '-P 1'
loop_
_symmetry_equiv_pos_site_id
_symmetry_equiv_pos_as_xyz
1 x,y,z
2 -x,-y,-z
_cell_length_a                   10.092(4)
_cell_length_b                   10.383(4)
_cell_length_c                   10.434(4)
_cell_angle_alpha                65.025(4)
_cell_angle_beta                 82.642(4)
_cell_angle_gamma                75.499(4)
_cell_volume                     959.21
_exptl_crystal_colour            orange
_exptl_crystal_description       block
_cell_formula_units_Z            2
loop_
_atom_site_label
_atom_site_type_symbol
_atom_site_fract_x
_atom_site_fract_y
_atom_site_fract_z
B1 B -0.1276(8) 0.7492(9) 0.3788(9)
C1 C -0.2421(7) 0.5227(8) 0.4755(7)
F1 F -0.0883(5) 0.7261(6) 0.5085(5)
N1 N -0.1552(6) 0.6105(6) 0.3792(6)
S1 S 0.14478(19) 0.7935(2) 0.04564(19)
C2 C -0.3138(8) 0.5266(9) 0.5963(8)
H1 H -0.3109 0.5961 0.6295
F2 F -0.2402(5) 0.8632(5) 0.3346(6)
N2 N -0.0248(6) 0.6133(6) 0.1713(6)
C3 C -0.3918(9) 0.4194(10) 0.6668(9)
H2 H -0.4397 0.4183 0.7495
N3 N -0.0094(5) 0.7838(6) 0.2646(6)
C4 C -0.4008(9) 0.3162(9) 0.6193(9)
H3 H -0.4549 0.2492 0.6690
C5 C -0.3279(8) 0.3120(8) 0.4951(8)
C6 C -0.3203(9) 0.2167(8) 0.4277(9)
H4 H -0.3680 0.1423 0.4665
C7 C -0.2432(9) 0.2334(9) 0.3056(9)
H5 H -0.2421 0.1699 0.2636
C8 C -0.1656(8) 0.3413(8) 0.2404(9)
H6 H -0.1137 0.3491 0.1581
C9 C -0.1702(7) 0.4352(7) 0.3045(7)
C10 C -0.2497(7) 0.4178(7) 0.4287(8)
C11 C -0.1102(7) 0.5591(7) 0.2775(7)
C12 C 0.0234(7) 0.7212(8) 0.1718(7)
C13 C 0.1519(7) 0.9126(7) 0.1213(7)
C14 C 0.2345(7) 1.0133(7) 0.0809(7)
H7 H 0.2922 1.0268 0.0015
C15 C 0.2299(7) 1.0933(7) 0.1596(7)
C16 C 0.1392(7) 1.0706(8) 0.2783(8)
H8 H 0.1349 1.1246 0.3313
C17 C 0.0570(8) 0.9717(8) 0.3184(7)
H9 H -0.0019 0.9590 0.3969
C18 C 0.0639(7) 0.8911(7) 0.2391(7)
C19 C 0.3204(8) 1.2021(8) 0.1260(8)
C20 C 0.4015(10) 1.2245(11) -0.0139(12)
H10 H 0.4550 1.1324 -0.0099
H11 H 0.4611 1.2888 -0.0289
H12 H 0.3390 1.2662 -0.0904
C21 C 0.4192(11) 1.1465(12) 0.2480(12)
H13 H 0.3677 1.1313 0.3352
H14 H 0.4725 1.2171 0.2308
H15 H 0.4790 1.0563 0.2542
C22 C 0.2325(10) 1.3498(9) 0.1136(9)
H16 H 0.1664 1.3841 0.0415
H17 H 0.2899 1.4183 0.0892
H18 H 0.1859 1.3399 0.2024
loop_
_geom_bond_atom_site_label_1
_geom_bond_atom_site_label_2
_geom_bond_site_symmetry_1
_geom_bond_site_symmetry_2
B1 F1 1_555 1_555
C1 N1 1_555 1_555
N1 B1 1_555 1_555
S1 C12 1_555 1_555
C2 C1 1_555 1_555
H1 C2 1_555 1_555
F2 B1 1_555 1_555
N2 C11 1_555 1_555
C3 C2 1_555 1_555
H2 C3 1_555 1_555
N3 B1 1_555 1_555
C4 C3 1_555 1_555
H3 C4 1_555 1_555
C5 C4 1_555 1_555
C6 C5 1_555 1_555
H4 C6 1_555 1_555
C7 C6 1_555 1_555
H5 C7 1_555 1_555
C8 C7 1_555 1_555
H6 C8 1_555 1_555
C9 C8 1_555 1_555
C10 C1 1_555 1_555
C11 N1 1_555 1_555
C12 N2 1_555 1_555
C13 S1 1_555 1_555
C14 C13 1_555 1_555
H7 C14 1_555 1_555
C15 C14 1_555 1_555
C16 C15 1_555 1_555
H8 C16 1_555 1_555
C17 C16 1_555 1_555
H9 C17 1_555 1_555
C18 N3 1_555 1_555
C19 C15 1_555 1_555
C20 C19 1_555 1_555
H10 C20 1_555 1_555
H11 C20 1_555 1_555
H12 C20 1_555 1_555
C21 C19 1_555 1_555
H13 C21 1_555 1_555
H14 C21 1_555 1_555
H15 C21 1_555 1_555
C22 C19 1_555 1_555
H16 C22 1_555 1_555
H17 C22 1_555 1_555
H18 C22 1_555 1_555
N3 C12 1_555 1_555
C5 C10 1_555 1_555
C9 C10 1_555 1_555
C9 C11 1_555 1_555
C13 C18 1_555 1_555
C17 C18 1_555 1_555

#END
