
#######################################################################
#
#                 Cambridge Crystallographic Data Centre
#                                CCDC 
#
#######################################################################
#
# If this CIF has been generated from an entry in the Cambridge 
# Structural Database, then it will include bibliographic, chemical, 
# crystal, experimental, refinement or atomic coordinate data resulting 
# from the CCDC's data processing and validation procedures.
#
#######################################################################

data_BOVRAH
_chemical_formula_moiety         'C16 H9 B1 Cl1 F2 N3'
_chemical_name_systematic        
10-Chloro-8,8-difluoro-8H-9\l^5^,8\l^5^-benzo[cd]pyrido[1',2':3,4][1,3,5,2]triazaborinino[1,6-a]indole
_symmetry_cell_setting           monoclinic
_symmetry_space_group_name_H-M   'P 21/n'
_symmetry_Int_Tables_number      14
_space_group_name_Hall           '-P 2yn'
loop_
_symmetry_equiv_pos_site_id
_symmetry_equiv_pos_as_xyz
1 x,y,z
2 1/2-x,1/2+y,1/2-z
3 -x,-y,-z
4 1/2+x,1/2-y,1/2+z
_cell_length_a                   7.7337(7)
_cell_length_b                   19.0699(17)
_cell_length_c                   9.6550(8)
_cell_angle_alpha                90
_cell_angle_beta                 105.0590(10)
_cell_angle_gamma                90
_cell_volume                     1375.03
_exptl_crystal_colour            orange
_exptl_crystal_description       block
_cell_formula_units_Z            4
loop_
_atom_site_label
_atom_site_type_symbol
_atom_site_fract_x
_atom_site_fract_y
_atom_site_fract_z
B1 B 0.6986(2) 0.98158(9) 0.19914(18)
C1 C 0.7383(2) 0.87969(8) 0.02957(16)
C2 C 0.8939(2) 0.89404(9) -0.00655(18)
H1 H 0.9597 0.9344 0.0257
C3 C 0.9508(3) 0.84454(11) -0.09573(19)
H2 H 1.0575 0.8530 -0.1202
C4 C 0.8570(3) 0.78536(11) -0.1473(2)
H3 H 0.9007 0.7546 -0.2049
C5 C 0.6927(3) 0.77054(9) -0.11327(18)
C6 C 0.5720(3) 0.71458(10) -0.1580(2)
H4 H 0.5958 0.6808 -0.2200
C7 C 0.4200(3) 0.70947(10) -0.1109(2)
H5 H 0.3434 0.6718 -0.1425
C8 C 0.3732(3) 0.75875(9) -0.0163(2)
H6 H 0.2697 0.7537 0.0148
C9 C 0.4881(2) 0.81435(8) 0.02722(17)
C10 C 0.6413(2) 0.81873(8) -0.02277(16)
C11 C 0.4925(2) 0.87751(8) 0.11619(16)
C12 C 0.3884(2) 0.95935(8) 0.24907(16)
C13 C 0.2483(2) 0.97994(10) 0.30825(18)
H7 H 0.1517 0.9500 0.3019
C14 C 0.2519(2) 1.04271(11) 0.37431(19)
H8 H 0.1572 1.0561 0.4113
C15 C 0.3973(3) 1.08711(10) 0.38662(18)
H9 H 0.4025 1.1301 0.4330
C16 C 0.5328(2) 1.06617(9) 0.32886(16)
Cl1 Cl 0.71523(7) 1.12019(2) 0.35024(6)
F1 F 0.84385(12) 0.96990(5) 0.31574(10)
F2 F 0.73657(15) 1.03255(5) 0.11128(11)
N1 N 0.64238(16) 0.91486(7) 0.11547(13)
N2 N 0.37248(17) 0.89580(7) 0.18306(15)
N3 N 0.53170(16) 1.00380(7) 0.25958(12)
loop_
_geom_bond_atom_site_label_1
_geom_bond_atom_site_label_2
_geom_bond_site_symmetry_1
_geom_bond_site_symmetry_2
B1 F1 1_555 1_555
C1 C2 1_555 1_555
C2 H1 1_555 1_555
C3 C2 1_555 1_555
H2 C3 1_555 1_555
C4 C3 1_555 1_555
H3 C4 1_555 1_555
C5 C4 1_555 1_555
C6 C5 1_555 1_555
H4 C6 1_555 1_555
C7 C6 1_555 1_555
H5 C7 1_555 1_555
C8 C7 1_555 1_555
H6 C8 1_555 1_555
C9 C8 1_555 1_555
C10 C1 1_555 1_555
C11 C9 1_555 1_555
C12 C13 1_555 1_555
C13 H7 1_555 1_555
C14 C13 1_555 1_555
H8 C14 1_555 1_555
C15 C14 1_555 1_555
H9 C15 1_555 1_555
C16 C15 1_555 1_555
Cl1 C16 1_555 1_555
F2 B1 1_555 1_555
N1 B1 1_555 1_555
N2 C11 1_555 1_555
N3 B1 1_555 1_555
C1 N1 1_555 1_555
C5 C10 1_555 1_555
C9 C10 1_555 1_555
C11 N1 1_555 1_555
C12 N2 1_555 1_555
C12 N3 1_555 1_555
C16 N3 1_555 1_555

#END
