
#######################################################################
#
#                 Cambridge Crystallographic Data Centre
#                                CCDC 
#
#######################################################################
#
# If this CIF has been generated from an entry in the Cambridge 
# Structural Database, then it will include bibliographic, chemical, 
# crystal, experimental, refinement or atomic coordinate data resulting 
# from the CCDC's data processing and validation procedures.
#
#######################################################################

data_BOVTOX
_chemical_formula_moiety         'C24 H20 N2 O1'
_chemical_name_systematic        
(2-Methyl-3-oxo-3-phenylpropyl)(1-naphthylmethyl)malononitrile
_symmetry_cell_setting           orthorhombic
_symmetry_space_group_name_H-M   'P 21 21 21'
_symmetry_Int_Tables_number      19
_space_group_name_Hall           'P 2ac 2ab'
loop_
_symmetry_equiv_pos_site_id
_symmetry_equiv_pos_as_xyz
1 x,y,z
2 1/2-x,-y,1/2+z
3 -x,1/2+y,1/2-z
4 1/2+x,1/2-y,-z
_cell_length_a                   10.5861(3)
_cell_length_b                   10.6180(3)
_cell_length_c                   17.0439(4)
_cell_angle_alpha                90
_cell_angle_beta                 90
_cell_angle_gamma                90
_cell_volume                     1915.79
_exptl_crystal_colour            colorless
_exptl_crystal_description       block
_cell_formula_units_Z            4
loop_
_atom_site_label
_atom_site_type_symbol
_atom_site_fract_x
_atom_site_fract_y
_atom_site_fract_z
O1 O 0.21383(12) 0.21138(13) 0.48658(9)
N1 N 0.29516(16) 0.42379(15) 0.35072(9)
N2 N 0.01162(16) 0.67365(18) 0.41506(11)
C1 C 0.55770(17) 0.57652(16) 0.42575(10)
H1 H 0.5248 0.5288 0.4682
C2 C 0.67138(17) 0.54299(18) 0.39361(11)
H2 H 0.7164 0.4730 0.4141
C3 C 0.72188(17) 0.61178(19) 0.33022(11)
H3 H 0.8012 0.5887 0.3085
C4 C 0.65708(17) 0.71093(18) 0.30022(10)
H4 H 0.6912 0.7558 0.2569
C5 C 0.53933(16) 0.74892(16) 0.33229(9)
C6 C 0.48806(15) 0.68086(15) 0.39714(9)
C7 C 0.37100(15) 0.72184(16) 0.43051(9)
C8 C 0.31258(17) 0.82603(17) 0.40038(11)
H5 H 0.2363 0.8547 0.4236
C9 C 0.36258(19) 0.89183(18) 0.33585(12)
H6 H 0.3191 0.9631 0.3156
C10 C 0.47287(19) 0.85402(18) 0.30217(11)
H7 H 0.5054 0.8984 0.2582
C11 C 0.30962(16) 0.65170(16) 0.49771(9)
H8 H 0.2686 0.7133 0.5331
H9 H 0.3759 0.6075 0.5281
C12 C 0.20866(15) 0.55338(16) 0.46993(9)
C13 C 0.25838(15) 0.47898(15) 0.40323(9)
C14 C 0.09662(16) 0.62099(17) 0.43913(10)
C15 C 0.17074(17) 0.46638(17) 0.53911(10)
H10 H 0.2470 0.4204 0.5568
H11 H 0.1424 0.5199 0.5833
C16 C 0.06697(17) 0.36998(17) 0.52164(11)
H12 H -0.0057 0.4127 0.4952
C17 C 0.0219(2) 0.3090(2) 0.59867(13)
H13 H 0.0926 0.2646 0.6234
H14 H -0.0461 0.2490 0.5874
H15 H -0.0094 0.3744 0.6342
C18 C 0.11469(16) 0.26230(16) 0.47028(11)
C19 C 0.03459(17) 0.21337(18) 0.40486(10)
C20 C 0.0572(3) 0.0913(2) 0.37908(13)
H16 H 0.1231 0.0430 0.4020
C21 C -0.0164(4) 0.0401(3) 0.32004(17)
H17 H -0.0031 -0.0444 0.3037
C22 C -0.1091(4) 0.1118(4) 0.28486(16)
H18 H -0.1589 0.0770 0.2438
C23 C -0.1296(3) 0.2335(4) 0.30915(15)
H19 H -0.1924 0.2831 0.2842
C24 C -0.0594(2) 0.2838(2) 0.36954(13)
H20 H -0.0757 0.3672 0.3870
loop_
_geom_bond_atom_site_label_1
_geom_bond_atom_site_label_2
_geom_bond_site_symmetry_1
_geom_bond_site_symmetry_2
O1 C18 1_555 1_555
N1 C13 1_555 1_555
N2 C14 1_555 1_555
C1 H1 1_555 1_555
C2 C1 1_555 1_555
H2 C2 1_555 1_555
C3 C2 1_555 1_555
H3 C3 1_555 1_555
C4 C3 1_555 1_555
H4 C4 1_555 1_555
C5 C4 1_555 1_555
C6 C1 1_555 1_555
C7 C6 1_555 1_555
C8 C7 1_555 1_555
H5 C8 1_555 1_555
C9 C8 1_555 1_555
H6 C9 1_555 1_555
C10 C5 1_555 1_555
H7 C10 1_555 1_555
C11 C7 1_555 1_555
H8 C11 1_555 1_555
H9 C11 1_555 1_555
C12 C11 1_555 1_555
C13 C12 1_555 1_555
C14 C12 1_555 1_555
C15 C12 1_555 1_555
H10 C15 1_555 1_555
H11 C15 1_555 1_555
C16 C15 1_555 1_555
H12 C16 1_555 1_555
C17 C16 1_555 1_555
H13 C17 1_555 1_555
H14 C17 1_555 1_555
H15 C17 1_555 1_555
C18 C16 1_555 1_555
C19 C18 1_555 1_555
C20 C19 1_555 1_555
H16 C20 1_555 1_555
C21 C20 1_555 1_555
H17 C21 1_555 1_555
C22 C21 1_555 1_555
H18 C22 1_555 1_555
C23 C22 1_555 1_555
H19 C23 1_555 1_555
C24 C19 1_555 1_555
H20 C24 1_555 1_555
C5 C6 1_555 1_555
C9 C10 1_555 1_555
C23 C24 1_555 1_555

#END
