
#######################################################################
#
#                 Cambridge Crystallographic Data Centre
#                                CCDC 
#
#######################################################################
#
# If this CIF has been generated from an entry in the Cambridge 
# Structural Database, then it will include bibliographic, chemical, 
# crystal, experimental, refinement or atomic coordinate data resulting 
# from the CCDC's data processing and validation procedures.
#
#######################################################################

data_BOWBOG
_chemical_formula_moiety         '2(C26 H22 N2 O2),C12 H4 N4,C8 H10'
_chemical_name_systematic        
"bis(1-(5-(9-anthryl)-3-(4-methoxyphenyl)-4,5-dihydro-1H-pyrazol-1-yl)ethanone) 2,2'-cyclohexa-2,5-diene-1,4-diylidenedimalononitrile m-xylene solvate"
_symmetry_cell_setting           triclinic
_symmetry_space_group_name_H-M   'P -1'
_symmetry_Int_Tables_number      2
_space_group_name_Hall           '-P 1'
loop_
_symmetry_equiv_pos_site_id
_symmetry_equiv_pos_as_xyz
1 x,y,z
2 -x,-y,-z
_cell_length_a                   9.947(2)
_cell_length_b                   17.384(3)
_cell_length_c                   18.342(4)
_cell_angle_alpha                111.39(3)
_cell_angle_beta                 96.73(3)
_cell_angle_gamma                91.23(3)
_cell_volume                     2925.78
_exptl_crystal_colour            black
_exptl_crystal_description       block
_cell_formula_units_Z            2
loop_
_atom_site_label
_atom_site_type_symbol
_atom_site_fract_x
_atom_site_fract_y
_atom_site_fract_z
O1 O 1.3026(4) 0.3761(2) 0.5534(2)
O2 O 0.7368(4) 0.6072(2) 0.2212(2)
N1 N 0.8530(4) 0.5201(2) 0.2632(2)
N2 N 0.9686(4) 0.5098(2) 0.3097(2)
C1 C 0.6461(5) 0.4212(3) 0.1907(3)
C2 C 0.5045(5) 0.4294(3) 0.1805(3)
C3 C 0.4314(5) 0.4848(3) 0.2382(3)
H1 H 0.4791 0.5186 0.2864
C4 C 0.2970(6) 0.4901(4) 0.2256(4)
H2 H 0.2534 0.5265 0.2651
C5 C 0.2221(6) 0.4412(4) 0.1535(4)
H3 H 0.1292 0.4463 0.1452
C6 C 0.2821(6) 0.3865(3) 0.0955(4)
H4 H 0.2307 0.3540 0.0480
C7 C 0.4252(5) 0.3790(3) 0.1077(3)
C8 C 0.4878(6) 0.3221(3) 0.0489(3)
H5 H 0.4357 0.2902 0.0014
C9 C 0.6248(6) 0.3115(3) 0.0590(3)
C10 C 0.6860(6) 0.2508(3) -0.0013(3)
H6 H 0.6328 0.2189 -0.0485
C11 C 0.8186(6) 0.2388(3) 0.0086(3)
H7 H 0.8563 0.1983 -0.0310
C12 C 0.9006(6) 0.2876(3) 0.0790(4)
H8 H 0.9925 0.2791 0.0856
C13 C 0.8476(5) 0.3470(3) 0.1376(3)
H9 H 0.9040 0.3787 0.1836
C14 C 0.7064(5) 0.3617(3) 0.1300(3)
C15 C 0.7313(4) 0.4737(3) 0.2691(3)
H10 H 0.6729 0.5141 0.3003
C16 C 0.7893(5) 0.4259(3) 0.3191(3)
H11 H 0.7439 0.4371 0.3656
H12 H 0.7811 0.3667 0.2889
C17 C 0.9345(5) 0.4581(3) 0.3413(3)
C18 C 1.0309(5) 0.4356(3) 0.3954(3)
C19 C 0.9899(6) 0.3808(3) 0.4284(3)
H13 H 0.9012 0.3575 0.4147
C20 C 1.0776(7) 0.3596(3) 0.4813(3)
H14 H 1.0475 0.3233 0.5036
C21 C 1.2081(7) 0.3924(4) 0.5005(3)
C22 C 1.2515(6) 0.4492(4) 0.4693(3)
H15 H 1.3399 0.4729 0.4837
C23 C 1.1637(6) 0.4698(3) 0.4175(3)
H16 H 1.1935 0.5075 0.3966
C24 C 1.2729(6) 0.3062(4) 0.5732(4)
H17 H 1.1910 0.3134 0.5971
H18 H 1.3465 0.3010 0.6096
H19 H 1.2614 0.2571 0.5261
C25 C 0.8479(6) 0.5887(4) 0.2440(3)
C26 C 0.9762(6) 0.6356(3) 0.2486(4)
H20 H 0.9570 0.6890 0.2474
H21 H 1.0221 0.6058 0.2046
H22 H 1.0329 0.6424 0.2970
O3 O 0.2129(4) 0.1492(2) 0.7410(2)
O4 O 0.3486(4) -0.0947(2) 0.1800(2)
N3 N 0.3273(4) -0.0176(2) 0.3046(3)
N4 N 0.2720(4) -0.0090(2) 0.3740(3)
C27 C 0.4622(5) 0.0866(3) 0.2706(3)
C28 C 0.5814(5) 0.0893(3) 0.2358(3)
C29 C 0.6933(5) 0.0387(3) 0.2363(3)
H23 H 0.6883 0.0001 0.2603
C30 C 0.8054(5) 0.0449(4) 0.2034(3)
H24 H 0.8757 0.0108 0.2047
C31 C 0.8156(6) 0.1031(4) 0.1673(3)
H25 H 0.8943 0.1084 0.1462
C32 C 0.7144(6) 0.1508(3) 0.1626(3)
H26 H 0.7225 0.1878 0.1372
C33 C 0.5944(5) 0.1455(3) 0.1961(3)
C34 C 0.4907(5) 0.1955(3) 0.1905(3)
H27 H 0.4998 0.2313 0.1637
C35 C 0.3740(5) 0.1936(3) 0.2238(3)
C36 C 0.2680(6) 0.2463(3) 0.2180(3)
H28 H 0.2775 0.2815 0.1907
C37 C 0.1541(6) 0.2455(4) 0.2516(4)
H29 H 0.0846 0.2786 0.2457
C38 C 0.1408(6) 0.1950(4) 0.2950(3)
H30 H 0.0634 0.1962 0.3192
C39 C 0.2384(5) 0.1446(3) 0.3024(3)
H31 H 0.2268 0.1121 0.3320
C40 C 0.3587(5) 0.1397(3) 0.2661(3)
C41 C 0.4557(5) 0.0312(3) 0.3188(3)
H32 H 0.5283 -0.0069 0.3068
C42 C 0.4708(5) 0.0779(3) 0.4088(3)
H33 H 0.5545 0.0663 0.4345
H34 H 0.4690 0.1372 0.4221
C43 C 0.3494(5) 0.0442(3) 0.4320(3)
C44 C 0.3199(5) 0.0707(3) 0.5136(3)
C45 C 0.4095(5) 0.1212(3) 0.5769(3)
H35 H 0.4934 0.1379 0.5680
C46 C 0.3783(6) 0.1481(3) 0.6543(3)
H36 H 0.4417 0.1814 0.6960
C47 C 0.2548(6) 0.1256(3) 0.6685(3)
C48 C 0.1644(6) 0.0747(4) 0.6061(4)
H37 H 0.0808 0.0581 0.6155
C49 C 0.1955(6) 0.0479(3) 0.5299(3)
H38 H 0.1320 0.0139 0.4887
C50 C 0.3023(7) 0.2018(4) 0.8082(3)
H39 H 0.3843 0.1750 0.8131
H40 H 0.2593 0.2129 0.8548
H41 H 0.3234 0.2529 0.8018
C51 C 0.2805(6) -0.0803(3) 0.2349(4)
C52 C 0.1484(6) -0.1265(3) 0.2299(3)
H42 H 0.1239 -0.1661 0.1771
H43 H 0.0790 -0.0882 0.2432
H44 H 0.1578 -0.1549 0.2662
N5 N 0.0896(5) 0.0013(3) 0.0991(3)
N6 N 0.1618(5) 0.1740(3) -0.0211(3)
C53 C 0.4580(5) 0.0605(3) -0.0300(3)
H45 H 0.4284 0.1005 -0.0495
C54 C 0.4213(5) -0.0311(3) 0.0431(3)
H46 H 0.3675 -0.0510 0.0715
C55 C 0.3725(5) 0.0314(3) 0.0139(3)
C56 C 0.2476(6) 0.0600(3) 0.0272(3)
C57 C 0.1591(6) 0.0285(4) 0.0686(4)
C58 C 0.1948(6) 0.1240(4) 0.0007(4)
N5A N 0.9104(5) -0.0013(3) -0.0991(3)
N6A N 0.8382(5) -0.1740(3) 0.0211(3)
C53A C 0.5420(5) -0.0605(3) 0.0300(3)
H45A H 0.5716 -0.1005 0.0495
C54A C 0.5787(5) 0.0311(3) -0.0431(3)
H46A H 0.6325 0.0510 -0.0715
C55A C 0.6275(5) -0.0314(3) -0.0139(3)
C56A C 0.7524(6) -0.0600(3) -0.0272(3)
C57A C 0.8409(6) -0.0285(4) -0.0686(4)
C58A C 0.8052(6) -0.1240(4) -0.0007(4)
N7 N 0.0531(9) 0.5883(5) 0.0262(6)
N8 N 0.3628(8) 0.7075(4) 0.2215(4)
C59 C 0.3671(9) 0.4880(5) -0.0364(5)
H47 H 0.2777 0.4791 -0.0609
C60 C 0.3967(10) 0.5492(5) 0.0408(5)
C61 C 0.5392(10) 0.5578(4) 0.0759(4)
H48 H 0.5651 0.5960 0.1269
C62 C 0.3048(11) 0.5971(5) 0.0819(5)
C63 C 0.1634(11) 0.5918(5) 0.0497(6)
C64 C 0.3383(8) 0.6590(5) 0.1599(5)
N7A N 0.9469(9) 0.4117(5) -0.0262(6)
N8A N 0.6372(8) 0.2925(4) -0.2215(4)
C59A C 0.6329(9) 0.5120(5) 0.0364(5)
H47A H 0.7223 0.5209 0.0609
C60A C 0.6033(10) 0.4508(5) -0.0408(5)
C61A C 0.4608(10) 0.4422(4) -0.0759(4)
H48A H 0.4349 0.4040 -0.1269
C62A C 0.6952(11) 0.4029(5) -0.0819(5)
C63A C 0.8366(11) 0.4082(5) -0.0497(6)
C64A C 0.6617(8) 0.3410(5) -0.1599(5)
C65 C 0.6488(13) 0.2865(8) 0.4633(7)
C66 C 0.7416(13) 0.2319(7) 0.4292(6)
H49 H 0.7493 0.2180 0.3760
C67 C 0.8249(13) 0.1969(7) 0.4742(9)
C68 C 0.8061(14) 0.2186(9) 0.5526(9)
H50 H 0.8579 0.1935 0.5821
C69 C 0.7184(17) 0.2735(12) 0.5900(10)
H51 H 0.7137 0.2884 0.6437
C70 C 0.6362(13) 0.3060(8) 0.5435(9)
H52 H 0.5712 0.3416 0.5659
C71 C 0.5592(9) 0.3223(5) 0.4143(5)
H53 H 0.4661 0.3053 0.4130
H54 H 0.5823 0.3029 0.3615
H55 H 0.5715 0.3816 0.4369
C72 C 0.9239(11) 0.1399(6) 0.4368(6)
H56 H 1.0124 0.1684 0.4507
H57 H 0.8999 0.1193 0.3805
H58 H 0.9247 0.0944 0.4547
loop_
_geom_bond_atom_site_label_1
_geom_bond_atom_site_label_2
_geom_bond_site_symmetry_1
_geom_bond_site_symmetry_2
O1 C21 1_555 1_555
O2 C25 1_555 1_555
N1 N2 1_555 1_555
N2 C17 1_555 1_555
C1 C2 1_555 1_555
C2 C3 1_555 1_555
C3 H1 1_555 1_555
C4 C3 1_555 1_555
H2 C4 1_555 1_555
C5 C4 1_555 1_555
H3 C5 1_555 1_555
C6 C5 1_555 1_555
H4 C6 1_555 1_555
C7 C2 1_555 1_555
C8 C7 1_555 1_555
H5 C8 1_555 1_555
C9 C8 1_555 1_555
C10 C9 1_555 1_555
H6 C10 1_555 1_555
C11 C10 1_555 1_555
H7 C11 1_555 1_555
C12 C11 1_555 1_555
H8 C12 1_555 1_555
C13 C12 1_555 1_555
H9 C13 1_555 1_555
C14 C1 1_555 1_555
C15 N1 1_555 1_555
H10 C15 1_555 1_555
C16 C15 1_555 1_555
H11 C16 1_555 1_555
H12 C16 1_555 1_555
C17 C16 1_555 1_555
C18 C17 1_555 1_555
C19 C18 1_555 1_555
H13 C19 1_555 1_555
C20 C19 1_555 1_555
H14 C20 1_555 1_555
C21 C20 1_555 1_555
C22 C21 1_555 1_555
H15 C22 1_555 1_555
C23 C18 1_555 1_555
H16 C23 1_555 1_555
C24 O1 1_555 1_555
H17 C24 1_555 1_555
H18 C24 1_555 1_555
H19 C24 1_555 1_555
C25 N1 1_555 1_555
C26 C25 1_555 1_555
H20 C26 1_555 1_555
H21 C26 1_555 1_555
H22 C26 1_555 1_555
O3 C47 1_555 1_555
O4 C51 1_555 1_555
N3 N4 1_555 1_555
N4 C43 1_555 1_555
C27 C28 1_555 1_555
C28 C29 1_555 1_555
C29 H23 1_555 1_555
C30 C29 1_555 1_555
H24 C30 1_555 1_555
C31 C30 1_555 1_555
H25 C31 1_555 1_555
C32 C31 1_555 1_555
H26 C32 1_555 1_555
C33 C28 1_555 1_555
C34 C33 1_555 1_555
H27 C34 1_555 1_555
C35 C34 1_555 1_555
C36 C35 1_555 1_555
H28 C36 1_555 1_555
C37 C36 1_555 1_555
H29 C37 1_555 1_555
C38 C37 1_555 1_555
H30 C38 1_555 1_555
C39 C38 1_555 1_555
H31 C39 1_555 1_555
C40 C27 1_555 1_555
C41 N3 1_555 1_555
H32 C41 1_555 1_555
C42 C41 1_555 1_555
H33 C42 1_555 1_555
H34 C42 1_555 1_555
C43 C42 1_555 1_555
C44 C43 1_555 1_555
C45 C44 1_555 1_555
H35 C45 1_555 1_555
C46 C45 1_555 1_555
H36 C46 1_555 1_555
C47 C46 1_555 1_555
C48 C47 1_555 1_555
H37 C48 1_555 1_555
C49 C44 1_555 1_555
H38 C49 1_555 1_555
C50 O3 1_555 1_555
H39 C50 1_555 1_555
H40 C50 1_555 1_555
H41 C50 1_555 1_555
C51 N3 1_555 1_555
C52 C51 1_555 1_555
H42 C52 1_555 1_555
H43 C52 1_555 1_555
H44 C52 1_555 1_555
N5 C57 1_555 1_555
N6 C58 1_555 1_555
C53 H45 1_555 1_555
C54 H46 1_555 1_555
C55 C53 1_555 1_555
C56 C55 1_555 1_555
C57 C56 1_555 1_555
C58 C56 1_555 1_555
N7 C63 1_555 1_555
N8 C64 1_555 1_555
C59 H47 1_555 1_555
C60 C59 1_555 1_555
C61 C60 1_555 1_555
H48 C61 1_555 1_555
C62 C60 1_555 1_555
C63 C62 1_555 1_555
C64 C62 1_555 1_555
C65 C66 1_555 1_555
C66 H49 1_555 1_555
C67 C66 1_555 1_555
C68 C67 1_555 1_555
H50 C68 1_555 1_555
C69 C68 1_555 1_555
H51 C69 1_555 1_555
C70 C65 1_555 1_555
H52 C70 1_555 1_555
C71 C65 1_555 1_555
H53 C71 1_555 1_555
H54 C71 1_555 1_555
H55 C71 1_555 1_555
C72 C67 1_555 1_555
H56 C72 1_555 1_555
H57 C72 1_555 1_555
H58 C72 1_555 1_555
N5A C57A 1_555 1_555
N6A C58A 1_555 1_555
C53A C54 1_555 1_555
H45A C53A 1_555 1_555
C54A C53 1_555 1_555
H46A C54A 1_555 1_555
C55A C53A 1_555 1_555
C56A C55A 1_555 1_555
C57A C56A 1_555 1_555
C58A C56A 1_555 1_555
N7A C63A 1_555 1_555
N8A C64A 1_555 1_555
C59A C61 1_555 1_555
H47A C59A 1_555 1_555
C60A C59A 1_555 1_555
C61A C59 1_555 1_555
H48A C61A 1_555 1_555
C62A C60A 1_555 1_555
C63A C62A 1_555 1_555
C64A C62A 1_555 1_555
C1 C15 1_555 1_555
C6 C7 1_555 1_555
C9 C14 1_555 1_555
C13 C14 1_555 1_555
C22 C23 1_555 1_555
C27 C41 1_555 1_555
C32 C33 1_555 1_555
C35 C40 1_555 1_555
C39 C40 1_555 1_555
C48 C49 1_555 1_555
C54 C55 1_555 1_555
C69 C70 1_555 1_555
C54A C55A 1_555 1_555
C60A C61A 1_555 1_555

#END
