
#######################################################################
#
#                 Cambridge Crystallographic Data Centre
#                                CCDC 
#
#######################################################################
#
# If this CIF has been generated from an entry in the Cambridge 
# Structural Database, then it will include bibliographic, chemical, 
# crystal, experimental, refinement or atomic coordinate data resulting 
# from the CCDC's data processing and validation procedures.
#
#######################################################################

data_BOWBIA
_chemical_formula_moiety         '2(C26 H22 N2 O2),C12 H4 N4,C8 H10'
_chemical_name_systematic        
"bis(1-(5-(9-anthryl)-3-(4-methoxyphenyl)-4,5-dihydro-1H-pyrazol-1-yl)ethanone) 2,2'-cyclohexa-2,5-diene-1,4-diylidenedimalononitrile o-xylene solvate"
_symmetry_cell_setting           triclinic
_symmetry_space_group_name_H-M   'P -1'
_symmetry_Int_Tables_number      2
_space_group_name_Hall           '-P 1'
loop_
_symmetry_equiv_pos_site_id
_symmetry_equiv_pos_as_xyz
1 x,y,z
2 -x,-y,-z
_cell_length_a                   9.876(2)
_cell_length_b                   17.403(4)
_cell_length_c                   18.353(4)
_cell_angle_alpha                111.25(3)
_cell_angle_beta                 96.44(3)
_cell_angle_gamma                91.53(3)
_cell_volume                     2913.61
_exptl_crystal_colour            black
_exptl_crystal_description       block
_cell_formula_units_Z            2
loop_
_atom_site_label
_atom_site_type_symbol
_atom_site_fract_x
_atom_site_fract_y
_atom_site_fract_z
N1 N 0.6464(4) 0.4820(2) 0.2389(2)
C1 C 0.9955(4) 0.5729(3) 0.3233(3)
O1 O 0.7604(4) 0.3956(2) 0.2817(2)
N2 N 0.5309(4) 0.4924(2) 0.1912(2)
O2 O 0.2119(4) 0.6281(3) -0.0542(2)
C2 C 1.0701(5) 0.5173(3) 0.2649(3)
H1 H 1.0231 0.4837 0.2165
C3 C 1.2042(6) 0.5132(4) 0.2787(3)
H2 H 1.2484 0.4769 0.2393
C4 C 1.2813(6) 0.5616(3) 0.3506(4)
H3 H 1.3746 0.5565 0.3592
C5 C 1.2176(6) 0.6160(4) 0.4076(3)
H4 H 1.2682 0.6489 0.4552
C6 C 1.0755(5) 0.6231(3) 0.3953(3)
C7 C 1.0099(5) 0.6801(3) 0.4532(3)
H5 H 1.0612 0.7126 0.5007
C8 C 0.8719(5) 0.6899(3) 0.4424(2)
C9 C 0.8090(5) 0.7506(3) 0.5024(2)
H6 H 0.8613 0.7820 0.5499
C10 C 0.6768(6) 0.7627(3) 0.4911(3)
H7 H 0.6379 0.8032 0.5299
C11 C 0.5957(5) 0.7134(3) 0.4192(3)
H8 H 0.5034 0.7217 0.4115
C12 C 0.6505(5) 0.6548(3) 0.3623(3)
H9 H 0.5947 0.6233 0.3161
C13 C 0.7912(5) 0.6393(3) 0.3703(3)
C14 C 0.8544(4) 0.5792(3) 0.3111(2)
C15 C 0.7695(5) 0.5266(3) 0.2326(3)
H10 H 0.8279 0.4856 0.2021
C16 C 0.7164(4) 0.5749(3) 0.1827(3)
H11 H 0.7247 0.6339 0.2131
H12 H 0.7644 0.5638 0.1371
C17 C 0.5717(5) 0.5430(3) 0.1593(2)
C18 C 0.6507(6) 0.4145(3) 0.2602(3)
C19 C 0.5196(6) 0.3689(4) 0.2544(4)
H13 H 0.5357 0.3234 0.2713
H14 H 0.4766 0.3483 0.2008
H15 H 0.4611 0.4052 0.2875
C20 C 0.4737(5) 0.5662(3) 0.1053(3)
C21 C 0.5192(5) 0.6182(3) 0.0700(3)
H16 H 0.6105 0.6380 0.0812
C22 C 0.4322(6) 0.6415(3) 0.0183(3)
H17 H 0.4648 0.6786 -0.0026
C23 C 0.3039(6) 0.6118(4) -0.0015(3)
C24 C 0.2543(6) 0.5569(4) 0.0323(3)
H18 H 0.1637 0.5357 0.0186
C25 C 0.3381(5) 0.5350(3) 0.0846(3)
H19 H 0.3043 0.4991 0.1066
C26 C 0.2476(7) 0.6962(4) -0.0755(4)
H20 H 0.1760 0.7015 -0.1130
H21 H 0.3311 0.6871 -0.0986
H22 H 0.2597 0.7460 -0.0294
O3 O 0.8446(4) 0.9051(2) 0.67933(18)
N3 N 0.8219(4) 0.9816(2) 0.8040(2)
O4 O 0.7130(4) 1.1473(2) 1.24095(19)
N4 N 0.7670(4) 0.9906(2) 0.8728(2)
C27 C 1.0763(4) 1.0883(3) 0.7335(2)
C28 C 1.1883(5) 1.0359(3) 0.7319(3)
H23 H 1.1828 0.9964 0.7547
C29 C 1.3003(5) 1.0429(3) 0.6981(3)
H24 H 1.3704 1.0082 0.6980
C30 C 1.3115(5) 1.1017(3) 0.6635(3)
H25 H 1.3904 1.1065 0.6417
C31 C 1.2123(5) 1.1508(3) 0.6610(3)
H26 H 1.2215 1.1886 0.6365
C32 C 1.0905(5) 1.1460(3) 0.6960(2)
C33 C 0.9881(5) 1.1969(3) 0.6915(2)
H27 H 0.9976 1.2331 0.6652
C34 C 0.8708(5) 1.1947(3) 0.7261(2)
C35 C 0.7638(6) 1.2480(3) 0.7207(3)
H28 H 0.7725 1.2829 0.6930
C36 C 0.6530(6) 1.2472(4) 0.7553(4)
H29 H 0.5840 1.2813 0.7512
C37 C 0.6388(5) 1.1961(4) 0.7974(3)
H30 H 0.5610 1.1978 0.8220
C38 C 0.7347(5) 1.1437(3) 0.8039(3)
H31 H 0.7208 1.1100 0.8322
C39 C 0.8569(4) 1.1397(3) 0.7678(2)
C40 C 0.9596(4) 1.0863(3) 0.7698(2)
C41 C 0.9501(5) 1.0309(3) 0.8174(2)
H32 H 1.0226 0.9927 0.8048
C42 C 0.9689(5) 1.0765(3) 0.9071(2)
H33 H 1.0526 1.0633 0.9316
H34 H 0.9696 1.1359 0.9210
C43 C 0.8455(5) 1.0437(3) 0.9304(3)
C44 C 0.7759(6) 0.9198(3) 0.7343(3)
C45 C 0.6419(6) 0.8750(4) 0.7292(3)
H35 H 0.6194 0.8335 0.6774
H36 H 0.5721 0.9135 0.7394
H37 H 0.6480 0.8493 0.7676
C46 C 0.8144(5) 1.0710(3) 1.0126(3)
C47 C 0.6900(5) 1.0493(3) 1.0296(3)
H38 H 0.6249 1.0164 0.9888
C48 C 0.6608(5) 1.0755(3) 1.1057(3)
H39 H 0.5759 1.0599 1.1154
C49 C 0.7546(5) 1.1249(3) 1.1686(3)
C50 C 0.8793(5) 1.1465(3) 1.1528(3)
H40 H 0.9440 1.1797 1.1938
C51 C 0.9100(5) 1.1186(3) 1.0746(3)
H41 H 0.9957 1.1325 1.0646
C52 C 0.8035(6) 1.2002(4) 1.3059(3)
H42 H 0.7618 1.2120 1.3532
H43 H 0.8237 1.2508 1.2983
H44 H 0.8865 1.1739 1.3104
N5 N 0.4132(5) -0.0022(3) 0.4000(3)
N6 N 0.3371(5) -0.1748(3) 0.5199(3)
C53 C -0.0423(5) 0.0605(3) 0.4701(2)
H45 H -0.0728 0.1002 0.4505
C54 C 0.3418(5) -0.0296(3) 0.4304(3)
C55 C 0.2530(5) -0.0611(3) 0.4716(3)
C56 C 0.3017(5) -0.1240(3) 0.4983(3)
C57 C 0.1263(5) -0.0305(3) 0.4853(3)
C58 C 0.0796(5) 0.0310(3) 0.4570(3)
H46 H 0.1345 0.0511 0.4289
N5A N -0.4132(5) 0.0022(3) 0.6000(3)
N6A N -0.3371(5) 0.1748(3) 0.4801(3)
C53A C 0.0423(5) -0.0605(3) 0.5299(2)
H45A H 0.0728 -0.1002 0.5495
C54A C -0.3418(5) 0.0296(3) 0.5696(3)
C55A C -0.2530(5) 0.0611(3) 0.5284(3)
C56A C -0.3017(5) 0.1240(3) 0.5017(3)
C57A C -0.1263(5) 0.0305(3) 0.5147(3)
C58A C -0.0796(5) -0.0310(3) 0.5430(3)
H46A H -0.1345 -0.0511 0.5711
N7 N 0.5554(8) 0.5890(5) 0.5251(5)
N8 N 0.8635(7) 0.7068(4) 0.7190(4)
C59 C 0.6650(9) 0.5914(5) 0.5495(4)
C60 C 0.8043(9) 0.5979(4) 0.5825(4)
C61 C 0.8366(7) 0.6571(4) 0.6575(4)
C62 C 1.0405(9) 0.5577(4) 0.5757(4)
H47 H 1.0666 0.5970 0.6260
C63 C 0.8985(8) 0.5475(4) 0.5408(4)
C64 C 0.8661(8) 0.4883(4) 0.4632(4)
H48 H 0.7766 0.4813 0.4386
N7A N 1.4446(8) 0.4110(5) 0.4749(5)
N8A N 1.1365(7) 0.2932(4) 0.2810(4)
C59A C 1.3350(9) 0.4086(5) 0.4505(4)
C60A C 1.1957(9) 0.4021(4) 0.4175(4)
C61A C 1.1634(7) 0.3429(4) 0.3425(4)
C62A C 0.9595(9) 0.4423(4) 0.4243(4)
H47A H 0.9334 0.4030 0.3740
C63A C 1.1015(8) 0.4525(4) 0.4592(4)
C64A C 1.1339(8) 0.5117(4) 0.5368(4)
H48A H 1.2234 0.5187 0.5614
C65 C 0.2275(10) 0.2279(6) -0.1055(5)
H49 H 0.2432 0.2045 -0.1578
C66 C 0.1369(8) 0.2926(6) -0.0629(4)
H50 H 0.0975 0.3182 -0.0957
C67 C 0.0917(8) 0.3276(6) 0.0162(8)
H51 H 0.0259 0.3655 0.0310
C68 C 0.1662(10) 0.2931(6) 0.0642(5)
H52 H 0.1494 0.3111 0.1164
C69 C 0.2510(10) 0.2419(6) 0.0458(5)
C70 C 0.2776(10) 0.2169(6) -0.0384(5)
C71 C 0.3694(8) 0.1543(4) -0.0645(5)
H53 H 0.3241 0.1088 -0.1088
H54 H 0.3995 0.1357 -0.0226
H55 H 0.4469 0.1762 -0.0800
C72 C 0.3216(12) 0.1991(7) 0.0866(7)
H56 H 0.3022 0.2190 0.1401
H57 H 0.4179 0.2074 0.0860
H58 H 0.2938 0.1412 0.0619
loop_
_geom_bond_atom_site_label_1
_geom_bond_atom_site_label_2
_geom_bond_site_symmetry_1
_geom_bond_site_symmetry_2
N1 N2 1_555 1_555
C1 C2 1_555 1_555
O1 C18 1_555 1_555
N2 C17 1_555 1_555
O2 C23 1_555 1_555
C2 H1 1_555 1_555
C3 C2 1_555 1_555
H2 C3 1_555 1_555
C4 C3 1_555 1_555
H3 C4 1_555 1_555
C5 C4 1_555 1_555
H4 C5 1_555 1_555
C6 C1 1_555 1_555
C7 C6 1_555 1_555
H5 C7 1_555 1_555
C8 C7 1_555 1_555
C9 C8 1_555 1_555
H6 C9 1_555 1_555
C10 C9 1_555 1_555
H7 C10 1_555 1_555
C11 C10 1_555 1_555
H8 C11 1_555 1_555
C12 C11 1_555 1_555
H9 C12 1_555 1_555
C13 C8 1_555 1_555
C14 C1 1_555 1_555
C15 N1 1_555 1_555
H10 C15 1_555 1_555
C16 C15 1_555 1_555
H11 C16 1_555 1_555
H12 C16 1_555 1_555
C17 C16 1_555 1_555
C18 N1 1_555 1_555
C19 C18 1_555 1_555
H13 C19 1_555 1_555
H14 C19 1_555 1_555
H15 C19 1_555 1_555
C20 C17 1_555 1_555
C21 C20 1_555 1_555
H16 C21 1_555 1_555
C22 C21 1_555 1_555
H17 C22 1_555 1_555
C23 C22 1_555 1_555
C24 C23 1_555 1_555
H18 C24 1_555 1_555
C25 C20 1_555 1_555
H19 C25 1_555 1_555
C26 O2 1_555 1_555
H20 C26 1_555 1_555
H21 C26 1_555 1_555
H22 C26 1_555 1_555
O3 C44 1_555 1_555
N3 N4 1_555 1_555
O4 C49 1_555 1_555
N4 C43 1_555 1_555
C27 C28 1_555 1_555
C28 H23 1_555 1_555
C29 C28 1_555 1_555
H24 C29 1_555 1_555
C30 C29 1_555 1_555
H25 C30 1_555 1_555
C31 C30 1_555 1_555
H26 C31 1_555 1_555
C32 C27 1_555 1_555
C33 C32 1_555 1_555
H27 C33 1_555 1_555
C34 C33 1_555 1_555
C35 C34 1_555 1_555
H28 C35 1_555 1_555
C36 C35 1_555 1_555
H29 C36 1_555 1_555
C37 C36 1_555 1_555
H30 C37 1_555 1_555
C38 C37 1_555 1_555
H31 C38 1_555 1_555
C39 C34 1_555 1_555
C40 C27 1_555 1_555
C41 N3 1_555 1_555
H32 C41 1_555 1_555
C42 C41 1_555 1_555
H33 C42 1_555 1_555
H34 C42 1_555 1_555
C43 C42 1_555 1_555
C44 N3 1_555 1_555
C45 C44 1_555 1_555
H35 C45 1_555 1_555
H36 C45 1_555 1_555
H37 C45 1_555 1_555
C46 C43 1_555 1_555
C47 C46 1_555 1_555
H38 C47 1_555 1_555
C48 C47 1_555 1_555
H39 C48 1_555 1_555
C49 C48 1_555 1_555
C50 C49 1_555 1_555
H40 C50 1_555 1_555
C51 C46 1_555 1_555
H41 C51 1_555 1_555
C52 O4 1_555 1_555
H42 C52 1_555 1_555
H43 C52 1_555 1_555
H44 C52 1_555 1_555
N5 C54 1_555 1_555
N6 C56 1_555 1_555
C53 H45 1_555 1_555
C54 C55 1_555 1_555
C55 C56 1_555 1_555
C57 C55 1_555 1_555
C58 C53 1_555 1_555
H46 C58 1_555 1_555
N7 C59 1_555 1_555
N8 C61 1_555 1_555
C59 C60 1_555 1_555
C60 C61 1_555 1_555
C62 H47 1_555 1_555
C63 C60 1_555 1_555
C64 C63 1_555 1_555
H48 C64 1_555 1_555
C65 H49 1_555 1_555
C66 C65 1_555 1_555
H50 C66 1_555 1_555
C67 C66 1_555 1_555
H51 C67 1_555 1_555
C68 C67 1_555 1_555
H52 C68 1_555 1_555
C69 C68 1_555 1_555
C70 C65 1_555 1_555
C71 C70 1_555 1_555
H53 C71 1_555 1_555
H54 C71 1_555 1_555
H55 C71 1_555 1_555
C72 C69 1_555 1_555
H56 C72 1_555 1_555
H57 C72 1_555 1_555
H58 C72 1_555 1_555
N5A C54A 1_555 1_555
N6A C56A 1_555 1_555
C53A C57 1_555 1_555
H45A C53A 1_555 1_555
C54A C55A 1_555 1_555
C55A C56A 1_555 1_555
C57A C53 1_555 1_555
C58A C53A 1_555 1_555
H46A C58A 1_555 1_555
N7A C59A 1_555 1_555
N8A C61A 1_555 1_555
C59A C60A 1_555 1_555
C60A C61A 1_555 1_555
C62A C64 1_555 1_555
H47A C62A 1_555 1_555
C63A C60A 1_555 1_555
C64A C62 1_555 1_555
H48A C64A 1_555 1_555
C5 C6 1_555 1_555
C12 C13 1_555 1_555
C13 C14 1_555 1_555
C14 C15 1_555 1_555
C24 C25 1_555 1_555
C31 C32 1_555 1_555
C38 C39 1_555 1_555
C39 C40 1_555 1_555
C40 C41 1_555 1_555
C50 C51 1_555 1_555
C57 C58 1_555 1_555
C62 C63 1_555 1_555
C69 C70 1_555 1_555
C55A C57A 1_555 1_555
C57A C58A 1_555 1_555
C62A C63A 1_555 1_555
C63A C64A 1_555 1_555

#END
