
#######################################################################
#
#                 Cambridge Crystallographic Data Centre
#                                CCDC 
#
#######################################################################
#
# If this CIF has been generated from an entry in the Cambridge 
# Structural Database, then it will include bibliographic, chemical, 
# crystal, experimental, refinement or atomic coordinate data resulting 
# from the CCDC's data processing and validation procedures.
#
#######################################################################

data_BOWLUV
_chemical_formula_moiety         'C34 H48 Se2'
_chemical_name_systematic        
2,7-Didecyl[1]benzoselenopheno[3,2-b][1]benzoselenophene
_symmetry_cell_setting           monoclinic
_symmetry_space_group_name_H-M   'P 21/n'
_symmetry_Int_Tables_number      14
_space_group_name_Hall           '-P 2yn'
loop_
_symmetry_equiv_pos_site_id
_symmetry_equiv_pos_as_xyz
1 x,y,z
2 1/2-x,1/2+y,1/2-z
3 -x,-y,-z
4 1/2+x,1/2-y,1/2+z
_cell_length_a                   5.6136(11)
_cell_length_b                   7.2956(17)
_cell_length_c                   36.003(10)
_cell_angle_alpha                90
_cell_angle_beta                 92.881(10)
_cell_angle_gamma                90
_cell_volume                     1472.62
_exptl_crystal_colour            colorless
_exptl_crystal_description       block
_cell_formula_units_Z            2
_exptl_crystal_recrystallization_method hexane
loop_
_atom_site_label
_atom_site_type_symbol
_atom_site_fract_x
_atom_site_fract_y
_atom_site_fract_z
Se1 Se 0.68359(4) 0.48169(4) -0.039884(8)
C1 C 1.0923(4) 0.4402(4) 0.00247(7)
C2 C 1.0868(4) 0.2800(4) -0.02091(8)
C3 C 0.8855(4) 0.2758(4) -0.04580(8)
C4 C 0.8462(4) 0.1342(4) -0.07094(8)
C5 C 1.0093(5) -0.0095(3) -0.07212(7)
C6 C 1.2101(4) -0.0057(4) -0.04712(7)
C7 C 1.2497(5) 0.1356(4) -0.02207(8)
C8 C 0.9673(5) -0.1616(4) -0.10037(8)
C9 C 1.1466(5) -0.3178(4) -0.09901(8)
C10 C 1.0887(5) -0.4630(4) -0.12846(8)
C11 C 1.2720(5) -0.6178(4) -0.12842(8)
C12 C 1.2212(5) -0.7572(4) -0.15929(8)
C13 C 1.4011(5) -0.9139(4) -0.15922(8)
C14 C 1.3547(5) -1.0495(4) -0.19075(8)
C15 C 1.5329(5) -1.2073(4) -0.19088(8)
C16 C 1.4761(5) -1.3455(4) -0.22181(8)
C17 C 1.6565(6) -1.5005(4) -0.22297(9)
H1 H 0.7075 0.1353 -0.0875
H2 H 1.3229 -0.1065 -0.0474
H3 H 1.3873 0.1350 -0.0052
H4 H 0.8139 -0.2143 -0.0965
H5 H 0.9651 -0.1104 -0.1246
H6 H 1.3000 -0.2682 -0.1029
H7 H 1.1472 -0.3733 -0.0751
H8 H 0.9371 -0.5153 -0.1242
H9 H 1.0819 -0.4064 -0.1524
H10 H 1.4263 -0.5625 -0.1313
H11 H 1.2745 -0.6763 -0.1048
H12 H 1.0673 -0.8077 -0.1567
H13 H 1.2246 -0.6966 -0.1828
H14 H 1.5580 -0.8632 -0.1609
H15 H 1.3968 -0.9769 -0.1358
H16 H 1.1979 -1.0993 -0.1886
H17 H 1.3596 -0.9859 -0.2137
H18 H 1.6874 -1.1593 -0.1937
H19 H 1.5304 -1.2697 -0.1674
H20 H 1.3215 -1.3972 -0.2183
H21 H 1.4714 -1.2831 -0.2450
H22 H 1.6585 -1.5664 -0.2000
H23 H 1.6123 -1.5822 -0.2427
H24 H 1.8093 -1.4518 -0.2265
Se1B Se 1.31641(4) 0.51831(4) 0.039884(8)
C1B C 0.9077(4) 0.5598(4) -0.00247(7)
C2B C 0.9132(4) 0.7200(4) 0.02091(8)
C3B C 1.1145(4) 0.7242(4) 0.04580(8)
C4B C 1.1538(4) 0.8658(4) 0.07094(8)
C5B C 0.9907(5) 1.0095(3) 0.07212(7)
C6B C 0.7899(4) 1.0057(4) 0.04712(7)
C7B C 0.7503(5) 0.8644(4) 0.02207(8)
C8B C 1.0327(5) 1.1616(4) 0.10037(8)
C9B C 0.8534(5) 1.3178(4) 0.09901(8)
C10B C 0.9113(5) 1.4630(4) 0.12846(8)
C11B C 0.7280(5) 1.6178(4) 0.12842(8)
C12B C 0.7788(5) 1.7572(4) 0.15929(8)
C13B C 0.5989(5) 1.9139(4) 0.15922(8)
C14B C 0.6453(5) 2.0495(4) 0.19075(8)
C15B C 0.4671(5) 2.2073(4) 0.19088(8)
C16B C 0.5239(5) 2.3455(4) 0.22181(8)
C17B C 0.3435(6) 2.5005(4) 0.22297(9)
H1B H 1.2925 0.8647 0.0875
H2B H 0.6771 1.1065 0.0474
H3B H 0.6127 0.8650 0.0052
H4B H 1.1861 1.2143 0.0965
H5B H 1.0349 1.1104 0.1246
H6B H 0.7000 1.2682 0.1029
H7B H 0.8528 1.3733 0.0751
H8B H 1.0629 1.5153 0.1242
H9B H 0.9181 1.4064 0.1524
H10B H 0.5737 1.5625 0.1313
H11B H 0.7255 1.6763 0.1048
H12B H 0.9327 1.8077 0.1567
H13B H 0.7754 1.6966 0.1828
H14B H 0.4420 1.8632 0.1609
H15B H 0.6032 1.9769 0.1358
H16B H 0.8021 2.0993 0.1886
H17B H 0.6404 1.9859 0.2137
H18B H 0.3126 2.1593 0.1937
H19B H 0.4696 2.2697 0.1674
H20B H 0.6785 2.3972 0.2183
H21B H 0.5286 2.2831 0.2450
H22B H 0.3415 2.5664 0.2000
H23B H 0.3877 2.5822 0.2427
H24B H 0.1907 2.4518 0.2265
loop_
_geom_bond_atom_site_label_1
_geom_bond_atom_site_label_2
_geom_bond_site_symmetry_1
_geom_bond_site_symmetry_2
Se1 C3 1_555 1_555
C1 C2 1_555 1_555
C2 C3 1_555 1_555
C3 C4 1_555 1_555
C4 C5 1_555 1_555
C5 C6 1_555 1_555
C6 C7 1_555 1_555
C7 C2 1_555 1_555
C8 C5 1_555 1_555
C9 C8 1_555 1_555
C10 C9 1_555 1_555
C11 C10 1_555 1_555
C12 C11 1_555 1_555
C13 C12 1_555 1_555
C14 C13 1_555 1_555
C15 C14 1_555 1_555
C16 C15 1_555 1_555
C17 C16 1_555 1_555
H1 C4 1_555 1_555
H2 C6 1_555 1_555
H3 C7 1_555 1_555
H4 C8 1_555 1_555
H5 C8 1_555 1_555
H6 C9 1_555 1_555
H7 C9 1_555 1_555
H8 C10 1_555 1_555
H9 C10 1_555 1_555
H10 C11 1_555 1_555
H11 C11 1_555 1_555
H12 C12 1_555 1_555
H13 C12 1_555 1_555
H14 C13 1_555 1_555
H15 C13 1_555 1_555
H16 C14 1_555 1_555
H17 C14 1_555 1_555
H18 C15 1_555 1_555
H19 C15 1_555 1_555
H20 C16 1_555 1_555
H21 C16 1_555 1_555
H22 C17 1_555 1_555
H23 C17 1_555 1_555
H24 C17 1_555 1_555
Se1B C1 1_555 1_555
C1B Se1 1_555 1_555
C2B C1B 1_555 1_555
C3B Se1B 1_555 1_555
C4B C3B 1_555 1_555
C5B C4B 1_555 1_555
C6B C5B 1_555 1_555
C7B C2B 1_555 1_555
C8B C5B 1_555 1_555
C9B C8B 1_555 1_555
C10B C9B 1_555 1_555
C11B C10B 1_555 1_555
C12B C11B 1_555 1_555
C13B C12B 1_555 1_555
C14B C13B 1_555 1_555
C15B C14B 1_555 1_555
C16B C15B 1_555 1_555
C17B C16B 1_555 1_555
H1B C4B 1_555 1_555
H2B C6B 1_555 1_555
H3B C7B 1_555 1_555
H4B C8B 1_555 1_555
H5B C8B 1_555 1_555
H6B C9B 1_555 1_555
H7B C9B 1_555 1_555
H8B C10B 1_555 1_555
H9B C10B 1_555 1_555
H10B C11B 1_555 1_555
H11B C11B 1_555 1_555
H12B C12B 1_555 1_555
H13B C12B 1_555 1_555
H14B C13B 1_555 1_555
H15B C13B 1_555 1_555
H16B C14B 1_555 1_555
H17B C14B 1_555 1_555
H18B C15B 1_555 1_555
H19B C15B 1_555 1_555
H20B C16B 1_555 1_555
H21B C16B 1_555 1_555
H22B C17B 1_555 1_555
H23B C17B 1_555 1_555
H24B C17B 1_555 1_555
C1 C1B 1_555 1_555
C2B C3B 1_555 1_555
C6B C7B 1_555 1_555

#END
