
#######################################################################
#
#                 Cambridge Crystallographic Data Centre
#                                CCDC 
#
#######################################################################
#
# If this CIF has been generated from an entry in the Cambridge 
# Structural Database, then it will include bibliographic, chemical, 
# crystal, experimental, refinement or atomic coordinate data resulting 
# from the CCDC's data processing and validation procedures.
#
#######################################################################

data_BOWROW01
_chemical_formula_moiety         'C3 H1 Br3 N2'
_chemical_name_systematic        2,4,5-tribromo-1H-imidazole
_symmetry_cell_setting           orthorhombic
_symmetry_space_group_name_H-M   'A m a 2'
_symmetry_Int_Tables_number      40
_space_group_name_Hall           'A 2 -2a'
loop_
_symmetry_equiv_pos_site_id
_symmetry_equiv_pos_as_xyz
1 x,y,z
2 -x,-y,z
3 1/2-x,y,z
4 1/2+x,-y,z
5 x,1/2+y,1/2+z
6 -x,1/2-y,1/2+z
7 1/2-x,1/2+y,1/2+z
8 1/2+x,1/2-y,1/2+z
_cell_length_a                   10.119(2)
_cell_length_b                   16.618(3)
_cell_length_c                   3.9504(9)
_cell_angle_alpha                90
_cell_angle_beta                 90
_cell_angle_gamma                90
_cell_volume                     664.29
_exptl_crystal_colour            colorless
_exptl_crystal_description       needle
_cell_formula_units_Z            4
loop_
_atom_site_label
_atom_site_type_symbol
_atom_site_fract_x
_atom_site_fract_y
_atom_site_fract_z
Br1 Br 0.56943(5) 0.17234(3) 0.4360(2)
Br2 Br 0.7500 -0.12177(4) 0.9840(2)
C1 C 0.7500 -0.0188(4) 0.802(2)
N1 N 0.6400(5) 0.0215(3) 0.7287(14)
C2 C 0.6834(5) 0.0935(3) 0.5913(16)
Br1B Br 0.93057(5) 0.17234(3) 0.4360(2)
N1B N 0.8600(5) 0.0215(3) 0.7287(14)
C2B C 0.8166(5) 0.0935(3) 0.5913(16)
H1? H 0.5579 0.0058 0.7603
loop_
_geom_bond_atom_site_label_1
_geom_bond_atom_site_label_2
_geom_bond_site_symmetry_1
_geom_bond_site_symmetry_2
Br1 C2 1_555 1_555
Br2 C1 1_555 1_555
C1 N1 1_555 1_555
N1 C2 1_555 1_555
C2 C2B 1_555 1_555
Br1B C2B 1_555 1_555
N1B C1 1_555 1_555
C2B N1B 1_555 1_555

#END
