
#######################################################################
#
#                 Cambridge Crystallographic Data Centre
#                                CCDC 
#
#######################################################################
#
# If this CIF has been generated from an entry in the Cambridge 
# Structural Database, then it will include bibliographic, chemical, 
# crystal, experimental, refinement or atomic coordinate data resulting 
# from the CCDC's data processing and validation procedures.
#
#######################################################################

data_BOZJAC
_chemical_formula_moiety         'C28 H29 N5 O3'
_chemical_name_systematic        
2-(1,3-Dimethyltetrahydropyrimidin-2(1H)-ylidene)-N,N'-diphenyl-N-(phenylcarbamoyl)malonamide
_symmetry_cell_setting           monoclinic
_symmetry_space_group_name_H-M   'P 21/c'
_symmetry_Int_Tables_number      14
_space_group_name_Hall           '-P 2ybc'
loop_
_symmetry_equiv_pos_site_id
_symmetry_equiv_pos_as_xyz
1 x,y,z
2 -x,1/2+y,1/2-z
3 -x,-y,-z
4 x,1/2-y,1/2+z
_cell_length_a                   14.376(4)
_cell_length_b                   19.787(5)
_cell_length_c                   8.965(2)
_cell_angle_alpha                90
_cell_angle_beta                 93.050(4)
_cell_angle_gamma                90
_cell_volume                     2546.55
_exptl_crystal_colour            colorless
_chemical_melting_point          '173-175 deg.C'
_cell_formula_units_Z            4
loop_
_atom_site_label
_atom_site_type_symbol
_atom_site_fract_x
_atom_site_fract_y
_atom_site_fract_z
N1 N 0.86557(8) 0.11202(7) 0.09726(15)
O1 O 0.78804(8) 0.17779(6) 0.26490(15)
O2 O 1.02285(8) 0.10773(7) 0.07993(14)
O3 O 0.57118(8) 0.03834(7) 0.25963(16)
C1 C 0.78542(10) 0.12540(8) 0.18452(18)
N2 N 0.66157(9) 0.01106(8) -0.03715(16)
C2 C 0.63050(10) 0.08348(9) 0.26416(19)
N3 N 0.62405(10) 0.13963(8) 0.35077(17)
C3 C 0.71334(10) 0.07890(8) 0.17646(18)
C4 C 0.71555(10) 0.01625(8) 0.08717(18)
C5 C 0.55963(10) 0.15476(9) 0.45822(19)
N4 N 0.76831(9) -0.03546(7) 0.13493(16)
C6 C 0.49767(12) 0.10869(11) 0.5136(2)
C7 C 0.56145(13) 0.22019(11) 0.5152(2)
C8 C 0.95787(11) 0.12059(8) 0.15519(19)
C9 C 0.85182(10) 0.10621(8) -0.06215(18)
N5 N 0.96567(11) 0.14145(9) 0.29889(19)
C10 C 1.04818(12) 0.15969(9) 0.3816(2)
C11 C 0.88301(13) 0.05062(10) -0.1386(2)
C12 C 0.80723(14) 0.15836(10) -0.1403(2)
C13 C 0.50409(14) 0.23871(12) 0.6262(2)
C14 C 1.13621(12) 0.14031(11) 0.3457(2)
C15 C 0.44417(14) 0.19232(13) 0.6825(2)
C16 C 0.44076(13) 0.12802(13) 0.6255(2)
C17 C 0.76815(15) -0.10120(10) 0.0577(3)
C18 C 0.65841(15) -0.05066(12) -0.1285(3)
C19 C 0.86828(17) 0.04758(12) -0.2917(3)
C20 C 1.21291(15) 0.16320(13) 0.4307(3)
C21 C 0.79198(17) 0.15405(13) -0.2927(3)
C22 C 0.67843(16) -0.11083(12) -0.0335(3)
C23 C 0.82183(18) 0.09883(13) -0.3685(3)
C24 C 1.03871(17) 0.19927(15) 0.5047(3)
C25 C 1.20293(17) 0.20382(12) 0.5500(3)
C26 C 1.1159(2) 0.22113(16) 0.5887(4)
C27 C 0.60204(15) 0.06588(13) -0.0944(3)
C28 C 0.83207(18) -0.03169(13) 0.2665(3)
H1 H 0.6018(14) 0.2524(11) 0.471(2)
H2 H 0.7897(13) 0.1979(11) -0.084(2)
H3 H 0.8231(16) -0.1012(11) -0.007(3)
H4 H 0.4960(13) 0.0666(11) 0.471(2)
H5 H 0.4071(15) 0.2064(11) 0.766(3)
H6 H 0.9137(13) 0.0142(10) -0.082(2)
H7 H 0.5048(15) 0.2882(12) 0.660(2)
H8 H 0.7078(16) -0.0470(10) -0.207(2)
H9 H 0.5943(18) -0.0514(12) -0.176(3)
H10 H 0.8913(15) 0.0108(13) -0.346(3)
H11 H 0.6243(16) -0.1156(12) 0.034(3)
H12 H 0.3994(16) 0.0943(12) 0.665(2)
H13 H 0.7718(15) -0.1383(12) 0.139(3)
H14 H 0.8096(16) 0.0971(12) -0.473(3)
H15 H 1.2557(19) 0.2182(13) 0.614(3)
H16 H 0.6852(15) -0.1512(12) -0.096(3)
H17 H 1.2758(19) 0.1509(13) 0.397(3)
H18 H 0.9795(19) 0.2081(13) 0.536(3)
H19 H 0.9170(15) 0.1573(11) 0.332(2)
H20 H 0.6699(15) 0.1683(11) 0.343(2)
H21 H 1.1469(17) 0.1103(13) 0.255(3)
H22 H 1.1046(19) 0.2421(15) 0.676(3)
H23 H 0.7648(17) 0.1926(14) -0.353(3)
H24 H 0.6122(16) 0.1082(14) -0.047(3)
H25 H 0.831(2) -0.0721(16) 0.324(3)
H26 H 0.836(2) 0.0087(18) 0.319(3)
H27 H 0.615(2) 0.0743(16) -0.201(4)
H28 H 0.537(2) 0.0473(15) -0.093(3)
H29 H 0.896(3) -0.037(2) 0.232(5)
loop_
_geom_bond_atom_site_label_1
_geom_bond_atom_site_label_2
_geom_bond_site_symmetry_1
_geom_bond_site_symmetry_2
N1 C1 1_555 1_555
O1 C1 1_555 1_555
O2 C8 1_555 1_555
O3 C2 1_555 1_555
C1 C3 1_555 1_555
N2 C4 1_555 1_555
C2 N3 1_555 1_555
N3 C5 1_555 1_555
C3 C2 1_555 1_555
C4 C3 1_555 1_555
C5 C6 1_555 1_555
N4 C4 1_555 1_555
C6 C16 1_555 1_555
C7 C5 1_555 1_555
C8 N1 1_555 1_555
C9 N1 1_555 1_555
N5 C8 1_555 1_555
C10 N5 1_555 1_555
C11 C9 1_555 1_555
C12 C9 1_555 1_555
C13 C7 1_555 1_555
C14 C10 1_555 1_555
C15 C13 1_555 1_555
C16 C15 1_555 1_555
C17 N4 1_555 1_555
C18 N2 1_555 1_555
C19 C11 1_555 1_555
C20 C14 1_555 1_555
C21 C12 1_555 1_555
C22 C17 1_555 1_555
C23 C19 1_555 1_555
C24 C10 1_555 1_555
C25 C20 1_555 1_555
C26 C24 1_555 1_555
C27 N2 1_555 1_555
C28 N4 1_555 1_555
H1 C7 1_555 1_555
H2 C12 1_555 1_555
H3 C17 1_555 1_555
H4 C6 1_555 1_555
H5 C15 1_555 1_555
H6 C11 1_555 1_555
H7 C13 1_555 1_555
H8 C18 1_555 1_555
H9 C18 1_555 1_555
H10 C19 1_555 1_555
H11 C22 1_555 1_555
H12 C16 1_555 1_555
H13 C17 1_555 1_555
H14 C23 1_555 1_555
H15 C25 1_555 1_555
H16 C22 1_555 1_555
H17 C20 1_555 1_555
H18 C24 1_555 1_555
H19 N5 1_555 1_555
H20 N3 1_555 1_555
H21 C14 1_555 1_555
H22 C26 1_555 1_555
H23 C21 1_555 1_555
H24 C27 1_555 1_555
H25 C28 1_555 1_555
H26 C28 1_555 1_555
H27 C27 1_555 1_555
H28 C27 1_555 1_555
H29 C28 1_555 1_555
C18 C22 1_555 1_555
C21 C23 1_555 1_555
C25 C26 1_555 1_555

#END
