
#######################################################################
#
#                 Cambridge Crystallographic Data Centre
#                                CCDC 
#
#######################################################################
#
# If this CIF has been generated from an entry in the Cambridge 
# Structural Database, then it will include bibliographic, chemical, 
# crystal, experimental, refinement or atomic coordinate data resulting 
# from the CCDC's data processing and validation procedures.
#
#######################################################################

data_BPSMPY
_chemical_formula_moiety         'C12 H16 Br1 N1 O2 S1'
_chemical_name_systematic        
trans-(2R,5R)-1-(p-Bromophenylsulfonyl)-2,5-dimethylpyrrolidine
_symmetry_cell_setting           orthorhombic
_symmetry_space_group_name_H-M   'P 21 21 21'
_symmetry_Int_Tables_number      19
_space_group_name_Hall           'P 2ac 2ab'
loop_
_symmetry_equiv_pos_site_id
_symmetry_equiv_pos_as_xyz
1 x,y,z
2 1/2+x,1/2-y,-z
3 -x,1/2+y,1/2-z
4 1/2-x,-y,1/2+z
_cell_length_a                   11.558(4)
_cell_length_b                   15.390(3)
_cell_length_c                   7.634(3)
_cell_angle_alpha                90
_cell_angle_beta                 90
_cell_angle_gamma                90
_cell_volume                     1357.92
_cell_formula_units_Z            4
loop_
_atom_site_label
_atom_site_type_symbol
_atom_site_fract_x
_atom_site_fract_y
_atom_site_fract_z
Br1 Br 0.23068 0.40463 0.54671
S1 S 0.27845 0.81963 0.55173
O1 O 0.16860 0.85070 0.49190
O2 O 0.38170 0.84150 0.45840
N1 N 0.29650 0.85230 0.75020
C1 C 0.24500 0.52770 0.55050
C2 C 0.35250 0.56350 0.52410
C3 C 0.36400 0.65310 0.52580
C4 C 0.26640 0.70490 0.55210
C5 C 0.15860 0.66600 0.57750
C6 C 0.14870 0.57710 0.57640
C7 C 0.41290 0.86580 0.82970
C8 C 0.37720 0.90170 1.00980
C9 C 0.26840 0.85020 1.05540
C10 C 0.20140 0.84710 0.88120
C11 C 0.48390 0.78340 0.84570
C12 C 0.11560 0.92090 0.86460
loop_
_geom_bond_atom_site_label_1
_geom_bond_atom_site_label_2
_geom_bond_site_symmetry_1
_geom_bond_site_symmetry_2
Br1 C1 1_555 1_555
S1 O1 1_555 1_555
O2 S1 1_555 1_555
N1 S1 1_555 1_555
C1 C2 1_555 1_555
C2 C3 1_555 1_555
C3 C4 1_555 1_555
C4 S1 1_555 1_555
C5 C4 1_555 1_555
C6 C1 1_555 1_555
C7 N1 1_555 1_555
C8 C7 1_555 1_555
C9 C8 1_555 1_555
C10 N1 1_555 1_555
C11 C7 1_555 1_555
C12 C10 1_555 1_555
C5 C6 1_555 1_555
C9 C10 1_555 1_555

#END
