
#######################################################################
#
#                 Cambridge Crystallographic Data Centre
#                                CCDC 
#
#######################################################################
#
# If this CIF has been generated from an entry in the Cambridge 
# Structural Database, then it will include bibliographic, chemical, 
# crystal, experimental, refinement or atomic coordinate data resulting 
# from the CCDC's data processing and validation procedures.
#
#######################################################################

data_BRLCTA
_chemical_formula_moiety         'C12 H11 Br1 O4'
_chemical_name_systematic        
5-Bromo-12-carboxyl-10-oxa-pentacyclo(5.3.1.1^2,8^.0^3,6^.0^4,11^)dodecan-9-one
_symmetry_cell_setting           monoclinic
_symmetry_space_group_name_H-M   'P 21/n'
_symmetry_Int_Tables_number      14
_space_group_name_Hall           '-P 2yn'
loop_
_symmetry_equiv_pos_site_id
_symmetry_equiv_pos_as_xyz
1 x,y,z
2 1/2-x,1/2+y,1/2-z
3 -x,-y,-z
4 1/2+x,1/2-y,1/2+z
_cell_length_a                   8.131(2)
_cell_length_b                   11.922(1)
_cell_length_c                   11.685(2)
_cell_angle_alpha                90
_cell_angle_beta                 100.61(2)
_cell_angle_gamma                90
_cell_volume                     1113.35
_cell_formula_units_Z            4
loop_
_atom_site_label
_atom_site_type_symbol
_atom_site_fract_x
_atom_site_fract_y
_atom_site_fract_z
Br1 Br 0.18235 0.04544 0.08679
O1 O 1.02500 0.31440 0.32370
O2 O 0.77510 0.39580 0.28210
O3 O 1.00200 0.36640 0.05190
O4 O 0.78020 0.48100 -0.00490
C1 C 0.38520 0.10240 0.18780
C2 C 0.52700 0.13020 0.12140
C3 C 0.43940 0.24640 0.08950
C4 C 0.38120 0.22860 0.20880
C5 C 0.55710 0.25390 0.28020
C6 C 0.56620 0.34480 0.10030
C7 C 0.72870 0.30010 0.06870
C8 C 0.80860 0.22980 0.17670
C9 C 0.66380 0.16800 0.22260
C10 C 0.88470 0.31260 0.26750
C11 C 0.84580 0.38910 0.03780
C12 C 0.60140 0.36690 0.23400
loop_
_geom_bond_atom_site_label_1
_geom_bond_atom_site_label_2
_geom_bond_site_symmetry_1
_geom_bond_site_symmetry_2
Br1 C1 1_555 1_555
O1 C10 1_555 1_555
O2 C10 1_555 1_555
O3 C11 1_555 1_555
O4 C11 1_555 1_555
C1 C2 1_555 1_555
C2 C3 1_555 1_555
C3 C4 1_555 1_555
C4 C1 1_555 1_555
C5 C4 1_555 1_555
C6 C3 1_555 1_555
C7 C6 1_555 1_555
C8 C7 1_555 1_555
C9 C2 1_555 1_555
C10 C8 1_555 1_555
C11 C7 1_555 1_555
C12 O2 1_555 1_555
C5 C9 1_555 1_555
C5 C12 1_555 1_555
C6 C12 1_555 1_555
C8 C9 1_555 1_555

#END
