
#######################################################################
#
#                 Cambridge Crystallographic Data Centre
#                                CCDC 
#
#######################################################################
#
# If this CIF has been generated from an entry in the Cambridge 
# Structural Database, then it will include bibliographic, chemical, 
# crystal, experimental, refinement or atomic coordinate data resulting 
# from the CCDC's data processing and validation procedures.
#
#######################################################################

data_BTMBOC
_chemical_formula_moiety         'C18 H17 Br1'
_chemical_name_systematic        
7-Bromo-trans-7,8-dimethyl-dibenzobicyclo(2.2.2)octadiene
_symmetry_cell_setting           monoclinic
_symmetry_space_group_name_H-M   'P 21/c'
_symmetry_Int_Tables_number      14
_space_group_name_Hall           '-P 2ybc'
loop_
_symmetry_equiv_pos_site_id
_symmetry_equiv_pos_as_xyz
1 x,y,z
2 -x,1/2+y,1/2-z
3 -x,-y,-z
4 x,1/2-y,1/2+z
_cell_length_a                   10.640(6)
_cell_length_b                   9.401(3)
_cell_length_c                   29.133(12)
_cell_angle_alpha                90
_cell_angle_beta                 95.84(4)
_cell_angle_gamma                90
_cell_volume                     2898.95
_cell_formula_units_Z            8
loop_
_atom_site_label
_atom_site_type_symbol
_atom_site_fract_x
_atom_site_fract_y
_atom_site_fract_z
Br1 Br 0.04220 0.26490 0.35010
C1 C 0.30250 0.19420 0.35790
C2 C 0.61970 0.14380 0.27790
C3 C 0.63140 0.23660 0.31390
C4 C 0.53420 0.25900 0.34120
C5 C 0.24660 0.00570 0.41650
C6 C 0.21200 -0.13940 0.42110
C7 C 0.19410 -0.22250 0.38570
C8 C 0.21480 -0.18680 0.33980
C9 C 0.22300 0.41810 0.30670
C10 C 0.05220 0.09240 0.26220
C11 C 0.42030 0.18420 0.33210
C12 C 0.40410 0.08860 0.29450
C13 C 0.27640 0.01900 0.28870
C14 C 0.25420 -0.04560 0.33480
C15 C 0.26770 0.04950 0.37140
C16 C 0.20240 0.24900 0.31930
C17 C 0.18760 0.14710 0.27750
C18 C 0.50650 0.06630 0.26790
Br2 Br 0.16230 0.41180 -0.37320
C19 C 0.14920 0.17090 -0.43270
C20 C 0.31240 -0.23860 -0.45220
C21 C 0.18480 -0.23170 -0.44820
C22 C 0.12490 -0.10460 -0.44250
C23 C 0.12280 0.35500 -0.49740
C24 C 0.18430 0.43570 -0.52950
C25 C 0.31180 0.43510 -0.53050
C26 C 0.38370 0.34720 -0.50190
C27 C 0.17720 0.12690 -0.34380
C28 C 0.44470 0.35680 -0.37350
C29 C 0.19960 0.02110 -0.43910
C30 C 0.32950 0.01260 -0.44250
C31 C 0.39260 0.15300 -0.43500
C32 C 0.33200 0.25830 -0.46920
C33 C 0.19900 0.26840 -0.46720
C34 C 0.22440 0.21230 -0.38390
C35 C 0.37250 0.20710 -0.38340
C36 C 0.38670 -0.11490 -0.44870
loop_
_geom_bond_atom_site_label_1
_geom_bond_atom_site_label_2
_geom_bond_site_symmetry_1
_geom_bond_site_symmetry_2
Br1 C16 1_555 1_555
C1 C11 1_555 1_555
C2 C3 1_555 1_555
C3 C4 1_555 1_555
C4 C11 1_555 1_555
C5 C6 1_555 1_555
C6 C7 1_555 1_555
C7 C8 1_555 1_555
C8 C14 1_555 1_555
C9 C16 1_555 1_555
C10 C17 1_555 1_555
C11 C12 1_555 1_555
C12 C13 1_555 1_555
C13 C14 1_555 1_555
C14 C15 1_555 1_555
C15 C1 1_555 1_555
C16 C1 1_555 1_555
C17 C13 1_555 1_555
C18 C2 1_555 1_555
Br2 C34 1_555 1_555
C19 C29 1_555 1_555
C20 C21 1_555 1_555
C21 C22 1_555 1_555
C22 C29 1_555 1_555
C23 C24 1_555 1_555
C24 C25 1_555 1_555
C25 C26 1_555 1_555
C26 C32 1_555 1_555
C27 C34 1_555 1_555
C28 C35 1_555 1_555
C29 C30 1_555 1_555
C30 C31 1_555 1_555
C31 C32 1_555 1_555
C32 C33 1_555 1_555
C33 C19 1_555 1_555
C34 C19 1_555 1_555
C35 C31 1_555 1_555
C36 C20 1_555 1_555
C5 C15 1_555 1_555
C12 C18 1_555 1_555
C16 C17 1_555 1_555
C23 C33 1_555 1_555
C30 C36 1_555 1_555
C34 C35 1_555 1_555

#END
