
#######################################################################
#
#                 Cambridge Crystallographic Data Centre
#                                CCDC 
#
#######################################################################
#
# If this CIF has been generated from an entry in the Cambridge 
# Structural Database, then it will include bibliographic, chemical, 
# crystal, experimental, refinement or atomic coordinate data resulting 
# from the CCDC's data processing and validation procedures.
#
#######################################################################

data_BUBHUB
_chemical_formula_moiety         'C17 H20 I1 N2 1+,Cl1 1-'
_chemical_name_systematic        
'3,6-bis(Dimethylamino)-9,10-dihydro-9-ioda-anthracene chloride'
_symmetry_cell_setting           monoclinic
_symmetry_space_group_name_H-M   'P 21/n'
_symmetry_Int_Tables_number      14
_space_group_name_Hall           '-P 2yn'
loop_
_symmetry_equiv_pos_site_id
_symmetry_equiv_pos_as_xyz
1 x,y,z
2 1/2-x,1/2+y,1/2-z
3 -x,-y,-z
4 1/2+x,1/2-y,1/2+z
_cell_length_a                   11.073(2)
_cell_length_b                   13.766(1)
_cell_length_c                   11.229(11)
_cell_angle_alpha                90
_cell_angle_beta                 99.36(5)
_cell_angle_gamma                90
_cell_volume                     1688.86
_cell_formula_units_Z            4
loop_
_atom_site_label
_atom_site_type_symbol
_atom_site_fract_x
_atom_site_fract_y
_atom_site_fract_z
I1 I 0.05040 0.08500 0.16020
N1 N 0.54000 0.16000 0.24600
N2 N -0.24200 0.01000 0.49600
C1 C 0.20600 0.17100 0.23400
C2 C 0.31700 0.13400 0.21500
C3 C 0.42700 0.19000 0.26300
C4 C 0.41100 0.27400 0.32600
C5 C 0.29400 0.30100 0.34400
C6 C 0.18700 0.25300 0.29500
C7 C 0.06400 0.29100 0.30900
C8 C -0.01900 0.21600 0.36200
C9 C -0.07800 0.23800 0.45000
C10 C -0.15100 0.17000 0.50200
C11 C -0.16700 0.07600 0.44900
C12 C -0.10400 0.05300 0.35300
C13 C -0.03400 0.12000 0.31100
C14 C 0.55500 0.06600 0.18500
C15 C 0.63500 0.23200 0.24500
C16 C -0.25600 -0.08700 0.44500
C17 C -0.336 0.048 0.556
Cl1 Cl 0.17990 0.03380 0.94610
loop_
_geom_bond_atom_site_label_1
_geom_bond_atom_site_label_2
_geom_bond_site_symmetry_1
_geom_bond_site_symmetry_2
I1 C1 1_555 1_555
N1 C3 1_555 1_555
N2 C11 1_555 1_555
C1 C2 1_555 1_555
C2 C3 1_555 1_555
C3 C4 1_555 1_555
C4 C5 1_555 1_555
C5 C6 1_555 1_555
C6 C1 1_555 1_555
C7 C6 1_555 1_555
C8 C7 1_555 1_555
C9 C8 1_555 1_555
C10 C9 1_555 1_555
C11 C10 1_555 1_555
C12 C11 1_555 1_555
C13 I1 1_555 1_555
C14 N1 1_555 1_555
C15 N1 1_555 1_555
C16 N2 1_555 1_555
C17 N2 1_555 1_555
C8 C13 1_555 1_555
C12 C13 1_555 1_555

#END
