
#######################################################################
#
#                 Cambridge Crystallographic Data Centre
#                                CCDC 
#
#######################################################################
#
# If this CIF has been generated from an entry in the Cambridge 
# Structural Database, then it will include bibliographic, chemical, 
# crystal, experimental, refinement or atomic coordinate data resulting 
# from the CCDC's data processing and validation procedures.
#
#######################################################################

data_BUBJUD
_chemical_formula_moiety         'C15 H24 O3'
_chemical_name_systematic        'Baimuxiangic acid'
_symmetry_cell_setting           monoclinic
_symmetry_space_group_name_H-M   'C 2'
_symmetry_Int_Tables_number      5
_space_group_name_Hall           'C 2y'
loop_
_symmetry_equiv_pos_site_id
_symmetry_equiv_pos_as_xyz
1 x,y,z
2 1/2+x,1/2+y,z
3 -x,y,-z
4 1/2-x,1/2+y,-z
_cell_length_a                   12.150(3)
_cell_length_b                   10.827(4)
_cell_length_c                   11.344(4)
_cell_angle_alpha                90
_cell_angle_beta                 111.78(2)
_cell_angle_gamma                90
_cell_volume                     1385.76
_cell_formula_units_Z            4
loop_
_atom_site_label
_atom_site_type_symbol
_atom_site_fract_x
_atom_site_fract_y
_atom_site_fract_z
O1 O 0.13650 0.44040 0.46080
O2 O 0.39300 0.08060 0.34860
O3 O 0.53290 0.08540 0.26720
C1 C 0.23360 0.27560 0.39780
C2 C 0.11820 0.24720 0.28590
C3 C 0.15950 0.21530 0.17830
C4 C 0.27090 0.29500 0.19770
C5 C 0.30690 0.34470 0.33560
C6 C 0.24210 0.40480 0.10250
C7 C 0.21600 0.35990 -0.03360
C8 C 0.32620 0.30020 -0.04180
C9 C 0.38900 0.22070 0.06920
C10 C 0.36640 0.21740 0.17590
C11 C 0.16860 0.25060 0.58210
C12 C 0.21820 0.34040 0.51140
C13 C 0.33570 0.39290 0.60300
C14 C 0.43030 0.12300 0.27230
C15 C 0.34180 0.50350 0.14000
H1 H 0.26700 0.19300 0.40800
H2 H 0.05600 0.32400 0.27200
H3 H 0.10900 0.23200 0.11200
H4 H 0.17900 0.13600 0.19000
H5 H 0.28800 0.43200 0.32900
H6 H 0.39200 0.35600 0.38900
H7 H 0.16800 0.43800 0.10700
H8 H 0.14600 0.30200 -0.06000
H9 H 0.18800 0.42200 -0.08400
H10 H 0.31300 0.24800 -0.12300
H11 H 0.38000 0.34900 -0.05200
H12 H 0.45800 0.17200 0.04100
H13 H 0.14400 0.30300 0.63000
H14 H 0.10500 0.22100 0.52900
H15 H 0.19400 0.17500 0.61600
H16 H 0.33500 0.41500 0.67000
H17 H 0.39300 0.33800 0.62900
H18 H 0.37900 0.45000 0.59000
H19 H 0.54400 0.09200 0.21800
H20 H 0.33100 0.55300 0.20200
H21 H 0.40300 0.47400 0.16500
H22 H 0.32700 0.56600 0.08400
H23 H 0.13400 0.47800 0.52500
loop_
_geom_bond_atom_site_label_1
_geom_bond_atom_site_label_2
_geom_bond_site_symmetry_1
_geom_bond_site_symmetry_2
O1 C12 1_555 1_555
O2 C14 1_555 1_555
O3 C14 1_555 1_555
C1 C2 1_555 1_555
C2 C3 1_555 1_555
C3 C4 1_555 1_555
C4 C5 1_555 1_555
C5 C1 1_555 1_555
C6 C4 1_555 1_555
C7 C6 1_555 1_555
C8 C7 1_555 1_555
C9 C8 1_555 1_555
C10 C4 1_555 1_555
C11 C12 1_555 1_555
C12 C1 1_555 1_555
C13 C12 1_555 1_555
C14 C10 1_555 1_555
C15 C6 1_555 1_555
H1 C1 1_555 1_555
H2 C2 1_555 1_555
H3 C3 1_555 1_555
H4 C3 1_555 1_555
H5 C5 1_555 1_555
H6 C5 1_555 1_555
H7 C6 1_555 1_555
H8 C7 1_555 1_555
H9 C7 1_555 1_555
H10 C8 1_555 1_555
H11 C8 1_555 1_555
H12 C9 1_555 1_555
H13 C11 1_555 1_555
H14 C11 1_555 1_555
H15 C11 1_555 1_555
H16 C13 1_555 1_555
H17 C13 1_555 1_555
H18 C13 1_555 1_555
H19 O3 1_555 1_555
H20 C15 1_555 1_555
H21 C15 1_555 1_555
H22 C15 1_555 1_555
H23 O1 1_555 1_555
C9 C10 1_555 1_555

#END
