
#######################################################################
#
#                 Cambridge Crystallographic Data Centre
#                                CCDC 
#
#######################################################################
#
# If this CIF has been generated from an entry in the Cambridge 
# Structural Database, then it will include bibliographic, chemical, 
# crystal, experimental, refinement or atomic coordinate data resulting 
# from the CCDC's data processing and validation procedures.
#
#######################################################################

data_BUBYII
_chemical_name_common            'DrugBank: DB11364'
_chemical_formula_moiety         'C9 H12 N2 O4 S1'
_chemical_name_systematic        
'(4R)-3-(((2S)-5-Oxo-2-pyrrolidinyl)carbonyl)-4-thiazolidinecarboxylic acid'
_symmetry_cell_setting           orthorhombic
_symmetry_space_group_name_H-M   'P 21 21 21'
_symmetry_Int_Tables_number      19
_space_group_name_Hall           'P 2ac 2ab'
loop_
_symmetry_equiv_pos_site_id
_symmetry_equiv_pos_as_xyz
1 x,y,z
2 1/2-x,-y,1/2+z
3 -x,1/2+y,1/2-z
4 1/2+x,1/2-y,-z
_cell_length_a                   5.5009(4)
_cell_length_b                   12.4562(10)
_cell_length_c                   15.5046(12)
_cell_angle_alpha                90
_cell_angle_beta                 90
_cell_angle_gamma                90
_cell_volume                     1062.38
_exptl_crystal_colour            colorless
_exptl_crystal_description       block
_cell_formula_units_Z            4
loop_
_atom_site_label
_atom_site_type_symbol
_atom_site_fract_x
_atom_site_fract_y
_atom_site_fract_z
N1 N 0.5907(3) 0.91842(12) 0.54561(9)
N2 N 0.4250(3) 1.05649(12) 0.34673(9)
H1 H 0.3251 1.0199 0.3206
O1 O 0.4323(3) 1.05368(12) 0.73915(10)
O2 O 0.7231(3) 1.08283(12) 0.64568(10)
H2 H 0.7302 1.1408 0.6706
O3 O 0.2985(3) 1.03766(11) 0.51476(9)
O4 O 0.2724(3) 1.21947(11) 0.30475(9)
S1 S 0.80956(14) 0.74676(5) 0.59986(4)
C1 C 0.5490(4) 1.02571(15) 0.67853(12)
C2 C 0.5187(3) 0.91524(14) 0.63529(11)
H3 H 0.3484 0.8927 0.6394
C3 C 0.6798(5) 0.83243(18) 0.68000(13)
H4 H 0.5839 0.7904 0.7202
H5 H 0.8076 0.8683 0.7120
C4 C 0.8124(4) 0.86023(17) 0.52588(12)
H6 H 0.9542 0.9050 0.5355
H7 H 0.8125 0.8359 0.4664
C5 C 0.4776(3) 0.98841(14) 0.49272(11)
C6 C 0.5966(3) 1.01168(14) 0.40659(11)
H8 H 0.6795 0.9485 0.3830
C7 C 0.7721(3) 1.10825(16) 0.41822(12)
H9 H 0.8402 1.1090 0.4759
H10 H 0.9039 1.1049 0.3767
C8 C 0.6141(4) 1.20791(16) 0.40284(13)
H11 H 0.5491 1.2356 0.4566
H12 H 0.7052 1.2641 0.3740
C9 C 0.4173(3) 1.16512(15) 0.34642(11)
S2? S 0.9064(9) 0.7939(4) 0.6219(3)
H13? H 0.5822 0.7700 0.6949
H14? H 0.7412 0.8633 0.7330
H15? H 0.9374 0.9098 0.5066
H16? H 0.7831 0.8079 0.4807
loop_
_geom_bond_atom_site_label_1
_geom_bond_atom_site_label_2
_geom_bond_site_symmetry_1
_geom_bond_site_symmetry_2
N1 C2 1_555 1_555
N2 H1 1_555 1_555
O1 C1 1_555 1_555
O2 H2 1_555 1_555
O3 C5 1_555 1_555
O4 C9 1_555 1_555
S1 C3 1_555 1_555
C1 O2 1_555 1_555
C2 C1 1_555 1_555
H3 C2 1_555 1_555
C3 C2 1_555 1_555
H4 C3 1_555 1_555
H5 C3 1_555 1_555
C4 N1 1_555 1_555
H6 C4 1_555 1_555
H7 C4 1_555 1_555
C5 N1 1_555 1_555
C6 N2 1_555 1_555
H8 C6 1_555 1_555
C7 C6 1_555 1_555
H9 C7 1_555 1_555
H10 C7 1_555 1_555
C8 C7 1_555 1_555
H11 C8 1_555 1_555
H12 C8 1_555 1_555
C9 N2 1_555 1_555
S1 C4 1_555 1_555
C5 C6 1_555 1_555
C8 C9 1_555 1_555

#END
