
#######################################################################
#
#                 Cambridge Crystallographic Data Centre
#                                CCDC 
#
#######################################################################
#
# If this CIF has been generated from an entry in the Cambridge 
# Structural Database, then it will include bibliographic, chemical, 
# crystal, experimental, refinement or atomic coordinate data resulting 
# from the CCDC's data processing and validation procedures.
#
#######################################################################

data_BUBZOP
_chemical_formula_moiety         'C16 H21 N1 O5 S1'
_chemical_name_systematic        
'(2R,4R)-3-(t-Butoxycarbonyl)-2-(2-methoxyphenyl)-1,3-thiazolidine-4-carboxylic acid'
_symmetry_cell_setting           orthorhombic
_symmetry_space_group_name_H-M   'P 21 21 21'
_symmetry_Int_Tables_number      19
_space_group_name_Hall           'P 2ac 2ab'
loop_
_symmetry_equiv_pos_site_id
_symmetry_equiv_pos_as_xyz
1 x,y,z
2 1/2-x,-y,1/2+z
3 -x,1/2+y,1/2-z
4 1/2+x,1/2-y,-z
_cell_length_a                   6.4240(13)
_cell_length_b                   10.255(2)
_cell_length_c                   27.064(5)
_cell_angle_alpha                90
_cell_angle_beta                 90
_cell_angle_gamma                90
_cell_volume                     1782.93
_exptl_crystal_colour            colorless
_exptl_crystal_description       Block
_cell_formula_units_Z            4
loop_
_atom_site_label
_atom_site_type_symbol
_atom_site_fract_x
_atom_site_fract_y
_atom_site_fract_z
S1 S 0.8040(5) 0.9732(2) 0.92778(9)
N1 N 0.7426(8) 0.7358(5) 0.89837(19)
O1 O 1.0856(12) 1.0277(7) 0.8339(3)
C1 C 1.2160(19) 1.1279(11) 0.8175(4)
H1 H 1.3259 1.1412 0.8410
H2 H 1.1369 1.2069 0.8141
H3 H 1.2746 1.1045 0.7861
O2 O 0.2286(8) 0.6904(7) 0.95256(17)
C2 C 0.9198(18) 0.9861(9) 0.8067(4)
O3 O 0.3510(7) 0.6523(5) 0.87847(16)
H4 H 0.2286 0.6350 0.8728
C3 C 0.868(2) 1.0331(11) 0.7600(4)
H5 H 0.9505 1.0960 0.7449
O4 O 0.7318(7) 0.5286(4) 0.91987(16)
C4 C 0.700(2) 0.9882(11) 0.7370(4)
H6 H 0.6648 1.0216 0.7061
O5 O 0.9603(7) 0.5944(5) 0.86041(16)
C5 C 0.5722(18) 0.8899(10) 0.7586(3)
H7 H 0.4563 0.8577 0.7420
C6 C 0.6254(13) 0.8438(8) 0.8049(3)
H8 H 0.5451 0.7792 0.8196
C7 C 0.7979(13) 0.8931(7) 0.8296(3)
C8 C 0.8534(12) 0.8504(6) 0.8801(2)
H9 H 1.0026 0.8305 0.8805
C9 C 0.5503(14) 0.9067(7) 0.9376(3)
H10 H 0.4961 0.9336 0.9695
H11 H 0.4552 0.9357 0.9120
C10 C 0.5762(10) 0.7603(6) 0.9358(2)
H12 H 0.6238 0.7293 0.9681
C11 C 0.3690(11) 0.6968(7) 0.9236(2)
C12 C 0.8227(9) 0.6163(6) 0.8908(2)
C13 C 0.7723(12) 0.3876(6) 0.9152(3)
C14 C 0.6323(17) 0.3328(8) 0.9547(3)
H13 H 0.4896 0.3480 0.9459
H14 H 0.6620 0.3748 0.9857
H15 H 0.6561 0.2407 0.9578
C15 C 1.0026(13) 0.3620(8) 0.9268(3)
H16 H 1.0873 0.3962 0.9006
H17 H 1.0255 0.2698 0.9297
H18 H 1.0389 0.4040 0.9573
C16 C 0.7096(15) 0.3423(8) 0.8653(3)
H19 H 0.5635 0.3577 0.8606
H20 H 0.7376 0.2507 0.8622
H21 H 0.7870 0.3892 0.8407
loop_
_geom_bond_atom_site_label_1
_geom_bond_atom_site_label_2
_geom_bond_site_symmetry_1
_geom_bond_site_symmetry_2
S1 C8 1_555 1_555
N1 C8 1_555 1_555
O1 C1 1_555 1_555
C1 H1 1_555 1_555
H2 C1 1_555 1_555
H3 C1 1_555 1_555
O2 C11 1_555 1_555
C2 O1 1_555 1_555
O3 H4 1_555 1_555
C3 C2 1_555 1_555
H5 C3 1_555 1_555
O4 C12 1_555 1_555
C4 C3 1_555 1_555
H6 C4 1_555 1_555
O5 C12 1_555 1_555
C5 C4 1_555 1_555
H7 C5 1_555 1_555
C6 C5 1_555 1_555
H8 C6 1_555 1_555
C7 C2 1_555 1_555
C8 C7 1_555 1_555
H9 C8 1_555 1_555
C9 S1 1_555 1_555
H10 C9 1_555 1_555
H11 C9 1_555 1_555
C10 N1 1_555 1_555
H12 C10 1_555 1_555
C11 O3 1_555 1_555
C12 N1 1_555 1_555
C13 O4 1_555 1_555
C14 C13 1_555 1_555
H13 C14 1_555 1_555
H14 C14 1_555 1_555
H15 C14 1_555 1_555
C15 C13 1_555 1_555
H16 C15 1_555 1_555
H17 C15 1_555 1_555
H18 C15 1_555 1_555
C16 C13 1_555 1_555
H19 C16 1_555 1_555
H20 C16 1_555 1_555
H21 C16 1_555 1_555
C6 C7 1_555 1_555
C9 C10 1_555 1_555
C10 C11 1_555 1_555

#END
