
#######################################################################
#
#                 Cambridge Crystallographic Data Centre
#                                CCDC 
#
#######################################################################
#
# If this CIF has been generated from an entry in the Cambridge 
# Structural Database, then it will include bibliographic, chemical, 
# crystal, experimental, refinement or atomic coordinate data resulting 
# from the CCDC's data processing and validation procedures.
#
#######################################################################

data_BUDROI
_chemical_formula_moiety         'C29 H19 F6 N1 O1 S2'
_chemical_name_systematic        
3-(4-(3,3,4,4,5,5-Hexafluoro-2-(5-(3-methoxyphenyl)-2-methyl-3-thienyl)cyclopent-1-en-1-yl)-5-methyl-2-thienyl)benzonitrile
_symmetry_cell_setting           triclinic
_symmetry_space_group_name_H-M   'P -1'
_symmetry_Int_Tables_number      2
_space_group_name_Hall           '-P 1'
loop_
_symmetry_equiv_pos_site_id
_symmetry_equiv_pos_as_xyz
1 x,y,z
2 -x,-y,-z
_cell_length_a                   8.6134(11)
_cell_length_b                   11.5938(15)
_cell_length_c                   14.5281(19)
_cell_angle_alpha                68.346(2)
_cell_angle_beta                 88.783(2)
_cell_angle_gamma                82.158(2)
_cell_volume                     1335.14
_exptl_crystal_colour            colorless
_exptl_crystal_description       block
_chemical_melting_point          '369.4-370.8 K'
_cell_formula_units_Z            2
_chemical_properties_physical    light-sensitive
_exptl_crystal_preparation       photochromic
loop_
_atom_site_label
_atom_site_type_symbol
_atom_site_fract_x
_atom_site_fract_y
_atom_site_fract_z
C1 C 0.8607(7) 0.8219(8) 0.1970(5)
C2 C 0.9550(6) 0.8673(5) 0.2620(5)
C3 C 0.8293(11) 0.9522(4) 0.2991(4)
F1 F 0.9173(6) 0.7019(6) 0.2107(4)
F2 F 0.8822(6) 0.8920(4) 0.1004(4)
F3 F 1.0171(4) 0.7695(3) 0.3431(2)
F4 F 1.0726(3) 0.9286(4) 0.2184(3)
F5 F 0.8628(3) 0.9419(3) 0.3914(2)
F6 F 0.8338(4) 1.0749(3) 0.2401(2)
C4 C 0.6932(3) 0.8443(2) 0.2242(2)
C5 C 0.6795(3) 0.9091(2) 0.28436(19)
C6 C 0.4380(3) 0.8805(2) 0.13185(19)
C7 C 0.5704(3) 0.8033(2) 0.1798(2)
C8 C 0.5748(3) 0.6789(3) 0.1826(2)
H1 H 0.6580 0.6159 0.2111
C9 C 0.4467(3) 0.6608(2) 0.1399(2)
C10 C 0.3912(3) 1.0166(2) 0.1107(2)
H2 H 0.3333 1.0270 0.1650
H3 H 0.3269 1.0533 0.0511
H4 H 0.4834 1.0571 0.1024
C11 C 0.4066(4) 0.5459(3) 0.1315(2)
C12 C 0.2517(4) 0.5282(3) 0.1271(2)
H5 H 0.1722 0.5894 0.1304
C13 C 0.2130(4) 0.4207(3) 0.1178(2)
C14 C 0.3297(5) 0.3315(3) 0.1111(2)
H6 H 0.3046 0.2602 0.1029
C15 C 0.4834(5) 0.3476(3) 0.1163(2)
H7 H 0.5620 0.2861 0.1126
C16 C 0.5244(4) 0.4538(3) 0.1270(2)
H8 H 0.6293 0.4631 0.1310
C17 C 0.0082(6) 0.3090(4) 0.1022(4)
H9 H 0.0523 0.3022 0.0429
H10 H -0.1042 0.3193 0.0965
H11 H 0.0442 0.2343 0.1580
C18 C 0.4268(3) 0.8736(3) 0.37482(19)
C19 C 0.5397(3) 0.9477(2) 0.33159(19)
C20 C 0.5058(3) 1.0699(3) 0.33379(19)
H12 H 0.5720 1.1306 0.3087
C21 C 0.3672(3) 1.0900(3) 0.3761(2)
C22 C 0.4206(4) 0.7390(3) 0.3910(2)
H13 H 0.3639 0.7343 0.3366
H14 H 0.3687 0.7003 0.4515
H15 H 0.5253 0.6962 0.3951
C23 C 0.2932(3) 1.2076(3) 0.38317(19)
C24 C 0.1306(4) 1.2368(3) 0.3827(2)
H16 H 0.0666 1.1797 0.3799
C25 C 0.0641(4) 1.3508(3) 0.3865(2)
C26 C 0.1566(5) 1.4367(3) 0.3904(2)
H17 H 0.1110 1.5126 0.3935
C27 C 0.3175(5) 1.4096(3) 0.3896(3)
H18 H 0.3805 1.4679 0.3912
C28 C 0.3851(4) 1.2964(3) 0.3863(2)
H19 H 0.4937 1.2789 0.3863
C29 C -0.1043(5) 1.3799(4) 0.3840(3)
N1 N -0.2356(4) 1.4047(4) 0.3815(3)
O1 O 0.0558(3) 0.4145(2) 0.1161(2)
S1 S 0.32016(9) 0.79945(7) 0.09174(5)
S2 S 0.28003(9) 0.95549(7) 0.41707(6)
C30? C 0.8610(15) 0.822(2) 0.1990(15)
C31? C 0.9453(17) 0.9039(17) 0.2351(15)
C32? C 0.848(4) 0.9271(15) 0.2995(13)
F7? F 0.904(2) 0.700(2) 0.2492(14)
F8? F 0.877(2) 0.8315(16) 0.1047(14)
F9? F 1.0853(14) 0.8369(11) 0.2718(9)
F10? F 0.9731(9) 0.9989(10) 0.1527(8)
F11? F 0.8899(11) 0.8652(10) 0.3949(8)
F12? F 0.8456(16) 1.0469(13) 0.2921(9)
loop_
_geom_bond_atom_site_label_1
_geom_bond_atom_site_label_2
_geom_bond_site_symmetry_1
_geom_bond_site_symmetry_2
C1 C2 1_555 1_555
C2 C3 1_555 1_555
C3 F5 1_555 1_555
F1 C1 1_555 1_555
F2 C1 1_555 1_555
F3 C2 1_555 1_555
F4 C2 1_555 1_555
F6 C3 1_555 1_555
C4 C1 1_555 1_555
C5 C3 1_555 1_555
C6 C7 1_555 1_555
C7 C4 1_555 1_555
C8 C7 1_555 1_555
H1 C8 1_555 1_555
C9 C8 1_555 1_555
C10 C6 1_555 1_555
H2 C10 1_555 1_555
H3 C10 1_555 1_555
H4 C10 1_555 1_555
C11 C9 1_555 1_555
C12 C11 1_555 1_555
H5 C12 1_555 1_555
C13 C12 1_555 1_555
C14 C13 1_555 1_555
H6 C14 1_555 1_555
C15 C14 1_555 1_555
H7 C15 1_555 1_555
C16 C11 1_555 1_555
H8 C16 1_555 1_555
C17 H9 1_555 1_555
H10 C17 1_555 1_555
H11 C17 1_555 1_555
C18 C19 1_555 1_555
C19 C5 1_555 1_555
C20 C19 1_555 1_555
H12 C20 1_555 1_555
C21 C20 1_555 1_555
C22 C18 1_555 1_555
H13 C22 1_555 1_555
H14 C22 1_555 1_555
H15 C22 1_555 1_555
C23 C21 1_555 1_555
C24 C23 1_555 1_555
H16 C24 1_555 1_555
C25 C24 1_555 1_555
C26 C25 1_555 1_555
H17 C26 1_555 1_555
C27 C26 1_555 1_555
H18 C27 1_555 1_555
C28 C23 1_555 1_555
H19 C28 1_555 1_555
C29 C25 1_555 1_555
N1 C29 1_555 1_555
O1 C13 1_555 1_555
S1 C6 1_555 1_555
S2 C18 1_555 1_555
C4 C5 1_555 1_555
C9 S1 1_555 1_555
C15 C16 1_555 1_555
C17 O1 1_555 1_555
C21 S2 1_555 1_555
C27 C28 1_555 1_555

#END
