
#######################################################################
#
#                 Cambridge Crystallographic Data Centre
#                                CCDC 
#
#######################################################################
#
# If this CIF has been generated from an entry in the Cambridge 
# Structural Database, then it will include bibliographic, chemical, 
# crystal, experimental, refinement or atomic coordinate data resulting 
# from the CCDC's data processing and validation procedures.
#
#######################################################################

data_BUFDUC
_chemical_formula_moiety         'C15 H15 N3 O4'
_chemical_name_systematic        
2-Ethoxy-4-((2-nitrophenyl)carbonohydrazonoyl)phenol
_symmetry_cell_setting           monoclinic
_symmetry_space_group_name_H-M   'P 21/c'
_symmetry_Int_Tables_number      14
_space_group_name_Hall           '-P 2ybc'
loop_
_symmetry_equiv_pos_site_id
_symmetry_equiv_pos_as_xyz
1 x,y,z
2 -x,1/2+y,1/2-z
3 -x,-y,-z
4 x,1/2-y,1/2+z
_cell_length_a                   14.586(3)
_cell_length_b                   5.0020(10)
_cell_length_c                   19.894(4)
_cell_angle_alpha                90
_cell_angle_beta                 102.40(3)
_cell_angle_gamma                90
_cell_volume                     1417.59
_exptl_crystal_colour            red
_exptl_crystal_description       block
_cell_formula_units_Z            4
_exptl_crystal_recrystallization_method methanol
loop_
_atom_site_label
_atom_site_type_symbol
_atom_site_fract_x
_atom_site_fract_y
_atom_site_fract_z
C1 C 0.06946(14) 0.4950(3) 0.12464(9)
C2 C 0.07330(15) 0.6553(4) 0.18267(10)
H1 H 0.0301 0.6290 0.2103
C3 C 0.13985(16) 0.8501(4) 0.19918(10)
H2 H 0.1428 0.9562 0.2380
C4 C 0.20308(15) 0.8864(4) 0.15677(10)
H3 H 0.2483 1.0197 0.1674
C5 C 0.20040(15) 0.7316(4) 0.10010(10)
H4 H 0.2439 0.7620 0.0729
C6 C 0.13368(14) 0.5272(3) 0.08161(10)
C7 C 0.19806(14) 0.2628(4) -0.06428(9)
H5 H 0.1510 0.1341 -0.0737
C8 C 0.26434(14) 0.2814(3) -0.10903(9)
C9 C 0.33800(14) 0.4669(3) -0.09704(9)
H6 H 0.3455 0.5822 -0.0596
C10 C 0.39910(14) 0.4781(3) -0.14074(10)
C11 C 0.38746(14) 0.3060(4) -0.19732(9)
C12 C 0.31578(15) 0.1243(4) -0.20896(10)
H7 H 0.3082 0.0102 -0.2467
C13 C 0.25466(15) 0.1098(4) -0.16481(10)
H8 H 0.2066 -0.0161 -0.1726
C14 C 0.49775(15) 0.8147(4) -0.07617(10)
H9 H 0.5067 0.7107 -0.0341
H10 H 0.4476 0.9422 -0.0764
C15 C 0.58674(16) 0.9580(4) -0.08049(11)
H11 H 0.6358 0.8298 -0.0802
H12 H 0.6044 1.0757 -0.0417
H13 H 0.5769 1.0602 -0.1223
N1 N -0.00228(12) 0.2929(3) 0.11143(9)
N2 N 0.13414(11) 0.3742(3) 0.02520(8)
H14 H 0.0924 0.2519 0.0131
N3 N 0.20184(11) 0.4161(3) -0.01266(8)
O1 O -0.00973(10) 0.1463(3) 0.06016(7)
O2 O -0.05468(11) 0.2664(3) 0.15192(7)
O3 O 0.47481(10) 0.6437(2) -0.13471(7)
O4 O 0.44797(11) 0.3159(2) -0.24127(7)
H15 H 0.4789 0.4540 -0.2346
loop_
_geom_bond_atom_site_label_1
_geom_bond_atom_site_label_2
_geom_bond_site_symmetry_1
_geom_bond_site_symmetry_2
C1 C2 1_555 1_555
C2 H1 1_555 1_555
C3 C2 1_555 1_555
H2 C3 1_555 1_555
C4 C3 1_555 1_555
H3 C4 1_555 1_555
C5 C4 1_555 1_555
H4 C5 1_555 1_555
C6 C1 1_555 1_555
C7 H5 1_555 1_555
C8 C7 1_555 1_555
C9 C8 1_555 1_555
H6 C9 1_555 1_555
C10 C9 1_555 1_555
C11 C10 1_555 1_555
C12 C11 1_555 1_555
H7 C12 1_555 1_555
C13 C8 1_555 1_555
H8 C13 1_555 1_555
C14 H9 1_555 1_555
H10 C14 1_555 1_555
C15 C14 1_555 1_555
H11 C15 1_555 1_555
H12 C15 1_555 1_555
H13 C15 1_555 1_555
N1 C1 1_555 1_555
N2 C6 1_555 1_555
H14 N2 1_555 1_555
N3 C7 1_555 1_555
O1 N1 1_555 1_555
O2 N1 1_555 1_555
O3 C10 1_555 1_555
O4 C11 1_555 1_555
H15 O4 1_555 1_555
C5 C6 1_555 1_555
C12 C13 1_555 1_555
C14 O3 1_555 1_555
N2 N3 1_555 1_555

#END
