
#######################################################################
#
#                 Cambridge Crystallographic Data Centre
#                                CCDC 
#
#######################################################################
#
# If this CIF has been generated from an entry in the Cambridge 
# Structural Database, then it will include bibliographic, chemical, 
# crystal, experimental, refinement or atomic coordinate data resulting 
# from the CCDC's data processing and validation procedures.
#
#######################################################################

data_BUFZUY
_chemical_name_common            'Vibralactone D'
_chemical_formula_moiety         'C12 H18 O3'
_chemical_name_systematic        
7-Hydroxy-1-(3-methylbut-2-en-1-yl)-3-oxabicyclo[3.2.1]octan-2-one
_chemical_properties_biological  
'inhibitory activities against human and mouse 11beta-hydroxy steroid dehydrogenases'
_symmetry_cell_setting           monoclinic
_symmetry_space_group_name_H-M   'P 21'
_symmetry_Int_Tables_number      4
_space_group_name_Hall           'P 2yb'
loop_
_symmetry_equiv_pos_site_id
_symmetry_equiv_pos_as_xyz
1 x,y,z
2 -x,1/2+y,-z
_cell_length_a                   7.9353(16)
_cell_length_b                   6.1933(12)
_cell_length_c                   11.672(2)
_cell_angle_alpha                90
_cell_angle_beta                 91.832(3)
_cell_angle_gamma                90
_cell_volume                     573.335
_exptl_crystal_colour            colorless
_exptl_crystal_description       irregular
_chemical_melting_point          '131-132 deg.C'
_cell_formula_units_Z            2
loop_
_atom_site_label
_atom_site_type_symbol
_atom_site_fract_x
_atom_site_fract_y
_atom_site_fract_z
O1 O 0.0720(3) 0.0749(3) 0.36599(18)
O2 O 0.3309(2) 0.1019(3) 0.31720(18)
O3 O 0.2300(2) 0.4351(4) 0.53430(14)
H1 H 0.1370 0.4653 0.5585
C1 C -0.1033(3) 0.4254(5) 0.1989(2)
H2 H -0.1046 0.2771 0.1865
C2 C 0.1636(3) 0.4351(4) 0.32376(18)
C3 C 0.2532(3) 0.5437(4) 0.4295(2)
H3 H 0.2134 0.6928 0.4362
C4 C 0.4403(3) 0.5451(5) 0.4012(2)
H4 H 0.4858 0.6903 0.4067
H5 H 0.5043 0.4523 0.4535
C5 C 0.4481(3) 0.4617(5) 0.2794(2)
H6 H 0.5358 0.5368 0.2376
C6 C 0.2744(3) 0.5125(4) 0.2283(2)
H7 H 0.2520 0.4334 0.1577
H8 H 0.2604 0.6659 0.2140
C7 C 0.1824(3) 0.1942(4) 0.3372(2)
C8 C 0.4732(4) 0.2226(6) 0.2751(3)
H9 H 0.4920 0.1802 0.1965
H10 H 0.5734 0.1854 0.3206
C9 C -0.0221(3) 0.4984(4) 0.3094(2)
H11 H -0.0834 0.4371 0.3723
H12 H -0.0313 0.6543 0.3144
C10 C -0.1732(3) 0.5437(5) 0.1168(2)
C11 C -0.1861(5) 0.7824(6) 0.1203(3)
H13 H -0.1419 0.8341 0.1927
H14 H -0.3021 0.8243 0.1108
H15 H -0.1225 0.8433 0.0596
C12 C -0.2522(5) 0.4425(8) 0.0108(3)
H16 H -0.2365 0.2889 0.0137
H17 H -0.2000 0.4993 -0.0558
H18 H -0.3706 0.4746 0.0070
loop_
_geom_bond_atom_site_label_1
_geom_bond_atom_site_label_2
_geom_bond_site_symmetry_1
_geom_bond_site_symmetry_2
O1 C7 1_555 1_555
O2 C7 1_555 1_555
O3 H1 1_555 1_555
C1 H2 1_555 1_555
C2 C3 1_555 1_555
C3 O3 1_555 1_555
H3 C3 1_555 1_555
C4 C3 1_555 1_555
H4 C4 1_555 1_555
H5 C4 1_555 1_555
C5 C4 1_555 1_555
H6 C5 1_555 1_555
C6 C2 1_555 1_555
H7 C6 1_555 1_555
H8 C6 1_555 1_555
C7 C2 1_555 1_555
C8 O2 1_555 1_555
H9 C8 1_555 1_555
H10 C8 1_555 1_555
C9 C1 1_555 1_555
H11 C9 1_555 1_555
H12 C9 1_555 1_555
C10 C1 1_555 1_555
C11 C10 1_555 1_555
H13 C11 1_555 1_555
H14 C11 1_555 1_555
H15 C11 1_555 1_555
C12 C10 1_555 1_555
H16 C12 1_555 1_555
H17 C12 1_555 1_555
H18 C12 1_555 1_555
C2 C9 1_555 1_555
C5 C6 1_555 1_555
C5 C8 1_555 1_555

#END
