
#######################################################################
#
#                 Cambridge Crystallographic Data Centre
#                                CCDC 
#
#######################################################################
#
# If this CIF has been generated from an entry in the Cambridge 
# Structural Database, then it will include bibliographic, chemical, 
# crystal, experimental, refinement or atomic coordinate data resulting 
# from the CCDC's data processing and validation procedures.
#
#######################################################################

data_BUGLOF
_chemical_formula_moiety         'C34 H42 N4 O7'
_chemical_name_systematic        
5-Isobutoxy-1,3-bis((2-(2-(isobutoxy)benzoyl)hydrazino)carbonyl)benzene
_symmetry_cell_setting           monoclinic
_symmetry_space_group_name_H-M   'P 21/c'
_symmetry_Int_Tables_number      14
_space_group_name_Hall           '-P 2ybc'
loop_
_symmetry_equiv_pos_site_id
_symmetry_equiv_pos_as_xyz
1 x,y,z
2 -x,1/2+y,1/2-z
3 -x,-y,-z
4 x,1/2-y,1/2+z
_cell_length_a                   11.7209(12)
_cell_length_b                   27.447(3)
_cell_length_c                   10.5514(11)
_cell_angle_alpha                90
_cell_angle_beta                 91.501(2)
_cell_angle_gamma                90
_cell_volume                     3393.26
_exptl_crystal_colour            colorless
_exptl_crystal_description       prismatic
_cell_formula_units_Z            4
loop_
_atom_site_label
_atom_site_type_symbol
_atom_site_fract_x
_atom_site_fract_y
_atom_site_fract_z
O1 O 0.84645(16) 0.98011(8) -0.0600(2)
O2 O 0.5453(2) 0.86179(11) -0.1474(3)
O3 O 0.46799(18) 0.99055(10) 0.3016(2)
O4 O 0.80729(17) 1.09924(8) -0.0958(2)
O5 O 0.2422(2) 0.89489(8) -0.2749(2)
O6 O 1.07795(19) 1.14700(9) 0.0491(2)
O7 O 0.3204(2) 0.74973(8) -0.2232(3)
N1 N 0.8378(2) 1.03565(9) 0.0947(3)
N2 N 0.9264(2) 1.06110(10) 0.0434(3)
N3 N 0.3735(2) 0.87438(10) -0.0678(3)
N4 N 0.3243(2) 0.83908(10) -0.1463(3)
C1 C 0.7950(2) 0.99681(10) 0.0294(3)
C2 C 0.6854(2) 0.97578(10) 0.0702(3)
C3 C 0.6258(2) 0.99191(11) 0.1730(3)
H1 H 0.6569 1.0160 0.2253
C4 C 0.5200(2) 0.97254(11) 0.1991(3)
C5 C 0.4725(2) 0.93711(11) 0.1206(3)
H2 H 0.4010 0.9243 0.1372
C6 C 0.5324(2) 0.92099(10) 0.0173(3)
C7 C 0.6379(2) 0.94001(10) -0.0073(3)
H3 H 0.6777 0.9288 -0.0766
C8 C 0.4855(3) 0.88323(11) -0.0748(3)
C9 C 0.9038(2) 1.08957(11) -0.0593(3)
C10 C 1.0062(2) 1.10653(11) -0.1284(3)
C11 C 1.0128(3) 1.09354(16) -0.2542(4)
H4 H 0.9532 1.0762 -0.2928
C12 C 1.1058(4) 1.10576(19) -0.3231(4)
H5 H 1.1108 1.0955 -0.4068
C13 C 1.1908(4) 1.13283(18) -0.2690(5)
H6 H 1.2528 1.1419 -0.3169
C14 C 1.1865(3) 1.14706(14) -0.1438(4)
H7 H 1.2456 1.1652 -0.1071
C15 C 1.0932(3) 1.13397(11) -0.0733(3)
C16 C 0.2642(3) 0.85269(12) -0.2495(3)
C17 C 0.2182(3) 0.81148(12) -0.3321(3)
C18 C 0.1447(3) 0.82526(15) -0.4295(4)
H8 H 0.1280 0.8581 -0.4412
C19 C 0.0951(4) 0.79102(18) -0.5106(5)
H9 H 0.0472 0.8006 -0.5777
C20 C 0.1184(4) 0.74239(17) -0.4893(5)
H10 H 0.0826 0.7191 -0.5404
C21 C 0.1916(3) 0.72784(14) -0.3965(4)
H11 H 0.2079 0.6949 -0.3861
C22 C 0.2429(3) 0.76197(12) -0.3163(4)
C23 C 1.1636(3) 1.17525(17) 0.1121(4)
H12 H 1.1709 1.2067 0.0711
H13 H 1.2366 1.1587 0.1098
C24 C 1.1285(4) 1.18171(19) 0.2456(4)
H14 H 1.0552 1.1988 0.2481
C25 C 1.2161(7) 1.2083(3) 0.3212(9)
H15 H 1.2036 1.2032 0.4098
H16 H 1.2111 1.2424 0.3024
H17 H 1.2904 1.1965 0.3006
C26 C 1.1191(7) 1.1326(3) 0.3054(8)
H18 H 1.1915 1.1163 0.3028
H19 H 1.0626 1.1137 0.2598
H20 H 1.0972 1.1361 0.3919
C27 C 0.3528(4) 0.70022(13) -0.2043(5)
H21 H 0.3870 0.6871 -0.2798
H22 H 0.2870 0.6805 -0.1842
C28 C 0.4401(4) 0.70072(16) -0.0923(6)
H23 H 0.4073 0.7187 -0.0217
C29 C 0.4631(5) 0.64811(19) -0.0501(6)
H24 H 0.5009 0.6309 -0.1161
H25 H 0.3921 0.6323 -0.0329
H26 H 0.5108 0.6482 0.0253
C30 C 0.5456(5) 0.7258(2) -0.1310(8)
H27 H 0.6074 0.7170 -0.0740
H28 H 0.5342 0.7604 -0.1284
H29 H 0.5636 0.7162 -0.2156
C31 C 0.3525(3) 0.97742(13) 0.3253(3)
H30 H 0.3448 0.9422 0.3269
H31 H 0.3022 0.9901 0.2587
C32 C 0.3208(3) 0.99836(16) 0.4506(4)
H32 H 0.3695 0.9822 0.5147
C33 C 0.3437(4) 1.05009(19) 0.4619(6)
H33 H 0.4237 1.0559 0.4519
H34 H 0.3216 1.0612 0.5440
H35 H 0.3009 1.0674 0.3974
C34 C 0.1994(3) 0.98505(19) 0.4802(4)
H36 H 0.1807 0.9980 0.5615
H37 H 0.1917 0.9502 0.4815
H38 H 0.1486 0.9984 0.4164
H39 H 0.795(2) 1.0490(12) 0.146(3)
H40 H 0.9905(19) 1.0473(11) 0.051(3)
H41 H 0.325(2) 0.8872(11) -0.020(3)
H42 H 0.350(3) 0.8096(8) -0.133(3)
loop_
_geom_bond_atom_site_label_1
_geom_bond_atom_site_label_2
_geom_bond_site_symmetry_1
_geom_bond_site_symmetry_2
O1 C1 1_555 1_555
O2 C8 1_555 1_555
O3 C4 1_555 1_555
O4 C9 1_555 1_555
O5 C16 1_555 1_555
O6 C15 1_555 1_555
O7 C22 1_555 1_555
N1 N2 1_555 1_555
N2 C9 1_555 1_555
N3 N4 1_555 1_555
N4 C16 1_555 1_555
C1 N1 1_555 1_555
C2 C1 1_555 1_555
C3 C2 1_555 1_555
H1 C3 1_555 1_555
C4 C3 1_555 1_555
C5 C4 1_555 1_555
H2 C5 1_555 1_555
C6 C5 1_555 1_555
C7 C2 1_555 1_555
H3 C7 1_555 1_555
C8 N3 1_555 1_555
C9 C10 1_555 1_555
C10 C11 1_555 1_555
C11 H4 1_555 1_555
C12 C11 1_555 1_555
H5 C12 1_555 1_555
C13 C12 1_555 1_555
H6 C13 1_555 1_555
C14 C13 1_555 1_555
H7 C14 1_555 1_555
C15 C10 1_555 1_555
C16 C17 1_555 1_555
C17 C18 1_555 1_555
C18 H8 1_555 1_555
C19 C18 1_555 1_555
H9 C19 1_555 1_555
C20 C19 1_555 1_555
H10 C20 1_555 1_555
C21 C20 1_555 1_555
H11 C21 1_555 1_555
C22 C17 1_555 1_555
C23 O6 1_555 1_555
H12 C23 1_555 1_555
H13 C23 1_555 1_555
C24 C23 1_555 1_555
H14 C24 1_555 1_555
C25 C24 1_555 1_555
H15 C25 1_555 1_555
H16 C25 1_555 1_555
H17 C25 1_555 1_555
C26 C24 1_555 1_555
H18 C26 1_555 1_555
H19 C26 1_555 1_555
H20 C26 1_555 1_555
C27 O7 1_555 1_555
H21 C27 1_555 1_555
H22 C27 1_555 1_555
C28 C27 1_555 1_555
H23 C28 1_555 1_555
C29 C28 1_555 1_555
H24 C29 1_555 1_555
H25 C29 1_555 1_555
H26 C29 1_555 1_555
C30 C28 1_555 1_555
H27 C30 1_555 1_555
H28 C30 1_555 1_555
H29 C30 1_555 1_555
C31 O3 1_555 1_555
H30 C31 1_555 1_555
H31 C31 1_555 1_555
C32 C31 1_555 1_555
H32 C32 1_555 1_555
C33 C32 1_555 1_555
H33 C33 1_555 1_555
H34 C33 1_555 1_555
H35 C33 1_555 1_555
C34 C32 1_555 1_555
H36 C34 1_555 1_555
H37 C34 1_555 1_555
H38 C34 1_555 1_555
H39 N1 1_555 1_555
H40 N2 1_555 1_555
H41 N3 1_555 1_555
H42 N4 1_555 1_555
C6 C7 1_555 1_555
C6 C8 1_555 1_555
C14 C15 1_555 1_555
C21 C22 1_555 1_555

#END
