
#######################################################################
#
#                 Cambridge Crystallographic Data Centre
#                                CCDC 
#
#######################################################################
#
# If this CIF has been generated from an entry in the Cambridge 
# Structural Database, then it will include bibliographic, chemical, 
# crystal, experimental, refinement or atomic coordinate data resulting 
# from the CCDC's data processing and validation procedures.
#
#######################################################################

data_BUGROL
_chemical_formula_moiety         'C15 H11 F3 N4 O2'
_chemical_name_systematic        
'Ethyl 7-cyano-6,8,9-trifluoro-5-imino-1,2,3,5-tetrahydroimidazo[1,2-b]isoquinoline-10-carboxylate'
_symmetry_cell_setting           triclinic
_symmetry_space_group_name_H-M   'P -1'
_symmetry_Int_Tables_number      2
_space_group_name_Hall           '-P 1'
loop_
_symmetry_equiv_pos_site_id
_symmetry_equiv_pos_as_xyz
1 x,y,z
2 -x,-y,-z
_cell_length_a                   10.132(2)
_cell_length_b                   11.359(2)
_cell_length_c                   14.539(3)
_cell_angle_alpha                71.25(3)
_cell_angle_beta                 80.58(3)
_cell_angle_gamma                64.15(3)
_cell_volume                     1425.39
_cell_formula_units_Z            4
loop_
_atom_site_label
_atom_site_type_symbol
_atom_site_fract_x
_atom_site_fract_y
_atom_site_fract_z
N1 N 1.05425(19) -0.28402(18) 0.48035(14)
N2 N 0.36075(15) 0.30643(13) 0.39899(10)
N3 N 0.16580(16) 0.37960(14) 0.31266(11)
N4 N 0.49828(16) 0.23254(15) 0.53148(11)
O1 O 0.18694(14) 0.21769(13) 0.19724(10)
O2 O 0.30515(13) -0.00027(12) 0.28377(9)
F1 F 0.77573(11) 0.02504(10) 0.51059(7)
F2 F 0.83103(11) -0.22528(10) 0.29597(8)
F3 F 0.57290(11) -0.05174(10) 0.22130(7)
C1 C 0.71631(18) 0.00593(17) 0.44307(12)
C2 C 0.80370(18) -0.10537(17) 0.40861(13)
C3 C 0.74768(18) -0.12159(17) 0.33414(13)
C4 C 0.61217(19) -0.03392(17) 0.29859(12)
C5 C 0.51766(18) 0.07317(16) 0.33797(12)
C6 C 0.57489(18) 0.09495(17) 0.41179(12)
C7 C 0.48261(18) 0.20958(16) 0.45449(12)
C8 C 0.30008(18) 0.28093(17) 0.33408(12)
C9 C 0.37163(18) 0.16246(17) 0.30411(12)
C10 C 0.25291(18) 0.42461(17) 0.43185(13)
H1 H 0.2950 0.4902 0.4277
H2 H 0.2177 0.3954 0.4994
C11 C 0.12962(19) 0.48610(18) 0.35980(13)
H3 H 0.0327 0.5059 0.3939
H4 H 0.1289 0.5711 0.3120
C12 C 0.9442(2) -0.20237(19) 0.44813(14)
C13 C 0.28176(19) 0.13148(17) 0.25440(12)
C14 C 0.2125(2) -0.03840(19) 0.24269(15)
H5 H 0.2129 -0.0024 0.1710
H6 H 0.1102 -0.0005 0.2678
C15 C 0.2735(2) -0.1901(2) 0.27200(16)
H7 H 0.3753 -0.2264 0.2479
H8 H 0.2150 -0.2194 0.2444
H9 H 0.2705 -0.2244 0.3430
H19 H 0.575(2) 0.169(2) 0.5633(15)
H20 H 0.115(2) 0.384(2) 0.2669(16)
N5 N 0.09470(17) 0.98296(16) -0.14870(13)
N6 N 0.81244(14) 0.42018(14) -0.06639(10)
N7 N 0.98237(16) 0.33543(15) 0.04247(11)
N8 N 0.64731(17) 0.44105(16) -0.16535(11)
O3 O 0.92146(13) 0.48071(12) 0.17935(9)
O4 O 0.67767(13) 0.55810(13) 0.21155(8)
F4 F 0.39021(11) 0.68116(10) -0.18052(7)
F5 F 0.32729(11) 0.96139(10) 0.01294(8)
F6 F 0.58769(11) 0.79832(10) 0.08973(8)
C16 C 0.44166(18) 0.70120(17) -0.10923(12)
C17 C 0.35110(18) 0.81715(17) -0.08008(13)
C18 C 0.40674(19) 0.84446(17) -0.01145(13)
C19 C 0.53819(18) 0.75821(17) 0.02943(12)
C20 C 0.62459(17) 0.63405(17) 0.00762(12)
C21 C 0.57649(17) 0.60894(16) -0.06884(12)
C22 C 0.67191(17) 0.48887(17) -0.10462(12)
C23 C 0.85225(18) 0.43514(17) 0.01326(12)
C24 C 0.75923(17) 0.53838(17) 0.05537(12)
C25 C 0.92143(18) 0.29609(17) -0.09087(13)
H10 H 0.9598 0.3179 -0.1584
H11 H 0.8788 0.2297 -0.0828
C26 C 1.04223(19) 0.24093(18) -0.01732(13)
H12 H 1.0598 0.1467 0.0223
H13 H 1.1353 0.2421 -0.0506
C27 C 0.79639(18) 0.52537(16) 0.15248(12)
C28 C 0.20860(19) 0.90760(18) -0.11979(13)
C29 C 0.6969(2) 0.5431(2) 0.31280(13)
H14 H 0.6458 0.6325 0.3267
H15 H 0.8024 0.5072 0.3256
C30 C 0.6346(3) 0.4474(3) 0.37468(15)
H16 H 0.5317 0.4813 0.3588
H17 H 0.6407 0.4395 0.4431
H18 H 0.6900 0.3577 0.3633
H21 H 0.557(2) 0.487(2) -0.1857(15)
H22 H 1.031(3) 0.327(2) 0.0919(17)
loop_
_geom_bond_atom_site_label_1
_geom_bond_atom_site_label_2
_geom_bond_site_symmetry_1
_geom_bond_site_symmetry_2
N1 C12 1_555 1_555
N2 C7 1_555 1_555
N3 C8 1_555 1_555
N4 C7 1_555 1_555
N5 C28 1_555 1_555
N6 C22 1_555 1_555
N7 C23 1_555 1_555
N8 C22 1_555 1_555
O1 C13 1_555 1_555
O2 C13 1_555 1_555
O3 C27 1_555 1_555
O4 C27 1_555 1_555
F1 C1 1_555 1_555
F2 C3 1_555 1_555
F3 C4 1_555 1_555
F4 C16 1_555 1_555
F5 C18 1_555 1_555
F6 C19 1_555 1_555
C1 C2 1_555 1_555
C2 C3 1_555 1_555
C3 C4 1_555 1_555
C4 C5 1_555 1_555
C5 C6 1_555 1_555
C6 C1 1_555 1_555
C7 C6 1_555 1_555
C8 N2 1_555 1_555
C9 C5 1_555 1_555
C10 N2 1_555 1_555
H1 C10 1_555 1_555
H2 C10 1_555 1_555
C11 N3 1_555 1_555
H3 C11 1_555 1_555
H4 C11 1_555 1_555
C12 C2 1_555 1_555
C13 C9 1_555 1_555
C14 O2 1_555 1_555
H5 C14 1_555 1_555
H6 C14 1_555 1_555
C15 C14 1_555 1_555
H7 C15 1_555 1_555
H8 C15 1_555 1_555
H9 C15 1_555 1_555
C16 C17 1_555 1_555
C17 C18 1_555 1_555
C18 C19 1_555 1_555
C19 C20 1_555 1_555
C20 C21 1_555 1_555
C21 C16 1_555 1_555
C22 C21 1_555 1_555
C23 N6 1_555 1_555
C24 C20 1_555 1_555
C25 N6 1_555 1_555
H10 C25 1_555 1_555
H11 C25 1_555 1_555
C26 N7 1_555 1_555
H12 C26 1_555 1_555
H13 C26 1_555 1_555
C27 C24 1_555 1_555
C28 C17 1_555 1_555
C29 O4 1_555 1_555
H14 C29 1_555 1_555
H15 C29 1_555 1_555
C30 C29 1_555 1_555
H16 C30 1_555 1_555
H17 C30 1_555 1_555
H18 C30 1_555 1_555
H19 N4 1_555 1_555
H20 N3 1_555 1_555
H21 N8 1_555 1_555
H22 N7 1_555 1_555
C8 C9 1_555 1_555
C10 C11 1_555 1_555
C23 C24 1_555 1_555
C25 C26 1_555 1_555

#END
