
#######################################################################
#
#                 Cambridge Crystallographic Data Centre
#                                CCDC 
#
#######################################################################
#
# If this CIF has been generated from an entry in the Cambridge 
# Structural Database, then it will include bibliographic, chemical, 
# crystal, experimental, refinement or atomic coordinate data resulting 
# from the CCDC's data processing and validation procedures.
#
#######################################################################

data_BUHGOC
_chemical_formula_moiety         'C18 H19 N1 O3'
_chemical_name_systematic        
3-(4-(dimethylamino)phenyl)-1-(2-hydroxy-4-methoxyphenyl)prop-2-en-1-one
_symmetry_cell_setting           monoclinic
_symmetry_space_group_name_H-M   'P 21/c'
_symmetry_Int_Tables_number      14
_space_group_name_Hall           '-P 2ybc'
loop_
_symmetry_equiv_pos_site_id
_symmetry_equiv_pos_as_xyz
1 x,y,z
2 -x,1/2+y,1/2-z
3 -x,-y,-z
4 x,1/2-y,1/2+z
_cell_length_a                   10.194(2)
_cell_length_b                   13.554(3)
_cell_length_c                   12.613(5)
_cell_angle_alpha                90
_cell_angle_beta                 116.48(2)
_cell_angle_gamma                90
_cell_volume                     1559.9
_exptl_crystal_colour            red
_exptl_crystal_description       block
_cell_formula_units_Z            4
loop_
_atom_site_label
_atom_site_type_symbol
_atom_site_fract_x
_atom_site_fract_y
_atom_site_fract_z
C1 C 0.6147(4) 0.2041(2) -0.2269(3)
C2 C 0.4945(4) 0.2577(2) -0.3034(3)
H1 H 0.4602 0.2522 -0.3850
C3 C 0.4268(4) 0.3189(3) -0.2573(3)
C4 C 0.4779(4) 0.3278(3) -0.1369(3)
H2 H 0.4315 0.3702 -0.1064
C5 C 0.5964(4) 0.2746(3) -0.0625(3)
H3 H 0.6291 0.2809 0.0188
C6 C 0.6699(3) 0.2113(2) -0.1040(2)
C7 C 0.7976(4) 0.1530(2) -0.0272(3)
C8 C 0.8511(4) 0.1557(2) 0.1005(3)
H4 H 0.8019 0.1946 0.1321
C9 C 0.9673(4) 0.1048(2) 0.1738(3)
H5 H 1.0133 0.0666 0.1390
C10 C 1.0303(3) 0.1019(2) 0.3010(3)
C11 C 0.9768(4) 0.1559(3) 0.3662(3)
H6 H 0.8972 0.1974 0.3261
C12 C 1.0358(4) 0.1509(2) 0.4870(3)
H7 H 0.9958 0.1890 0.5266
C13 C 1.1551(4) 0.0894(2) 0.5521(3)
C14 C 1.2117(4) 0.0359(3) 0.4868(3)
H8 H 1.2921 -0.0052 0.5261
C15 C 1.1506(4) 0.0431(3) 0.3667(3)
H9 H 1.1919 0.0068 0.3266
C16 C 1.1551(5) 0.1411(3) 0.7386(3)
H10 H 1.1450 0.2089 0.7144
H11 H 1.2204 0.1365 0.8216
H12 H 1.0609 0.1152 0.7241
C17 C 1.3346(5) 0.0185(3) 0.7385(3)
H13 H 1.3050 -0.0483 0.7139
H14 H 1.3618 0.0249 0.8215
H15 H 1.4168 0.0350 0.7241
C18 C 0.2580(5) 0.3765(3) -0.4488(3)
H16 H 0.3335 0.4019 -0.4670
H17 H 0.1726 0.4175 -0.4848
H18 H 0.2337 0.3105 -0.4788
N1 N 1.2138(3) 0.0847(2) 0.6719(2)
O1 O 0.6799(3) 0.1458(2) -0.2766(2)
H19 H 0.7502 0.1177 -0.2243
O2 O 0.8613(3) 0.10071(18) -0.0724(2)
O3 O 0.3085(3) 0.3758(2) -0.3244(2)
loop_
_geom_bond_atom_site_label_1
_geom_bond_atom_site_label_2
_geom_bond_site_symmetry_1
_geom_bond_site_symmetry_2
C1 C2 1_555 1_555
C2 H1 1_555 1_555
C3 C2 1_555 1_555
C4 C3 1_555 1_555
H2 C4 1_555 1_555
C5 C4 1_555 1_555
H3 C5 1_555 1_555
C6 C1 1_555 1_555
C7 C6 1_555 1_555
C8 C7 1_555 1_555
H4 C8 1_555 1_555
C9 C8 1_555 1_555
H5 C9 1_555 1_555
C10 C9 1_555 1_555
C11 C10 1_555 1_555
H6 C11 1_555 1_555
C12 C11 1_555 1_555
H7 C12 1_555 1_555
C13 C12 1_555 1_555
C14 C13 1_555 1_555
H8 C14 1_555 1_555
C15 C10 1_555 1_555
H9 C15 1_555 1_555
C16 H10 1_555 1_555
H11 C16 1_555 1_555
H12 C16 1_555 1_555
C17 H13 1_555 1_555
H14 C17 1_555 1_555
H15 C17 1_555 1_555
C18 H16 1_555 1_555
H17 C18 1_555 1_555
H18 C18 1_555 1_555
N1 C13 1_555 1_555
O1 C1 1_555 1_555
H19 O1 1_555 1_555
O2 C7 1_555 1_555
O3 C3 1_555 1_555
C5 C6 1_555 1_555
C14 C15 1_555 1_555
C16 N1 1_555 1_555
C17 N1 1_555 1_555
C18 O3 1_555 1_555

#END
