
#######################################################################
#
#                 Cambridge Crystallographic Data Centre
#                                CCDC 
#
#######################################################################
#
# If this CIF has been generated from an entry in the Cambridge 
# Structural Database, then it will include bibliographic, chemical, 
# crystal, experimental, refinement or atomic coordinate data resulting 
# from the CCDC's data processing and validation procedures.
#
#######################################################################

data_BUHQOK
_chemical_formula_moiety         'C30 H25 N2 O2 P1,C1 H2 Cl2'
_chemical_name_systematic        
'rac-1,3-bis(o-Tolyl)-2-phenyl-2,3-dihydro-1H-(1,2,4)diazaphospholo-(1,2-b)phthalazine-5,10-dione dichloromethane solvate'
_symmetry_cell_setting           monoclinic
_symmetry_space_group_name_H-M   'C 2/c'
_symmetry_Int_Tables_number      15
_space_group_name_Hall           '-C 2yn'
loop_
_symmetry_equiv_pos_site_id
_symmetry_equiv_pos_as_xyz
1 x,y,z
2 1/2+x,1/2+y,z
3 x,-y,1/2+z
4 1/2+x,1/2-y,1/2+z
5 -x,-y,-z
6 1/2-x,1/2-y,-z
7 -x,y,1/2-z
8 1/2-x,1/2+y,1/2-z
_cell_length_a                   32.189(4)
_cell_length_b                   8.5086(11)
_cell_length_c                   20.225(3)
_cell_angle_alpha                90.00
_cell_angle_beta                 98.652(3)
_cell_angle_gamma                90.00
_cell_volume                     5476.25
_exptl_crystal_colour            colorless
_exptl_crystal_description       prism
_cell_formula_units_Z            8
loop_
_atom_site_label
_atom_site_type_symbol
_atom_site_fract_x
_atom_site_fract_y
_atom_site_fract_z
P1 P 0.066460(14) 0.41627(6) 0.21511(2)
N1 N 0.11274(4) 0.34489(18) 0.12077(6)
N2 N 0.14265(4) 0.38081(18) 0.17725(6)
O1 O 0.09492(4) 0.23591(17) 0.01923(6)
O2 O 0.20987(4) 0.42432(17) 0.22278(6)
C1 C 0.12233(5) 0.2655(2) 0.06675(8)
C2 C 0.16680(5) 0.2207(2) 0.07012(8)
C3 C 0.17886(6) 0.1261(2) 0.01992(9)
H1 H 0.1586 0.0926 -0.0164
C4 C 0.22020(6) 0.0816(2) 0.02330(11)
H2 H 0.2284 0.0166 -0.0106
C5 C 0.24996(6) 0.1313(3) 0.07603(11)
H3 H 0.2783 0.0984 0.0783
C6 C 0.23871(6) 0.2276(3) 0.12502(10)
H4 H 0.2594 0.2633 0.1604
C7 C 0.19685(5) 0.2726(2) 0.12261(8)
C8 C 0.18485(5) 0.3678(2) 0.17727(8)
C9 C 0.12486(5) 0.4496(2) 0.23337(8)
H5 H 0.1305 0.5652 0.2347
C10 C 0.07054(5) 0.4052(2) 0.12439(8)
H6 H 0.0494 0.3280 0.1026
C11 C 0.14234(5) 0.3791(2) 0.30059(8)
C12 C 0.15601(6) 0.2242(2) 0.30563(9)
H7 H 0.1570 0.1648 0.2661
C13 C 0.16819(6) 0.1552(3) 0.36733(10)
H8 H 0.1777 0.0494 0.3701
C14 C 0.16646(7) 0.2402(3) 0.42469(9)
H9 H 0.1744 0.1928 0.4672
C15 C 0.15323(6) 0.3940(3) 0.42041(9)
H10 H 0.1522 0.4516 0.4604
C16 C 0.14132(5) 0.4675(2) 0.35872(8)
C17 C 0.12791(7) 0.6359(3) 0.35666(10)
H11 H 0.1272 0.6734 0.4023
H12 H 0.0998 0.6455 0.3304
H13 H 0.1479 0.6993 0.3360
C18 C 0.06198(5) 0.5641(2) 0.09125(8)
C19 C 0.09450(6) 0.6582(2) 0.07622(9)
H14 H 0.1226 0.6212 0.0858
C20 C 0.08674(7) 0.8045(3) 0.04752(11)
H15 H 0.1094 0.8681 0.0380
C21 C 0.04579(7) 0.8579(3) 0.03271(11)
H16 H 0.0401 0.9580 0.0126
C22 C 0.01329(6) 0.7653(2) 0.04727(10)
H17 H -0.0147 0.8030 0.0368
C23 C 0.02014(5) 0.6180(2) 0.07691(8)
C24 C -0.01633(5) 0.5232(2) 0.09285(9)
H18 H -0.0427 0.5731 0.0727
H19 H -0.0154 0.5178 0.1415
H20 H -0.0148 0.4168 0.0748
C25 C 0.06231(5) 0.2094(2) 0.23705(9)
C26 C 0.06663(6) 0.0812(2) 0.19610(10)
H21 H 0.0736 0.0978 0.1526
C27 C 0.06092(7) -0.0704(3) 0.21786(12)
H22 H 0.0639 -0.1572 0.1894
C28 C 0.05095(7) -0.0952(3) 0.28096(13)
H23 H 0.0466 -0.1992 0.2957
C29 C 0.04723(7) 0.0297(3) 0.32258(12)
H24 H 0.0410 0.0119 0.3664
C30 C 0.05258(6) 0.1804(3) 0.30100(10)
H25 H 0.0496 0.2662 0.3300
Cl1 Cl 0.18271(2) 0.14214(8) 0.69712(3)
Cl2 Cl 0.214954(17) 0.31474(7) 0.59153(2)
C31 C 0.22704(7) 0.2324(3) 0.67214(10)
H26 H 0.2497 0.1536 0.6723
H27 H 0.2374 0.3160 0.7045
loop_
_geom_bond_atom_site_label_1
_geom_bond_atom_site_label_2
_geom_bond_site_symmetry_1
_geom_bond_site_symmetry_2
P1 C9 1_555 1_555
N1 N2 1_555 1_555
N2 C8 1_555 1_555
O1 C1 1_555 1_555
O2 C8 1_555 1_555
C1 N1 1_555 1_555
C2 C1 1_555 1_555
C3 C2 1_555 1_555
H1 C3 1_555 1_555
C4 C3 1_555 1_555
H2 C4 1_555 1_555
C5 C4 1_555 1_555
H3 C5 1_555 1_555
C6 C5 1_555 1_555
H4 C6 1_555 1_555
C7 C2 1_555 1_555
C8 C7 1_555 1_555
C9 N2 1_555 1_555
H5 C9 1_555 1_555
C10 P1 1_555 1_555
H6 C10 1_555 1_555
C11 C9 1_555 1_555
C12 C11 1_555 1_555
H7 C12 1_555 1_555
C13 C12 1_555 1_555
H8 C13 1_555 1_555
C14 C13 1_555 1_555
H9 C14 1_555 1_555
C15 C14 1_555 1_555
H10 C15 1_555 1_555
C16 C11 1_555 1_555
C17 C16 1_555 1_555
H11 C17 1_555 1_555
H12 C17 1_555 1_555
H13 C17 1_555 1_555
C18 C10 1_555 1_555
C19 C18 1_555 1_555
H14 C19 1_555 1_555
C20 C19 1_555 1_555
H15 C20 1_555 1_555
C21 C20 1_555 1_555
H16 C21 1_555 1_555
C22 C21 1_555 1_555
H17 C22 1_555 1_555
C23 C18 1_555 1_555
C24 C23 1_555 1_555
H18 C24 1_555 1_555
H19 C24 1_555 1_555
H20 C24 1_555 1_555
C25 P1 1_555 1_555
C26 C25 1_555 1_555
H21 C26 1_555 1_555
C27 C26 1_555 1_555
H22 C27 1_555 1_555
C28 C27 1_555 1_555
H23 C28 1_555 1_555
C29 C28 1_555 1_555
H24 C29 1_555 1_555
C30 C25 1_555 1_555
H25 C30 1_555 1_555
Cl1 C31 1_555 1_555
Cl2 C31 1_555 1_555
C31 H26 1_555 1_555
H27 C31 1_555 1_555
N1 C10 1_555 1_555
C6 C7 1_555 1_555
C15 C16 1_555 1_555
C22 C23 1_555 1_555
C29 C30 1_555 1_555

#END
