
#######################################################################
#
#                 Cambridge Crystallographic Data Centre
#                                CCDC 
#
#######################################################################
#
# If this CIF has been generated from an entry in the Cambridge 
# Structural Database, then it will include bibliographic, chemical, 
# crystal, experimental, refinement or atomic coordinate data resulting 
# from the CCDC's data processing and validation procedures.
#
#######################################################################

data_BUHWEH
_chemical_formula_moiety         'C32 H23 Cl2 N1 Te1,C1 O2,2.5(H2 O1)'
_chemical_name_systematic        
'N-(9-Anthrylmethylene)-2-(dichloro(1-naphthyl)-\l^4^-tellanyl)-4-methylaniline carbon dioxide hydrate'
_symmetry_cell_setting           triclinic
_symmetry_space_group_name_H-M   'P -1'
_symmetry_Int_Tables_number      2
_space_group_name_Hall           '-P 1'
loop_
_symmetry_equiv_pos_site_id
_symmetry_equiv_pos_as_xyz
1 x,y,z
2 -x,-y,-z
_cell_length_a                   7.618(3)
_cell_length_b                   13.128(4)
_cell_length_c                   15.219(5)
_cell_angle_alpha                105.680(5)
_cell_angle_beta                 104.380(6)
_cell_angle_gamma                95.868(5)
_cell_volume                     1395.89
_exptl_crystal_colour            yellow
_chemical_melting_point          207-209deg.C
_cell_formula_units_Z            2
loop_
_atom_site_label
_atom_site_type_symbol
_atom_site_fract_x
_atom_site_fract_y
_atom_site_fract_z
C1 C 1.112(3) 0.1111(17) 0.9843(15)
O1 O 0.9433(14) 0.0875(8) 0.9773(7)
O5 O 1.3096(13) 0.1502(7) 1.0098(7)
C2 C 0.7156(9) 0.1642(6) 0.3291(5)
H1 H 0.7676 0.2307 0.3277
C3 C 0.5836(10) 0.0997(6) 0.2513(6)
H2 H 0.5487 0.1217 0.1972
C4 C 0.4966(11) -0.0028(7) 0.2514(7)
H3 H 0.4066 -0.0479 0.1978
C5 C 0.5489(11) -0.0321(6) 0.3318(7)
H4 H 0.4906 -0.0974 0.3329
C6 C 0.9185(12) 0.0294(7) 0.6587(7)
H5 H 0.8568 -0.0362 0.6572
C7 C 1.0519(13) 0.0896(7) 0.7398(6)
H6 H 1.0819 0.0649 0.7925
C8 C 1.1446(12) 0.1911(7) 0.7425(6)
H7 H 1.2343 0.2331 0.7977
C9 C 1.1035(11) 0.2267(6) 0.6658(5)
H8 H 1.1679 0.2924 0.6691
C10 C 0.9173(9) 0.1995(5) 0.4952(5)
C11 C 0.7387(10) 0.0016(6) 0.4958(6)
H9 H 0.6797 -0.0642 0.4955
C12 C 0.8716(10) 0.0636(6) 0.5770(6)
C13 C 0.9629(10) 0.1662(6) 0.5787(5)
C14 C 0.7782(9) 0.1347(6) 0.4128(5)
C15 C 0.6879(10) 0.0326(6) 0.4133(6)
C16 C 1.0203(10) 0.3024(6) 0.5003(5)
H10 H 1.0667 0.3535 0.5602
C17 C 1.1612(9) 0.4289(5) 0.4434(5)
C18 C 1.1671(9) 0.4517(5) 0.3590(4)
C19 C 1.2643(9) 0.5456(5) 0.3590(5)
H11 H 1.2592 0.5598 0.3018
C20 C 1.3706(9) 0.6195(5) 0.4449(5)
C21 C 1.3695(9) 0.5959(5) 0.5299(5)
H12 H 1.4402 0.6445 0.5878
C22 C 1.2661(9) 0.5022(5) 0.5297(5)
H13 H 1.2672 0.4888 0.5867
C23 C 1.4861(10) 0.7216(5) 0.4478(5)
H14 H 1.5507 0.7617 0.5128
H15 H 1.4076 0.7642 0.4199
H16 H 1.5733 0.7038 0.4128
C24 C 1.0853(9) 0.3695(5) 0.1268(5)
C25 C 1.2663(9) 0.4018(6) 0.1396(5)
H17 H 1.3509 0.4114 0.1983
C26 C 1.3278(10) 0.4209(6) 0.0648(5)
H18 H 1.4527 0.4437 0.0744
C27 C 1.2056(10) 0.4064(6) -0.0219(5)
H19 H 1.2475 0.4224 -0.0699
C28 C 0.8870(10) 0.3471(6) -0.1309(5)
H20 H 0.9281 0.3621 -0.1795
C29 C 0.7092(11) 0.3070(6) -0.1481(5)
H21 H 0.6279 0.2933 -0.2085
C30 C 0.6444(11) 0.2855(6) -0.0736(5)
H22 H 0.5212 0.2563 -0.0856
C31 C 0.7617(10) 0.3075(6) 0.0143(5)
H23 H 0.7164 0.2961 0.0629
C32 C 0.9499(10) 0.3470(5) 0.0345(5)
C33 C 1.0147(10) 0.3671(6) -0.0398(5)
N1 N 1.0517(8) 0.3280(4) 0.4300(4)
Te1 Te 0.99330(6) 0.33209(3) 0.23695(3)
Cl1 Cl 1.2225(3) 0.21496(14) 0.25232(13)
Cl2 Cl 0.7845(2) 0.47506(14) 0.23110(12)
O3 O 0.750(4) 0.016(2) 1.0078(18)
O4 O 0.5000 0.0000 0.0000
O2? O 0.8765(17) 0.0619(10) 1.0764(9)
loop_
_geom_bond_atom_site_label_1
_geom_bond_atom_site_label_2
_geom_bond_site_symmetry_1
_geom_bond_site_symmetry_2
C1 O1 1_555 1_555
C2 H1 1_555 1_555
C3 C2 1_555 1_555
H2 C3 1_555 1_555
C4 C3 1_555 1_555
H3 C4 1_555 1_555
C5 C4 1_555 1_555
H4 C5 1_555 1_555
C6 H5 1_555 1_555
C7 C6 1_555 1_555
H6 C7 1_555 1_555
C8 C7 1_555 1_555
H7 C8 1_555 1_555
C9 C8 1_555 1_555
H8 C9 1_555 1_555
C10 C13 1_555 1_555
C11 H9 1_555 1_555
C12 C6 1_555 1_555
C13 C9 1_555 1_555
C14 C2 1_555 1_555
C15 C5 1_555 1_555
C16 C10 1_555 1_555
H10 C16 1_555 1_555
C17 C18 1_555 1_555
C18 C19 1_555 1_555
C19 H11 1_555 1_555
C20 C19 1_555 1_555
C21 C20 1_555 1_555
H12 C21 1_555 1_555
C22 C17 1_555 1_555
H13 C22 1_555 1_555
C23 C20 1_555 1_555
H14 C23 1_555 1_555
H15 C23 1_555 1_555
H16 C23 1_555 1_555
C24 C25 1_555 1_555
C25 H17 1_555 1_555
C26 C25 1_555 1_555
H18 C26 1_555 1_555
C27 C26 1_555 1_555
H19 C27 1_555 1_555
C28 H20 1_555 1_555
C29 C28 1_555 1_555
H21 C29 1_555 1_555
C30 C29 1_555 1_555
H22 C30 1_555 1_555
C31 C30 1_555 1_555
H23 C31 1_555 1_555
C32 C24 1_555 1_555
C33 C27 1_555 1_555
N1 C16 1_555 1_555
Te1 C18 1_555 1_555
Cl1 Te1 1_555 1_555
Cl2 Te1 1_555 1_555
O5 C1 1_555 1_555
C10 C14 1_555 1_555
C11 C12 1_555 1_555
C11 C15 1_555 1_555
C12 C13 1_555 1_555
C14 C15 1_555 1_555
C17 N1 1_555 1_555
C21 C22 1_555 1_555
C24 Te1 1_555 1_555
C28 C33 1_555 1_555
C31 C32 1_555 1_555
C32 C33 1_555 1_555

#END
