
#######################################################################
#
#                 Cambridge Crystallographic Data Centre
#                                CCDC 
#
#######################################################################
#
# If this CIF has been generated from an entry in the Cambridge 
# Structural Database, then it will include bibliographic, chemical, 
# crystal, experimental, refinement or atomic coordinate data resulting 
# from the CCDC's data processing and validation procedures.
#
#######################################################################

data_BUJNAV
_chemical_formula_moiety         'C11 H13 N1 O2 S1'
_chemical_name_systematic        
(1\b,2\a,5\a)-3,5-Dimethyl-1-oxo-2-phenyl-4-thiazolidinone
_symmetry_cell_setting           monoclinic
_symmetry_space_group_name_H-M   'P 21/c'
_symmetry_Int_Tables_number      14
_space_group_name_Hall           '-P 2ybc'
loop_
_symmetry_equiv_pos_site_id
_symmetry_equiv_pos_as_xyz
1 x,y,z
2 -x,1/2+y,1/2-z
3 -x,-y,-z
4 x,1/2-y,1/2+z
_cell_length_a                   7.942(1)
_cell_length_b                   20.649(3)
_cell_length_c                   7.109(1)
_cell_angle_alpha                90
_cell_angle_beta                 108.68(1)
_cell_angle_gamma                90
_cell_volume                     1104.42
_exptl_crystal_colour            yellow
_chemical_melting_point          137-9deg.C
_cell_formula_units_Z            4
loop_
_atom_site_label
_atom_site_type_symbol
_atom_site_fract_x
_atom_site_fract_y
_atom_site_fract_z
S1 S 0.30093 0.34628 0.33454
C1 C 0.35910 0.33284 0.10470
N1 N 0.49800 0.37907 0.11650
C2 C 0.50840 0.43148 0.23270
C3 C 0.36630 0.43039 0.33300
O1 O 0.44250 0.31508 0.49860
C4 C 0.21060 0.47478 0.23240
O2 O 0.61690 0.47482 0.25490
C5 C 0.62010 0.36865 0.00430
C6 C 0.19410 0.33781 -0.07420
C7 C 0.16950 0.38671 -0.21520
C8 C 0.01090 0.38954 -0.37100
C9 C -0.12210 0.34688 -0.38510
C10 C -0.09810 0.29866 -0.24500
C11 C 0.05870 0.29353 -0.09300
H1 H 0.41100 0.29000 0.12400
H2 H 0.42000 0.43900 0.47000
H3 H 0.12500 0.47000 0.29300
H4 H 0.16300 0.46500 0.09400
H5 H 0.26300 0.51600 0.25100
H6 H 0.55700 0.35800 -0.12700
H7 H 0.69600 0.34600 0.05900
H8 H 0.70300 0.41100 0.02700
H9 H 0.25900 0.41800 -0.19500
H10 H 0.00800 0.42700 -0.46300
H11 H -0.22300 0.34600 -0.47500
H12 H -0.18300 0.26900 -0.25300
H13 H 0.07700 0.26200 0.00100
loop_
_geom_bond_atom_site_label_1
_geom_bond_atom_site_label_2
_geom_bond_site_symmetry_1
_geom_bond_site_symmetry_2
S1 C1 1_555 1_555
C1 N1 1_555 1_555
N1 C2 1_555 1_555
C2 C3 1_555 1_555
C3 S1 1_555 1_555
O1 S1 1_555 1_555
C4 C3 1_555 1_555
O2 C2 1_555 1_555
C5 N1 1_555 1_555
C6 C1 1_555 1_555
C7 C6 1_555 1_555
C8 C7 1_555 1_555
C9 C8 1_555 1_555
C10 C9 1_555 1_555
C11 C6 1_555 1_555
H1 C1 1_555 1_555
H2 C3 1_555 1_555
H3 C4 1_555 1_555
H4 C4 1_555 1_555
H5 C4 1_555 1_555
H6 C5 1_555 1_555
H7 C5 1_555 1_555
H8 C5 1_555 1_555
H9 C7 1_555 1_555
H10 C8 1_555 1_555
H11 C9 1_555 1_555
H12 C10 1_555 1_555
H13 C11 1_555 1_555
C10 C11 1_555 1_555

#END
