
#######################################################################
#
#                 Cambridge Crystallographic Data Centre
#                                CCDC 
#
#######################################################################
#
# If this CIF has been generated from an entry in the Cambridge 
# Structural Database, then it will include bibliographic, chemical, 
# crystal, experimental, refinement or atomic coordinate data resulting 
# from the CCDC's data processing and validation procedures.
#
#######################################################################

data_BUJPIG
_chemical_formula_moiety         'C24 H21 N3 O2 S1'
_chemical_name_systematic        
1-((4-Methylphenyl)sulfonyl)-5,6-diphenyl-2,3-dihydro-1H-imidazo[1,2-a]imidazole
_symmetry_cell_setting           monoclinic
_symmetry_space_group_name_H-M   'P 21/n'
_symmetry_Int_Tables_number      14
_space_group_name_Hall           '-P 2yn'
loop_
_symmetry_equiv_pos_site_id
_symmetry_equiv_pos_as_xyz
1 x,y,z
2 1/2-x,1/2+y,1/2-z
3 -x,-y,-z
4 1/2+x,1/2-y,1/2+z
_cell_length_a                   12.6496(16)
_cell_length_b                   10.2211(13)
_cell_length_c                   17.033(2)
_cell_angle_alpha                90
_cell_angle_beta                 106.417(2)
_cell_angle_gamma                90
_cell_volume                     2112.46
_exptl_crystal_colour            colorless
_exptl_crystal_description       block
_cell_formula_units_Z            4
loop_
_atom_site_label
_atom_site_type_symbol
_atom_site_fract_x
_atom_site_fract_y
_atom_site_fract_z
C1 C 0.7199(2) 0.3861(2) 0.13530(14)
C2 C 0.6607(2) 0.2748(2) 0.10591(13)
C3 C 0.7021(2) 0.1427(2) 0.09643(14)
C4 C 0.6395(2) 0.0572(2) 0.03833(16)
H1 H 0.5709 0.0840 0.0056
C5 C 0.6769(2) -0.0669(3) 0.02816(17)
H2 H 0.6340 -0.1226 -0.0114
C6 C 0.7779(2) -0.1080(3) 0.07663(19)
H3 H 0.8039 -0.1910 0.0695
C7 C 0.8401(2) -0.0260(3) 0.13555(17)
H4 H 0.9074 -0.0547 0.1694
C8 C 0.8039(2) 0.0986(2) 0.14506(15)
H5 H 0.8478 0.1539 0.1843
C9 C 0.8388(2) 0.4127(2) 0.16727(15)
C10 C 0.9085(2) 0.3934(3) 0.11931(18)
H6 H 0.8798 0.3704 0.0646
C11 C 1.0205(3) 0.4078(3) 0.1520(2)
H7 H 1.0669 0.3939 0.1191
C12 C 1.0645(3) 0.4421(3) 0.2320(2)
H8 H 1.1404 0.4494 0.2540
C13 C 0.9953(3) 0.4658(3) 0.2801(2)
H9 H 1.0245 0.4920 0.3342
C14 C 0.8828(2) 0.4509(3) 0.24823(17)
H10 H 0.8365 0.4664 0.2810
N1 N 0.64022(17) 0.48007(18) 0.13377(11)
C15 C 0.6325(2) 0.6221(2) 0.13017(16)
H11 H 0.6519 0.6566 0.0830
H12 H 0.6791 0.6622 0.1795
C16 C 0.5107(2) 0.6424(2) 0.12266(15)
H13 H 0.4994 0.6580 0.1759
H14 H 0.4814 0.7159 0.0872
N2 N 0.45690(17) 0.51695(18) 0.08638(11)
C17 C 0.5419(2) 0.4229(2) 0.10114(14)
N3 N 0.54635(17) 0.29877(18) 0.08363(11)
S1 S 0.33429(6) 0.48405(7) 0.09843(4)
O1 O 0.29514(15) 0.36967(18) 0.05124(10)
O2 O 0.27496(17) 0.60440(19) 0.08122(11)
C18 C 0.3551(2) 0.4478(2) 0.20225(14)
C19 C 0.3768(2) 0.3207(3) 0.22924(16)
H15 H 0.3815 0.2544 0.1930
C20 C 0.3916(3) 0.2934(3) 0.31130(17)
H16 H 0.4059 0.2078 0.3297
C21 C 0.3856(2) 0.3899(3) 0.36649(16)
C22 C 0.3642(2) 0.5164(3) 0.33816(16)
H17 H 0.3597 0.5826 0.3746
C23 C 0.3493(2) 0.5464(3) 0.25694(16)
H18 H 0.3355 0.6322 0.2388
C24 C 0.4011(3) 0.3567(3) 0.45548(17)
H19 H 0.3369 0.3120 0.4611
H20 H 0.4119 0.4358 0.4872
H21 H 0.4645 0.3013 0.4747
loop_
_geom_bond_atom_site_label_1
_geom_bond_atom_site_label_2
_geom_bond_site_symmetry_1
_geom_bond_site_symmetry_2
C1 C2 1_555 1_555
C2 C3 1_555 1_555
C3 C4 1_555 1_555
C4 H1 1_555 1_555
C5 C4 1_555 1_555
H2 C5 1_555 1_555
C6 C5 1_555 1_555
H3 C6 1_555 1_555
C7 C6 1_555 1_555
H4 C7 1_555 1_555
C8 C3 1_555 1_555
H5 C8 1_555 1_555
C9 C1 1_555 1_555
C10 C9 1_555 1_555
H6 C10 1_555 1_555
C11 C10 1_555 1_555
H7 C11 1_555 1_555
C12 C11 1_555 1_555
H8 C12 1_555 1_555
C13 C12 1_555 1_555
H9 C13 1_555 1_555
C14 C9 1_555 1_555
H10 C14 1_555 1_555
N1 C1 1_555 1_555
C15 N1 1_555 1_555
H11 C15 1_555 1_555
H12 C15 1_555 1_555
C16 C15 1_555 1_555
H13 C16 1_555 1_555
H14 C16 1_555 1_555
N2 C16 1_555 1_555
C17 N1 1_555 1_555
N3 C2 1_555 1_555
S1 N2 1_555 1_555
O1 S1 1_555 1_555
O2 S1 1_555 1_555
C18 S1 1_555 1_555
C19 C18 1_555 1_555
H15 C19 1_555 1_555
C20 C19 1_555 1_555
H16 C20 1_555 1_555
C21 C20 1_555 1_555
C22 C21 1_555 1_555
H17 C22 1_555 1_555
C23 C18 1_555 1_555
H18 C23 1_555 1_555
C24 C21 1_555 1_555
H19 C24 1_555 1_555
H20 C24 1_555 1_555
H21 C24 1_555 1_555
C7 C8 1_555 1_555
C13 C14 1_555 1_555
N2 C17 1_555 1_555
C17 N3 1_555 1_555
C22 C23 1_555 1_555

#END
