
#######################################################################
#
#                 Cambridge Crystallographic Data Centre
#                                CCDC 
#
#######################################################################
#
# If this CIF has been generated from an entry in the Cambridge 
# Structural Database, then it will include bibliographic, chemical, 
# crystal, experimental, refinement or atomic coordinate data resulting 
# from the CCDC's data processing and validation procedures.
#
#######################################################################

data_BUKMUR
_chemical_formula_moiety         'C19 H16 O2'
_chemical_name_systematic        'phenyl 3-(2-naphthyl)propanoate'
_symmetry_cell_setting           monoclinic
_symmetry_space_group_name_H-M   'C 2'
_symmetry_Int_Tables_number      5
_space_group_name_Hall           'C 2y'
loop_
_symmetry_equiv_pos_site_id
_symmetry_equiv_pos_as_xyz
1 x,y,z
2 -x,y,-z
3 1/2+x,1/2+y,z
4 1/2-x,1/2+y,-z
_cell_length_a                   17.095(3)
_cell_length_b                   5.8740(12)
_cell_length_c                   15.476(3)
_cell_angle_alpha                90
_cell_angle_beta                 106.00(3)
_cell_angle_gamma                90
_cell_volume                     1493.84
_exptl_crystal_colour            colorless
_exptl_crystal_description       needle
_cell_formula_units_Z            4
loop_
_atom_site_label
_atom_site_type_symbol
_atom_site_fract_x
_atom_site_fract_y
_atom_site_fract_z
C1 C 0.1838(2) 0.4720(8) 0.8090(2)
H1 H 0.1934 0.6100 0.7843
O1 O -0.0796(2) 0.8229(7) 0.6275(2)
C2 C 0.2510(2) 0.3344(7) 0.8533(2)
O2 O -0.09413(15) 0.5669(5) 0.51683(17)
C3 C 0.3322(2) 0.4004(9) 0.8612(3)
H2 H 0.3424 0.5377 0.8364
C4 C 0.3955(3) 0.2658(11) 0.9045(3)
H3 H 0.4487 0.3118 0.9096
C5 C 0.3810(3) 0.0584(11) 0.9415(3)
H4 H 0.4245 -0.0340 0.9704
C6 C 0.3037(3) -0.0090(9) 0.9354(3)
H5 H 0.2947 -0.1458 0.9614
C7 C 0.2369(2) 0.1261(7) 0.8900(2)
C8 C 0.1555(2) 0.0609(8) 0.8822(3)
H6 H 0.1449 -0.0763 0.9068
C9 C 0.0931(3) 0.1971(8) 0.8391(3)
H7 H 0.0401 0.1497 0.8341
C10 C 0.1056(2) 0.4090(8) 0.8015(2)
C11 C 0.0342(3) 0.5552(10) 0.7514(3)
H8 H 0.0518 0.7124 0.7524
H9 H -0.0082 0.5473 0.7819
C12 C -0.0004(2) 0.4797(8) 0.6543(2)
H10 H 0.0437 0.4648 0.6264
H11 H -0.0256 0.3315 0.6532
C13 C -0.0619(2) 0.6447(8) 0.6014(3)
C14 C -0.1530(2) 0.7018(7) 0.4567(2)
C15 C -0.2299(2) 0.6141(8) 0.4261(3)
H12 H -0.2433 0.4766 0.4483
C16 C -0.2876(2) 0.7344(8) 0.3615(3)
H13 H -0.3402 0.6776 0.3399
C17 C -0.2672(2) 0.9364(9) 0.3296(3)
H14 H -0.3061 1.0168 0.2865
C18 C -0.1902(2) 1.0209(9) 0.3603(3)
H15 H -0.1767 1.1579 0.3379
C19 C -0.1325(2) 0.9030(8) 0.4245(3)
H16 H -0.0799 0.9600 0.4457
loop_
_geom_bond_atom_site_label_1
_geom_bond_atom_site_label_2
_geom_bond_site_symmetry_1
_geom_bond_site_symmetry_2
C1 H1 1_555 1_555
O1 C13 1_555 1_555
C2 C1 1_555 1_555
O2 C13 1_555 1_555
C3 C2 1_555 1_555
H2 C3 1_555 1_555
C4 C3 1_555 1_555
H3 C4 1_555 1_555
C5 C4 1_555 1_555
H4 C5 1_555 1_555
C6 C5 1_555 1_555
H5 C6 1_555 1_555
C7 C2 1_555 1_555
C8 C7 1_555 1_555
H6 C8 1_555 1_555
C9 C8 1_555 1_555
H7 C9 1_555 1_555
C10 C1 1_555 1_555
C11 C10 1_555 1_555
H8 C11 1_555 1_555
H9 C11 1_555 1_555
C12 C11 1_555 1_555
H10 C12 1_555 1_555
H11 C12 1_555 1_555
C13 C12 1_555 1_555
C14 O2 1_555 1_555
C15 C14 1_555 1_555
H12 C15 1_555 1_555
C16 C15 1_555 1_555
H13 C16 1_555 1_555
C17 C16 1_555 1_555
H14 C17 1_555 1_555
C18 C17 1_555 1_555
H15 C18 1_555 1_555
C19 C14 1_555 1_555
H16 C19 1_555 1_555
C6 C7 1_555 1_555
C9 C10 1_555 1_555
C18 C19 1_555 1_555

#END
