
#######################################################################
#
#                 Cambridge Crystallographic Data Centre
#                                CCDC 
#
#######################################################################
#
# If this CIF has been generated from an entry in the Cambridge 
# Structural Database, then it will include bibliographic, chemical, 
# crystal, experimental, refinement or atomic coordinate data resulting 
# from the CCDC's data processing and validation procedures.
#
#######################################################################

data_BUKVEK
_chemical_name_common            
'4,30-bis((trifluoromethanesulfonyl)oxy)-9,14,19,24,26,28,32,34-octamethoxypillar(5)arene hexane solvate'
_chemical_formula_moiety         'C45 H44 F6 O14 S2,C1 H2 Cl2'
_chemical_name_systematic        
'9,19,24,26,28,31,32,34-octamethoxyhexacyclo[21.2.2.2^3,6^.2^8,11^.2^13,16^.2^18,21^]pentatriaconta-1(25),3,5,8,10,13,15,18,20,23,26,28,30,32,34-pentadecaene-4,15-diyl bis(trifluoromethanesulfonate) dichloromethane solvate'
_symmetry_cell_setting           monoclinic
_symmetry_space_group_name_H-M   'P n'
_symmetry_Int_Tables_number      7
_space_group_name_Hall           'P -2yac'
loop_
_symmetry_equiv_pos_site_id
_symmetry_equiv_pos_as_xyz
1 x,y,z
2 1/2+x,-y,1/2+z
_cell_length_a                   11.6160(3)
_cell_length_b                   18.2419(5)
_cell_length_c                   11.6170(3)
_cell_angle_alpha                90
_cell_angle_beta                 94.1589(15)
_cell_angle_gamma                90
_cell_volume                     2455.14
_exptl_crystal_colour            colorless
_exptl_crystal_description       plate
_cell_formula_units_Z            2
_exptl_crystal_recrystallization_method dichloromethane/hexane
loop_
_atom_site_label
_atom_site_type_symbol
_atom_site_fract_x
_atom_site_fract_y
_atom_site_fract_z
S1 S 0.17017(10) 0.78515(6) 0.61143(13)
S2 S 1.00363(11) 0.70795(7) -0.00136(14)
F1 F 0.0753(4) 0.6885(3) 0.4688(6)
F2 F 0.1285(4) 0.6460(2) 0.6356(6)
F3 F -0.0213(3) 0.7154(2) 0.6112(6)
F4 F 1.0570(4) 0.8465(2) 0.0014(6)
F5 F 1.1006(4) 0.7908(3) 0.1585(6)
F6 F 1.1996(4) 0.7715(3) 0.0142(7)
O1 O 0.6581(3) 0.60413(17) 0.6421(3)
O2 O 0.7796(3) 0.5133(2) 0.2535(3)
O3 O 0.3176(3) 0.54555(18) 0.3301(3)
O4 O 0.4656(3) 0.61682(18) -0.0554(3)
O5 O 0.8436(3) 0.98600(17) 0.2703(3)
O6 O 0.5114(3) 0.88073(19) -0.0524(3)
O7 O 0.6965(2) 0.87112(16) 0.6329(3)
O8 O 0.3815(3) 1.00510(17) 0.3201(3)
O9 O 0.2710(3) 0.77366(17) 0.5315(3)
O10 O 0.2079(3) 0.7820(2) 0.7306(4)
O11 O 0.1052(3) 0.8449(2) 0.5644(4)
O12 O 0.8973(3) 0.73526(17) 0.0602(3)
O13 O 1.0526(4) 0.6445(2) 0.0505(6)
O14 O 0.9822(5) 0.7134(4) -0.1224(5)
C1 C 0.4644(4) 0.7651(2) 0.6268(4)
C2 C 0.3708(4) 0.7309(2) 0.5692(4)
C3 C 0.3709(4) 0.6577(2) 0.5373(4)
H1 H 0.3044 0.6369 0.4974
C4 C 0.4677(4) 0.6147(2) 0.5635(4)
C5 C 0.5646(4) 0.6486(2) 0.6204(4)
C6 C 0.5622(4) 0.7218(2) 0.6510(4)
H2 H 0.6289 0.7431 0.6896
C7 C 0.7589(4) 0.6360(3) 0.7009(5)
H3 H 0.7825 0.6792 0.6584
H4 H 0.8217 0.6000 0.7056
H5 H 0.7414 0.6505 0.7790
C8 C 0.4711(4) 0.5359(2) 0.5249(4)
H6 H 0.3932 0.5141 0.5269
H7 H 0.5245 0.5079 0.5788
C9 C 0.5107(4) 0.5298(2) 0.4038(4)
C10 C 0.4326(4) 0.5360(2) 0.3075(4)
C11 C 0.4695(4) 0.5329(2) 0.1969(4)
H8 H 0.4146 0.5362 0.1324
C12 C 0.5859(4) 0.5250(2) 0.1790(4)
C13 C 0.6645(4) 0.5203(2) 0.2761(4)
C14 C 0.6270(4) 0.5217(2) 0.3860(4)
H9 H 0.6816 0.5170 0.4506
C15 C 0.8618(4) 0.5404(3) 0.3385(5)
H10 H 0.9394 0.5352 0.3117
H11 H 0.8567 0.5126 0.4102
H12 H 0.8462 0.5923 0.3528
C16 C 0.2401(4) 0.5713(3) 0.2380(5)
H13 H 0.2308 0.5336 0.1779
H14 H 0.2712 0.6161 0.2054
H15 H 0.1649 0.5820 0.2674
C17 C 0.6273(4) 0.5261(2) 0.0587(4)
H16 H 0.5665 0.5059 0.0035
H17 H 0.6967 0.4947 0.0561
C18 C 0.6561(4) 0.6034(2) 0.0239(4)
C19 C 0.4640(4) 0.8455(2) 0.6604(4)
H18 H 0.3849 0.8598 0.6778
H19 H 0.5152 0.8525 0.7314
C20 C 0.7644(4) 0.6330(2) 0.0515(4)
H20 H 0.8233 0.6042 0.0900
C21 C 0.7857(4) 0.7049(2) 0.0228(4)
C22 C 0.7073(4) 0.7502(2) -0.0350(4)
C23 C 0.5966(4) 0.7201(2) -0.0619(4)
H21 H 0.5382 0.7494 -0.1007
C24 C 0.5720(4) 0.6487(2) -0.0328(4)
C25 C 0.3763(4) 0.6599(3) -0.1125(5)
H22 H 0.3983 0.6732 -0.1897
H23 H 0.3648 0.7045 -0.0678
H24 H 0.3045 0.6315 -0.1193
C26 C 0.7347(4) 0.8288(2) -0.0677(4)
H25 H 0.8179 0.8327 -0.0799
H26 H 0.6908 0.8412 -0.1414
C27 C 0.7051(4) 0.8832(2) 0.0235(4)
C28 C 0.7903(4) 0.9100(2) 0.1035(4)
H27 H 0.8679 0.8945 0.0991
C29 C 0.7642(4) 0.9587(2) 0.1890(4)
C30 C 0.6502(4) 0.9829(2) 0.1955(4)
C31 C 0.5657(4) 0.9568(2) 0.1149(4)
H28 H 0.4885 0.9734 0.1180
C32 C 0.5913(4) 0.9073(2) 0.0304(4)
C33 C 0.9580(4) 0.9569(3) 0.2742(5)
H29 H 0.9926 0.9682 0.2019
H30 H 0.9552 0.9036 0.2846
H31 H 1.0046 0.9789 0.3389
C34 C 0.3933(4) 0.8867(3) -0.0293(5)
H32 H 0.3459 0.8588 -0.0870
H33 H 0.3701 0.9384 -0.0326
H34 H 0.3826 0.8672 0.0478
C35 C 0.6159(4) 1.0324(2) 0.2924(4)
H35 H 0.6828 1.0625 0.3210
H36 H 0.5533 1.0658 0.2631
C36 C 0.5750(4) 0.9862(2) 0.3903(4)
C37 C 0.6552(4) 0.9523(2) 0.4682(4)
H37 H 0.7352 0.9608 0.4620
C38 C 0.6206(4) 0.9067(2) 0.5542(4)
C39 C 0.5034(4) 0.8946(2) 0.5671(4)
C40 C 0.4234(4) 0.9282(2) 0.4893(4)
H38 H 0.3434 0.9206 0.4968
C41 C 0.4576(4) 0.9727(2) 0.4006(4)
C42 C 0.8161(4) 0.8712(3) 0.6101(4)
H39 H 0.8250 0.8501 0.5337
H40 H 0.8601 0.8420 0.6689
H41 H 0.8452 0.9217 0.6121
C43 C 0.2642(4) 0.9795(3) 0.3146(4)
H42 H 0.2193 1.0045 0.2515
H43 H 0.2306 0.9900 0.3878
H44 H 0.2627 0.9265 0.3007
C44 C 0.0810(6) 0.7030(4) 0.5778(9)
C45 C 1.0960(6) 0.7837(4) 0.0474(10)
Cl1 Cl 0.4297(5) 0.7613(3) 0.2443(4)
Cl2 Cl 0.6695(10) 0.7244(4) 0.3463(7)
C46 C 0.5614(11) 0.7834(8) 0.304(2)
H45 H 0.5475 0.8127 0.3739
H46 H 0.5947 0.8177 0.2497
Cl3? Cl 0.5056(12) 0.7256(5) 0.2549(10)
Cl4? Cl 0.7322(9) 0.7545(4) 0.3331(9)
C47? C 0.6070(13) 0.7907(9) 0.282(2)
H47? H 0.6187 0.8178 0.2097
H48? H 0.5800 0.8260 0.3386
loop_
_geom_bond_atom_site_label_1
_geom_bond_atom_site_label_2
_geom_bond_site_symmetry_1
_geom_bond_site_symmetry_2
S1 O9 1_555 1_555
S2 O12 1_555 1_555
F1 C44 1_555 1_555
F2 C44 1_555 1_555
F3 C44 1_555 1_555
F4 C45 1_555 1_555
F5 C45 1_555 1_555
F6 C45 1_555 1_555
O1 C5 1_555 1_555
O2 C13 1_555 1_555
O3 C10 1_555 1_555
O4 C24 1_555 1_555
O5 C29 1_555 1_555
O6 C32 1_555 1_555
O7 C38 1_555 1_555
O8 C41 1_555 1_555
O9 C2 1_555 1_555
O10 S1 1_555 1_555
O11 S1 1_555 1_555
O12 C21 1_555 1_555
O13 S2 1_555 1_555
O14 S2 1_555 1_555
C1 C2 1_555 1_555
C2 C3 1_555 1_555
C3 H1 1_555 1_555
C4 C3 1_555 1_555
C5 C4 1_555 1_555
C6 C1 1_555 1_555
H2 C6 1_555 1_555
C7 O1 1_555 1_555
H3 C7 1_555 1_555
H4 C7 1_555 1_555
H5 C7 1_555 1_555
C8 C4 1_555 1_555
H6 C8 1_555 1_555
H7 C8 1_555 1_555
C9 C8 1_555 1_555
C10 C9 1_555 1_555
C11 C10 1_555 1_555
H8 C11 1_555 1_555
C12 C11 1_555 1_555
C13 C12 1_555 1_555
C14 C9 1_555 1_555
H9 C14 1_555 1_555
C15 O2 1_555 1_555
H10 C15 1_555 1_555
H11 C15 1_555 1_555
H12 C15 1_555 1_555
C16 O3 1_555 1_555
H13 C16 1_555 1_555
H14 C16 1_555 1_555
H15 C16 1_555 1_555
C17 C12 1_555 1_555
H16 C17 1_555 1_555
H17 C17 1_555 1_555
C18 C17 1_555 1_555
C19 C1 1_555 1_555
H18 C19 1_555 1_555
H19 C19 1_555 1_555
C20 C18 1_555 1_555
H20 C20 1_555 1_555
C21 C20 1_555 1_555
C22 C21 1_555 1_555
C23 C22 1_555 1_555
H21 C23 1_555 1_555
C24 C18 1_555 1_555
C25 O4 1_555 1_555
H22 C25 1_555 1_555
H23 C25 1_555 1_555
H24 C25 1_555 1_555
C26 C22 1_555 1_555
H25 C26 1_555 1_555
H26 C26 1_555 1_555
C27 C26 1_555 1_555
C28 C27 1_555 1_555
H27 C28 1_555 1_555
C29 C28 1_555 1_555
C30 C29 1_555 1_555
C31 C30 1_555 1_555
H28 C31 1_555 1_555
C32 C27 1_555 1_555
C33 O5 1_555 1_555
H29 C33 1_555 1_555
H30 C33 1_555 1_555
H31 C33 1_555 1_555
C34 O6 1_555 1_555
H32 C34 1_555 1_555
H33 C34 1_555 1_555
H34 C34 1_555 1_555
C35 C30 1_555 1_555
H35 C35 1_555 1_555
H36 C35 1_555 1_555
C36 C35 1_555 1_555
C37 C36 1_555 1_555
H37 C37 1_555 1_555
C38 C37 1_555 1_555
C39 C19 1_555 1_555
C40 C39 1_555 1_555
H38 C40 1_555 1_555
C41 C36 1_555 1_555
C42 O7 1_555 1_555
H39 C42 1_555 1_555
H40 C42 1_555 1_555
H41 C42 1_555 1_555
C43 O8 1_555 1_555
H42 C43 1_555 1_555
H43 C43 1_555 1_555
H44 C43 1_555 1_555
C44 S1 1_555 1_555
C45 S2 1_555 1_555
Cl1 C46 1_555 1_555
Cl2 C46 1_555 1_555
C46 H45 1_555 1_555
H46 C46 1_555 1_555
C5 C6 1_555 1_555
C13 C14 1_555 1_555
C23 C24 1_555 1_555
C31 C32 1_555 1_555
C38 C39 1_555 1_555
C40 C41 1_555 1_555

#END
