
#######################################################################
#
#                 Cambridge Crystallographic Data Centre
#                                CCDC 
#
#######################################################################
#
# If this CIF has been generated from an entry in the Cambridge 
# Structural Database, then it will include bibliographic, chemical, 
# crystal, experimental, refinement or atomic coordinate data resulting 
# from the CCDC's data processing and validation procedures.
#
#######################################################################

data_BUKVAG
_chemical_name_common            
'4,32-bis((trifluoromethanesulfonyl)oxy)-9,14,19,24,26,28,30,34-octamethoxypillar(5)arene hexane solvate'
_chemical_formula_moiety         'C45 H44 F6 O14 S2,C6 H14'
_chemical_name_systematic        
'14,19,24,26,28,30,33,34-octamethoxyhexacyclo[21.2.2.2^3,6^.2^8,11^.2^13,16^.2^18,21^]pentatriaconta-1(25),3,5,8,10,13,15,18,20,23,26,28,30,32,34-pentadecaene-4,10-diyl bis(trifluoromethanesulfonate) hexane solvate'
_symmetry_cell_setting           triclinic
_symmetry_space_group_name_H-M   'P -1'
_symmetry_Int_Tables_number      2
_space_group_name_Hall           '-P 1'
loop_
_symmetry_equiv_pos_site_id
_symmetry_equiv_pos_as_xyz
1 x,y,z
2 -x,-y,-z
_cell_length_a                   11.2709(6)
_cell_length_b                   11.7647(6)
_cell_length_c                   20.1194(9)
_cell_angle_alpha                88.271(4)
_cell_angle_beta                 83.035(3)
_cell_angle_gamma                86.352(4)
_cell_volume                     2642.08
_exptl_crystal_colour            colorless
_exptl_crystal_description       plate
_cell_formula_units_Z            2
_exptl_crystal_recrystallization_method dichloromethane/hexane
loop_
_atom_site_label
_atom_site_type_symbol
_atom_site_fract_x
_atom_site_fract_y
_atom_site_fract_z
S1 S -0.2720(2) 0.6417(2) 0.70724(14)
S2 S 0.4185(4) 0.1897(3) 1.00200(16)
F1 F 0.3481(10) 0.4000(7) 1.0363(4)
F2 F 0.5001(10) 0.3857(7) 0.9580(5)
F3 F 0.5212(10) 0.3398(6) 1.0617(4)
F4 F -0.4543(7) 0.7125(7) 0.7881(5)
F5 F -0.3839(6) 0.5360(5) 0.8083(4)
F6 F -0.2912(6) 0.6902(6) 0.8305(4)
O1 O -0.1275(12) 0.3230(14) 0.9354(8)
O2 O 0.2193(9) 0.5580(7) 0.8433(4)
O3 O 0.2842(4) 0.5894(4) 0.5922(3)
O4 O 0.0044(4) 0.2554(4) 0.5149(2)
O5 O 0.4731(4) 0.1842(4) 0.5251(3)
O6 O 0.1214(4) -0.1021(4) 0.6273(3)
O7 O 0.5064(5) -0.0505(5) 0.7446(3)
O8 O 0.0465(6) -0.0851(7) 0.8747(4)
O9 O 0.3573(7) 0.2049(6) 0.9363(3)
O10 O 0.3417(9) 0.1549(7) 1.0593(4)
O11 O 0.5315(8) 0.1333(6) 0.9830(4)
O12 O -0.1797(4) 0.5396(4) 0.7106(3)
O13 O -0.3539(6) 0.6016(7) 0.6636(4)
O14 O -0.2164(5) 0.7469(4) 0.6954(3)
C1 C 0.1585(12) 0.1361(12) 0.9437(5)
C2 C 0.2285(11) 0.2252(11) 0.9392(4)
C3 C 0.1876(11) 0.3404(11) 0.9307(4)
H1 H 0.2420 0.3994 0.9266
C4 C 0.0673(13) 0.3647(13) 0.9284(5)
C5 C -0.0058(14) 0.2750(15) 0.9318(6)
C6 C 0.0381(13) 0.1619(14) 0.9386(6)
H2 H -0.0150 0.1022 0.9396
C7 C -0.195(2) 0.212(2) 0.9112(12)
H3 H -0.1868 0.2107 0.8621
H4 H -0.2801 0.2182 0.9287
H5 H -0.1578 0.1412 0.9284
C8 C 0.0197(13) 0.4848(12) 0.9170(4)
H6 H 0.0674 0.5370 0.9390
H7 H -0.0639 0.4934 0.9387
C9 C 0.0218(10) 0.5205(9) 0.8444(4)
C10 C 0.1255(10) 0.5581(8) 0.8075(4)
C11 C 0.1299(8) 0.5903(7) 0.7398(4)
H8 H 0.2020 0.6159 0.7164
C12 C 0.0286(6) 0.5850(6) 0.7067(3)
C13 C -0.0701(7) 0.5480(7) 0.7427(3)
C14 C -0.0758(9) 0.5156(8) 0.8103(4)
H9 H -0.1484 0.4898 0.8330
C15 C 0.3268(13) 0.5898(11) 0.8121(7)
H10 H 0.3440 0.5525 0.7688
H11 H 0.3900 0.5671 0.8400
H12 H 0.3235 0.6727 0.8049
C16 C 0.0373(6) 0.6139(6) 0.6329(3)
H13 H 0.0858 0.6810 0.6231
H14 H -0.0439 0.6343 0.6205
C17 C 0.0935(6) 0.5155(5) 0.5912(3)
C18 C 0.2176(6) 0.5031(6) 0.5717(3)
C19 C 0.2664(5) 0.4114(5) 0.5342(3)
H15 H 0.3501 0.4056 0.5203
C20 C 0.1957(5) 0.3273(5) 0.5164(3)
C21 C 0.0717(5) 0.3390(5) 0.5351(3)
C22 C 0.0222(5) 0.4338(5) 0.5719(3)
H16 H -0.0620 0.4421 0.5837
C23 C 0.4106(6) 0.5786(7) 0.5732(5)
H17 H 0.4272 0.5772 0.5243
H18 H 0.4435 0.5076 0.5925
H19 H 0.4478 0.6434 0.5899
C24 C -0.1180(5) 0.2593(6) 0.5376(4)
H20 H -0.1524 0.1903 0.5242
H21 H -0.1579 0.3264 0.5180
H22 H -0.1296 0.2639 0.5865
C25 C 0.2497(6) 0.2232(6) 0.4794(3)
H23 H 0.3241 0.2427 0.4511
H24 H 0.1929 0.1982 0.4497
C26 C 0.2778(6) 0.1273(6) 0.5276(3)
C27 C 0.3881(6) 0.1084(6) 0.5501(4)
C28 C 0.4097(6) 0.0199(6) 0.5957(4)
H25 H 0.4873 0.0078 0.6095
C29 C 0.3204(6) -0.0508(6) 0.6213(4)
C30 C 0.2080(6) -0.0304(6) 0.5998(4)
C31 C 0.1874(6) 0.0563(6) 0.5524(3)
H26 H 0.1109 0.0669 0.5371
C32 C 0.5906(6) 0.1658(7) 0.5447(5)
H27 H 0.6425 0.2226 0.5222
H28 H 0.6231 0.0893 0.5319
H29 H 0.5866 0.1729 0.5933
C33 C 0.0005(6) -0.0695(6) 0.6175(4)
H30 H -0.0070 -0.0663 0.5695
H31 H -0.0219 0.0056 0.6365
H32 H -0.0525 -0.1256 0.6398
C34 C 0.3443(7) -0.1439(7) 0.6729(4)
H33 H 0.4305 -0.1684 0.6669
H34 H 0.2986 -0.2105 0.6653
C35 C 0.3093(8) -0.1047(7) 0.7445(5)
C36 C 0.3938(7) -0.0586(7) 0.7802(4)
C37 C 0.3593(8) -0.0243(8) 0.8458(4)
H35 H 0.4177 0.0044 0.8702
C38 C 0.2412(9) -0.0307(8) 0.8774(5)
C39 C 0.1602(10) -0.0797(9) 0.8406(6)
C40 C 0.1930(8) -0.1130(8) 0.7759(5)
H36 H 0.1347 -0.1425 0.7518
C41 C 0.5997(9) -0.0156(9) 0.7818(5)
H37 H 0.6776 -0.0276 0.7548
H38 H 0.5992 -0.0608 0.8235
H39 H 0.5852 0.0653 0.7922
C42 C -0.0425(11) -0.1408(11) 0.8430(8)
H40 H -0.0496 -0.1053 0.7988
H41 H -0.1201 -0.1328 0.8708
H42 H -0.0181 -0.2218 0.8378
C43 C 0.2068(10) 0.0142(10) 0.9465(5)
H43 H 0.2777 0.0089 0.9713
H44 H 0.1452 -0.0329 0.9709
C44 C 0.4490(18) 0.3379(12) 1.0158(8)
C45 C -0.3546(7) 0.6422(6) 0.7881(4)
C54 C -1.1701(9) 0.2076(6) 0.7464(7)
H62 H -1.1924 0.2886 0.7397
H63 H -1.2305 0.1736 0.7788
H64 H -1.1654 0.1687 0.7036
C55 C -1.0484(9) 0.1946(6) 0.7728(6)
H65 H -1.0292 0.1130 0.7824
H66 H -1.0534 0.2355 0.8154
C56 C -0.9470(8) 0.2405(5) 0.7238(4)
H67 H -0.9422 0.1996 0.6812
H68 H -0.9665 0.3222 0.7141
C57 C -0.8248(8) 0.2281(6) 0.7498(4)
H69 H -0.8053 0.1465 0.7594
H70 H -0.8296 0.2690 0.7924
C58 C -0.7234(7) 0.2740(8) 0.7008(4)
H71 H -0.7184 0.2331 0.6581
H72 H -0.7427 0.3557 0.6911
C59 C -0.6017(7) 0.2611(9) 0.7272(6)
H73 H -0.5720 0.1810 0.7255
H74 H -0.6101 0.2864 0.7736
H75 H -0.5450 0.3077 0.6995
C46? C -0.4489(7) 0.3201(11) 0.7234(9)
H45? H -0.4316 0.2918 0.6777
H46? H -0.3813 0.2983 0.7485
H47? H -0.4611 0.4033 0.7217
C47? C -0.9931(9) 0.1815(5) 0.7349(6)
H48? H -1.0305 0.1513 0.6981
H49? H -1.0502 0.2350 0.7602
H50? H -0.9698 0.1186 0.7646
C48? C -0.8828(8) 0.2427(6) 0.7064(4)
H51? H -0.9059 0.3247 0.7008
H52? H -0.8540 0.2128 0.6615
C49? C -0.7803(8) 0.2304(7) 0.7495(4)
H53? H -0.8104 0.2558 0.7952
H54? H -0.7537 0.1488 0.7527
C50? C -0.6729(7) 0.2976(8) 0.7231(5)
H55? H -0.6956 0.3798 0.7281
H56? H -0.6526 0.2834 0.6747
C51? C -0.5619(7) 0.2687(9) 0.7581(6)
H57? H -0.5479 0.1848 0.7605
H58? H -0.5772 0.2963 0.8045
S3? S -0.3079(6) 0.5389(7) 0.7251(5)
O15? O -0.2805(6) 0.5584(9) 0.7916(5)
O16? O -0.3789(7) 0.4653(9) 0.6939(6)
F7? F -0.4731(6) 0.6903(10) 0.7603(8)
F8? F -0.2972(7) 0.7537(8) 0.6829(9)
F9? F -0.4478(7) 0.6468(10) 0.6703(7)
C52? C -0.3758(6) 0.6786(8) 0.7141(7)
O17? O -0.1139(16) 0.268(3) 0.8998(9)
C53? C -0.207(3) 0.252(4) 0.9688(16)
H59? H -0.2860 0.2362 0.9570
H60? H -0.2128 0.3212 0.9948
H61? H -0.1767 0.1874 0.9955
loop_
_geom_bond_atom_site_label_1
_geom_bond_atom_site_label_2
_geom_bond_site_symmetry_1
_geom_bond_site_symmetry_2
S1 O12 1_555 1_555
S2 O9 1_555 1_555
F1 C44 1_555 1_555
F2 C44 1_555 1_555
F3 C44 1_555 1_555
F4 C45 1_555 1_555
F5 C45 1_555 1_555
F6 C45 1_555 1_555
O1 C5 1_555 1_555
O2 C10 1_555 1_555
O3 C18 1_555 1_555
O4 C21 1_555 1_555
O5 C27 1_555 1_555
O6 C30 1_555 1_555
O7 C36 1_555 1_555
O8 C39 1_555 1_555
O9 C2 1_555 1_555
O10 S2 1_555 1_555
O11 S2 1_555 1_555
O12 C13 1_555 1_555
O13 S1 1_555 1_555
O14 S1 1_555 1_555
C1 C2 1_555 1_555
C2 C3 1_555 1_555
C3 H1 1_555 1_555
C4 C3 1_555 1_555
C5 C4 1_555 1_555
C6 C1 1_555 1_555
H2 C6 1_555 1_555
C7 O1 1_555 1_555
H3 C7 1_555 1_555
H4 C7 1_555 1_555
H5 C7 1_555 1_555
C8 C4 1_555 1_555
H6 C8 1_555 1_555
H7 C8 1_555 1_555
C9 C8 1_555 1_555
C10 C9 1_555 1_555
C11 C10 1_555 1_555
H8 C11 1_555 1_555
C12 C11 1_555 1_555
C13 C12 1_555 1_555
C14 C9 1_555 1_555
H9 C14 1_555 1_555
C15 O2 1_555 1_555
H10 C15 1_555 1_555
H11 C15 1_555 1_555
H12 C15 1_555 1_555
C16 C12 1_555 1_555
H13 C16 1_555 1_555
H14 C16 1_555 1_555
C17 C16 1_555 1_555
C18 C17 1_555 1_555
C19 C18 1_555 1_555
H15 C19 1_555 1_555
C20 C19 1_555 1_555
C21 C20 1_555 1_555
C22 C17 1_555 1_555
H16 C22 1_555 1_555
C23 O3 1_555 1_555
H17 C23 1_555 1_555
H18 C23 1_555 1_555
H19 C23 1_555 1_555
C24 O4 1_555 1_555
H20 C24 1_555 1_555
H21 C24 1_555 1_555
H22 C24 1_555 1_555
C25 C20 1_555 1_555
H23 C25 1_555 1_555
H24 C25 1_555 1_555
C26 C25 1_555 1_555
C27 C26 1_555 1_555
C28 C27 1_555 1_555
H25 C28 1_555 1_555
C29 C28 1_555 1_555
C30 C29 1_555 1_555
C31 C26 1_555 1_555
H26 C31 1_555 1_555
C32 O5 1_555 1_555
H27 C32 1_555 1_555
H28 C32 1_555 1_555
H29 C32 1_555 1_555
C33 O6 1_555 1_555
H30 C33 1_555 1_555
H31 C33 1_555 1_555
H32 C33 1_555 1_555
C34 C29 1_555 1_555
H33 C34 1_555 1_555
H34 C34 1_555 1_555
C35 C34 1_555 1_555
C36 C35 1_555 1_555
C37 C36 1_555 1_555
H35 C37 1_555 1_555
C38 C37 1_555 1_555
C39 C38 1_555 1_555
C40 C35 1_555 1_555
H36 C40 1_555 1_555
C41 O7 1_555 1_555
H37 C41 1_555 1_555
H38 C41 1_555 1_555
H39 C41 1_555 1_555
C42 O8 1_555 1_555
H40 C42 1_555 1_555
H41 C42 1_555 1_555
H42 C42 1_555 1_555
C43 C1 1_555 1_555
H43 C43 1_555 1_555
H44 C43 1_555 1_555
C44 S2 1_555 1_555
C45 S1 1_555 1_555
C54 H62 1_555 1_555
H63 C54 1_555 1_555
H64 C54 1_555 1_555
C55 C54 1_555 1_555
H65 C55 1_555 1_555
H66 C55 1_555 1_555
C56 C55 1_555 1_555
H67 C56 1_555 1_555
H68 C56 1_555 1_555
C57 C56 1_555 1_555
H69 C57 1_555 1_555
H70 C57 1_555 1_555
C58 C57 1_555 1_555
H71 C58 1_555 1_555
H72 C58 1_555 1_555
C59 C58 1_555 1_555
H73 C59 1_555 1_555
H74 C59 1_555 1_555
H75 C59 1_555 1_555
C5 C6 1_555 1_555
C13 C14 1_555 1_555
C21 C22 1_555 1_555
C30 C31 1_555 1_555
C38 C43 1_555 1_555
C39 C40 1_555 1_555

#END
