
#######################################################################
#
#                 Cambridge Crystallographic Data Centre
#                                CCDC 
#
#######################################################################
#
# If this CIF has been generated from an entry in the Cambridge 
# Structural Database, then it will include bibliographic, chemical, 
# crystal, experimental, refinement or atomic coordinate data resulting 
# from the CCDC's data processing and validation procedures.
#
#######################################################################

data_BUKWAH
_chemical_name_common            
'4,9,19-tris((trifluoromethanesulfonyl)oxy)-14,24,26,28,30,32,34-heptamethoxypillar(5)arene hexane solvate'
_chemical_formula_moiety         'C45 H41 F9 O16 S3,C6 H14'
_chemical_name_systematic        
'14,24,26,28,30,32,34-heptamethoxyhexacyclo[21.2.2.2^3,6^.2^8,11^.2^13,16^.2^18,21^]pentatriaconta-1(25),3,5,8,10,13,15,18,20,23,26,28,30,32,34-pentadecaene-4,9,19-triyl tris(trifluoromethanesulfonate) hexane solvate'
_symmetry_cell_setting           orthorhombic
_symmetry_space_group_name_H-M   'P b c a'
_symmetry_Int_Tables_number      61
_space_group_name_Hall           '-P 2ac 2ab'
loop_
_symmetry_equiv_pos_site_id
_symmetry_equiv_pos_as_xyz
1 x,y,z
2 1/2-x,-y,1/2+z
3 -x,1/2+y,1/2-z
4 1/2+x,1/2-y,-z
5 -x,-y,-z
6 1/2+x,y,1/2-z
7 x,1/2-y,1/2+z
8 1/2-x,1/2+y,z
_cell_length_a                   20.6289(11)
_cell_length_b                   22.2856(13)
_cell_length_c                   24.1696(14)
_cell_angle_alpha                90
_cell_angle_beta                 90
_cell_angle_gamma                90
_cell_volume                     11111.4
_exptl_crystal_colour            colorless
_exptl_crystal_description       plate
_cell_formula_units_Z            8
_exptl_crystal_recrystallization_method dichloromethane/hexane
loop_
_atom_site_label
_atom_site_type_symbol
_atom_site_fract_x
_atom_site_fract_y
_atom_site_fract_z
S1 S 0.75810(6) 0.40976(7) 0.61233(6)
S2 S 0.94397(6) 0.45748(6) 0.43605(5)
S3 S 0.48935(16) 0.47298(12) 0.31753(11)
F1 F 0.7115(3) 0.51516(19) 0.6237(3)
F2 F 0.7376(4) 0.4913(2) 0.5402(3)
F3 F 0.6519(2) 0.45453(19) 0.5751(3)
F4 F 0.98967(16) 0.47478(16) 0.33813(11)
F5 F 1.05569(15) 0.49382(13) 0.40361(14)
F6 F 1.03410(13) 0.40230(13) 0.38119(14)
F7 F 0.5897(4) 0.5373(3) 0.3350(4)
F8 F 0.5722(3) 0.5235(3) 0.2499(3)
F9 F 0.5164(5) 0.5824(4) 0.2907(5)
O1 O 0.75451(16) 0.36778(16) 0.56103(15)
O2 O 0.7243(3) 0.3858(2) 0.65765(18)
O3 O 0.8214(2) 0.4310(3) 0.6171(3)
O4 O 0.62889(13) 0.15068(14) 0.53784(13)
O5 O 0.52154(15) 0.36703(14) 0.52578(12)
O6 O 0.48015(14) 0.19422(13) 0.36595(12)
O7 O 0.6192(2) 0.23634(19) 0.20160(17)
O8 O 0.7367(2) 0.4438(2) 0.24058(19)
O9 O 0.86318(17) 0.22630(18) 0.26572(16)
O10 O 0.89515(14) 0.41337(14) 0.40723(12)
O11 O 0.9164(2) 0.51478(19) 0.4332(2)
O12 O 0.9700(2) 0.4324(2) 0.48552(14)
O13 O 0.85210(15) 0.17850(16) 0.46836(18)
O14 O 0.5354(3) 0.4226(2) 0.33113(18)
O15 O 0.4507(3) 0.4606(3) 0.2695(2)
O16 O 0.4557(4) 0.4924(4) 0.3657(3)
C1 C 0.76148(17) 0.2608(2) 0.55323(16)
C2 C 0.72240(19) 0.3101(2) 0.56089(17)
C3 C 0.65579(19) 0.3081(2) 0.56280(16)
H1 H 0.6314 0.3437 0.5688
C4 C 0.62452(17) 0.25323(19) 0.55585(14)
C5 C 0.66224(17) 0.20235(19) 0.54666(14)
C6 C 0.72990(18) 0.2060(2) 0.54647(16)
H2 H 0.7548 0.1705 0.5417
C7 C 0.7111(4) 0.4711(3) 0.5870(4)
C8 C 0.6653(2) 0.0977(2) 0.5299(2)
H3 H 0.6916 0.1016 0.4963
H4 H 0.6358 0.0635 0.5260
H5 H 0.6938 0.0913 0.5618
C9 C 0.55071(17) 0.2501(2) 0.55558(16)
H6 H 0.5366 0.2091 0.5657
H7 H 0.5331 0.2783 0.5834
C10 C 0.52450(15) 0.26601(17) 0.49904(15)
C11 C 0.51138(17) 0.32502(18) 0.48491(15)
C12 C 0.48935(16) 0.33960(18) 0.43226(16)
H8 H 0.4805 0.3803 0.4234
C13 C 0.48008(16) 0.29556(17) 0.39258(15)
C14 C 0.49230(16) 0.23629(17) 0.40672(16)
C15 C 0.51401(15) 0.22152(17) 0.45938(15)
H9 H 0.5218 0.1807 0.4685
C16 C 0.5131(3) 0.4282(2) 0.5105(2)
H10 H 0.5430 0.4382 0.4804
H11 H 0.5221 0.4539 0.5425
H12 H 0.4684 0.4346 0.4982
C17 C 0.4870(3) 0.1327(2) 0.3803(2)
H13 H 0.4757 0.1077 0.3483
H14 H 0.4581 0.1232 0.4112
H15 H 0.5320 0.1248 0.3911
C18 C 0.45760(18) 0.3125(2) 0.33516(17)
H16 H 0.4316 0.3498 0.3372
H17 H 0.4294 0.2803 0.3204
C19 C 0.51471(19) 0.32205(16) 0.29608(16)
C20 C 0.5494(3) 0.3750(3) 0.2931(3)
C21 C 0.6025(3) 0.3828(3) 0.2592(3)
H18 H 0.6253 0.4199 0.2595
C22 C 0.6223(2) 0.3372(2) 0.22527(16)
C23 C 0.59291(19) 0.2821(2) 0.23185(16)
C24 C 0.53978(18) 0.27469(19) 0.26626(15)
H19 H 0.5202 0.2362 0.2694
C25 C 0.5864(4) 0.1800(3) 0.2041(3)
H20 H 0.6072 0.1517 0.1787
H21 H 0.5410 0.1855 0.1934
H22 H 0.5885 0.1643 0.2419
C26 C 0.6819(3) 0.3455(3) 0.18864(19)
H23 H 0.6816 0.3147 0.1591
H24 H 0.6800 0.3854 0.1708
C27 C 0.7436(2) 0.3403(3) 0.22137(17)
C28 C 0.7699(3) 0.3907(3) 0.2481(2)
C29 C 0.8252(3) 0.3842(3) 0.28015(19)
H25 H 0.8428 0.4185 0.2980
C30 C 0.8559(2) 0.3291(2) 0.28707(17)
C31 C 0.8302(2) 0.2791(3) 0.25920(18)
C32 C 0.7747(2) 0.2859(3) 0.22647(17)
H26 H 0.7580 0.2521 0.2073
C33 C 0.7611(4) 0.4955(3) 0.2609(4)
H27 H 0.8058 0.5005 0.2479
H28 H 0.7607 0.4941 0.3014
H29 H 0.7347 0.5293 0.2481
C34 C 0.8424(3) 0.1772(3) 0.2323(3)
H30 H 0.8467 0.1878 0.1932
H31 H 0.7969 0.1680 0.2405
H32 H 0.8692 0.1420 0.2403
C35 C 0.9151(2) 0.3230(3) 0.32377(19)
H33 H 0.9432 0.2905 0.3093
H34 H 0.9402 0.3609 0.3227
C36 C 0.89673(16) 0.3091(2) 0.38306(18)
C37 C 0.88847(17) 0.3519(2) 0.42296(16)
C38 C 0.86900(16) 0.3388(2) 0.47669(16)
H35 H 0.8640 0.3702 0.5029
C39 C 0.85704(16) 0.2805(2) 0.49179(18)
C40 C 0.86516(17) 0.2353(2) 0.4514(2)
C41 C 0.88473(17) 0.2505(2) 0.3983(2)
H36 H 0.8900 0.2195 0.3716
C42 C 1.0095(2) 0.4572(2) 0.38648(19)
C43 C 0.8617(3) 0.1313(3) 0.4291(4)
H37 H 0.8348 0.1388 0.3964
H38 H 0.8493 0.0929 0.4458
H39 H 0.9074 0.1300 0.4183
C44 C 0.83485(19) 0.2646(2) 0.5497(2)
H40 H 0.8506 0.2954 0.5760
H41 H 0.8539 0.2256 0.5606
C45 C 0.5445(6) 0.5312(4) 0.2946(5)
C49 C 0.6919(12) 0.3929(6) 0.4084(9)
H43 H 0.6868 0.4246 0.3806
H44 H 0.7320 0.3995 0.4292
H45 H 0.6549 0.3938 0.4338
C50 C 0.6946(8) 0.3377(5) 0.3824(6)
H46 H 0.7394 0.3353 0.3679
H47 H 0.6664 0.3425 0.3494
C51 C 0.6812(7) 0.2788(5) 0.4014(5)
H48 H 0.7064 0.2748 0.4361
H49 H 0.6351 0.2798 0.4128
C52 C 0.6887(11) 0.2239(6) 0.3745(8)
H50 H 0.6576 0.2263 0.3434
H51 H 0.7321 0.2271 0.3573
C53 C 0.6853(8) 0.1642(6) 0.3908(6)
H52 H 0.6450 0.1590 0.4124
H53 H 0.7219 0.1566 0.4163
C54 C 0.6865(6) 0.1186(7) 0.3497(6)
H54 H 0.6621 0.0837 0.3627
H55 H 0.7315 0.1069 0.3423
H56 H 0.6668 0.1339 0.3156
S4? S 0.5172(3) 0.4793(3) 0.3343(2)
F10? F 0.4571(8) 0.5527(5) 0.2679(6)
F11? F 0.4309(10) 0.6006(9) 0.3373(9)
F12? F 0.5273(9) 0.5883(5) 0.3231(7)
O17? O 0.4947(6) 0.4287(4) 0.2936(4)
O18? O 0.5814(6) 0.4672(6) 0.3521(6)
O19? O 0.4685(8) 0.4798(8) 0.3784(6)
C46? C 0.4730(9) 0.5535(8) 0.3225(8)
C47? C 0.5324(8) 0.3774(5) 0.2755(6)
C48? C 0.5860(7) 0.3860(6) 0.2423(6)
H42? H 0.5980 0.4254 0.2312
C55? C 0.7079(14) 0.4451(9) 0.4157(12)
H57? H 0.6716 0.4734 0.4180
H58? H 0.7299 0.4499 0.3800
H59? H 0.7385 0.4530 0.4458
C56? C 0.6850(19) 0.3877(9) 0.4201(14)
H60? H 0.6431 0.3902 0.4003
H61? H 0.6731 0.3854 0.4598
C57? C 0.7043(12) 0.3294(8) 0.4091(9)
H62? H 0.7053 0.3100 0.4459
H63? H 0.7502 0.3335 0.3978
C58? C 0.6800(13) 0.2850(8) 0.3742(10)
H64? H 0.6335 0.2839 0.3839
H65? H 0.6817 0.3044 0.3373
C59? C 0.6933(16) 0.2265(9) 0.3623(13)
H66? H 0.7261 0.2160 0.3906
H67? H 0.7179 0.2295 0.3272
C60? C 0.6599(12) 0.1736(9) 0.3558(11)
H68? H 0.6247 0.1794 0.3292
H69? H 0.6419 0.1611 0.3915
H70? H 0.6895 0.1425 0.3421
loop_
_geom_bond_atom_site_label_1
_geom_bond_atom_site_label_2
_geom_bond_site_symmetry_1
_geom_bond_site_symmetry_2
S1 O1 1_555 1_555
S2 O10 1_555 1_555
S3 O14 1_555 1_555
F1 C7 1_555 1_555
F2 C7 1_555 1_555
F3 C7 1_555 1_555
F4 C42 1_555 1_555
F5 C42 1_555 1_555
F6 C42 1_555 1_555
F7 C45 1_555 1_555
F8 C45 1_555 1_555
F9 C45 1_555 1_555
O1 C2 1_555 1_555
O2 S1 1_555 1_555
O3 S1 1_555 1_555
O4 C5 1_555 1_555
O5 C11 1_555 1_555
O6 C14 1_555 1_555
O7 C23 1_555 1_555
O8 C28 1_555 1_555
O9 C31 1_555 1_555
O10 C37 1_555 1_555
O11 S2 1_555 1_555
O12 S2 1_555 1_555
O13 C40 1_555 1_555
O14 C20 1_555 1_555
O15 S3 1_555 1_555
O16 S3 1_555 1_555
C1 C2 1_555 1_555
C2 C3 1_555 1_555
C3 H1 1_555 1_555
C4 C3 1_555 1_555
C5 C4 1_555 1_555
C6 C1 1_555 1_555
H2 C6 1_555 1_555
C7 S1 1_555 1_555
C8 O4 1_555 1_555
H3 C8 1_555 1_555
H4 C8 1_555 1_555
H5 C8 1_555 1_555
C9 C4 1_555 1_555
H6 C9 1_555 1_555
H7 C9 1_555 1_555
C10 C9 1_555 1_555
C11 C10 1_555 1_555
C12 C11 1_555 1_555
H8 C12 1_555 1_555
C13 C12 1_555 1_555
C14 C13 1_555 1_555
C15 C10 1_555 1_555
H9 C15 1_555 1_555
C16 O5 1_555 1_555
H10 C16 1_555 1_555
H11 C16 1_555 1_555
H12 C16 1_555 1_555
C17 O6 1_555 1_555
H13 C17 1_555 1_555
H14 C17 1_555 1_555
H15 C17 1_555 1_555
C18 C13 1_555 1_555
H16 C18 1_555 1_555
H17 C18 1_555 1_555
C19 C18 1_555 1_555
C20 C19 1_555 1_555
C21 C20 1_555 1_555
H18 C21 1_555 1_555
C22 C21 1_555 1_555
C23 C22 1_555 1_555
C24 C19 1_555 1_555
H19 C24 1_555 1_555
C25 O7 1_555 1_555
H20 C25 1_555 1_555
H21 C25 1_555 1_555
H22 C25 1_555 1_555
C26 C22 1_555 1_555
H23 C26 1_555 1_555
H24 C26 1_555 1_555
C27 C26 1_555 1_555
C28 C27 1_555 1_555
C29 C28 1_555 1_555
H25 C29 1_555 1_555
C30 C29 1_555 1_555
C31 C30 1_555 1_555
C32 C27 1_555 1_555
H26 C32 1_555 1_555
C33 O8 1_555 1_555
H27 C33 1_555 1_555
H28 C33 1_555 1_555
H29 C33 1_555 1_555
C34 O9 1_555 1_555
H30 C34 1_555 1_555
H31 C34 1_555 1_555
H32 C34 1_555 1_555
C35 C30 1_555 1_555
H33 C35 1_555 1_555
H34 C35 1_555 1_555
C36 C35 1_555 1_555
C37 C36 1_555 1_555
C38 C37 1_555 1_555
H35 C38 1_555 1_555
C39 C38 1_555 1_555
C40 C39 1_555 1_555
C41 C36 1_555 1_555
H36 C41 1_555 1_555
C42 S2 1_555 1_555
C43 O13 1_555 1_555
H37 C43 1_555 1_555
H38 C43 1_555 1_555
H39 C43 1_555 1_555
C44 C1 1_555 1_555
H40 C44 1_555 1_555
H41 C44 1_555 1_555
C45 S3 1_555 1_555
C49 H43 1_555 1_555
H44 C49 1_555 1_555
H45 C49 1_555 1_555
C50 C49 1_555 1_555
H46 C50 1_555 1_555
H47 C50 1_555 1_555
C51 C50 1_555 1_555
H48 C51 1_555 1_555
H49 C51 1_555 1_555
C52 C51 1_555 1_555
H50 C52 1_555 1_555
H51 C52 1_555 1_555
C53 C52 1_555 1_555
H52 C53 1_555 1_555
H53 C53 1_555 1_555
C54 C53 1_555 1_555
H54 C54 1_555 1_555
H55 C54 1_555 1_555
H56 C54 1_555 1_555
C5 C6 1_555 1_555
C14 C15 1_555 1_555
C23 C24 1_555 1_555
C31 C32 1_555 1_555
C39 C44 1_555 1_555
C40 C41 1_555 1_555

#END
