
#######################################################################
#
#                 Cambridge Crystallographic Data Centre
#                                CCDC 
#
#######################################################################
#
# If this CIF has been generated from an entry in the Cambridge 
# Structural Database, then it will include bibliographic, chemical, 
# crystal, experimental, refinement or atomic coordinate data resulting 
# from the CCDC's data processing and validation procedures.
#
#######################################################################

data_BULSOS
_chemical_formula_moiety         'C42 H52 N6 2+,C14 F8 O4 2-'
_chemical_name_systematic        
"2,2',3,3',5,5',6,6'-octafluorobiphenyl-4,4'-dicarboxylate 3,4,7,8,16,17,20,21-octaethyl-28,29,31,32-tetraaza-27,30-diazoniaheptacyclo[21.3.1.12,5.16,9.110,14.115,18.119,22]dotriaconta-1(27),2,4,6,8,10(30),11,13,15,17,19,21,23,25-tetradecaene unknown solvate"
_symmetry_cell_setting           orthorhombic
_symmetry_space_group_name_H-M   'P c c n'
_symmetry_Int_Tables_number      56
_space_group_name_Hall           '-P 2ab 2ac'
loop_
_symmetry_equiv_pos_site_id
_symmetry_equiv_pos_as_xyz
1 x,y,z
2 1/2-x,1/2-y,z
3 1/2+x,-y,1/2-z
4 -x,1/2+y,1/2-z
5 -x,-y,-z
6 1/2+x,1/2+y,-z
7 1/2-x,y,1/2+z
8 x,1/2-y,1/2+z
_cell_length_a                   23.725(13)
_cell_length_b                   9.842(6)
_cell_length_c                   22.812(14)
_cell_angle_alpha                90
_cell_angle_beta                 90
_cell_angle_gamma                90
_cell_volume                     5326.64
_exptl_crystal_colour            plate
_exptl_crystal_description       brown
_cell_formula_units_Z            4
loop_
_atom_site_label
_atom_site_type_symbol
_atom_site_fract_x
_atom_site_fract_y
_atom_site_fract_z
C1 C 0.91257(9) 0.2584(2) 0.42206(9)
C2 C 0.88979(10) 0.3837(2) 0.40674(10)
H1 H 0.8727 0.3960 0.3695
C3 C 0.89217(10) 0.4904(2) 0.44617(10)
H2 H 0.8756 0.5751 0.4360
C4 C 0.91829(10) 0.4760(2) 0.50029(10)
H3 H 0.9202 0.5506 0.5266
C5 C 0.94161(9) 0.3509(2) 0.51559(9)
C6 C 0.97079(9) 0.3214(2) 0.56945(9)
C7 C 0.96758(10) 0.3784(2) 0.62567(9)
C8 C 1.00175(10) 0.2966(2) 0.66291(9)
C9 C 1.02485(10) 0.1934(2) 0.62831(9)
C10 C 1.05911(10) 0.0728(2) 0.63899(9)
C11 C 1.10626(10) 0.0415(2) 0.67344(9)
C12 C 1.12367(10) -0.0919(2) 0.65788(9)
C13 C 1.08680(10) -0.1384(2) 0.61466(9)
C14 C 0.93246(10) 0.4971(2) 0.64482(10)
H4 H 0.9228 0.4858 0.6868
H5 H 0.8968 0.4970 0.6223
C15 C 0.96141(12) 0.6344(2) 0.63663(10)
H6 H 0.9969 0.6355 0.6587
H7 H 0.9367 0.7068 0.6511
H8 H 0.9692 0.6489 0.5949
C16 C 1.00696(11) 0.3112(2) 0.72845(9)
H9 H 1.0219 0.2251 0.7445
H10 H 0.9688 0.3245 0.7450
C17 C 1.04440(12) 0.4270(2) 0.74933(11)
H11 H 1.0824 0.4153 0.7334
H12 H 1.0461 0.4266 0.7923
H13 H 1.0288 0.5138 0.7358
C18 C 1.13799(10) 0.1365(2) 0.71376(10)
H14 H 1.1647 0.0828 0.7378
H15 H 1.1109 0.1806 0.7407
C19 C 1.17032(13) 0.2452(3) 0.68111(13)
H16 H 1.1974 0.2023 0.6545
H17 H 1.1905 0.3027 0.7092
H18 H 1.1440 0.3011 0.6584
C20 C 1.17485(10) -0.1640(2) 0.68105(10)
H19 H 1.2045 -0.0962 0.6896
H20 H 1.1895 -0.2259 0.6504
C21 C 1.16267(13) -0.2464(3) 0.73682(11)
H21 H 1.1499 -0.1851 0.7679
H22 H 1.1971 -0.2929 0.7495
H23 H 1.1333 -0.3138 0.7287
N1 N 0.93637(7) 0.24705(16) 0.47616(7)
H24 H 0.9494 0.1668 0.4865
N2 N 1.00547(8) 0.21058(17) 0.57242(7)
H25 H 1.0141 0.1579 0.5426
N3 N 1.04824(8) -0.03735(17) 0.60395(7)
H26 H 1.0206 -0.0425 0.5783
C1D C 1.08743(9) -0.2584(2) 0.57794(9)
C2D C 1.11021(10) -0.3837(2) 0.59326(10)
H1D H 1.1273 -0.3960 0.6305
C3D C 1.10783(10) -0.4904(2) 0.55383(10)
H2D H 1.1244 -0.5751 0.5640
C4D C 1.08171(10) -0.4760(2) 0.49971(10)
H3D H 1.0798 -0.5506 0.4734
C5D C 1.05839(9) -0.3509(2) 0.48441(9)
C6D C 1.02921(9) -0.3214(2) 0.43055(9)
C7D C 1.03242(10) -0.3784(2) 0.37433(9)
C8D C 0.99825(10) -0.2966(2) 0.33709(9)
C9D C 0.97515(10) -0.1934(2) 0.37169(9)
C10D C 0.94089(10) -0.0728(2) 0.36101(9)
C11D C 0.89374(10) -0.0415(2) 0.32656(9)
C12D C 0.87633(10) 0.0919(2) 0.34212(9)
C13D C 0.91320(10) 0.1384(2) 0.38534(9)
C14D C 1.06754(10) -0.4971(2) 0.35518(10)
H4D H 1.0772 -0.4858 0.3132
H5D H 1.1032 -0.4970 0.3777
C15D C 1.03859(12) -0.6344(2) 0.36337(10)
H6D H 1.0031 -0.6355 0.3413
H7D H 1.0633 -0.7068 0.3489
H8D H 1.0308 -0.6489 0.4051
C16D C 0.99304(11) -0.3112(2) 0.27155(9)
H9D H 0.9781 -0.2251 0.2555
H10D H 1.0312 -0.3245 0.2550
C17D C 0.95560(12) -0.4270(2) 0.25067(11)
H11D H 0.9176 -0.4153 0.2666
H12D H 0.9539 -0.4266 0.2077
H13D H 0.9712 -0.5138 0.2642
C18D C 0.86201(10) -0.1365(2) 0.28624(10)
H14D H 0.8353 -0.0828 0.2622
H15D H 0.8891 -0.1806 0.2593
C19D C 0.82968(13) -0.2452(3) 0.31889(13)
H16D H 0.8026 -0.2023 0.3455
H17D H 0.8095 -0.3027 0.2908
H18D H 0.8560 -0.3011 0.3416
C20D C 0.82515(10) 0.1640(2) 0.31895(10)
H19D H 0.7955 0.0962 0.3104
H20D H 0.8105 0.2259 0.3496
C21D C 0.83733(13) 0.2464(3) 0.26318(11)
H21D H 0.8501 0.1851 0.2321
H22D H 0.8029 0.2929 0.2505
H23D H 0.8667 0.3138 0.2713
N1D N 1.06363(7) -0.24705(16) 0.52384(7)
H24D H 1.0506 -0.1668 0.5135
N2D N 0.99453(8) -0.21058(17) 0.42758(7)
H25D H 0.9859 -0.1579 0.4574
N3D N 0.95176(8) 0.03735(17) 0.39605(7)
H26D H 0.9794 0.0425 0.4217
C22 C 0.90287(11) -0.1116(2) 0.53230(10)
C23 C 0.85630(10) -0.0055(2) 0.53443(9)
C24 C 0.85244(10) 0.0897(2) 0.57894(9)
C25 C 0.81128(10) 0.1882(2) 0.57861(10)
C26 C 0.77243(10) 0.1978(2) 0.53354(10)
C27 C 0.77637(10) 0.1016(2) 0.48919(10)
C28 C 0.81701(10) 0.0021(2) 0.49013(10)
F1 F 0.88903(6) 0.08501(13) 0.62422(6)
F2 F 0.80930(7) 0.27906(14) 0.62263(6)
F3 F 0.81795(6) -0.08881(14) 0.44581(6)
F4 F 0.73894(6) 0.10517(15) 0.44434(6)
O1 O 0.95179(7) -0.06268(17) 0.52616(7)
O2 O 0.88825(9) -0.23153(17) 0.53451(10)
C22A C 0.59713(11) 0.6116(2) 0.53230(10)
C23A C 0.64370(10) 0.5055(2) 0.53443(9)
C24A C 0.64756(10) 0.4103(2) 0.57894(9)
C25A C 0.68872(10) 0.3118(2) 0.57861(10)
C26A C 0.72757(10) 0.3022(2) 0.53354(10)
C27A C 0.72363(10) 0.3984(2) 0.48919(10)
C28A C 0.68299(10) 0.4979(2) 0.49013(10)
F1A F 0.61097(6) 0.41499(13) 0.62422(6)
F2A F 0.69070(7) 0.22094(14) 0.62263(6)
F3A F 0.68205(6) 0.58881(14) 0.44581(6)
F4A F 0.76106(6) 0.39483(15) 0.44434(6)
O1A O 0.54821(7) 0.56268(17) 0.52616(7)
O2A O 0.61175(9) 0.73153(17) 0.53451(10)
loop_
_geom_bond_atom_site_label_1
_geom_bond_atom_site_label_2
_geom_bond_site_symmetry_1
_geom_bond_site_symmetry_2
C1 C2 1_555 1_555
C2 H1 1_555 1_555
C3 C2 1_555 1_555
H2 C3 1_555 1_555
C4 C3 1_555 1_555
H3 C4 1_555 1_555
C5 C4 1_555 1_555
C6 C5 1_555 1_555
C7 C6 1_555 1_555
C8 C7 1_555 1_555
C9 C8 1_555 1_555
C10 C9 1_555 1_555
C11 C10 1_555 1_555
C12 C11 1_555 1_555
C13 C12 1_555 1_555
C14 C7 1_555 1_555
H4 C14 1_555 1_555
H5 C14 1_555 1_555
C15 C14 1_555 1_555
H6 C15 1_555 1_555
H7 C15 1_555 1_555
H8 C15 1_555 1_555
C16 C8 1_555 1_555
H9 C16 1_555 1_555
H10 C16 1_555 1_555
C17 C16 1_555 1_555
H11 C17 1_555 1_555
H12 C17 1_555 1_555
H13 C17 1_555 1_555
C18 C11 1_555 1_555
H14 C18 1_555 1_555
H15 C18 1_555 1_555
C19 C18 1_555 1_555
H16 C19 1_555 1_555
H17 C19 1_555 1_555
H18 C19 1_555 1_555
C20 C12 1_555 1_555
H19 C20 1_555 1_555
H20 C20 1_555 1_555
C21 C20 1_555 1_555
H21 C21 1_555 1_555
H22 C21 1_555 1_555
H23 C21 1_555 1_555
N1 C1 1_555 1_555
H24 N1 1_555 1_555
N2 C6 1_555 1_555
H25 N2 1_555 1_555
N3 C10 1_555 1_555
H26 N3 1_555 1_555
C22 C23 1_555 1_555
C23 C24 1_555 1_555
C24 C25 1_555 1_555
C25 C26 1_555 1_555
C26 C27 1_555 1_555
C27 C28 1_555 1_555
C28 C23 1_555 1_555
F1 C24 1_555 1_555
F2 C25 1_555 1_555
F3 C28 1_555 1_555
F4 C27 1_555 1_555
O1 C22 1_555 1_555
O2 C22 1_555 1_555
C1D C13 1_555 1_555
C2D C1D 1_555 1_555
H1D C2D 1_555 1_555
C3D C2D 1_555 1_555
H2D C3D 1_555 1_555
C4D C3D 1_555 1_555
H3D C4D 1_555 1_555
C5D C4D 1_555 1_555
C6D C5D 1_555 1_555
C7D C6D 1_555 1_555
C8D C7D 1_555 1_555
C9D C8D 1_555 1_555
C10D C9D 1_555 1_555
C11D C10D 1_555 1_555
C12D C11D 1_555 1_555
C13D C1 1_555 1_555
C14D C7D 1_555 1_555
H4D C14D 1_555 1_555
H5D C14D 1_555 1_555
C15D C14D 1_555 1_555
H6D C15D 1_555 1_555
H7D C15D 1_555 1_555
H8D C15D 1_555 1_555
C16D C8D 1_555 1_555
H9D C16D 1_555 1_555
H10D C16D 1_555 1_555
C17D C16D 1_555 1_555
H11D C17D 1_555 1_555
H12D C17D 1_555 1_555
H13D C17D 1_555 1_555
C18D C11D 1_555 1_555
H14D C18D 1_555 1_555
H15D C18D 1_555 1_555
C19D C18D 1_555 1_555
H16D C19D 1_555 1_555
H17D C19D 1_555 1_555
H18D C19D 1_555 1_555
C20D C12D 1_555 1_555
H19D C20D 1_555 1_555
H20D C20D 1_555 1_555
C21D C20D 1_555 1_555
H21D C21D 1_555 1_555
H22D C21D 1_555 1_555
H23D C21D 1_555 1_555
N1D C1D 1_555 1_555
H24D N1D 1_555 1_555
N2D C6D 1_555 1_555
H25D N2D 1_555 1_555
N3D C10D 1_555 1_555
H26D N3D 1_555 1_555
C22A C23A 1_555 1_555
C23A C24A 1_555 1_555
C24A C25A 1_555 1_555
C25A C26A 1_555 1_555
C26A C26 1_555 1_555
C27A C26A 1_555 1_555
C28A C23A 1_555 1_555
F1A C24A 1_555 1_555
F2A C25A 1_555 1_555
F3A C28A 1_555 1_555
F4A C27A 1_555 1_555
O1A C22A 1_555 1_555
O2A C22A 1_555 1_555
C5 N1 1_555 1_555
C9 N2 1_555 1_555
C13 N3 1_555 1_555
C5D N1D 1_555 1_555
C9D N2D 1_555 1_555
C12D C13D 1_555 1_555
C13D N3D 1_555 1_555
C27A C28A 1_555 1_555

#END
