
#######################################################################
#
#                 Cambridge Crystallographic Data Centre
#                                CCDC 
#
#######################################################################
#
# If this CIF has been generated from an entry in the Cambridge 
# Structural Database, then it will include bibliographic, chemical, 
# crystal, experimental, refinement or atomic coordinate data resulting 
# from the CCDC's data processing and validation procedures.
#
#######################################################################

data_BULTOT
_chemical_formula_moiety         'C35 H36 N6 2+,C2 H2 O4,2(C2 H1 O4 1-)'
_chemical_name_systematic        
'3,4,21,22-tetraethyl-29,31,32,33-tetraaza-28,30-diazoniaheptacyclo[22.3.1.12,5.16,10.111,14.115,19.120,23]tritriaconta-1(28),2,4,6(32),7,9,11,13,15(30),16,18,20,22,24,26-pentadecaene bis(oxalato) oxalic acid unknown solvate'
_symmetry_cell_setting           triclinic
_symmetry_space_group_name_H-M   'P -1'
_symmetry_Int_Tables_number      2
_space_group_name_Hall           '-P 1'
loop_
_symmetry_equiv_pos_site_id
_symmetry_equiv_pos_as_xyz
1 x,y,z
2 -x,-y,-z
_cell_length_a                   9.783(2)
_cell_length_b                   13.732(3)
_cell_length_c                   16.839(3)
_cell_angle_alpha                113.460(10)
_cell_angle_beta                 93.670(10)
_cell_angle_gamma                101.860(10)
_cell_volume                     2003.89
_exptl_crystal_colour            red
_exptl_crystal_description       plate
_cell_formula_units_Z            2
loop_
_atom_site_label
_atom_site_type_symbol
_atom_site_fract_x
_atom_site_fract_y
_atom_site_fract_z
C1 C 0.75084(19) 0.51014(15) 0.44930(10)
C2 C 0.7330(2) 0.48669(17) 0.52153(12)
H1 H 0.7927 0.5228 0.5770
C3 C 0.6116(2) 0.40035(17) 0.49800(11)
H2 H 0.5735 0.3678 0.5347
C4 C 0.55719(18) 0.37104(15) 0.41123(11)
C5 C 0.43913(18) 0.28375(14) 0.35433(11)
C6 C 0.32852(19) 0.23214(16) 0.38353(12)
H3 H 0.3290 0.2528 0.4445
C7 C 0.2189(2) 0.15128(15) 0.32344(12)
H4 H 0.1452 0.1144 0.3432
C8 C 0.21426(18) 0.12248(15) 0.23413(12)
H5 H 0.1368 0.0676 0.1932
C9 C 0.32328(17) 0.17441(13) 0.20545(11)
C10 C 0.32970(16) 0.16083(13) 0.11595(10)
C11 C 0.28214(16) 0.07256(13) 0.03331(11)
C12 C 0.33522(16) 0.10873(13) -0.02894(10)
C13 C 0.41045(16) 0.21822(13) 0.01703(10)
C14 C 0.49047(16) 0.29685(12) -0.01146(10)
C15 C 0.46025(17) 0.29633(13) -0.09244(10)
H6 H 0.3849 0.2411 -0.1350
C16 C 0.54174(18) 0.37807(14) -0.11130(11)
H7 H 0.5233 0.3771 -0.1677
C17 C 0.64839(17) 0.46009(14) -0.04923(10)
H8 H 0.7004 0.5168 -0.0623
C18 C 0.68083(16) 0.46069(12) 0.03288(10)
C19 C 0.79109(16) 0.54162(12) 0.10148(10)
C20 C 0.91750(17) 0.60952(13) 0.09802(10)
C21 C 0.99740(17) 0.66035(13) 0.18303(11)
C22 C 0.91768(17) 0.62522(13) 0.23676(10)
C23 C 0.94313(18) 0.64452(14) 0.32926(11)
C24 C 1.0575(2) 0.72206(17) 0.39116(12)
H9 H 1.1250 0.7687 0.3753
C25 C 1.0708(2) 0.72994(18) 0.47557(13)
H10 H 1.1487 0.7816 0.5182
C26 C 0.9714(2) 0.66313(16) 0.49831(12)
H11 H 0.9789 0.6683 0.5565
C27 C 0.85898(19) 0.58733(14) 0.43335(11)
C28 C 0.20003(18) -0.04182(13) 0.01365(12)
H12 H 0.1577 -0.0795 -0.0492
H13 H 0.1217 -0.0377 0.0483
C29 C 0.2903(2) -0.10975(15) 0.03435(14)
H14 H 0.3691 -0.1132 0.0010
H15 H 0.2321 -0.1841 0.0181
H16 H 0.3277 -0.0755 0.0973
C30 C 0.32109(18) 0.03872(14) -0.12557(10)
H17 H 0.3282 -0.0356 -0.1341
H18 H 0.4010 0.0703 -0.1485
C31 C 0.18190(19) 0.02863(15) -0.17893(12)
H19 H 0.1022 0.0045 -0.1531
H20 H 0.1742 -0.0251 -0.2396
H21 H 0.1804 0.1001 -0.1783
C32 C 0.96451(17) 0.62365(13) 0.01942(11)
H22 H 0.9250 0.5543 -0.0335
H23 H 1.0690 0.6387 0.0262
C33 C 0.91809(19) 0.71723(14) 0.00615(12)
H24 H 0.8145 0.7008 -0.0038
H25 H 0.9541 0.7244 -0.0448
H26 H 0.9561 0.7861 0.0586
C34 C 1.14480(18) 0.73370(14) 0.20728(12)
H27 H 1.1920 0.7131 0.1548
H28 H 1.1989 0.7209 0.2523
C35 C 1.1503(2) 0.85587(16) 0.24240(15)
H29 H 1.0982 0.8697 0.1980
H30 H 1.2491 0.8984 0.2560
H31 H 1.1073 0.8779 0.2957
N1 N 0.64301(14) 0.43955(11) 0.38359(8)
H32 H 0.6302 0.4381 0.3309
N2 N 0.43510(14) 0.24904(11) 0.26653(8)
H33 H 0.5090 0.2763 0.2478
N3 N 0.40535(13) 0.24829(11) 0.10422(8)
H34 H 0.4446 0.3138 0.1463
N4 N 0.60230(13) 0.37650(10) 0.04743(8)
H35 H 0.6249 0.3732 0.0976
N5 N 0.79411(14) 0.55414(11) 0.18692(8)
H36 H 0.7263 0.5212 0.2064
N6 N 0.84623(15) 0.57805(11) 0.35071(8)
C36 C 0.80207(16) 0.31898(13) 0.20094(9)
C37 C 0.82857(17) 0.26402(13) 0.26308(10)
O1 O 0.67840(11) 0.32784(9) 0.18923(7)
O2 O 0.73530(13) 0.22427(10) 0.29247(8)
O3 O 0.90395(12) 0.34631(10) 0.16672(7)
O4 O 0.96203(12) 0.26172(10) 0.28106(8)
H37 H 1.0133 0.2916 0.2547
C38 C 0.39269(17) 0.51536(13) 0.26080(10)
C39 C 0.24039(17) 0.44694(13) 0.23774(10)
O5 O 0.48515(12) 0.46672(9) 0.22954(7)
O6 O 0.41077(13) 0.61497(9) 0.31037(7)
O7 O 0.20631(12) 0.36650(10) 0.25260(8)
O8 O 0.15227(12) 0.48414(10) 0.20242(8)
H38 H 0.0693 0.4463 0.1949
C40 C 0.8373(2) 0.89448(16) 0.42647(12)
C41 C 0.7103(2) 0.80467(15) 0.36234(11)
O9 O 0.68665(15) 0.79107(12) 0.28744(8)
O10 O 0.64035(15) 0.74840(11) 0.40023(8)
H39 H 0.5717 0.7000 0.3640
O11 O 0.85972(16) 0.90746(13) 0.50272(8)
O12 O 0.91227(15) 0.94870(12) 0.39012(8)
H40 H 0.9876 0.9885 0.4245
loop_
_geom_bond_atom_site_label_1
_geom_bond_atom_site_label_2
_geom_bond_site_symmetry_1
_geom_bond_site_symmetry_2
C1 C2 1_555 1_555
C2 H1 1_555 1_555
C3 C2 1_555 1_555
H2 C3 1_555 1_555
C4 C3 1_555 1_555
C5 C4 1_555 1_555
C6 C5 1_555 1_555
H3 C6 1_555 1_555
C7 C6 1_555 1_555
H4 C7 1_555 1_555
C8 C7 1_555 1_555
H5 C8 1_555 1_555
C9 C8 1_555 1_555
C10 C9 1_555 1_555
C11 C10 1_555 1_555
C12 C11 1_555 1_555
C13 C12 1_555 1_555
C14 C13 1_555 1_555
C15 C14 1_555 1_555
H6 C15 1_555 1_555
C16 C15 1_555 1_555
H7 C16 1_555 1_555
C17 C16 1_555 1_555
H8 C17 1_555 1_555
C18 C17 1_555 1_555
C19 C18 1_555 1_555
C20 C19 1_555 1_555
C21 C20 1_555 1_555
C22 C21 1_555 1_555
C23 C22 1_555 1_555
C24 C23 1_555 1_555
H9 C24 1_555 1_555
C25 C24 1_555 1_555
H10 C25 1_555 1_555
C26 C25 1_555 1_555
H11 C26 1_555 1_555
C27 C1 1_555 1_555
C28 C11 1_555 1_555
H12 C28 1_555 1_555
H13 C28 1_555 1_555
C29 C28 1_555 1_555
H14 C29 1_555 1_555
H15 C29 1_555 1_555
H16 C29 1_555 1_555
C30 C12 1_555 1_555
H17 C30 1_555 1_555
H18 C30 1_555 1_555
C31 C30 1_555 1_555
H19 C31 1_555 1_555
H20 C31 1_555 1_555
H21 C31 1_555 1_555
C32 C20 1_555 1_555
H22 C32 1_555 1_555
H23 C32 1_555 1_555
C33 C32 1_555 1_555
H24 C33 1_555 1_555
H25 C33 1_555 1_555
H26 C33 1_555 1_555
C34 C21 1_555 1_555
H27 C34 1_555 1_555
H28 C34 1_555 1_555
C35 C34 1_555 1_555
H29 C35 1_555 1_555
H30 C35 1_555 1_555
H31 C35 1_555 1_555
N1 C1 1_555 1_555
H32 N1 1_555 1_555
N2 C5 1_555 1_555
H33 N2 1_555 1_555
N3 C10 1_555 1_555
H34 N3 1_555 1_555
N4 C14 1_555 1_555
H35 N4 1_555 1_555
N5 C19 1_555 1_555
H36 N5 1_555 1_555
N6 C23 1_555 1_555
C36 C37 1_555 1_555
C37 O2 1_555 1_555
O1 C36 1_555 1_555
O3 C36 1_555 1_555
O4 C37 1_555 1_555
H37 O4 1_555 1_555
C38 C39 1_555 1_555
C39 O7 1_555 1_555
O5 C38 1_555 1_555
O6 C38 1_555 1_555
O8 C39 1_555 1_555
H38 O8 1_555 1_555
C40 C41 1_555 1_555
C41 O9 1_555 1_555
O10 C41 1_555 1_555
H39 O10 1_555 1_555
O11 C40 1_555 1_555
O12 C40 1_555 1_555
H40 O12 1_555 1_555
C4 N1 1_555 1_555
C9 N2 1_555 1_555
C13 N3 1_555 1_555
C18 N4 1_555 1_555
C22 N5 1_555 1_555
C26 C27 1_555 1_555
C27 N6 1_555 1_555

#END
