
#######################################################################
#
#                 Cambridge Crystallographic Data Centre
#                                CCDC 
#
#######################################################################
#
# If this CIF has been generated from an entry in the Cambridge 
# Structural Database, then it will include bibliographic, chemical, 
# crystal, experimental, refinement or atomic coordinate data resulting 
# from the CCDC's data processing and validation procedures.
#
#######################################################################

data_BUPJOL
_chemical_formula_moiety         'C4 H2 O4 2-,Ca1 2+,2(H2 O1)'
_chemical_name_systematic        'Calcium maleate dihydrate'
_symmetry_cell_setting           orthorhombic
_symmetry_space_group_name_H-M   'P 21 21 21'
_symmetry_Int_Tables_number      19
_space_group_name_Hall           'P 2ac 2ab'
loop_
_symmetry_equiv_pos_site_id
_symmetry_equiv_pos_as_xyz
1 x,y,z
2 1/2+x,1/2-y,-z
3 -x,1/2+y,1/2-z
4 1/2-x,-y,1/2+z
_cell_length_a                   8.54(2)
_cell_length_b                   10.83(3)
_cell_length_c                   6.84(1)
_cell_angle_alpha                90
_cell_angle_beta                 90
_cell_angle_gamma                90
_cell_volume                     632.619
_cell_formula_units_Z            4
loop_
_atom_site_label
_atom_site_type_symbol
_atom_site_fract_x
_atom_site_fract_y
_atom_site_fract_z
Ca1 Ca 0.29800 0.09230 0.00720
O1 O 0.02150 0.05550 0.01290
O2 O 0.50840 0.11970 0.23330
O3 O 0.21440 0.11340 0.67880
O4 O 0.20400 0.11590 0.34510
O5 O 0.24440 0.30400 0.03530
O6 O 0.03170 0.37190 0.19800
C1 C 0.23510 0.16400 0.51230
C2 C 0.30500 0.28870 0.50500
C3 C 0.27490 0.36820 0.36030
C4 C 0.17800 0.34820 0.18700
loop_
_geom_bond_atom_site_label_1
_geom_bond_atom_site_label_2
_geom_bond_site_symmetry_1
_geom_bond_site_symmetry_2
O3 C1 1_555 1_555
O4 C1 1_555 1_555
O5 C4 1_555 1_555
O6 C4 1_555 1_555
C1 C2 1_555 1_555
C2 C3 1_555 1_555
C3 C4 1_555 1_555

#END
