
#######################################################################
#
#                 Cambridge Crystallographic Data Centre
#                                CCDC 
#
#######################################################################
#
# If this CIF has been generated from an entry in the Cambridge 
# Structural Database, then it will include bibliographic, chemical, 
# crystal, experimental, refinement or atomic coordinate data resulting 
# from the CCDC's data processing and validation procedures.
#
#######################################################################

data_BUPNAD
_chemical_compound_source        'whole plant Chloranthus sessilifolius'
_chemical_name_common            'Sessilifol D'
_chemical_formula_moiety         'C20 H32 O3'
_chemical_name_systematic        
(3R,5S,9S,10R,13S)-3,13-Dihydroxyabiet-8(14)-en-7-one
_symmetry_cell_setting           monoclinic
_symmetry_space_group_name_H-M   'P 21'
_symmetry_Int_Tables_number      4
_space_group_name_Hall           'P 2yb'
loop_
_symmetry_equiv_pos_site_id
_symmetry_equiv_pos_as_xyz
1 x,y,z
2 -x,1/2+y,-z
_cell_length_a                   6.1311(2)
_cell_length_b                   17.3576(7)
_cell_length_c                   8.5062(4)
_cell_angle_alpha                90
_cell_angle_beta                 98.395(2)
_cell_angle_gamma                90
_cell_volume                     895.54
_exptl_crystal_colour            colorless
_exptl_crystal_description       block
_cell_formula_units_Z            2
_exptl_crystal_recrystallization_method methanol
loop_
_atom_site_label
_atom_site_type_symbol
_atom_site_fract_x
_atom_site_fract_y
_atom_site_fract_z
O1 O 0.2010(3) 0.24278(10) -0.20812(19)
H1 H 0.1257 0.2154 -0.1547
O2 O 0.0066(4) 0.64313(12) 0.0173(2)
O3 O 0.5807(3) 0.70680(10) 0.46374(19)
H2 H 0.6583 0.7155 0.3921
C1 C 0.4330(3) 0.35940(13) 0.1538(2)
H3 H 0.5763 0.3728 0.1205
H4 H 0.4613 0.3448 0.2675
C2 C 0.3365(4) 0.28999(13) 0.0573(3)
H5 H 0.4448 0.2473 0.0700
H6 H 0.2024 0.2723 0.0988
C3 C 0.2780(3) 0.30934(13) -0.1183(3)
H7 H 0.4175 0.3259 -0.1564
C4 C 0.1138(3) 0.37686(13) -0.1500(2)
C5 C 0.2098(3) 0.44620(12) -0.0449(3)
H8 H 0.3476 0.4610 -0.0874
C6 C 0.0612(4) 0.51752(13) -0.0697(3)
H9 H 0.0645 0.5366 -0.1790
H10 H -0.0919 0.5009 -0.0637
C7 C 0.1137(4) 0.58427(14) 0.0428(3)
C8 C 0.2877(3) 0.57543(13) 0.1839(2)
C9 C 0.4230(3) 0.50191(12) 0.1982(2)
H11 H 0.5367 0.5085 0.1261
C10 C 0.2842(3) 0.43066(13) 0.1357(2)
C11 C 0.5510(3) 0.49430(12) 0.3674(2)
H12 H 0.4494 0.4778 0.4413
H13 H 0.6673 0.4547 0.3685
C12 C 0.6556(3) 0.57140(13) 0.4220(3)
H14 H 0.7493 0.5893 0.3438
H15 H 0.7513 0.5644 0.5253
C13 C 0.4809(3) 0.63258(13) 0.4396(3)
C14 C 0.3160(4) 0.63245(13) 0.2892(3)
H16 H 0.2251 0.6767 0.2682
C15 C 0.3571(4) 0.61863(13) 0.5848(3)
H17 H 0.2633 0.5717 0.5618
C16 C 0.5189(4) 0.60299(16) 0.7362(3)
H18 H 0.4421 0.6080 0.8290
H19 H 0.6400 0.6403 0.7442
H20 H 0.5780 0.5507 0.7323
C17 C 0.2045(4) 0.68611(15) 0.6094(3)
H21 H 0.2924 0.7330 0.6322
H22 H 0.1255 0.6748 0.6989
H23 H 0.0981 0.6937 0.5130
C18 C -0.1180(3) 0.35101(16) -0.1251(3)
H24 H -0.1752 0.3141 -0.2081
H25 H -0.2158 0.3959 -0.1307
H26 H -0.1110 0.3266 -0.0207
C19 C 0.1028(4) 0.39956(15) -0.3260(3)
H27 H -0.0138 0.4379 -0.3535
H28 H 0.0705 0.3538 -0.3928
H29 H 0.2446 0.4214 -0.3436
C20 C 0.0905(3) 0.42007(15) 0.2304(3)
H30 H 0.1459 0.4212 0.3444
H31 H 0.0186 0.3705 0.2027
H32 H -0.0162 0.4618 0.2043
loop_
_geom_bond_atom_site_label_1
_geom_bond_atom_site_label_2
_geom_bond_site_symmetry_1
_geom_bond_site_symmetry_2
O1 H1 1_555 1_555
O2 C7 1_555 1_555
O3 H2 1_555 1_555
C1 H3 1_555 1_555
H4 C1 1_555 1_555
C2 C1 1_555 1_555
H5 C2 1_555 1_555
H6 C2 1_555 1_555
C3 O1 1_555 1_555
H7 C3 1_555 1_555
C4 C3 1_555 1_555
C5 C4 1_555 1_555
H8 C5 1_555 1_555
C6 C5 1_555 1_555
H9 C6 1_555 1_555
H10 C6 1_555 1_555
C7 C6 1_555 1_555
C8 C7 1_555 1_555
C9 C8 1_555 1_555
H11 C9 1_555 1_555
C10 C1 1_555 1_555
C11 C9 1_555 1_555
H12 C11 1_555 1_555
H13 C11 1_555 1_555
C12 C11 1_555 1_555
H14 C12 1_555 1_555
H15 C12 1_555 1_555
C13 O3 1_555 1_555
C14 C8 1_555 1_555
H16 C14 1_555 1_555
C15 C13 1_555 1_555
H17 C15 1_555 1_555
C16 C15 1_555 1_555
H18 C16 1_555 1_555
H19 C16 1_555 1_555
H20 C16 1_555 1_555
C17 C15 1_555 1_555
H21 C17 1_555 1_555
H22 C17 1_555 1_555
H23 C17 1_555 1_555
C18 C4 1_555 1_555
H24 C18 1_555 1_555
H25 C18 1_555 1_555
H26 C18 1_555 1_555
C19 C4 1_555 1_555
H27 C19 1_555 1_555
H28 C19 1_555 1_555
H29 C19 1_555 1_555
C20 C10 1_555 1_555
H30 C20 1_555 1_555
H31 C20 1_555 1_555
H32 C20 1_555 1_555
C2 C3 1_555 1_555
C5 C10 1_555 1_555
C9 C10 1_555 1_555
C12 C13 1_555 1_555
C13 C14 1_555 1_555

#END
