
#######################################################################
#
#                 Cambridge Crystallographic Data Centre
#                                CCDC 
#
#######################################################################
#
# If this CIF has been generated from an entry in the Cambridge 
# Structural Database, then it will include bibliographic, chemical, 
# crystal, experimental, refinement or atomic coordinate data resulting 
# from the CCDC's data processing and validation procedures.
#
#######################################################################

data_BUPNIL
_chemical_compound_source        'Chloranthus sessilifolius'
_chemical_formula_moiety         'C20 H32 O3,0.5(H2 O1)'
_chemical_name_systematic        
'1-(3,7-dihydroxy-6,6,9a-trimethyl-2,3,5,5a,6,7,8,9,9a,9b-decahydro-1H-cyclopenta[a]naphthalen-2-yl)-2-methylpropan-1-one hemihydrate'
_symmetry_cell_setting           monoclinic
_symmetry_space_group_name_H-M   'P 21'
_symmetry_Int_Tables_number      4
_space_group_name_Hall           'P 2yb'
loop_
_symmetry_equiv_pos_site_id
_symmetry_equiv_pos_as_xyz
1 x,y,z
2 -x,1/2+y,-z
_cell_length_a                   8.1519(11)
_cell_length_b                   20.549(3)
_cell_length_c                   10.9532(11)
_cell_angle_alpha                90
_cell_angle_beta                 94.218(10)
_cell_angle_gamma                90
_cell_volume                     1829.84
_exptl_crystal_colour            colorless
_cell_formula_units_Z            4
_exptl_crystal_recrystallization_method methanol/water
loop_
_atom_site_label
_atom_site_type_symbol
_atom_site_fract_x
_atom_site_fract_y
_atom_site_fract_z
O1 O -0.1771(5) 0.78840(19) 0.9444(3)
H1 H -0.1765 0.7634 1.0051
O2 O 0.0796(5) 0.61222(19) 0.2404(3)
H2 H 0.0957 0.5718 0.2409
O3 O 0.4924(6) 0.7100(2) 0.2602(4)
C1 C 0.1124(7) 0.7849(3) 0.6940(5)
H3 H 0.1649 0.8209 0.6511
H4 H 0.2006 0.7599 0.7399
C2 C -0.0021(7) 0.8138(3) 0.7850(5)
H5 H 0.0620 0.8414 0.8452
H6 H -0.0866 0.8413 0.7408
C3 C -0.0848(7) 0.7591(3) 0.8510(5)
H7 H 0.0037 0.7317 0.8930
C4 C -0.1913(7) 0.7147(3) 0.7647(5)
C5 C -0.0780(7) 0.6886(2) 0.6659(5)
H8 H 0.0063 0.6612 0.7126
C6 C -0.1699(8) 0.6415(3) 0.5752(5)
H9 H -0.1984 0.6015 0.6195
H10 H -0.2738 0.6621 0.5426
C7 C -0.0708(8) 0.6231(3) 0.4704(5)
H11 H -0.1146 0.5915 0.4136
C8 C 0.0737(7) 0.6486(3) 0.4533(5)
C9 C 0.1552(7) 0.7003(3) 0.5344(5)
H12 H 0.2273 0.6780 0.5994
C10 C 0.0232(7) 0.7401(2) 0.5987(4)
C11 C 0.2689(7) 0.7372(3) 0.4485(5)
H13 H 0.2523 0.7848 0.4540
H14 H 0.3860 0.7272 0.4709
C12 C 0.2181(7) 0.7127(3) 0.3201(5)
H15 H 0.1177 0.7370 0.2878
C13 C 0.3483(8) 0.7176(3) 0.2275(5)
C14 C 0.1710(7) 0.6409(3) 0.3415(4)
H16 H 0.2724 0.6148 0.3630
C15 C 0.2868(9) 0.7317(3) 0.0955(6)
H17 H 0.1646 0.7367 0.0932
C16 C 0.3555(12) 0.7940(4) 0.0547(8)
H18 H 0.4758 0.7913 0.0597
H19 H 0.3216 0.8293 0.1075
H20 H 0.3145 0.8027 -0.0301
C17 C 0.3222(11) 0.6755(4) 0.0146(6)
H21 H 0.2897 0.6866 -0.0707
H22 H 0.2600 0.6373 0.0385
H23 H 0.4402 0.6656 0.0231
C18 C -0.2467(9) 0.6559(3) 0.8405(6)
H24 H -0.3090 0.6716 0.9078
H25 H -0.1497 0.6319 0.8738
H26 H -0.3165 0.6271 0.7876
C19 C -0.3461(7) 0.7502(3) 0.7139(5)
H27 H -0.4117 0.7628 0.7816
H28 H -0.4112 0.7213 0.6580
H29 H -0.3149 0.7892 0.6697
C20 C -0.0801(7) 0.7800(3) 0.5032(5)
H30 H -0.1493 0.8107 0.5447
H31 H -0.1499 0.7508 0.4514
H32 H -0.0070 0.8042 0.4523
O4 O 0.7575(6) 0.91680(19) -0.0026(3)
H33 H 0.7999 0.8817 -0.0239
O5 O 0.7492(5) 0.99356(18) 0.7946(3)
H34 H 0.7411 0.9798 0.8662
O6 O 0.3519(6) 0.9046(2) 0.8040(4)
C21 C 0.5072(7) 0.9327(3) 0.2704(5)
H35 H 0.3998 0.9539 0.2800
H36 H 0.4932 0.8853 0.2826
C22 C 0.5575(7) 0.9448(3) 0.1401(5)
H37 H 0.4726 0.9270 0.0799
H38 H 0.5663 0.9922 0.1255
C23 C 0.7210(7) 0.9125(3) 0.1236(4)
H39 H 0.7108 0.8654 0.1447
C24 C 0.8611(7) 0.9417(3) 0.2082(5)
C25 C 0.8092(6) 0.9339(3) 0.3425(4)
H40 H 0.8057 0.8859 0.3564
C26 C 0.9398(7) 0.9590(3) 0.4371(5)
H41 H 1.0378 0.9306 0.4365
H42 H 0.9729 1.0032 0.4132
C27 C 0.8855(6) 0.9614(3) 0.5649(5)
H43 H 0.9618 0.9746 0.6299
C28 C 0.7341(7) 0.9458(3) 0.5895(4)
C29 C 0.6024(6) 0.9262(3) 0.4923(4)
H44 H 0.6095 0.8781 0.4811
C30 C 0.6336(6) 0.9587(3) 0.3689(4)
C31 C 0.4370(7) 0.9414(3) 0.5514(5)
H45 H 0.3659 0.9696 0.4968
H46 H 0.3769 0.9006 0.5660
C32 C 0.4845(7) 0.9761(3) 0.6731(5)
H47 H 0.4866 1.0242 0.6594
C33 C 0.3661(7) 0.9601(3) 0.7709(5)
C34 C 0.6584(6) 0.9519(3) 0.7097(4)
H48 H 0.6511 0.9077 0.7469
C35 C 0.2724(7) 1.0156(3) 0.8222(5)
H49 H 0.2081 1.0374 0.7525
C36 C 0.1512(8) 0.9921(4) 0.9116(6)
H50 H 0.0761 0.9602 0.8709
H51 H 0.0879 1.0291 0.9392
H52 H 0.2114 0.9717 0.9823
C37 C 0.3905(8) 1.0652(3) 0.8811(6)
H53 H 0.4531 1.0455 0.9514
H54 H 0.3284 1.1026 0.9087
H55 H 0.4664 1.0798 0.8213
C38 C 1.0151(7) 0.8996(3) 0.1950(5)
H56 H 1.0450 0.9011 0.1100
H57 H 0.9918 0.8545 0.2174
H58 H 1.1064 0.9163 0.2492
C39 C 0.8975(9) 1.0115(3) 0.1722(5)
H59 H 1.0009 1.0257 0.2153
H60 H 0.8078 1.0399 0.1945
H61 H 0.9071 1.0138 0.0836
C40 C 0.6187(8) 1.0325(3) 0.3785(5)
H62 H 0.6174 1.0518 0.2966
H63 H 0.7127 1.0497 0.4296
H64 H 0.5165 1.0436 0.4156
O7 O 0.8199(5) 0.7148(2) 0.1610(3)
loop_
_geom_bond_atom_site_label_1
_geom_bond_atom_site_label_2
_geom_bond_site_symmetry_1
_geom_bond_site_symmetry_2
O1 H1 1_555 1_555
O2 H2 1_555 1_555
O3 C13 1_555 1_555
C1 H3 1_555 1_555
H4 C1 1_555 1_555
C2 C1 1_555 1_555
H5 C2 1_555 1_555
H6 C2 1_555 1_555
C3 O1 1_555 1_555
H7 C3 1_555 1_555
C4 C3 1_555 1_555
C5 C4 1_555 1_555
H8 C5 1_555 1_555
C6 C5 1_555 1_555
H9 C6 1_555 1_555
H10 C6 1_555 1_555
C7 C6 1_555 1_555
H11 C7 1_555 1_555
C8 C7 1_555 1_555
C9 C8 1_555 1_555
H12 C9 1_555 1_555
C10 C1 1_555 1_555
C11 C9 1_555 1_555
H13 C11 1_555 1_555
H14 C11 1_555 1_555
C12 C11 1_555 1_555
H15 C12 1_555 1_555
C13 C12 1_555 1_555
C14 O2 1_555 1_555
H16 C14 1_555 1_555
C15 C13 1_555 1_555
H17 C15 1_555 1_555
C16 C15 1_555 1_555
H18 C16 1_555 1_555
H19 C16 1_555 1_555
H20 C16 1_555 1_555
C17 C15 1_555 1_555
H21 C17 1_555 1_555
H22 C17 1_555 1_555
H23 C17 1_555 1_555
C18 C4 1_555 1_555
H24 C18 1_555 1_555
H25 C18 1_555 1_555
H26 C18 1_555 1_555
C19 C4 1_555 1_555
H27 C19 1_555 1_555
H28 C19 1_555 1_555
H29 C19 1_555 1_555
C20 C10 1_555 1_555
H30 C20 1_555 1_555
H31 C20 1_555 1_555
H32 C20 1_555 1_555
O4 H33 1_555 1_555
O5 H34 1_555 1_555
O6 C33 1_555 1_555
C21 H35 1_555 1_555
H36 C21 1_555 1_555
C22 C21 1_555 1_555
H37 C22 1_555 1_555
H38 C22 1_555 1_555
C23 O4 1_555 1_555
H39 C23 1_555 1_555
C24 C23 1_555 1_555
C25 C24 1_555 1_555
H40 C25 1_555 1_555
C26 C25 1_555 1_555
H41 C26 1_555 1_555
H42 C26 1_555 1_555
C27 C26 1_555 1_555
H43 C27 1_555 1_555
C28 C27 1_555 1_555
C29 C28 1_555 1_555
H44 C29 1_555 1_555
C30 C21 1_555 1_555
C31 C29 1_555 1_555
H45 C31 1_555 1_555
H46 C31 1_555 1_555
C32 C31 1_555 1_555
H47 C32 1_555 1_555
C33 C32 1_555 1_555
C34 O5 1_555 1_555
H48 C34 1_555 1_555
C35 C33 1_555 1_555
H49 C35 1_555 1_555
C36 C35 1_555 1_555
H50 C36 1_555 1_555
H51 C36 1_555 1_555
H52 C36 1_555 1_555
C37 C35 1_555 1_555
H53 C37 1_555 1_555
H54 C37 1_555 1_555
H55 C37 1_555 1_555
C38 C24 1_555 1_555
H56 C38 1_555 1_555
H57 C38 1_555 1_555
H58 C38 1_555 1_555
C39 C24 1_555 1_555
H59 C39 1_555 1_555
H60 C39 1_555 1_555
H61 C39 1_555 1_555
C40 C30 1_555 1_555
H62 C40 1_555 1_555
H63 C40 1_555 1_555
H64 C40 1_555 1_555
C2 C3 1_555 1_555
C5 C10 1_555 1_555
C8 C14 1_555 1_555
C9 C10 1_555 1_555
C12 C14 1_555 1_555
C22 C23 1_555 1_555
C25 C30 1_555 1_555
C28 C34 1_555 1_555
C29 C30 1_555 1_555
C32 C34 1_555 1_555

#END
