
#######################################################################
#
#                 Cambridge Crystallographic Data Centre
#                                CCDC 
#
#######################################################################
#
# If this CIF has been generated from an entry in the Cambridge 
# Structural Database, then it will include bibliographic, chemical, 
# crystal, experimental, refinement or atomic coordinate data resulting 
# from the CCDC's data processing and validation procedures.
#
#######################################################################

data_BUPPAE
_chemical_formula_moiety         'C26 H70 B24 K2 O4'
_chemical_name_systematic        
bis(8,9-(trimethylene)-11,12-(\m~2~-butoxyborane)-8,9-dicarbadodecaborane)-bis(tetrahydrofuran)-di-potassium
_symmetry_cell_setting           monoclinic
_symmetry_space_group_name_H-M   'P 21/c'
_symmetry_Int_Tables_number      14
_space_group_name_Hall           '-P 2ybc'
loop_
_symmetry_equiv_pos_site_id
_symmetry_equiv_pos_as_xyz
1 x,y,z
2 -x,1/2+y,1/2-z
3 -x,-y,-z
4 x,1/2-y,1/2+z
_cell_length_a                   7.9992(3)
_cell_length_b                   14.4760(6)
_cell_length_c                   21.5804(9)
_cell_angle_alpha                90
_cell_angle_beta                 100.2990(10)
_cell_angle_gamma                90
_cell_volume                     2458.67
_exptl_crystal_colour            colorless
_exptl_crystal_description       block
_cell_formula_units_Z            2
loop_
_atom_site_label
_atom_site_type_symbol
_atom_site_fract_x
_atom_site_fract_y
_atom_site_fract_z
K1 K 0.25647(11) 0.47623(6) 0.41639(4)
C1 C 0.7714(5) 0.1513(2) 0.44885(19)
C2 C 0.6006(5) 0.1842(2) 0.41197(17)
C3 C 0.7480(6) 0.0511(3) 0.4672(3)
H1 H 0.8459 0.0145 0.4617
H2 H 0.7341 0.0471 0.5108
C4 C 0.5900(7) 0.0169(3) 0.4240(3)
H3 H 0.5330 -0.0299 0.4448
H4 H 0.6182 -0.0090 0.3857
C5 C 0.4790(6) 0.1018(3) 0.4096(2)
H5 H 0.4058 0.1091 0.4406
H6 H 0.4085 0.0967 0.3682
C6 C 0.4710(5) 0.6997(3) 0.37744(18)
C7 C 0.3659(9) 0.7785(4) 0.3458(3)
H7 H 0.2567 0.7557 0.3258
H8 H 0.3513 0.8241 0.3766
H9 H 0.4226 0.8058 0.3147
C8 C 0.6444(7) 0.7352(5) 0.4081(3)
H10 H 0.7116 0.6849 0.4281
H11 H 0.7001 0.7622 0.3766
H12 H 0.6314 0.7811 0.4390
C9 C 0.4865(8) 0.6235(3) 0.3312(2)
H13 H 0.3753 0.6024 0.3124
H14 H 0.5444 0.6464 0.2990
H15 H 0.5499 0.5731 0.3528
C10 C 0.1733(14) 0.4135(8) 0.2519(4)
H16 H 0.2810 0.4332 0.2416
H17 H 0.1882 0.3526 0.2708
C11 C 0.0524(19) 0.4109(12) 0.1989(5)
H18 H 0.0030 0.3496 0.1929
H19 H 0.1012 0.4267 0.1623
C12 C -0.0802(15) 0.4804(9) 0.2084(6)
H20 H -0.0928 0.5271 0.1756
H21 H -0.1890 0.4505 0.2075
C13 C -0.0193(16) 0.5227(11) 0.2709(7)
H22 H 0.0049 0.5877 0.2662
H23 H -0.1054 0.5172 0.2971
B1 B 0.6502(5) 0.2920(3) 0.52425(19)
B2 B 0.5266(5) 0.2895(3) 0.41767(19)
H24 H 0.4348 0.2535 0.4415
B3 B 0.6542(5) 0.3777(3) 0.45915(18)
H25 H 0.5832 0.4370 0.4730
B4 B 0.1486(5) 0.6606(3) 0.4968(2)
H26 H 0.0858 0.6277 0.4528
B5 B 0.8935(5) 0.2198(3) 0.4993(2)
H27 H 0.9027 0.1923 0.5473
B6 B 0.7584(7) 0.1685(4) 0.3708(3)
H28 H 0.7661 0.1161 0.3345
B7 B 0.6123(7) 0.2547(4) 0.3495(2)
H29 H 0.5382 0.2504 0.3015
B8 B 0.6523(6) 0.3623(3) 0.3776(2)
H30 H 0.5997 0.4154 0.3432
B9 B 0.8412(6) 0.3892(3) 0.4281(2)
H31 H 0.8968 0.4573 0.4217
B10 B 0.0165(6) 0.7003(3) 0.5485(3)
H32 H -0.1192 0.6824 0.5411
B11 B 0.9447(6) 0.1917(3) 0.4237(3)
H33 H 1.0531 0.1703 0.4021
B12 B 0.8452(7) 0.2906(3) 0.3700(3)
H34 H 0.9389 0.2851 0.3386
O1 O 0.3866(3) 0.65755(17) 0.42508(11)
O2 O 0.1175(7) 0.4794(4) 0.2964(2)
H35 H 0.613(4) 0.220(2) 0.5239(14)
K1B K 0.74353(11) 0.52377(6) 0.58361(4)
C1B C 0.2286(5) 0.8487(2) 0.55115(19)
C2B C 0.3994(5) 0.8158(2) 0.58803(17)
C3B C 0.2520(6) 0.9489(3) 0.5328(3)
H1B H 0.1541 0.9855 0.5383
H2B H 0.2659 0.9529 0.4892
C4B C 0.4100(7) 0.9831(3) 0.5760(3)
H3B H 0.4670 1.0299 0.5552
H4B H 0.3818 1.0090 0.6143
C5B C 0.5210(6) 0.8982(3) 0.5904(2)
H5B H 0.5942 0.8909 0.5594
H6B H 0.5915 0.9033 0.6318
C6B C 0.5290(5) 0.3003(3) 0.62256(18)
C7B C 0.6341(9) 0.2215(4) 0.6542(3)
H7B H 0.7433 0.2443 0.6742
H8B H 0.6487 0.1759 0.6234
H9B H 0.5774 0.1942 0.6853
C8B C 0.3556(7) 0.2648(5) 0.5919(3)
H10B H 0.2884 0.3151 0.5719
H11B H 0.2999 0.2378 0.6234
H12B H 0.3686 0.2189 0.5610
C9B C 0.5135(8) 0.3765(3) 0.6688(2)
H13B H 0.6247 0.3976 0.6876
H14B H 0.4556 0.3536 0.7010
H15B H 0.4501 0.4269 0.6472
C10B C 0.8267(14) 0.5865(8) 0.7481(4)
H16B H 0.7190 0.5668 0.7584
H17B H 0.8118 0.6474 0.7292
C11B C 0.9476(19) 0.5891(12) 0.8011(5)
H18B H 0.9970 0.6504 0.8071
H19B H 0.8988 0.5733 0.8377
C12B C 1.0802(15) 0.5196(9) 0.7916(6)
H20B H 1.0928 0.4729 0.8244
H21B H 1.1890 0.5495 0.7925
C13B C 1.0193(16) 0.4773(11) 0.7291(7)
H22B H 0.9951 0.4123 0.7338
H23B H 1.1054 0.4828 0.7029
B1B B 0.3498(5) 0.7080(3) 0.47575(19)
B2B B 0.4734(5) 0.7105(3) 0.58233(19)
H24B H 0.5652 0.7465 0.5585
B3B B 0.3458(5) 0.6223(3) 0.54085(18)
H25B H 0.4168 0.5630 0.5270
B4B B 0.8514(5) 0.3394(3) 0.5032(2)
H26B H 0.9142 0.3723 0.5472
B5B B 0.1065(5) 0.7802(3) 0.5007(2)
H27B H 0.0973 0.8077 0.4527
B6B B 0.2416(7) 0.8315(4) 0.6292(3)
H28B H 0.2339 0.8839 0.6655
B7B B 0.3877(7) 0.7453(4) 0.6505(2)
H29B H 0.4618 0.7496 0.6985
B8B B 0.3477(6) 0.6377(3) 0.6224(2)
H30B H 0.4003 0.5846 0.6568
B9B B 0.1588(6) 0.6108(3) 0.5719(2)
H31B H 0.1032 0.5427 0.5783
B10B B 0.9835(6) 0.2997(3) 0.4515(3)
H32B H 1.1192 0.3176 0.4589
B11B B 0.0553(6) 0.8083(3) 0.5763(3)
H33B H -0.0531 0.8297 0.5979
B12B B 0.1548(7) 0.7094(3) 0.6300(3)
H34B H 0.0611 0.7149 0.6614
O1B O 0.6134(3) 0.34245(17) 0.57492(11)
O2B O 0.8825(7) 0.5206(4) 0.7036(2)
H35B H 0.387(4) 0.780(2) 0.4761(14)
loop_
_geom_bond_atom_site_label_1
_geom_bond_atom_site_label_2
_geom_bond_site_symmetry_1
_geom_bond_site_symmetry_2
K1 B2 1_555 1_555
C1 C2 1_555 1_555
C2 C5 1_555 1_555
C3 C1 1_555 1_555
H1 C3 1_555 1_555
H2 C3 1_555 1_555
C4 C3 1_555 1_555
H3 C4 1_555 1_555
H4 C4 1_555 1_555
C5 C4 1_555 1_555
H5 C5 1_555 1_555
H6 C5 1_555 1_555
C6 C7 1_555 1_555
C7 H7 1_555 1_555
H8 C7 1_555 1_555
H9 C7 1_555 1_555
C8 C6 1_555 1_555
H10 C8 1_555 1_555
H11 C8 1_555 1_555
H12 C8 1_555 1_555
C9 C6 1_555 1_555
H13 C9 1_555 1_555
H14 C9 1_555 1_555
H15 C9 1_555 1_555
C10 H16 1_555 1_555
H17 C10 1_555 1_555
C11 C10 1_555 1_555
H18 C11 1_555 1_555
H19 C11 1_555 1_555
C12 C11 1_555 1_555
H20 C12 1_555 1_555
H21 C12 1_555 1_555
C13 C12 1_555 1_555
H22 C13 1_555 1_555
H23 C13 1_555 1_555
B1 B2 1_555 1_555
B2 C2 1_555 1_555
H24 B2 1_555 1_555
B3 K1 1_555 1_555
H25 B3 1_555 1_555
B4 K1 1_555 1_555
H26 B4 1_555 1_555
B5 C1 1_555 1_555
H27 B5 1_555 1_555
B6 C1 1_555 1_555
H28 B6 1_555 1_555
B7 C2 1_555 1_555
H29 B7 1_555 1_555
B8 B2 1_555 1_555
H30 B8 1_555 1_555
B9 B3 1_555 1_555
H31 B9 1_555 1_555
B10 B4 1_555 1_555
H32 B10 1_555 1_555
B11 C1 1_555 1_555
H33 B11 1_555 1_555
B12 B6 1_555 1_555
H34 B12 1_555 1_555
O1 K1 1_555 1_555
O2 K1 1_555 1_555
H35 B1 1_555 1_555
K1B B3 1_555 1_555
C1B C2B 1_555 1_555
C2B C5B 1_555 1_555
C3B C1B 1_555 1_555
H1B C3B 1_555 1_555
H2B C3B 1_555 1_555
C4B C3B 1_555 1_555
H3B C4B 1_555 1_555
H4B C4B 1_555 1_555
C5B C4B 1_555 1_555
H5B C5B 1_555 1_555
H6B C5B 1_555 1_555
C6B C7B 1_555 1_555
C7B H7B 1_555 1_555
H8B C7B 1_555 1_555
H9B C7B 1_555 1_555
C8B C6B 1_555 1_555
H10B C8B 1_555 1_555
H11B C8B 1_555 1_555
H12B C8B 1_555 1_555
C9B C6B 1_555 1_555
H13B C9B 1_555 1_555
H14B C9B 1_555 1_555
H15B C9B 1_555 1_555
C10B H16B 1_555 1_555
H17B C10B 1_555 1_555
C11B C10B 1_555 1_555
H18B C11B 1_555 1_555
H19B C11B 1_555 1_555
C12B C11B 1_555 1_555
H20B C12B 1_555 1_555
H21B C12B 1_555 1_555
C13B C12B 1_555 1_555
H22B C13B 1_555 1_555
H23B C13B 1_555 1_555
B1B B4 1_555 1_555
B2B K1B 1_555 1_555
H24B B2B 1_555 1_555
B3B K1 1_555 1_555
H25B B3B 1_555 1_555
B4B B1 1_555 1_555
H26B B4B 1_555 1_555
B5B B4 1_555 1_555
H27B B5B 1_555 1_555
B6B C1B 1_555 1_555
H28B B6B 1_555 1_555
B7B C2B 1_555 1_555
H29B B7B 1_555 1_555
B8B B2B 1_555 1_555
H30B B8B 1_555 1_555
B9B B4 1_555 1_555
H31B B9B 1_555 1_555
B10B B5 1_555 1_555
H32B B10B 1_555 1_555
B11B B10 1_555 1_555
H33B B11B 1_555 1_555
B12B B10 1_555 1_555
H34B B12B 1_555 1_555
O1B B1 1_555 1_555
O2B K1B 1_555 1_555
H35B B1B 1_555 1_555
C2 B6 1_555 1_555
C6 O1 1_555 1_555
C10 O2 1_555 1_555
C13 O2 1_555 1_555
B1 B3 1_555 1_555
B1 B5 1_555 1_555
B2 B3 1_555 1_555
B2 B7 1_555 1_555
B3 B8 1_555 1_555
B3 B4B 1_555 1_555
B4 B3B 1_555 1_555
B5 B11 1_555 1_555
B5 B4B 1_555 1_555
B6 B7 1_555 1_555
B6 B11 1_555 1_555
B7 B8 1_555 1_555
B7 B12 1_555 1_555
B8 B9 1_555 1_555
B8 B12 1_555 1_555
B9 B12 1_555 1_555
B9 B4B 1_555 1_555
B9 B10B 1_555 1_555
B10 B5B 1_555 1_555
B10 B9B 1_555 1_555
B11 B12 1_555 1_555
B11 B10B 1_555 1_555
B12 B10B 1_555 1_555
O1 B1B 1_555 1_555
K1B B3B 1_555 1_555
K1B B4B 1_555 1_555
K1B O1B 1_555 1_555
C1B B5B 1_555 1_555
C1B B11B 1_555 1_555
C2B B2B 1_555 1_555
C2B B6B 1_555 1_555
C6B O1B 1_555 1_555
C10B O2B 1_555 1_555
C13B O2B 1_555 1_555
B1B B2B 1_555 1_555
B1B B3B 1_555 1_555
B1B B5B 1_555 1_555
B2B B3B 1_555 1_555
B2B B7B 1_555 1_555
B3B B8B 1_555 1_555
B3B B9B 1_555 1_555
B4B B10B 1_555 1_555
B5B B11B 1_555 1_555
B6B B7B 1_555 1_555
B6B B11B 1_555 1_555
B6B B12B 1_555 1_555
B7B B8B 1_555 1_555
B7B B12B 1_555 1_555
B8B B9B 1_555 1_555
B8B B12B 1_555 1_555
B9B B12B 1_555 1_555
B11B B12B 1_555 1_555

#END
