
#######################################################################
#
#                 Cambridge Crystallographic Data Centre
#                                CCDC 
#
#######################################################################
#
# If this CIF has been generated from an entry in the Cambridge 
# Structural Database, then it will include bibliographic, chemical, 
# crystal, experimental, refinement or atomic coordinate data resulting 
# from the CCDC's data processing and validation procedures.
#
#######################################################################

data_BUQKEF
_chemical_compound_source        
'fungus Chaetomium globosum TW1-1 from terrestrial arthropod Armadillidium vulgare'
_chemical_name_common            'Armochaetoglobin F dihydrate'
_chemical_formula_moiety         'C32 H38 N2 O4,2(H2 O1)'
_chemical_name_systematic        
'(3S,3aR,4S,6aS,10S,17aS)-5-(Hydroxymethyl)-3-(1H-indol-3-ylmethyl)-4,10,12-trimethyl-2,3,3a,4,6a,9,10,13,15,16-decahydro-1H-cyclotrideca[d]isoindole-1,14,17-trione dihydrate'
_chemical_properties_biological  'tested for cytotoxic activity'
_symmetry_cell_setting           monoclinic
_symmetry_space_group_name_H-M   'C 2'
_symmetry_Int_Tables_number      5
_space_group_name_Hall           'C 2y'
loop_
_symmetry_equiv_pos_site_id
_symmetry_equiv_pos_as_xyz
1 x,y,z
2 -x,y,-z
3 1/2+x,1/2+y,z
4 1/2-x,1/2+y,-z
_cell_length_a                   22.105(2)
_cell_length_b                   7.6564(8)
_cell_length_c                   17.6398(18)
_cell_angle_alpha                90
_cell_angle_beta                 94.212(3)
_cell_angle_gamma                90
_cell_volume                     2977.38
_exptl_crystal_colour            colorless
_exptl_crystal_description       prism
_cell_formula_units_Z            4
_exptl_crystal_recrystallization_method methanol/water
loop_
_atom_site_label
_atom_site_type_symbol
_atom_site_fract_x
_atom_site_fract_y
_atom_site_fract_z
O1 O 0.58272(19) 0.0951(5) 0.6818(2)
O2 O 0.79038(12) 0.3480(4) 0.67199(13)
O3 O 0.9265(2) 1.0163(8) 0.8462(2)
H1 H 0.9576 1.0643 0.8671
O4 O 0.70705(12) 0.7895(4) 0.78155(13)
C1 C 0.78476(16) 0.3419(5) 0.89823(17)
C2 C 0.6025(2) 0.3278(7) 0.9490(2)
H2 H 0.5607 0.3199 0.9578
C3 C 0.6380(2) 0.4621(7) 0.9839(2)
H3 H 0.6201 0.5396 1.0179
C4 C 0.69832(18) 0.4840(6) 0.96997(18)
H4 H 0.7213 0.5787 0.9918
C5 C 0.72459(16) 0.3632(5) 0.92298(16)
C6 C 0.83892(18) 0.4549(6) 0.91782(19)
H5 H 0.8759 0.3829 0.9153
H6 H 0.8374 0.4950 0.9710
C7 C 0.84456(17) 0.6162(6) 0.86654(19)
H7 H 0.8790 0.6912 0.8871
C8 C 0.85267(17) 0.5702(6) 0.7820(2)
H8 H 0.8597 0.4416 0.7780
C9 C 0.79206(16) 0.6163(5) 0.73726(18)
C10 C 0.76063(16) 0.4525(5) 0.70424(16)
C11 C 0.69370(16) 0.4270(5) 0.70849(18)
H9 H 0.6718 0.5276 0.6842
H10 H 0.6843 0.4231 0.7625
C12 C 0.67178(19) 0.2587(5) 0.6691(2)
H11 H 0.6859 0.2580 0.6171
H12 H 0.6912 0.1587 0.6969
C13 C 0.60514(19) 0.2309(6) 0.66336(19)
C14 C 0.56442(18) 0.3765(6) 0.6298(2)
H13 H 0.5225 0.3316 0.6207
H14 H 0.5637 0.4733 0.6669
C15 C 0.58582(16) 0.4460(6) 0.55560(19)
C16 C 0.58912(19) 0.3134(6) 0.4934(2)
H15 H 0.6232 0.2342 0.5058
H16 H 0.5950 0.3731 0.4454
H17 H 0.5513 0.2463 0.4884
C17 C 0.80225(19) 0.7399(5) 0.6679(2)
H18 H 0.8264 0.6726 0.6320
C18 C 0.7456(2) 0.8013(6) 0.6237(2)
H19 H 0.7198 0.8764 0.6497
C19 C 0.7278(2) 0.7623(6) 0.5526(2)
H20 H 0.7515 0.6805 0.5272
C20 C 0.6736(2) 0.8361(7) 0.5094(2)
H21 H 0.6870 0.8986 0.4644
H22 H 0.6546 0.9230 0.5418
C21 C 0.6256(2) 0.7008(6) 0.4826(2)
H23 H 0.6452 0.6111 0.4512
C22 C 0.5737(2) 0.7871(8) 0.4332(3)
H24 H 0.5551 0.8787 0.4625
H25 H 0.5432 0.6990 0.4176
H26 H 0.5899 0.8387 0.3880
C23 C 0.60165(19) 0.6115(6) 0.5497(2)
H27 H 0.5973 0.6823 0.5932
C24 C 0.8405(2) 0.8910(6) 0.6963(2)
H28 H 0.8283 1.0075 0.6849
C25 C 0.8922(2) 0.8589(7) 0.7380(2)
C26 C 0.90703(19) 0.6673(7) 0.7516(3)
H29 H 0.9122 0.6165 0.7002
C27 C 0.9654(2) 0.6267(11) 0.7991(3)
H30 H 0.9621 0.6678 0.8512
H31 H 0.9994 0.6858 0.7772
H32 H 0.9724 0.5003 0.7995
C28 C 0.9316(3) 1.0070(12) 0.7700(3)
H33 H 0.9743 0.9861 0.7595
H34 H 0.9183 1.1185 0.7456
C29 C 0.75670(16) 0.7157(5) 0.79543(18)
N1 N 0.78835(14) 0.7172(4) 0.86126(15)
H35 H 0.7763 0.7761 0.9003
C30 C 0.78296(19) 0.1937(6) 0.8542(2)
H36 H 0.8165 0.1460 0.8305
N2 N 0.72553(16) 0.1247(5) 0.84948(16)
H37 H 0.7140 0.0303 0.8240
C31 C 0.68929(17) 0.2258(5) 0.89065(18)
C32 C 0.62742(19) 0.2074(6) 0.9021(2)
H38 H 0.6038 0.1160 0.8787
O5 O 0.5807(2) 0.7727(8) 0.7595(4)
O6 O 0.5255(5) 0.7158(12) 0.8862(4)
loop_
_geom_bond_atom_site_label_1
_geom_bond_atom_site_label_2
_geom_bond_site_symmetry_1
_geom_bond_site_symmetry_2
O1 C13 1_555 1_555
O2 C10 1_555 1_555
O3 H1 1_555 1_555
O4 C29 1_555 1_555
C1 C5 1_555 1_555
C2 H2 1_555 1_555
C3 C2 1_555 1_555
H3 C3 1_555 1_555
C4 C3 1_555 1_555
H4 C4 1_555 1_555
C5 C4 1_555 1_555
C6 C1 1_555 1_555
H5 C6 1_555 1_555
H6 C6 1_555 1_555
C7 C6 1_555 1_555
H7 C7 1_555 1_555
C8 C7 1_555 1_555
H8 C8 1_555 1_555
C9 C8 1_555 1_555
C10 C9 1_555 1_555
C11 C10 1_555 1_555
H9 C11 1_555 1_555
H10 C11 1_555 1_555
C12 C11 1_555 1_555
H11 C12 1_555 1_555
H12 C12 1_555 1_555
C13 C12 1_555 1_555
C14 C13 1_555 1_555
H13 C14 1_555 1_555
H14 C14 1_555 1_555
C15 C14 1_555 1_555
C16 C15 1_555 1_555
H15 C16 1_555 1_555
H16 C16 1_555 1_555
H17 C16 1_555 1_555
C17 C9 1_555 1_555
H18 C17 1_555 1_555
C18 C17 1_555 1_555
H19 C18 1_555 1_555
C19 C18 1_555 1_555
H20 C19 1_555 1_555
C20 C19 1_555 1_555
H21 C20 1_555 1_555
H22 C20 1_555 1_555
C21 C20 1_555 1_555
H23 C21 1_555 1_555
C22 C21 1_555 1_555
H24 C22 1_555 1_555
H25 C22 1_555 1_555
H26 C22 1_555 1_555
C23 C15 1_555 1_555
H27 C23 1_555 1_555
C24 C17 1_555 1_555
H28 C24 1_555 1_555
C25 C24 1_555 1_555
C26 C8 1_555 1_555
H29 C26 1_555 1_555
C27 C26 1_555 1_555
H30 C27 1_555 1_555
H31 C27 1_555 1_555
H32 C27 1_555 1_555
C28 O3 1_555 1_555
H33 C28 1_555 1_555
H34 C28 1_555 1_555
C29 C9 1_555 1_555
N1 C7 1_555 1_555
H35 N1 1_555 1_555
C30 C1 1_555 1_555
H36 C30 1_555 1_555
N2 C30 1_555 1_555
H37 N2 1_555 1_555
C31 C5 1_555 1_555
C32 C2 1_555 1_555
H38 C32 1_555 1_555
C21 C23 1_555 1_555
C25 C26 1_555 1_555
C25 C28 1_555 1_555
C29 N1 1_555 1_555
N2 C31 1_555 1_555
C31 C32 1_555 1_555

#END
