
#######################################################################
#
#                 Cambridge Crystallographic Data Centre
#                                CCDC 
#
#######################################################################
#
# If this CIF has been generated from an entry in the Cambridge 
# Structural Database, then it will include bibliographic, chemical, 
# crystal, experimental, refinement or atomic coordinate data resulting 
# from the CCDC's data processing and validation procedures.
#
#######################################################################

data_BUTSIU
_chemical_formula_moiety         'C34 H43 N1 O8,C1 H4 O1,H2 O1'
_chemical_name_systematic        
'17,23,25-trihydroxy-7-isobutyl-24-methoxy-9,10,14,22-tetramethyl-27-oxa-6-azahexacyclo[18.6.1.0^2,19^.0^4,8^.0^4,12^.0^21,26^]heptacosa-10,13,21,23,25-pentaene-3,5,18-trione methanol solvate monohydrate'
_symmetry_cell_setting           monoclinic
_symmetry_space_group_name_H-M   'P 21'
_symmetry_Int_Tables_number      4
_space_group_name_Hall           'P 2yb'
loop_
_symmetry_equiv_pos_site_id
_symmetry_equiv_pos_as_xyz
1 x,y,z
2 -x,1/2+y,-z
_cell_length_a                   10.6201(4)
_cell_length_b                   21.0958(9)
_cell_length_c                   15.7205(7)
_cell_angle_alpha                90
_cell_angle_beta                 90.214(2)
_cell_angle_gamma                90
_cell_volume                     3521.99
_exptl_crystal_colour            colorless
_exptl_crystal_description       prism
_cell_formula_units_Z            4
loop_
_atom_site_label
_atom_site_type_symbol
_atom_site_fract_x
_atom_site_fract_y
_atom_site_fract_z
O1 O 0.1230(11) 0.6036(4) 0.7030(5)
H1 H 0.1133 0.6189 0.7504
C1 C -0.016(4) 0.5861(12) 0.6615(17)
H2 H -0.0712 0.6217 0.6675
H3 H -0.0506 0.5502 0.6906
H4 H -0.0061 0.5762 0.6023
O2 O -0.3371(7) 0.6225(3) -0.2301(3)
H5 H -0.3504 0.6569 -0.2526
O3 O -0.3568(5) 0.7403(2) -0.1527(3)
O4 O -0.2538(6) 0.7585(3) 0.0109(3)
H6 H -0.2886 0.7846 -0.0199
O5 O -0.1404(5) 0.5784(2) 0.1127(3)
O6 O 0.1156(6) 0.6152(3) 0.2005(3)
O7 O 0.1937(4) 0.7577(3) 0.0147(3)
O8 O 0.0548(6) 0.5587(3) -0.1196(4)
C2 C -0.3090(9) 0.8618(8) 0.2003(13)
H7 H -0.3228 0.8168 0.2005
H8 H -0.3578 0.8808 0.1556
H9 H -0.3340 0.8792 0.2541
C3 C -0.1293(14) 0.9321(6) 0.2352(14)
H10 H -0.1411 0.9243 0.2948
H11 H -0.1787 0.9680 0.2182
H12 H -0.0419 0.9405 0.2245
C4 C -0.1697(7) 0.8752(5) 0.1857(6)
H13 H -0.1550 0.8825 0.1250
C5 C -0.1005(6) 0.8175(4) 0.2136(5)
H14 H -0.1379 0.7814 0.1849
H15 H -0.1151 0.8120 0.2740
C6 C 0.0400(6) 0.8150(4) 0.1991(4)
H16 H 0.0775 0.8533 0.2236
C7 C 0.1095(6) 0.7560(3) 0.2381(4)
H17 H 0.0456 0.7281 0.2629
C8 C 0.1706(6) 0.7201(3) 0.1621(4)
C9 C 0.1046(6) 0.6555(3) 0.1454(4)
C10 C 0.0261(6) 0.6436(3) 0.0674(4)
H18 H 0.0442 0.6756 0.0239
C11 C -0.1181(6) 0.6451(3) 0.0912(4)
H19 H -0.1415 0.6757 0.1353
C12 C -0.1888(6) 0.6507(3) 0.0096(4)
C13 C -0.1826(7) 0.5925(3) -0.0300(4)
C14 C -0.2305(7) 0.5807(4) -0.1101(4)
C15 C -0.2887(7) 0.6318(4) -0.1489(5)
C16 C -0.4894(10) 0.7373(6) -0.1540(8)
H20 H -0.5181 0.7126 -0.1066
H21 H -0.5170 0.7180 -0.2061
H22 H -0.5233 0.7794 -0.1502
C17 C -0.3012(7) 0.6909(4) -0.1112(5)
C18 C -0.2489(6) 0.7008(3) -0.0304(4)
C19 C -0.1023(8) 0.5527(4) 0.0297(4)
H23 H -0.1127 0.5068 0.0234
C20 C 0.0373(6) 0.5764(3) 0.0292(4)
H24 H 0.0853 0.5502 0.0694
C21 C 0.1488(6) 0.7656(3) 0.0849(4)
N1 N 0.0749(5) 0.8119(3) 0.1094(3)
H25 H 0.0477 0.8396 0.0736
C22 C 0.2017(7) 0.7736(4) 0.3081(5)
H26 H 0.2291 0.7334 0.3333
C23 C 0.3182(7) 0.8030(4) 0.2703(5)
C24 C 0.3681(6) 0.7700(4) 0.2063(5)
H27 H 0.4377 0.7860 0.1777
C25 C 0.3141(6) 0.7083(4) 0.1803(5)
H28 H 0.3191 0.6803 0.2300
C26 C 0.3796(6) 0.6755(4) 0.1096(5)
H29 H 0.4045 0.7005 0.0639
C27 C 0.4065(7) 0.6133(4) 0.1047(5)
C28 C 0.4477(8) 0.5846(5) 0.0235(6)
H30 H 0.5139 0.5539 0.0344
H31 H 0.4812 0.6172 -0.0136
C29 C 0.3342(8) 0.5512(4) -0.0206(6)
H32 H 0.3647 0.5250 -0.0669
H33 H 0.2922 0.5239 0.0200
C30 C 0.2414(7) 0.5991(4) -0.0551(5)
H34 H 0.2460 0.6374 -0.0200
O9 O 0.2787(6) 0.6147(3) -0.1395(4)
H35 H 0.2295 0.6408 -0.1595
C31 C 0.1050(7) 0.5751(4) -0.0554(4)
C32 C 0.3943(12) 0.5662(5) 0.1766(7)
H36 H 0.4363 0.5275 0.1614
H37 H 0.3069 0.5577 0.1868
H38 H 0.4321 0.5833 0.2271
C33 C 0.3660(10) 0.8668(5) 0.3000(8)
H39 H 0.4475 0.8746 0.2759
H40 H 0.3724 0.8669 0.3609
H41 H 0.3086 0.8993 0.2820
C34 C 0.1393(8) 0.8111(6) 0.3810(5)
H42 H 0.1982 0.8157 0.4271
H43 H 0.0664 0.7886 0.4005
H44 H 0.1147 0.8522 0.3607
C35 C -0.2291(12) 0.5143(4) -0.1529(7)
H45 H -0.3083 0.4935 -0.1434
H46 H -0.1624 0.4892 -0.1288
H47 H -0.2157 0.5190 -0.2129
O10 O 0.9518(10) 0.9018(5) 0.9732(6)
O11 O 0.6197(13) 0.8673(5) 0.9591(5)
H48 H 0.6255 0.8811 0.9105
C36 C 0.494(2) 0.8797(11) 0.9913(11)
H49 H 0.4911 0.8689 1.0505
H50 H 0.4343 0.8547 0.9604
H51 H 0.4749 0.9239 0.9843
O12 O 0.5321(15) 0.5447(6) 0.6619(7)
O13 O 0.1596(6) 0.8439(3) 0.8925(3)
H52 H 0.1866 0.8171 0.9257
O14 O 0.1455(4) 0.7251(2) 0.8161(3)
O15 O 0.2508(6) 0.7082(3) 0.6535(4)
H53 H 0.2193 0.6813 0.6846
O16 O 0.5586(5) 0.9096(3) 0.7869(4)
O17 O 0.7817(6) 0.8482(3) 0.8081(4)
H54 H 0.7246 0.8546 0.8421
O18 O 0.6189(5) 0.8549(3) 0.4691(3)
O19 O 0.3630(5) 0.8889(3) 0.5539(3)
N2 N 0.5795(6) 0.6564(3) 0.5527(4)
H55 H 0.5503 0.6287 0.5875
C37 C 0.1909(10) 0.6075(8) 0.4612(10)
H56 H 0.1651 0.6503 0.4724
H57 H 0.1422 0.5789 0.4953
H58 H 0.1778 0.5980 0.4021
C38 C 0.3312(8) 0.6000(5) 0.4832(5)
H59 H 0.3385 0.6034 0.5452
C39 C 0.4046(7) 0.6549(4) 0.4461(5)
H60 H 0.3698 0.6939 0.4685
H61 H 0.3908 0.6552 0.3850
C40 C 0.5481(6) 0.6554(4) 0.4624(4)
H62 H 0.5859 0.6179 0.4362
C41 C 0.6117(6) 0.7154(4) 0.4269(4)
H63 H 0.5471 0.7435 0.4030
C42 C 0.6727(6) 0.7477(3) 0.5047(4)
C43 C 0.6086(6) 0.8137(3) 0.5211(4)
C44 C 0.5281(6) 0.8229(3) 0.5998(4)
H64 H 0.5456 0.7899 0.6422
C45 C 0.3853(6) 0.8231(3) 0.5742(4)
H65 H 0.3626 0.7932 0.5290
C46 C 0.3108(6) 0.8158(3) 0.6559(4)
C47 C 0.2535(6) 0.7644(3) 0.6943(4)
C48 C 0.2000(6) 0.7758(3) 0.7734(4)
C49 C 0.2116(6) 0.8347(3) 0.8142(4)
C50 C 0.0090(7) 0.7256(5) 0.8173(8)
H66 H -0.0200 0.7655 0.8391
H67 H -0.0208 0.6919 0.8530
H68 H -0.0226 0.7198 0.7606
C51 C 0.3223(6) 0.8741(3) 0.6962(4)
C52 C 0.2676(7) 0.8864(3) 0.7760(5)
C53 C 0.2711(9) 0.9511(4) 0.8155(6)
H69 H 0.2182 0.9517 0.8648
H70 H 0.2414 0.9818 0.7750
H71 H 0.3560 0.9611 0.8317
C54 C 0.4003(6) 0.9140(3) 0.6360(5)
H72 H 0.3888 0.9599 0.6423
C55 C 0.5413(6) 0.8911(3) 0.6400(4)
H73 H 0.5903 0.9173 0.6007
C56 C 0.6067(7) 0.8916(3) 0.7244(5)
C57 C 0.7418(7) 0.8663(4) 0.7258(5)
H74 H 0.7452 0.8287 0.6891
C58 C 0.8371(8) 0.9147(4) 0.6921(6)
H75 H 0.7951 0.9428 0.6523
H76 H 0.8681 0.9401 0.7391
C59 C 0.9478(8) 0.8830(4) 0.6481(8)
H77 H 1.0134 0.9142 0.6389
H78 H 0.9818 0.8503 0.6850
C60 C 0.9129(7) 0.8550(4) 0.5673(6)
C61 C 0.8784(6) 0.7949(4) 0.5603(5)
H79 H 0.8948 0.7696 0.6075
C62 C 0.8169(6) 0.7626(4) 0.4872(5)
H80 H 0.8205 0.7916 0.4385
C63 C 0.7077(8) 0.6976(5) 0.3558(5)
H81 H 0.7373 0.7377 0.3318
C64 C 0.8208(7) 0.6668(5) 0.3959(5)
C65 C 0.8729(6) 0.7001(4) 0.4591(5)
H82 H 0.9445 0.6846 0.4863
C66 C 0.8681(9) 0.6050(5) 0.3658(8)
H83 H 0.9541 0.6093 0.3482
H84 H 0.8179 0.5908 0.3186
H85 H 0.8631 0.5746 0.4111
C67 C 0.6448(10) 0.6622(7) 0.2832(5)
H86 H 0.7080 0.6426 0.2484
H87 H 0.5966 0.6913 0.2494
H88 H 0.5901 0.6302 0.3058
C68 C 0.6554(6) 0.7023(3) 0.5781(4)
O20 O 0.7006(5) 0.7089(3) 0.6500(3)
C69 C 0.3864(11) 0.5335(5) 0.4578(9)
H89 H 0.4350 0.5376 0.4068
H90 H 0.3186 0.5042 0.4483
H91 H 0.4393 0.5180 0.5029
C70 C 0.9042(11) 0.9030(4) 0.4932(7)
H92 H 0.9006 0.8805 0.4402
H93 H 0.9770 0.9300 0.4940
H94 H 0.8297 0.9283 0.4995
loop_
_geom_bond_atom_site_label_1
_geom_bond_atom_site_label_2
_geom_bond_site_symmetry_1
_geom_bond_site_symmetry_2
O1 H1 1_555 1_555
C1 O1 1_555 1_555
H2 C1 1_555 1_555
H3 C1 1_555 1_555
H4 C1 1_555 1_555
O2 H5 1_555 1_555
O3 C16 1_555 1_555
O4 H6 1_555 1_555
O5 C11 1_555 1_555
O6 C9 1_555 1_555
O7 C21 1_555 1_555
O8 C31 1_555 1_555
C2 H7 1_555 1_555
H8 C2 1_555 1_555
H9 C2 1_555 1_555
C3 H10 1_555 1_555
H11 C3 1_555 1_555
H12 C3 1_555 1_555
C4 C2 1_555 1_555
H13 C4 1_555 1_555
C5 C4 1_555 1_555
H14 C5 1_555 1_555
H15 C5 1_555 1_555
C6 C5 1_555 1_555
H16 C6 1_555 1_555
C7 C6 1_555 1_555
H17 C7 1_555 1_555
C8 C7 1_555 1_555
C9 C8 1_555 1_555
C10 C9 1_555 1_555
H18 C10 1_555 1_555
C11 C10 1_555 1_555
H19 C11 1_555 1_555
C12 C11 1_555 1_555
C13 C12 1_555 1_555
C14 C13 1_555 1_555
C15 O2 1_555 1_555
C16 H20 1_555 1_555
H21 C16 1_555 1_555
H22 C16 1_555 1_555
C17 O3 1_555 1_555
C18 O4 1_555 1_555
C19 O5 1_555 1_555
H23 C19 1_555 1_555
C20 C10 1_555 1_555
H24 C20 1_555 1_555
C21 C8 1_555 1_555
N1 C6 1_555 1_555
H25 N1 1_555 1_555
C22 C7 1_555 1_555
H26 C22 1_555 1_555
C23 C22 1_555 1_555
C24 C23 1_555 1_555
H27 C24 1_555 1_555
C25 C8 1_555 1_555
H28 C25 1_555 1_555
C26 C25 1_555 1_555
H29 C26 1_555 1_555
C27 C26 1_555 1_555
C28 C27 1_555 1_555
H30 C28 1_555 1_555
H31 C28 1_555 1_555
C29 C28 1_555 1_555
H32 C29 1_555 1_555
H33 C29 1_555 1_555
C30 C29 1_555 1_555
H34 C30 1_555 1_555
O9 C30 1_555 1_555
H35 O9 1_555 1_555
C31 C20 1_555 1_555
C32 C27 1_555 1_555
H36 C32 1_555 1_555
H37 C32 1_555 1_555
H38 C32 1_555 1_555
C33 C23 1_555 1_555
H39 C33 1_555 1_555
H40 C33 1_555 1_555
H41 C33 1_555 1_555
C34 C22 1_555 1_555
H42 C34 1_555 1_555
H43 C34 1_555 1_555
H44 C34 1_555 1_555
C35 C14 1_555 1_555
H45 C35 1_555 1_555
H46 C35 1_555 1_555
H47 C35 1_555 1_555
O11 H48 1_555 1_555
C36 O11 1_555 1_555
H49 C36 1_555 1_555
H50 C36 1_555 1_555
H51 C36 1_555 1_555
O13 H52 1_555 1_555
O14 C48 1_555 1_555
O15 H53 1_555 1_555
O16 C56 1_555 1_555
O17 H54 1_555 1_555
O18 C43 1_555 1_555
O19 C45 1_555 1_555
N2 H55 1_555 1_555
C37 H56 1_555 1_555
H57 C37 1_555 1_555
H58 C37 1_555 1_555
C38 C37 1_555 1_555
H59 C38 1_555 1_555
C39 C38 1_555 1_555
H60 C39 1_555 1_555
H61 C39 1_555 1_555
C40 N2 1_555 1_555
H62 C40 1_555 1_555
C41 C40 1_555 1_555
H63 C41 1_555 1_555
C42 C41 1_555 1_555
C43 C42 1_555 1_555
C44 C43 1_555 1_555
H64 C44 1_555 1_555
C45 C44 1_555 1_555
H65 C45 1_555 1_555
C46 C45 1_555 1_555
C47 O15 1_555 1_555
C48 C47 1_555 1_555
C49 O13 1_555 1_555
C50 O14 1_555 1_555
H66 C50 1_555 1_555
H67 C50 1_555 1_555
H68 C50 1_555 1_555
C51 C46 1_555 1_555
C52 C49 1_555 1_555
C53 C52 1_555 1_555
H69 C53 1_555 1_555
H70 C53 1_555 1_555
H71 C53 1_555 1_555
C54 O19 1_555 1_555
H72 C54 1_555 1_555
C55 C44 1_555 1_555
H73 C55 1_555 1_555
C56 C55 1_555 1_555
C57 O17 1_555 1_555
H74 C57 1_555 1_555
C58 C57 1_555 1_555
H75 C58 1_555 1_555
H76 C58 1_555 1_555
C59 C58 1_555 1_555
H77 C59 1_555 1_555
H78 C59 1_555 1_555
C60 C59 1_555 1_555
C61 C60 1_555 1_555
H79 C61 1_555 1_555
C62 C42 1_555 1_555
H80 C62 1_555 1_555
C63 C41 1_555 1_555
H81 C63 1_555 1_555
C64 C63 1_555 1_555
C65 C62 1_555 1_555
H82 C65 1_555 1_555
C66 C64 1_555 1_555
H83 C66 1_555 1_555
H84 C66 1_555 1_555
H85 C66 1_555 1_555
C67 C63 1_555 1_555
H86 C67 1_555 1_555
H87 C67 1_555 1_555
H88 C67 1_555 1_555
C68 N2 1_555 1_555
O20 C68 1_555 1_555
C69 C38 1_555 1_555
H89 C69 1_555 1_555
H90 C69 1_555 1_555
H91 C69 1_555 1_555
C70 C60 1_555 1_555
H92 C70 1_555 1_555
H93 C70 1_555 1_555
H94 C70 1_555 1_555
C3 C4 1_555 1_555
C12 C18 1_555 1_555
C13 C19 1_555 1_555
C14 C15 1_555 1_555
C15 C17 1_555 1_555
C17 C18 1_555 1_555
C19 C20 1_555 1_555
C21 N1 1_555 1_555
C24 C25 1_555 1_555
C30 C31 1_555 1_555
C39 C40 1_555 1_555
C42 C68 1_555 1_555
C46 C47 1_555 1_555
C48 C49 1_555 1_555
C51 C52 1_555 1_555
C51 C54 1_555 1_555
C54 C55 1_555 1_555
C56 C57 1_555 1_555
C61 C62 1_555 1_555
C64 C65 1_555 1_555

#END
