
#######################################################################
#
#                 Cambridge Crystallographic Data Centre
#                                CCDC 
#
#######################################################################
#
# If this CIF has been generated from an entry in the Cambridge 
# Structural Database, then it will include bibliographic, chemical, 
# crystal, experimental, refinement or atomic coordinate data resulting 
# from the CCDC's data processing and validation procedures.
#
#######################################################################

data_BUTTEQ
_chemical_formula_moiety         'C26 H20 N2 O4 S2,2(C2 H6 O1 S1)'
_chemical_name_systematic        
"3,3'-(1,3-phenylene)bis(5-phenyl-4H-1,4-thiazine) 1,1,1',1'-tetraoxide dimethylsulfoxide solvate"
_symmetry_cell_setting           triclinic
_symmetry_space_group_name_H-M   'P -1'
_symmetry_Int_Tables_number      2
_space_group_name_Hall           '-P 1'
loop_
_symmetry_equiv_pos_site_id
_symmetry_equiv_pos_as_xyz
1 x,y,z
2 -x,-y,-z
_cell_length_a                   9.1096(3)
_cell_length_b                   13.0878(5)
_cell_length_c                   14.0139(6)
_cell_angle_alpha                93.832(2)
_cell_angle_beta                 101.260(2)
_cell_angle_gamma                104.981(2)
_cell_volume                     1570.77
_exptl_crystal_colour            colorless
_exptl_crystal_description       needle
_cell_formula_units_Z            2
loop_
_atom_site_label
_atom_site_type_symbol
_atom_site_fract_x
_atom_site_fract_y
_atom_site_fract_z
C1 C -0.2165(3) 0.0330(2) -0.26081(19)
H1 H -0.2347 0.0189 -0.1979
C2 C -0.3343(3) 0.0495(2) -0.3317(2)
H2 H -0.4335 0.0455 -0.3179
C3 C -0.3067(3) 0.0716(2) -0.4227(2)
H3 H -0.3862 0.0852 -0.4708
C4 C -0.1647(3) 0.0740(2) -0.44430(19)
H4 H -0.1475 0.0878 -0.5075
C5 C -0.0465(3) 0.05627(19) -0.37384(18)
H5 H 0.0511 0.0573 -0.3889
C6 C -0.0719(3) 0.03704(18) -0.28121(17)
C7 C 0.0588(3) 0.02640(18) -0.20339(17)
N1 N 0.0920(2) 0.09821(15) -0.12067(14)
H6 H 0.0407 0.1467 -0.1209
C8 C 0.2008(3) 0.09836(18) -0.03774(16)
C9 C 0.2918(3) 0.03162(18) -0.03214(17)
H7 H 0.3568 0.0310 0.0296
S1 S 0.29737(7) -0.05218(5) -0.12966(4)
O1 O 0.43685(19) -0.00957(14) -0.16575(13)
O2 O 0.2818(2) -0.15849(13) -0.10329(13)
C10 C 0.1364(3) -0.04673(19) -0.21405(17)
H8 H 0.1003 -0.0977 -0.2709
C11 C 0.2121(3) 0.17705(18) 0.04688(16)
C12 C 0.3557(3) 0.22446(17) 0.11038(17)
H9 H 0.4463 0.2072 0.0989
C13 C 0.3671(3) 0.29722(18) 0.19088(17)
C14 C 0.2339(3) 0.32216(18) 0.20737(18)
H10 H 0.2410 0.3716 0.2621
C15 C 0.0909(3) 0.27513(19) 0.14421(18)
H11 H 0.0001 0.2920 0.1560
C16 C 0.0800(3) 0.20371(19) 0.06418(17)
H12 H -0.0181 0.1726 0.0206
C17 C 0.5198(3) 0.34287(18) 0.26026(17)
N2 N 0.5483(2) 0.44618(15) 0.30192(14)
H13 H 0.4879 0.4843 0.2758
C18 C 0.6659(3) 0.49303(18) 0.38205(17)
C19 C 0.7771(3) 0.44584(19) 0.41868(18)
H14 H 0.8468 0.4771 0.4794
S2 S 0.79836(7) 0.33288(5) 0.36124(5)
O3 O 0.8215(2) 0.25929(14) 0.43147(14)
O4 O 0.9198(2) 0.36101(15) 0.30738(14)
C20 C 0.6192(3) 0.28300(19) 0.28441(17)
H15 H 0.5881 0.2101 0.2575
C21 C 0.6592(3) 0.59495(18) 0.43128(17)
C22 C 0.7966(3) 0.6716(2) 0.47818(19)
H16 H 0.8943 0.6598 0.4750
C23 C 0.7922(3) 0.7642(2) 0.5291(2)
H17 H 0.8865 0.8152 0.5618
C24 C 0.6511(3) 0.7829(2) 0.5327(2)
H18 H 0.6484 0.8469 0.5677
C25 C 0.5126(3) 0.7083(2) 0.4851(2)
H19 H 0.4154 0.7215 0.4869
C26 C 0.5176(3) 0.61467(19) 0.43492(18)
H20 H 0.4232 0.5635 0.4027
O5 O -0.0208(3) 0.27359(16) -0.14990(16)
S3 S 0.05650(11) 0.36068(7) -0.20251(6)
C27 C 0.0809(8) 0.4803(3) -0.1279(3)
H21 H -0.0205 0.4848 -0.1173
H22 H 0.1263 0.5410 -0.1604
H23 H 0.1505 0.4817 -0.0647
C28 C -0.0877(4) 0.3754(3) -0.3002(2)
H24 H -0.1212 0.3116 -0.3485
H25 H -0.0450 0.4379 -0.3314
H26 H -0.1771 0.3850 -0.2752
O6 O 0.3987(3) 0.57730(15) 0.19092(16)
S4 S 0.50443(17) 0.67073(11) 0.15030(10)
C29 C 0.3639(4) 0.7298(3) 0.0834(3)
H27 H 0.2979 0.6791 0.0272
H28 H 0.4185 0.7948 0.0601
H29 H 0.2991 0.7475 0.1266
C30 C 0.6007(5) 0.7657(3) 0.2383(4)
H30 H 0.6821 0.7425 0.2806
H31 H 0.5294 0.7824 0.2770
H32 H 0.6488 0.8293 0.2103
H33? H 0.2545 0.6921 0.0549
H34? H 0.4299 0.7092 0.0425
H35? H 0.3779 0.8068 0.0867
H36? H 0.6434 0.7529 0.3048
H37? H 0.6081 0.8416 0.2376
H38? H 0.6601 0.7442 0.1931
S5? S 0.41726(18) 0.69575(13) 0.20364(12)
loop_
_geom_bond_atom_site_label_1
_geom_bond_atom_site_label_2
_geom_bond_site_symmetry_1
_geom_bond_site_symmetry_2
C1 H1 1_555 1_555
C2 C1 1_555 1_555
H2 C2 1_555 1_555
C3 C2 1_555 1_555
H3 C3 1_555 1_555
C4 C3 1_555 1_555
H4 C4 1_555 1_555
C5 C4 1_555 1_555
H5 C5 1_555 1_555
C6 C1 1_555 1_555
C7 C6 1_555 1_555
N1 C7 1_555 1_555
H6 N1 1_555 1_555
C8 N1 1_555 1_555
C9 C8 1_555 1_555
H7 C9 1_555 1_555
S1 C9 1_555 1_555
O1 S1 1_555 1_555
O2 S1 1_555 1_555
C10 C7 1_555 1_555
H8 C10 1_555 1_555
C11 C8 1_555 1_555
C12 C11 1_555 1_555
H9 C12 1_555 1_555
C13 C12 1_555 1_555
C14 C13 1_555 1_555
H10 C14 1_555 1_555
C15 C14 1_555 1_555
H11 C15 1_555 1_555
C16 C11 1_555 1_555
H12 C16 1_555 1_555
C17 C13 1_555 1_555
N2 C17 1_555 1_555
H13 N2 1_555 1_555
C18 N2 1_555 1_555
C19 C18 1_555 1_555
H14 C19 1_555 1_555
S2 C19 1_555 1_555
O3 S2 1_555 1_555
O4 S2 1_555 1_555
C20 C17 1_555 1_555
H15 C20 1_555 1_555
C21 C18 1_555 1_555
C22 C21 1_555 1_555
H16 C22 1_555 1_555
C23 C22 1_555 1_555
H17 C23 1_555 1_555
C24 C23 1_555 1_555
H18 C24 1_555 1_555
C25 C24 1_555 1_555
H19 C25 1_555 1_555
C26 C21 1_555 1_555
H20 C26 1_555 1_555
O5 S3 1_555 1_555
S3 C27 1_555 1_555
C27 H21 1_555 1_555
H22 C27 1_555 1_555
H23 C27 1_555 1_555
C28 S3 1_555 1_555
H24 C28 1_555 1_555
H25 C28 1_555 1_555
H26 C28 1_555 1_555
O6 S4 1_555 1_555
S4 C29 1_555 1_555
C29 H27 1_555 1_555
H28 C29 1_555 1_555
H29 C29 1_555 1_555
C30 S4 1_555 1_555
H30 C30 1_555 1_555
H31 C30 1_555 1_555
H32 C30 1_555 1_555
C5 C6 1_555 1_555
S1 C10 1_555 1_555
C15 C16 1_555 1_555
S2 C20 1_555 1_555
C25 C26 1_555 1_555

#END
