
#######################################################################
#
#                 Cambridge Crystallographic Data Centre
#                                CCDC 
#
#######################################################################
#
# If this CIF has been generated from an entry in the Cambridge 
# Structural Database, then it will include bibliographic, chemical, 
# crystal, experimental, refinement or atomic coordinate data resulting 
# from the CCDC's data processing and validation procedures.
#
#######################################################################

data_BUTWEU
_chemical_formula_moiety         'C18 H23 Br1 F2 N2 O3 S1'
_chemical_name_systematic        
't-butyl (4-(5-bromo-2,4-difluorophenyl)-5-(methoxymethyl)-4-methyl-5,6-dihydro-4H-1,3-thiazin-2-yl)carbamate'
_chemical_properties_biological  'BACE1 inhibitor activity'
_symmetry_cell_setting           orthorhombic
_symmetry_space_group_name_H-M   'P 21 21 21'
_symmetry_Int_Tables_number      19
_space_group_name_Hall           'P 2ac 2ab'
loop_
_symmetry_equiv_pos_site_id
_symmetry_equiv_pos_as_xyz
1 x,y,z
2 1/2-x,-y,1/2+z
3 -x,1/2+y,1/2-z
4 1/2+x,1/2-y,-z
_cell_length_a                   9.7023(3)
_cell_length_b                   12.0049(4)
_cell_length_c                   17.7661(7)
_cell_angle_alpha                90
_cell_angle_beta                 90
_cell_angle_gamma                90
_cell_volume                     2069.31
_exptl_crystal_colour            colorless
_exptl_crystal_description       PRISM
_cell_formula_units_Z            4
loop_
_atom_site_label
_atom_site_type_symbol
_atom_site_fract_x
_atom_site_fract_y
_atom_site_fract_z
Br1 Br 0.59151(5) 0.32152(5) 0.82745(3)
S1 S 0.12920(13) 0.03511(7) 0.66230(6)
F1 F 0.6000(3) 0.1760(2) 0.96568(14)
F2 F 0.1498(3) 0.0412(2) 0.96181(12)
O1 O -0.1986(3) -0.0212(3) 0.8309(2)
O2 O 0.0870(4) 0.1450(2) 0.52550(14)
O3 O 0.1443(3) 0.3266(2) 0.51861(12)
N1 N 0.0854(3) 0.21867(19) 0.75257(13)
N2 N 0.1201(3) 0.2519(2) 0.62973(13)
H1 H 0.127(4) 0.3285(18) 0.647(2)
C1 C 0.2490(4) 0.1028(3) 0.92812(18)
C2 C 0.3746(5) 0.1066(3) 0.96306(19)
H2 H 0.3904 0.0662 1.0069
C3 C 0.4757(4) 0.1703(3) 0.9325(2)
C4 C 0.4520(4) 0.2293(3) 0.8676(2)
C5 C 0.3256(3) 0.2210(2) 0.83213(18)
H3 H 0.3113 0.2602 0.7876
C6 C 0.2193(3) 0.1563(2) 0.86055(16)
C7 C 0.0776(3) 0.1532(2) 0.82260(16)
C8 C -0.0245(5) 0.2152(4) 0.8727(2)
H4 H 0.0079 0.2897 0.8812
H5 H -0.0328 0.1772 0.9200
H6 H -0.1129 0.2177 0.8485
C9 C 0.0308(4) 0.0314(3) 0.8079(2)
H7 H 0.0343 -0.0080 0.8561
C10 C -0.1144(5) 0.0191(4) 0.7775(2)
H8 H -0.1480 0.0910 0.7606
H9 H -0.1139 -0.0310 0.7346
C11 C -0.3407(5) -0.0214(4) 0.8165(3)
H10 H -0.3696 0.0523 0.8027
H11 H -0.3892 -0.0445 0.8610
H12 H -0.3605 -0.0720 0.7761
C12 C 0.1299(5) -0.0268(3) 0.7552(2)
H13 H 0.1047 -0.1048 0.7513
H14 H 0.2223 -0.0228 0.7760
C13 C 0.1057(3) 0.1764(2) 0.68843(16)
C14 C 0.1149(4) 0.2319(3) 0.55361(17)
C15 C 0.1367(4) 0.3376(4) 0.43598(18)
C16 C 0.1850(8) 0.4555(5) 0.4244(3)
H15 H 0.1215 0.5059 0.4480
H16 H 0.1895 0.4712 0.3714
H17 H 0.2747 0.4646 0.4462
C17 C 0.2336(6) 0.2557(5) 0.3991(2)
H18 H 0.3243 0.2642 0.4200
H19 H 0.2368 0.2697 0.3459
H20 H 0.2015 0.1812 0.4078
C18 C -0.0106(5) 0.3212(6) 0.4115(3)
H21 H -0.0366 0.2449 0.4192
H22 H -0.0193 0.3396 0.3592
H23 H -0.0696 0.3687 0.4407
loop_
_geom_bond_atom_site_label_1
_geom_bond_atom_site_label_2
_geom_bond_site_symmetry_1
_geom_bond_site_symmetry_2
Br1 C4 1_555 1_555
S1 C12 1_555 1_555
F1 C3 1_555 1_555
F2 C1 1_555 1_555
O1 C10 1_555 1_555
O2 C14 1_555 1_555
O3 C14 1_555 1_555
N1 C7 1_555 1_555
N2 H1 1_555 1_555
C1 C2 1_555 1_555
C2 H2 1_555 1_555
C3 C2 1_555 1_555
C4 C3 1_555 1_555
C5 C4 1_555 1_555
H3 C5 1_555 1_555
C6 C1 1_555 1_555
C7 C6 1_555 1_555
C8 C7 1_555 1_555
H4 C8 1_555 1_555
H5 C8 1_555 1_555
H6 C8 1_555 1_555
C9 C7 1_555 1_555
H7 C9 1_555 1_555
C10 C9 1_555 1_555
H8 C10 1_555 1_555
H9 C10 1_555 1_555
C11 O1 1_555 1_555
H10 C11 1_555 1_555
H11 C11 1_555 1_555
H12 C11 1_555 1_555
C12 C9 1_555 1_555
H13 C12 1_555 1_555
H14 C12 1_555 1_555
C13 S1 1_555 1_555
C14 N2 1_555 1_555
C15 O3 1_555 1_555
C16 C15 1_555 1_555
H15 C16 1_555 1_555
H16 C16 1_555 1_555
H17 C16 1_555 1_555
C17 C15 1_555 1_555
H18 C17 1_555 1_555
H19 C17 1_555 1_555
H20 C17 1_555 1_555
C18 C15 1_555 1_555
H21 C18 1_555 1_555
H22 C18 1_555 1_555
H23 C18 1_555 1_555
N1 C13 1_555 1_555
N2 C13 1_555 1_555
C5 C6 1_555 1_555

#END
