
#######################################################################
#
#                 Cambridge Crystallographic Data Centre
#                                CCDC 
#
#######################################################################
#
# If this CIF has been generated from an entry in the Cambridge 
# Structural Database, then it will include bibliographic, chemical, 
# crystal, experimental, refinement or atomic coordinate data resulting 
# from the CCDC's data processing and validation procedures.
#
#######################################################################

data_BUVDIG
_chemical_formula_moiety         'C19 H16 N2 O1'
_chemical_name_systematic        
14b-Methyl-1,14b-dihydroindolo[1,2-a]pyrrolo[2,1-c]quinoxalin-3(2H)-one
_symmetry_cell_setting           orthorhombic
_symmetry_space_group_name_H-M   'P b c a'
_symmetry_Int_Tables_number      61
_space_group_name_Hall           '-P 2ac 2ab'
loop_
_symmetry_equiv_pos_site_id
_symmetry_equiv_pos_as_xyz
1 x,y,z
2 1/2-x,-y,1/2+z
3 -x,1/2+y,1/2-z
4 1/2+x,1/2-y,-z
5 -x,-y,-z
6 1/2+x,y,1/2-z
7 x,1/2-y,1/2+z
8 1/2-x,1/2+y,z
_cell_length_a                   13.0283(12)
_cell_length_b                   9.4485(8)
_cell_length_c                   22.978(2)
_cell_angle_alpha                90
_cell_angle_beta                 90
_cell_angle_gamma                90
_cell_volume                     2828.54
_exptl_crystal_colour            brown
_exptl_crystal_description       prismatic
_cell_formula_units_Z            8
loop_
_atom_site_label
_atom_site_type_symbol
_atom_site_fract_x
_atom_site_fract_y
_atom_site_fract_z
N1 N 0.88855(9) 0.06533(12) 0.69012(5)
N2 N 0.90166(9) 0.09839(12) 0.57224(5)
O1 O 0.79555(10) 0.00941(14) 0.77193(5)
C1 C 0.85135(12) 0.08928(17) 0.74480(7)
C2 C 0.89240(14) 0.22930(18) 0.76521(7)
H1 H 0.9457 0.2158 0.7941
H2 H 0.8381 0.2863 0.7820
C3 C 0.93533(13) 0.29935(16) 0.71134(7)
H3 H 0.9968 0.3529 0.7205
H4 H 0.8852 0.3626 0.6941
C4 C 0.96027(12) 0.17612(15) 0.66979(6)
C5 C 0.93439(12) 0.20864(15) 0.60784(6)
C6 C 0.93824(12) 0.33036(16) 0.57745(7)
H5 H 0.9594 0.4179 0.5915
C7 C 0.90376(12) 0.30041(16) 0.51954(6)
C8 C 0.88737(13) 0.38437(19) 0.47053(7)
H6 H 0.9044 0.4800 0.4711
C9 C 0.84594(15) 0.32463(19) 0.42148(7)
H7 H 0.8350 0.3801 0.3886
C10 C 0.82012(15) 0.18168(19) 0.42040(7)
H8 H 0.7909 0.1437 0.3869
C11 C 0.83682(13) 0.09515(18) 0.46764(6)
H9 H 0.8197 -0.0004 0.4665
C12 C 0.88011(11) 0.15507(16) 0.51727(6)
C13 C 0.88329(11) -0.03911(15) 0.59431(6)
C14 C 0.87679(12) -0.15749(17) 0.55867(7)
H10 H 0.8879 -0.1488 0.5188
C15 C 0.85392(13) -0.28788(16) 0.58233(8)
H11 H 0.8483 -0.3665 0.5582
C16 C 0.83939(13) -0.30263(16) 0.64108(8)
H12 H 0.8225 -0.3906 0.6565
C17 C 0.84977(12) -0.18754(16) 0.67748(7)
H13 H 0.8414 -0.1986 0.7174
C18 C 0.87266(11) -0.05534(15) 0.65466(6)
C19 C 1.07098(13) 0.12411(19) 0.67561(7)
H14 H 1.0849 0.1014 0.7156
H15 H 1.1171 0.1970 0.6629
H16 H 1.0804 0.0413 0.6520
loop_
_geom_bond_atom_site_label_1
_geom_bond_atom_site_label_2
_geom_bond_site_symmetry_1
_geom_bond_site_symmetry_2
N1 C1 1_555 1_555
N2 C5 1_555 1_555
O1 C1 1_555 1_555
C1 C2 1_555 1_555
C2 H1 1_555 1_555
H2 C2 1_555 1_555
C3 C2 1_555 1_555
H3 C3 1_555 1_555
H4 C3 1_555 1_555
C4 N1 1_555 1_555
C5 C4 1_555 1_555
C6 C5 1_555 1_555
H5 C6 1_555 1_555
C7 C6 1_555 1_555
C8 C7 1_555 1_555
H6 C8 1_555 1_555
C9 C8 1_555 1_555
H7 C9 1_555 1_555
C10 C9 1_555 1_555
H8 C10 1_555 1_555
C11 C10 1_555 1_555
H9 C11 1_555 1_555
C12 N2 1_555 1_555
C13 N2 1_555 1_555
C14 C13 1_555 1_555
H10 C14 1_555 1_555
C15 C14 1_555 1_555
H11 C15 1_555 1_555
C16 C15 1_555 1_555
H12 C16 1_555 1_555
C17 C16 1_555 1_555
H13 C17 1_555 1_555
C18 N1 1_555 1_555
C19 C4 1_555 1_555
H14 C19 1_555 1_555
H15 C19 1_555 1_555
H16 C19 1_555 1_555
C3 C4 1_555 1_555
C7 C12 1_555 1_555
C11 C12 1_555 1_555
C13 C18 1_555 1_555
C17 C18 1_555 1_555

#END
