
#######################################################################
#
#                 Cambridge Crystallographic Data Centre
#                                CCDC 
#
#######################################################################
#
# If this CIF has been generated from an entry in the Cambridge 
# Structural Database, then it will include bibliographic, chemical, 
# crystal, experimental, refinement or atomic coordinate data resulting 
# from the CCDC's data processing and validation procedures.
#
#######################################################################

data_BUVGIJ
_chemical_formula_moiety         'C17 H14 N2 O1'
_chemical_name_systematic        
2-(4-Methoxyphenyl)-8H-pyrazolo[5,1-a]isoindole
_symmetry_cell_setting           orthorhombic
_symmetry_space_group_name_H-M   'P 21 21 21'
_symmetry_Int_Tables_number      19
_space_group_name_Hall           'P 2ac 2ab'
loop_
_symmetry_equiv_pos_site_id
_symmetry_equiv_pos_as_xyz
1 x,y,z
2 1/2-x,-y,1/2+z
3 -x,1/2+y,1/2-z
4 1/2+x,1/2-y,-z
_cell_length_a                   5.52080(10)
_cell_length_b                   8.39110(10)
_cell_length_c                   29.1861(5)
_cell_angle_alpha                90
_cell_angle_beta                 90
_cell_angle_gamma                90
_cell_volume                     1352.06
_exptl_crystal_colour            silver
_exptl_crystal_description       block
_chemical_melting_point          '171-172 deg.C'
_cell_formula_units_Z            4
loop_
_atom_site_label
_atom_site_type_symbol
_atom_site_fract_x
_atom_site_fract_y
_atom_site_fract_z
N1 N 0.6564(2) 0.05277(14) -0.02395(4)
N2 N 0.6983(2) 0.07882(14) 0.02080(4)
C1 C 0.5867(3) 0.18905(19) 0.05270(5)
H1 H 0.4171 0.1642 0.0577
H2 H 0.6019 0.2985 0.0424
C2 C 0.7362(3) 0.15798(17) 0.09494(5)
C3 C 0.7148(3) 0.2225(2) 0.13806(6)
H3 H 0.5918 0.2946 0.1447
C4 C 0.8802(3) 0.1779(2) 0.17147(6)
H4 H 0.8683 0.2214 0.2007
C5 C 1.0617(3) 0.0704(2) 0.16204(6)
H5 H 1.1700 0.0416 0.1850
C6 C 1.0849(3) 0.00435(18) 0.11861(6)
H6 H 1.2079 -0.0680 0.1122
C7 C 0.9210(3) 0.04860(16) 0.08506(5)
C8 C 0.8950(3) 0.00145(15) 0.03718(5)
C9 C 0.9882(3) -0.08379(16) 0.00106(5)
H7 H 1.1227 -0.1506 0.0012
C10 C 0.8353(2) -0.04777(15) -0.03633(5)
C11 C 0.8587(3) -0.09568(15) -0.08433(5)
C12 C 1.0545(3) -0.18522(18) -0.09953(5)
H8 H 1.1718 -0.2168 -0.0785
C13 C 1.0799(3) -0.22866(19) -0.14492(6)
H9 H 1.2121 -0.2894 -0.1542
C14 C 0.9081(3) -0.18148(18) -0.17652(5)
C15 C 0.7144(3) -0.0903(2) -0.16226(6)
H10 H 0.6000 -0.0565 -0.1835
C16 C 0.6885(3) -0.04872(18) -0.11697(5)
H11 H 0.5555 0.0116 -0.1080
O1 O 0.9143(2) -0.21864(15) -0.22225(4)
C17 C 1.1102(4) -0.3133(3) -0.23847(6)
H12 H 1.0923 -0.3306 -0.2708
H13 H 1.1101 -0.4140 -0.2229
H14 H 1.2603 -0.2591 -0.2327
loop_
_geom_bond_atom_site_label_1
_geom_bond_atom_site_label_2
_geom_bond_site_symmetry_1
_geom_bond_site_symmetry_2
N1 N2 1_555 1_555
N2 C1 1_555 1_555
C1 H1 1_555 1_555
H2 C1 1_555 1_555
C2 C1 1_555 1_555
C3 C2 1_555 1_555
H3 C3 1_555 1_555
C4 C3 1_555 1_555
H4 C4 1_555 1_555
C5 C4 1_555 1_555
H5 C5 1_555 1_555
C6 C5 1_555 1_555
H6 C6 1_555 1_555
C7 C2 1_555 1_555
C8 N2 1_555 1_555
C9 C8 1_555 1_555
H7 C9 1_555 1_555
C10 N1 1_555 1_555
C11 C10 1_555 1_555
C12 C11 1_555 1_555
H8 C12 1_555 1_555
C13 C12 1_555 1_555
H9 C13 1_555 1_555
C14 C13 1_555 1_555
C15 C14 1_555 1_555
H10 C15 1_555 1_555
C16 C11 1_555 1_555
H11 C16 1_555 1_555
O1 C14 1_555 1_555
C17 O1 1_555 1_555
H12 C17 1_555 1_555
H13 C17 1_555 1_555
H14 C17 1_555 1_555
C6 C7 1_555 1_555
C7 C8 1_555 1_555
C9 C10 1_555 1_555
C15 C16 1_555 1_555

#END
