
#######################################################################
#
#                 Cambridge Crystallographic Data Centre
#                                CCDC 
#
#######################################################################
#
# If this CIF has been generated from an entry in the Cambridge 
# Structural Database, then it will include bibliographic, chemical, 
# crystal, experimental, refinement or atomic coordinate data resulting 
# from the CCDC's data processing and validation procedures.
#
#######################################################################

data_BUWBEB
_chemical_formula_moiety         'C25 H18 O2'
_chemical_name_systematic        
1-Phenyl-2-(2-(phenylethynyl)benzylidene)butane-1,3-dione
_symmetry_cell_setting           monoclinic
_symmetry_space_group_name_H-M   'P 21/n'
_symmetry_Int_Tables_number      14
_space_group_name_Hall           '-P 2yn'
loop_
_symmetry_equiv_pos_site_id
_symmetry_equiv_pos_as_xyz
1 x,y,z
2 1/2-x,1/2+y,1/2-z
3 -x,-y,-z
4 1/2+x,1/2-y,1/2+z
_cell_length_a                   10.9939(3)
_cell_length_b                   15.2410(4)
_cell_length_c                   11.1426(3)
_cell_angle_alpha                90
_cell_angle_beta                 98.3600(10)
_cell_angle_gamma                90
_cell_volume                     1847.19
_exptl_crystal_colour            yellow
_exptl_crystal_description       block
_cell_formula_units_Z            4
loop_
_atom_site_label
_atom_site_type_symbol
_atom_site_fract_x
_atom_site_fract_y
_atom_site_fract_z
O1 O 0.66795(9) 0.21679(6) 0.69122(8)
C1 C 0.60076(11) 0.22337(8) 0.59528(11)
C2 C 0.56788(11) 0.42238(8) 0.62028(11)
O2 O 0.71158(9) 0.17569(6) 0.40815(10)
C3 C 0.71148(12) 0.54471(8) 0.60362(11)
C4 C 0.62971(10) 0.29167(8) 0.50496(10)
C5 C 0.78763(12) 0.58018(9) 0.55449(12)
C6 C 0.61749(11) 0.50420(8) 0.66064(10)
C7 C 0.87848(11) 0.62300(8) 0.49511(11)
C8 C 0.49367(11) 0.16465(7) 0.56141(11)
C9 C 0.57460(13) 0.54629(9) 0.75761(12)
H1 H 0.6089 0.5995 0.7858
C10 C 0.61728(11) 0.37802(8) 0.52074(11)
H2 H 0.6428 0.4141 0.4619
C11 C 0.69113(11) 0.25387(9) 0.40629(11)
C12 C 1.05411(13) 0.70542(11) 0.38017(14)
H3 H 1.1129 0.7332 0.3414
C13 C 0.47279(12) 0.38788(9) 0.67599(12)
H4 H 0.4375 0.3347 0.6489
C14 C 0.43007(13) 0.43086(9) 0.77014(13)
H5 H 0.3662 0.4068 0.8057
C15 C 0.40772(12) 0.18045(9) 0.45991(12)
H6 H 0.4151 0.2299 0.4126
C16 C 0.48103(13) 0.09104(8) 0.63225(12)
H7 H 0.5374 0.0804 0.7014
C17 C 0.91668(13) 0.70759(9) 0.52772(13)
H8 H 0.8836 0.7368 0.5888
C18 C 0.48190(14) 0.50959(10) 0.81178(13)
H9 H 0.4542 0.5379 0.8766
C19 C 0.30090(14) 0.04953(10) 0.49880(14)
H10 H 0.2366 0.0104 0.4773
C20 C 0.38486(14) 0.03383(10) 0.59995(14)
H11 H 0.3769 -0.0157 0.6470
C21 C 1.01768(15) 0.62172(11) 0.34825(14)
H12 H 1.0522 0.5925 0.2881
C22 C 1.00379(14) 0.74820(10) 0.46936(14)
H13 H 1.0286 0.8051 0.4907
C23 C 0.73140(15) 0.31103(11) 0.31028(13)
H14 H 0.7685 0.2755 0.2544
H15 H 0.7901 0.3532 0.3472
H16 H 0.6614 0.3411 0.2676
C24 C 0.93013(15) 0.58067(10) 0.40479(13)
H17 H 0.9054 0.5240 0.3822
C25 C 0.31104(13) 0.12288(10) 0.42871(13)
H18 H 0.2532 0.1336 0.3608
loop_
_geom_bond_atom_site_label_1
_geom_bond_atom_site_label_2
_geom_bond_site_symmetry_1
_geom_bond_site_symmetry_2
O1 C1 1_555 1_555
C1 C4 1_555 1_555
C2 C6 1_555 1_555
O2 C11 1_555 1_555
C3 C5 1_555 1_555
C4 C10 1_555 1_555
C5 C7 1_555 1_555
C6 C3 1_555 1_555
C7 C17 1_555 1_555
C8 C1 1_555 1_555
C9 C6 1_555 1_555
H1 C9 1_555 1_555
C10 C2 1_555 1_555
H2 C10 1_555 1_555
C11 C4 1_555 1_555
C12 H3 1_555 1_555
C13 C2 1_555 1_555
H4 C13 1_555 1_555
C14 C13 1_555 1_555
H5 C14 1_555 1_555
C15 C8 1_555 1_555
H6 C15 1_555 1_555
C16 C8 1_555 1_555
H7 C16 1_555 1_555
C17 H8 1_555 1_555
C18 C9 1_555 1_555
H9 C18 1_555 1_555
C19 H10 1_555 1_555
C20 C16 1_555 1_555
H11 C20 1_555 1_555
C21 C12 1_555 1_555
H12 C21 1_555 1_555
C22 C12 1_555 1_555
H13 C22 1_555 1_555
C23 C11 1_555 1_555
H14 C23 1_555 1_555
H15 C23 1_555 1_555
H16 C23 1_555 1_555
C24 C7 1_555 1_555
H17 C24 1_555 1_555
C25 C15 1_555 1_555
H18 C25 1_555 1_555
C14 C18 1_555 1_555
C17 C22 1_555 1_555
C19 C20 1_555 1_555
C19 C25 1_555 1_555
C21 C24 1_555 1_555

#END
