
#######################################################################
#
#                 Cambridge Crystallographic Data Centre
#                                CCDC 
#
#######################################################################
#
# If this CIF has been generated from an entry in the Cambridge 
# Structural Database, then it will include bibliographic, chemical, 
# crystal, experimental, refinement or atomic coordinate data resulting 
# from the CCDC's data processing and validation procedures.
#
#######################################################################

data_BUWMOX
_chemical_formula_moiety         'C10 H11 N1 O2'
_chemical_name_systematic        4-(2-hydroxyethyl)-1,3-dihydro-2H-indol-2-one
_symmetry_cell_setting           monoclinic
_symmetry_space_group_name_H-M   'P 21/c'
_symmetry_Int_Tables_number      14
_space_group_name_Hall           '-P 2ybc'
loop_
_symmetry_equiv_pos_site_id
_symmetry_equiv_pos_as_xyz
1 x,y,z
2 -x,1/2+y,1/2-z
3 -x,-y,-z
4 x,1/2-y,1/2+z
_cell_length_a                   7.3830(15)
_cell_length_b                   12.318(3)
_cell_length_c                   9.4801(19)
_cell_angle_alpha                90
_cell_angle_beta                 92.76(3)
_cell_angle_gamma                90
_cell_volume                     861.156
_cell_formula_units_Z            4
loop_
_atom_site_label
_atom_site_type_symbol
_atom_site_fract_x
_atom_site_fract_y
_atom_site_fract_z
C1 C 0.7087(5) 0.4498(3) -0.0505(4)
C2 C 0.7786(5) 0.5187(3) 0.0555(4)
C3 C 0.8322(5) 0.4780(3) 0.1863(4)
C4 C 0.8207(6) 0.3655(4) 0.2053(5)
H1 H 0.8606 0.3354 0.2913
C5 C 0.7518(6) 0.2983(3) 0.0997(5)
H2 H 0.7448 0.2241 0.1163
C6 C 0.6925(5) 0.3389(3) -0.0311(5)
H3 H 0.6443 0.2939 -0.1021
C7 C 0.7767(5) 0.6317(3) -0.0022(4)
H4 H 0.8986 0.6610 -0.0037
H5 H 0.7033 0.6792 0.0533
C8 C 0.6940(5) 0.6181(3) -0.1507(4)
C9 C 0.8912(6) 0.5515(4) 0.3078(4)
H6 H 0.9165 0.6232 0.2715
H7 H 1.0025 0.5235 0.3527
C10 C 0.7476(6) 0.5605(4) 0.4178(4)
H8 H 0.7240 0.4890 0.4555
H9 H 0.7937 0.6059 0.4951
N1 N 0.6615(4) 0.5106(3) -0.1717(3)
H10 H 0.6176 0.4834 -0.2495
O1 O 0.5832(4) 0.6053(3) 0.3604(4)
H11 H 0.6026 0.6658 0.3284
O2 O 0.6610(5) 0.6901(2) -0.2381(3)
loop_
_geom_bond_atom_site_label_1
_geom_bond_atom_site_label_2
_geom_bond_site_symmetry_1
_geom_bond_site_symmetry_2
C1 C2 1_555 1_555
C2 C3 1_555 1_555
C3 C4 1_555 1_555
C4 H1 1_555 1_555
C5 C4 1_555 1_555
H2 C5 1_555 1_555
C6 C1 1_555 1_555
H3 C6 1_555 1_555
C7 C2 1_555 1_555
H4 C7 1_555 1_555
H5 C7 1_555 1_555
C8 C7 1_555 1_555
C9 C3 1_555 1_555
H6 C9 1_555 1_555
H7 C9 1_555 1_555
C10 C9 1_555 1_555
H8 C10 1_555 1_555
H9 C10 1_555 1_555
N1 C1 1_555 1_555
H10 N1 1_555 1_555
O1 C10 1_555 1_555
H11 O1 1_555 1_555
O2 C8 1_555 1_555
C5 C6 1_555 1_555
C8 N1 1_555 1_555

#END
