
#######################################################################
#
#                 Cambridge Crystallographic Data Centre
#                                CCDC 
#
#######################################################################
#
# If this CIF has been generated from an entry in the Cambridge 
# Structural Database, then it will include bibliographic, chemical, 
# crystal, experimental, refinement or atomic coordinate data resulting 
# from the CCDC's data processing and validation procedures.
#
#######################################################################

data_BUXPUH
_chemical_formula_moiety         
'C64 H26 F20 N8 2+,2(C1 H4 O3 S1),2(C1 H3 O3 S1 1-),4(C1 H2 Cl2)'
_chemical_name_systematic        
'5,20-Di(pyridinium-2-yl)-10,15,25,30-tetrakis(hexafluorophenyl)[26]hexaphyrin(1.1.1.1.1.1) bis(methanesulfonate) methanesulfonic acid dichloromethane solvate'
_symmetry_cell_setting           monoclinic
_symmetry_space_group_name_H-M   'P 21/c'
_symmetry_Int_Tables_number      14
_space_group_name_Hall           '-P 2ybc'
loop_
_symmetry_equiv_pos_site_id
_symmetry_equiv_pos_as_xyz
1 x,y,z
2 -x,1/2+y,1/2-z
3 -x,-y,-z
4 x,1/2-y,1/2+z
_cell_length_a                   14.108(3)
_cell_length_b                   24.897(5)
_cell_length_c                   15.092(3)
_cell_angle_alpha                90
_cell_angle_beta                 114.461(3)
_cell_angle_gamma                90
_cell_volume                     4825.22
_exptl_crystal_colour            blue
_exptl_crystal_description       prism
_cell_formula_units_Z            2
loop_
_atom_site_label
_atom_site_type_symbol
_atom_site_fract_x
_atom_site_fract_y
_atom_site_fract_z
O1 O 0.5339(3) 0.64198(17) 0.9190(3)
O2 O 0.5152(3) 0.56750(15) 0.8108(3)
O3 O 0.4655(3) 0.55713(16) 0.9454(3)
S1 S 0.47448(9) 0.59338(5) 0.87401(9)
C1 C 0.3481(4) 0.6149(3) 0.7989(4)
H1 H 0.3509 0.6396 0.7495
H2 H 0.3177 0.6334 0.8383
H3 H 0.3051 0.5838 0.7668
O4 O 0.0959(3) 0.5335(2) 0.8537(4)
H4 H 0.1452 0.5551 0.8806
O5 O 0.1625(4) 0.5078(2) 0.7381(4)
O6 O 0.2070(6) 0.4574(4) 0.8792(8)
S2 S 0.12877(11) 0.49186(6) 0.81079(12)
C2 C 0.0183(9) 0.4502(4) 0.7574(11)
H5 H 0.0350 0.4197 0.7254
H6 H -0.0391 0.4708 0.7091
H7 H -0.0024 0.4370 0.8079
Cl1 Cl 0.1481(3) 0.4559(2) 0.4349(4)
Cl2 Cl 0.0418(6) 0.3831(2) 0.5025(5)
C3 C 0.0346(13) 0.4037(10) 0.4046(9)
H8 H -0.0336 0.4210 0.3676
H9 H 0.0430 0.3737 0.3652
Cl3 Cl 0.33421(17) 0.33160(12) 0.54389(17)
Cl4 Cl 0.55121(17) 0.30181(13) 0.6110(2)
C4 C 0.4288(6) 0.2822(4) 0.6017(7)
H10 H 0.4324 0.2754 0.6677
H11 H 0.4083 0.2483 0.5643
F1 F 0.6734(2) 0.69455(12) 0.8063(2)
F2 F 0.4718(3) 0.71626(15) 0.6929(3)
F3 F 0.3605(2) 0.65014(17) 0.5447(3)
F4 F 0.4521(3) 0.56142(16) 0.5075(2)
F5 F 0.6513(2) 0.53923(13) 0.6206(2)
N1 N 0.9610(3) 0.63764(15) 0.8434(3)
H12 H 0.9901 0.6157 0.8930
N2 N 0.7134(3) 0.52712(15) 0.8418(3)
H13 H 0.6486 0.5385 0.8194
N3 N 0.8013(3) 0.38333(15) 1.0233(3)
N4 N 0.4938(3) 0.44885(16) 0.8622(3)
H14 H 0.5143 0.4456 0.9255
C5 C 1.0115(4) 0.67818(19) 0.8179(4)
C6 C 0.9377(4) 0.7023(2) 0.7334(4)
H15 H 0.9505 0.7313 0.6987
C7 C 0.8444(4) 0.6770(2) 0.7096(4)
H16 H 0.7812 0.6852 0.6554
C8 C 0.8580(4) 0.63705(19) 0.7788(3)
C9 C 0.7790(3) 0.6017(2) 0.7816(3)
C10 C 0.7945(3) 0.55546(18) 0.8353(3)
C11 C 0.8862(3) 0.52250(18) 0.8834(3)
H17 H 0.9549 0.5314 0.8919
C12 C 0.8572(3) 0.47711(18) 0.9140(3)
H18 H 0.9019 0.4483 0.9475
C13 C 0.7469(3) 0.47962(19) 0.8873(3)
C14 C 0.6772(3) 0.44010(19) 0.8934(3)
C15 C 0.7066(3) 0.39385(19) 0.9499(3)
C16 C 0.6426(4) 0.3470(2) 0.9379(4)
H19 H 0.5725 0.3431 0.8918
C17 C 0.6990(4) 0.3098(2) 1.0033(4)
H20 H 0.6753 0.2752 1.0114
C18 C 0.8012(4) 0.33144(18) 1.0587(3)
C19 C 0.8826(3) 0.30545(19) 1.1313(3)
C20 C 0.6698(4) 0.61634(19) 0.7180(3)
C21 C 0.6209(4) 0.6614(2) 0.7326(4)
C22 C 0.5176(4) 0.6726(2) 0.6749(4)
C23 C 0.4610(4) 0.6394(2) 0.6009(4)
C24 C 0.5066(4) 0.5943(2) 0.5826(4)
C25 C 0.6091(4) 0.5829(2) 0.6403(3)
C26 C 0.5659(3) 0.44654(19) 0.8252(3)
C27 C 0.5328(4) 0.4500(2) 0.7248(4)
H21 H 0.5818 0.4476 0.6968
C28 C 0.4291(4) 0.4570(2) 0.6665(4)
H22 H 0.4064 0.4599 0.5980
C29 C 0.3571(4) 0.4598(2) 0.7071(4)
H23 H 0.2850 0.4643 0.6671
C30 C 0.3926(4) 0.4558(2) 0.8068(4)
H24 H 0.3448 0.4581 0.8362
C31 C 0.8545(15) 0.2491(6) 1.1535(15)
C32 C 0.8662(15) 0.2041(8) 1.1043(14)
C33 C 0.8410(13) 0.1535(7) 1.1269(16)
C34 C 0.8041(9) 0.1478(7) 1.199(2)
C35 C 0.7924(12) 0.1927(8) 1.248(2)
C36 C 0.8176(15) 0.2434(7) 1.2254(18)
F6 F 0.807(2) 0.2859(13) 1.278(2)
F7 F 0.7609(18) 0.1876(11) 1.320(3)
F8 F 0.7778(13) 0.0996(8) 1.220(3)
F9 F 0.848(2) 0.1113(8) 1.077(2)
F10 F 0.9022(18) 0.2091(7) 1.0361(13)
F1B F 1.3266(2) 0.30545(12) 1.1937(2)
F2B F 1.5282(3) 0.28374(15) 1.3071(3)
F3B F 1.6395(2) 0.34986(17) 1.4553(3)
F4B F 1.5479(3) 0.43858(16) 1.4925(2)
F5B F 1.3487(2) 0.46077(13) 1.3794(2)
N1B N 1.0390(3) 0.36236(15) 1.1566(3)
H12B H 1.0099 0.3843 1.1070
N2B N 1.2866(3) 0.47288(15) 1.1582(3)
H13B H 1.3514 0.4615 1.1806
N3B N 1.1987(3) 0.61667(15) 0.9767(3)
N4B N 1.5062(3) 0.55115(16) 1.1378(3)
H14B H 1.4857 0.5544 1.0745
C5B C 0.9885(4) 0.32182(19) 1.1821(4)
C6B C 1.0623(4) 0.2977(2) 1.2666(4)
H15B H 1.0495 0.2687 1.3013
C7B C 1.1556(4) 0.3230(2) 1.2904(4)
H16B H 1.2188 0.3148 1.3446
C8B C 1.1420(4) 0.36295(19) 1.2212(3)
C9B C 1.2210(3) 0.3983(2) 1.2184(3)
C10B C 1.2055(3) 0.44454(18) 1.1647(3)
C11B C 1.1138(3) 0.47750(18) 1.1166(3)
H17B H 1.0451 0.4686 1.1081
C12B C 1.1428(3) 0.52289(18) 1.0860(3)
H18B H 1.0981 0.5517 1.0525
C13B C 1.2531(3) 0.52038(19) 1.1127(3)
C14B C 1.3228(3) 0.55990(19) 1.1066(3)
C15B C 1.2934(3) 0.60615(19) 1.0501(3)
C16B C 1.3574(4) 0.6530(2) 1.0621(4)
H19B H 1.4275 0.6569 1.1082
C17B C 1.3010(4) 0.6902(2) 0.9967(4)
H20B H 1.3247 0.7248 0.9886
C18B C 1.1988(4) 0.66856(18) 0.9413(3)
C19B C 1.1174(3) 0.69455(19) 0.8687(3)
C20B C 1.3302(4) 0.38366(19) 1.2820(3)
C21B C 1.3791(4) 0.3386(2) 1.2674(4)
C22B C 1.4824(4) 0.3274(2) 1.3251(4)
C23B C 1.5390(4) 0.3606(2) 1.3991(4)
C24B C 1.4934(4) 0.4057(2) 1.4174(4)
C25B C 1.3909(4) 0.4171(2) 1.3597(3)
C26B C 1.4341(3) 0.55346(19) 1.1748(3)
C27B C 1.4672(4) 0.5500(2) 1.2752(4)
H21B H 1.4182 0.5524 1.3032
C28B C 1.5709(4) 0.5430(2) 1.3335(4)
H22B H 1.5936 0.5401 1.4020
C29B C 1.6429(4) 0.5402(2) 1.2929(4)
H23B H 1.7150 0.5357 1.3329
C30B C 1.6074(4) 0.5442(2) 1.1932(4)
H24B H 1.6552 0.5419 1.1638
C31B C 1.1455(15) 0.7509(6) 0.8465(15)
C32B C 1.1338(15) 0.7959(8) 0.8957(14)
C33B C 1.1590(13) 0.8465(7) 0.8731(16)
C34B C 1.1959(9) 0.8522(7) 0.801(2)
C35B C 1.2076(12) 0.8073(8) 0.752(2)
C36B C 1.1824(15) 0.7566(7) 0.7746(18)
F6B F 1.193(2) 0.7141(13) 0.722(2)
F7B F 1.2391(18) 0.8124(11) 0.680(3)
F8B F 1.2222(13) 0.9004(8) 0.780(3)
F9B F 1.152(2) 0.8887(8) 0.923(2)
F10B F 1.0978(18) 0.7909(7) 0.9639(13)
C37? C 0.860(2) 0.2555(9) 1.1737(16)
C38? C 0.853(2) 0.2073(10) 1.1250(16)
C39? C 0.8218(17) 0.1608(8) 1.1562(17)
C40? C 0.7968(12) 0.1624(10) 1.2360(18)
C41? C 0.8031(12) 0.2106(11) 1.2847(16)
C42? C 0.8344(17) 0.2571(9) 1.2536(16)
F11? F 0.8728(17) 0.2039(8) 1.0474(18)
F12? F 0.7719(15) 0.1153(12) 1.265(2)
F13? F 0.822(2) 0.1130(10) 1.111(2)
F14? F 0.8375(18) 0.2989(13) 1.2943(18)
F15? F 0.7830(15) 0.2101(13) 1.3614(16)
loop_
_geom_bond_atom_site_label_1
_geom_bond_atom_site_label_2
_geom_bond_site_symmetry_1
_geom_bond_site_symmetry_2
O1 S1 1_555 1_555
O2 S1 1_555 1_555
O3 S1 1_555 1_555
S1 C1 1_555 1_555
C1 H1 1_555 1_555
H2 C1 1_555 1_555
H3 C1 1_555 1_555
O4 H4 1_555 1_555
O5 S2 1_555 1_555
O6 S2 1_555 1_555
S2 O4 1_555 1_555
C2 S2 1_555 1_555
H5 C2 1_555 1_555
H6 C2 1_555 1_555
H7 C2 1_555 1_555
Cl1 C3 1_555 1_555
Cl2 C3 1_555 1_555
C3 H8 1_555 1_555
H9 C3 1_555 1_555
Cl3 C4 1_555 1_555
Cl4 C4 1_555 1_555
C4 H10 1_555 1_555
H11 C4 1_555 1_555
F1 C21 1_555 1_555
F2 C22 1_555 1_555
F3 C23 1_555 1_555
F4 C24 1_555 1_555
F5 C25 1_555 1_555
N1 H12 1_555 1_555
N2 H13 1_555 1_555
N3 C15 1_555 1_555
N4 H14 1_555 1_555
C5 N1 1_555 1_555
C6 C5 1_555 1_555
H15 C6 1_555 1_555
C7 C6 1_555 1_555
H16 C7 1_555 1_555
C8 N1 1_555 1_555
C9 C8 1_555 1_555
C10 N2 1_555 1_555
C11 C10 1_555 1_555
H17 C11 1_555 1_555
C12 C11 1_555 1_555
H18 C12 1_555 1_555
C13 N2 1_555 1_555
C14 C13 1_555 1_555
C15 C14 1_555 1_555
C16 C15 1_555 1_555
H19 C16 1_555 1_555
C17 C16 1_555 1_555
H20 C17 1_555 1_555
C18 N3 1_555 1_555
C19 C18 1_555 1_555
C20 C9 1_555 1_555
C21 C20 1_555 1_555
C22 C21 1_555 1_555
C23 C22 1_555 1_555
C24 C23 1_555 1_555
C25 C20 1_555 1_555
C26 N4 1_555 1_555
C27 C26 1_555 1_555
H21 C27 1_555 1_555
C28 C27 1_555 1_555
H22 C28 1_555 1_555
C29 C28 1_555 1_555
H23 C29 1_555 1_555
C30 N4 1_555 1_555
H24 C30 1_555 1_555
C31 C19 1_555 1_555
C32 C31 1_555 1_555
C33 C32 1_555 1_555
C34 C33 1_555 1_555
C35 C34 1_555 1_555
C36 C31 1_555 1_555
F6 C36 1_555 1_555
F7 C35 1_555 1_555
F8 C34 1_555 1_555
F9 C33 1_555 1_555
F10 C32 1_555 1_555
F1B C21B 1_555 1_555
F2B C22B 1_555 1_555
F3B C23B 1_555 1_555
F4B C24B 1_555 1_555
F5B C25B 1_555 1_555
N1B H12B 1_555 1_555
N2B H13B 1_555 1_555
N3B C15B 1_555 1_555
N4B H14B 1_555 1_555
C5B C19 1_555 1_555
C6B C5B 1_555 1_555
H15B C6B 1_555 1_555
C7B C6B 1_555 1_555
H16B C7B 1_555 1_555
C8B N1B 1_555 1_555
C9B C8B 1_555 1_555
C10B N2B 1_555 1_555
C11B C10B 1_555 1_555
H17B C11B 1_555 1_555
C12B C11B 1_555 1_555
H18B C12B 1_555 1_555
C13B N2B 1_555 1_555
C14B C13B 1_555 1_555
C15B C14B 1_555 1_555
C16B C15B 1_555 1_555
H19B C16B 1_555 1_555
C17B C16B 1_555 1_555
H20B C17B 1_555 1_555
C18B N3B 1_555 1_555
C19B C5 1_555 1_555
C20B C9B 1_555 1_555
C21B C20B 1_555 1_555
C22B C21B 1_555 1_555
C23B C22B 1_555 1_555
C24B C23B 1_555 1_555
C25B C20B 1_555 1_555
C26B N4B 1_555 1_555
C27B C26B 1_555 1_555
H21B C27B 1_555 1_555
C28B C27B 1_555 1_555
H22B C28B 1_555 1_555
C29B C28B 1_555 1_555
H23B C29B 1_555 1_555
C30B N4B 1_555 1_555
H24B C30B 1_555 1_555
C31B C19B 1_555 1_555
C32B C31B 1_555 1_555
C33B C32B 1_555 1_555
C34B C33B 1_555 1_555
C35B C34B 1_555 1_555
C36B C31B 1_555 1_555
F6B C36B 1_555 1_555
F7B C35B 1_555 1_555
F8B C34B 1_555 1_555
F9B C33B 1_555 1_555
F10B C32B 1_555 1_555
C7 C8 1_555 1_555
C9 C10 1_555 1_555
C12 C13 1_555 1_555
C14 C26 1_555 1_555
C17 C18 1_555 1_555
C24 C25 1_555 1_555
C29 C30 1_555 1_555
C35 C36 1_555 1_555
N1B C5B 1_555 1_555
C7B C8B 1_555 1_555
C9B C10B 1_555 1_555
C12B C13B 1_555 1_555
C14B C26B 1_555 1_555
C17B C18B 1_555 1_555
C18B C19B 1_555 1_555
C24B C25B 1_555 1_555
C29B C30B 1_555 1_555
C35B C36B 1_555 1_555

#END
