
#######################################################################
#
#                 Cambridge Crystallographic Data Centre
#                                CCDC 
#
#######################################################################
#
# If this CIF has been generated from an entry in the Cambridge 
# Structural Database, then it will include bibliographic, chemical, 
# crystal, experimental, refinement or atomic coordinate data resulting 
# from the CCDC's data processing and validation procedures.
#
#######################################################################

data_BUXQAO
_chemical_formula_moiety         'C14 H16 O1'
_chemical_name_systematic        
1a,2,3,4,5,5a,9b,9c-octahydrobenzo[3',4']cyclobuta[1',2':3,4]cycloocta[1,2-b]oxirene
_symmetry_cell_setting           monoclinic
_symmetry_space_group_name_H-M   'P 21/n'
_symmetry_Int_Tables_number      14
_space_group_name_Hall           '-P 2yn'
loop_
_symmetry_equiv_pos_site_id
_symmetry_equiv_pos_as_xyz
1 x,y,z
2 1/2-x,1/2+y,1/2-z
3 -x,-y,-z
4 1/2+x,1/2-y,1/2+z
_cell_length_a                   8.7839(5)
_cell_length_b                   9.3731(6)
_cell_length_c                   13.6419(10)
_cell_angle_alpha                90
_cell_angle_beta                 107.534(2)
_cell_angle_gamma                90
_cell_volume                     1070.99
_exptl_crystal_colour            colorless
_exptl_crystal_description       blade
_cell_formula_units_Z            4
loop_
_atom_site_label
_atom_site_type_symbol
_atom_site_fract_x
_atom_site_fract_y
_atom_site_fract_z
O1 O 0.3217(2) 0.14679(15) -0.06909(12)
C1 C 0.3563(2) 0.2925(2) -0.03170(15)
H1 H 0.4436 0.3421 -0.0514
C2 C 0.4056(3) 0.1719(2) 0.03923(17)
H2 H 0.5225 0.1503 0.0600
C3 C 0.3243(3) 0.1320(2) 0.11702(16)
H3 H 0.3262 0.0270 0.1254
H4 H 0.2114 0.1631 0.0929
C4 C 0.4082(3) 0.2024(2) 0.22063(16)
H5 H 0.3936 0.1401 0.2757
H6 H 0.5240 0.2058 0.2288
C5 C 0.3541(2) 0.3521(2) 0.23768(15)
H7 H 0.4190 0.3839 0.3069
H8 H 0.2420 0.3461 0.2385
C6 C 0.3634(2) 0.4684(2) 0.16030(15)
H9 H 0.3759 0.5622 0.1953
H10 H 0.4599 0.4518 0.1387
C7 C 0.2188(2) 0.4751(2) 0.06478(14)
H11 H 0.1187 0.4605 0.0840
C8 C 0.2013(2) 0.6047(2) -0.00543(15)
C9 C 0.1819(2) 0.7513(2) -0.00893(16)
H12 H 0.1862 0.8057 0.0506
C10 C 0.1557(2) 0.8141(2) -0.10499(17)
H13 H 0.1402 0.9144 -0.1117
C11 C 0.1516(2) 0.7334(2) -0.19184(16)
H14 H 0.1341 0.7805 -0.2559
C12 C 0.1723(2) 0.5859(2) -0.18746(15)
H15 H 0.1705 0.5310 -0.2463
C13 C 0.1958(2) 0.5248(2) -0.09166(14)
C14 C 0.2134(2) 0.3820(2) -0.03439(14)
H16 H 0.1127 0.3249 -0.0578
loop_
_geom_bond_atom_site_label_1
_geom_bond_atom_site_label_2
_geom_bond_site_symmetry_1
_geom_bond_site_symmetry_2
O1 C1 1_555 1_555
C1 H1 1_555 1_555
C2 O1 1_555 1_555
H2 C2 1_555 1_555
C3 C2 1_555 1_555
H3 C3 1_555 1_555
H4 C3 1_555 1_555
C4 C3 1_555 1_555
H5 C4 1_555 1_555
H6 C4 1_555 1_555
C5 C4 1_555 1_555
H7 C5 1_555 1_555
H8 C5 1_555 1_555
C6 C5 1_555 1_555
H9 C6 1_555 1_555
H10 C6 1_555 1_555
C7 C6 1_555 1_555
H11 C7 1_555 1_555
C8 C7 1_555 1_555
C9 C8 1_555 1_555
H12 C9 1_555 1_555
C10 C9 1_555 1_555
H13 C10 1_555 1_555
C11 C10 1_555 1_555
H14 C11 1_555 1_555
C12 C11 1_555 1_555
H15 C12 1_555 1_555
C13 C8 1_555 1_555
C14 C1 1_555 1_555
H16 C14 1_555 1_555
C1 C2 1_555 1_555
C7 C14 1_555 1_555
C12 C13 1_555 1_555
C13 C14 1_555 1_555

#END
