
#######################################################################
#
#                 Cambridge Crystallographic Data Centre
#                                CCDC 
#
#######################################################################
#
# If this CIF has been generated from an entry in the Cambridge 
# Structural Database, then it will include bibliographic, chemical, 
# crystal, experimental, refinement or atomic coordinate data resulting 
# from the CCDC's data processing and validation procedures.
#
#######################################################################

data_BUYBII
_chemical_formula_moiety         'C22 H23 N3 O2 S2'
_chemical_name_systematic        
'Benzyl 2-((7-(diethylamino)-2-oxo-2H-chromen-3-yl)methylene)hydrazinecarbodithioate'
_symmetry_cell_setting           triclinic
_symmetry_space_group_name_H-M   'P -1'
_symmetry_Int_Tables_number      2
_space_group_name_Hall           '-P 1'
loop_
_symmetry_equiv_pos_site_id
_symmetry_equiv_pos_as_xyz
1 x,y,z
2 -x,-y,-z
_cell_length_a                   7.6540(18)
_cell_length_b                   8.847(2)
_cell_length_c                   16.479(4)
_cell_angle_alpha                97.386(3)
_cell_angle_beta                 99.473(3)
_cell_angle_gamma                101.039(3)
_cell_volume                     1065.42
_exptl_crystal_colour            red
_exptl_crystal_description       block
_cell_formula_units_Z            2
loop_
_atom_site_label
_atom_site_type_symbol
_atom_site_fract_x
_atom_site_fract_y
_atom_site_fract_z
C1 C 0.5239(4) 1.0382(3) 0.12922(15)
H1 H 0.6216 1.0284 0.1006
H2 H 0.4264 1.0625 0.0921
H3 H 0.4814 0.9417 0.1477
C2 C 0.5899(3) 1.1671(2) 0.20343(14)
H4 H 0.6406 1.2623 0.1844
H5 H 0.4868 1.1851 0.2276
C3 C 1.0076(4) 1.0916(3) 0.22139(19)
H6 H 1.0005 0.9979 0.2455
H7 H 1.1326 1.1406 0.2252
H8 H 0.9479 1.0661 0.1639
C4 C 0.9168(3) 1.2012(3) 0.26767(16)
H9 H 0.9829 1.2314 0.3248
H10 H 0.9236 1.2948 0.2425
C5 C 0.6780(3) 1.0405(2) 0.32354(12)
C6 C 0.8129(3) 1.0012(3) 0.38271(13)
H11 H 0.9349 1.0385 0.3824
C7 C 0.7662(3) 0.9102(3) 0.43950(13)
H12 H 0.8576 0.8879 0.4777
C8 C 0.5842(3) 0.8485(2) 0.44233(11)
C9 C 0.4532(2) 0.8850(2) 0.38244(12)
C10 C 0.4954(3) 0.9774(2) 0.32463(12)
H13 H 0.4034 0.9984 0.2862
C11 C 0.5265(3) 0.7534(2) 0.49925(11)
H14 H 0.6125 0.7320 0.5405
C12 C 0.3476(3) 0.6921(2) 0.49536(12)
C13 C 0.2136(3) 0.7239(2) 0.43064(13)
C14 C 0.2812(3) 0.5955(2) 0.55335(12)
H15 H 0.1572 0.5565 0.5475
C15 C 0.4205(3) 0.4368(2) 0.72958(12)
C16 C 0.7641(4) 0.4305(3) 0.81889(15)
H16 H 0.6743 0.3568 0.8375
H17 H 0.8533 0.3752 0.8017
C17 C 0.8567(3) 0.5594(2) 0.89066(13)
C18 C 0.7571(4) 0.6412(3) 0.93530(16)
H18 H 0.6311 0.6178 0.9207
C19 C 0.8446(5) 0.7582(3) 1.00189(17)
H19 H 0.7766 0.8124 1.0319
C20 C 1.0290(5) 0.7946(3) 1.02385(18)
H20 H 1.0866 0.8741 1.0682
C21 C 1.1286(4) 0.7142(3) 0.98064(16)
H21 H 1.2545 0.7385 0.9957
C22 C 1.0434(3) 0.5965(3) 0.91443(14)
H22 H 1.1128 0.5417 0.8856
N1 N 0.7265(2) 1.1355(2) 0.26831(11)
N2 N 0.3916(2) 0.56357(19) 0.61227(10)
N3 N 0.3158(3) 0.4763(2) 0.66568(11)
O1 O 0.27149(17) 0.82564(16) 0.37935(8)
O2 O 0.0522(2) 0.6694(2) 0.41800(10)
S1 S 0.32982(9) 0.34067(7) 0.79724(4)
S2 S 0.65363(7) 0.50142(6) 0.72967(3)
H23 H 0.208(3) 0.437(3) 0.6548(14)
loop_
_geom_bond_atom_site_label_1
_geom_bond_atom_site_label_2
_geom_bond_site_symmetry_1
_geom_bond_site_symmetry_2
C1 H1 1_555 1_555
H2 C1 1_555 1_555
H3 C1 1_555 1_555
C2 C1 1_555 1_555
H4 C2 1_555 1_555
H5 C2 1_555 1_555
C3 H6 1_555 1_555
H7 C3 1_555 1_555
H8 C3 1_555 1_555
C4 C3 1_555 1_555
H9 C4 1_555 1_555
H10 C4 1_555 1_555
C5 C6 1_555 1_555
C6 H11 1_555 1_555
C7 C6 1_555 1_555
H12 C7 1_555 1_555
C8 C7 1_555 1_555
C9 C8 1_555 1_555
C10 C5 1_555 1_555
H13 C10 1_555 1_555
C11 C8 1_555 1_555
H14 C11 1_555 1_555
C12 C11 1_555 1_555
C13 C12 1_555 1_555
C14 C12 1_555 1_555
H15 C14 1_555 1_555
C15 N3 1_555 1_555
C16 H16 1_555 1_555
H17 C16 1_555 1_555
C17 C16 1_555 1_555
C18 C17 1_555 1_555
H18 C18 1_555 1_555
C19 C18 1_555 1_555
H19 C19 1_555 1_555
C20 C19 1_555 1_555
H20 C20 1_555 1_555
C21 C20 1_555 1_555
H21 C21 1_555 1_555
C22 C17 1_555 1_555
H22 C22 1_555 1_555
N1 C2 1_555 1_555
N2 C14 1_555 1_555
N3 N2 1_555 1_555
O1 C9 1_555 1_555
O2 C13 1_555 1_555
S1 C15 1_555 1_555
S2 C15 1_555 1_555
H23 N3 1_555 1_555
C4 N1 1_555 1_555
C5 N1 1_555 1_555
C9 C10 1_555 1_555
C13 O1 1_555 1_555
C16 S2 1_555 1_555
C21 C22 1_555 1_555

#END
