
#######################################################################
#
#                 Cambridge Crystallographic Data Centre
#                                CCDC 
#
#######################################################################
#
# If this CIF has been generated from an entry in the Cambridge 
# Structural Database, then it will include bibliographic, chemical, 
# crystal, experimental, refinement or atomic coordinate data resulting 
# from the CCDC's data processing and validation procedures.
#
#######################################################################

data_BUYJEL
_chemical_name_common            
"N,N'-bis(nonafluoropentyl)-2,3,6,7-tetrachloro-1,4,5,8-napthaleneteracarboxylic acid diimide"
_chemical_formula_moiety         'C24 H4 Cl4 F18 N2 O4'
_chemical_name_systematic        
4,5,9,10-Tetrachloro-2,7-bis(2,2,3,3,4,4,5,5,5-nonafluoropentyl)benzo[lmn][3,8]phenanthroline-1,3,6,8(2H,7H)-tetrone
_symmetry_cell_setting           triclinic
_symmetry_space_group_name_H-M   'P -1'
_symmetry_Int_Tables_number      2
_space_group_name_Hall           '-P 1'
loop_
_symmetry_equiv_pos_site_id
_symmetry_equiv_pos_as_xyz
1 x,y,z
2 -x,-y,-z
_cell_length_a                   5.5055(7)
_cell_length_b                   9.8095(11)
_cell_length_c                   12.7073(15)
_cell_angle_alpha                87.786(6)
_cell_angle_beta                 81.088(7)
_cell_angle_gamma                87.289(7)
_cell_volume                     676.888
_exptl_crystal_colour            yellow
_exptl_crystal_description       'thin plate'
_cell_formula_units_Z            1
loop_
_atom_site_label
_atom_site_type_symbol
_atom_site_fract_x
_atom_site_fract_y
_atom_site_fract_z
Cl1 Cl -0.5623(2) 0.30422(10) 1.07931(8)
Cl2 Cl -0.6591(2) 0.05418(11) 1.21696(9)
F1 F 0.1776(6) 0.8632(3) 0.4384(2)
F2 F 0.5011(7) 0.8257(3) 0.5111(2)
F3 F 0.1758(7) 0.9166(3) 0.6005(2)
F4 F 0.2579(6) 0.5958(3) 0.48774(19)
F5 F -0.0797(6) 0.6904(3) 0.5708(2)
F6 F 0.4779(6) 0.6274(2) 0.66590(19)
F7 F 0.1302(5) 0.7135(2) 0.74777(19)
F8 F 0.2420(5) 0.3919(2) 0.63547(19)
F9 F -0.0977(6) 0.4817(2) 0.71892(19)
O1 O -0.1872(7) 0.4166(3) 0.9427(2)
O2 O 0.5274(9) 0.2192(3) 0.7936(3)
N1 N 0.1531(8) 0.3099(3) 0.8572(3)
C1 C 0.2591(13) 0.8255(5) 0.5285(4)
C2 C 0.1660(11) 0.6829(5) 0.5635(4)
C3 C 0.2314(12) 0.6259(5) 0.6716(3)
C4 C 0.1493(11) 0.4822(4) 0.7106(3)
C5 C 0.2342(13) 0.4432(5) 0.8156(4)
C6 C 0.3272(13) 0.2002(5) 0.8435(4)
C7 C 0.2509(10) 0.0680(4) 0.8973(4)
C8 C 0.0306(10) 0.0612(4) 0.9717(3)
C9 C -0.1327(10) 0.1794(4) 0.9870(4)
C10 C -0.0664(11) 0.3102(5) 0.9285(4)
C11 C -0.3459(11) 0.1705(4) 1.0595(4)
C12 C -0.4004(9) 0.0494(5) 1.1196(3)
H1 H 0.182(7) 0.510(4) 0.869(3)
H2 H 0.404(8) 0.444(4) 0.805(3)
Cl1A Cl 0.5623(2) -0.30422(10) 0.92069(8)
Cl2A Cl 0.6591(2) -0.05418(11) 0.78304(9)
F1A F -0.1776(6) -0.8632(3) 1.5616(2)
F2A F -0.5011(7) -0.8257(3) 1.4889(2)
F3A F -0.1758(7) -0.9166(3) 1.3995(2)
F4A F -0.2579(6) -0.5958(3) 1.51226(19)
F5A F 0.0797(6) -0.6904(3) 1.4292(2)
F6A F -0.4779(6) -0.6274(2) 1.33410(19)
F7A F -0.1302(5) -0.7135(2) 1.25223(19)
F8A F -0.2420(5) -0.3919(2) 1.36453(19)
F9A F 0.0977(6) -0.4817(2) 1.28108(19)
O1A O 0.1872(7) -0.4166(3) 1.0573(2)
O2A O -0.5274(9) -0.2192(3) 1.2064(3)
N1A N -0.1531(8) -0.3099(3) 1.1428(3)
C1A C -0.2591(13) -0.8255(5) 1.4715(4)
C2A C -0.1660(11) -0.6829(5) 1.4365(4)
C3A C -0.2314(12) -0.6259(5) 1.3284(3)
C4A C -0.1493(11) -0.4822(4) 1.2894(3)
C5A C -0.2342(13) -0.4432(5) 1.1844(4)
C6A C -0.3272(13) -0.2002(5) 1.1565(4)
C7A C -0.2509(10) -0.0680(4) 1.1027(4)
C8A C -0.0306(10) -0.0612(4) 1.0283(3)
C9A C 0.1327(10) -0.1794(4) 1.0130(4)
C10A C 0.0664(11) -0.3102(5) 1.0715(4)
C11A C 0.3459(11) -0.1705(4) 0.9405(4)
C12A C 0.4004(9) -0.0494(5) 0.8804(3)
H1A H -0.182(7) -0.510(4) 1.131(3)
H2A H -0.404(8) -0.444(4) 1.195(3)
loop_
_geom_bond_atom_site_label_1
_geom_bond_atom_site_label_2
_geom_bond_site_symmetry_1
_geom_bond_site_symmetry_2
Cl1 C11 1_555 1_555
Cl2 C12 1_555 1_555
F1 C1 1_555 1_555
F2 C1 1_555 1_555
F3 C1 1_555 1_555
F4 C2 1_555 1_555
F5 C2 1_555 1_555
F6 C3 1_555 1_555
F7 C3 1_555 1_555
F8 C4 1_555 1_555
F9 C4 1_555 1_555
O1 C10 1_555 1_555
O2 C6 1_555 1_555
N1 C5 1_555 1_555
C1 C2 1_555 1_555
C2 C3 1_555 1_555
C3 C4 1_555 1_555
C4 C5 1_555 1_555
C5 H1 1_555 1_555
C6 N1 1_555 1_555
C7 C6 1_555 1_555
C8 C7 1_555 1_555
C9 C8 1_555 1_555
C10 N1 1_555 1_555
C11 C9 1_555 1_555
C12 C11 1_555 1_555
H2 C5 1_555 1_555
Cl1A C11A 1_555 1_555
Cl2A C12A 1_555 1_555
F1A C1A 1_555 1_555
F2A C1A 1_555 1_555
F3A C1A 1_555 1_555
F4A C2A 1_555 1_555
F5A C2A 1_555 1_555
F6A C3A 1_555 1_555
F7A C3A 1_555 1_555
F8A C4A 1_555 1_555
F9A C4A 1_555 1_555
O1A C10A 1_555 1_555
O2A C6A 1_555 1_555
N1A C5A 1_555 1_555
C1A C2A 1_555 1_555
C2A C3A 1_555 1_555
C3A C4A 1_555 1_555
C4A C5A 1_555 1_555
C5A H1A 1_555 1_555
C6A N1A 1_555 1_555
C7A C12 1_555 1_555
C8A C8 1_555 1_555
C9A C8A 1_555 1_555
C10A N1A 1_555 1_555
C11A C9A 1_555 1_555
C12A C7 1_555 1_555
H2A C5A 1_555 1_555
C9 C10 1_555 1_555
C6A C7A 1_555 1_555
C7A C8A 1_555 1_555
C9A C10A 1_555 1_555
C11A C12A 1_555 1_555

#END
