
#######################################################################
#
#                 Cambridge Crystallographic Data Centre
#                                CCDC 
#
#######################################################################
#
# If this CIF has been generated from an entry in the Cambridge 
# Structural Database, then it will include bibliographic, chemical, 
# crystal, experimental, refinement or atomic coordinate data resulting 
# from the CCDC's data processing and validation procedures.
#
#######################################################################

data_BUYKUC
_chemical_formula_moiety         'C15 H12 O3 S2'
_chemical_name_systematic        
5-(3-Oxo-1,3-bis(2-thienyl)propyl)furan-2(5H)-one
_symmetry_cell_setting           monoclinic
_symmetry_space_group_name_H-M   'P 21'
_symmetry_Int_Tables_number      4
_space_group_name_Hall           'P 2yb'
loop_
_symmetry_equiv_pos_site_id
_symmetry_equiv_pos_as_xyz
1 x,y,z
2 -x,1/2+y,-z
_cell_length_a                   10.0911(4)
_cell_length_b                   6.4892(2)
_cell_length_c                   11.0064(4)
_cell_angle_alpha                90
_cell_angle_beta                 91.959(2)
_cell_angle_gamma                90
_cell_volume                     720.313
_exptl_crystal_colour            colorless
_exptl_crystal_description       plate
_cell_formula_units_Z            2
loop_
_atom_site_label
_atom_site_type_symbol
_atom_site_fract_x
_atom_site_fract_y
_atom_site_fract_z
S1 S 0.94097(9) 0.61061(13) 0.33143(8)
C1 C 1.0246(3) 0.3849(7) 0.3509(3)
H1 H 1.1099 0.3750 0.3896
C2 C 0.9566(3) 0.2207(5) 0.3055(3)
H2 H 0.9885 0.0830 0.3087
C3 C 0.8329(3) 0.2786(5) 0.2531(2)
H3 H 0.7722 0.1832 0.2167
C4 C 0.8089(3) 0.4860(4) 0.2595(2)
C5 C 0.6952(3) 0.6063(4) 0.2161(2)
O1 O 0.6908(2) 0.7936(3) 0.22794(19)
C6 C 0.5833(3) 0.4903(4) 0.1506(3)
H4 H 0.5735 0.3534 0.1890
H5 H 0.6069 0.4679 0.0651
C7 C 0.4501(2) 0.6038(4) 0.1527(2)
H6 H 0.4677 0.7491 0.1276
C8 C 0.3552(3) 0.5125(4) 0.0559(2)
H7 H 0.3937 0.5357 -0.0255
O2 O 0.1725(2) 0.0690(3) 0.0748(2)
O3 O 0.34057(19) 0.2929(3) 0.07335(17)
C9 C 0.2165(3) 0.5902(4) 0.0512(2)
H8 H 0.1921 0.7313 0.0445
C10 C 0.1331(3) 0.4375(5) 0.0576(2)
H9 H 0.0392 0.4488 0.0547
C11 C 0.2086(3) 0.2451(4) 0.0701(3)
S2 S 0.41169(9) 0.41856(17) 0.38004(8)
C12 C 0.3937(3) 0.6141(5) 0.2774(2)
C13 C 0.3244(3) 0.7817(5) 0.3275(3)
H10 H 0.3032 0.9062 0.2858
C14 C 0.2909(4) 0.7368(6) 0.4491(3)
H11 H 0.2439 0.8300 0.4984
C15 C 0.3317(3) 0.5516(7) 0.4877(3)
H12 H 0.3174 0.5001 0.5669
loop_
_geom_bond_atom_site_label_1
_geom_bond_atom_site_label_2
_geom_bond_site_symmetry_1
_geom_bond_site_symmetry_2
S1 C1 1_555 1_555
C1 H1 1_555 1_555
C2 C1 1_555 1_555
H2 C2 1_555 1_555
C3 C2 1_555 1_555
H3 C3 1_555 1_555
C4 S1 1_555 1_555
C5 C4 1_555 1_555
O1 C5 1_555 1_555
C6 C5 1_555 1_555
H4 C6 1_555 1_555
H5 C6 1_555 1_555
C7 C6 1_555 1_555
H6 C7 1_555 1_555
C8 C7 1_555 1_555
H7 C8 1_555 1_555
O2 C11 1_555 1_555
O3 C8 1_555 1_555
C9 C8 1_555 1_555
H8 C9 1_555 1_555
C10 C9 1_555 1_555
H9 C10 1_555 1_555
C11 O3 1_555 1_555
S2 C12 1_555 1_555
C12 C7 1_555 1_555
C13 C12 1_555 1_555
H10 C13 1_555 1_555
C14 C13 1_555 1_555
H11 C14 1_555 1_555
C15 S2 1_555 1_555
H12 C15 1_555 1_555
C3 C4 1_555 1_555
C10 C11 1_555 1_555
C14 C15 1_555 1_555

#END
