
#######################################################################
#
#                 Cambridge Crystallographic Data Centre
#                                CCDC 
#
#######################################################################
#
# If this CIF has been generated from an entry in the Cambridge 
# Structural Database, then it will include bibliographic, chemical, 
# crystal, experimental, refinement or atomic coordinate data resulting 
# from the CCDC's data processing and validation procedures.
#
#######################################################################

data_BUZKEO
_chemical_formula_moiety         'C15 H22 O5,H2 O1'
_chemical_name_systematic        
'5-(3,8-dihydroxy-1,5-dimethyl-6-oxabicyclo[3.2.1]oct-8-yl)-3-methylpenta-2,4-dienoic acid hydrate'
_symmetry_cell_setting           tetragonal
_symmetry_space_group_name_H-M   'P 43 21 2'
_symmetry_Int_Tables_number      96
_space_group_name_Hall           'P 4nw 2abw'
loop_
_symmetry_equiv_pos_site_id
_symmetry_equiv_pos_as_xyz
1 x,y,z
2 1/2-y,1/2+x,3/4+z
3 -x,-y,1/2+z
4 1/2+y,1/2-x,1/4+z
5 1/2+x,1/2-y,1/4-z
6 1/2-x,1/2+y,3/4-z
7 y,x,-z
8 -y,-x,1/2-z
_cell_length_a                   7.56684(18)
_cell_length_b                   7.56684(18)
_cell_length_c                   54.2674(14)
_cell_angle_alpha                90
_cell_angle_beta                 90
_cell_angle_gamma                90
_cell_volume                     3107.19
_exptl_crystal_colour            yellow
_exptl_crystal_description       plate
_cell_formula_units_Z            8
loop_
_atom_site_label
_atom_site_type_symbol
_atom_site_fract_x
_atom_site_fract_y
_atom_site_fract_z
O1 O 0.25702(16) 0.94010(16) 0.92137(2)
H1 H 0.3352 0.8614 0.9210
O2 O -0.45695(16) 0.71798(17) 0.91977(2)
H2 H -0.4381 0.6535 0.9321
O3 O 0.00219(16) 0.89260(17) 0.88495(2)
O4 O 0.28268(18) 0.49517(19) 1.03810(2)
H3 H 0.3069 0.4771 1.0530
O5 O 0.53065(18) 0.65403(17) 1.03971(2)
C1 C -0.0494(2) 1.0130(2) 0.92506(3)
C2 C 0.2206(2) 0.6605(2) 0.98948(3)
C3 C -0.2955(2) 0.8007(2) 0.91234(3)
H4 H -0.3189 0.8623 0.8964
C4 C -0.0076(3) 1.1689(3) 0.94171(3)
H5 H -0.0175 1.1323 0.9590
H6 H -0.0913 1.2649 0.9384
H7 H 0.1130 1.2100 0.9385
C5 C -0.2352(2) 0.9407(2) 0.93076(3)
H8 H -0.2354 0.8888 0.9475
H9 H -0.3207 1.0398 0.9306
C6 C 0.1622(2) 0.6225(2) 0.89384(3)
H10 H 0.2731 0.6841 0.8902
H11 H 0.1176 0.5662 0.8788
H12 H 0.1834 0.5321 0.9064
C7 C 0.0276(2) 0.7536(2) 0.90323(3)
C8 C 0.0895(2) 0.7593(2) 0.94995(3)
H13 H -0.0145 0.6955 0.9541
C9 C 0.3684(2) 0.6650(2) 1.00316(3)
H14 H 0.4681 0.7159 0.9952
C10 C -0.0344(2) 1.0572(2) 0.89748(3)
H15 H -0.1463 1.1092 0.8914
H16 H 0.0623 1.1429 0.8946
C11 C -0.1508(2) 0.6640(2) 0.90765(3)
H17 H -0.1825 0.5919 0.8931
H18 H -0.1416 0.5840 0.9220
C12 C 0.4007(2) 0.6036(2) 1.02851(3)
C13 C 0.2248(2) 0.7524(2) 0.96561(3)
H19 H 0.3310 0.8107 0.9611
C14 C 0.0491(3) 0.5762(3) 0.99687(3)
H20 H -0.0455 0.6645 0.9963
H21 H 0.0594 0.5294 1.0137
H22 H 0.0215 0.4795 0.9855
C15 C 0.0899(2) 0.8611(2) 0.92612(3)
O6 O 0.4308(2) 0.27337(18) 0.91478(2)
H23 H 0.3747 0.1745 0.9134
H24 H 0.4566 0.3172 0.9006
loop_
_geom_bond_atom_site_label_1
_geom_bond_atom_site_label_2
_geom_bond_site_symmetry_1
_geom_bond_site_symmetry_2
O1 H1 1_555 1_555
O2 H2 1_555 1_555
O3 C7 1_555 1_555
O4 H3 1_555 1_555
O5 C12 1_555 1_555
C1 C4 1_555 1_555
C2 C9 1_555 1_555
C3 O2 1_555 1_555
H4 C3 1_555 1_555
C4 H5 1_555 1_555
H6 C4 1_555 1_555
H7 C4 1_555 1_555
C5 C1 1_555 1_555
H8 C5 1_555 1_555
H9 C5 1_555 1_555
C6 H10 1_555 1_555
H11 C6 1_555 1_555
H12 C6 1_555 1_555
C7 C6 1_555 1_555
C8 H13 1_555 1_555
C9 H14 1_555 1_555
C10 O3 1_555 1_555
H15 C10 1_555 1_555
H16 C10 1_555 1_555
C11 C3 1_555 1_555
H17 C11 1_555 1_555
H18 C11 1_555 1_555
C12 O4 1_555 1_555
C13 C2 1_555 1_555
H19 C13 1_555 1_555
C14 C2 1_555 1_555
H20 C14 1_555 1_555
H21 C14 1_555 1_555
H22 C14 1_555 1_555
C15 O1 1_555 1_555
O6 H23 1_555 1_555
H24 O6 1_555 1_555
C1 C10 1_555 1_555
C1 C15 1_555 1_555
C3 C5 1_555 1_555
C7 C11 1_555 1_555
C7 C15 1_555 1_555
C8 C13 1_555 1_555
C8 C15 1_555 1_555
C9 C12 1_555 1_555

#END
