
#######################################################################
#
#                 Cambridge Crystallographic Data Centre
#                                CCDC 
#
#######################################################################
#
# If this CIF has been generated from an entry in the Cambridge 
# Structural Database, then it will include bibliographic, chemical, 
# crystal, experimental, refinement or atomic coordinate data resulting 
# from the CCDC's data processing and validation procedures.
#
#######################################################################

data_BZTANO10
_chemical_formula_moiety         'C14 H17 N1 O1 S1'
_chemical_name_systematic        
7-Benzyl-3-thia-7-azabicyclo(3.3.1)nonan-9-one
_chemical_properties_biological  'antiarrhythmic activity'
_symmetry_cell_setting           triclinic
_symmetry_space_group_name_H-M   'P -1'
_symmetry_Int_Tables_number      2
_space_group_name_Hall           '-P 1'
loop_
_symmetry_equiv_pos_site_id
_symmetry_equiv_pos_as_xyz
1 x,y,z
2 -x,-y,-z
_cell_length_a                   11.105(7)
_cell_length_b                   12.033(6)
_cell_length_c                   9.899(4)
_cell_angle_alpha                104.64(4)
_cell_angle_beta                 85.40(5)
_cell_angle_gamma                92.39(4)
_cell_volume                     1275.38
_chemical_melting_point          91-2deg.C
_cell_formula_units_Z            4
loop_
_atom_site_label
_atom_site_type_symbol
_atom_site_fract_x
_atom_site_fract_y
_atom_site_fract_z
C1 C 1.0172(3) 0.3324(3) 0.8292(3)
C2 C 1.0075(3) 0.2031(3) 0.8305(3)
S1 S 1.0259(1) 0.1095(1) 0.6554(1)
C3 C 0.9107(3) 0.1701(3) 0.5773(4)
C4 C 0.9274(3) 0.3016(3) 0.5964(3)
C5 C 0.8146(3) 0.3648(3) 0.6755(3)
N1 N 0.7991(2) 0.3454(2) 0.8155(3)
C6 C 0.9006(3) 0.3951(3) 0.8972(3)
C7 C 1.0330(3) 0.3476(3) 0.6818(3)
O1 O 1.1187(2) 0.3992(2) 0.6396(3)
C8 C 0.6830(3) 0.3857(3) 0.8890(4)
C9 C 0.5775(3) 0.3170(3) 0.8199(3)
C10 C 0.5841(3) 0.1987(3) 0.7664(4)
C11 C 0.4874(4) 0.1360(4) 0.7022(5)
C12 C 0.3828(4) 0.1908(5) 0.6909(4)
C13 C 0.3742(4) 0.3082(5) 0.7453(5)
C14 C 0.4711(3) 0.3707(4) 0.8077(4)
H1 H 1.087(34) 0.368(3) 0.881(4)
H2 H 1.068(4) 0.187(4) 0.873(5)
H3 H 0.922(5) 0.186(4) 0.873(5)
H4 H 0.837(3) 0.148(3) 0.617(4)
H5 H 0.922(4) 0.126(3) 0.478(5)
H6 H 0.939(3) 0.320(3) 0.505(4)
H7 H 0.822(3) 0.445(3) 0.682(4)
H8 H 0.737(4) 0.331(3) 0.625(4)
H9 H 0.916(3) 0.474(3) 0.896(4)
H10 H 0.881(3) 0.380(3) 0.994(4)
H11 H 0.676(4) 0.468(4) 0.891(4)
H12 H 0.683(4) 0.374(3) 0.984(5)
H13 H 0.661(4) 0.159(4) 0.777(5)
H14 H 0.502(4) 0.058(4) 0.664(5)
H15 H 0.318(5) 0.148(4) 0.633(6)
H16 H 0.299(4) 0.342(4) 0.749(5)
H17 H 0.466(4) 0.451(4) 0.833(5)
C15 C 0.3579(3) 0.2086(3) 0.0804(3)
C16 C 0.3569(3) 0.0809(3) 0.0811(4)
S2 S 0.2164(1) 0.0344(1) 0.1586(1)
C17 C 0.2198(4) 0.1400(4) 0.3238(4)
C18 C 0.2301(3) 0.2644(3) 0.3072(3)
C19 C 0.3411(3) 0.3290(3) 0.3738(4)
N2 N 0.4523(2) 0.2740(2) 0.3037(3)
C20 C 0.4639(3) 0.2762(3) 0.1566(3)
C21 C 0.2435(3) 0.2661(3) 0.1543(3)
O2 O 0.1768(2) 0.3174(2) 0.1007(3)
C22 C 0.5575(3) 0.3289(3) 0.3770(4)
C23 C 0.6736(3) 0.2689(3) 0.3156(3)
C24 C 0.6820(3) 0.1504(3) 0.2922(4)
C25 C 0.7861(4) 0.0957(4) 0.2330(5)
C26 C 0.8860(4) 0.1588(5) 0.1970(4)
C27 C 0.8802(4) 0.2749(5) 0.2221(4)
C28 C 0.7744(3) 0.3311(3) 0.2809(4)
H18 H 0.361(3) 0.220(3) -0.006(4)
H19 H 0.365(3) 0.04(3) -0.014(4)
H20 H 0.427(3) 0.070(3) 0.136(4)
H21 H 0.150(4) 0.125(3) 0.375(4)
H22 H 0.288(4) 0.120(4) 0.364(5)
H23 H 0.157(3) 0.308(3) 0.347(4)
H24 H 0.339(5) 0.410(5) 0.364(5)
H25 H 0.341(5) 0.327(4) 0.467(6)
H26 H 0.469(4) 0.360(4) 0.145(5)
H27 H 0.532(4) 0.234(3) 0.114(4)
H28 H 0.561(4) 0.411(4) 0.370(5)
H29 H 0.540(3) 0.321(3) 0.476(4)
H30 H 0.612(5) 0.110(5) 0.327(6)
H31 H 0.784(5) 0.013(5) 0.215(6)
H32 H 0.950(5) 0.120(5) 0.154(6)
H33 H 0.946(5) 0.319(5) 0.201(6)
H34 H 0.773(3) 0.413(4) 0.297(4)
loop_
_geom_bond_atom_site_label_1
_geom_bond_atom_site_label_2
_geom_bond_site_symmetry_1
_geom_bond_site_symmetry_2
C1 C2 1_555 1_555
C2 S1 1_555 1_555
S1 C3 1_555 1_555
C3 C4 1_555 1_555
C4 C5 1_555 1_555
C5 N1 1_555 1_555
N1 C6 1_555 1_555
C6 C1 1_555 1_555
C7 C1 1_555 1_555
O1 C7 1_555 1_555
C8 N1 1_555 1_555
C9 C8 1_555 1_555
C10 C9 1_555 1_555
C11 C10 1_555 1_555
C12 C11 1_555 1_555
C13 C12 1_555 1_555
C14 C9 1_555 1_555
H1 C1 1_555 1_555
H2 C2 1_555 1_555
H3 C2 1_555 1_555
H4 C3 1_555 1_555
H5 C3 1_555 1_555
H6 C4 1_555 1_555
H7 C5 1_555 1_555
H8 C5 1_555 1_555
H9 C6 1_555 1_555
H10 C6 1_555 1_555
H11 C8 1_555 1_555
H12 C8 1_555 1_555
H13 C10 1_555 1_555
H14 C11 1_555 1_555
H15 C12 1_555 1_555
H16 C13 1_555 1_555
H17 C14 1_555 1_555
C15 C16 1_555 1_555
C16 S2 1_555 1_555
S2 C17 1_555 1_555
C17 C18 1_555 1_555
C18 C19 1_555 1_555
C19 N2 1_555 1_555
N2 C20 1_555 1_555
C20 C15 1_555 1_555
C21 C15 1_555 1_555
O2 C21 1_555 1_555
C22 N2 1_555 1_555
C23 C22 1_555 1_555
C24 C23 1_555 1_555
C25 C24 1_555 1_555
C26 C25 1_555 1_555
C27 C26 1_555 1_555
C28 C23 1_555 1_555
H18 C15 1_555 1_555
H19 C16 1_555 1_555
H20 C16 1_555 1_555
H21 C17 1_555 1_555
H22 C17 1_555 1_555
H23 C18 1_555 1_555
H24 C19 1_555 1_555
H25 C19 1_555 1_555
H26 C20 1_555 1_555
H27 C20 1_555 1_555
H28 C22 1_555 1_555
H29 C22 1_555 1_555
H30 C24 1_555 1_555
H31 C25 1_555 1_555
H32 C26 1_555 1_555
H33 C27 1_555 1_555
H34 C28 1_555 1_555
C4 C7 1_555 1_555
C13 C14 1_555 1_555
C18 C21 1_555 1_555
C27 C28 1_555 1_555

#END
