
#######################################################################
#
#                 Cambridge Crystallographic Data Centre
#                                CCDC 
#
#######################################################################
#
# If this CIF has been generated from an entry in the Cambridge 
# Structural Database, then it will include bibliographic, chemical, 
# crystal, experimental, refinement or atomic coordinate data resulting 
# from the CCDC's data processing and validation procedures.
#
#######################################################################

data_BZTZAC01
_chemical_formula_moiety         'C8 H7 N3 O2'
_chemical_name_systematic        '1H-Benzotriazol-1-ylacetic acid'
_symmetry_cell_setting           monoclinic
_symmetry_space_group_name_H-M   'P 21/c'
_symmetry_Int_Tables_number      14
_space_group_name_Hall           '-P 2ybc'
loop_
_symmetry_equiv_pos_site_id
_symmetry_equiv_pos_as_xyz
1 x,y,z
2 -x,1/2+y,1/2-z
3 -x,-y,-z
4 x,1/2-y,1/2+z
_cell_length_a                   13.234(2)
_cell_length_b                   4.4889(7)
_cell_length_c                   15.142(2)
_cell_angle_alpha                90
_cell_angle_beta                 113.135(3)
_cell_angle_gamma                90
_cell_volume                     827.189
_cell_formula_units_Z            4
loop_
_atom_site_label
_atom_site_type_symbol
_atom_site_fract_x
_atom_site_fract_y
_atom_site_fract_z
O1 O 0.39231(10) 0.5275(3) 0.16463(9)
O2 O 0.26751(15) 0.2779(4) 0.19909(10)
N1 N 0.34289(11) 0.5060(3) 0.38224(9)
N2 N 0.38836(12) 0.3101(4) 0.45424(9)
N3 N 0.32632(12) 0.2965(4) 0.50331(10)
C1 C 0.23907(14) 0.4873(4) 0.46255(11)
C2 C 0.15091(16) 0.5552(5) 0.48832(15)
H1 H 0.1442 0.4699 0.5418
C3 C 0.07567(18) 0.7523(5) 0.43111(17)
H2 H 0.0155 0.8006 0.4455
C4 C 0.08574(16) 0.8857(5) 0.35093(16)
H3 H 0.0321 1.0196 0.3141
C5 C 0.17192(15) 0.8249(4) 0.32535(13)
H4 H 0.1788 0.9136 0.2725
C6 C 0.24864(13) 0.6217(4) 0.38365(11)
C7 C 0.39868(14) 0.5775(5) 0.31981(11)
H5 H 0.4739 0.5066 0.3489
H6 H 0.4009 0.7922 0.3136
C8 C 0.34422(15) 0.4428(4) 0.22160(12)
H7 H 0.360(2) 0.419(6) 0.1049(19)
loop_
_geom_bond_atom_site_label_1
_geom_bond_atom_site_label_2
_geom_bond_site_symmetry_1
_geom_bond_site_symmetry_2
O1 C8 1_555 1_555
O2 C8 1_555 1_555
N1 N2 1_555 1_555
N2 N3 1_555 1_555
N3 C1 1_555 1_555
C1 C2 1_555 1_555
C2 H1 1_555 1_555
C3 C2 1_555 1_555
H2 C3 1_555 1_555
C4 C3 1_555 1_555
H3 C4 1_555 1_555
C5 C4 1_555 1_555
H4 C5 1_555 1_555
C6 N1 1_555 1_555
C7 N1 1_555 1_555
H5 C7 1_555 1_555
H6 C7 1_555 1_555
C8 C7 1_555 1_555
H7 O1 1_555 1_555
C1 C6 1_555 1_555
C5 C6 1_555 1_555

#END
