
#######################################################################
#
#                 Cambridge Crystallographic Data Centre
#                                CCDC 
#
#######################################################################
#
# If this CIF has been generated from an entry in the Cambridge 
# Structural Database, then it will include bibliographic, chemical, 
# crystal, experimental, refinement or atomic coordinate data resulting 
# from the CCDC's data processing and validation procedures.
#
#######################################################################

data_CABFUJ
_chemical_formula_moiety         'C48 H48 N32 O16,2(C14 H15 N3 O3 S1),29(H2 O1)'
_chemical_name_systematic        
'cucurbit(8)uril bis(4-(2-(4-(dimethylamino)phenyl)diazeniumyl)benzenesulfonate) hydrate'
_symmetry_cell_setting           monoclinic
_symmetry_space_group_name_H-M   'P 21/c'
_symmetry_Int_Tables_number      14
_space_group_name_Hall           '-P 2ybc'
loop_
_symmetry_equiv_pos_site_id
_symmetry_equiv_pos_as_xyz
1 x,y,z
2 -x,1/2+y,1/2-z
3 -x,-y,-z
4 x,1/2-y,1/2+z
_cell_length_a                   15.233(6)
_cell_length_b                   19.754(8)
_cell_length_c                   21.392(6)
_cell_angle_alpha                90
_cell_angle_beta                 123.196(19)
_cell_angle_gamma                90
_cell_volume                     5386.6
_exptl_crystal_colour            'dark red'
_exptl_crystal_description       block
_cell_formula_units_Z            2
loop_
_atom_site_label
_atom_site_type_symbol
_atom_site_fract_x
_atom_site_fract_y
_atom_site_fract_z
C1 C 0.7381(10) 0.1270(6) 0.5308(9)
C2 C 0.6708(10) 0.1492(5) 0.4586(9)
H1 H 0.6661 0.1259 0.4181
C3 C 0.6083(8) 0.2075(6) 0.4455(7)
H2 H 0.5609 0.2232 0.3959
C4 C 0.6169(8) 0.2405(5) 0.5039(6)
C5 C 0.6832(9) 0.2182(6) 0.5760(7)
H3 H 0.6854 0.2410 0.6159
C6 C 0.7482(12) 0.1614(6) 0.5911(9)
H4 H 0.7974 0.1472 0.6409
C7 C 0.8636(9) -0.0144(5) 0.5074(8)
C8 C 0.8559(8) -0.0399(6) 0.4443(8)
H5 H 0.8073 -0.0197 0.3973
C9 C 0.9145(9) -0.0922(6) 0.4467(7)
H6 H 0.9090 -0.1066 0.4023
C10 C 0.9846(9) -0.1260(6) 0.5155(8)
C11 C 0.9890(17) -0.1010(8) 0.5791(11)
H7 H 1.0348 -0.1223 0.6259
C12 C 0.9309(15) -0.0482(7) 0.5758(11)
H8 H 0.9351 -0.0336 0.6197
C13 C 1.1214(19) -0.2081(9) 0.5904(12)
H9 H 1.0859 -0.2296 0.6120
H10 H 1.1694 -0.1731 0.6245
H11 H 1.1613 -0.2422 0.5827
C14 C 1.0356(9) -0.2050(7) 0.4529(8)
H12 H 0.9625 -0.2174 0.4160
H13 H 1.0801 -0.2453 0.4666
H14 H 1.0586 -0.1709 0.4315
N1 N 0.8025(10) 0.0715(5) 0.5473(7)
H15 H 0.7829 0.0405 0.5682
N2 N 0.8051(7) 0.0411(5) 0.4953(7)
N3 N 1.0441(8) -0.1775(5) 0.5193(7)
O1 O 0.4457(6) 0.3065(4) 0.4184(5)
O2 O 0.5348(7) 0.3246(5) 0.5509(5)
O3 O 0.6063(7) 0.3687(4) 0.4835(7)
S1 S 0.5445(2) 0.31534(12) 0.48745(18)
C15 C 0.1843(8) 0.3504(5) -0.2090(6)
H16 H 0.1944 0.3337 -0.2488
C16 C 0.2754(8) 0.3282(5) -0.1309(6)
H17 H 0.3286 0.3003 -0.1329
C17 C 0.2672(9) 0.4468(5) -0.1370(7)
C18 C 0.1167(7) 0.2833(5) -0.1572(6)
C19 C 0.4192(7) 0.3985(5) -0.0226(5)
H18 H 0.4679 0.3646 -0.0215
H19 H 0.4474 0.4439 -0.0214
C20 C 0.2736(8) 0.2522(5) -0.0359(5)
H20 H 0.2268 0.2160 -0.0385
H21 H 0.3362 0.2302 -0.0299
C21 C 0.4099(7) 0.3258(5) 0.0694(5)
H22 H 0.4644 0.2943 0.0737
C22 C 0.4303(8) 0.3414(5) 0.1472(6)
H23 H 0.4996 0.3237 0.1889
C23 C 0.4308(7) 0.4413(5) 0.0894(6)
C24 C 0.2742(7) 0.2796(5) 0.0771(6)
C25 C 0.4699(8) 0.4504(6) 0.2154(6)
H24 H 0.4880 0.4969 0.2090
H25 H 0.5355 0.4274 0.2537
C26 C 0.3422(8) 0.2932(5) 0.2089(6)
H26 H 0.4129 0.2770 0.2483
H27 H 0.2922 0.2557 0.1969
C27 C 0.3907(7) 0.4019(5) 0.2846(5)
H28 H 0.4607 0.3821 0.3224
C28 C 0.3395(7) 0.4373(4) 0.3211(6)
H29 H 0.3873 0.4378 0.3768
C29 C 0.3591(7) 0.5146(5) 0.2464(6)
C30 C 0.2371(7) 0.3439(4) 0.2522(5)
C31 C 0.3116(7) 0.5627(5) 0.3294(6)
H30 H 0.3324 0.6046 0.3154
H31 H 0.3618 0.5555 0.3837
C32 C 0.1878(8) 0.4025(4) 0.3314(6)
H32 H 0.2373 0.3997 0.3863
H33 H 0.1400 0.3631 0.3154
C33 C 0.1690(8) 0.5281(5) 0.3513(6)
H34 H 0.2224 0.5219 0.4059
C34 C 0.0714(7) 0.5670(4) 0.3356(6)
H35 H 0.0698 0.5710 0.3816
C35 C 0.1574(8) 0.6325(5) 0.2951(6)
C36 C 0.0201(7) 0.4651(4) 0.2711(6)
C37 C 0.0041(8) 0.6868(5) 0.2894(6)
H36 H -0.0133 0.6892 0.3277
H37 H 0.0367 0.7304 0.2902
C38 C -0.1198(7) 0.5301(5) 0.2646(6)
H38 H -0.1518 0.4844 0.2522
H39 H -0.1142 0.5452 0.3107
N4 N 0.3180(7) 0.3912(4) -0.0919(5)
N5 N 0.1873(7) 0.4246(4) -0.2052(5)
N6 N 0.2193(6) 0.2898(4) -0.1058(5)
N7 N 0.0913(7) 0.3216(4) -0.2173(5)
N8 N 0.4250(6) 0.4152(4) 0.1471(5)
N9 N 0.4169(6) 0.3903(4) 0.0430(5)
N10 N 0.3421(6) 0.3090(4) 0.1444(4)
N11 N 0.3065(6) 0.2937(4) 0.0291(4)
N12 N 0.3188(6) 0.5066(4) 0.2896(5)
N13 N 0.3981(6) 0.4540(4) 0.2419(5)
N14 N 0.2462(6) 0.3986(4) 0.2967(4)
N15 N 0.3138(6) 0.3503(4) 0.2388(5)
N16 N 0.0802(6) 0.6327(4) 0.3094(5)
N17 N 0.2069(6) 0.5716(4) 0.3144(5)
N18 N -0.0153(6) 0.5256(4) 0.2788(4)
N19 N 0.1260(6) 0.4649(3) 0.3128(5)
O4 O 0.2900(6) 0.5067(3) -0.1182(4)
O5 O 0.0547(5) 0.2480(4) -0.1518(4)
O6 O 0.4472(5) 0.5016(3) 0.0828(4)
O7 O 0.1963(5) 0.2462(3) 0.0598(4)
O8 O 0.3597(7) 0.5679(4) 0.2170(5)
O9 O 0.1716(5) 0.2991(3) 0.2308(4)
O10 O 0.1777(6) 0.6805(4) 0.2677(5)
O11 O -0.0354(6) 0.4179(4) 0.2320(5)
C15B C -0.1843(8) 0.6496(5) 0.2090(6)
H16B H -0.1944 0.6663 0.2488
C16B C -0.2754(8) 0.6718(5) 0.1309(6)
H17B H -0.3286 0.6997 0.1329
C17B C -0.2672(9) 0.5532(5) 0.1370(7)
C18B C -0.1167(7) 0.7167(5) 0.1572(6)
C19B C -0.4192(7) 0.6015(5) 0.0226(5)
H18B H -0.4679 0.6354 0.0215
H19B H -0.4474 0.5561 0.0214
C20B C -0.2736(8) 0.7478(5) 0.0359(5)
H20B H -0.2268 0.7840 0.0385
H21B H -0.3362 0.7698 0.0299
C21B C -0.4099(7) 0.6742(5) -0.0694(5)
H22B H -0.4644 0.7057 -0.0737
C22B C -0.4303(8) 0.6586(5) -0.1472(6)
H23B H -0.4996 0.6763 -0.1889
C23B C -0.4308(7) 0.5587(5) -0.0894(6)
C24B C -0.2742(7) 0.7204(5) -0.0771(6)
C25B C -0.4699(8) 0.5496(6) -0.2154(6)
H24B H -0.4880 0.5031 -0.2090
H25B H -0.5355 0.5726 -0.2537
C26B C -0.3422(8) 0.7068(5) -0.2089(6)
H26B H -0.4129 0.7230 -0.2483
H27B H -0.2922 0.7443 -0.1969
C27B C -0.3907(7) 0.5981(5) -0.2846(5)
H28B H -0.4607 0.6179 -0.3224
C28B C -0.3395(7) 0.5627(4) -0.3211(6)
H29B H -0.3873 0.5622 -0.3768
C29B C -0.3591(7) 0.4854(5) -0.2464(6)
C30B C -0.2371(7) 0.6561(4) -0.2522(5)
C31B C -0.3116(7) 0.4373(5) -0.3294(6)
H30B H -0.3324 0.3954 -0.3154
H31B H -0.3618 0.4445 -0.3837
C32B C -0.1878(8) 0.5975(4) -0.3314(6)
H32B H -0.2373 0.6003 -0.3863
H33B H -0.1400 0.6369 -0.3154
C33B C -0.1690(8) 0.4719(5) -0.3513(6)
H34B H -0.2224 0.4781 -0.4059
C34B C -0.0714(7) 0.4330(4) -0.3356(6)
H35B H -0.0698 0.4290 -0.3816
C35B C -0.1574(8) 0.3675(5) -0.2951(6)
C36B C -0.0201(7) 0.5349(4) -0.2711(6)
C37B C -0.0041(8) 0.3132(5) -0.2894(6)
H36B H 0.0133 0.3108 -0.3277
H37B H -0.0367 0.2696 -0.2902
C38B C 0.1198(7) 0.4699(5) -0.2646(6)
H38B H 0.1518 0.5156 -0.2522
H39B H 0.1142 0.4548 -0.3107
N4B N -0.3180(7) 0.6088(4) 0.0919(5)
N5B N -0.1873(7) 0.5754(4) 0.2052(5)
N6B N -0.2193(6) 0.7102(4) 0.1058(5)
N7B N -0.0913(7) 0.6784(4) 0.2173(5)
N8B N -0.4250(6) 0.5848(4) -0.1471(5)
N9B N -0.4169(6) 0.6097(4) -0.0430(5)
N10B N -0.3421(6) 0.6910(4) -0.1444(4)
N11B N -0.3065(6) 0.7063(4) -0.0291(4)
N12B N -0.3188(6) 0.4934(4) -0.2896(5)
N13B N -0.3981(6) 0.5460(4) -0.2419(5)
N14B N -0.2462(6) 0.6014(4) -0.2967(4)
N15B N -0.3138(6) 0.6497(4) -0.2388(5)
N16B N -0.0802(6) 0.3673(4) -0.3094(5)
N17B N -0.2069(6) 0.4284(4) -0.3144(5)
N18B N 0.0153(6) 0.4744(4) -0.2788(4)
N19B N -0.1260(6) 0.5351(3) -0.3128(5)
O4B O -0.2900(6) 0.4933(3) 0.1182(4)
O5B O -0.0547(5) 0.7520(4) 0.1518(4)
O6B O -0.4472(5) 0.4984(3) -0.0828(4)
O7B O -0.1963(5) 0.7538(3) -0.0598(4)
O8B O -0.3597(7) 0.4321(4) -0.2170(5)
O9B O -0.1716(5) 0.7009(3) -0.2308(4)
O10B O -0.1777(6) 0.3195(4) -0.2677(5)
O11B O 0.0354(6) 0.5821(4) -0.2320(5)
O12 O 0.5807(7) 0.6041(5) 0.1900(5)
O13 O 0.1339(7) 0.1373(4) 0.1119(5)
O14 O 0.5701(9) 0.4993(5) 0.4787(7)
O15 O 0.3456(7) 0.5953(6) 0.8037(6)
O16 O 0.0621(9) 0.5799(6) 0.4974(7)
O17 O 0.7156(8) 0.5274(6) 0.3200(7)
O18 O 0.4598(9) 0.6855(5) 0.2321(6)
O19 O 0.156(2) 0.8225(10) 0.2328(13)
O21 O 0.4258(11) 0.3303(7) 0.6144(7)
O22 O 0.1079(14) 0.4565(8) 0.4511(9)
O23 O 0.3065(14) 0.4416(8) 0.5620(11)
O25 O 0.649(2) 0.319(2) 0.346(4)
O26 O 0.0296(13) 0.1731(9) 0.9376(10)
O28 O 0.7749(13) 0.3409(8) 0.4744(13)
O29 O 0.1929(15) 0.6013(10) 0.6398(11)
O20? O 0.203(4) 0.8132(12) 0.2210(14)
O24? O 0.653(3) 0.295(4) 0.316(3)
O27? O -0.0257(19) 0.1125(13) 0.8704(14)
loop_
_geom_bond_atom_site_label_1
_geom_bond_atom_site_label_2
_geom_bond_site_symmetry_1
_geom_bond_site_symmetry_2
C1 C2 1_555 1_555
C2 H1 1_555 1_555
C3 C2 1_555 1_555
H2 C3 1_555 1_555
C4 C3 1_555 1_555
C5 C4 1_555 1_555
H3 C5 1_555 1_555
C6 C1 1_555 1_555
H4 C6 1_555 1_555
C7 C8 1_555 1_555
C8 H5 1_555 1_555
C9 C8 1_555 1_555
H6 C9 1_555 1_555
C10 C9 1_555 1_555
C11 C10 1_555 1_555
H7 C11 1_555 1_555
C12 C7 1_555 1_555
H8 C12 1_555 1_555
C13 H9 1_555 1_555
H10 C13 1_555 1_555
H11 C13 1_555 1_555
C14 H12 1_555 1_555
H13 C14 1_555 1_555
H14 C14 1_555 1_555
N1 C1 1_555 1_555
H15 N1 1_555 1_555
N2 C7 1_555 1_555
N3 C10 1_555 1_555
O1 S1 1_555 1_555
O2 S1 1_555 1_555
O3 S1 1_555 1_555
S1 C4 1_555 1_555
C15 H16 1_555 1_555
C16 C15 1_555 1_555
H17 C16 1_555 1_555
C17 N4 1_555 1_555
C18 N6 1_555 1_555
C19 H18 1_555 1_555
H19 C19 1_555 1_555
C20 H20 1_555 1_555
H21 C20 1_555 1_555
C21 H22 1_555 1_555
C22 C21 1_555 1_555
H23 C22 1_555 1_555
C23 N8 1_555 1_555
C24 N10 1_555 1_555
C25 H24 1_555 1_555
H25 C25 1_555 1_555
C26 H26 1_555 1_555
H27 C26 1_555 1_555
C27 H28 1_555 1_555
C28 C27 1_555 1_555
H29 C28 1_555 1_555
C29 N12 1_555 1_555
C30 N14 1_555 1_555
C31 H30 1_555 1_555
H31 C31 1_555 1_555
C32 H32 1_555 1_555
H33 C32 1_555 1_555
C33 H34 1_555 1_555
C34 C33 1_555 1_555
H35 C34 1_555 1_555
C35 N16 1_555 1_555
C36 N18 1_555 1_555
C37 H36 1_555 1_555
H37 C37 1_555 1_555
C38 H38 1_555 1_555
H39 C38 1_555 1_555
N4 C16 1_555 1_555
N5 C15 1_555 1_555
N6 C16 1_555 1_555
N7 C15 1_555 1_555
N8 C22 1_555 1_555
N9 C19 1_555 1_555
N10 C22 1_555 1_555
N11 C20 1_555 1_555
N12 C28 1_555 1_555
N13 C25 1_555 1_555
N14 C28 1_555 1_555
N15 C26 1_555 1_555
N16 C34 1_555 1_555
N17 C31 1_555 1_555
N18 C34 1_555 1_555
N19 C32 1_555 1_555
O4 C17 1_555 1_555
O5 C18 1_555 1_555
O6 C23 1_555 1_555
O7 C24 1_555 1_555
O8 C29 1_555 1_555
O9 C30 1_555 1_555
O10 C35 1_555 1_555
O11 C36 1_555 1_555
C15B H16B 1_555 1_555
C16B C15B 1_555 1_555
H17B C16B 1_555 1_555
C17B N4B 1_555 1_555
C18B N6B 1_555 1_555
C19B H18B 1_555 1_555
H19B C19B 1_555 1_555
C20B H20B 1_555 1_555
H21B C20B 1_555 1_555
C21B H22B 1_555 1_555
C22B C21B 1_555 1_555
H23B C22B 1_555 1_555
C23B N8B 1_555 1_555
C24B N10B 1_555 1_555
C25B H24B 1_555 1_555
H25B C25B 1_555 1_555
C26B H26B 1_555 1_555
H27B C26B 1_555 1_555
C27B H28B 1_555 1_555
C28B C27B 1_555 1_555
H29B C28B 1_555 1_555
C29B N12B 1_555 1_555
C30B N14B 1_555 1_555
C31B H30B 1_555 1_555
H31B C31B 1_555 1_555
C32B H32B 1_555 1_555
H33B C32B 1_555 1_555
C33B H34B 1_555 1_555
C34B C33B 1_555 1_555
H35B C34B 1_555 1_555
C35B N16B 1_555 1_555
C36B N18B 1_555 1_555
C37B N7 1_555 1_555
H36B C37B 1_555 1_555
H37B C37B 1_555 1_555
C38B N5 1_555 1_555
H38B C38B 1_555 1_555
H39B C38B 1_555 1_555
N4B C16B 1_555 1_555
N5B C38 1_555 1_555
N6B C16B 1_555 1_555
N7B C37 1_555 1_555
N8B C22B 1_555 1_555
N9B C19B 1_555 1_555
N10B C22B 1_555 1_555
N11B C20B 1_555 1_555
N12B C28B 1_555 1_555
N13B C25B 1_555 1_555
N14B C28B 1_555 1_555
N15B C26B 1_555 1_555
N16B C34B 1_555 1_555
N17B C31B 1_555 1_555
N18B C34B 1_555 1_555
N19B C32B 1_555 1_555
O4B C17B 1_555 1_555
O5B C18B 1_555 1_555
O6B C23B 1_555 1_555
O7B C24B 1_555 1_555
O8B C29B 1_555 1_555
O9B C30B 1_555 1_555
O10B C35B 1_555 1_555
O11B C36B 1_555 1_555
C5 C6 1_555 1_555
C11 C12 1_555 1_555
C13 N3 1_555 1_555
C14 N3 1_555 1_555
N1 N2 1_555 1_555
C17 N5 1_555 1_555
C18 N7 1_555 1_555
C19 N4 1_555 1_555
C20 N6 1_555 1_555
C21 N9 1_555 1_555
C21 N11 1_555 1_555
C23 N9 1_555 1_555
C24 N11 1_555 1_555
C25 N8 1_555 1_555
C26 N10 1_555 1_555
C27 N13 1_555 1_555
C27 N15 1_555 1_555
C29 N13 1_555 1_555
C30 N15 1_555 1_555
C31 N12 1_555 1_555
C32 N14 1_555 1_555
C33 N17 1_555 1_555
C33 N19 1_555 1_555
C35 N17 1_555 1_555
C36 N19 1_555 1_555
C37 N16 1_555 1_555
C38 N18 1_555 1_555
C15B N5B 1_555 1_555
C15B N7B 1_555 1_555
C17B N5B 1_555 1_555
C18B N7B 1_555 1_555
C19B N4B 1_555 1_555
C20B N6B 1_555 1_555
C21B N9B 1_555 1_555
C21B N11B 1_555 1_555
C23B N9B 1_555 1_555
C24B N11B 1_555 1_555
C25B N8B 1_555 1_555
C26B N10B 1_555 1_555
C27B N13B 1_555 1_555
C27B N15B 1_555 1_555
C29B N13B 1_555 1_555
C30B N15B 1_555 1_555
C31B N12B 1_555 1_555
C32B N14B 1_555 1_555
C33B N17B 1_555 1_555
C33B N19B 1_555 1_555
C35B N17B 1_555 1_555
C36B N19B 1_555 1_555
C37B N16B 1_555 1_555
C38B N18B 1_555 1_555

#END
