
#######################################################################
#
#                 Cambridge Crystallographic Data Centre
#                                CCDC 
#
#######################################################################
#
# If this CIF has been generated from an entry in the Cambridge 
# Structural Database, then it will include bibliographic, chemical, 
# crystal, experimental, refinement or atomic coordinate data resulting 
# from the CCDC's data processing and validation procedures.
#
#######################################################################

data_CABXEL
_chemical_compound_source        'Rabdosia serra'
_chemical_name_common            'rabdosin G'
_chemical_formula_moiety         'C20 H26 O7,H2 O1'
_chemical_name_systematic        
'7,18-dihydroxy-7,19,19-trimethyl-11,15,17-trioxahexacyclo[12.4.1.1^6,9^.0^2,12^.0^2,16^.0^3,9^]icosane-8,10-dione monohydrate'
_chemical_properties_biological  'cytotoxic activity'
_symmetry_cell_setting           monoclinic
_symmetry_space_group_name_H-M   'P 21'
_symmetry_Int_Tables_number      4
_space_group_name_Hall           'P 2yb'
loop_
_symmetry_equiv_pos_site_id
_symmetry_equiv_pos_as_xyz
1 x,y,z
2 -x,1/2+y,-z
_cell_length_a                   7.46580(10)
_cell_length_b                   9.3850(2)
_cell_length_c                   13.2507(3)
_cell_angle_alpha                90
_cell_angle_beta                 91.6150(10)
_cell_angle_gamma                90
_cell_volume                     928.062
_exptl_crystal_colour            colorless
_exptl_crystal_description       needles
_cell_formula_units_Z            2
loop_
_atom_site_label
_atom_site_type_symbol
_atom_site_fract_x
_atom_site_fract_y
_atom_site_fract_z
O1 O 1.0406(2) 0.76685(17) 0.85561(11)
O2 O 0.9979(2) 0.85883(19) 0.63078(11)
O3 O 1.0145(2) 0.6364(2) 0.55320(11)
O4 O 0.8347(2) 0.4314(2) 0.55034(12)
H1 H 0.8787 0.3964 0.4982
O5 O 1.3001(2) 0.6828(2) 0.90814(14)
O6 O 1.3643(2) 0.4563(2) 0.74919(12)
O7 O 1.3556(2) 0.2544(2) 0.92235(14)
H2 H 1.3707 0.1682 0.9372
C1 C 0.8644(3) 0.7460(2) 0.80423(15)
H3 H 0.7761 0.7048 0.8516
C2 C 0.8096(3) 0.8953(3) 0.77209(17)
H4 H 0.8922 0.9664 0.8032
H5 H 0.6866 0.9162 0.7939
C3 C 0.8177(3) 0.9019(3) 0.65768(17)
H6 H 0.7958 1.0021 0.6348
C4 C 0.6772(3) 0.8034(3) 0.60717(16)
C5 C 0.7359(2) 0.6466(2) 0.63088(14)
H7 H 0.6322 0.5868 0.6515
C6 C 0.8347(3) 0.5793(3) 0.54316(16)
H8 H 0.7780 0.6097 0.4774
C7 C 1.1539(3) 0.6586(3) 0.86904(15)
C8 C 1.0934(3) 0.5117(2) 0.84076(14)
C9 C 0.9468(2) 0.4990(2) 0.75280(14)
H9 H 1.0046 0.4491 0.6955
C10 C 0.8903(2) 0.6473(2) 0.71408(14)
C11 C 0.7924(3) 0.4041(3) 0.78594(17)
H10 H 0.7081 0.3877 0.7281
H11 H 0.7264 0.4523 0.8400
C12 C 0.8652(3) 0.2610(3) 0.82483(18)
H12 H 0.8947 0.2005 0.7664
H13 H 0.7704 0.2121 0.8624
C13 C 1.0339(3) 0.2764(2) 0.89446(16)
H14 H 1.0286 0.2065 0.9513
C14 C 1.0377(3) 0.4288(2) 0.93647(15)
H15 H 1.1273 0.4395 0.9925
H16 H 0.9186 0.4590 0.9595
C15 C 1.2471(3) 0.4191(3) 0.80383(15)
C16 C 1.2187(3) 0.2667(3) 0.84430(15)
C17 C 1.2430(3) 0.1543(3) 0.76390(18)
H17 H 1.3665 0.1573 0.7408
H18 H 1.1600 0.1729 0.7068
H19 H 1.2184 0.0600 0.7921
C18 C 0.4906(3) 0.8295(3) 0.64894(19)
H20 H 0.4862 0.7919 0.7178
H21 H 0.4004 0.7813 0.6060
H22 H 0.4660 0.9321 0.6497
C19 C 0.6646(3) 0.8424(3) 0.49412(18)
H23 H 0.5814 0.7772 0.4590
H24 H 0.7834 0.8344 0.4650
H25 H 0.6209 0.9404 0.4865
C20 C 1.0318(3) 0.7113(3) 0.64561(15)
H26 H 1.1544 0.6970 0.6762
O8 O 0.4267(3) 0.9645(2) 0.95945(16)
H27 H 0.379(7) 0.888(6) 0.939(4)
H28 H 0.504(6) 0.952(5) 0.998(3)
loop_
_geom_bond_atom_site_label_1
_geom_bond_atom_site_label_2
_geom_bond_site_symmetry_1
_geom_bond_site_symmetry_2
O1 C1 1_555 1_555
O2 C3 1_555 1_555
O3 C6 1_555 1_555
O4 H1 1_555 1_555
O5 C7 1_555 1_555
O6 C15 1_555 1_555
O7 H2 1_555 1_555
C1 H3 1_555 1_555
C2 C1 1_555 1_555
H4 C2 1_555 1_555
H5 C2 1_555 1_555
C3 C2 1_555 1_555
H6 C3 1_555 1_555
C4 C3 1_555 1_555
C5 C4 1_555 1_555
H7 C5 1_555 1_555
C6 O4 1_555 1_555
H8 C6 1_555 1_555
C7 O1 1_555 1_555
C8 C7 1_555 1_555
C9 C8 1_555 1_555
H9 C9 1_555 1_555
C10 C1 1_555 1_555
C11 C9 1_555 1_555
H10 C11 1_555 1_555
H11 C11 1_555 1_555
C12 C11 1_555 1_555
H12 C12 1_555 1_555
H13 C12 1_555 1_555
C13 C12 1_555 1_555
H14 C13 1_555 1_555
C14 C8 1_555 1_555
H15 C14 1_555 1_555
H16 C14 1_555 1_555
C15 C8 1_555 1_555
C16 O7 1_555 1_555
C17 C16 1_555 1_555
H17 C17 1_555 1_555
H18 C17 1_555 1_555
H19 C17 1_555 1_555
C18 C4 1_555 1_555
H20 C18 1_555 1_555
H21 C18 1_555 1_555
H22 C18 1_555 1_555
C19 C4 1_555 1_555
H23 C19 1_555 1_555
H24 C19 1_555 1_555
H25 C19 1_555 1_555
C20 O2 1_555 1_555
H26 C20 1_555 1_555
O8 H27 1_555 1_555
H28 O8 1_555 1_555
O3 C20 1_555 1_555
C5 C6 1_555 1_555
C5 C10 1_555 1_555
C9 C10 1_555 1_555
C10 C20 1_555 1_555
C13 C14 1_555 1_555
C13 C16 1_555 1_555
C15 C16 1_555 1_555

#END
