
#######################################################################
#
#                 Cambridge Crystallographic Data Centre
#                                CCDC 
#
#######################################################################
#
# If this CIF has been generated from an entry in the Cambridge 
# Structural Database, then it will include bibliographic, chemical, 
# crystal, experimental, refinement or atomic coordinate data resulting 
# from the CCDC's data processing and validation procedures.
#
#######################################################################

data_CACDIU
_chemical_formula_moiety         'C27 H25 N1 O5'
_chemical_name_systematic        
Spiro(2-carbomethoxy-5-(4-methoxyphenyl)-3-phenylpyrrolidine-4,3'-chroman-4'-one)
_symmetry_cell_setting           triclinic
_symmetry_space_group_name_H-M   'P -1'
_symmetry_Int_Tables_number      2
_space_group_name_Hall           '-P 1'
loop_
_symmetry_equiv_pos_site_id
_symmetry_equiv_pos_as_xyz
1 x,y,z
2 -x,-y,-z
_cell_length_a                   6.709(5)
_cell_length_b                   9.958(5)
_cell_length_c                   17.743(5)
_cell_angle_alpha                95.757(5)
_cell_angle_beta                 94.587(5)
_cell_angle_gamma                105.600(5)
_cell_volume                     1128.86
_exptl_crystal_colour            colorless
_exptl_crystal_description       prism
_chemical_melting_point          416-418K
_cell_formula_units_Z            2
_exptl_crystal_recrystallization_method ethanol
loop_
_atom_site_label
_atom_site_type_symbol
_atom_site_fract_x
_atom_site_fract_y
_atom_site_fract_z
N1 N 0.5945(3) 0.10199(17) 0.31080(11)
H1 H 0.5479 0.1508 0.3443
O1 O 1.08592(19) 0.00170(15) 0.18918(8)
O2 O 0.61071(19) 0.14181(15) 0.09832(8)
O3 O 1.5532(3) 0.39572(17) 0.43084(9)
O4 O 0.6341(3) -0.1343(2) 0.40869(10)
O5 O 0.3010(3) -0.1489(2) 0.38026(10)
C1 C 0.9473(3) 0.04826(18) 0.16500(10)
C2 C 0.7473(3) 0.03427(18) 0.20210(10)
C3 C 0.5740(3) 0.0196(2) 0.13778(12)
H2 H 0.5650 -0.0625 0.1019
H3 H 0.4419 0.0057 0.1588
C4 C 0.8180(3) 0.2591(2) 0.01203(11)
H4 H 0.7089 0.2941 -0.0042
C5 C 0.9994(3) 0.2909(2) -0.02137(11)
H5 H 1.0133 0.3475 -0.0603
C6 C 1.1617(3) 0.2389(2) 0.00282(12)
H6 H 1.2831 0.2583 -0.0209
C7 C 1.1439(3) 0.1590(2) 0.06164(11)
H7 H 1.2552 0.1261 0.0780
C8 C 0.9626(2) 0.12586(18) 0.09745(10)
C9 C 0.7977(3) 0.17475(19) 0.06983(10)
C10 C 0.7567(3) 0.1621(2) 0.26265(12)
H8 H 0.7155 0.2345 0.2368
C11 C 0.9681(3) 0.22694(19) 0.30778(11)
C12 C 1.1155(3) 0.3331(2) 0.28150(13)
H9 H 1.0812 0.3649 0.2360
C13 C 1.3119(4) 0.3936(2) 0.32033(13)
H10 H 1.4070 0.4650 0.3013
C14 C 1.3648(3) 0.3466(2) 0.38766(12)
C15 C 1.2208(4) 0.2402(2) 0.41463(12)
H11 H 1.2562 0.2075 0.4597
C16 C 1.0263(4) 0.1822(2) 0.37585(11)
H12 H 0.9314 0.1116 0.3955
C17 C 1.7085(4) 0.5026(3) 0.40573(17)
H13 H 1.8318 0.5268 0.4414
H14 H 1.6592 0.5840 0.4021
H15 H 1.7401 0.4699 0.3566
C18 C 0.5230(3) -0.0507(2) 0.29445(11)
H16 H 0.3903 -0.0792 0.2616
C19 C 0.4978(3) -0.1158(2) 0.36737(12)
C20 C 0.2541(6) -0.2060(5) 0.45149(19)
H17 H 0.1074 -0.2252 0.4553
H18 H 0.3297 -0.1389 0.4937
H19 H 0.2943 -0.2914 0.4523
C21 C 0.6936(3) -0.08766(18) 0.25113(10)
H20 H 0.8148 -0.0747 0.2886
C22 C 0.6416(3) -0.23675(19) 0.21189(10)
C23 C 0.4476(3) -0.3071(2) 0.17283(11)
H21 H 0.3438 -0.2614 0.1699
C24 C 0.4065(4) -0.4439(2) 0.13825(12)
H22 H 0.2763 -0.4888 0.1119
C25 C 0.5569(4) -0.5136(2) 0.14263(14)
H23 H 0.5290 -0.6056 0.1193
C26 C 0.7479(4) -0.4470(2) 0.18147(14)
H24 H 0.8499 -0.4943 0.1847
C27 C 0.7913(3) -0.3091(2) 0.21620(12)
H25 H 0.9219 -0.2651 0.2425
loop_
_geom_bond_atom_site_label_1
_geom_bond_atom_site_label_2
_geom_bond_site_symmetry_1
_geom_bond_site_symmetry_2
N1 H1 1_555 1_555
O1 C1 1_555 1_555
O2 C3 1_555 1_555
O3 C14 1_555 1_555
O4 C19 1_555 1_555
O5 C19 1_555 1_555
C1 C2 1_555 1_555
C2 C3 1_555 1_555
C3 H2 1_555 1_555
H3 C3 1_555 1_555
C4 H4 1_555 1_555
C5 C4 1_555 1_555
H5 C5 1_555 1_555
C6 C5 1_555 1_555
H6 C6 1_555 1_555
C7 C6 1_555 1_555
H7 C7 1_555 1_555
C8 C1 1_555 1_555
C9 O2 1_555 1_555
C10 N1 1_555 1_555
H8 C10 1_555 1_555
C11 C10 1_555 1_555
C12 C11 1_555 1_555
H9 C12 1_555 1_555
C13 C12 1_555 1_555
H10 C13 1_555 1_555
C14 C13 1_555 1_555
C15 C14 1_555 1_555
H11 C15 1_555 1_555
C16 C11 1_555 1_555
H12 C16 1_555 1_555
C17 O3 1_555 1_555
H13 C17 1_555 1_555
H14 C17 1_555 1_555
H15 C17 1_555 1_555
C18 N1 1_555 1_555
H16 C18 1_555 1_555
C19 C18 1_555 1_555
C20 O5 1_555 1_555
H17 C20 1_555 1_555
H18 C20 1_555 1_555
H19 C20 1_555 1_555
C21 C2 1_555 1_555
H20 C21 1_555 1_555
C22 C21 1_555 1_555
C23 C22 1_555 1_555
H21 C23 1_555 1_555
C24 C23 1_555 1_555
H22 C24 1_555 1_555
C25 C24 1_555 1_555
H23 C25 1_555 1_555
C26 C25 1_555 1_555
H24 C26 1_555 1_555
C27 C22 1_555 1_555
H25 C27 1_555 1_555
C2 C10 1_555 1_555
C4 C9 1_555 1_555
C7 C8 1_555 1_555
C8 C9 1_555 1_555
C15 C16 1_555 1_555
C18 C21 1_555 1_555
C26 C27 1_555 1_555

#END
