
#######################################################################
#
#                 Cambridge Crystallographic Data Centre
#                                CCDC 
#
#######################################################################
#
# If this CIF has been generated from an entry in the Cambridge 
# Structural Database, then it will include bibliographic, chemical, 
# crystal, experimental, refinement or atomic coordinate data resulting 
# from the CCDC's data processing and validation procedures.
#
#######################################################################

data_CACQAB
_chemical_formula_moiety         'C16 H10 Br1 N3 S1'
_chemical_name_systematic        
6-(4-bromophenyl)-5-phenyl[1,3]thiazolo[3,2-b][1,2,4]triazole
_symmetry_cell_setting           monoclinic
_symmetry_space_group_name_H-M   'P 21/c'
_symmetry_Int_Tables_number      14
_space_group_name_Hall           '-P 2ybc'
loop_
_symmetry_equiv_pos_site_id
_symmetry_equiv_pos_as_xyz
1 x,y,z
2 -x,1/2+y,1/2-z
3 -x,-y,-z
4 x,1/2-y,1/2+z
_cell_length_a                   6.3583(10)
_cell_length_b                   11.9472(18)
_cell_length_c                   19.211(3)
_cell_angle_alpha                90
_cell_angle_beta                 91.318(2)
_cell_angle_gamma                90
_cell_volume                     1458.96
_cell_formula_units_Z            4
loop_
_atom_site_label
_atom_site_type_symbol
_atom_site_fract_x
_atom_site_fract_y
_atom_site_fract_z
Br1 Br 0.39435(5) 0.21681(3) 0.067017(18)
C1 C 0.1135(5) 0.8709(3) 0.02804(19)
H1 H -0.0032 0.8838 -0.0010
C2 C 0.3758(5) 0.9021(3) 0.09030(17)
C3 C 0.4902(5) 0.7223(2) 0.12218(16)
C4 C 0.6363(5) 0.7868(2) 0.15622(16)
C5 C 0.8076(5) 0.7539(3) 0.20391(16)
C6 C 0.9896(5) 0.8194(3) 0.20955(17)
H2 H 1.0044 0.8814 0.1808
C7 C 1.1487(6) 0.7929(3) 0.2576(2)
H3 H 1.2691 0.8370 0.2607
C8 C 1.1287(6) 0.7020(3) 0.3004(2)
H4 H 1.2353 0.6839 0.3323
C9 C 0.9494(6) 0.6380(3) 0.29560(19)
H5 H 0.9355 0.5765 0.3248
C10 C 0.7887(5) 0.6632(3) 0.24813(17)
H6 H 0.6681 0.6192 0.2460
C11 C 0.4751(4) 0.5989(3) 0.11446(15)
C12 C 0.6413(5) 0.5386(2) 0.08828(16)
H7 H 0.7672 0.5748 0.0791
C13 C 0.6223(5) 0.4250(2) 0.07556(16)
H8 H 0.7337 0.3843 0.0579
C14 C 0.4341(5) 0.3737(3) 0.08977(16)
C15 C 0.2687(5) 0.4303(3) 0.11771(18)
H9 H 0.1457 0.3929 0.1287
C16 C 0.2883(5) 0.5445(3) 0.12924(18)
H10 H 0.1761 0.5846 0.1469
N1 N 0.1704(4) 0.7679(2) 0.04609(15)
N2 N 0.2324(5) 0.9572(2) 0.05358(16)
N3 N 0.3434(4) 0.7904(2) 0.08719(14)
S1 S 0.59334(13) 0.93159(7) 0.14201(5)
loop_
_geom_bond_atom_site_label_1
_geom_bond_atom_site_label_2
_geom_bond_site_symmetry_1
_geom_bond_site_symmetry_2
Br1 C14 1_555 1_555
C1 H1 1_555 1_555
C2 N2 1_555 1_555
C3 C4 1_555 1_555
C4 C5 1_555 1_555
C5 C6 1_555 1_555
C6 H2 1_555 1_555
C7 C6 1_555 1_555
H3 C7 1_555 1_555
C8 C7 1_555 1_555
H4 C8 1_555 1_555
C9 C8 1_555 1_555
H5 C9 1_555 1_555
C10 C5 1_555 1_555
H6 C10 1_555 1_555
C11 C3 1_555 1_555
C12 C11 1_555 1_555
H7 C12 1_555 1_555
C13 C12 1_555 1_555
H8 C13 1_555 1_555
C14 C13 1_555 1_555
C15 C14 1_555 1_555
H9 C15 1_555 1_555
C16 C11 1_555 1_555
H10 C16 1_555 1_555
N1 C1 1_555 1_555
N2 C1 1_555 1_555
N3 C2 1_555 1_555
S1 C2 1_555 1_555
C3 N3 1_555 1_555
C4 S1 1_555 1_555
C9 C10 1_555 1_555
C15 C16 1_555 1_555
N1 N3 1_555 1_555

#END
