
#######################################################################
#
#                 Cambridge Crystallographic Data Centre
#                                CCDC 
#
#######################################################################
#
# If this CIF has been generated from an entry in the Cambridge 
# Structural Database, then it will include bibliographic, chemical, 
# crystal, experimental, refinement or atomic coordinate data resulting 
# from the CCDC's data processing and validation procedures.
#
#######################################################################

data_CADDIU
_chemical_formula_moiety         'C23 H16 N4 O4'
_chemical_name_systematic        
(E)-5-((4-Nitrophenylhydrazono)phenylacetyl)-3-phenylisoxazole
_symmetry_cell_setting           monoclinic
_symmetry_space_group_name_H-M   'P 21/n'
_symmetry_Int_Tables_number      14
_space_group_name_Hall           '-P 2yn'
loop_
_symmetry_equiv_pos_site_id
_symmetry_equiv_pos_as_xyz
1 x,y,z
2 1/2+x,1/2-y,1/2+z
3 -x,-y,-z
4 1/2-x,1/2+y,1/2-z
_cell_length_a                   5.7870(10)
_cell_length_b                   29.089(3)
_cell_length_c                   11.8810(10)
_cell_angle_alpha                90
_cell_angle_beta                 100.490(10)
_cell_angle_gamma                90
_cell_volume                     1966.6
_exptl_crystal_colour            colorless
_exptl_crystal_description       prismatic
_chemical_melting_point          422-424K
_cell_formula_units_Z            4
_exptl_crystal_recrystallization_method dichloromethane/methanol
loop_
_atom_site_label
_atom_site_type_symbol
_atom_site_fract_x
_atom_site_fract_y
_atom_site_fract_z
O1 O 0.8535(2) 0.07201(5) 0.88060(11)
N1 N 0.8998(3) 0.05888(6) 0.99588(14)
C1 C 0.6952(3) 0.05817(6) 1.02930(15)
C2 C 0.5123(3) 0.07198(6) 0.93893(15)
H1 H 0.3532 0.0749 0.9411
C3 C 0.6201(3) 0.08003(6) 0.84946(16)
C4 C 0.5523(3) 0.09232(6) 0.72602(16)
O2 O 0.6775(2) 0.07956(5) 0.65995(11)
C5 C 0.3423(3) 0.12078(6) 0.68579(15)
C6 C 0.2777(3) 0.13099(6) 0.56121(14)
C7 C 0.0650(3) 0.11653(7) 0.49840(17)
H2 H -0.0407 0.1006 0.5342
C8 C 0.0098(4) 0.12576(8) 0.38234(18)
H3 H -0.1334 0.1162 0.3401
C9 C 0.1674(5) 0.14915(8) 0.32957(18)
H4 H 0.1304 0.1551 0.2514
C10 C 0.3775(4) 0.16377(8) 0.39078(18)
H5 H 0.4820 0.1800 0.3547
C11 C 0.4334(3) 0.15449(7) 0.50557(17)
H6 H 0.5775 0.1640 0.5469
N2 N 0.2370(2) 0.13680(5) 0.76546(12)
N3 N 0.0546(2) 0.16550(5) 0.73490(12)
H7 H 0.0097 0.1727 0.6641
C12 C 0.6840(3) 0.04363(6) 1.14708(15)
C13 C 0.4950(3) 0.05505(7) 1.19838(17)
H8 H 0.3707 0.0719 1.1577
C14 C 0.4895(3) 0.04160(8) 1.30928(18)
H9 H 0.3631 0.0498 1.3434
C15 C 0.6713(4) 0.01607(8) 1.36954(18)
H10 H 0.6681 0.0071 1.4444
C16 C 0.8579(4) 0.00378(7) 1.31875(18)
H11 H 0.9796 -0.0139 1.3589
C17 C 0.8645(3) 0.01749(6) 1.20877(17)
H12 H 0.9916 0.0092 1.1752
C18 C -0.0614(3) 0.18357(6) 0.81716(14)
C19 C -0.2554(3) 0.21144(6) 0.78165(15)
H13 H -0.3013 0.2182 0.7043
C20 C -0.3811(3) 0.22922(6) 0.85954(15)
H14 H -0.5119 0.2477 0.8356
C21 C -0.3090(3) 0.21899(6) 0.97339(16)
N4 N -0.4360(4) 0.23844(7) 1.05652(16)
O3 O -0.3765(4) 0.22739(7) 1.15683(14)
O4 O -0.5933(3) 0.26640(6) 1.02438(13)
C22 C -0.1163(4) 0.19186(8) 1.00953(17)
H15 H -0.0705 0.1854 1.0870
C23 C 0.0090(4) 0.17408(7) 0.93264(15)
H16 H 0.1402 0.1558 0.9575
loop_
_geom_bond_atom_site_label_1
_geom_bond_atom_site_label_2
_geom_bond_site_symmetry_1
_geom_bond_site_symmetry_2
O1 N1 1_555 1_555
N1 C1 1_555 1_555
C1 C2 1_555 1_555
C2 H1 1_555 1_555
C3 O1 1_555 1_555
C4 C3 1_555 1_555
O2 C4 1_555 1_555
C5 C4 1_555 1_555
C6 C5 1_555 1_555
C7 C6 1_555 1_555
H2 C7 1_555 1_555
C8 C7 1_555 1_555
H3 C8 1_555 1_555
C9 C8 1_555 1_555
H4 C9 1_555 1_555
C10 C9 1_555 1_555
H5 C10 1_555 1_555
C11 C6 1_555 1_555
H6 C11 1_555 1_555
N2 C5 1_555 1_555
N3 N2 1_555 1_555
H7 N3 1_555 1_555
C12 C1 1_555 1_555
C13 C12 1_555 1_555
H8 C13 1_555 1_555
C14 C13 1_555 1_555
H9 C14 1_555 1_555
C15 C14 1_555 1_555
H10 C15 1_555 1_555
C16 C15 1_555 1_555
H11 C16 1_555 1_555
C17 C12 1_555 1_555
H12 C17 1_555 1_555
C18 N3 1_555 1_555
C19 C18 1_555 1_555
H13 C19 1_555 1_555
C20 C19 1_555 1_555
H14 C20 1_555 1_555
C21 C20 1_555 1_555
N4 C21 1_555 1_555
O3 N4 1_555 1_555
O4 N4 1_555 1_555
C22 C21 1_555 1_555
H15 C22 1_555 1_555
C23 C18 1_555 1_555
H16 C23 1_555 1_555
C2 C3 1_555 1_555
C10 C11 1_555 1_555
C16 C17 1_555 1_555
C22 C23 1_555 1_555

#END
