
#######################################################################
#
#                 Cambridge Crystallographic Data Centre
#                                CCDC 
#
#######################################################################
#
# If this CIF has been generated from an entry in the Cambridge 
# Structural Database, then it will include bibliographic, chemical, 
# crystal, experimental, refinement or atomic coordinate data resulting 
# from the CCDC's data processing and validation procedures.
#
#######################################################################

data_CADQAA
_chemical_formula_moiety         'C16 H22 N2 O3'
_chemical_name_systematic        
'(3S, 5R)-3-Benzyl-2-oxo-morpholine-5-carboxylic acid t-butylamide'
_symmetry_cell_setting           monoclinic
_symmetry_space_group_name_H-M   'P 21'
_symmetry_Int_Tables_number      4
_space_group_name_Hall           'P 2yb'
loop_
_symmetry_equiv_pos_site_id
_symmetry_equiv_pos_as_xyz
1 x,y,z
2 -x,1/2+y,-z
_cell_length_a                   9.756(2)
_cell_length_b                   6.265(3)
_cell_length_c                   13.956(4)
_cell_angle_alpha                90.00(3)
_cell_angle_beta                 98.56(2)
_cell_angle_gamma                90.00(2)
_cell_volume                     843.507
_exptl_crystal_colour            white
_chemical_melting_point          122-128deg.C
_cell_formula_units_Z            2
_exptl_crystal_recrystallization_method 'hexane/ethyl acetate'
loop_
_atom_site_label
_atom_site_type_symbol
_atom_site_fract_x
_atom_site_fract_y
_atom_site_fract_z
O1 O 0.8324(6) 0.8146(13) 0.5640(4)
O2 O 1.0477(6) 0.8225(11) 0.5419(4)
O3 O 0.4274(6) 0.7646(14) 0.4068(4)
N1 N 0.7651(6) 0.9537(10) 0.3792(4)
H1 H 0.7682 1.0579 0.3395
N2 N 0.5315(6) 0.8148(17) 0.2763(5)
H2 H 0.6061 0.8652 0.2589
C1 C 0.9265(8) 0.8056(14) 0.5056(6)
C2 C 0.8750(7) 0.7955(13) 0.3994(5)
H3 H 0.8339 0.6542 0.3850
C3 C 0.6523(9) 0.9200(16) 0.4314(5)
H4 H 0.6252 1.0586 0.4551
C4 C 0.6914(8) 0.774(2) 0.5183(6)
H5 H 0.6284 0.7983 0.5648
H6 H 0.6825 0.6267 0.4975
C5 C 0.9859(7) 0.8260(19) 0.3380(6)
H7 H 1.0616 0.7293 0.3602
H8 H 1.0212 0.9704 0.3469
C6 C 0.9397(7) 0.7888(19) 0.2319(6)
C7 C 0.9086(12) 0.943(2) 0.1681(8)
H9 H 0.9156 1.0830 0.1904
C8 C 0.8663(14) 0.910(2) 0.0707(10)
H10 H 0.8484 1.0255 0.0286
C9 C 0.8515(14) 0.710(3) 0.0377(9)
H11 H 0.8193 0.6843 -0.0274
C10 C 0.883(2) 0.545(2) 0.0983(10)
H12 H 0.8772 0.4060 0.0746
C11 C 0.9236(15) 0.582(2) 0.1965(8)
H13 H 0.9402 0.4676 0.2389
C12 C 0.5253(8) 0.8227(17) 0.3687(5)
C13 C 0.4289(10) 0.732(2) 0.1975(7)
C14 C 0.4778(13) 0.777(5) 0.1041(8)
H14 H 0.4907 0.9276 0.0977
H15 H 0.4103 0.7268 0.0518
H16 H 0.5642 0.7046 0.1024
C15 C 0.2939(10) 0.856(4) 0.1994(9)
H17 H 0.3089 1.0043 0.1870
H18 H 0.2651 0.8408 0.2619
H19 H 0.2232 0.8009 0.1505
C16 C 0.401(3) 0.503(4) 0.2174(18)
H20 H 0.3701 0.4912 0.2792
H21 H 0.4849 0.4222 0.2180
H22 H 0.3311 0.4493 0.1677
loop_
_geom_bond_atom_site_label_1
_geom_bond_atom_site_label_2
_geom_bond_site_symmetry_1
_geom_bond_site_symmetry_2
O1 C1 1_555 1_555
O2 C1 1_555 1_555
O3 C12 1_555 1_555
N1 H1 1_555 1_555
N2 H2 1_555 1_555
C1 C2 1_555 1_555
C2 N1 1_555 1_555
H3 C2 1_555 1_555
C3 N1 1_555 1_555
H4 C3 1_555 1_555
C4 O1 1_555 1_555
H5 C4 1_555 1_555
H6 C4 1_555 1_555
C5 C2 1_555 1_555
H7 C5 1_555 1_555
H8 C5 1_555 1_555
C6 C5 1_555 1_555
C7 C6 1_555 1_555
H9 C7 1_555 1_555
C8 C7 1_555 1_555
H10 C8 1_555 1_555
C9 C8 1_555 1_555
H11 C9 1_555 1_555
C10 C9 1_555 1_555
H12 C10 1_555 1_555
C11 C6 1_555 1_555
H13 C11 1_555 1_555
C12 N2 1_555 1_555
C13 N2 1_555 1_555
C14 C13 1_555 1_555
H14 C14 1_555 1_555
H15 C14 1_555 1_555
H16 C14 1_555 1_555
C15 C13 1_555 1_555
H17 C15 1_555 1_555
H18 C15 1_555 1_555
H19 C15 1_555 1_555
C16 C13 1_555 1_555
H20 C16 1_555 1_555
H21 C16 1_555 1_555
H22 C16 1_555 1_555
C3 C4 1_555 1_555
C3 C12 1_555 1_555
C10 C11 1_555 1_555

#END
