
#######################################################################
#
#                 Cambridge Crystallographic Data Centre
#                                CCDC 
#
#######################################################################
#
# If this CIF has been generated from an entry in the Cambridge 
# Structural Database, then it will include bibliographic, chemical, 
# crystal, experimental, refinement or atomic coordinate data resulting 
# from the CCDC's data processing and validation procedures.
#
#######################################################################

data_CADRUX
_chemical_formula_moiety         'C12 H10 F3 N1 O1'
_chemical_name_systematic        
3-methylene-5-phenyl-5-(trifluoromethyl)pyrrolidin-2-one
_symmetry_cell_setting           orthorhombic
_symmetry_space_group_name_H-M   'P 21 21 21'
_symmetry_Int_Tables_number      19
_space_group_name_Hall           'P 2ac 2ab'
loop_
_symmetry_equiv_pos_site_id
_symmetry_equiv_pos_as_xyz
1 x,y,z
2 1/2-x,-y,1/2+z
3 -x,1/2+y,1/2-z
4 1/2+x,1/2-y,-z
_cell_length_a                   8.0526(2)
_cell_length_b                   8.2704(2)
_cell_length_c                   16.4564(4)
_cell_angle_alpha                90
_cell_angle_beta                 90
_cell_angle_gamma                90
_cell_volume                     1095.97
_exptl_crystal_colour            colorless
_exptl_crystal_description       block
_cell_formula_units_Z            4
loop_
_atom_site_label
_atom_site_type_symbol
_atom_site_fract_x
_atom_site_fract_y
_atom_site_fract_z
F1 F 0.3865(2) 0.53865(19) 0.68876(10)
F2 F 0.54240(18) 0.4144(2) 0.60323(11)
F3 F 0.4622(2) 0.2947(2) 0.71200(10)
O1 O 0.0142(3) 0.1254(2) 0.75462(11)
N1 N 0.1262(2) 0.3167(2) 0.66961(11)
H1 H 0.0659 0.3966 0.6853
C1 C 0.2584(3) 0.3333(3) 0.60889(12)
C2 C 0.2882(3) 0.1547(3) 0.58267(14)
H2 H 0.2320 0.1310 0.5319
H3 H 0.4059 0.1329 0.5762
C3 C 0.2169(3) 0.0574(3) 0.65077(14)
C4 C 0.1072(3) 0.1648(3) 0.69888(13)
C5 C 0.2441(4) -0.0959(3) 0.6697(2)
H4 H 0.188(4) -0.153(4) 0.7089(19)
H5 H 0.320(4) -0.169(4) 0.6406(18)
C6 C 0.4131(3) 0.3954(3) 0.65367(15)
C7 C 0.2164(3) 0.4486(3) 0.53972(12)
C8 C 0.1151(3) 0.5824(3) 0.55140(14)
H6 H 0.0647 0.5986 0.6016
C9 C 0.0884(4) 0.6913(3) 0.48950(17)
H7 H 0.0207 0.7806 0.4984
C10 C 0.1615(4) 0.6692(4) 0.41410(16)
H8 H 0.1443 0.7436 0.3726
C11 C 0.2602(4) 0.5353(4) 0.40157(15)
H9 H 0.3083 0.5184 0.3509
C12 C 0.2884(3) 0.4256(3) 0.46359(14)
H10 H 0.3557 0.3360 0.4544
loop_
_geom_bond_atom_site_label_1
_geom_bond_atom_site_label_2
_geom_bond_site_symmetry_1
_geom_bond_site_symmetry_2
F1 C6 1_555 1_555
F2 C6 1_555 1_555
F3 C6 1_555 1_555
O1 C4 1_555 1_555
N1 H1 1_555 1_555
C1 N1 1_555 1_555
C2 C1 1_555 1_555
H2 C2 1_555 1_555
H3 C2 1_555 1_555
C3 C2 1_555 1_555
C4 N1 1_555 1_555
C5 C3 1_555 1_555
H4 C5 1_555 1_555
H5 C5 1_555 1_555
C6 C1 1_555 1_555
C7 C1 1_555 1_555
C8 C7 1_555 1_555
H6 C8 1_555 1_555
C9 C8 1_555 1_555
H7 C9 1_555 1_555
C10 C9 1_555 1_555
H8 C10 1_555 1_555
C11 C10 1_555 1_555
H9 C11 1_555 1_555
C12 C7 1_555 1_555
H10 C12 1_555 1_555
C3 C4 1_555 1_555
C11 C12 1_555 1_555

#END
