
#######################################################################
#
#                 Cambridge Crystallographic Data Centre
#                                CCDC 
#
#######################################################################
#
# If this CIF has been generated from an entry in the Cambridge 
# Structural Database, then it will include bibliographic, chemical, 
# crystal, experimental, refinement or atomic coordinate data resulting 
# from the CCDC's data processing and validation procedures.
#
#######################################################################

data_CADSAE
_chemical_formula_moiety         'C7 H8 F3 N1 O1'
_chemical_name_systematic        
5-methyl-3-methylene-5-(trifluoromethyl)pyrrolidin-2-one
_symmetry_cell_setting           monoclinic
_symmetry_space_group_name_H-M   'P 21'
_symmetry_Int_Tables_number      4
_space_group_name_Hall           'P 2yb'
loop_
_symmetry_equiv_pos_site_id
_symmetry_equiv_pos_as_xyz
1 x,y,z
2 -x,1/2+y,-z
_cell_length_a                   9.5948(5)
_cell_length_b                   8.3869(4)
_cell_length_c                   9.9592(5)
_cell_angle_alpha                90
_cell_angle_beta                 99.571(2)
_cell_angle_gamma                90
_cell_volume                     790.268
_exptl_crystal_colour            colorless
_exptl_crystal_description       block
_cell_formula_units_Z            4
loop_
_atom_site_label
_atom_site_type_symbol
_atom_site_fract_x
_atom_site_fract_y
_atom_site_fract_z
F1 F 0.4044(3) 0.8104(5) 1.0694(3)
F2 F 0.3405(3) 1.0522(4) 1.0261(3)
F3 F 0.4856(3) 0.9387(4) 0.9130(3)
O1 O 0.0045(3) 0.6175(4) 1.0026(3)
N1 N 0.1277(3) 0.8245(4) 0.9319(3)
H1 H 0.0793 0.8989 0.9619
C1 C 0.0983(3) 0.6693(4) 0.9451(3)
C2 C 0.1984(3) 0.5764(5) 0.8764(4)
C3 C 0.2817(4) 0.6931(5) 0.8085(4)
H2 H 0.2540 0.6886 0.7104
H3 H 0.3820 0.6707 0.8312
C4 C 0.2475(3) 0.8581(5) 0.8632(3)
C5 C 0.2105(5) 0.9815(6) 0.7530(4)
H4 H 0.1399 0.9393 0.6823
H5 H 0.2935 1.0086 0.7158
H6 H 0.1744 1.0752 0.7908
C6 C 0.3695(4) 0.9153(6) 0.9687(4)
C7 C 0.2056(5) 0.4206(6) 0.8778(5)
H7 H 0.1461 0.3617 0.9236
H8 H 0.2703 0.3688 0.8330
F4 F 0.4072(3) 0.2326(4) 0.5719(3)
F5 F 0.3938(3) 0.4872(4) 0.5859(3)
F6 F 0.5148(2) 0.3817(4) 0.4478(3)
O2 O -0.0153(3) 0.1425(4) 0.4785(3)
N2 N 0.1416(3) 0.3384(4) 0.4486(3)
H9 H 0.1048 0.4116 0.4921
C8 C 0.0876(3) 0.1902(5) 0.4333(3)
C9 C 0.1738(3) 0.1001(5) 0.3472(3)
C10 C 0.2704(4) 0.2168(5) 0.2962(4)
H10 H 0.2374 0.2420 0.2011
H11 H 0.3655 0.1742 0.3054
C11 C 0.2670(3) 0.3664(5) 0.3862(3)
C12 C 0.2593(5) 0.5231(6) 0.3102(5)
H12 H 0.1771 0.5240 0.2407
H13 H 0.3424 0.5357 0.2692
H14 H 0.2537 0.6092 0.3726
C13 C 0.3958(4) 0.3667(5) 0.4988(4)
C14 C 0.1606(5) -0.0539(6) 0.3228(5)
H15 H 0.0946 -0.1130 0.3603
H16 H 0.2174 -0.1035 0.2682
loop_
_geom_bond_atom_site_label_1
_geom_bond_atom_site_label_2
_geom_bond_site_symmetry_1
_geom_bond_site_symmetry_2
F1 C6 1_555 1_555
F2 C6 1_555 1_555
F3 C6 1_555 1_555
O1 C1 1_555 1_555
N1 H1 1_555 1_555
C1 N1 1_555 1_555
C2 C1 1_555 1_555
C3 C2 1_555 1_555
H2 C3 1_555 1_555
H3 C3 1_555 1_555
C4 N1 1_555 1_555
C5 C4 1_555 1_555
H4 C5 1_555 1_555
H5 C5 1_555 1_555
H6 C5 1_555 1_555
C6 C4 1_555 1_555
C7 C2 1_555 1_555
H7 C7 1_555 1_555
H8 C7 1_555 1_555
F4 C13 1_555 1_555
F5 C13 1_555 1_555
F6 C13 1_555 1_555
O2 C8 1_555 1_555
N2 H9 1_555 1_555
C8 N2 1_555 1_555
C9 C8 1_555 1_555
C10 C9 1_555 1_555
H10 C10 1_555 1_555
H11 C10 1_555 1_555
C11 N2 1_555 1_555
C12 C11 1_555 1_555
H12 C12 1_555 1_555
H13 C12 1_555 1_555
H14 C12 1_555 1_555
C13 C11 1_555 1_555
C14 C9 1_555 1_555
H15 C14 1_555 1_555
H16 C14 1_555 1_555
C3 C4 1_555 1_555
C10 C11 1_555 1_555

#END
