
#######################################################################
#
#                 Cambridge Crystallographic Data Centre
#                                CCDC 
#
#######################################################################
#
# If this CIF has been generated from an entry in the Cambridge 
# Structural Database, then it will include bibliographic, chemical, 
# crystal, experimental, refinement or atomic coordinate data resulting 
# from the CCDC's data processing and validation procedures.
#
#######################################################################

data_CADYAJ
_chemical_formula_moiety         'C56 H74 S6'
_chemical_name_systematic        
5,5',8,8'-Tetra-n-octyl-2,2'-bibisthieno[2,3-e:2',3'-g][1]benzothiophene
_symmetry_cell_setting           triclinic
_symmetry_space_group_name_H-M   'P -1'
_symmetry_Int_Tables_number      2
_space_group_name_Hall           '-P 1'
loop_
_symmetry_equiv_pos_site_id
_symmetry_equiv_pos_as_xyz
1 x,y,z
2 -x,-y,-z
_cell_length_a                   10.255(5)
_cell_length_b                   15.864(7)
_cell_length_c                   17.626(8)
_cell_angle_alpha                66.049(12)
_cell_angle_beta                 84.591(15)
_cell_angle_gamma                89.059(16)
_cell_volume                     2608.16
_exptl_crystal_colour            yellow
_exptl_crystal_description       block
_cell_formula_units_Z            2
loop_
_atom_site_label
_atom_site_type_symbol
_atom_site_fract_x
_atom_site_fract_y
_atom_site_fract_z
S1 S -0.11919(8) 0.42636(5) 0.08013(5)
S2 S -0.36167(8) 0.74918(5) 0.02915(5)
S3 S -0.01815(8) 0.61689(6) 0.26212(5)
S4 S -0.37182(8) 0.46305(5) -0.11885(5)
S5 S -0.12529(8) 0.14207(6) -0.06469(5)
S6 S -0.45805(8) 0.27387(5) -0.30483(5)
C1 C -0.2315(3) 0.4706(2) 0.00551(17)
C2 C -0.2848(3) 0.5542(2) 0.00125(18)
C3 C -0.2295(3) 0.58208(19) 0.06124(17)
C4 C -0.2549(3) 0.66209(19) 0.07770(17)
C5 C -0.3207(3) 0.8098(2) 0.08755(19)
C6 C -0.2287(3) 0.76485(19) 0.14372(19)
C7 C -0.1921(3) 0.67865(19) 0.13747(17)
C8 C -0.1036(3) 0.6119(2) 0.18360(17)
C9 C 0.0544(3) 0.5112(2) 0.27800(18)
C10 C 0.0163(3) 0.4731(2) 0.22506(18)
C11 C -0.0767(3) 0.53214(19) 0.17067(17)
C12 C -0.1404(3) 0.51880(19) 0.10802(17)
C13 C -0.2593(3) 0.4203(2) -0.04416(18)
C14 C -0.2063(3) 0.3379(2) -0.04068(18)
C15 C -0.2574(3) 0.30897(19) -0.10052(17)
C16 C -0.2300(3) 0.22890(19) -0.11564(17)
C17 C -0.1613(3) 0.0807(2) -0.12354(19)
C18 C -0.2487(3) 0.1254(2) -0.1803(2)
C19 C -0.2883(3) 0.21179(19) -0.17681(18)
C20 C -0.3767(3) 0.27838(19) -0.22443(17)
C21 C -0.5351(3) 0.3777(2) -0.32034(19)
C22 C -0.5011(3) 0.4139(2) -0.26575(19)
C23 C -0.4073(3) 0.35702(19) -0.21090(17)
C24 C -0.3471(3) 0.37104(19) -0.14757(17)
C25 C -0.3841(3) 0.9008(2) 0.0734(2)
C26 C -0.3348(3) 0.9486(2) 0.1243(2)
C27 C -0.4028(3) 1.0381(2) 0.1119(2)
C28 C -0.3488(4) 1.0893(2) 0.1591(2)
C29 C -0.4235(4) 1.1750(2) 0.1538(2)
C30 C -0.3724(4) 1.2207(2) 0.2058(3)
C31 C -0.4515(5) 1.3006(3) 0.2081(3)
C32 C -0.4001(6) 1.3438(4) 0.2619(4)
C33 C 0.1469(3) 0.4735(2) 0.3447(2)
C34 C 0.1969(3) 0.3778(2) 0.3593(2)
C35 C 0.2869(3) 0.3423(2) 0.4291(2)
C36 C 0.3332(3) 0.2447(2) 0.4501(2)
C37 C 0.4245(4) 0.2120(3) 0.5181(2)
C38 C 0.4719(4) 0.1158(3) 0.5407(3)
C39 C 0.5597(5) 0.0839(3) 0.6125(3)
C40 C 0.6096(6) -0.0114(4) 0.6351(4)
C41 C -0.0960(3) -0.0107(2) -0.1056(2)
C42 C -0.1489(3) -0.0670(2) -0.1482(2)
C43 C -0.0803(3) -0.1584(2) -0.1273(2)
C44 C -0.1355(4) -0.2202(3) -0.1650(3)
C45 C -0.1196(5) -0.1840(3) -0.2592(3)
C46 C 0.0202(5) -0.1750(3) -0.2963(3)
C47 C 0.0361(8) -0.1384(6) -0.3891(5)
C48 C 0.1580(10) -0.1195(7) -0.4286(5)
C49 C -0.6282(3) 0.4154(2) -0.3873(2)
C50 C -0.6763(3) 0.5115(2) -0.4033(2)
C51 C -0.7634(3) 0.5464(2) -0.4747(2)
C52 C -0.8164(3) 0.6421(2) -0.4936(2)
C53 C -0.9044(3) 0.6761(2) -0.5644(2)
C54 C -0.9569(4) 0.7715(3) -0.5836(2)
C55 C -1.0504(4) 0.8037(3) -0.6518(2)
C56 C -1.1039(5) 0.8988(3) -0.6691(3)
H1 H -0.3496 0.5881 -0.0352
H2 H -0.1938 0.7878 0.1803
H3 H 0.0453 0.4154 0.2254
H4 H -0.1436 0.3039 -0.0034
H5 H -0.2805 0.1014 -0.2173
H6 H -0.5346 0.4705 -0.2637
H7 H -0.3683 0.9412 0.0150
H8 H -0.4769 0.8909 0.0862
H9 H -0.3468 0.9076 0.1822
H10 H -0.2420 0.9612 0.1095
H11 H -0.3937 1.0780 0.0534
H12 H -0.4942 1.0252 0.1292
H13 H -0.3513 1.0477 0.2172
H14 H -0.2596 1.1069 0.1388
H15 H -0.4175 1.2185 0.0970
H16 H -0.5136 1.1584 0.1726
H17 H -0.3699 1.1759 0.2614
H18 H -0.2843 1.2430 0.1835
H19 H -0.4520 1.3475 0.1523
H20 H -0.5404 1.2800 0.2284
H21 H -0.4008 1.2980 0.3183
H22 H -0.3118 1.3652 0.2423
H23 H -0.4521 1.3936 0.2622
H24 H 0.2198 0.5148 0.3311
H25 H 0.1020 0.4698 0.3969
H26 H 0.1246 0.3360 0.3730
H27 H 0.2444 0.3810 0.3090
H28 H 0.3626 0.3828 0.4134
H29 H 0.2417 0.3450 0.4782
H30 H 0.2580 0.2031 0.4679
H31 H 0.3769 0.2408 0.4013
H32 H 0.4982 0.2534 0.5007
H33 H 0.3795 0.2140 0.5673
H34 H 0.3997 0.0746 0.5547
H35 H 0.5222 0.1143 0.4915
H36 H 0.6334 0.1275 0.5969
H37 H 0.5111 0.0869 0.6600
H38 H 0.5412 -0.0547 0.6503
H39 H 0.6640 -0.0141 0.5877
H40 H 0.6654 -0.0274 0.6798
H41 H -0.0053 0.0004 -0.1221
H42 H -0.1082 -0.0468 -0.0463
H43 H -0.2410 -0.0790 -0.1312
H44 H -0.1383 -0.0317 -0.2071
H45 H 0.0111 -0.1457 -0.1473
H46 H -0.0850 -0.1910 -0.0676
H47 H -0.0930 -0.2789 -0.1433
H48 H -0.2268 -0.2313 -0.1455
H49 H -0.1676 -0.2246 -0.2759
H50 H -0.1595 -0.1247 -0.2813
H51 H 0.0712 -0.1357 -0.2788
H52 H 0.0625 -0.2352 -0.2745
H53 H -0.0083 -0.1819 -0.4037
H54 H -0.0173 -0.0826 -0.4074
H55 H 0.2128 -0.1719 -0.4123
H56 H 0.1606 -0.0930 -0.4885
H57 H 0.2043 -0.0729 -0.4155
H58 H -0.5831 0.4179 -0.4387
H59 H -0.7012 0.3747 -0.3727
H60 H -0.7254 0.5095 -0.3537
H61 H -0.6031 0.5527 -0.4159
H62 H -0.7133 0.5484 -0.5243
H63 H -0.8356 0.5047 -0.4622
H64 H -0.8656 0.6416 -0.4442
H65 H -0.7443 0.6853 -0.5072
H66 H -0.8551 0.6782 -0.6140
H67 H -0.9764 0.6343 -0.5510
H68 H -1.0025 0.7711 -0.5322
H69 H -0.8849 0.8147 -0.5986
H70 H -1.0054 0.8043 -0.7020
H71 H -1.1228 0.7598 -0.6357
H72 H -1.0339 0.9433 -0.6846
H73 H -1.1619 0.9172 -0.7113
H74 H -1.1517 0.8988 -0.6186
loop_
_geom_bond_atom_site_label_1
_geom_bond_atom_site_label_2
_geom_bond_site_symmetry_1
_geom_bond_site_symmetry_2
S1 C1 1_555 1_555
S2 C4 1_555 1_555
S3 C8 1_555 1_555
S4 C13 1_555 1_555
S5 C16 1_555 1_555
S6 C20 1_555 1_555
C1 C2 1_555 1_555
C2 C3 1_555 1_555
C3 C4 1_555 1_555
C4 C7 1_555 1_555
C5 S2 1_555 1_555
C6 C5 1_555 1_555
C7 C6 1_555 1_555
C8 C7 1_555 1_555
C9 S3 1_555 1_555
C10 C9 1_555 1_555
C11 C8 1_555 1_555
C12 S1 1_555 1_555
C13 C1 1_555 1_555
C14 C13 1_555 1_555
C15 C14 1_555 1_555
C16 C15 1_555 1_555
C17 S5 1_555 1_555
C18 C17 1_555 1_555
C19 C16 1_555 1_555
C20 C19 1_555 1_555
C21 S6 1_555 1_555
C22 C21 1_555 1_555
C23 C20 1_555 1_555
C24 S4 1_555 1_555
C25 C5 1_555 1_555
C26 C25 1_555 1_555
C27 C26 1_555 1_555
C28 C27 1_555 1_555
C29 C28 1_555 1_555
C30 C29 1_555 1_555
C31 C30 1_555 1_555
C32 C31 1_555 1_555
C33 C9 1_555 1_555
C34 C33 1_555 1_555
C35 C34 1_555 1_555
C36 C35 1_555 1_555
C37 C36 1_555 1_555
C38 C37 1_555 1_555
C39 C38 1_555 1_555
C40 C39 1_555 1_555
C41 C17 1_555 1_555
C42 C41 1_555 1_555
C43 C42 1_555 1_555
C44 C43 1_555 1_555
C45 C44 1_555 1_555
C46 C45 1_555 1_555
C47 C46 1_555 1_555
C48 C47 1_555 1_555
C49 C21 1_555 1_555
C50 C49 1_555 1_555
C51 C50 1_555 1_555
C52 C51 1_555 1_555
C53 C52 1_555 1_555
C54 C53 1_555 1_555
C55 C54 1_555 1_555
C56 C55 1_555 1_555
H1 C2 1_555 1_555
H2 C6 1_555 1_555
H3 C10 1_555 1_555
H4 C14 1_555 1_555
H5 C18 1_555 1_555
H6 C22 1_555 1_555
H7 C25 1_555 1_555
H8 C25 1_555 1_555
H9 C26 1_555 1_555
H10 C26 1_555 1_555
H11 C27 1_555 1_555
H12 C27 1_555 1_555
H13 C28 1_555 1_555
H14 C28 1_555 1_555
H15 C29 1_555 1_555
H16 C29 1_555 1_555
H17 C30 1_555 1_555
H18 C30 1_555 1_555
H19 C31 1_555 1_555
H20 C31 1_555 1_555
H21 C32 1_555 1_555
H22 C32 1_555 1_555
H23 C32 1_555 1_555
H24 C33 1_555 1_555
H25 C33 1_555 1_555
H26 C34 1_555 1_555
H27 C34 1_555 1_555
H28 C35 1_555 1_555
H29 C35 1_555 1_555
H30 C36 1_555 1_555
H31 C36 1_555 1_555
H32 C37 1_555 1_555
H33 C37 1_555 1_555
H34 C38 1_555 1_555
H35 C38 1_555 1_555
H36 C39 1_555 1_555
H37 C39 1_555 1_555
H38 C40 1_555 1_555
H39 C40 1_555 1_555
H40 C40 1_555 1_555
H41 C41 1_555 1_555
H42 C41 1_555 1_555
H43 C42 1_555 1_555
H44 C42 1_555 1_555
H45 C43 1_555 1_555
H46 C43 1_555 1_555
H47 C44 1_555 1_555
H48 C44 1_555 1_555
H49 C45 1_555 1_555
H50 C45 1_555 1_555
H51 C46 1_555 1_555
H52 C46 1_555 1_555
H53 C47 1_555 1_555
H54 C47 1_555 1_555
H55 C48 1_555 1_555
H56 C48 1_555 1_555
H57 C48 1_555 1_555
H58 C49 1_555 1_555
H59 C49 1_555 1_555
H60 C50 1_555 1_555
H61 C50 1_555 1_555
H62 C51 1_555 1_555
H63 C51 1_555 1_555
H64 C52 1_555 1_555
H65 C52 1_555 1_555
H66 C53 1_555 1_555
H67 C53 1_555 1_555
H68 C54 1_555 1_555
H69 C54 1_555 1_555
H70 C55 1_555 1_555
H71 C55 1_555 1_555
H72 C56 1_555 1_555
H73 C56 1_555 1_555
H74 C56 1_555 1_555
C3 C12 1_555 1_555
C10 C11 1_555 1_555
C11 C12 1_555 1_555
C15 C24 1_555 1_555
C18 C19 1_555 1_555
C22 C23 1_555 1_555
C23 C24 1_555 1_555

#END
