
#######################################################################
#
#                 Cambridge Crystallographic Data Centre
#                                CCDC 
#
#######################################################################
#
# If this CIF has been generated from an entry in the Cambridge 
# Structural Database, then it will include bibliographic, chemical, 
# crystal, experimental, refinement or atomic coordinate data resulting 
# from the CCDC's data processing and validation procedures.
#
#######################################################################

data_CADZOW
_chemical_formula_moiety         'C20 H18 O7'
_chemical_name_systematic        
2-(2',5'-Diacetoxyphenyl)-5-acetoxy-2,3-dihydro-benzofuran
_symmetry_cell_setting           monoclinic
_symmetry_space_group_name_H-M   'P 21/a'
_symmetry_Int_Tables_number      14
_space_group_name_Hall           '-P 2yab'
loop_
_symmetry_equiv_pos_site_id
_symmetry_equiv_pos_as_xyz
1 x,y,z
2 1/2-x,1/2+y,-z
3 -x,-y,-z
4 1/2+x,1/2-y,z
_cell_length_a                   11.094(4)
_cell_length_b                   7.499(4)
_cell_length_c                   23.141(7)
_cell_angle_alpha                90
_cell_angle_beta                 98.70(3)
_cell_angle_gamma                90
_cell_volume                     1903.04
_cell_formula_units_Z            4
loop_
_atom_site_label
_atom_site_type_symbol
_atom_site_fract_x
_atom_site_fract_y
_atom_site_fract_z
C1 C 0.19520 0.09370 0.16670
C2 C 0.16740 -0.04080 0.12660
C3 C 0.05800 -0.02580 0.08890
C4 C -0.01740 0.11720 0.09280
O1 O -0.12450 0.13690 0.05140
C5 C -0.22020 0.04200 0.06110
O2 O -0.21980 -0.05250 0.10260
C6 C -0.32600 0.07570 0.01550
C7 C 0.01120 0.24920 0.13380
C8 C 0.11950 0.23480 0.17130
C9 C 0.17480 0.35000 0.22120
C10 C 0.30370 0.27110 0.23580
O3 O 0.30000 0.09780 0.20640
C11 C 0.34840 0.24040 0.29990
C12 C 0.30010 0.10180 0.32900
C13 C 0.34090 0.07120 0.38680
O4 O 0.28360 -0.06580 0.41400
C14 C 0.34950 -0.21320 0.43180
O5 O 0.45450 -0.22540 0.43070
C15 C 0.27130 -0.35140 0.45260
C16 C 0.42850 0.17670 0.41810
C17 C 0.47670 0.31500 0.38970
C18 C 0.43660 0.34510 0.33180
O6 O 0.49370 0.48200 0.30430
C19 C 0.42900 0.63460 0.29090
O7 O 0.32690 0.65320 0.29900
C20 C 0.50430 0.76490 0.26440
H1 H 0.22110 -0.14010 0.12440
H2 H 0.03430 -0.11630 0.06010
H3 H -0.38350 -0.01980 0.01570
H4 H -0.30010 0.08230 -0.02220
H5 H -0.36480 0.18620 0.02360
H6 H -0.04260 0.34840 0.13600
H7 H 0.17710 0.47300 0.20990
H8 H 0.13100 0.33930 0.25380
H9 H 0.35910 0.35590 0.22320
H10 H 0.23800 0.02660 0.30830
H11 H 0.32010 -0.45120 0.46780
H12 H 0.21190 -0.38980 0.42040
H13 H 0.23050 -0.30240 0.48270
H14 H 0.45530 0.15520 0.45890
H15 H 0.53890 0.38970 0.41050
H16 H 0.45270 0.85140 0.24230
H17 H 0.55170 0.70400 0.23910
H18 H 0.55780 0.82410 0.29500
loop_
_geom_bond_atom_site_label_1
_geom_bond_atom_site_label_2
_geom_bond_site_symmetry_1
_geom_bond_site_symmetry_2
C1 C2 1_555 1_555
C2 C3 1_555 1_555
C3 C4 1_555 1_555
C4 O1 1_555 1_555
O1 C5 1_555 1_555
C5 O2 1_555 1_555
C6 C5 1_555 1_555
C7 C4 1_555 1_555
C8 C1 1_555 1_555
C9 C8 1_555 1_555
C10 C9 1_555 1_555
O3 C1 1_555 1_555
C11 C10 1_555 1_555
C12 C11 1_555 1_555
C13 C12 1_555 1_555
O4 C13 1_555 1_555
C14 O4 1_555 1_555
O5 C14 1_555 1_555
C15 C14 1_555 1_555
C16 C13 1_555 1_555
C17 C16 1_555 1_555
C18 C11 1_555 1_555
O6 C18 1_555 1_555
C19 O6 1_555 1_555
O7 C19 1_555 1_555
C20 C19 1_555 1_555
H1 C2 1_555 1_555
H2 C3 1_555 1_555
H3 C6 1_555 1_555
H4 C6 1_555 1_555
H5 C6 1_555 1_555
H6 C7 1_555 1_555
H7 C9 1_555 1_555
H8 C9 1_555 1_555
H9 C10 1_555 1_555
H10 C12 1_555 1_555
H11 C15 1_555 1_555
H12 C15 1_555 1_555
H13 C15 1_555 1_555
H14 C16 1_555 1_555
H15 C17 1_555 1_555
H16 C20 1_555 1_555
H17 C20 1_555 1_555
H18 C20 1_555 1_555
C7 C8 1_555 1_555
C10 O3 1_555 1_555
C17 C18 1_555 1_555

#END
