
#######################################################################
#
#                 Cambridge Crystallographic Data Centre
#                                CCDC 
#
#######################################################################
#
# If this CIF has been generated from an entry in the Cambridge 
# Structural Database, then it will include bibliographic, chemical, 
# crystal, experimental, refinement or atomic coordinate data resulting 
# from the CCDC's data processing and validation procedures.
#
#######################################################################

data_CAFNEE
_chemical_formula_moiety         'C28 H34 N2 O2,C1 H4 O1,0.17(C1 H2 Cl2)'
_chemical_name_systematic        
'N-Butyl-2-(2-(2-(butylamino)-2-oxoethyl)phenyl)-4-methyl-1-naphthamide dichloromethane methanol solvate'
_symmetry_cell_setting           rhombohedral
_symmetry_space_group_name_H-M   'R -3'
_symmetry_Int_Tables_number      148
_space_group_name_Hall           '-R 3'
loop_
_symmetry_equiv_pos_site_id
_symmetry_equiv_pos_as_xyz
1 x,y,z
2 -y,x-y,z
3 -x+y,-x,z
4 2/3+x,1/3+y,1/3+z
5 2/3-y,1/3+x-y,1/3+z
6 2/3-x+y,1/3-x,1/3+z
7 1/3+x,2/3+y,2/3+z
8 1/3-y,2/3+x-y,2/3+z
9 1/3-x+y,2/3-x,2/3+z
10 -x,-y,-z
11 y,-x+y,-z
12 x-y,x,-z
13 1/3-x,2/3-y,2/3-z
14 1/3+y,2/3-x+y,2/3-z
15 1/3+x-y,2/3+x,2/3-z
16 2/3-x,1/3-y,1/3-z
17 2/3+y,1/3-x+y,1/3-z
18 2/3+x-y,1/3+x,1/3-z
_cell_length_a                   33.679(3)
_cell_length_b                   33.679(3)
_cell_length_c                   13.0553(14)
_cell_angle_alpha                90
_cell_angle_beta                 90
_cell_angle_gamma                120
_cell_volume                     12824.4
_exptl_crystal_colour            colorless
_exptl_crystal_description       prismatic
_cell_formula_units_Z            18
loop_
_atom_site_label
_atom_site_type_symbol
_atom_site_fract_x
_atom_site_fract_y
_atom_site_fract_z
Cl1 Cl 0.3333 0.6667 0.7929(12)
C29 C 0.3333 0.6667 0.6667
Cl1O Cl 0.3334 0.6666 0.5404(12)
O1 O 0.05618(7) 0.41984(7) 0.78615(14)
O2 O 0.17112(7) 0.37162(8) 0.72532(15)
N1 N 0.03139(10) 0.46898(10) 0.7602(2)
N2 N 0.12361(9) 0.39228(9) 0.79622(18)
C1 C 0.10653(9) 0.36078(10) 0.62683(19)
C2 C 0.08002(9) 0.31296(10) 0.6072(2)
C3 C 0.08133(11) 0.28005(12) 0.6729(2)
H2 H 0.1002 0.2898 0.7302
C4 C 0.05532(14) 0.23437(13) 0.6531(3)
H3 H 0.0565 0.2132 0.6970
C5 C 0.02690(14) 0.21916(13) 0.5670(4)
H4 H 0.0096 0.1879 0.5534
C6 C 0.02435(11) 0.24979(13) 0.5027(3)
H5 H 0.0050 0.2390 0.4462
C7 C 0.05047(9) 0.29734(10) 0.5204(2)
C8 C 0.04814(10) 0.32991(11) 0.4545(2)
C9 C 0.07457(10) 0.37472(11) 0.4764(2)
H6 H 0.0734 0.3959 0.4325
C10 C 0.10398(9) 0.39157(9) 0.56231(19)
C11 C 0.13233(10) 0.44234(10) 0.57785(19)
C12 C 0.17946(11) 0.46327(12) 0.5667(2)
H7 H 0.1929 0.4455 0.5530
C13 C 0.20657(13) 0.51006(14) 0.5757(3)
H8 H 0.2382 0.5239 0.5677
C14 C 0.18694(15) 0.53618(12) 0.5963(3)
H9 H 0.2051 0.5678 0.6024
C15 C 0.14049(13) 0.51553(12) 0.6079(2)
H10 H 0.1275 0.5336 0.6220
C16 C 0.11234(10) 0.46891(10) 0.59947(19)
C17 C 0.06172(9) 0.44919(10) 0.61671(19)
H11 H 0.0519 0.4687 0.5839
H12 H 0.0452 0.4191 0.5852
C18 C 0.04996(9) 0.44508(10) 0.7289(2)
C19 C 0.0278(3) 0.4784(3) 0.8702(7)
H13 H 0.0493 0.4739 0.9109
H14 H 0.0345 0.5097 0.8791
C20 C -0.0193(3) 0.4463(2) 0.9023(6)
H15 H -0.0274 0.4157 0.8798
H16 H -0.0208 0.4459 0.9765
C21 C -0.0520(3) 0.4577(3) 0.8619(10)
H17 H -0.0534 0.4533 0.7883
H18 H -0.0404 0.4901 0.8742
C22 C -0.1035(3) 0.4297(3) 0.9061(10)
H19 H -0.1179 0.4480 0.8995
H20 H -0.1026 0.4227 0.9771
H21 H -0.1207 0.4018 0.8682
C23 C 0.13693(10) 0.37600(9) 0.7197(2)
C24 C 0.1468(4) 0.4073(3) 0.8931(6)
H22 H 0.1602 0.3885 0.9096
H23 H 0.1241 0.4018 0.9453
C25 C 0.1829(4) 0.4556(4) 0.8989(10)
H24 H 0.2043 0.4624 0.8428
H25 H 0.1997 0.4607 0.9624
C26 C 0.1638(4) 0.4878(4) 0.8939(12)
H26 H 0.1428 0.4807 0.9507
H27 H 0.1461 0.4814 0.8313
C27 C 0.1982(4) 0.5389(3) 0.8968(9)
H28 H 0.2118 0.5472 0.9636
H29 H 0.1828 0.5557 0.8820
H30 H 0.2216 0.5461 0.8466
C28 C 0.01635(11) 0.31453(11) 0.3625(2)
H31 H -0.0148 0.2961 0.3851
H32 H 0.0241 0.2969 0.3175
H33 H 0.0197 0.3409 0.3267
H37 H 0.0278(8) 0.4879(8) 0.7177(18)
H38 H 0.1001(7) 0.3959(9) 0.787(2)
O3 O 0.2619(11) 0.5820(12) 0.216(3)
H1 H 0.2391 0.5564 0.2202
C30 C 0.266(4) 0.606(3) 0.301(4)
H34 H 0.2528 0.6255 0.2877
H35 H 0.2973 0.6246 0.3188
H36 H 0.2492 0.5855 0.3556
C31? C 0.0039(5) 0.4521(7) 0.8533(11)
C32? C -0.0392(6) 0.4512(8) 0.8594(13)
C33? C -0.0650(4) 0.4404(4) 0.9586(7)
C34? C -0.1040(5) 0.4465(6) 0.9644(13)
C35? C 0.1526(11) 0.4063(10) 0.8857(18)
C36? C 0.1568(6) 0.4495(6) 0.9222(12)
C37? C 0.1871(5) 0.4873(5) 0.8565(9)
C38? C 0.2140(10) 0.5274(8) 0.933(2)
H39? H -0.0022 0.4210 0.8648
H40? H 0.0227 0.4705 0.9099
H41? H -0.0595 0.4291 0.8094
H42? H -0.0337 0.4810 0.8372
H43? H -0.0751 0.4087 0.9755
H44? H -0.0436 0.4592 1.0115
H45? H -0.1242 0.4310 0.9081
H46? H -0.0941 0.4786 0.9614
H47? H -0.1199 0.4340 1.0278
H48? H 0.1826 0.4108 0.8685
H49? H 0.1392 0.3830 0.9385
H50? H 0.1267 0.4468 0.9232
H51? H 0.1687 0.4555 0.9916
H52? H 0.1698 0.4946 0.8082
H53? H 0.2076 0.4802 0.8189
H54? H 0.2036 0.5491 0.9272
H55? H 0.2461 0.5423 0.9175
H56? H 0.2089 0.5156 1.0016
loop_
_geom_bond_atom_site_label_1
_geom_bond_atom_site_label_2
_geom_bond_site_symmetry_1
_geom_bond_site_symmetry_2
Cl1 C29 1_555 1_555
O1 C18 1_555 1_555
O2 C23 1_555 1_555
O3 H1 1_555 1_555
N1 C18 1_555 1_555
N2 C23 1_555 1_555
C1 C2 1_555 1_555
C2 C3 1_555 1_555
C3 H2 1_555 1_555
C4 C3 1_555 1_555
H3 C4 1_555 1_555
C5 C4 1_555 1_555
H4 C5 1_555 1_555
C6 C5 1_555 1_555
H5 C6 1_555 1_555
C7 C2 1_555 1_555
C8 C7 1_555 1_555
C9 C8 1_555 1_555
H6 C9 1_555 1_555
C10 C1 1_555 1_555
C11 C10 1_555 1_555
C12 C11 1_555 1_555
H7 C12 1_555 1_555
C13 C12 1_555 1_555
H8 C13 1_555 1_555
C14 C13 1_555 1_555
H9 C14 1_555 1_555
C15 C14 1_555 1_555
H10 C15 1_555 1_555
C16 C11 1_555 1_555
C17 C16 1_555 1_555
H11 C17 1_555 1_555
H12 C17 1_555 1_555
C18 C17 1_555 1_555
C19 N1 1_555 1_555
H13 C19 1_555 1_555
H14 C19 1_555 1_555
C20 C19 1_555 1_555
H15 C20 1_555 1_555
H16 C20 1_555 1_555
C21 C20 1_555 1_555
H17 C21 1_555 1_555
H18 C21 1_555 1_555
C22 C21 1_555 1_555
H19 C22 1_555 1_555
H20 C22 1_555 1_555
H21 C22 1_555 1_555
C23 C1 1_555 1_555
C24 N2 1_555 1_555
H22 C24 1_555 1_555
H23 C24 1_555 1_555
C25 C24 1_555 1_555
H24 C25 1_555 1_555
H25 C25 1_555 1_555
C26 C25 1_555 1_555
H26 C26 1_555 1_555
H27 C26 1_555 1_555
C27 C26 1_555 1_555
H28 C27 1_555 1_555
H29 C27 1_555 1_555
H30 C27 1_555 1_555
C28 C8 1_555 1_555
H31 C28 1_555 1_555
H32 C28 1_555 1_555
H33 C28 1_555 1_555
C29 Cl1O 1_555 1_555
C30 O3 1_555 1_555
H34 C30 1_555 1_555
H35 C30 1_555 1_555
H36 C30 1_555 1_555
H37 N1 1_555 1_555
H38 N2 1_555 1_555
C6 C7 1_555 1_555
C9 C10 1_555 1_555
C15 C16 1_555 1_555

#END
