
#######################################################################
#
#                 Cambridge Crystallographic Data Centre
#                                CCDC 
#
#######################################################################
#
# If this CIF has been generated from an entry in the Cambridge 
# Structural Database, then it will include bibliographic, chemical, 
# crystal, experimental, refinement or atomic coordinate data resulting 
# from the CCDC's data processing and validation procedures.
#
#######################################################################

data_CAFPUW
_chemical_formula_moiety         'C110 H108 O12'
_chemical_name_systematic        
'(4b,8b,12b,12d-Tetramethyl-4b,8b,12b,12d-tetrahydrodibenzo[2,3:4,5]pentaleno[1,6-ab]indene-2,3,6,7,10,11-hexayl)hexakis(ethyne-2,1-diyl-4-t-butyl-2,1-phenylene) hexa-acetate'
_symmetry_cell_setting           rhombohedral
_symmetry_space_group_name_H-M   'R -3'
_symmetry_Int_Tables_number      148
_space_group_name_Hall           '-R 3'
loop_
_symmetry_equiv_pos_site_id
_symmetry_equiv_pos_as_xyz
1 x,y,z
2 -y,x-y,z
3 -x+y,-x,z
4 2/3+x,1/3+y,1/3+z
5 2/3-y,1/3+x-y,1/3+z
6 2/3-x+y,1/3-x,1/3+z
7 1/3+x,2/3+y,2/3+z
8 1/3-y,2/3+x-y,2/3+z
9 1/3-x+y,2/3-x,2/3+z
10 -x,-y,-z
11 y,-x+y,-z
12 x-y,x,-z
13 1/3-x,2/3-y,2/3-z
14 1/3+y,2/3-x+y,2/3-z
15 1/3+x-y,2/3+x,2/3-z
16 2/3-x,1/3-y,1/3-z
17 2/3+y,1/3-x+y,1/3-z
18 2/3+x-y,1/3+x,1/3-z
_cell_length_a                   24.7970(18)
_cell_length_b                   24.7970(18)
_cell_length_c                   26.391(3)
_cell_angle_alpha                90
_cell_angle_beta                 90
_cell_angle_gamma                120
_cell_volume                     14053.5
_exptl_crystal_colour            yellow
_exptl_crystal_description       block
_cell_formula_units_Z            6
loop_
_atom_site_label
_atom_site_type_symbol
_atom_site_fract_x
_atom_site_fract_y
_atom_site_fract_z
C1 C 0.7511(2) 0.2989(2) 0.04311(17)
H1 H 0.7761 0.3356 0.0232
H2 H 0.7237 0.2654 0.0213
H3 H 0.7777 0.2876 0.0610
C2 C 0.71231(17) 0.31223(18) 0.08147(14)
C3 C 0.6667 0.3333 0.0587(2)
C4 C 0.6667 0.3333 0.0001(3)
H4 H 0.7078 0.3618 -0.0120
C5 C 0.67102(17) 0.25515(17) 0.11261(15)
C6 C 0.61068(17) 0.24418(17) 0.11393(15)
C7 C 0.56557(19) 0.1934(2) 0.14163(17)
H5 H 0.5249 0.1858 0.1427
C8 C 0.58103(19) 0.15433(19) 0.16747(17)
C9 C 0.6419(2) 0.16519(19) 0.16495(16)
C10 C 0.68685(18) 0.21693(18) 0.13751(16)
H6 H 0.7277 0.2251 0.1364
C11 C 0.5340(2) 0.1017(2) 0.1952(2)
C12 C 0.4943(3) 0.0583(3) 0.2162(2)
C13 C 0.4467(2) 0.0045(3) 0.2431(3)
C14 C 0.4469(3) 0.0027(3) 0.2951(3)
C15 C 0.4012(3) -0.0490(3) 0.3211(2)
H7 H 0.4009 -0.0497 0.3563
C16 C 0.3566(3) -0.0989(3) 0.2942(3)
H8 H 0.3273 -0.1338 0.3119
C17 C 0.3535(2) -0.0995(2) 0.2425(3)
C18 C 0.4004(3) -0.0461(3) 0.2172(2)
H9 H 0.4000 -0.0450 0.1820
C19 C 0.4924(4) 0.1056(3) 0.3263(3)
C20 C 0.5485(3) 0.1529(3) 0.3534(3)
H10 H 0.5630 0.1929 0.3380
H11 H 0.5805 0.1420 0.3515
H12 H 0.5383 0.1545 0.3882
C21 C 0.3054(3) -0.1530(3) 0.2139(3)
C22 C 0.3094(4) -0.2123(4) 0.2257(3)
H13 H 0.2912 -0.2414 0.1983
H14 H 0.2872 -0.2309 0.2564
H15 H 0.3522 -0.2011 0.2296
C23 C 0.2399(4) -0.1699(4) 0.2291(4)
H16 H 0.2341 -0.1349 0.2233
H17 H 0.2337 -0.1808 0.2644
H18 H 0.2104 -0.2047 0.2092
C24 C 0.3067(4) -0.1479(4) 0.1580(3)
H19 H 0.2909 -0.1211 0.1480
H20 H 0.2813 -0.1884 0.1434
H21 H 0.3488 -0.1307 0.1462
C25 C 0.65568(19) 0.1210(2) 0.19001(18)
C26 C 0.66206(19) 0.0823(2) 0.20904(19)
C27 C 0.6646(2) 0.0312(2) 0.23337(19)
C28 C 0.7029(2) 0.0103(2) 0.21501(19)
C29 C 0.7035(2) -0.0391(2) 0.2366(2)
H22 H 0.7298 -0.0527 0.2243
C30 C 0.6644(2) -0.0692(2) 0.2774(2)
H23 H 0.6646 -0.1034 0.2916
C31 C 0.6251(2) -0.0500(2) 0.29753(19)
C32 C 0.6263(2) 0.0007(2) 0.27495(19)
H24 H 0.6008 0.0152 0.2877
C33 C 0.7967(3) 0.0736(3) 0.1736(2)
C34 C 0.8254(3) 0.0973(3) 0.1232(2)
H25 H 0.8052 0.1170 0.1069
H26 H 0.8208 0.0632 0.1027
H27 H 0.8689 0.1270 0.1273
C35 C 0.5831(3) -0.0828(3) 0.3422(3)
C36 C 0.6152(4) -0.0500(4) 0.3903(3)
H28 H 0.6302 -0.0062 0.3869
H29 H 0.6496 -0.0566 0.3968
H30 H 0.5863 -0.0663 0.4180
C37 C 0.5644(4) -0.1491(3) 0.3475(3)
H31 H 0.5499 -0.1627 0.3814
H32 H 0.5995 -0.1544 0.3407
H33 H 0.5316 -0.1734 0.3239
C38 C 0.5276(4) -0.0740(4) 0.3444(3)
H34 H 0.5015 -0.0936 0.3155
H35 H 0.5412 -0.0304 0.3443
H36 H 0.5046 -0.0926 0.3749
O1 O 0.49384(18) 0.0512(2) 0.32320(15)
O2 O 0.4522(2) 0.1119(2) 0.30856(19)
O3 O 0.73553(17) 0.03625(16) 0.17080(13)
O4 O 0.82454(17) 0.08384(18) 0.21269(16)
C1A C 0.7011(2) 0.4522(3) 0.04311(17)
C1B C 0.5478(3) 0.2489(2) 0.04311(17)
H1A H 0.6644 0.4405 0.0232
H1B H 0.5595 0.2239 0.0232
H2A H 0.7346 0.4583 0.0213
H2B H 0.5417 0.2763 0.0213
H3A H 0.7124 0.4901 0.0610
H3B H 0.5099 0.2223 0.0610
C2A C 0.68777(18) 0.40008(25) 0.08147(14)
C2B C 0.59992(25) 0.28769(17) 0.08147(14)
H4A H 0.6382 0.3460 -0.0120
H4B H 0.6540 0.2922 -0.0120
C5A C 0.74485(17) 0.41587(24) 0.11261(15)
C5B C 0.58413(24) 0.32898(17) 0.11261(15)
C6A C 0.75582(17) 0.36650(24) 0.11393(15)
C6B C 0.63350(24) 0.38932(17) 0.11393(15)
C7A C 0.8066(2) 0.37217(28) 0.14163(17)
C7B C 0.62783(28) 0.43443(19) 0.14163(17)
H5A H 0.8142 0.3391 0.1427
H5B H 0.6609 0.4751 0.1427
C8A C 0.84567(19) 0.42670(27) 0.16747(17)
C8B C 0.57330(27) 0.41897(19) 0.16747(17)
C9A C 0.83481(19) 0.47671(28) 0.16495(16)
C9B C 0.52329(28) 0.3581(2) 0.16495(16)
C10A C 0.78307(18) 0.46992(25) 0.13751(16)
C10B C 0.53008(25) 0.31315(18) 0.13751(16)
H6A H 0.7749 0.5026 0.1364
H6B H 0.4974 0.2723 0.1364
C11A C 0.8983(2) 0.4323(3) 0.1952(2)
C11B C 0.5677(3) 0.4660(2) 0.1952(2)
C12A C 0.9417(3) 0.4360(4) 0.2162(2)
C12B C 0.5640(4) 0.5057(3) 0.2162(2)
C13A C 0.9955(3) 0.4422(4) 0.2431(3)
C13B C 0.5578(4) 0.5533(2) 0.2431(3)
C14A C 0.9973(3) 0.4442(4) 0.2951(3)
C14B C 0.5558(4) 0.5531(3) 0.2951(3)
C15A C 1.0490(3) 0.4502(4) 0.3211(2)
C15B C 0.5498(4) 0.5988(3) 0.3211(2)
H7A H 1.0497 0.4506 0.3563
H7B H 0.5494 0.5991 0.3563
C16A C 1.0989(3) 0.4555(4) 0.2942(3)
C16B C 0.5445(4) 0.6434(3) 0.2942(3)
H8A H 1.1338 0.4611 0.3119
H8B H 0.5389 0.6727 0.3119
C17A C 1.0995(2) 0.4530(3) 0.2425(3)
C17B C 0.5470(3) 0.6465(2) 0.2425(3)
C18A C 1.0461(3) 0.4465(4) 0.2172(2)
C18B C 0.5535(4) 0.5996(3) 0.2172(2)
H9A H 1.0450 0.4450 0.1820
H9B H 0.5550 0.6000 0.1820
C19A C 0.8944(3) 0.3868(5) 0.3263(3)
C19B C 0.6132(5) 0.5076(4) 0.3263(3)
C20A C 0.8471(3) 0.3956(4) 0.3534(3)
C20B C 0.6044(4) 0.4515(3) 0.3534(3)
H10A H 0.8071 0.3701 0.3380
H10B H 0.6299 0.4370 0.3380
H11A H 0.8580 0.4385 0.3515
H11B H 0.5615 0.4195 0.3515
H12A H 0.8455 0.3838 0.3882
H12B H 0.6162 0.4617 0.3882
C21A C 1.1530(3) 0.4584(4) 0.2139(3)
C21B C 0.5416(4) 0.6946(3) 0.2139(3)
C22A C 1.2123(4) 0.5217(6) 0.2257(3)
C22B C 0.4783(6) 0.6906(4) 0.2257(3)
H13A H 1.2414 0.5326 0.1983
H13B H 0.4674 0.7088 0.1983
H14A H 1.2309 0.5181 0.2564
H14B H 0.4819 0.7128 0.2564
H15A H 1.2011 0.5533 0.2296
H15B H 0.4467 0.6478 0.2296
C23A C 1.1699(4) 0.4098(6) 0.2291(4)
C23B C 0.5902(6) 0.7601(4) 0.2291(4)
H16A H 1.1349 0.3690 0.2233
H16B H 0.6310 0.7659 0.2233
H17A H 1.1808 0.4145 0.2644
H17B H 0.5855 0.7663 0.2644
H18A H 1.2047 0.4151 0.2092
H18B H 0.5849 0.7896 0.2092
C24A C 1.1479(4) 0.4546(6) 0.1580(3)
C24B C 0.5454(6) 0.6933(4) 0.1580(3)
H19A H 1.1211 0.4120 0.1480
H19B H 0.5880 0.7091 0.1480
H20A H 1.1884 0.4697 0.1434
H20B H 0.5303 0.7187 0.1434
H21A H 1.1307 0.4795 0.1462
H21B H 0.5205 0.6512 0.1462
C25A C 0.8790(2) 0.53468(28) 0.19001(18)
C25B C 0.46532(28) 0.34432(19) 0.19001(18)
C26A C 0.9177(2) 0.57976(28) 0.20904(19)
C26B C 0.42024(28) 0.33794(19) 0.20904(19)
C27A C 0.9688(2) 0.6334(3) 0.23337(19)
C27B C 0.3666(3) 0.3354(2) 0.23337(19)
C28A C 0.9897(2) 0.6926(3) 0.21501(19)
C28B C 0.3074(3) 0.2971(2) 0.21501(19)
C29A C 1.0391(2) 0.7426(3) 0.2366(2)
C29B C 0.2574(3) 0.2965(2) 0.2366(2)
H22A H 1.0527 0.7825 0.2243
H22B H 0.2175 0.2702 0.2243
C30A C 1.0692(2) 0.7336(3) 0.2774(2)
C30B C 0.2664(3) 0.3356(2) 0.2774(2)
H23A H 1.1034 0.7680 0.2916
H23B H 0.2320 0.3354 0.2916
C31A C 1.0500(2) 0.6751(3) 0.29753(19)
C31B C 0.3249(3) 0.3749(2) 0.29753(19)
C32A C 0.9993(2) 0.6256(3) 0.27495(19)
C32B C 0.3744(3) 0.3737(2) 0.27495(19)
H24A H 0.9848 0.5856 0.2877
H24B H 0.4144 0.3992 0.2877
C33A C 0.9264(3) 0.7231(4) 0.1736(2)
C33B C 0.2769(4) 0.2033(3) 0.1736(2)
C34A C 0.9027(3) 0.7281(4) 0.1232(2)
C34B C 0.2719(4) 0.1746(3) 0.1232(2)
H25A H 0.8830 0.6882 0.1069
H25B H 0.3118 0.1948 0.1069
H26A H 0.9368 0.7576 0.1027
H26B H 0.2424 0.1792 0.1027
H27A H 0.8730 0.7419 0.1273
H27B H 0.2581 0.1311 0.1273
C35A C 1.0828(3) 0.6659(4) 0.3422(3)
C35B C 0.3341(4) 0.4169(3) 0.3422(3)
C36A C 1.0500(4) 0.6652(6) 0.3903(3)
C36B C 0.3348(6) 0.3848(4) 0.3903(3)
H28A H 1.0062 0.6364 0.3869
H28B H 0.3636 0.3698 0.3869
H29A H 1.0566 0.7062 0.3968
H29B H 0.2938 0.3504 0.3968
H30A H 1.0663 0.6526 0.4180
H30B H 0.3474 0.4137 0.4180
C37A C 1.1491(3) 0.7135(5) 0.3475(3)
C37B C 0.2865(5) 0.4356(4) 0.3475(3)
H31A H 1.1627 0.7126 0.3814
H31B H 0.2874 0.4501 0.3814
H32A H 1.1544 0.7539 0.3407
H32B H 0.2461 0.4005 0.3407
H33A H 1.1734 0.7050 0.3239
H33B H 0.2950 0.4684 0.3239
C38A C 1.0740(4) 0.6016(6) 0.3444(3)
C38B C 0.3984(6) 0.4724(4) 0.3444(3)
H34A H 1.0936 0.5951 0.3155
H34B H 0.4049 0.4985 0.3155
H35A H 1.0304 0.5716 0.3443
H35B H 0.4284 0.4588 0.3443
H36A H 1.0926 0.5972 0.3749
H36B H 0.4028 0.4954 0.3749
O1A O 0.9488(2) 0.44264(27) 0.32320(15)
O1B O 0.55736(27) 0.50616(18) 0.32320(15)
O2A O 0.8881(2) 0.3403(3) 0.30856(19)
O2B O 0.6597(3) 0.5478(2) 0.30856(19)
O3A O 0.96375(16) 0.69928(23) 0.17080(13)
O3B O 0.30072(23) 0.26447(17) 0.17080(13)
O4A O 0.91616(18) 0.74070(25) 0.21269(16)
O4B O 0.25930(25) 0.17546(17) 0.21269(16)
loop_
_geom_bond_atom_site_label_1
_geom_bond_atom_site_label_2
_geom_bond_site_symmetry_1
_geom_bond_site_symmetry_2
C1 H1 1_555 1_555
H2 C1 1_555 1_555
H3 C1 1_555 1_555
C2 C1 1_555 1_555
C3 C2 1_555 1_555
C4 C3 1_555 1_555
H4 C4 1_555 1_555
C5 C2 1_555 1_555
C6 C5 1_555 1_555
C7 C6 1_555 1_555
H5 C7 1_555 1_555
C8 C7 1_555 1_555
C9 C8 1_555 1_555
C10 C5 1_555 1_555
H6 C10 1_555 1_555
C11 C8 1_555 1_555
C12 C11 1_555 1_555
C13 C12 1_555 1_555
C14 C13 1_555 1_555
C15 C14 1_555 1_555
H7 C15 1_555 1_555
C16 C15 1_555 1_555
H8 C16 1_555 1_555
C17 C16 1_555 1_555
C18 C13 1_555 1_555
H9 C18 1_555 1_555
C19 C20 1_555 1_555
C20 H10 1_555 1_555
H11 C20 1_555 1_555
H12 C20 1_555 1_555
C21 C17 1_555 1_555
C22 C21 1_555 1_555
H13 C22 1_555 1_555
H14 C22 1_555 1_555
H15 C22 1_555 1_555
C23 C21 1_555 1_555
H16 C23 1_555 1_555
H17 C23 1_555 1_555
H18 C23 1_555 1_555
C24 C21 1_555 1_555
H19 C24 1_555 1_555
H20 C24 1_555 1_555
H21 C24 1_555 1_555
C25 C9 1_555 1_555
C26 C25 1_555 1_555
C27 C26 1_555 1_555
C28 C27 1_555 1_555
C29 C28 1_555 1_555
H22 C29 1_555 1_555
C30 C29 1_555 1_555
H23 C30 1_555 1_555
C31 C30 1_555 1_555
C32 C27 1_555 1_555
H24 C32 1_555 1_555
C33 C34 1_555 1_555
C34 H25 1_555 1_555
H26 C34 1_555 1_555
H27 C34 1_555 1_555
C35 C31 1_555 1_555
C36 C35 1_555 1_555
H28 C36 1_555 1_555
H29 C36 1_555 1_555
H30 C36 1_555 1_555
C37 C35 1_555 1_555
H31 C37 1_555 1_555
H32 C37 1_555 1_555
H33 C37 1_555 1_555
C38 C35 1_555 1_555
H34 C38 1_555 1_555
H35 C38 1_555 1_555
H36 C38 1_555 1_555
O1 C14 1_555 1_555
O2 C19 1_555 1_555
O3 C28 1_555 1_555
O4 C33 1_555 1_555
C1A H1A 1_555 1_555
C1B H1B 1_555 1_555
H2A C1A 1_555 1_555
H2B C1B 1_555 1_555
H3A C1A 1_555 1_555
H3B C1B 1_555 1_555
C2A C3 1_555 1_555
C2B C3 1_555 1_555
H4A C4 1_555 1_555
H4B C4 1_555 1_555
C5A C2A 1_555 1_555
C5B C2B 1_555 1_555
C6A C2 1_555 1_555
C6B C2A 1_555 1_555
C7A C6A 1_555 1_555
C7B C6B 1_555 1_555
H5A C7A 1_555 1_555
H5B C7B 1_555 1_555
C8A C7A 1_555 1_555
C8B C7B 1_555 1_555
C9A C8A 1_555 1_555
C9B C8B 1_555 1_555
C10A C5A 1_555 1_555
C10B C5B 1_555 1_555
H6A C10A 1_555 1_555
H6B C10B 1_555 1_555
C11A C8A 1_555 1_555
C11B C8B 1_555 1_555
C12A C11A 1_555 1_555
C12B C11B 1_555 1_555
C13A C12A 1_555 1_555
C13B C12B 1_555 1_555
C14A C13A 1_555 1_555
C14B C13B 1_555 1_555
C15A C14A 1_555 1_555
C15B C14B 1_555 1_555
H7A C15A 1_555 1_555
H7B C15B 1_555 1_555
C16A C15A 1_555 1_555
C16B C15B 1_555 1_555
H8A C16A 1_555 1_555
H8B C16B 1_555 1_555
C17A C16A 1_555 1_555
C17B C16B 1_555 1_555
C18A C13A 1_555 1_555
C18B C13B 1_555 1_555
H9A C18A 1_555 1_555
H9B C18B 1_555 1_555
C19A C20A 1_555 1_555
C19B C20B 1_555 1_555
C20A H10A 1_555 1_555
C20B H10B 1_555 1_555
H11A C20A 1_555 1_555
H11B C20B 1_555 1_555
H12A C20A 1_555 1_555
H12B C20B 1_555 1_555
C21A C17A 1_555 1_555
C21B C17B 1_555 1_555
C22A C21A 1_555 1_555
C22B C21B 1_555 1_555
H13A C22A 1_555 1_555
H13B C22B 1_555 1_555
H14A C22A 1_555 1_555
H14B C22B 1_555 1_555
H15A C22A 1_555 1_555
H15B C22B 1_555 1_555
C23A C21A 1_555 1_555
C23B C21B 1_555 1_555
H16A C23A 1_555 1_555
H16B C23B 1_555 1_555
H17A C23A 1_555 1_555
H17B C23B 1_555 1_555
H18A C23A 1_555 1_555
H18B C23B 1_555 1_555
C24A C21A 1_555 1_555
C24B C21B 1_555 1_555
H19A C24A 1_555 1_555
H19B C24B 1_555 1_555
H20A C24A 1_555 1_555
H20B C24B 1_555 1_555
H21A C24A 1_555 1_555
H21B C24B 1_555 1_555
C25A C9A 1_555 1_555
C25B C9B 1_555 1_555
C26A C25A 1_555 1_555
C26B C25B 1_555 1_555
C27A C26A 1_555 1_555
C27B C26B 1_555 1_555
C28A C27A 1_555 1_555
C28B C27B 1_555 1_555
C29A C28A 1_555 1_555
C29B C28B 1_555 1_555
H22A C29A 1_555 1_555
H22B C29B 1_555 1_555
C30A C29A 1_555 1_555
C30B C29B 1_555 1_555
H23A C30A 1_555 1_555
H23B C30B 1_555 1_555
C31A C30A 1_555 1_555
C31B C30B 1_555 1_555
C32A C27A 1_555 1_555
C32B C27B 1_555 1_555
H24A C32A 1_555 1_555
H24B C32B 1_555 1_555
C33A C34A 1_555 1_555
C33B C34B 1_555 1_555
C34A H25A 1_555 1_555
C34B H25B 1_555 1_555
H26A C34A 1_555 1_555
H26B C34B 1_555 1_555
H27A C34A 1_555 1_555
H27B C34B 1_555 1_555
C35A C31A 1_555 1_555
C35B C31B 1_555 1_555
C36A C35A 1_555 1_555
C36B C35B 1_555 1_555
H28A C36A 1_555 1_555
H28B C36B 1_555 1_555
H29A C36A 1_555 1_555
H29B C36B 1_555 1_555
H30A C36A 1_555 1_555
H30B C36B 1_555 1_555
C37A C35A 1_555 1_555
C37B C35B 1_555 1_555
H31A C37A 1_555 1_555
H31B C37B 1_555 1_555
H32A C37A 1_555 1_555
H32B C37B 1_555 1_555
H33A C37A 1_555 1_555
H33B C37B 1_555 1_555
C38A C35A 1_555 1_555
C38B C35B 1_555 1_555
H34A C38A 1_555 1_555
H34B C38B 1_555 1_555
H35A C38A 1_555 1_555
H35B C38B 1_555 1_555
H36A C38A 1_555 1_555
H36B C38B 1_555 1_555
O1A C14A 1_555 1_555
O1B C14B 1_555 1_555
O2A C19A 1_555 1_555
O2B C19B 1_555 1_555
O3A C28A 1_555 1_555
O3B C28B 1_555 1_555
O4A C33A 1_555 1_555
O4B C33B 1_555 1_555
C6 C2B 1_555 1_555
C9 C10 1_555 1_555
C17 C18 1_555 1_555
C19 O1 1_555 1_555
C31 C32 1_555 1_555
C33 O3 1_555 1_555
C1A C2A 1_555 1_555
C1B C2B 1_555 1_555
C5A C6A 1_555 1_555
C5B C6B 1_555 1_555
C9A C10A 1_555 1_555
C9B C10B 1_555 1_555
C17A C18A 1_555 1_555
C17B C18B 1_555 1_555
C19A O1A 1_555 1_555
C19B O1B 1_555 1_555
C31A C32A 1_555 1_555
C31B C32B 1_555 1_555
C33A O3A 1_555 1_555
C33B O3B 1_555 1_555

#END
