
#######################################################################
#
#                 Cambridge Crystallographic Data Centre
#                                CCDC 
#
#######################################################################
#
# If this CIF has been generated from an entry in the Cambridge 
# Structural Database, then it will include bibliographic, chemical, 
# crystal, experimental, refinement or atomic coordinate data resulting 
# from the CCDC's data processing and validation procedures.
#
#######################################################################

data_CAGMOP
_chemical_formula_moiety         'C33 H20 O1'
_chemical_name_systematic        spiro[dibenzo[c,h]xanthene-7,9'-fluorene]
_symmetry_cell_setting           monoclinic
_symmetry_space_group_name_H-M   'P 21/c'
_symmetry_Int_Tables_number      14
_space_group_name_Hall           '-P 2ybc'
loop_
_symmetry_equiv_pos_site_id
_symmetry_equiv_pos_as_xyz
1 x,y,z
2 -x,1/2+y,1/2-z
3 -x,-y,-z
4 x,1/2-y,1/2+z
_cell_length_a                   12.4326(14)
_cell_length_b                   23.348(3)
_cell_length_c                   7.5811(9)
_cell_angle_alpha                90
_cell_angle_beta                 104.325(3)
_cell_angle_gamma                90
_cell_volume                     2132.19
_exptl_crystal_colour            colorless
_exptl_crystal_description       flake
_cell_formula_units_Z            4
loop_
_atom_site_label
_atom_site_type_symbol
_atom_site_fract_x
_atom_site_fract_y
_atom_site_fract_z
C1 C 0.34723(13) 0.36083(7) 0.3577(2)
C2 C 0.31370(14) 0.33730(7) 0.5026(2)
H1 H 0.2423 0.3437 0.5161
C3 C 0.38808(16) 0.30408(8) 0.6278(3)
H2 H 0.3662 0.2879 0.7254
C4 C 0.49467(16) 0.29485(8) 0.6087(3)
H3 H 0.5435 0.2724 0.6936
C5 C 0.52942(14) 0.31866(8) 0.4647(3)
H4 H 0.6012 0.3125 0.4528
C6 C 0.45512(13) 0.35186(7) 0.3381(2)
C7 C 0.46672(13) 0.38170(7) 0.1734(2)
C8 C 0.36646(13) 0.40895(7) 0.0924(2)
C9 C 0.35525(15) 0.44075(8) -0.0645(2)
H5 H 0.2886 0.4590 -0.1175
C10 C 0.44505(17) 0.44496(8) -0.1417(3)
H6 H 0.4383 0.4660 -0.2480
C11 C 0.54462(16) 0.41822(8) -0.0627(3)
H7 H 0.6041 0.4217 -0.1159
C12 C 0.55650(15) 0.38636(8) 0.0949(3)
H8 H 0.6234 0.3683 0.1476
C13 C 0.27954(12) 0.39764(7) 0.2010(2)
C14 C 0.18160(12) 0.36372(6) 0.0904(2)
C15 C 0.20030(13) 0.31319(7) -0.0016(2)
H9 H 0.2729 0.3022 0.0037
C16 C 0.11561(14) 0.28046(7) -0.0971(2)
H10 H 0.1307 0.2481 -0.1581
C17 C 0.00392(13) 0.29544(6) -0.1042(2)
C18 C -0.08621(14) 0.26155(7) -0.1973(2)
H11 H -0.0728 0.2285 -0.2570
C19 C -0.19258(15) 0.27655(8) -0.2011(3)
H12 H -0.2511 0.2536 -0.2622
C20 C -0.21433(14) 0.32652(8) -0.1133(3)
H13 H -0.2873 0.3364 -0.1169
C21 C -0.12939(13) 0.36084(7) -0.0225(2)
H14 H -0.1449 0.3940 0.0348
C22 C -0.01799(12) 0.34600(6) -0.0154(2)
C23 C 0.07406(12) 0.37955(6) 0.0788(2)
C24 C 0.23939(13) 0.45254(7) 0.2703(2)
C25 C 0.31765(14) 0.49253(7) 0.3695(3)
H15 H 0.3930 0.4853 0.3861
C26 C 0.28520(15) 0.54108(8) 0.4406(3)
H16 H 0.3385 0.5662 0.5060
C27 C 0.17126(15) 0.55392(7) 0.4163(2)
C28 C 0.13314(17) 0.60358(7) 0.4896(3)
H17 H 0.1846 0.6291 0.5572
C29 C 0.02301(17) 0.61463(8) 0.4632(3)
H18 H -0.0001 0.6473 0.5134
C30 C -0.05559(16) 0.57707(7) 0.3607(2)
H19 H -0.1308 0.5851 0.3425
C31 C -0.02301(14) 0.52858(7) 0.2869(2)
H20 H -0.0761 0.5040 0.2183
C32 C 0.09062(13) 0.51561(6) 0.3141(2)
C33 C 0.12914(13) 0.46478(6) 0.2453(2)
O1 O 0.04546(9) 0.42891(5) 0.15528(16)
loop_
_geom_bond_atom_site_label_1
_geom_bond_atom_site_label_2
_geom_bond_site_symmetry_1
_geom_bond_site_symmetry_2
C1 C2 1_555 1_555
C2 H1 1_555 1_555
C3 C2 1_555 1_555
H2 C3 1_555 1_555
C4 C3 1_555 1_555
H3 C4 1_555 1_555
C5 C4 1_555 1_555
H4 C5 1_555 1_555
C6 C1 1_555 1_555
C7 C6 1_555 1_555
C8 C7 1_555 1_555
C9 C8 1_555 1_555
H5 C9 1_555 1_555
C10 C9 1_555 1_555
H6 C10 1_555 1_555
C11 C10 1_555 1_555
H7 C11 1_555 1_555
C12 C7 1_555 1_555
H8 C12 1_555 1_555
C13 C1 1_555 1_555
C14 C13 1_555 1_555
C15 C14 1_555 1_555
H9 C15 1_555 1_555
C16 C15 1_555 1_555
H10 C16 1_555 1_555
C17 C16 1_555 1_555
C18 C17 1_555 1_555
H11 C18 1_555 1_555
C19 C18 1_555 1_555
H12 C19 1_555 1_555
C20 C19 1_555 1_555
H13 C20 1_555 1_555
C21 C20 1_555 1_555
H14 C21 1_555 1_555
C22 C17 1_555 1_555
C23 C14 1_555 1_555
C24 C13 1_555 1_555
C25 C24 1_555 1_555
H15 C25 1_555 1_555
C26 C25 1_555 1_555
H16 C26 1_555 1_555
C27 C26 1_555 1_555
C28 C27 1_555 1_555
H17 C28 1_555 1_555
C29 C28 1_555 1_555
H18 C29 1_555 1_555
C30 C29 1_555 1_555
H19 C30 1_555 1_555
C31 C30 1_555 1_555
H20 C31 1_555 1_555
C32 C27 1_555 1_555
C33 C24 1_555 1_555
O1 C23 1_555 1_555
C5 C6 1_555 1_555
C8 C13 1_555 1_555
C11 C12 1_555 1_555
C21 C22 1_555 1_555
C22 C23 1_555 1_555
C31 C32 1_555 1_555
C32 C33 1_555 1_555
C33 O1 1_555 1_555

#END
