
#######################################################################
#
#                 Cambridge Crystallographic Data Centre
#                                CCDC 
#
#######################################################################
#
# If this CIF has been generated from an entry in the Cambridge 
# Structural Database, then it will include bibliographic, chemical, 
# crystal, experimental, refinement or atomic coordinate data resulting 
# from the CCDC's data processing and validation procedures.
#
#######################################################################

data_CAJBEW
_chemical_formula_moiety         'C10 H4 F3 O3 1-,C16 H36 N1 1+'
_chemical_name_systematic        
'Tetrabutylammonium 2-oxo-4-(trifluoromethyl)-2H-chromen-7-olate'
_symmetry_cell_setting           triclinic
_symmetry_space_group_name_H-M   'P -1'
_symmetry_Int_Tables_number      2
_space_group_name_Hall           '-P 1'
loop_
_symmetry_equiv_pos_site_id
_symmetry_equiv_pos_as_xyz
1 x,y,z
2 -x,-y,-z
_cell_length_a                   10.4022(15)
_cell_length_b                   11.7258(17)
_cell_length_c                   11.7923(17)
_cell_angle_alpha                82.894(3)
_cell_angle_beta                 70.861(3)
_cell_angle_gamma                86.657(3)
_cell_volume                     1348.17
_exptl_crystal_colour            'pale yellow'
_exptl_crystal_description       block
_cell_formula_units_Z            2
loop_
_atom_site_label
_atom_site_type_symbol
_atom_site_fract_x
_atom_site_fract_y
_atom_site_fract_z
O1 O 0.15486(19) 0.68297(16) 0.09464(19)
O2 O 0.0450(2) 0.70367(19) -0.0369(2)
O3 O 0.3857(3) 0.6091(3) 0.3793(2)
C1 C 0.1095(3) 0.7515(3) 0.0119(3)
C2 C 0.1435(3) 0.8687(3) -0.0076(3)
H1 H 0.1165 0.9176 -0.0643
C3 C 0.2147(3) 0.9112(3) 0.0548(3)
C4 C 0.2576(3) 0.8424(3) 0.1418(3)
C5 C 0.3308(3) 0.8763(3) 0.2137(3)
H2 H 0.3528 0.9532 0.2065
C6 C 0.3698(4) 0.7995(5) 0.2933(4)
H3 H 0.4167 0.8264 0.3392
C7 C 0.3423(3) 0.6802(4) 0.3094(3)
C8 C 0.2647(3) 0.6468(3) 0.2399(3)
H4 H 0.2394 0.5706 0.2486
C9 C 0.2273(3) 0.7251(3) 0.1610(3)
C10 C 0.2455(4) 1.0370(3) 0.0297(4)
F1 F 0.1885(3) 1.09275(19) 0.1248(3)
F2 F 0.3759(2) 1.05670(19) -0.0052(2)
F3 F 0.2011(2) 1.09153(18) -0.0566(2)
N1 N 0.2352(2) 0.4928(2) 0.72639(19)
C11 C 0.2190(3) 0.4616(3) 0.8595(2)
H5 H 0.1963 0.5312 0.8991
H6 H 0.1424 0.4106 0.8949
C12 C 0.3409(3) 0.4047(3) 0.8871(2)
H7 H 0.4196 0.4532 0.8513
H8 H 0.3616 0.3317 0.8537
C13 C 0.3079(3) 0.3857(3) 1.0237(3)
H9 H 0.2312 0.3348 1.0578
H10 H 0.2812 0.4587 1.0563
C14 C 0.4270(4) 0.3342(3) 1.0624(3)
H11 H 0.4539 0.2618 1.0307
H12 H 0.4000 0.3228 1.1489
H13 H 0.5022 0.3857 1.0318
C15 C 0.3527(3) 0.5742(3) 0.6646(2)
H14 H 0.4363 0.5346 0.6672
H15 H 0.3591 0.5909 0.5802
C16 C 0.3445(3) 0.6873(3) 0.7165(3)
H16 H 0.2602 0.7277 0.7169
H17 H 0.3450 0.6730 0.7991
C17 C 0.4642(3) 0.7605(3) 0.6414(3)
H18 H 0.5474 0.7192 0.6425
H19 H 0.4644 0.7711 0.5584
C18 C 0.4652(4) 0.8770(3) 0.6826(4)
H20 H 0.3875 0.9215 0.6749
H21 H 0.5469 0.9159 0.6335
H22 H 0.4621 0.8679 0.7655
C19 C 0.1002(3) 0.5480(3) 0.7239(3)
H23 H 0.0285 0.4941 0.7671
H24 H 0.0840 0.6151 0.7676
C20 C 0.0885(3) 0.5846(3) 0.5995(3)
H25 H 0.1694 0.6259 0.5495
H26 H 0.0831 0.5169 0.5618
C21 C -0.0356(4) 0.6604(3) 0.6066(4)
H27 H -0.0518 0.6656 0.5297
H28 H -0.1135 0.6237 0.6674
C22 C -0.0275(5) 0.7766(5) 0.6353(5)
H29 H -0.0307 0.7738 0.7179
H30 H -0.1028 0.8222 0.6237
H31 H 0.0563 0.8102 0.5832
C23 C 0.2699(3) 0.3885(3) 0.6574(3)
H32 H 0.3574 0.3576 0.6604
H33 H 0.2798 0.4133 0.5734
C24 C 0.1679(3) 0.2924(3) 0.7018(3)
H34 H 0.0810 0.3204 0.6946
H35 H 0.1548 0.2677 0.7864
C25 C 0.2173(3) 0.1909(3) 0.6289(3)
H36 H 0.3015 0.1605 0.6402
H37 H 0.2364 0.2173 0.5438
C26 C 0.1136(4) 0.0948(3) 0.6649(4)
H38 H 0.0959 0.0670 0.7486
H39 H 0.1493 0.0331 0.6164
H40 H 0.0305 0.1240 0.6525
loop_
_geom_bond_atom_site_label_1
_geom_bond_atom_site_label_2
_geom_bond_site_symmetry_1
_geom_bond_site_symmetry_2
O1 C1 1_555 1_555
O2 C1 1_555 1_555
O3 C7 1_555 1_555
C1 C2 1_555 1_555
C2 H1 1_555 1_555
C3 C2 1_555 1_555
C4 C3 1_555 1_555
C5 C4 1_555 1_555
H2 C5 1_555 1_555
C6 C5 1_555 1_555
H3 C6 1_555 1_555
C7 C6 1_555 1_555
C8 C7 1_555 1_555
H4 C8 1_555 1_555
C9 O1 1_555 1_555
C10 C3 1_555 1_555
F1 C10 1_555 1_555
F2 C10 1_555 1_555
F3 C10 1_555 1_555
N1 C11 1_555 1_555
C11 H5 1_555 1_555
H6 C11 1_555 1_555
C12 C11 1_555 1_555
H7 C12 1_555 1_555
H8 C12 1_555 1_555
C13 C12 1_555 1_555
H9 C13 1_555 1_555
H10 C13 1_555 1_555
C14 C13 1_555 1_555
H11 C14 1_555 1_555
H12 C14 1_555 1_555
H13 C14 1_555 1_555
C15 N1 1_555 1_555
H14 C15 1_555 1_555
H15 C15 1_555 1_555
C16 C15 1_555 1_555
H16 C16 1_555 1_555
H17 C16 1_555 1_555
C17 C16 1_555 1_555
H18 C17 1_555 1_555
H19 C17 1_555 1_555
C18 C17 1_555 1_555
H20 C18 1_555 1_555
H21 C18 1_555 1_555
H22 C18 1_555 1_555
C19 N1 1_555 1_555
H23 C19 1_555 1_555
H24 C19 1_555 1_555
C20 C19 1_555 1_555
H25 C20 1_555 1_555
H26 C20 1_555 1_555
C21 C20 1_555 1_555
H27 C21 1_555 1_555
H28 C21 1_555 1_555
C22 C21 1_555 1_555
H29 C22 1_555 1_555
H30 C22 1_555 1_555
H31 C22 1_555 1_555
C23 N1 1_555 1_555
H32 C23 1_555 1_555
H33 C23 1_555 1_555
C24 C23 1_555 1_555
H34 C24 1_555 1_555
H35 C24 1_555 1_555
C25 C24 1_555 1_555
H36 C25 1_555 1_555
H37 C25 1_555 1_555
C26 C25 1_555 1_555
H38 C26 1_555 1_555
H39 C26 1_555 1_555
H40 C26 1_555 1_555
C4 C9 1_555 1_555
C8 C9 1_555 1_555

#END
