
#######################################################################
#
#                 Cambridge Crystallographic Data Centre
#                                CCDC 
#
#######################################################################
#
# If this CIF has been generated from an entry in the Cambridge 
# Structural Database, then it will include bibliographic, chemical, 
# crystal, experimental, refinement or atomic coordinate data resulting 
# from the CCDC's data processing and validation procedures.
#
#######################################################################

data_CAJGIF
_chemical_formula_moiety         'C21 H25 N1 O1'
_chemical_name_systematic        
3-(4-Methylenedecahydronaphtho[1,8a-c]furan-3-yl)-1H-indole
_symmetry_cell_setting           orthorhombic
_symmetry_space_group_name_H-M   'P 21 21 21'
_symmetry_Int_Tables_number      19
_space_group_name_Hall           'P 2ac 2ab'
loop_
_symmetry_equiv_pos_site_id
_symmetry_equiv_pos_as_xyz
1 x,y,z
2 1/2-x,-y,1/2+z
3 -x,1/2+y,1/2-z
4 1/2+x,1/2-y,-z
_cell_length_a                   8.7244(17)
_cell_length_b                   13.188(3)
_cell_length_c                   15.006(3)
_cell_angle_alpha                90
_cell_angle_beta                 90
_cell_angle_gamma                90
_cell_volume                     1726.55
_cell_formula_units_Z            4
loop_
_atom_site_label
_atom_site_type_symbol
_atom_site_fract_x
_atom_site_fract_y
_atom_site_fract_z
C1 C 0.3156(2) 0.11808(18) 0.70532(16)
C2 C 0.4472(3) 0.17336(17) 0.75561(15)
H1 H 0.4894 0.1276 0.8008
C3 C 0.5739(3) 0.2069(2) 0.69518(17)
C4 C 0.7184(3) 0.1929(2) 0.71632(19)
H2 H 0.7953 0.2146 0.6779
H3 H 0.7438 0.1614 0.7697
C5 C 0.5274(3) 0.2571(2) 0.61045(17)
H4 H 0.6172 0.2666 0.5733
H5 H 0.4854 0.3235 0.6237
C6 C 0.4101(3) 0.1960(2) 0.56004(18)
H6 H 0.4529 0.1771 0.5027
H7 H 0.3213 0.2384 0.5489
C7 C 0.3580(3) 0.1003(2) 0.60786(18)
H8 H 0.4463 0.0544 0.6082
C8 C 0.2304(3) 0.0446(3) 0.5597(2)
H9 H 0.1394 0.0868 0.5587
H10 H 0.2611 0.0323 0.4985
C9 C 0.1929(4) -0.0551(3) 0.6037(2)
H11 H 0.2800 -0.1004 0.5982
H12 H 0.1068 -0.0862 0.5732
C10 C 0.1530(3) -0.0422(2) 0.7025(2)
H13 H 0.1417 -0.1083 0.7301
H14 H 0.0563 -0.0065 0.7082
C11 C 0.2799(3) 0.01777(19) 0.75050(18)
H15 H 0.2483 0.0307 0.8114
H16 H 0.3723 -0.0231 0.7524
C12 C 0.1809(3) 0.19152(18) 0.71891(16)
H17 H 0.1778 0.2413 0.6714
H18 H 0.0845 0.1549 0.7195
C13 C 0.3687(2) 0.26337(18) 0.80257(15)
H19 H 0.3838 0.3238 0.7656
C14 C 0.4155(2) 0.28877(17) 0.89455(16)
C15 C 0.3597(3) 0.37258(18) 0.94486(16)
C16 C 0.2513(3) 0.4491(2) 0.92897(17)
H20 H 0.1993 0.4513 0.8749
C17 C 0.2222(3) 0.5206(2) 0.9930(2)
H21 H 0.1506 0.5715 0.9823
C18 C 0.2988(4) 0.5174(2) 1.0736(2)
H22 H 0.2757 0.5661 1.1163
C19 C 0.4084(3) 0.4450(2) 1.09340(18)
H23 H 0.4609 0.4454 1.1473
C20 C 0.4362(3) 0.3713(2) 1.02860(17)
C21 C 0.5234(3) 0.24038(19) 0.94778(16)
H24 H 0.5791 0.1831 0.9316
H25 H 0.601(2) 0.2729(17) 1.0743(15)
N1 N 0.5352(2) 0.29045(16) 1.02855(15)
O1 O 0.20659(17) 0.23987(11) 0.80282(10)
loop_
_geom_bond_atom_site_label_1
_geom_bond_atom_site_label_2
_geom_bond_site_symmetry_1
_geom_bond_site_symmetry_2
C1 C2 1_555 1_555
C2 H1 1_555 1_555
C3 C2 1_555 1_555
C4 C3 1_555 1_555
H2 C4 1_555 1_555
H3 C4 1_555 1_555
C5 C3 1_555 1_555
H4 C5 1_555 1_555
H5 C5 1_555 1_555
C6 C5 1_555 1_555
H6 C6 1_555 1_555
H7 C6 1_555 1_555
C7 C1 1_555 1_555
H8 C7 1_555 1_555
C8 C7 1_555 1_555
H9 C8 1_555 1_555
H10 C8 1_555 1_555
C9 C8 1_555 1_555
H11 C9 1_555 1_555
H12 C9 1_555 1_555
C10 C9 1_555 1_555
H13 C10 1_555 1_555
H14 C10 1_555 1_555
C11 C1 1_555 1_555
H15 C11 1_555 1_555
H16 C11 1_555 1_555
C12 C1 1_555 1_555
H17 C12 1_555 1_555
H18 C12 1_555 1_555
C13 C2 1_555 1_555
H19 C13 1_555 1_555
C14 C13 1_555 1_555
C15 C14 1_555 1_555
C16 C15 1_555 1_555
H20 C16 1_555 1_555
C17 C16 1_555 1_555
H21 C17 1_555 1_555
C18 C17 1_555 1_555
H22 C18 1_555 1_555
C19 C18 1_555 1_555
H23 C19 1_555 1_555
C20 C15 1_555 1_555
C21 C14 1_555 1_555
H24 C21 1_555 1_555
H25 N1 1_555 1_555
N1 C20 1_555 1_555
O1 C12 1_555 1_555
C6 C7 1_555 1_555
C10 C11 1_555 1_555
C13 O1 1_555 1_555
C19 C20 1_555 1_555
C21 N1 1_555 1_555

#END
