
#######################################################################
#
#                 Cambridge Crystallographic Data Centre
#                                CCDC 
#
#######################################################################
#
# If this CIF has been generated from an entry in the Cambridge 
# Structural Database, then it will include bibliographic, chemical, 
# crystal, experimental, refinement or atomic coordinate data resulting 
# from the CCDC's data processing and validation procedures.
#
#######################################################################

data_CAJYUK
_chemical_formula_moiety         'C93 H28 N6,3(C1 H2 Cl2)'
_chemical_name_systematic        
'2-(4-(1,1-dicyano-3-(4-(dicyanomethylidene)cyclohexa-2,5-dien-1-ylidene)-3-(4-(diethylamino)phenyl)prop-1-en-2-yl)phenyl)-N-methyl-C60-fulleropyrrolidine dichloromethane solvate'
_symmetry_cell_setting           monoclinic
_symmetry_space_group_name_H-M   'P 21/c'
_symmetry_Int_Tables_number      14
_space_group_name_Hall           '-P 2ybc'
loop_
_symmetry_equiv_pos_site_id
_symmetry_equiv_pos_as_xyz
1 x,y,z
2 -x,1/2+y,1/2-z
3 -x,-y,-z
4 x,1/2-y,1/2+z
_cell_length_a                   18.8389(12)
_cell_length_b                   22.9147(14)
_cell_length_c                   14.8576(9)
_cell_angle_alpha                90
_cell_angle_beta                 100.245(4)
_cell_angle_gamma                90
_cell_volume                     6311.58
_exptl_crystal_colour            black
_exptl_crystal_description       plate
_cell_formula_units_Z            4
loop_
_atom_site_label
_atom_site_type_symbol
_atom_site_fract_x
_atom_site_fract_y
_atom_site_fract_z
Cl1 Cl 0.32868(8) 0.32476(6) 0.90886(9)
Cl2 Cl 0.26455(9) 0.31040(8) 0.71762(10)
C1 C 0.2571(3) 0.2953(2) 0.8322(4)
H1 H 0.2071 0.3131 0.8460
H2 H 0.2558 0.2486 0.8419
Cl3 Cl 0.48599(6) 0.40759(5) 0.47290(8)
Cl4 Cl 0.56189(7) 0.30513(5) 0.42132(9)
C2 C 0.5408(3) 0.3787(2) 0.3997(4)
H3 H 0.5135 0.3834 0.3298
H4 H 0.5902 0.4036 0.4075
Cl5 Cl 0.36572(8) 0.33276(7) 0.27216(10)
Cl6 Cl 0.41910(9) 0.39396(7) 0.12654(12)
C3 C 0.3512(3) 0.3480(3) 0.1540(4)
H5 H 0.3505 0.3077 0.1163
H6 H 0.2993 0.3688 0.1342
N1 N 0.07812(18) 0.30794(15) 0.0363(2)
N2 N 0.38180(19) 0.49452(15) 0.5844(2)
N3 N 0.3170(2) 0.31888(15) 0.5151(3)
N4 N -0.1054(2) 0.60201(15) 0.4667(3)
N5 N -0.07227(18) 0.68479(15) 0.2127(2)
N6 N 0.48340(17) 0.63041(14) 0.2665(2)
C4 C -0.0062(2) 0.33195(18) 0.1294(3)
C5 C -0.0486(2) 0.31059(17) 0.0338(3)
C6 C -0.0845(2) 0.36235(18) -0.0283(3)
C7 C -0.0702(2) 0.42011(17) -0.0104(3)
C8 C -0.0299(2) 0.43776(19) 0.0811(3)
C9 C -0.0069(2) 0.39755(17) 0.1471(3)
C10 C -0.01497(19) 0.40962(17) 0.2380(3)
C11 C -0.0347(2) 0.35502(19) 0.2794(3)
C12 C -0.0387(2) 0.31041(16) 0.2136(3)
C13 C -0.0898(2) 0.26807(15) 0.2044(3)
C14 C -0.1301(2) 0.24982(17) 0.1144(3)
C15 C -0.1144(2) 0.27394(17) 0.0373(3)
C16 C -0.1737(2) 0.29022(16) -0.0335(3)
C17 C -0.1541(3) 0.3455(2) -0.0735(3)
C18 C -0.2066(3) 0.38662(19) -0.1043(3)
C19 C -0.1917(2) 0.44792(19) -0.0849(3)
C20 C -0.1241(2) 0.46402(18) -0.0372(3)
C21 C -0.1183(2) 0.50870(16) 0.0330(3)
C22 C -0.0613(2) 0.49353(16) 0.1059(3)
C23 C -0.0685(2) 0.50514(18) 0.1950(3)
C24 C -0.0436(2) 0.4611(2) 0.2652(3)
C25 C -0.0934(2) 0.4621(2) 0.3275(3)
C26 C -0.1130(3) 0.4105(2) 0.3661(3)
C27 C -0.0806(2) 0.3549(2) 0.3412(3)
C28 C -0.1357(2) 0.30972(18) 0.3350(3)
C29 C -0.1406(2) 0.26746(17) 0.2670(3)
C30 C -0.2104(2) 0.24962(16) 0.2176(3)
C31 C -0.2050(2) 0.23900(16) 0.1240(3)
C32 C -0.2610(3) 0.25306(17) 0.0554(3)
C33 C -0.2451(2) 0.28062(19) -0.0284(3)
C34 C -0.3004(2) 0.3226(2) -0.0576(3)
C35 C -0.2814(3) 0.3749(2) -0.0963(3)
C36 C -0.3126(2) 0.4305(2) -0.0710(3)
C37 C -0.2560(2) 0.47501(18) -0.0649(3)
C38 C -0.2508(2) 0.51754(17) 0.0024(3)
C39 C -0.1809(2) 0.53512(16) 0.0516(3)
C40 C -0.1865(3) 0.54618(17) 0.1459(4)
C41 C -0.1319(3) 0.53124(17) 0.2139(3)
C42 C -0.1482(2) 0.5039(2) 0.2985(3)
C43 C -0.2194(2) 0.49517(18) 0.3053(3)
C44 C -0.2394(3) 0.4398(2) 0.3451(3)
C45 C -0.1867(2) 0.3981(2) 0.3752(3)
C46 C -0.2007(2) 0.3369(2) 0.3554(3)
C47 C -0.2677(2) 0.31969(19) 0.3078(3)
C48 C -0.2730(2) 0.27539(17) 0.2383(3)
C49 C -0.3307(2) 0.28990(17) 0.1645(3)
C50 C -0.3249(2) 0.27965(18) 0.0766(3)
C51 C -0.3498(2) 0.3239(2) 0.0042(3)
C52 C -0.3789(2) 0.37467(18) 0.0306(3)
C53 C -0.3596(2) 0.4299(2) -0.0108(3)
C54 C -0.3544(2) 0.47384(18) 0.0563(3)
C55 C -0.3012(2) 0.51696(16) 0.0653(3)
C56 C -0.2631(3) 0.53468(18) 0.1533(3)
C57 C -0.2780(2) 0.51008(19) 0.2320(3)
C58 C -0.3323(2) 0.46639(18) 0.2253(3)
C59 C -0.3081(2) 0.4217(2) 0.2968(3)
C60 C -0.3215(2) 0.36334(17) 0.2791(3)
C61 C -0.3622(2) 0.3459(2) 0.1893(3)
C62 C -0.3857(2) 0.38641(18) 0.1225(3)
C63 C -0.3702(2) 0.44677(19) 0.1428(3)
C64 C 0.0705(2) 0.30626(17) 0.1318(3)
H7 H 0.0711 0.2614 0.1540
C65 C 0.0105(2) 0.27950(19) -0.0084(3)
H8 H 0.0115 0.2333 0.0062
H9 H 0.0018 0.2857 -0.0816
C66 C 0.1413(2) 0.2763(2) 0.0173(3)
H10 H 0.1898 0.2974 0.0520
H11 H 0.1409 0.2762 -0.0555
H12 H 0.1399 0.2319 0.0413
C67 C 0.1266(2) 0.34029(17) 0.1969(3)
C68 C 0.1371(2) 0.32533(16) 0.2878(3)
H13 H 0.1133 0.2867 0.3080
C69 C 0.17778(19) 0.35970(15) 0.3527(3)
H14 H 0.1843 0.3479 0.4227
C70 C 0.21083(19) 0.41013(15) 0.3273(3)
C71 C 0.2012(2) 0.42546(16) 0.2349(3)
H15 H 0.2259 0.4636 0.2145
C72 C 0.1590(2) 0.39035(18) 0.1695(3)
H16 H 0.1516 0.4017 0.0993
C73 C 0.25549(18) 0.44809(15) 0.3940(2)
C74 C 0.2999(2) 0.42776(16) 0.4699(3)
C75 C 0.3444(2) 0.46649(16) 0.5333(3)
C76 C 0.3089(2) 0.36682(18) 0.4942(3)
C77 C 0.25203(19) 0.51221(15) 0.3738(2)
C78 C 0.18399(19) 0.53920(15) 0.3695(2)
C79 C 0.13213(19) 0.51857(14) 0.4208(2)
H17 H 0.1443 0.4811 0.4625
C80 C 0.0675(2) 0.54552(15) 0.4179(2)
H18 H 0.0325 0.5310 0.4618
C81 C 0.04584(19) 0.59296(15) 0.3570(2)
C82 C 0.09528(19) 0.61099(14) 0.3001(2)
H19 H 0.0797 0.6438 0.2502
C83 C 0.16159(19) 0.58691(15) 0.3087(2)
H20 H 0.1984 0.6039 0.2690
C84 C -0.0220(2) 0.61952(15) 0.3501(3)
C85 C -0.0684(2) 0.60910(15) 0.4140(3)
C86 C -0.0498(2) 0.65642(16) 0.2747(3)
C87 C 0.31337(19) 0.54088(15) 0.3530(2)
C88 C 0.37042(19) 0.51050(16) 0.3225(3)
H21 H 0.3694 0.4643 0.3208
C89 C 0.4265(2) 0.53899(16) 0.2952(3)
H22 H 0.4676 0.5146 0.2723
C90 C 0.4306(2) 0.60104(16) 0.2970(3)
C91 C 0.3761(2) 0.63180(16) 0.3328(3)
H23 H 0.3787 0.6779 0.3383
C92 C 0.3210(2) 0.60277(15) 0.3600(3)
H24 H 0.2819 0.6270 0.3876
C93 C 0.5455(2) 0.60090(18) 0.2383(3)
H25 H 0.5580 0.5617 0.2783
H26 H 0.5920 0.6292 0.2517
C94 C 0.5302(2) 0.5851(2) 0.1373(3)
H27 H 0.5138 0.6238 0.0973
H28 H 0.4876 0.5531 0.1250
H29 H 0.5784 0.5674 0.1178
C95 C 0.4813(2) 0.69423(17) 0.2547(3)
H30 H 0.4259 0.7082 0.2367
H31 H 0.5085 0.7058 0.1990
C96 C 0.5168(2) 0.72585(19) 0.3405(4)
H32 H 0.5111 0.7724 0.3300
H33 H 0.5734 0.7146 0.3557
H34 H 0.4912 0.7131 0.3970
H35? H 0.0638 0.2749 0.1839
H36? H 0.0286 0.3069 -0.0590
H37? H -0.0096 0.2390 -0.0403
C97? C 0.138(2) 0.2499(19) 0.044(3)
H38? H 0.1367 0.2651 -0.0253
H39? H 0.1422 0.2029 0.0455
H40? H 0.1849 0.2683 0.0878
N7? N 0.0743(14) 0.2677(12) 0.0752(19)
loop_
_geom_bond_atom_site_label_1
_geom_bond_atom_site_label_2
_geom_bond_site_symmetry_1
_geom_bond_site_symmetry_2
Cl1 C1 1_555 1_555
Cl2 C1 1_555 1_555
C1 H1 1_555 1_555
H2 C1 1_555 1_555
Cl3 C2 1_555 1_555
Cl4 C2 1_555 1_555
C2 H3 1_555 1_555
H4 C2 1_555 1_555
Cl5 C3 1_555 1_555
Cl6 C3 1_555 1_555
C3 H5 1_555 1_555
H6 C3 1_555 1_555
N1 C64 1_555 1_555
N2 C75 1_555 1_555
N3 C76 1_555 1_555
N4 C85 1_555 1_555
N5 C86 1_555 1_555
N6 C90 1_555 1_555
C4 C5 1_555 1_555
C5 C6 1_555 1_555
C6 C7 1_555 1_555
C7 C8 1_555 1_555
C8 C9 1_555 1_555
C9 C4 1_555 1_555
C10 C9 1_555 1_555
C11 C10 1_555 1_555
C12 C4 1_555 1_555
C13 C12 1_555 1_555
C14 C13 1_555 1_555
C15 C5 1_555 1_555
C16 C15 1_555 1_555
C17 C6 1_555 1_555
C18 C17 1_555 1_555
C19 C18 1_555 1_555
C20 C7 1_555 1_555
C21 C20 1_555 1_555
C22 C8 1_555 1_555
C23 C22 1_555 1_555
C24 C10 1_555 1_555
C25 C24 1_555 1_555
C26 C25 1_555 1_555
C27 C11 1_555 1_555
C28 C27 1_555 1_555
C29 C13 1_555 1_555
C30 C29 1_555 1_555
C31 C14 1_555 1_555
C32 C31 1_555 1_555
C33 C16 1_555 1_555
C34 C33 1_555 1_555
C35 C18 1_555 1_555
C36 C35 1_555 1_555
C37 C19 1_555 1_555
C38 C37 1_555 1_555
C39 C21 1_555 1_555
C40 C39 1_555 1_555
C41 C23 1_555 1_555
C42 C25 1_555 1_555
C43 C42 1_555 1_555
C44 C43 1_555 1_555
C45 C26 1_555 1_555
C46 C28 1_555 1_555
C47 C46 1_555 1_555
C48 C30 1_555 1_555
C49 C48 1_555 1_555
C50 C32 1_555 1_555
C51 C34 1_555 1_555
C52 C51 1_555 1_555
C53 C36 1_555 1_555
C54 C53 1_555 1_555
C55 C38 1_555 1_555
C56 C40 1_555 1_555
C57 C43 1_555 1_555
C58 C57 1_555 1_555
C59 C44 1_555 1_555
C60 C47 1_555 1_555
C61 C49 1_555 1_555
C62 C52 1_555 1_555
C63 C54 1_555 1_555
C64 C4 1_555 1_555
H7 C64 1_555 1_555
C65 N1 1_555 1_555
H8 C65 1_555 1_555
H9 C65 1_555 1_555
C66 N1 1_555 1_555
H10 C66 1_555 1_555
H11 C66 1_555 1_555
H12 C66 1_555 1_555
C67 C64 1_555 1_555
C68 C67 1_555 1_555
H13 C68 1_555 1_555
C69 C68 1_555 1_555
H14 C69 1_555 1_555
C70 C69 1_555 1_555
C71 C70 1_555 1_555
H15 C71 1_555 1_555
C72 C67 1_555 1_555
H16 C72 1_555 1_555
C73 C70 1_555 1_555
C74 C73 1_555 1_555
C75 C74 1_555 1_555
C76 C74 1_555 1_555
C77 C73 1_555 1_555
C78 C77 1_555 1_555
C79 C78 1_555 1_555
H17 C79 1_555 1_555
C80 C79 1_555 1_555
H18 C80 1_555 1_555
C81 C80 1_555 1_555
C82 C81 1_555 1_555
H19 C82 1_555 1_555
C83 C78 1_555 1_555
H20 C83 1_555 1_555
C84 C81 1_555 1_555
C85 C84 1_555 1_555
C86 C84 1_555 1_555
C87 C77 1_555 1_555
C88 C87 1_555 1_555
H21 C88 1_555 1_555
C89 C88 1_555 1_555
H22 C89 1_555 1_555
C90 C89 1_555 1_555
C91 C90 1_555 1_555
H23 C91 1_555 1_555
C92 C87 1_555 1_555
H24 C92 1_555 1_555
C93 N6 1_555 1_555
H25 C93 1_555 1_555
H26 C93 1_555 1_555
C94 C93 1_555 1_555
H27 C94 1_555 1_555
H28 C94 1_555 1_555
H29 C94 1_555 1_555
C95 N6 1_555 1_555
H30 C95 1_555 1_555
H31 C95 1_555 1_555
C96 C95 1_555 1_555
H32 C96 1_555 1_555
H33 C96 1_555 1_555
H34 C96 1_555 1_555
C5 C65 1_555 1_555
C11 C12 1_555 1_555
C14 C15 1_555 1_555
C16 C17 1_555 1_555
C19 C20 1_555 1_555
C21 C22 1_555 1_555
C23 C24 1_555 1_555
C26 C27 1_555 1_555
C28 C29 1_555 1_555
C30 C31 1_555 1_555
C32 C33 1_555 1_555
C34 C35 1_555 1_555
C36 C37 1_555 1_555
C38 C39 1_555 1_555
C40 C41 1_555 1_555
C41 C42 1_555 1_555
C44 C45 1_555 1_555
C45 C46 1_555 1_555
C47 C48 1_555 1_555
C49 C50 1_555 1_555
C50 C51 1_555 1_555
C52 C53 1_555 1_555
C54 C55 1_555 1_555
C55 C56 1_555 1_555
C56 C57 1_555 1_555
C58 C59 1_555 1_555
C58 C63 1_555 1_555
C59 C60 1_555 1_555
C60 C61 1_555 1_555
C61 C62 1_555 1_555
C62 C63 1_555 1_555
C71 C72 1_555 1_555
C82 C83 1_555 1_555
C91 C92 1_555 1_555

#END
