
#######################################################################
#
#                 Cambridge Crystallographic Data Centre
#                                CCDC 
#
#######################################################################
#
# If this CIF has been generated from an entry in the Cambridge 
# Structural Database, then it will include bibliographic, chemical, 
# crystal, experimental, refinement or atomic coordinate data resulting 
# from the CCDC's data processing and validation procedures.
#
#######################################################################

data_CAKZAS
_chemical_formula_moiety         'C19 H20 O5'
_chemical_name_systematic        
5,6-dimethoxy-1-(4-methoxyphenyl)-11,12-dioxatricyclo[7.2.1.0^2,7^]dodeca-2,4,6-triene
_symmetry_cell_setting           monoclinic
_symmetry_space_group_name_H-M   'C c'
_symmetry_Int_Tables_number      9
_space_group_name_Hall           'C -2yc'
loop_
_symmetry_equiv_pos_site_id
_symmetry_equiv_pos_as_xyz
1 x,y,z
2 x,-y,1/2+z
3 1/2+x,1/2+y,z
4 1/2+x,1/2-y,1/2+z
_cell_length_a                   24.743(9)
_cell_length_b                   9.580(4)
_cell_length_c                   7.166(3)
_cell_angle_alpha                90
_cell_angle_beta                 100.810(8)
_cell_angle_gamma                90
_cell_volume                     1668.47
_exptl_crystal_colour            colorless
_exptl_crystal_description       Tabular
_cell_formula_units_Z            4
loop_
_atom_site_label
_atom_site_type_symbol
_atom_site_fract_x
_atom_site_fract_y
_atom_site_fract_z
O1 O -0.10121(18) 0.2243(5) 0.7215(6)
O2 O 0.28586(16) 0.1861(5) 0.6665(6)
O3 O 0.05651(15) 0.1268(3) 0.1361(4)
O4 O 0.06023(14) 0.3600(3) 0.1618(4)
O5 O 0.26247(17) 0.3142(5) 0.3245(5)
C1 C -0.0986(3) 0.3191(11) 0.8763(12)
H1 H -0.0643 0.3075 0.9628
H2 H -0.1285 0.3007 0.9413
H3 H -0.1014 0.4132 0.8290
C2 C -0.0610(2) 0.2359(6) 0.6138(7)
C3 C -0.0600(2) 0.1303(6) 0.4822(8)
H4 H -0.0863 0.0600 0.4684
C4 C -0.0198(2) 0.1292(6) 0.3715(7)
H5 H -0.0190 0.0574 0.2847
C5 C 0.0192(2) 0.2338(5) 0.3890(6)
C6 C 0.0645(2) 0.2359(5) 0.2740(6)
C7 C 0.1230(2) 0.2257(5) 0.3891(6)
C8 C 0.1350(2) 0.1574(5) 0.5621(6)
H6 H 0.1064 0.1206 0.6145
C9 C 0.1882(2) 0.1428(6) 0.6579(7)
H7 H 0.1952 0.0963 0.7739
C10 C 0.2314(2) 0.1967(6) 0.5833(7)
C11 C 0.2988(3) 0.1260(9) 0.8509(10)
H8 H 0.2808 0.1778 0.9364
H9 H 0.3379 0.1286 0.8952
H10 H 0.2863 0.0309 0.8456
C12 C 0.0815(2) 0.1743(6) -0.0166(7)
H11 H 0.0564 0.1645 -0.1371
H12 H 0.1147 0.1216 -0.0216
C13 C 0.0951(2) 0.3278(6) 0.0265(7)
H13 H 0.0850 0.3847 -0.0884
C14 C 0.1542(2) 0.3536(6) 0.1198(7)
H14 H 0.1606 0.4531 0.1367
H15 H 0.1785 0.3183 0.0391
C15 C 0.1667(2) 0.2808(5) 0.3121(7)
C16 C 0.2200(2) 0.2664(6) 0.4082(7)
C17 C -0.0239(2) 0.3418(6) 0.6285(7)
H16 H -0.0253 0.4150 0.7128
C18 C 0.0162(2) 0.3394(6) 0.5160(7)
H17 H 0.0417 0.4115 0.5273
C19 C 0.2886(3) 0.4370(9) 0.4073(11)
H18 H 0.2617 0.5096 0.4050
H19 H 0.3159 0.4663 0.3365
H20 H 0.3059 0.4183 0.5363
loop_
_geom_bond_atom_site_label_1
_geom_bond_atom_site_label_2
_geom_bond_site_symmetry_1
_geom_bond_site_symmetry_2
O1 C1 1_555 1_555
O2 C10 1_555 1_555
O3 C6 1_555 1_555
O4 C6 1_555 1_555
O5 C16 1_555 1_555
C1 H1 1_555 1_555
H2 C1 1_555 1_555
H3 C1 1_555 1_555
C2 O1 1_555 1_555
C3 C2 1_555 1_555
H4 C3 1_555 1_555
C4 C3 1_555 1_555
H5 C4 1_555 1_555
C5 C4 1_555 1_555
C6 C5 1_555 1_555
C7 C6 1_555 1_555
C8 C7 1_555 1_555
H6 C8 1_555 1_555
C9 C8 1_555 1_555
H7 C9 1_555 1_555
C10 C9 1_555 1_555
C11 O2 1_555 1_555
H8 C11 1_555 1_555
H9 C11 1_555 1_555
H10 C11 1_555 1_555
C12 O3 1_555 1_555
H11 C12 1_555 1_555
H12 C12 1_555 1_555
C13 O4 1_555 1_555
H13 C13 1_555 1_555
C14 C13 1_555 1_555
H14 C14 1_555 1_555
H15 C14 1_555 1_555
C15 C7 1_555 1_555
C16 C10 1_555 1_555
C17 C2 1_555 1_555
H16 C17 1_555 1_555
C18 C5 1_555 1_555
H17 C18 1_555 1_555
C19 O5 1_555 1_555
H18 C19 1_555 1_555
H19 C19 1_555 1_555
H20 C19 1_555 1_555
C12 C13 1_555 1_555
C14 C15 1_555 1_555
C15 C16 1_555 1_555
C17 C18 1_555 1_555

#END
