
#######################################################################
#
#                 Cambridge Crystallographic Data Centre
#                                CCDC 
#
#######################################################################
#
# If this CIF has been generated from an entry in the Cambridge 
# Structural Database, then it will include bibliographic, chemical, 
# crystal, experimental, refinement or atomic coordinate data resulting 
# from the CCDC's data processing and validation procedures.
#
#######################################################################

data_CALRAI
_chemical_formula_moiety         'C18 H18'
_chemical_name_systematic        Hexavinylbenzene
_symmetry_cell_setting           triclinic
_symmetry_space_group_name_H-M   'P -1'
_symmetry_Int_Tables_number      2
_space_group_name_Hall           '-P 1'
loop_
_symmetry_equiv_pos_site_id
_symmetry_equiv_pos_as_xyz
1 x,y,z
2 -x,-y,-z
_cell_length_a                   8.7862(7)
_cell_length_b                   9.233(1)
_cell_length_c                   10.1838(5)
_cell_angle_alpha                76.037(6)
_cell_angle_beta                 62.195(7)
_cell_angle_gamma                86.003(8)
_cell_volume                     708.278
_exptl_crystal_colour            'pale yellow'
_chemical_melting_point          77-8deg.C
_cell_formula_units_Z            2
loop_
_atom_site_label
_atom_site_type_symbol
_atom_site_fract_x
_atom_site_fract_y
_atom_site_fract_z
C1 C 0.65790 0.29110 0.37570
C2 C 0.62610 0.28130 0.52610
C3 C 0.46980 0.21370 0.65040
C4 C 0.34440 0.15870 0.62230
C5 C 0.37670 0.16850 0.47130
C6 C 0.53400 0.23460 0.34800
C7 C 0.82810 0.35140 0.24360
C8 C 0.90840 0.47530 0.22020
C9 C 0.76340 0.33560 0.55260
C10 C 0.74470 0.42870 0.63570
C11 C 0.44910 0.19170 0.80720
C12 C 0.31630 0.21250 0.92770
C13 C 0.18280 0.08340 0.75430
C14 C 0.02530 0.11420 0.77450
C15 C 0.24730 0.09920 0.44630
C16 C 0.19040 0.15770 0.34870
C17 C 0.56760 0.23680 0.18960
C18 C 0.62690 0.34920 0.07220
H1 H 0.89000 0.29800 0.15900
H2 H 1.02600 0.50700 0.12000
H3 H 0.82900 0.53300 0.30800
H4 H 0.89400 0.30500 0.49800
H5 H 0.62800 0.46700 0.68100
H6 H 0.85300 0.45200 0.64500
H7 H 0.50100 0.13500 0.87500
H8 H 0.33100 0.17600 1.03800
H9 H 0.21300 0.26100 0.90400
H10 H 0.19200 0.00100 0.84000
H11 H 0.02000 0.19500 0.68800
H12 H -0.07200 0.05300 0.87100
H13 H 0.19700 0.00100 0.51200
H14 H 0.23000 0.25800 0.28000
H15 H 0.11000 0.09600 0.33800
H16 H 0.55400 0.14100 0.17100
H17 H 0.64800 0.34000 -0.03000
H18 H 0.63900 0.43600 0.09300
loop_
_geom_bond_atom_site_label_1
_geom_bond_atom_site_label_2
_geom_bond_site_symmetry_1
_geom_bond_site_symmetry_2
C1 C2 1_555 1_555
C2 C3 1_555 1_555
C3 C4 1_555 1_555
C4 C5 1_555 1_555
C5 C6 1_555 1_555
C6 C1 1_555 1_555
C7 C1 1_555 1_555
C8 C7 1_555 1_555
C9 C2 1_555 1_555
C10 C9 1_555 1_555
C11 C3 1_555 1_555
C12 C11 1_555 1_555
C13 C4 1_555 1_555
C14 C13 1_555 1_555
C15 C5 1_555 1_555
C16 C15 1_555 1_555
C17 C6 1_555 1_555
C18 C17 1_555 1_555
H1 C7 1_555 1_555
H2 C8 1_555 1_555
H3 C8 1_555 1_555
H4 C9 1_555 1_555
H5 C10 1_555 1_555
H6 C10 1_555 1_555
H7 C11 1_555 1_555
H8 C12 1_555 1_555
H9 C12 1_555 1_555
H10 C13 1_555 1_555
H11 C14 1_555 1_555
H12 C14 1_555 1_555
H13 C15 1_555 1_555
H14 C16 1_555 1_555
H15 C16 1_555 1_555
H16 C17 1_555 1_555
H17 C18 1_555 1_555
H18 C18 1_555 1_555

#END
