
#######################################################################
#
#                 Cambridge Crystallographic Data Centre
#                                CCDC 
#
#######################################################################
#
# If this CIF has been generated from an entry in the Cambridge 
# Structural Database, then it will include bibliographic, chemical, 
# crystal, experimental, refinement or atomic coordinate data resulting 
# from the CCDC's data processing and validation procedures.
#
#######################################################################

data_CAMKOT
_chemical_formula_moiety         '2(C8 H7 Br1 O2),C24 H22 N4'
_chemical_name_systematic        
"bis(3-bromo-2-methylbenzoic acid) 4,4',4'',4'''-butane-1,2,3,4-tetrayltetrapyridine"
_symmetry_cell_setting           monoclinic
_symmetry_space_group_name_H-M   'P 21/n'
_symmetry_Int_Tables_number      14
_space_group_name_Hall           '-P 2yn'
loop_
_symmetry_equiv_pos_site_id
_symmetry_equiv_pos_as_xyz
1 x,y,z
2 1/2-x,1/2+y,1/2-z
3 -x,-y,-z
4 1/2+x,1/2-y,1/2+z
_cell_length_a                   9.720(2)
_cell_length_b                   15.939(3)
_cell_length_c                   11.457(2)
_cell_angle_alpha                90
_cell_angle_beta                 94.909(4)
_cell_angle_gamma                90
_cell_volume                     1768.49
_exptl_crystal_colour            colorless
_exptl_crystal_description       block
_cell_formula_units_Z            2
loop_
_atom_site_label
_atom_site_type_symbol
_atom_site_fract_x
_atom_site_fract_y
_atom_site_fract_z
Br1 Br 1.13215(6) 0.11982(4) 0.34215(5)
C1 C 0.6717(4) 0.3113(3) 0.2938(4)
C2 C 0.8914(6) 0.2192(3) 0.4448(4)
H1 H 0.9260 0.1657 0.4721
H2 H 0.7993 0.2268 0.4673
H3 H 0.9499 0.2629 0.4789
C3 C 0.8898(4) 0.2229(3) 0.3146(4)
C4 C 0.9920(4) 0.1834(3) 0.2560(4)
C5 C 1.0022(5) 0.1860(3) 0.1341(5)
H4 H 1.0740 0.1603 0.0989
C6 C 0.8970(5) 0.2298(3) 0.0700(4)
H5 H 0.8986 0.2335 -0.0109
C7 C 0.7918(5) 0.2673(3) 0.1220(4)
H6 H 0.7222 0.2948 0.0762
C8 C 0.7879(4) 0.2646(2) 0.2436(4)
O1 O 0.5600(3) 0.3098(2) 0.2238(3)
H7 H 0.4980 0.3340 0.2545
O2 O 0.6825(3) 0.3487(2) 0.3860(3)
C9 C 0.1364(4) -0.0457(3) 1.1271(4)
H8 H 0.0490 -0.0256 1.1021
C10 C 0.2496(4) -0.0092(3) 1.0820(4)
H9 H 0.2380 0.0356 1.0302
C11 C 0.3799(4) -0.0402(2) 1.1148(3)
C12 C 0.3889(5) -0.1034(3) 1.1971(4)
H10 H 0.4747 -0.1248 1.2244
C13 C 0.2716(5) -0.1346(3) 1.2385(4)
H11 H 0.2807 -0.1771 1.2942
C14 C 0.5092(4) -0.0055(2) 1.0674(3)
H12 H 0.5835 -0.0463 1.0852
C15 C 0.5521(5) 0.0770(3) 1.1306(4)
H13 H 0.6218 0.1047 1.0886
H14 H 0.4727 0.1139 1.1294
C16 C 0.6080(5) 0.0630(3) 1.2548(4)
C17 C 0.5412(6) 0.0908(3) 1.3481(4)
H15 H 0.4591 0.1207 1.3360
C18 C 0.5981(7) 0.0734(4) 1.4615(5)
H16 H 0.5513 0.0928 1.5236
C19 C 0.7781(6) 0.0061(3) 1.3972(5)
H17 H 0.8604 -0.0232 1.4122
C20 C 0.7301(5) 0.0207(3) 1.2811(4)
H18 H 0.7807 0.0018 1.2210
N1 N 0.1463(4) -0.1079(2) 1.2041(3)
N2 N 0.7131(6) 0.0316(3) 1.4865(4)
C9B C 0.8636(4) 0.0457(3) 0.8729(4)
H8B H 0.9510 0.0256 0.8979
C10B C 0.7504(4) 0.0092(3) 0.9180(4)
H9B H 0.7620 -0.0356 0.9698
C11B C 0.6201(4) 0.0402(2) 0.8852(3)
C12B C 0.6111(5) 0.1034(3) 0.8029(4)
H10B H 0.5253 0.1248 0.7756
C13B C 0.7284(5) 0.1346(3) 0.7615(4)
H11B H 0.7193 0.1771 0.7058
C14B C 0.4908(4) 0.0055(2) 0.9326(3)
H12B H 0.4165 0.0463 0.9148
C15B C 0.4479(5) -0.0770(3) 0.8694(4)
H13B H 0.3782 -0.1047 0.9114
H14B H 0.5273 -0.1139 0.8706
C16B C 0.3920(5) -0.0630(3) 0.7452(4)
C17B C 0.4588(6) -0.0908(3) 0.6519(4)
H15B H 0.5409 -0.1207 0.6640
C18B C 0.4019(7) -0.0734(4) 0.5385(5)
H16B H 0.4487 -0.0928 0.4764
C19B C 0.2219(6) -0.0061(3) 0.6028(5)
H17B H 0.1396 0.0232 0.5878
C20B C 0.2699(5) -0.0207(3) 0.7189(4)
H18B H 0.2193 -0.0018 0.7790
N1B N 0.8537(4) 0.1079(2) 0.7959(3)
N2B N 0.2869(6) -0.0316(3) 0.5135(4)
loop_
_geom_bond_atom_site_label_1
_geom_bond_atom_site_label_2
_geom_bond_site_symmetry_1
_geom_bond_site_symmetry_2
Br1 C4 1_555 1_555
C1 C8 1_555 1_555
C2 H1 1_555 1_555
H2 C2 1_555 1_555
H3 C2 1_555 1_555
C3 C2 1_555 1_555
C4 C3 1_555 1_555
C5 C4 1_555 1_555
H4 C5 1_555 1_555
C6 C5 1_555 1_555
H5 C6 1_555 1_555
C7 C6 1_555 1_555
H6 C7 1_555 1_555
C8 C3 1_555 1_555
O1 C1 1_555 1_555
H7 O1 1_555 1_555
O2 C1 1_555 1_555
C9 H8 1_555 1_555
C10 C9 1_555 1_555
H9 C10 1_555 1_555
C11 C10 1_555 1_555
C12 C11 1_555 1_555
H10 C12 1_555 1_555
C13 C12 1_555 1_555
H11 C13 1_555 1_555
C14 C11 1_555 1_555
H12 C14 1_555 1_555
C15 C14 1_555 1_555
H13 C15 1_555 1_555
H14 C15 1_555 1_555
C16 C15 1_555 1_555
C17 C16 1_555 1_555
H15 C17 1_555 1_555
C18 C17 1_555 1_555
H16 C18 1_555 1_555
C19 H17 1_555 1_555
C20 C16 1_555 1_555
H18 C20 1_555 1_555
N1 C9 1_555 1_555
N2 C18 1_555 1_555
C9B H8B 1_555 1_555
C10B C9B 1_555 1_555
H9B C10B 1_555 1_555
C11B C10B 1_555 1_555
C12B C11B 1_555 1_555
H10B C12B 1_555 1_555
C13B C12B 1_555 1_555
H11B C13B 1_555 1_555
C14B C14 1_555 1_555
H12B C14B 1_555 1_555
C15B C14B 1_555 1_555
H13B C15B 1_555 1_555
H14B C15B 1_555 1_555
C16B C15B 1_555 1_555
C17B C16B 1_555 1_555
H15B C17B 1_555 1_555
C18B C17B 1_555 1_555
H16B C18B 1_555 1_555
C19B H17B 1_555 1_555
C20B C16B 1_555 1_555
H18B C20B 1_555 1_555
N1B C9B 1_555 1_555
N2B C18B 1_555 1_555
C7 C8 1_555 1_555
C13 N1 1_555 1_555
C19 C20 1_555 1_555
C19 N2 1_555 1_555
C11B C14B 1_555 1_555
C13B N1B 1_555 1_555
C19B C20B 1_555 1_555
C19B N2B 1_555 1_555

#END
