
#######################################################################
#
#                 Cambridge Crystallographic Data Centre
#                                CCDC 
#
#######################################################################
#
# If this CIF has been generated from an entry in the Cambridge 
# Structural Database, then it will include bibliographic, chemical, 
# crystal, experimental, refinement or atomic coordinate data resulting 
# from the CCDC's data processing and validation procedures.
#
#######################################################################

data_CAMSIT
_chemical_formula_moiety         'C6 H5 I1 N2 O2'
_chemical_name_systematic        2-Iodo-5-nitro-aniline
_symmetry_cell_setting           triclinic
_symmetry_space_group_name_H-M   'P -1'
_symmetry_Int_Tables_number      2
_space_group_name_Hall           '-P 1'
loop_
_symmetry_equiv_pos_site_id
_symmetry_equiv_pos_as_xyz
1 x,y,z
2 -x,-y,-z
_cell_length_a                   6.4236(15)
_cell_length_b                   7.4979(18)
_cell_length_c                   8.293(2)
_cell_angle_alpha                71.422(4)
_cell_angle_beta                 85.285(4)
_cell_angle_gamma                86.125(4)
_cell_volume                     376.963
_exptl_crystal_colour            orange
_exptl_crystal_description       plate
_chemical_melting_point          '429-431 K'
_cell_formula_units_Z            2
_exptl_crystal_recrystallization_method ethanol
loop_
_atom_site_label
_atom_site_type_symbol
_atom_site_fract_x
_atom_site_fract_y
_atom_site_fract_z
C1 C 0.4449(7) 0.3288(6) 0.3513(6)
N1 N 0.3913(6) 0.4158(6) 0.1884(5)
C2 C 0.6412(7) 0.2368(6) 0.3906(6)
I1 I 0.85816(4) 0.22346(3) 0.19084(3)
C3 C 0.6972(7) 0.1579(6) 0.5580(6)
C4 C 0.5607(7) 0.1669(6) 0.6939(6)
C5 C 0.3661(7) 0.2556(6) 0.6540(6)
N2 N 0.2134(7) 0.2636(5) 0.7936(5)
O1 O 0.0377(6) 0.3326(6) 0.7592(5)
O2 O 0.2667(6) 0.1987(6) 0.9413(4)
C6 C 0.3051(7) 0.3348(6) 0.4907(6)
H1 H 0.4812 0.4160 0.1024
H2 H 0.2668 0.4719 0.1692
H3 H 0.8312 0.0968 0.5795
H4 H 0.5982 0.1150 0.8086
H5 H 0.1696 0.3934 0.4714
loop_
_geom_bond_atom_site_label_1
_geom_bond_atom_site_label_2
_geom_bond_site_symmetry_1
_geom_bond_site_symmetry_2
C1 N1 1_555 1_555
N1 H1 1_555 1_555
C2 C1 1_555 1_555
I1 C2 1_555 1_555
C3 C2 1_555 1_555
C4 C3 1_555 1_555
C5 C4 1_555 1_555
N2 C5 1_555 1_555
O1 N2 1_555 1_555
O2 N2 1_555 1_555
C6 C1 1_555 1_555
H2 N1 1_555 1_555
H3 C3 1_555 1_555
H4 C4 1_555 1_555
H5 C6 1_555 1_555
C5 C6 1_555 1_555

#END
