
#######################################################################
#
#                 Cambridge Crystallographic Data Centre
#                                CCDC 
#
#######################################################################
#
# If this CIF has been generated from an entry in the Cambridge 
# Structural Database, then it will include bibliographic, chemical, 
# crystal, experimental, refinement or atomic coordinate data resulting 
# from the CCDC's data processing and validation procedures.
#
#######################################################################

data_CAMZOG
_chemical_formula_moiety         'C15 H16 N2 O2 S1'
_chemical_name_systematic        
6,7-Dihydro-6-methyl-3-(methylthio)-1-p-tolylpyrano(4,3-c)pyrazol-4(1H)-one
_chemical_properties_biological  'potential biological activity'
_symmetry_cell_setting           monoclinic
_symmetry_space_group_name_H-M   'P 21/c'
_symmetry_Int_Tables_number      14
_space_group_name_Hall           '-P 2ybc'
loop_
_symmetry_equiv_pos_site_id
_symmetry_equiv_pos_as_xyz
1 x,y,z
2 -x,1/2+y,1/2-z
3 -x,-y,-z
4 x,1/2-y,1/2+z
_cell_length_a                   10.662(2)
_cell_length_b                   18.315(4)
_cell_length_c                   7.6831(15)
_cell_angle_alpha                90
_cell_angle_beta                 98.377(3)
_cell_angle_gamma                90
_cell_volume                     1484.31
_exptl_crystal_colour            colorless
_exptl_crystal_description       prism
_chemical_melting_point          '429 K'
_cell_formula_units_Z            4
_exptl_crystal_recrystallization_method n-hexane/dichloromethane
loop_
_atom_site_label
_atom_site_type_symbol
_atom_site_fract_x
_atom_site_fract_y
_atom_site_fract_z
S1 S -0.27249(4) 0.21988(3) 0.42790(7)
O1 O -0.02034(12) 0.02459(7) 0.69617(18)
O2 O -0.20616(12) 0.05048(8) 0.5402(2)
N1 N 0.08140(13) 0.23491(8) 0.6109(2)
N2 N -0.03258(14) 0.26575(8) 0.5344(2)
C1 C 0.1660(2) -0.01265(11) 0.8814(3)
H1 H 0.1137 -0.0465 0.9336
H2 H 0.2353 0.0025 0.9678
H3 H 0.1984 -0.0358 0.7850
C2 C 0.08833(17) 0.05302(10) 0.8150(3)
H4 H 0.0568 0.0761 0.9153
C3 C 0.16283(17) 0.10946(10) 0.7286(3)
H5 H 0.2242 0.1333 0.8159
H6 H 0.2078 0.0865 0.6420
C4 C 0.06990(16) 0.16341(10) 0.6426(2)
C5 C -0.05433(16) 0.14515(10) 0.5857(2)
C6 C -0.10203(17) 0.07221(10) 0.6034(3)
C7 C -0.11344(16) 0.21054(10) 0.5194(2)
C8 C -0.28529(19) 0.31695(12) 0.4096(3)
H7 H -0.2689 0.3384 0.5247
H8 H -0.3692 0.3298 0.3553
H9 H -0.2246 0.3348 0.3391
C9 C 0.18827(16) 0.28174(10) 0.6533(2)
C10 C 0.30694(17) 0.26044(11) 0.6192(3)
H10 H 0.3185 0.2148 0.5708
C11 C 0.40781(17) 0.30769(11) 0.6581(3)
H11 H 0.4878 0.2931 0.6371
C12 C 0.39302(18) 0.37628(11) 0.7275(3)
C13 C 0.27320(17) 0.39607(10) 0.7613(3)
H12 H 0.2614 0.4417 0.8093
C14 C 0.17121(16) 0.34935(10) 0.7250(2)
H13 H 0.0916 0.3634 0.7488
C15 C 0.5019(2) 0.42989(14) 0.7625(4)
H14 H 0.5449 0.4232 0.8801
H15 H 0.4696 0.4788 0.7495
H16 H 0.5600 0.4217 0.6802
loop_
_geom_bond_atom_site_label_1
_geom_bond_atom_site_label_2
_geom_bond_site_symmetry_1
_geom_bond_site_symmetry_2
S1 C7 1_555 1_555
O1 C2 1_555 1_555
O2 C6 1_555 1_555
N1 N2 1_555 1_555
N2 C7 1_555 1_555
C1 H1 1_555 1_555
H2 C1 1_555 1_555
H3 C1 1_555 1_555
C2 C1 1_555 1_555
H4 C2 1_555 1_555
C3 C2 1_555 1_555
H5 C3 1_555 1_555
H6 C3 1_555 1_555
C4 N1 1_555 1_555
C5 C4 1_555 1_555
C6 O1 1_555 1_555
C7 C5 1_555 1_555
C8 S1 1_555 1_555
H7 C8 1_555 1_555
H8 C8 1_555 1_555
H9 C8 1_555 1_555
C9 N1 1_555 1_555
C10 C9 1_555 1_555
H10 C10 1_555 1_555
C11 C10 1_555 1_555
H11 C11 1_555 1_555
C12 C11 1_555 1_555
C13 C12 1_555 1_555
H12 C13 1_555 1_555
C14 C9 1_555 1_555
H13 C14 1_555 1_555
C15 C12 1_555 1_555
H14 C15 1_555 1_555
H15 C15 1_555 1_555
H16 C15 1_555 1_555
C3 C4 1_555 1_555
C5 C6 1_555 1_555
C13 C14 1_555 1_555

#END
