
#######################################################################
#
#                 Cambridge Crystallographic Data Centre
#                                CCDC 
#
#######################################################################
#
# If this CIF has been generated from an entry in the Cambridge 
# Structural Database, then it will include bibliographic, chemical, 
# crystal, experimental, refinement or atomic coordinate data resulting 
# from the CCDC's data processing and validation procedures.
#
#######################################################################

data_CANCID
_chemical_formula_moiety         'C16 H16 O2'
_chemical_name_systematic        
cis-3,4,4a,9,10,10a-Hexahydro-1,4a-ethanophenanthrene-2(1H),12-dione
_symmetry_cell_setting           orthorhombic
_symmetry_space_group_name_H-M   'P c a 21'
_symmetry_Int_Tables_number      29
_space_group_name_Hall           'P 2c -2ac'
loop_
_symmetry_equiv_pos_site_id
_symmetry_equiv_pos_as_xyz
1 x,y,z
2 1/2-x,y,1/2+z
3 1/2+x,-y,z
4 -x,-y,1/2+z
_cell_length_a                   11.385(9)
_cell_length_b                   11.938(8)
_cell_length_c                   18.50(2)
_cell_angle_alpha                90
_cell_angle_beta                 90
_cell_angle_gamma                90
_cell_volume                     2514.41
_chemical_melting_point          144deg.C
_cell_formula_units_Z            8
loop_
_atom_site_label
_atom_site_type_symbol
_atom_site_fract_x
_atom_site_fract_y
_atom_site_fract_z
C1 C -0.09260 0.43980 0.10470
C2 C -0.15320 0.45290 0.04000
C3 C -0.24040 0.37990 0.02040
C4 C -0.26940 0.28920 0.06380
C5 C -0.20880 0.27360 0.12880
C6 C -0.12050 0.34810 0.14890
C7 C -0.05450 0.33440 0.22030
C8 C -0.11390 0.40540 0.27930
C9 C -0.04290 0.40770 0.34980
C10 C 0.08580 0.41130 0.33880
C11 C 0.13210 0.33610 0.27940
C12 C 0.07320 0.37360 0.20800
C13 C 0.08250 0.49600 0.18690
C14 C 0.00230 0.52390 0.12280
C15 C 0.07700 0.22090 0.28970
C16 C -0.03660 0.21460 0.24740
O1 O 0.11740 0.14620 0.32720
O2 O 0.15350 0.47080 0.37310
C17 C 0.32530 0.13490 0.56570
C18 C 0.27960 0.10300 0.63240
C19 C 0.32480 0.01210 0.66760
C20 C 0.41820 -0.04810 0.64220
C21 C 0.46660 -0.01800 0.57430
C22 C 0.42170 0.07490 0.53690
C23 C 0.46980 0.10570 0.46430
C24 C 0.40000 0.04910 0.40440
C25 C 0.43120 0.08450 0.32660
C26 C 0.46180 0.20700 0.32270
C27 C 0.53220 0.25380 0.38610
C28 C 0.46120 0.23390 0.45540
C29 C 0.33510 0.27450 0.45880
C30 C 0.27720 0.23660 0.52760
C31 C 0.63550 0.17350 0.39770
C32 C 0.60140 0.08540 0.45250
O3 O 0.73030 0.18240 0.36830
O4 O 0.43520 0.26530 0.27080
loop_
_geom_bond_atom_site_label_1
_geom_bond_atom_site_label_2
_geom_bond_site_symmetry_1
_geom_bond_site_symmetry_2
C1 C2 1_555 1_555
C2 C3 1_555 1_555
C3 C4 1_555 1_555
C4 C5 1_555 1_555
C5 C6 1_555 1_555
C6 C1 1_555 1_555
C7 C6 1_555 1_555
C8 C7 1_555 1_555
C9 C8 1_555 1_555
C10 C9 1_555 1_555
C11 C10 1_555 1_555
C12 C7 1_555 1_555
C13 C12 1_555 1_555
C14 C1 1_555 1_555
C15 C11 1_555 1_555
C16 C7 1_555 1_555
O1 C15 1_555 1_555
O2 C10 1_555 1_555
C17 C18 1_555 1_555
C18 C19 1_555 1_555
C19 C20 1_555 1_555
C20 C21 1_555 1_555
C21 C22 1_555 1_555
C22 C17 1_555 1_555
C23 C22 1_555 1_555
C24 C23 1_555 1_555
C25 C24 1_555 1_555
C26 C25 1_555 1_555
C27 C26 1_555 1_555
C28 C23 1_555 1_555
C29 C28 1_555 1_555
C30 C17 1_555 1_555
C31 C27 1_555 1_555
C32 C23 1_555 1_555
O3 C31 1_555 1_555
O4 C26 1_555 1_555
C11 C12 1_555 1_555
C13 C14 1_555 1_555
C15 C16 1_555 1_555
C27 C28 1_555 1_555
C29 C30 1_555 1_555
C31 C32 1_555 1_555

#END
