
#######################################################################
#
#                 Cambridge Crystallographic Data Centre
#                                CCDC 
#
#######################################################################
#
# If this CIF has been generated from an entry in the Cambridge 
# Structural Database, then it will include bibliographic, chemical, 
# crystal, experimental, refinement or atomic coordinate data resulting 
# from the CCDC's data processing and validation procedures.
#
#######################################################################

data_CANCIE
_chemical_formula_moiety         'C5 H3 N1 O3 S1'
_chemical_name_systematic        5-Nitrothiophene-2-carbaldehyde
_symmetry_cell_setting           orthorhombic
_symmetry_space_group_name_H-M   'P n a 21'
_symmetry_Int_Tables_number      33
_space_group_name_Hall           'P 2c -2n'
loop_
_symmetry_equiv_pos_site_id
_symmetry_equiv_pos_as_xyz
1 x,y,z
2 -x,-y,1/2+z
3 1/2+x,1/2-y,z
4 1/2-x,1/2+y,1/2+z
_cell_length_a                   11.4180(7)
_cell_length_b                   13.9536(8)
_cell_length_c                   3.8525(2)
_cell_angle_alpha                90
_cell_angle_beta                 90
_cell_angle_gamma                90
_cell_volume                     613.789
_exptl_crystal_colour            white
_exptl_crystal_description       needle
_chemical_melting_point          '348 K'
_cell_formula_units_Z            4
_exptl_crystal_recrystallization_method ethanol
loop_
_atom_site_label
_atom_site_type_symbol
_atom_site_fract_x
_atom_site_fract_y
_atom_site_fract_z
C1 C 0.46363(17) 0.11451(15) 0.2365(8)
O1 O 0.54865(14) 0.11102(12) 0.4232(6)
C2 C 0.40295(18) 0.20433(13) 0.1532(6)
C3 C 0.29647(19) 0.21350(14) -0.0176(6)
H1 H 0.2536 0.1622 -0.1048
C4 C 0.26111(19) 0.31062(14) -0.0426(7)
H2 H 0.1925 0.3316 -0.1482
C5 C 0.34166(17) 0.36875(14) 0.1093(6)
S1 S 0.46118(4) 0.31238(3) 0.2815(2)
N1 N 0.33141(16) 0.47166(13) 0.1391(6)
O2 O 0.25103(17) 0.51047(12) -0.0168(7)
O3 O 0.40262(16) 0.51362(11) 0.3212(6)
H3 H 0.433(2) 0.059(2) 0.138(10)
loop_
_geom_bond_atom_site_label_1
_geom_bond_atom_site_label_2
_geom_bond_site_symmetry_1
_geom_bond_site_symmetry_2
C1 O1 1_555 1_555
C2 C1 1_555 1_555
C3 C2 1_555 1_555
H1 C3 1_555 1_555
C4 C3 1_555 1_555
H2 C4 1_555 1_555
C5 C4 1_555 1_555
S1 C2 1_555 1_555
N1 C5 1_555 1_555
O2 N1 1_555 1_555
O3 N1 1_555 1_555
H3 C1 1_555 1_555
C5 S1 1_555 1_555

#END
