
#######################################################################
#
#                 Cambridge Crystallographic Data Centre
#                                CCDC 
#
#######################################################################
#
# If this CIF has been generated from an entry in the Cambridge 
# Structural Database, then it will include bibliographic, chemical, 
# crystal, experimental, refinement or atomic coordinate data resulting 
# from the CCDC's data processing and validation procedures.
#
#######################################################################

data_CANWEV
_chemical_formula_moiety         'C15 H16 Br1 N3 O2'
_chemical_name_systematic        
4-(6-((4-Bromobenzyl)oxy)pyridazin-3-yl)morpholine
_symmetry_cell_setting           triclinic
_symmetry_space_group_name_H-M   'P -1'
_symmetry_Int_Tables_number      2
_space_group_name_Hall           '-P 1'
loop_
_symmetry_equiv_pos_site_id
_symmetry_equiv_pos_as_xyz
1 x,y,z
2 -x,-y,-z
_cell_length_a                   8.3408(17)
_cell_length_b                   8.8620(18)
_cell_length_c                   10.832(2)
_cell_angle_alpha                108.09(3)
_cell_angle_beta                 91.28(3)
_cell_angle_gamma                100.90(3)
_cell_volume                     744.529
_exptl_crystal_colour            colorless
_exptl_crystal_description       prism
_cell_formula_units_Z            2
loop_
_atom_site_label
_atom_site_type_symbol
_atom_site_fract_x
_atom_site_fract_y
_atom_site_fract_z
Br1 Br 0.25227(7) 1.27430(6) 0.54646(5)
O1 O 0.2575(4) 0.5514(3) 0.0985(3)
N1 N 0.1893(4) -0.0860(4) -0.1758(3)
N2 N 0.3140(4) 0.1437(4) -0.0078(3)
N3 N 0.3369(4) 0.3064(4) 0.0605(3)
C1 C 0.2950(5) 1.0734(5) 0.4392(4)
O2 O 0.1188(4) -0.4319(4) -0.2548(3)
C2 C 0.2005(4) 0.0775(4) -0.1070(4)
C3 C 0.2418(5) 0.3920(5) 0.0277(4)
C4 C 0.1005(5) 0.1703(5) -0.1457(4)
C5 C 0.3839(6) 0.6174(6) 0.2055(5)
C6 C 0.1210(5) 0.3303(5) -0.0771(4)
C7 C 0.3521(5) 0.7775(5) 0.2866(4)
C8 C 0.3523(6) 1.0601(6) 0.3191(5)
C9 C 0.3826(5) 0.9114(6) 0.2440(5)
C10 C 0.0248(5) -0.1819(5) -0.2287(5)
C11 C 0.2804(6) -0.1752(5) -0.1159(5)
C12 C 0.2803(7) -0.3406(6) -0.2105(6)
C13 C 0.0353(7) -0.3477(6) -0.3175(5)
C14 C 0.2669(8) 0.9441(7) 0.4834(6)
C15 C 0.2974(7) 0.7980(7) 0.4077(6)
H1 H 0.498(5) 0.633(5) 0.167(4)
H2 H 0.387(6) 0.546(6) 0.262(5)
H3 H 0.421(5) 0.898(5) 0.159(5)
H4 H -0.066(6) -0.408(6) -0.341(5)
H5 H 0.354(6) 1.171(7) 0.294(5)
H6 H 0.391(5) -0.120(5) -0.092(4)
H7 H 0.058(6) 0.397(6) -0.096(5)
H8 H -0.022(5) -0.132(6) -0.283(5)
H9 H 0.326(7) -0.399(7) -0.167(6)
H10 H 0.237(6) 0.959(6) 0.563(6)
H11 H 0.278(6) 0.718(6) 0.443(5)
H12 H 0.017(6) 0.116(6) -0.219(5)
H13 H 0.225(5) -0.194(5) -0.037(5)
H14 H -0.048(7) -0.189(7) -0.149(6)
H15 H 0.106(8) -0.337(8) -0.398(7)
H16 H 0.337(7) -0.327(7) -0.281(6)
loop_
_geom_bond_atom_site_label_1
_geom_bond_atom_site_label_2
_geom_bond_site_symmetry_1
_geom_bond_site_symmetry_2
Br1 C1 1_555 1_555
O1 C3 1_555 1_555
N1 C2 1_555 1_555
N2 N3 1_555 1_555
N3 C3 1_555 1_555
C1 C8 1_555 1_555
O2 C12 1_555 1_555
C2 N2 1_555 1_555
C3 C6 1_555 1_555
C4 C2 1_555 1_555
C5 O1 1_555 1_555
C6 C4 1_555 1_555
C7 C5 1_555 1_555
C8 C9 1_555 1_555
C9 C7 1_555 1_555
C10 N1 1_555 1_555
C11 N1 1_555 1_555
C12 C11 1_555 1_555
C13 O2 1_555 1_555
C14 C1 1_555 1_555
C15 C7 1_555 1_555
H1 C5 1_555 1_555
H2 C5 1_555 1_555
H3 C9 1_555 1_555
H4 C13 1_555 1_555
H5 C8 1_555 1_555
H6 C11 1_555 1_555
H7 C6 1_555 1_555
H8 C10 1_555 1_555
H9 C12 1_555 1_555
H10 C14 1_555 1_555
H11 C15 1_555 1_555
H12 C4 1_555 1_555
H13 C11 1_555 1_555
H14 C10 1_555 1_555
H15 C13 1_555 1_555
H16 C12 1_555 1_555
C10 C13 1_555 1_555
C14 C15 1_555 1_555

#END
