
#######################################################################
#
#                 Cambridge Crystallographic Data Centre
#                                CCDC 
#
#######################################################################
#
# If this CIF has been generated from an entry in the Cambridge 
# Structural Database, then it will include bibliographic, chemical, 
# crystal, experimental, refinement or atomic coordinate data resulting 
# from the CCDC's data processing and validation procedures.
#
#######################################################################

data_CAPCUT
_chemical_formula_moiety         'C13 H22 F1 N1 O3'
_chemical_name_systematic        
'Methyl (1-fluoro-1-(2-(hydroxymethyl)cyclopentylidene)-3-methylbutan-2-yl)carbamate'
_symmetry_cell_setting           orthorhombic
_symmetry_space_group_name_H-M   'P 21 21 21'
_symmetry_Int_Tables_number      19
_space_group_name_Hall           'P 2ac 2ab'
loop_
_symmetry_equiv_pos_site_id
_symmetry_equiv_pos_as_xyz
1 x,y,z
2 1/2+x,1/2-y,-z
3 -x,1/2+y,1/2-z
4 1/2-x,-y,1/2+z
_cell_length_a                   8.5511(6)
_cell_length_b                   12.8574(9)
_cell_length_c                   13.0250(9)
_cell_angle_alpha                90
_cell_angle_beta                 90
_cell_angle_gamma                90
_cell_volume                     1432.03
_cell_formula_units_Z            4
loop_
_atom_site_label
_atom_site_type_symbol
_atom_site_fract_x
_atom_site_fract_y
_atom_site_fract_z
C1 C 0.51769(18) 0.28604(12) 0.84273(11)
H1 H 0.5687 0.3498 0.8667
C2 C 0.4702(2) 0.21780(15) 0.93454(12)
H2 H 0.5517 0.1679 0.9506
H3 H 0.4501 0.2601 0.9948
C3 C 0.3221(2) 0.16275(16) 0.89953(15)
H4 H 0.2605 0.1401 0.9579
H5 H 0.3469 0.1028 0.8573
C4 C 0.23461(19) 0.24502(13) 0.83743(13)
H6 H 0.1724 0.2131 0.7837
H7 H 0.1665 0.2859 0.8813
C5 C 0.36219(16) 0.31151(11) 0.79242(10)
C6 C 0.62287(17) 0.22900(13) 0.76720(12)
H8 H 0.5715 0.1655 0.7453
H9 H 0.6386 0.2722 0.7070
C7 C 0.34006(16) 0.38367(11) 0.72163(12)
C8 C 0.19241(16) 0.41161(11) 0.66592(12)
H10 H 0.1241 0.3505 0.6683
C9 C -0.01738(18) 0.47839(12) 0.77440(12)
C10 C -0.2102(3) 0.55756(18) 0.87676(19)
H11 H -0.2891 0.5225 0.8374
H12 H -0.2469 0.6255 0.8956
H13 H -0.1879 0.5182 0.9377
C11 C 0.2211(2) 0.43669(13) 0.55204(12)
H14 H 0.2887 0.4981 0.5478
C12 C 0.3035(3) 0.34599(16) 0.49924(14)
H15 H 0.2386 0.2852 0.5029
H16 H 0.4012 0.3325 0.5330
H17 H 0.3225 0.3633 0.4286
C13 C 0.0667(2) 0.46125(17) 0.49779(14)
H18 H 0.0867 0.4766 0.4269
H19 H 0.0183 0.5203 0.5299
H20 H -0.0018 0.4023 0.5026
N1 N 0.11000(14) 0.49602(9) 0.71766(10)
H21 H 0.1442 0.5586 0.7115
O1 O 0.77157(12) 0.20377(8) 0.81087(10)
H22 H 0.8260 0.2562 0.8133
O2 O -0.08031(14) 0.39481(9) 0.78813(12)
O3 O -0.07033(13) 0.56722(9) 0.81633(10)
F1 F 0.46428(10) 0.44633(8) 0.69507(8)
loop_
_geom_bond_atom_site_label_1
_geom_bond_atom_site_label_2
_geom_bond_site_symmetry_1
_geom_bond_site_symmetry_2
C1 H1 1_555 1_555
C2 C1 1_555 1_555
H2 C2 1_555 1_555
H3 C2 1_555 1_555
C3 C2 1_555 1_555
H4 C3 1_555 1_555
H5 C3 1_555 1_555
C4 C3 1_555 1_555
H6 C4 1_555 1_555
H7 C4 1_555 1_555
C5 C1 1_555 1_555
C6 C1 1_555 1_555
H8 C6 1_555 1_555
H9 C6 1_555 1_555
C7 C5 1_555 1_555
C8 C7 1_555 1_555
H10 C8 1_555 1_555
C9 N1 1_555 1_555
C10 H11 1_555 1_555
H12 C10 1_555 1_555
H13 C10 1_555 1_555
C11 C8 1_555 1_555
H14 C11 1_555 1_555
C12 C11 1_555 1_555
H15 C12 1_555 1_555
H16 C12 1_555 1_555
H17 C12 1_555 1_555
C13 C11 1_555 1_555
H18 C13 1_555 1_555
H19 C13 1_555 1_555
H20 C13 1_555 1_555
N1 C8 1_555 1_555
H21 N1 1_555 1_555
O1 C6 1_555 1_555
H22 O1 1_555 1_555
O2 C9 1_555 1_555
O3 C9 1_555 1_555
F1 C7 1_555 1_555
C4 C5 1_555 1_555
C10 O3 1_555 1_555

#END
