
#######################################################################
#
#                 Cambridge Crystallographic Data Centre
#                                CCDC 
#
#######################################################################
#
# If this CIF has been generated from an entry in the Cambridge 
# Structural Database, then it will include bibliographic, chemical, 
# crystal, experimental, refinement or atomic coordinate data resulting 
# from the CCDC's data processing and validation procedures.
#
#######################################################################

data_CAPHOR
_chemical_compound_source        
'aerial parts of Aconitum tanguticum (MAXIM.) STAPF'
_chemical_name_common            'Tangutisine B'
_chemical_formula_moiety         'C32 H35 N1 O9'
_chemical_name_systematic        
(2S,4R,4aS,5R,7S,8R,10R,11R,11aS,11bS,13R)-8,13-bis(Acetyloxy)-2-(benzoyloxy)-dodecahydro-11-hydroxy-4,6-dimethyl-9-methylene-12-oxo-8H-5,7a:7,10-dimethano-1H-indeno(2,1-c)isoindole-4-carboxaldehyde
_chemical_properties_biological  
'no activity against P-388, Bel-7402, Cox-2 and caspase-3'
_symmetry_cell_setting           tetragonal
_symmetry_space_group_name_H-M   'P 43'
_symmetry_Int_Tables_number      78
_space_group_name_Hall           'P 4cw'
loop_
_symmetry_equiv_pos_site_id
_symmetry_equiv_pos_as_xyz
1 x,y,z
2 -x,-y,1/2+z
3 -y,x,3/4+z
4 y,-x,1/4+z
_cell_length_a                   9.414(4)
_cell_length_b                   9.414(4)
_cell_length_c                   32.048(17)
_cell_angle_alpha                90
_cell_angle_beta                 90
_cell_angle_gamma                90
_cell_volume                     2840.2
_exptl_crystal_colour            colorless
_exptl_crystal_description       needle
_chemical_melting_point          '242-244 deg.C'
_cell_formula_units_Z            4
_exptl_crystal_recrystallization_method acetone
loop_
_atom_site_label
_atom_site_type_symbol
_atom_site_fract_x
_atom_site_fract_y
_atom_site_fract_z
N1 N 1.0490(5) 0.9917(6) 0.20545(18)
O1 O 0.6447(5) 1.0011(5) 0.22156(15)
O2 O 0.4578(5) 0.8948(5) 0.25244(16)
O3 O 1.1971(5) 0.7087(5) 0.13831(15)
O4 O 1.4190(7) 0.7619(10) 0.1260(2)
O5 O 0.9262(7) 0.3939(5) 0.2227(2)
O6 O 1.0040(7) 0.7518(6) 0.31840(18)
O7 O 1.2469(7) 0.4731(6) 0.1918(2)
O8 O 1.4809(12) 0.4803(15) 0.1972(6)
O9 O 0.9577(6) 1.2187(6) 0.1526(2)
C1 C 0.7412(6) 0.7695(7) 0.2035(2)
H1 H 0.7141 0.6839 0.1887
H2 H 0.7211 0.7535 0.2328
C2 C 0.6455(8) 0.8890(9) 0.1886(2)
C3 C 0.6911(7) 0.9521(8) 0.1486(2)
H3 H 0.6384 1.0396 0.1447
H4 H 0.6627 0.8878 0.1264
C4 C 0.8526(7) 0.9864(8) 0.1425(2)
C5 C 0.9423(7) 0.8605(8) 0.1568(2)
C6 C 1.0896(7) 0.9134(8) 0.1675(2)
C7 C 1.1921(8) 0.7914(7) 0.1768(2)
C8 C 1.1347(7) 0.6947(7) 0.2122(2)
C9 C 0.9846(7) 0.6436(7) 0.2016(2)
C10 C 0.9008(6) 0.7874(7) 0.1989(2)
C11 C 0.9331(8) 0.5377(7) 0.2361(2)
C12 C 1.0324(8) 0.5465(8) 0.2752(2)
C13 C 1.0405(8) 0.7010(8) 0.2851(2)
C14 C 1.0993(8) 0.7883(7) 0.2504(2)
C15 C 1.2387(8) 0.5783(8) 0.2246(3)
C16 C 1.1822(9) 0.5040(9) 0.2636(3)
C17 C 1.2585(8) 0.4170(9) 0.2865(3)
H5 H 1.2207 0.3792 0.3109
H6 H 1.3503 0.3933 0.2783
C18 C 0.8798(9) 1.0134(8) 0.0956(2)
H7 H 0.8206 1.0900 0.0862
H8 H 0.8579 0.9291 0.0800
H9 H 0.9777 1.0380 0.0914
C19 C 0.8877(8) 1.1178(8) 0.1665(3)
H10 H 0.8548 1.1243 0.1938
C20 C 0.9834(6) 0.8855(7) 0.2315(2)
C21 C 0.5487(8) 0.9899(8) 0.2510(3)
C22 C 0.5563(7) 1.1006(7) 0.2834(2)
C23 C 0.6530(8) 1.2106(8) 0.2801(2)
H11 H 0.7127 1.2165 0.2571
C24 C 0.6604(9) 1.3120(9) 0.3114(3)
H12 H 0.7242 1.3869 0.3090
C25 C 0.5739(9) 1.3030(9) 0.3463(3)
H13 H 0.5814 1.3705 0.3674
C26 C 0.4761(8) 1.1930(9) 0.3499(2)
H14 H 0.4171 1.1860 0.3730
C27 C 0.4688(7) 1.0922(8) 0.3174(2)
H15 H 0.4031 1.0186 0.3191
C28 C 1.3155(9) 0.7083(9) 0.1158(2)
C29 C 1.2913(8) 0.6300(10) 0.0755(2)
H16 H 1.2349 0.6875 0.0572
H17 H 1.2425 0.5425 0.0811
H18 H 1.3811 0.6100 0.0626
C30 C 1.380(2) 0.4183(14) 0.1808(6)
C31 C 1.3700(18) 0.3171(12) 0.1465(5)
H19 H 1.4627 0.3017 0.1349
H20 H 1.3081 0.3543 0.1253
H21 H 1.3326 0.2288 0.1566
C32 C 1.1509(8) 1.0920(7) 0.2237(3)
H22 H 1.1175 1.1224 0.2505
H23 H 1.1605 1.1730 0.2057
H24 H 1.2415 1.0464 0.2267
H25 H 0.547(3) 0.852(5) 0.1851(15)
H26 H 0.933(5) 0.790(4) 0.1357(12)
H27 H 1.135(4) 0.972(4) 0.1469(11)
H28 H 1.290(3) 0.809(6) 0.1856(18)
H29 H 0.970(7) 0.587(6) 0.1769(13)
H30 H 0.839(3) 0.563(5) 0.2450(15)
H31 H 0.976(6) 0.499(6) 0.2968(18)
H32 H 1.178(5) 0.850(6) 0.256(2)
H33 H 1.339(3) 0.601(6) 0.222(2)
H34 H 0.935(5) 0.941(5) 0.2522(13)
H35 H 0.959(7) 0.409(7) 0.1968(10)
loop_
_geom_bond_atom_site_label_1
_geom_bond_atom_site_label_2
_geom_bond_site_symmetry_1
_geom_bond_site_symmetry_2
N1 C6 1_555 1_555
O1 C2 1_555 1_555
O2 C21 1_555 1_555
O3 C7 1_555 1_555
O4 C28 1_555 1_555
O5 C11 1_555 1_555
O6 C13 1_555 1_555
O7 C15 1_555 1_555
O8 C30 1_555 1_555
O9 C19 1_555 1_555
C1 H1 1_555 1_555
H2 C1 1_555 1_555
C2 C1 1_555 1_555
C3 C2 1_555 1_555
H3 C3 1_555 1_555
H4 C3 1_555 1_555
C4 C3 1_555 1_555
C5 C4 1_555 1_555
C6 C5 1_555 1_555
C7 C6 1_555 1_555
C8 C7 1_555 1_555
C9 C8 1_555 1_555
C10 C1 1_555 1_555
C11 C9 1_555 1_555
C12 C11 1_555 1_555
C13 C12 1_555 1_555
C14 C8 1_555 1_555
C15 C8 1_555 1_555
C16 C12 1_555 1_555
C17 C16 1_555 1_555
H5 C17 1_555 1_555
H6 C17 1_555 1_555
C18 C4 1_555 1_555
H7 C18 1_555 1_555
H8 C18 1_555 1_555
H9 C18 1_555 1_555
C19 C4 1_555 1_555
H10 C19 1_555 1_555
C20 N1 1_555 1_555
C21 O1 1_555 1_555
C22 C21 1_555 1_555
C23 C22 1_555 1_555
H11 C23 1_555 1_555
C24 C23 1_555 1_555
H12 C24 1_555 1_555
C25 C24 1_555 1_555
H13 C25 1_555 1_555
C26 C25 1_555 1_555
H14 C26 1_555 1_555
C27 C22 1_555 1_555
H15 C27 1_555 1_555
C28 O3 1_555 1_555
C29 C28 1_555 1_555
H16 C29 1_555 1_555
H17 C29 1_555 1_555
H18 C29 1_555 1_555
C30 O7 1_555 1_555
C31 C30 1_555 1_555
H19 C31 1_555 1_555
H20 C31 1_555 1_555
H21 C31 1_555 1_555
C32 N1 1_555 1_555
H22 C32 1_555 1_555
H23 C32 1_555 1_555
H24 C32 1_555 1_555
H25 C2 1_555 1_555
H26 C5 1_555 1_555
H27 C6 1_555 1_555
H28 C7 1_555 1_555
H29 C9 1_555 1_555
H30 C11 1_555 1_555
H31 C12 1_555 1_555
H32 C14 1_555 1_555
H33 C15 1_555 1_555
H34 C20 1_555 1_555
H35 O5 1_555 1_555
C5 C10 1_555 1_555
C9 C10 1_555 1_555
C10 C20 1_555 1_555
C13 C14 1_555 1_555
C14 C20 1_555 1_555
C15 C16 1_555 1_555
C26 C27 1_555 1_555

#END
