
#######################################################################
#
#                 Cambridge Crystallographic Data Centre
#                                CCDC 
#
#######################################################################
#
# If this CIF has been generated from an entry in the Cambridge 
# Structural Database, then it will include bibliographic, chemical, 
# crystal, experimental, refinement or atomic coordinate data resulting 
# from the CCDC's data processing and validation procedures.
#
#######################################################################

data_CAPHAF
_chemical_formula_moiety         'C13 H13 N1 O3 S1'
_chemical_name_systematic        
6-(phenylsulfonyl)-4,5,6,7-tetrahydrofuro[2,3-c]pyridine
_symmetry_cell_setting           monoclinic
_symmetry_space_group_name_H-M   'P 21/c'
_symmetry_Int_Tables_number      14
_space_group_name_Hall           '-P 2ybc'
loop_
_symmetry_equiv_pos_site_id
_symmetry_equiv_pos_as_xyz
1 x,y,z
2 -x,1/2+y,1/2-z
3 -x,-y,-z
4 x,1/2-y,1/2+z
_cell_length_a                   7.6175(4)
_cell_length_b                   19.3326(10)
_cell_length_c                   8.3248(5)
_cell_angle_alpha                90
_cell_angle_beta                 97.4890(10)
_cell_angle_gamma                90
_cell_volume                     1215.5
_exptl_crystal_colour            colorless
_cell_formula_units_Z            4
loop_
_atom_site_label
_atom_site_type_symbol
_atom_site_fract_x
_atom_site_fract_y
_atom_site_fract_z
S1 S 0.22682(6) 0.65113(2) 0.15859(5)
O1 O 0.25822(18) 0.43505(6) 0.49886(17)
O2 O 0.29593(18) 0.60623(7) 0.04575(15)
O3 O 0.31038(17) 0.71606(7) 0.20011(17)
N1 N 0.22932(19) 0.60806(7) 0.32602(16)
C1 C 0.3177(3) 0.42659(12) 0.6607(3)
H1 H 0.3398 0.3840 0.7111
C2 C 0.2435(2) 0.50498(9) 0.4775(2)
C3 C 0.1848(2) 0.53393(9) 0.3140(2)
H2 H 0.2463 0.5116 0.2332
H3 H 0.0584 0.5275 0.2847
C4 C 0.0036(2) 0.66855(8) 0.08223(19)
C5 C -0.0863(3) 0.62346(10) -0.0285(2)
H4 H -0.0298 0.5846 -0.0628
C6 C -0.2611(3) 0.63686(11) -0.0877(3)
H5 H -0.3226 0.6067 -0.1618
C7 C -0.3443(3) 0.69441(11) -0.0378(2)
H6 H -0.4617 0.7033 -0.0785
C8 C 0.3395(3) 0.48694(11) 0.7355(3)
H7 H 0.3792 0.4940 0.8447
C9 C 0.2904(2) 0.53939(10) 0.6163(2)
C10 C 0.1771(3) 0.64359(9) 0.4696(2)
H8 H 0.0525 0.6356 0.4759
H9 H 0.1954 0.6930 0.4605
C11 C 0.2876(3) 0.61624(10) 0.6221(2)
H10 H 0.4074 0.6341 0.6290
H11 H 0.2371 0.6315 0.7171
C12 C -0.2544(3) 0.73903(11) 0.0723(2)
H12 H -0.3113 0.7780 0.1058
C13 C -0.0800(3) 0.72631(9) 0.1334(2)
H13 H -0.0195 0.7564 0.2083
loop_
_geom_bond_atom_site_label_1
_geom_bond_atom_site_label_2
_geom_bond_site_symmetry_1
_geom_bond_site_symmetry_2
S1 O2 1_555 1_555
O1 C1 1_555 1_555
O3 S1 1_555 1_555
N1 S1 1_555 1_555
C1 H1 1_555 1_555
C2 O1 1_555 1_555
C3 N1 1_555 1_555
H2 C3 1_555 1_555
H3 C3 1_555 1_555
C4 S1 1_555 1_555
C5 C4 1_555 1_555
H4 C5 1_555 1_555
C6 C5 1_555 1_555
H5 C6 1_555 1_555
C7 C6 1_555 1_555
H6 C7 1_555 1_555
C8 C1 1_555 1_555
H7 C8 1_555 1_555
C9 C2 1_555 1_555
C10 N1 1_555 1_555
H8 C10 1_555 1_555
H9 C10 1_555 1_555
C11 C9 1_555 1_555
H10 C11 1_555 1_555
H11 C11 1_555 1_555
C12 C7 1_555 1_555
H12 C12 1_555 1_555
C13 C4 1_555 1_555
H13 C13 1_555 1_555
C2 C3 1_555 1_555
C8 C9 1_555 1_555
C10 C11 1_555 1_555
C12 C13 1_555 1_555

#END
