
#######################################################################
#
#                 Cambridge Crystallographic Data Centre
#                                CCDC 
#
#######################################################################
#
# If this CIF has been generated from an entry in the Cambridge 
# Structural Database, then it will include bibliographic, chemical, 
# crystal, experimental, refinement or atomic coordinate data resulting 
# from the CCDC's data processing and validation procedures.
#
#######################################################################

data_CAQLIS
_chemical_name_common            
"tetraethyl 2,2'-(2-(4-(4-methoxyphenyl)quinazolin-2-yl)-1,3-phenylene)dimalonate"
_chemical_formula_moiety         'C35 H36 N2 O9'
_chemical_name_systematic        
"tetraethyl 2,2'-(2-(4-(4-methoxyphenyl)quinazolin-2-yl)-1,3-phenylene)dipropanedioate"
_symmetry_cell_setting           monoclinic
_symmetry_space_group_name_H-M   'P 21/c'
_symmetry_Int_Tables_number      14
_space_group_name_Hall           '-P 2ybc'
loop_
_symmetry_equiv_pos_site_id
_symmetry_equiv_pos_as_xyz
1 x,y,z
2 -x,1/2+y,1/2-z
3 -x,-y,-z
4 x,1/2-y,1/2+z
_cell_length_a                   8.2108(18)
_cell_length_b                   27.415(6)
_cell_length_c                   14.553(3)
_cell_angle_alpha                90
_cell_angle_beta                 100.989(3)
_cell_angle_gamma                90
_cell_volume                     3215.8
_exptl_crystal_colour            'light yellow'
_exptl_crystal_description       plate
_cell_formula_units_Z            4
loop_
_atom_site_label
_atom_site_type_symbol
_atom_site_fract_x
_atom_site_fract_y
_atom_site_fract_z
N1 N 0.32098(19) 0.53921(5) 0.16351(11)
N2 N 0.17656(18) 0.58097(6) 0.02853(12)
O1 O 0.4982(3) 0.33171(5) 0.34125(12)
O2 O 0.41424(19) 0.56590(6) 0.40378(11)
O3 O 0.19401(19) 0.51598(6) 0.37142(11)
O4 O 0.0639(2) 0.61204(8) 0.43984(14)
O5 O -0.09379(18) 0.62918(6) 0.30072(11)
O6 O 0.1699(2) 0.72041(7) -0.02170(12)
O7 O 0.23350(18) 0.66689(6) -0.12444(11)
O8 O 0.56173(18) 0.72433(6) -0.02862(12)
O9 O 0.68284(15) 0.66406(5) 0.06281(11)
C1 C 0.5832(5) 0.33660(10) 0.43618(19)
H1 H 0.5977 0.3050 0.4649
H2 H 0.6898 0.3513 0.4375
H3 H 0.5192 0.3568 0.4699
C2 C 0.4660(3) 0.37277(8) 0.28876(17)
C3 C 0.3553(3) 0.36759(8) 0.20505(16)
H4 H 0.3119 0.3370 0.1867
C4 C 0.3090(3) 0.40738(7) 0.14882(16)
H5 H 0.2319 0.4034 0.0936
C5 C 0.3754(2) 0.45374(7) 0.17270(15)
C6 C 0.4890(3) 0.45775(8) 0.25588(16)
H6 H 0.5351 0.4881 0.2736
C7 C 0.5361(3) 0.41822(8) 0.31321(17)
H7 H 0.6144 0.4219 0.3680
C8 C 0.3194(2) 0.49757(7) 0.11660(14)
C9 C 0.2655(2) 0.49681(7) 0.01763(14)
C10 C 0.2904(3) 0.45830(8) -0.04291(16)
H8 H 0.3502 0.4309 -0.0185
C11 C 0.2282(3) 0.46073(9) -0.13613(17)
H9 H 0.2470 0.4353 -0.1750
C12 C 0.1361(3) 0.50128(9) -0.17390(17)
H10 H 0.0894 0.5019 -0.2373
C13 C 0.1141(3) 0.53997(8) -0.11849(16)
H11 H 0.0536 0.5670 -0.1444
C14 C 0.1824(2) 0.53913(7) -0.02266(14)
C15 C 0.2574(2) 0.57975(7) 0.11533(14)
C16 C 0.2885(2) 0.62684(6) 0.16720(14)
C17 C 0.2534(2) 0.63191(7) 0.25751(14)
C18 C 0.2958(2) 0.67501(7) 0.30683(15)
H12 H 0.2724 0.6785 0.3665
C19 C 0.3720(2) 0.71255(7) 0.26829(15)
H13 H 0.4024 0.7409 0.3025
C20 C 0.4029(2) 0.70804(7) 0.17916(15)
H14 H 0.4523 0.7338 0.1531
C21 C 0.3617(2) 0.66580(7) 0.12712(14)
C22 C 0.1635(2) 0.59183(7) 0.29957(14)
H15 H 0.1007 0.5726 0.2480
C23 C 0.0409(3) 0.61215(8) 0.35627(18)
C24 C -0.2246(3) 0.64883(12) 0.3462(2)
H16 H -0.3282 0.6498 0.3012
H17 H -0.2398 0.6272 0.3967
C25 C -0.1856(4) 0.69730(13) 0.3833(3)
H18 H -0.2740 0.7088 0.4124
H19 H -0.0843 0.6963 0.4288
H20 H -0.1727 0.7189 0.3333
C26 C 0.2764(3) 0.55731(8) 0.36348(15)
C27 C 0.2700(4) 0.48039(10) 0.4401(2)
H21 H 0.3865 0.4765 0.4378
H22 H 0.2608 0.4909 0.5026
C28 C 0.1827(6) 0.43501(16) 0.4173(4)
H23 H 0.2296 0.4104 0.4614
H24 H 0.0677 0.4393 0.4199
H25 H 0.1928 0.4251 0.3554
C29 C 0.3927(2) 0.66371(7) 0.02752(13)
H26 H 0.3989 0.6293 0.0099
C30 C 0.2521(2) 0.68734(8) -0.04031(16)
C31 C 0.0967(3) 0.68546(11) -0.19422(19)
H27 H -0.0070 0.6812 -0.1725
H28 H 0.1123 0.7200 -0.2042
C32 C 0.0909(5) 0.65920(14) -0.2808(2)
H29 H 0.0008 0.6713 -0.3271
H30 H 0.1934 0.6637 -0.3022
H31 H 0.0745 0.6251 -0.2706
C33 C 0.5537(2) 0.68846(7) 0.01665(15)
C34 C 0.8468(3) 0.68288(9) 0.0562(2)
H32 H 0.8445 0.6949 -0.0068
H33 H 0.9270 0.6565 0.0678
C35 C 0.8998(3) 0.72252(11) 0.12349(19)
H34 H 1.0077 0.7338 0.1169
H35 H 0.8220 0.7489 0.1114
H36 H 0.9044 0.7107 0.1860
C36? C 0.1870(12) 0.4856(4) 0.5271(7)
H37? H 0.2350 0.4624 0.5740
H38? H 0.2047 0.5180 0.5520
H39? H 0.0701 0.4796 0.5092
loop_
_geom_bond_atom_site_label_1
_geom_bond_atom_site_label_2
_geom_bond_site_symmetry_1
_geom_bond_site_symmetry_2
N1 C8 1_555 1_555
N2 C14 1_555 1_555
O1 C1 1_555 1_555
O2 C26 1_555 1_555
O3 C26 1_555 1_555
O4 C23 1_555 1_555
O5 C23 1_555 1_555
O6 C30 1_555 1_555
O7 C30 1_555 1_555
O8 C33 1_555 1_555
O9 C33 1_555 1_555
C1 H1 1_555 1_555
H2 C1 1_555 1_555
H3 C1 1_555 1_555
C2 O1 1_555 1_555
C3 C2 1_555 1_555
H4 C3 1_555 1_555
C4 C3 1_555 1_555
H5 C4 1_555 1_555
C5 C4 1_555 1_555
C6 C5 1_555 1_555
H6 C6 1_555 1_555
C7 C2 1_555 1_555
H7 C7 1_555 1_555
C8 C5 1_555 1_555
C9 C8 1_555 1_555
C10 C9 1_555 1_555
H8 C10 1_555 1_555
C11 C10 1_555 1_555
H9 C11 1_555 1_555
C12 C11 1_555 1_555
H10 C12 1_555 1_555
C13 C12 1_555 1_555
H11 C13 1_555 1_555
C14 C9 1_555 1_555
C15 N1 1_555 1_555
C16 C15 1_555 1_555
C17 C16 1_555 1_555
C18 C17 1_555 1_555
H12 C18 1_555 1_555
C19 C18 1_555 1_555
H13 C19 1_555 1_555
C20 C19 1_555 1_555
H14 C20 1_555 1_555
C21 C16 1_555 1_555
C22 C17 1_555 1_555
H15 C22 1_555 1_555
C23 C22 1_555 1_555
C24 O5 1_555 1_555
H16 C24 1_555 1_555
H17 C24 1_555 1_555
C25 C24 1_555 1_555
H18 C25 1_555 1_555
H19 C25 1_555 1_555
H20 C25 1_555 1_555
C26 C22 1_555 1_555
C27 O3 1_555 1_555
H21 C27 1_555 1_555
H22 C27 1_555 1_555
C28 C27 1_555 1_555
H23 C28 1_555 1_555
H24 C28 1_555 1_555
H25 C28 1_555 1_555
C29 C21 1_555 1_555
H26 C29 1_555 1_555
C30 C29 1_555 1_555
C31 O7 1_555 1_555
H27 C31 1_555 1_555
H28 C31 1_555 1_555
C32 C31 1_555 1_555
H29 C32 1_555 1_555
H30 C32 1_555 1_555
H31 C32 1_555 1_555
C33 C29 1_555 1_555
C34 O9 1_555 1_555
H32 C34 1_555 1_555
H33 C34 1_555 1_555
C35 C34 1_555 1_555
H34 C35 1_555 1_555
H35 C35 1_555 1_555
H36 C35 1_555 1_555
N2 C15 1_555 1_555
C6 C7 1_555 1_555
C13 C14 1_555 1_555
C20 C21 1_555 1_555

#END
