
#######################################################################
#
#                 Cambridge Crystallographic Data Centre
#                                CCDC 
#
#######################################################################
#
# If this CIF has been generated from an entry in the Cambridge 
# Structural Database, then it will include bibliographic, chemical, 
# crystal, experimental, refinement or atomic coordinate data resulting 
# from the CCDC's data processing and validation procedures.
#
#######################################################################

data_CAQLUB
_chemical_formula_moiety         'C30 H27 N2 O3 P1,C3 H7 N1 O1'
_chemical_name_systematic        
"N,N'-(5-n-Butyl-5-oxodibenzo(b,d)phosphole-3,7-diyl)bis(benzamide) dimethylformamide solvate"
_symmetry_cell_setting           triclinic
_symmetry_space_group_name_H-M   'P -1'
_symmetry_Int_Tables_number      2
_space_group_name_Hall           '-P 1'
loop_
_symmetry_equiv_pos_site_id
_symmetry_equiv_pos_as_xyz
1 x,y,z
2 -x,-y,-z
_cell_length_a                   10.295(8)
_cell_length_b                   12.743(5)
_cell_length_c                   13.239(6)
_cell_angle_alpha                108.14(3)
_cell_angle_beta                 108.16(5)
_cell_angle_gamma                101.20(4)
_cell_volume                     1484.45
_exptl_crystal_colour            colorless
_exptl_crystal_description       block
_cell_formula_units_Z            2
_exptl_crystal_recrystallization_method DMF/acetonitrile
loop_
_atom_site_label
_atom_site_type_symbol
_atom_site_fract_x
_atom_site_fract_y
_atom_site_fract_z
P1 P 0.2115(2) 0.3256(2) 0.3572(2)
O1 O 0.2270(6) 0.4505(5) 0.4081(5)
O3 O -0.3659(7) 0.2123(6) 0.1892(6)
O4 O 0.8039(7) 0.1635(6) 0.5962(6)
N1 N -0.3288(7) 0.0699(6) 0.2537(6)
N3 N 0.7335(7) 0.3141(5) 0.5688(6)
C1 C 0.0670(8) 0.2180(7) 0.3551(7)
C3 C -0.0829(9) 0.1990(7) 0.3058(7)
C5 C -0.1757(9) 0.1018(7) 0.3028(7)
C7 C -0.1203(9) 0.0244(7) 0.3436(8)
C8 C 0.0272(9) 0.0437(7) 0.3915(7)
C9 C 0.1206(9) 0.1409(7) 0.3977(7)
C10 C 0.2799(8) 0.1756(7) 0.4453(7)
C11 C 0.3666(9) 0.1237(7) 0.4999(8)
C12 C 0.5162(9) 0.1654(7) 0.5413(7)
C13 C 0.5819(9) 0.2637(7) 0.5275(7)
C14 C 0.4968(8) 0.3191(7) 0.4737(7)
C15 C 0.3476(8) 0.2753(6) 0.4325(7)
C16 C 0.1923(9) 0.2806(7) 0.2095(7)
C17 C 0.310(1) 0.3546(8) 0.1892(9)
C18 C 0.268(1) 0.327(1) 0.058(1)
C19 C 0.381(2) 0.396(1) 0.040(1)
C20 C -0.4113(9) 0.1239(8) 0.2002(8)
C21 C -0.5717(9) 0.0607(7) 0.1570(7)
C22 C -0.660(1) 0.0434(8) 0.0456(9)
C23 C -0.806(1) -0.0179(9) 0.0016(9)
C24 C -0.861(1) -0.0598(8) 0.0667(9)
C25 C -0.778(1) -0.0421(8) 0.1805(8)
C26 C -0.6295(9) 0.0174(7) 0.2227(8)
C27 C 0.8357(9) 0.2630(7) 0.5987(8)
C28 C 0.9882(9) 0.3306(7) 0.6314(7)
C29 C 1.094(1) 0.2833(8) 0.6754(9)
C30 C 1.240(1) 0.3377(9) 0.7050(9)
C31 C 1.2777(10) 0.4367(8) 0.6863(8)
C32 C 1.178(1) 0.4874(8) 0.6470(8)
C33 C 1.0337(9) 0.4331(7) 0.6181(7)
H1 H -0.1175 0.2511 0.2760
H2 H -0.1848 -0.0446 0.3359
H3 H 0.0629 -0.0076 0.4231
H4 H 0.3225 0.0566 0.5109
H5 H 0.5758 0.1283 0.5780
H6 H 0.5425 0.3885 0.4675
H7 H 0.1921 0.2023 0.1833
H8 H 0.1015 0.2841 0.1655
H9 H 0.3971 0.3378 0.2179
H10 H 0.3249 0.4346 0.2291
H11 H 0.2531 0.2483 0.0207
H12 H 0.1847 0.3474 0.0326
H13 H 0.4689 0.3794 0.0682
H14 H 0.3968 0.4761 0.0750
H15 H 0.3519 0.3733 -0.0428
H16 H -0.3804 0.0035 0.2598
H17 H -0.6224 0.0730 0.0011
H18 H -0.8689 -0.0303 -0.0737
H19 H -0.9617 -0.1049 0.0364
H20 H -0.8163 -0.0677 0.2283
H21 H -0.5670 0.0294 0.2981
H22 H 0.7681 0.3931 0.5789
H23 H 1.0661 0.2136 0.6853
H24 H 1.3117 0.3069 0.7391
H25 H 1.3752 0.4710 0.7012
H26 H 1.2095 0.5586 0.6395
H27 H 0.9630 0.4676 0.5900
O2 O 0.4800(9) 0.1794(6) 0.8157(7)
N2 N 0.6998(9) 0.3082(7) 0.9384(8)
C2 C 0.575(1) 0.232(1) 0.911(1)
C4 C 0.809(1) 0.366(1) 1.054(1)
C6 C 0.736(1) 0.337(1) 0.853(1)
H28 H 0.5580 0.2125 0.9746
H29 H 0.7386 0.3426 1.0887
H30 H 0.8884 0.3371 1.0731
H31 H 0.8497 0.4509 1.0860
H32 H 0.8105 0.3020 0.8267
H33 H 0.7616 0.4145 0.8513
H34 H 0.6498 0.2894 0.7648
loop_
_geom_bond_atom_site_label_1
_geom_bond_atom_site_label_2
_geom_bond_site_symmetry_1
_geom_bond_site_symmetry_2
P1 O1 1_555 1_555
O2 C2 1_555 1_555
O3 C20 1_555 1_555
O4 C27 1_555 1_555
N1 C5 1_555 1_555
N2 C2 1_555 1_555
N3 C13 1_555 1_555
C1 P1 1_555 1_555
C2 H28 1_555 1_555
C3 C1 1_555 1_555
C4 N2 1_555 1_555
C5 C3 1_555 1_555
C6 N2 1_555 1_555
C7 C5 1_555 1_555
C8 C7 1_555 1_555
C9 C1 1_555 1_555
C10 C9 1_555 1_555
C11 C10 1_555 1_555
C12 C11 1_555 1_555
C13 C12 1_555 1_555
C14 C13 1_555 1_555
C15 P1 1_555 1_555
C16 P1 1_555 1_555
C17 C16 1_555 1_555
C18 C17 1_555 1_555
C19 C18 1_555 1_555
C20 N1 1_555 1_555
C21 C20 1_555 1_555
C22 C21 1_555 1_555
C23 C22 1_555 1_555
C24 C23 1_555 1_555
C25 C24 1_555 1_555
C26 C21 1_555 1_555
C27 N3 1_555 1_555
C28 C27 1_555 1_555
C29 C28 1_555 1_555
C30 C29 1_555 1_555
C31 C30 1_555 1_555
C32 C31 1_555 1_555
C33 C28 1_555 1_555
H1 C3 1_555 1_555
H2 C7 1_555 1_555
H3 C8 1_555 1_555
H4 C11 1_555 1_555
H5 C12 1_555 1_555
H6 C14 1_555 1_555
H7 C16 1_555 1_555
H8 C16 1_555 1_555
H9 C17 1_555 1_555
H10 C17 1_555 1_555
H11 C18 1_555 1_555
H12 C18 1_555 1_555
H13 C19 1_555 1_555
H14 C19 1_555 1_555
H15 C19 1_555 1_555
H16 N1 1_555 1_555
H17 C22 1_555 1_555
H18 C23 1_555 1_555
H19 C24 1_555 1_555
H20 C25 1_555 1_555
H21 C26 1_555 1_555
H22 N3 1_555 1_555
H23 C29 1_555 1_555
H24 C30 1_555 1_555
H25 C31 1_555 1_555
H26 C32 1_555 1_555
H27 C33 1_555 1_555
H29 C4 1_555 1_555
H30 C4 1_555 1_555
H31 C4 1_555 1_555
H32 C6 1_555 1_555
H33 C6 1_555 1_555
H34 C6 1_555 1_555
C8 C9 1_555 1_555
C10 C15 1_555 1_555
C14 C15 1_555 1_555
C25 C26 1_555 1_555
C32 C33 1_555 1_555

#END
