
#######################################################################
#
#                 Cambridge Crystallographic Data Centre
#                                CCDC 
#
#######################################################################
#
# If this CIF has been generated from an entry in the Cambridge 
# Structural Database, then it will include bibliographic, chemical, 
# crystal, experimental, refinement or atomic coordinate data resulting 
# from the CCDC's data processing and validation procedures.
#
#######################################################################

data_CAQRUH
_chemical_formula_moiety         'C20 H19 N1 O4'
_chemical_name_systematic        
3-Ethoxy-4-((1'R,2'S)-(2'-hydroxy-1',2'-diphenyl)ethylamino)-3-cyclobutene-1,2-dione
_symmetry_cell_setting           monoclinic
_symmetry_space_group_name_H-M   'P 21'
_symmetry_Int_Tables_number      4
_space_group_name_Hall           'P 2yb'
loop_
_symmetry_equiv_pos_site_id
_symmetry_equiv_pos_as_xyz
1 x,y,z
2 -x,1/2+y,-z
_cell_length_a                   10.758(2)
_cell_length_b                   15.879(3)
_cell_length_c                   11.040(2)
_cell_angle_alpha                90
_cell_angle_beta                 112.740(10)
_cell_angle_gamma                90
_cell_volume                     1739.33
_exptl_crystal_colour            colorless
_exptl_crystal_description       flake
_chemical_melting_point          481-483K
_cell_formula_units_Z            4
_exptl_crystal_recrystallization_method ethanol
loop_
_atom_site_label
_atom_site_type_symbol
_atom_site_fract_x
_atom_site_fract_y
_atom_site_fract_z
O1 O 0.3818(2) 0.06773(12) 0.6832(2)
H1 H 0.3916 0.0169 0.6962
O2 O 0.32990(19) 0.27491(13) 0.32206(16)
O3 O 0.5318(2) 0.40081(12) 0.25040(16)
O4 O 0.77171(18) 0.34608(13) 0.53789(16)
N1 N 0.5751(2) 0.23305(14) 0.60626(18)
H2 H 0.6560 0.2255 0.6625
C1 C 0.6479(3) 0.01575(18) 0.5883(3)
H3 H 0.7156 0.0219 0.6714
C2 C 0.6721(3) -0.0313(2) 0.4944(3)
H4 H 0.7550 -0.0576 0.5151
C3 C 0.5737(4) -0.0392(2) 0.3703(3)
H5 H 0.5900 -0.0703 0.3066
C4 C 0.4521(4) -0.0010(2) 0.3416(3)
H6 H 0.3854 -0.0060 0.2578
C5 C 0.4275(3) 0.0449(2) 0.4358(2)
H7 H 0.3440 0.0704 0.4150
C6 C 0.5251(2) 0.05343(16) 0.5606(2)
C7 C 0.4963(2) 0.10123(16) 0.6653(2)
H8 H 0.5747 0.0967 0.7484
C8 C 0.4650(2) 0.19442(15) 0.6333(2)
H9 H 0.3830 0.1982 0.5532
C9 C 0.4399(2) 0.24145(15) 0.7424(2)
C10 C 0.3102(3) 0.25466(18) 0.7345(2)
H10 H 0.2377 0.2351 0.6618
C11 C 0.2865(3) 0.2964(2) 0.8329(3)
H11 H 0.1986 0.3042 0.8266
C12 C 0.3921(3) 0.3265(2) 0.9399(3)
H12 H 0.3762 0.3548 1.0063
C13 C 0.5213(3) 0.3146(2) 0.9482(3)
H13 H 0.5933 0.3354 1.0202
C14 C 0.5453(3) 0.27216(18) 0.8511(2)
H14 H 0.6336 0.2640 0.8585
C15 C 0.5584(2) 0.27859(16) 0.5017(2)
C16 C 0.4473(3) 0.29696(17) 0.3756(2)
C17 C 0.5413(3) 0.35431(16) 0.3423(2)
C18 C 0.6450(3) 0.33035(16) 0.4681(2)
C19 C 0.8392(3) 0.4036(2) 0.4807(3)
H15 H 0.8149 0.4613 0.4900
H16 H 0.8133 0.3916 0.3880
C20 C 0.9872(3) 0.3908(2) 0.5528(3)
H17 H 1.0117 0.4043 0.6439
H18 H 1.0354 0.4267 0.5162
H19 H 1.0094 0.3331 0.5448
O5 O -0.12148(19) 0.38791(12) 0.1911(2)
H20 H -0.0871 0.4343 0.2143
O6 O -0.16835(19) 0.19230(14) -0.18421(17)
O7 O 0.0141(2) 0.04816(12) -0.24695(17)
O8 O 0.26944(17) 0.11000(12) 0.02442(16)
N2 N 0.0825(2) 0.24079(13) 0.08601(18)
H21 H 0.1540 0.2364 0.1565
C21 C 0.0554(3) 0.20636(18) 0.3724(2)
H22 H 0.1442 0.2195 0.3868
C22 C 0.0295(3) 0.1424(2) 0.4433(3)
H23 H 0.1007 0.1128 0.5046
C23 C -0.1003(4) 0.1220(2) 0.4241(3)
H24 H -0.1177 0.0798 0.4738
C24 C -0.2050(3) 0.1646(2) 0.3307(3)
H25 H -0.2936 0.1501 0.3153
C25 C -0.1788(3) 0.22893(19) 0.2595(3)
H26 H -0.2504 0.2574 0.1968
C26 C -0.0478(2) 0.25167(16) 0.2801(2)
C27 C -0.0186(2) 0.32683(16) 0.2115(2)
H27 H 0.0685 0.3511 0.2676
C28 C -0.0169(2) 0.30707(16) 0.0763(2)
H28 H -0.1063 0.2860 0.0201
C29 C 0.0120(3) 0.38485(15) 0.0112(2)
C30 C -0.0860(3) 0.4190(2) -0.1005(3)
H29 H -0.1708 0.3942 -0.1364
C31 C -0.0585(4) 0.4891(2) -0.1587(3)
H30 H -0.1259 0.5118 -0.2327
C32 C 0.0660(4) 0.5265(2) -0.1100(3)
H31 H 0.0841 0.5732 -0.1514
C33 C 0.1627(3) 0.4936(2) 0.0006(3)
H32 H 0.2473 0.5188 0.0356
C34 C 0.1371(3) 0.42341(18) 0.0614(3)
H33 H 0.2044 0.4019 0.1366
C35 C 0.0633(2) 0.18835(16) -0.0116(2)
C36 C -0.0529(3) 0.16716(17) -0.1328(3)
C37 C 0.0330(3) 0.10166(17) -0.1615(2)
C38 C 0.1416(3) 0.12883(16) -0.0418(2)
C39 C 0.3314(3) 0.0519(2) -0.0384(3)
H34 H 0.2973 0.0626 -0.1321
H35 H 0.3097 -0.0057 -0.0250
C40 C 0.4790(3) 0.0644(2) 0.0201(3)
H36 H 0.5002 0.1201 0.0000
H37 H 0.5217 0.0236 -0.0153
H38 H 0.5110 0.0576 0.1137
loop_
_geom_bond_atom_site_label_1
_geom_bond_atom_site_label_2
_geom_bond_site_symmetry_1
_geom_bond_site_symmetry_2
O1 H1 1_555 1_555
O2 C16 1_555 1_555
O3 C17 1_555 1_555
O4 C18 1_555 1_555
N1 H2 1_555 1_555
C1 H3 1_555 1_555
C2 C1 1_555 1_555
H4 C2 1_555 1_555
C3 C2 1_555 1_555
H5 C3 1_555 1_555
C4 C3 1_555 1_555
H6 C4 1_555 1_555
C5 C4 1_555 1_555
H7 C5 1_555 1_555
C6 C1 1_555 1_555
C7 O1 1_555 1_555
H8 C7 1_555 1_555
C8 N1 1_555 1_555
H9 C8 1_555 1_555
C9 C8 1_555 1_555
C10 C9 1_555 1_555
H10 C10 1_555 1_555
C11 C10 1_555 1_555
H11 C11 1_555 1_555
C12 C11 1_555 1_555
H12 C12 1_555 1_555
C13 C12 1_555 1_555
H13 C13 1_555 1_555
C14 C9 1_555 1_555
H14 C14 1_555 1_555
C15 N1 1_555 1_555
C16 C15 1_555 1_555
C17 C16 1_555 1_555
C18 C15 1_555 1_555
C19 O4 1_555 1_555
H15 C19 1_555 1_555
H16 C19 1_555 1_555
C20 C19 1_555 1_555
H17 C20 1_555 1_555
H18 C20 1_555 1_555
H19 C20 1_555 1_555
O5 H20 1_555 1_555
O6 C36 1_555 1_555
O7 C37 1_555 1_555
O8 C38 1_555 1_555
N2 H21 1_555 1_555
C21 H22 1_555 1_555
C22 C21 1_555 1_555
H23 C22 1_555 1_555
C23 C22 1_555 1_555
H24 C23 1_555 1_555
C24 C23 1_555 1_555
H25 C24 1_555 1_555
C25 C24 1_555 1_555
H26 C25 1_555 1_555
C26 C21 1_555 1_555
C27 O5 1_555 1_555
H27 C27 1_555 1_555
C28 N2 1_555 1_555
H28 C28 1_555 1_555
C29 C28 1_555 1_555
C30 C29 1_555 1_555
H29 C30 1_555 1_555
C31 C30 1_555 1_555
H30 C31 1_555 1_555
C32 C31 1_555 1_555
H31 C32 1_555 1_555
C33 C32 1_555 1_555
H32 C33 1_555 1_555
C34 C29 1_555 1_555
H33 C34 1_555 1_555
C35 N2 1_555 1_555
C36 C35 1_555 1_555
C37 C36 1_555 1_555
C38 C35 1_555 1_555
C39 O8 1_555 1_555
H34 C39 1_555 1_555
H35 C39 1_555 1_555
C40 C39 1_555 1_555
H36 C40 1_555 1_555
H37 C40 1_555 1_555
H38 C40 1_555 1_555
C5 C6 1_555 1_555
C6 C7 1_555 1_555
C7 C8 1_555 1_555
C13 C14 1_555 1_555
C17 C18 1_555 1_555
C25 C26 1_555 1_555
C26 C27 1_555 1_555
C27 C28 1_555 1_555
C33 C34 1_555 1_555
C37 C38 1_555 1_555

#END
