
#######################################################################
#
#                 Cambridge Crystallographic Data Centre
#                                CCDC 
#
#######################################################################
#
# If this CIF has been generated from an entry in the Cambridge 
# Structural Database, then it will include bibliographic, chemical, 
# crystal, experimental, refinement or atomic coordinate data resulting 
# from the CCDC's data processing and validation procedures.
#
#######################################################################

data_CAQWOH
_chemical_formula_moiety         'C48 H50 B2 O1,C7 H8'
_chemical_name_systematic        
'4,6-bis(Dimesitylboryl)dibenzofuran toluene solvate'
_symmetry_cell_setting           monoclinic
_symmetry_space_group_name_H-M   'P 21/c'
_symmetry_Int_Tables_number      14
_space_group_name_Hall           '-P 2ybc'
loop_
_symmetry_equiv_pos_site_id
_symmetry_equiv_pos_as_xyz
1 x,y,z
2 -x,1/2+y,1/2-z
3 -x,-y,-z
4 x,1/2-y,1/2+z
_cell_length_a                   15.976(3)
_cell_length_b                   18.738(4)
_cell_length_c                   16.169(3)
_cell_angle_alpha                90
_cell_angle_beta                 114.29(3)
_cell_angle_gamma                90
_cell_volume                     4411.83
_chemical_melting_point          217-220deg.C
_cell_formula_units_Z            4
loop_
_atom_site_label
_atom_site_type_symbol
_atom_site_fract_x
_atom_site_fract_y
_atom_site_fract_z
B1 B -0.0917(3) 0.3350(3) -0.2784(3)
B2 B -0.4335(3) 0.3298(3) -0.2347(3)
O1 O -0.26266(18) 0.27240(13) -0.25870(17)
C1 C -0.1643(3) 0.1048(2) -0.2828(3)
H1 H -0.1749 0.0564 -0.2786
C2 C -0.2205(3) 0.1565(2) -0.2692(3)
C3 C -0.0925(3) 0.1277(2) -0.3026(3)
H2 H -0.0552 0.0941 -0.3132
C4 C -0.0749(3) 0.2003(2) -0.3072(3)
H3 H -0.0270 0.2134 -0.3225
C5 C -0.1262(3) 0.2544(2) -0.2897(3)
C6 C -0.2001(3) 0.2286(2) -0.2738(2)
C7 C -0.3956(3) 0.2508(2) -0.2229(2)
C8 C -0.3228(3) 0.2271(2) -0.2425(2)
C9 C -0.4431(3) 0.1956(2) -0.2025(3)
H4 H -0.4898 0.2075 -0.1848
C10 C -0.4236(3) 0.1233(2) -0.2076(3)
H5 H -0.4587 0.0889 -0.1953
C11 C -0.3529(3) 0.1022(2) -0.2307(3)
H6 H -0.3410 0.0542 -0.2352
C12 C -0.3000(3) 0.1552(2) -0.2470(2)
C13 C -0.0424(3) 0.3594(2) -0.3403(3)
C14 C -0.0898(3) 0.3577(2) -0.4364(3)
C15 C -0.0455(3) 0.3802(2) -0.4902(3)
H7 H -0.0779 0.3801 -0.5530
C16 C 0.0442(3) 0.4026(2) -0.4537(3)
C17 C 0.0910(3) 0.4044(2) -0.3597(3)
H8 H 0.1517 0.4198 -0.3342
C18 C 0.0493(3) 0.3836(2) -0.3029(3)
C19 C -0.1885(3) 0.3340(2) -0.4817(3)
H9 H -0.2088 0.3365 -0.5464
H10 H -0.2259 0.3647 -0.4634
H11 H -0.1936 0.2858 -0.4642
C20 C 0.0920(4) 0.4253(3) -0.5137(3)
H12 H 0.0502 0.4208 -0.5763
H13 H 0.1445 0.3954 -0.5017
H14 H 0.1114 0.4741 -0.5011
C21 C 0.1045(3) 0.3886(3) -0.2012(3)
H15 H 0.1650 0.4060 -0.1888
H16 H 0.1088 0.3421 -0.1746
H17 H 0.0745 0.4207 -0.1758
C22 C -0.1008(3) 0.3855(2) -0.2048(3)
C23 C -0.1219(3) 0.4587(2) -0.2230(3)
C24 C -0.1328(3) 0.5028(2) -0.1587(3)
H18 H -0.1471 0.5506 -0.1726
C25 C -0.1228(3) 0.4773(2) -0.0741(3)
C26 C -0.0991(3) 0.4064(2) -0.0550(3)
H19 H -0.0900 0.3888 0.0018
C27 C -0.0882(3) 0.3601(2) -0.1173(3)
C28 C -0.1336(3) 0.4936(2) -0.3117(3)
H20 H -0.1478 0.5432 -0.3103
H21 H -0.1827 0.4707 -0.3611
H22 H -0.0777 0.4890 -0.3199
C29 C -0.1352(3) 0.5251(3) -0.0049(3)
H23 H -0.1256 0.4981 0.0486
H24 H -0.1964 0.5443 -0.0298
H25 H -0.0917 0.5635 0.0103
C30 C -0.0603(3) 0.2841(2) -0.0849(3)
H26 H -0.0558 0.2791 -0.0242
H27 H -0.0019 0.2737 -0.0859
H28 H -0.1056 0.2516 -0.1242
C31 C -0.4232(3) 0.3785(2) -0.3095(3)
C32 C -0.4442(3) 0.3533(2) -0.3991(3)
C33 C -0.4257(3) 0.3961(2) -0.4595(3)
H29 H -0.4401 0.3789 -0.5177
C34 C -0.3868(3) 0.4635(2) -0.4369(3)
C35 C -0.3684(3) 0.4889(2) -0.3503(3)
H30 H -0.3427 0.5340 -0.3338
C36 C -0.3873(3) 0.4487(2) -0.2872(3)
C37 C -0.4909(4) 0.2822(2) -0.4330(3)
H31 H -0.4987 0.2750 -0.4946
H32 H -0.5498 0.2820 -0.4303
H33 H -0.4536 0.2445 -0.3956
C38 C -0.3665(3) 0.5085(3) -0.5045(3)
H34 H -0.3838 0.4827 -0.5603
H35 H -0.3020 0.5192 -0.4803
H36 H -0.4008 0.5522 -0.5155
C39 C -0.3658(3) 0.4822(2) -0.1950(3)
H37 H -0.3821 0.4496 -0.1583
H38 H -0.4003 0.5256 -0.2029
H39 H -0.3014 0.4927 -0.1657
C40 C -0.4827(3) 0.3559(2) -0.1732(3)
C41 C -0.4347(3) 0.3572(2) -0.0771(3)
C42 C -0.4773(3) 0.3839(2) -0.0237(3)
H40 H -0.4441 0.3864 0.0389
C43 C -0.5675(4) 0.4068(3) -0.0613(4)
C44 C -0.6153(3) 0.4035(2) -0.1552(3)
H41 H -0.6764 0.4180 -0.1812
C45 C -0.5748(3) 0.3795(2) -0.2114(3)
C46 C -0.3357(3) 0.3329(3) -0.0294(3)
H42 H -0.3159 0.3376 0.0350
H43 H -0.2976 0.3619 -0.0488
H44 H -0.3309 0.2839 -0.0442
C47 C -0.6133(4) 0.4346(3) -0.0022(4)
H45 H -0.5703 0.4334 0.0603
H46 H -0.6653 0.4053 -0.0102
H47 H -0.6332 0.4828 -0.0191
C48 C -0.6323(3) 0.3782(3) -0.3130(3)
H48 H -0.6926 0.3961 -0.3257
H49 H -0.6366 0.3302 -0.3349
H50 H -0.6038 0.4077 -0.3427
C49 C 0.2236(9) 0.2886(6) 0.1466(8)
C50 C 0.3096(6) 0.3091(5) 0.2066(10)
H51 H 0.3563 0.3168 0.1844
C51 C 0.3290(6) 0.3214(5) 0.2976(10)
H52 H 0.3891 0.3375 0.3384
C52 C 0.2539(12) 0.3092(8) 0.3251(11)
H53 H 0.2674 0.3176 0.3880
C53 C 0.1830(8) 0.2907(7) 0.2724(7)
H54 H 0.1366 0.2839 0.2923
C54 C 0.1614(16) 0.2775(11) 0.1780(10)
H55 H 0.1013 0.2614 0.1372
C55 C 0.2297(6) 0.2767(5) 0.0684(7)
H56 H 0.2899 0.2917 0.0757
H57 H 0.2214 0.2272 0.0517
H58 H 0.1840 0.3047 0.0216
C56? C 0.2279(6) 0.2894(5) 0.2125(7)
C57? C 0.3100(6) 0.3180(5) 0.2166(7)
H59? H 0.3545 0.3368 0.2730
C58? C 0.3264(7) 0.3199(5) 0.1403(9)
H60? H 0.3831 0.3397 0.1432
C59? C 0.2522(14) 0.2895(8) 0.0497(10)
H61? H 0.2644 0.2906 -0.0039
C60? C 0.1882(8) 0.2672(6) 0.0494(8)
H62? H 0.1437 0.2484 -0.0070
C61? C 0.1636(16) 0.2624(10) 0.1255(16)
H63? H 0.1070 0.2426 0.1226
C62? C 0.227(4) 0.287(3) 0.315(3)
H64? H 0.2771 0.3061 0.3672
H65? H 0.1742 0.3168 0.2988
H66? H 0.2129 0.2396 0.3290
loop_
_geom_bond_atom_site_label_1
_geom_bond_atom_site_label_2
_geom_bond_site_symmetry_1
_geom_bond_site_symmetry_2
B1 C5 1_555 1_555
B2 C7 1_555 1_555
O1 C6 1_555 1_555
C1 H1 1_555 1_555
C2 C1 1_555 1_555
C3 C1 1_555 1_555
H2 C3 1_555 1_555
C4 C3 1_555 1_555
H3 C4 1_555 1_555
C5 C4 1_555 1_555
C6 C2 1_555 1_555
C7 C8 1_555 1_555
C8 O1 1_555 1_555
C9 C7 1_555 1_555
H4 C9 1_555 1_555
C10 C9 1_555 1_555
H5 C10 1_555 1_555
C11 C10 1_555 1_555
H6 C11 1_555 1_555
C12 C2 1_555 1_555
C13 B1 1_555 1_555
C14 C13 1_555 1_555
C15 C14 1_555 1_555
H7 C15 1_555 1_555
C16 C15 1_555 1_555
C17 C16 1_555 1_555
H8 C17 1_555 1_555
C18 C13 1_555 1_555
C19 C14 1_555 1_555
H9 C19 1_555 1_555
H10 C19 1_555 1_555
H11 C19 1_555 1_555
C20 C16 1_555 1_555
H12 C20 1_555 1_555
H13 C20 1_555 1_555
H14 C20 1_555 1_555
C21 C18 1_555 1_555
H15 C21 1_555 1_555
H16 C21 1_555 1_555
H17 C21 1_555 1_555
C22 B1 1_555 1_555
C23 C22 1_555 1_555
C24 C23 1_555 1_555
H18 C24 1_555 1_555
C25 C24 1_555 1_555
C26 C25 1_555 1_555
H19 C26 1_555 1_555
C27 C22 1_555 1_555
C28 C23 1_555 1_555
H20 C28 1_555 1_555
H21 C28 1_555 1_555
H22 C28 1_555 1_555
C29 C25 1_555 1_555
H23 C29 1_555 1_555
H24 C29 1_555 1_555
H25 C29 1_555 1_555
C30 C27 1_555 1_555
H26 C30 1_555 1_555
H27 C30 1_555 1_555
H28 C30 1_555 1_555
C31 B2 1_555 1_555
C32 C31 1_555 1_555
C33 C32 1_555 1_555
H29 C33 1_555 1_555
C34 C33 1_555 1_555
C35 C34 1_555 1_555
H30 C35 1_555 1_555
C36 C31 1_555 1_555
C37 C32 1_555 1_555
H31 C37 1_555 1_555
H32 C37 1_555 1_555
H33 C37 1_555 1_555
C38 C34 1_555 1_555
H34 C38 1_555 1_555
H35 C38 1_555 1_555
H36 C38 1_555 1_555
C39 C36 1_555 1_555
H37 C39 1_555 1_555
H38 C39 1_555 1_555
H39 C39 1_555 1_555
C40 B2 1_555 1_555
C41 C40 1_555 1_555
C42 C41 1_555 1_555
H40 C42 1_555 1_555
C43 C42 1_555 1_555
C44 C43 1_555 1_555
H41 C44 1_555 1_555
C45 C40 1_555 1_555
C46 C41 1_555 1_555
H42 C46 1_555 1_555
H43 C46 1_555 1_555
H44 C46 1_555 1_555
C47 C43 1_555 1_555
H45 C47 1_555 1_555
H46 C47 1_555 1_555
H47 C47 1_555 1_555
C48 C45 1_555 1_555
H48 C48 1_555 1_555
H49 C48 1_555 1_555
H50 C48 1_555 1_555
C49 C50 1_555 1_555
C50 H51 1_555 1_555
C51 C50 1_555 1_555
H52 C51 1_555 1_555
C52 C51 1_555 1_555
H53 C52 1_555 1_555
C53 C52 1_555 1_555
H54 C53 1_555 1_555
C54 C49 1_555 1_555
H55 C54 1_555 1_555
C55 C49 1_555 1_555
H56 C55 1_555 1_555
H57 C55 1_555 1_555
H58 C55 1_555 1_555
C5 C6 1_555 1_555
C8 C12 1_555 1_555
C11 C12 1_555 1_555
C17 C18 1_555 1_555
C26 C27 1_555 1_555
C35 C36 1_555 1_555
C44 C45 1_555 1_555
C53 C54 1_555 1_555

#END
