
#######################################################################
#
#                 Cambridge Crystallographic Data Centre
#                                CCDC 
#
#######################################################################
#
# If this CIF has been generated from an entry in the Cambridge 
# Structural Database, then it will include bibliographic, chemical, 
# crystal, experimental, refinement or atomic coordinate data resulting 
# from the CCDC's data processing and validation procedures.
#
#######################################################################

data_CARDIL
_chemical_formula_moiety         'C18 H29 K1 O6 Se1'
_chemical_name_systematic        (benzeneselenolato)-(18-crown-6)-potassium(i)
_symmetry_cell_setting           monoclinic
_symmetry_space_group_name_H-M   'P 21/c'
_symmetry_Int_Tables_number      14
_space_group_name_Hall           '-P 2ybc'
loop_
_symmetry_equiv_pos_site_id
_symmetry_equiv_pos_as_xyz
1 x,y,z
2 -x,1/2+y,1/2-z
3 -x,-y,-z
4 x,1/2-y,1/2+z
_cell_length_a                   13.8032(6)
_cell_length_b                   10.3863(4)
_cell_length_c                   15.7691(7)
_cell_angle_alpha                90
_cell_angle_beta                 110.5000(10)
_cell_angle_gamma                90
_cell_volume                     2117.56
_exptl_crystal_colour            colorless
_exptl_crystal_description       block
_cell_formula_units_Z            4
loop_
_atom_site_label
_atom_site_type_symbol
_atom_site_fract_x
_atom_site_fract_y
_atom_site_fract_z
Se1 Se 0.68848(2) 0.56375(2) 0.36753(2)
K1 K 0.73476(3) 0.28385(4) 0.47675(3)
O1 O 0.91420(10) 0.15088(13) 0.46231(9)
O2 O 0.57865(10) 0.34810(12) 0.54098(9)
O3 O 0.56451(9) 0.11933(13) 0.44221(9)
O4 O 0.77901(10) 0.45231(12) 0.63348(9)
O5 O 0.93430(9) 0.37763(13) 0.56479(9)
O6 O 0.71282(10) 0.06381(12) 0.36099(9)
C1 C 0.76892(14) 0.62192(18) 0.22569(12)
H1 H 0.7587 0.7092 0.2385
C2 C 0.74323(12) 0.52448(17) 0.27594(11)
C3 C 0.76072(14) 0.39783(18) 0.25378(12)
H2 H 0.7435 0.3283 0.2850
C4 C 0.95517(15) 0.44838(18) 0.64641(14)
H3 H 1.0180 0.5016 0.6581
H4 H 0.9668 0.3888 0.6980
C5 C 0.80866(15) 0.59523(19) 0.15817(13)
H5 H 0.8235 0.6637 0.1247
C6 C 0.68478(15) 0.52253(18) 0.61478(14)
H6 H 0.6646 0.5628 0.5541
H7 H 0.6940 0.5915 0.6603
C7 C 0.86365(15) 0.53273(18) 0.63586(14)
H8 H 0.8798 0.5936 0.6873
H9 H 0.8458 0.5831 0.5791
C8 C 1.02141(14) 0.3057(2) 0.56310(14)
H10 H 1.0400 0.2395 0.6113
H11 H 1.0816 0.3634 0.5735
C9 C 0.82686(15) 0.4690(2) 0.13920(13)
H12 H 0.8555 0.4501 0.0939
C10 C 0.89087(16) 0.0791(2) 0.38024(13)
H13 H 0.9523 0.0294 0.3809
H14 H 0.8712 0.1383 0.3277
C11 C 0.53778(16) 0.0658(2) 0.35368(14)
H15 H 0.5250 0.1355 0.3082
H16 H 0.4741 0.0136 0.3393
C12 C 0.47737(14) 0.1771(2) 0.45571(15)
H17 H 0.4258 0.1102 0.4546
H18 H 0.4444 0.2396 0.4067
C13 C 0.80246(16) 0.37164(19) 0.18756(13)
H19 H 0.8145 0.2847 0.1752
C14 C 0.51329(15) 0.24421(19) 0.54548(14)
H20 H 0.4532 0.2772 0.5593
H21 H 0.5518 0.1835 0.5939
C15 C 0.60265(15) 0.4305(2) 0.61814(13)
H22 H 0.6278 0.3791 0.6745
H23 H 0.5402 0.4784 0.6170
C16 C 0.99336(15) 0.2430(2) 0.47231(14)
H24 H 0.9690 0.3089 0.4241
H25 H 1.0549 0.2002 0.4667
C17 C 0.62537(17) -0.0165(2) 0.35145(14)
H26 H 0.6431 -0.0800 0.4014
H27 H 0.6053 -0.0640 0.2934
C18 C 0.80309(16) -0.0105(2) 0.37279(14)
H28 H 0.7911 -0.0690 0.3205
H29 H 0.8200 -0.0634 0.4283
loop_
_geom_bond_atom_site_label_1
_geom_bond_atom_site_label_2
_geom_bond_site_symmetry_1
_geom_bond_site_symmetry_2
Se1 K1 1_555 1_555
K1 O1 1_555 1_555
O1 C10 1_555 1_555
O2 K1 1_555 1_555
O3 K1 1_555 1_555
O4 K1 1_555 1_555
O5 K1 1_555 1_555
O6 K1 1_555 1_555
C1 H1 1_555 1_555
C2 Se1 1_555 1_555
C3 C2 1_555 1_555
H2 C3 1_555 1_555
C4 O5 1_555 1_555
H3 C4 1_555 1_555
H4 C4 1_555 1_555
C5 C1 1_555 1_555
H5 C5 1_555 1_555
C6 O4 1_555 1_555
H6 C6 1_555 1_555
H7 C6 1_555 1_555
C7 O4 1_555 1_555
H8 C7 1_555 1_555
H9 C7 1_555 1_555
C8 O5 1_555 1_555
H10 C8 1_555 1_555
H11 C8 1_555 1_555
C9 C5 1_555 1_555
H12 C9 1_555 1_555
C10 H13 1_555 1_555
H14 C10 1_555 1_555
C11 O3 1_555 1_555
H15 C11 1_555 1_555
H16 C11 1_555 1_555
C12 O3 1_555 1_555
H17 C12 1_555 1_555
H18 C12 1_555 1_555
C13 C3 1_555 1_555
H19 C13 1_555 1_555
C14 O2 1_555 1_555
H20 C14 1_555 1_555
H21 C14 1_555 1_555
C15 O2 1_555 1_555
H22 C15 1_555 1_555
H23 C15 1_555 1_555
C16 O1 1_555 1_555
H24 C16 1_555 1_555
H25 C16 1_555 1_555
C17 O6 1_555 1_555
H26 C17 1_555 1_555
H27 C17 1_555 1_555
C18 O6 1_555 1_555
H28 C18 1_555 1_555
H29 C18 1_555 1_555
C1 C2 1_555 1_555
C4 C7 1_555 1_555
C6 C15 1_555 1_555
C8 C16 1_555 1_555
C9 C13 1_555 1_555
C10 C18 1_555 1_555
C11 C17 1_555 1_555
C12 C14 1_555 1_555

#END
