
#######################################################################
#
#                 Cambridge Crystallographic Data Centre
#                                CCDC 
#
#######################################################################
#
# If this CIF has been generated from an entry in the Cambridge 
# Structural Database, then it will include bibliographic, chemical, 
# crystal, experimental, refinement or atomic coordinate data resulting 
# from the CCDC's data processing and validation procedures.
#
#######################################################################

data_CARLIS
_chemical_formula_moiety         'C18 H10'
_chemical_name_systematic        2-ethynylpyrene
_symmetry_cell_setting           monoclinic
_symmetry_space_group_name_H-M   'P 21/n'
_symmetry_Int_Tables_number      14
_space_group_name_Hall           '-P 2yn'
loop_
_symmetry_equiv_pos_site_id
_symmetry_equiv_pos_as_xyz
1 x,y,z
2 1/2-x,1/2+y,1/2-z
3 -x,-y,-z
4 1/2+x,1/2-y,1/2+z
_cell_length_a                   4.5281(2)
_cell_length_b                   20.9670(10)
_cell_length_c                   11.9397(6)
_cell_angle_alpha                90
_cell_angle_beta                 96.331(2)
_cell_angle_gamma                90
_cell_volume                     1126.65
_exptl_crystal_colour            colorless
_exptl_crystal_description       blade
_chemical_melting_point          '381 K'
_cell_formula_units_Z            4
loop_
_atom_site_label
_atom_site_type_symbol
_atom_site_fract_x
_atom_site_fract_y
_atom_site_fract_z
C1 C 0.2672(4) 0.52776(8) 0.36353(16)
H1 H 0.2183 0.5159 0.4360
C2 C 0.1417(4) 0.49459(9) 0.26877(16)
C3 C 0.2074(4) 0.51290(8) 0.16210(16)
H2 H 0.1193 0.4905 0.0977
C4 C 0.4737(4) 0.58224(9) 0.03872(15)
H3 H 0.3837 0.5609 -0.0265
C5 C 0.6691(4) 0.62981(9) 0.02738(15)
H4 H 0.7155 0.6409 -0.0458
C6 C 1.0105(4) 0.71367(8) 0.11300(17)
H5 H 1.0581 0.7260 0.0406
C7 C 1.1422(4) 0.74501(9) 0.20777(18)
H6 H 1.2804 0.7784 0.1997
C8 C 1.0747(4) 0.72825(9) 0.31394(17)
H7 H 1.1660 0.7504 0.3780
C9 C 0.8005(4) 0.65957(9) 0.43693(16)
H8 H 0.8920 0.6806 0.5022
C10 C 0.6051(4) 0.61213(9) 0.44888(16)
H9 H 0.5600 0.6010 0.5222
C11 C 0.4642(4) 0.57822(8) 0.35327(16)
C12 C 0.5326(4) 0.59623(8) 0.24410(16)
C13 C 0.3997(4) 0.56343(8) 0.14804(15)
C14 C 0.7370(4) 0.64666(8) 0.23153(16)
C15 C 0.8734(4) 0.67902(9) 0.32819(16)
C16 C 0.8083(4) 0.66405(8) 0.12266(16)
C17 C -0.0472(7) 0.44065(15) 0.2796(3)
C18 C -0.1999(8) 0.39346(17) 0.2830(4)
H10 H -0.323(5) 0.3555(10) 0.2847(18)
Br1? Br -0.1111(11) 0.4200(3) 0.2832(5)
loop_
_geom_bond_atom_site_label_1
_geom_bond_atom_site_label_2
_geom_bond_site_symmetry_1
_geom_bond_site_symmetry_2
C1 H1 1_555 1_555
C2 C1 1_555 1_555
C3 C2 1_555 1_555
H2 C3 1_555 1_555
C4 H3 1_555 1_555
C5 C4 1_555 1_555
H4 C5 1_555 1_555
C6 H5 1_555 1_555
C7 C6 1_555 1_555
H6 C7 1_555 1_555
C8 C7 1_555 1_555
H7 C8 1_555 1_555
C9 H8 1_555 1_555
C10 C9 1_555 1_555
H9 C10 1_555 1_555
C11 C1 1_555 1_555
C12 C11 1_555 1_555
C13 C3 1_555 1_555
C14 C12 1_555 1_555
C15 C8 1_555 1_555
C16 C5 1_555 1_555
C17 C2 1_555 1_555
C18 C17 1_555 1_555
H10 C18 1_555 1_555
C4 C13 1_555 1_555
C6 C16 1_555 1_555
C9 C15 1_555 1_555
C10 C11 1_555 1_555
C12 C13 1_555 1_555
C14 C15 1_555 1_555
C14 C16 1_555 1_555

#END
