
#######################################################################
#
#                 Cambridge Crystallographic Data Centre
#                                CCDC 
#
#######################################################################
#
# If this CIF has been generated from an entry in the Cambridge 
# Structural Database, then it will include bibliographic, chemical, 
# crystal, experimental, refinement or atomic coordinate data resulting 
# from the CCDC's data processing and validation procedures.
#
#######################################################################

data_CARYOM
_chemical_formula_moiety         'C22 H28 O4'
_chemical_name_systematic        
'8-methyl-3-isopropylbicyclo[4.2.0]octa-1,3,5-trien-2-yl 4,7,7-trimethyl-3-oxo-2-oxabicyclo[2.2.1]heptane-1-carboxylate'
_symmetry_cell_setting           orthorhombic
_symmetry_space_group_name_H-M   'P 21 21 21'
_symmetry_Int_Tables_number      19
_space_group_name_Hall           'P 2ac 2ab'
loop_
_symmetry_equiv_pos_site_id
_symmetry_equiv_pos_as_xyz
1 x,y,z
2 1/2-x,-y,1/2+z
3 1/2+x,1/2-y,-z
4 -x,1/2+y,1/2-z
_cell_length_a                   6.1077(7)
_cell_length_b                   15.287(2)
_cell_length_c                   21.901(2)
_cell_angle_alpha                90
_cell_angle_beta                 90
_cell_angle_gamma                90
_cell_volume                     2044.86
_exptl_crystal_description       block
_cell_formula_units_Z            4
loop_
_atom_site_label
_atom_site_type_symbol
_atom_site_fract_x
_atom_site_fract_y
_atom_site_fract_z
O1 O -0.0984(5) -0.4388(2) -0.62885(13)
O2 O -0.0509(6) -0.4530(3) -0.52813(18)
O3 O -0.0030(5) -0.3921(3) -0.74252(17)
O4 O -0.3486(4) -0.3533(2) -0.76362(14)
C1 C -0.2819(6) -0.4079(3) -0.6662(2)
C2 C -0.4512(8) -0.4818(3) -0.6650(2)
H1 H -0.3852 -0.5378 -0.6750
H2 H -0.5712 -0.4704 -0.6929
C3 C -0.5271(8) -0.4788(4) -0.5982(2)
H3 H -0.4909 -0.5328 -0.5773
H4 H -0.6839 -0.4694 -0.5957
C4 C -0.3997(7) -0.4001(4) -0.5701(2)
C5 C -0.1691(7) -0.4327(4) -0.5700(2)
C6 C -0.3843(7) -0.3357(3) -0.6251(2)
C7 C -0.4800(10) -0.3661(4) -0.5095(3)
H5 H -0.6317 -0.3503 -0.5128
H6 H -0.3961 -0.3156 -0.4981
H7 H -0.4635 -0.4107 -0.4790
C8 C -0.2279(9) -0.2594(3) -0.6140(2)
H8 H -0.2060 -0.2280 -0.6515
H9 H -0.0901 -0.2815 -0.5996
H10 H -0.2894 -0.2209 -0.5839
C9 C -0.6020(8) -0.3002(4) -0.6470(3)
H11 H -0.5812 -0.2687 -0.6844
H12 H -0.6613 -0.2616 -0.6166
H13 H -0.7017 -0.3478 -0.6537
C10 C -0.1899(7) -0.3843(3) -0.7271(2)
C11 C -0.2992(8) -0.3309(3) -0.8244(2)
C12 C -0.1494(9) -0.2686(3) -0.8403(2)
C13 C 0.0173(10) -0.2045(4) -0.8163(3)
H14 H 0.1444 -0.2344 -0.7987
C14 C 0.0578(14) -0.1785(4) -0.8859(3)
H15 H 0.0178 -0.1188 -0.8960
H16 H 0.2024 -0.1931 -0.9012
C15 C -0.1174(12) -0.2459(4) -0.9003(3)
C16 C -0.2293(13) -0.2861(4) -0.9466(3)
H17 H -0.2050 -0.2713 -0.9873
C17 C -0.3794(11) -0.3495(4) -0.9307(3)
H18 H -0.4586 -0.3769 -0.9615
C18 C -0.4179(8) -0.3744(3) -0.8699(2)
C19 C -0.0653(14) -0.1330(4) -0.7752(3)
H19 H -0.1067 -0.1575 -0.7365
H20 H -0.1901 -0.1055 -0.7936
H21 H 0.0482 -0.0904 -0.7692
C20 C -0.5761(10) -0.4470(4) -0.8537(3)
H22 H -0.6389 -0.4333 -0.8137
C21 C -0.7643(11) -0.4587(5) -0.8982(3)
H23 H -0.8603 -0.5038 -0.8835
H24 H -0.7079 -0.4749 -0.9375
H25 H -0.8439 -0.4048 -0.9016
C22 C -0.4503(13) -0.5328(4) -0.8476(3)
H26 H -0.3225 -0.5236 -0.8230
H27 H -0.4071 -0.5529 -0.8874
H28 H -0.5423 -0.5759 -0.8287
loop_
_geom_bond_atom_site_label_1
_geom_bond_atom_site_label_2
_geom_bond_site_symmetry_1
_geom_bond_site_symmetry_2
O1 C1 1_555 1_555
O2 C5 1_555 1_555
O3 C10 1_555 1_555
O4 C10 1_555 1_555
C1 C2 1_555 1_555
C2 H1 1_555 1_555
H2 C2 1_555 1_555
C3 C2 1_555 1_555
H3 C3 1_555 1_555
H4 C3 1_555 1_555
C4 C3 1_555 1_555
C5 O1 1_555 1_555
C6 C1 1_555 1_555
C7 C4 1_555 1_555
H5 C7 1_555 1_555
H6 C7 1_555 1_555
H7 C7 1_555 1_555
C8 C6 1_555 1_555
H8 C8 1_555 1_555
H9 C8 1_555 1_555
H10 C8 1_555 1_555
C9 C6 1_555 1_555
H11 C9 1_555 1_555
H12 C9 1_555 1_555
H13 C9 1_555 1_555
C10 C1 1_555 1_555
C11 O4 1_555 1_555
C12 C11 1_555 1_555
C13 C12 1_555 1_555
H14 C13 1_555 1_555
C14 C13 1_555 1_555
H15 C14 1_555 1_555
H16 C14 1_555 1_555
C15 C12 1_555 1_555
C16 C15 1_555 1_555
H17 C16 1_555 1_555
C17 C16 1_555 1_555
H18 C17 1_555 1_555
C18 C11 1_555 1_555
C19 C13 1_555 1_555
H19 C19 1_555 1_555
H20 C19 1_555 1_555
H21 C19 1_555 1_555
C20 C18 1_555 1_555
H22 C20 1_555 1_555
C21 C20 1_555 1_555
H23 C21 1_555 1_555
H24 C21 1_555 1_555
H25 C21 1_555 1_555
C22 C20 1_555 1_555
H26 C22 1_555 1_555
H27 C22 1_555 1_555
H28 C22 1_555 1_555
C4 C5 1_555 1_555
C4 C6 1_555 1_555
C14 C15 1_555 1_555
C17 C18 1_555 1_555

#END
