
#######################################################################
#
#                 Cambridge Crystallographic Data Centre
#                                CCDC 
#
#######################################################################
#
# If this CIF has been generated from an entry in the Cambridge 
# Structural Database, then it will include bibliographic, chemical, 
# crystal, experimental, refinement or atomic coordinate data resulting 
# from the CCDC's data processing and validation procedures.
#
#######################################################################

data_CASSAQ
_chemical_formula_moiety         'C10 H18 N2 O3 S1 Si1'
_chemical_name_systematic        
1-(3-Thiocyanatopropyl)-2,8,9-trioxa-5-aza-1-silatricyclo(3.3.3.0^1.5^)undecane
_symmetry_cell_setting           orthorhombic
_symmetry_space_group_name_H-M   'P b c a'
_symmetry_Int_Tables_number      61
_space_group_name_Hall           '-P 2ac 2ab'
loop_
_symmetry_equiv_pos_site_id
_symmetry_equiv_pos_as_xyz
1 x,y,z
2 1/2-x,-y,1/2+z
3 1/2+x,1/2-y,-z
4 -x,1/2+y,1/2-z
5 -x,-y,-z
6 1/2+x,y,1/2-z
7 1/2-x,1/2+y,z
8 x,1/2-y,1/2+z
_cell_length_a                   10.575
_cell_length_b                   12.215
_cell_length_c                   20.786
_cell_angle_alpha                90
_cell_angle_beta                 90
_cell_angle_gamma                90
_cell_volume                     2685
_cell_formula_units_Z            8
loop_
_atom_site_label
_atom_site_type_symbol
_atom_site_fract_x
_atom_site_fract_y
_atom_site_fract_z
S1 S 1.22430 0.43810 0.02270
Si1 Si 0.77920 0.26530 0.13510
O1 O 0.82810 0.33450 0.19920
O2 O 0.71630 0.33370 0.07390
O3 O 0.73650 0.13600 0.14530
N1 N 0.59170 0.29750 0.17800
N2 N 1.22880 0.57960 0.12960
C1 C 0.74820 0.36080 0.25220
C2 C 0.61600 0.38270 0.22690
C3 C 0.60220 0.39470 0.07860
C4 C 0.51350 0.33480 0.12370
C5 C 0.60870 0.10490 0.15950
C6 C 0.55400 0.19010 0.20490
C7 C 0.93950 0.23980 0.09890
C8 C 1.01040 0.34230 0.07820
C9 C 1.14470 0.32030 0.05740
C10 C 1.22550 0.51980 0.08570
H1 H 0.78500 0.42000 0.27400
H2 H 0.74500 0.29600 0.28900
H3 H 0.54900 0.37700 0.26200
H4 H 0.61400 0.45300 0.20500
H5 H 0.55800 0.40300 0.03100
H6 H 0.61300 0.46400 0.09600
H7 H 0.44400 0.38700 0.14100
H8 H 0.47700 0.27200 0.10100
H9 H 0.60400 0.03100 0.18200
H10 H 0.55400 0.10200 0.11100
H11 H 0.59100 0.17800 0.25000
H12 H 0.46100 0.17800 0.20700
H13 H 0.93300 0.19200 0.06300
H14 H 0.99300 0.19600 0.13000
H15 H 0.96900 0.37700 0.04400
H16 H 1.01500 0.40200 0.11700
H17 H 1.14000 0.26700 0.02100
H18 H 1.19700 0.27900 0.09400
loop_
_geom_bond_atom_site_label_1
_geom_bond_atom_site_label_2
_geom_bond_site_symmetry_1
_geom_bond_site_symmetry_2
S1 C9 1_555 1_555
Si1 O1 1_555 1_555
O1 C1 1_555 1_555
O2 Si1 1_555 1_555
O3 Si1 1_555 1_555
N1 Si1 1_555 1_555
N2 C10 1_555 1_555
C1 C2 1_555 1_555
C2 N1 1_555 1_555
C3 O2 1_555 1_555
C4 N1 1_555 1_555
C5 O3 1_555 1_555
C6 N1 1_555 1_555
C7 Si1 1_555 1_555
C8 C7 1_555 1_555
C9 C8 1_555 1_555
C10 S1 1_555 1_555
H1 C1 1_555 1_555
H2 C1 1_555 1_555
H3 C2 1_555 1_555
H4 C2 1_555 1_555
H5 C3 1_555 1_555
H6 C3 1_555 1_555
H7 C4 1_555 1_555
H8 C4 1_555 1_555
H9 C5 1_555 1_555
H10 C5 1_555 1_555
H11 C6 1_555 1_555
H12 C6 1_555 1_555
H13 C7 1_555 1_555
H14 C7 1_555 1_555
H15 C8 1_555 1_555
H16 C8 1_555 1_555
H17 C9 1_555 1_555
H18 C9 1_555 1_555
C3 C4 1_555 1_555
C5 C6 1_555 1_555

#END
