
#######################################################################
#
#                 Cambridge Crystallographic Data Centre
#                                CCDC 
#
#######################################################################
#
# If this CIF has been generated from an entry in the Cambridge 
# Structural Database, then it will include bibliographic, chemical, 
# crystal, experimental, refinement or atomic coordinate data resulting 
# from the CCDC's data processing and validation procedures.
#
#######################################################################

data_CASYOK
_chemical_formula_moiety         'C9 H16 Cl1 N1 O4 Si1'
_chemical_name_systematic        
1-(3-Chloropropyl)-2,8,9-trioxa-5-aza-1-silatricyclo(3.3.3.0^1.5^)undecan-3-one
_symmetry_cell_setting           orthorhombic
_symmetry_space_group_name_H-M   'P 21 21 21'
_symmetry_Int_Tables_number      19
_space_group_name_Hall           'P 2ac 2ab'
loop_
_symmetry_equiv_pos_site_id
_symmetry_equiv_pos_as_xyz
1 x,y,z
2 1/2+x,1/2-y,-z
3 -x,1/2+y,1/2-z
4 1/2-x,-y,1/2+z
_cell_length_a                   12.943
_cell_length_b                   11.477
_cell_length_c                   8.273
_cell_angle_alpha                90
_cell_angle_beta                 90
_cell_angle_gamma                90
_cell_volume                     1228.93
_cell_formula_units_Z            4
loop_
_atom_site_label
_atom_site_type_symbol
_atom_site_fract_x
_atom_site_fract_y
_atom_site_fract_z
Cl1 Cl 0.54890 0.58350 0.75960
Si1 Si 0.17540 0.33210 0.73340
O1 O 0.22420 0.27670 0.91060
O2 O 0.05710 0.38510 0.73930
O3 O 0.22600 0.28200 0.56290
O4 O 0.24690 0.13280 1.08910
C1 C 0.21200 0.16830 0.96020
N1 N 0.09700 0.16710 0.73610
C2 C 0.15420 0.09110 0.84590
C3 C -0.03290 0.31480 0.72320
C4 C -0.00810 0.19480 0.79250
C5 C 0.20570 0.16720 0.50500
C6 C 0.10090 0.12810 0.56270
C7 C 0.24540 0.47390 0.74170
C8 C 0.36380 0.46660 0.74630
C9 C 0.41100 0.58330 0.74360
H1 H 0.08600 0.03500 0.88600
H2 H 0.20400 0.03500 0.78800
H3 H -0.06500 0.29600 0.58000
H4 H -0.08800 0.35700 0.77600
H5 H -0.06100 0.13200 0.78200
H6 H -0.01200 0.20600 0.92700
H7 H 0.26400 0.10700 0.54600
H8 H 0.21700 0.16600 0.42800
H9 H 0.10500 0.03700 0.56100
H10 H 0.03600 0.17500 0.51700
H11 H 0.22500 0.52300 0.64200
H12 H 0.22300 0.51100 0.81700
H13 H 0.39000 0.42000 0.85500
H14 H 0.39300 0.40500 0.67600
H15 H 0.38300 0.62700 0.65200
H16 H 0.39500 0.63400 0.81800
loop_
_geom_bond_atom_site_label_1
_geom_bond_atom_site_label_2
_geom_bond_site_symmetry_1
_geom_bond_site_symmetry_2
Cl1 C9 1_555 1_555
Si1 O1 1_555 1_555
O1 C1 1_555 1_555
O2 Si1 1_555 1_555
O3 Si1 1_555 1_555
O4 C1 1_555 1_555
C1 C2 1_555 1_555
N1 Si1 1_555 1_555
C2 N1 1_555 1_555
C3 O2 1_555 1_555
C4 N1 1_555 1_555
C5 O3 1_555 1_555
C6 N1 1_555 1_555
C7 Si1 1_555 1_555
C8 C7 1_555 1_555
C9 C8 1_555 1_555
H1 C2 1_555 1_555
H2 C2 1_555 1_555
H3 C3 1_555 1_555
H4 C3 1_555 1_555
H5 C4 1_555 1_555
H6 C4 1_555 1_555
H7 C5 1_555 1_555
H8 C5 1_555 1_555
H9 C6 1_555 1_555
H10 C6 1_555 1_555
H11 C7 1_555 1_555
H12 C7 1_555 1_555
H13 C8 1_555 1_555
H14 C8 1_555 1_555
H15 C9 1_555 1_555
H16 C9 1_555 1_555
C3 C4 1_555 1_555
C5 C6 1_555 1_555

#END
