
#######################################################################
#
#                 Cambridge Crystallographic Data Centre
#                                CCDC 
#
#######################################################################
#
# If this CIF has been generated from an entry in the Cambridge 
# Structural Database, then it will include bibliographic, chemical, 
# crystal, experimental, refinement or atomic coordinate data resulting 
# from the CCDC's data processing and validation procedures.
#
#######################################################################

data_CATCIK
_chemical_name_common            
'cis,anti,cis-Dicyclohexano-18-crown-6 bis(2,4-dithiouracil) clathrate'
_chemical_formula_moiety         'C20 H36 O6,2(C4 H4 N2 S2)'
_chemical_name_systematic        
'cis,anti,cis-(2,3:11,12-Dicyclohexano-1,4,7,10,13,16-hexaoxacyclo-octadecane) bis(pyrimidine-2,4(1H,3H)-dithione) clathrate'
_symmetry_cell_setting           monoclinic
_symmetry_space_group_name_H-M   'P 21/n'
_symmetry_Int_Tables_number      14
_space_group_name_Hall           '-P 2yn'
loop_
_symmetry_equiv_pos_site_id
_symmetry_equiv_pos_as_xyz
1 x,y,z
2 1/2-x,1/2+y,1/2-z
3 -x,-y,-z
4 1/2+x,1/2-y,1/2+z
_cell_length_a                   11.624(2)
_cell_length_b                   12.698(3)
_cell_length_c                   12.093(2)
_cell_angle_alpha                90
_cell_angle_beta                 109.69(3)
_cell_angle_gamma                90
_cell_volume                     1680.58
_exptl_crystal_colour            pale-yellow
_exptl_crystal_description       'triangular based pyramidal'
_chemical_melting_point          'above 250deg.C.(dec.)'
_cell_formula_units_Z            2
loop_
_atom_site_label
_atom_site_type_symbol
_atom_site_fract_x
_atom_site_fract_y
_atom_site_fract_z
S1 S -0.30300(8) 0.48215(8) 0.04043(8)
S2 S -0.58712(8) 0.54266(9) 0.29474(9)
N1 N -0.4253(2) 0.5128(2) 0.1887(2)
H1 H -0.485(2) 0.503(3) 0.126(2)
N2 N -0.2179(2) 0.5240(2) 0.2705(2)
H2 H -0.150(2) 0.523(3) 0.257(3)
C1 C -0.3154(3) 0.5064(2) 0.1712(3)
C2 C -0.4462(3) 0.5362(3) 0.2918(3)
C3 C -0.3377(3) 0.5537(3) 0.3888(3)
H3 H -0.3429 0.5693 0.4621
C4 C -0.2285(3) 0.5479(3) 0.3755(3)
H4 H -0.1584 0.5605 0.4396
O1 O -0.02386(19) 0.71626(18) 0.37876(18)
C5 C 0.0776(3) 0.7199(3) 0.4854(3)
H5 H 0.1296 0.7791 0.4836
H6 H 0.1253 0.6559 0.4936
C6 C 0.0338(3) 0.7308(3) 0.5878(3)
H7 H 0.1011 0.7525 0.6565
H8 H -0.0289 0.7847 0.5711
O2 O -0.0147(2) 0.63343(17) 0.61126(18)
C7 C -0.0381(3) 0.6368(3) 0.7193(3)
H9 H -0.0868 0.6985 0.7207
H10 H 0.0385 0.6423 0.7840
C8 C -0.1042(3) 0.5405(3) 0.7339(3)
H11 H -0.1295 0.5479 0.8022
H12 H -0.1768 0.5308 0.6655
O3 O -0.02618(17) 0.45128(18) 0.74811(18)
C9 C -0.0891(3) 0.3527(3) 0.7451(3)
H13 H -0.1667 0.3543 0.6795
C10 C 0.0095(3) 0.7341(3) 0.2766(3)
H14 H 0.0565 0.7997 0.2890
C11 C -0.1064(3) 0.7509(3) 0.1729(3)
H15 H -0.1577 0.6888 0.1621
H16 H -0.1513 0.8100 0.1889
C12 C -0.0782(3) 0.7722(3) 0.0608(3)
H17 H -0.0347 0.8385 0.0682
H18 H -0.1540 0.7780 -0.0049
C13 C -0.0011(4) 0.6842(3) 0.0375(3)
H19 H -0.0480 0.6194 0.0221
H20 H 0.0197 0.7011 -0.0317
C14 C -0.1154(3) 0.3318(3) 0.8585(3)
H21 H -0.1605 0.3908 0.8744
H22 H -0.1663 0.2695 0.8486
O1B O 0.02386(19) 0.28374(18) 0.62124(18)
C5B C -0.0776(3) 0.2801(3) 0.5146(3)
H5B H -0.1296 0.2209 0.5164
H6B H -0.1253 0.3441 0.5064
C6B C -0.0338(3) 0.2692(3) 0.4122(3)
H7B H -0.1011 0.2475 0.3435
H8B H 0.0289 0.2153 0.4289
O2B O 0.0147(2) 0.36657(17) 0.38874(18)
C7B C 0.0381(3) 0.3632(3) 0.2807(3)
H9B H 0.0868 0.3015 0.2793
H10B H -0.0385 0.3577 0.2160
C8B C 0.1042(3) 0.4595(3) 0.2661(3)
H11B H 0.1295 0.4521 0.1978
H12B H 0.1768 0.4692 0.3345
O3B O 0.02618(17) 0.54872(18) 0.25189(18)
C9B C 0.0891(3) 0.6473(3) 0.2549(3)
H13B H 0.1667 0.6457 0.3205
C10B C -0.0095(3) 0.2659(3) 0.7234(3)
H14B H -0.0565 0.2003 0.7110
C11B C 0.1064(3) 0.2491(3) 0.8271(3)
H15B H 0.1577 0.3112 0.8379
H16B H 0.1513 0.1900 0.8111
C12B C 0.0782(3) 0.2278(3) 0.9392(3)
H17B H 0.0347 0.1615 0.9318
H18B H 0.1540 0.2220 1.0049
C13B C 0.0011(4) 0.3158(3) 0.9625(3)
H19B H 0.0480 0.3806 0.9779
H20B H -0.0197 0.2989 1.0317
C14B C 0.1154(3) 0.6682(3) 0.1415(3)
H21B H 0.1605 0.6092 0.1256
H22B H 0.1663 0.7305 0.1514
loop_
_geom_bond_atom_site_label_1
_geom_bond_atom_site_label_2
_geom_bond_site_symmetry_1
_geom_bond_site_symmetry_2
S1 C1 1_555 1_555
S2 C2 1_555 1_555
N1 H1 1_555 1_555
N2 H2 1_555 1_555
C1 N1 1_555 1_555
C2 N1 1_555 1_555
C3 C2 1_555 1_555
H3 C3 1_555 1_555
C4 N2 1_555 1_555
H4 C4 1_555 1_555
O1 C5 1_555 1_555
C5 H5 1_555 1_555
H6 C5 1_555 1_555
C6 C5 1_555 1_555
H7 C6 1_555 1_555
H8 C6 1_555 1_555
O2 C6 1_555 1_555
C7 O2 1_555 1_555
H9 C7 1_555 1_555
H10 C7 1_555 1_555
C8 C7 1_555 1_555
H11 C8 1_555 1_555
H12 C8 1_555 1_555
O3 C8 1_555 1_555
C9 O3 1_555 1_555
H13 C9 1_555 1_555
C10 O1 1_555 1_555
H14 C10 1_555 1_555
C11 C10 1_555 1_555
H15 C11 1_555 1_555
H16 C11 1_555 1_555
C12 C11 1_555 1_555
H17 C12 1_555 1_555
H18 C12 1_555 1_555
C13 C12 1_555 1_555
H19 C13 1_555 1_555
H20 C13 1_555 1_555
C14 C9 1_555 1_555
H21 C14 1_555 1_555
H22 C14 1_555 1_555
O1B C5B 1_555 1_555
C5B H5B 1_555 1_555
H6B C5B 1_555 1_555
C6B C5B 1_555 1_555
H7B C6B 1_555 1_555
H8B C6B 1_555 1_555
O2B C6B 1_555 1_555
C7B O2B 1_555 1_555
H9B C7B 1_555 1_555
H10B C7B 1_555 1_555
C8B C7B 1_555 1_555
H11B C8B 1_555 1_555
H12B C8B 1_555 1_555
O3B C8B 1_555 1_555
C9B C10 1_555 1_555
H13B C9B 1_555 1_555
C10B C9 1_555 1_555
H14B C10B 1_555 1_555
C11B C10B 1_555 1_555
H15B C11B 1_555 1_555
H16B C11B 1_555 1_555
C12B C11B 1_555 1_555
H17B C12B 1_555 1_555
H18B C12B 1_555 1_555
C13B C14 1_555 1_555
H19B C13B 1_555 1_555
H20B C13B 1_555 1_555
C14B C13 1_555 1_555
H21B C14B 1_555 1_555
H22B C14B 1_555 1_555
N2 C1 1_555 1_555
C3 C4 1_555 1_555
O1B C10B 1_555 1_555
O3B C9B 1_555 1_555
C9B C14B 1_555 1_555
C12B C13B 1_555 1_555

#END
