
#######################################################################
#
#                 Cambridge Crystallographic Data Centre
#                                CCDC 
#
#######################################################################
#
# If this CIF has been generated from an entry in the Cambridge 
# Structural Database, then it will include bibliographic, chemical, 
# crystal, experimental, refinement or atomic coordinate data resulting 
# from the CCDC's data processing and validation procedures.
#
#######################################################################

data_CATCAE
_chemical_formula_moiety         'C15 H17 N1 O5'
_chemical_name_systematic        
'dimethyl {1-[(4-acetylphenyl)amino]ethylidene}propanedioate'
_symmetry_cell_setting           monoclinic
_symmetry_space_group_name_H-M   'P 21/c'
_symmetry_Int_Tables_number      14
_space_group_name_Hall           '-P 2ybc'
loop_
_symmetry_equiv_pos_site_id
_symmetry_equiv_pos_as_xyz
1 x,y,z
2 -x,1/2+y,1/2-z
3 -x,-y,-z
4 x,1/2-y,1/2+z
_cell_length_a                   8.385(2)
_cell_length_b                   7.230(2)
_cell_length_c                   23.546(7)
_cell_angle_alpha                90
_cell_angle_beta                 91.540(6)
_cell_angle_gamma                90
_cell_volume                     1426.93
_exptl_crystal_colour            colorless
_exptl_crystal_description       block
_cell_formula_units_Z            4
loop_
_atom_site_label
_atom_site_type_symbol
_atom_site_fract_x
_atom_site_fract_y
_atom_site_fract_z
N1 N 0.41646(19) 0.1943(2) 0.23999(7)
H1 H 0.4728 0.1670 0.2112
O1 O 0.7089(2) 0.1014(3) 0.49116(7)
O2 O 0.45012(16) 0.1289(2) 0.13197(6)
O3 O 0.24215(16) 0.1904(2) 0.07474(6)
O4 O -0.03186(15) 0.1242(2) 0.12940(6)
O5 O -0.0373(2) 0.3962(3) 0.17234(8)
C1 C 0.9440(3) 0.2114(4) 0.45034(11)
H2 H 0.9864 0.1991 0.4884
H3 H 0.9523 0.3380 0.4384
H4 H 1.0034 0.1341 0.4254
C2 C 0.7728(3) 0.1539(3) 0.44846(10)
C3 C 0.6807(2) 0.1643(3) 0.39356(8)
C4 C 0.7471(2) 0.2292(3) 0.34413(9)
H5 H 0.8534 0.2660 0.3446
C5 C 0.6580(2) 0.2399(3) 0.29446(9)
H6 H 0.7043 0.2842 0.2617
C6 C 0.4996(2) 0.1852(3) 0.29291(8)
C7 C 0.4334(3) 0.1147(3) 0.34147(9)
H7 H 0.3284 0.0730 0.3405
C8 C 0.5230(2) 0.1062(3) 0.39131(9)
H8 H 0.4770 0.0607 0.4240
C9 C 0.2643(2) 0.2385(3) 0.22722(8)
C10 C 0.1618(3) 0.3082(3) 0.27397(9)
H9 H 0.0999 0.2080 0.2885
H10 H 0.0915 0.4027 0.2593
H11 H 0.2283 0.3586 0.3040
C11 C 0.2061(2) 0.2235(3) 0.17205(8)
C12 C 0.3109(2) 0.1734(3) 0.12631(8)
C13 C 0.3426(3) 0.1520(4) 0.02739(9)
H12 H 0.4351 0.2302 0.0296
H13 H 0.2843 0.1755 -0.0075
H14 H 0.3752 0.0248 0.0286
C14 C 0.0371(2) 0.2621(3) 0.15859(8)
C15 C -0.1952(2) 0.1530(4) 0.11140(11)
H15 H -0.2566 0.1878 0.1435
H16 H -0.2374 0.0408 0.0952
H17 H -0.2004 0.2496 0.0834
loop_
_geom_bond_atom_site_label_1
_geom_bond_atom_site_label_2
_geom_bond_site_symmetry_1
_geom_bond_site_symmetry_2
N1 H1 1_555 1_555
O1 C2 1_555 1_555
O2 C12 1_555 1_555
O3 C12 1_555 1_555
O4 C14 1_555 1_555
O5 C14 1_555 1_555
C1 H2 1_555 1_555
H3 C1 1_555 1_555
H4 C1 1_555 1_555
C2 C1 1_555 1_555
C3 C2 1_555 1_555
C4 C3 1_555 1_555
H5 C4 1_555 1_555
C5 C4 1_555 1_555
H6 C5 1_555 1_555
C6 N1 1_555 1_555
C7 C6 1_555 1_555
H7 C7 1_555 1_555
C8 C3 1_555 1_555
H8 C8 1_555 1_555
C9 N1 1_555 1_555
C10 C9 1_555 1_555
H9 C10 1_555 1_555
H10 C10 1_555 1_555
H11 C10 1_555 1_555
C11 C9 1_555 1_555
C12 C11 1_555 1_555
C13 O3 1_555 1_555
H12 C13 1_555 1_555
H13 C13 1_555 1_555
H14 C13 1_555 1_555
C14 C11 1_555 1_555
C15 O4 1_555 1_555
H15 C15 1_555 1_555
H16 C15 1_555 1_555
H17 C15 1_555 1_555
C5 C6 1_555 1_555
C7 C8 1_555 1_555

#END
