
#######################################################################
#
#                 Cambridge Crystallographic Data Centre
#                                CCDC 
#
#######################################################################
#
# If this CIF has been generated from an entry in the Cambridge 
# Structural Database, then it will include bibliographic, chemical, 
# crystal, experimental, refinement or atomic coordinate data resulting 
# from the CCDC's data processing and validation procedures.
#
#######################################################################

data_CATKOZ
_chemical_formula_moiety         'C18 H18 N4 O1,2(C20 H14 O2)'
_chemical_name_systematic        
"1,1'-Binaphthalene-2,2'-diol 1,1'-(oxydiethane-2,1-diyl)bis-1H-benzimidazole"
_symmetry_cell_setting           triclinic
_symmetry_space_group_name_H-M   'P -1'
_symmetry_Int_Tables_number      2
_space_group_name_Hall           '-P 1'
loop_
_symmetry_equiv_pos_site_id
_symmetry_equiv_pos_as_xyz
1 x,y,z
2 -x,-y,-z
_cell_length_a                   10.5603(12)
_cell_length_b                   11.1141(13)
_cell_length_c                   11.7869(14)
_cell_angle_alpha                114.2390(10)
_cell_angle_beta                 101.0700(10)
_cell_angle_gamma                106.296(2)
_cell_volume                     1133.73
_exptl_crystal_colour            colorless
_exptl_crystal_description       block
_cell_formula_units_Z            1
loop_
_atom_site_label
_atom_site_type_symbol
_atom_site_fract_x
_atom_site_fract_y
_atom_site_fract_z
O2 O 0.41272(19) 0.22166(19) 0.60311(17)
H1 H 0.3688 0.2452 0.5566
O3 O 0.48367(19) -0.07241(19) 0.57973(18)
H2 H 0.5232 -0.1188 0.5380
C10 C 0.3812(3) 0.1131(3) 0.7360(2)
C11 C 0.3265(3) 0.1600(3) 0.6549(3)
C12 C 0.1848(3) 0.1449(3) 0.6256(3)
H12 H 0.1496 0.1786 0.5717
C13 C 0.0994(3) 0.0807(3) 0.6763(3)
H13 H 0.0067 0.0724 0.6572
C14 C 0.1495(3) 0.0272(3) 0.7568(3)
C15 C 0.2921(3) 0.0426(3) 0.7860(3)
C16 C 0.3402(3) -0.0134(3) 0.8662(3)
H14 H 0.4334 -0.0032 0.8886
C17 C 0.2508(4) -0.0821(4) 0.9109(3)
H15 H 0.2838 -0.1191 0.9625
C18 C 0.1110(4) -0.0975(4) 0.8805(4)
H16 H 0.0517 -0.1442 0.9120
C19 C 0.0615(3) -0.0447(3) 0.8053(3)
H17 H -0.0321 -0.0559 0.7852
C20 C 0.5344(3) 0.1411(3) 0.7734(3)
C21 C 0.5826(3) 0.0502(3) 0.6912(3)
C22 C 0.7273(3) 0.0812(3) 0.7224(3)
H18 H 0.7581 0.0202 0.6641
C23 C 0.8228(3) 0.1999(3) 0.8372(3)
H19 H 0.9181 0.2186 0.8565
C24 C 0.7796(3) 0.2953(3) 0.9275(3)
C25 C 0.6335(3) 0.2657(3) 0.8939(3)
C26 C 0.5910(3) 0.3627(3) 0.9848(3)
H20 H 0.4959 0.3453 0.9651
C27 C 0.6870(3) 0.4807(3) 1.1006(3)
H21 H 0.6571 0.5439 1.1579
C28 C 0.8305(4) 0.5070(3) 1.1333(3)
H22 H 0.8951 0.5869 1.2130
C29 C 0.8762(3) 0.4170(3) 1.0498(3)
H23 H 0.9717 0.4354 1.0732
N1 N -0.2732(3) 0.4498(3) 0.4984(3)
N2 N -0.3292(3) 0.6294(3) 0.4980(3)
O1 O 0.0149(8) 0.5112(10) 0.5555(6)
C1 C -0.3013(3) 0.5193(5) 0.4330(4)
H3 H -0.3009 0.4905 0.3470
C2 C -0.3181(3) 0.6353(3) 0.6199(3)
C3 C -0.2820(3) 0.5241(4) 0.6206(3)
C4 C -0.2654(4) 0.5020(5) 0.7285(5)
H4 H -0.2427 0.4268 0.7280
C5 C -0.2837(5) 0.5948(6) 0.8344(5)
H5 H -0.2732 0.5826 0.9086
C6 C -0.3173(5) 0.7073(5) 0.8380(4)
H6 H -0.3271 0.7696 0.9143
C7 C -0.3365(4) 0.7283(4) 0.7297(4)
H7 H -0.3611 0.8027 0.7309
C8 C -0.2211(4) 0.3362(4) 0.4551(5)
H8 H -0.2750 0.2680 0.3618
H9 H -0.2381 0.2851 0.5042
C9 C -0.0760(6) 0.3843(5) 0.4720(7)
H10 H -0.0603 0.3005 0.4180
N1A N 0.2732(3) 0.5502(3) 0.5016(3)
N2A N 0.3292(3) 0.3706(3) 0.5020(3)
O1A O -0.0149(8) 0.4888(10) 0.4445(6)
C1A C 0.3013(3) 0.4807(5) 0.5670(4)
H3A H 0.3009 0.5095 0.6530
C2A C 0.3181(3) 0.3647(3) 0.3801(3)
C3A C 0.2820(3) 0.4759(4) 0.3794(3)
C4A C 0.2654(4) 0.4980(5) 0.2715(5)
H4A H 0.2427 0.5732 0.2720
C5A C 0.2837(5) 0.4052(6) 0.1656(5)
H5A H 0.2732 0.4174 0.0914
C6A C 0.3173(5) 0.2927(5) 0.1620(4)
H6A H 0.3271 0.2304 0.0857
C7A C 0.3365(4) 0.2717(4) 0.2703(4)
H7A H 0.3611 0.1973 0.2691
C8A C 0.2211(4) 0.6638(4) 0.5449(5)
H8A H 0.2750 0.7320 0.6382
H9A H 0.2381 0.7149 0.4958
C9A C 0.0760(6) 0.6157(5) 0.5280(7)
H10A H 0.0603 0.6995 0.5820
H11? H -0.0243 0.4172 0.5639
loop_
_geom_bond_atom_site_label_1
_geom_bond_atom_site_label_2
_geom_bond_site_symmetry_1
_geom_bond_site_symmetry_2
N1 C1 1_555 1_555
N2 C1 1_555 1_555
O1 C9 1_555 1_555
O2 H1 1_555 1_555
O3 H2 1_555 1_555
C1 H3 1_555 1_555
C2 N2 1_555 1_555
C3 N1 1_555 1_555
C4 C3 1_555 1_555
H4 C4 1_555 1_555
C5 C4 1_555 1_555
H5 C5 1_555 1_555
C6 C5 1_555 1_555
H6 C6 1_555 1_555
C7 C2 1_555 1_555
H7 C7 1_555 1_555
C8 N1 1_555 1_555
H8 C8 1_555 1_555
H9 C8 1_555 1_555
C9 C8 1_555 1_555
H10 C9 1_555 1_555
C10 C11 1_555 1_555
C11 O2 1_555 1_555
C12 C11 1_555 1_555
H12 C12 1_555 1_555
C13 C12 1_555 1_555
H13 C13 1_555 1_555
C14 C13 1_555 1_555
C15 C10 1_555 1_555
C16 C15 1_555 1_555
H14 C16 1_555 1_555
C17 C16 1_555 1_555
H15 C17 1_555 1_555
C18 C17 1_555 1_555
H16 C18 1_555 1_555
C19 C14 1_555 1_555
H17 C19 1_555 1_555
C20 C10 1_555 1_555
C21 O3 1_555 1_555
C22 C21 1_555 1_555
H18 C22 1_555 1_555
C23 C22 1_555 1_555
H19 C23 1_555 1_555
C24 C23 1_555 1_555
C25 C20 1_555 1_555
C26 C25 1_555 1_555
H20 C26 1_555 1_555
C27 C26 1_555 1_555
H21 C27 1_555 1_555
C28 C27 1_555 1_555
H22 C28 1_555 1_555
C29 C24 1_555 1_555
H23 C29 1_555 1_555
N1A C1A 1_555 1_555
N2A C1A 1_555 1_555
O1A C9 1_555 1_555
C1A H3A 1_555 1_555
C2A N2A 1_555 1_555
C3A N1A 1_555 1_555
C4A C3A 1_555 1_555
H4A C4A 1_555 1_555
C5A C4A 1_555 1_555
H5A C5A 1_555 1_555
C6A C5A 1_555 1_555
H6A C6A 1_555 1_555
C7A C2A 1_555 1_555
H7A C7A 1_555 1_555
C8A N1A 1_555 1_555
H8A C8A 1_555 1_555
H9A C8A 1_555 1_555
C9A O1 1_555 1_555
H10A C9A 1_555 1_555
C2 C3 1_555 1_555
C6 C7 1_555 1_555
C14 C15 1_555 1_555
C18 C19 1_555 1_555
C20 C21 1_555 1_555
C24 C25 1_555 1_555
C28 C29 1_555 1_555
O1A C9A 1_555 1_555
C2A C3A 1_555 1_555
C6A C7A 1_555 1_555
C8A C9A 1_555 1_555

#END
