
#######################################################################
#
#                 Cambridge Crystallographic Data Centre
#                                CCDC 
#
#######################################################################
#
# If this CIF has been generated from an entry in the Cambridge 
# Structural Database, then it will include bibliographic, chemical, 
# crystal, experimental, refinement or atomic coordinate data resulting 
# from the CCDC's data processing and validation procedures.
#
#######################################################################

data_CATVAX
_chemical_formula_moiety         'C26 H18 N4 O2'
_chemical_name_systematic        
N^1^,N^4^-bis(quinolin-8-yl)benzene-1,4-dicarboxamide
_symmetry_cell_setting           monoclinic
_symmetry_space_group_name_H-M   'P 21/c'
_symmetry_Int_Tables_number      14
_space_group_name_Hall           '-P 2ybc'
loop_
_symmetry_equiv_pos_site_id
_symmetry_equiv_pos_as_xyz
1 x,y,z
2 -x,1/2+y,1/2-z
3 -x,-y,-z
4 x,1/2-y,1/2+z
_cell_length_a                   9.1433(18)
_cell_length_b                   6.2477(12)
_cell_length_c                   18.463(6)
_cell_angle_alpha                90
_cell_angle_beta                 105.55(3)
_cell_angle_gamma                90
_cell_volume                     1016.09
_cell_formula_units_Z            2
loop_
_atom_site_label
_atom_site_type_symbol
_atom_site_fract_x
_atom_site_fract_y
_atom_site_fract_z
O1 O 0.2677(4) 0.4052(5) 0.47229(18)
N1 N 0.2175(4) 0.4854(5) 0.58241(18)
H1 H 0.1702 0.4389 0.6137
N2 N 0.1727(4) 0.6862(6) 0.7000(2)
C1 C 0.1473(6) 0.7865(10) 0.7577(3)
H2 H 0.0792 0.7241 0.7809
C2 C 0.2138(6) 0.9784(9) 0.7869(3)
H3 H 0.1908 1.0413 0.8282
C3 C 0.3132(6) 1.0722(8) 0.7538(3)
H4 H 0.3582 1.2018 0.7722
C4 C 0.3486(5) 0.9759(7) 0.6923(2)
C5 C 0.2726(4) 0.7805(6) 0.6666(2)
C6 C 0.4506(5) 1.0583(7) 0.6544(3)
H5 H 0.4976 1.1894 0.6688
C7 C 0.4803(5) 0.9493(8) 0.5976(3)
H6 H 0.5520 1.0036 0.5751
C8 C 0.4074(5) 0.7564(7) 0.5707(2)
H7 H 0.4303 0.6851 0.5309
C9 C 0.3028(5) 0.6745(7) 0.6034(2)
C10 C 0.2011(5) 0.3686(6) 0.5191(2)
C11 C 0.0963(5) 0.1797(6) 0.5116(2)
C12 C 0.0013(5) 0.1406(7) 0.5566(2)
H8 H -0.0004 0.2371 0.5948
C13 C 0.0909(5) 0.0356(7) 0.4529(2)
H9 H 0.1505 0.0598 0.4200
O1B O -0.2677(4) -0.4052(5) 0.52771(18)
N1B N -0.2175(4) -0.4854(5) 0.41759(18)
H1B H -0.1702 -0.4389 0.3863
N2B N -0.1727(4) -0.6862(6) 0.3000(2)
C1B C -0.1473(6) -0.7865(10) 0.2423(3)
H2B H -0.0792 -0.7241 0.2191
C2B C -0.2138(6) -0.9784(9) 0.2131(3)
H3B H -0.1908 -1.0413 0.1718
C3B C -0.3132(6) -1.0722(8) 0.2462(3)
H4B H -0.3582 -1.2018 0.2278
C4B C -0.3486(5) -0.9759(7) 0.3077(2)
C5B C -0.2726(4) -0.7805(6) 0.3334(2)
C6B C -0.4506(5) -1.0583(7) 0.3456(3)
H5B H -0.4976 -1.1894 0.3312
C7B C -0.4803(5) -0.9493(8) 0.4024(3)
H6B H -0.5520 -1.0036 0.4249
C8B C -0.4074(5) -0.7564(7) 0.4293(2)
H7B H -0.4303 -0.6851 0.4691
C9B C -0.3028(5) -0.6745(7) 0.3966(2)
C10B C -0.2011(5) -0.3686(6) 0.4809(2)
C11B C -0.0963(5) -0.1797(6) 0.4884(2)
C12B C -0.0013(5) -0.1406(7) 0.4434(2)
H8B H 0.0004 -0.2371 0.4052
C13B C -0.0909(5) -0.0356(7) 0.5471(2)
H9B H -0.1505 -0.0598 0.5800
loop_
_geom_bond_atom_site_label_1
_geom_bond_atom_site_label_2
_geom_bond_site_symmetry_1
_geom_bond_site_symmetry_2
O1 C10 1_555 1_555
N1 H1 1_555 1_555
N2 C1 1_555 1_555
C1 H2 1_555 1_555
C2 C1 1_555 1_555
H3 C2 1_555 1_555
C3 C2 1_555 1_555
H4 C3 1_555 1_555
C4 C3 1_555 1_555
C5 N2 1_555 1_555
C6 C4 1_555 1_555
H5 C6 1_555 1_555
C7 C6 1_555 1_555
H6 C7 1_555 1_555
C8 C7 1_555 1_555
H7 C8 1_555 1_555
C9 N1 1_555 1_555
C10 N1 1_555 1_555
C11 C10 1_555 1_555
C12 C11 1_555 1_555
H8 C12 1_555 1_555
C13 C11 1_555 1_555
H9 C13 1_555 1_555
O1B C10B 1_555 1_555
N1B H1B 1_555 1_555
N2B C1B 1_555 1_555
C1B H2B 1_555 1_555
C2B C1B 1_555 1_555
H3B C2B 1_555 1_555
C3B C2B 1_555 1_555
H4B C3B 1_555 1_555
C4B C3B 1_555 1_555
C5B N2B 1_555 1_555
C6B C4B 1_555 1_555
H5B C6B 1_555 1_555
C7B C6B 1_555 1_555
H6B C7B 1_555 1_555
C8B C7B 1_555 1_555
H7B C8B 1_555 1_555
C9B N1B 1_555 1_555
C10B N1B 1_555 1_555
C11B C10B 1_555 1_555
C12B C13 1_555 1_555
H8B C12B 1_555 1_555
C13B C12 1_555 1_555
H9B C13B 1_555 1_555
C4 C5 1_555 1_555
C5 C9 1_555 1_555
C8 C9 1_555 1_555
C4B C5B 1_555 1_555
C5B C9B 1_555 1_555
C8B C9B 1_555 1_555
C11B C12B 1_555 1_555
C11B C13B 1_555 1_555

#END
