
#######################################################################
#
#                 Cambridge Crystallographic Data Centre
#                                CCDC 
#
#######################################################################
#
# If this CIF has been generated from an entry in the Cambridge 
# Structural Database, then it will include bibliographic, chemical, 
# crystal, experimental, refinement or atomic coordinate data resulting 
# from the CCDC's data processing and validation procedures.
#
#######################################################################

data_CAVCUZ
_chemical_formula_moiety         'C22 H20 F1 N3'
_chemical_name_systematic        
N-(2-((2-Fluorobenzylidene)carbohydrazonoyl)phenyl)-2,6-dimethylaniline
_symmetry_cell_setting           triclinic
_symmetry_space_group_name_H-M   'P -1'
_symmetry_Int_Tables_number      2
_space_group_name_Hall           '-P 1'
loop_
_symmetry_equiv_pos_site_id
_symmetry_equiv_pos_as_xyz
1 x,y,z
2 -x,-y,-z
_cell_length_a                   7.4180(15)
_cell_length_b                   10.139(2)
_cell_length_c                   12.916(3)
_cell_angle_alpha                106.19(3)
_cell_angle_beta                 98.12(3)
_cell_angle_gamma                93.82(3)
_cell_volume                     917.79
_exptl_crystal_colour            yellow
_exptl_crystal_description       block
_cell_formula_units_Z            2
loop_
_atom_site_label
_atom_site_type_symbol
_atom_site_fract_x
_atom_site_fract_y
_atom_site_fract_z
F1 F 0.28380(15) 0.95617(10) 0.52644(9)
N1 N 1.11182(17) 0.99552(12) 0.76714(10)
N2 N 0.85787(16) 0.79457(13) 0.61929(10)
N3 N 0.70778(17) 0.72835(13) 0.53783(10)
C1 C 1.21373(17) 0.88851(13) 0.77327(11)
C2 C 1.15562(19) 0.75363(14) 0.70030(12)
C3 C 1.2650(2) 0.64779(15) 0.70689(13)
H1 H 1.2307 0.5602 0.6579
C4 C 1.4205(2) 0.66912(16) 0.78307(14)
H2 H 1.4886 0.5963 0.7868
C5 C 1.4756(2) 0.80002(15) 0.85446(13)
H3 H 1.5812 0.8152 0.9064
C6 C 1.37459(18) 0.90795(15) 0.84891(12)
H4 H 1.4145 0.9956 0.8966
C7 C 1.14192(18) 1.12909(13) 0.84509(11)
C8 C 1.2887(2) 1.22250(14) 0.84610(12)
C9 C 1.3115(3) 1.35141(16) 0.92354(14)
H5 H 1.4103 1.4146 0.9265
C10 C 1.1914(3) 1.38769(19) 0.99575(16)
H6 H 1.2099 1.4742 1.0474
C11 C 1.0456(3) 1.2968(2) 0.99142(15)
H7 H 0.9638 1.3227 1.0399
C12 C 1.0154(2) 1.16542(17) 0.91590(13)
C13 C 1.4148(2) 1.1907(2) 0.76285(15)
H8 H 1.3569 1.2039 0.6957
H9 H 1.4410 1.0966 0.7500
H10 H 1.5269 1.2513 0.7897
C14 C 0.8513(2) 1.0665(2) 0.90817(18)
H11 H 0.7708 1.0545 0.8404
H12 H 0.7878 1.1027 0.9680
H13 H 0.8901 0.9790 0.9112
C15 C 0.9872(2) 0.71713(15) 0.62265(12)
H14 H 0.9711 0.6307 0.5710
C16 C 0.5672(2) 0.79335(15) 0.54508(12)
H15 H 0.5721 0.8749 0.6012
C17 C 0.39806(19) 0.74204(15) 0.46663(11)
C18 C 0.2610(2) 0.82597(16) 0.45735(13)
C19 C 0.1026(2) 0.7853(2) 0.38201(15)
H16 H 0.0136 0.8451 0.3789
C20 C 0.0794(2) 0.6535(2) 0.31132(15)
H17 H -0.0253 0.6242 0.2584
C21 C 0.2101(2) 0.56481(18) 0.31848(14)
H18 H 0.1924 0.4755 0.2711
C22 C 0.3668(2) 0.60769(16) 0.39543(13)
H19 H 0.4533 0.5464 0.4001
H20 H 1.002(2) 0.9694(16) 0.7315(13)
loop_
_geom_bond_atom_site_label_1
_geom_bond_atom_site_label_2
_geom_bond_site_symmetry_1
_geom_bond_site_symmetry_2
F1 C18 1_555 1_555
N1 C1 1_555 1_555
N2 N3 1_555 1_555
N3 C16 1_555 1_555
C1 C2 1_555 1_555
C2 C3 1_555 1_555
C3 H1 1_555 1_555
C4 C3 1_555 1_555
H2 C4 1_555 1_555
C5 C4 1_555 1_555
H3 C5 1_555 1_555
C6 C1 1_555 1_555
H4 C6 1_555 1_555
C7 N1 1_555 1_555
C8 C7 1_555 1_555
C9 C8 1_555 1_555
H5 C9 1_555 1_555
C10 C9 1_555 1_555
H6 C10 1_555 1_555
C11 C10 1_555 1_555
H7 C11 1_555 1_555
C12 C7 1_555 1_555
C13 C8 1_555 1_555
H8 C13 1_555 1_555
H9 C13 1_555 1_555
H10 C13 1_555 1_555
C14 C12 1_555 1_555
H11 C14 1_555 1_555
H12 C14 1_555 1_555
H13 C14 1_555 1_555
C15 N2 1_555 1_555
H14 C15 1_555 1_555
C16 H15 1_555 1_555
C17 C16 1_555 1_555
C18 C17 1_555 1_555
C19 C18 1_555 1_555
H16 C19 1_555 1_555
C20 C19 1_555 1_555
H17 C20 1_555 1_555
C21 C20 1_555 1_555
H18 C21 1_555 1_555
C22 C17 1_555 1_555
H19 C22 1_555 1_555
H20 N1 1_555 1_555
C2 C15 1_555 1_555
C5 C6 1_555 1_555
C11 C12 1_555 1_555
C21 C22 1_555 1_555

#END
