
#######################################################################
#
#                 Cambridge Crystallographic Data Centre
#                                CCDC 
#
#######################################################################
#
# If this CIF has been generated from an entry in the Cambridge 
# Structural Database, then it will include bibliographic, chemical, 
# crystal, experimental, refinement or atomic coordinate data resulting 
# from the CCDC's data processing and validation procedures.
#
#######################################################################

data_CAVSUQ
_chemical_formula_moiety         'C41 H41 B1 P3 1+,Br1 1-'
_chemical_name_systematic        
'5-((diphenylphosphino)methyl)-5-methyl-1,1,3,3-tetraphenyl-1,3,2-diphosphaborinan-2-ium bromide unknown solvate'
_symmetry_cell_setting           triclinic
_symmetry_space_group_name_H-M   'P -1'
_symmetry_Int_Tables_number      2
_space_group_name_Hall           '-P 1'
loop_
_symmetry_equiv_pos_site_id
_symmetry_equiv_pos_as_xyz
1 x,y,z
2 -x,-y,-z
_cell_length_a                   13.7686(6)
_cell_length_b                   14.0695(5)
_cell_length_c                   14.3983(6)
_cell_angle_alpha                98.002(2)
_cell_angle_beta                 114.3643(19)
_cell_angle_gamma                113.651(2)
_cell_volume                     2166.66
_exptl_crystal_colour            colorless
_exptl_crystal_description       prism
_cell_formula_units_Z            2
_exptl_crystal_recrystallization_method dichloromethane/pentane
loop_
_atom_site_label
_atom_site_type_symbol
_atom_site_fract_x
_atom_site_fract_y
_atom_site_fract_z
B1 B -0.0068(4) 0.3362(3) -0.0620(3)
P1 P 0.44267(9) 0.38626(8) 0.16899(8)
P2 P 0.13312(8) 0.36864(7) -0.07879(7)
P3 P -0.00560(8) 0.26393(7) 0.04288(7)
C1 C 0.2844(3) 0.3225(3) 0.1466(3)
C2 C 0.1718(3) 0.2598(3) -0.0633(3)
C3 C 0.0564(3) 0.1736(3) 0.0318(3)
C4 C 0.1825(3) 0.2249(3) 0.0367(3)
C5 C 0.2126(4) 0.1312(3) 0.0273(3)
C6 C 0.5221(4) 0.5190(3) 0.2813(3)
C7 C 0.6373(4) 0.5992(4) 0.3049(4)
C8 C 0.7039(6) 0.7010(4) 0.3877(5)
C9 C 0.6572(6) 0.7281(5) 0.4458(5)
C10 C 0.5443(7) 0.6511(6) 0.4244(5)
C11 C 0.4749(5) 0.5458(4) 0.3430(4)
C12 C 0.5131(3) 0.3147(3) 0.2462(3)
C13 C 0.6003(4) 0.3034(4) 0.2289(4)
C14 C 0.6672(4) 0.2602(4) 0.2911(4)
C15 C 0.6477(4) 0.2280(4) 0.3693(4)
C16 C 0.5581(5) 0.2355(4) 0.3849(4)
C17 C 0.4911(4) 0.2779(4) 0.3237(3)
C18 C 0.2678(3) 0.5052(3) 0.0089(3)
C19 C 0.3751(4) 0.5407(3) 0.0036(3)
C20 C 0.4755(4) 0.6467(3) 0.0690(4)
C21 C 0.4707(4) 0.7177(3) 0.1412(4)
C22 C 0.3659(4) 0.6846(3) 0.1470(4)
C23 C 0.2646(4) 0.5788(3) 0.0809(3)
C24 C 0.0889(3) 0.3605(3) -0.2185(3)
C25 C 0.1298(4) 0.4562(4) -0.2428(3)
C26 C 0.0891(5) 0.4472(5) -0.3518(4)
C27 C 0.0103(5) 0.3441(5) -0.4346(4)
C28 C -0.0327(5) 0.2502(4) -0.4121(4)
C29 C 0.0068(4) 0.2570(4) -0.3035(3)
C30 C 0.0719(3) 0.3524(3) 0.1846(3)
C31 C 0.0867(4) 0.4581(3) 0.2095(3)
C32 C 0.1422(4) 0.5262(3) 0.3177(4)
C33 C 0.1838(4) 0.4878(4) 0.4005(3)
C34 C 0.1688(4) 0.3821(4) 0.3766(3)
C35 C 0.1125(4) 0.3142(3) 0.2687(3)
C36 C -0.1668(3) 0.1773(3) 0.0017(3)
C37 C -0.2142(4) 0.2034(3) 0.0633(3)
C38 C -0.3392(4) 0.1429(4) 0.0241(4)
C39 C -0.4182(4) 0.0557(4) -0.0761(4)
C40 C -0.3713(4) 0.0290(3) -0.1366(4)
C41 C -0.2464(4) 0.0905(3) -0.0991(3)
H1 H 0.2654 0.3819 0.1502
H2 H 0.2820 0.2958 0.2045
H3 H 0.2480 0.2825 -0.0622
H4 H 0.1065 0.1939 -0.1269
H5 H 0.0631 0.1423 0.0874
H6 H -0.0028 0.1172 -0.0388
H7 H 0.1451 0.0698 -0.0389
H8 H 0.2868 0.1581 0.0252
H9 H 0.2226 0.1098 0.0895
H10 H 0.6685 0.5826 0.2634
H11 H 0.7817 0.7517 0.4036
H12 H 0.6998 0.7972 0.4972
H13 H 0.5113 0.6671 0.4641
H14 H 0.3981 0.4936 0.3304
H15 H 0.6153 0.3261 0.1756
H16 H 0.7253 0.2506 0.2786
H17 H 0.6960 0.2032 0.4139
H18 H 0.5422 0.2103 0.4372
H19 H 0.4293 0.2811 0.3345
H20 H 0.3795 0.4920 -0.0443
H21 H 0.5453 0.6702 0.0633
H22 H 0.5397 0.7883 0.1857
H23 H 0.3626 0.7335 0.1950
H24 H 0.1933 0.5560 0.0851
H25 H 0.1847 0.5264 -0.1872
H26 H 0.1163 0.5113 -0.3676
H27 H -0.0153 0.3373 -0.5075
H28 H -0.0893 0.1828 -0.4687
H29 H -0.0209 0.1926 -0.2868
H30 H 0.0608 0.4851 0.1532
H31 H 0.1516 0.5982 0.3346
H32 H 0.2196 0.5329 0.4722
H33 H 0.1968 0.3571 0.4333
H34 H 0.1008 0.2429 0.2524
H35 H -0.1624 0.2617 0.1301
H36 H -0.3712 0.1624 0.0660
H37 H -0.5032 0.0155 -0.1038
H38 H -0.4229 -0.0297 -0.2031
H39 H -0.2162 0.0730 -0.1406
H40 H -0.0845 0.2671 -0.1409
H41 H -0.0130 0.4099 -0.0441
Br1 Br -0.12766(4) -0.04058(3) -0.25354(3)
loop_
_geom_bond_atom_site_label_1
_geom_bond_atom_site_label_2
_geom_bond_site_symmetry_1
_geom_bond_site_symmetry_2
B1 P2 1_555 1_555
P1 C1 1_555 1_555
P2 C2 1_555 1_555
P3 B1 1_555 1_555
C1 C4 1_555 1_555
C2 C4 1_555 1_555
C3 P3 1_555 1_555
C4 C3 1_555 1_555
C5 C4 1_555 1_555
C6 P1 1_555 1_555
C7 C6 1_555 1_555
C8 C7 1_555 1_555
C9 C8 1_555 1_555
C10 C9 1_555 1_555
C11 C6 1_555 1_555
C12 P1 1_555 1_555
C13 C12 1_555 1_555
C14 C13 1_555 1_555
C15 C14 1_555 1_555
C16 C15 1_555 1_555
C17 C12 1_555 1_555
C18 P2 1_555 1_555
C19 C18 1_555 1_555
C20 C19 1_555 1_555
C21 C20 1_555 1_555
C22 C21 1_555 1_555
C23 C18 1_555 1_555
C24 P2 1_555 1_555
C25 C24 1_555 1_555
C26 C25 1_555 1_555
C27 C26 1_555 1_555
C28 C27 1_555 1_555
C29 C24 1_555 1_555
C30 P3 1_555 1_555
C31 C30 1_555 1_555
C32 C31 1_555 1_555
C33 C32 1_555 1_555
C34 C33 1_555 1_555
C35 C30 1_555 1_555
C36 P3 1_555 1_555
C37 C36 1_555 1_555
C38 C37 1_555 1_555
C39 C38 1_555 1_555
C40 C39 1_555 1_555
C41 C36 1_555 1_555
H1 C1 1_555 1_555
H2 C1 1_555 1_555
H3 C2 1_555 1_555
H4 C2 1_555 1_555
H5 C3 1_555 1_555
H6 C3 1_555 1_555
H7 C5 1_555 1_555
H8 C5 1_555 1_555
H9 C5 1_555 1_555
H10 C7 1_555 1_555
H11 C8 1_555 1_555
H12 C9 1_555 1_555
H13 C10 1_555 1_555
H14 C11 1_555 1_555
H15 C13 1_555 1_555
H16 C14 1_555 1_555
H17 C15 1_555 1_555
H18 C16 1_555 1_555
H19 C17 1_555 1_555
H20 C19 1_555 1_555
H21 C20 1_555 1_555
H22 C21 1_555 1_555
H23 C22 1_555 1_555
H24 C23 1_555 1_555
H25 C25 1_555 1_555
H26 C26 1_555 1_555
H27 C27 1_555 1_555
H28 C28 1_555 1_555
H29 C29 1_555 1_555
H30 C31 1_555 1_555
H31 C32 1_555 1_555
H32 C33 1_555 1_555
H33 C34 1_555 1_555
H34 C35 1_555 1_555
H35 C37 1_555 1_555
H36 C38 1_555 1_555
H37 C39 1_555 1_555
H38 C40 1_555 1_555
H39 C41 1_555 1_555
H40 B1 1_555 1_555
H41 B1 1_555 1_555
C10 C11 1_555 1_555
C16 C17 1_555 1_555
C22 C23 1_555 1_555
C28 C29 1_555 1_555
C34 C35 1_555 1_555
C40 C41 1_555 1_555

#END
