
#######################################################################
#
#                 Cambridge Crystallographic Data Centre
#                                CCDC 
#
#######################################################################
#
# If this CIF has been generated from an entry in the Cambridge 
# Structural Database, then it will include bibliographic, chemical, 
# crystal, experimental, refinement or atomic coordinate data resulting 
# from the CCDC's data processing and validation procedures.
#
#######################################################################

data_CAWHUF
_chemical_formula_moiety         'C20 H14 F4 O1'
_chemical_name_systematic        2,6-bis(2,6-difluorobenzylidene)cyclohexanone
_symmetry_cell_setting           triclinic
_symmetry_space_group_name_H-M   'P -1'
_symmetry_Int_Tables_number      2
_space_group_name_Hall           '-P 1'
loop_
_symmetry_equiv_pos_site_id
_symmetry_equiv_pos_as_xyz
1 x,y,z
2 -x,-y,-z
_cell_length_a                   9.417(2)
_cell_length_b                   9.854(2)
_cell_length_c                   10.615(3)
_cell_angle_alpha                108.051(4)
_cell_angle_beta                 93.616(5)
_cell_angle_gamma                117.396(4)
_cell_volume                     806.451
_exptl_crystal_colour            green
_exptl_crystal_description       prismatic
_cell_formula_units_Z            2
loop_
_atom_site_label
_atom_site_type_symbol
_atom_site_fract_x
_atom_site_fract_y
_atom_site_fract_z
F1 F 0.89024(18) 0.39788(19) 0.35757(17)
F2 F 0.4395(2) -0.12440(18) 0.08949(15)
F3 F 0.3910(2) 0.54441(19) 0.85865(16)
F4 F -0.09910(19) 0.0881(2) 0.55941(19)
O1 O 0.3254(2) 0.2987(2) 0.34675(17)
C1 C 0.4060(3) 0.2911(3) 0.4366(2)
C2 C 0.5410(3) 0.2547(2) 0.4094(2)
C3 C 0.5414(3) 0.1872(3) 0.2799(2)
H1 H 0.4587 0.1699 0.2136
C4 C 0.6586(3) 0.1373(3) 0.2307(2)
C5 C 0.8287(3) 0.2387(3) 0.2712(2)
C6 C 0.9370(3) 0.1895(4) 0.2273(3)
H2 H 1.0502 0.2623 0.2581
C7 C 0.8746(5) 0.0297(5) 0.1365(3)
H3 H 0.9462 -0.0071 0.1071
C8 C 0.7061(4) -0.0767(4) 0.0885(3)
H4 H 0.6631 -0.1841 0.0255
C9 C 0.6053(3) -0.0201(3) 0.1359(2)
C10 C 0.3682(3) 0.3133(2) 0.5743(2)
C11 C 0.2249(3) 0.3051(3) 0.5846(2)
H5 H 0.1626 0.2949 0.5071
C12 C 0.1531(3) 0.3102(3) 0.7033(2)
C13 C 0.2334(4) 0.4224(3) 0.8350(3)
C14 C 0.1620(5) 0.4221(4) 0.9441(3)
H6 H 0.2222 0.5005 1.0315
C15 C 0.0003(5) 0.3038(5) 0.9215(4)
H7 H -0.0495 0.3007 0.9943
C16 C -0.0884(4) 0.1902(4) 0.7920(4)
H8 H -0.1983 0.1101 0.7757
C17 C -0.0112(3) 0.1977(3) 0.6878(3)
C18 C 0.6601(3) 0.2853(3) 0.5298(2)
H9 H 0.7430 0.4019 0.5704
H10 H 0.7155 0.2234 0.4994
C19 C 0.5724(3) 0.2341(3) 0.6357(2)
H11 H 0.6516 0.2535 0.7117
H12 H 0.4918 0.1167 0.5959
C20 C 0.4867(3) 0.3304(3) 0.6870(2)
H13 H 0.4276 0.2917 0.7517
H14 H 0.5690 0.4464 0.7349
loop_
_geom_bond_atom_site_label_1
_geom_bond_atom_site_label_2
_geom_bond_site_symmetry_1
_geom_bond_site_symmetry_2
F1 C5 1_555 1_555
F2 C9 1_555 1_555
F3 C13 1_555 1_555
F4 C17 1_555 1_555
O1 C1 1_555 1_555
C1 C2 1_555 1_555
C2 C3 1_555 1_555
C3 H1 1_555 1_555
C4 C3 1_555 1_555
C5 C4 1_555 1_555
C6 C5 1_555 1_555
H2 C6 1_555 1_555
C7 C6 1_555 1_555
H3 C7 1_555 1_555
C8 C7 1_555 1_555
H4 C8 1_555 1_555
C9 C4 1_555 1_555
C10 C1 1_555 1_555
C11 C10 1_555 1_555
H5 C11 1_555 1_555
C12 C11 1_555 1_555
C13 C12 1_555 1_555
C14 C13 1_555 1_555
H6 C14 1_555 1_555
C15 C14 1_555 1_555
H7 C15 1_555 1_555
C16 C15 1_555 1_555
H8 C16 1_555 1_555
C17 C12 1_555 1_555
C18 C2 1_555 1_555
H9 C18 1_555 1_555
H10 C18 1_555 1_555
C19 C18 1_555 1_555
H11 C19 1_555 1_555
H12 C19 1_555 1_555
C20 C10 1_555 1_555
H13 C20 1_555 1_555
H14 C20 1_555 1_555
C8 C9 1_555 1_555
C16 C17 1_555 1_555
C19 C20 1_555 1_555

#END
