
#######################################################################
#
#                 Cambridge Crystallographic Data Centre
#                                CCDC 
#
#######################################################################
#
# If this CIF has been generated from an entry in the Cambridge 
# Structural Database, then it will include bibliographic, chemical, 
# crystal, experimental, refinement or atomic coordinate data resulting 
# from the CCDC's data processing and validation procedures.
#
#######################################################################

data_CAWPAT
_chemical_formula_moiety         'C4 H10 B1 N3'
_chemical_name_systematic        
(2,4-Dimethyl-4H-1,2,4-triazol-2-ium-3-yl)(trihydrido)borate
_symmetry_cell_setting           monoclinic
_symmetry_space_group_name_H-M   'P 21/c'
_symmetry_Int_Tables_number      14
_space_group_name_Hall           '-P 2ybc'
loop_
_symmetry_equiv_pos_site_id
_symmetry_equiv_pos_as_xyz
1 x,y,z
2 -x,1/2+y,1/2-z
3 -x,-y,-z
4 x,1/2-y,1/2+z
_cell_length_a                   11.4755(11)
_cell_length_b                   4.6745(5)
_cell_length_c                   12.6976(13)
_cell_angle_alpha                90
_cell_angle_beta                 100.463(2)
_cell_angle_gamma                90
_cell_volume                     669.802
_exptl_crystal_colour            colorless
_exptl_crystal_description       columnar
_cell_formula_units_Z            4
loop_
_atom_site_label
_atom_site_type_symbol
_atom_site_fract_x
_atom_site_fract_y
_atom_site_fract_z
B1 B 0.28709(17) -0.1670(3) 0.61064(12)
H1 H 0.2144(13) -0.147(3) 0.5376(13)
H2 H 0.3081(13) -0.391(4) 0.6295(13)
H3 H 0.3714(17) -0.062(4) 0.5949(14)
N1 N 0.15490(10) 0.1608(2) 0.71312(9)
C1 C 0.24707(11) -0.0122(2) 0.71015(9)
N2 N 0.30388(10) -0.0223(2) 0.81368(8)
C2 C 0.24332(15) 0.1450(4) 0.87295(12)
H4 H 0.2720(14) 0.167(4) 0.9500(15)
N3 N 0.15183(13) 0.2617(3) 0.81483(11)
C3 C 0.06442(18) 0.2538(5) 0.62513(16)
H5 H -0.003(2) 0.175(5) 0.6279(18)
H6 H 0.0796(19) 0.198(5) 0.5559(19)
H7 H 0.057(2) 0.458(6) 0.625(2)
C4 C 0.41177(16) -0.1841(4) 0.85405(14)
H8 H 0.4189(17) -0.236(4) 0.9296(18)
H9 H 0.4069(18) -0.359(6) 0.816(2)
H10 H 0.483(2) -0.067(5) 0.8557(17)
loop_
_geom_bond_atom_site_label_1
_geom_bond_atom_site_label_2
_geom_bond_site_symmetry_1
_geom_bond_site_symmetry_2
B1 H1 1_555 1_555
H2 B1 1_555 1_555
H3 B1 1_555 1_555
N1 C1 1_555 1_555
C1 B1 1_555 1_555
N2 C1 1_555 1_555
C2 N2 1_555 1_555
H4 C2 1_555 1_555
N3 N1 1_555 1_555
C3 N1 1_555 1_555
H5 C3 1_555 1_555
H6 C3 1_555 1_555
H7 C3 1_555 1_555
C4 N2 1_555 1_555
H8 C4 1_555 1_555
H9 C4 1_555 1_555
H10 C4 1_555 1_555
C2 N3 1_555 1_555

#END
