
#######################################################################
#
#                 Cambridge Crystallographic Data Centre
#                                CCDC 
#
#######################################################################
#
# If this CIF has been generated from an entry in the Cambridge 
# Structural Database, then it will include bibliographic, chemical, 
# crystal, experimental, refinement or atomic coordinate data resulting 
# from the CCDC's data processing and validation procedures.
#
#######################################################################

data_CAWRAT10
_chemical_formula_moiety         'C26 H34 N2 O6,C4 H12 N1 1+,Cl1 O4 1-'
_chemical_name_systematic        
'26,27-Dimethoxy-4,18-dimethyl-8,11,14-trioxa-1,21-diazatetracyclo(19.3.1.1^2,6^.1^16,20^)heptacosa-2,4,6(26),16,18,20(27)-hexaen-25-one t-butylammonium perchlorate clathrate'
_symmetry_cell_setting           orthorhombic
_symmetry_space_group_name_H-M   'F d d 2'
_symmetry_Int_Tables_number      43
_space_group_name_Hall           'F 2 -2d'
loop_
_symmetry_equiv_pos_site_id
_symmetry_equiv_pos_as_xyz
1 x,y,z
2 x,1/2+y,1/2+z
3 1/2+x,y,1/2+z
4 1/2+x,1/2+y,z
5 1/4-x,1/4+y,1/4+z
6 1/4-x,3/4+y,3/4+z
7 3/4-x,1/4+y,3/4+z
8 3/4-x,3/4+y,1/4+z
9 1/4+x,1/4-y,1/4+z
10 1/4+x,3/4-y,3/4+z
11 3/4+x,1/4-y,3/4+z
12 3/4+x,3/4-y,1/4+z
13 1/2-x,-y,1/2+z
14 1/2-x,1/2-y,z
15 -x,-y,z
16 -x,1/2-y,1/2+z
_cell_length_a                   46.037(9)
_cell_length_b                   25.930(4)
_cell_length_c                   10.900(2)
_cell_angle_alpha                90
_cell_angle_beta                 90
_cell_angle_gamma                90
_cell_volume                     13011.8
_exptl_crystal_colour            colorless
_cell_formula_units_Z            16
loop_
_atom_site_label
_atom_site_type_symbol
_atom_site_fract_x
_atom_site_fract_y
_atom_site_fract_z
C1 C 0.0478(1) 0.1073(2) -0.8353(7)
O1 O 0.0706(1) 0.0753(1) -0.7860(5)
C2 C 0.0666(2) 0.0220(2) -0.8171(8)
C3 C 0.0521(5) -0.0069(3) -0.7211(8)
O2 O 0.0698(1) -0.0125(2) -0.6146(5)
C4 C 0.0586(2) -0.0427(3) -0.5193(8)
C5 C 0.0789(2) -0.0511(3) -0.4200(9)
O3 O 0.0867(1) -0.0048(2) -0.3547(6)
C6 C 0.0736(2) 0.0004(2) -0.2359(8)
C7 C 0.0785(1) 0.0544(3) -0.1927(7)
C8 C 0.0991(1) 0.0658(3) -0.1030(7)
C9 C 0.1054(1) 0.1154(3) -0.0672(7)
C10 C 0.1259(2) 0.1277(3) 0.0376(9)
C11 C 0.0903(1) 0.1560(2) -0.1248(7)
C12 C 0.0694(1) 0.1463(2) -0.2120(6)
C13 C 0.0622(1) 0.0951(2) -0.2400(7)
O8 O 0.0411(1) 0.0852(2) -0.3274(5)
C14 C 0.0142(2) 0.0699(3) -0.2721(8)
N2 N 0.0544(1) 0.1873(2) -0.2731(5)
C15 C 0.0289(1) 0.2113(2) -0.2175(7)
C16 C 0.0214(1) 0.2601(2) -0.2878(8)
C17 C 0.0172(1) 0.2476(2) -0.4217(7)
N3 N 0.0434(1) 0.2205(2) -0.4679(5)
C18 C 0.0611(1) 0.1922(2) -0.3943(6)
O9 O 0.0839(1) 0.1723(1) -0.4357(4)
C19 C 0.0474(1) 0.2161(2) -0.5999(6)
C20 C 0.0538(1) 0.2580(2) -0.6696(6)
C21 C 0.0576(1) 0.2530(2) -0.7970(6)
C22 C 0.0639(2) 0.2994(3) -0.8753(7)
C23 C 0.0562(1) 0.2036(2) -0.8473(7)
C24 C 0.0500(1) 0.1606(2) -0.7789(6)
C25 C 0.0448(1) 0.1672(6) -0.6519(6)
O10 O 0.0377(1) 0.1246(2) -0.5830(4)
C26 C 0.0070(2) 0.1143(3) -0.5753(8)
H1 H 0.1107 0.0344 -0.0599
H2 H 0.1292 0.1680 0.0501
H3 H 0.1172 0.1110 0.1211
H4 H 0.1467 0.1093 0.0182
H5 H 0.0952 0.1954 -0.0999
H6 H 0.0003 0.0510 -0.3410
H7 H 0.0033 0.1044 -0.2420
H8 H 0.0172 0.0439 -0.1971
H9 H 0.0108 0.1849 -0.2211
H10 H 0.0336 0.2209 -0.1230
H11 H 0.0388 0.2877 -0.2780
H12 H 0.0016 0.2764 -0.2514
H13 H 0.0141 0.2829 -0.4728
H14 H -0.0016 0.2232 -0.4326
H15 H 0.0560 0.2954 -0.6268
H16 H 0.0552 0.2965 -0.9672
H17 H 0.0871 0.3040 -0.8794
H18 H 0.0544 0.3331 -0.8311
H19 H 0.0601 0.1990 -0.9443
H20 H 0.0031 0.0766 -0.5385
H21 H -0.0031 0.1174 -0.6650
H22 H -0.0029 0.1429 -0.5150
H23 H 0.0501 0.1101 -0.9337
H24 H 0.0269 0.0906 -0.8136
H25 H 0.0537 0.0196 -0.8997
H26 H 0.0877 0.0049 -0.8333
H27 H 0.0467 -0.0447 -0.755
H28 H 0.0324 0.0131 -0.6960
H29 H 0.0397 -0.0236 -0.4827
H30 H 0.0525 -0.0797 -0.5564
H31 H 0.0985 -0.0678 -0.4576
H32 H 0.0692 -0.0777 -0.3557
H33 H 0.0506 -0.0073 -0.2421
H34 H 0.0835 -0.0264 -0.1726
N1 N 0.0976(1) 0.0822(2) -0.5360(7)
C27 C 0.1298(1) 0.0899(2) -0.5561(7)
C28 C 0.1438(2) 0.0877(3) -0.4287(3)
C29 C 0.1339(2) 0.1423(3) -0.6158(7)
C30 C 0.1408(2) 0.0466(1) -0.6383(8)
H35 H 0.1665 0.0968 -0.4404
H36 H 0.1414 0.0503 -0.3881
H37 H 0.13423 0.1166 -0.3674
H38 H 0.1558 0.1491 -0.6453
H39 H 0.1269 0.1730 -0.5558
H40 H 0.1197 0.1413 -0.6956
H41 H 0.1639 0.0493 -0.6580
H42 H 0.1286 0.0542 -0.7195
H43 H 0.1361 0.0082 -0.6048
H44 H 0.0883(15) 0.078(3) -0.607(7)
H45 H 0.0912(14) 0.110(3) -0.471(7)
H46 H 0.0960(14) 0.049(3) -0.492(6)
Cl1 Cl 0.52986(4) 0.39541(5) 0.0000
O4 O 0.5230(1) 0.4487(2) 0.0016(6)
O5 O 0.5513(1) 0.3865(2) -0.0885(7)
O6 O 0.5400(1) 0.3788(2) 0.1207(6)
O7 O 0.5047(1) 0.3661(2) -0.0295(6)
loop_
_geom_bond_atom_site_label_1
_geom_bond_atom_site_label_2
_geom_bond_site_symmetry_1
_geom_bond_site_symmetry_2
C1 O1 1_555 1_555
O1 C2 1_555 1_555
C2 C3 1_555 1_555
C3 O2 1_555 1_555
O2 C4 1_555 1_555
C4 C5 1_555 1_555
C5 O3 1_555 1_555
O3 C6 1_555 1_555
C6 C7 1_555 1_555
N1 C27 1_555 1_555
Cl1 O4 1_555 1_555
O5 Cl1 1_555 1_555
O6 Cl1 1_555 1_555
O7 Cl1 1_555 1_555
C7 C8 1_555 1_555
C8 C9 1_555 1_555
C9 C10 1_555 1_555
C10 H2 1_555 1_555
C11 C9 1_555 1_555
C12 C11 1_555 1_555
C13 C7 1_555 1_555
O8 C13 1_555 1_555
C14 O8 1_555 1_555
N2 C12 1_555 1_555
C15 N2 1_555 1_555
C16 C15 1_555 1_555
C17 C16 1_555 1_555
N3 C17 1_555 1_555
C18 N2 1_555 1_555
O9 C18 1_555 1_555
C19 N3 1_555 1_555
C20 C19 1_555 1_555
C21 C20 1_555 1_555
C22 C21 1_555 1_555
C23 C21 1_555 1_555
C24 C1 1_555 1_555
C25 C19 1_555 1_555
O10 C25 1_555 1_555
C26 O10 1_555 1_555
C27 C28 1_555 1_555
C28 H35 1_555 1_555
C29 C27 1_555 1_555
C30 C27 1_555 1_555
H1 C8 1_555 1_555
H3 C10 1_555 1_555
H4 C10 1_555 1_555
H5 C11 1_555 1_555
H6 C14 1_555 1_555
H7 C14 1_555 1_555
H8 C14 1_555 1_555
H9 C15 1_555 1_555
H10 C15 1_555 1_555
H11 C16 1_555 1_555
H12 C16 1_555 1_555
H13 C17 1_555 1_555
H14 C17 1_555 1_555
H15 C20 1_555 1_555
H16 C22 1_555 1_555
H17 C22 1_555 1_555
H18 C22 1_555 1_555
H19 C23 1_555 1_555
H20 C26 1_555 1_555
H21 C26 1_555 1_555
H22 C26 1_555 1_555
H23 C1 1_555 1_555
H24 C1 1_555 1_555
H25 C2 1_555 1_555
H26 C2 1_555 1_555
H27 C3 1_555 1_555
H28 C3 1_555 1_555
H29 C4 1_555 1_555
H30 C4 1_555 1_555
H31 C5 1_555 1_555
H32 C5 1_555 1_555
H33 C6 1_555 1_555
H34 C6 1_555 1_555
H36 C28 1_555 1_555
H37 C28 1_555 1_555
H38 C29 1_555 1_555
H39 C29 1_555 1_555
H40 C29 1_555 1_555
H41 C30 1_555 1_555
H42 C30 1_555 1_555
H43 C30 1_555 1_555
H44 N1 1_555 1_555
H45 N1 1_555 1_555
H46 N1 1_555 1_555
C12 C13 1_555 1_555
N3 C18 1_555 1_555
C23 C24 1_555 1_555
C24 C25 1_555 1_555

#END
