
#######################################################################
#
#                 Cambridge Crystallographic Data Centre
#                                CCDC 
#
#######################################################################
#
# If this CIF has been generated from an entry in the Cambridge 
# Structural Database, then it will include bibliographic, chemical, 
# crystal, experimental, refinement or atomic coordinate data resulting 
# from the CCDC's data processing and validation procedures.
#
#######################################################################

data_CAWTAY
_chemical_formula_moiety         'C17 H22 B1 N1 O1'
_chemical_name_systematic        
'[3-(dimethylamino)propan-1-olato](diphenyl)boron'
_symmetry_cell_setting           monoclinic
_symmetry_space_group_name_H-M   'P 21/c'
_symmetry_Int_Tables_number      14
_space_group_name_Hall           '-P 2ybc'
loop_
_symmetry_equiv_pos_site_id
_symmetry_equiv_pos_as_xyz
1 x,y,z
2 -x,1/2+y,1/2-z
3 -x,-y,-z
4 x,1/2-y,1/2+z
_cell_length_a                   9.1048(2)
_cell_length_b                   23.7982(6)
_cell_length_c                   7.2326(2)
_cell_angle_alpha                90
_cell_angle_beta                 112.1410(10)
_cell_angle_gamma                90
_cell_volume                     1451.58
_cell_formula_units_Z            4
loop_
_atom_site_label
_atom_site_type_symbol
_atom_site_fract_x
_atom_site_fract_y
_atom_site_fract_z
B1 B 0.66994(17) 0.10360(6) 0.8494(2)
C1 C 0.82346(14) 0.13617(5) 0.83252(18)
C2 C 0.86591(16) 0.19287(6) 0.8622(2)
H1 H 0.8076 0.2166 0.9108
C3 C 0.99200(17) 0.21522(6) 0.8220(2)
H2 H 1.0166 0.2532 0.8448
C4 C 1.08073(16) 0.18145(6) 0.7486(2)
H3 H 1.1651 0.1963 0.7218
C5 C 1.04232(16) 0.12522(6) 0.7155(2)
H4 H 1.1009 0.1019 0.6658
C6 C 0.91641(15) 0.10348(6) 0.75643(18)
H5 H 0.8924 0.0655 0.7324
C7 C 0.51155(14) 0.11406(5) 0.65061(19)
C8 C 0.46584(16) 0.16678(6) 0.5623(2)
H6 H 0.5300 0.1977 0.6173
C9 C 0.32788(17) 0.17457(6) 0.3952(2)
H7 H 0.3002 0.2104 0.3419
C10 C 0.23166(16) 0.12934(7) 0.3079(2)
H8 H 0.1385 0.1345 0.1970
C11 C 0.27582(16) 0.07631(6) 0.3876(2)
H9 H 0.2132 0.0454 0.3284
C12 C 0.41348(15) 0.06897(5) 0.55584(19)
H10 H 0.4413 0.0330 0.6070
C13 C 0.82298(16) 0.02565(6) 1.0537(2)
H11 H 0.9216 0.0412 1.0540
H12 H 0.8310 -0.0150 1.0528
C14 C 0.79962(18) 0.04402(6) 1.2418(2)
H13 H 0.8944 0.0355 1.3574
H14 H 0.7120 0.0233 1.2539
C15 C 0.76561(17) 0.10647(6) 1.2373(2)
H15 H 0.7423 0.1164 1.3534
H16 H 0.8593 0.1272 1.2442
C16 C 0.59847(18) 0.18398(6) 1.0706(2)
H17 H 0.5592 0.1891 1.1755
H18 H 0.5213 0.1974 0.9470
H19 H 0.6955 0.2046 1.1017
C17 C 0.48282(16) 0.09308(6) 1.0457(2)
H20 H 0.4764 0.0946 1.1750
H21 H 0.4878 0.0546 1.0087
H22 H 0.3908 0.1106 0.9494
N1 N 0.62834(13) 0.12336(4) 1.05165(16)
O1 O 0.69630(10) 0.04343(3) 0.87895(13)
loop_
_geom_bond_atom_site_label_1
_geom_bond_atom_site_label_2
_geom_bond_site_symmetry_1
_geom_bond_site_symmetry_2
B1 C1 1_555 1_555
C1 C2 1_555 1_555
C2 H1 1_555 1_555
C3 C2 1_555 1_555
H2 C3 1_555 1_555
C4 C3 1_555 1_555
H3 C4 1_555 1_555
C5 C4 1_555 1_555
H4 C5 1_555 1_555
C6 C1 1_555 1_555
H5 C6 1_555 1_555
C7 B1 1_555 1_555
C8 C7 1_555 1_555
H6 C8 1_555 1_555
C9 C8 1_555 1_555
H7 C9 1_555 1_555
C10 C9 1_555 1_555
H8 C10 1_555 1_555
C11 C10 1_555 1_555
H9 C11 1_555 1_555
C12 C7 1_555 1_555
H10 C12 1_555 1_555
C13 H11 1_555 1_555
H12 C13 1_555 1_555
C14 C13 1_555 1_555
H13 C14 1_555 1_555
H14 C14 1_555 1_555
C15 C14 1_555 1_555
H15 C15 1_555 1_555
H16 C15 1_555 1_555
C16 H17 1_555 1_555
H18 C16 1_555 1_555
H19 C16 1_555 1_555
C17 H20 1_555 1_555
H21 C17 1_555 1_555
H22 C17 1_555 1_555
N1 B1 1_555 1_555
O1 B1 1_555 1_555
C5 C6 1_555 1_555
C11 C12 1_555 1_555
C13 O1 1_555 1_555
C15 N1 1_555 1_555
C16 N1 1_555 1_555
C17 N1 1_555 1_555

#END
