
#######################################################################
#
#                 Cambridge Crystallographic Data Centre
#                                CCDC 
#
#######################################################################
#
# If this CIF has been generated from an entry in the Cambridge 
# Structural Database, then it will include bibliographic, chemical, 
# crystal, experimental, refinement or atomic coordinate data resulting 
# from the CCDC's data processing and validation procedures.
#
#######################################################################

data_CAWZAE
_chemical_formula_moiety         'C38 H30 Cl1 N1 O4 S1'
_chemical_name_systematic        
2-chloro-12-(4-methoxyphenyl)-7-[(4-methylphenyl)sulfonyl]-6a-phenyl-6a,6b,7,11b-tetrahydro-5H-[2]benzopyrano[4',3':4,5]cyclopenta[1,2-b]indole
_symmetry_cell_setting           orthorhombic
_symmetry_space_group_name_H-M   'P b c a'
_symmetry_Int_Tables_number      61
_space_group_name_Hall           '-P 2ac 2ab'
loop_
_symmetry_equiv_pos_site_id
_symmetry_equiv_pos_as_xyz
1 x,y,z
2 1/2-x,-y,1/2+z
3 -x,1/2+y,1/2-z
4 1/2+x,1/2-y,-z
5 -x,-y,-z
6 1/2+x,y,1/2-z
7 x,1/2-y,1/2+z
8 1/2-x,1/2+y,z
_cell_length_a                   11.9530(11)
_cell_length_b                   16.5209(14)
_cell_length_c                   31.646(3)
_cell_angle_alpha                90
_cell_angle_beta                 90
_cell_angle_gamma                90
_cell_volume                     6249.27
_exptl_crystal_colour            colorless
_exptl_crystal_description       block
_cell_formula_units_Z            8
loop_
_atom_site_label
_atom_site_type_symbol
_atom_site_fract_x
_atom_site_fract_y
_atom_site_fract_z
Cl1 Cl 0.43347(8) -0.01755(6) 0.16920(2)
S1 S 0.49434(7) 0.22377(4) 0.46546(2)
O1 O 0.31663(14) 0.10825(10) 0.36754(5)
O2 O 0.6130(2) 0.34303(13) 0.15210(7)
O3 O 0.3910(2) 0.18331(13) 0.47265(6)
O4 O 0.5831(2) 0.21654(14) 0.49525(6)
N1 N 0.54248(19) 0.19056(13) 0.41997(6)
C1 C 0.2706(2) 0.03950(17) 0.34640(8)
H1 H 0.1897 0.0443 0.3463
H2 H 0.2895 -0.0088 0.3623
C2 C 0.3103(2) 0.02901(15) 0.30164(8)
C3 C 0.2535(3) -0.02380(17) 0.27498(9)
H3 H 0.1900 -0.0502 0.2849
C4 C 0.2891(3) -0.03791(17) 0.23403(9)
H4 H 0.2505 -0.0733 0.2165
C5 C 0.3834(3) 0.00186(16) 0.21993(8)
C6 C 0.4408(2) 0.05555(15) 0.24516(7)
H5 H 0.5034 0.0823 0.2347
C7 C 0.4045(2) 0.06968(13) 0.28661(7)
C8 C 0.4594(2) 0.12710(13) 0.31560(7)
C9 C 0.5153(2) 0.19517(13) 0.30805(7)
C10 C 0.5415(2) 0.24042(13) 0.34862(7)
H6 H 0.5212 0.2977 0.3463
C11 C 0.4701(2) 0.19725(14) 0.38241(7)
H7 H 0.4034 0.2294 0.3890
C12 C 0.43582(19) 0.11435(13) 0.36227(7)
C13 C 0.4966(2) 0.04307(14) 0.38235(7)
C14 C 0.4588(3) 0.01325(17) 0.42085(8)
H8 H 0.3942 0.0346 0.4328
C15 C 0.5156(3) -0.04749(19) 0.44145(10)
H9 H 0.4891 -0.0671 0.4671
C16 C 0.6112(3) -0.0792(2) 0.42425(11)
H10 H 0.6496 -0.1202 0.4382
C17 C 0.6504(3) -0.05016(19) 0.38617(11)
H11 H 0.7150 -0.0719 0.3744
C18 C 0.5936(2) 0.01142(16) 0.36540(8)
H12 H 0.6210 0.0314 0.3400
C19 C 0.6587(2) 0.23043(14) 0.36540(8)
C20 C 0.7606(3) 0.2416(2) 0.34586(10)
H13 H 0.7642 0.2599 0.3181
C21 C 0.8569(3) 0.2250(3) 0.36817(14)
H14 H 0.9261 0.2321 0.3553
C22 C 0.8521(3) 0.1982(3) 0.40926(15)
H15 H 0.9182 0.1889 0.4240
C23 C 0.7515(3) 0.1850(2) 0.42894(11)
H16 H 0.7482 0.1650 0.4564
C24 C 0.6549(2) 0.20258(15) 0.40657(8)
C25 C 0.5474(2) 0.23189(13) 0.26691(7)
C26 C 0.6364(2) 0.20463(15) 0.24300(8)
H17 H 0.6797 0.1619 0.2529
C27 C 0.6623(2) 0.24028(16) 0.20422(9)
H18 H 0.7218 0.2210 0.1882
C28 C 0.5986(3) 0.30463(16) 0.18993(8)
C29 C 0.5123(3) 0.33386(17) 0.21401(8)
H19 H 0.4707 0.3779 0.2046
C30 C 0.4872(2) 0.29814(15) 0.25201(8)
H20 H 0.4287 0.3186 0.2682
C31 C 0.6809(4) 0.3079(3) 0.12221(13)
H21 H 0.6729 0.3362 0.0959
H22 H 0.6599 0.2523 0.1185
H23 H 0.7574 0.3108 0.1314
C32 C 0.4634(3) 0.32767(16) 0.45787(7)
C33 C 0.3563(3) 0.35421(19) 0.46385(9)
H24 H 0.2999 0.3177 0.4707
C34 C 0.3322(3) 0.4360(2) 0.45972(10)
H25 H 0.2595 0.4538 0.4646
C35 C 0.4128(3) 0.49133(19) 0.44865(9)
C36 C 0.5200(3) 0.46318(19) 0.44200(9)
H26 H 0.5756 0.4994 0.4340
C37 C 0.5466(3) 0.38208(19) 0.44699(9)
H27 H 0.6198 0.3644 0.4431
C38 C 0.3861(4) 0.5803(2) 0.44405(13)
H28 H 0.4355 0.6113 0.4617
H29 H 0.3101 0.5899 0.4525
H30 H 0.3958 0.5962 0.4151
loop_
_geom_bond_atom_site_label_1
_geom_bond_atom_site_label_2
_geom_bond_site_symmetry_1
_geom_bond_site_symmetry_2
Cl1 C5 1_555 1_555
S1 O3 1_555 1_555
O1 C1 1_555 1_555
O2 C28 1_555 1_555
O4 S1 1_555 1_555
N1 S1 1_555 1_555
C1 H1 1_555 1_555
H2 C1 1_555 1_555
C2 C1 1_555 1_555
C3 C2 1_555 1_555
H3 C3 1_555 1_555
C4 C3 1_555 1_555
H4 C4 1_555 1_555
C5 C4 1_555 1_555
C6 C5 1_555 1_555
H5 C6 1_555 1_555
C7 C2 1_555 1_555
C8 C7 1_555 1_555
C9 C8 1_555 1_555
C10 C9 1_555 1_555
H6 C10 1_555 1_555
C11 N1 1_555 1_555
H7 C11 1_555 1_555
C12 O1 1_555 1_555
C13 C12 1_555 1_555
C14 C13 1_555 1_555
H8 C14 1_555 1_555
C15 C14 1_555 1_555
H9 C15 1_555 1_555
C16 C15 1_555 1_555
H10 C16 1_555 1_555
C17 C16 1_555 1_555
H11 C17 1_555 1_555
C18 C13 1_555 1_555
H12 C18 1_555 1_555
C19 C10 1_555 1_555
C20 C19 1_555 1_555
H13 C20 1_555 1_555
C21 C20 1_555 1_555
H14 C21 1_555 1_555
C22 C21 1_555 1_555
H15 C22 1_555 1_555
C23 C22 1_555 1_555
H16 C23 1_555 1_555
C24 N1 1_555 1_555
C25 C9 1_555 1_555
C26 C25 1_555 1_555
H17 C26 1_555 1_555
C27 C26 1_555 1_555
H18 C27 1_555 1_555
C28 C27 1_555 1_555
C29 C28 1_555 1_555
H19 C29 1_555 1_555
C30 C25 1_555 1_555
H20 C30 1_555 1_555
C31 O2 1_555 1_555
H21 C31 1_555 1_555
H22 C31 1_555 1_555
H23 C31 1_555 1_555
C32 S1 1_555 1_555
C33 C32 1_555 1_555
H24 C33 1_555 1_555
C34 C33 1_555 1_555
H25 C34 1_555 1_555
C35 C34 1_555 1_555
C36 C35 1_555 1_555
H26 C36 1_555 1_555
C37 C32 1_555 1_555
H27 C37 1_555 1_555
C38 C35 1_555 1_555
H28 C38 1_555 1_555
H29 C38 1_555 1_555
H30 C38 1_555 1_555
C6 C7 1_555 1_555
C8 C12 1_555 1_555
C10 C11 1_555 1_555
C11 C12 1_555 1_555
C17 C18 1_555 1_555
C19 C24 1_555 1_555
C23 C24 1_555 1_555
C29 C30 1_555 1_555
C36 C37 1_555 1_555

#END
