
#######################################################################
#
#                 Cambridge Crystallographic Data Centre
#                                CCDC 
#
#######################################################################
#
# If this CIF has been generated from an entry in the Cambridge 
# Structural Database, then it will include bibliographic, chemical, 
# crystal, experimental, refinement or atomic coordinate data resulting 
# from the CCDC's data processing and validation procedures.
#
#######################################################################

data_CAXQUO01
_chemical_formula_moiety         'C9 H4 F2 O3'
_chemical_name_systematic        8,8-difluoro-8-hydro-2H-chromen-2,7-dione
_symmetry_cell_setting           monoclinic
_symmetry_space_group_name_H-M   'P 21/m'
_symmetry_Int_Tables_number      11
_space_group_name_Hall           '-P 2yb'
loop_
_symmetry_equiv_pos_site_id
_symmetry_equiv_pos_as_xyz
1 x,y,z
2 -x,1/2+y,-z
3 -x,-y,-z
4 x,1/2-y,z
_cell_length_a                   7.013(2)
_cell_length_b                   6.343(3)
_cell_length_c                   8.738(3)
_cell_angle_alpha                90
_cell_angle_beta                 96.74(1)
_cell_angle_gamma                90
_cell_volume                     386.01
_exptl_crystal_colour            yellow
_exptl_crystal_description       prism
_chemical_melting_point          '407 K'
_cell_formula_units_Z            2
_exptl_crystal_recrystallization_method dichloromethane
loop_
_atom_site_label
_atom_site_type_symbol
_atom_site_fract_x
_atom_site_fract_y
_atom_site_fract_z
O1 O 0.46102(16) 0.2500 0.39895(14)
O2 O 0.66286(18) 0.2500 0.61440(15)
O3 O 0.0538(2) 0.2500 -0.07623(15)
F1 F 0.36735(11) 0.07821(15) 0.10626(9)
C1 C 0.4963(2) 0.2500 0.5609(2)
C2 C 0.3270(2) 0.2500 0.6422(2)
H1 H 0.351(3) 0.2500 0.756(2)
C3 C 0.1476(2) 0.2500 0.5651(2)
H2 H 0.033(3) 0.2500 0.620(3)
C4 C -0.0702(2) 0.2500 0.3086(2)
H3 H -0.178(3) 0.2500 0.365(2)
C5 C -0.0970(2) 0.2500 0.1537(2)
H4 H -0.2252 0.2500 0.1014
C6 C 0.0662(3) 0.2500 0.0639(2)
C7 C 0.2721(2) 0.2500 0.1528(2)
C8 C 0.2799(2) 0.2500 0.32505(19)
C9 C 0.1206(2) 0.2500 0.39859(19)
F1C F 0.36735(11) 0.42179(15) 0.10626(9)
F2? F -0.251(3) 0.2500 0.078(2)
loop_
_geom_bond_atom_site_label_1
_geom_bond_atom_site_label_2
_geom_bond_site_symmetry_1
_geom_bond_site_symmetry_2
O1 C1 1_555 1_555
O2 C1 1_555 1_555
O3 C6 1_555 1_555
F1 C7 1_555 1_555
C1 C2 1_555 1_555
C2 H1 1_555 1_555
C3 C2 1_555 1_555
H2 C3 1_555 1_555
C4 H3 1_555 1_555
C5 C4 1_555 1_555
H4 C5 1_555 1_555
C6 C5 1_555 1_555
C7 C6 1_555 1_555
C8 O1 1_555 1_555
C9 C3 1_555 1_555
F1C C7 1_555 1_555
C4 C9 1_555 1_555
C7 C8 1_555 1_555
C8 C9 1_555 1_555

#END
