
#######################################################################
#
#                 Cambridge Crystallographic Data Centre
#                                CCDC 
#
#######################################################################
#
# If this CIF has been generated from an entry in the Cambridge 
# Structural Database, then it will include bibliographic, chemical, 
# crystal, experimental, refinement or atomic coordinate data resulting 
# from the CCDC's data processing and validation procedures.
#
#######################################################################

data_CAYWIL
_chemical_formula_moiety         'C28 H41 N1 O1 P1 1+,Cl1 O4 1-'
_chemical_name_systematic        
'tributyl[(2-hydroxyphenyl)(1-methyl-1H-indol-3-yl)methyl]phosphanium perchlorate'
_symmetry_cell_setting           monoclinic
_symmetry_space_group_name_H-M   'P 21/c'
_symmetry_Int_Tables_number      14
_space_group_name_Hall           '-P 2ybc'
loop_
_symmetry_equiv_pos_site_id
_symmetry_equiv_pos_as_xyz
1 x,y,z
2 -x,1/2+y,1/2-z
3 -x,-y,-z
4 x,1/2-y,1/2+z
_cell_length_a                   16.038(9)
_cell_length_b                   9.889(6)
_cell_length_c                   19.301(9)
_cell_angle_alpha                90
_cell_angle_beta                 113.787(16)
_cell_angle_gamma                90
_cell_volume                     2801.09
_exptl_crystal_colour            colorless
_exptl_crystal_description       prism
_cell_formula_units_Z            4
loop_
_atom_site_label
_atom_site_type_symbol
_atom_site_fract_x
_atom_site_fract_y
_atom_site_fract_z
C1 C 0.6927(7) 0.3561(11) 0.1072(6)
H1 H 0.6889 0.2646 0.0852
H2 H 0.7117 0.3445 0.1624
C2 C 0.5972(6) 0.4161(12) 0.0752(6)
H3 H 0.6003 0.5116 0.0913
H4 H 0.5724 0.4142 0.0192
C3 C 0.5338(8) 0.3393(17) 0.1015(10)
H5 H 0.5550 0.3524 0.1568
H6 H 0.4724 0.3803 0.0773
C4 C 0.5251(10) 0.1951(18) 0.0862(10)
H7 H 0.4839 0.1557 0.1068
H8 H 0.5852 0.1523 0.1101
H9 H 0.5005 0.1799 0.0314
C5 C 0.7384(7) 0.5156(11) -0.0019(5)
H10 H 0.6901 0.5824 -0.0074
H11 H 0.7884 0.5641 -0.0089
C6 C 0.6990(7) 0.4075(12) -0.0647(7)
H12 H 0.7475 0.3419 -0.0603
H13 H 0.6498 0.3577 -0.0573
C7 C 0.6616(8) 0.4684(12) -0.1435(7)
H14 H 0.6210 0.5449 -0.1453
H15 H 0.7127 0.5046 -0.1542
C8 C 0.6106(8) 0.3701(14) -0.2025(7)
H16 H 0.5879 0.4143 -0.2522
H17 H 0.5590 0.3353 -0.1929
H18 H 0.6508 0.2950 -0.2019
C9 C 0.8718(6) 0.3285(10) 0.1061(6)
H19 H 0.9030 0.3095 0.1610
H20 H 0.8440 0.2427 0.0810
C10 C 0.9436(6) 0.3689(11) 0.0778(6)
H21 H 0.9596 0.4651 0.0904
H22 H 0.9177 0.3601 0.0219
C11 C 1.0295(7) 0.2842(11) 0.1113(7)
H23 H 1.0525 0.2865 0.1672
H24 H 1.0146 0.1891 0.0949
C12 C 1.1031(7) 0.3334(12) 0.0877(7)
H25 H 1.1569 0.2753 0.1102
H26 H 1.1194 0.4266 0.1052
H27 H 1.0808 0.3304 0.0324
C13 C 0.8259(7) 0.5788(10) 0.1663(6)
H28 H 0.8536 0.5279 0.2151
C14 C 0.7505(6) 0.6586(11) 0.1730(7)
C15 C 0.7022(7) 0.7582(11) 0.1200(7)
H29 H 0.7185 0.7772 0.0788
C16 C 0.6314(7) 0.8292(12) 0.1267(7)
H30 H 0.6004 0.8978 0.0912
C17 C 0.6063(8) 0.7995(13) 0.1853(8)
H31 H 0.5572 0.8470 0.1898
C18 C 0.6517(8) 0.7017(13) 0.2371(7)
H32 H 0.6338 0.6821 0.2772
C19 C 0.7236(7) 0.6311(12) 0.2317(7)
C20 C 0.9042(7) 0.6514(11) 0.1596(6)
C21 C 0.9036(7) 0.7476(11) 0.1088(6)
H33 H 0.8499 0.7856 0.0714
C22 C 1.0172(7) 0.8867(11) 0.0761(6)
H34 H 1.0838 0.8899 0.0950
H35 H 0.9943 0.9751 0.0832
H36 H 0.9914 0.8638 0.0221
C23 C 1.0511(7) 0.7056(11) 0.1772(6)
C24 C 1.1433(7) 0.6998(12) 0.2037(6)
H37 H 1.1764 0.7573 0.1845
C25 C 1.1865(7) 0.6067(12) 0.2597(7)
H38 H 1.2509 0.5982 0.2794
C26 C 1.1365(7) 0.5252(11) 0.2876(6)
H39 H 1.1683 0.4621 0.3264
C27 C 1.0448(7) 0.5316(11) 0.2619(6)
H40 H 1.0127 0.4751 0.2827
C28 C 0.9977(7) 0.6239(11) 0.2037(7)
N1 N 0.9903(6) 0.7827(9) 0.1183(5)
O1 O 0.7691(5) 0.5313(8) 0.2804(4)
H41 H 0.7467 0.5207 0.3126
P1 P 0.78125(17) 0.4465(3) 0.09279(17)
O2 O 0.6856(9) 0.0497(10) 0.8744(6)
O3 O 0.8111(8) 0.0513(11) 0.9834(9)
O4 O 0.6723(8) 0.0627(10) 0.9883(7)
O5 O 0.7175(5) -0.1396(8) 0.9518(5)
Cl1 Cl 0.7192(2) 0.0060(3) 0.9498(2)
loop_
_geom_bond_atom_site_label_1
_geom_bond_atom_site_label_2
_geom_bond_site_symmetry_1
_geom_bond_site_symmetry_2
C1 H1 1_555 1_555
H2 C1 1_555 1_555
C2 C1 1_555 1_555
H3 C2 1_555 1_555
H4 C2 1_555 1_555
C3 C2 1_555 1_555
H5 C3 1_555 1_555
H6 C3 1_555 1_555
C4 C3 1_555 1_555
H7 C4 1_555 1_555
H8 C4 1_555 1_555
H9 C4 1_555 1_555
C5 H10 1_555 1_555
H11 C5 1_555 1_555
C6 C5 1_555 1_555
H12 C6 1_555 1_555
H13 C6 1_555 1_555
C7 C6 1_555 1_555
H14 C7 1_555 1_555
H15 C7 1_555 1_555
C8 C7 1_555 1_555
H16 C8 1_555 1_555
H17 C8 1_555 1_555
H18 C8 1_555 1_555
C9 H19 1_555 1_555
H20 C9 1_555 1_555
C10 C9 1_555 1_555
H21 C10 1_555 1_555
H22 C10 1_555 1_555
C11 C10 1_555 1_555
H23 C11 1_555 1_555
H24 C11 1_555 1_555
C12 C11 1_555 1_555
H25 C12 1_555 1_555
H26 C12 1_555 1_555
H27 C12 1_555 1_555
C13 H28 1_555 1_555
C14 C13 1_555 1_555
C15 C14 1_555 1_555
H29 C15 1_555 1_555
C16 C15 1_555 1_555
H30 C16 1_555 1_555
C17 C16 1_555 1_555
H31 C17 1_555 1_555
C18 C17 1_555 1_555
H32 C18 1_555 1_555
C19 C14 1_555 1_555
C20 C13 1_555 1_555
C21 C20 1_555 1_555
H33 C21 1_555 1_555
C22 H34 1_555 1_555
H35 C22 1_555 1_555
H36 C22 1_555 1_555
C23 C24 1_555 1_555
C24 H37 1_555 1_555
C25 C24 1_555 1_555
H38 C25 1_555 1_555
C26 C25 1_555 1_555
H39 C26 1_555 1_555
C27 C26 1_555 1_555
H40 C27 1_555 1_555
C28 C20 1_555 1_555
N1 C21 1_555 1_555
O1 C19 1_555 1_555
H41 O1 1_555 1_555
P1 C1 1_555 1_555
O2 Cl1 1_555 1_555
O3 Cl1 1_555 1_555
O4 Cl1 1_555 1_555
O5 Cl1 1_555 1_555
C5 P1 1_555 1_555
C9 P1 1_555 1_555
C13 P1 1_555 1_555
C18 C19 1_555 1_555
C22 N1 1_555 1_555
C23 C28 1_555 1_555
C23 N1 1_555 1_555
C27 C28 1_555 1_555

#END
