
#######################################################################
#
#                 Cambridge Crystallographic Data Centre
#                                CCDC 
#
#######################################################################
#
# If this CIF has been generated from an entry in the Cambridge 
# Structural Database, then it will include bibliographic, chemical, 
# crystal, experimental, refinement or atomic coordinate data resulting 
# from the CCDC's data processing and validation procedures.
#
#######################################################################

data_CBMZPN29
_chemical_name_common            carbamazepine
_chemical_formula_moiety         'C15 H12 N2 O1'
_chemical_name_systematic        5H-dibenzo[b,f]azepine-5-carboxamide
_chemical_properties_biological  
'analgesic, antiepileptic, anticonvulsant, bipolar disorder treatment, trigeminal neuralgia treatment, known auditory pitch lowering effect'
_symmetry_cell_setting           monoclinic
_symmetry_space_group_name_H-M   'P 21/n'
_symmetry_Int_Tables_number      14
_space_group_name_Hall           '-P 2yn'
loop_
_symmetry_equiv_pos_site_id
_symmetry_equiv_pos_as_xyz
1 x,y,z
2 1/2-x,1/2+y,1/2-z
3 -x,-y,-z
4 1/2+x,1/2-y,1/2+z
_cell_length_a                   7.576(12)
_cell_length_b                   11.188(2)
_cell_length_c                   13.967(13)
_cell_angle_alpha                90
_cell_angle_beta                 87.03(6)
_cell_angle_gamma                90
_cell_volume                     1182.26
_cell_formula_units_Z            4
loop_
_atom_site_label
_atom_site_type_symbol
_atom_site_fract_x
_atom_site_fract_y
_atom_site_fract_z
C1 C 0.349(2) 0.6884(13) 0.4993(14)
N1 N 0.207(2) 0.7360(11) 0.5618(12)
O1 O -0.012(2) 0.8758(12) 0.5918(13)
N2 N 0.176(3) 0.9006(14) 0.4602(14)
H1 H 0.1198 0.9629 0.4425
H2 H 0.2670 0.8757 0.4267
C2 C 0.306(3) 0.6406(17) 0.4073(17)
H3 H 0.1893 0.6358 0.3893
C3 C 0.446(3) 0.6025(18) 0.3475(18)
H4 H 0.4215 0.5666 0.2896
C4 C 0.617(3) 0.6154(14) 0.3700(15)
H5 H 0.7098 0.5960 0.3264
C5 C 0.650(3) 0.6602(17) 0.4636(16)
H6 H 0.7662 0.6617 0.4824
C6 C 0.521(2) 0.7004(14) 0.5259(15)
C7 C 0.571(3) 0.7414(15) 0.6190(15)
H7 H 0.6782 0.7817 0.6215
C8 C 0.476(2) 0.7264(16) 0.7021(16)
H8 H 0.5304 0.7528 0.7565
C9 C 0.302(2) 0.6750(15) 0.7190(14)
C10 C 0.259(3) 0.6151(16) 0.8048(16)
H9 H 0.3421 0.6168 0.8514
C11 C 0.108(3) 0.5551(17) 0.8264(15)
H10 H 0.0867 0.5158 0.8846
C12 C -0.016(3) 0.5562(16) 0.7547(14)
H11 H -0.1210 0.5146 0.7669
C13 C 0.006(2) 0.6140(14) 0.6680(13)
H12 H -0.0814 0.6142 0.6237
C14 C 0.172(2) 0.6736(12) 0.6498(13)
C15 C 0.120(2) 0.8403(12) 0.5430(13)
loop_
_geom_bond_atom_site_label_1
_geom_bond_atom_site_label_2
_geom_bond_site_symmetry_1
_geom_bond_site_symmetry_2
C1 N1 1_555 1_555
N1 C14 1_555 1_555
O1 C15 1_555 1_555
N2 H1 1_555 1_555
H2 N2 1_555 1_555
C2 C1 1_555 1_555
H3 C2 1_555 1_555
C3 C2 1_555 1_555
H4 C3 1_555 1_555
C4 C3 1_555 1_555
H5 C4 1_555 1_555
C5 C4 1_555 1_555
H6 C5 1_555 1_555
C6 C1 1_555 1_555
C7 C6 1_555 1_555
H7 C7 1_555 1_555
C8 C7 1_555 1_555
H8 C8 1_555 1_555
C9 C8 1_555 1_555
C10 C9 1_555 1_555
H9 C10 1_555 1_555
C11 C10 1_555 1_555
H10 C11 1_555 1_555
C12 C11 1_555 1_555
H11 C12 1_555 1_555
C13 C12 1_555 1_555
H12 C13 1_555 1_555
C14 C9 1_555 1_555
C15 N1 1_555 1_555
N2 C15 1_555 1_555
C5 C6 1_555 1_555
C13 C14 1_555 1_555

#END
