
#######################################################################
#
#                 Cambridge Crystallographic Data Centre
#                                CCDC 
#
#######################################################################
#
# If this CIF has been generated from an entry in the Cambridge 
# Structural Database, then it will include bibliographic, chemical, 
# crystal, experimental, refinement or atomic coordinate data resulting 
# from the CCDC's data processing and validation procedures.
#
#######################################################################

data_CBOHAZ05
_chemical_name_common            carbonohydrazide
_chemical_formula_moiety         'C1 H6 N4 O1'
_chemical_name_systematic        N,N'-diaminourea
_symmetry_cell_setting           monoclinic
_symmetry_space_group_name_H-M   'P 21/n'
_symmetry_Int_Tables_number      14
_space_group_name_Hall           '-P 2yn'
loop_
_symmetry_equiv_pos_site_id
_symmetry_equiv_pos_as_xyz
1 x,y,z
2 1/2-x,1/2+y,1/2-z
3 -x,-y,-z
4 1/2+x,1/2-y,1/2+z
_cell_length_a                   3.725(1)
_cell_length_b                   8.834(2)
_cell_length_c                   11.957(3)
_cell_angle_alpha                90
_cell_angle_beta                 91.97(1)
_cell_angle_gamma                90
_cell_volume                     393.232
_exptl_crystal_colour            colorless
_cell_formula_units_Z            4
loop_
_atom_site_label
_atom_site_type_symbol
_atom_site_fract_x
_atom_site_fract_y
_atom_site_fract_z
O1 O 0.7060(3) 0.08697(11) 0.64196(8)
N1 N 0.5051(4) 0.31845(14) 0.68801(10)
N2 N 0.3912(4) 0.46493(14) 0.65541(10)
N3 N 0.6373(4) 0.26563(14) 0.50662(10)
N4 N 0.7927(4) 0.17614(14) 0.42339(10)
C1 C 0.6205(3) 0.21757(14) 0.61330(10)
H1 H 0.453(5) 0.285(2) 0.7523(18)
H2 H 0.484(5) 0.529(2) 0.7077(17)
H3 H 0.594(4) 0.355(2) 0.4897(15)
H4 H 0.997(6) 0.139(2) 0.4485(18)
H5 H 0.640(5) 0.096(2) 0.4115(15)
H6 H 0.149(6) 0.472(2) 0.6663(16)
loop_
_geom_bond_atom_site_label_1
_geom_bond_atom_site_label_2
_geom_bond_site_symmetry_1
_geom_bond_site_symmetry_2
O1 C1 1_555 1_555
N1 N2 1_555 1_555
N2 H2 1_555 1_555
N3 N4 1_555 1_555
N4 H4 1_555 1_555
C1 N1 1_555 1_555
H1 N1 1_555 1_555
H3 N3 1_555 1_555
H5 N4 1_555 1_555
H6 N2 1_555 1_555
N3 C1 1_555 1_555

#END
