
#######################################################################
#
#                 Cambridge Crystallographic Data Centre
#                                CCDC 
#
#######################################################################
#
# If this CIF has been generated from an entry in the Cambridge 
# Structural Database, then it will include bibliographic, chemical, 
# crystal, experimental, refinement or atomic coordinate data resulting 
# from the CCDC's data processing and validation procedures.
#
#######################################################################

data_CEBKEZ03
_chemical_formula_moiety         'C15 H16 N2 O1'
_chemical_name_systematic        
2-((4-(dimethylamino)phenyl)carbonoimidoyl)phenol
_symmetry_cell_setting           orthorhombic
_symmetry_space_group_name_H-M   'P b c a'
_symmetry_Int_Tables_number      61
_space_group_name_Hall           '-P 2ac 2ab'
loop_
_symmetry_equiv_pos_site_id
_symmetry_equiv_pos_as_xyz
1 x,y,z
2 1/2-x,-y,1/2+z
3 -x,1/2+y,1/2-z
4 1/2+x,1/2-y,-z
5 -x,-y,-z
6 1/2+x,y,1/2-z
7 x,1/2-y,1/2+z
8 1/2-x,1/2+y,z
_cell_length_a                   11.278(2)
_cell_length_b                   8.2043(16)
_cell_length_c                   27.475(6)
_cell_angle_alpha                90
_cell_angle_beta                 90
_cell_angle_gamma                90
_cell_volume                     2542.21
_exptl_crystal_description       Prism
_cell_formula_units_Z            8
loop_
_atom_site_label
_atom_site_type_symbol
_atom_site_fract_x
_atom_site_fract_y
_atom_site_fract_z
N1 N 0.4007(3) 0.0862(4) 0.57415(11)
O1 O 0.5227(3) 0.0933(4) 0.65282(10)
C1 C 0.3447(4) -0.0636(5) 0.64475(13)
C2 C 0.3932(4) 0.2625(5) 0.42890(13)
C3 C 0.3096(4) 0.0846(5) 0.49128(14)
H1 H 0.2534 0.0071 0.5001
C4 C 0.3930(3) 0.1376(5) 0.52518(12)
C5 C 0.4772(4) 0.2496(5) 0.51005(13)
H2 H 0.5348 0.2839 0.5320
C6 C 0.4566(4) -0.0637(5) 0.71994(14)
H3 H 0.5217 -0.0294 0.7380
C7 C 0.4782(4) 0.3122(5) 0.46313(13)
H4 H 0.5358 0.3878 0.4543
C8 C 0.3291(4) -0.0143(5) 0.59445(13)
H5 H 0.2660 -0.0563 0.5766
C9 C 0.4424(4) -0.0105(5) 0.67252(14)
N2 N 0.3928(3) 0.3251(5) 0.38260(11)
C10 C 0.3104(4) 0.1470(6) 0.44472(14)
H6 H 0.2533 0.1108 0.4228
C11 C 0.3747(5) -0.1673(6) 0.74034(15)
H7 H 0.3853 -0.2031 0.7722
C12 C 0.2637(4) -0.1664(6) 0.66703(15)
H8 H 0.1979 -0.2010 0.6494
C13 C 0.2767(4) -0.2193(6) 0.71420(15)
H9 H 0.2210 -0.2883 0.7283
C14 C 0.4807(4) 0.4424(6) 0.36712(15)
H10 H 0.4749 0.5384 0.3869
H11 H 0.4671 0.4707 0.3337
H12 H 0.5584 0.3959 0.3704
C15 C 0.3048(4) 0.2712(7) 0.34764(14)
H13 H 0.3251 0.1643 0.3362
H14 H 0.3028 0.3456 0.3207
H15 H 0.2283 0.2681 0.3629
H16 H 0.5054 0.1651 0.6226
loop_
_geom_bond_atom_site_label_1
_geom_bond_atom_site_label_2
_geom_bond_site_symmetry_1
_geom_bond_site_symmetry_2
N1 C4 1_555 1_555
O1 C9 1_555 1_555
C1 C8 1_555 1_555
C2 C7 1_555 1_555
C3 H1 1_555 1_555
C4 C3 1_555 1_555
C5 C4 1_555 1_555
H2 C5 1_555 1_555
C6 H3 1_555 1_555
C7 C5 1_555 1_555
H4 C7 1_555 1_555
C8 N1 1_555 1_555
H5 C8 1_555 1_555
C9 C1 1_555 1_555
N2 C2 1_555 1_555
C10 C2 1_555 1_555
H6 C10 1_555 1_555
C11 C6 1_555 1_555
H7 C11 1_555 1_555
C12 C1 1_555 1_555
H8 C12 1_555 1_555
C13 C11 1_555 1_555
H9 C13 1_555 1_555
C14 N2 1_555 1_555
H10 C14 1_555 1_555
H11 C14 1_555 1_555
H12 C14 1_555 1_555
C15 N2 1_555 1_555
H13 C15 1_555 1_555
H14 C15 1_555 1_555
H15 C15 1_555 1_555
H16 O1 1_555 1_555
C3 C10 1_555 1_555
C6 C9 1_555 1_555
C12 C13 1_555 1_555

#END
