
#######################################################################
#
#                 Cambridge Crystallographic Data Centre
#                                CCDC 
#
#######################################################################
#
# If this CIF has been generated from an entry in the Cambridge 
# Structural Database, then it will include bibliographic, chemical, 
# crystal, experimental, refinement or atomic coordinate data resulting 
# from the CCDC's data processing and validation procedures.
#
#######################################################################

data_CEBPAA10
_chemical_formula_moiety         'C32 H18 O3,C6 H5 N1 O2'
_chemical_name_systematic        
"spiro(7H-Dibenzo(c,h)xanthen-7,3'(2'H)-naphtho(1,2-b)furan)-2'-one nitrobenzene solvate"
_symmetry_cell_setting           triclinic
_symmetry_space_group_name_H-M   'P -1'
_symmetry_Int_Tables_number      2
_space_group_name_Hall           '-P 1'
loop_
_symmetry_equiv_pos_site_id
_symmetry_equiv_pos_as_xyz
1 x,y,z
2 -x,-y,-z
_cell_length_a                   11.296(1)
_cell_length_b                   13.050(2)
_cell_length_c                   11.138(1)
_cell_angle_alpha                113.43(1)
_cell_angle_beta                 94.18(1)
_cell_angle_gamma                107.95(1)
_cell_volume                     1396.79
_chemical_melting_point          312deg.C
_cell_formula_units_Z            2
loop_
_atom_site_label
_atom_site_type_symbol
_atom_site_fract_x
_atom_site_fract_y
_atom_site_fract_z
O1 O 0.0144(2) 0.1413(2) 0.0764(2)
C1 C 0.0527(3) 0.1768(2) -0.0205(3)
C2 C 0.1854(3) 0.2058(3) -0.0169(3)
C3 C 0.2696(3) 0.2000(3) 0.0789(3)
C4 C 0.3971(3) 0.2325(3) 0.0801(4)
C5 C 0.4458(3) 0.2712(4) -0.0140(4)
C6 C 0.3663(3) 0.2755(3) -0.1088(4)
C7 C 0.2336(3) 0.2430(3) -0.1130(3)
C8 C 0.1485(3) 0.2487(3) -0.2083(3)
C9 C 0.0222(3) 0.2224(3) -0.2049(3)
C10 C -0.0280(3) 0.1855(3) -0.1098(3)
C11 C -0.1687(3) 0.1572(3) -0.1085(3)
C12 C -0.1987(3) 0.1309(3) 0.0101(3)
C13 C -0.3225(3) 0.1115(3) 0.0354(4)
C14 C -0.3529(3) 0.0841(3) 0.1380(4)
C15 C -0.2608(3) 0.0747(3) 0.2223(3)
C16 C -0.2895(4) 0.0458(4) 0.3300(4)
C17 C -0.1975(4) 0.0403(4) 0.4106(4)
C18 C -0.0719(4) 0.0642(4) 0.3900(4)
C19 C -0.0416(3) 0.0902(3) 0.2859(3)
C20 C -0.1357(3) 0.0963(3) 0.2009(3)
C21 C -0.1089(3) 0.1232(3) 0.0912(3)
O2 O -0.2516(3) -0.0541(2) -0.2830(3)
C22 C -0.2513(3) 0.0449(3) -0.2399(3)
O3 O -0.3321(2) 0.0746(2) -0.3080(2)
C23 C -0.3060(3) 0.1982(3) -0.2351(3)
C24 C -0.3649(3) 0.2592(3) -0.2825(3)
C25 C -0.4561(3) 0.2056(3) -0.4049(3)
C26 C -0.5025(4) 0.2751(4) -0.4443(4)
C27 C -0.4611(4) 0.4000(4) -0.3624(4)
C28 C -0.3755(3) 0.4542(3) -0.2418(4)
C29 C -0.3240(3) 0.3850(3) -0.1982(3)
C30 C -0.2311(3) 0.4396(3) -0.0757(3)
C31 C -0.1767(3) 0.3742(3) -0.0364(3)
C32 C -0.2157(3) 0.2507(3) -0.1197(3)
H1 H 0.236(3) 0.172(3) 0.147(4)
H2 H 0.457(4) 0.228(3) 0.153(4)
H3 H 0.547(4) 0.298(4) -0.012(4)
H4 H 0.403(4) 0.304(4) -0.181(4)
H5 H 0.182(4) 0.273(3) -0.282(4)
H6 H -0.043(4) 0.228(3) -0.271(4)
H7 H -0.390(3) 0.120(3) -0.028(4)
H8 H -0.448(4) 0.070(3) 0.158(4)
H9 H -0.385(4) 0.029(4) 0.346(4)
H10 H -0.221(4) 0.018(4) 0.490(4)
H11 H 0.003(4) 0.066(4) 0.455(4)
H12 H 0.051(4) 0.104(3) 0.270(4)
H13 H -0.513(4) 0.115(3) -0.463(4)
H14 H -0.569(4) 0.233(3) -0.537(4)
H15 H -0.497(4) 0.454(3) -0.394(4)
H16 H -0.345(4) 0.551(3) -0.177(4)
H17 H -0.203(4) 0.535(3) -0.014(4)
H18 H -0.106(4) 0.413(3) 0.050(4)
O4 O 0.0701(4) 0.6083(4) 0.3463(4)
O5 O 0.0414(4) 0.4230(3) 0.2186(3)
N1 N 0.0802(3) 0.5145(4) 0.3267(4)
C33 C 0.1460(3) 0.5069(4) 0.4415(4)
C34 C 0.1601(4) 0.4006(4) 0.4176(4)
C35 C 0.2195(5) 0.3928(4) 0.5265(5)
C36 C 0.2603(5) 0.4875(5) 0.6504(5)
C37 C 0.2459(5) 0.5919(4) 0.6703(5)
C38 C 0.1868(4) 0.6047(4) 0.5645(4)
H19 H 0.126(4) 0.325(4) 0.319(4)
H20 H 0.231(4) 0.311(4) 0.513(4)
H21 H 0.303(4) 0.482(4) 0.737(4)
H22 H 0.277(4) 0.669(4) 0.772(4)
H23 H 0.173(4) 0.688(4) 0.578(4)
loop_
_geom_bond_atom_site_label_1
_geom_bond_atom_site_label_2
_geom_bond_site_symmetry_1
_geom_bond_site_symmetry_2
O1 C1 1_555 1_555
C1 C2 1_555 1_555
C2 C3 1_555 1_555
C3 C4 1_555 1_555
C4 C5 1_555 1_555
C5 C6 1_555 1_555
C6 C7 1_555 1_555
C7 C2 1_555 1_555
C8 C7 1_555 1_555
C9 C8 1_555 1_555
C10 C1 1_555 1_555
C11 C10 1_555 1_555
C12 C11 1_555 1_555
C13 C12 1_555 1_555
C14 C13 1_555 1_555
C15 C14 1_555 1_555
C16 C15 1_555 1_555
C17 C16 1_555 1_555
C18 C17 1_555 1_555
C19 C18 1_555 1_555
C20 C15 1_555 1_555
C21 O1 1_555 1_555
O2 C22 1_555 1_555
C22 C11 1_555 1_555
O3 C22 1_555 1_555
C23 O3 1_555 1_555
C24 C23 1_555 1_555
C25 C24 1_555 1_555
C26 C25 1_555 1_555
C27 C26 1_555 1_555
C28 C27 1_555 1_555
C29 C24 1_555 1_555
C30 C29 1_555 1_555
C31 C30 1_555 1_555
C32 C11 1_555 1_555
H1 C3 1_555 1_555
H2 C4 1_555 1_555
H3 C5 1_555 1_555
H4 C6 1_555 1_555
H5 C8 1_555 1_555
H6 C9 1_555 1_555
H7 C13 1_555 1_555
H8 C14 1_555 1_555
H9 C16 1_555 1_555
H10 C17 1_555 1_555
H11 C18 1_555 1_555
H12 C19 1_555 1_555
H13 C25 1_555 1_555
H14 C26 1_555 1_555
H15 C27 1_555 1_555
H16 C28 1_555 1_555
H17 C30 1_555 1_555
H18 C31 1_555 1_555
O4 N1 1_555 1_555
O5 N1 1_555 1_555
N1 C33 1_555 1_555
C33 C34 1_555 1_555
C34 C35 1_555 1_555
C35 C36 1_555 1_555
C36 C37 1_555 1_555
C37 C38 1_555 1_555
C38 C33 1_555 1_555
H19 C34 1_555 1_555
H20 C35 1_555 1_555
H21 C36 1_555 1_555
H22 C37 1_555 1_555
H23 C38 1_555 1_555
C9 C10 1_555 1_555
C12 C21 1_555 1_555
C19 C20 1_555 1_555
C20 C21 1_555 1_555
C23 C32 1_555 1_555
C28 C29 1_555 1_555
C31 C32 1_555 1_555

#END
