
#######################################################################
#
#                 Cambridge Crystallographic Data Centre
#                                CCDC 
#
#######################################################################
#
# If this CIF has been generated from an entry in the Cambridge 
# Structural Database, then it will include bibliographic, chemical, 
# crystal, experimental, refinement or atomic coordinate data resulting 
# from the CCDC's data processing and validation procedures.
#
#######################################################################

data_CEBVAI
_chemical_formula_moiety         'C20 H22 O5 S1'
_chemical_name_systematic        
6-(Benzyloxy)-2-(hydroxymethyl)-4-((4-methylphenyl)sulfinyl)-3,6-dihydro-2H-pyran-3-ol
_symmetry_cell_setting           orthorhombic
_symmetry_space_group_name_H-M   'P 21 21 21'
_symmetry_Int_Tables_number      19
_space_group_name_Hall           'P 2ac 2ab'
loop_
_symmetry_equiv_pos_site_id
_symmetry_equiv_pos_as_xyz
1 x,y,z
2 1/2-x,-y,1/2+z
3 1/2+x,1/2-y,-z
4 -x,1/2+y,1/2-z
_cell_length_a                   5.0222(3)
_cell_length_b                   8.2704(6)
_cell_length_c                   42.961(3)
_cell_angle_alpha                90
_cell_angle_beta                 90
_cell_angle_gamma                90
_cell_volume                     1784.41
_exptl_crystal_colour            colorless
_exptl_crystal_description       block
_cell_formula_units_Z            4
loop_
_atom_site_label
_atom_site_type_symbol
_atom_site_fract_x
_atom_site_fract_y
_atom_site_fract_z
S1 S 1.0907(2) 0.70630(16) 0.15502(3)
O1 O 0.6288(7) 0.5415(5) 0.06072(7)
O2 O 0.4549(6) 0.4189(4) 0.10542(8)
O3 O 0.9686(7) 0.3623(5) 0.16468(8)
H1 H 1.0882 0.3331 0.1530
O4 O 0.3622(7) 0.1615(5) 0.14575(9)
H2 H 0.3004 0.0698 0.1466
O5 O 1.1090(8) 0.8664(5) 0.13895(8)
C1 C 0.7625(8) 0.4332(6) 0.14716(10)
H3 H 0.6081 0.4459 0.1609
C2 C 0.7365(10) 0.6586(7) 0.10887(10)
H4 H 0.7952 0.7586 0.1017
C3 C 0.6748(9) 0.3336(6) 0.11914(11)
H5 H 0.8212 0.3304 0.1041
C4 C 0.9175(8) 0.7368(6) 0.19054(10)
C5 C 0.6642(10) 0.7888(7) 0.24724(11)
C6 C 1.0031(10) 0.6590(8) 0.21717(12)
H6 H 1.1472 0.5886 0.2161
C7 C 0.8358(9) 0.5977(6) 0.13509(11)
C8 C 0.5838(10) 0.1629(6) 0.12536(11)
H7 H 0.5355 0.1115 0.1059
H8 H 0.7286 0.1018 0.1345
C9 C 0.5289(10) 0.5663(7) 0.09068(10)
H9 H 0.3697 0.6343 0.0890
C10 C 0.4346(12) 0.4730(8) 0.04052(11)
H10 H 0.2653 0.5270 0.0437
H11 H 0.4116 0.3595 0.0455
C11 C 0.5149(11) 0.4893(7) 0.00735(12)
C12 C 0.5820(12) 0.8661(7) 0.22054(12)
H12 H 0.4396 0.9377 0.2218
C13 C 0.7009(12) 0.8420(7) 0.19232(12)
H13 H 0.6386 0.8948 0.1746
C14 C 0.8798(10) 0.6836(8) 0.24503(12)
H14 H 0.9402 0.6297 0.2627
C15 C 0.7223(13) 0.5896(8) -0.00213(13)
H15 H 0.8184 0.6493 0.0124
C16 C 0.5194(13) 0.8143(9) 0.27793(12)
H16 H 0.6362 0.7878 0.2949
H17 H 0.3651 0.7458 0.2787
H18 H 0.4654 0.9253 0.2796
C17 C 0.7828(15) 0.5989(10) -0.03351(14)
H19 H 0.9251 0.6630 -0.0398
C18 C 0.3766(14) 0.4038(11) -0.01464(15)
H20 H 0.2390 0.3358 -0.0084
C19 C 0.6417(17) 0.5180(11) -0.05522(16)
H21 H 0.6813 0.5303 -0.0762
C20 C 0.4376(17) 0.4165(12) -0.04595(16)
H22 H 0.3423 0.3574 -0.0606
loop_
_geom_bond_atom_site_label_1
_geom_bond_atom_site_label_2
_geom_bond_site_symmetry_1
_geom_bond_site_symmetry_2
S1 O5 1_555 1_555
O1 C9 1_555 1_555
O2 C3 1_555 1_555
O3 H1 1_555 1_555
O4 H2 1_555 1_555
C1 O3 1_555 1_555
H3 C1 1_555 1_555
C2 H4 1_555 1_555
C3 C1 1_555 1_555
H5 C3 1_555 1_555
C4 S1 1_555 1_555
C5 C12 1_555 1_555
C6 C4 1_555 1_555
H6 C6 1_555 1_555
C7 S1 1_555 1_555
C8 O4 1_555 1_555
H7 C8 1_555 1_555
H8 C8 1_555 1_555
C9 O2 1_555 1_555
H9 C9 1_555 1_555
C10 O1 1_555 1_555
H10 C10 1_555 1_555
H11 C10 1_555 1_555
C11 C10 1_555 1_555
C12 H12 1_555 1_555
C13 C4 1_555 1_555
H13 C13 1_555 1_555
C14 C5 1_555 1_555
H14 C14 1_555 1_555
C15 C11 1_555 1_555
H15 C15 1_555 1_555
C16 C5 1_555 1_555
H16 C16 1_555 1_555
H17 C16 1_555 1_555
H18 C16 1_555 1_555
C17 C15 1_555 1_555
H19 C17 1_555 1_555
C18 C11 1_555 1_555
H20 C18 1_555 1_555
C19 C17 1_555 1_555
H21 C19 1_555 1_555
C20 C18 1_555 1_555
H22 C20 1_555 1_555
C1 C7 1_555 1_555
C2 C7 1_555 1_555
C2 C9 1_555 1_555
C3 C8 1_555 1_555
C6 C14 1_555 1_555
C12 C13 1_555 1_555
C19 C20 1_555 1_555

#END
