
#######################################################################
#
#                 Cambridge Crystallographic Data Centre
#                                CCDC 
#
#######################################################################
#
# If this CIF has been generated from an entry in the Cambridge 
# Structural Database, then it will include bibliographic, chemical, 
# crystal, experimental, refinement or atomic coordinate data resulting 
# from the CCDC's data processing and validation procedures.
#
#######################################################################

data_CECLUT
_chemical_formula_moiety         'C26 H22 N4'
_chemical_name_systematic        
2-Amino-5-isopropyl-4,7-diphenyl-5,6-dihydroquinoline-3,8-dicarbonitrile
_symmetry_cell_setting           triclinic
_symmetry_space_group_name_H-M   'P -1'
_symmetry_Int_Tables_number      2
_space_group_name_Hall           '-P 1'
loop_
_symmetry_equiv_pos_site_id
_symmetry_equiv_pos_as_xyz
1 x,y,z
2 -x,-y,-z
_cell_length_a                   8.4068(8)
_cell_length_b                   11.5024(11)
_cell_length_c                   12.7902(12)
_cell_angle_alpha                73.3320(10)
_cell_angle_beta                 74.5650(10)
_cell_angle_gamma                79.293(2)
_cell_volume                     1134.04
_exptl_crystal_colour            'pale yellow'
_exptl_crystal_description       block
_cell_formula_units_Z            2
loop_
_atom_site_label
_atom_site_type_symbol
_atom_site_fract_x
_atom_site_fract_y
_atom_site_fract_z
N1 N 0.1978(8) 0.4670(6) 0.5960(5)
N2 N 0.1919(8) 0.4041(5) 0.4352(5)
H1 H 0.1055 0.4564 0.4276
H2 H 0.2317 0.3593 0.3886
N3 N 0.5332(10) 0.1861(8) 0.3780(7)
N4 N -0.0852(10) 0.6720(6) 0.7337(6)
C1 C 0.2691(10) 0.3919(7) 0.5252(7)
C2 C 0.4177(10) 0.3081(7) 0.5344(7)
C3 C 0.4890(9) 0.2928(7) 0.6265(7)
C4 C 0.4148(9) 0.3656(7) 0.7059(6)
C5 C 0.2709(10) 0.4494(7) 0.6839(7)
C6 C 0.2012(9) 0.5390(7) 0.7584(7)
C7 C 0.2795(10) 0.5478(7) 0.8365(7)
C8 C 0.4475(8) 0.4711(6) 0.8455(6)
H3 H 0.4644 0.4596 0.9201
H4 H 0.5355 0.5153 0.7924
C9 C 0.4596(9) 0.3432(7) 0.8219(7)
H5 H 0.5753 0.3058 0.8154
C10 C 0.4869(10) 0.2381(8) 0.4493(8)
C11 C 0.6409(11) 0.1995(8) 0.6377(6)
C12 C 0.7945(12) 0.2444(8) 0.6325(6)
H6 H 0.7958 0.3271 0.6249
C13 C 0.9431(11) 0.1619(9) 0.6390(7)
H7 H 1.0401 0.1899 0.6388
C14 C 0.9415(14) 0.0385(10) 0.6456(8)
H8 H 1.0396 -0.0146 0.6460
C15 C 0.7875(16) -0.0085(9) 0.6519(8)
H9 H 0.7848 -0.0913 0.6605
C16 C 0.6449(11) 0.0754(8) 0.6444(7)
H10 H 0.5482 0.0475 0.6438
C17 C 0.0410(12) 0.6141(7) 0.7425(6)
C18 C 0.2114(9) 0.6366(7) 0.9100(7)
C19 C 0.1728(9) 0.7593(8) 0.8695(7)
H11 H 0.1810 0.7891 0.7928
C20 C 0.1206(10) 0.8449(8) 0.9371(10)
H12 H 0.1032 0.9286 0.9061
C21 C 0.0963(10) 0.7930(10) 1.0576(9)
H13 H 0.0561 0.8441 1.1059
C22 C 0.1318(9) 0.6695(9) 1.1011(7)
H14 H 0.1177 0.6385 1.1781
C23 C 0.1904(9) 0.5880(7) 1.0288(8)
H15 H 0.2144 0.5046 1.0586
C24 C 0.3476(10) 0.2562(7) 0.9218(6)
H16 H 0.2329 0.2960 0.9328
C25 C 0.3507(10) 0.1307(7) 0.8950(7)
H17 H 0.4608 0.0876 0.8899
H18 H 0.3194 0.1452 0.8250
H19 H 0.2740 0.0826 0.9536
C26 C 0.4051(10) 0.2276(7) 1.0346(6)
H20 H 0.3405 0.1686 1.0907
H21 H 0.3895 0.3014 1.0589
H22 H 0.5205 0.1955 1.0232
loop_
_geom_bond_atom_site_label_1
_geom_bond_atom_site_label_2
_geom_bond_site_symmetry_1
_geom_bond_site_symmetry_2
N1 C1 1_555 1_555
N2 H1 1_555 1_555
H2 N2 1_555 1_555
N3 C10 1_555 1_555
N4 C17 1_555 1_555
C1 N2 1_555 1_555
C2 C1 1_555 1_555
C3 C2 1_555 1_555
C4 C3 1_555 1_555
C5 N1 1_555 1_555
C6 C5 1_555 1_555
C7 C6 1_555 1_555
C8 C7 1_555 1_555
H3 C8 1_555 1_555
H4 C8 1_555 1_555
C9 C4 1_555 1_555
H5 C9 1_555 1_555
C10 C2 1_555 1_555
C11 C3 1_555 1_555
C12 C11 1_555 1_555
H6 C12 1_555 1_555
C13 C12 1_555 1_555
H7 C13 1_555 1_555
C14 C13 1_555 1_555
H8 C14 1_555 1_555
C15 C14 1_555 1_555
H9 C15 1_555 1_555
C16 C11 1_555 1_555
H10 C16 1_555 1_555
C17 C6 1_555 1_555
C18 C7 1_555 1_555
C19 C18 1_555 1_555
H11 C19 1_555 1_555
C20 C19 1_555 1_555
H12 C20 1_555 1_555
C21 C20 1_555 1_555
H13 C21 1_555 1_555
C22 C21 1_555 1_555
H14 C22 1_555 1_555
C23 C18 1_555 1_555
H15 C23 1_555 1_555
C24 C9 1_555 1_555
H16 C24 1_555 1_555
C25 C24 1_555 1_555
H17 C25 1_555 1_555
H18 C25 1_555 1_555
H19 C25 1_555 1_555
C26 C24 1_555 1_555
H20 C26 1_555 1_555
H21 C26 1_555 1_555
H22 C26 1_555 1_555
C4 C5 1_555 1_555
C8 C9 1_555 1_555
C15 C16 1_555 1_555
C22 C23 1_555 1_555

#END
