
#######################################################################
#
#                 Cambridge Crystallographic Data Centre
#                                CCDC 
#
#######################################################################
#
# If this CIF has been generated from an entry in the Cambridge 
# Structural Database, then it will include bibliographic, chemical, 
# crystal, experimental, refinement or atomic coordinate data resulting 
# from the CCDC's data processing and validation procedures.
#
#######################################################################

data_CECRUZ
_chemical_formula_moiety         'C14 H9 Cl2 N3'
_chemical_name_systematic        1,4-Bis(4-chlorophenyl)-1H-1,2,3-triazole
_symmetry_cell_setting           monoclinic
_symmetry_space_group_name_H-M   'C 2/c'
_symmetry_Int_Tables_number      15
_space_group_name_Hall           '-C 2yn'
loop_
_symmetry_equiv_pos_site_id
_symmetry_equiv_pos_as_xyz
1 x,y,z
2 -x,y,1/2-z
3 1/2+x,1/2+y,z
4 1/2-x,1/2+y,1/2-z
5 -x,-y,-z
6 x,-y,1/2+z
7 1/2-x,1/2-y,-z
8 1/2+x,1/2-y,1/2+z
_cell_length_a                   30.701(5)
_cell_length_b                   5.6709(9)
_cell_length_c                   7.3915(12)
_cell_angle_alpha                90
_cell_angle_beta                 98.819(5)
_cell_angle_gamma                90
_cell_volume                     1271.66
_exptl_crystal_colour            colorless
_exptl_crystal_description       prismatic
_cell_formula_units_Z            4
loop_
_atom_site_label
_atom_site_type_symbol
_atom_site_fract_x
_atom_site_fract_y
_atom_site_fract_z
Cl1 Cl 0.214311(17) 0.12522(11) 0.67659(8)
N1 N 0.02049(5) 0.5922(2) 0.2901(2)
C1 C 0.0000 0.2190(4) 0.2500
H1 H 0.0000 0.0550 0.2500
C2 C 0.07788(5) 0.3066(3) 0.4030(2)
C3 C 0.08615(6) 0.0925(3) 0.4930(2)
H2 H 0.0632 -0.0134 0.4977
C4 C 0.12829(6) 0.0366(3) 0.5756(2)
H3 H 0.1339 -0.1067 0.6358
C5 C 0.16203(6) 0.1962(3) 0.5678(2)
C6 C 0.15452(6) 0.4083(3) 0.4777(3)
H4 H 0.1776 0.5130 0.4722
C7 C 0.11221(6) 0.4636(3) 0.3954(2)
H5 H 0.1068 0.6067 0.3346
C8 C 0.03403(5) 0.3641(2) 0.3168(2)
Cl1A Cl -0.214311(17) 0.12522(11) -0.17659(8)
N1A N -0.02049(5) 0.5922(2) 0.2099(2)
C2A C -0.07788(5) 0.3066(3) 0.0970(2)
C3A C -0.08615(6) 0.0925(3) 0.0070(2)
H2A H -0.0632 -0.0134 0.0023
C4A C -0.12829(6) 0.0366(3) -0.0756(2)
H3A H -0.1339 -0.1067 -0.1358
C5A C -0.16203(6) 0.1962(3) -0.0678(2)
C6A C -0.15452(6) 0.4083(3) 0.0223(3)
H4A H -0.1776 0.5130 0.0278
C7A C -0.11221(6) 0.4636(3) 0.1046(2)
H5A H -0.1068 0.6067 0.1654
C8A C -0.03403(5) 0.3641(2) 0.1832(2)
N2? N 0.03403(5) 0.3641(2) 0.3168(2)
loop_
_geom_bond_atom_site_label_1
_geom_bond_atom_site_label_2
_geom_bond_site_symmetry_1
_geom_bond_site_symmetry_2
Cl1 C5 1_555 1_555
N1 C8 1_555 1_555
C1 H1 1_555 1_555
C2 C3 1_555 1_555
C3 H2 1_555 1_555
C4 C3 1_555 1_555
H3 C4 1_555 1_555
C5 C4 1_555 1_555
C6 C5 1_555 1_555
H4 C6 1_555 1_555
C7 C2 1_555 1_555
H5 C7 1_555 1_555
C8 C1 1_555 1_555
Cl1A C5A 1_555 1_555
N1A N1 1_555 1_555
C2A C3A 1_555 1_555
C3A H2A 1_555 1_555
C4A C3A 1_555 1_555
H3A C4A 1_555 1_555
C5A C4A 1_555 1_555
C6A C5A 1_555 1_555
H4A C6A 1_555 1_555
C7A C2A 1_555 1_555
H5A C7A 1_555 1_555
C8A C1 1_555 1_555
C2 C8 1_555 1_555
C6 C7 1_555 1_555
N1A C8A 1_555 1_555
C2A C8A 1_555 1_555
C6A C7A 1_555 1_555

#END
