
#######################################################################
#
#                 Cambridge Crystallographic Data Centre
#                                CCDC 
#
#######################################################################
#
# If this CIF has been generated from an entry in the Cambridge 
# Structural Database, then it will include bibliographic, chemical, 
# crystal, experimental, refinement or atomic coordinate data resulting 
# from the CCDC's data processing and validation procedures.
#
#######################################################################

data_CECXAL
_chemical_formula_moiety         'C4 H6 N4 S1,0.5(H2 O1)'
_chemical_name_systematic        
'4,6-Diaminopyrimidine-2(1H)-thione hemihydrate'
_symmetry_cell_setting           orthorhombic
_symmetry_space_group_name_H-M   'C m c a'
_symmetry_Int_Tables_number      64
_space_group_name_Hall           '-C 2ac 2'
loop_
_symmetry_equiv_pos_site_id
_symmetry_equiv_pos_as_xyz
1 x,y,z
2 -x,1/2-y,1/2+z
3 x,-y,-z
4 -x,1/2+y,1/2-z
5 1/2+x,1/2+y,z
6 1/2-x,-y,1/2+z
7 1/2+x,1/2-y,-z
8 1/2-x,y,1/2-z
9 -x,-y,-z
10 x,1/2+y,1/2-z
11 -x,y,z
12 x,1/2-y,1/2+z
13 1/2-x,1/2-y,-z
14 1/2+x,y,1/2-z
15 1/2-x,1/2+y,z
16 1/2+x,-y,1/2+z
_cell_length_a                   9.7274(19)
_cell_length_b                   13.259(3)
_cell_length_c                   19.982(4)
_cell_angle_alpha                90
_cell_angle_beta                 90
_cell_angle_gamma                90
_cell_volume                     2577.19
_exptl_crystal_colour            brown
_exptl_crystal_description       block
_cell_formula_units_Z            16
loop_
_atom_site_label
_atom_site_type_symbol
_atom_site_fract_x
_atom_site_fract_y
_atom_site_fract_z
N1 N 0.1197(2) 0.43195(13) 0.59257(10)
C1 C 0.0000 0.4538(2) 0.62198(17)
C2 C 0.1210(3) 0.38681(16) 0.53110(12)
C3 C 0.0000 0.3631(2) 0.50014(18)
H1 H 0.0000 0.3314 0.4586
S1 S 0.0000 0.51191(7) 0.69803(5)
N2 N 0.2434(2) 0.36958(15) 0.50452(12)
H2 H 0.3264 0.3745 0.5282
H3 H 0.2507 0.3391 0.4667
N1J N -0.1197(2) 0.43195(13) 0.59257(10)
C2J C -0.1210(3) 0.38681(16) 0.53110(12)
N2J N -0.2434(2) 0.36958(15) 0.50452(12)
H2J H -0.3264 0.3745 0.5282
H3J H -0.2507 0.3391 0.4667
N3 N 0.3805(2) 0.53044(13) 0.63819(10)
C4 C 0.5000 0.4817(2) 0.63050(17)
C5 C 0.3791(3) 0.62980(16) 0.65421(12)
C6 C 0.5000 0.6812(2) 0.66219(16)
H4 H 0.5000 0.7495 0.6728
S2 S 0.5000 0.35701(6) 0.61298(6)
N4 N 0.2551(2) 0.67278(14) 0.65822(11)
H5 H 0.1736 0.6303 0.6671
H6 H 0.2484 0.7339 0.6816
N3J N 0.6195(2) 0.53044(13) 0.63819(10)
C5J C 0.6209(3) 0.62980(16) 0.65421(12)
N4J N 0.7449(2) 0.67278(14) 0.65822(11)
H5J H 0.8264 0.6303 0.6671
H6J H 0.7516 0.7339 0.6816
O1 O 0.2500 0.85123(19) 0.7500
H7 H 0.185(3) 0.8869(19) 0.7454(17)
H7G H 0.315(3) 0.8869(19) 0.7546(17)
H8? H 0.1958 0.4463 0.6123
H9? H 0.3042 0.4986 0.6330
loop_
_geom_bond_atom_site_label_1
_geom_bond_atom_site_label_2
_geom_bond_site_symmetry_1
_geom_bond_site_symmetry_2
N1 C1 1_555 1_555
C1 S1 1_555 1_555
C2 N1 1_555 1_555
C3 C2 1_555 1_555
H1 C3 1_555 1_555
N2 C2 1_555 1_555
H2 N2 1_555 1_555
H3 N2 1_555 1_555
N3 C4 1_555 1_555
C4 S2 1_555 1_555
C5 N3 1_555 1_555
C6 C5 1_555 1_555
H4 C6 1_555 1_555
N4 C5 1_555 1_555
H5 N4 1_555 1_555
H6 N4 1_555 1_555
O1 H7 1_555 1_555
N1J C1 1_555 1_555
C2J C3 1_555 1_555
N2J C2J 1_555 1_555
H2J N2J 1_555 1_555
H3J N2J 1_555 1_555
N3J C4 1_555 1_555
C5J C6 1_555 1_555
N4J C5J 1_555 1_555
H5J N4J 1_555 1_555
H6J N4J 1_555 1_555
H7G O1 1_555 1_555
N1J C2J 1_555 1_555
N3J C5J 1_555 1_555

#END
