
#######################################################################
#
#                 Cambridge Crystallographic Data Centre
#                                CCDC 
#
#######################################################################
#
# If this CIF has been generated from an entry in the Cambridge 
# Structural Database, then it will include bibliographic, chemical, 
# crystal, experimental, refinement or atomic coordinate data resulting 
# from the CCDC's data processing and validation procedures.
#
#######################################################################

data_CEDPIM
_chemical_formula_moiety         'C8 H11 N3 O4,H2 O1'
_chemical_name_systematic        
'2-(4-Ethoxycarbonyl-5-methyl-1H-1,2,3-triazol-1-yl)acetic acid monohydrate'
_symmetry_cell_setting           monoclinic
_symmetry_space_group_name_H-M   'C 2/c'
_symmetry_Int_Tables_number      15
_space_group_name_Hall           '-C 2yn'
loop_
_symmetry_equiv_pos_site_id
_symmetry_equiv_pos_as_xyz
1 x,y,z
2 -x,y,1/2-z
3 1/2+x,1/2+y,z
4 1/2-x,1/2+y,1/2-z
5 -x,-y,-z
6 x,-y,1/2+z
7 1/2-x,1/2-y,-z
8 1/2+x,1/2-y,1/2+z
_cell_length_a                   18.6082(15)
_cell_length_b                   8.2295(15)
_cell_length_c                   14.986(2)
_cell_angle_alpha                90
_cell_angle_beta                 92.050(5)
_cell_angle_gamma                90
_cell_volume                     2293.43
_exptl_crystal_colour            colorless
_exptl_crystal_description       prism
_cell_formula_units_Z            8
_exptl_crystal_recrystallization_method '95% ethanol/water'
loop_
_atom_site_label
_atom_site_type_symbol
_atom_site_fract_x
_atom_site_fract_y
_atom_site_fract_z
C1 C 0.81442(14) -0.2524(3) 0.37722(19)
C2 C 0.87508(14) -0.2098(3) 0.44180(18)
H1 H 0.8554 -0.1835 0.4991
H2 H 0.9059 -0.3041 0.4502
C3 C 0.90266(14) 0.0868(3) 0.41202(18)
C4 C 0.83230(16) 0.1554(4) 0.4359(3)
H3 H 0.7981 0.1402 0.3871
H4 H 0.8376 0.2694 0.4481
H5 H 0.8156 0.1012 0.4880
C5 C 0.96537(13) 0.1568(3) 0.38496(18)
C6 C 0.98182(15) 0.3313(3) 0.3765(2)
N1 N 0.91816(11) -0.0742(2) 0.41279(14)
N2 N 0.98618(12) -0.1025(3) 0.38793(17)
N3 N 1.01479(11) 0.0386(2) 0.37055(17)
O1 O 0.77303(11) -0.3646(2) 0.41090(13)
H6 H 0.7401 -0.3861 0.3750
O2 O 0.80534(12) -0.1933(3) 0.30435(15)
O3 O 0.93857(12) 0.4367(2) 0.38956(19)
O4 O 1.04841(10) 0.3565(2) 0.35401(16)
C7 C 1.07274(18) 0.5254(4) 0.3491(3)
H9 H 1.0559 0.5733 0.2931
H10 H 1.0531 0.5877 0.3975
C8 C 1.1478(2) 0.5300(5) 0.3554(4)
H11 H 1.1645 0.4680 0.4063
H12 H 1.1635 0.6406 0.3620
H13 H 1.1669 0.4846 0.3022
O5 O 0.66222(12) 0.5429(3) 0.31857(17)
H7 H 0.6157 0.5328 0.3366
H8 H 0.6724 0.4673 0.2751
loop_
_geom_bond_atom_site_label_1
_geom_bond_atom_site_label_2
_geom_bond_site_symmetry_1
_geom_bond_site_symmetry_2
C1 C2 1_555 1_555
C2 H1 1_555 1_555
H2 C2 1_555 1_555
C3 C4 1_555 1_555
C4 H3 1_555 1_555
H4 C4 1_555 1_555
H5 C4 1_555 1_555
C5 C3 1_555 1_555
C6 C5 1_555 1_555
N1 C2 1_555 1_555
N2 N1 1_555 1_555
N3 C5 1_555 1_555
O1 C1 1_555 1_555
H6 O1 1_555 1_555
O2 C1 1_555 1_555
O3 C6 1_555 1_555
O4 C6 1_555 1_555
O5 H7 1_555 1_555
H8 O5 1_555 1_555
C7 O4 1_555 1_555
H9 C7 1_555 1_555
H10 C7 1_555 1_555
C8 C7 1_555 1_555
H11 C8 1_555 1_555
H12 C8 1_555 1_555
H13 C8 1_555 1_555
C3 N1 1_555 1_555
N2 N3 1_555 1_555

#END
