
#######################################################################
#
#                 Cambridge Crystallographic Data Centre
#                                CCDC 
#
#######################################################################
#
# If this CIF has been generated from an entry in the Cambridge 
# Structural Database, then it will include bibliographic, chemical, 
# crystal, experimental, refinement or atomic coordinate data resulting 
# from the CCDC's data processing and validation procedures.
#
#######################################################################

data_CEDRIP
_chemical_formula_moiety         'C27 H33 Br1 O3'
_chemical_name_systematic        '3-oxorosa-5(10),15-dien-19-yl 4-bromobenzoate'
_symmetry_cell_setting           monoclinic
_symmetry_space_group_name_H-M   'P 21'
_symmetry_Int_Tables_number      4
_space_group_name_Hall           'P 2yb'
loop_
_symmetry_equiv_pos_site_id
_symmetry_equiv_pos_as_xyz
1 x,y,z
2 -x,1/2+y,-z
_cell_length_a                   5.86059(7)
_cell_length_b                   12.67519(17)
_cell_length_c                   15.73654(19)
_cell_angle_alpha                90
_cell_angle_beta                 94.4504(11)
_cell_angle_gamma                90
_cell_volume                     1165.45
_exptl_crystal_colour            colorless
_exptl_crystal_description       block
_cell_formula_units_Z            2
loop_
_atom_site_label
_atom_site_type_symbol
_atom_site_fract_x
_atom_site_fract_y
_atom_site_fract_z
Br1 Br -0.41999(4) -0.732505(16) -0.966363(13)
O1 O -0.7318(2) -0.25780(10) -0.81246(9)
O2 O -1.0572(3) -0.29133(13) -0.89316(11)
O3 O -0.3466(3) -0.17369(16) -0.66066(12)
C1 C -0.4321(3) -0.53644(18) -0.87953(14)
C2 C -0.5552(4) -0.60360(17) -0.93486(13)
C3 C -0.9164(4) 0.18680(18) -0.81257(14)
C4 C -0.8823(3) 0.16933(16) -0.65284(13)
C5 C -0.7724(3) 0.06130(16) -0.66462(13)
C6 C -0.7290(3) 0.02392(16) -0.74186(13)
C7 C -0.8721(4) -0.48573(17) -0.94526(14)
C8 C -0.8760(4) 0.33850(17) -0.56251(14)
C9 C -0.5299(3) -0.44185(17) -0.85707(14)
C10 C -0.5873(3) 0.43682(18) -0.64284(14)
C11 C -0.7758(4) -0.58030(18) -0.96895(13)
C12 C -0.8655(3) -0.31725(16) -0.86597(13)
C13 C -0.4337(4) -0.08213(18) -0.81715(14)
C14 C -0.8415(3) 0.41049(17) -0.64011(14)
C15 C -0.6260(3) -0.08573(16) -0.75617(13)
C16 C -0.7526(3) -0.41721(16) -0.88917(13)
C17 C -1.1405(3) 0.14964(18) -0.64447(15)
C18 C -0.8234(3) -0.15542(17) -0.79390(14)
C19 C -0.6889(4) -0.12007(18) -0.59972(14)
C20 C -0.8369(3) 0.24060(15) -0.72917(12)
C21 C -0.7744(4) 0.08789(18) -0.82286(14)
C22 C -0.9315(3) 0.35188(17) -0.72174(13)
C23 C -0.9824(4) 0.50935(18) -0.63301(15)
C24 C -0.7810(4) 0.22618(17) -0.57139(13)
C25 C -0.5341(4) -0.13304(17) -0.67088(14)
C26 C -0.7189(4) -0.00182(17) -0.58378(13)
C27 C -0.9165(5) 0.6083(2) -0.63545(19)
H1 H -0.8575(4) -0.62747(18) -1.00710(13)
H2 H -1.0221(4) -0.46762(17) -0.96778(14)
H3 H -0.4460(3) -0.39407(17) -0.82009(14)
H4 H -0.2822(3) -0.55481(18) -0.85711(14)
H5 H -1.0803(4) 0.16788(18) -0.81246(14)
H6 H -0.8983(4) 0.23540(18) -0.86084(14)
H7 H -0.8001(4) 0.37145(17) -0.51073(14)
H8 H -1.0416(4) 0.33392(17) -0.55460(14)
H9 H -0.5331(8) 0.4737(13) -0.5904(5)
H10 H -0.5000(5) 0.3715(2) -0.6478(12)
H11 H -0.5661(5) 0.4821(12) -0.6921(7)
H12 H -0.4977(7) -0.0619(15) -0.8742(3)
H13 H -0.3183(17) -0.0303(11) -0.7965(7)
H14 H -0.363(2) -0.1519(4) -0.8197(10)
H15 H -1.2046(8) 0.1094(14) -0.6939(6)
H16 H -1.1601(4) 0.1097(13) -0.5922(7)
H17 H -1.2201(6) 0.21743(18) -0.6420(13)
H18 H -0.8948(3) -0.12305(17) -0.84671(14)
H19 H -0.9417(3) -0.16242(17) -0.75265(14)
H20 H -0.8393(4) -0.15305(18) -0.61557(14)
H21 H -0.6207(4) -0.15480(18) -0.54740(14)
H22 H -0.6670(3) 0.24785(15) -0.72894(12)
H23 H -0.8545(4) 0.04251(18) -0.86685(14)
H24 H -0.6259(4) 0.10856(18) -0.84382(14)
H25 H -1.1004(3) 0.34801(17) -0.72330(13)
H26 H -0.8918(3) 0.39336(17) -0.77182(13)
H27 H -1.1402(4) 0.49854(18) -0.62579(15)
H28 H -0.8154(4) 0.18425(17) -0.52088(13)
H29 H -0.6125(4) 0.22989(17) -0.57254(13)
H30 H -0.5767(4) 0.02602(17) -0.55382(13)
H31 H -0.8443(4) 0.00814(17) -0.54588(13)
H32 H -0.758(7) 0.625(3) -0.633(3)
H33 H -1.028(7) 0.663(3) -0.640(3)
loop_
_geom_bond_atom_site_label_1
_geom_bond_atom_site_label_2
_geom_bond_site_symmetry_1
_geom_bond_site_symmetry_2
Br1 C2 1_555 1_555
O1 C12 1_555 1_555
O2 C12 1_555 1_555
O3 C25 1_555 1_555
C1 C2 1_555 1_555
C2 C11 1_555 1_555
C3 C20 1_555 1_555
C4 C5 1_555 1_555
C5 C6 1_555 1_555
C6 C15 1_555 1_555
C7 C11 1_555 1_555
C8 C14 1_555 1_555
C9 C1 1_555 1_555
C10 C14 1_555 1_555
C11 H1 1_555 1_555
C12 C16 1_555 1_555
C13 C15 1_555 1_555
C14 C22 1_555 1_555
C15 C18 1_555 1_555
C16 C7 1_555 1_555
C17 C4 1_555 1_555
C18 O1 1_555 1_555
C19 C25 1_555 1_555
C20 C4 1_555 1_555
C21 C3 1_555 1_555
C22 C20 1_555 1_555
C23 C14 1_555 1_555
C24 C4 1_555 1_555
C25 C15 1_555 1_555
C26 C5 1_555 1_555
C27 C23 1_555 1_555
H2 C7 1_555 1_555
H3 C9 1_555 1_555
H4 C1 1_555 1_555
H5 C3 1_555 1_555
H6 C3 1_555 1_555
H7 C8 1_555 1_555
H8 C8 1_555 1_555
H9 C10 1_555 1_555
H10 C10 1_555 1_555
H11 C10 1_555 1_555
H12 C13 1_555 1_555
H13 C13 1_555 1_555
H14 C13 1_555 1_555
H15 C17 1_555 1_555
H16 C17 1_555 1_555
H17 C17 1_555 1_555
H18 C18 1_555 1_555
H19 C18 1_555 1_555
H20 C19 1_555 1_555
H21 C19 1_555 1_555
H22 C20 1_555 1_555
H23 C21 1_555 1_555
H24 C21 1_555 1_555
H25 C22 1_555 1_555
H26 C22 1_555 1_555
H27 C23 1_555 1_555
H28 C24 1_555 1_555
H29 C24 1_555 1_555
H30 C26 1_555 1_555
H31 C26 1_555 1_555
H32 C27 1_555 1_555
H33 C27 1_555 1_555
C6 C21 1_555 1_555
C8 C24 1_555 1_555
C9 C16 1_555 1_555
C19 C26 1_555 1_555

#END
