
#######################################################################
#
#                 Cambridge Crystallographic Data Centre
#                                CCDC 
#
#######################################################################
#
# If this CIF has been generated from an entry in the Cambridge 
# Structural Database, then it will include bibliographic, chemical, 
# crystal, experimental, refinement or atomic coordinate data resulting 
# from the CCDC's data processing and validation procedures.
#
#######################################################################

data_CEFQOV
_chemical_formula_moiety         'C20 H16 O4 S1'
_chemical_name_systematic        
(2-(3,4-Dimethoxybenzoyl)phenyl)(2-thienyl)methanone
_symmetry_cell_setting           orthorhombic
_symmetry_space_group_name_H-M   'P b c a'
_symmetry_Int_Tables_number      61
_space_group_name_Hall           '-P 2ac 2ab'
loop_
_symmetry_equiv_pos_site_id
_symmetry_equiv_pos_as_xyz
1 x,y,z
2 1/2-x,-y,1/2+z
3 -x,1/2+y,1/2-z
4 1/2+x,1/2-y,-z
5 -x,-y,-z
6 1/2+x,y,1/2-z
7 x,1/2-y,1/2+z
8 1/2-x,1/2+y,z
_cell_length_a                   15.7324(6)
_cell_length_b                   10.7988(5)
_cell_length_c                   20.4877(11)
_cell_angle_alpha                90
_cell_angle_beta                 90
_cell_angle_gamma                90
_cell_volume                     3480.68
_exptl_crystal_colour            'white crystalline'
_exptl_crystal_description       block
_cell_formula_units_Z            8
loop_
_atom_site_label
_atom_site_type_symbol
_atom_site_fract_x
_atom_site_fract_y
_atom_site_fract_z
C1 C 0.07420(12) 0.29212(17) 0.52465(9)
H1 H 0.0927 0.2750 0.5684
H2 H 0.0939 0.2278 0.4960
H3 H 0.0132 0.2953 0.5235
C2 C 0.08842(9) 0.44770(14) 0.44314(7)
C3 C 0.03902(9) 0.38431(14) 0.39886(7)
H4 H 0.0165 0.3075 0.4099
C4 C 0.02285(9) 0.43475(14) 0.33805(7)
H5 H -0.0110 0.3917 0.3086
C5 C 0.05654(8) 0.54875(13) 0.32047(7)
C6 C 0.10764(8) 0.61269(13) 0.36538(7)
H6 H 0.1313 0.6885 0.3539
C7 C 0.12280(9) 0.56397(14) 0.42603(7)
C8 C 0.20416(12) 0.73733(16) 0.46082(9)
H7 H 0.2364 0.7649 0.4979
H8 H 0.1584 0.7942 0.4528
H9 H 0.2404 0.7337 0.4232
C9 C -0.02731(9) 0.55919(13) 0.21288(7)
C10 C -0.10859(9) 0.55142(16) 0.23926(9)
H10 H -0.1164 0.5629 0.2838
C11 C -0.17778(10) 0.52680(18) 0.19982(10)
H11 H -0.2320 0.5229 0.2178
C12 C -0.16671(11) 0.50815(17) 0.13424(10)
H12 H -0.2134 0.4912 0.1079
C13 C -0.08662(10) 0.51440(15) 0.10716(8)
H13 H -0.0796 0.5011 0.0626
C14 C -0.01622(9) 0.54042(13) 0.14591(7)
C15 C 0.06748(10) 0.54873(14) 0.11162(7)
C16 C 0.13814(9) 0.47030(14) 0.13224(7)
C17 C 0.04505(9) 0.60239(13) 0.25482(7)
O1 O 0.10795(7) 0.40790(11) 0.50401(5)
O2 O 0.17058(8) 0.61823(10) 0.47356(5)
O3 O 0.09238(7) 0.68272(10) 0.23367(5)
O4 O 0.07382(8) 0.61470(13) 0.06358(6)
C18 C 0.22592(12) 0.31667(19) 0.17820(10)
H14 H 0.2419 0.2511 0.2050
C19 C 0.27476(11) 0.37328(19) 0.13340(10)
H15 H 0.3309 0.3501 0.1263
S1 S 0.22947(5) 0.48657(9) 0.09150(7)
C20 C 0.1412(3) 0.3789(4) 0.1768(2)
H16 H 0.0959 0.3571 0.2036
C21? C 0.2189(6) 0.4727(13) 0.1078(7)
H17? H 0.2373 0.5316 0.0778
S2? S 0.13250(13) 0.3528(2) 0.18931(11)
loop_
_geom_bond_atom_site_label_1
_geom_bond_atom_site_label_2
_geom_bond_site_symmetry_1
_geom_bond_site_symmetry_2
C1 H1 1_555 1_555
H2 C1 1_555 1_555
H3 C1 1_555 1_555
C2 C3 1_555 1_555
C3 H4 1_555 1_555
C4 C3 1_555 1_555
H5 C4 1_555 1_555
C5 C4 1_555 1_555
C6 C5 1_555 1_555
H6 C6 1_555 1_555
C7 C2 1_555 1_555
C8 H7 1_555 1_555
H8 C8 1_555 1_555
H9 C8 1_555 1_555
C9 C10 1_555 1_555
C10 H10 1_555 1_555
C11 C10 1_555 1_555
H11 C11 1_555 1_555
C12 C11 1_555 1_555
H12 C12 1_555 1_555
C13 C12 1_555 1_555
H13 C13 1_555 1_555
C14 C9 1_555 1_555
C15 C14 1_555 1_555
C16 C15 1_555 1_555
C17 C5 1_555 1_555
O1 C1 1_555 1_555
O2 C7 1_555 1_555
O3 C17 1_555 1_555
O4 C15 1_555 1_555
C18 H14 1_555 1_555
C19 C18 1_555 1_555
H15 C19 1_555 1_555
S1 C16 1_555 1_555
C20 C16 1_555 1_555
H16 C20 1_555 1_555
C2 O1 1_555 1_555
C6 C7 1_555 1_555
C8 O2 1_555 1_555
C9 C17 1_555 1_555
C13 C14 1_555 1_555
C18 C20 1_555 1_555
C19 S1 1_555 1_555

#END
