
#######################################################################
#
#                 Cambridge Crystallographic Data Centre
#                                CCDC 
#
#######################################################################
#
# If this CIF has been generated from an entry in the Cambridge 
# Structural Database, then it will include bibliographic, chemical, 
# crystal, experimental, refinement or atomic coordinate data resulting 
# from the CCDC's data processing and validation procedures.
#
#######################################################################

data_CEFREM
_chemical_formula_moiety         'C18 H14 O2'
_chemical_name_systematic        '(Z)-1,4-Diphenylbut-1-en-3-yn-1-yl acetate'
_symmetry_cell_setting           monoclinic
_symmetry_space_group_name_H-M   'P 21/c'
_symmetry_Int_Tables_number      14
_space_group_name_Hall           '-P 2ybc'
loop_
_symmetry_equiv_pos_site_id
_symmetry_equiv_pos_as_xyz
1 x,y,z
2 -x,1/2+y,1/2-z
3 -x,-y,-z
4 x,1/2-y,1/2+z
_cell_length_a                   13.1480(5)
_cell_length_b                   5.5912(2)
_cell_length_c                   19.7579(7)
_cell_angle_alpha                90
_cell_angle_beta                 91.558(2)
_cell_angle_gamma                90
_cell_volume                     1451.93
_exptl_crystal_colour            colorless
_exptl_crystal_description       block
_cell_formula_units_Z            4
loop_
_atom_site_label
_atom_site_type_symbol
_atom_site_fract_x
_atom_site_fract_y
_atom_site_fract_z
C1 C 0.30322(13) -0.0799(4) 0.49684(9)
C2 C 0.28690(17) -0.2708(5) 0.53970(12)
H1 H 0.2419 -0.3916 0.5266
C3 C 0.3369(3) -0.2826(7) 0.60151(15)
H2 H 0.3254 -0.4111 0.6302
C4 C 0.4031(3) -0.1080(9) 0.62109(15)
H3 H 0.4372 -0.1181 0.6628
C5 C 0.4196(2) 0.0823(8) 0.57961(17)
H4 H 0.4647 0.2021 0.5933
C6 C 0.36951(17) 0.0975(5) 0.51739(11)
H5 H 0.3807 0.2280 0.4894
C7 C 0.25155(13) -0.0651(4) 0.43211(10)
C8 C 0.20928(13) -0.0556(4) 0.37789(10)
C9 C 0.15912(12) -0.0526(4) 0.31331(9)
H6 H 0.1158 -0.1790 0.3023
C10 C 0.17019(11) 0.1197(3) 0.26765(8)
C11 C 0.11939(11) 0.1374(3) 0.20075(8)
C12 C 0.04989(12) -0.0339(3) 0.17850(8)
H7 H 0.0366 -0.1650 0.2058
C13 C 0.00025(14) -0.0127(4) 0.11645(10)
H8 H -0.0463 -0.1290 0.1024
C14 C 0.01901(15) 0.1784(4) 0.07548(9)
H9 H -0.0148 0.1929 0.0337
C15 C 0.08782(15) 0.3482(4) 0.09637(10)
H10 H 0.1012 0.4776 0.0684
C16 C 0.13779(13) 0.3297(3) 0.15865(10)
H11 H 0.1840 0.4472 0.1723
C17 C 0.33312(11) 0.2969(3) 0.28114(8)
C18 C 0.38508(13) 0.5103(4) 0.30975(10)
H12 H 0.4559 0.5052 0.2992
H13 H 0.3783 0.5121 0.3580
H14 H 0.3548 0.6521 0.2906
O1 O 0.23034(7) 0.3175(2) 0.28623(6)
O2 O 0.37147(8) 0.1261(2) 0.25663(7)
loop_
_geom_bond_atom_site_label_1
_geom_bond_atom_site_label_2
_geom_bond_site_symmetry_1
_geom_bond_site_symmetry_2
C1 C2 1_555 1_555
C2 H1 1_555 1_555
C3 C2 1_555 1_555
H2 C3 1_555 1_555
C4 C3 1_555 1_555
H3 C4 1_555 1_555
C5 C4 1_555 1_555
H4 C5 1_555 1_555
C6 C1 1_555 1_555
H5 C6 1_555 1_555
C7 C1 1_555 1_555
C8 C7 1_555 1_555
C9 C8 1_555 1_555
H6 C9 1_555 1_555
C10 C9 1_555 1_555
C11 C10 1_555 1_555
C12 C11 1_555 1_555
H7 C12 1_555 1_555
C13 C12 1_555 1_555
H8 C13 1_555 1_555
C14 C13 1_555 1_555
H9 C14 1_555 1_555
C15 C14 1_555 1_555
H10 C15 1_555 1_555
C16 C11 1_555 1_555
H11 C16 1_555 1_555
C17 C18 1_555 1_555
C18 H12 1_555 1_555
H13 C18 1_555 1_555
H14 C18 1_555 1_555
O1 C10 1_555 1_555
O2 C17 1_555 1_555
C5 C6 1_555 1_555
C15 C16 1_555 1_555
C17 O1 1_555 1_555

#END
