
#######################################################################
#
#                 Cambridge Crystallographic Data Centre
#                                CCDC 
#
#######################################################################
#
# If this CIF has been generated from an entry in the Cambridge 
# Structural Database, then it will include bibliographic, chemical, 
# crystal, experimental, refinement or atomic coordinate data resulting 
# from the CCDC's data processing and validation procedures.
#
#######################################################################

data_CEFTUF
_chemical_formula_moiety         'C25 H27 N1 O2'
_chemical_name_systematic        
5'-(2,6-dimethylmorpholin-4-yl)-1',4',4a',9a'-tetrahydro-4H-spiro[cyclohexa-2,5-diene-1,9'-[1,4]methanofluoren]-4-one
_symmetry_cell_setting           triclinic
_symmetry_space_group_name_H-M   'P -1'
_symmetry_Int_Tables_number      2
_space_group_name_Hall           '-P 1'
loop_
_symmetry_equiv_pos_site_id
_symmetry_equiv_pos_as_xyz
1 x,y,z
2 -x,-y,-z
_cell_length_a                   7.227(7)
_cell_length_b                   10.253(9)
_cell_length_c                   13.743(13)
_cell_angle_alpha                89.277(15)
_cell_angle_beta                 89.394(14)
_cell_angle_gamma                86.119(14)
_cell_volume                     1015.87
_exptl_crystal_colour            colorless
_exptl_crystal_description       block
_cell_formula_units_Z            2
loop_
_atom_site_label
_atom_site_type_symbol
_atom_site_fract_x
_atom_site_fract_y
_atom_site_fract_z
O1 O 0.2628(3) 0.36829(17) 0.94927(14)
C1 C 0.4116(3) 0.72670(18) 0.83174(15)
C2 C 0.5274(3) 0.59909(19) 0.82104(15)
H1 H 0.6375 0.5994 0.7855
C3 C 0.1952(3) 0.5983(2) 0.93417(16)
H2 H 0.0887 0.5971 0.9726
C4 C 0.2420(3) 0.7113(2) 0.89489(15)
H3 H 0.1649 0.7856 0.9073
C5 C 0.4798(3) 0.4859(2) 0.85995(16)
H4 H 0.5575 0.4111 0.8501
C6 C 0.3088(3) 0.4754(2) 0.91784(16)
C7 C 0.3552(2) 0.91483(17) 0.72281(14)
C8 C 0.2862(2) 0.98198(17) 0.63875(14)
C9 C 0.3420(2) 0.77919(18) 0.73206(14)
C10 C 0.2682(3) 0.70676(19) 0.65650(16)
H5 H 0.2575 0.6172 0.6634
C11 C 0.2203(3) 0.90844(19) 0.56248(15)
H6 H 0.1816 0.9504 0.5051
C12 C 0.4598(3) 0.96876(18) 0.80696(14)
H7 H 0.3846 1.0355 0.8430
C13 C 0.7661(3) 0.8858(2) 0.75753(16)
H8 H 0.8957 0.8959 0.7421
H9 H 0.7116 0.8326 0.7090
C14 C 0.6544(3) 1.0178(2) 0.77368(15)
H10 H 0.6528 1.0804 0.7192
C15 C 0.2120(3) 0.7727(2) 0.57164(16)
H11 H 0.1683 0.7259 0.5201
C16 C 0.7355(3) 0.8355(2) 0.86291(16)
H12 H 0.7990 0.7509 0.8799
C17 C 0.5181(3) 0.84473(18) 0.87253(14)
H13 H 0.4812 0.8612 0.9403
N1 N 0.2824(2) 1.12284(14) 0.63722(11)
O2 O 0.1328(2) 1.38629(13) 0.60790(10)
C18 C 0.2818(3) 1.18591(18) 0.54042(14)
H14 H 0.1704 1.1668 0.5060
H15 H 0.3882 1.1517 0.5029
C19 C 0.1294(3) 1.32631(19) 0.70338(15)
H16 H 0.2414 1.3462 0.7383
C20 C 0.1234(3) 1.17906(18) 0.69579(15)
H17 H 0.1270 1.1401 0.7605
H18 H 0.0082 1.1586 0.6657
C21 C 0.2788(4) 1.4056(2) 0.45364(19)
H19 H 0.1619 1.3930 0.4238
H20 H 0.3778 1.3716 0.4122
H21 H 0.2903 1.4973 0.4633
C22 C 0.2887(3) 1.33460(19) 0.55093(16)
H22 H 0.4039 1.3533 0.5834
C23 C -0.0402(4) 1.3890(2) 0.75620(18)
H23 H -0.0332 1.4822 0.7566
H24 H -0.0435 1.3563 0.8219
H25 H -0.1507 1.3680 0.7233
C24 C 0.7927(3) 0.9525(2) 0.91913(17)
H26 H 0.8515 0.9492 0.9790
C25 C 0.7446(3) 1.0606(2) 0.86836(17)
H27 H 0.7620 1.1460 0.8865
loop_
_geom_bond_atom_site_label_1
_geom_bond_atom_site_label_2
_geom_bond_site_symmetry_1
_geom_bond_site_symmetry_2
O1 C6 1_555 1_555
C1 C2 1_555 1_555
C2 H1 1_555 1_555
C3 H2 1_555 1_555
C4 C1 1_555 1_555
H3 C4 1_555 1_555
C5 C2 1_555 1_555
H4 C5 1_555 1_555
C6 C3 1_555 1_555
C7 C8 1_555 1_555
C8 C11 1_555 1_555
C9 C1 1_555 1_555
C10 C9 1_555 1_555
H5 C10 1_555 1_555
C11 H6 1_555 1_555
C12 C7 1_555 1_555
H7 C12 1_555 1_555
C13 H8 1_555 1_555
H9 C13 1_555 1_555
C14 C12 1_555 1_555
H10 C14 1_555 1_555
C15 C10 1_555 1_555
H11 C15 1_555 1_555
C16 C13 1_555 1_555
H12 C16 1_555 1_555
C17 C1 1_555 1_555
H13 C17 1_555 1_555
N1 C8 1_555 1_555
O2 C19 1_555 1_555
C18 N1 1_555 1_555
H14 C18 1_555 1_555
H15 C18 1_555 1_555
C19 H16 1_555 1_555
C20 N1 1_555 1_555
H17 C20 1_555 1_555
H18 C20 1_555 1_555
C21 H19 1_555 1_555
H20 C21 1_555 1_555
H21 C21 1_555 1_555
C22 O2 1_555 1_555
H22 C22 1_555 1_555
C23 C19 1_555 1_555
H23 C23 1_555 1_555
H24 C23 1_555 1_555
H25 C23 1_555 1_555
C24 C16 1_555 1_555
H26 C24 1_555 1_555
C25 C14 1_555 1_555
H27 C25 1_555 1_555
C3 C4 1_555 1_555
C5 C6 1_555 1_555
C7 C9 1_555 1_555
C11 C15 1_555 1_555
C12 C17 1_555 1_555
C13 C14 1_555 1_555
C16 C17 1_555 1_555
C18 C22 1_555 1_555
C19 C20 1_555 1_555
C21 C22 1_555 1_555
C24 C25 1_555 1_555

#END
