
#######################################################################
#
#                 Cambridge Crystallographic Data Centre
#                                CCDC 
#
#######################################################################
#
# If this CIF has been generated from an entry in the Cambridge 
# Structural Database, then it will include bibliographic, chemical, 
# crystal, experimental, refinement or atomic coordinate data resulting 
# from the CCDC's data processing and validation procedures.
#
#######################################################################

data_CEFTIS
_chemical_formula_moiety         'C13 H19 N2 1+,B1 F4 1-'
_chemical_name_systematic        
'3-Butyl-1-ethyl-1H-benzimidazolium tetrafluoroborate'
_symmetry_cell_setting           monoclinic
_symmetry_space_group_name_H-M   'P 21/n'
_symmetry_Int_Tables_number      14
_space_group_name_Hall           '-P 2yn'
loop_
_symmetry_equiv_pos_site_id
_symmetry_equiv_pos_as_xyz
1 x,y,z
2 1/2-x,1/2+y,1/2-z
3 -x,-y,-z
4 1/2+x,1/2-y,1/2+z
_cell_length_a                   11.0043(13)
_cell_length_b                   12.0372(9)
_cell_length_c                   11.3693(10)
_cell_angle_alpha                90
_cell_angle_beta                 99.312(9)
_cell_angle_gamma                90
_cell_volume                     1486.14
_exptl_crystal_colour            colorless
_exptl_crystal_description       block
_cell_formula_units_Z            4
loop_
_atom_site_label
_atom_site_type_symbol
_atom_site_fract_x
_atom_site_fract_y
_atom_site_fract_z
N1 N 0.71813(12) 0.62371(10) 0.52811(11)
N2 N 0.69467(12) 0.52167(11) 0.36726(11)
C1 C 0.77356(14) 0.55764(12) 0.45961(13)
H1 H 0.8585 0.5388 0.4749
C2 C 0.59463(14) 0.63191(12) 0.47691(13)
C3 C 0.49671(16) 0.68773(14) 0.51404(15)
H2 H 0.5075 0.7331 0.5833
C4 C 0.38307(16) 0.67323(15) 0.44437(17)
H3 H 0.3134 0.7094 0.4664
C5 C 0.36742(16) 0.60653(15) 0.34185(17)
H4 H 0.2873 0.5982 0.2970
C6 C 0.46499(16) 0.55249(14) 0.30407(15)
H5 H 0.4544 0.5082 0.2340
C7 C 0.57954(15) 0.56672(12) 0.37449(14)
C8 C 0.72604(18) 0.44867(14) 0.27240(15)
H6 H 0.6572 0.3964 0.2475
H7 H 0.7998 0.4044 0.3043
C9 C 0.75105(18) 0.51369(15) 0.16499(15)
H8 H 0.8164 0.5692 0.1906
H9 H 0.6756 0.5542 0.1298
C10 C 0.7910(2) 0.43834(17) 0.07123(17)
H10 H 0.8640 0.3952 0.1079
H11 H 0.7240 0.3850 0.0434
C11 C 0.8223(2) 0.50152(19) -0.03470(17)
H12 H 0.8472 0.4491 -0.0923
H13 H 0.8901 0.5531 -0.0081
H14 H 0.7500 0.5433 -0.0724
C12 C 0.77365(16) 0.67731(15) 0.64023(14)
H15 H 0.7221 0.6616 0.7020
H16 H 0.7744 0.7587 0.6282
C13 C 0.90314(17) 0.63838(17) 0.68417(16)
H17 H 0.9340 0.6737 0.7609
H18 H 0.9561 0.6586 0.6261
H19 H 0.9035 0.5575 0.6941
B1 B 0.4707(5) 0.2091(4) 0.1379(6)
F1 F 0.4128(2) 0.30962(17) 0.1306(3)
F2 F 0.4454(2) 0.1576(2) 0.23845(16)
F3 F 0.4286(6) 0.1443(5) 0.0392(4)
F4 F 0.5969(3) 0.2217(2) 0.1492(3)
B2? B 0.472(2) 0.2157(18) 0.112(2)
F5? F 0.4416(19) 0.3070(16) 0.052(2)
F6? F 0.4146(12) 0.2333(16) 0.2030(13)
F7? F 0.443(3) 0.122(2) 0.061(2)
F8? F 0.5827(15) 0.2487(14) 0.1055(15)
loop_
_geom_bond_atom_site_label_1
_geom_bond_atom_site_label_2
_geom_bond_site_symmetry_1
_geom_bond_site_symmetry_2
N1 C1 1_555 1_555
N2 C1 1_555 1_555
C1 H1 1_555 1_555
C2 N1 1_555 1_555
C3 C2 1_555 1_555
H2 C3 1_555 1_555
C4 C3 1_555 1_555
H3 C4 1_555 1_555
C5 C4 1_555 1_555
H4 C5 1_555 1_555
C6 C5 1_555 1_555
H5 C6 1_555 1_555
C7 N2 1_555 1_555
C8 N2 1_555 1_555
H6 C8 1_555 1_555
H7 C8 1_555 1_555
C9 C8 1_555 1_555
H8 C9 1_555 1_555
H9 C9 1_555 1_555
C10 C9 1_555 1_555
H10 C10 1_555 1_555
H11 C10 1_555 1_555
C11 C10 1_555 1_555
H12 C11 1_555 1_555
H13 C11 1_555 1_555
H14 C11 1_555 1_555
C12 N1 1_555 1_555
H15 C12 1_555 1_555
H16 C12 1_555 1_555
C13 C12 1_555 1_555
H17 C13 1_555 1_555
H18 C13 1_555 1_555
H19 C13 1_555 1_555
B1 F1 1_555 1_555
F2 B1 1_555 1_555
F3 B1 1_555 1_555
F4 B1 1_555 1_555
C2 C7 1_555 1_555
C6 C7 1_555 1_555

#END
