
#######################################################################
#
#                 Cambridge Crystallographic Data Centre
#                                CCDC 
#
#######################################################################
#
# If this CIF has been generated from an entry in the Cambridge 
# Structural Database, then it will include bibliographic, chemical, 
# crystal, experimental, refinement or atomic coordinate data resulting 
# from the CCDC's data processing and validation procedures.
#
#######################################################################

data_CEGCEY
_chemical_formula_moiety         'C43 H45 N1 O12'
_chemical_name_systematic        
2,9,12,15,18,25,27,34,37,40,43,50-Dodecaoxa-56-azaheptacyclo[24.24.5.1^51,55^.0^3,8^.0^19,24^.0^28,33^.0^44,49^]hexapentaconta-3,5,7,19,21,23,28,30,32,44,46,48,51,53,55-pentadecaene
_symmetry_cell_setting           triclinic
_symmetry_space_group_name_H-M   'P -1'
_symmetry_Int_Tables_number      2
_space_group_name_Hall           '-P 1'
loop_
_symmetry_equiv_pos_site_id
_symmetry_equiv_pos_as_xyz
1 x,y,z
2 -x,-y,-z
_cell_length_a                   8.5266(4)
_cell_length_b                   15.2732(7)
_cell_length_c                   15.5688(8)
_cell_angle_alpha                69.752(2)
_cell_angle_beta                 88.372(2)
_cell_angle_gamma                80.402(2)
_cell_volume                     1874.64
_exptl_crystal_colour            colorless
_exptl_crystal_description       block
_cell_formula_units_Z            2
loop_
_atom_site_label
_atom_site_type_symbol
_atom_site_fract_x
_atom_site_fract_y
_atom_site_fract_z
N1 N 0.16048(10) 0.23963(6) 0.34935(6)
O1 O 0.42156(9) 0.02455(5) 0.36551(5)
O2 O 0.23385(10) -0.10515(6) 0.38118(6)
O3 O -0.06713(10) -0.01380(6) 0.37368(6)
O4 O -0.29589(11) 0.15178(6) 0.28839(6)
O5 O -0.30106(10) 0.34100(6) 0.31315(6)
O6 O -0.09806(9) 0.37352(6) 0.42255(5)
O7 O 0.06804(10) 0.47547(5) 0.34239(6)
O8 O 0.18306(10) 0.43854(6) 0.18692(6)
O9 O 0.25086(11) 0.45435(6) -0.00716(6)
O10 O 0.55737(10) 0.32192(6) -0.01372(6)
O11 O 0.49707(10) 0.14304(6) 0.10207(6)
O12 O 0.31057(10) 0.14756(5) 0.23457(5)
C1 C 0.15225(12) 0.30759(7) 0.38556(7)
C2 C 0.26197(14) 0.30632(8) 0.45049(8)
H1 H 0.2531 0.3556 0.4734
C3 C 0.38433(14) 0.23023(8) 0.48010(8)
H2 H 0.4587 0.2270 0.5241
C4 C 0.39516(13) 0.15860(7) 0.44349(7)
H3 H 0.4759 0.1063 0.4627
C5 C 0.28230(12) 0.16721(7) 0.37739(7)
C6 C 0.28892(12) 0.09688(7) 0.32825(7)
H4 H 0.1903 0.0703 0.3359
C7 C 0.46007(13) -0.04066(7) 0.32113(7)
C8 C 0.59910(14) -0.04026(8) 0.27378(8)
H5 H 0.6615 0.0058 0.2682
C9 C 0.64556(15) -0.10925(9) 0.23426(9)
H6 H 0.7401 -0.1100 0.2031
C10 C 0.55131(16) -0.17632(9) 0.24142(9)
H7 H 0.5829 -0.2222 0.2150
C11 C 0.40934(15) -0.17611(8) 0.28783(9)
H8 H 0.3452 -0.2208 0.2912
C12 C 0.36402(13) -0.10881(8) 0.32907(8)
C13 C 0.10545(14) -0.14958(8) 0.36882(9)
H9 H 0.1333 -0.2179 0.3959
H10 H 0.0803 -0.1330 0.3042
C14 C -0.03361(14) -0.11372(8) 0.41581(9)
H11 H -0.1254 -0.1413 0.4097
H12 H -0.0081 -0.1308 0.4805
C15 C -0.17984(14) 0.03039(8) 0.42142(8)
H13 H -0.1398 0.0171 0.4831
H14 H -0.2791 0.0063 0.4253
C16 C -0.20694(14) 0.13527(8) 0.36989(8)
H15 H -0.2653 0.1687 0.4068
H16 H -0.1059 0.1574 0.3551
C17 C -0.31024(16) 0.24439(9) 0.22326(8)
H17 H -0.3607 0.2455 0.1677
H18 H -0.2044 0.2593 0.2082
C18 C -0.40408(15) 0.32034(8) 0.25400(8)
H19 H -0.4397 0.3767 0.2015
H20 H -0.4967 0.2985 0.2866
C19 C -0.35332(13) 0.41479(8) 0.34239(8)
C20 C -0.50285(14) 0.47113(8) 0.32230(8)
H21 H -0.5782 0.4579 0.2885
C21 C -0.53898(15) 0.54706(9) 0.35292(9)
H22 H -0.6386 0.5851 0.3388
C22 C -0.42956(16) 0.56692(10) 0.40388(10)
H23 H -0.4545 0.6187 0.4232
C23 C -0.28131(15) 0.50912(9) 0.42638(9)
H24 H -0.2077 0.5215 0.4618
C24 C -0.24379(13) 0.43376(8) 0.39619(8)
C25 C 0.01485(13) 0.38871(7) 0.35244(7)
H25 H -0.0319 0.3911 0.2947
C26 C 0.05292(13) 0.54533(8) 0.25695(8)
C27 C -0.01090(16) 0.63690(9) 0.25206(10)
H26 H -0.0470 0.6487 0.3046
C28 C -0.02063(18) 0.71077(9) 0.16855(11)
H27 H -0.0623 0.7721 0.1654
C29 C 0.03125(16) 0.69367(9) 0.09012(10)
H28 H 0.0227 0.7432 0.0342
C30 C 0.09607(14) 0.60270(9) 0.09464(9)
H29 H 0.1313 0.5913 0.0418
C31 C 0.10854(13) 0.52837(8) 0.17819(8)
C32 C 0.11733(14) 0.39272(8) 0.13235(8)
H30 H 0.0240 0.4341 0.0980
H31 H 0.0843 0.3349 0.1726
C33 C 0.23586(15) 0.36951(8) 0.06713(8)
H32 H 0.3382 0.3412 0.0986
H33 H 0.2007 0.3244 0.0440
C34 C 0.32053(15) 0.43884(9) -0.08583(8)
H34 H 0.2906 0.4956 -0.1389
H35 H 0.2776 0.3881 -0.0958
C35 C 0.50017(15) 0.41369(9) -0.07829(9)
H36 H 0.5403 0.4168 -0.1380
H37 H 0.5423 0.4605 -0.0607
C36 C 0.54982(16) 0.24892(9) -0.04898(8)
H38 H 0.6199 0.2547 -0.1001
H39 H 0.4421 0.2531 -0.0704
C37 C 0.60036(15) 0.15579(9) 0.02652(9)
H40 H 0.6010 0.1048 0.0028
H41 H 0.7079 0.1527 0.0475
C38 C 0.35459(14) 0.11590(8) 0.09707(8)
C39 C 0.30404(15) 0.08776(9) 0.02814(8)
H42 H 0.3683 0.0885 -0.0213
C40 C 0.15708(16) 0.05847(9) 0.03322(9)
H43 H 0.1244 0.0385 -0.0124
C41 C 0.05942(15) 0.05870(9) 0.10527(9)
H44 H -0.0385 0.0388 0.1081
C42 C 0.10706(14) 0.08869(8) 0.17370(8)
H45 H 0.0400 0.0906 0.2214
C43 C 0.25443(13) 0.11560(7) 0.17044(7)
loop_
_geom_bond_atom_site_label_1
_geom_bond_atom_site_label_2
_geom_bond_site_symmetry_1
_geom_bond_site_symmetry_2
N1 C1 1_555 1_555
O1 C6 1_555 1_555
O2 C12 1_555 1_555
O3 C14 1_555 1_555
O4 C16 1_555 1_555
O5 C18 1_555 1_555
O6 C24 1_555 1_555
O7 C25 1_555 1_555
O8 C31 1_555 1_555
O9 C33 1_555 1_555
O10 C35 1_555 1_555
O11 C37 1_555 1_555
O12 C6 1_555 1_555
C1 C2 1_555 1_555
C2 H1 1_555 1_555
C3 C2 1_555 1_555
H2 C3 1_555 1_555
C4 C3 1_555 1_555
H3 C4 1_555 1_555
C5 N1 1_555 1_555
C6 C5 1_555 1_555
H4 C6 1_555 1_555
C7 O1 1_555 1_555
C8 C7 1_555 1_555
H5 C8 1_555 1_555
C9 C8 1_555 1_555
H6 C9 1_555 1_555
C10 C9 1_555 1_555
H7 C10 1_555 1_555
C11 C10 1_555 1_555
H8 C11 1_555 1_555
C12 C7 1_555 1_555
C13 O2 1_555 1_555
H9 C13 1_555 1_555
H10 C13 1_555 1_555
C14 C13 1_555 1_555
H11 C14 1_555 1_555
H12 C14 1_555 1_555
C15 O3 1_555 1_555
H13 C15 1_555 1_555
H14 C15 1_555 1_555
C16 C15 1_555 1_555
H15 C16 1_555 1_555
H16 C16 1_555 1_555
C17 O4 1_555 1_555
H17 C17 1_555 1_555
H18 C17 1_555 1_555
C18 C17 1_555 1_555
H19 C18 1_555 1_555
H20 C18 1_555 1_555
C19 O5 1_555 1_555
C20 C19 1_555 1_555
H21 C20 1_555 1_555
C21 C20 1_555 1_555
H22 C21 1_555 1_555
C22 C21 1_555 1_555
H23 C22 1_555 1_555
C23 C22 1_555 1_555
H24 C23 1_555 1_555
C24 C19 1_555 1_555
C25 O6 1_555 1_555
H25 C25 1_555 1_555
C26 O7 1_555 1_555
C27 C26 1_555 1_555
H26 C27 1_555 1_555
C28 C27 1_555 1_555
H27 C28 1_555 1_555
C29 C28 1_555 1_555
H28 C29 1_555 1_555
C30 C29 1_555 1_555
H29 C30 1_555 1_555
C31 C26 1_555 1_555
C32 O8 1_555 1_555
H30 C32 1_555 1_555
H31 C32 1_555 1_555
C33 C32 1_555 1_555
H32 C33 1_555 1_555
H33 C33 1_555 1_555
C34 O9 1_555 1_555
H34 C34 1_555 1_555
H35 C34 1_555 1_555
C35 C34 1_555 1_555
H36 C35 1_555 1_555
H37 C35 1_555 1_555
C36 O10 1_555 1_555
H38 C36 1_555 1_555
H39 C36 1_555 1_555
C37 C36 1_555 1_555
H40 C37 1_555 1_555
H41 C37 1_555 1_555
C38 O11 1_555 1_555
C39 C38 1_555 1_555
H42 C39 1_555 1_555
C40 C39 1_555 1_555
H43 C40 1_555 1_555
C41 C40 1_555 1_555
H44 C41 1_555 1_555
C42 C41 1_555 1_555
H45 C42 1_555 1_555
C43 O12 1_555 1_555
C1 C25 1_555 1_555
C4 C5 1_555 1_555
C11 C12 1_555 1_555
C23 C24 1_555 1_555
C30 C31 1_555 1_555
C38 C43 1_555 1_555
C42 C43 1_555 1_555

#END
