
#######################################################################
#
#                 Cambridge Crystallographic Data Centre
#                                CCDC 
#
#######################################################################
#
# If this CIF has been generated from an entry in the Cambridge 
# Structural Database, then it will include bibliographic, chemical, 
# crystal, experimental, refinement or atomic coordinate data resulting 
# from the CCDC's data processing and validation procedures.
#
#######################################################################

data_CEGTUF
_chemical_formula_moiety         'C19 H22 N2 O4'
_chemical_name_systematic        
't-Butyl N-(4-(N-(4-hydroxyphenyl)carbamoyl)benzyl)carbamate'
_symmetry_cell_setting           monoclinic
_symmetry_space_group_name_H-M   'P 21/c'
_symmetry_Int_Tables_number      14
_space_group_name_Hall           '-P 2ybc'
loop_
_symmetry_equiv_pos_site_id
_symmetry_equiv_pos_as_xyz
1 x,y,z
2 -x,1/2+y,1/2-z
3 -x,-y,-z
4 x,1/2-y,1/2+z
_cell_length_a                   12.289(3)
_cell_length_b                   14.185(3)
_cell_length_c                   10.980(2)
_cell_angle_alpha                90
_cell_angle_beta                 98.21(3)
_cell_angle_gamma                90
_cell_volume                     1894.41
_exptl_crystal_colour            colorless
_exptl_crystal_description       block
_cell_formula_units_Z            4
loop_
_atom_site_label
_atom_site_type_symbol
_atom_site_fract_x
_atom_site_fract_y
_atom_site_fract_z
N1 N 0.23491(12) 0.02867(9) 0.32424(14)
H1 H 0.2354(16) -0.0024(14) 0.394(2)
N2 N 0.18621(12) 0.52555(9) 0.44084(12)
H2 H 0.2117(16) 0.4901(14) 0.5002(19)
O1 O 0.39656(9) -0.03555(9) 0.32021(10)
O2 O 0.31884(11) 0.05183(9) 0.15710(10)
O3 O 0.11660(10) 0.53752(7) 0.24078(10)
O4 O 0.18329(14) 0.91196(8) 0.53081(13)
H3 H 0.164(2) 0.9257(19) 0.602(3)
C1 C 0.5584(2) -0.1202(3) 0.3697(3)
H4 H 0.5154 -0.1748 0.3827
H5 H 0.5715 -0.0840 0.4443
H6 H 0.6273 -0.1395 0.3463
C2 C 0.4655(3) -0.1180(3) 0.1525(3)
H7 H 0.4259 -0.1732 0.1715
H8 H 0.5310 -0.1366 0.1204
H9 H 0.4200 -0.0809 0.0923
C3 C 0.5595(2) 0.0279(3) 0.2484(4)
H10 H 0.5187 0.0646 0.1840
H11 H 0.6295 0.0113 0.2256
H12 H 0.5704 0.0641 0.3230
C4 C 0.49650(16) -0.06027(19) 0.2683(2)
C5 C 0.31757(12) 0.01781(10) 0.25879(13)
C6 C 0.13695(15) 0.08113(12) 0.2755(2)
H13 H 0.077(2) 0.0590(17) 0.321(2)
H14 H 0.1167(18) 0.0648(15) 0.184(2)
C7 C 0.14719(12) 0.18674(10) 0.28959(14)
C8 C 0.09103(14) 0.24548(12) 0.20160(15)
H15 H 0.0469(17) 0.2169(14) 0.129(2)
C9 C 0.09462(14) 0.34193(12) 0.21584(14)
H16 H 0.0569(19) 0.3852(16) 0.157(2)
C10 C 0.15430(11) 0.38288(10) 0.31938(12)
C11 C 0.21137(15) 0.32443(11) 0.40761(15)
H17 H 0.2557(17) 0.3495(15) 0.481(2)
C12 C 0.20749(16) 0.22745(12) 0.39187(17)
H18 H 0.252(2) 0.1880(19) 0.452(2)
C13 C 0.15207(11) 0.48764(10) 0.33042(12)
C14 C 0.18580(13) 0.62478(10) 0.46470(13)
C15 C 0.23604(16) 0.68721(12) 0.39467(16)
H19 H 0.2717(16) 0.6622(14) 0.3276(18)
C16 C 0.23500(18) 0.78243(12) 0.41852(17)
H20 H 0.2678(19) 0.8254(17) 0.369(2)
C17 C 0.18335(14) 0.81648(11) 0.51345(14)
C18 C 0.13337(14) 0.75444(11) 0.58466(14)
H21 H 0.0951(15) 0.7789(13) 0.6534(18)
C19 C 0.13457(14) 0.65860(11) 0.55987(13)
H22 H 0.1014(16) 0.6117(14) 0.6099(18)
loop_
_geom_bond_atom_site_label_1
_geom_bond_atom_site_label_2
_geom_bond_site_symmetry_1
_geom_bond_site_symmetry_2
N1 H1 1_555 1_555
N2 H2 1_555 1_555
O1 C4 1_555 1_555
O2 C5 1_555 1_555
O3 C13 1_555 1_555
O4 H3 1_555 1_555
C1 H4 1_555 1_555
H5 C1 1_555 1_555
H6 C1 1_555 1_555
C2 H7 1_555 1_555
H8 C2 1_555 1_555
H9 C2 1_555 1_555
C3 H10 1_555 1_555
H11 C3 1_555 1_555
H12 C3 1_555 1_555
C4 C1 1_555 1_555
C5 N1 1_555 1_555
C6 N1 1_555 1_555
H13 C6 1_555 1_555
H14 C6 1_555 1_555
C7 C6 1_555 1_555
C8 C7 1_555 1_555
H15 C8 1_555 1_555
C9 C8 1_555 1_555
H16 C9 1_555 1_555
C10 C9 1_555 1_555
C11 C10 1_555 1_555
H17 C11 1_555 1_555
C12 C7 1_555 1_555
H18 C12 1_555 1_555
C13 N2 1_555 1_555
C14 N2 1_555 1_555
C15 C14 1_555 1_555
H19 C15 1_555 1_555
C16 C15 1_555 1_555
H20 C16 1_555 1_555
C17 O4 1_555 1_555
C18 C17 1_555 1_555
H21 C18 1_555 1_555
C19 C14 1_555 1_555
H22 C19 1_555 1_555
O1 C5 1_555 1_555
C2 C4 1_555 1_555
C3 C4 1_555 1_555
C10 C13 1_555 1_555
C11 C12 1_555 1_555
C16 C17 1_555 1_555
C18 C19 1_555 1_555

#END
