
#######################################################################
#
#                 Cambridge Crystallographic Data Centre
#                                CCDC 
#
#######################################################################
#
# If this CIF has been generated from an entry in the Cambridge 
# Structural Database, then it will include bibliographic, chemical, 
# crystal, experimental, refinement or atomic coordinate data resulting 
# from the CCDC's data processing and validation procedures.
#
#######################################################################

data_CEGVIW
_chemical_formula_moiety         'C19 H18 F3 N3 O2'
_chemical_name_systematic        
2-phenyl-N-(3-phenylpropyl)-2-[2-(trifluoroacetyl)hydrazinylidene]acetamide
_symmetry_cell_setting           monoclinic
_symmetry_space_group_name_H-M   'P 21/n'
_symmetry_Int_Tables_number      14
_space_group_name_Hall           '-P 2yn'
loop_
_symmetry_equiv_pos_site_id
_symmetry_equiv_pos_as_xyz
1 x,y,z
2 1/2-x,1/2+y,1/2-z
3 -x,-y,-z
4 1/2+x,1/2-y,1/2+z
_cell_length_a                   14.1888(17)
_cell_length_b                   7.4699(11)
_cell_length_c                   18.278(2)
_cell_angle_alpha                90
_cell_angle_beta                 102.852(3)
_cell_angle_gamma                90
_cell_volume                     1888.73
_exptl_crystal_colour            colorless
_exptl_crystal_description       Block
_cell_formula_units_Z            4
loop_
_atom_site_label
_atom_site_type_symbol
_atom_site_fract_x
_atom_site_fract_y
_atom_site_fract_z
N1 N 0.27843(12) 0.2063(3) 0.20293(9)
N2 N 0.30917(14) 0.1872(3) 0.13711(10)
O1 O 0.45860(11) 0.2954(3) 0.18888(9)
C1 C 0.16335(15) 0.1746(3) 0.27604(11)
C2 C 0.12850(15) 0.0542(3) 0.13973(10)
N3 N 0.07307(13) -0.0727(3) 0.15673(10)
F1 F 0.49988(13) 0.1146(3) 0.06466(9)
F2 F 0.35508(13) 0.1490(3) 0.00818(8)
O2 O 0.13048(13) 0.0937(3) 0.07480(8)
C3 C 0.19442(15) 0.1476(3) 0.20475(10)
C4 C 0.39881(17) 0.2393(3) 0.13667(12)
F3 F 0.44885(18) 0.3738(3) 0.03628(10)
C5 C 0.4246(2) 0.2218(4) 0.05993(14)
C6 C 0.2296(2) 0.1536(4) 0.34385(12)
C7 C 0.0703(2) 0.2273(4) 0.27659(17)
C8 C 0.0129(2) -0.1832(4) 0.09912(13)
C9 C -0.0413(2) -0.3219(4) 0.13297(14)
C10 C -0.1675(2) -0.5652(4) 0.10633(13)
C11 C 0.2012(3) 0.1862(5) 0.41014(16)
C12 C -0.1085(3) -0.4318(6) 0.07378(16)
C13 C 0.1104(3) 0.2380(5) 0.4105(2)
C14 C 0.0446(3) 0.2591(5) 0.3445(2)
C15 C -0.1459(3) -0.7433(6) 0.1077(3)
C16 C -0.2460(3) -0.5092(7) 0.1334(2)
C17 C -0.3001(4) -0.6298(10) 0.1634(3)
C18 C -0.2772(5) -0.8060(10) 0.1651(3)
C19 C -0.2013(5) -0.8614(8) 0.1371(4)
H1 H 0.2695(17) 0.152(3) 0.0991(14)
H2 H 0.0773(15) -0.107(3) 0.1980(13)
H3 H 0.2933(17) 0.117(3) 0.3428(12)
H4 H 0.0251(19) 0.242(4) 0.2297(16)
H5 H 0.245(2) 0.173(5) 0.4523(19)
H6 H 0.084(2) 0.266(5) 0.456(2)
H7 H -0.017(3) 0.298(5) 0.3429(19)
H8 H -0.091(3) -0.777(5) 0.089(2)
H9 H 0.0508(17) -0.235(4) 0.0661(14)
H10 H -0.0295(19) -0.107(4) 0.0652(15)
H11 H -0.075(2) -0.270(4) 0.1687(18)
H12 H 0.006(2) -0.417(5) 0.1655(16)
H13 H -0.068(2) -0.490(5) 0.0411(19)
H14 H -0.151(3) -0.345(6) 0.035(2)
H15 H -0.260(3) -0.392(7) 0.135(3)
H16 H -0.320(4) -0.893(8) 0.186(3)
H17 H -0.359(3) -0.579(7) 0.182(3)
H18 H -0.183(4) -0.979(9) 0.132(3)
loop_
_geom_bond_atom_site_label_1
_geom_bond_atom_site_label_2
_geom_bond_site_symmetry_1
_geom_bond_site_symmetry_2
N1 N2 1_555 1_555
N2 C4 1_555 1_555
O1 C4 1_555 1_555
C1 C3 1_555 1_555
C2 N3 1_555 1_555
N3 C8 1_555 1_555
F1 C5 1_555 1_555
F2 C5 1_555 1_555
O2 C2 1_555 1_555
C3 N1 1_555 1_555
C4 C5 1_555 1_555
F3 C5 1_555 1_555
C6 C1 1_555 1_555
C7 C1 1_555 1_555
C8 C9 1_555 1_555
C9 C12 1_555 1_555
C10 C12 1_555 1_555
C11 C6 1_555 1_555
C12 H13 1_555 1_555
C13 C11 1_555 1_555
C14 C7 1_555 1_555
C15 C10 1_555 1_555
C16 C10 1_555 1_555
C17 C16 1_555 1_555
C18 C17 1_555 1_555
C19 C15 1_555 1_555
H1 N2 1_555 1_555
H2 N3 1_555 1_555
H3 C6 1_555 1_555
H4 C7 1_555 1_555
H5 C11 1_555 1_555
H6 C13 1_555 1_555
H7 C14 1_555 1_555
H8 C15 1_555 1_555
H9 C8 1_555 1_555
H10 C8 1_555 1_555
H11 C9 1_555 1_555
H12 C9 1_555 1_555
H14 C12 1_555 1_555
H15 C16 1_555 1_555
H16 C18 1_555 1_555
H17 C17 1_555 1_555
H18 C19 1_555 1_555
C2 C3 1_555 1_555
C13 C14 1_555 1_555
C18 C19 1_555 1_555

#END
