
#######################################################################
#
#                 Cambridge Crystallographic Data Centre
#                                CCDC 
#
#######################################################################
#
# If this CIF has been generated from an entry in the Cambridge 
# Structural Database, then it will include bibliographic, chemical, 
# crystal, experimental, refinement or atomic coordinate data resulting 
# from the CCDC's data processing and validation procedures.
#
#######################################################################

data_CEJWIA
_chemical_formula_moiety         'C23 H26 B10'
_chemical_name_systematic        
1-(2-methyl-4-(phenanthren-9-yl)phenyl)-1,2-dicarba-closo-dodecaborane
_symmetry_cell_setting           monoclinic
_symmetry_space_group_name_H-M   'P 21/n'
_symmetry_Int_Tables_number      14
_space_group_name_Hall           '-P 2yn'
loop_
_symmetry_equiv_pos_site_id
_symmetry_equiv_pos_as_xyz
1 x,y,z
2 1/2-x,1/2+y,1/2-z
3 -x,-y,-z
4 1/2+x,1/2-y,1/2+z
_cell_length_a                   10.5855(18)
_cell_length_b                   17.190(3)
_cell_length_c                   12.493(2)
_cell_angle_alpha                90
_cell_angle_beta                 90.796(4)
_cell_angle_gamma                90
_cell_volume                     2273.07
_exptl_crystal_colour            colorless
_exptl_crystal_description       block
_cell_formula_units_Z            4
loop_
_atom_site_label
_atom_site_type_symbol
_atom_site_fract_x
_atom_site_fract_y
_atom_site_fract_z
C1 C 0.6380(2) 0.81488(12) 0.40825(16)
C2 C 0.6332(2) 0.87953(12) 0.32482(16)
C3 C 0.6286(2) 0.63703(13) 0.65161(17)
C4 C 0.6311(2) 0.69992(13) 0.56969(16)
C5 C 0.6036(2) 0.49942(13) 0.69454(18)
C6 C 0.6489(2) 0.65433(13) 0.76371(17)
C7 C 0.7273(2) 0.70452(13) 0.49776(17)
H1 H 0.7916 0.6678 0.5030
C8 C 0.6424(2) 0.59322(14) 0.84019(17)
C9 C 0.7357(2) 0.76028(12) 0.41732(17)
C10 C 0.6183(2) 0.51415(13) 0.80408(18)
C11 C 0.6096(2) 0.56264(13) 0.62060(18)
H2 H 0.5999 0.5521 0.5479
C12 C 0.6771(2) 0.72977(14) 0.7990(2)
H3 H 0.6830 0.7698 0.7494
C13 C 0.5418(2) 0.81126(15) 0.48215(19)
H4 H 0.4777 0.8482 0.4785
C14 C 0.5812(2) 0.42344(14) 0.6588(2)
H5 H 0.5734 0.4138 0.5858
C15 C 0.4979(3) 0.92710(15) 0.3082(2)
C16 C 0.6616(2) 0.61232(17) 0.94825(19)
H6 H 0.6569 0.5732 0.9995
C17 C 0.5373(2) 0.75553(15) 0.5605(2)
H7 H 0.4703 0.7551 0.6079
C18 C 0.6081(3) 0.45038(16) 0.8748(2)
H8 H 0.6175 0.4585 0.9480
C19 C 0.6962(2) 0.74554(17) 0.9056(2)
H9 H 0.7153 0.7959 0.9277
C20 C 0.5705(3) 0.36353(16) 0.7291(2)
H10 H 0.5536 0.3135 0.7043
C21 C 0.6869(3) 0.68613(19) 0.9803(2)
H11 H 0.6980 0.6970 1.0528
C22 C 0.5848(3) 0.37735(17) 0.8376(2)
H12 H 0.5785 0.3363 0.8856
C23 C 0.8516(3) 0.75580(16) 0.3489(2)
H13 H 0.9144 0.7242 0.3841
H14 H 0.8846 0.8072 0.3381
H15 H 0.8297 0.7331 0.2810
B1 B 0.7058(3) 0.8791(2) 0.2039(2)
B2 B 0.6186(3) 0.97269(17) 0.3740(2)
B3 B 0.7536(3) 0.94360(18) 0.3057(2)
B4 B 0.5426(3) 0.86675(18) 0.2092(2)
B5 B 0.4731(3) 0.95720(18) 0.1803(2)
B6 B 0.6075(3) 0.9283(2) 0.1133(2)
B7 B 0.5932(3) 1.02479(18) 0.1582(2)
B8 B 0.7387(3) 0.9756(2) 0.1729(3)
B9 B 0.6839(4) 1.03427(19) 0.2781(3)
B10 B 0.5196(4) 1.02274(19) 0.2825(3)
H16 H 0.838(2) 0.9330(12) 0.3534(17)
H17 H 0.616(2) 0.9793(13) 0.4586(18)
H18 H 0.380(2) 0.9596(13) 0.1502(18)
H19 H 0.493(2) 0.8111(14) 0.2012(19)
H20 H 0.763(2) 0.8333(15) 0.1863(19)
H21 H 0.582(2) 1.0729(14) 0.0990(18)
H22 H 0.606(2) 0.9133(14) 0.029(2)
H23 H 0.819(2) 0.9896(14) 0.1263(19)
H24 H 0.426(2) 0.9097(13) 0.3544(18)
H25 H 0.450(3) 1.0586(16) 0.314(2)
H26 H 0.730(3) 1.0894(16) 0.304(2)
loop_
_geom_bond_atom_site_label_1
_geom_bond_atom_site_label_2
_geom_bond_site_symmetry_1
_geom_bond_site_symmetry_2
C1 C2 1_555 1_555
C2 C15 1_555 1_555
C3 C4 1_555 1_555
C4 C7 1_555 1_555
C5 C10 1_555 1_555
C6 C3 1_555 1_555
C7 H1 1_555 1_555
C8 C6 1_555 1_555
C9 C1 1_555 1_555
C10 C8 1_555 1_555
C11 C3 1_555 1_555
H2 C11 1_555 1_555
C12 C6 1_555 1_555
H3 C12 1_555 1_555
C13 C1 1_555 1_555
H4 C13 1_555 1_555
C14 C5 1_555 1_555
H5 C14 1_555 1_555
C15 B2 1_555 1_555
C16 C8 1_555 1_555
H6 C16 1_555 1_555
C17 C4 1_555 1_555
H7 C17 1_555 1_555
C18 C10 1_555 1_555
H8 C18 1_555 1_555
C19 C12 1_555 1_555
H9 C19 1_555 1_555
C20 C14 1_555 1_555
H10 C20 1_555 1_555
C21 C16 1_555 1_555
H11 C21 1_555 1_555
C22 C18 1_555 1_555
H12 C22 1_555 1_555
C23 C9 1_555 1_555
H13 C23 1_555 1_555
H14 C23 1_555 1_555
H15 C23 1_555 1_555
B1 C2 1_555 1_555
B2 C2 1_555 1_555
B3 C2 1_555 1_555
B4 C2 1_555 1_555
B5 C15 1_555 1_555
B6 B1 1_555 1_555
B7 B5 1_555 1_555
B8 B1 1_555 1_555
B9 B2 1_555 1_555
B10 C15 1_555 1_555
H16 B3 1_555 1_555
H17 B2 1_555 1_555
H18 B5 1_555 1_555
H19 B4 1_555 1_555
H20 B1 1_555 1_555
H21 B7 1_555 1_555
H22 B6 1_555 1_555
H23 B8 1_555 1_555
H24 C15 1_555 1_555
H25 B10 1_555 1_555
H26 B9 1_555 1_555
C5 C11 1_555 1_555
C7 C9 1_555 1_555
C13 C17 1_555 1_555
C15 B4 1_555 1_555
C19 C21 1_555 1_555
C20 C22 1_555 1_555
B1 B3 1_555 1_555
B1 B4 1_555 1_555
B2 B3 1_555 1_555
B2 B10 1_555 1_555
B3 B8 1_555 1_555
B3 B9 1_555 1_555
B4 B5 1_555 1_555
B4 B6 1_555 1_555
B5 B6 1_555 1_555
B5 B10 1_555 1_555
B6 B7 1_555 1_555
B6 B8 1_555 1_555
B7 B8 1_555 1_555
B7 B9 1_555 1_555
B7 B10 1_555 1_555
B8 B9 1_555 1_555
B9 B10 1_555 1_555

#END
