
#######################################################################
#
#                 Cambridge Crystallographic Data Centre
#                                CCDC 
#
#######################################################################
#
# If this CIF has been generated from an entry in the Cambridge 
# Structural Database, then it will include bibliographic, chemical, 
# crystal, experimental, refinement or atomic coordinate data resulting 
# from the CCDC's data processing and validation procedures.
#
#######################################################################

data_CEKDII
_chemical_formula_moiety         'C28 H28 B10'
_chemical_name_systematic        
1-phenyl-2-(4-(phenanthren-9-yl)phenyl)-1,2-dicarba-closo-dodecaborane(10)
_symmetry_cell_setting           triclinic
_symmetry_space_group_name_H-M   'P -1'
_symmetry_Int_Tables_number      2
_space_group_name_Hall           '-P 1'
loop_
_symmetry_equiv_pos_site_id
_symmetry_equiv_pos_as_xyz
1 x,y,z
2 -x,-y,-z
_cell_length_a                   10.150(8)
_cell_length_b                   10.488(8)
_cell_length_c                   14.222(11)
_cell_angle_alpha                86.883(14)
_cell_angle_beta                 85.628(14)
_cell_angle_gamma                62.289(12)
_cell_volume                     1336.12
_exptl_crystal_colour            colorless
_exptl_crystal_description       BLOCK
_cell_formula_units_Z            2
loop_
_atom_site_label
_atom_site_type_symbol
_atom_site_fract_x
_atom_site_fract_y
_atom_site_fract_z
B1 B 0.1531(3) 0.2035(3) 0.75546(16)
B2 B 0.4558(3) 0.1435(2) 0.76679(16)
B3 B 0.4559(3) -0.0094(3) 0.71918(16)
B4 B 0.1861(3) 0.2041(3) 0.87604(16)
B5 B 0.2664(3) 0.0280(3) 0.71263(17)
B6 B 0.3747(3) 0.1669(3) 0.88296(15)
B7 B 0.1837(3) 0.0531(3) 0.82794(17)
B8 B 0.3232(3) 0.0287(3) 0.90744(17)
B9 B 0.3726(3) -0.0797(3) 0.80649(17)
C1 C 0.2800(2) 0.5312(2) 0.17783(13)
C2 C 0.2900(2) 0.4427(2) 0.25911(13)
H1 H 0.3092 0.3480 0.2510
C3 C 0.4174(2) 0.3377(3) 0.48067(15)
H2 H 0.4967 0.3542 0.4581
C4 C 0.2094(2) 0.6970(2) 0.45311(14)
H3 H 0.2181 0.6372 0.5055
C5 C 0.3259(3) 0.4746(2) 0.74939(15)
H4 H 0.4267 0.4099 0.7416
C6 C 0.4299(2) 0.2575(3) 0.56268(14)
H5 H 0.5177 0.2197 0.5942
C7 C 0.1816(2) 0.8777(2) 0.29891(16)
H6 H 0.1703 0.9402 0.2476
C8 C 0.1892(3) 0.2804(3) 0.54571(15)
H7 H 0.1121 0.2592 0.5663
C9 C 0.1787(3) 0.3592(3) 0.46285(15)
H8 H 0.0951 0.3890 0.4279
C10 C 0.1714(3) 0.8382(3) 0.46566(17)
H9 H 0.1545 0.8736 0.5263
C11 C 0.1578(3) 0.9295(3) 0.38811(18)
H10 H 0.1326 1.0255 0.3970
C12 C 0.2428(3) 0.7580(3) 0.10616(16)
H11 H 0.2241 0.8531 0.1112
C13 C 0.3018(3) 0.4751(3) 0.08697(14)
H12 H 0.3215 0.3801 0.0802
C14 C 0.2797(4) 0.6202(3) 0.73522(17)
H13 H 0.3496 0.6521 0.7172
C15 C 0.0767(3) 0.5226(3) 0.7879(2)
H14 H 0.0062 0.4913 0.8055
C16 C 0.2645(3) 0.7001(3) 0.01882(16)
H15 H 0.2591 0.7568 -0.0348
C17 C 0.2945(4) 0.5583(3) 0.00933(16)
H16 H 0.3095 0.5201 -0.0504
C18 C 0.2726(2) 0.4911(2) 0.34792(12)
C19 C 0.2712(2) 0.2658(2) 0.79120(12)
C20 C 0.2249(2) 0.4235(2) 0.77494(13)
C21 C 0.2228(2) 0.7323(2) 0.28251(13)
C22 C 0.2483(2) 0.6755(2) 0.18792(13)
C23 C 0.2359(2) 0.6400(2) 0.36141(13)
C24 C 0.3138(2) 0.2327(2) 0.59844(13)
C25 C 0.2892(2) 0.3941(2) 0.43113(12)
C26 C 0.3202(2) 0.1592(2) 0.69228(12)
B10 B 0.4901(3) -0.0081(3) 0.83931(17)
C27 C 0.1333(4) 0.7174(3) 0.7473(2)
H17 H 0.1024 0.8153 0.7371
C28 C 0.0320(4) 0.6687(3) 0.7747(3)
H18 H -0.0681 0.7344 0.7847
H19 H 0.052(2) 0.281(2) 0.7248(13)
H20 H 0.603(2) -0.072(2) 0.8654(14)
H21 H 0.531(2) 0.187(2) 0.7418(13)
H22 H 0.403(2) -0.196(2) 0.8125(14)
H23 H 0.095(2) 0.027(2) 0.8466(14)
H24 H 0.408(2) 0.228(2) 0.9319(14)
H25 H 0.322(2) -0.015(2) 0.9789(15)
H26 H 0.535(2) -0.062(2) 0.6611(15)
H27 H 0.097(3) 0.284(2) 0.9202(16)
H28 H 0.227(2) -0.005(2) 0.6514(14)
loop_
_geom_bond_atom_site_label_1
_geom_bond_atom_site_label_2
_geom_bond_site_symmetry_1
_geom_bond_site_symmetry_2
B1 B4 1_555 1_555
B2 B3 1_555 1_555
B3 B5 1_555 1_555
B4 B6 1_555 1_555
B5 B1 1_555 1_555
B6 B2 1_555 1_555
B7 B1 1_555 1_555
B8 B4 1_555 1_555
B9 B3 1_555 1_555
C1 C2 1_555 1_555
C2 H1 1_555 1_555
C3 H2 1_555 1_555
C4 H3 1_555 1_555
C5 H4 1_555 1_555
C6 C3 1_555 1_555
H5 C6 1_555 1_555
C7 H6 1_555 1_555
C8 H7 1_555 1_555
C9 C8 1_555 1_555
H8 C9 1_555 1_555
C10 C4 1_555 1_555
H9 C10 1_555 1_555
C11 C7 1_555 1_555
H10 C11 1_555 1_555
C12 H11 1_555 1_555
C13 C1 1_555 1_555
H12 C13 1_555 1_555
C14 C5 1_555 1_555
H13 C14 1_555 1_555
C15 H14 1_555 1_555
C16 C12 1_555 1_555
H15 C16 1_555 1_555
C17 C13 1_555 1_555
H16 C17 1_555 1_555
C18 C2 1_555 1_555
C19 B1 1_555 1_555
C20 C5 1_555 1_555
C21 C7 1_555 1_555
C22 C1 1_555 1_555
C23 C4 1_555 1_555
C24 C6 1_555 1_555
C25 C3 1_555 1_555
C26 B1 1_555 1_555
B10 B2 1_555 1_555
C27 C14 1_555 1_555
H17 C27 1_555 1_555
C28 C15 1_555 1_555
H18 C28 1_555 1_555
H19 B1 1_555 1_555
H20 B10 1_555 1_555
H21 B2 1_555 1_555
H22 B9 1_555 1_555
H23 B7 1_555 1_555
H24 B6 1_555 1_555
H25 B8 1_555 1_555
H26 B3 1_555 1_555
H27 B4 1_555 1_555
H28 B5 1_555 1_555
B2 C19 1_555 1_555
B2 C26 1_555 1_555
B3 C26 1_555 1_555
B3 B10 1_555 1_555
B4 B7 1_555 1_555
B4 C19 1_555 1_555
B5 B7 1_555 1_555
B5 B9 1_555 1_555
B5 C26 1_555 1_555
B6 B8 1_555 1_555
B6 C19 1_555 1_555
B6 B10 1_555 1_555
B7 B8 1_555 1_555
B7 B9 1_555 1_555
B8 B9 1_555 1_555
B8 B10 1_555 1_555
B9 B10 1_555 1_555
C8 C24 1_555 1_555
C9 C25 1_555 1_555
C10 C11 1_555 1_555
C12 C22 1_555 1_555
C15 C20 1_555 1_555
C16 C17 1_555 1_555
C18 C23 1_555 1_555
C18 C25 1_555 1_555
C19 C20 1_555 1_555
C19 C26 1_555 1_555
C21 C22 1_555 1_555
C21 C23 1_555 1_555
C24 C26 1_555 1_555
C27 C28 1_555 1_555

#END
