
#######################################################################
#
#                 Cambridge Crystallographic Data Centre
#                                CCDC 
#
#######################################################################
#
# If this CIF has been generated from an entry in the Cambridge 
# Structural Database, then it will include bibliographic, chemical, 
# crystal, experimental, refinement or atomic coordinate data resulting 
# from the CCDC's data processing and validation procedures.
#
#######################################################################

data_CEKPUF
_chemical_formula_moiety         'C11 H13 N2 1+,C2 H6 O1 S1,Cl1 1-'
_chemical_name_systematic        
'7-amino-2,4-dimethylquinolinium chloride dimethyl sulfoxide solvate'
_symmetry_cell_setting           monoclinic
_symmetry_space_group_name_H-M   'P 21/n'
_symmetry_Int_Tables_number      14
_space_group_name_Hall           '-P 2yn'
loop_
_symmetry_equiv_pos_site_id
_symmetry_equiv_pos_as_xyz
1 x,y,z
2 1/2-x,1/2+y,1/2-z
3 -x,-y,-z
4 1/2+x,1/2-y,1/2+z
_cell_length_a                   6.9883(14)
_cell_length_b                   17.034(3)
_cell_length_c                   12.698(3)
_cell_angle_alpha                90
_cell_angle_beta                 99.88(3)
_cell_angle_gamma                90
_cell_volume                     1489.14
_exptl_crystal_colour            yellow
_exptl_crystal_description       block
_cell_formula_units_Z            4
loop_
_atom_site_label
_atom_site_type_symbol
_atom_site_fract_x
_atom_site_fract_y
_atom_site_fract_z
Cl1 Cl 0.19540(15) 0.21216(4) 0.16994(6)
S1 S 0.26131(11) 0.07626(4) 0.51350(5)
O1 O 0.2021(4) 0.01370(13) 0.4345(2)
C12 C 0.0662(5) 0.14391(18) 0.4986(3)
H1 H 0.0436 0.1641 0.4270
H2 H 0.0979 0.1864 0.5483
H3 H -0.0488 0.1179 0.5126
C13 C 0.4315(4) 0.13605(18) 0.4625(2)
H4 H 0.5481 0.1066 0.4610
H5 H 0.4611 0.1812 0.5075
H6 H 0.3774 0.1527 0.3914
N1 N 0.2764(2) 0.58673(10) 0.50370(14)
N2 N 0.2421(4) 0.39993(14) 0.22008(17)
C1 C 0.2605(2) 0.51054(11) 0.46731(15)
C2 C 0.2412(3) 0.45021(11) 0.54158(15)
C3 C 0.2394(3) 0.47039(14) 0.64935(16)
C4 C 0.2550(3) 0.54869(15) 0.67783(18)
C5 C 0.2740(3) 0.60672(12) 0.60511(17)
C6 C 0.2630(3) 0.49492(11) 0.36009(15)
C7 C 0.2428(3) 0.41811(11) 0.32249(16)
C8 C 0.2247(3) 0.35685(12) 0.39714(18)
C9 C 0.2242(3) 0.37233(12) 0.50145(17)
C10 C 0.2205(6) 0.4082(2) 0.7300(2)
C11 C 0.2908(5) 0.69178(16) 0.6335(3)
H7 H 0.285(4) 0.6241(18) 0.453(2)
H8 H 0.266(4) 0.4371(19) 0.172(2)
H9 H 0.231(3) 0.3573(17) 0.2034(19)
H10 H 0.257(4) 0.5621(18) 0.751(2)
H11 H 0.280(3) 0.5353(13) 0.3152(16)
H12 H 0.216(3) 0.3055(14) 0.3733(17)
H13 H 0.216(3) 0.3308(13) 0.5469(16)
H14 H 0.229(5) 0.433(2) 0.789(3)
H15 H 0.103(4) 0.3775(18) 0.712(2)
H16 H 0.329(4) 0.3712(17) 0.7309(19)
H17 H 0.277(5) 0.723(2) 0.571(3)
H18 H 0.190(4) 0.7069(16) 0.676(2)
H19 H 0.407(4) 0.7038(17) 0.678(2)
loop_
_geom_bond_atom_site_label_1
_geom_bond_atom_site_label_2
_geom_bond_site_symmetry_1
_geom_bond_site_symmetry_2
S1 O1 1_555 1_555
N1 C1 1_555 1_555
N2 C7 1_555 1_555
C1 C2 1_555 1_555
C2 C3 1_555 1_555
C3 C4 1_555 1_555
C4 C5 1_555 1_555
C5 N1 1_555 1_555
C6 C1 1_555 1_555
C7 C6 1_555 1_555
C8 C7 1_555 1_555
C9 C2 1_555 1_555
C10 C3 1_555 1_555
C11 C5 1_555 1_555
C12 S1 1_555 1_555
H1 C12 1_555 1_555
H2 C12 1_555 1_555
H3 C12 1_555 1_555
C13 S1 1_555 1_555
H4 C13 1_555 1_555
H5 C13 1_555 1_555
H6 C13 1_555 1_555
H7 N1 1_555 1_555
H8 N2 1_555 1_555
H9 N2 1_555 1_555
H10 C4 1_555 1_555
H11 C6 1_555 1_555
H12 C8 1_555 1_555
H13 C9 1_555 1_555
H14 C10 1_555 1_555
H15 C10 1_555 1_555
H16 C10 1_555 1_555
H17 C11 1_555 1_555
H18 C11 1_555 1_555
H19 C11 1_555 1_555
C8 C9 1_555 1_555

#END
