
#######################################################################
#
#                 Cambridge Crystallographic Data Centre
#                                CCDC 
#
#######################################################################
#
# If this CIF has been generated from an entry in the Cambridge 
# Structural Database, then it will include bibliographic, chemical, 
# crystal, experimental, refinement or atomic coordinate data resulting 
# from the CCDC's data processing and validation procedures.
#
#######################################################################

data_CEKROC
_chemical_formula_moiety         'C22 H23 B10 Cl1'
_chemical_name_systematic        
1-(2-chloro-4-(phenanthren-9-yl)phenyl)-1,2-dicarba-closo-dodecaborane(11)
_symmetry_cell_setting           monoclinic
_symmetry_space_group_name_H-M   'P 21/n'
_symmetry_Int_Tables_number      14
_space_group_name_Hall           '-P 2yn'
loop_
_symmetry_equiv_pos_site_id
_symmetry_equiv_pos_as_xyz
1 x,y,z
2 1/2-x,1/2+y,1/2-z
3 -x,-y,-z
4 1/2+x,1/2-y,1/2+z
_cell_length_a                   9.4971(10)
_cell_length_b                   19.198(2)
_cell_length_c                   12.3421(13)
_cell_angle_alpha                90
_cell_angle_beta                 92.790(3)
_cell_angle_gamma                90
_cell_volume                     2247.61
_exptl_crystal_colour            colorless
_exptl_crystal_description       block
_cell_formula_units_Z            4
loop_
_atom_site_label
_atom_site_type_symbol
_atom_site_fract_x
_atom_site_fract_y
_atom_site_fract_z
Cl1 Cl 0.53632(7) 0.54270(4) 0.27606(6)
C1 C 0.4474(3) 0.63887(16) 0.7523(2)
C2 C 0.7463(3) 0.60796(16) 0.4045(2)
C3 C 0.1981(3) 0.70480(16) 0.6640(2)
C4 C 0.8658(3) 0.59315(16) 0.3305(2)
C5 C 0.5073(3) 0.60164(16) 0.4665(2)
H1 H 0.4152 0.5859 0.4548
C6 C 0.6054(3) 0.58695(16) 0.3899(2)
C7 C 0.3333(3) 0.65262(16) 0.8192(2)
C8 C 0.2079(3) 0.68780(16) 0.7755(2)
C9 C 0.5430(3) 0.63916(16) 0.5600(2)
C10 C 0.4321(3) 0.65571(16) 0.6373(2)
C11 C 0.3114(3) 0.68593(17) 0.5974(2)
H2 H 0.3017 0.6948 0.5234
C12 C 0.0792(3) 0.74157(17) 0.6203(3)
H3 H 0.0729 0.7522 0.5467
C13 C 0.7796(3) 0.64736(17) 0.4977(3)
H4 H 0.8713 0.6637 0.5093
C14 C -0.0265(3) 0.76157(17) 0.6849(3)
H5 H -0.1031 0.7866 0.6558
C15 C 0.8575(3) 0.53325(17) 0.2340(3)
C16 C 0.5711(3) 0.60773(17) 0.7984(3)
H6 H 0.6468 0.5995 0.7552
C17 C 0.0959(3) 0.70889(17) 0.8398(3)
H7 H 0.1001 0.6986 0.9135
C18 C 0.6815(3) 0.66296(18) 0.5731(2)
H8 H 0.7082 0.6897 0.6334
C19 C -0.0187(3) 0.74407(18) 0.7956(3)
H9 H -0.0918 0.7565 0.8393
C20 C 0.5814(3) 0.58948(18) 0.9062(3)
H10 H 0.6639 0.5695 0.9355
C21 C 0.3469(3) 0.63157(18) 0.9293(2)
H11 H 0.2719 0.6386 0.9738
C22 C 0.4678(4) 0.60105(18) 0.9716(3)
H12 H 0.4743 0.5880 1.0442
B1 B 1.0368(3) 0.59675(19) 0.3831(3)
B2 B 1.1316(4) 0.5331(2) 0.3117(3)
B3 B 0.9574(4) 0.51520(19) 0.3486(3)
B4 B 1.1398(4) 0.6231(2) 0.2752(3)
B5 B 0.9703(4) 0.6605(2) 0.2901(3)
B6 B 1.1248(4) 0.5585(2) 0.1726(3)
B7 B 1.0123(4) 0.4921(2) 0.2175(3)
B8 B 0.9460(4) 0.5561(2) 0.1239(3)
B9 B 1.0234(4) 0.6372(2) 0.1598(3)
B10 B 0.8501(4) 0.6195(2) 0.1961(3)
H13 H 1.206(3) 0.5459(16) 0.117(2)
H14 H 1.055(3) 0.6090(18) 0.468(3)
H15 H 0.749(3) 0.6380(17) 0.169(2)
H16 H 1.235(3) 0.6545(18) 0.289(3)
H17 H 0.773(3) 0.5098(17) 0.226(3)
H18 H 1.219(3) 0.5069(18) 0.353(3)
H19 H 1.047(3) 0.6762(19) 0.099(3)
H20 H 0.948(3) 0.7127(19) 0.315(3)
H21 H 0.900(3) 0.5414(18) 0.048(3)
H22 H 0.917(3) 0.4769(19) 0.405(3)
H23 H 1.012(4) 0.436(2) 0.199(3)
loop_
_geom_bond_atom_site_label_1
_geom_bond_atom_site_label_2
_geom_bond_site_symmetry_1
_geom_bond_site_symmetry_2
Cl1 C6 1_555 1_555
C1 C7 1_555 1_555
C2 C4 1_555 1_555
C3 C8 1_555 1_555
C4 C15 1_555 1_555
C5 H1 1_555 1_555
C6 C2 1_555 1_555
C7 C8 1_555 1_555
C8 C17 1_555 1_555
C9 C5 1_555 1_555
C10 C1 1_555 1_555
C11 C3 1_555 1_555
H2 C11 1_555 1_555
C12 C3 1_555 1_555
H3 C12 1_555 1_555
C13 C2 1_555 1_555
H4 C13 1_555 1_555
C14 C12 1_555 1_555
H5 C14 1_555 1_555
C15 B3 1_555 1_555
C16 C1 1_555 1_555
H6 C16 1_555 1_555
C17 H7 1_555 1_555
C18 C9 1_555 1_555
H8 C18 1_555 1_555
C19 C14 1_555 1_555
H9 C19 1_555 1_555
C20 C16 1_555 1_555
H10 C20 1_555 1_555
C21 C7 1_555 1_555
H11 C21 1_555 1_555
C22 C20 1_555 1_555
H12 C22 1_555 1_555
B1 C4 1_555 1_555
B2 B1 1_555 1_555
B3 C4 1_555 1_555
B4 B1 1_555 1_555
B5 C4 1_555 1_555
B6 B2 1_555 1_555
B7 C15 1_555 1_555
B8 C15 1_555 1_555
B9 B4 1_555 1_555
B10 C4 1_555 1_555
H13 B6 1_555 1_555
H14 B1 1_555 1_555
H15 B10 1_555 1_555
H16 B4 1_555 1_555
H17 C15 1_555 1_555
H18 B2 1_555 1_555
H19 B9 1_555 1_555
H20 B5 1_555 1_555
H21 B8 1_555 1_555
H22 B3 1_555 1_555
H23 B7 1_555 1_555
C5 C6 1_555 1_555
C9 C10 1_555 1_555
C10 C11 1_555 1_555
C13 C18 1_555 1_555
C15 B10 1_555 1_555
C17 C19 1_555 1_555
C21 C22 1_555 1_555
B1 B3 1_555 1_555
B1 B5 1_555 1_555
B2 B3 1_555 1_555
B2 B4 1_555 1_555
B2 B7 1_555 1_555
B3 B7 1_555 1_555
B4 B5 1_555 1_555
B4 B6 1_555 1_555
B5 B9 1_555 1_555
B5 B10 1_555 1_555
B6 B7 1_555 1_555
B6 B8 1_555 1_555
B6 B9 1_555 1_555
B7 B8 1_555 1_555
B8 B9 1_555 1_555
B8 B10 1_555 1_555
B9 B10 1_555 1_555

#END
