
#######################################################################
#
#                 Cambridge Crystallographic Data Centre
#                                CCDC 
#
#######################################################################
#
# If this CIF has been generated from an entry in the Cambridge 
# Structural Database, then it will include bibliographic, chemical, 
# crystal, experimental, refinement or atomic coordinate data resulting 
# from the CCDC's data processing and validation procedures.
#
#######################################################################

data_CEKWOH
_chemical_formula_moiety         'C24 H22 Br1 N1 O2 S1'
_chemical_name_systematic        
2-(1-bromoethenyl)-4,4-diphenyl-1-(phenylsulfonyl)pyrrolidine
_symmetry_cell_setting           orthorhombic
_symmetry_space_group_name_H-M   'P 21 21 21'
_symmetry_Int_Tables_number      19
_space_group_name_Hall           'P 2ac 2ab'
loop_
_symmetry_equiv_pos_site_id
_symmetry_equiv_pos_as_xyz
1 x,y,z
2 1/2-x,-y,1/2+z
3 -x,1/2+y,1/2-z
4 1/2+x,1/2-y,-z
_cell_length_a                   9.99780(10)
_cell_length_b                   13.09560(10)
_cell_length_c                   16.7225(2)
_cell_angle_alpha                90
_cell_angle_beta                 90
_cell_angle_gamma                90
_cell_volume                     2189.43
_exptl_crystal_description       block
_cell_formula_units_Z            4
loop_
_atom_site_label
_atom_site_type_symbol
_atom_site_fract_x
_atom_site_fract_y
_atom_site_fract_z
Br1 Br 0.43622(7) 0.58402(5) 0.37769(4)
S1 S 0.13260(8) 0.55108(6) 0.53397(5)
O1 O 0.1098(3) 0.5713(3) 0.61713(17)
O2 O 0.0365(3) 0.4939(2) 0.4890(2)
N1 N 0.2737(3) 0.4915(2) 0.52722(18)
C1 C 0.4335(3) 0.3803(3) 0.58259(19)
C2 C 0.6899(4) 0.3695(3) 0.5814(3)
H1 H 0.6881 0.3651 0.5259
C3 C 0.3445(3) 0.2949(3) 0.61589(18)
C4 C 0.2234(4) 0.3111(3) 0.6547(2)
H2 H 0.1903 0.3771 0.6602
C5 C 0.5704(3) 0.3752(3) 0.6229(2)
C6 C 0.1540(4) 0.6693(3) 0.4853(2)
C7 C 0.3058(4) 0.4202(3) 0.46218(19)
H3 H 0.2371 0.3668 0.4597
C8 C 0.4383(4) 0.3731(3) 0.4904(2)
H4 H 0.5139 0.4110 0.4693
H5 H 0.4454 0.3025 0.4732
C9 C 0.5755(4) 0.3801(4) 0.7062(2)
H6 H 0.4966 0.3847 0.7355
C10 C 0.3736(4) 0.4879(2) 0.5918(2)
H7 H 0.3320 0.4964 0.6437
H8 H 0.4414 0.5401 0.5847
C11 C 0.3890(4) 0.1944(3) 0.6070(3)
H9 H 0.4685 0.1816 0.5798
C12 C 0.1040(5) 0.6834(3) 0.4092(3)
H10 H 0.0539 0.6321 0.3851
C13 C 0.1519(4) 0.2297(4) 0.6850(3)
H11 H 0.0714 0.2415 0.7113
C14 C 0.1984(5) 0.1307(3) 0.6769(3)
H12 H 0.1499 0.0763 0.6978
C15 C 0.8120(5) 0.3701(4) 0.6204(4)
H13 H 0.8912 0.3677 0.5913
C16 C 0.2291(5) 0.7455(4) 0.5219(3)
H14 H 0.2629 0.7363 0.5732
C17 C 0.8152(5) 0.3744(4) 0.7028(4)
H15 H 0.8968 0.3746 0.7296
C18 C 0.3166(5) 0.1137(3) 0.6379(3)
H16 H 0.3484 0.0473 0.6322
C19 C 0.3207(5) 0.4689(4) 0.3808(3)
C20 C 0.1280(6) 0.7734(4) 0.3688(3)
H17 H 0.0928 0.7832 0.3179
C21 C 0.2038(7) 0.8484(4) 0.4036(4)
H18 H 0.2225 0.9081 0.3756
C22 C 0.2525(6) 0.8355(4) 0.4802(5)
H19 H 0.3015 0.8876 0.5041
C23 C 0.6977(6) 0.3782(5) 0.7454(3)
H20 H 0.7002 0.3796 0.8010
C24 C 0.2684(9) 0.4300(7) 0.3160(3)
H21 H 0.2194 0.3698 0.3187
H22 H 0.2802 0.4627 0.2671
loop_
_geom_bond_atom_site_label_1
_geom_bond_atom_site_label_2
_geom_bond_site_symmetry_1
_geom_bond_site_symmetry_2
Br1 C19 1_555 1_555
S1 O1 1_555 1_555
O2 S1 1_555 1_555
N1 S1 1_555 1_555
C1 C3 1_555 1_555
C2 H1 1_555 1_555
C3 C4 1_555 1_555
C4 H2 1_555 1_555
C5 C1 1_555 1_555
C6 S1 1_555 1_555
C7 N1 1_555 1_555
H3 C7 1_555 1_555
C8 C1 1_555 1_555
H4 C8 1_555 1_555
H5 C8 1_555 1_555
C9 C5 1_555 1_555
H6 C9 1_555 1_555
C10 N1 1_555 1_555
H7 C10 1_555 1_555
H8 C10 1_555 1_555
C11 C3 1_555 1_555
H9 C11 1_555 1_555
C12 C6 1_555 1_555
H10 C12 1_555 1_555
C13 C4 1_555 1_555
H11 C13 1_555 1_555
C14 C13 1_555 1_555
H12 C14 1_555 1_555
C15 C2 1_555 1_555
H13 C15 1_555 1_555
C16 C6 1_555 1_555
H14 C16 1_555 1_555
C17 C15 1_555 1_555
H15 C17 1_555 1_555
C18 C11 1_555 1_555
H16 C18 1_555 1_555
C19 C7 1_555 1_555
C20 C12 1_555 1_555
H17 C20 1_555 1_555
C21 C20 1_555 1_555
H18 C21 1_555 1_555
C22 C16 1_555 1_555
H19 C22 1_555 1_555
C23 C9 1_555 1_555
H20 C23 1_555 1_555
C24 C19 1_555 1_555
H21 C24 1_555 1_555
H22 C24 1_555 1_555
C1 C10 1_555 1_555
C2 C5 1_555 1_555
C7 C8 1_555 1_555
C14 C18 1_555 1_555
C17 C23 1_555 1_555
C21 C22 1_555 1_555

#END
