
#######################################################################
#
#                 Cambridge Crystallographic Data Centre
#                                CCDC 
#
#######################################################################
#
# If this CIF has been generated from an entry in the Cambridge 
# Structural Database, then it will include bibliographic, chemical, 
# crystal, experimental, refinement or atomic coordinate data resulting 
# from the CCDC's data processing and validation procedures.
#
#######################################################################

data_CELNIR
_chemical_formula_moiety         'C28 H30 Br1 N3 O4'
_chemical_name_systematic        
1-(1-Amino-4-bromo-9,10-dioxo-9,10-dihydroanthracene-2-carbonyl)-1,3-dicyclohexylurea
_symmetry_cell_setting           monoclinic
_symmetry_space_group_name_H-M   'C 2/c'
_symmetry_Int_Tables_number      15
_space_group_name_Hall           '-C 2yn'
loop_
_symmetry_equiv_pos_site_id
_symmetry_equiv_pos_as_xyz
1 x,y,z
2 1/2+x,1/2+y,z
3 -x,y,1/2-z
4 1/2-x,1/2+y,1/2-z
5 -x,-y,-z
6 1/2-x,1/2-y,-z
7 x,-y,1/2+z
8 1/2+x,1/2-y,1/2+z
_cell_length_a                   20.725(6)
_cell_length_b                   9.727(3)
_cell_length_c                   25.306(7)
_cell_angle_alpha                90
_cell_angle_beta                 96.095(4)
_cell_angle_gamma                90
_cell_volume                     5072.65
_exptl_crystal_colour            red
_exptl_crystal_description       lamellar
_chemical_melting_point          '558-560 K'
_cell_formula_units_Z            8
_exptl_crystal_recrystallization_method dimethylformamide
loop_
_atom_site_label
_atom_site_type_symbol
_atom_site_fract_x
_atom_site_fract_y
_atom_site_fract_z
Br1 Br 0.02259(2) 0.87783(4) 0.177974(19)
O1 O 0.01793(13) 0.2110(3) 0.14725(11)
O2 O -0.07001(15) 0.7114(3) 0.11035(13)
O3 O 0.13060(10) 0.4226(2) 0.33055(9)
O4 O 0.24075(12) 0.7628(2) 0.26289(9)
N1 N 0.08687(14) 0.2865(3) 0.23465(12)
H1 H 0.1046 0.2720 0.2676
H2 H 0.0661 0.2170 0.2178
N2 N 0.20622(12) 0.5665(2) 0.30319(9)
N3 N 0.24832(12) 0.5585(2) 0.22228(9)
H3 H 0.2416 0.4717 0.2250
C1 C 0.08699(15) 0.6603(3) 0.23276(13)
H4 H 0.1068 0.7328 0.2522
C2 C 0.04130(15) 0.6893(3) 0.18992(13)
C3 C 0.01350(15) 0.5830(4) 0.15881(13)
C4 C -0.03753(18) 0.6075(4) 0.11316(16)
C5 C -0.04808(17) 0.4994(5) 0.07270(14)
C6 C -0.0817(2) 0.5296(6) 0.02335(18)
H5 H -0.0992 0.6166 0.0166
C7 C -0.0886(3) 0.4295(8) -0.0152(2)
H6 H -0.1092 0.4508 -0.0487
C8 C -0.0657(3) 0.3004(8) -0.00534(19)
H7 H -0.0714 0.2339 -0.0318
C9 C -0.0341(2) 0.2667(5) 0.04404(16)
H8 H -0.0191 0.1777 0.0511
C10 C -0.02509(17) 0.3681(5) 0.08284(14)
C11 C 0.00859(16) 0.3321(4) 0.13600(14)
C12 C 0.03225(14) 0.4461(3) 0.17134(12)
C13 C 0.07353(14) 0.4158(3) 0.21806(13)
C14 C 0.10359(14) 0.5289(3) 0.24724(11)
C15 C 0.14791(15) 0.5005(3) 0.29687(12)
C16 C 0.24618(15) 0.5578(3) 0.35528(11)
H9 H 0.2271 0.4855 0.3757
C17 C 0.2438(2) 0.6885(4) 0.38667(14)
H10 H 0.1990 0.7099 0.3914
H11 H 0.2609 0.7635 0.3671
C18 C 0.2831(2) 0.6753(5) 0.44104(15)
H12 H 0.2839 0.7633 0.4591
H13 H 0.2622 0.6093 0.4624
C19 C 0.3505(2) 0.6304(5) 0.43637(16)
H14 H 0.3733 0.7025 0.4195
H15 H 0.3727 0.6155 0.4716
C20 C 0.3525(2) 0.5031(5) 0.40519(15)
H16 H 0.3344 0.4284 0.4244
H17 H 0.3973 0.4804 0.4013
C21 C 0.31452(18) 0.5157(5) 0.34978(14)
H18 H 0.3350 0.5835 0.3290
H19 H 0.3147 0.4281 0.3314
C22 C 0.23285(14) 0.6394(3) 0.26063(12)
C23 C 0.27625(14) 0.6083(3) 0.17532(12)
H20 H 0.2890 0.7044 0.1817
C24 C 0.22695(16) 0.6040(4) 0.12656(13)
H21 H 0.1906 0.6633 0.1321
H22 H 0.2106 0.5110 0.1213
C25 C 0.25696(18) 0.6506(4) 0.07729(14)
H23 H 0.2252 0.6423 0.0464
H24 H 0.2693 0.7466 0.0811
C26 C 0.31610(19) 0.5651(4) 0.06891(13)
H25 H 0.3032 0.4703 0.0622
H26 H 0.3353 0.5988 0.0381
C27 C 0.36552(17) 0.5722(4) 0.11728(13)
H27 H 0.3814 0.6658 0.1218
H28 H 0.4021 0.5137 0.1118
C28 C 0.33687(15) 0.5271(3) 0.16726(12)
H29 H 0.3263 0.4300 0.1647
H30 H 0.3688 0.5398 0.1978
loop_
_geom_bond_atom_site_label_1
_geom_bond_atom_site_label_2
_geom_bond_site_symmetry_1
_geom_bond_site_symmetry_2
Br1 C2 1_555 1_555
O1 C11 1_555 1_555
O2 C4 1_555 1_555
O3 C15 1_555 1_555
O4 C22 1_555 1_555
N1 H1 1_555 1_555
H2 N1 1_555 1_555
N2 C15 1_555 1_555
N3 H3 1_555 1_555
C1 H4 1_555 1_555
C2 C1 1_555 1_555
C3 C2 1_555 1_555
C4 C3 1_555 1_555
C5 C4 1_555 1_555
C6 C5 1_555 1_555
H5 C6 1_555 1_555
C7 C6 1_555 1_555
H6 C7 1_555 1_555
C8 C7 1_555 1_555
H7 C8 1_555 1_555
C9 C8 1_555 1_555
H8 C9 1_555 1_555
C10 C5 1_555 1_555
C11 C10 1_555 1_555
C12 C3 1_555 1_555
C13 N1 1_555 1_555
C14 C1 1_555 1_555
C15 C14 1_555 1_555
C16 N2 1_555 1_555
H9 C16 1_555 1_555
C17 C16 1_555 1_555
H10 C17 1_555 1_555
H11 C17 1_555 1_555
C18 C17 1_555 1_555
H12 C18 1_555 1_555
H13 C18 1_555 1_555
C19 C18 1_555 1_555
H14 C19 1_555 1_555
H15 C19 1_555 1_555
C20 C19 1_555 1_555
H16 C20 1_555 1_555
H17 C20 1_555 1_555
C21 C16 1_555 1_555
H18 C21 1_555 1_555
H19 C21 1_555 1_555
C22 N2 1_555 1_555
C23 N3 1_555 1_555
H20 C23 1_555 1_555
C24 C23 1_555 1_555
H21 C24 1_555 1_555
H22 C24 1_555 1_555
C25 C24 1_555 1_555
H23 C25 1_555 1_555
H24 C25 1_555 1_555
C26 C25 1_555 1_555
H25 C26 1_555 1_555
H26 C26 1_555 1_555
C27 C26 1_555 1_555
H27 C27 1_555 1_555
H28 C27 1_555 1_555
C28 C23 1_555 1_555
H29 C28 1_555 1_555
H30 C28 1_555 1_555
N3 C22 1_555 1_555
C9 C10 1_555 1_555
C11 C12 1_555 1_555
C12 C13 1_555 1_555
C13 C14 1_555 1_555
C20 C21 1_555 1_555
C27 C28 1_555 1_555

#END
