
#######################################################################
#
#                 Cambridge Crystallographic Data Centre
#                                CCDC 
#
#######################################################################
#
# If this CIF has been generated from an entry in the Cambridge 
# Structural Database, then it will include bibliographic, chemical, 
# crystal, experimental, refinement or atomic coordinate data resulting 
# from the CCDC's data processing and validation procedures.
#
#######################################################################

data_CELPEP
_chemical_formula_moiety         'C13 H8 I1 N3 O5'
_chemical_name_systematic        
N-(2-Hydroxy-3-iodo-5-nitrobenzylidene)-3-nitroaniline
_symmetry_cell_setting           monoclinic
_symmetry_space_group_name_H-M   'P 21/n'
_symmetry_Int_Tables_number      14
_space_group_name_Hall           '-P 2yn'
loop_
_symmetry_equiv_pos_site_id
_symmetry_equiv_pos_as_xyz
1 x,y,z
2 1/2-x,1/2+y,1/2-z
3 -x,-y,-z
4 1/2+x,1/2-y,1/2+z
_cell_length_a                   9.2957(4)
_cell_length_b                   27.5905(13)
_cell_length_c                   11.0084(5)
_cell_angle_alpha                90
_cell_angle_beta                 93.830(2)
_cell_angle_gamma                90
_cell_volume                     2817.05
_exptl_crystal_colour            colorless
_exptl_crystal_description       plate
_cell_formula_units_Z            8
_exptl_crystal_recrystallization_method ethanol
loop_
_atom_site_label
_atom_site_type_symbol
_atom_site_fract_x
_atom_site_fract_y
_atom_site_fract_z
C1 C 0.7396(4) 0.32517(14) 0.2209(4)
C2 C 0.8625(4) 0.30384(15) 0.1745(4)
C3 C 0.8740(4) 0.25305(14) 0.1702(4)
C4 C 0.7664(4) 0.22415(14) 0.2109(4)
C5 C 0.6448(4) 0.24585(14) 0.2533(4)
C6 C 0.6301(4) 0.29554(15) 0.2596(4)
O1 O 0.9685(3) 0.33075(10) 0.1356(3)
I1 I 1.06008(3) 0.222130(10) 0.10789(3)
N1 N 0.5291(4) 0.21515(14) 0.2923(3)
O2 O 0.5482(3) 0.17160(12) 0.2999(4)
O3 O 0.4151(3) 0.23460(11) 0.3152(3)
C7 C 0.7259(4) 0.37732(14) 0.2311(4)
N2 N 0.8246(3) 0.40571(12) 0.1978(3)
C8 C 0.8200(4) 0.45685(14) 0.2106(4)
C9 C 0.7079(4) 0.48208(14) 0.2607(4)
C10 C 0.7214(4) 0.53096(14) 0.2715(4)
C11 C 0.8390(5) 0.55672(16) 0.2374(5)
C12 C 0.9482(5) 0.53111(17) 0.1880(5)
C13 C 0.9380(5) 0.48180(17) 0.1743(5)
N3 N 0.6041(4) 0.55855(14) 0.3252(4)
O4 O 0.4970(4) 0.53663(12) 0.3453(4)
O5 O 0.6206(4) 0.60154(12) 0.3412(4)
H1 H 0.7751 0.1906 0.2099
H2 H 0.5479 0.3091 0.2893
H3 H 0.9468 0.3595 0.1396
H4 H 0.6439 0.3904 0.2625
H5 H 0.6270 0.4660 0.2858
H6 H 0.8445 0.5902 0.2473
H7 H 1.0292 0.5473 0.1639
H8 H 1.0119 0.4650 0.1399
C14 C 0.0925(4) 0.30637(14) 0.4377(4)
C15 C -0.0316(4) 0.32694(15) 0.4857(4)
C16 C -0.0414(4) 0.37800(15) 0.4930(4)
C17 C 0.0665(4) 0.40661(15) 0.4539(4)
C18 C 0.1856(4) 0.38511(15) 0.4065(4)
C19 C 0.2002(4) 0.33623(15) 0.3984(4)
O6 O -0.1357(3) 0.29980(10) 0.5232(3)
I2 I -0.22515(3) 0.408833(11) 0.56081(3)
N4 N 0.3001(4) 0.41635(15) 0.3659(4)
O7 O 0.2877(4) 0.45952(13) 0.3771(5)
O8 O 0.4033(3) 0.39706(12) 0.3204(4)
C20 C 0.1070(4) 0.25474(15) 0.4298(4)
N5 N 0.0085(3) 0.22593(12) 0.4636(3)
C21 C 0.0187(4) 0.17463(14) 0.4586(4)
C22 C -0.0938(4) 0.14925(15) 0.5043(4)
C23 C -0.0864(4) 0.09943(15) 0.5059(4)
C24 C 0.0262(5) 0.07417(16) 0.4619(4)
C25 C 0.1353(5) 0.10006(16) 0.4145(4)
C26 C 0.1336(4) 0.14985(16) 0.4124(4)
N6 N -0.2059(4) 0.07247(15) 0.5560(4)
O9 O -0.3092(4) 0.09588(12) 0.5844(4)
O10 O -0.1970(4) 0.02889(12) 0.5645(4)
H9 H 0.0601 0.4402 0.4590
H10 H 0.2817 0.3229 0.3669
H11 H -0.1174 0.2712 0.5111
H12 H 0.1897 0.2418 0.3995
H13 H -0.1725 0.1654 0.5333
H14 H 0.0285 0.0405 0.4641
H15 H 0.2119 0.0836 0.3833
H16 H 0.2086 0.1669 0.3803
loop_
_geom_bond_atom_site_label_1
_geom_bond_atom_site_label_2
_geom_bond_site_symmetry_1
_geom_bond_site_symmetry_2
C1 C2 1_555 1_555
C2 C3 1_555 1_555
C3 C4 1_555 1_555
C4 C5 1_555 1_555
C5 C6 1_555 1_555
C6 C1 1_555 1_555
O1 C2 1_555 1_555
I1 C3 1_555 1_555
N1 C5 1_555 1_555
O2 N1 1_555 1_555
O3 N1 1_555 1_555
C7 C1 1_555 1_555
N2 C7 1_555 1_555
C8 N2 1_555 1_555
C9 C8 1_555 1_555
C10 C9 1_555 1_555
C11 C10 1_555 1_555
C12 C11 1_555 1_555
C13 C8 1_555 1_555
N3 C10 1_555 1_555
O4 N3 1_555 1_555
O5 N3 1_555 1_555
H1 C4 1_555 1_555
H2 C6 1_555 1_555
H3 O1 1_555 1_555
H4 C7 1_555 1_555
H5 C9 1_555 1_555
H6 C11 1_555 1_555
H7 C12 1_555 1_555
H8 C13 1_555 1_555
C14 C15 1_555 1_555
C15 C16 1_555 1_555
C16 C17 1_555 1_555
C17 C18 1_555 1_555
C18 C19 1_555 1_555
C19 C14 1_555 1_555
O6 C15 1_555 1_555
I2 C16 1_555 1_555
N4 C18 1_555 1_555
O7 N4 1_555 1_555
O8 N4 1_555 1_555
C20 C14 1_555 1_555
N5 C20 1_555 1_555
C21 N5 1_555 1_555
C22 C21 1_555 1_555
C23 C22 1_555 1_555
C24 C23 1_555 1_555
C25 C24 1_555 1_555
C26 C21 1_555 1_555
N6 C23 1_555 1_555
O9 N6 1_555 1_555
O10 N6 1_555 1_555
H9 C17 1_555 1_555
H10 C19 1_555 1_555
H11 O6 1_555 1_555
H12 C20 1_555 1_555
H13 C22 1_555 1_555
H14 C24 1_555 1_555
H15 C25 1_555 1_555
H16 C26 1_555 1_555
C12 C13 1_555 1_555
C25 C26 1_555 1_555

#END
