
#######################################################################
#
#                 Cambridge Crystallographic Data Centre
#                                CCDC 
#
#######################################################################
#
# If this CIF has been generated from an entry in the Cambridge 
# Structural Database, then it will include bibliographic, chemical, 
# crystal, experimental, refinement or atomic coordinate data resulting 
# from the CCDC's data processing and validation procedures.
#
#######################################################################

data_CELTES10
_chemical_formula_moiety         'C11 H8 O1 S1'
_chemical_name_systematic        2-Benzoyl-thiophene
_symmetry_cell_setting           orthorhombic
_symmetry_space_group_name_H-M   'P 21 21 21'
_symmetry_Int_Tables_number      19
_space_group_name_Hall           'P 2ac 2ab'
loop_
_symmetry_equiv_pos_site_id
_symmetry_equiv_pos_as_xyz
1 x,y,z
2 1/2+x,1/2-y,-z
3 -x,1/2+y,1/2-z
4 1/2-x,-y,1/2+z
_cell_length_a                   11.945(4)
_cell_length_b                   10.236(7)
_cell_length_c                   7.649(4)
_cell_angle_alpha                90
_cell_angle_beta                 90
_cell_angle_gamma                90
_cell_volume                     935.236
_cell_formula_units_Z            4
loop_
_atom_site_label
_atom_site_type_symbol
_atom_site_fract_x
_atom_site_fract_y
_atom_site_fract_z
S1 S 0.4778(1) 0.1861(1) 0.3889(2)
O1 O 0.4333(3) 0.4630(5) 0.4937(7)
C1 C 0.5675(4) 0.2974(5) 0.4857(7)
C2 C 0.6638(4) 0.2354(5) 0.5440(8)
C3 C 0.6629(5) 0.1001(6) 0.5074(11)
C4 C 0.5691(6) 0.0598(6) 0.4257(10)
C5 C 0.5328(4) 0.4334(5) 0.5035(7)
C6 C 0.6185(3) 0.5363(3) 0.5289(5)
C7 C 0.7254(3) 0.5296(3) 0.4563(5)
C8 C 0.8004(3) 0.6326(3) 0.4797(5)
C9 C 0.7684(3) 0.7423(3) 0.5758(5)
C10 C 0.6614(3) 0.7489(3) 0.6484(5)
C11 C 0.5865(3) 0.6459(3) 0.6250(5)
H1 H 0.7316 0.2849 0.6098
H2 H 0.7308 0.0353 0.5416
H3 H 0.5533 -0.0402 0.3879
H4 H 0.7502(3) 0.4447(3) 0.3819(5)
H5 H 0.8832(3) 0.6275(3) 0.4235(5)
H6 H 0.8265(3) 0.8220(3) 0.5945(5)
H7 H 0.6367(3) 0.8338(3) 0.7228(5)
H8 H 0.5036(3) 0.6511(3) 0.6812(5)
loop_
_geom_bond_atom_site_label_1
_geom_bond_atom_site_label_2
_geom_bond_site_symmetry_1
_geom_bond_site_symmetry_2
S1 C1 1_555 1_555
O1 C5 1_555 1_555
C1 C2 1_555 1_555
C2 C3 1_555 1_555
C3 C4 1_555 1_555
C4 S1 1_555 1_555
C5 C1 1_555 1_555
C6 C5 1_555 1_555
C7 C6 1_555 1_555
C8 C7 1_555 1_555
C9 C8 1_555 1_555
C10 C9 1_555 1_555
C11 C6 1_555 1_555
H1 C2 1_555 1_555
H2 C3 1_555 1_555
H3 C4 1_555 1_555
H4 C7 1_555 1_555
H5 C8 1_555 1_555
H6 C9 1_555 1_555
H7 C10 1_555 1_555
H8 C11 1_555 1_555
C10 C11 1_555 1_555

#END
