
#######################################################################
#
#                 Cambridge Crystallographic Data Centre
#                                CCDC 
#
#######################################################################
#
# If this CIF has been generated from an entry in the Cambridge 
# Structural Database, then it will include bibliographic, chemical, 
# crystal, experimental, refinement or atomic coordinate data resulting 
# from the CCDC's data processing and validation procedures.
#
#######################################################################

data_CEMBRE01
_chemical_name_common            Cembrene
_chemical_formula_moiety         'C20 H32'
_chemical_name_systematic        
1-Isopropyl-4,8,12-trimethylcyclotetradeca-2,4,7,11-tetraene
_chemical_properties_biological  'possible physiological activity'
_symmetry_cell_setting           orthorhombic
_symmetry_space_group_name_H-M   'P 21 21 21'
_symmetry_Int_Tables_number      19
_space_group_name_Hall           'P 2ac 2ab'
loop_
_symmetry_equiv_pos_site_id
_symmetry_equiv_pos_as_xyz
1 x,y,z
2 1/2+x,1/2-y,-z
3 -x,1/2+y,1/2-z
4 1/2-x,-y,1/2+z
_cell_length_a                   6.243(1)
_cell_length_b                   13.888(6)
_cell_length_c                   21.650(7)
_cell_angle_alpha                90
_cell_angle_beta                 90
_cell_angle_gamma                90
_cell_volume                     1877.12
_exptl_crystal_colour            colorless
_chemical_melting_point          59-60deg.C
_cell_formula_units_Z            4
loop_
_atom_site_label
_atom_site_type_symbol
_atom_site_fract_x
_atom_site_fract_y
_atom_site_fract_z
C1 C 0.5560(13) 0.0805(5) 0.2209(3)
C2 C 0.6759(12) -0.0155(5) 0.2052(4)
C3 C 0.6136(14) -0.0742(5) 0.1584(3)
C4 C 0.7296(13) -0.1626(5) 0.1426(3)
C5 C 0.6683(15) -0.2170(5) 0.0957(4)
C6 C 0.4795(18) -0.1955(5) 0.0527(4)
C7 C 0.5118(16) -0.1075(5) 0.0109(3)
C8 C 0.3736(15) -0.0392(6) 0.0029(3)
C9 C 0.4381(18) 0.0466(5) -0.0360(4)
C10 C 0.4466(18) 0.1416(6) 0.0004(4)
C11 C 0.6097(16) 0.1360(5) 0.0502(3)
C12 C 0.6109(13) 0.1958(6) 0.0995(3)
C13 C 0.7823(14) 0.1860(6) 0.1486(4)
C14 C 0.7058(16) 0.1679(6) 0.2147(4)
C15 C 0.1509(17) -0.0299(10) 0.0326(5)
H1 H 0.0843 0.0289 0.0194
H2 H 0.1656 -0.0295 0.0767
H3 H 0.0640 -0.0836 0.0204
C16 C 0.4589(20) 0.2769(7) 0.1097(5)
H4 H 0.4943 0.3090 0.1476
H5 H 0.3153 0.2524 0.1121
H6 H 0.4694 0.3215 0.0760
C17 C 0.4457(16) 0.0752(7) 0.2847(3)
H7 H 0.3863 0.1378 0.2924
C18 C 0.6025(17) 0.0582(8) 0.3387(4)
H8 H 0.5248 0.0572 0.3769
H9 H 0.7064 0.1092 0.3396
H10 H 0.6742 -0.0023 0.3330
C19 C 0.2638(18) 0.0027(9) 0.2844(5)
H11 H 0.1967 0.0017 0.3243
H12 H 0.3171 -0.0603 0.2748
H13 H 0.1611 0.0218 0.2538
C20 C 0.9289(16) -0.1897(7) 0.1799(5)
H14 H 0.9499 -0.1442 0.2127
H15 H 1.0519 -0.1895 0.1533
H16 H 0.9099 -0.2529 0.1970
loop_
_geom_bond_atom_site_label_1
_geom_bond_atom_site_label_2
_geom_bond_site_symmetry_1
_geom_bond_site_symmetry_2
C1 C2 1_555 1_555
C2 C3 1_555 1_555
C3 C4 1_555 1_555
C4 C5 1_555 1_555
C5 C6 1_555 1_555
C6 C7 1_555 1_555
C7 C8 1_555 1_555
C8 C9 1_555 1_555
C9 C10 1_555 1_555
C10 C11 1_555 1_555
C11 C12 1_555 1_555
C12 C13 1_555 1_555
C13 C14 1_555 1_555
C14 C1 1_555 1_555
C15 C8 1_555 1_555
H1 C15 1_555 1_555
H2 C15 1_555 1_555
H3 C15 1_555 1_555
C16 C12 1_555 1_555
H4 C16 1_555 1_555
H5 C16 1_555 1_555
H6 C16 1_555 1_555
C17 C1 1_555 1_555
H7 C17 1_555 1_555
C18 C17 1_555 1_555
H8 C18 1_555 1_555
H9 C18 1_555 1_555
H10 C18 1_555 1_555
C19 C17 1_555 1_555
H11 C19 1_555 1_555
H12 C19 1_555 1_555
H13 C19 1_555 1_555
C20 C4 1_555 1_555
H14 C20 1_555 1_555
H15 C20 1_555 1_555
H16 C20 1_555 1_555

#END
