
#######################################################################
#
#                 Cambridge Crystallographic Data Centre
#                                CCDC 
#
#######################################################################
#
# If this CIF has been generated from an entry in the Cambridge 
# Structural Database, then it will include bibliographic, chemical, 
# crystal, experimental, refinement or atomic coordinate data resulting 
# from the CCDC's data processing and validation procedures.
#
#######################################################################

data_CEMQUG
_chemical_formula_moiety         'C10 H12 O2,H2 O1'
_chemical_name_systematic        
'trans-1,4-Diethynylcyclohexane-1,4-diol monohydrate'
_symmetry_cell_setting           monoclinic
_symmetry_space_group_name_H-M   'P 21/c'
_symmetry_Int_Tables_number      14
_space_group_name_Hall           '-P 2ybc'
loop_
_symmetry_equiv_pos_site_id
_symmetry_equiv_pos_as_xyz
1 x,y,z
2 -x,1/2+y,1/2-z
3 -x,-y,-z
4 x,1/2-y,1/2+z
_cell_length_a                   9.925(2)
_cell_length_b                   6.1343(12)
_cell_length_c                   16.725(3)
_cell_angle_alpha                90
_cell_angle_beta                 104.12(3)
_cell_angle_gamma                90
_cell_volume                     987.502
_exptl_crystal_colour            colorless
_exptl_crystal_description       block
_cell_formula_units_Z            4
loop_
_atom_site_label
_atom_site_type_symbol
_atom_site_fract_x
_atom_site_fract_y
_atom_site_fract_z
O1 O 0.5801(3) 0.0888(4) 0.85373(17)
H1 H 0.6079(6) -0.0334(8) 0.8222(3)
C1 C 0.3001(3) -0.2507(4) 0.83121(17)
H2 H 0.2194(7) -0.3582(10) 0.7981(5)
C2 C 0.3916(2) -0.1333(4) 0.86785(15)
C3 C 0.5089(2) 0.0038(3) 0.91205(14)
C4 C 0.6073(2) -0.1359(4) 0.97772(14)
H3 H 0.6394(6) -0.2792(8) 0.9481(3)
H4 H 0.6998(5) -0.0353(8) 1.0031(3)
C5 C 0.4591(2) 0.2021(3) 0.95291(14)
H5 H 0.3836(5) 0.2963(8) 0.9060(3)
H6 H 0.5510(5) 0.3051(8) 0.9768(3)
C5B C 0.5409(2) -0.2021(3) 1.04709(14)
C3B C 0.4911(2) -0.0038(3) 1.08795(14)
O1B O 0.4199(3) -0.0888(4) 1.14627(17)
H1B H 0.3921(6) 0.0334(8) 1.1778(3)
C2B C 0.6084(2) 0.1333(4) 1.13215(15)
C1B C 0.6999(3) 0.2507(4) 1.16879(17)
H2B H 0.7806(7) 0.3582(10) 1.2019(5)
C4B C 0.3927(2) 0.1359(4) 1.02228(14)
H3B H 0.3606(6) 0.2792(8) 1.0519(3)
H4B H 0.3002(5) 0.0353(8) 0.9969(3)
H5B H 0.6164(5) -0.2963(8) 1.0940(3)
H6B H 0.4490(5) -0.3051(8) 1.0232(3)
O2 O 0.7598(3) -0.5574(4) 0.87393(18)
H7 H 0.7106(5) -0.7004(8) 0.8710(3)
C6 C 1.0574(3) -0.7927(5) 0.8400(2)
H8 H 1.1209(10) -0.8862(18) 0.8088(6)
C7 C 0.9860(3) -0.6958(4) 0.87693(18)
C8 C 0.8997(2) -0.5704(3) 0.92163(15)
C9 C 0.9528(2) -0.3356(4) 0.93489(16)
H9 H 0.9541(6) -0.2630(8) 0.8757(3)
H10 H 0.8757(5) -0.2439(8) 0.9601(4)
C10 C 0.9033(2) -0.6780(4) 1.00513(16)
H11 H 0.8719(6) -0.8473(9) 0.9963(4)
H12 H 0.8261(5) -0.5960(9) 1.0322(4)
C10B C 1.0967(2) -0.3220(4) 0.99487(16)
C8B C 1.1003(2) -0.4296(3) 1.07837(15)
O2B O 1.2402(3) -0.4426(4) 1.12607(18)
H7B H 1.2894(5) -0.2996(8) 1.1290(3)
C7B C 1.0140(3) -0.3042(4) 1.12307(18)
C6B C 0.9426(3) -0.2073(5) 1.1600(2)
H8B H 0.8791(10) -0.1138(18) 1.1912(6)
C9B C 1.0472(2) -0.6644(4) 1.06511(16)
H9B H 1.0459(6) -0.7370(8) 1.1243(3)
H10B H 1.1243(5) -0.7561(8) 1.0399(4)
H11B H 1.1281(6) -0.1527(9) 1.0037(4)
H12B H 1.1739(5) -0.4040(9) 0.9678(4)
O3 O 0.3478(3) 0.2265(5) 0.2343(2)
H13 H 0.4305(6) 0.2810(10) 0.2742(4)
H14 H 0.3101(6) 0.3525(9) 0.2017(4)
loop_
_geom_bond_atom_site_label_1
_geom_bond_atom_site_label_2
_geom_bond_site_symmetry_1
_geom_bond_site_symmetry_2
O1 H1 1_555 1_555
C1 H2 1_555 1_555
C2 C1 1_555 1_555
C3 O1 1_555 1_555
C4 C3 1_555 1_555
H3 C4 1_555 1_555
H4 C4 1_555 1_555
C5 C3 1_555 1_555
H5 C5 1_555 1_555
H6 C5 1_555 1_555
O2 H7 1_555 1_555
C6 H8 1_555 1_555
C7 C6 1_555 1_555
C8 O2 1_555 1_555
C9 C8 1_555 1_555
H9 C9 1_555 1_555
H10 C9 1_555 1_555
C10 C8 1_555 1_555
H11 C10 1_555 1_555
H12 C10 1_555 1_555
O3 H13 1_555 1_555
H14 O3 1_555 1_555
C5B C4 1_555 1_555
C3B C5B 1_555 1_555
O1B C3B 1_555 1_555
H1B O1B 1_555 1_555
C2B C3B 1_555 1_555
C1B C2B 1_555 1_555
H2B C1B 1_555 1_555
C4B C5 1_555 1_555
H3B C4B 1_555 1_555
H4B C4B 1_555 1_555
H5B C5B 1_555 1_555
H6B C5B 1_555 1_555
C10B C9 1_555 1_555
C8B C10B 1_555 1_555
O2B C8B 1_555 1_555
H7B O2B 1_555 1_555
C7B C8B 1_555 1_555
C6B C7B 1_555 1_555
H8B C6B 1_555 1_555
C9B C10 1_555 1_555
H9B C9B 1_555 1_555
H10B C9B 1_555 1_555
H11B C10B 1_555 1_555
H12B C10B 1_555 1_555
C2 C3 1_555 1_555
C7 C8 1_555 1_555
C3B C4B 1_555 1_555
C8B C9B 1_555 1_555

#END
