
#######################################################################
#
#                 Cambridge Crystallographic Data Centre
#                                CCDC 
#
#######################################################################
#
# If this CIF has been generated from an entry in the Cambridge 
# Structural Database, then it will include bibliographic, chemical, 
# crystal, experimental, refinement or atomic coordinate data resulting 
# from the CCDC's data processing and validation procedures.
#
#######################################################################

data_CENBUU
_chemical_formula_moiety         'C13 H13 N1 O2 S1'
_chemical_name_systematic        
'Methyl 3-methyl-3,5-dihydro-2H-thiopyrano[4,3,2-cd]indole-2-carboxylate'
_symmetry_cell_setting           orthorhombic
_symmetry_space_group_name_H-M   'P b c a'
_symmetry_Int_Tables_number      61
_space_group_name_Hall           '-P 2ac 2ab'
loop_
_symmetry_equiv_pos_site_id
_symmetry_equiv_pos_as_xyz
1 x,y,z
2 1/2-x,-y,1/2+z
3 -x,1/2+y,1/2-z
4 1/2+x,1/2-y,-z
5 -x,-y,-z
6 1/2+x,y,1/2-z
7 x,1/2-y,1/2+z
8 1/2-x,1/2+y,z
_cell_length_a                   8.132(5)
_cell_length_b                   12.907(7)
_cell_length_c                   23.129(13)
_cell_angle_alpha                90
_cell_angle_beta                 90
_cell_angle_gamma                90
_cell_volume                     2427.61
_exptl_crystal_colour            yellow
_exptl_crystal_description       block
_cell_formula_units_Z            8
loop_
_atom_site_label
_atom_site_type_symbol
_atom_site_fract_x
_atom_site_fract_y
_atom_site_fract_z
C1 C -0.1140(4) 0.6908(2) 0.19907(11)
C2 C -0.1678(4) 0.7926(3) 0.20121(13)
H1 H -0.2128 0.8204 0.2348
C3 C -0.1523(4) 0.8504(2) 0.15208(14)
H2 H -0.1884 0.9187 0.1528
C4 C -0.0851(4) 0.8122(2) 0.10108(13)
H3 H -0.0750 0.8546 0.0688
C5 C -0.0336(3) 0.7103(2) 0.09906(10)
C6 C -0.0493(3) 0.64917(19) 0.14785(10)
C7 C -0.0079(3) 0.5441(2) 0.15751(10)
C8 C -0.0446(4) 0.5248(2) 0.21391(11)
H4 H -0.0282 0.4620 0.2327
C9 C 0.0567(3) 0.4768(2) 0.10991(11)
H5 H -0.0394 0.4505 0.0890
C10 C 0.1558(3) 0.5416(2) 0.06659(10)
H6 H 0.1816 0.4956 0.0341
C11 C 0.3183(3) 0.57935(19) 0.08984(10)
C12 C 0.5917(4) 0.6195(3) 0.06613(16)
H7 H 0.5795 0.6874 0.0825
H8 H 0.6620 0.6232 0.0329
H9 H 0.6395 0.5739 0.0943
C13 C 0.1516(4) 0.3825(2) 0.13087(15)
H10 H 0.2426 0.4045 0.1543
H11 H 0.1918 0.3442 0.0982
H12 H 0.0802 0.3391 0.1534
N1 N -0.1093(4) 0.6124(2) 0.23873(11)
O1 O 0.3430(3) 0.60694(17) 0.13828(8)
O2 O 0.4320(2) 0.58039(16) 0.04912(8)
S1 S 0.04686(9) 0.65255(6) 0.03600(3)
H13 H -0.141(4) 0.616(2) 0.2718(14)
loop_
_geom_bond_atom_site_label_1
_geom_bond_atom_site_label_2
_geom_bond_site_symmetry_1
_geom_bond_site_symmetry_2
C1 C2 1_555 1_555
C2 H1 1_555 1_555
C3 C2 1_555 1_555
H2 C3 1_555 1_555
C4 C3 1_555 1_555
H3 C4 1_555 1_555
C5 C4 1_555 1_555
C6 C1 1_555 1_555
C7 C6 1_555 1_555
C8 C7 1_555 1_555
H4 C8 1_555 1_555
C9 C7 1_555 1_555
H5 C9 1_555 1_555
C10 C9 1_555 1_555
H6 C10 1_555 1_555
C11 C10 1_555 1_555
C12 H7 1_555 1_555
H8 C12 1_555 1_555
H9 C12 1_555 1_555
C13 C9 1_555 1_555
H10 C13 1_555 1_555
H11 C13 1_555 1_555
H12 C13 1_555 1_555
N1 C1 1_555 1_555
O1 C11 1_555 1_555
O2 C11 1_555 1_555
S1 C5 1_555 1_555
H13 N1 1_555 1_555
C5 C6 1_555 1_555
C8 N1 1_555 1_555
C10 S1 1_555 1_555
C12 O2 1_555 1_555

#END
