
#######################################################################
#
#                 Cambridge Crystallographic Data Centre
#                                CCDC 
#
#######################################################################
#
# If this CIF has been generated from an entry in the Cambridge 
# Structural Database, then it will include bibliographic, chemical, 
# crystal, experimental, refinement or atomic coordinate data resulting 
# from the CCDC's data processing and validation procedures.
#
#######################################################################

data_CENWAW
_chemical_formula_moiety         'C41 H51 Mg1 N3 O2'
_chemical_name_systematic        
(2,2'-(1,2-phenylenebis((azanylylidene)methylylidene))bis(4,6-di-t-butylphenolato))-pyridine-magnesium
_symmetry_cell_setting           orthorhombic
_symmetry_space_group_name_H-M   'P b c m'
_symmetry_Int_Tables_number      57
_space_group_name_Hall           '-P 2c 2b'
loop_
_symmetry_equiv_pos_site_id
_symmetry_equiv_pos_as_xyz
1 x,y,z
2 -x,-y,1/2+z
3 -x,1/2+y,1/2-z
4 x,1/2-y,-z
5 -x,-y,-z
6 x,y,1/2-z
7 x,1/2-y,1/2+z
8 -x,1/2+y,z
_cell_length_a                   15.3150(13)
_cell_length_b                   10.4439(8)
_cell_length_c                   23.1937(15)
_cell_angle_alpha                90
_cell_angle_beta                 90
_cell_angle_gamma                90
_cell_volume                     3709.79
_exptl_crystal_colour            yellow
_exptl_crystal_description       needle
_cell_formula_units_Z            4
loop_
_atom_site_label
_atom_site_type_symbol
_atom_site_fract_x
_atom_site_fract_y
_atom_site_fract_z
Mg1 Mg 0.29488(5) 0.36358(8) 0.750000
O1 O 0.23445(7) 0.44072(11) 0.68528(5)
N1 N 0.40251(9) 0.33550(14) 0.69322(6)
N2 N 0.24146(13) 0.17494(19) 0.750000
C1 C 0.25180(10) 0.45725(16) 0.63077(7)
C2 C 0.33446(11) 0.42308(17) 0.60657(7)
C3 C 0.35030(11) 0.43877(17) 0.54676(7)
H1 H 0.405751 0.415203 0.531782
C4 C 0.28888(10) 0.48646(17) 0.50985(7)
C5 C 0.20870(11) 0.52415(17) 0.53492(7)
H2 H 0.165659 0.559574 0.510112
C6 C 0.18825(10) 0.51342(16) 0.59256(7)
C7 C 0.40459(10) 0.36932(17) 0.63944(7)
H3 H 0.458356 0.357135 0.619761
C8 C 0.30131(11) 0.49788(18) 0.44449(7)
C9 C 0.39068(12) 0.4490(2) 0.42534(7)
H4 H 0.436537 0.498591 0.444557
H5 H 0.396333 0.458583 0.383470
H6 H 0.396519 0.358418 0.435686
C10 C 0.29259(14) 0.6386(2) 0.42617(8)
H7 H 0.235145 0.671020 0.437708
H8 H 0.298742 0.645139 0.384214
H9 H 0.338316 0.689375 0.444887
C11 C 0.23107(12) 0.4171(2) 0.41404(8)
H10 H 0.236182 0.327627 0.426342
H11 H 0.239252 0.422520 0.372204
H12 H 0.173058 0.449645 0.424177
C12 C 0.09903(10) 0.55603(17) 0.61577(7)
C13 C 0.04910(11) 0.43791(18) 0.63808(8)
H13 H 0.043316 0.375075 0.606929
H14 H -0.009060 0.463963 0.651231
H15 H 0.081273 0.399568 0.670261
C14 C 0.04254(11) 0.6194(2) 0.56926(7)
H16 H 0.072897 0.694702 0.553969
H17 H -0.013332 0.645709 0.586098
H18 H 0.031952 0.558278 0.537965
C15 C 0.11045(11) 0.65497(17) 0.66444(7)
H19 H 0.143622 0.616453 0.696143
H20 H 0.052942 0.681751 0.678507
H21 H 0.142061 0.729651 0.649649
C16 C 0.47740(10) 0.28023(16) 0.71952(7)
C17 C 0.54660(10) 0.22290(17) 0.69009(7)
H22 H 0.546249 0.220572 0.649149
C18 C 0.61564(11) 0.16947(17) 0.72000(7)
H23 H 0.663174 0.132685 0.699553
C19 C 0.15358(16) 0.1622(3) 0.750000
H24 H 0.119058 0.237784 0.750000
C20 C 0.1122(2) 0.0480(3) 0.750000
H25 H 0.050212 0.043920 0.750000
C21 C 0.1603(2) -0.0598(3) 0.750000
H26 H 0.132271 -0.140973 0.750000
C22 C 0.2479(2) -0.0527(3) 0.750000
H27 H 0.281892 -0.128695 0.750000
C23 C 0.28839(18) 0.0659(3) 0.750000
H28 H 0.350342 0.070374 0.750000
O1E O 0.23445(7) 0.44072(11) 0.81472(5)
N1E N 0.40251(9) 0.33550(14) 0.80678(6)
C1E C 0.25180(10) 0.45725(16) 0.86923(7)
C2E C 0.33446(11) 0.42308(17) 0.89343(7)
C3E C 0.35030(11) 0.43877(17) 0.95324(7)
H1E H 0.405751 0.415203 0.968218
C4E C 0.28888(10) 0.48646(17) 0.99015(7)
C5E C 0.20870(11) 0.52415(17) 0.96508(7)
H2E H 0.165659 0.559574 0.989888
C6E C 0.18825(10) 0.51342(16) 0.90744(7)
C7E C 0.40459(10) 0.36932(17) 0.86056(7)
H3E H 0.458356 0.357135 0.880239
C8E C 0.30131(11) 0.49788(18) 1.05551(7)
C9E C 0.39068(12) 0.4490(2) 1.07466(7)
H4E H 0.436537 0.498591 1.055443
H5E H 0.396333 0.458583 1.116530
H6E H 0.396519 0.358418 1.064314
C10E C 0.29259(14) 0.6386(2) 1.07383(8)
H7E H 0.235145 0.671020 1.062292
H8E H 0.298742 0.645139 1.115786
H9E H 0.338316 0.689375 1.055113
C11E C 0.23107(12) 0.4171(2) 1.08596(8)
H10E H 0.236182 0.327627 1.073658
H11E H 0.239252 0.422520 1.127796
H12E H 0.173058 0.449645 1.075823
C12E C 0.09903(10) 0.55603(17) 0.88423(7)
C13E C 0.04910(11) 0.43791(18) 0.86192(8)
H13E H 0.043316 0.375075 0.893071
H14E H -0.009060 0.463963 0.848769
H15E H 0.081273 0.399568 0.829739
C14E C 0.04254(11) 0.6194(2) 0.93074(7)
H16E H 0.072897 0.694702 0.946031
H17E H -0.013332 0.645709 0.913902
H18E H 0.031952 0.558278 0.962035
C15E C 0.11045(11) 0.65497(17) 0.83556(7)
H19E H 0.143622 0.616453 0.803857
H20E H 0.052942 0.681751 0.821493
H21E H 0.142061 0.729651 0.850351
C16E C 0.47740(10) 0.28023(16) 0.78048(7)
C17E C 0.54660(10) 0.22290(17) 0.80991(7)
H22E H 0.546249 0.220572 0.850851
C18E C 0.61564(11) 0.16947(17) 0.78000(7)
H23E H 0.663174 0.132685 0.800447
loop_
_geom_bond_atom_site_label_1
_geom_bond_atom_site_label_2
_geom_bond_site_symmetry_1
_geom_bond_site_symmetry_2
Mg1 O1 1_555 1_555
O1 C1 1_555 1_555
N1 Mg1 1_555 1_555
N2 Mg1 1_555 1_555
C1 C2 1_555 1_555
C2 C3 1_555 1_555
C3 H1 1_555 1_555
C4 C3 1_555 1_555
C5 C4 1_555 1_555
H2 C5 1_555 1_555
C6 C1 1_555 1_555
C7 N1 1_555 1_555
H3 C7 1_555 1_555
C8 C4 1_555 1_555
C9 C8 1_555 1_555
H4 C9 1_555 1_555
H5 C9 1_555 1_555
H6 C9 1_555 1_555
C10 C8 1_555 1_555
H7 C10 1_555 1_555
H8 C10 1_555 1_555
H9 C10 1_555 1_555
C11 C8 1_555 1_555
H10 C11 1_555 1_555
H11 C11 1_555 1_555
H12 C11 1_555 1_555
C12 C6 1_555 1_555
C13 C12 1_555 1_555
H13 C13 1_555 1_555
H14 C13 1_555 1_555
H15 C13 1_555 1_555
C14 C12 1_555 1_555
H16 C14 1_555 1_555
H17 C14 1_555 1_555
H18 C14 1_555 1_555
C15 C12 1_555 1_555
H19 C15 1_555 1_555
H20 C15 1_555 1_555
H21 C15 1_555 1_555
C16 N1 1_555 1_555
C17 C16 1_555 1_555
H22 C17 1_555 1_555
C18 C17 1_555 1_555
H23 C18 1_555 1_555
C19 N2 1_555 1_555
H24 C19 1_555 1_555
C20 C19 1_555 1_555
H25 C20 1_555 1_555
C21 C20 1_555 1_555
H26 C21 1_555 1_555
C22 C21 1_555 1_555
H27 C22 1_555 1_555
C23 N2 1_555 1_555
H28 C23 1_555 1_555
O1E Mg1 1_555 1_555
N1E Mg1 1_555 1_555
C1E O1E 1_555 1_555
C2E C1E 1_555 1_555
C3E C2E 1_555 1_555
H1E C3E 1_555 1_555
C4E C3E 1_555 1_555
C5E C4E 1_555 1_555
H2E C5E 1_555 1_555
C6E C1E 1_555 1_555
C7E N1E 1_555 1_555
H3E C7E 1_555 1_555
C8E C4E 1_555 1_555
C9E C8E 1_555 1_555
H4E C9E 1_555 1_555
H5E C9E 1_555 1_555
H6E C9E 1_555 1_555
C10E C8E 1_555 1_555
H7E C10E 1_555 1_555
H8E C10E 1_555 1_555
H9E C10E 1_555 1_555
C11E C8E 1_555 1_555
H10E C11E 1_555 1_555
H11E C11E 1_555 1_555
H12E C11E 1_555 1_555
C12E C6E 1_555 1_555
C13E C12E 1_555 1_555
H13E C13E 1_555 1_555
H14E C13E 1_555 1_555
H15E C13E 1_555 1_555
C14E C12E 1_555 1_555
H16E C14E 1_555 1_555
H17E C14E 1_555 1_555
H18E C14E 1_555 1_555
C15E C12E 1_555 1_555
H19E C15E 1_555 1_555
H20E C15E 1_555 1_555
H21E C15E 1_555 1_555
C16E C16 1_555 1_555
C17E C16E 1_555 1_555
H22E C17E 1_555 1_555
C18E C18 1_555 1_555
H23E C18E 1_555 1_555
C2 C7 1_555 1_555
C5 C6 1_555 1_555
C22 C23 1_555 1_555
N1E C16E 1_555 1_555
C2E C7E 1_555 1_555
C5E C6E 1_555 1_555
C17E C18E 1_555 1_555

#END
