
#######################################################################
#
#                 Cambridge Crystallographic Data Centre
#                                CCDC 
#
#######################################################################
#
# If this CIF has been generated from an entry in the Cambridge 
# Structural Database, then it will include bibliographic, chemical, 
# crystal, experimental, refinement or atomic coordinate data resulting 
# from the CCDC's data processing and validation procedures.
#
#######################################################################

data_CENWEA
_chemical_formula_moiety         'C72 H92 Mg2 N4 O4'
_chemical_name_systematic        
"bis(\m-2,2'-(1,2-phenylenebis(azanylylidenemethylylidene))bis(4,6-di-t-butylphenolato))-di-magnesium unknown solvate"
_symmetry_cell_setting           triclinic
_symmetry_space_group_name_H-M   'P -1'
_symmetry_Int_Tables_number      2
_space_group_name_Hall           '-P 1'
loop_
_symmetry_equiv_pos_site_id
_symmetry_equiv_pos_as_xyz
1 x,y,z
2 -x,-y,-z
_cell_length_a                   14.8661(5)
_cell_length_b                   16.0444(5)
_cell_length_c                   17.4467(7)
_cell_angle_alpha                111.017(2)
_cell_angle_beta                 104.364(2)
_cell_angle_gamma                102.666(2)
_cell_volume                     3537.72
_exptl_crystal_colour            yellow
_exptl_crystal_description       block
_cell_formula_units_Z            2
loop_
_atom_site_label
_atom_site_type_symbol
_atom_site_fract_x
_atom_site_fract_y
_atom_site_fract_z
Mg1 Mg 0.34009(6) 0.76492(5) 0.39043(5)
Mg2 Mg 0.35009(6) 0.57497(5) 0.37858(5)
O1 O 0.23857(12) 0.77858(11) 0.30655(11)
O2 O 0.38415(12) 0.66211(11) 0.31936(11)
O3 O 0.28888(12) 0.66808(11) 0.43557(10)
O4 O 0.24276(12) 0.45468(11) 0.30912(11)
N1 N 0.35130(15) 0.90019(14) 0.48417(14)
N2 N 0.49444(15) 0.83218(14) 0.47435(14)
N3 N 0.47169(14) 0.64884(14) 0.50400(13)
N4 N 0.44706(14) 0.49603(14) 0.36590(13)
C1 C 0.18363(18) 0.83244(17) 0.31316(17)
C2 C 0.20505(19) 0.91298(17) 0.39381(17)
C3 C 0.14891(19) 0.97384(18) 0.39808(18)
H1 H 0.165297 1.027260 0.452354
C4 C 0.07140(19) 0.95863(18) 0.32658(18)
C5 C 0.04853(19) 0.87704(18) 0.24918(18)
H2 H -0.006261 0.864063 0.199567
C6 C 0.10012(18) 0.81359(18) 0.23958(17)
C7 C 0.28892(19) 0.94326(17) 0.47180(17)
H3 H 0.299821 1.001438 0.519683
C8 C 0.0167(2) 1.0305(2) 0.3318(2)
C9 C 0.0924(2) 1.1290(2) 0.3641(2)
H4 H 0.139592 1.147913 0.422792
H5 H 0.058308 1.175194 0.366728
H6 H 0.127848 1.126930 0.323308
C10 C -0.0387(3) 1.0331(2) 0.3939(3)
H7 H -0.086663 0.969840 0.373141
H8 H -0.073488 1.078710 0.395901
H9 H 0.008011 1.052444 0.452898
C11 C -0.0565(2) 1.0067(2) 0.2406(2)
H10 H -0.021145 1.003339 0.199614
H11 H -0.086187 1.056370 0.245695
H12 H -0.108441 0.945439 0.218568
C12 C 0.07048(19) 0.72866(19) 0.15008(17)
C13 C 0.0575(2) 0.6352(2) 0.15920(19)
H13 H 0.120575 0.638239 0.196584
H14 H 0.036022 0.582078 0.100923
H15 H 0.007722 0.625859 0.185912
C14 C 0.1515(2) 0.7468(2) 0.11180(19)
H16 H 0.154925 0.803357 0.101461
H17 H 0.135820 0.691780 0.056082
H18 H 0.215219 0.756781 0.153448
C15 C -0.0273(2) 0.7152(2) 0.08324(19)
H19 H -0.080375 0.704838 0.106284
H20 H -0.042728 0.660100 0.027657
H21 H -0.021091 0.772138 0.073125
C16 C 0.46854(18) 0.67446(17) 0.30232(17)
C17 C 0.55863(19) 0.74005(18) 0.37009(18)
C18 C 0.6493(2) 0.74544(19) 0.3576(2)
H22 H 0.708827 0.787127 0.405528
C19 C 0.6543(2) 0.6923(2) 0.2781(2)
C20 C 0.5630(2) 0.6334(2) 0.2096(2)
H23 H 0.564623 0.597836 0.153431
C21 C 0.4703(2) 0.62290(18) 0.21733(18)
C22 C 0.56617(19) 0.81021(17) 0.45325(18)
H24 H 0.630459 0.843638 0.496925
C23 C 0.7513(3) 0.6997(3) 0.2614(3)
C24 C 0.7601(3) 0.6014(3) 0.2234(3)
H25 H 0.761506 0.574946 0.266200
H26 H 0.821075 0.606448 0.210625
H27 H 0.703234 0.559582 0.169074
C25 C 0.8415(2) 0.7629(3) 0.3471(3)
H28 H 0.837414 0.826515 0.373163
H29 H 0.902268 0.767370 0.333940
H30 H 0.842103 0.734885 0.388699
C26 C 0.7510(3) 0.7434(4) 0.1959(3)
H31 H 0.696629 0.701077 0.139939
H32 H 0.813904 0.751689 0.186143
H33 H 0.742471 0.805249 0.219931
C27 C 0.3759(2) 0.56442(19) 0.13569(17)
C28 C 0.3136(2) 0.4798(2) 0.14266(19)
H34 H 0.353734 0.441211 0.152975
H35 H 0.256583 0.441072 0.087790
H36 H 0.290505 0.502840 0.191689
C29 C 0.3977(2) 0.5249(2) 0.05041(19)
H37 H 0.435744 0.577615 0.042826
H38 H 0.335347 0.489036 0.000129
H39 H 0.435879 0.482921 0.054045
C30 C 0.3153(2) 0.6283(2) 0.12634(19)
H40 H 0.299352 0.653947 0.179394
H41 H 0.254023 0.591163 0.075052
H42 H 0.353664 0.680714 0.118597
C31 C 0.43741(19) 0.94542(17) 0.56210(17)
C32 C 0.51367(19) 0.90813(17) 0.55651(17)
C33 C 0.6010(2) 0.94625(19) 0.63004(18)
H43 H 0.651847 0.919469 0.627468
C34 C 0.6135(2) 1.0223(2) 0.70590(19)
H44 H 0.673094 1.048474 0.755281
C35 C 0.5386(2) 1.0607(2) 0.71005(19)
H45 H 0.547878 1.113911 0.762057
C36 C 0.4508(2) 1.02208(19) 0.63927(18)
H46 H 0.399490 1.047924 0.643285
C37 C 0.29451(18) 0.70520(16) 0.51962(16)
C38 C 0.38567(18) 0.73513(17) 0.58866(16)
C39 C 0.39794(19) 0.79195(18) 0.67606(17)
H47 H 0.460415 0.813874 0.721259
C40 C 0.32072(19) 0.81649(18) 0.69742(17)
C41 C 0.22848(19) 0.77511(18) 0.62944(17)
H48 H 0.173777 0.787179 0.644220
C42 C 0.21056(18) 0.71749(17) 0.54165(16)
C43 C 0.47028(18) 0.70980(17) 0.57598(17)
H49 H 0.530509 0.740854 0.625154
C44 C 0.3309(2) 0.8856(2) 0.78973(18)
C45 C 0.2538(2) 0.8393(2) 0.8197(2)
H50 H 0.187469 0.824695 0.779278
H51 H 0.262181 0.883006 0.879183
H52 H 0.262466 0.780501 0.819812
C46 C 0.3139(2) 0.9753(2) 0.7855(2)
H53 H 0.366555 1.008319 0.771480
H54 H 0.314258 1.017536 0.842552
H55 H 0.249896 0.957289 0.739869
C47 C 0.4333(2) 0.9144(2) 0.85742(19)
H56 H 0.445578 0.857648 0.859722
H57 H 0.436714 0.957333 0.915433
H58 H 0.483405 0.946860 0.840538
C48 C 0.10506(18) 0.66582(17) 0.47414(17)
C49 C 0.0877(2) 0.55932(19) 0.4321(2)
H59 H 0.135599 0.547734 0.403346
H60 H 0.020609 0.525472 0.388305
H61 H 0.095854 0.536487 0.477608
C50 C 0.0865(2) 0.7007(2) 0.4026(2)
H62 H 0.098183 0.769074 0.429799
H63 H 0.017948 0.667024 0.361622
H64 H 0.131327 0.688361 0.370531
C51 C 0.02676(19) 0.6793(2) 0.51640(19)
H65 H 0.034749 0.655849 0.561494
H66 H -0.039325 0.643747 0.471131
H67 H 0.034981 0.746913 0.543485
C52 C 0.23662(18) 0.37030(17) 0.25602(16)
C53 C 0.32269(18) 0.34431(17) 0.25566(16)
C54 C 0.31449(19) 0.25110(17) 0.20076(17)
H68 H 0.372821 0.235423 0.203089
C55 C 0.22523(19) 0.18298(17) 0.14450(17)
C56 C 0.14103(19) 0.21033(17) 0.14367(17)
H69 H 0.078522 0.164190 0.103971
C57 C 0.14287(18) 0.29935(17) 0.19641(16)
C58 C 0.42074(18) 0.40681(17) 0.31319(16)
H70 H 0.471795 0.380129 0.312682
C59 C 0.2122(2) 0.08077(18) 0.08303(19)
C60 C 0.1442(2) 0.01025(19) 0.1020(2)
H71 H 0.173658 0.021389 0.163237
H72 H 0.135516 -0.054743 0.062581
H73 H 0.079767 0.019007 0.092494
C61 C 0.3113(2) 0.0636(2) 0.0964(2)
H74 H 0.355565 0.107158 0.083388
H75 H 0.300316 -0.002113 0.056912
H76 H 0.341296 0.074716 0.157553
C62 C 0.1673(2) 0.0639(2) -0.01244(19)
H77 H 0.103529 0.073974 -0.022167
H78 H 0.157568 -0.001417 -0.051963
H79 H 0.211982 0.108337 -0.024373
C63 C 0.04649(17) 0.32060(17) 0.19337(17)
C64 C 0.03018(18) 0.33082(18) 0.27964(17)
H80 H 0.021733 0.270447 0.283775
H81 H -0.029120 0.347859 0.280281
H82 H 0.087543 0.380637 0.329747
C65 C -0.04352(18) 0.23941(18) 0.11753(17)
H83 H -0.033926 0.228492 0.061604
H84 H -0.103007 0.256524 0.116643
H85 H -0.051057 0.181418 0.125946
C66 C 0.04982(19) 0.41184(18) 0.18104(18)
H86 H 0.103842 0.466095 0.230685
H87 H -0.012985 0.422728 0.178434
H88 H 0.060708 0.404527 0.126190
C67 C 0.55891(18) 0.62784(17) 0.49935(16)
C68 C 0.54606(17) 0.54664(17) 0.42520(17)
C69 C 0.62736(19) 0.52127(19) 0.41418(19)
H89 H 0.618764 0.467289 0.363074
C70 C 0.7206(2) 0.57436(19) 0.47738(19)
H90 H 0.775633 0.555908 0.470369
C71 C 0.73365(19) 0.65429(19) 0.55075(18)
H91 H 0.797726 0.690359 0.594234
C72 C 0.65396(18) 0.68215(18) 0.56130(17)
H92 H 0.663985 0.738427 0.610882
C73? C 0.019(2) 1.074(2) 0.291(2)
H93? H 0.086379 1.119204 0.312444
H94? H -0.027046 1.108793 0.296800
H95? H 0.001034 1.030733 0.228749
C74? C -0.098(2) 0.973(2) 0.336(2)
H96? H -0.125731 0.907129 0.291360
H97? H -0.144469 1.006352 0.324724
H98? H -0.087538 0.975077 0.394447
C75? C 0.056(3) 1.104(2) 0.452(2)
H99? H 0.047206 1.063195 0.481465
H100? H 0.014809 1.144784 0.462590
H101? H 0.125086 1.144542 0.475109
loop_
_geom_bond_atom_site_label_1
_geom_bond_atom_site_label_2
_geom_bond_site_symmetry_1
_geom_bond_site_symmetry_2
Mg1 O1 1_555 1_555
Mg2 O2 1_555 1_555
O1 C1 1_555 1_555
O2 Mg1 1_555 1_555
O3 Mg1 1_555 1_555
O4 Mg2 1_555 1_555
N1 Mg1 1_555 1_555
N2 Mg1 1_555 1_555
N3 Mg2 1_555 1_555
N4 Mg2 1_555 1_555
C1 C2 1_555 1_555
C2 C3 1_555 1_555
C3 H1 1_555 1_555
C4 C3 1_555 1_555
C5 C4 1_555 1_555
H2 C5 1_555 1_555
C6 C1 1_555 1_555
C7 N1 1_555 1_555
H3 C7 1_555 1_555
C8 C4 1_555 1_555
C9 C8 1_555 1_555
H4 C9 1_555 1_555
H5 C9 1_555 1_555
H6 C9 1_555 1_555
C10 C8 1_555 1_555
H7 C10 1_555 1_555
H8 C10 1_555 1_555
H9 C10 1_555 1_555
C11 C8 1_555 1_555
H10 C11 1_555 1_555
H11 C11 1_555 1_555
H12 C11 1_555 1_555
C12 C6 1_555 1_555
C13 C12 1_555 1_555
H13 C13 1_555 1_555
H14 C13 1_555 1_555
H15 C13 1_555 1_555
C14 C12 1_555 1_555
H16 C14 1_555 1_555
H17 C14 1_555 1_555
H18 C14 1_555 1_555
C15 C12 1_555 1_555
H19 C15 1_555 1_555
H20 C15 1_555 1_555
H21 C15 1_555 1_555
C16 O2 1_555 1_555
C17 C16 1_555 1_555
C18 C17 1_555 1_555
H22 C18 1_555 1_555
C19 C18 1_555 1_555
C20 C19 1_555 1_555
H23 C20 1_555 1_555
C21 C16 1_555 1_555
C22 N2 1_555 1_555
H24 C22 1_555 1_555
C23 C19 1_555 1_555
C24 C23 1_555 1_555
H25 C24 1_555 1_555
H26 C24 1_555 1_555
H27 C24 1_555 1_555
C25 C23 1_555 1_555
H28 C25 1_555 1_555
H29 C25 1_555 1_555
H30 C25 1_555 1_555
C26 C23 1_555 1_555
H31 C26 1_555 1_555
H32 C26 1_555 1_555
H33 C26 1_555 1_555
C27 C21 1_555 1_555
C28 C27 1_555 1_555
H34 C28 1_555 1_555
H35 C28 1_555 1_555
H36 C28 1_555 1_555
C29 C27 1_555 1_555
H37 C29 1_555 1_555
H38 C29 1_555 1_555
H39 C29 1_555 1_555
C30 C27 1_555 1_555
H40 C30 1_555 1_555
H41 C30 1_555 1_555
H42 C30 1_555 1_555
C31 N1 1_555 1_555
C32 N2 1_555 1_555
C33 C32 1_555 1_555
H43 C33 1_555 1_555
C34 C33 1_555 1_555
H44 C34 1_555 1_555
C35 C34 1_555 1_555
H45 C35 1_555 1_555
C36 C31 1_555 1_555
H46 C36 1_555 1_555
C37 O3 1_555 1_555
C38 C37 1_555 1_555
C39 C38 1_555 1_555
H47 C39 1_555 1_555
C40 C39 1_555 1_555
C41 C40 1_555 1_555
H48 C41 1_555 1_555
C42 C37 1_555 1_555
C43 N3 1_555 1_555
H49 C43 1_555 1_555
C44 C40 1_555 1_555
C45 C44 1_555 1_555
H50 C45 1_555 1_555
H51 C45 1_555 1_555
H52 C45 1_555 1_555
C46 C44 1_555 1_555
H53 C46 1_555 1_555
H54 C46 1_555 1_555
H55 C46 1_555 1_555
C47 C44 1_555 1_555
H56 C47 1_555 1_555
H57 C47 1_555 1_555
H58 C47 1_555 1_555
C48 C42 1_555 1_555
C49 C48 1_555 1_555
H59 C49 1_555 1_555
H60 C49 1_555 1_555
H61 C49 1_555 1_555
C50 C48 1_555 1_555
H62 C50 1_555 1_555
H63 C50 1_555 1_555
H64 C50 1_555 1_555
C51 C48 1_555 1_555
H65 C51 1_555 1_555
H66 C51 1_555 1_555
H67 C51 1_555 1_555
C52 O4 1_555 1_555
C53 C52 1_555 1_555
C54 C53 1_555 1_555
H68 C54 1_555 1_555
C55 C54 1_555 1_555
C56 C55 1_555 1_555
H69 C56 1_555 1_555
C57 C52 1_555 1_555
C58 N4 1_555 1_555
H70 C58 1_555 1_555
C59 C55 1_555 1_555
C60 C59 1_555 1_555
H71 C60 1_555 1_555
H72 C60 1_555 1_555
H73 C60 1_555 1_555
C61 C59 1_555 1_555
H74 C61 1_555 1_555
H75 C61 1_555 1_555
H76 C61 1_555 1_555
C62 C59 1_555 1_555
H77 C62 1_555 1_555
H78 C62 1_555 1_555
H79 C62 1_555 1_555
C63 C57 1_555 1_555
C64 C63 1_555 1_555
H80 C64 1_555 1_555
H81 C64 1_555 1_555
H82 C64 1_555 1_555
C65 C63 1_555 1_555
H83 C65 1_555 1_555
H84 C65 1_555 1_555
H85 C65 1_555 1_555
C66 C63 1_555 1_555
H86 C66 1_555 1_555
H87 C66 1_555 1_555
H88 C66 1_555 1_555
C67 N3 1_555 1_555
C68 N4 1_555 1_555
C69 C68 1_555 1_555
H89 C69 1_555 1_555
C70 C69 1_555 1_555
H90 C70 1_555 1_555
C71 C70 1_555 1_555
H91 C71 1_555 1_555
C72 C67 1_555 1_555
H92 C72 1_555 1_555
Mg2 O3 1_555 1_555
C2 C7 1_555 1_555
C5 C6 1_555 1_555
C17 C22 1_555 1_555
C20 C21 1_555 1_555
C31 C32 1_555 1_555
C35 C36 1_555 1_555
C38 C43 1_555 1_555
C41 C42 1_555 1_555
C53 C58 1_555 1_555
C56 C57 1_555 1_555
C67 C68 1_555 1_555
C71 C72 1_555 1_555

#END
