
#######################################################################
#
#                 Cambridge Crystallographic Data Centre
#                                CCDC 
#
#######################################################################
#
# If this CIF has been generated from an entry in the Cambridge 
# Structural Database, then it will include bibliographic, chemical, 
# crystal, experimental, refinement or atomic coordinate data resulting 
# from the CCDC's data processing and validation procedures.
#
#######################################################################

data_CEPGOW
_chemical_formula_moiety         'C29 H29 N3 O5'
_chemical_name_systematic        
"ethyl 6'-hydroxy-1,1'',5,7-tetramethyl-2,2''-dioxo-1,1'',2,2'',6',7'-hexahydrodispiro[indole-3,5'-indolizine-8',3''-indole]-6'-carboxylate"
_symmetry_cell_setting           monoclinic
_symmetry_space_group_name_H-M   'P 21'
_symmetry_Int_Tables_number      4
_space_group_name_Hall           'P 2yb'
loop_
_symmetry_equiv_pos_site_id
_symmetry_equiv_pos_as_xyz
1 x,y,z
2 -x,1/2+y,-z
_cell_length_a                   8.851(5)
_cell_length_b                   10.081(6)
_cell_length_c                   28.437(14)
_cell_angle_alpha                90
_cell_angle_beta                 91.989(15)
_cell_angle_gamma                90
_cell_volume                     2535.82
_exptl_crystal_colour            colorless
_exptl_crystal_description       block
_cell_formula_units_Z            4
_exptl_crystal_recrystallization_method dichloromethane/hexane
loop_
_atom_site_label
_atom_site_type_symbol
_atom_site_fract_x
_atom_site_fract_y
_atom_site_fract_z
O1 O 1.0115(3) 1.3091(3) 0.62535(10)
O2 O 0.8882(4) 1.0229(3) 0.51846(10)
O3 O 1.0864(3) 1.0642(3) 0.59932(10)
H1 H 1.0638 1.1414 0.6047
O4 O 1.1375(4) 0.8116(3) 0.58925(10)
O5 O 1.1049(3) 0.7905(3) 0.66687(10)
N1 N 0.9478(4) 1.3734(3) 0.69893(12)
N2 N 0.7278(4) 1.0539(3) 0.60685(11)
N3 N 0.8349(4) 0.8050(4) 0.53336(11)
C1 C 0.9522(5) 1.2875(4) 0.66255(15)
C2 C 0.8660(4) 1.1585(4) 0.67631(13)
C3 C 0.8225(4) 1.1913(4) 0.72618(13)
C4 C 0.7472(4) 1.1175(4) 0.75870(14)
H2 H 0.7153 1.0317 0.7517
C5 C 0.7194(5) 1.1738(4) 0.80234(14)
H3 H 0.6673 1.1260 0.8246
C6 C 0.7695(5) 1.3009(5) 0.81257(15)
H4 H 0.7504 1.3372 0.8418
C7 C 0.8476(5) 1.3758(4) 0.78037(16)
H5 H 0.8816 1.4609 0.7876
C8 C 0.8724(5) 1.3186(4) 0.73745(14)
C9 C 1.0167(5) 1.5052(4) 0.69779(17)
H6 H 1.1072 1.5059 0.7174
H7 H 0.9469 1.5696 0.7092
H8 H 1.0413 1.5266 0.6661
C10 C 0.7286(5) 1.1409(4) 0.64429(13)
C11 C 0.5910(5) 1.2049(4) 0.64311(14)
H9 H 0.5615 1.2705 0.6639
C12 C 0.5024(5) 1.1540(5) 0.60499(15)
H10 H 0.4044 1.1791 0.5961
C13 C 0.5883(5) 1.0607(5) 0.58366(16)
H11 H 0.5578 1.0099 0.5577
C14 C 0.8372(5) 0.9470(4) 0.59856(14)
C15 C 0.8594(5) 0.9333(5) 0.54539(15)
C16 C 0.7825(5) 0.7292(4) 0.57185(15)
C17 C 0.7383(5) 0.5971(4) 0.57359(17)
C18 C 0.6793(5) 0.5557(5) 0.61617(17)
H12 H 0.6488 0.4677 0.6185
C19 C 0.6631(5) 0.6368(5) 0.65514(16)
C20 C 0.7153(5) 0.7670(4) 0.65237(14)
H13 H 0.7098 0.8233 0.6782
C21 C 0.7752(4) 0.8118(4) 0.61096(13)
C22 C 0.8482(6) 0.7609(5) 0.48463(15)
H14 H 0.7510 0.7328 0.4723
H15 H 0.9180 0.6880 0.4836
H16 H 0.8845 0.8327 0.4660
C23 C 0.7475(7) 0.4981(5) 0.5337(2)
H17 H 0.6838 0.5268 0.5077
H18 H 0.7146 0.4127 0.5442
H19 H 0.8501 0.4921 0.5240
C24 C 0.5912(6) 0.5846(5) 0.69928(17)
H20 H 0.4841 0.5762 0.6937
H21 H 0.6109 0.6453 0.7248
H22 H 0.6334 0.4994 0.7072
C25 C 0.9675(4) 1.0331(4) 0.67468(13)
H23 H 1.0645 1.0537 0.6899
H24 H 0.9213 0.9636 0.6929
C26 C 0.9952(5) 0.9789(4) 0.62524(14)
C27 C 1.0854(5) 0.8489(4) 0.63045(17)
C28 C 1.2242(6) 0.6872(5) 0.58782(19)
H25 H 1.2729 0.6700 0.6183
H26 H 1.1573 0.6137 0.5800
C29 C 1.3385(6) 0.7013(6) 0.5519(2)
H27 H 1.2892 0.7179 0.5218
H28 H 1.3966 0.6211 0.5503
H29 H 1.4042 0.7741 0.5599
O6 O 1.2745(3) 0.7393(3) 0.77393(11)
O7 O 1.0519(4) 0.5228(3) 0.90019(11)
O8 O 1.0176(3) 0.6506(3) 0.81160(10)
H30 H 1.1020 0.6693 0.8026
O9 O 0.7283(3) 0.6468(3) 0.85271(9)
O10 O 0.7048(4) 0.8115(3) 0.80074(12)
N4 N 1.3218(4) 0.9537(4) 0.75063(13)
N5 N 1.1603(4) 0.8048(3) 0.89290(11)
N6 N 0.9046(4) 0.6391(4) 0.95076(12)
C30 C 1.2611(5) 0.8606(5) 0.77879(15)
C31 C 1.1700(5) 0.9311(4) 0.81685(14)
C32 C 1.1999(5) 1.0758(4) 0.80564(14)
C33 C 1.1593(5) 1.1900(4) 0.82830(16)
H31 H 1.0997 1.1857 0.8546
C34 C 1.2079(5) 1.3125(5) 0.81174(17)
H32 H 1.1819 1.3902 0.8271
C35 C 1.2952(5) 1.3178(5) 0.77220(19)
H33 H 1.3258 1.3999 0.7610
C36 C 1.3380(5) 1.2034(5) 0.74900(17)
H34 H 1.3971 1.2072 0.7226
C37 C 1.2891(5) 1.0831(5) 0.76669(15)
C38 C 1.4082(6) 0.9234(6) 0.70913(18)
H35 H 1.5123 0.9464 0.7151
H36 H 1.3685 0.9734 0.6828
H37 H 1.4005 0.8303 0.7023
C39 C 1.2321(5) 0.8948(4) 0.86508(14)
C40 C 1.3658(5) 0.9304(5) 0.88768(16)
H38 H 1.4373 0.9891 0.8765
C41 C 1.3747(5) 0.8619(5) 0.93086(16)
H39 H 1.4532 0.8670 0.9534
C42 C 1.2471(5) 0.7867(5) 0.93354(14)
H40 H 1.2229 0.7324 0.9586
C43 C 1.0011(4) 0.7626(4) 0.88793(13)
C44 C 0.9898(5) 0.6246(4) 0.91156(14)
C45 C 0.8511(4) 0.7708(4) 0.95578(14)
C46 C 0.7683(5) 0.8258(5) 0.99209(14)
C47 C 0.7294(5) 0.9595(5) 0.98612(15)
H41 H 0.6721 0.9991 1.0091
C48 C 0.7700(5) 1.0363(4) 0.94860(15)
C49 C 0.8609(5) 0.9793(4) 0.91477(14)
H42 H 0.8944 1.0300 0.8899
C50 C 0.9004(5) 0.8471(4) 0.91864(14)
C51 C 0.8694(5) 0.5232(5) 0.97940(17)
H43 H 0.9186 0.4464 0.9671
H44 H 0.7620 0.5091 0.9785
H45 H 0.9043 0.5380 1.0113
C52 C 0.7261(6) 0.7546(5) 1.03644(17)
H46 H 0.6511 0.6884 1.0289
H47 H 0.6861 0.8172 1.0582
H48 H 0.8142 0.7128 1.0504
C53 C 0.7169(6) 1.1784(4) 0.94255(17)
H49 H 0.6630 1.2050 0.9697
H50 H 0.6512 1.1849 0.9151
H51 H 0.8027 1.2353 0.9390
C54 C 1.0005(5) 0.8928(4) 0.81084(14)
H52 H 0.9404 0.9639 0.8235
H53 H 0.9750 0.8866 0.7775
C55 C 0.9551(4) 0.7625(4) 0.83431(13)
C56 C 0.7817(5) 0.7455(4) 0.82726(15)
C57 C 0.5642(5) 0.6205(5) 0.84736(16)
H54 H 0.5422 0.5736 0.8181
H55 H 0.5087 0.7035 0.8466
C58 C 0.5179(5) 0.5384(5) 0.88819(18)
H56 H 0.5725 0.4561 0.8885
H57 H 0.4114 0.5207 0.8854
H58 H 0.5400 0.5856 0.9169
loop_
_geom_bond_atom_site_label_1
_geom_bond_atom_site_label_2
_geom_bond_site_symmetry_1
_geom_bond_site_symmetry_2
O1 C1 1_555 1_555
O2 C15 1_555 1_555
O3 H1 1_555 1_555
O4 C27 1_555 1_555
O5 C27 1_555 1_555
N1 C1 1_555 1_555
N2 C10 1_555 1_555
N3 C15 1_555 1_555
C1 C2 1_555 1_555
C2 C3 1_555 1_555
C3 C4 1_555 1_555
C4 H2 1_555 1_555
C5 C4 1_555 1_555
H3 C5 1_555 1_555
C6 C5 1_555 1_555
H4 C6 1_555 1_555
C7 C6 1_555 1_555
H5 C7 1_555 1_555
C8 N1 1_555 1_555
C9 N1 1_555 1_555
H6 C9 1_555 1_555
H7 C9 1_555 1_555
H8 C9 1_555 1_555
C10 C2 1_555 1_555
C11 C10 1_555 1_555
H9 C11 1_555 1_555
C12 C11 1_555 1_555
H10 C12 1_555 1_555
C13 N2 1_555 1_555
H11 C13 1_555 1_555
C14 N2 1_555 1_555
C15 C14 1_555 1_555
C16 N3 1_555 1_555
C17 C16 1_555 1_555
C18 C17 1_555 1_555
H12 C18 1_555 1_555
C19 C18 1_555 1_555
C20 C19 1_555 1_555
H13 C20 1_555 1_555
C21 C14 1_555 1_555
C22 N3 1_555 1_555
H14 C22 1_555 1_555
H15 C22 1_555 1_555
H16 C22 1_555 1_555
C23 C17 1_555 1_555
H17 C23 1_555 1_555
H18 C23 1_555 1_555
H19 C23 1_555 1_555
C24 C19 1_555 1_555
H20 C24 1_555 1_555
H21 C24 1_555 1_555
H22 C24 1_555 1_555
C25 C2 1_555 1_555
H23 C25 1_555 1_555
H24 C25 1_555 1_555
C26 O3 1_555 1_555
C27 C26 1_555 1_555
C28 O4 1_555 1_555
H25 C28 1_555 1_555
H26 C28 1_555 1_555
C29 C28 1_555 1_555
H27 C29 1_555 1_555
H28 C29 1_555 1_555
H29 C29 1_555 1_555
O6 C30 1_555 1_555
O7 C44 1_555 1_555
O8 H30 1_555 1_555
O9 C56 1_555 1_555
O10 C56 1_555 1_555
N4 C30 1_555 1_555
N5 C39 1_555 1_555
N6 C44 1_555 1_555
C30 C31 1_555 1_555
C31 C32 1_555 1_555
C32 C33 1_555 1_555
C33 H31 1_555 1_555
C34 C33 1_555 1_555
H32 C34 1_555 1_555
C35 C34 1_555 1_555
H33 C35 1_555 1_555
C36 C35 1_555 1_555
H34 C36 1_555 1_555
C37 N4 1_555 1_555
C38 N4 1_555 1_555
H35 C38 1_555 1_555
H36 C38 1_555 1_555
H37 C38 1_555 1_555
C39 C31 1_555 1_555
C40 C39 1_555 1_555
H38 C40 1_555 1_555
C41 C40 1_555 1_555
H39 C41 1_555 1_555
C42 N5 1_555 1_555
H40 C42 1_555 1_555
C43 N5 1_555 1_555
C44 C43 1_555 1_555
C45 N6 1_555 1_555
C46 C45 1_555 1_555
C47 C46 1_555 1_555
H41 C47 1_555 1_555
C48 C47 1_555 1_555
C49 C48 1_555 1_555
H42 C49 1_555 1_555
C50 C43 1_555 1_555
C51 N6 1_555 1_555
H43 C51 1_555 1_555
H44 C51 1_555 1_555
H45 C51 1_555 1_555
C52 C46 1_555 1_555
H46 C52 1_555 1_555
H47 C52 1_555 1_555
H48 C52 1_555 1_555
C53 C48 1_555 1_555
H49 C53 1_555 1_555
H50 C53 1_555 1_555
H51 C53 1_555 1_555
C54 C31 1_555 1_555
H52 C54 1_555 1_555
H53 C54 1_555 1_555
C55 O8 1_555 1_555
C56 C55 1_555 1_555
C57 O9 1_555 1_555
H54 C57 1_555 1_555
H55 C57 1_555 1_555
C58 C57 1_555 1_555
H56 C58 1_555 1_555
H57 C58 1_555 1_555
H58 C58 1_555 1_555
C3 C8 1_555 1_555
C7 C8 1_555 1_555
C12 C13 1_555 1_555
C14 C26 1_555 1_555
C16 C21 1_555 1_555
C20 C21 1_555 1_555
C25 C26 1_555 1_555
C32 C37 1_555 1_555
C36 C37 1_555 1_555
C41 C42 1_555 1_555
C43 C55 1_555 1_555
C45 C50 1_555 1_555
C49 C50 1_555 1_555
C54 C55 1_555 1_555

#END
