
#######################################################################
#
#                 Cambridge Crystallographic Data Centre
#                                CCDC 
#
#######################################################################
#
# If this CIF has been generated from an entry in the Cambridge 
# Structural Database, then it will include bibliographic, chemical, 
# crystal, experimental, refinement or atomic coordinate data resulting 
# from the CCDC's data processing and validation procedures.
#
#######################################################################

data_CEPNAP
_chemical_formula_moiety         '2(C13 H9 N1),C6 H5 I1 O1'
_chemical_name_systematic        '4-iodophenol bis(acridine)'
_symmetry_cell_setting           orthorhombic
_symmetry_space_group_name_H-M   'P b c a'
_symmetry_Int_Tables_number      61
_space_group_name_Hall           '-P 2ac 2ab'
loop_
_symmetry_equiv_pos_site_id
_symmetry_equiv_pos_as_xyz
1 x,y,z
2 1/2-x,-y,1/2+z
3 -x,1/2+y,1/2-z
4 1/2+x,1/2-y,-z
5 -x,-y,-z
6 1/2+x,y,1/2-z
7 x,1/2-y,1/2+z
8 1/2-x,1/2+y,z
_cell_length_a                   17.8528(6)
_cell_length_b                   10.1405(4)
_cell_length_c                   28.1824(10)
_cell_angle_alpha                90
_cell_angle_beta                 90
_cell_angle_gamma                90
_cell_volume                     5102.04
_exptl_crystal_colour            colorless
_exptl_crystal_description       block
_cell_formula_units_Z            8
loop_
_atom_site_label
_atom_site_type_symbol
_atom_site_fract_x
_atom_site_fract_y
_atom_site_fract_z
I1 I 0.78711(2) 0.81226(2) 0.38322(2)
O1 O 0.43808(10) 0.79446(16) 0.37739(7)
H1 H 0.4224 0.7168 0.3745
C1 C 0.51402(13) 0.7942(2) 0.37838(8)
C2 C 0.55547(14) 0.6786(2) 0.38112(8)
H2 H 0.5308 0.5957 0.3822
C3 C 0.63266(14) 0.6845(2) 0.38232(8)
H3 H 0.6610 0.6054 0.3838
C4 C 0.66899(13) 0.8049(2) 0.38138(8)
C5 C 0.62826(13) 0.9204(2) 0.37912(8)
H4 H 0.6532 1.0031 0.3787
C6 C 0.55107(14) 0.9150(2) 0.37747(8)
H5 H 0.5230 0.9944 0.3757
N1 N 0.36286(11) 0.56370(18) 0.36641(7)
C7 C 0.36540(16) 0.5091(2) 0.44877(9)
H6 H 0.4090 0.5616 0.4529
C8 C 0.33512(18) 0.4446(3) 0.48638(10)
H7 H 0.3577 0.4526 0.5168
C9 C 0.27000(18) 0.3651(3) 0.48093(11)
H8 H 0.2494 0.3210 0.5077
C10 C 0.23728(17) 0.3519(3) 0.43813(11)
H9 H 0.1938 0.2987 0.4350
C11 C 0.23550(14) 0.4058(2) 0.35260(10)
H10 H 0.1921 0.3532 0.3480
C12 C 0.23781(15) 0.4660(3) 0.26709(10)
H11 H 0.1949 0.4134 0.2608
C13 C 0.27028(16) 0.5346(3) 0.23129(10)
H12 H 0.2498 0.5304 0.2002
C14 C 0.33429(16) 0.6120(2) 0.24014(9)
H13 H 0.3567 0.6591 0.2147
C15 C 0.36479(15) 0.6208(2) 0.28416(9)
H14 H 0.4081 0.6735 0.2892
C16 C 0.33170(14) 0.4982(2) 0.40282(9)
C17 C 0.26704(14) 0.4166(2) 0.39771(9)
C18 C 0.26735(13) 0.4720(2) 0.31424(9)
C19 C 0.33191(13) 0.5513(2) 0.32279(8)
N2 N 0.53519(11) 0.32610(19) 0.37881(7)
C20 C 0.53823(15) 0.2654(3) 0.46050(9)
H15 H 0.5841 0.3117 0.4643
C21 C 0.50730(16) 0.2015(3) 0.49807(10)
H16 H 0.5322 0.2030 0.5278
C22 C 0.43893(17) 0.1331(3) 0.49370(10)
H17 H 0.4182 0.0897 0.5205
C23 C 0.40246(15) 0.1286(3) 0.45148(10)
H18 H 0.3563 0.0827 0.4490
C24 C 0.39988(14) 0.1882(2) 0.36621(9)
H19 H 0.3539 0.1424 0.3621
C25 C 0.40220(15) 0.2489(3) 0.28125(9)
H20 H 0.3570 0.2021 0.2755
C26 C 0.43601(17) 0.3130(3) 0.24519(9)
H21 H 0.4149 0.3102 0.2143
C27 C 0.50326(16) 0.3849(3) 0.25339(9)
H22 H 0.5262 0.4309 0.2279
C28 C 0.53500(15) 0.3887(3) 0.29710(9)
H23 H 0.5800 0.4368 0.3019
C29 C 0.50206(13) 0.2630(2) 0.41535(8)
C30 C 0.43331(13) 0.1928(2) 0.41062(9)
C31 C 0.43324(13) 0.2501(2) 0.32788(8)
C32 C 0.50117(13) 0.3209(2) 0.33598(8)
loop_
_geom_bond_atom_site_label_1
_geom_bond_atom_site_label_2
_geom_bond_site_symmetry_1
_geom_bond_site_symmetry_2
I1 C4 1_555 1_555
O1 H1 1_555 1_555
C1 O1 1_555 1_555
C2 C1 1_555 1_555
H2 C2 1_555 1_555
C3 C2 1_555 1_555
H3 C3 1_555 1_555
C4 C3 1_555 1_555
C5 C4 1_555 1_555
H4 C5 1_555 1_555
C6 C1 1_555 1_555
H5 C6 1_555 1_555
N1 C16 1_555 1_555
C7 H6 1_555 1_555
C8 C7 1_555 1_555
H7 C8 1_555 1_555
C9 C8 1_555 1_555
H8 C9 1_555 1_555
C10 C9 1_555 1_555
H9 C10 1_555 1_555
C11 H10 1_555 1_555
C12 H11 1_555 1_555
C13 C12 1_555 1_555
H12 C13 1_555 1_555
C14 C13 1_555 1_555
H13 C14 1_555 1_555
C15 C14 1_555 1_555
H14 C15 1_555 1_555
C16 C7 1_555 1_555
C17 C10 1_555 1_555
C18 C11 1_555 1_555
C19 N1 1_555 1_555
N2 C29 1_555 1_555
C20 H15 1_555 1_555
C21 C20 1_555 1_555
H16 C21 1_555 1_555
C22 C21 1_555 1_555
H17 C22 1_555 1_555
C23 C22 1_555 1_555
H18 C23 1_555 1_555
C24 H19 1_555 1_555
C25 H20 1_555 1_555
C26 C25 1_555 1_555
H21 C26 1_555 1_555
C27 C26 1_555 1_555
H22 C27 1_555 1_555
C28 C27 1_555 1_555
H23 C28 1_555 1_555
C29 C20 1_555 1_555
C30 C23 1_555 1_555
C31 C24 1_555 1_555
C32 N2 1_555 1_555
C5 C6 1_555 1_555
C11 C17 1_555 1_555
C12 C18 1_555 1_555
C15 C19 1_555 1_555
C16 C17 1_555 1_555
C18 C19 1_555 1_555
C24 C30 1_555 1_555
C25 C31 1_555 1_555
C28 C32 1_555 1_555
C29 C30 1_555 1_555
C31 C32 1_555 1_555

#END
