
#######################################################################
#
#                 Cambridge Crystallographic Data Centre
#                                CCDC 
#
#######################################################################
#
# If this CIF has been generated from an entry in the Cambridge 
# Structural Database, then it will include bibliographic, chemical, 
# crystal, experimental, refinement or atomic coordinate data resulting 
# from the CCDC's data processing and validation procedures.
#
#######################################################################

data_CEPQAQ
_chemical_formula_moiety         'C18 H23 N3 O2'
_chemical_name_systematic        
((R,S)-2-Morpholino-3-spiro-1'-cyclohexyl-3,4-dihydro-2H-1,4-benzoxazin-6-yl)nitrile
_symmetry_cell_setting           monoclinic
_symmetry_space_group_name_H-M   'P 21/c'
_symmetry_Int_Tables_number      14
_space_group_name_Hall           '-P 2ybc'
loop_
_symmetry_equiv_pos_site_id
_symmetry_equiv_pos_as_xyz
1 x,y,z
2 -x,1/2+y,1/2-z
3 -x,-y,-z
4 x,1/2-y,1/2+z
_cell_length_a                   10.734(4)
_cell_length_b                   10.465(4)
_cell_length_c                   15.663(6)
_cell_angle_alpha                90
_cell_angle_beta                 107.34(2)
_cell_angle_gamma                90
_cell_volume                     1679.48
_exptl_crystal_colour            colorless
_exptl_crystal_description       plate
_chemical_melting_point          174-176deg.C
_cell_formula_units_Z            4
_exptl_crystal_recrystallization_method 'diethyl ether'
loop_
_atom_site_label
_atom_site_type_symbol
_atom_site_fract_x
_atom_site_fract_y
_atom_site_fract_z
O1 O 0.01927(10) 0.05623(9) 0.29237(6)
C1 C 0.15353(13) 0.00825(12) 0.32055(9)
H1 H 0.2087 0.0833 0.3418
C2 C 0.19170(13) -0.04134(12) 0.23890(9)
N1 N 0.09393(11) -0.13574(11) 0.19304(7)
H2 H 0.1176 -0.1835 0.1485
C3 C -0.03571(13) -0.10027(12) 0.17263(9)
C4 C -0.13383(14) -0.15699(13) 0.10469(9)
H3 H -0.1127 -0.2200 0.0695
C5 C -0.26368(14) -0.12055(15) 0.08867(10)
C6 C -0.29654(15) -0.02499(15) 0.13963(11)
H4 H -0.3830 0.0005 0.1281
C7 C -0.19980(15) 0.03167(14) 0.20741(10)
H5 H -0.2214 0.0956 0.2417
C8 C -0.07112(14) -0.00544(12) 0.22493(9)
C9 C -0.36525(17) -0.18225(18) 0.01979(12)
N2 N -0.44747(18) -0.23092(19) -0.03360(13)
N3 N 0.17883(11) -0.07626(10) 0.39563(7)
C10 C 0.09479(16) -0.18794(13) 0.38807(10)
H6 H 0.0899 -0.2339 0.3334
H7 H 0.0074 -0.1611 0.3857
C11 C 0.1495(2) -0.27384(15) 0.46754(10)
H8 H 0.0942 -0.3486 0.4622
H9 H 0.2358 -0.3025 0.4685
O2 O 0.15734(13) -0.20919(11) 0.54885(7)
C12 C 0.2395(2) -0.10020(18) 0.55676(11)
H10 H 0.3267 -0.1278 0.5590
H11 H 0.2451 -0.0560 0.6122
C13 C 0.18856(18) -0.00982(15) 0.47940(10)
H12 H 0.1033 0.0218 0.4787
H13 H 0.2470 0.0627 0.4859
C14 C 0.32556(14) -0.10586(14) 0.26753(10)
H14 H 0.3260 -0.1713 0.3115
H15 H 0.3402 -0.1475 0.2160
C15 C 0.43656(16) -0.01253(17) 0.30711(12)
H16 H 0.4283 0.0213 0.3628
H17 H 0.5191 -0.0575 0.3203
C16 C 0.43644(18) 0.0973(2) 0.24369(14)
H18 H 0.5041 0.1578 0.2731
H19 H 0.4565 0.0647 0.1913
C17 C 0.30591(17) 0.16561(15) 0.21454(12)
H20 H 0.3068 0.2291 0.1696
H21 H 0.2917 0.2095 0.2654
C18 C 0.19503(15) 0.07168(14) 0.17630(10)
H22 H 0.2028 0.0382 0.1204
H23 H 0.1128 0.1173 0.1631
loop_
_geom_bond_atom_site_label_1
_geom_bond_atom_site_label_2
_geom_bond_site_symmetry_1
_geom_bond_site_symmetry_2
O1 C1 1_555 1_555
C1 H1 1_555 1_555
C2 C1 1_555 1_555
N1 C2 1_555 1_555
H2 N1 1_555 1_555
C3 N1 1_555 1_555
C4 C3 1_555 1_555
H3 C4 1_555 1_555
C5 C4 1_555 1_555
C6 C5 1_555 1_555
H4 C6 1_555 1_555
C7 C6 1_555 1_555
H5 C7 1_555 1_555
C8 O1 1_555 1_555
C9 C5 1_555 1_555
N2 C9 1_555 1_555
N3 C1 1_555 1_555
C10 N3 1_555 1_555
H6 C10 1_555 1_555
H7 C10 1_555 1_555
C11 C10 1_555 1_555
H8 C11 1_555 1_555
H9 C11 1_555 1_555
O2 C11 1_555 1_555
C12 O2 1_555 1_555
H10 C12 1_555 1_555
H11 C12 1_555 1_555
C13 N3 1_555 1_555
H12 C13 1_555 1_555
H13 C13 1_555 1_555
C14 C2 1_555 1_555
H14 C14 1_555 1_555
H15 C14 1_555 1_555
C15 C14 1_555 1_555
H16 C15 1_555 1_555
H17 C15 1_555 1_555
C16 C15 1_555 1_555
H18 C16 1_555 1_555
H19 C16 1_555 1_555
C17 C16 1_555 1_555
H20 C17 1_555 1_555
H21 C17 1_555 1_555
C18 C2 1_555 1_555
H22 C18 1_555 1_555
H23 C18 1_555 1_555
C3 C8 1_555 1_555
C7 C8 1_555 1_555
C12 C13 1_555 1_555
C17 C18 1_555 1_555

#END
