
#######################################################################
#
#                 Cambridge Crystallographic Data Centre
#                                CCDC 
#
#######################################################################
#
# If this CIF has been generated from an entry in the Cambridge 
# Structural Database, then it will include bibliographic, chemical, 
# crystal, experimental, refinement or atomic coordinate data resulting 
# from the CCDC's data processing and validation procedures.
#
#######################################################################

data_CEQNOB
_chemical_formula_moiety         'C26 H26 N2'
_chemical_name_systematic        
N,N'-bis(Benzylmethylamino)-1,8-diaminonaphthalene
_symmetry_cell_setting           monoclinic
_symmetry_space_group_name_H-M   'P 21/n'
_symmetry_Int_Tables_number      14
_space_group_name_Hall           '-P 2yn'
loop_
_symmetry_equiv_pos_site_id
_symmetry_equiv_pos_as_xyz
1 x,y,z
2 1/2+x,1/2-y,1/2+z
3 -x,-y,-z
4 1/2-x,1/2+y,1/2-z
_cell_length_a                   9.0352(18)
_cell_length_b                   17.607(4)
_cell_length_c                   13.356(3)
_cell_angle_alpha                90
_cell_angle_beta                 107.87(3)
_cell_angle_gamma                90
_cell_volume                     2022.2
_exptl_crystal_colour            colorless
_exptl_crystal_description       block
_chemical_melting_point          142-144deg.C
_cell_formula_units_Z            4
loop_
_atom_site_label
_atom_site_type_symbol
_atom_site_fract_x
_atom_site_fract_y
_atom_site_fract_z
N1 N 0.86459(15) 0.25575(7) 0.26722(10)
N2 N 1.14614(15) 0.27969(7) 0.22419(10)
C1 C 0.80511(19) 0.31145(8) 0.18952(13)
C2 C 0.6628(2) 0.34465(9) 0.17982(16)
H1 H 0.6115 0.3324 0.2283
C3 C 0.5941(2) 0.39588(11) 0.09955(19)
H2 H 0.4998 0.4185 0.0965
C4 C 0.6634(3) 0.41279(10) 0.02658(17)
H3 H 0.6126 0.4439 -0.0298
C5 C 0.8138(2) 0.38364(9) 0.03436(14)
C6 C 0.8850(3) 0.40238(10) -0.04202(16)
H4 H 0.8322 0.4329 -0.0985
C7 C 1.0296(3) 0.37679(11) -0.03499(16)
H5 H 1.0723 0.3871 -0.0886
C8 C 1.1147(2) 0.33483(9) 0.05299(15)
H6 H 1.2146 0.3187 0.0577
C9 C 1.0534(2) 0.31685(8) 0.13267(13)
C10 C 0.8930(2) 0.33560(8) 0.12131(13)
C11 C 0.8003(2) 0.25211(9) 0.35468(14)
H7 H 0.7971 0.3022 0.3822
H8 H 0.8646 0.2201 0.4089
H9 H 0.6969 0.2316 0.3305
C12 C 1.2798(2) 0.23633(10) 0.21751(15)
H10 H 1.2489 0.2036 0.1572
H11 H 1.3197 0.2062 0.2800
H12 H 1.3591 0.2705 0.2110
C13 C 0.89520(18) 0.18012(8) 0.23165(13)
H13 H 0.9741 0.1553 0.2883
H14 H 0.9365 0.1859 0.1731
C14 C 0.75324(18) 0.12969(8) 0.19778(12)
C15 C 0.73099(19) 0.07147(8) 0.26120(13)
H15 H 0.8049 0.0633 0.3262
C16 C 0.60080(19) 0.02492(8) 0.22993(13)
H16 H 0.5876 -0.0138 0.2738
C17 C 0.4915(2) 0.03644(9) 0.13374(14)
H17 H 0.4040 0.0055 0.1122
C18 C 0.5121(2) 0.09400(9) 0.06910(14)
H18 H 0.4386 0.1016 0.0038
C19 C 0.64140(19) 0.14028(8) 0.10115(13)
H19 H 0.6537 0.1792 0.0572
C20 C 1.17523(18) 0.32013(9) 0.32447(12)
H20 H 1.1893 0.2831 0.3804
H21 H 1.0842 0.3502 0.3220
C21 C 1.31588(18) 0.37182(8) 0.35101(12)
C22 C 1.44681(19) 0.35522(9) 0.43364(13)
H22 H 1.4481 0.3120 0.4739
C23 C 1.57681(19) 0.40200(9) 0.45778(13)
H23 H 1.6636 0.3902 0.5143
C24 C 1.5774(2) 0.46564(9) 0.39827(13)
H24 H 1.6646 0.4968 0.4140
C25 C 1.4476(2) 0.48291(9) 0.31497(14)
H25 H 1.4474 0.5258 0.2743
C26 C 1.31777(19) 0.43648(9) 0.29178(13)
H26 H 1.2306 0.4488 0.2358
loop_
_geom_bond_atom_site_label_1
_geom_bond_atom_site_label_2
_geom_bond_site_symmetry_1
_geom_bond_site_symmetry_2
N1 C1 1_555 1_555
N2 C9 1_555 1_555
C1 C2 1_555 1_555
C2 H1 1_555 1_555
C3 C2 1_555 1_555
H2 C3 1_555 1_555
C4 C3 1_555 1_555
H3 C4 1_555 1_555
C5 C4 1_555 1_555
C6 C5 1_555 1_555
H4 C6 1_555 1_555
C7 C6 1_555 1_555
H5 C7 1_555 1_555
C8 C7 1_555 1_555
H6 C8 1_555 1_555
C9 C8 1_555 1_555
C10 C1 1_555 1_555
C11 N1 1_555 1_555
H7 C11 1_555 1_555
H8 C11 1_555 1_555
H9 C11 1_555 1_555
C12 N2 1_555 1_555
H10 C12 1_555 1_555
H11 C12 1_555 1_555
H12 C12 1_555 1_555
C13 N1 1_555 1_555
H13 C13 1_555 1_555
H14 C13 1_555 1_555
C14 C13 1_555 1_555
C15 C14 1_555 1_555
H15 C15 1_555 1_555
C16 C15 1_555 1_555
H16 C16 1_555 1_555
C17 C16 1_555 1_555
H17 C17 1_555 1_555
C18 C17 1_555 1_555
H18 C18 1_555 1_555
C19 C14 1_555 1_555
H19 C19 1_555 1_555
C20 N2 1_555 1_555
H20 C20 1_555 1_555
H21 C20 1_555 1_555
C21 C20 1_555 1_555
C22 C21 1_555 1_555
H22 C22 1_555 1_555
C23 C22 1_555 1_555
H23 C23 1_555 1_555
C24 C23 1_555 1_555
H24 C24 1_555 1_555
C25 C24 1_555 1_555
H25 C25 1_555 1_555
C26 C21 1_555 1_555
H26 C26 1_555 1_555
C5 C10 1_555 1_555
C9 C10 1_555 1_555
C18 C19 1_555 1_555
C25 C26 1_555 1_555

#END
