
#######################################################################
#
#                 Cambridge Crystallographic Data Centre
#                                CCDC 
#
#######################################################################
#
# If this CIF has been generated from an entry in the Cambridge 
# Structural Database, then it will include bibliographic, chemical, 
# crystal, experimental, refinement or atomic coordinate data resulting 
# from the CCDC's data processing and validation procedures.
#
#######################################################################

data_CERQAU
_chemical_formula_moiety         
'C36 H36 N24 O12,10(H2 O1),2(Br1 1-),C6 H18 N2 2+'
_chemical_name_systematic        
'hexane-1,6-bis(aminium) dibromide cucurbit[6]uril decahydrate'
_symmetry_cell_setting           monoclinic
_symmetry_space_group_name_H-M   'P 21/n'
_symmetry_Int_Tables_number      14
_space_group_name_Hall           '-P 2yn'
loop_
_symmetry_equiv_pos_site_id
_symmetry_equiv_pos_as_xyz
1 x,y,z
2 1/2-x,1/2+y,1/2-z
3 -x,-y,-z
4 1/2+x,1/2-y,1/2+z
_cell_length_a                   12.1697(7)
_cell_length_b                   15.9944(8)
_cell_length_c                   14.4157(9)
_cell_angle_alpha                90
_cell_angle_beta                 92.457(2)
_cell_angle_gamma                90
_cell_volume                     2803.39
_exptl_crystal_description       plate
_cell_formula_units_Z            2
loop_
_atom_site_label
_atom_site_type_symbol
_atom_site_fract_x
_atom_site_fract_y
_atom_site_fract_z
C1 C 0.7375(3) -0.16298(19) 0.1441(2)
C2 C 0.6198(3) -0.2802(2) 0.1312(2)
H1 H 0.6436 -0.3395 0.1414
C3 C 0.6018(3) -0.23421(19) 0.2241(2)
H2 H 0.6200 -0.2709 0.2788
C4 C 0.4337(3) -0.24331(18) 0.1382(2)
C5 C 0.6973(3) -0.10795(19) 0.2996(2)
H3 H 0.7714 -0.0832 0.2951
H4 H 0.6969 -0.1410 0.3576
C6 C 0.4261(3) -0.18476(19) 0.2973(2)
H5 H 0.3486 -0.2032 0.2892
H6 H 0.4579 -0.2121 0.3540
C7 C 0.6457(3) 0.0407(2) 0.2918(2)
C8 C 0.5167(3) -0.04832(19) 0.3566(2)
H7 H 0.5333 -0.0686 0.4213
C9 C 0.4718(3) 0.04248(19) 0.3555(2)
H8 H 0.4516 0.0612 0.4187
C10 C 0.3463(3) -0.0448(2) 0.2749(2)
C11 C 0.5636(3) 0.17959(19) 0.3071(2)
H9 H 0.6410 0.1984 0.3056
H10 H 0.5307 0.2068 0.3610
C12 C 0.2936(3) 0.1032(2) 0.2837(2)
H11 H 0.2199 0.0780 0.2725
H12 H 0.2932 0.1340 0.3432
C13 C 0.5598(3) 0.23533(18) 0.1464(2)
C14 C 0.3905(3) 0.23096(18) 0.2199(2)
H13 H 0.3725 0.2676 0.2733
C15 C 0.3757(3) 0.27788(19) 0.1256(2)
H14 H 0.3548 0.3377 0.1347
C16 C 0.2539(3) 0.16360(19) 0.1276(2)
C17 C 0.5128(3) 0.31749(19) 0.0039(2)
H15 H 0.4739 0.3719 0.0034
H16 H 0.5927 0.3291 0.0086
C18 C 0.2356(3) 0.2567(2) -0.0098(2)
H17 H 0.2287 0.3184 -0.0106
H18 H 0.1605 0.2329 -0.0145
N1 N 0.6757(2) -0.16318(15) 0.22108(17)
N2 N 0.7052(2) -0.23049(16) 0.09037(17)
N3 N 0.4857(2) -0.21303(16) 0.21821(18)
N4 N 0.5127(2) -0.27503(15) 0.08305(17)
N5 N 0.5627(2) 0.09045(16) 0.32135(18)
N6 N 0.6164(2) -0.04094(15) 0.30414(17)
N7 N 0.3753(2) 0.03672(16) 0.29142(17)
N8 N 0.4280(2) -0.09549(16) 0.31102(18)
N9 N 0.4827(2) 0.27047(15) 0.08563(17)
N10 N 0.5053(2) 0.20801(16) 0.22298(18)
N11 N 0.2882(2) 0.23121(15) 0.07775(17)
N12 N 0.3143(2) 0.16136(15) 0.20957(17)
O1 O 0.80984(18) -0.11387(13) 0.12684(15)
O2 O 0.33443(18) -0.24170(13) 0.12001(15)
O3 O 0.73222(18) 0.06542(13) 0.26100(15)
O4 O 0.26183(19) -0.06935(14) 0.23432(15)
O5 O 0.65806(18) 0.22867(13) 0.13469(15)
O6 O 0.17947(18) 0.11564(13) 0.10403(15)
C1B C 0.2625(3) 0.16298(19) -0.1441(2)
C2B C 0.3802(3) 0.2802(2) -0.1312(2)
H1B H 0.3564 0.3395 -0.1414
C3B C 0.3982(3) 0.23421(19) -0.2241(2)
H2B H 0.3800 0.2709 -0.2788
C4B C 0.5663(3) 0.24331(18) -0.1382(2)
C5B C 0.3027(3) 0.10795(19) -0.2996(2)
H3B H 0.2286 0.0832 -0.2951
H4B H 0.3031 0.1410 -0.3576
C6B C 0.5739(3) 0.18476(19) -0.2973(2)
H5B H 0.6514 0.2032 -0.2892
H6B H 0.5421 0.2121 -0.3540
C7B C 0.3543(3) -0.0407(2) -0.2918(2)
C8B C 0.4833(3) 0.04832(19) -0.3566(2)
H7B H 0.4667 0.0686 -0.4213
C9B C 0.5282(3) -0.04248(19) -0.3555(2)
H8B H 0.5484 -0.0612 -0.4187
C10B C 0.6537(3) 0.0448(2) -0.2749(2)
C11B C 0.4364(3) -0.17959(19) -0.3071(2)
H9B H 0.3590 -0.1984 -0.3056
H10B H 0.4693 -0.2068 -0.3610
C12B C 0.7064(3) -0.1032(2) -0.2837(2)
H11B H 0.7801 -0.0780 -0.2725
H12B H 0.7068 -0.1340 -0.3432
C13B C 0.4402(3) -0.23533(18) -0.1464(2)
C14B C 0.6095(3) -0.23096(18) -0.2199(2)
H13B H 0.6275 -0.2676 -0.2733
C15B C 0.6243(3) -0.27788(19) -0.1256(2)
H14B H 0.6452 -0.3377 -0.1347
C16B C 0.7461(3) -0.16360(19) -0.1276(2)
C17B C 0.4872(3) -0.31749(19) -0.0039(2)
H15B H 0.5261 -0.3719 -0.0034
H16B H 0.4073 -0.3291 -0.0086
C18B C 0.7644(3) -0.2567(2) 0.0098(2)
H17B H 0.7713 -0.3184 0.0106
H18B H 0.8395 -0.2329 0.0145
N1B N 0.3243(2) 0.16318(15) -0.22108(17)
N2B N 0.2948(2) 0.23049(16) -0.09037(17)
N3B N 0.5143(2) 0.21303(16) -0.21821(18)
N4B N 0.4873(2) 0.27503(15) -0.08305(17)
N5B N 0.4373(2) -0.09045(16) -0.32135(18)
N6B N 0.3836(2) 0.04094(15) -0.30414(17)
N7B N 0.6247(2) -0.03672(16) -0.29142(17)
N8B N 0.5720(2) 0.09549(16) -0.31102(18)
N9B N 0.5173(2) -0.27047(15) -0.08563(17)
N10B N 0.4947(2) -0.20801(16) -0.22298(18)
N11B N 0.7118(2) -0.23121(15) -0.07775(17)
N12B N 0.6857(2) -0.16136(15) -0.20957(17)
O1B O 0.19016(18) 0.11387(13) -0.12684(15)
O2B O 0.66557(18) 0.24170(13) -0.12001(15)
O3B O 0.26778(18) -0.06542(13) -0.26100(15)
O4B O 0.73817(19) 0.06935(14) -0.23432(15)
O5B O 0.34194(18) -0.22867(13) -0.13469(15)
O6B O 0.82053(18) -0.11564(13) -0.10403(15)
O7 O 0.9801(2) 0.99392(19) 0.35579(17)
H19 H 0.932(2) 0.998(2) 0.394(2)
H20 H 1.0376(19) 1.002(2) 0.386(2)
O8 O -0.0137(2) 0.12927(18) 0.99133(18)
H21 H -0.014(3) 0.112(2) 0.9366(14)
H22 H 0.0495(19) 0.124(2) 1.011(2)
O9 O 0.1183(2) 0.71462(17) 0.0039(2)
H23 H 0.089(3) 0.7603(16) 0.005(3)
H24 H 0.1834(16) 0.721(2) 0.016(3)
O10 O 0.0445(2) 0.9036(2) 0.1907(2)
H25 H 0.1061(17) 0.915(3) 0.211(3)
H26 H 0.001(2) 0.927(3) 0.224(3)
O11 O -0.0144(3) 0.10626(19) 0.2071(2)
H27 H 0.050(2) 0.089(3) 0.188(3)
H28 H -0.017(3) 0.070(2) 0.254(2)
Br1 Br 0.21617(3) 0.99350(2) 0.48819(2)
N13? N 0.800(2) 1.080(3) 1.088(3)
H29? H 0.8630 1.1038 1.0705
H30? H 0.7686 1.1132 1.1300
H31? H 0.8143 1.0298 1.1132
C19? C 0.727(2) 1.072(2) 1.003(2)
H32? H 0.7606 1.0378 0.9579
H33? H 0.7122 1.1260 0.9757
C20? C 0.6229(19) 1.023(2) 1.0242(19)
H34? H 0.5867 1.0583 1.0669
H35? H 0.6371 0.9698 1.0542
C21? C 0.5498(13) 1.0084(14) 0.9378(14)
H36? H 0.5925 0.9831 0.8908
H37? H 0.5253 1.0619 0.9151
C22? C 0.4513(12) 0.9549(10) 0.9528(11)
H38? H 0.4756 0.9022 0.9780
H39? H 0.4142 0.9441 0.8939
C23? C 0.3675(12) 0.9912(12) 1.0152(13)
H40? H 0.3544 1.0480 0.9962
H41? H 0.4012 0.9927 1.0766
C24? C 0.261(2) 0.942(3) 1.017(3)
H42? H 0.2145 0.9739 1.0550
H43? H 0.2721 0.8880 1.0456
N14? N 0.197(3) 0.945(4) 0.928(4)
H44? H 0.1320 0.9194 0.9341
H45? H 0.1852 0.9957 0.9010
H46? H 0.2398 0.9143 0.8921
N15? N 0.811(2) 1.054(3) 1.085(3)
H47? H 0.8798 1.0688 1.0691
H48? H 0.7898 1.0879 1.1306
H49? H 0.8114 1.0009 1.1040
C25? C 0.7344(16) 1.056(3) 1.002(2)
H50? H 0.7576 1.0207 0.9525
H51? H 0.7347 1.1127 0.9806
C26? C 0.6170(14) 1.035(2) 1.0276(16)
H52? H 0.5894 1.0750 1.0703
H53? H 0.6186 0.9811 1.0575
C27? C 0.5399(11) 1.0291(11) 0.9422(12)
H54? H 0.5611 0.9827 0.9048
H55? H 0.5497 1.0792 0.9068
C28? C 0.4214(10) 1.0208(8) 0.9615(9)
H56? H 0.3785 1.0230 0.9041
H57? H 0.4005 1.0678 0.9983
C29? C 0.3886(11) 0.9431(9) 1.0119(11)
H58? H 0.4198 0.9462 1.0741
H59? H 0.4224 0.8968 0.9818
C30? C 0.2642(17) 0.934(2) 1.019(2)
H60? H 0.2312 0.9763 1.0566
H61? H 0.2537 0.8811 1.0483
N16? N 0.2073(18) 0.927(2) 0.927(3)
H62? H 0.1352 0.9170 0.9322
H63? H 0.2161 0.9776 0.9002
H64? H 0.2373 0.8875 0.8923
loop_
_geom_bond_atom_site_label_1
_geom_bond_atom_site_label_2
_geom_bond_site_symmetry_1
_geom_bond_site_symmetry_2
C1 N1 1_555 1_555
C2 H1 1_555 1_555
C3 C2 1_555 1_555
H2 C3 1_555 1_555
C4 N3 1_555 1_555
C5 H3 1_555 1_555
H4 C5 1_555 1_555
C6 H5 1_555 1_555
H6 C6 1_555 1_555
C7 N5 1_555 1_555
C8 H7 1_555 1_555
C9 C8 1_555 1_555
H8 C9 1_555 1_555
C10 N7 1_555 1_555
C11 H9 1_555 1_555
H10 C11 1_555 1_555
C12 H11 1_555 1_555
H12 C12 1_555 1_555
C13 N9 1_555 1_555
C14 H13 1_555 1_555
C15 C14 1_555 1_555
H14 C15 1_555 1_555
C16 N11 1_555 1_555
C17 H15 1_555 1_555
H16 C17 1_555 1_555
C18 H17 1_555 1_555
H18 C18 1_555 1_555
N1 C3 1_555 1_555
N2 C1 1_555 1_555
N3 C3 1_555 1_555
N4 C2 1_555 1_555
N5 C9 1_555 1_555
N6 C5 1_555 1_555
N7 C9 1_555 1_555
N8 C6 1_555 1_555
N9 C15 1_555 1_555
N10 C11 1_555 1_555
N11 C15 1_555 1_555
N12 C12 1_555 1_555
O1 C1 1_555 1_555
O2 C4 1_555 1_555
O3 C7 1_555 1_555
O4 C10 1_555 1_555
O5 C13 1_555 1_555
O6 C16 1_555 1_555
O7 H19 1_555 1_555
H20 O7 1_555 1_555
O8 H21 1_555 1_555
H22 O8 1_555 1_555
O9 H23 1_555 1_555
H24 O9 1_555 1_555
O10 H25 1_555 1_555
H26 O10 1_555 1_555
O11 H27 1_555 1_555
H28 O11 1_555 1_555
C1B N1B 1_555 1_555
C2B H1B 1_555 1_555
C3B C2B 1_555 1_555
H2B C3B 1_555 1_555
C4B N3B 1_555 1_555
C5B H3B 1_555 1_555
H4B C5B 1_555 1_555
C6B H5B 1_555 1_555
H6B C6B 1_555 1_555
C7B N5B 1_555 1_555
C8B H7B 1_555 1_555
C9B C8B 1_555 1_555
H8B C9B 1_555 1_555
C10B N7B 1_555 1_555
C11B H9B 1_555 1_555
H10B C11B 1_555 1_555
C12B H11B 1_555 1_555
H12B C12B 1_555 1_555
C13B N9B 1_555 1_555
C14B H13B 1_555 1_555
C15B C14B 1_555 1_555
H14B C15B 1_555 1_555
C16B N11B 1_555 1_555
C17B N4 1_555 1_555
H15B C17B 1_555 1_555
H16B C17B 1_555 1_555
C18B N2 1_555 1_555
H17B C18B 1_555 1_555
H18B C18B 1_555 1_555
N1B C3B 1_555 1_555
N2B C18 1_555 1_555
N3B C3B 1_555 1_555
N4B C17 1_555 1_555
N5B C9B 1_555 1_555
N6B C5B 1_555 1_555
N7B C9B 1_555 1_555
N8B C6B 1_555 1_555
N9B C15B 1_555 1_555
N10B C11B 1_555 1_555
N11B C15B 1_555 1_555
N12B C12B 1_555 1_555
O1B C1B 1_555 1_555
O2B C4B 1_555 1_555
O3B C7B 1_555 1_555
O4B C10B 1_555 1_555
O5B C13B 1_555 1_555
O6B C16B 1_555 1_555
C2 N2 1_555 1_555
C4 N4 1_555 1_555
C5 N1 1_555 1_555
C6 N3 1_555 1_555
C7 N6 1_555 1_555
C8 N6 1_555 1_555
C8 N8 1_555 1_555
C10 N8 1_555 1_555
C11 N5 1_555 1_555
C12 N7 1_555 1_555
C13 N10 1_555 1_555
C14 N10 1_555 1_555
C14 N12 1_555 1_555
C16 N12 1_555 1_555
C17 N9 1_555 1_555
C18 N11 1_555 1_555
C1B N2B 1_555 1_555
C2B N2B 1_555 1_555
C2B N4B 1_555 1_555
C4B N4B 1_555 1_555
C5B N1B 1_555 1_555
C6B N3B 1_555 1_555
C7B N6B 1_555 1_555
C8B N6B 1_555 1_555
C8B N8B 1_555 1_555
C10B N8B 1_555 1_555
C11B N5B 1_555 1_555
C12B N7B 1_555 1_555
C13B N10B 1_555 1_555
C14B N10B 1_555 1_555
C14B N12B 1_555 1_555
C16B N12B 1_555 1_555
C17B N9B 1_555 1_555
C18B N11B 1_555 1_555

#END
