
#######################################################################
#
#                 Cambridge Crystallographic Data Centre
#                                CCDC 
#
#######################################################################
#
# If this CIF has been generated from an entry in the Cambridge 
# Structural Database, then it will include bibliographic, chemical, 
# crystal, experimental, refinement or atomic coordinate data resulting 
# from the CCDC's data processing and validation procedures.
#
#######################################################################

data_CERZOP
_chemical_formula_moiety         'C21 H23 N3 O7,H2 O1'
_chemical_name_systematic        
'Methyl 5-(N-(2-methoxycarbonyl-1-methylvinyl)carbamoyl)-2,6-dimethyl-4-(3-nitrophenyl)-1,4-dihydropyridine-3-carboxylate monohydrate'
_symmetry_cell_setting           triclinic
_symmetry_space_group_name_H-M   'P -1'
_symmetry_Int_Tables_number      2
_space_group_name_Hall           '-P 1'
loop_
_symmetry_equiv_pos_site_id
_symmetry_equiv_pos_as_xyz
1 x,y,z
2 -x,-y,-z
_cell_length_a                   7.872(5)
_cell_length_b                   11.800(7)
_cell_length_c                   12.277(7)
_cell_angle_alpha                90.238(10)
_cell_angle_beta                 91.757(10)
_cell_angle_gamma                108.391(9)
_cell_volume                     1081.54
_exptl_crystal_colour            yellow
_exptl_crystal_description       block
_chemical_melting_point          '393-394 K'
_cell_formula_units_Z            2
_exptl_crystal_recrystallization_method 'ethyl acetate'
loop_
_atom_site_label
_atom_site_type_symbol
_atom_site_fract_x
_atom_site_fract_y
_atom_site_fract_z
O1 O 0.4034(3) 0.61631(16) 0.19917(17)
O2 O 0.4786(2) 0.47152(15) 0.27893(15)
O3 O 0.0264(11) 0.386(2) 0.5206(11)
O5 O -0.2608(3) 0.3208(2) 0.51173(18)
O6 O 0.2751(3) 0.02830(16) 0.00440(15)
O7 O 0.2558(3) 0.12534(18) 0.39596(15)
O8 O 0.2622(3) -0.01355(19) 0.51579(16)
N1 N 0.1746(3) 0.35367(18) -0.04983(16)
H1 H 0.1162 0.3662 -0.1064
N2 N -0.1184(4) 0.3253(3) 0.4746(2)
N3 N 0.2709(3) 0.06223(16) 0.18549(16)
H2 H 0.2535 0.1114 0.2325
C1 C 0.2459(3) 0.4468(2) 0.0234(2)
C2 C 0.2947(3) 0.42000(19) 0.12334(19)
C3 C 0.2372(3) 0.29055(19) 0.15830(19)
H3 H 0.3251 0.2810 0.2128
C4 C 0.2334(3) 0.2093(2) 0.06219(19)
C5 C 0.1917(3) 0.2421(2) -0.03753(19)
C6 C 0.1624(4) 0.1714(2) -0.14141(19)
H4 H 0.2753 0.1824 -0.1744
H5 H 0.0856 0.1979 -0.1902
H6 H 0.1073 0.0883 -0.1264
C7 C 0.2631(4) 0.5666(2) -0.0213(2)
H7 H 0.1773 0.5976 0.0114
H8 H 0.2412 0.5600 -0.0988
H9 H 0.3818 0.6197 -0.0054
C8 C 0.3947(3) 0.5129(2) 0.2008(2)
C9 C 0.5820(4) 0.5571(3) 0.3586(2)
H10 H 0.6740 0.6177 0.3230
H11 H 0.6359 0.5176 0.4110
H12 H 0.5053 0.5931 0.3949
C10 C 0.0570(3) 0.2633(2) 0.21184(18)
C11 C 0.0495(3) 0.3015(2) 0.31808(19)
H13 H 0.1543 0.3378 0.3588
C12 C -0.1139(4) 0.2851(2) 0.3622(2)
C13 C -0.2718(4) 0.2328(2) 0.3062(2)
H14 H -0.3810 0.2249 0.3374
C14 C -0.2642(4) 0.1922(3) 0.2025(2)
H15 H -0.3698 0.1546 0.1629
C15 C -0.1019(3) 0.2066(2) 0.1561(2)
H16 H -0.0995 0.1776 0.0858
C16 C 0.2620(3) 0.0934(2) 0.0778(2)
C17 C 0.3039(3) -0.0373(2) 0.2281(2)
C18 C 0.3446(4) -0.1246(2) 0.1537(2)
H17 H 0.3689 -0.1865 0.1958
H18 H 0.4476 -0.0844 0.1125
H19 H 0.2438 -0.1591 0.1048
C19 C 0.3017(4) -0.0529(2) 0.3364(2)
H20 H 0.3216 -0.1217 0.3625
C20 C 0.2711(4) 0.0283(3) 0.4147(2)
C21 C 0.2315(5) 0.0615(3) 0.6003(3)
H21 H 0.3363 0.1297 0.6117
H22 H 0.2060 0.0173 0.6666
H23 H 0.1315 0.0875 0.5792
O9 O 0.0179(3) 0.5996(2) 0.24107(16)
H24 H 0.0030 0.6040 0.3093
H25 H 0.1216 0.5990 0.2233
O4? O 0.0129(17) 0.328(3) 0.5348(7)
loop_
_geom_bond_atom_site_label_1
_geom_bond_atom_site_label_2
_geom_bond_site_symmetry_1
_geom_bond_site_symmetry_2
O1 C8 1_555 1_555
O2 C8 1_555 1_555
O3 N2 1_555 1_555
O5 N2 1_555 1_555
O6 C16 1_555 1_555
O7 C20 1_555 1_555
O8 C20 1_555 1_555
N1 H1 1_555 1_555
N2 C12 1_555 1_555
N3 H2 1_555 1_555
C1 N1 1_555 1_555
C2 C1 1_555 1_555
C3 C2 1_555 1_555
H3 C3 1_555 1_555
C4 C3 1_555 1_555
C5 N1 1_555 1_555
C6 C5 1_555 1_555
H4 C6 1_555 1_555
H5 C6 1_555 1_555
H6 C6 1_555 1_555
C7 C1 1_555 1_555
H7 C7 1_555 1_555
H8 C7 1_555 1_555
H9 C7 1_555 1_555
C8 C2 1_555 1_555
C9 O2 1_555 1_555
H10 C9 1_555 1_555
H11 C9 1_555 1_555
H12 C9 1_555 1_555
C10 C3 1_555 1_555
C11 C10 1_555 1_555
H13 C11 1_555 1_555
C12 C11 1_555 1_555
C13 C12 1_555 1_555
H14 C13 1_555 1_555
C14 C13 1_555 1_555
H15 C14 1_555 1_555
C15 C10 1_555 1_555
H16 C15 1_555 1_555
C16 N3 1_555 1_555
C17 N3 1_555 1_555
C18 C17 1_555 1_555
H17 C18 1_555 1_555
H18 C18 1_555 1_555
H19 C18 1_555 1_555
C19 C17 1_555 1_555
H20 C19 1_555 1_555
C20 C19 1_555 1_555
C21 O8 1_555 1_555
H21 C21 1_555 1_555
H22 C21 1_555 1_555
H23 C21 1_555 1_555
O9 H24 1_555 1_555
H25 O9 1_555 1_555
C4 C5 1_555 1_555
C4 C16 1_555 1_555
C14 C15 1_555 1_555

#END
