
#######################################################################
#
#                 Cambridge Crystallographic Data Centre
#                                CCDC 
#
#######################################################################
#
# If this CIF has been generated from an entry in the Cambridge 
# Structural Database, then it will include bibliographic, chemical, 
# crystal, experimental, refinement or atomic coordinate data resulting 
# from the CCDC's data processing and validation procedures.
#
#######################################################################

data_CESMIW
_chemical_formula_moiety         'C19 H16 O2'
_chemical_name_systematic        1,7-Diphenyl-hepta-1,6-diene-3,5-dione
_symmetry_cell_setting           orthorhombic
_symmetry_space_group_name_H-M   'P b c a'
_symmetry_Int_Tables_number      61
_space_group_name_Hall           '-P 2ac 2ab'
loop_
_symmetry_equiv_pos_site_id
_symmetry_equiv_pos_as_xyz
1 x,y,z
2 1/2-x,-y,1/2+z
3 1/2+x,1/2-y,-z
4 -x,1/2+y,1/2-z
5 -x,-y,-z
6 1/2+x,y,1/2-z
7 1/2-x,1/2+y,z
8 x,1/2-y,1/2+z
_cell_length_a                   36.903(25)
_cell_length_b                   13.998(8)
_cell_length_c                   5.686(3)
_cell_angle_alpha                90
_cell_angle_beta                 90
_cell_angle_gamma                90
_cell_volume                     2937.21
_exptl_crystal_colour            yellow
_chemical_melting_point          425K
_cell_formula_units_Z            8
loop_
_atom_site_label
_atom_site_type_symbol
_atom_site_fract_x
_atom_site_fract_y
_atom_site_fract_z
O1 O 0.35500 0.38090 0.05610
O2 O 0.42200 0.38030 0.01190
C1 C 0.17500 0.38330 -0.37690
C2 C 0.20150 0.34190 -0.52090
C3 C 0.23720 0.34140 -0.44990
C4 C 0.24800 0.38160 -0.23600
C5 C 0.22100 0.42260 -0.09260
C6 C 0.18510 0.42470 -0.16550
C7 C 0.28570 0.38150 -0.14920
C8 C 0.31550 0.35660 -0.27050
C9 C 0.35200 0.36160 -0.16710
C10 C 0.38300 0.34980 -0.30750
C11 C 0.41770 0.36200 -0.20940
C12 C 0.45050 0.35870 -0.35820
C13 C 0.48340 0.38640 -0.27790
C14 C 0.51790 0.38750 -0.40590
C15 C 0.54820 0.43120 -0.29830
C16 C 0.58160 0.43180 -0.40850
C17 C 0.58650 0.38600 -0.62180
C18 C 0.55660 0.34260 -0.73200
C19 C 0.52310 0.34350 -0.62330
H1 H 0.38800 0.38300 0.09800
H2 H 0.15000 0.38400 -0.43800
H3 H 0.19300 0.31100 -0.66900
H4 H 0.25600 0.31300 -0.55500
H5 H 0.22900 0.45400 0.06200
H6 H 0.16600 0.45600 -0.05500
H7 H 0.28900 0.40700 0.01500
H8 H 0.31400 0.33700 -0.42700
H9 H 0.38100 0.33300 -0.47000
H10 H 0.44700 0.33700 -0.52300
H11 H 0.48400 0.41000 -0.10700
H12 H 0.54500 0.46200 -0.14000
H13 H 0.60400 0.46500 -0.31900
H14 H 0.61100 0.38500 -0.70500
H15 H 0.56100 0.30900 -0.88800
H16 H 0.50200 0.31300 -0.70700
loop_
_geom_bond_atom_site_label_1
_geom_bond_atom_site_label_2
_geom_bond_site_symmetry_1
_geom_bond_site_symmetry_2
O1 C9 1_555 1_555
O2 C11 1_555 1_555
C1 C2 1_555 1_555
C2 C3 1_555 1_555
C3 C4 1_555 1_555
C4 C5 1_555 1_555
C5 C6 1_555 1_555
C6 C1 1_555 1_555
C7 C4 1_555 1_555
C8 C7 1_555 1_555
C9 C8 1_555 1_555
C10 C9 1_555 1_555
C11 C10 1_555 1_555
C12 C11 1_555 1_555
C13 C12 1_555 1_555
C14 C13 1_555 1_555
C15 C14 1_555 1_555
C16 C15 1_555 1_555
C17 C16 1_555 1_555
C18 C17 1_555 1_555
C19 C14 1_555 1_555
H1 O1 1_555 1_555
H2 C1 1_555 1_555
H3 C2 1_555 1_555
H4 C3 1_555 1_555
H5 C5 1_555 1_555
H6 C6 1_555 1_555
H7 C7 1_555 1_555
H8 C8 1_555 1_555
H9 C10 1_555 1_555
H10 C12 1_555 1_555
H11 C13 1_555 1_555
H12 C15 1_555 1_555
H13 C16 1_555 1_555
H14 C17 1_555 1_555
H15 C18 1_555 1_555
H16 C19 1_555 1_555
C18 C19 1_555 1_555

#END
