
#######################################################################
#
#                 Cambridge Crystallographic Data Centre
#                                CCDC 
#
#######################################################################
#
# If this CIF has been generated from an entry in the Cambridge 
# Structural Database, then it will include bibliographic, chemical, 
# crystal, experimental, refinement or atomic coordinate data resulting 
# from the CCDC's data processing and validation procedures.
#
#######################################################################

data_CESTAY
_chemical_formula_moiety         'C4 N7 O6 1-,C1 H8 N5 1+'
_chemical_name_systematic        
'dihydrazinylmethaniminium bis(3-nitro-1,2,4-oxadiazol-5-yl)amide'
_symmetry_cell_setting           orthorhombic
_symmetry_space_group_name_H-M   'P n a 21'
_symmetry_Int_Tables_number      33
_space_group_name_Hall           'P 2c -2n'
loop_
_symmetry_equiv_pos_site_id
_symmetry_equiv_pos_as_xyz
1 x,y,z
2 -x,-y,1/2+z
3 1/2-x,1/2+y,1/2+z
4 1/2+x,1/2-y,z
_cell_length_a                   12.6832(10)
_cell_length_b                   14.8873(12)
_cell_length_c                   6.9071(6)
_cell_angle_alpha                90
_cell_angle_beta                 90
_cell_angle_gamma                90
_cell_volume                     1304.19
_exptl_crystal_colour            colorless
_exptl_crystal_description       needle
_cell_formula_units_Z            4
loop_
_atom_site_label
_atom_site_type_symbol
_atom_site_fract_x
_atom_site_fract_y
_atom_site_fract_z
C1 C 0.48819(17) 0.41662(15) 0.2630(4)
C2 C 0.44204(17) 0.56469(14) 0.2673(4)
C3 C 0.43139(18) 0.28931(15) 0.3032(4)
C4 C 0.31691(19) 0.64959(16) 0.3097(4)
N1 N 0.51573(14) 0.50225(14) 0.2432(3)
N2 N 0.52721(18) 0.27071(14) 0.2550(4)
N3 N 0.39102(18) 0.70790(14) 0.2877(4)
N4 N 0.40061(14) 0.37526(12) 0.3136(3)
N5 N 0.33970(14) 0.56163(12) 0.2986(3)
N6 N 0.36017(19) 0.21521(15) 0.3477(4)
N7 N 0.20919(18) 0.67996(16) 0.3467(4)
O1 O 0.56772(14) 0.35747(13) 0.2254(3)
O2 O 0.47801(14) 0.65086(11) 0.2564(4)
O3 O 0.3899(2) 0.14043(14) 0.3078(6)
O4 O 0.27649(16) 0.23327(15) 0.4229(5)
O5 O 0.1977(2) 0.75532(16) 0.4093(6)
O6 O 0.13864(16) 0.62740(17) 0.3100(6)
C5 C 0.19566(16) 0.44170(13) 0.7812(3)
N8 N 0.26873(16) 0.46392(15) 0.9069(4)
H1 H 0.3321 0.4743 0.8684
H2 H 0.2533 0.4682 1.0277
N9 N 0.09668(14) 0.42691(13) 0.8360(3)
H3 H 0.0479 0.4181 0.7517
N10 N 0.07395(19) 0.4259(2) 1.0338(3)
H4 H 0.0639 0.3697 1.0724
H5 H 0.0158 0.4576 1.0553
N11 N 0.21925(18) 0.43518(17) 0.5953(3)
H6 H 0.2828 0.4437 0.5557
N12 N 0.1394(2) 0.41402(19) 0.4650(3)
H7 H 0.1518 0.3601 0.4144
H8 H 0.1382 0.4548 0.3711
loop_
_geom_bond_atom_site_label_1
_geom_bond_atom_site_label_2
_geom_bond_site_symmetry_1
_geom_bond_site_symmetry_2
C1 N1 1_555 1_555
C2 N1 1_555 1_555
C3 N2 1_555 1_555
C4 N3 1_555 1_555
N2 O1 1_555 1_555
N3 O2 1_555 1_555
N4 C1 1_555 1_555
N5 C2 1_555 1_555
N6 C3 1_555 1_555
N7 C4 1_555 1_555
O1 C1 1_555 1_555
O2 C2 1_555 1_555
O3 N6 1_555 1_555
O4 N6 1_555 1_555
O5 N7 1_555 1_555
O6 N7 1_555 1_555
C5 N8 1_555 1_555
N8 H1 1_555 1_555
H2 N8 1_555 1_555
N9 C5 1_555 1_555
H3 N9 1_555 1_555
N10 N9 1_555 1_555
H4 N10 1_555 1_555
H5 N10 1_555 1_555
N11 C5 1_555 1_555
H6 N11 1_555 1_555
N12 N11 1_555 1_555
H7 N12 1_555 1_555
H8 N12 1_555 1_555
C3 N4 1_555 1_555
C4 N5 1_555 1_555

#END
