
#######################################################################
#
#                 Cambridge Crystallographic Data Centre
#                                CCDC 
#
#######################################################################
#
# If this CIF has been generated from an entry in the Cambridge 
# Structural Database, then it will include bibliographic, chemical, 
# crystal, experimental, refinement or atomic coordinate data resulting 
# from the CCDC's data processing and validation procedures.
#
#######################################################################

data_CESVAA
_chemical_formula_moiety         'C48 H5 N84 Na7 O72,24(H2 O1)'
_chemical_name_systematic        
'hexakis(\m-bis(3-nitro-1,2,4-oxadiazol-5-yl)amido)-(bis(3-nitro-1,2,4-oxadiazol-5-yl)amido)-pentakis(bis(3-nitro-1,2,4-oxadiazol-5-yl)amine)-hepta-sodium tetracosahydrate'
_symmetry_cell_setting           cubic
_symmetry_space_group_name_H-M   'F d -3'
_symmetry_Int_Tables_number      203
_space_group_name_Hall           '-F 2uv 2vw 3'
loop_
_symmetry_equiv_pos_site_id
_symmetry_equiv_pos_as_xyz
1 x,y,z
2 1/4-x,1/4-y,z
3 1/4-x,y,1/4-z
4 x,1/4-y,1/4-z
5 z,x,y
6 z,1/4-x,1/4-y
7 1/4-z,1/4-x,y
8 1/4-z,x,1/4-y
9 y,z,x
10 1/4-y,z,1/4-x
11 y,1/4-z,1/4-x
12 1/4-y,1/4-z,x
13 x,1/2+y,1/2+z
14 1/4-x,3/4-y,1/2+z
15 1/4-x,1/2+y,3/4-z
16 x,3/4-y,3/4-z
17 z,1/2+x,1/2+y
18 z,3/4-x,3/4-y
19 1/4-z,3/4-x,1/2+y
20 1/4-z,1/2+x,3/4-y
21 y,1/2+z,1/2+x
22 1/4-y,1/2+z,3/4-x
23 y,3/4-z,3/4-x
24 1/4-y,3/4-z,1/2+x
25 1/2+x,y,1/2+z
26 3/4-x,1/4-y,1/2+z
27 3/4-x,y,3/4-z
28 1/2+x,1/4-y,3/4-z
29 1/2+z,x,1/2+y
30 1/2+z,1/4-x,3/4-y
31 3/4-z,1/4-x,1/2+y
32 3/4-z,x,3/4-y
33 1/2+y,z,1/2+x
34 3/4-y,z,3/4-x
35 1/2+y,1/4-z,3/4-x
36 3/4-y,1/4-z,1/2+x
37 1/2+x,1/2+y,z
38 3/4-x,3/4-y,z
39 3/4-x,1/2+y,1/4-z
40 1/2+x,3/4-y,1/4-z
41 1/2+z,1/2+x,y
42 1/2+z,3/4-x,1/4-y
43 3/4-z,3/4-x,y
44 3/4-z,1/2+x,1/4-y
45 1/2+y,1/2+z,x
46 3/4-y,1/2+z,1/4-x
47 1/2+y,3/4-z,1/4-x
48 3/4-y,3/4-z,x
49 -x,-y,-z
50 3/4+x,3/4+y,-z
51 3/4+x,-y,3/4+z
52 -x,3/4+y,3/4+z
53 -z,-x,-y
54 -z,3/4+x,3/4+y
55 3/4+z,3/4+x,-y
56 3/4+z,-x,3/4+y
57 -y,-z,-x
58 3/4+y,-z,3/4+x
59 -y,3/4+z,3/4+x
60 3/4+y,3/4+z,-x
61 -x,1/2-y,1/2-z
62 3/4+x,1/4+y,1/2-z
63 3/4+x,1/2-y,1/4+z
64 -x,1/4+y,1/4+z
65 -z,1/2-x,1/2-y
66 -z,1/4+x,1/4+y
67 3/4+z,1/4+x,1/2-y
68 3/4+z,1/2-x,1/4+y
69 -y,1/2-z,1/2-x
70 3/4+y,1/2-z,1/4+x
71 -y,1/4+z,1/4+x
72 3/4+y,1/4+z,1/2-x
73 1/2-x,-y,1/2-z
74 1/4+x,3/4+y,1/2-z
75 1/4+x,-y,1/4+z
76 1/2-x,3/4+y,1/4+z
77 1/2-z,-x,1/2-y
78 1/2-z,3/4+x,1/4+y
79 1/4+z,3/4+x,1/2-y
80 1/4+z,-x,1/4+y
81 1/2-y,-z,1/2-x
82 1/4+y,-z,1/4+x
83 1/2-y,3/4+z,1/4+x
84 1/4+y,3/4+z,1/2-x
85 1/2-x,1/2-y,-z
86 1/4+x,1/4+y,-z
87 1/4+x,1/2-y,3/4+z
88 1/2-x,1/4+y,3/4+z
89 1/2-z,1/2-x,-y
90 1/2-z,1/4+x,3/4+y
91 1/4+z,1/4+x,-y
92 1/4+z,1/2-x,3/4+y
93 1/2-y,1/2-z,-x
94 1/4+y,1/2-z,3/4+x
95 1/2-y,1/4+z,3/4+x
96 1/4+y,1/4+z,-x
_cell_length_a                   37.2002(12)
_cell_length_b                   37.2002(12)
_cell_length_c                   37.2002(12)
_cell_angle_alpha                90
_cell_angle_beta                 90
_cell_angle_gamma                90
_cell_volume                     51479.7
_exptl_crystal_colour            colorless
_exptl_crystal_description       block
_cell_formula_units_Z            16
loop_
_atom_site_label
_atom_site_type_symbol
_atom_site_fract_x
_atom_site_fract_y
_atom_site_fract_z
Na1 Na 0.500000 0.500000 0.500000
Na2 Na 0.58735(2) 0.46769(3) 0.33754(3)
O1 O 0.49398(5) 0.45858(6) 0.41730(4)
N1 N 0.53925(5) 0.46974(5) 0.38016(5)
N2 N 0.61256(5) 0.51201(5) 0.29716(5)
N3 N 0.54205(5) 0.42399(5) 0.32082(5)
O2 O 0.71131(5) 0.47349(6) 0.33682(6)
N4 N 0.65246(6) 0.46479(5) 0.34108(5)
O3 O 0.49412(5) 0.38923(6) 0.31628(5)
O4 O 0.58846(6) 0.52051(6) 0.38914(6)
O5 O 0.59322(6) 0.42931(6) 0.27009(6)
O6 O 0.64775(6) 0.54363(6) 0.26064(6)
N5 N 0.56478(6) 0.52023(6) 0.41146(6)
N6 N 0.49656(6) 0.42222(6) 0.36784(6)
O7 O 0.62084(7) 0.41715(6) 0.38491(6)
N7 N 0.51246(6) 0.48841(7) 0.43146(5)
N8 N 0.56822(7) 0.40959(6) 0.26257(6)
O8 O 0.56464(6) 0.39332(6) 0.23449(5)
O9 O 0.54023(6) 0.51400(7) 0.29511(6)
O10 O 0.54115(6) 0.55803(6) 0.25699(7)
N9 N 0.67791(6) 0.50829(7) 0.29962(7)
N10 N 0.65329(8) 0.41858(7) 0.38692(7)
O11 O 0.56242(6) 0.54080(7) 0.43656(6)
N11 N 0.55549(7) 0.53520(7) 0.27556(7)
C1 C 0.53765(6) 0.49229(7) 0.40806(6)
C2 C 0.51121(7) 0.44909(7) 0.38629(6)
N12 N 0.51376(7) 0.38439(7) 0.28410(6)
C3 C 0.54048(7) 0.40551(6) 0.28980(6)
O12 O 0.67168(8) 0.40061(7) 0.40715(7)
C4 C 0.59455(7) 0.53325(7) 0.27453(7)
N13 N 0.61206(8) 0.55278(7) 0.25202(7)
C5 C 0.64628(7) 0.51921(7) 0.28808(7)
N14 N 0.70623(7) 0.44650(8) 0.36276(7)
C6 C 0.51238(7) 0.41351(7) 0.33694(7)
C7 C 0.67817(7) 0.48358(8) 0.32469(8)
C8 C 0.67156(8) 0.44383(7) 0.36293(7)
Na2D Na 0.33754(3) 0.58735(2) 0.46769(3)
O1D O 0.41730(4) 0.49398(5) 0.45858(6)
N1D N 0.38016(5) 0.53925(5) 0.46974(5)
N2D N 0.29716(5) 0.61256(5) 0.51201(5)
N3D N 0.32082(5) 0.54205(5) 0.42399(5)
O2D O 0.33682(6) 0.71131(5) 0.47349(6)
N4D N 0.34108(5) 0.65246(6) 0.46479(5)
O3D O 0.31628(5) 0.49412(5) 0.38923(6)
O4D O 0.38914(6) 0.58846(6) 0.52051(6)
O5D O 0.27009(6) 0.59322(6) 0.42931(6)
O6D O 0.26064(6) 0.64775(6) 0.54363(6)
N5D N 0.41146(6) 0.56478(6) 0.52023(6)
N6D N 0.36784(6) 0.49656(6) 0.42222(6)
O7D O 0.38491(6) 0.62084(7) 0.41715(6)
N7D N 0.43146(5) 0.51246(6) 0.48841(7)
N8D N 0.26257(6) 0.56822(7) 0.40959(6)
O8D O 0.23449(5) 0.56464(6) 0.39332(6)
O9D O 0.29511(6) 0.54023(6) 0.51400(7)
O10D O 0.25699(7) 0.54115(6) 0.55803(6)
N9D N 0.29962(7) 0.67791(6) 0.50829(7)
N10D N 0.38692(7) 0.65329(8) 0.41858(7)
O11D O 0.43656(6) 0.56242(6) 0.54080(7)
N11D N 0.27556(7) 0.55549(7) 0.53520(7)
C1D C 0.40806(6) 0.53765(6) 0.49229(7)
C2D C 0.38629(6) 0.51121(7) 0.44909(7)
N12D N 0.28410(6) 0.51376(7) 0.38439(7)
C3D C 0.28980(6) 0.54048(7) 0.40551(6)
O12D O 0.40715(7) 0.67168(8) 0.40061(7)
C4D C 0.27453(7) 0.59455(7) 0.53325(7)
N13D N 0.25202(7) 0.61206(8) 0.55278(7)
C5D C 0.28808(7) 0.64628(7) 0.51921(7)
N14D N 0.36276(7) 0.70623(7) 0.44650(8)
C6D C 0.33694(7) 0.51238(7) 0.41351(7)
C7D C 0.32469(8) 0.67817(7) 0.48358(8)
C8D C 0.36293(7) 0.67156(8) 0.44383(7)
Na2H Na 0.46769(3) 0.33754(3) 0.58735(2)
O1H O 0.45858(6) 0.41730(4) 0.49398(5)
N1H N 0.46974(5) 0.38016(5) 0.53925(5)
N2H N 0.51201(5) 0.29716(5) 0.61256(5)
N3H N 0.42399(5) 0.32082(5) 0.54205(5)
O2H O 0.47349(6) 0.33682(6) 0.71131(5)
N4H N 0.46479(5) 0.34108(5) 0.65246(6)
O3H O 0.38923(6) 0.31628(5) 0.49412(5)
O4H O 0.52051(6) 0.38914(6) 0.58846(6)
O5H O 0.42931(6) 0.27009(6) 0.59322(6)
O6H O 0.54363(6) 0.26064(6) 0.64775(6)
N5H N 0.52023(6) 0.41146(6) 0.56478(6)
N6H N 0.42222(6) 0.36784(6) 0.49656(6)
O7H O 0.41715(6) 0.38491(6) 0.62084(7)
N7H N 0.48841(7) 0.43146(5) 0.51246(6)
N8H N 0.40959(6) 0.26257(6) 0.56822(7)
O8H O 0.39332(6) 0.23449(5) 0.56464(6)
O9H O 0.51400(7) 0.29511(6) 0.54023(6)
O10H O 0.55803(6) 0.25699(7) 0.54115(6)
N9H N 0.50829(7) 0.29962(7) 0.67791(6)
N10H N 0.41858(7) 0.38692(7) 0.65329(8)
O11H O 0.54080(7) 0.43656(6) 0.56242(6)
N11H N 0.53520(7) 0.27556(7) 0.55549(7)
C1H C 0.49229(7) 0.40806(6) 0.53765(6)
C2H C 0.44909(7) 0.38629(6) 0.51121(7)
N12H N 0.38439(7) 0.28410(6) 0.51376(7)
C3H C 0.40551(6) 0.28980(6) 0.54048(7)
O12H O 0.40061(7) 0.40715(7) 0.67168(8)
C4H C 0.53325(7) 0.27453(7) 0.59455(7)
N13H N 0.55278(7) 0.25202(7) 0.61206(8)
C5H C 0.51921(7) 0.28808(7) 0.64628(7)
N14H N 0.44650(8) 0.36276(7) 0.70623(7)
C6H C 0.41351(7) 0.33694(7) 0.51238(7)
C7H C 0.48358(8) 0.32469(8) 0.67817(7)
C8H C 0.44383(7) 0.36293(7) 0.67156(8)
Na2VA Na 0.41265(2) 0.53231(3) 0.66246(3)
O1VA O 0.50602(5) 0.54142(6) 0.58270(4)
N1VA N 0.46075(5) 0.53026(5) 0.61984(5)
N2VA N 0.38744(5) 0.48799(5) 0.70284(5)
N3VA N 0.45795(5) 0.57601(5) 0.67918(5)
O2VA O 0.28869(5) 0.52651(6) 0.66318(6)
N4VA N 0.34754(6) 0.53521(5) 0.65892(5)
O3VA O 0.50588(5) 0.61077(6) 0.68372(5)
O4VA O 0.41154(6) 0.47949(6) 0.61086(6)
O5VA O 0.40678(6) 0.57069(6) 0.72991(6)
O6VA O 0.35225(6) 0.45637(6) 0.73936(6)
N5VA N 0.43522(6) 0.47977(6) 0.58854(6)
N6VA N 0.50344(6) 0.57778(6) 0.63216(6)
O7VA O 0.37916(7) 0.58285(6) 0.61509(6)
N7VA N 0.48754(6) 0.51159(7) 0.56854(5)
N8VA N 0.43178(7) 0.59041(6) 0.73743(6)
O8VA O 0.43536(6) 0.60668(6) 0.76551(5)
O9VA O 0.45977(6) 0.48600(7) 0.70489(6)
O10VA O 0.45885(6) 0.44197(6) 0.74301(7)
N9VA N 0.32209(6) 0.49171(7) 0.70038(7)
N10VA N 0.34671(8) 0.58142(7) 0.61308(7)
O11VA O 0.43758(6) 0.45920(7) 0.56344(6)
N11VA N 0.44451(7) 0.46480(7) 0.72444(7)
C1VA C 0.46235(6) 0.50771(7) 0.59194(6)
C2VA C 0.48879(7) 0.55091(7) 0.61371(6)
N12VA N 0.48624(7) 0.61561(7) 0.71590(6)
C3VA C 0.45952(7) 0.59449(6) 0.71020(6)
O12VA O 0.32832(8) 0.59939(7) 0.59285(7)
C4VA C 0.40545(7) 0.46675(7) 0.72547(7)
N13VA N 0.38794(8) 0.44722(7) 0.74798(7)
C5VA C 0.35372(7) 0.48079(7) 0.71192(7)
N14VA N 0.29377(7) 0.55350(8) 0.63724(7)
C6VA C 0.48762(7) 0.58649(7) 0.66306(7)
C7VA C 0.32183(7) 0.51642(8) 0.67531(8)
C8VA C 0.32844(8) 0.55617(7) 0.63707(7)
Na2ZA Na 0.66246(3) 0.41265(2) 0.53231(3)
O1ZA O 0.58270(4) 0.50602(5) 0.54142(6)
N1ZA N 0.61984(5) 0.46075(5) 0.53026(5)
N2ZA N 0.70284(5) 0.38744(5) 0.48799(5)
N3ZA N 0.67918(5) 0.45795(5) 0.57601(5)
O2ZA O 0.66318(6) 0.28869(5) 0.52651(6)
N4ZA N 0.65892(5) 0.34754(6) 0.53521(5)
O3ZA O 0.68372(5) 0.50588(5) 0.61077(6)
O4ZA O 0.61086(6) 0.41154(6) 0.47949(6)
O5ZA O 0.72991(6) 0.40678(6) 0.57069(6)
O6ZA O 0.73936(6) 0.35225(6) 0.45637(6)
N5ZA N 0.58854(6) 0.43522(6) 0.47977(6)
N6ZA N 0.63216(6) 0.50344(6) 0.57778(6)
O7ZA O 0.61509(6) 0.37916(7) 0.58285(6)
N7ZA N 0.56854(5) 0.48754(6) 0.51159(7)
N8ZA N 0.73743(6) 0.43178(7) 0.59041(6)
O8ZA O 0.76551(5) 0.43536(6) 0.60668(6)
O9ZA O 0.70489(6) 0.45977(6) 0.48600(7)
O10ZA O 0.74301(7) 0.45885(6) 0.44197(6)
N9ZA N 0.70038(7) 0.32209(6) 0.49171(7)
N10ZA N 0.61308(7) 0.34671(8) 0.58142(7)
O11ZA O 0.56344(6) 0.43758(6) 0.45920(7)
N11ZA N 0.72444(7) 0.44451(7) 0.46480(7)
C1ZA C 0.59194(6) 0.46235(6) 0.50771(7)
C2ZA C 0.61371(6) 0.48879(7) 0.55091(7)
N12ZA N 0.71590(6) 0.48624(7) 0.61561(7)
C3ZA C 0.71020(6) 0.45952(7) 0.59449(6)
O12ZA O 0.59285(7) 0.32832(8) 0.59939(7)
C4ZA C 0.72547(7) 0.40545(7) 0.46675(7)
N13ZA N 0.74798(7) 0.38794(8) 0.44722(7)
C5ZA C 0.71192(7) 0.35372(7) 0.48079(7)
N14ZA N 0.63724(7) 0.29377(7) 0.55350(8)
C6ZA C 0.66306(7) 0.48762(7) 0.58649(7)
C7ZA C 0.67531(8) 0.32183(7) 0.51642(8)
C8ZA C 0.63707(7) 0.32844(8) 0.55617(7)
Na2DB Na 0.53231(3) 0.66246(3) 0.41265(2)
O1DB O 0.54142(6) 0.58270(4) 0.50602(5)
N1DB N 0.53026(5) 0.61984(5) 0.46075(5)
N2DB N 0.48799(5) 0.70284(5) 0.38744(5)
N3DB N 0.57601(5) 0.67918(5) 0.45795(5)
O2DB O 0.52651(6) 0.66318(6) 0.28869(5)
N4DB N 0.53521(5) 0.65892(5) 0.34754(6)
O3DB O 0.61077(6) 0.68372(5) 0.50588(5)
O4DB O 0.47949(6) 0.61086(6) 0.41154(6)
O5DB O 0.57069(6) 0.72991(6) 0.40678(6)
O6DB O 0.45637(6) 0.73936(6) 0.35225(6)
N5DB N 0.47977(6) 0.58854(6) 0.43522(6)
N6DB N 0.57778(6) 0.63216(6) 0.50344(6)
O7DB O 0.58285(6) 0.61509(6) 0.37916(7)
N7DB N 0.51159(7) 0.56854(5) 0.48754(6)
N8DB N 0.59041(6) 0.73743(6) 0.43178(7)
O8DB O 0.60668(6) 0.76551(5) 0.43536(6)
O9DB O 0.48600(7) 0.70489(6) 0.45977(6)
O10DB O 0.44197(6) 0.74301(7) 0.45885(6)
N9DB N 0.49171(7) 0.70038(7) 0.32209(6)
N10DB N 0.58142(7) 0.61308(7) 0.34671(8)
O11DB O 0.45920(7) 0.56344(6) 0.43758(6)
N11DB N 0.46480(7) 0.72444(7) 0.44451(7)
C1DB C 0.50771(7) 0.59194(6) 0.46235(6)
C2DB C 0.55091(7) 0.61371(6) 0.48879(7)
N12DB N 0.61561(7) 0.71590(6) 0.48624(7)
C3DB C 0.59449(6) 0.71020(6) 0.45952(7)
O12DB O 0.59939(7) 0.59285(7) 0.32832(8)
C4DB C 0.46675(7) 0.72547(7) 0.40545(7)
N13DB N 0.44722(7) 0.74798(7) 0.38794(8)
C5DB C 0.48079(7) 0.71192(7) 0.35372(7)
N14DB N 0.55350(8) 0.63724(7) 0.29377(7)
C6DB C 0.58649(7) 0.66306(7) 0.48762(7)
C7DB C 0.51642(8) 0.67531(8) 0.32183(7)
C8DB C 0.55617(7) 0.63707(7) 0.32844(8)
loop_
_geom_bond_atom_site_label_1
_geom_bond_atom_site_label_2
_geom_bond_site_symmetry_1
_geom_bond_site_symmetry_2
Na1 N7 1_555 1_555
Na2 N1 1_555 1_555
O1 N7 1_555 1_555
N1 C1 1_555 1_555
N2 Na2 1_555 1_555
N3 Na2 1_555 1_555
O2 N14 1_555 1_555
N4 Na2 1_555 1_555
O3 N12 1_555 1_555
O4 Na2 1_555 1_555
O5 Na2 1_555 1_555
O6 N13 1_555 1_555
N5 O4 1_555 1_555
N6 C2 1_555 1_555
O7 Na2 1_555 1_555
N7 C1 1_555 1_555
N8 O5 1_555 1_555
O8 N8 1_555 1_555
O9 Na2 1_555 1_555
O10 N11 1_555 1_555
N9 C5 1_555 1_555
N10 O7 1_555 1_555
O11 N5 1_555 1_555
N11 O9 1_555 1_555
C1 N5 1_555 1_555
C2 O1 1_555 1_555
N12 C3 1_555 1_555
C3 N3 1_555 1_555
O12 N10 1_555 1_555
C4 N2 1_555 1_555
N13 C4 1_555 1_555
C5 N2 1_555 1_555
N14 C8 1_555 1_555
C6 N3 1_555 1_555
C7 O2 1_555 1_555
C8 N4 1_555 1_555
Na2D N1D 1_555 1_555
O1D N7D 1_555 1_555
N1D C1D 1_555 1_555
N2D Na2D 1_555 1_555
N3D Na2D 1_555 1_555
O2D N14D 1_555 1_555
N4D Na2D 1_555 1_555
O3D N12D 1_555 1_555
O4D Na2D 1_555 1_555
O5D Na2D 1_555 1_555
O6D N13D 1_555 1_555
N5D O4D 1_555 1_555
N6D C2D 1_555 1_555
O7D Na2D 1_555 1_555
N7D Na1 1_555 1_555
N8D O5D 1_555 1_555
O8D N8D 1_555 1_555
O9D Na2D 1_555 1_555
O10D N11D 1_555 1_555
N9D C5D 1_555 1_555
N10D O7D 1_555 1_555
O11D N5D 1_555 1_555
N11D O9D 1_555 1_555
C1D N5D 1_555 1_555
C2D O1D 1_555 1_555
N12D C3D 1_555 1_555
C3D N3D 1_555 1_555
O12D N10D 1_555 1_555
C4D N2D 1_555 1_555
N13D C4D 1_555 1_555
C5D N2D 1_555 1_555
N14D C8D 1_555 1_555
C6D N3D 1_555 1_555
C7D O2D 1_555 1_555
C8D N4D 1_555 1_555
Na2H N1H 1_555 1_555
O1H N7H 1_555 1_555
N1H C1H 1_555 1_555
N2H Na2H 1_555 1_555
N3H Na2H 1_555 1_555
O2H N14H 1_555 1_555
N4H Na2H 1_555 1_555
O3H N12H 1_555 1_555
O4H Na2H 1_555 1_555
O5H Na2H 1_555 1_555
O6H N13H 1_555 1_555
N5H O4H 1_555 1_555
N6H C2H 1_555 1_555
O7H Na2H 1_555 1_555
N7H Na1 1_555 1_555
N8H O5H 1_555 1_555
O8H N8H 1_555 1_555
O9H Na2H 1_555 1_555
O10H N11H 1_555 1_555
N9H C5H 1_555 1_555
N10H O7H 1_555 1_555
O11H N5H 1_555 1_555
N11H O9H 1_555 1_555
C1H N5H 1_555 1_555
C2H O1H 1_555 1_555
N12H C3H 1_555 1_555
C3H N3H 1_555 1_555
O12H N10H 1_555 1_555
C4H N2H 1_555 1_555
N13H C4H 1_555 1_555
C5H N2H 1_555 1_555
N14H C8H 1_555 1_555
C6H N3H 1_555 1_555
C7H O2H 1_555 1_555
C8H N4H 1_555 1_555
Na2VA N1VA 1_555 1_555
O1VA N7VA 1_555 1_555
N1VA C1VA 1_555 1_555
N2VA Na2VA 1_555 1_555
N3VA Na2VA 1_555 1_555
O2VA N14VA 1_555 1_555
N4VA Na2VA 1_555 1_555
O3VA N12VA 1_555 1_555
O4VA Na2VA 1_555 1_555
O5VA Na2VA 1_555 1_555
O6VA N13VA 1_555 1_555
N5VA O4VA 1_555 1_555
N6VA C2VA 1_555 1_555
O7VA Na2VA 1_555 1_555
N7VA Na1 1_555 1_555
N8VA O5VA 1_555 1_555
O8VA N8VA 1_555 1_555
O9VA Na2VA 1_555 1_555
O10VA N11VA 1_555 1_555
N9VA C5VA 1_555 1_555
N10VA O7VA 1_555 1_555
O11VA N5VA 1_555 1_555
N11VA O9VA 1_555 1_555
C1VA N5VA 1_555 1_555
C2VA O1VA 1_555 1_555
N12VA C3VA 1_555 1_555
C3VA N3VA 1_555 1_555
O12VA N10VA 1_555 1_555
C4VA N2VA 1_555 1_555
N13VA C4VA 1_555 1_555
C5VA N2VA 1_555 1_555
N14VA C8VA 1_555 1_555
C6VA N3VA 1_555 1_555
C7VA O2VA 1_555 1_555
C8VA N4VA 1_555 1_555
Na2ZA N1ZA 1_555 1_555
O1ZA N7ZA 1_555 1_555
N1ZA C1ZA 1_555 1_555
N2ZA Na2ZA 1_555 1_555
N3ZA Na2ZA 1_555 1_555
O2ZA N14ZA 1_555 1_555
N4ZA Na2ZA 1_555 1_555
O3ZA N12ZA 1_555 1_555
O4ZA Na2ZA 1_555 1_555
O5ZA Na2ZA 1_555 1_555
O6ZA N13ZA 1_555 1_555
N5ZA O4ZA 1_555 1_555
N6ZA C2ZA 1_555 1_555
O7ZA Na2ZA 1_555 1_555
N7ZA Na1 1_555 1_555
N8ZA O5ZA 1_555 1_555
O8ZA N8ZA 1_555 1_555
O9ZA Na2ZA 1_555 1_555
O10ZA N11ZA 1_555 1_555
N9ZA C5ZA 1_555 1_555
N10ZA O7ZA 1_555 1_555
O11ZA N5ZA 1_555 1_555
N11ZA O9ZA 1_555 1_555
C1ZA N5ZA 1_555 1_555
C2ZA O1ZA 1_555 1_555
N12ZA C3ZA 1_555 1_555
C3ZA N3ZA 1_555 1_555
O12ZA N10ZA 1_555 1_555
C4ZA N2ZA 1_555 1_555
N13ZA C4ZA 1_555 1_555
C5ZA N2ZA 1_555 1_555
N14ZA C8ZA 1_555 1_555
C6ZA N3ZA 1_555 1_555
C7ZA O2ZA 1_555 1_555
C8ZA N4ZA 1_555 1_555
Na2DB N1DB 1_555 1_555
O1DB N7DB 1_555 1_555
N1DB C1DB 1_555 1_555
N2DB Na2DB 1_555 1_555
N3DB Na2DB 1_555 1_555
O2DB N14DB 1_555 1_555
N4DB Na2DB 1_555 1_555
O3DB N12DB 1_555 1_555
O4DB Na2DB 1_555 1_555
O5DB Na2DB 1_555 1_555
O6DB N13DB 1_555 1_555
N5DB O4DB 1_555 1_555
N6DB C2DB 1_555 1_555
O7DB Na2DB 1_555 1_555
N7DB Na1 1_555 1_555
N8DB O5DB 1_555 1_555
O8DB N8DB 1_555 1_555
O9DB Na2DB 1_555 1_555
O10DB N11DB 1_555 1_555
N9DB C5DB 1_555 1_555
N10DB O7DB 1_555 1_555
O11DB N5DB 1_555 1_555
N11DB O9DB 1_555 1_555
C1DB N5DB 1_555 1_555
C2DB O1DB 1_555 1_555
N12DB C3DB 1_555 1_555
C3DB N3DB 1_555 1_555
O12DB N10DB 1_555 1_555
C4DB N2DB 1_555 1_555
N13DB C4DB 1_555 1_555
C5DB N2DB 1_555 1_555
N14DB C8DB 1_555 1_555
C6DB N3DB 1_555 1_555
C7DB O2DB 1_555 1_555
C8DB N4DB 1_555 1_555
N1 C2 1_555 1_555
N4 C7 1_555 1_555
O3 C6 1_555 1_555
O6 C5 1_555 1_555
N6 C6 1_555 1_555
N8 C3 1_555 1_555
N9 C7 1_555 1_555
N10 C8 1_555 1_555
N11 C4 1_555 1_555
N1D C2D 1_555 1_555
N4D C7D 1_555 1_555
O3D C6D 1_555 1_555
O6D C5D 1_555 1_555
N6D C6D 1_555 1_555
N7D C1D 1_555 1_555
N8D C3D 1_555 1_555
N9D C7D 1_555 1_555
N10D C8D 1_555 1_555
N11D C4D 1_555 1_555
N1H C2H 1_555 1_555
N4H C7H 1_555 1_555
O3H C6H 1_555 1_555
O6H C5H 1_555 1_555
N6H C6H 1_555 1_555
N7H C1H 1_555 1_555
N8H C3H 1_555 1_555
N9H C7H 1_555 1_555
N10H C8H 1_555 1_555
N11H C4H 1_555 1_555
N1VA C2VA 1_555 1_555
N4VA C7VA 1_555 1_555
O3VA C6VA 1_555 1_555
O6VA C5VA 1_555 1_555
N6VA C6VA 1_555 1_555
N7VA C1VA 1_555 1_555
N8VA C3VA 1_555 1_555
N9VA C7VA 1_555 1_555
N10VA C8VA 1_555 1_555
N11VA C4VA 1_555 1_555
N1ZA C2ZA 1_555 1_555
N4ZA C7ZA 1_555 1_555
O3ZA C6ZA 1_555 1_555
O6ZA C5ZA 1_555 1_555
N6ZA C6ZA 1_555 1_555
N7ZA C1ZA 1_555 1_555
N8ZA C3ZA 1_555 1_555
N9ZA C7ZA 1_555 1_555
N10ZA C8ZA 1_555 1_555
N11ZA C4ZA 1_555 1_555
N1DB C2DB 1_555 1_555
N4DB C7DB 1_555 1_555
O3DB C6DB 1_555 1_555
O6DB C5DB 1_555 1_555
N6DB C6DB 1_555 1_555
N7DB C1DB 1_555 1_555
N8DB C3DB 1_555 1_555
N9DB C7DB 1_555 1_555
N10DB C8DB 1_555 1_555
N11DB C4DB 1_555 1_555

#END
