
#######################################################################
#
#                 Cambridge Crystallographic Data Centre
#                                CCDC 
#
#######################################################################
#
# If this CIF has been generated from an entry in the Cambridge 
# Structural Database, then it will include bibliographic, chemical, 
# crystal, experimental, refinement or atomic coordinate data resulting 
# from the CCDC's data processing and validation procedures.
#
#######################################################################

data_CESWAB
_chemical_formula_moiety         'C26 H30 N8 O4,C7 H9 N1'
_chemical_name_systematic        
"N,N'-[1,3-phenylenebis(propane-2,2-diyl)]bis[2-(pyridine-4-carbonyl)hydrazine-1-carboxamide] 4-ethylpyridine solvate"
_symmetry_cell_setting           triclinic
_symmetry_space_group_name_H-M   'P -1'
_symmetry_Int_Tables_number      2
_space_group_name_Hall           '-P 1'
loop_
_symmetry_equiv_pos_site_id
_symmetry_equiv_pos_as_xyz
1 x,y,z
2 -x,-y,-z
_cell_length_a                   13.3968(8)
_cell_length_b                   16.0797(6)
_cell_length_c                   16.7219(8)
_cell_angle_alpha                84.489(4)
_cell_angle_beta                 67.608(5)
_cell_angle_gamma                82.921(4)
_cell_volume                     3300.44
_exptl_crystal_colour            colorless
_exptl_crystal_description       plank
_cell_formula_units_Z            4
loop_
_atom_site_label
_atom_site_type_symbol
_atom_site_fract_x
_atom_site_fract_y
_atom_site_fract_z
O1 O 0.91808(10) 0.02308(7) 0.21479(8)
O2 O 0.78509(9) -0.08881(7) 0.37438(8)
O3 O 0.83464(9) 0.29141(6) 0.32135(8)
O4 O 0.61120(10) 0.17456(7) 0.31904(9)
N1 N 1.09267(11) -0.14206(8) -0.05235(10)
N2 N 0.77484(11) -0.04074(8) 0.21628(9)
H1 H 0.746495 -0.081011 0.201341
N3 N 0.70495(11) -0.00312(8) 0.29233(10)
H2 H 0.684841 0.047508 0.283247
N4 N 0.66816(11) 0.02715(8) 0.43211(9)
H3 H 0.637260 0.073131 0.412864
N5 N 0.95801(10) 0.18342(7) 0.25157(9)
H4 H 0.959175 0.138297 0.224199
N6 N 0.80990(11) 0.22364(9) 0.21602(10)
H5 H 0.842067 0.198059 0.164319
N7 N 0.71311(10) 0.27225(8) 0.22562(9)
H6 H 0.715594 0.319708 0.201578
N8 N 0.32035(13) 0.39268(11) 0.29233(12)
C1 C 1.12898(13) -0.09693(9) -0.00660(12)
H7 H 1.204291 -0.090176 -0.027857
C2 C 1.06248(12) -0.05990(9) 0.06965(11)
H8 H 1.091724 -0.028345 0.099324
C3 C 0.95161(12) -0.06990(9) 0.10203(11)
C4 C 0.91252(13) -0.11696(9) 0.05583(11)
H9 H 0.837692 -0.125144 0.075945
C5 C 0.98552(13) -0.15140(9) -0.02002(12)
H10 H 0.958482 -0.183376 -0.050932
C6 C 0.88095(13) -0.02555(9) 0.18272(11)
C7 C 0.72578(12) -0.02562(9) 0.36734(11)
C8 C 0.68609(14) 0.03074(10) 0.51358(12)
C9 C 0.67627(17) -0.05626(11) 0.56215(13)
H11 H 0.608181 -0.077245 0.567638
H12 H 0.676919 -0.051488 0.619928
H13 H 0.737468 -0.095317 0.529722
C10 C 0.59282(15) 0.09246(12) 0.56795(14)
H14 H 0.595925 0.147244 0.536315
H15 H 0.599996 0.098492 0.623235
H16 H 0.523239 0.070889 0.578886
C11 C 0.79547(14) 0.06527(9) 0.49704(12)
C12 C 0.83466(16) 0.06438(11) 0.56386(13)
H17 H 0.794877 0.040846 0.619727
C13 C 0.93164(16) 0.09787(11) 0.54861(13)
H18 H 0.958556 0.095235 0.593869
C14 C 0.98972(14) 0.13507(10) 0.46842(12)
H19 H 1.055163 0.158416 0.459506
C15 C 0.95190(13) 0.13824(9) 0.40045(11)
C16 C 0.85518(13) 0.10258(9) 0.41663(11)
H20 H 0.829162 0.103865 0.370983
C17 C 1.02037(12) 0.17226(9) 0.30907(11)
C18 C 1.06761(14) 0.25503(10) 0.30941(13)
H21 H 1.111257 0.273117 0.249876
H22 H 1.113320 0.246156 0.343922
H23 H 1.008222 0.298355 0.334645
C19 C 1.11434(13) 0.10508(11) 0.26709(13)
H24 H 1.084761 0.052889 0.265020
H25 H 1.160173 0.094764 0.301466
H26 H 1.157749 0.124912 0.208137
C20 C 0.86576(12) 0.23683(9) 0.26722(11)
C21 C 0.61787(12) 0.24267(9) 0.27706(11)
C22 C 0.51664(12) 0.29761(9) 0.27993(11)
C23 C 0.51549(13) 0.36652(10) 0.22304(12)
H27 H 0.580807 0.382509 0.178980
C24 C 0.41585(15) 0.41169(11) 0.23227(13)
H28 H 0.415885 0.458886 0.193456
C25 C 0.32315(15) 0.32648(13) 0.34646(14)
H29 H 0.256442 0.312053 0.389756
C26 C 0.41767(13) 0.27711(11) 0.34360(13)
H30 H 0.414971 0.230716 0.383844
O5 O 0.39779(9) 0.45370(6) 0.71296(8)
O6 O 0.24632(9) 0.57290(7) 0.87523(8)
O7 O 0.32506(9) 0.17392(7) 0.81411(8)
O8 O 0.13668(9) 0.32851(7) 0.82028(8)
N9 N 0.59432(11) 0.63799(8) 0.45539(10)
N10 N 0.26030(10) 0.55099(8) 0.71256(9)
H31 H 0.235076 0.601415 0.697104
N11 N 0.18658(10) 0.51029(8) 0.78513(9)
H32 H 0.175742 0.458784 0.773167
N12 N 0.15062(10) 0.45666(7) 0.92493(9)
H33 H 0.132340 0.412843 0.900557
N13 N 0.44022(10) 0.27592(7) 0.74008(9)
H34 H 0.429214 0.324148 0.720401
N14 N 0.30685(10) 0.24832(8) 0.69544(9)
H35 H 0.322991 0.291551 0.662655
N15 N 0.19938(10) 0.23049(8) 0.71902(9)
H36 H 0.188284 0.183647 0.696583
N16 N -0.21223(11) 0.22128(10) 0.84553(11)
C27 C 0.48971(13) 0.66925(9) 0.48690(12)
H37 H 0.468385 0.717270 0.457323
C28 C 0.41079(13) 0.63569(9) 0.56007(11)
H38 H 0.337929 0.660281 0.579962
C29 C 0.44183(12) 0.56445(9) 0.60369(11)
C30 C 0.55081(12) 0.53245(9) 0.57191(11)
H39 H 0.574978 0.484988 0.600488
C31 C 0.62336(13) 0.57050(9) 0.49833(11)
H40 H 0.697030 0.547776 0.477343
C32 C 0.36525(12) 0.51858(9) 0.68118(11)
C33 C 0.19992(11) 0.51568(9) 0.86316(11)
C34 C 0.17826(12) 0.43332(9) 1.00270(11)
C35 C 0.14423(14) 0.50681(10) 1.06261(12)
H41 H 0.189100 0.552890 1.034230
H42 H 0.154054 0.488310 1.116935
H43 H 0.067821 0.526172 1.074938
C36 C 0.11060(14) 0.35930(10) 1.04863(12)
H44 H 0.033239 0.378357 1.066658
H45 H 0.127172 0.338516 1.099663
H46 H 0.128492 0.314079 1.008698
C37 C 0.29979(12) 0.40208(9) 0.97441(11)
C38 C 0.36279(14) 0.41782(11) 1.02047(13)
H47 H 0.331907 0.450552 1.069971
C39 C 0.47197(15) 0.38499(12) 0.99321(14)
H48 H 0.514477 0.395480 1.024833
C40 C 0.51862(13) 0.33747(10) 0.92074(13)
H49 H 0.592433 0.315440 0.903475
C41 C 0.45718(12) 0.32170(9) 0.87266(11)
C42 C 0.34821(12) 0.35409(9) 0.90131(11)
H50 H 0.305486 0.343135 0.870039
C43 C 0.51117(11) 0.27225(9) 0.79030(11)
C44 C 0.54601(13) 0.18094(9) 0.81213(12)
H51 H 0.482445 0.153974 0.851965
H52 H 0.599097 0.180205 0.839506
H53 H 0.578706 0.150454 0.758815
C45 C 0.61220(12) 0.31428(10) 0.72859(12)
H54 H 0.645644 0.283726 0.675360
H55 H 0.664399 0.313257 0.756871
H56 H 0.590737 0.372559 0.714352
C46 C 0.35486(11) 0.22955(9) 0.75615(11)
C47 C 0.11923(12) 0.27441(8) 0.78072(11)
C48 C 0.00501(12) 0.25365(9) 0.79987(11)
C49 C -0.07540(12) 0.28300(9) 0.87569(12)
H57 H -0.058173 0.314504 0.913162
C50 C -0.18209(13) 0.26511(10) 0.89550(13)
H58 H -0.236399 0.285211 0.947429
C51 C -0.13381(14) 0.19357(11) 0.77256(13)
H59 H -0.153681 0.162587 0.736217
C52 C -0.02449(13) 0.20757(10) 0.74674(12)
H60 H 0.028164 0.186391 0.694628
N17 N 0.28541(13) 0.04907(10) 0.03008(12)
C53 C 0.32727(15) 0.00120(11) 0.08184(14)
H61 H 0.315775 -0.056652 0.090419
C54 C 0.38615(17) 0.03066(11) 0.12357(15)
H62 H 0.415388 -0.006671 0.158436
C55 C 0.40242(17) 0.11612(12) 0.11404(15)
C56 C 0.36086(16) 0.16594(11) 0.05965(13)
H63 H 0.371618 0.223907 0.049480
C57 C 0.30372(16) 0.13073(12) 0.02037(14)
H64 H 0.275263 0.166459 -0.016069
C58 C 0.4641(2) 0.15331(16) 0.15906(19)
H65 H 0.437639 0.213174 0.168641
H66 H 0.451384 0.123510 0.216208
C59 C 0.5804(2) 0.1458(3) 0.1061(2)
H67 H 0.592275 0.172095 0.048251
H68 H 0.607752 0.086379 0.101178
H69 H 0.619030 0.174012 0.133483
N18 N 1.11432(12) 0.42524(10) 0.64518(11)
C60 C 1.02875(15) 0.48300(13) 0.67379(14)
H70 H 1.030509 0.523239 0.711167
C61 C 0.93783(14) 0.48729(12) 0.65190(13)
H71 H 0.879542 0.529260 0.674535
C62 C 0.93260(13) 0.42990(11) 0.59675(12)
C63 C 1.02114(14) 0.36948(11) 0.56616(13)
H72 H 1.021856 0.328658 0.528424
C64 C 1.10843(14) 0.37045(11) 0.59229(13)
H73 H 1.167920 0.329138 0.570863
C65 C 0.83408(14) 0.43529(12) 0.57187(14)
H74 H 0.768378 0.437656 0.625637
H75 H 0.831578 0.488800 0.537756
C66 C 0.82855(17) 0.36493(16) 0.52049(16)
H76 H 0.889740 0.364592 0.464663
H77 H 0.760346 0.373332 0.510633
H78 H 0.831973 0.311201 0.552833
loop_
_geom_bond_atom_site_label_1
_geom_bond_atom_site_label_2
_geom_bond_site_symmetry_1
_geom_bond_site_symmetry_2
O1 C6 1_555 1_555
O2 C7 1_555 1_555
O3 C20 1_555 1_555
O4 C21 1_555 1_555
N1 C1 1_555 1_555
N2 H1 1_555 1_555
N3 N2 1_555 1_555
H2 N3 1_555 1_555
N4 H3 1_555 1_555
N5 H4 1_555 1_555
N6 H5 1_555 1_555
N7 N6 1_555 1_555
H6 N7 1_555 1_555
N8 C24 1_555 1_555
C1 H7 1_555 1_555
C2 C1 1_555 1_555
H8 C2 1_555 1_555
C3 C2 1_555 1_555
C4 C3 1_555 1_555
H9 C4 1_555 1_555
C5 N1 1_555 1_555
H10 C5 1_555 1_555
C6 N2 1_555 1_555
C7 N3 1_555 1_555
C8 N4 1_555 1_555
C9 C8 1_555 1_555
H11 C9 1_555 1_555
H12 C9 1_555 1_555
H13 C9 1_555 1_555
C10 C8 1_555 1_555
H14 C10 1_555 1_555
H15 C10 1_555 1_555
H16 C10 1_555 1_555
C11 C8 1_555 1_555
C12 C11 1_555 1_555
H17 C12 1_555 1_555
C13 C12 1_555 1_555
H18 C13 1_555 1_555
C14 C13 1_555 1_555
H19 C14 1_555 1_555
C15 C14 1_555 1_555
C16 C11 1_555 1_555
H20 C16 1_555 1_555
C17 N5 1_555 1_555
C18 C17 1_555 1_555
H21 C18 1_555 1_555
H22 C18 1_555 1_555
H23 C18 1_555 1_555
C19 C17 1_555 1_555
H24 C19 1_555 1_555
H25 C19 1_555 1_555
H26 C19 1_555 1_555
C20 N5 1_555 1_555
C21 N7 1_555 1_555
C22 C21 1_555 1_555
C23 C22 1_555 1_555
H27 C23 1_555 1_555
C24 C23 1_555 1_555
H28 C24 1_555 1_555
C25 N8 1_555 1_555
H29 C25 1_555 1_555
C26 C22 1_555 1_555
H30 C26 1_555 1_555
O5 C32 1_555 1_555
O6 C33 1_555 1_555
O7 C46 1_555 1_555
O8 C47 1_555 1_555
N9 C27 1_555 1_555
N10 H31 1_555 1_555
N11 N10 1_555 1_555
H32 N11 1_555 1_555
N12 H33 1_555 1_555
N13 H34 1_555 1_555
N14 H35 1_555 1_555
N15 N14 1_555 1_555
H36 N15 1_555 1_555
N16 C50 1_555 1_555
C27 H37 1_555 1_555
C28 C27 1_555 1_555
H38 C28 1_555 1_555
C29 C28 1_555 1_555
C30 C29 1_555 1_555
H39 C30 1_555 1_555
C31 N9 1_555 1_555
H40 C31 1_555 1_555
C32 N10 1_555 1_555
C33 N11 1_555 1_555
C34 N12 1_555 1_555
C35 C34 1_555 1_555
H41 C35 1_555 1_555
H42 C35 1_555 1_555
H43 C35 1_555 1_555
C36 C34 1_555 1_555
H44 C36 1_555 1_555
H45 C36 1_555 1_555
H46 C36 1_555 1_555
C37 C34 1_555 1_555
C38 C37 1_555 1_555
H47 C38 1_555 1_555
C39 C38 1_555 1_555
H48 C39 1_555 1_555
C40 C39 1_555 1_555
H49 C40 1_555 1_555
C41 C40 1_555 1_555
C42 C37 1_555 1_555
H50 C42 1_555 1_555
C43 N13 1_555 1_555
C44 C43 1_555 1_555
H51 C44 1_555 1_555
H52 C44 1_555 1_555
H53 C44 1_555 1_555
C45 C43 1_555 1_555
H54 C45 1_555 1_555
H55 C45 1_555 1_555
H56 C45 1_555 1_555
C46 N13 1_555 1_555
C47 N15 1_555 1_555
C48 C47 1_555 1_555
C49 C48 1_555 1_555
H57 C49 1_555 1_555
C50 C49 1_555 1_555
H58 C50 1_555 1_555
C51 N16 1_555 1_555
H59 C51 1_555 1_555
C52 C48 1_555 1_555
H60 C52 1_555 1_555
N17 C53 1_555 1_555
C53 H61 1_555 1_555
C54 C53 1_555 1_555
H62 C54 1_555 1_555
C55 C54 1_555 1_555
C56 C55 1_555 1_555
H63 C56 1_555 1_555
C57 N17 1_555 1_555
H64 C57 1_555 1_555
C58 C55 1_555 1_555
H65 C58 1_555 1_555
H66 C58 1_555 1_555
C59 C58 1_555 1_555
H67 C59 1_555 1_555
H68 C59 1_555 1_555
H69 C59 1_555 1_555
N18 C60 1_555 1_555
C60 H70 1_555 1_555
C61 C60 1_555 1_555
H71 C61 1_555 1_555
C62 C61 1_555 1_555
C63 C62 1_555 1_555
H72 C63 1_555 1_555
C64 N18 1_555 1_555
H73 C64 1_555 1_555
C65 C62 1_555 1_555
H74 C65 1_555 1_555
H75 C65 1_555 1_555
C66 C65 1_555 1_555
H76 C66 1_555 1_555
H77 C66 1_555 1_555
H78 C66 1_555 1_555
N4 C7 1_555 1_555
N6 C20 1_555 1_555
C3 C6 1_555 1_555
C4 C5 1_555 1_555
C15 C16 1_555 1_555
C15 C17 1_555 1_555
C25 C26 1_555 1_555
N12 C33 1_555 1_555
N14 C46 1_555 1_555
C29 C32 1_555 1_555
C30 C31 1_555 1_555
C41 C42 1_555 1_555
C41 C43 1_555 1_555
C51 C52 1_555 1_555
C56 C57 1_555 1_555
C63 C64 1_555 1_555

#END
