
#######################################################################
#
#                 Cambridge Crystallographic Data Centre
#                                CCDC 
#
#######################################################################
#
# If this CIF has been generated from an entry in the Cambridge 
# Structural Database, then it will include bibliographic, chemical, 
# crystal, experimental, refinement or atomic coordinate data resulting 
# from the CCDC's data processing and validation procedures.
#
#######################################################################

data_CESYOQ
_chemical_formula_moiety         'C16 H20 B10'
_chemical_name_systematic        
1,2-(1,4-Dihydrophenanthrene-1,4-diyl)-1,2-dicarba-closo-dodecaborane
_symmetry_cell_setting           monoclinic
_symmetry_space_group_name_H-M   'P 21/n'
_symmetry_Int_Tables_number      14
_space_group_name_Hall           '-P 2yn'
loop_
_symmetry_equiv_pos_site_id
_symmetry_equiv_pos_as_xyz
1 x,y,z
2 1/2-x,1/2+y,1/2-z
3 -x,-y,-z
4 1/2+x,1/2-y,1/2+z
_cell_length_a                   10.9237(13)
_cell_length_b                   12.9995(16)
_cell_length_c                   13.1941(17)
_cell_angle_alpha                90
_cell_angle_beta                 108.921(2)
_cell_angle_gamma                90
_cell_volume                     1772.36
_exptl_crystal_colour            colorless
_exptl_crystal_description       block
_cell_formula_units_Z            4
loop_
_atom_site_label
_atom_site_type_symbol
_atom_site_fract_x
_atom_site_fract_y
_atom_site_fract_z
B1 B 0.62877(12) 0.24437(11) 0.06659(11)
H1 H 0.5572 0.2969 0.0102
B2 B 0.64005(13) 0.11404(10) 0.03524(11)
H2 H 0.5780 0.0810 -0.0429
B3 B 0.80173(13) 0.07090(10) 0.09693(11)
H3 H 0.8441 0.0098 0.0585
B4 B 0.89725(12) 0.17221(10) 0.16885(10)
H4 H 1.0032 0.1768 0.1800
B5 B 0.67354(13) 0.26118(10) 0.20618(11)
H5 H 0.6338 0.3260 0.2419
B6 B 0.57817(13) 0.15290(11) 0.14007(11)
H6 H 0.4737 0.1440 0.1330
B7 B 0.68194(13) 0.04474(10) 0.15856(11)
H7 H 0.6455 -0.0352 0.1625
B8 B 0.83956(13) 0.08317(10) 0.23977(11)
H8 H 0.9059 0.0287 0.2978
B9 B 0.83505(13) 0.21816(10) 0.26722(10)
H9 H 0.8994 0.2555 0.3421
B10 B 0.70265(13) 0.13626(10) 0.26479(11)
H10 H 0.6799 0.1173 0.3395
C1 C 0.76973(11) 0.19439(9) 0.04808(9)
C2 C 0.78852(11) 0.27635(9) 0.14273(9)
C3 C 0.81150(12) 0.24619(10) -0.04330(10)
H11 H 0.8011 0.1987 -0.1051
C4 C 0.73351(12) 0.34484(10) -0.07704(10)
H12 H 0.6781 0.3566 -0.1482
C5 C 0.74924(12) 0.41264(10) 0.00054(10)
H13 H 0.7063 0.4772 -0.0104
C6 C 0.84178(11) 0.37920(9) 0.10917(9)
H14 H 0.8544 0.4342 0.1646
C7 C 0.95120(12) 0.28110(10) 0.00763(10)
C8 C 1.05758(13) 0.24116(10) -0.01688(11)
H15 H 1.0450 0.1926 -0.0731
C9 C 1.17996(13) 0.27300(11) 0.04117(11)
H16 H 1.2522 0.2454 0.0253
C10 C 1.20055(12) 0.34641(10) 0.12445(10)
C11 C 1.32699(12) 0.38058(11) 0.18496(11)
H17 H 1.3999 0.3529 0.1702
C12 C 1.34504(12) 0.45216(11) 0.26361(11)
H18 H 1.4302 0.4739 0.3031
C13 C 1.23814(13) 0.49446(10) 0.28703(11)
H19 H 1.2517 0.5449 0.3416
C14 C 1.11499(12) 0.46304(10) 0.23139(10)
H20 H 1.0439 0.4916 0.2482
C15 C 1.09213(11) 0.38826(9) 0.14879(9)
C16 C 0.96763(11) 0.35226(9) 0.08855(9)
loop_
_geom_bond_atom_site_label_1
_geom_bond_atom_site_label_2
_geom_bond_site_symmetry_1
_geom_bond_site_symmetry_2
B1 H1 1_555 1_555
B2 B1 1_555 1_555
H2 B2 1_555 1_555
B3 B2 1_555 1_555
H3 B3 1_555 1_555
B4 B3 1_555 1_555
H4 B4 1_555 1_555
B5 B1 1_555 1_555
H5 B5 1_555 1_555
B6 B1 1_555 1_555
H6 B6 1_555 1_555
B7 B2 1_555 1_555
H7 B7 1_555 1_555
B8 B3 1_555 1_555
H8 B8 1_555 1_555
B9 B4 1_555 1_555
H9 B9 1_555 1_555
B10 B5 1_555 1_555
H10 B10 1_555 1_555
C1 B1 1_555 1_555
C2 B1 1_555 1_555
C3 C1 1_555 1_555
H11 C3 1_555 1_555
C4 C3 1_555 1_555
H12 C4 1_555 1_555
C5 C4 1_555 1_555
H13 C5 1_555 1_555
C6 C2 1_555 1_555
H14 C6 1_555 1_555
C7 C3 1_555 1_555
C8 C7 1_555 1_555
H15 C8 1_555 1_555
C9 C8 1_555 1_555
H16 C9 1_555 1_555
C10 C9 1_555 1_555
C11 C10 1_555 1_555
H17 C11 1_555 1_555
C12 C11 1_555 1_555
H18 C12 1_555 1_555
C13 C12 1_555 1_555
H19 C13 1_555 1_555
C14 C13 1_555 1_555
H20 C14 1_555 1_555
C15 C10 1_555 1_555
C16 C6 1_555 1_555
B2 B6 1_555 1_555
B2 C1 1_555 1_555
B3 B7 1_555 1_555
B3 C1 1_555 1_555
B4 B8 1_555 1_555
B4 C1 1_555 1_555
B4 C2 1_555 1_555
B5 B6 1_555 1_555
B5 B9 1_555 1_555
B5 C2 1_555 1_555
B6 B7 1_555 1_555
B6 B10 1_555 1_555
B7 B8 1_555 1_555
B7 B10 1_555 1_555
B8 B9 1_555 1_555
B8 B10 1_555 1_555
B9 B10 1_555 1_555
B9 C2 1_555 1_555
C1 C2 1_555 1_555
C5 C6 1_555 1_555
C7 C16 1_555 1_555
C14 C15 1_555 1_555
C15 C16 1_555 1_555

#END
