
#######################################################################
#
#                 Cambridge Crystallographic Data Centre
#                                CCDC 
#
#######################################################################
#
# If this CIF has been generated from an entry in the Cambridge 
# Structural Database, then it will include bibliographic, chemical, 
# crystal, experimental, refinement or atomic coordinate data resulting 
# from the CCDC's data processing and validation procedures.
#
#######################################################################

data_CETPOX02
_chemical_formula_moiety         'C9 H12 N3 O1 P1'
_chemical_name_systematic        'tris(2-Cyanoethyl)-phosphine oxide'
_symmetry_cell_setting           rhombohedral
_symmetry_space_group_name_H-M   'R 3 c'
_symmetry_Int_Tables_number      161
_space_group_name_Hall           'R 3 -2"c'
loop_
_symmetry_equiv_pos_site_id
_symmetry_equiv_pos_as_xyz
1 x,y,z
2 1/3+x,2/3+y,2/3+z
3 2/3+x,1/3+y,1/3+z
4 -y,x-y,z
5 -x+y,-x,z
6 1/3-y,2/3+x-y,2/3+z
7 1/3-x+y,2/3-x,2/3+z
8 2/3-y,1/3+x-y,1/3+z
9 2/3-x+y,1/3-x,1/3+z
10 -y,-x,1/2+z
11 1/3-y,2/3-x,1/6+z
12 2/3-y,1/3-x,5/6+z
13 -x+y,y,1/2+z
14 x,x-y,1/2+z
15 1/3-x+y,2/3+y,1/6+z
16 1/3+x,2/3+x-y,1/6+z
17 2/3-x+y,1/3+y,5/6+z
18 2/3+x,1/3+x-y,5/6+z
_cell_length_a                   13.501(6)
_cell_length_b                   13.501(6)
_cell_length_c                   10.177(5)
_cell_angle_alpha                90
_cell_angle_beta                 90
_cell_angle_gamma                120
_cell_volume                     1606.51
_cell_formula_units_Z            6
loop_
_atom_site_label
_atom_site_type_symbol
_atom_site_fract_x
_atom_site_fract_y
_atom_site_fract_z
P1 P 0.00000 0.00000 0.00000
O1 O 0.00000 0.00000 -0.14600
C1 C 0.03040 0.13655 0.06780
C2 C -0.04450 0.17690 0.00210
C3 C -0.00490 0.29800 0.02300
N1 N 0.02270 0.39130 0.03860
H1 H 0.11400 0.19500 0.05100
H2 H 0.01800 0.13000 0.15900
H3 H -0.12400 0.12500 -0.00600
H4 H -0.01800 0.18200 -0.08800
C1C C -0.13655 -0.10615 0.06780
C1D C 0.10615 -0.03040 0.06780
C2C C -0.17690 -0.22140 0.00210
H1C H -0.19500 -0.08100 0.05100
H2C H -0.13000 -0.11200 0.15900
C2D C 0.22140 0.04450 0.00210
H1D H 0.08100 -0.11400 0.05100
H2D H 0.11200 -0.01800 0.15900
C3C C -0.29800 -0.30290 0.02300
H3C H -0.12500 -0.24900 -0.00600
H4C H -0.18200 -0.20000 -0.08800
C3D C 0.30290 0.00490 0.02300
H3D H 0.24900 0.12400 -0.00600
H4D H 0.20000 0.01800 -0.08800
N1C N -0.39130 -0.36860 0.03860
N1D N 0.36860 -0.02270 0.03860
loop_
_geom_bond_atom_site_label_1
_geom_bond_atom_site_label_2
_geom_bond_site_symmetry_1
_geom_bond_site_symmetry_2
P1 O1 1_555 1_555
C1 P1 1_555 1_555
C2 C1 1_555 1_555
C3 C2 1_555 1_555
N1 C3 1_555 1_555
H1 C1 1_555 1_555
H2 C1 1_555 1_555
H3 C2 1_555 1_555
H4 C2 1_555 1_555
C1C P1 1_555 1_555
C1D P1 1_555 1_555
C2C C1C 1_555 1_555
H1C C1C 1_555 1_555
H2C C1C 1_555 1_555
C2D C1D 1_555 1_555
H1D C1D 1_555 1_555
H2D C1D 1_555 1_555
C3C C2C 1_555 1_555
H3C C2C 1_555 1_555
H4C C2C 1_555 1_555
C3D C2D 1_555 1_555
H3D C2D 1_555 1_555
H4D C2D 1_555 1_555
N1C C3C 1_555 1_555
N1D C3D 1_555 1_555

#END
