
#######################################################################
#
#                 Cambridge Crystallographic Data Centre
#                                CCDC 
#
#######################################################################
#
# If this CIF has been generated from an entry in the Cambridge 
# Structural Database, then it will include bibliographic, chemical, 
# crystal, experimental, refinement or atomic coordinate data resulting 
# from the CCDC's data processing and validation procedures.
#
#######################################################################

data_CETWEF
_chemical_formula_moiety         'C23 H16 N3 O1 1+,C6 H2 N3 O7 1-,C3 H7 N1 O1'
_chemical_name_systematic        
'4-((2-(Pyren-1-ylmethylidene)hydrazinyl)carbonyl)pyridinium 2,4,6-trinitrophenolate dimethylformamide solvate'
_symmetry_cell_setting           triclinic
_symmetry_space_group_name_H-M   'P -1'
_symmetry_Int_Tables_number      2
_space_group_name_Hall           '-P 1'
loop_
_symmetry_equiv_pos_site_id
_symmetry_equiv_pos_as_xyz
1 x,y,z
2 -x,-y,-z
_cell_length_a                   8.205(3)
_cell_length_b                   10.646(4)
_cell_length_c                   17.651(7)
_cell_angle_alpha                87.731(4)
_cell_angle_beta                 78.592(3)
_cell_angle_gamma                74.698(4)
_cell_volume                     1457.65
_exptl_crystal_colour            brown
_exptl_crystal_description       block
_cell_formula_units_Z            2
loop_
_atom_site_label
_atom_site_type_symbol
_atom_site_fract_x
_atom_site_fract_y
_atom_site_fract_z
C1 C 0.8567(6) 0.6822(4) -0.2338(2)
H1 H 0.8806 0.6838 -0.1845
C2 C 0.9894(6) 0.6536(5) -0.2970(2)
H2 H 1.1032 0.6363 -0.2908
C3 C 0.7938(7) 0.6734(5) -0.3785(2)
H3 H 0.7738 0.6704 -0.4284
C4 C 0.6585(6) 0.7010(4) -0.3174(2)
H4 H 0.5465 0.7146 -0.3254
C5 C 0.6880(5) 0.7087(4) -0.2434(2)
C6 C 0.5319(6) 0.7484(4) -0.1796(2)
C7 C 0.4612(5) 0.8529(4) 0.0110(2)
H5 H 0.5762 0.8370 0.0151
C8 C 0.3263(5) 0.9035(4) 0.0780(2)
C9 C 0.1549(6) 0.9404(4) 0.0701(2)
H6 H 0.1292 0.9325 0.0218
C10 C 0.0210(5) 0.9885(5) 0.1315(2)
H7 H -0.0921 1.0133 0.1240
C11 C 0.0567(5) 0.9996(4) 0.2049(2)
C12 C -0.0781(5) 1.0467(5) 0.2707(3)
H8 H -0.1921 1.0706 0.2646
C13 C -0.0421(5) 1.0568(5) 0.3412(2)
H9 H -0.1320 1.0871 0.3828
C14 C 0.1305(5) 1.0222(4) 0.3533(2)
C15 C 0.1711(6) 1.0353(4) 0.4254(2)
H10 H 0.0829 1.0669 0.4673
C16 C 0.3375(7) 1.0027(5) 0.4352(3)
H11 H 0.3611 1.0126 0.4837
C17 C 0.4716(6) 0.9553(5) 0.3743(2)
H12 H 0.5844 0.9324 0.3822
C18 C 0.4388(5) 0.9415(4) 0.3008(2)
C19 C 0.5733(5) 0.8934(4) 0.2357(2)
H13 H 0.6870 0.8686 0.2424
C20 C 0.5403(5) 0.8829(4) 0.1653(2)
H14 H 0.6320 0.8533 0.1244
C21 C 0.3669(5) 0.9161(4) 0.1507(2)
C22 C 0.2302(5) 0.9633(4) 0.2150(2)
C23 C 0.2670(5) 0.9753(4) 0.2897(2)
N1 N 0.9530(6) 0.6509(4) -0.3670(2)
N2 N 0.5621(4) 0.7820(3) -0.11155(17)
H15 H 0.6657 0.7734 -0.1051
N3 N 0.4238(4) 0.8302(3) -0.05266(18)
O1 O 0.3905(4) 0.7524(4) -0.19158(17)
H16 H 1.032(7) 0.642(5) -0.409(3)
C24 C 0.3909(7) 0.6452(5) 0.4219(2)
C25 C 0.5013(5) 0.6126(4) 0.3531(2)
H17 H 0.6196 0.5944 0.3505
C26 C 0.4367(5) 0.6068(4) 0.2873(2)
C27 C 0.2619(5) 0.6393(4) 0.2898(2)
H18 H 0.2198 0.6393 0.2445
C28 C 0.1518(5) 0.6711(4) 0.3578(3)
C29 C 0.2054(6) 0.6686(5) 0.4312(3)
N4 N 0.4680(8) 0.6560(5) 0.4886(3)
N5 N 0.5548(5) 0.5675(4) 0.2150(2)
N6 N -0.0314(6) 0.7070(5) 0.3560(3)
O2 O 0.3756(9) 0.7013(6) 0.5478(3)
O3 O 0.6207(7) 0.6065(5) 0.4829(2)
O4 O 0.7085(4) 0.5301(4) 0.2149(2)
O5 O 0.4945(5) 0.5723(4) 0.15668(19)
O6 O -0.0792(5) 0.6691(5) 0.3035(3)
O7 O -0.1298(6) 0.7797(5) 0.4065(3)
O8 O 0.1034(6) 0.6808(5) 0.4935(2)
C30 C 0.0325(6) 0.6778(5) -0.0470(2)
H19 H 0.1119 0.6748 -0.0929
C31 C 0.2750(6) 0.5742(5) 0.0119(3)
H20 H 0.3369 0.5799 -0.0397
H21 H 0.2921 0.4844 0.0262
H22 H 0.3165 0.6192 0.0470
C32 C -0.0205(6) 0.6396(5) 0.0899(2)
H23 H -0.0260 0.7177 0.1167
H24 H 0.0226 0.5652 0.1197
H25 H -0.1335 0.6402 0.0826
N7 N 0.0935(4) 0.6331(3) 0.01545(18)
O9 O -0.1216(4) 0.7233(4) -0.04942(18)
loop_
_geom_bond_atom_site_label_1
_geom_bond_atom_site_label_2
_geom_bond_site_symmetry_1
_geom_bond_site_symmetry_2
C1 H1 1_555 1_555
C2 C1 1_555 1_555
H2 C2 1_555 1_555
C3 H3 1_555 1_555
C4 C3 1_555 1_555
H4 C4 1_555 1_555
C5 C1 1_555 1_555
C6 C5 1_555 1_555
C7 H5 1_555 1_555
C8 C7 1_555 1_555
C9 C8 1_555 1_555
H6 C9 1_555 1_555
C10 C9 1_555 1_555
H7 C10 1_555 1_555
C11 C10 1_555 1_555
C12 C11 1_555 1_555
H8 C12 1_555 1_555
C13 C12 1_555 1_555
H9 C13 1_555 1_555
C14 C13 1_555 1_555
C15 C14 1_555 1_555
H10 C15 1_555 1_555
C16 C15 1_555 1_555
H11 C16 1_555 1_555
C17 C16 1_555 1_555
H12 C17 1_555 1_555
C18 C17 1_555 1_555
C19 C18 1_555 1_555
H13 C19 1_555 1_555
C20 C19 1_555 1_555
H14 C20 1_555 1_555
C21 C8 1_555 1_555
C22 C11 1_555 1_555
C23 C14 1_555 1_555
N1 C2 1_555 1_555
N2 C6 1_555 1_555
H15 N2 1_555 1_555
N3 C7 1_555 1_555
O1 C6 1_555 1_555
H16 N1 1_555 1_555
C24 C25 1_555 1_555
C25 H17 1_555 1_555
C26 C25 1_555 1_555
C27 C26 1_555 1_555
H18 C27 1_555 1_555
C28 C27 1_555 1_555
C29 C24 1_555 1_555
N4 C24 1_555 1_555
N5 C26 1_555 1_555
N6 C28 1_555 1_555
O2 N4 1_555 1_555
O3 N4 1_555 1_555
O4 N5 1_555 1_555
O5 N5 1_555 1_555
O6 N6 1_555 1_555
O7 N6 1_555 1_555
O8 C29 1_555 1_555
C30 H19 1_555 1_555
C31 H20 1_555 1_555
H21 C31 1_555 1_555
H22 C31 1_555 1_555
C32 H23 1_555 1_555
H24 C32 1_555 1_555
H25 C32 1_555 1_555
N7 C30 1_555 1_555
O9 C30 1_555 1_555
C3 N1 1_555 1_555
C4 C5 1_555 1_555
C18 C23 1_555 1_555
C20 C21 1_555 1_555
C21 C22 1_555 1_555
C22 C23 1_555 1_555
N2 N3 1_555 1_555
C28 C29 1_555 1_555
C31 N7 1_555 1_555
C32 N7 1_555 1_555

#END
