
#######################################################################
#
#                 Cambridge Crystallographic Data Centre
#                                CCDC 
#
#######################################################################
#
# If this CIF has been generated from an entry in the Cambridge 
# Structural Database, then it will include bibliographic, chemical, 
# crystal, experimental, refinement or atomic coordinate data resulting 
# from the CCDC's data processing and validation procedures.
#
#######################################################################

data_CEVGUG
_chemical_formula_moiety         'C24 H12 O16 S8 4-,4(C12 H9 N2 1+),14(H2 O1)'
_chemical_name_systematic        
'5,11,17,23-tetrakis(sulfonato)-25,26,27,28-tetrahydroxy-2,8,14,20-tetrathiacalix(4)arene 1,10-phenathrolinium clathrate tris(1,10-phenathrolinium) tetradecahydrate'
_symmetry_cell_setting           triclinic
_symmetry_space_group_name_H-M   'P -1'
_symmetry_Int_Tables_number      2
_space_group_name_Hall           '-P 1'
loop_
_symmetry_equiv_pos_site_id
_symmetry_equiv_pos_as_xyz
1 x,y,z
2 -x,-y,-z
_cell_length_a                   14.247(4)
_cell_length_b                   17.113(5)
_cell_length_c                   18.109(5)
_cell_angle_alpha                68.997(4)
_cell_angle_beta                 72.254(5)
_cell_angle_gamma                82.636(5)
_cell_volume                     3924.78
_cell_formula_units_Z            2
loop_
_atom_site_label
_atom_site_type_symbol
_atom_site_fract_x
_atom_site_fract_y
_atom_site_fract_z
S1 S 0.45390(8) 0.03751(8) 0.16350(7)
S2 S 0.26935(9) 0.27004(7) 0.30723(7)
S3 S 0.09181(9) -0.02719(7) 0.39866(7)
S4 S -0.19254(9) 0.21644(7) 0.34466(8)
S5 S -0.09167(9) 0.00888(8) 0.16078(7)
S6 S 0.02140(11) 0.26613(9) -0.13262(9)
S7 S 0.27700(8) 0.00478(7) -0.05549(7)
S8 S 0.57279(10) 0.22599(8) -0.16240(8)
O1 O 0.2745(3) -0.06579(18) 0.2837(2)
H1 H 0.3196 -0.0725 0.2455
O2 O 0.2204(3) 0.3279(2) 0.2502(2)
O3 O 0.3721(3) 0.2880(2) 0.2878(3)
O4 O 0.2170(3) 0.2580(2) 0.3925(2)
O5 O 0.0482(3) -0.0621(2) 0.2596(2)
H2 H 0.0751 -0.0894 0.2953
O6 O -0.1258(3) 0.2849(2) 0.3134(2)
O7 O -0.2307(3) 0.1884(2) 0.4333(2)
O8 O -0.2689(3) 0.2339(2) 0.3031(2)
O9 O 0.1185(2) -0.05570(19) 0.0992(2)
H3 H 0.0731 -0.0719 0.1414
O10 O 0.0791(4) 0.3292(3) -0.1327(4)
O11 O -0.0813(3) 0.2838(3) -0.1033(3)
O12 O 0.0445(5) 0.2509(4) -0.2077(3)
O13 O 0.3013(2) -0.0184(2) 0.11273(18)
H4 H 0.2689 -0.0409 0.0958
O14 O 0.5162(4) 0.3005(3) -0.1860(3)
O15 O 0.6468(4) 0.2369(5) -0.1305(3)
O16 O 0.6073(3) 0.1921(2) -0.2271(2)
C1 C 0.3486(3) 0.0698(3) 0.2297(2)
C2 C 0.3467(3) 0.1475(3) 0.2377(3)
H5 H 0.3977 0.1843 0.2045
C3 C 0.2697(3) 0.1712(2) 0.2947(3)
C4 C 0.1936(3) 0.1172(3) 0.3428(3)
H6 H 0.1418 0.1331 0.3808
C5 C 0.1930(3) 0.0397(3) 0.3356(2)
C6 C 0.2730(3) 0.0135(3) 0.2815(3)
C7 C 0.0042(3) 0.0250(3) 0.3447(3)
C8 C -0.0553(3) 0.0893(3) 0.3642(3)
H7 H -0.0503 0.1046 0.4071
C9 C -0.1219(3) 0.1311(3) 0.3211(3)
C10 C -0.1300(3) 0.1076(3) 0.2578(3)
H8 H -0.1751 0.1356 0.2289
C11 C -0.0727(3) 0.0438(3) 0.2368(3)
C12 C -0.0053(3) 0.0004(3) 0.2811(3)
C13 C 0.0026(3) 0.0596(3) 0.0696(3)
C14 C -0.0191(3) 0.1351(3) 0.0140(3)
H9 H -0.0800 0.1616 0.0272
C15 C 0.0492(3) 0.1711(3) -0.0607(3)
C16 C 0.1393(3) 0.1316(3) -0.0804(3)
H10 H 0.1851 0.1559 -0.1308
C17 C 0.1623(3) 0.0568(3) -0.0263(3)
C18 C 0.0932(3) 0.0189(3) 0.0494(3)
C19 C 0.3575(3) 0.0586(2) -0.0326(3)
C20 C 0.4217(3) 0.1162(3) -0.0957(3)
H11 H 0.4184 0.1304 -0.1495
C21 C 0.4909(3) 0.1531(3) -0.0798(3)
C22 C 0.4958(3) 0.1313(3) 0.0001(3)
H12 H 0.5428 0.1556 0.0107
C23 C 0.4321(3) 0.0739(3) 0.0649(3)
C24 C 0.3620(3) 0.0367(2) 0.0487(3)
N1 N 0.2037(4) 0.3177(3) -0.0090(3)
H13 H 0.2355 0.3347 -0.0604
N2 N 0.2085(3) 0.4846(3) -0.1018(3)
C25 C 0.2043(6) 0.2368(5) 0.0345(6)
H17 H 0.2401 0.1996 0.0089
C26 C 0.1534(7) 0.2068(5) 0.1162(6)
H18 H 0.1549 0.1498 0.1457
C27 C 0.1014(5) 0.2601(4) 0.1532(4)
H19 H 0.0655 0.2398 0.2083
C28 C 0.1008(4) 0.3464(4) 0.1095(3)
C29 C 0.0487(4) 0.4071(4) 0.1451(4)
H20 H 0.0118 0.3893 0.2001
C30 C 0.0517(4) 0.4892(4) 0.1015(4)
H21 H 0.0180 0.5272 0.1268
C31 C 0.1063(4) 0.5189(3) 0.0162(3)
C32 C 0.1118(4) 0.6046(4) -0.0319(4)
H22 H 0.0799 0.6448 -0.0088
C33 C 0.1644(5) 0.6272(4) -0.1122(4)
H23 H 0.1691 0.6834 -0.1452
C34 C 0.2113(5) 0.5657(5) -0.1448(4)
H24 H 0.2469 0.5825 -0.2001
C35 C 0.1564(3) 0.4613(3) -0.0216(3)
C36 C 0.1537(4) 0.3739(3) 0.0263(3)
N3 N 0.9510(4) 0.4008(3) 0.4286(3)
H14 H 0.9243 0.3542 0.4623
N4 N 0.8054(4) 0.3936(3) 0.5688(3)
C37 C 1.0213(5) 0.4013(5) 0.3616(4)
H25 H 1.0420 0.3512 0.3518
C38 C 1.0645(5) 0.4742(5) 0.3062(4)
H26 H 1.1141 0.4733 0.2592
C39 C 1.0353(4) 0.5484(4) 0.3195(4)
H27 H 1.0642 0.5982 0.2815
C40 C 0.9608(4) 0.5485(3) 0.3915(3)
C41 C 0.9270(5) 0.6220(4) 0.4119(4)
H28 H 0.9544 0.6732 0.3763
C42 C 0.8563(5) 0.6190(4) 0.4818(4)
H29 H 0.8358 0.6681 0.4936
C43 C 0.8125(4) 0.5422(3) 0.5377(3)
C44 C 0.7382(5) 0.5355(4) 0.6110(4)
H30 H 0.7148 0.5829 0.6253
C45 C 0.7001(5) 0.4585(4) 0.6616(4)
H31 H 0.6515 0.4530 0.7109
C46 C 0.7352(5) 0.3895(4) 0.6383(4)
H32 H 0.7085 0.3377 0.6727
C47 C 0.8445(4) 0.4685(3) 0.5192(3)
C48 C 0.9200(4) 0.4721(3) 0.4456(3)
N5 N 0.5967(3) 0.3292(3) 0.1344(3)
N6 N 0.5636(3) 0.4982(3) 0.0910(3)
H15 H 0.5431 0.4651 0.1410
C49 C 0.6162(4) 0.2485(3) 0.1537(3)
H33 H 0.5936 0.2152 0.2087
C50 C 0.6680(4) 0.2096(3) 0.0979(4)
H34 H 0.6789 0.1519 0.1154
C51 C 0.7033(4) 0.2571(3) 0.0165(3)
H35 H 0.7387 0.2322 -0.0220
C52 C 0.6851(3) 0.3439(3) -0.0078(3)
C53 C 0.7161(4) 0.3988(3) -0.0907(3)
H36 H 0.7496 0.3768 -0.1319
C54 C 0.6980(4) 0.4820(3) -0.1109(3)
H37 H 0.7196 0.5164 -0.1655
C55 C 0.6468(3) 0.5174(3) -0.0500(3)
C56 C 0.6267(4) 0.6040(3) -0.0663(3)
H38 H 0.6478 0.6409 -0.1200
C57 C 0.5769(4) 0.6344(3) -0.0048(4)
H39 H 0.5642 0.6916 -0.0163
C58 C 0.5455(4) 0.5791(3) 0.0750(4)
H40 H 0.5114 0.5992 0.1175
C59 C 0.6132(3) 0.4651(3) 0.0320(3)
C60 C 0.6317(3) 0.3763(3) 0.0540(3)
N7 N 0.5963(4) 0.0604(3) 0.3291(3)
N8 N 0.5416(3) 0.1844(3) 0.3960(3)
H16 H 0.5983 0.1828 0.3618
C61 C 0.6207(6) -0.0015(4) 0.2995(4)
H41 H 0.6822 -0.0007 0.2617
C62 C 0.5592(8) -0.0685(5) 0.3219(5)
H42 H 0.5795 -0.1110 0.2994
C63 C 0.4698(7) -0.0704(4) 0.3767(5)
H43 H 0.4281 -0.1145 0.3919
C64 C 0.4399(5) -0.0072(4) 0.4104(4)
C65 C 0.3475(6) -0.0050(5) 0.4681(5)
H44 H 0.3036 -0.0481 0.4853
C66 C 0.3222(5) 0.0578(5) 0.4983(4)
H45 H 0.2607 0.0578 0.5357
C67 C 0.3865(4) 0.1244(4) 0.4748(3)
C68 C 0.3660(5) 0.1927(5) 0.5037(4)
H46 H 0.3056 0.1959 0.5413
C69 C 0.4309(5) 0.2527(5) 0.4784(4)
H47 H 0.4152 0.2978 0.4974
C70 C 0.5209(5) 0.2477(4) 0.4244(4)
H48 H 0.5673 0.2887 0.4077
C71 C 0.4785(4) 0.1222(4) 0.4179(3)
C72 C 0.5073(4) 0.0566(4) 0.3837(3)
O17 O 0.4700(3) 0.4312(3) 0.2497(3)
O18 O 0.0930(4) 0.1706(3) 0.5462(3)
O19 O 0.1688(4) 0.1717(3) 0.6763(3)
O20 O 0.1601(4) 0.7437(5) 0.2274(4)
O21 O 0.2185(5) 0.4131(5) 0.7210(5)
O22 O 0.7572(6) 0.4193(4) 0.3617(5)
O23 O 0.3162(6) 0.3151(6) 0.8452(5)
O25 O 0.1306(7) 0.7978(4) 0.3467(5)
O26 O 0.9056(7) 0.2430(5) 0.5011(6)
O27 O 0.4899(7) 0.7197(6) 0.3599(5)
O28 O 0.3070(8) 0.2813(7) 0.6659(7)
O29 O 0.5516(9) 0.4644(7) 0.3521(7)
O30 O 0.7456(14) 0.2413(10) 0.5601(10)
O31 O 0.6601(17) 0.3124(15) 0.5099(14)
O32 O 0.590(2) 0.4162(18) 0.5031(17)
O33 O 0.601(3) 0.557(3) 0.467(3)
O24? O 0.3412(18) 0.4039(18) 0.7928(16)
loop_
_geom_bond_atom_site_label_1
_geom_bond_atom_site_label_2
_geom_bond_site_symmetry_1
_geom_bond_site_symmetry_2
S1 C1 1_555 1_555
S2 O2 1_555 1_555
S3 C5 1_555 1_555
S4 O6 1_555 1_555
S5 C11 1_555 1_555
S6 O10 1_555 1_555
S7 C17 1_555 1_555
S8 O14 1_555 1_555
O1 H1 1_555 1_555
O3 S2 1_555 1_555
O4 S2 1_555 1_555
O5 H2 1_555 1_555
O7 S4 1_555 1_555
O8 S4 1_555 1_555
O9 H3 1_555 1_555
O11 S6 1_555 1_555
O12 S6 1_555 1_555
O13 H4 1_555 1_555
O15 S8 1_555 1_555
O16 S8 1_555 1_555
C1 C2 1_555 1_555
C2 H5 1_555 1_555
C3 S2 1_555 1_555
C4 C3 1_555 1_555
H6 C4 1_555 1_555
C5 C4 1_555 1_555
C6 O1 1_555 1_555
C7 S3 1_555 1_555
C8 C7 1_555 1_555
H7 C8 1_555 1_555
C9 S4 1_555 1_555
C10 C9 1_555 1_555
H8 C10 1_555 1_555
C11 C10 1_555 1_555
C12 O5 1_555 1_555
C13 S5 1_555 1_555
C14 C13 1_555 1_555
H9 C14 1_555 1_555
C15 S6 1_555 1_555
C16 C15 1_555 1_555
H10 C16 1_555 1_555
C17 C16 1_555 1_555
C18 O9 1_555 1_555
C19 S7 1_555 1_555
C20 C19 1_555 1_555
H11 C20 1_555 1_555
C21 S8 1_555 1_555
C22 C21 1_555 1_555
H12 C22 1_555 1_555
C23 S1 1_555 1_555
C24 O13 1_555 1_555
N1 H13 1_555 1_555
N2 C34 1_555 1_555
N3 H14 1_555 1_555
N4 C46 1_555 1_555
N5 C49 1_555 1_555
N6 H15 1_555 1_555
N7 C61 1_555 1_555
N8 H16 1_555 1_555
C25 N1 1_555 1_555
H17 C25 1_555 1_555
C26 C25 1_555 1_555
H18 C26 1_555 1_555
C27 C26 1_555 1_555
H19 C27 1_555 1_555
C28 C27 1_555 1_555
C29 C28 1_555 1_555
H20 C29 1_555 1_555
C30 C29 1_555 1_555
H21 C30 1_555 1_555
C31 C30 1_555 1_555
C32 C31 1_555 1_555
H22 C32 1_555 1_555
C33 C32 1_555 1_555
H23 C33 1_555 1_555
C34 C33 1_555 1_555
H24 C34 1_555 1_555
C35 N2 1_555 1_555
C36 N1 1_555 1_555
C37 N3 1_555 1_555
H25 C37 1_555 1_555
C38 C37 1_555 1_555
H26 C38 1_555 1_555
C39 C38 1_555 1_555
H27 C39 1_555 1_555
C40 C39 1_555 1_555
C41 C40 1_555 1_555
H28 C41 1_555 1_555
C42 C41 1_555 1_555
H29 C42 1_555 1_555
C43 C42 1_555 1_555
C44 C43 1_555 1_555
H30 C44 1_555 1_555
C45 C44 1_555 1_555
H31 C45 1_555 1_555
C46 C45 1_555 1_555
H32 C46 1_555 1_555
C47 N4 1_555 1_555
C48 N3 1_555 1_555
C49 H33 1_555 1_555
C50 C49 1_555 1_555
H34 C50 1_555 1_555
C51 C50 1_555 1_555
H35 C51 1_555 1_555
C52 C51 1_555 1_555
C53 C52 1_555 1_555
H36 C53 1_555 1_555
C54 C53 1_555 1_555
H37 C54 1_555 1_555
C55 C54 1_555 1_555
C56 C55 1_555 1_555
H38 C56 1_555 1_555
C57 C56 1_555 1_555
H39 C57 1_555 1_555
C58 N6 1_555 1_555
H40 C58 1_555 1_555
C59 N6 1_555 1_555
C60 N5 1_555 1_555
C61 H41 1_555 1_555
C62 C61 1_555 1_555
H42 C62 1_555 1_555
C63 C62 1_555 1_555
H43 C63 1_555 1_555
C64 C63 1_555 1_555
C65 C64 1_555 1_555
H44 C65 1_555 1_555
C66 C65 1_555 1_555
H45 C66 1_555 1_555
C67 C66 1_555 1_555
C68 C67 1_555 1_555
H46 C68 1_555 1_555
C69 C68 1_555 1_555
H47 C69 1_555 1_555
C70 N8 1_555 1_555
H48 C70 1_555 1_555
C71 N8 1_555 1_555
C72 N7 1_555 1_555
C1 C6 1_555 1_555
C2 C3 1_555 1_555
C5 C6 1_555 1_555
C7 C12 1_555 1_555
C8 C9 1_555 1_555
C11 C12 1_555 1_555
C13 C18 1_555 1_555
C14 C15 1_555 1_555
C17 C18 1_555 1_555
C19 C24 1_555 1_555
C20 C21 1_555 1_555
C22 C23 1_555 1_555
C23 C24 1_555 1_555
C28 C36 1_555 1_555
C31 C35 1_555 1_555
C35 C36 1_555 1_555
C40 C48 1_555 1_555
C43 C47 1_555 1_555
C47 C48 1_555 1_555
C52 C60 1_555 1_555
C55 C59 1_555 1_555
C57 C58 1_555 1_555
C59 C60 1_555 1_555
C64 C72 1_555 1_555
C67 C71 1_555 1_555
C69 C70 1_555 1_555
C71 C72 1_555 1_555

#END
