
#######################################################################
#
#                 Cambridge Crystallographic Data Centre
#                                CCDC 
#
#######################################################################
#
# If this CIF has been generated from an entry in the Cambridge 
# Structural Database, then it will include bibliographic, chemical, 
# crystal, experimental, refinement or atomic coordinate data resulting 
# from the CCDC's data processing and validation procedures.
#
#######################################################################

data_CEVXIN
_chemical_formula_moiety         'C84 H110 N4 O4'
_chemical_name_systematic        
5,10,15,20-tetrakis(4-((3,7-dimethyloctyl)oxy)phenyl)porphyrin
_symmetry_cell_setting           triclinic
_symmetry_space_group_name_H-M   'P 1'
_symmetry_Int_Tables_number      1
_space_group_name_Hall           'P 1'
loop_
_symmetry_equiv_pos_site_id
_symmetry_equiv_pos_as_xyz
1 x,y,z
_cell_length_a                   10.6781(5)
_cell_length_b                   11.9482(5)
_cell_length_c                   16.6104(16)
_cell_angle_alpha                108.593(5)
_cell_angle_beta                 90.915(6)
_cell_angle_gamma                109.661(5)
_cell_volume                     1873.39
_exptl_crystal_colour            purple
_exptl_crystal_description       plate
_cell_formula_units_Z            1
loop_
_atom_site_label
_atom_site_type_symbol
_atom_site_fract_x
_atom_site_fract_y
_atom_site_fract_z
C1 C 0.8100(4) 0.5743(4) 0.4437(3)
C2 C 0.7732(4) 0.6546(5) 0.5123(3)
N1 N 0.6499(4) 0.6314(4) 0.5393(2)
H1 H 0.582(8) 0.562(7) 0.516(6)
C3 C 0.8595(5) 0.7763(5) 0.5669(3)
H2 H 0.9500 0.8169 0.5626
C4 C 0.7876(5) 0.8238(5) 0.6268(3)
H3 H 0.8199 0.9025 0.6716
C5 C 0.6545(4) 0.7326(4) 0.6093(3)
C6 C 0.5490(4) 0.7433(4) 0.6562(3)
C7 C 0.4207(4) 0.6484(4) 0.6401(3)
N2 N 0.3819(4) 0.5314(4) 0.5780(2)
C8 C 0.3108(4) 0.6636(4) 0.6863(3)
H4 H 0.3121 0.7354 0.7316
C9 C 0.2059(5) 0.5539(5) 0.6513(3)
H5 H 0.1198 0.5345 0.6682
C10 C 0.2494(4) 0.4719(4) 0.5837(3)
C11 C 0.1660(4) 0.3522(4) 0.5292(3)
C12 C 0.2020(4) 0.2707(4) 0.4610(3)
N3 N 0.3261(4) 0.2951(4) 0.4325(2)
H6 H 0.394(7) 0.365(6) 0.452(6)
C13 C 0.1180(5) 0.1457(4) 0.4078(3)
H7 H 0.0280 0.1044 0.4127
C14 C 0.1895(5) 0.0964(5) 0.3491(3)
H8 H 0.1586 0.0158 0.3064
C15 C 0.3218(4) 0.1913(4) 0.3646(3)
C16 C 0.4273(5) 0.1811(4) 0.3167(3)
C17 C 0.5530(4) 0.2760(4) 0.3320(3)
N4 N 0.5940(4) 0.3926(4) 0.3954(2)
C18 C 0.6632(5) 0.2646(5) 0.2852(3)
H9 H 0.6612 0.1940 0.2385
C19 C 0.7689(5) 0.3722(5) 0.3199(3)
H10 H 0.8545 0.3913 0.3023
C20 C 0.7259(4) 0.4543(4) 0.3902(3)
C21 C 0.9527(4) 0.6200(4) 0.4270(3)
C22 C 1.0516(5) 0.6045(5) 0.4715(3)
H11 H 1.0295 0.5698 0.5151
C23 C 0.9881(5) 0.6746(5) 0.3650(3)
H12 H 0.9219 0.6870 0.3345
C24 C 1.1835(5) 0.6388(5) 0.4538(3)
H13 H 1.2492 0.6268 0.4849
C25 C 1.1184(5) 0.7115(5) 0.3464(3)
H14 H 1.1407 0.7503 0.3049
C26 C 1.2169(4) 0.6906(4) 0.3902(3)
O1 O 1.3411(3) 0.7240(3) 0.3648(2)
C27 C 0.5749(4) 0.8643(4) 0.7289(3)
C28 C 0.5996(5) 0.9779(4) 0.7147(3)
H15 H 0.6012 0.9786 0.6583
C29 C 0.5763(6) 0.8684(5) 0.8140(3)
H16 H 0.5610 0.7933 0.8257
C30 C 0.6219(5) 1.0897(5) 0.7816(3)
H17 H 0.6371 1.1653 0.7705
C31 C 0.5995(6) 0.9792(5) 0.8810(3)
H18 H 0.6003 0.9793 0.9377
C32 C 0.6217(5) 1.0901(5) 0.8653(3)
O2 O 0.6446(4) 1.2058(4) 0.9278(2)
C33 C 0.0222(4) 0.3038(4) 0.5443(3)
C34 C -0.0132(4) 0.2646(5) 0.6139(3)
H19 H 0.0548 0.2726 0.6543
C35 C -0.0807(5) 0.2945(5) 0.4870(3)
H20 H -0.0590 0.3208 0.4398
C36 C -0.2136(4) 0.2475(5) 0.4982(3)
H21 H -0.2815 0.2449 0.4602
C37 C -0.1449(5) 0.2146(5) 0.6249(3)
H22 H -0.1668 0.1876 0.6719
C38 C -0.2459(5) 0.2042(5) 0.5660(3)
O3 O -0.3740(3) 0.1476(4) 0.5802(2)
C39 C 0.3987(4) 0.0580(4) 0.2447(3)
C40 C 0.3760(5) -0.0542(5) 0.2598(3)
H23 H 0.3811 -0.0529 0.3166
C41 C 0.3917(6) 0.0542(5) 0.1607(3)
H24 H 0.4084 0.1296 0.1492
C42 C 0.3461(5) -0.1682(5) 0.1934(3)
H25 H 0.3313 -0.2431 0.2052
C43 C 0.3600(7) -0.0614(6) 0.0919(3)
H26 H 0.3539 -0.0634 0.0349
C44 C 0.3380(5) -0.1713(5) 0.1093(3)
O4 O 0.3081(5) -0.2877(4) 0.0484(2)
C45 C 0.6673(8) 1.2142(6) 1.0157(3)
H27 H 0.7416 1.1865 1.0241
H28 H 0.5866 1.1606 1.0313
C46 C 0.7016(8) 1.3527(7) 1.0703(4)
H29 H 0.6225 1.3751 1.0642
H30 H 0.7193 1.3618 1.1305
C47 C 0.8164(8) 1.4440(6) 1.0504(4)
H31 H 0.7882 1.4440 0.9933
C48 C 0.8412(13) 1.5775(8) 1.1134(7)
H32 H 0.8712 1.5833 1.1705
H33 H 0.7585 1.5945 1.1137
H34 H 0.9095 1.6391 1.0959
C49 C 0.9433(8) 1.4172(7) 1.0436(4)
H35 H 1.0078 1.4807 1.0244
H36 H 0.9243 1.3345 0.9990
C50 C 1.0098(7) 1.4166(6) 1.1256(4)
H37 H 1.0329 1.5002 1.1699
H38 H 0.9453 1.3548 1.1460
C51 C 1.1355(8) 1.3846(8) 1.1134(5)
H39 H 1.1913 1.4350 1.0819
H40 H 1.1092 1.2952 1.0775
C52 C 1.2205(7) 1.4069(7) 1.1954(5)
H41 H 1.2497 1.4985 1.2290
C53 C 1.3469(10) 1.3778(10) 1.1759(7)
H42 H 1.3870 1.4142 1.1337
H43 H 1.3242 1.2868 1.1534
H44 H 1.4102 1.4137 1.2280
C54 C 1.1445(12) 1.3373(13) 1.2513(9)
H45 H 1.2051 1.3523 1.3009
H46 H 1.1070 1.2473 1.2188
H47 H 1.0725 1.3675 1.2700
C55 C -0.4828(4) 0.1208(5) 0.5163(3)
H48 H -0.4606 0.0871 0.4586
H49 H -0.5000 0.1982 0.5213
C56 C -0.6044(5) 0.0246(5) 0.5316(3)
H50 H -0.5830 -0.0503 0.5280
H51 H -0.6771 -0.0014 0.4852
C57 C -0.6561(5) 0.0671(6) 0.6165(3)
H52 H -0.5790 0.1094 0.6630
C58 C -0.7220(9) 0.1572(9) 0.6172(5)
H53 H -0.7702 0.1693 0.6663
H54 H -0.7845 0.1243 0.5649
H55 H -0.6547 0.2377 0.6207
C59 C -0.7521(6) -0.0556(8) 0.6304(5)
H56 H -0.8170 -0.1061 0.5782
H57 H -0.6983 -0.1053 0.6364
C60 C -0.8295(9) -0.0384(11) 0.7057(6)
H58 H -0.8862 0.0089 0.6996
H59 H -0.8887 -0.1217 0.7050
C61 C -0.7469(8) 0.0257(8) 0.7847(6)
H60 H -0.6991 0.1138 0.7894
H61 H -0.6796 -0.0129 0.7865
C62 C -0.8282(13) 0.0241(12) 0.8673(6)
H62 H -0.8692 -0.0649 0.8645
C63 C -0.7332(14) 0.0928(14) 0.9445(6)
H63 H -0.6843 0.1781 0.9456
H64 H -0.6706 0.0503 0.9458
H65 H -0.7806 0.0964 0.9940
C64 C -0.944(2) 0.075(2) 0.8637(9)
H66 H -1.0003 0.0594 0.9069
H67 H -0.9967 0.0326 0.8074
H68 H -0.9057 0.1656 0.8745
C65 C 0.2924(8) -0.2993(6) -0.0393(4)
H69 H 0.3710 -0.2383 -0.0512
H70 H 0.2128 -0.2815 -0.0526
C66 C 0.2771(10) -0.4329(8) -0.0940(5)
H71 H 0.2359 -0.4510 -0.1521
H72 H 0.2163 -0.4925 -0.0702
C67 C 0.4169(13) -0.4549(10) -0.0991(6)
H73 H 0.4823 -0.3774 -0.1051
C68 C 0.4706(15) -0.4645(16) -0.0197(8)
H74 H 0.5509 -0.4850 -0.0289
H75 H 0.4036 -0.5304 -0.0050
H76 H 0.4924 -0.3842 0.0268
C69 C 0.4144(15) -0.5578(14) -0.1754(8)
H77 H 0.3806 -0.5436 -0.2250
H78 H 0.3490 -0.6362 -0.1722
C70 C 0.5416(13) -0.5785(12) -0.1921(8)
H79 H 0.5218 -0.6604 -0.2377
H80 H 0.5819 -0.5828 -0.1402
C71 C 0.6486(14) -0.4715(12) -0.2195(8)
H81 H 0.6052 -0.4573 -0.2658
H82 H 0.6809 -0.3919 -0.1705
C72 C 0.7628(13) -0.5079(13) -0.2483(7)
H83 H 0.7242 -0.5969 -0.2874
C73 C 0.8317(18) -0.435(2) -0.2993(15)
H84 H 0.8997 -0.3571 -0.2622
H85 H 0.7678 -0.4159 -0.3296
H86 H 0.8740 -0.4838 -0.3404
C74 C 0.8543(16) -0.5057(18) -0.1784(8)
H87 H 0.8993 -0.4192 -0.1402
H88 H 0.9206 -0.5404 -0.2033
H89 H 0.8025 -0.5562 -0.1465
C75 C 1.4372(5) 0.6816(5) 0.3944(3)
H90 H 1.3951 0.5927 0.3897
H91 H 1.4738 0.7324 0.4545
C76 C 1.5484(5) 0.6964(5) 0.3381(3)
H92 H 1.6099 0.6583 0.3524
H93 H 1.5083 0.6490 0.2781
C77 C 1.6288(5) 0.8318(5) 0.3464(4)
H94 H 1.5653 0.8766 0.3486
C78 C 1.7265(7) 0.8988(6) 0.4292(5)
H95 H 1.7760 0.9856 0.4337
H96 H 1.7887 0.8554 0.4291
H97 H 1.6771 0.8981 0.4777
C79 C 1.7018(7) 0.8364(7) 0.2678(5)
H98 H 1.7758 0.8060 0.2708
H99 H 1.6391 0.7776 0.2161
C80 C 1.7572(9) 0.9636(8) 0.2587(5)
H100 H 1.6819 0.9896 0.2495
H101 H 1.8117 1.0242 0.3131
C81 C 1.838(2) 0.9731(16) 0.1905(10)
H102 H 1.8439 1.0527 0.1831
H103 H 1.9289 0.9871 0.2150
C82 C 1.8201(9) 0.8885(9) 0.1083(6)
H104 H 1.7898 0.8008 0.1088
C83 C 1.734(5) 0.898(3) 0.052(3)
H105 H 1.6427 0.8608 0.0612
H106 H 1.7453 0.8546 -0.0065
H107 H 1.7542 0.9871 0.0598
C84 C 1.956(3) 0.924(2) 0.083(3)
H108 H 1.9597 0.9676 0.0422
H109 H 1.9770 0.8487 0.0569
H110 H 2.0213 0.9800 0.1334
H111? H 0.426(9) 0.492(8) 0.545(5)
H112? H 0.540(8) 0.400(9) 0.433(5)
loop_
_geom_bond_atom_site_label_1
_geom_bond_atom_site_label_2
_geom_bond_site_symmetry_1
_geom_bond_site_symmetry_2
C1 C2 1_555 1_555
C2 N1 1_555 1_555
N1 H1 1_555 1_555
C3 C2 1_555 1_555
H2 C3 1_555 1_555
C4 C3 1_555 1_555
H3 C4 1_555 1_555
C5 N1 1_555 1_555
C6 C5 1_555 1_555
C7 C6 1_555 1_555
N2 C7 1_555 1_555
C8 C7 1_555 1_555
H4 C8 1_555 1_555
C9 C8 1_555 1_555
H5 C9 1_555 1_555
C10 N2 1_555 1_555
C11 C10 1_555 1_555
C12 C11 1_555 1_555
N3 C12 1_555 1_555
H6 N3 1_555 1_555
C13 C12 1_555 1_555
H7 C13 1_555 1_555
C14 C13 1_555 1_555
H8 C14 1_555 1_555
C15 N3 1_555 1_555
C16 C15 1_555 1_555
C17 C16 1_555 1_555
N4 C17 1_555 1_555
C18 C17 1_555 1_555
H9 C18 1_555 1_555
C19 C18 1_555 1_555
H10 C19 1_555 1_555
C20 C1 1_555 1_555
C21 C1 1_555 1_555
C22 C21 1_555 1_555
H11 C22 1_555 1_555
C23 C21 1_555 1_555
H12 C23 1_555 1_555
C24 C22 1_555 1_555
H13 C24 1_555 1_555
C25 C23 1_555 1_555
H14 C25 1_555 1_555
C26 C24 1_555 1_555
O1 C26 1_555 1_555
C27 C6 1_555 1_555
C28 C27 1_555 1_555
H15 C28 1_555 1_555
C29 C27 1_555 1_555
H16 C29 1_555 1_555
C30 C28 1_555 1_555
H17 C30 1_555 1_555
C31 C29 1_555 1_555
H18 C31 1_555 1_555
C32 C30 1_555 1_555
O2 C32 1_555 1_555
C33 C11 1_555 1_555
C34 C33 1_555 1_555
H19 C34 1_555 1_555
C35 C33 1_555 1_555
H20 C35 1_555 1_555
C36 C35 1_555 1_555
H21 C36 1_555 1_555
C37 C34 1_555 1_555
H22 C37 1_555 1_555
C38 C36 1_555 1_555
O3 C38 1_555 1_555
C39 C16 1_555 1_555
C40 C39 1_555 1_555
H23 C40 1_555 1_555
C41 C39 1_555 1_555
H24 C41 1_555 1_555
C42 C40 1_555 1_555
H25 C42 1_555 1_555
C43 C41 1_555 1_555
H26 C43 1_555 1_555
C44 C42 1_555 1_555
O4 C44 1_555 1_555
C45 O2 1_555 1_555
H27 C45 1_555 1_555
H28 C45 1_555 1_555
C46 C45 1_555 1_555
H29 C46 1_555 1_555
H30 C46 1_555 1_555
C47 C46 1_555 1_555
H31 C47 1_555 1_555
C48 C47 1_555 1_555
H32 C48 1_555 1_555
H33 C48 1_555 1_555
H34 C48 1_555 1_555
C49 C47 1_555 1_555
H35 C49 1_555 1_555
H36 C49 1_555 1_555
C50 C49 1_555 1_555
H37 C50 1_555 1_555
H38 C50 1_555 1_555
C51 C50 1_555 1_555
H39 C51 1_555 1_555
H40 C51 1_555 1_555
C52 C51 1_555 1_555
H41 C52 1_555 1_555
C53 C52 1_555 1_555
H42 C53 1_555 1_555
H43 C53 1_555 1_555
H44 C53 1_555 1_555
C54 C52 1_555 1_555
H45 C54 1_555 1_555
H46 C54 1_555 1_555
H47 C54 1_555 1_555
C55 O3 1_555 1_555
H48 C55 1_555 1_555
H49 C55 1_555 1_555
C56 C55 1_555 1_555
H50 C56 1_555 1_555
H51 C56 1_555 1_555
C57 C56 1_555 1_555
H52 C57 1_555 1_555
C58 C57 1_555 1_555
H53 C58 1_555 1_555
H54 C58 1_555 1_555
H55 C58 1_555 1_555
C59 C57 1_555 1_555
H56 C59 1_555 1_555
H57 C59 1_555 1_555
C60 C59 1_555 1_555
H58 C60 1_555 1_555
H59 C60 1_555 1_555
C61 C60 1_555 1_555
H60 C61 1_555 1_555
H61 C61 1_555 1_555
C62 C61 1_555 1_555
H62 C62 1_555 1_555
C63 C62 1_555 1_555
H63 C63 1_555 1_555
H64 C63 1_555 1_555
H65 C63 1_555 1_555
C64 C62 1_555 1_555
H66 C64 1_555 1_555
H67 C64 1_555 1_555
H68 C64 1_555 1_555
C65 O4 1_555 1_555
H69 C65 1_555 1_555
H70 C65 1_555 1_555
C66 C65 1_555 1_555
H71 C66 1_555 1_555
H72 C66 1_555 1_555
C67 C66 1_555 1_555
H73 C67 1_555 1_555
C68 C67 1_555 1_555
H74 C68 1_555 1_555
H75 C68 1_555 1_555
H76 C68 1_555 1_555
C69 C67 1_555 1_555
H77 C69 1_555 1_555
H78 C69 1_555 1_555
C70 C69 1_555 1_555
H79 C70 1_555 1_555
H80 C70 1_555 1_555
C71 C70 1_555 1_555
H81 C71 1_555 1_555
H82 C71 1_555 1_555
C72 C71 1_555 1_555
H83 C72 1_555 1_555
C73 C72 1_555 1_555
H84 C73 1_555 1_555
H85 C73 1_555 1_555
H86 C73 1_555 1_555
C74 C72 1_555 1_555
H87 C74 1_555 1_555
H88 C74 1_555 1_555
H89 C74 1_555 1_555
C75 O1 1_555 1_555
H90 C75 1_555 1_555
H91 C75 1_555 1_555
C76 C75 1_555 1_555
H92 C76 1_555 1_555
H93 C76 1_555 1_555
C77 C76 1_555 1_555
H94 C77 1_555 1_555
C78 C77 1_555 1_555
H95 C78 1_555 1_555
H96 C78 1_555 1_555
H97 C78 1_555 1_555
C79 C77 1_555 1_555
H98 C79 1_555 1_555
H99 C79 1_555 1_555
C80 C79 1_555 1_555
H100 C80 1_555 1_555
H101 C80 1_555 1_555
C81 C80 1_555 1_555
H102 C81 1_555 1_555
H103 C81 1_555 1_555
C82 C81 1_555 1_555
H104 C82 1_555 1_555
C83 C82 1_555 1_555
H105 C83 1_555 1_555
H106 C83 1_555 1_555
H107 C83 1_555 1_555
C84 C82 1_555 1_555
H108 C84 1_555 1_555
H109 C84 1_555 1_555
H110 C84 1_555 1_555
C4 C5 1_555 1_555
C9 C10 1_555 1_555
C14 C15 1_555 1_555
N4 C20 1_555 1_555
C19 C20 1_555 1_555
C25 C26 1_555 1_555
C31 C32 1_555 1_555
C37 C38 1_555 1_555
C43 C44 1_555 1_555

#END
