
#######################################################################
#
#                 Cambridge Crystallographic Data Centre
#                                CCDC 
#
#######################################################################
#
# If this CIF has been generated from an entry in the Cambridge 
# Structural Database, then it will include bibliographic, chemical, 
# crystal, experimental, refinement or atomic coordinate data resulting 
# from the CCDC's data processing and validation procedures.
#
#######################################################################

data_CEWSUV
_chemical_formula_moiety         'C30 H56 O6 Si2'
_chemical_name_systematic        
(1S,4S,7S,9S,12S,15S)-4,12-bis(2-((t-butyl(dimethyl)silyl)oxy)ethyl)-3,11-dioxatricyclo[13.1.0.0^7,9^]hexadecane-2,10-dione
_symmetry_cell_setting           monoclinic
_symmetry_space_group_name_H-M   'P 21'
_symmetry_Int_Tables_number      4
_space_group_name_Hall           'P 2yb'
loop_
_symmetry_equiv_pos_site_id
_symmetry_equiv_pos_as_xyz
1 x,y,z
2 -x,1/2+y,-z
_cell_length_a                   11.2490(15)
_cell_length_b                   7.9993(8)
_cell_length_c                   19.116(3)
_cell_angle_alpha                90
_cell_angle_beta                 102.467(16)
_cell_angle_gamma                90
_cell_volume                     1679.58
_exptl_crystal_colour            colorless
_exptl_crystal_description       block
_chemical_melting_point          '74-76 deg.C'
_cell_formula_units_Z            2
loop_
_atom_site_label
_atom_site_type_symbol
_atom_site_fract_x
_atom_site_fract_y
_atom_site_fract_z
Si1 Si -1.0213(2) -0.2594(4) -0.83507(16)
Si2 Si -0.4649(3) -1.0759(4) -0.14987(18)
O1 O -0.9158(6) -0.3621(9) -0.7774(4)
O2 O -0.5932(6) -0.8046(9) -0.3936(4)
O3 O -0.4435(7) -1.0467(10) -0.2300(4)
O4 O -1.0118(7) -0.9045(10) -0.6498(5)
O5 O -0.8724(7) -0.7080(9) -0.6040(4)
O6 O -0.7543(7) -0.9102(11) -0.3550(5)
C1 C -0.4034(10) -0.9229(15) -0.3363(7)
H1 H -0.3741(10) -0.8222(15) -0.3553(7)
H2 H -0.3475(10) -1.0126(15) -0.3408(7)
C2 C -0.7047(8) -0.7911(15) -0.3776(6)
C3 C -0.8653(9) -0.4254(13) -0.4917(6)
H3 H -0.8408(9) -0.3421(13) -0.5227(6)
H4 H -0.8936(9) -0.3664(13) -0.4541(6)
C4 C -0.9374(9) -0.4428(13) -0.6595(6)
H5 H -0.9926(9) -0.3498(13) -0.6592(6)
H6 H -0.8554(9) -0.4027(13) -0.6406(6)
C5 C -0.4007(9) -0.8969(14) -0.2603(7)
H7 H -0.4523(9) -0.8028(14) -0.2547(7)
H8 H -0.3183(9) -0.8715(14) -0.2351(7)
C6 C -0.9662(9) -0.5768(15) -0.6105(6)
H9 H -1.0448(9) -0.6264(15) -0.6330(6)
C7 C -0.5279(10) -0.9656(15) -0.3818(7)
H10 H -0.5707(10) -1.0433(15) -0.3562(7)
C8 C -0.9718(8) -0.5243(14) -0.5355(6)
H11 H -0.9816(8) -0.6245(14) -0.5087(6)
H12 H -1.0449(8) -0.4578(14) -0.5385(6)
C9 C -0.9064(12) -0.8618(14) -0.6251(6)
C10 C -0.7598(9) -0.6215(15) -0.3904(7)
H13 H -0.8329(9) -0.6037(15) -0.3713(7)
C11 C -0.7565(9) -0.5253(15) -0.4584(6)
H14 H -0.7131(9) -0.5793(15) -0.4915(6)
C12 C -0.9465(11) -0.4970(13) -0.7346(6)
H15 H -1.0288(11) -0.5346(13) -0.7547(6)
H16 H -0.8917(11) -0.5902(13) -0.7357(6)
C13 C -0.6987(12) -0.9456(14) -0.5493(6)
H17 H -0.7053(12) -0.8399(14) -0.5244(6)
C14 C -0.9381(9) -0.0804(15) -0.8657(6)
C15 C -0.5684(9) -1.2626(17) -0.1601(6)
C16 C -1.1413(11) -0.1817(15) -0.7913(6)
H18 H -1.177(5) -0.2740(18) -0.771(4)
H19 H -1.1066(19) -0.104(8) -0.754(3)
H20 H -1.203(4) -0.126(9) -0.8261(12)
C17 C -0.8027(10) -0.9809(14) -0.6092(6)
H21 H -0.8233(10) -1.0991(14) -0.6181(6)
C18 C -0.5190(11) -1.0376(16) -0.4532(7)
H22 H -0.4816(11) -0.9555(16) -0.4790(7)
H23 H -0.4662(11) -1.1347(16) -0.4452(7)
C19 C -0.6815(10) -0.9256(15) -0.6239(7)
H24 H -0.6756(10) -0.8130(15) -0.6417(7)
H25 H -0.6326(10) -1.0084(15) -0.6420(7)
C20 C -0.5364(11) -0.8901(17) -0.1194(8)
H26 H -0.482(4) -0.796(3) -0.116(5)
H27 H -0.611(5) -0.866(8) -0.153(3)
H28 H -0.553(8) -0.911(5) -0.073(2)
C21 C -0.6427(11) -1.0890(16) -0.4999(7)
H29 H -0.6976(11) -1.1202(16) -0.4693(7)
H30 H -0.6318(11) -1.1855(16) -0.5286(7)
C22 C -1.0916(11) -0.4032(17) -0.9095(7)
H31 H -1.0290(15) -0.468(9) -0.924(4)
H32 H -1.148(7) -0.477(9) -0.8935(17)
H33 H -1.134(8) -0.3388(18) -0.950(2)
C23 C -0.6813(12) -0.4718(16) -0.3896(7)
H34 H -0.7050(12) -0.3704(16) -0.3683(7)
H35 H -0.5941(12) -0.4894(16) -0.3818(7)
C24 C -0.3183(12) -1.1202(17) -0.0850(7)
H36 H -0.288(5) -1.227(6) -0.095(4)
H37 H -0.260(3) -1.036(8) -0.089(4)
H38 H -0.332(2) -1.120(14) -0.0371(9)
C25 C -0.8640(12) 0.0154(16) -0.8005(7)
H39 H -0.9174(19) 0.051(11) -0.770(3)
H40 H -0.802(6) -0.057(4) -0.774(3)
H41 H -0.827(7) 0.111(7) -0.8167(7)
C26 C -0.8462(11) -0.1492(15) -0.9102(6)
H42 H -0.792(5) -0.228(8) -0.8818(18)
H43 H -0.8905(12) -0.203(10) -0.953(2)
H44 H -0.800(5) -0.058(2) -0.923(4)
C27 C -0.5162(11) -1.4065(14) -0.1954(7)
H45 H -0.505(7) -1.372(4) -0.242(2)
H46 H -0.439(4) -1.439(7) -0.166(2)
H47 H -0.572(4) -1.499(4) -0.201(4)
C28 C -0.6936(10) -1.2127(17) -0.2066(7)
H48 H -0.729(4) -1.125(9) -0.183(3)
H49 H -0.6833(16) -1.174(12) -0.252(2)
H50 H -0.747(3) -1.308(3) -0.213(4)
C29 C -1.0272(11) 0.0394(17) -0.9137(7)
H51 H -1.061(7) -0.015(5) -0.958(2)
H52 H -1.092(5) 0.069(10) -0.890(2)
H53 H -0.985(2) 0.139(6) -0.922(5)
C30 C -0.5919(15) -1.327(2) -0.0869(8)
H54 H -0.517(3) -1.363(15) -0.057(3)
H55 H -0.626(11) -1.238(5) -0.063(3)
H56 H -0.648(9) -1.419(11) -0.0953(10)
loop_
_geom_bond_atom_site_label_1
_geom_bond_atom_site_label_2
_geom_bond_site_symmetry_1
_geom_bond_site_symmetry_2
Si1 O1 1_555 1_555
Si2 O3 1_555 1_555
O1 C12 1_555 1_555
O2 C2 1_555 1_555
O3 C5 1_555 1_555
O4 C9 1_555 1_555
O5 C6 1_555 1_555
O6 C2 1_555 1_555
C1 H1 1_555 1_555
H2 C1 1_555 1_555
C2 C10 1_555 1_555
C3 H3 1_555 1_555
H4 C3 1_555 1_555
C4 H5 1_555 1_555
H6 C4 1_555 1_555
C5 C1 1_555 1_555
H7 C5 1_555 1_555
H8 C5 1_555 1_555
C6 C4 1_555 1_555
H9 C6 1_555 1_555
C7 O2 1_555 1_555
H10 C7 1_555 1_555
C8 C3 1_555 1_555
H11 C8 1_555 1_555
H12 C8 1_555 1_555
C9 O5 1_555 1_555
C10 H13 1_555 1_555
C11 C3 1_555 1_555
H14 C11 1_555 1_555
C12 C4 1_555 1_555
H15 C12 1_555 1_555
H16 C12 1_555 1_555
C13 H17 1_555 1_555
C14 Si1 1_555 1_555
C15 Si2 1_555 1_555
C16 Si1 1_555 1_555
H18 C16 1_555 1_555
H19 C16 1_555 1_555
H20 C16 1_555 1_555
C17 C9 1_555 1_555
H21 C17 1_555 1_555
C18 C7 1_555 1_555
H22 C18 1_555 1_555
H23 C18 1_555 1_555
C19 C13 1_555 1_555
H24 C19 1_555 1_555
H25 C19 1_555 1_555
C20 Si2 1_555 1_555
H26 C20 1_555 1_555
H27 C20 1_555 1_555
H28 C20 1_555 1_555
C21 C13 1_555 1_555
H29 C21 1_555 1_555
H30 C21 1_555 1_555
C22 Si1 1_555 1_555
H31 C22 1_555 1_555
H32 C22 1_555 1_555
H33 C22 1_555 1_555
C23 C10 1_555 1_555
H34 C23 1_555 1_555
H35 C23 1_555 1_555
C24 Si2 1_555 1_555
H36 C24 1_555 1_555
H37 C24 1_555 1_555
H38 C24 1_555 1_555
C25 C14 1_555 1_555
H39 C25 1_555 1_555
H40 C25 1_555 1_555
H41 C25 1_555 1_555
C26 C14 1_555 1_555
H42 C26 1_555 1_555
H43 C26 1_555 1_555
H44 C26 1_555 1_555
C27 C15 1_555 1_555
H45 C27 1_555 1_555
H46 C27 1_555 1_555
H47 C27 1_555 1_555
C28 C15 1_555 1_555
H48 C28 1_555 1_555
H49 C28 1_555 1_555
H50 C28 1_555 1_555
C29 C14 1_555 1_555
H51 C29 1_555 1_555
H52 C29 1_555 1_555
H53 C29 1_555 1_555
C30 C15 1_555 1_555
H54 C30 1_555 1_555
H55 C30 1_555 1_555
H56 C30 1_555 1_555
C1 C7 1_555 1_555
C6 C8 1_555 1_555
C10 C11 1_555 1_555
C11 C23 1_555 1_555
C13 C17 1_555 1_555
C17 C19 1_555 1_555
C18 C21 1_555 1_555

#END
