
#######################################################################
#
#                 Cambridge Crystallographic Data Centre
#                                CCDC 
#
#######################################################################
#
# If this CIF has been generated from an entry in the Cambridge 
# Structural Database, then it will include bibliographic, chemical, 
# crystal, experimental, refinement or atomic coordinate data resulting 
# from the CCDC's data processing and validation procedures.
#
#######################################################################

data_CEYFIY
_chemical_formula_moiety         'C18 H12 F1 N3 O2'
_chemical_name_systematic        
'methyl 1-(4-cyanophenyl)-5-(4-fluorophenyl)-1H-pyrazole-3-carboxylate'
_chemical_properties_biological  'antifungal activity'
_symmetry_cell_setting           monoclinic
_symmetry_space_group_name_H-M   'P 21/n'
_symmetry_Int_Tables_number      14
_space_group_name_Hall           '-P 2yn'
loop_
_symmetry_equiv_pos_site_id
_symmetry_equiv_pos_as_xyz
1 x,y,z
2 1/2-x,1/2+y,1/2-z
3 -x,-y,-z
4 1/2+x,1/2-y,1/2+z
_cell_length_a                   8.6794(2)
_cell_length_b                   16.3415(3)
_cell_length_c                   11.7595(3)
_cell_angle_alpha                90
_cell_angle_beta                 110.140(2)
_cell_angle_gamma                90
_cell_volume                     1565.92
_exptl_crystal_colour            colorless
_exptl_crystal_description       block
_cell_formula_units_Z            4
loop_
_atom_site_label
_atom_site_type_symbol
_atom_site_fract_x
_atom_site_fract_y
_atom_site_fract_z
O1 O 1.06492(13) 0.32541(6) 0.66463(9)
N1 N 0.68630(13) 0.47336(7) 0.39549(9)
F1 F 0.59591(18) 0.83101(6) 0.61643(14)
N2 N 0.74419(14) 0.39583(7) 0.40742(10)
O2 O 0.89813(15) 0.24991(7) 0.51493(11)
C1 C 0.56624(16) 0.49487(8) 0.28096(11)
C2 C 0.75511(15) 0.51930(8) 0.49838(11)
C3 C 0.86447(16) 0.46793(8) 0.57954(12)
H1 H 0.932057 0.480437 0.658024
C4 C 0.71062(16) 0.60372(8) 0.51851(11)
C5 C 0.85304(15) 0.39314(8) 0.51972(11)
C6 C 0.93807(16) 0.31484(8) 0.56334(12)
C7 C 0.59359(17) 0.56012(9) 0.21608(13)
H2 H 0.689772 0.590478 0.246249
C8 C 0.33405(17) 0.53380(9) 0.06205(12)
C9 C 0.42628(17) 0.44776(9) 0.23692(13)
H3 H 0.410935 0.403156 0.280976
C10 C 0.82897(19) 0.65069(9) 0.60448(13)
H4 H 0.934742 0.630246 0.640054
C11 C 0.55341(18) 0.63587(9) 0.46530(13)
H5 H 0.473203 0.605214 0.408158
C12 C 0.47661(19) 0.58005(9) 0.10562(13)
H6 H 0.493346 0.624003 0.060992
C13 C 0.30921(18) 0.46746(10) 0.12683(14)
H7 H 0.214133 0.436308 0.096357
C14 C 0.7907(2) 0.72713(10) 0.63725(16)
H8 H 0.869386 0.758009 0.695220
C15 C 0.5153(2) 0.71323(10) 0.49675(17)
H9 H 0.410971 0.735144 0.460237
C16 C 0.6350(2) 0.75664(9) 0.58290(17)
C17 C 0.2102(2) 0.55434(12) -0.05222(15)
N3 N 0.1112(2) 0.57022(13) -0.14204(15)
C18 C 1.1553(3) 0.25225(11) 0.71715(19)
H10 H 1.217311 0.234086 0.668240
H11 H 1.079941 0.210111 0.720513
H12 H 1.228675 0.264013 0.797541
loop_
_geom_bond_atom_site_label_1
_geom_bond_atom_site_label_2
_geom_bond_site_symmetry_1
_geom_bond_site_symmetry_2
O1 C6 1_555 1_555
N1 N2 1_555 1_555
F1 C16 1_555 1_555
N2 C5 1_555 1_555
O2 C6 1_555 1_555
C1 N1 1_555 1_555
C2 N1 1_555 1_555
C3 C2 1_555 1_555
H1 C3 1_555 1_555
C4 C2 1_555 1_555
C5 C3 1_555 1_555
C6 C5 1_555 1_555
C7 C1 1_555 1_555
H2 C7 1_555 1_555
C8 C12 1_555 1_555
C9 C1 1_555 1_555
H3 C9 1_555 1_555
C10 C4 1_555 1_555
H4 C10 1_555 1_555
C11 C4 1_555 1_555
H5 C11 1_555 1_555
C12 C7 1_555 1_555
H6 C12 1_555 1_555
C13 C8 1_555 1_555
H7 C13 1_555 1_555
C14 C10 1_555 1_555
H8 C14 1_555 1_555
C15 C11 1_555 1_555
H9 C15 1_555 1_555
C16 C14 1_555 1_555
C17 C8 1_555 1_555
N3 C17 1_555 1_555
C18 O1 1_555 1_555
H10 C18 1_555 1_555
H11 C18 1_555 1_555
H12 C18 1_555 1_555
C9 C13 1_555 1_555
C15 C16 1_555 1_555

#END
