
#######################################################################
#
#                 Cambridge Crystallographic Data Centre
#                                CCDC 
#
#######################################################################
#
# If this CIF has been generated from an entry in the Cambridge 
# Structural Database, then it will include bibliographic, chemical, 
# crystal, experimental, refinement or atomic coordinate data resulting 
# from the CCDC's data processing and validation procedures.
#
#######################################################################

data_CEYXIN
_chemical_formula_moiety         'C16 H18 S2 Si1'
_chemical_name_systematic        
13,13-Dimethyl-8,13-dihydro-5H-dibenzo(d,g)(1,2,6)dithiasilonine
_symmetry_cell_setting           orthorhombic
_symmetry_space_group_name_H-M   'P b c a'
_symmetry_Int_Tables_number      61
_space_group_name_Hall           '-P 2ac 2ab'
loop_
_symmetry_equiv_pos_site_id
_symmetry_equiv_pos_as_xyz
1 x,y,z
2 1/2-x,1/2+y,z
3 x,1/2-y,1/2+z
4 1/2-x,-y,1/2+z
5 -x,-y,-z
6 1/2+x,1/2-y,-z
7 -x,1/2+y,1/2-z
8 1/2+x,y,1/2-z
_cell_length_a                   16.5274(8)
_cell_length_b                   22.272(2)
_cell_length_c                   8.5940(7)
_cell_angle_alpha                90
_cell_angle_beta                 90
_cell_angle_gamma                90
_cell_volume                     3163.44
_cell_formula_units_Z            8
loop_
_atom_site_label
_atom_site_type_symbol
_atom_site_fract_x
_atom_site_fract_y
_atom_site_fract_z
S1 S 0.53360 0.41550 0.27330
S2 S 0.49430 0.33080 0.31190
Si1 Si 0.31960 0.34120 0.09660
C1 C 0.31650 0.39810 0.25960
C2 C 0.24840 0.39280 0.35900
C3 C 0.23560 0.43010 0.48200
C4 C 0.28930 0.47720 0.51750
C5 C 0.35620 0.48380 0.41670
C6 C 0.36930 0.44560 0.29340
C7 C 0.44480 0.45660 0.19630
C8 C 0.51040 0.29170 0.13000
C9 C 0.48760 0.32540 -0.01250
C10 C 0.54800 0.33590 -0.12750
C11 C 0.53140 0.36570 -0.26100
C12 C 0.45540 0.38820 -0.29070
C13 C 0.39490 0.37870 -0.17900
C14 C 0.40800 0.34910 -0.03960
C15 C 0.22590 0.35330 -0.02180
C16 C 0.30790 0.26460 0.17850
H1 H 0.21300 0.35100 0.31900
H2 H 0.19500 0.41000 0.57100
H3 H 0.27500 0.50600 0.58500
H4 H 0.39000 0.51300 0.43100
H5 H 0.43700 0.42400 0.08600
H6 H 0.46000 0.49800 0.20100
H7 H 0.49200 0.24800 0.17900
H8 H 0.55900 0.27200 0.13500
H9 H 0.56900 0.37100 -0.36100
H10 H 0.33700 0.40300 -0.19800
H11 H 0.22100 0.38800 -0.05300
H12 H 0.17700 0.34700 0.03200
H13 H 0.21400 0.31700 -0.10200
H14 H 0.34200 0.26300 0.26000
H15 H 0.26600 0.23700 0.13800
loop_
_geom_bond_atom_site_label_1
_geom_bond_atom_site_label_2
_geom_bond_site_symmetry_1
_geom_bond_site_symmetry_2
S1 S2 1_555 1_555
S2 C8 1_555 1_555
Si1 C1 1_555 1_555
C1 C2 1_555 1_555
C2 C3 1_555 1_555
C3 C4 1_555 1_555
C4 C5 1_555 1_555
C5 C6 1_555 1_555
C6 C1 1_555 1_555
C7 S1 1_555 1_555
C8 C9 1_555 1_555
C9 C10 1_555 1_555
C10 C11 1_555 1_555
C11 C12 1_555 1_555
C12 C13 1_555 1_555
C13 C14 1_555 1_555
C14 Si1 1_555 1_555
C15 Si1 1_555 1_555
C16 Si1 1_555 1_555
H1 C2 1_555 1_555
H2 C3 1_555 1_555
H3 C4 1_555 1_555
H4 C5 1_555 1_555
H5 C7 1_555 1_555
H6 C7 1_555 1_555
H7 C8 1_555 1_555
H8 C8 1_555 1_555
H9 C11 1_555 1_555
H10 C13 1_555 1_555
H11 C15 1_555 1_555
H12 C15 1_555 1_555
H13 C15 1_555 1_555
H14 C16 1_555 1_555
H15 C16 1_555 1_555
C6 C7 1_555 1_555
C9 C14 1_555 1_555

#END
