
#######################################################################
#
#                 Cambridge Crystallographic Data Centre
#                                CCDC 
#
#######################################################################
#
# If this CIF has been generated from an entry in the Cambridge 
# Structural Database, then it will include bibliographic, chemical, 
# crystal, experimental, refinement or atomic coordinate data resulting 
# from the CCDC's data processing and validation procedures.
#
#######################################################################

data_CEZBUG
_chemical_formula_moiety         'C21 H28 N2 O3 S1'
_chemical_name_systematic        
'4-Methylphenyl (1-(diisopropylamino)-2-phenylethylidene)sulfamate'
_symmetry_cell_setting           monoclinic
_symmetry_space_group_name_H-M   'P 21'
_symmetry_Int_Tables_number      4
_space_group_name_Hall           'P 2yb'
loop_
_symmetry_equiv_pos_site_id
_symmetry_equiv_pos_as_xyz
1 x,y,z
2 -x,1/2+y,-z
_cell_length_a                   9.4407(5)
_cell_length_b                   11.4246(4)
_cell_length_c                   10.0646(5)
_cell_angle_alpha                90
_cell_angle_beta                 108.153(6)
_cell_angle_gamma                90
_cell_volume                     1031.5
_exptl_crystal_colour            colorless
_exptl_crystal_description       block
_cell_formula_units_Z            2
loop_
_atom_site_label
_atom_site_type_symbol
_atom_site_fract_x
_atom_site_fract_y
_atom_site_fract_z
S1 S 0.10215(5) 0.81006(4) 0.16099(5)
O1 O -0.02039(15) 0.79839(14) 0.24133(13)
O2 O 0.19306(18) 0.70774(14) 0.19132(19)
N1 N 0.1977(2) 0.91601(16) 0.24267(19)
N2 N 0.24906(19) 1.10698(15) 0.29665(17)
C1 C -0.4095(3) 0.7113(2) 0.1505(2)
H1 H -0.5001 0.7444 0.1551
O3 O 0.02325(17) 0.83217(14) 0.01576(15)
C2 C 0.1493(2) 1.02603(18) 0.2342(2)
C3 C -0.1485(2) 0.72819(18) 0.1877(2)
C4 C 0.4911(3) 1.0198(3) 0.2888(3)
H2 H 0.5973 1.0154 0.3423
H3 H 0.4781 1.0670 0.2046
H4 H 0.4525 0.9407 0.2620
C5 C -0.0627(2) 1.06060(19) 0.3985(2)
H5 H -0.0056 0.9909 0.4227
C6 C -0.2092(2) 1.2120(2) 0.4590(2)
H6 H -0.2510 1.2461 0.5244
C7 C -0.1701(2) 1.2136(2) 0.2341(2)
H7 H -0.1866 1.2489 0.1451
C8 C -0.2747(3) 0.55123(19) 0.0966(2)
H8 H -0.2728 0.4740 0.0621
C9 C 0.3076(2) 1.3002(2) 0.2158(2)
H9 H 0.4131 1.2950 0.2712
H10 H 0.2770 1.3826 0.2053
H11 H 0.2930 1.2658 0.1233
C10 C -0.2323(3) 1.2632(2) 0.3290(3)
H12 H -0.2906 1.3324 0.3049
C11 C -0.0842(2) 1.11274(19) 0.2678(2)
C12 C -0.1252(2) 1.1112(2) 0.4926(2)
H13 H -0.1098 1.0759 0.5815
C13 C -0.1428(3) 0.61511(19) 0.1407(2)
H14 H -0.0513 0.5819 0.1386
C14 C 0.2145(2) 1.23429(19) 0.2893(2)
H15 H 0.1078 1.2433 0.2313
C15 C -0.4090(3) 0.5972(2) 0.1015(2)
C16 C 0.4067(2) 1.0757(2) 0.3780(2)
H16 H 0.4582 1.1517 0.4109
C17 C -0.0123(2) 1.06293(19) 0.1648(2)
H17 H -0.0158 1.1225 0.0924
H18 H -0.0704 0.9942 0.1177
C18 C -0.5516(3) 0.5281(2) 0.0565(3)
H19 H -0.6054 0.5453 -0.0417
H20 H -0.6136 0.5497 0.1147
H21 H -0.5286 0.4443 0.0672
C19 C 0.4160(3) 1.0068(2) 0.5095(2)
H22 H 0.3807 0.9267 0.4840
H23 H 0.3536 1.0445 0.5588
H24 H 0.5196 1.0048 0.5705
C20 C -0.2802(3) 0.77702(19) 0.1925(2)
H25 H -0.2822 0.8551 0.2244
C21 C 0.2292(3) 1.2832(2) 0.4339(2)
H26 H 0.1640 1.2392 0.4750
H27 H 0.2001 1.3659 0.4257
H28 H 0.3328 1.2759 0.4938
loop_
_geom_bond_atom_site_label_1
_geom_bond_atom_site_label_2
_geom_bond_site_symmetry_1
_geom_bond_site_symmetry_2
S1 O1 1_555 1_555
O1 C3 1_555 1_555
O2 S1 1_555 1_555
N1 S1 1_555 1_555
N2 C2 1_555 1_555
C1 H1 1_555 1_555
O3 S1 1_555 1_555
C2 N1 1_555 1_555
C3 C13 1_555 1_555
C4 H2 1_555 1_555
H3 C4 1_555 1_555
H4 C4 1_555 1_555
C5 H5 1_555 1_555
C6 H6 1_555 1_555
C7 H7 1_555 1_555
C8 H8 1_555 1_555
C9 H9 1_555 1_555
H10 C9 1_555 1_555
H11 C9 1_555 1_555
C10 C6 1_555 1_555
H12 C10 1_555 1_555
C11 C5 1_555 1_555
C12 C5 1_555 1_555
H13 C12 1_555 1_555
C13 C8 1_555 1_555
H14 C13 1_555 1_555
C14 N2 1_555 1_555
H15 C14 1_555 1_555
C15 C1 1_555 1_555
C16 N2 1_555 1_555
H16 C16 1_555 1_555
C17 C2 1_555 1_555
H17 C17 1_555 1_555
H18 C17 1_555 1_555
C18 C15 1_555 1_555
H19 C18 1_555 1_555
H20 C18 1_555 1_555
H21 C18 1_555 1_555
C19 C16 1_555 1_555
H22 C19 1_555 1_555
H23 C19 1_555 1_555
H24 C19 1_555 1_555
C20 C1 1_555 1_555
H25 C20 1_555 1_555
C21 C14 1_555 1_555
H26 C21 1_555 1_555
H27 C21 1_555 1_555
H28 C21 1_555 1_555
C3 C20 1_555 1_555
C4 C16 1_555 1_555
C6 C12 1_555 1_555
C7 C10 1_555 1_555
C7 C11 1_555 1_555
C8 C15 1_555 1_555
C9 C14 1_555 1_555
C11 C17 1_555 1_555

#END
