
#######################################################################
#
#                 Cambridge Crystallographic Data Centre
#                                CCDC 
#
#######################################################################
#
# If this CIF has been generated from an entry in the Cambridge 
# Structural Database, then it will include bibliographic, chemical, 
# crystal, experimental, refinement or atomic coordinate data resulting 
# from the CCDC's data processing and validation procedures.
#
#######################################################################

data_CEZKUQ
_chemical_formula_moiety         
'C16 H36 N1 1+,C42 H38 F2 N4,F1 1-,C2 H3 N1,0.29(H2 O1)'
_chemical_name_systematic        
'tetra-n-butylammonium 5,15-bis[(4-fluorophenyl)ethynyl]-5,10,10,15,20,20-hexamethyl-5,10,15,20,22,24-hexahydroporphyrin fluoride acetonitrile solvate hydrate'
_symmetry_cell_setting           triclinic
_symmetry_space_group_name_H-M   'P -1'
_symmetry_Int_Tables_number      2
_space_group_name_Hall           '-P 1'
loop_
_symmetry_equiv_pos_site_id
_symmetry_equiv_pos_as_xyz
1 x,y,z
2 -x,-y,-z
_cell_length_a                   11.5785(7)
_cell_length_b                   13.3678(9)
_cell_length_c                   19.1989(10)
_cell_angle_alpha                80.990(3)
_cell_angle_beta                 73.141(3)
_cell_angle_gamma                82.786(4)
_cell_volume                     2798.66
_exptl_crystal_colour            colorless
_exptl_crystal_description       block
_cell_formula_units_Z            2
loop_
_atom_site_label
_atom_site_type_symbol
_atom_site_fract_x
_atom_site_fract_y
_atom_site_fract_z
C1 C 0.33645(15) 0.11200(13) 0.88791(10)
C2 C 0.35164(16) 0.05693(14) 0.95123(10)
H1 H 0.32207 -0.006444 0.972269
C3 C 0.42019(16) 0.11289(14) 0.97944(10)
H2 H 0.443504 0.09332 1.022949
C4 C 0.44663(15) 0.20036(13) 0.93242(9)
C5 C 0.51628(16) 0.28775(14) 0.93597(9)
C6 C 0.63459(16) 0.29249(13) 0.87503(9)
C7 C 0.75264(16) 0.26971(15) 0.87615(10)
H3 H 0.77954 0.2429 0.917549
C8 C 0.82728(16) 0.29368(15) 0.80379(10)
H4 H 0.912368 0.285788 0.788714
C9 C 0.75329(15) 0.33027(13) 0.76005(9)
C10 C 0.77932(15) 0.36987(13) 0.67877(9)
C11 C 0.76821(15) 0.28772(13) 0.63506(9)
C12 C 0.85473(17) 0.23135(15) 0.58936(10)
H5 H 0.938793 0.235881 0.577022
C13 C 0.79522(18) 0.16478(16) 0.56384(11)
H6 H 0.832857 0.116833 0.531509
C14 C 0.67354(17) 0.18214(15) 0.59429(10)
C15 C 0.5675(2) 0.13714(18) 0.58289(11)
C16 C 0.49235(18) 0.08015(16) 0.65277(11)
C17 C 0.47526(19) -0.02020(17) 0.67116(13)
H7 H 0.513229 -0.072141 0.642363
C18 C 0.39041(19) -0.03330(16) 0.74117(12)
H8 H 0.362474 -0.095255 0.767145
C19 C 0.35665(15) 0.06011(13) 0.76402(10)
C20 C 0.26901(15) 0.09110(13) 0.83493(10)
C21 C 0.43782(17) 0.38927(15) 0.92905(11)
H9 H 0.482491 0.44491 0.931192
H10 H 0.363841 0.387776 0.969012
H11 H 0.417868 0.398849 0.882616
C22 C 0.54458(19) 0.27277(17) 1.01026(10)
H12 H 0.586935 0.32924 1.013607
H13 H 0.595119 0.209833 1.014817
H14 H 0.4696 0.269749 1.049404
C23 C 0.69449(17) 0.46572(14) 0.66625(10)
H15 H 0.611241 0.448218 0.681816
H16 H 0.715642 0.492135 0.614546
H17 H 0.703363 0.516965 0.694521
C24 C 0.90595(17) 0.39810(14) 0.65224(10)
C25 C 1.00654(17) 0.42411(14) 0.62940(10)
C26 C 1.12784(15) 0.45545(14) 0.60832(10)
C27 C 1.16867(16) 0.52558(14) 0.54685(10)
H18 H 1.118497 0.549653 0.516048
C28 C 1.28257(16) 0.56031(15) 0.53058(10)
H19 H 1.310184 0.607993 0.489257
C29 C 1.35382(16) 0.52335(15) 0.57627(11)
C30 C 1.31875(17) 0.45332(15) 0.63669(11)
H20 H 1.370371 0.429119 0.666591
C31 C 1.20478(17) 0.41916(15) 0.65246(11)
H21 H 1.17882 0.370728 0.693565
C32 C 0.4863(2) 0.2206(2) 0.55268(14)
H22 H 0.41862 0.191216 0.545705
H23 H 0.532357 0.253779 0.506037
H24 H 0.456053 0.270174 0.587055
C33 C 0.6215(3) 0.0605(3) 0.52665(15)
H25 H 0.556527 0.028964 0.518296
H26 H 0.67491 0.008559 0.545688
H27 H 0.667047 0.095938 0.480773
C34 C 0.18394(17) 0.18489(14) 0.81900(11)
H28 H 0.231025 0.24283 0.797892
H29 H 0.124808 0.199793 0.86435
H30 H 0.142508 0.171016 0.784734
C35 C 0.19548(16) 0.00422(14) 0.87024(10)
C36 C 0.13673(16) -0.06596(15) 0.89829(10)
C37 C 0.07111(16) -0.15372(14) 0.93253(9)
C38 C -0.05484(17) -0.14874(15) 0.94930(11)
H31 H -0.098487 -0.087086 0.938119
C39 C -0.11618(18) -0.23402(16) 0.98234(11)
H32 H -0.201039 -0.230966 0.993492
C40 C -0.05079(18) -0.32254(15) 0.99835(10)
C41 C 0.07345(19) -0.33156(16) 0.98216(11)
H33 H 0.115895 -0.393905 0.99323
C42 C 0.13425(17) -0.24632(15) 0.94911(10)
H34 H 0.219211 -0.25073 0.937645
N1 N 0.39432(12) 0.19930(11) 0.87668(8)
H35 H 0.397424 0.246842 0.839784
N2 N 0.63582(12) 0.32900(11) 0.80382(7)
H36 H 0.571715 0.348467 0.788635
N3 N 0.65747(13) 0.25829(11) 0.63784(8)
H37 H 0.587897 0.283756 0.663162
N4 N 0.41854(13) 0.12945(11) 0.70973(8)
H38 H 0.412121 0.19471 0.711098
F1 F 1.46494(10) 0.55838(10) 0.56197(7)
F2 F -0.11085(12) -0.40606(9) 1.03208(7)
C43 C -0.01913(18) 0.68731(14) 0.78592(10)
H39 H 0.009638 0.698225 0.827156
H40 H -0.102969 0.717328 0.794548
C44 C -0.0186(2) 0.57403(15) 0.78594(12)
H41 H 0.064098 0.542177 0.78003
H42 H -0.045746 0.561651 0.744455
C45 C -0.1012(2) 0.52683(18) 0.85699(12)
H43 H -0.086072 0.452701 0.860004
H44 H -0.080572 0.54792 0.898236
C46 C -0.2340(3) 0.5551(2) 0.86479(17)
H45 H -0.281147 0.521426 0.910871
H46 H -0.255592 0.53404 0.824449
H47 H -0.250653 0.628177 0.864082
C47 C 0.19024(17) 0.70426(16) 0.70091(11)
H48 H 0.197614 0.634264 0.689778
H49 H 0.236133 0.744816 0.656821
C48 C 0.24935(18) 0.70476(16) 0.76146(11)
H50 H 0.212445 0.656648 0.803786
H51 H 0.235514 0.772677 0.777053
C49 C 0.3851(2) 0.6755(2) 0.73561(14)
H52 H 0.398194 0.610196 0.716216
H53 H 0.422079 0.726589 0.695479
C50 C 0.4477(2) 0.6671(2) 0.79573(16)
H54 H 0.53324 0.647456 0.776228
H55 H 0.412124 0.616163 0.835499
H56 H 0.437751 0.732211 0.813975
C51 C 0.03983(18) 0.85565(14) 0.72733(11)
H57 H -0.046166 0.878298 0.734389
H58 H 0.059308 0.861022 0.772926
C52 C 0.11294(19) 0.92840(15) 0.66687(11)
H59 H 0.100921 0.91971 0.619772
H60 H 0.199259 0.913211 0.663566
C53 C 0.0742(2) 1.03719(16) 0.68226(12)
H61 H 0.07622 1.042976 0.732143
H62 H -0.009508 1.054149 0.679879
C54 C 0.1541(2) 1.11295(18) 0.62866(14)
H63 H 0.125343 1.181118 0.64079
H64 H 0.151409 1.10852 0.57922
H65 H 0.236839 1.097705 0.63166
C55 C 0.01787(17) 0.72822(16) 0.64969(10)
H66 H 0.069306 0.765535 0.606021
H67 H 0.033794 0.655852 0.643761
C56 C -0.11253(19) 0.75974(18) 0.65110(12)
H68 H -0.126719 0.833985 0.647106
H69 H -0.166003 0.731221 0.697708
C57 C -0.1410(2) 0.7219(2) 0.58762(13)
H70 H -0.087707 0.751836 0.541458
H71 H -0.122701 0.647981 0.591075
C58 C -0.2710(2) 0.7467(2) 0.58516(17)
H72 H -0.282201 0.720118 0.543566
H73 H -0.289475 0.819789 0.580231
H74 H -0.324591 0.715934 0.630101
N5 N 0.05768(14) 0.74418(12) 0.71583(8)
C59 C 0.6584(2) 1.0546(2) 0.79620(17)
H75 H 0.726353 1.093425 0.791091
H76 H 0.593084 1.071651 0.838481
H77 H 0.630502 1.070719 0.752398
C60 C 0.6956(2) 0.9480(2) 0.80604(13)
N6 N 0.7243(2) 0.8639(2) 0.81373(14)
F3 F 0.44857(9) 0.31910(7) 0.74199(5)
O1 O 0.2497(5) 0.4545(4) 0.8092(3)
loop_
_geom_bond_atom_site_label_1
_geom_bond_atom_site_label_2
_geom_bond_site_symmetry_1
_geom_bond_site_symmetry_2
C1 C2 1_555 1_555
C2 H1 1_555 1_555
C3 C2 1_555 1_555
H2 C3 1_555 1_555
C4 C3 1_555 1_555
C5 C4 1_555 1_555
C6 C5 1_555 1_555
C7 C6 1_555 1_555
H3 C7 1_555 1_555
C8 C7 1_555 1_555
H4 C8 1_555 1_555
C9 C8 1_555 1_555
C10 C9 1_555 1_555
C11 C10 1_555 1_555
C12 C11 1_555 1_555
H5 C12 1_555 1_555
C13 C12 1_555 1_555
H6 C13 1_555 1_555
C14 C13 1_555 1_555
C15 C14 1_555 1_555
C16 C15 1_555 1_555
C17 C16 1_555 1_555
H7 C17 1_555 1_555
C18 C17 1_555 1_555
H8 C18 1_555 1_555
C19 C18 1_555 1_555
C20 C1 1_555 1_555
C21 C5 1_555 1_555
H9 C21 1_555 1_555
H10 C21 1_555 1_555
H11 C21 1_555 1_555
C22 C5 1_555 1_555
H12 C22 1_555 1_555
H13 C22 1_555 1_555
H14 C22 1_555 1_555
C23 C10 1_555 1_555
H15 C23 1_555 1_555
H16 C23 1_555 1_555
H17 C23 1_555 1_555
C24 C10 1_555 1_555
C25 C24 1_555 1_555
C26 C25 1_555 1_555
C27 C26 1_555 1_555
H18 C27 1_555 1_555
C28 C27 1_555 1_555
H19 C28 1_555 1_555
C29 C28 1_555 1_555
C30 C29 1_555 1_555
H20 C30 1_555 1_555
C31 C26 1_555 1_555
H21 C31 1_555 1_555
C32 C15 1_555 1_555
H22 C32 1_555 1_555
H23 C32 1_555 1_555
H24 C32 1_555 1_555
C33 C15 1_555 1_555
H25 C33 1_555 1_555
H26 C33 1_555 1_555
H27 C33 1_555 1_555
C34 C20 1_555 1_555
H28 C34 1_555 1_555
H29 C34 1_555 1_555
H30 C34 1_555 1_555
C35 C20 1_555 1_555
C36 C35 1_555 1_555
C37 C36 1_555 1_555
C38 C37 1_555 1_555
H31 C38 1_555 1_555
C39 C38 1_555 1_555
H32 C39 1_555 1_555
C40 C39 1_555 1_555
C41 C40 1_555 1_555
H33 C41 1_555 1_555
C42 C37 1_555 1_555
H34 C42 1_555 1_555
N1 C1 1_555 1_555
H35 N1 1_555 1_555
N2 C6 1_555 1_555
H36 N2 1_555 1_555
N3 C11 1_555 1_555
H37 N3 1_555 1_555
N4 C16 1_555 1_555
H38 N4 1_555 1_555
F1 C29 1_555 1_555
F2 C40 1_555 1_555
C43 H39 1_555 1_555
H40 C43 1_555 1_555
C44 C43 1_555 1_555
H41 C44 1_555 1_555
H42 C44 1_555 1_555
C45 C44 1_555 1_555
H43 C45 1_555 1_555
H44 C45 1_555 1_555
C46 C45 1_555 1_555
H45 C46 1_555 1_555
H46 C46 1_555 1_555
H47 C46 1_555 1_555
C47 H48 1_555 1_555
H49 C47 1_555 1_555
C48 C47 1_555 1_555
H50 C48 1_555 1_555
H51 C48 1_555 1_555
C49 C48 1_555 1_555
H52 C49 1_555 1_555
H53 C49 1_555 1_555
C50 C49 1_555 1_555
H54 C50 1_555 1_555
H55 C50 1_555 1_555
H56 C50 1_555 1_555
C51 H57 1_555 1_555
H58 C51 1_555 1_555
C52 C51 1_555 1_555
H59 C52 1_555 1_555
H60 C52 1_555 1_555
C53 C52 1_555 1_555
H61 C53 1_555 1_555
H62 C53 1_555 1_555
C54 C53 1_555 1_555
H63 C54 1_555 1_555
H64 C54 1_555 1_555
H65 C54 1_555 1_555
C55 H66 1_555 1_555
H67 C55 1_555 1_555
C56 C55 1_555 1_555
H68 C56 1_555 1_555
H69 C56 1_555 1_555
C57 C56 1_555 1_555
H70 C57 1_555 1_555
H71 C57 1_555 1_555
C58 C57 1_555 1_555
H72 C58 1_555 1_555
H73 C58 1_555 1_555
H74 C58 1_555 1_555
N5 C43 1_555 1_555
C59 H75 1_555 1_555
H76 C59 1_555 1_555
H77 C59 1_555 1_555
C60 C59 1_555 1_555
N6 C60 1_555 1_555
C4 N1 1_555 1_555
C9 N2 1_555 1_555
C14 N3 1_555 1_555
C19 C20 1_555 1_555
C19 N4 1_555 1_555
C30 C31 1_555 1_555
C41 C42 1_555 1_555
C47 N5 1_555 1_555
C51 N5 1_555 1_555
C55 N5 1_555 1_555

#END
