
#######################################################################
#
#                 Cambridge Crystallographic Data Centre
#                                CCDC 
#
#######################################################################
#
# If this CIF has been generated from an entry in the Cambridge 
# Structural Database, then it will include bibliographic, chemical, 
# crystal, experimental, refinement or atomic coordinate data resulting 
# from the CCDC's data processing and validation procedures.
#
#######################################################################

data_CEZPUT
_chemical_formula_moiety         'C14 H18 Cl2 O2'
_chemical_name_systematic        
(4RS,5SR)-anti-5-(2,6-Dichlorophenyl)-5-hydroxy-2,2,4-trimethylpentan-3-one
_symmetry_cell_setting           monoclinic
_symmetry_space_group_name_H-M   'P 21/n'
_symmetry_Int_Tables_number      14
_space_group_name_Hall           '-P 2yn'
loop_
_symmetry_equiv_pos_site_id
_symmetry_equiv_pos_as_xyz
1 x,y,z
2 1/2-x,1/2+y,1/2-z
3 -x,-y,-z
4 1/2+x,1/2-y,1/2+z
_cell_length_a                   10.8284(4)
_cell_length_b                   7.1857(3)
_cell_length_c                   18.2382(8)
_cell_angle_alpha                90
_cell_angle_beta                 92.070(4)
_cell_angle_gamma                90
_cell_volume                     1418.18
_exptl_crystal_colour            colorless
_exptl_crystal_description       prism
_chemical_melting_point          '119.3-123.2 deg.C'
_cell_formula_units_Z            4
_exptl_crystal_recrystallization_method dichloromethane/hexane
loop_
_atom_site_label
_atom_site_type_symbol
_atom_site_fract_x
_atom_site_fract_y
_atom_site_fract_z
Cl1 Cl 1.01579(3) 0.09339(5) 0.17193(2)
Cl2 Cl 0.64024(3) 0.40462(5) 0.00487(2)
O1 O 0.68524(9) 0.40070(13) 0.16754(5)
H1 H 0.7365 0.4764 0.1861
O2 O 0.60641(9) 0.06406(14) 0.26576(5)
C1 C 0.95417(13) 0.1929(2) 0.09134(8)
C2 C 0.83045(13) 0.2495(2) 0.08740(8)
C3 C 0.79101(13) 0.3238(2) 0.01967(8)
C4 C 0.86713(15) 0.3392(2) -0.03914(8)
H2 H 0.8363 0.3902 -0.0842
C5 C 0.98809(15) 0.2804(2) -0.03212(9)
H3 H 1.0408 0.2902 -0.0725
C6 C 1.03238(14) 0.2074(2) 0.03332(9)
H4 H 1.1158 0.1674 0.0387
C7 C 0.74610(13) 0.2308(2) 0.15188(8)
H5 H 0.7978 0.1943 0.1961
C8 C 0.64655(13) 0.08184(19) 0.13875(8)
H6 H 0.5968 0.1128 0.0931
C9 C 0.56231(13) 0.08278(19) 0.20398(8)
C10 C 0.42331(13) 0.1001(2) 0.19013(8)
C11 C 0.70402(15) -0.1123(2) 0.13056(9)
H7 H 0.7553 -0.1413 0.1744
H8 H 0.7552 -0.1141 0.0874
H9 H 0.6382 -0.2052 0.1247
C12 C 0.35866(14) 0.0963(2) 0.26276(8)
H10 H 0.3788 -0.0198 0.2887
H11 H 0.2691 0.1041 0.2535
H12 H 0.3864 0.2024 0.2929
C13 C 0.37964(15) -0.0652(2) 0.14214(9)
H13 H 0.4195 -0.0597 0.0948
H14 H 0.2898 -0.0591 0.1341
H15 H 0.4019 -0.1821 0.1670
C14 C 0.39369(14) 0.2835(2) 0.14970(8)
H16 H 0.4268 0.3882 0.1787
H17 H 0.3039 0.2969 0.1430
H18 H 0.4315 0.2821 0.1017
loop_
_geom_bond_atom_site_label_1
_geom_bond_atom_site_label_2
_geom_bond_site_symmetry_1
_geom_bond_site_symmetry_2
Cl1 C1 1_555 1_555
Cl2 C3 1_555 1_555
O1 H1 1_555 1_555
O2 C9 1_555 1_555
C1 C2 1_555 1_555
C2 C3 1_555 1_555
C3 C4 1_555 1_555
C4 H2 1_555 1_555
C5 C4 1_555 1_555
H3 C5 1_555 1_555
C6 C1 1_555 1_555
H4 C6 1_555 1_555
C7 O1 1_555 1_555
H5 C7 1_555 1_555
C8 C7 1_555 1_555
H6 C8 1_555 1_555
C9 C8 1_555 1_555
C10 C9 1_555 1_555
C11 C8 1_555 1_555
H7 C11 1_555 1_555
H8 C11 1_555 1_555
H9 C11 1_555 1_555
C12 C10 1_555 1_555
H10 C12 1_555 1_555
H11 C12 1_555 1_555
H12 C12 1_555 1_555
C13 C10 1_555 1_555
H13 C13 1_555 1_555
H14 C13 1_555 1_555
H15 C13 1_555 1_555
C14 C10 1_555 1_555
H16 C14 1_555 1_555
H17 C14 1_555 1_555
H18 C14 1_555 1_555
C2 C7 1_555 1_555
C5 C6 1_555 1_555

#END
