
#######################################################################
#
#                 Cambridge Crystallographic Data Centre
#                                CCDC 
#
#######################################################################
#
# If this CIF has been generated from an entry in the Cambridge 
# Structural Database, then it will include bibliographic, chemical, 
# crystal, experimental, refinement or atomic coordinate data resulting 
# from the CCDC's data processing and validation procedures.
#
#######################################################################

data_CHOLSI03
_chemical_formula_moiety         'C27 H45 I1'
_chemical_name_systematic        3-\b-Iodo-5-cholestene
_symmetry_cell_setting           monoclinic
_symmetry_space_group_name_H-M   'P 21'
_symmetry_Int_Tables_number      4
_space_group_name_Hall           'P 2yb'
loop_
_symmetry_equiv_pos_site_id
_symmetry_equiv_pos_as_xyz
1 x,y,z
2 -x,1/2+y,-z
_cell_length_a                   12.5712(13)
_cell_length_b                   8.9852(9)
_cell_length_c                   12.8153(13)
_cell_angle_alpha                90
_cell_angle_beta                 118.563(1)
_cell_angle_gamma                90
_cell_volume                     1271.37
_exptl_crystal_colour            colorless
_exptl_crystal_description       'Arrowhead block'
_cell_formula_units_Z            2
loop_
_atom_site_label
_atom_site_type_symbol
_atom_site_fract_x
_atom_site_fract_y
_atom_site_fract_z
I1 I 1.63298(2) 0.49307(4) 0.95960(3)
C1 C 1.2413(3) 0.4274(4) 0.8532(3)
H1 H 1.2309 0.3247 0.8218
H2 H 1.2014 0.4326 0.9036
C2 C 1.3780(3) 0.4575(3) 0.9319(3)
H3 H 1.3905 0.5566 0.9698
H4 H 1.4140 0.3814 0.9953
C3 C 1.4377(3) 0.4515(3) 0.8531(3)
H5 H 1.426(3) 0.352(2) 0.818(3)
C4 C 1.3852(3) 0.5660(3) 0.7547(3)
H6 H 1.4245 0.5566 0.7040
H7 H 1.4020 0.6671 0.7897
C5 C 1.2497(3) 0.5449(3) 0.6795(3)
C6 C 1.1993(2) 0.5407(3) 0.5633(2)
H8 H 1.2515 0.5456 0.5290
C7 C 1.0665(2) 0.5287(3) 0.4804(2)
H9 H 1.0487 0.4286 0.4437
H10 H 1.0436 0.6028 0.4160
C8 C 0.9892(2) 0.5540(3) 0.5416(2)
H11 H 0.9855 0.6633 0.5545
C9 C 0.86127(19) 0.4967(4) 0.4653(2)
H12 H 0.8692 0.3877 0.4546
C10 C 0.7882(3) 0.5609(3) 0.3406(3)
H13 H 0.8171 0.5212 0.2864
H14 H 0.7933 0.6709 0.3417
C11 C 0.6576(2) 0.5085(4) 0.3026(2)
H15 H 0.6330 0.4298 0.2414
H16 H 0.6003 0.5928 0.2695
C12 C 0.6577(3) 0.4468(3) 0.4165(3)
H17 H 0.6680 0.3364 0.4164
C13 C 0.7758(2) 0.5103(4) 0.5203(2)
C14 C 0.8333(3) 0.4235(3) 0.6358(3)
H18 H 0.8346 0.3165 0.6181
H19 H 0.7832 0.4352 0.6758
C15 C 0.9639(2) 0.4758(4) 0.7207(2)
H20 H 0.9992 0.4102 0.7913
H21 H 0.9609 0.5780 0.7482
C16 C 1.0478(2) 0.4752(4) 0.6633(2)
H22 H 1.0579 0.3686 0.6476
C17 C 1.1760(3) 0.5346(3) 0.7481(2)
C18 C 0.5353(2) 0.4754(4) 0.4137(2)
H23 H 0.5188 0.5848 0.4036
C19 C 0.5355(3) 0.4266(4) 0.5288(3)
H24 H 0.4529 0.4311 0.5177
H25 H 0.5879 0.4932 0.5938
H26 H 0.5660 0.3244 0.5483
C20 C 0.4328(3) 0.3957(3) 0.3074(3)
H27 H 0.4514 0.3969 0.2406
H28 H 0.4309 0.2904 0.3292
C21 C 0.3076(3) 0.4629(3) 0.2651(3)
H29 H 0.3061 0.5643 0.2342
H30 H 0.2920 0.4719 0.3336
C22 C 0.2062(3) 0.3696(4) 0.1676(3)
H31 H 0.2316 0.3400 0.1084
H32 H 0.1950 0.2776 0.2037
C23 C 0.0867(3) 0.4501(4) 0.1047(3)
H33 H 0.0965 0.5360 0.0604
C24 C 0.0403(3) 0.5079(6) 0.1839(3)
H34 H 0.0343 0.4259 0.2313
H35 H -0.0398 0.5521 0.1358
H36 H 0.0960 0.5836 0.2370
C25 C -0.0097(3) 0.3400(5) 0.0113(3)
H37 H -0.0268 0.2602 0.0533
H38 H 0.0223 0.2970 -0.0382
H39 H -0.0845 0.3945 -0.0390
C26 C 0.7554(3) 0.6753(3) 0.5411(3)
H40 H 0.7022 0.6806 0.5771
H41 H 0.7178 0.7282 0.4649
H42 H 0.8335 0.7216 0.5943
C27 C 1.1735(3) 0.6913(3) 0.7962(3)
H43 H 1.1442 0.6844 0.8545
H44 H 1.1192 0.7557 0.7304
H45 H 1.2553 0.7334 0.8342
I2? I 1.6261(8) 0.4398(12) 0.9184(9)
loop_
_geom_bond_atom_site_label_1
_geom_bond_atom_site_label_2
_geom_bond_site_symmetry_1
_geom_bond_site_symmetry_2
I1 C3 1_555 1_555
C1 H1 1_555 1_555
H2 C1 1_555 1_555
C2 C1 1_555 1_555
H3 C2 1_555 1_555
H4 C2 1_555 1_555
C3 C2 1_555 1_555
H5 C3 1_555 1_555
C4 C3 1_555 1_555
H6 C4 1_555 1_555
H7 C4 1_555 1_555
C5 C4 1_555 1_555
C6 C5 1_555 1_555
H8 C6 1_555 1_555
C7 C6 1_555 1_555
H9 C7 1_555 1_555
H10 C7 1_555 1_555
C8 C7 1_555 1_555
H11 C8 1_555 1_555
C9 C8 1_555 1_555
H12 C9 1_555 1_555
C10 C9 1_555 1_555
H13 C10 1_555 1_555
H14 C10 1_555 1_555
C11 C10 1_555 1_555
H15 C11 1_555 1_555
H16 C11 1_555 1_555
C12 C11 1_555 1_555
H17 C12 1_555 1_555
C13 C9 1_555 1_555
C14 C13 1_555 1_555
H18 C14 1_555 1_555
H19 C14 1_555 1_555
C15 C14 1_555 1_555
H20 C15 1_555 1_555
H21 C15 1_555 1_555
C16 C8 1_555 1_555
H22 C16 1_555 1_555
C17 C1 1_555 1_555
C18 C12 1_555 1_555
H23 C18 1_555 1_555
C19 C18 1_555 1_555
H24 C19 1_555 1_555
H25 C19 1_555 1_555
H26 C19 1_555 1_555
C20 C18 1_555 1_555
H27 C20 1_555 1_555
H28 C20 1_555 1_555
C21 C20 1_555 1_555
H29 C21 1_555 1_555
H30 C21 1_555 1_555
C22 C21 1_555 1_555
H31 C22 1_555 1_555
H32 C22 1_555 1_555
C23 C22 1_555 1_555
H33 C23 1_555 1_555
C24 C23 1_555 1_555
H34 C24 1_555 1_555
H35 C24 1_555 1_555
H36 C24 1_555 1_555
C25 C23 1_555 1_555
H37 C25 1_555 1_555
H38 C25 1_555 1_555
H39 C25 1_555 1_555
C26 C13 1_555 1_555
H40 C26 1_555 1_555
H41 C26 1_555 1_555
H42 C26 1_555 1_555
C27 C17 1_555 1_555
H43 C27 1_555 1_555
H44 C27 1_555 1_555
H45 C27 1_555 1_555
C5 C17 1_555 1_555
C12 C13 1_555 1_555
C15 C16 1_555 1_555
C16 C17 1_555 1_555

#END
