
#######################################################################
#
#                 Cambridge Crystallographic Data Centre
#                                CCDC 
#
#######################################################################
#
# If this CIF has been generated from an entry in the Cambridge 
# Structural Database, then it will include bibliographic, chemical, 
# crystal, experimental, refinement or atomic coordinate data resulting 
# from the CCDC's data processing and validation procedures.
#
#######################################################################

data_CHOPTS01
_chemical_formula_moiety         'C34 H52 O3 S1'
_chemical_name_systematic        'Cholesteryl p-toluenesulfonate'
_symmetry_cell_setting           monoclinic
_symmetry_space_group_name_H-M   'P 21'
_symmetry_Int_Tables_number      4
_space_group_name_Hall           'P 2yb'
loop_
_symmetry_equiv_pos_site_id
_symmetry_equiv_pos_as_xyz
1 x,y,z
2 -x,1/2+y,-z
_cell_length_a                   12.893(4)
_cell_length_b                   6.215(2)
_cell_length_c                   18.800(8)
_cell_angle_alpha                90
_cell_angle_beta                 95.06(3)
_cell_angle_gamma                90
_cell_volume                     1500.57
_exptl_crystal_colour            colorless
_cell_formula_units_Z            2
loop_
_atom_site_label
_atom_site_type_symbol
_atom_site_fract_x
_atom_site_fract_y
_atom_site_fract_z
S1 S 0.28067(12) -0.2479(2) 0.48083(7)
O1 O 0.1787(3) -0.3303(5) 0.5114(2)
O2 O 0.2836(3) -0.0205(5) 0.4817(2)
O3 O 0.2826(3) -0.3578(6) 0.4151(2)
C1 C 0.0260(5) 0.0108(8) 0.6307(3)
H1 H -0.0309(5) 0.1096(8) 0.6183(3)
H2 H 0.0811(5) 0.0911(8) 0.6573(3)
C2 C 0.0670(4) -0.0727(8) 0.5616(3)
H3 H 0.0106(4) -0.1392(8) 0.5318(3)
H4 H 0.0934(4) 0.0467(8) 0.5353(3)
C3 C 0.1515(4) -0.2326(8) 0.5784(2)
H5 H 0.2127(4) -0.1609(8) 0.6024(2)
C4 C 0.1182(4) -0.4149(8) 0.6241(3)
H6 H 0.1779(4) -0.5051(8) 0.6380(3)
H7 H 0.0671(4) -0.5023(8) 0.5964(3)
C5 C 0.0712(4) -0.3338(7) 0.6914(3)
C6 C 0.1009(4) -0.4182(8) 0.7539(3)
H8 H 0.1533(4) -0.5213(8) 0.7559(3)
C7 C 0.0569(4) -0.3606(8) 0.8215(3)
H9 H 0.1064(4) -0.2719(8) 0.8501(3)
H10 H 0.0455(4) -0.4907(8) 0.8482(3)
C8 C -0.0437(4) -0.2417(9) 0.8083(2)
H11 H -0.0969(4) -0.3448(9) 0.7896(2)
C9 C -0.0344(4) -0.0680(8) 0.7512(3)
H12 H 0.0287(4) 0.0129(8) 0.7670(3)
C10 C -0.0127(4) -0.1686(7) 0.6799(2)
C11 C -0.1226(4) 0.0987(8) 0.7459(3)
H13 H -0.1001(4) 0.2227(8) 0.7200(3)
H14 H -0.1823(4) 0.0371(8) 0.7182(3)
C12 C -0.1568(4) 0.1746(8) 0.8166(2)
H15 H -0.2185(4) 0.2633(8) 0.8078(2)
H16 H -0.1023(4) 0.2630(8) 0.8404(2)
C13 C -0.1807(4) -0.0124(7) 0.8657(3)
C14 C -0.0799(4) -0.1435(8) 0.8770(2)
H17 H -0.0254(4) -0.0418(8) 0.8945(2)
C15 C -0.0960(4) -0.2908(8) 0.9385(2)
H18 H -0.0300(4) -0.3286(8) 0.9643(2)
H19 H -0.1315(4) -0.4215(8) 0.9220(2)
C16 C -0.1623(4) -0.1611(8) 0.9850(3)
H20 H -0.1222(4) -0.1215(8) 1.0291(3)
H21 H -0.2219(4) -0.2451(8) 0.9966(3)
C17 C -0.1991(4) 0.0437(8) 0.9428(3)
H22 H -0.1497(4) 0.1582(8) 0.9578(3)
C18 C -0.2706(4) -0.1460(8) 0.8306(2)
H23 H -0.2574(4) -0.1788(8) 0.7823(2)
H24 H -0.3343(4) -0.0657(8) 0.8306(2)
H25 H -0.2767(4) -0.2773(8) 0.8568(2)
C19 C -0.1113(4) -0.2717(8) 0.6424(3)
H26 H -0.1650(4) -0.1649(8) 0.6352(3)
H27 H -0.1346(4) -0.3857(8) 0.6715(3)
H28 H -0.0959(4) -0.3288(8) 0.5971(3)
C20 C -0.3055(4) 0.1200(8) 0.9608(3)
H29 H -0.3534(4) -0.0011(8) 0.9509(3)
C21 C -0.3493(4) 0.3068(8) 0.9155(3)
H30 H -0.4165(4) 0.3454(8) 0.9299(3)
H31 H -0.3559(4) 0.2653(8) 0.8661(3)
H32 H -0.3032(4) 0.4278(8) 0.9219(3)
C22 C -0.3077(4) 0.1727(8) 1.0396(2)
H33 H -0.2826(4) 0.0479(8) 1.0669(2)
H34 H -0.2588(4) 0.2888(8) 1.0510(2)
C23 C -0.4111(4) 0.2366(10) 1.0643(3)
H35 H -0.4630(4) 0.1336(10) 1.0456(3)
H36 H -0.4304(4) 0.3758(10) 1.0439(3)
C24 C -0.4148(4) 0.2500(10) 1.1439(3)
H37 H -0.4857(4) 0.2837(10) 1.1536(3)
H38 H -0.3986(4) 0.1089(10) 1.1639(3)
C25 C -0.3439(4) 0.4101(9) 1.1826(3)
H39 H -0.2724(4) 0.3672(9) 1.1754(3)
C26 C -0.3592(6) 0.6339(9) 1.1530(3)
H40 H -0.3518(6) 0.6323(9) 1.1026(3)
H41 H -0.3080(6) 0.7283(9) 1.1763(3)
H42 H -0.4276(6) 0.6839(9) 1.1611(3)
C27 C -0.3542(5) 0.4039(11) 1.2611(3)
H43 H -0.3078(5) 0.5074(11) 1.2847(3)
H44 H -0.3367(5) 0.2627(11) 1.2791(3)
H45 H -0.4245(5) 0.4375(11) 1.2700(3)
C28 C 0.5318(5) -0.4887(9) 0.6425(3)
C29 C 0.4497(4) -0.6243(9) 0.6192(3)
H46 H 0.4458(4) -0.7629(9) 0.6375(3)
C30 C 0.3739(4) -0.5494(8) 0.5685(3)
H47 H 0.3201(4) -0.6408(8) 0.5518(3)
C31 C 0.3763(4) -0.3442(8) 0.5423(2)
C32 C 0.4588(4) -0.2158(8) 0.5648(3)
H48 H 0.4622(4) -0.0772(8) 0.5465(3)
C33 C 0.5377(5) -0.2873(9) 0.6142(3)
H49 H 0.5940(5) -0.1986(9) 0.6279(3)
C34 C 0.6107(5) -0.5653(9) 0.7001(3)
H50 H 0.5941(5) -0.7096(9) 0.7134(3)
H51 H 0.6098(5) -0.4728(9) 0.7409(3)
H52 H 0.6786(5) -0.5627(9) 0.6830(3)
loop_
_geom_bond_atom_site_label_1
_geom_bond_atom_site_label_2
_geom_bond_site_symmetry_1
_geom_bond_site_symmetry_2
S1 O1 1_555 1_555
O1 C3 1_555 1_555
O2 S1 1_555 1_555
O3 S1 1_555 1_555
C1 H1 1_555 1_555
H2 C1 1_555 1_555
C2 C1 1_555 1_555
H3 C2 1_555 1_555
H4 C2 1_555 1_555
C3 C2 1_555 1_555
H5 C3 1_555 1_555
C4 C3 1_555 1_555
H6 C4 1_555 1_555
H7 C4 1_555 1_555
C5 C4 1_555 1_555
C6 C5 1_555 1_555
H8 C6 1_555 1_555
C7 C6 1_555 1_555
H9 C7 1_555 1_555
H10 C7 1_555 1_555
C8 C7 1_555 1_555
H11 C8 1_555 1_555
C9 C8 1_555 1_555
H12 C9 1_555 1_555
C10 C1 1_555 1_555
C11 C9 1_555 1_555
H13 C11 1_555 1_555
H14 C11 1_555 1_555
C12 C11 1_555 1_555
H15 C12 1_555 1_555
H16 C12 1_555 1_555
C13 C12 1_555 1_555
C14 C8 1_555 1_555
H17 C14 1_555 1_555
C15 C14 1_555 1_555
H18 C15 1_555 1_555
H19 C15 1_555 1_555
C16 C15 1_555 1_555
H20 C16 1_555 1_555
H21 C16 1_555 1_555
C17 C13 1_555 1_555
H22 C17 1_555 1_555
C18 C13 1_555 1_555
H23 C18 1_555 1_555
H24 C18 1_555 1_555
H25 C18 1_555 1_555
C19 C10 1_555 1_555
H26 C19 1_555 1_555
H27 C19 1_555 1_555
H28 C19 1_555 1_555
C20 C17 1_555 1_555
H29 C20 1_555 1_555
C21 C20 1_555 1_555
H30 C21 1_555 1_555
H31 C21 1_555 1_555
H32 C21 1_555 1_555
C22 C20 1_555 1_555
H33 C22 1_555 1_555
H34 C22 1_555 1_555
C23 C22 1_555 1_555
H35 C23 1_555 1_555
H36 C23 1_555 1_555
C24 C23 1_555 1_555
H37 C24 1_555 1_555
H38 C24 1_555 1_555
C25 C24 1_555 1_555
H39 C25 1_555 1_555
C26 C25 1_555 1_555
H40 C26 1_555 1_555
H41 C26 1_555 1_555
H42 C26 1_555 1_555
C27 C25 1_555 1_555
H43 C27 1_555 1_555
H44 C27 1_555 1_555
H45 C27 1_555 1_555
C28 C29 1_555 1_555
C29 H46 1_555 1_555
C30 C29 1_555 1_555
H47 C30 1_555 1_555
C31 S1 1_555 1_555
C32 C31 1_555 1_555
H48 C32 1_555 1_555
C33 C28 1_555 1_555
H49 C33 1_555 1_555
C34 C28 1_555 1_555
H50 C34 1_555 1_555
H51 C34 1_555 1_555
H52 C34 1_555 1_555
C5 C10 1_555 1_555
C9 C10 1_555 1_555
C13 C14 1_555 1_555
C16 C17 1_555 1_555
C30 C31 1_555 1_555
C32 C33 1_555 1_555

#END
