
#######################################################################
#
#                 Cambridge Crystallographic Data Centre
#                                CCDC 
#
#######################################################################
#
# If this CIF has been generated from an entry in the Cambridge 
# Structural Database, then it will include bibliographic, chemical, 
# crystal, experimental, refinement or atomic coordinate data resulting 
# from the CCDC's data processing and validation procedures.
#
#######################################################################

data_CIBCOF
_chemical_formula_moiety         'C29 H25 N1 O7'
_chemical_name_systematic        
1-(1,3-Dioxaindan-5-yl)-2-((4-phenyl-1,3-oxazolidin-2-on-3-yl)carbonyl)-2-(3-propoxybenzoyl)ethene
_symmetry_cell_setting           monoclinic
_symmetry_space_group_name_H-M   'P 21'
_symmetry_Int_Tables_number      4
_space_group_name_Hall           'P 2yb'
loop_
_symmetry_equiv_pos_site_id
_symmetry_equiv_pos_as_xyz
1 x,y,z
2 -x,1/2+y,-z
_cell_length_a                   13.992(3)
_cell_length_b                   6.0210(10)
_cell_length_c                   15.310(3)
_cell_angle_alpha                90
_cell_angle_beta                 108.38(3)
_cell_angle_gamma                90
_cell_volume                     1224.01
_exptl_crystal_colour            colorless
_exptl_crystal_description       blade
_cell_formula_units_Z            2
loop_
_atom_site_label
_atom_site_type_symbol
_atom_site_fract_x
_atom_site_fract_y
_atom_site_fract_z
O1 O -0.1581(2) 0.7189(6) 0.0302(2)
O2 O -0.0597(2) 1.0307(6) 0.0327(2)
O3 O 0.2939(2) 0.0281(5) 0.4197(2)
O4 O 0.2758(2) 0.2946(5) 0.22523(14)
O5 O 0.3271(2) 0.5429(5) 0.4890(2)
O6 O 0.4729(2) 0.6492(5) 0.4712(2)
O7 O 0.1655(2) -0.1669(6) 0.6895(2)
N1 N 0.3610(2) 0.4875(5) 0.3510(2)
C1 C -0.1517(3) 0.9242(9) -0.0140(3)
H1 H -0.1557(3) 0.8968(9) -0.0782(3)
H2 H -0.2082(3) 1.0201(9) -0.0138(3)
C2 C -0.0344(2) 0.5267(7) 0.1592(2)
H3 H -0.0751(2) 0.4018(7) 0.1581(2)
C3 C 0.0635(2) 0.5464(7) 0.2238(2)
C4 C 0.1209(2) 0.7332(7) 0.2225(2)
H4 H 0.1854(2) 0.7443(7) 0.2661(2)
C5 C 0.0874(3) 0.9044(7) 0.1600(3)
H5 H 0.1278(3) 1.0288(7) 0.1594(3)
C6 C -0.0086(3) 0.8826(7) 0.0984(2)
C7 C -0.0666(2) 0.6984(7) 0.0985(2)
C8 C 0.0990(2) 0.3781(7) 0.2956(2)
H6 H 0.0491(2) 0.3035(7) 0.3136(2)
C9 C 0.1944(2) 0.3183(6) 0.3388(2)
C10 C 0.2255(2) 0.1571(6) 0.4164(2)
C11 C 0.2781(2) 0.3654(6) 0.2998(2)
C12 C 0.3807(2) 0.5585(7) 0.4419(2)
C13 C 0.5172(3) 0.6520(10) 0.3986(2)
H7 H 0.5854(3) 0.5902(10) 0.4202(2)
H8 H 0.5211(3) 0.8046(10) 0.3777(2)
C14 C 0.4501(2) 0.5110(7) 0.3197(2)
H9 H 0.4816(2) 0.3636(7) 0.3198(2)
C15 C 0.4282(2) 0.6152(7) 0.2260(2)
C16 C 0.4554(3) 0.5074(8) 0.1570(3)
H10 H 0.4881(3) 0.3691(8) 0.1690(3)
C17 C 0.4347(3) 0.6025(9) 0.0709(3)
H11 H 0.4540(3) 0.5295(9) 0.0248(3)
C18 C 0.3860(3) 0.8036(10) 0.0523(3)
H12 H 0.3717(3) 0.8671(10) -0.0065(3)
C19 C 0.3577(3) 0.9128(8) 0.1199(3)
H13 H 0.3241(3) 1.0499(8) 0.1071(3)
C20 C 0.3795(3) 0.8189(7) 0.2064(2)
H14 H 0.3610(3) 0.8938(7) 0.2525(2)
C21 C 0.1755(2) 0.1597(7) 0.4893(2)
C22 C 0.1947(2) -0.0176(7) 0.5519(2)
H15 H 0.2347(2) -0.1385(7) 0.5458(2)
C23 C 0.1529(3) -0.0093(8) 0.6235(2)
C24 C 0.0908(3) 0.1655(9) 0.6304(3)
H16 H 0.0608(3) 0.1645(9) 0.6774(3)
C25 C 0.0727(3) 0.3391(9) 0.5695(2)
H17 H 0.0311(3) 0.4574(9) 0.5750(2)
C26 C 0.1165(2) 0.3389(8) 0.4991(2)
H18 H 0.1062(2) 0.4597(8) 0.4583(2)
C27 C 0.2468(4) -0.3093(10) 0.7047(3)
H19 H 0.3091(4) -0.2245(10) 0.7147(3)
H20 H 0.2377(4) -0.4068(10) 0.6514(3)
C28 C 0.2520(4) -0.4465(10) 0.7903(3)
H21 H 0.2672(4) -0.3481(10) 0.8439(3)
H22 H 0.1862(4) -0.5151(10) 0.7822(3)
C29 C 0.3307(4) -0.6242(12) 0.8075(4)
H23 H 0.3970(5) -0.5565(13) 0.8259(26)
H24 H 0.3211(19) -0.7097(43) 0.7517(9)
H25 H 0.3251(19) -0.7216(41) 0.8562(20)
loop_
_geom_bond_atom_site_label_1
_geom_bond_atom_site_label_2
_geom_bond_site_symmetry_1
_geom_bond_site_symmetry_2
O1 C1 1_555 1_555
O2 C1 1_555 1_555
O3 C10 1_555 1_555
O4 C11 1_555 1_555
O5 C12 1_555 1_555
O6 C12 1_555 1_555
O7 C23 1_555 1_555
N1 C11 1_555 1_555
C1 H1 1_555 1_555
H2 C1 1_555 1_555
C2 H3 1_555 1_555
C3 C2 1_555 1_555
C4 C3 1_555 1_555
H4 C4 1_555 1_555
C5 C4 1_555 1_555
H5 C5 1_555 1_555
C6 O2 1_555 1_555
C7 O1 1_555 1_555
C8 C3 1_555 1_555
H6 C8 1_555 1_555
C9 C8 1_555 1_555
C10 C9 1_555 1_555
C11 C9 1_555 1_555
C12 N1 1_555 1_555
C13 O6 1_555 1_555
H7 C13 1_555 1_555
H8 C13 1_555 1_555
C14 N1 1_555 1_555
H9 C14 1_555 1_555
C15 C14 1_555 1_555
C16 C15 1_555 1_555
H10 C16 1_555 1_555
C17 C16 1_555 1_555
H11 C17 1_555 1_555
C18 C17 1_555 1_555
H12 C18 1_555 1_555
C19 C18 1_555 1_555
H13 C19 1_555 1_555
C20 C15 1_555 1_555
H14 C20 1_555 1_555
C21 C10 1_555 1_555
C22 C21 1_555 1_555
H15 C22 1_555 1_555
C23 C22 1_555 1_555
C24 C23 1_555 1_555
H16 C24 1_555 1_555
C25 C24 1_555 1_555
H17 C25 1_555 1_555
C26 C21 1_555 1_555
H18 C26 1_555 1_555
C27 O7 1_555 1_555
H19 C27 1_555 1_555
H20 C27 1_555 1_555
C28 C27 1_555 1_555
H21 C28 1_555 1_555
H22 C28 1_555 1_555
C29 C28 1_555 1_555
H23 C29 1_555 1_555
H24 C29 1_555 1_555
H25 C29 1_555 1_555
C2 C7 1_555 1_555
C5 C6 1_555 1_555
C6 C7 1_555 1_555
C13 C14 1_555 1_555
C19 C20 1_555 1_555
C25 C26 1_555 1_555

#END
