
#######################################################################
#
#                 Cambridge Crystallographic Data Centre
#                                CCDC 
#
#######################################################################
#
# If this CIF has been generated from an entry in the Cambridge 
# Structural Database, then it will include bibliographic, chemical, 
# crystal, experimental, refinement or atomic coordinate data resulting 
# from the CCDC's data processing and validation procedures.
#
#######################################################################

data_CIBGAX
_chemical_formula_moiety         'C20 H15 Cl1 N2 O1'
_chemical_name_systematic        
2-(6-Chloro-4-phenyl-1,2-dihydroquinazolin-2-yl)phenol
_symmetry_cell_setting           orthorhombic
_symmetry_space_group_name_H-M   'P 21 21 21'
_symmetry_Int_Tables_number      19
_space_group_name_Hall           'P 2ac 2ab'
loop_
_symmetry_equiv_pos_site_id
_symmetry_equiv_pos_as_xyz
1 x,y,z
2 1/2-x,-y,1/2+z
3 1/2+x,1/2-y,-z
4 -x,1/2+y,1/2-z
_cell_length_a                   7.8795(7)
_cell_length_b                   10.8790(8)
_cell_length_c                   19.733(2)
_cell_angle_alpha                90
_cell_angle_beta                 90
_cell_angle_gamma                90
_cell_volume                     1691.53
_exptl_crystal_colour            yellow
_exptl_crystal_description       rectangular
_chemical_melting_point          '438.5 K'
_cell_formula_units_Z            4
loop_
_atom_site_label
_atom_site_type_symbol
_atom_site_fract_x
_atom_site_fract_y
_atom_site_fract_z
Cl1 Cl 0.24864(14) 0.92780(9) 0.35367(4)
O1 O 0.0046(3) 0.7497(2) 0.74619(13)
H1 H 0.0104 0.6855 0.7678
N1 N -0.0756(3) 0.8863(2) 0.62142(13)
N2 N 0.0307(3) 1.08577(19) 0.65136(12)
C1 C 0.0781(4) 1.0029(2) 0.53949(14)
C2 C -0.0020(3) 0.8924(2) 0.55801(14)
C3 C 0.0678(4) 1.1043(2) 0.58889(15)
C4 C 0.3338(4) 0.9485(3) 0.68457(16)
H2 H 0.3435 1.0205 0.6594
C5 C 0.1747(4) 0.9025(2) 0.69786(14)
C6 C 0.1464(4) 0.9164(3) 0.43176(15)
C7 C 0.0604(4) 0.8087(3) 0.44862(17)
H3 H 0.0521 0.7451 0.4173
C8 C 0.1555(4) 1.0130(3) 0.47626(15)
H4 H 0.2128 1.0846 0.4643
C9 C -0.0114(4) 0.7969(2) 0.51100(15)
H5 H -0.0673 0.7245 0.5224
C10 C 0.1629(5) 0.7940(3) 0.73537(16)
C11 C 0.0092(4) 0.9584(2) 0.67408(15)
C12 C 0.1011(4) 1.2346(2) 0.56819(17)
C13 C 0.1890(5) 1.3116(3) 0.61138(19)
H6 H 0.2281 1.2812 0.6526
C14 C 0.0451(4) 1.2806(3) 0.5072(2)
H7 H -0.0147 1.2304 0.4774
C15 C 0.4653(5) 0.7837(4) 0.7437(2)
H8 H 0.5625 0.7432 0.7584
C16 C 0.2201(5) 1.4332(3) 0.5947(3)
H9 H 0.2778 1.4843 0.6247
C17 C 0.4798(5) 0.8913(4) 0.70730(19)
H10 H 0.5860 0.9249 0.6982
C18 C 0.1648(5) 1.4774(3) 0.5335(3)
H11 H 0.1863 1.5586 0.5216
C19 C 0.3095(5) 0.7363(3) 0.7582(2)
H12 H 0.3012 0.6647 0.7837
C20 C 0.0785(5) 1.4028(3) 0.4901(3)
H13 H 0.0414 1.4336 0.4487
H14 H -0.067(3) 0.959(2) 0.7112(13)
H15 H -0.105(5) 0.813(3) 0.6352(17)
loop_
_geom_bond_atom_site_label_1
_geom_bond_atom_site_label_2
_geom_bond_site_symmetry_1
_geom_bond_site_symmetry_2
Cl1 C6 1_555 1_555
O1 H1 1_555 1_555
N1 C2 1_555 1_555
N2 C3 1_555 1_555
C1 C2 1_555 1_555
C2 C9 1_555 1_555
C3 C1 1_555 1_555
C4 H2 1_555 1_555
C5 C4 1_555 1_555
C6 C7 1_555 1_555
C7 H3 1_555 1_555
C8 C1 1_555 1_555
H4 C8 1_555 1_555
C9 C7 1_555 1_555
H5 C9 1_555 1_555
C10 O1 1_555 1_555
C11 N1 1_555 1_555
C12 C3 1_555 1_555
C13 C12 1_555 1_555
H6 C13 1_555 1_555
C14 C12 1_555 1_555
H7 C14 1_555 1_555
C15 H8 1_555 1_555
C16 C13 1_555 1_555
H9 C16 1_555 1_555
C17 C4 1_555 1_555
H10 C17 1_555 1_555
C18 C16 1_555 1_555
H11 C18 1_555 1_555
C19 C10 1_555 1_555
H12 C19 1_555 1_555
C20 C14 1_555 1_555
H13 C20 1_555 1_555
H14 C11 1_555 1_555
H15 N1 1_555 1_555
N2 C11 1_555 1_555
C5 C10 1_555 1_555
C5 C11 1_555 1_555
C6 C8 1_555 1_555
C15 C17 1_555 1_555
C15 C19 1_555 1_555
C18 C20 1_555 1_555

#END
