
#######################################################################
#
#                 Cambridge Crystallographic Data Centre
#                                CCDC 
#
#######################################################################
#
# If this CIF has been generated from an entry in the Cambridge 
# Structural Database, then it will include bibliographic, chemical, 
# crystal, experimental, refinement or atomic coordinate data resulting 
# from the CCDC's data processing and validation procedures.
#
#######################################################################

data_CIBLEH
_chemical_formula_moiety         'C26 H34'
_chemical_name_systematic        
1,1'-(4,5-diethylocta-3,5-diene-3,6-diyl)bis(2-methylbenzene)
_symmetry_cell_setting           monoclinic
_symmetry_space_group_name_H-M   'C 2/c'
_symmetry_Int_Tables_number      15
_space_group_name_Hall           '-C 2yn'
loop_
_symmetry_equiv_pos_site_id
_symmetry_equiv_pos_as_xyz
1 x,y,z
2 -x,y,1/2-z
3 1/2+x,1/2+y,z
4 1/2-x,1/2+y,1/2-z
5 -x,-y,-z
6 x,-y,1/2+z
7 1/2-x,1/2-y,-z
8 1/2+x,1/2-y,1/2+z
_cell_length_a                   19.015(4)
_cell_length_b                   7.7697(16)
_cell_length_c                   15.298(3)
_cell_angle_alpha                90
_cell_angle_beta                 98.24(3)
_cell_angle_gamma                90
_cell_volume                     2236.81
_exptl_crystal_colour            colorless
_exptl_crystal_description       Prism
_cell_formula_units_Z            4
loop_
_atom_site_label
_atom_site_type_symbol
_atom_site_fract_x
_atom_site_fract_y
_atom_site_fract_z
C1 C 0.32952(11) 0.0655(3) 0.32279(15)
C2 C 0.30489(13) 0.1505(4) 0.39238(17)
H1 H 0.2699 0.0985 0.4201
C3 C 0.33048(15) 0.3086(5) 0.42152(18)
H2 H 0.3129 0.3623 0.4682
C4 C 0.38218(15) 0.3870(4) 0.38149(18)
H3 H 0.3998 0.4943 0.4008
C5 C 0.40801(12) 0.3049(3) 0.31194(15)
H4 H 0.4430 0.3584 0.2850
C6 C 0.38281(10) 0.1453(3) 0.28180(13)
C7 C 0.30096(14) -0.1100(4) 0.29474(19)
H5 H 0.2906 -0.1723 0.3455
H6 H 0.3358 -0.1719 0.2676
H7 H 0.2583 -0.0977 0.2533
C8 C 0.40920(11) 0.0614(3) 0.20413(13)
C9 C 0.35682(12) 0.0770(3) 0.11909(15)
H8 H 0.3644 -0.0176 0.0801
H9 H 0.3088 0.0680 0.1330
C10 C 0.36477(16) 0.2466(4) 0.07158(18)
H10 H 0.3573 0.3406 0.1099
H11 H 0.3304 0.2519 0.0192
H12 H 0.4117 0.2541 0.0557
C11 C 0.47372(11) -0.0107(3) 0.20787(13)
C12 C 0.49489(13) -0.1046(3) 0.12811(15)
H13 H 0.4749 -0.0444 0.0747
H14 H 0.5462 -0.1026 0.1316
C13 C 0.46942(18) -0.2902(4) 0.1227(2)
H15 H 0.4927 -0.3532 0.1727
H16 H 0.4806 -0.3416 0.0693
H17 H 0.4190 -0.2932 0.1228
C1A C 0.67048(11) 0.0655(3) 0.17721(15)
C2A C 0.69511(13) 0.1505(4) 0.10762(17)
H1A H 0.7301 0.0985 0.0799
C3A C 0.66952(15) 0.3086(5) 0.07848(18)
H2A H 0.6871 0.3623 0.0318
C4A C 0.61782(15) 0.3870(4) 0.11851(18)
H3A H 0.6002 0.4943 0.0992
C5A C 0.59199(12) 0.3049(3) 0.18806(15)
H4A H 0.5570 0.3584 0.2150
C6A C 0.61719(10) 0.1453(3) 0.21820(13)
C7A C 0.69904(14) -0.1100(4) 0.20526(19)
H5A H 0.7094 -0.1723 0.1545
H6A H 0.6642 -0.1719 0.2324
H7A H 0.7417 -0.0977 0.2467
C8A C 0.59080(11) 0.0614(3) 0.29587(13)
C9A C 0.64318(12) 0.0770(3) 0.38091(15)
H8A H 0.6356 -0.0176 0.4199
H9A H 0.6912 0.0680 0.3670
C10A C 0.63523(16) 0.2466(4) 0.42842(18)
H10A H 0.6427 0.3406 0.3901
H11A H 0.6696 0.2519 0.4808
H12A H 0.5883 0.2541 0.4443
C11A C 0.52628(11) -0.0107(3) 0.29213(13)
C12A C 0.50511(13) -0.1046(3) 0.37189(15)
H13A H 0.5251 -0.0444 0.4253
H14A H 0.4538 -0.1026 0.3684
C13A C 0.53058(18) -0.2902(4) 0.3773(2)
H15A H 0.5073 -0.3532 0.3273
H16A H 0.5194 -0.3416 0.4307
H17A H 0.5810 -0.2932 0.3772
loop_
_geom_bond_atom_site_label_1
_geom_bond_atom_site_label_2
_geom_bond_site_symmetry_1
_geom_bond_site_symmetry_2
C1 C2 1_555 1_555
C2 H1 1_555 1_555
C3 C2 1_555 1_555
H2 C3 1_555 1_555
C4 C3 1_555 1_555
H3 C4 1_555 1_555
C5 C4 1_555 1_555
H4 C5 1_555 1_555
C6 C1 1_555 1_555
C7 C1 1_555 1_555
H5 C7 1_555 1_555
H6 C7 1_555 1_555
H7 C7 1_555 1_555
C8 C6 1_555 1_555
C9 C8 1_555 1_555
H8 C9 1_555 1_555
H9 C9 1_555 1_555
C10 C9 1_555 1_555
H10 C10 1_555 1_555
H11 C10 1_555 1_555
H12 C10 1_555 1_555
C11 C8 1_555 1_555
C12 C11 1_555 1_555
H13 C12 1_555 1_555
H14 C12 1_555 1_555
C13 C12 1_555 1_555
H15 C13 1_555 1_555
H16 C13 1_555 1_555
H17 C13 1_555 1_555
C1A C2A 1_555 1_555
C2A H1A 1_555 1_555
C3A C2A 1_555 1_555
H2A C3A 1_555 1_555
C4A C3A 1_555 1_555
H3A C4A 1_555 1_555
C5A C4A 1_555 1_555
H4A C5A 1_555 1_555
C6A C1A 1_555 1_555
C7A C1A 1_555 1_555
H5A C7A 1_555 1_555
H6A C7A 1_555 1_555
H7A C7A 1_555 1_555
C8A C6A 1_555 1_555
C9A C8A 1_555 1_555
H8A C9A 1_555 1_555
H9A C9A 1_555 1_555
C10A C9A 1_555 1_555
H10A C10A 1_555 1_555
H11A C10A 1_555 1_555
H12A C10A 1_555 1_555
C11A C11 1_555 1_555
C12A C11A 1_555 1_555
H13A C12A 1_555 1_555
H14A C12A 1_555 1_555
C13A C12A 1_555 1_555
H15A C13A 1_555 1_555
H16A C13A 1_555 1_555
H17A C13A 1_555 1_555
C5 C6 1_555 1_555
C5A C6A 1_555 1_555
C8A C11A 1_555 1_555

#END
