
#######################################################################
#
#                 Cambridge Crystallographic Data Centre
#                                CCDC 
#
#######################################################################
#
# If this CIF has been generated from an entry in the Cambridge 
# Structural Database, then it will include bibliographic, chemical, 
# crystal, experimental, refinement or atomic coordinate data resulting 
# from the CCDC's data processing and validation procedures.
#
#######################################################################

data_CICLUY
_chemical_formula_moiety         'C23 H26'
_chemical_name_systematic        9,9-dibutyl-2-ethynyl-9H-fluorene
_symmetry_cell_setting           triclinic
_symmetry_space_group_name_H-M   'P -1'
_symmetry_Int_Tables_number      2
_space_group_name_Hall           '-P 1'
loop_
_symmetry_equiv_pos_site_id
_symmetry_equiv_pos_as_xyz
1 x,y,z
2 -x,-y,-z
_cell_length_a                   12.084(2)
_cell_length_b                   13.285(3)
_cell_length_c                   13.351(3)
_cell_angle_alpha                74.96(3)
_cell_angle_beta                 64.76(3)
_cell_angle_gamma                81.34(3)
_cell_volume                     1870.33
_exptl_crystal_colour            yellow
_exptl_crystal_description       plate
_cell_formula_units_Z            4
loop_
_atom_site_label
_atom_site_type_symbol
_atom_site_fract_x
_atom_site_fract_y
_atom_site_fract_z
C1 C 0.10966(16) 0.61279(13) 0.35972(15)
H1 H 0.0356 0.6458 0.3983
C2 C 0.20365(14) 0.57082(11) 0.31072(13)
C3 C 0.31990(12) 0.52079(10) 0.25285(11)
C4 C 0.33228(13) 0.45626(10) 0.18071(12)
H2 H 0.2641 0.4445 0.1706
C5 C 0.44440(13) 0.40967(10) 0.12425(12)
H3 H 0.4518 0.3669 0.0763
C6 C 0.54592(12) 0.42720(9) 0.13955(11)
C7 C 0.67500(13) 0.39279(9) 0.08768(11)
C8 C 0.73505(15) 0.33665(10) 0.00299(12)
H4 H 0.6918 0.3116 -0.0281
C9 C 0.86077(15) 0.31894(11) -0.03401(13)
H5 H 0.9025 0.2821 -0.0911
C10 C 0.92481(15) 0.35524(12) 0.01270(14)
H6 H 1.0090 0.3418 -0.0127
C11 C 0.86557(13) 0.41168(11) 0.09719(12)
H7 H 0.9092 0.4358 0.1285
C12 C 0.74038(13) 0.43108(10) 0.13354(11)
C13 C 0.65642(12) 0.49692(10) 0.21802(11)
C14 C 0.53400(12) 0.48968(9) 0.21363(11)
C15 C 0.42219(12) 0.53682(10) 0.26943(11)
H8 H 0.4148 0.5791 0.3179
C16 C 0.65162(13) 0.45092(10) 0.33830(11)
H9 H 0.7321 0.4545 0.3364
H10 H 0.5951 0.4943 0.3887
C17 C 0.61269(14) 0.33848(10) 0.38812(11)
H11 H 0.5374 0.3326 0.3811
H12 H 0.6751 0.2935 0.3440
C18 C 0.59273(15) 0.30041(11) 0.51134(12)
H13 H 0.5321 0.3465 0.5553
H14 H 0.6687 0.3041 0.5182
C19 C 0.55032(17) 0.18950(13) 0.56070(14)
H15 H 0.5377 0.1701 0.6391
H16 H 0.6115 0.1430 0.5197
H17 H 0.4749 0.1853 0.5545
C20 C 0.69613(13) 0.61112(10) 0.17652(12)
H18 H 0.6392 0.6518 0.2298
H19 H 0.7764 0.6126 0.1759
C21 C 0.70103(15) 0.66164(11) 0.05876(13)
H20 H 0.7591 0.6209 0.0062
H21 H 0.6212 0.6571 0.0597
C22 C 0.73584(15) 0.77396(11) 0.01283(14)
H22 H 0.8166 0.7798 0.0093
H23 H 0.6781 0.8163 0.0638
C23 C 0.73631(18) 0.81458(13) -0.10456(15)
H24 H 0.6548 0.8149 -0.1000
H25 H 0.7897 0.7703 -0.1539
H26 H 0.7648 0.8843 -0.1341
C24 C 0.98491(16) 1.38092(14) 0.33760(17)
H27 H 1.0075 1.4489 0.3225
C25 C 0.95633(14) 1.29486(12) 0.35671(14)
C26 C 0.92220(12) 1.18899(11) 0.38204(12)
C27 C 0.88539(13) 1.12927(12) 0.49284(13)
H28 H 0.8809 1.1592 0.5503
C28 C 0.85558(13) 1.02669(12) 0.51870(12)
H29 H 0.8314 0.9878 0.5928
C29 C 0.86218(11) 0.98216(10) 0.43274(10)
C30 C 0.83756(12) 0.87721(10) 0.43336(11)
C31 C 0.80305(13) 0.78821(11) 0.52067(12)
H30 H 0.7945 0.7888 0.5932
C32 C 0.78193(14) 0.69937(12) 0.49727(14)
H31 H 0.7582 0.6398 0.5550
C33 C 0.79536(14) 0.69726(11) 0.38997(14)
H32 H 0.7795 0.6369 0.3764
C34 C 0.83247(13) 0.78483(10) 0.30193(12)
H33 H 0.8428 0.7831 0.2292
C35 C 0.85367(12) 0.87431(10) 0.32400(11)
C36 C 0.89635(12) 0.97832(9) 0.24208(10)
C37 C 0.89696(11) 1.04218(10) 0.32134(10)
C38 C 0.92698(12) 1.14458(10) 0.29580(12)
H34 H 0.9502 1.1838 0.2219
C39 C 1.02585(12) 0.96586(10) 0.14944(11)
H35 H 1.0214 0.9236 0.1020
H36 H 1.0514 1.0342 0.1018
C40 C 1.12345(12) 0.91652(10) 0.19321(11)
H37 H 1.1274 0.9579 0.2416
H38 H 1.0994 0.8474 0.2392
C41 C 1.24978(13) 0.90771(11) 0.09961(13)
H39 H 1.2728 0.9765 0.0520
H40 H 1.2466 0.8643 0.0527
C42 C 1.34702(16) 0.86175(16) 0.14436(18)
H41 H 1.3242 0.7941 0.1925
H42 H 1.3542 0.9066 0.1870
H43 H 1.4242 0.8555 0.0818
C43 C 0.80596(12) 1.02675(10) 0.18650(11)
H44 H 0.8381 1.0913 0.1331
H45 H 0.8020 0.9795 0.1437
C44 C 0.67684(13) 1.04966(12) 0.26911(12)
H46 H 0.6494 0.9880 0.3294
H47 H 0.6790 1.1051 0.3033
C45 C 0.58477(14) 1.08123(14) 0.21717(13)
H48 H 0.5774 1.0237 0.1884
H49 H 0.6147 1.1398 0.1533
C46 C 0.45958(15) 1.11139(14) 0.29920(15)
H50 H 0.4312 1.0553 0.3648
H51 H 0.4035 1.1251 0.2630
H52 H 0.4645 1.1729 0.3219
loop_
_geom_bond_atom_site_label_1
_geom_bond_atom_site_label_2
_geom_bond_site_symmetry_1
_geom_bond_site_symmetry_2
C1 H1 1_555 1_555
C2 C1 1_555 1_555
C3 C2 1_555 1_555
C4 C3 1_555 1_555
H2 C4 1_555 1_555
C5 C4 1_555 1_555
H3 C5 1_555 1_555
C6 C5 1_555 1_555
C7 C6 1_555 1_555
C8 C7 1_555 1_555
H4 C8 1_555 1_555
C9 C8 1_555 1_555
H5 C9 1_555 1_555
C10 C9 1_555 1_555
H6 C10 1_555 1_555
C11 C10 1_555 1_555
H7 C11 1_555 1_555
C12 C7 1_555 1_555
C13 C12 1_555 1_555
C14 C6 1_555 1_555
C15 C3 1_555 1_555
H8 C15 1_555 1_555
C16 C13 1_555 1_555
H9 C16 1_555 1_555
H10 C16 1_555 1_555
C17 C16 1_555 1_555
H11 C17 1_555 1_555
H12 C17 1_555 1_555
C18 C17 1_555 1_555
H13 C18 1_555 1_555
H14 C18 1_555 1_555
C19 C18 1_555 1_555
H15 C19 1_555 1_555
H16 C19 1_555 1_555
H17 C19 1_555 1_555
C20 C13 1_555 1_555
H18 C20 1_555 1_555
H19 C20 1_555 1_555
C21 C20 1_555 1_555
H20 C21 1_555 1_555
H21 C21 1_555 1_555
C22 C21 1_555 1_555
H22 C22 1_555 1_555
H23 C22 1_555 1_555
C23 C22 1_555 1_555
H24 C23 1_555 1_555
H25 C23 1_555 1_555
H26 C23 1_555 1_555
C24 H27 1_555 1_555
C25 C24 1_555 1_555
C26 C25 1_555 1_555
C27 C26 1_555 1_555
H28 C27 1_555 1_555
C28 C27 1_555 1_555
H29 C28 1_555 1_555
C29 C28 1_555 1_555
C30 C29 1_555 1_555
C31 C30 1_555 1_555
H30 C31 1_555 1_555
C32 C31 1_555 1_555
H31 C32 1_555 1_555
C33 C32 1_555 1_555
H32 C33 1_555 1_555
C34 C33 1_555 1_555
H33 C34 1_555 1_555
C35 C30 1_555 1_555
C36 C35 1_555 1_555
C37 C29 1_555 1_555
C38 C26 1_555 1_555
H34 C38 1_555 1_555
C39 C36 1_555 1_555
H35 C39 1_555 1_555
H36 C39 1_555 1_555
C40 C39 1_555 1_555
H37 C40 1_555 1_555
H38 C40 1_555 1_555
C41 C40 1_555 1_555
H39 C41 1_555 1_555
H40 C41 1_555 1_555
C42 C41 1_555 1_555
H41 C42 1_555 1_555
H42 C42 1_555 1_555
H43 C42 1_555 1_555
C43 C36 1_555 1_555
H44 C43 1_555 1_555
H45 C43 1_555 1_555
C44 C43 1_555 1_555
H46 C44 1_555 1_555
H47 C44 1_555 1_555
C45 C44 1_555 1_555
H48 C45 1_555 1_555
H49 C45 1_555 1_555
C46 C45 1_555 1_555
H50 C46 1_555 1_555
H51 C46 1_555 1_555
H52 C46 1_555 1_555
C11 C12 1_555 1_555
C13 C14 1_555 1_555
C14 C15 1_555 1_555
C34 C35 1_555 1_555
C36 C37 1_555 1_555
C37 C38 1_555 1_555

#END
