
#######################################################################
#
#                 Cambridge Crystallographic Data Centre
#                                CCDC 
#
#######################################################################
#
# If this CIF has been generated from an entry in the Cambridge 
# Structural Database, then it will include bibliographic, chemical, 
# crystal, experimental, refinement or atomic coordinate data resulting 
# from the CCDC's data processing and validation procedures.
#
#######################################################################

data_CICQOW02
_chemical_name_common            'bis(collidine)iodanium hexafluorophosphate'
_chemical_formula_moiety         'C16 H22 I1 N2 1+,F6 P1 1-'
_chemical_name_systematic        
'bis(2,4,6-trimethylpyridine)iodanium hexafluorophosphate'
_symmetry_cell_setting           triclinic
_symmetry_space_group_name_H-M   'P -1'
_symmetry_Int_Tables_number      2
_space_group_name_Hall           '-P 1'
loop_
_symmetry_equiv_pos_site_id
_symmetry_equiv_pos_as_xyz
1 x,y,z
2 -x,-y,-z
_cell_length_a                   7.9723(2)
_cell_length_b                   8.2018(3)
_cell_length_c                   15.4695(5)
_cell_angle_alpha                99.377(3)
_cell_angle_beta                 97.639(2)
_cell_angle_gamma                100.448(2)
_cell_volume                     967.586
_exptl_crystal_colour            colorless
_exptl_crystal_description       plate
_cell_formula_units_Z            2
loop_
_atom_site_label
_atom_site_type_symbol
_atom_site_fract_x
_atom_site_fract_y
_atom_site_fract_z
I1 I 0.48050(3) 0.51838(3) 0.220751(13)
N1 N 0.3504(4) 0.5342(4) 0.08041(19)
C1 C 0.2540(5) 0.3919(5) 0.0255(2)
C2 C 0.1620(5) 0.4012(5) -0.0556(2)
C3 C 0.1672(5) 0.5565(5) -0.0825(2)
C4 C 0.2685(5) 0.6981(5) -0.0254(3)
C5 C 0.3600(5) 0.6863(5) 0.0554(2)
C6 C 0.2475(6) 0.2250(5) 0.0538(3)
C7 C 0.0665(5) 0.5652(5) -0.1701(2)
C8 C 0.4708(5) 0.8395(5) 0.1168(3)
N2 N 0.6050(4) 0.4935(4) 0.35775(19)
C9 C 0.6509(5) 0.6306(5) 0.4255(2)
C10 C 0.7346(5) 0.6164(5) 0.5075(2)
C11 C 0.7746(5) 0.4636(5) 0.5217(2)
C12 C 0.7238(5) 0.3262(5) 0.4515(2)
C13 C 0.6383(5) 0.3422(5) 0.3706(2)
C14 C 0.6124(5) 0.7966(5) 0.4096(3)
C15 C 0.8710(5) 0.4495(5) 0.6094(2)
C16 C 0.5831(5) 0.1923(5) 0.2951(2)
H1 H 0.1828 0.1365 0.0074
H2 H 0.1936 0.2250 0.1056
H3 H 0.3620 0.2037 0.0678
H4 H 0.0963 0.3039 -0.0916
H5 H 0.2734 0.8042 -0.0413
H6 H 0.5876 0.8253 0.1306
H7 H 0.4241 0.8620 0.1703
H8 H 0.4695 0.9343 0.0877
H9 H 0.1133 0.5125 -0.2184
H10 H 0.0675 0.6817 -0.1738
H11 H -0.0505 0.5081 -0.1733
H12 H 0.6393 0.8745 0.4649
H13 H 0.4933 0.7836 0.3859
H14 H 0.6815 0.8385 0.3682
H15 H 0.7644 0.7087 0.5531
H16 H 0.8943 0.3383 0.6082
H17 H 0.9807 0.5277 0.6233
H18 H 0.8075 0.4732 0.6566
H19 H 0.7489 0.2218 0.4581
H20 H 0.6428 0.2073 0.2458
H21 H 0.4603 0.1708 0.2729
H22 H 0.6089 0.0921 0.3148
P1 P 0.04188(12) -0.01159(12) 0.27349(6)
F1 F -0.0541(4) 0.0851(4) 0.34361(19)
F2 F -0.1018(4) 0.0044(4) 0.19380(18)
F3 F 0.1551(3) 0.1660(3) 0.26563(17)
F4 F 0.1861(4) -0.0257(4) 0.35252(19)
F5 F -0.0727(4) -0.1882(3) 0.2805(2)
F6 F 0.1380(4) -0.1068(4) 0.2030(2)
loop_
_geom_bond_atom_site_label_1
_geom_bond_atom_site_label_2
_geom_bond_site_symmetry_1
_geom_bond_site_symmetry_2
I1 N1 1_555 1_555
N1 C1 1_555 1_555
C1 C2 1_555 1_555
C2 C3 1_555 1_555
C3 C4 1_555 1_555
C4 C5 1_555 1_555
C5 N1 1_555 1_555
C6 C1 1_555 1_555
C7 C3 1_555 1_555
C8 C5 1_555 1_555
N2 I1 1_555 1_555
C9 N2 1_555 1_555
C10 C9 1_555 1_555
C11 C10 1_555 1_555
C12 C11 1_555 1_555
C13 N2 1_555 1_555
C14 C9 1_555 1_555
C15 C11 1_555 1_555
C16 C13 1_555 1_555
H1 C6 1_555 1_555
H2 C6 1_555 1_555
H3 C6 1_555 1_555
H4 C2 1_555 1_555
H5 C4 1_555 1_555
H6 C8 1_555 1_555
H7 C8 1_555 1_555
H8 C8 1_555 1_555
H9 C7 1_555 1_555
H10 C7 1_555 1_555
H11 C7 1_555 1_555
H12 C14 1_555 1_555
H13 C14 1_555 1_555
H14 C14 1_555 1_555
H15 C10 1_555 1_555
H16 C15 1_555 1_555
H17 C15 1_555 1_555
H18 C15 1_555 1_555
H19 C12 1_555 1_555
H20 C16 1_555 1_555
H21 C16 1_555 1_555
H22 C16 1_555 1_555
P1 F1 1_555 1_555
F2 P1 1_555 1_555
F3 P1 1_555 1_555
F4 P1 1_555 1_555
F5 P1 1_555 1_555
F6 P1 1_555 1_555
C12 C13 1_555 1_555

#END
