
#######################################################################
#
#                 Cambridge Crystallographic Data Centre
#                                CCDC 
#
#######################################################################
#
# If this CIF has been generated from an entry in the Cambridge 
# Structural Database, then it will include bibliographic, chemical, 
# crystal, experimental, refinement or atomic coordinate data resulting 
# from the CCDC's data processing and validation procedures.
#
#######################################################################

data_CICVAO
_chemical_formula_moiety         'C22 H18 N2 O1'
_chemical_name_systematic        
1-phenyl-3-[1-(pyridin-2-yl)-1H-indol-2-yl]propan-1-one
_symmetry_cell_setting           monoclinic
_symmetry_space_group_name_H-M   'P 21/c'
_symmetry_Int_Tables_number      14
_space_group_name_Hall           '-P 2ybc'
loop_
_symmetry_equiv_pos_site_id
_symmetry_equiv_pos_as_xyz
1 x,y,z
2 -x,1/2+y,1/2-z
3 -x,-y,-z
4 x,1/2-y,1/2+z
_cell_length_a                   11.4505(3)
_cell_length_b                   7.7282(2)
_cell_length_c                   19.2733(5)
_cell_angle_alpha                90
_cell_angle_beta                 101.414(1)
_cell_angle_gamma                90
_cell_volume                     1671.8
_exptl_crystal_colour            colorless
_exptl_crystal_description       plate
_cell_formula_units_Z            4
loop_
_atom_site_label
_atom_site_type_symbol
_atom_site_fract_x
_atom_site_fract_y
_atom_site_fract_z
N1 N 0.70226(12) 0.88569(18) 0.12750(7)
C1 C 0.81427(14) 0.8210(2) 0.12279(8)
C2 C 0.89859(14) 0.9373(2) 0.15215(8)
H1 H 0.9821 0.9252 0.1556
C3 C 0.83995(14) 1.0813(2) 0.17702(8)
C4 C 0.87812(16) 1.2369(2) 0.21130(9)
H2 H 0.9606 1.2640 0.2232
C5 C 0.79472(16) 1.3503(2) 0.22753(9)
H3 H 0.8205 1.4557 0.2510
C6 C 0.67307(17) 1.3134(3) 0.21013(9)
H4 H 0.6174 1.3949 0.2212
C7 C 0.63262(15) 1.1602(2) 0.17705(9)
H5 H 0.5500 1.1341 0.1657
C8 C 0.71700(14) 1.0455(2) 0.16101(8)
C9 C 0.59064(14) 0.8013(2) 0.10430(9)
C10 C 0.54609(17) 0.7788(3) 0.03306(10)
H6 H 0.5890 0.8182 -0.0013
C11 C 0.43716(19) 0.6971(3) 0.01312(11)
H7 H 0.4037 0.6790 -0.0355
C12 C 0.37808(16) 0.6426(3) 0.06454(10)
H8 H 0.3034 0.5854 0.0523
C13 C 0.42934(16) 0.6725(3) 0.13370(10)
H9 H 0.3879 0.6352 0.1691
N2 N 0.53475(13) 0.7516(2) 0.15461(8)
C14 C 0.82634(14) 0.6478(2) 0.09036(9)
H10 H 0.8015 0.6567 0.0383
H11 H 0.7726 0.5645 0.1073
C15 C 0.95378(14) 0.5802(2) 0.10877(9)
H12 H 1.0081 0.6672 0.0947
H13 H 0.9767 0.5642 0.1607
C16 C 0.96874(14) 0.4110(2) 0.07261(8)
O1 O 0.89165(11) 0.35868(17) 0.02434(7)
C17 C 1.08118(14) 0.3096(2) 0.09493(8)
C18 C 1.17043(15) 0.3561(2) 0.15194(9)
H14 H 1.1625 0.4582 0.1781
C19 C 1.27131(16) 0.2526(3) 0.17063(10)
H15 H 1.3320 0.2837 0.2098
C20 C 1.28323(16) 0.1050(2) 0.13235(10)
H16 H 1.3521 0.0345 0.1454
C21 C 1.19549(16) 0.0589(2) 0.07510(10)
H17 H 1.2043 -0.0420 0.0485
C22 C 1.09520(15) 0.1607(2) 0.05698(9)
H18 H 1.0347 0.1284 0.0179
loop_
_geom_bond_atom_site_label_1
_geom_bond_atom_site_label_2
_geom_bond_site_symmetry_1
_geom_bond_site_symmetry_2
N1 C1 1_555 1_555
C1 C2 1_555 1_555
C2 H1 1_555 1_555
C3 C2 1_555 1_555
C4 C3 1_555 1_555
H2 C4 1_555 1_555
C5 C4 1_555 1_555
H3 C5 1_555 1_555
C6 C5 1_555 1_555
H4 C6 1_555 1_555
C7 C6 1_555 1_555
H5 C7 1_555 1_555
C8 N1 1_555 1_555
C9 N1 1_555 1_555
C10 C9 1_555 1_555
H6 C10 1_555 1_555
C11 C10 1_555 1_555
H7 C11 1_555 1_555
C12 C11 1_555 1_555
H8 C12 1_555 1_555
C13 C12 1_555 1_555
H9 C13 1_555 1_555
N2 C9 1_555 1_555
C14 C1 1_555 1_555
H10 C14 1_555 1_555
H11 C14 1_555 1_555
C15 C14 1_555 1_555
H12 C15 1_555 1_555
H13 C15 1_555 1_555
C16 C15 1_555 1_555
O1 C16 1_555 1_555
C17 C16 1_555 1_555
C18 C17 1_555 1_555
H14 C18 1_555 1_555
C19 C18 1_555 1_555
H15 C19 1_555 1_555
C20 C19 1_555 1_555
H16 C20 1_555 1_555
C21 C20 1_555 1_555
H17 C21 1_555 1_555
C22 C17 1_555 1_555
H18 C22 1_555 1_555
C3 C8 1_555 1_555
C7 C8 1_555 1_555
C13 N2 1_555 1_555
C21 C22 1_555 1_555

#END
