
#######################################################################
#
#                 Cambridge Crystallographic Data Centre
#                                CCDC 
#
#######################################################################
#
# If this CIF has been generated from an entry in the Cambridge 
# Structural Database, then it will include bibliographic, chemical, 
# crystal, experimental, refinement or atomic coordinate data resulting 
# from the CCDC's data processing and validation procedures.
#
#######################################################################

data_CIDNAE
_chemical_formula_moiety         'C24 H60 N8 O3 6+,6(Cl1 1-)'
_chemical_name_systematic        
'7,19,30-Trioxa-1,13-diaza-4,10,16,22,27,33-hexa-azoniabicyclo(11.11.11)pentacontane hexachloride'
_symmetry_cell_setting           trigonal
_symmetry_space_group_name_H-M   'P 31 2 1'
_symmetry_Int_Tables_number      152
_space_group_name_Hall           'P 31 2"'
loop_
_symmetry_equiv_pos_site_id
_symmetry_equiv_pos_as_xyz
1 x,y,z
2 -y,x-y,1/3+z
3 -x+y,-x,2/3+z
4 y,x,-z
5 x-y,-y,2/3-z
6 -x,-x+y,1/3-z
_cell_length_a                   11.186(7)
_cell_length_b                   11.186(7)
_cell_length_c                   24.801(7)
_cell_angle_alpha                90
_cell_angle_beta                 90
_cell_angle_gamma                120
_cell_volume                     2687.51
_chemical_melting_point          'above 260deg.C'
_cell_formula_units_Z            3
loop_
_atom_site_label
_atom_site_type_symbol
_atom_site_fract_x
_atom_site_fract_y
_atom_site_fract_z
Cl1 Cl 0.35850 0.00000 0.33330
Cl2 Cl 0.30690 0.00000 0.83330
Cl3 Cl 0.14690 0.23430 0.38290
Cl4 Cl 0.75720 0.30850 0.46960
N1 N 0.55600 0.37890 0.30990
C1 C 0.66470 0.40010 0.27070
C2 C 0.71870 0.30080 0.27580
N2 N 0.61630 0.16170 0.25490
C3 C 0.67750 0.07060 0.24280
C4 C 0.74800 0.04800 0.28890
O1 O 0.65480 0.00000 0.33330
C5 C 0.47430 0.43810 0.28950
C6 C 0.36600 0.34290 0.24920
N3 N 0.26530 0.20960 0.27550
C7 C 0.14590 0.11430 0.24110
C8 C 0.19240 0.07120 0.19200
O2 O 0.28160 0.02230 0.20980
C9 C 0.28640 -0.07320 0.17390
C10 C 0.18290 -0.21790 0.19000
N4 N 0.22300 -0.25870 0.24140
C11 C 0.12260 -0.40310 0.25780
C12 C 0.62350 0.44770 0.36167
H1 H 0.62100 0.38100 0.23500
H2 H 0.73500 0.48500 0.27700
H3 H 0.75000 0.29500 0.31700
H4 H 0.79600 0.32200 0.25600
H5 H 0.53000 0.12500 0.28400
H6 H 0.56800 0.15800 0.22200
H7 H 0.74900 0.12100 0.20700
H8 H 0.61200 -0.01400 0.22700
H9 H 0.82200 0.14500 0.30300
H10 H 0.75100 -0.04600 0.28800
H11 H 0.42500 0.44100 0.31800
H12 H 0.53000 0.52700 0.26700
H13 H 0.41300 0.33100 0.21300
H14 H 0.31800 0.38700 0.23300
H15 H 0.23500 0.21100 0.31500
H16 H 0.30400 0.17200 0.28800
H17 H 0.10100 0.15100 0.23200
H18 H 0.08000 0.02000 0.26500
H19 H 0.25100 0.15300 0.16400
H20 H 0.12300 0.01000 0.16900
H21 H 0.27200 -0.05200 0.13400
H22 H 0.36200 -0.05400 0.17300
H23 H 0.18800 -0.28300 0.16400
H24 H 0.07800 -0.22900 0.20000
H25 H 0.31600 -0.23500 0.23600
H26 H 0.23700 -0.19900 0.26700
H27 H 0.12200 -0.45500 0.22600
H28 H 0.04500 -0.40500 0.27200
H29 H 0.69400 0.49700 0.36867
C4D C 0.70000 -0.04800 0.37777
C12D C 0.17580 -0.44770 0.30500
C11D C 0.52570 0.40310 0.40887
C3D C 0.60690 -0.07060 0.42387
H9D H 0.67700 -0.14500 0.36367
H10D H 0.79700 0.04600 0.37867
N1D N 0.17710 -0.37890 0.35677
H29D H 0.19700 -0.49700 0.29800
N4D N 0.48170 0.25870 0.42527
H27D H 0.57700 0.45500 0.44067
H28D H 0.45000 0.40500 0.39467
N2D N 0.45460 -0.16170 0.41177
H7D H 0.62800 -0.12100 0.45967
H8D H 0.62600 0.01400 0.43967
C1D C 0.26460 -0.40010 0.39597
C5D C 0.03620 -0.43810 0.37717
C10D C 0.40080 0.21790 0.47667
H25D H 0.55100 0.23500 0.43067
H26D H 0.43600 0.19900 0.39967
C2D C 0.41790 -0.30080 0.39087
H5D H 0.40500 -0.12500 0.38267
H6D H 0.41000 -0.15800 0.44467
H1D H 0.24000 -0.38100 0.43167
H2D H 0.25000 -0.48500 0.38967
C6D C 0.02310 -0.34290 0.41747
H11D H -0.01600 -0.44100 0.34867
H12D H 0.00300 -0.52700 0.39967
C9D C 0.35960 0.07320 0.49277
H23D H 0.47100 0.28300 0.50267
H24D H 0.30700 0.22900 0.46667
H3D H 0.45500 -0.29500 0.34967
H4D H 0.47400 -0.32200 0.41067
N3D N 0.05570 -0.20960 0.39117
H13D H 0.08200 -0.33100 0.45367
H14D H -0.06900 -0.38700 0.43367
O2D O 0.25930 -0.02230 0.45687
H21D H 0.32400 0.05200 0.53267
H22D H 0.41600 0.05400 0.49367
C7D C 0.03160 -0.11430 0.42557
H15D H 0.02400 -0.21100 0.35167
H16D H 0.13200 -0.17200 0.37867
C8D C 0.12120 -0.07120 0.47467
H17D H -0.05000 -0.15100 0.43467
H18D H 0.06000 -0.02000 0.40167
H19D H 0.09800 -0.15300 0.50267
H20D H 0.11300 -0.01000 0.49767
loop_
_geom_bond_atom_site_label_1
_geom_bond_atom_site_label_2
_geom_bond_site_symmetry_1
_geom_bond_site_symmetry_2
N1 C1 1_555 1_555
C1 C2 1_555 1_555
C2 N2 1_555 1_555
N2 C3 1_555 1_555
C3 C4 1_555 1_555
C4 O1 1_555 1_555
O1 C4D 1_555 1_555
C5 N1 1_555 1_555
C6 C5 1_555 1_555
N3 C6 1_555 1_555
C7 N3 1_555 1_555
C8 C7 1_555 1_555
O2 C8 1_555 1_555
C9 O2 1_555 1_555
C10 C9 1_555 1_555
N4 C10 1_555 1_555
C11 N4 1_555 1_555
C12 N1 1_555 1_555
H1 C1 1_555 1_555
H2 C1 1_555 1_555
H3 C2 1_555 1_555
H4 C2 1_555 1_555
H5 N2 1_555 1_555
H6 N2 1_555 1_555
H7 C3 1_555 1_555
H8 C3 1_555 1_555
H9 C4 1_555 1_555
H10 C4 1_555 1_555
H11 C5 1_555 1_555
H12 C5 1_555 1_555
H13 C6 1_555 1_555
H14 C6 1_555 1_555
H15 N3 1_555 1_555
H16 N3 1_555 1_555
H17 C7 1_555 1_555
H18 C7 1_555 1_555
H19 C8 1_555 1_555
H20 C8 1_555 1_555
H21 C9 1_555 1_555
H22 C9 1_555 1_555
H23 C10 1_555 1_555
H24 C10 1_555 1_555
H25 N4 1_555 1_555
H26 N4 1_555 1_555
H27 C11 1_555 1_555
H28 C11 1_555 1_555
H29 C12 1_555 1_555
C4D C3D 1_555 1_555
C12D C11 1_555 1_555
C11D C12 1_555 1_555
C3D N2D 1_555 1_555
H9D C4D 1_555 1_555
H10D C4D 1_555 1_555
N1D C12D 1_555 1_555
H29D C12D 1_555 1_555
N4D C11D 1_555 1_555
H27D C11D 1_555 1_555
H28D C11D 1_555 1_555
N2D C2D 1_555 1_555
H7D C3D 1_555 1_555
H8D C3D 1_555 1_555
C1D N1D 1_555 1_555
C5D N1D 1_555 1_555
C10D N4D 1_555 1_555
H25D N4D 1_555 1_555
H26D N4D 1_555 1_555
C2D C1D 1_555 1_555
H5D N2D 1_555 1_555
H6D N2D 1_555 1_555
H1D C1D 1_555 1_555
H2D C1D 1_555 1_555
C6D C5D 1_555 1_555
H11D C5D 1_555 1_555
H12D C5D 1_555 1_555
C9D C10D 1_555 1_555
H23D C10D 1_555 1_555
H24D C10D 1_555 1_555
H3D C2D 1_555 1_555
H4D C2D 1_555 1_555
N3D C6D 1_555 1_555
H13D C6D 1_555 1_555
H14D C6D 1_555 1_555
O2D C9D 1_555 1_555
H21D C9D 1_555 1_555
H22D C9D 1_555 1_555
C7D N3D 1_555 1_555
H15D N3D 1_555 1_555
H16D N3D 1_555 1_555
C8D O2D 1_555 1_555
H17D C7D 1_555 1_555
H18D C7D 1_555 1_555
H19D C8D 1_555 1_555
H20D C8D 1_555 1_555
C7D C8D 1_555 1_555

#END
