
#######################################################################
#
#                 Cambridge Crystallographic Data Centre
#                                CCDC 
#
#######################################################################
#
# If this CIF has been generated from an entry in the Cambridge 
# Structural Database, then it will include bibliographic, chemical, 
# crystal, experimental, refinement or atomic coordinate data resulting 
# from the CCDC's data processing and validation procedures.
#
#######################################################################

data_CIFYOI
_chemical_formula_moiety         'C23 H22 N4 O2 S1'
_chemical_name_systematic        
N^2^-((2-hydroxyphenyl)methyl)-N-(6-methyl-1,3-benzothiazol-2-yl)-N^2^-((pyridin-2-yl)methyl)glycinamide
_symmetry_cell_setting           triclinic
_symmetry_space_group_name_H-M   'P -1'
_symmetry_Int_Tables_number      2
_space_group_name_Hall           '-P 1'
loop_
_symmetry_equiv_pos_site_id
_symmetry_equiv_pos_as_xyz
1 x,y,z
2 -x,-y,-z
_cell_length_a                   7.2950(15)
_cell_length_b                   16.3670(18)
_cell_length_c                   18.592(2)
_cell_angle_alpha                77.506(8)
_cell_angle_beta                 87.794(11)
_cell_angle_gamma                85.826(11)
_cell_volume                     2160.93
_exptl_crystal_colour            'pale yellow'
_exptl_crystal_description       block
_cell_formula_units_Z            4
loop_
_atom_site_label
_atom_site_type_symbol
_atom_site_fract_x
_atom_site_fract_y
_atom_site_fract_z
C1 C 1.0954(7) 0.1339(3) -0.0880(3)
H1 H 1.072143 0.084190 -0.104852
H2 H 1.220160 0.130044 -0.072388
H3 H 1.075773 0.182067 -0.127446
C2 C 0.9667(6) 0.1421(3) -0.0243(2)
C3 C 1.0079(6) 0.1916(2) 0.0247(2)
H4 H 1.114798 0.220326 0.016924
C4 C 0.8949(6) 0.1989(2) 0.0838(2)
H5 H 0.924870 0.232375 0.115651
C5 C 0.7351(5) 0.1561(2) 0.09605(19)
C6 C 0.6930(5) 0.1076(2) 0.0465(2)
C7 C 0.8087(6) 0.1000(3) -0.0129(2)
H6 H 0.779463 0.066660 -0.044909
C8 C 0.4774(5) 0.1110(2) 0.14795(19)
C9 C 0.1888(5) 0.0540(2) 0.1992(2)
C10 C 0.0453(5) 0.0581(2) 0.2585(2)
H7 H -0.062778 0.090440 0.236390
H8 H 0.010125 0.001710 0.279590
C11 C -0.0443(5) 0.1431(2) 0.34681(19)
H9 H -0.010957 0.151029 0.394709
H10 H -0.153855 0.111742 0.353420
C12 C -0.0854(5) 0.2271(2) 0.29673(18)
C13 C 0.0538(5) 0.2758(2) 0.2626(2)
H11 H 0.176124 0.256117 0.269146
C14 C 0.0102(6) 0.3530(3) 0.2193(2)
H12 H 0.102648 0.386040 0.195916
C15 C -0.1722(6) 0.3815(3) 0.2104(2)
H13 H -0.205487 0.433759 0.181083
C16 C -0.3018(6) 0.3303(3) 0.2461(2)
H14 H -0.424880 0.349299 0.241011
C17 C 0.2086(5) 0.0351(2) 0.3727(2)
H15 H 0.302534 0.005070 0.348209
H16 H 0.126651 -0.005550 0.399591
C18 C 0.2991(5) 0.0752(2) 0.42660(19)
C19 C 0.2625(6) 0.0518(3) 0.5021(2)
H17 H 0.177900 0.011758 0.519116
C20 C 0.3474(7) 0.0859(3) 0.5521(2)
H18 H 0.321179 0.069192 0.602230
C21 C 0.4715(7) 0.1450(3) 0.5269(3)
H19 H 0.529779 0.168443 0.560410
C22 C 0.5117(6) 0.1705(3) 0.4523(2)
H20 H 0.595656 0.210972 0.435905
C23 C 0.4259(5) 0.1351(2) 0.40234(19)
N1 N 0.6106(5) 0.1563(2) 0.15401(17)
N2 N 0.3335(5) 0.1017(2) 0.19878(17)
H21 H 0.347(5) 0.123(2) 0.236(2)
N3 N 0.1046(4) 0.09520(18) 0.31716(15)
N4 N -0.2612(4) 0.25406(19) 0.28817(16)
O1 O 0.1731(4) 0.01206(16) 0.15324(15)
H22 H 0.559(6) 0.189(3) 0.316(2)
O2 O 0.4654(4) 0.15522(19) 0.32863(15)
S1 S 0.48604(15) 0.06267(7) 0.07280(5)
C24 C -0.5054(8) 0.6273(3) -0.0648(3)
H23 H -0.467867 0.575256 -0.078625
H24 H -0.477892 0.673177 -0.104545
H25 H -0.635201 0.629366 -0.054065
C25 C -0.4033(7) 0.6336(3) 0.0028(2)
C26 C -0.4850(6) 0.6766(3) 0.0538(2)
H26 H -0.601384 0.703296 0.044907
C27 C -0.3977(6) 0.6804(3) 0.1169(2)
H27 H -0.455527 0.708610 0.150809
C28 C -0.2233(5) 0.6420(2) 0.1299(2)
C29 C -0.1374(6) 0.6017(2) 0.07755(19)
C30 C -0.2276(6) 0.5979(2) 0.0142(2)
H28 H -0.169255 0.571067 -0.020492
C31 C 0.0352(5) 0.5989(2) 0.1861(2)
C32 C 0.3245(5) 0.5391(2) 0.2432(2)
C33 C 0.4498(6) 0.5441(3) 0.3044(2)
H29 H 0.489263 0.487518 0.329366
H30 H 0.558471 0.571618 0.282862
C34 C 0.4956(5) 0.6413(2) 0.3830(2)
H31 H 0.615138 0.611140 0.390643
H32 H 0.451551 0.653453 0.429679
C35 C 0.5154(5) 0.7225(2) 0.32767(19)
C36 C 0.3636(6) 0.7678(3) 0.2934(2)
H33 H 0.246971 0.747919 0.302809
C37 C 0.3882(9) 0.8421(3) 0.2455(3)
H34 H 0.288459 0.873052 0.220975
C38 C 0.5629(9) 0.8713(3) 0.2335(3)
H35 H 0.582818 0.922236 0.201604
C39 C 0.7041(7) 0.8229(3) 0.2699(2)
H36 H 0.821803 0.841914 0.262151
C40 C 0.2682(5) 0.5350(2) 0.4180(2)
H37 H 0.355239 0.496325 0.448624
H38 H 0.187604 0.502228 0.396997
C41 C 0.1560(5) 0.5846(3) 0.4651(2)
C42 C 0.1883(6) 0.5758(3) 0.5388(2)
H39 H 0.282988 0.538121 0.559910
C43 C 0.0855(7) 0.6205(3) 0.5824(3)
H40 H 0.109329 0.612802 0.632264
C44 C -0.0528(7) 0.6768(3) 0.5512(3)
H41 H -0.123182 0.707496 0.580190
C45 C -0.0880(6) 0.6881(3) 0.4776(2)
H42 H -0.180679 0.727143 0.456704
C46 C 0.0132(5) 0.6420(3) 0.4346(2)
N5 N -0.1202(5) 0.6390(2) 0.19193(17)
N6 N 0.1657(5) 0.5883(2) 0.23996(19)
H43 H 0.128(6) 0.611(3) 0.280(2)
N7 N 0.3683(4) 0.5885(2) 0.35857(17)
N8 N 0.6822(5) 0.7492(2) 0.31636(17)
O3 O 0.3672(4) 0.49593(18) 0.19912(17)
H44 H -0.118(7) 0.681(3) 0.347(2)
O4 O -0.0191(4) 0.6495(2) 0.36186(15)
S2 S 0.07965(15) 0.56091(6) 0.10608(6)
loop_
_geom_bond_atom_site_label_1
_geom_bond_atom_site_label_2
_geom_bond_site_symmetry_1
_geom_bond_site_symmetry_2
C1 H1 1_555 1_555
H2 C1 1_555 1_555
H3 C1 1_555 1_555
C2 C1 1_555 1_555
C3 C2 1_555 1_555
H4 C3 1_555 1_555
C4 C3 1_555 1_555
H5 C4 1_555 1_555
C5 C4 1_555 1_555
C6 C5 1_555 1_555
C7 C2 1_555 1_555
H6 C7 1_555 1_555
C8 N1 1_555 1_555
C9 C10 1_555 1_555
C10 H7 1_555 1_555
H8 C10 1_555 1_555
C11 H9 1_555 1_555
H10 C11 1_555 1_555
C12 C11 1_555 1_555
C13 C12 1_555 1_555
H11 C13 1_555 1_555
C14 C13 1_555 1_555
H12 C14 1_555 1_555
C15 C14 1_555 1_555
H13 C15 1_555 1_555
C16 C15 1_555 1_555
H14 C16 1_555 1_555
C17 H15 1_555 1_555
H16 C17 1_555 1_555
C18 C17 1_555 1_555
C19 C18 1_555 1_555
H17 C19 1_555 1_555
C20 C19 1_555 1_555
H18 C20 1_555 1_555
C21 C20 1_555 1_555
H19 C21 1_555 1_555
C22 C21 1_555 1_555
H20 C22 1_555 1_555
C23 C18 1_555 1_555
N1 C5 1_555 1_555
N2 C8 1_555 1_555
H21 N2 1_555 1_555
N3 C10 1_555 1_555
N4 C12 1_555 1_555
O1 C9 1_555 1_555
H22 O2 1_555 1_555
O2 C23 1_555 1_555
S1 C6 1_555 1_555
C24 H23 1_555 1_555
H24 C24 1_555 1_555
H25 C24 1_555 1_555
C25 C24 1_555 1_555
C26 C25 1_555 1_555
H26 C26 1_555 1_555
C27 C26 1_555 1_555
H27 C27 1_555 1_555
C28 C27 1_555 1_555
C29 C28 1_555 1_555
C30 C25 1_555 1_555
H28 C30 1_555 1_555
C31 N5 1_555 1_555
C32 C33 1_555 1_555
C33 H29 1_555 1_555
H30 C33 1_555 1_555
C34 H31 1_555 1_555
H32 C34 1_555 1_555
C35 C34 1_555 1_555
C36 C35 1_555 1_555
H33 C36 1_555 1_555
C37 C36 1_555 1_555
H34 C37 1_555 1_555
C38 C37 1_555 1_555
H35 C38 1_555 1_555
C39 C38 1_555 1_555
H36 C39 1_555 1_555
C40 H37 1_555 1_555
H38 C40 1_555 1_555
C41 C40 1_555 1_555
C42 C41 1_555 1_555
H39 C42 1_555 1_555
C43 C42 1_555 1_555
H40 C43 1_555 1_555
C44 C43 1_555 1_555
H41 C44 1_555 1_555
C45 C44 1_555 1_555
H42 C45 1_555 1_555
C46 C41 1_555 1_555
N5 C28 1_555 1_555
N6 C31 1_555 1_555
H43 N6 1_555 1_555
N7 C33 1_555 1_555
N8 C35 1_555 1_555
O3 C32 1_555 1_555
H44 O4 1_555 1_555
O4 C46 1_555 1_555
S2 C29 1_555 1_555
C6 C7 1_555 1_555
C8 S1 1_555 1_555
C9 N2 1_555 1_555
C11 N3 1_555 1_555
C16 N4 1_555 1_555
C17 N3 1_555 1_555
C22 C23 1_555 1_555
C29 C30 1_555 1_555
C31 S2 1_555 1_555
C32 N6 1_555 1_555
C34 N7 1_555 1_555
C39 N8 1_555 1_555
C40 N7 1_555 1_555
C45 C46 1_555 1_555

#END
