
#######################################################################
#
#                 Cambridge Crystallographic Data Centre
#                                CCDC 
#
#######################################################################
#
# If this CIF has been generated from an entry in the Cambridge 
# Structural Database, then it will include bibliographic, chemical, 
# crystal, experimental, refinement or atomic coordinate data resulting 
# from the CCDC's data processing and validation procedures.
#
#######################################################################

data_CIHPIS
_chemical_formula_moiety         'C10 H18 O3 S1'
_chemical_name_systematic        
6,6,9,9-Tetramethyl-3,5-dioxa-4-thiabicyclo(6.1.0)nonane-4-oxide
_symmetry_cell_setting           monoclinic
_symmetry_space_group_name_H-M   'P 21/c'
_symmetry_Int_Tables_number      14
_space_group_name_Hall           '-P 2ybc'
loop_
_symmetry_equiv_pos_site_id
_symmetry_equiv_pos_as_xyz
1 x,y,z
2 -x,1/2+y,1/2-z
3 -x,-y,-z
4 x,1/2-y,1/2+z
_cell_length_a                   7.385(1)
_cell_length_b                   8.756(1)
_cell_length_c                   18.169(2)
_cell_angle_alpha                90
_cell_angle_beta                 97.63(2)
_cell_angle_gamma                90
_cell_volume                     1164.46
_chemical_melting_point          103.5deg.C
_cell_formula_units_Z            4
loop_
_atom_site_label
_atom_site_type_symbol
_atom_site_fract_x
_atom_site_fract_y
_atom_site_fract_z
S1 S 0.55358 0.56103 0.78998
O1 O 0.68590 0.46150 0.76240
O2 O 0.41730 0.44710 0.82434
O3 O 0.66700 0.62590 0.86567
C1 C 0.21740 0.48140 0.81400
C2 C 0.18210 0.63370 0.85170
C3 C 0.26590 0.64550 0.93210
C4 C 0.29930 0.79560 0.97240
C5 C 0.46040 0.70110 0.95450
C6 C 0.57870 0.75330 0.89930
C7 C 0.14770 0.48830 0.73120
C8 C 0.13820 0.34470 0.84980
C9 C 0.25060 0.94520 0.93250
C10 C 0.26860 0.79840 1.05340
loop_
_geom_bond_atom_site_label_1
_geom_bond_atom_site_label_2
_geom_bond_site_symmetry_1
_geom_bond_site_symmetry_2
S1 O1 1_555 1_555
O2 S1 1_555 1_555
O3 S1 1_555 1_555
C1 O2 1_555 1_555
C2 C1 1_555 1_555
C3 C2 1_555 1_555
C4 C3 1_555 1_555
C5 C3 1_555 1_555
C6 O3 1_555 1_555
C7 C1 1_555 1_555
C8 C1 1_555 1_555
C9 C4 1_555 1_555
C10 C4 1_555 1_555
C4 C5 1_555 1_555
C5 C6 1_555 1_555

#END
