
#######################################################################
#
#                 Cambridge Crystallographic Data Centre
#                                CCDC 
#
#######################################################################
#
# If this CIF has been generated from an entry in the Cambridge 
# Structural Database, then it will include bibliographic, chemical, 
# crystal, experimental, refinement or atomic coordinate data resulting 
# from the CCDC's data processing and validation procedures.
#
#######################################################################

data_CIHQEP
_chemical_formula_moiety         'C16 H12 N2'
_chemical_name_systematic        2,6-Diphenylpyrazine
_symmetry_cell_setting           monoclinic
_symmetry_space_group_name_H-M   'C 2/c'
_symmetry_Int_Tables_number      15
_space_group_name_Hall           '-C 2yn'
loop_
_symmetry_equiv_pos_site_id
_symmetry_equiv_pos_as_xyz
1 x,y,z
2 -x,y,1/2-z
3 1/2+x,1/2+y,z
4 1/2-x,1/2+y,1/2-z
5 -x,-y,-z
6 x,-y,1/2+z
7 1/2-x,1/2-y,-z
8 1/2+x,1/2-y,1/2+z
_cell_length_a                   23.357(3)
_cell_length_b                   5.276(2)
_cell_length_c                   21.669(3)
_cell_angle_alpha                90
_cell_angle_beta                 114.97(2)
_cell_angle_gamma                90
_cell_volume                     2420.71
_chemical_melting_point          '91.0-92.5 deg.C'
_cell_formula_units_Z            8
loop_
_atom_site_label
_atom_site_type_symbol
_atom_site_fract_x
_atom_site_fract_y
_atom_site_fract_z
N1 N 0.4275(2) 0.493(1) 0.9084(2)
N2 N 0.4255 0.143(8) 0.8118(2)
C1 C 0.4719(2) 0.144(1) 0.8741(2)
C2 C 0.4713(3) 0.320(1) 0.9219(3)
C3 C 0.3817(3) 0.495(1) 0.8461(3)
C4 C 0.3797(2) 0.314(1) 0.7956(3)
C5 C 0.5228(2) -0.047(1) 0.8889(2)
C6 C 0.5737(3) -0.062(1) 0.9530(3)
C7 C 0.6201(3) -0.244(1) 0.9649(3)
C8 C 0.6167(3) -0.408(1) 0.9145(3)
C9 C 0.5654(3) -0.398(1) 0.8508(3)
C10 C 0.5189(3) -0.217(1) 0.8386(3)
C11 C 0.3283(2) 0.308(1) 0.7266(3)
C12 C 0.2785(3) 0.480(1) 0.7044(3)
C13 C 0.2303 0.462(1) 0.6395(4)
C14 C 0.2296(3) 0.277(1) 0.5946(3)
C15 C 0.2792(3) 0.104(1) 0.6162(3)
C16 C 0.3268(3) 0.117(1) 0.6816(3)
loop_
_geom_bond_atom_site_label_1
_geom_bond_atom_site_label_2
_geom_bond_site_symmetry_1
_geom_bond_site_symmetry_2
N1 C2 1_555 1_555
N2 C1 1_555 1_555
C1 C2 1_555 1_555
C3 N1 1_555 1_555
C4 N2 1_555 1_555
C5 C1 1_555 1_555
C6 C5 1_555 1_555
C7 C6 1_555 1_555
C8 C7 1_555 1_555
C9 C8 1_555 1_555
C10 C5 1_555 1_555
C11 C4 1_555 1_555
C12 C11 1_555 1_555
C13 C12 1_555 1_555
C14 C13 1_555 1_555
C15 C14 1_555 1_555
C16 C11 1_555 1_555
C3 C4 1_555 1_555
C9 C10 1_555 1_555
C15 C16 1_555 1_555

#END
