
#######################################################################
#
#                 Cambridge Crystallographic Data Centre
#                                CCDC 
#
#######################################################################
#
# If this CIF has been generated from an entry in the Cambridge 
# Structural Database, then it will include bibliographic, chemical, 
# crystal, experimental, refinement or atomic coordinate data resulting 
# from the CCDC's data processing and validation procedures.
#
#######################################################################

data_CIKREU
_chemical_formula_moiety         'C18 H24 N2 O6'
_chemical_name_systematic        
"Diethyl anti-1,1'-ethane-1,2-diylbis(2-methyl-5-oxo-4,5-dihydro-1H-pyrrole-3-carboxylate)"
_symmetry_cell_setting           monoclinic
_symmetry_space_group_name_H-M   'P 21/n'
_symmetry_Int_Tables_number      14
_space_group_name_Hall           '-P 2yn'
loop_
_symmetry_equiv_pos_site_id
_symmetry_equiv_pos_as_xyz
1 x,y,z
2 1/2-x,1/2+y,1/2-z
3 -x,-y,-z
4 1/2+x,1/2-y,1/2+z
_cell_length_a                   4.5403(10)
_cell_length_b                   12.418(3)
_cell_length_c                   16.439(4)
_cell_angle_alpha                90
_cell_angle_beta                 91.812(3)
_cell_angle_gamma                90
_cell_volume                     926.391
_exptl_crystal_colour            colorless
_exptl_crystal_description       block
_cell_formula_units_Z            2
loop_
_atom_site_label
_atom_site_type_symbol
_atom_site_fract_x
_atom_site_fract_y
_atom_site_fract_z
O1 O 1.1869(4) 0.81344(14) 0.73896(11)
O2 O 1.1711(4) 0.64213(13) 0.78091(9)
O3 O 0.3884(4) 0.74182(16) 0.49802(11)
N1 N 0.5743(4) 0.60518(15) 0.57889(11)
C1 C 1.0922(5) 0.72278(18) 0.73102(13)
C2 C 0.8829(5) 0.69234(17) 0.66586(12)
C3 C 0.7712(4) 0.59462(17) 0.64654(12)
C4 C 0.4149(5) 0.5203(2) 0.53604(14)
H1 H 0.2245 0.5473 0.5169
H2 H 0.3813 0.4611 0.5731
C5 C 1.3733(6) 0.6677(2) 0.84821(14)
H3 H 1.2941 0.7254 0.8808
H4 H 1.5615 0.6908 0.8280
C6 C 1.4108(8) 0.5687(3) 0.89787(18)
H5 H 1.2285 0.5517 0.9230
H6 H 1.5615 0.5803 0.9392
H7 H 1.4668 0.5101 0.8636
C7 C 0.8173(6) 0.48586(17) 0.68252(15)
H8 H 0.9800 0.4881 0.7212
H9 H 0.8593 0.4354 0.6402
H10 H 0.6425 0.4639 0.7094
C8 C 0.7540(5) 0.77494(18) 0.60915(14)
H11 H 0.9063 0.8096 0.5784
H12 H 0.6477 0.8294 0.6387
C9 C 0.5496(5) 0.7116(2) 0.55439(14)
O1B O -0.1869(4) 0.18656(14) 0.26104(11)
O2B O -0.1711(4) 0.35787(13) 0.21909(9)
O3B O 0.6116(4) 0.25818(16) 0.50198(11)
N1B N 0.4257(4) 0.39482(15) 0.42111(11)
C1B C -0.0922(5) 0.27722(18) 0.26898(13)
C2B C 0.1171(5) 0.30766(17) 0.33414(12)
C3B C 0.2288(4) 0.40538(17) 0.35346(12)
C4B C 0.5851(5) 0.4797(2) 0.46396(14)
H1B H 0.7755 0.4527 0.4831
H2B H 0.6187 0.5389 0.4269
C5B C -0.3733(6) 0.3323(2) 0.15179(14)
H3B H -0.2941 0.2746 0.1192
H4B H -0.5615 0.3092 0.1720
C6B C -0.4108(8) 0.4313(3) 0.10213(18)
H5B H -0.2285 0.4483 0.0770
H6B H -0.5615 0.4197 0.0608
H7B H -0.4668 0.4899 0.1364
C7B C 0.1827(6) 0.51414(17) 0.31748(15)
H8B H 0.0200 0.5119 0.2788
H9B H 0.1407 0.5646 0.3598
H10B H 0.3575 0.5361 0.2906
C8B C 0.2460(5) 0.22506(18) 0.39085(14)
H11B H 0.0937 0.1904 0.4216
H12B H 0.3523 0.1706 0.3613
C9B C 0.4504(5) 0.2884(2) 0.44561(14)
loop_
_geom_bond_atom_site_label_1
_geom_bond_atom_site_label_2
_geom_bond_site_symmetry_1
_geom_bond_site_symmetry_2
O1 C1 1_555 1_555
O2 C1 1_555 1_555
O3 C9 1_555 1_555
N1 C3 1_555 1_555
C1 C2 1_555 1_555
C2 C3 1_555 1_555
C3 C7 1_555 1_555
C4 N1 1_555 1_555
H1 C4 1_555 1_555
H2 C4 1_555 1_555
C5 O2 1_555 1_555
H3 C5 1_555 1_555
H4 C5 1_555 1_555
C6 C5 1_555 1_555
H5 C6 1_555 1_555
H6 C6 1_555 1_555
H7 C6 1_555 1_555
C7 H8 1_555 1_555
H9 C7 1_555 1_555
H10 C7 1_555 1_555
C8 C2 1_555 1_555
H11 C8 1_555 1_555
H12 C8 1_555 1_555
C9 N1 1_555 1_555
O1B C1B 1_555 1_555
O2B C1B 1_555 1_555
O3B C9B 1_555 1_555
N1B C3B 1_555 1_555
C1B C2B 1_555 1_555
C2B C3B 1_555 1_555
C3B C7B 1_555 1_555
C4B C4 1_555 1_555
H1B C4B 1_555 1_555
H2B C4B 1_555 1_555
C5B O2B 1_555 1_555
H3B C5B 1_555 1_555
H4B C5B 1_555 1_555
C6B C5B 1_555 1_555
H5B C6B 1_555 1_555
H6B C6B 1_555 1_555
H7B C6B 1_555 1_555
C7B H8B 1_555 1_555
H9B C7B 1_555 1_555
H10B C7B 1_555 1_555
C8B C2B 1_555 1_555
H11B C8B 1_555 1_555
H12B C8B 1_555 1_555
C9B N1B 1_555 1_555
C8 C9 1_555 1_555
N1B C4B 1_555 1_555
C8B C9B 1_555 1_555

#END
