
#######################################################################
#
#                 Cambridge Crystallographic Data Centre
#                                CCDC 
#
#######################################################################
#
# If this CIF has been generated from an entry in the Cambridge 
# Structural Database, then it will include bibliographic, chemical, 
# crystal, experimental, refinement or atomic coordinate data resulting 
# from the CCDC's data processing and validation procedures.
#
#######################################################################

data_CIKSIY
_chemical_formula_moiety         'C18 H18 Cl3 N1 O5 S1'
_chemical_name_systematic        
3S,8aS-2,2-Dimethyl-6-(p-methoxyphenyl)-3-(2,2,2-trichloroethoxy-carbonyl)-2,3-dihydrothiazolo(2,3-b)(1,3)oxazin-5-one
_symmetry_cell_setting           orthorhombic
_symmetry_space_group_name_H-M   'P 21 21 21'
_symmetry_Int_Tables_number      19
_space_group_name_Hall           'P 2ac 2ab'
loop_
_symmetry_equiv_pos_site_id
_symmetry_equiv_pos_as_xyz
1 x,y,z
2 1/2+x,1/2-y,-z
3 -x,1/2+y,1/2-z
4 1/2-x,-y,1/2+z
_cell_length_a                   6.502(1)
_cell_length_b                   17.838(2)
_cell_length_c                   18.036(2)
_cell_angle_alpha                90
_cell_angle_beta                 90
_cell_angle_gamma                90
_cell_volume                     2091.86
_chemical_melting_point          140-141deg.C
_cell_formula_units_Z            4
loop_
_atom_site_label
_atom_site_type_symbol
_atom_site_fract_x
_atom_site_fract_y
_atom_site_fract_z
S1 S -0.0602 0.6752 0.8384
C1 C 0.2159 0.6886 0.8594
C2 C 0.2977 0.6078 0.8677
N1 N 0.1341 0.5656 0.9026
C3 C -0.0732 0.5853 0.8829
O1 O -0.1986 0.5867 0.9481
C4 C -0.1820 0.5205 0.9851
C5 C -0.0178 0.4761 0.9833
C6 C 0.1702 0.5051 0.9469
O2 O 0.3444 0.4827 0.9575
C7 C -0.0091 0.4042 1.0246
C8 C -0.1369 0.3893 1.0845
C9 C -0.1295 0.3220 1.1217
C10 C 0.0075 0.2671 1.1001
C11 C 0.1336 0.2801 1.0412
C12 C 0.1241 0.3471 1.0040
O3 O 0.0021 0.2022 1.1406
C13 C 0.1477 0.1465 1.1224
C14 C 0.3660 0.5716 0.7959
O4 O 0.5412 0.5679 0.7755
O5 O 0.2068 0.5460 0.7560
C15 C 0.2506 0.5084 0.6876
C16 C 0.1382 0.4346 0.6876
C17 C 0.2423 0.7292 0.9326
C18 C 0.3154 0.7309 0.7954
Cl1 Cl -0.1289 0.4490 0.6971
Cl2 Cl 0.2247 0.3771 0.7590
Cl3 Cl 0.1869 0.3911 0.6021
loop_
_geom_bond_atom_site_label_1
_geom_bond_atom_site_label_2
_geom_bond_site_symmetry_1
_geom_bond_site_symmetry_2
S1 C1 1_555 1_555
C1 C2 1_555 1_555
C2 N1 1_555 1_555
N1 C3 1_555 1_555
C3 S1 1_555 1_555
O1 C3 1_555 1_555
C4 O1 1_555 1_555
C5 C4 1_555 1_555
C6 N1 1_555 1_555
O2 C6 1_555 1_555
C7 C5 1_555 1_555
C8 C7 1_555 1_555
C9 C8 1_555 1_555
C10 C9 1_555 1_555
C11 C10 1_555 1_555
C12 C7 1_555 1_555
O3 C10 1_555 1_555
C13 O3 1_555 1_555
C14 C2 1_555 1_555
O4 C14 1_555 1_555
O5 C14 1_555 1_555
C15 O5 1_555 1_555
C16 C15 1_555 1_555
C17 C1 1_555 1_555
C18 C1 1_555 1_555
Cl1 C16 1_555 1_555
Cl2 C16 1_555 1_555
Cl3 C16 1_555 1_555
C5 C6 1_555 1_555
C11 C12 1_555 1_555

#END
