
#######################################################################
#
#                 Cambridge Crystallographic Data Centre
#                                CCDC 
#
#######################################################################
#
# If this CIF has been generated from an entry in the Cambridge 
# Structural Database, then it will include bibliographic, chemical, 
# crystal, experimental, refinement or atomic coordinate data resulting 
# from the CCDC's data processing and validation procedures.
#
#######################################################################

data_CILCUY
_chemical_formula_moiety         'C12 H24 O6,C6 H6 F2 N1 1+,Cl1 O4 1-'
_chemical_name_systematic        '3,4-difluoroanilinium perchlorate 18-crown-6'
_symmetry_cell_setting           orthorhombic
_symmetry_space_group_name_H-M   'P c a 21'
_symmetry_Int_Tables_number      29
_space_group_name_Hall           'P 2c -2ac'
loop_
_symmetry_equiv_pos_site_id
_symmetry_equiv_pos_as_xyz
1 x,y,z
2 -x,-y,1/2+z
3 1/2+x,-y,z
4 1/2-x,y,1/2+z
_cell_length_a                   14.5486(9)
_cell_length_b                   11.2914(7)
_cell_length_c                   14.5674(8)
_cell_angle_alpha                90
_cell_angle_beta                 90
_cell_angle_gamma                90
_cell_volume                     2393.05
_exptl_crystal_colour            colorless
_exptl_crystal_description       block
_cell_formula_units_Z            4
loop_
_atom_site_label
_atom_site_type_symbol
_atom_site_fract_x
_atom_site_fract_y
_atom_site_fract_z
Cl1 Cl 0.78526(5) 0.74897(8) 0.11167(8)
O1 O 0.6915(2) 0.7540(3) 0.0906(3)
O2 O 0.8111(5) 0.8225(9) 0.1858(8)
O3 O 0.8332(5) 0.7807(12) 0.0352(6)
O4 O 0.8095(5) 0.6350(5) 0.1358(7)
C1 C 0.9329(3) 0.3397(4) 0.4811(3)
H1 H 0.9009 0.3305 0.5385
H2 H 0.9868 0.3867 0.4922
C2 C 0.9011(3) 0.0307(4) 0.4216(3)
H3 H 0.9415 -0.0009 0.4677
H4 H 0.9319 0.0259 0.3633
C3 C 0.8167(3) -0.0401(4) 0.4180(3)
H5 H 0.8318 -0.1219 0.4078
H6 H 0.7848 -0.0341 0.4756
C4 C 0.6254(3) -0.0179(4) 0.2567(3)
H7 H 0.6629 -0.0183 0.2023
H8 H 0.5725 -0.0666 0.2455
C5 C 0.9600(3) 0.2235(4) 0.4453(3)
H9 H 0.9866 0.2314 0.3851
H10 H 1.0049 0.1884 0.4853
C6 C 0.6780(3) -0.0652(4) 0.3351(3)
H11 H 0.6417 -0.0607 0.3902
H12 H 0.6930 -0.1470 0.3243
O8 O 0.76048(18) 0.0027(2) 0.34649(18)
O9 O 0.88149(17) 0.1513(2) 0.44160(18)
O10 O 0.87453(17) 0.3992(2) 0.41692(16)
C7 C 0.8352(3) 0.5043(4) 0.4530(3)
H13 H 0.8830 0.5578 0.4720
H14 H 0.7986 0.4853 0.5060
C8 C 0.7786(3) 0.5620(3) 0.3824(3)
H15 H 0.7556 0.6361 0.4055
H16 H 0.8146 0.5780 0.3284
O11 O 0.70303(18) 0.4855(2) 0.35965(19)
C9 C 0.5609(3) 0.4591(4) 0.2871(4)
H17 H 0.5319 0.4450 0.3454
H18 H 0.5168 0.4966 0.2474
O12 O 0.58969(17) 0.3476(3) 0.24831(18)
C10 C 0.5145(3) 0.2704(4) 0.2359(4)
H19 H 0.4727 0.3028 0.1915
H20 H 0.4823 0.2617 0.2932
O13 O 0.59836(18) 0.0988(3) 0.27666(17)
C11 C 0.5471(3) 0.1534(4) 0.2041(3)
H21 H 0.4958 0.1045 0.1872
H22 H 0.5858 0.1629 0.1511
C12 C 0.6398(3) 0.5368(4) 0.2984(4)
H23 H 0.6688 0.5510 0.2401
H24 H 0.6198 0.6117 0.3227
N1 N 0.23851(16) 0.75071(18) 0.80033(17)
H25 H 0.2041 0.7211 0.8446
H26 H 0.2533 0.8244 0.8138
H27 H 0.2889 0.7080 0.7947
F1 F 0.0421(3) 0.7387(3) 0.4748(2)
C13 C 0.0914(3) 0.7404(5) 0.5541(3)
C14 C 0.1112(4) 0.8451(5) 0.5929(3)
C15 C 0.1187(4) 0.6374(5) 0.5939(3)
C16 C 0.18704(19) 0.7486(3) 0.71458(19)
C17 C 0.1668(3) 0.6413(3) 0.6750(3)
H28 H 0.1850 0.5725 0.7038
C18 C 0.1600(3) 0.8509(3) 0.6741(2)
H29 H 0.1734 0.9233 0.7001
F2 F 0.0741(4) 0.9352(4) 0.5561(3)
O5? O 0.8239(7) 0.8576(7) 0.1051(12)
O6? O 0.8373(7) 0.6755(13) 0.0566(13)
O7? O 0.7954(9) 0.709(2) 0.1976(8)
F3? F 0.0619(8) 0.5614(7) 0.5656(7)
loop_
_geom_bond_atom_site_label_1
_geom_bond_atom_site_label_2
_geom_bond_site_symmetry_1
_geom_bond_site_symmetry_2
Cl1 O1 1_555 1_555
O2 Cl1 1_555 1_555
O3 Cl1 1_555 1_555
O4 Cl1 1_555 1_555
C1 H1 1_555 1_555
H2 C1 1_555 1_555
C2 H3 1_555 1_555
H4 C2 1_555 1_555
C3 C2 1_555 1_555
H5 C3 1_555 1_555
H6 C3 1_555 1_555
C4 H7 1_555 1_555
H8 C4 1_555 1_555
C5 C1 1_555 1_555
H9 C5 1_555 1_555
H10 C5 1_555 1_555
C6 C4 1_555 1_555
H11 C6 1_555 1_555
H12 C6 1_555 1_555
O8 C3 1_555 1_555
O9 C2 1_555 1_555
O10 C1 1_555 1_555
C7 O10 1_555 1_555
H13 C7 1_555 1_555
H14 C7 1_555 1_555
C8 C7 1_555 1_555
H15 C8 1_555 1_555
H16 C8 1_555 1_555
O11 C8 1_555 1_555
C9 H17 1_555 1_555
H18 C9 1_555 1_555
O12 C9 1_555 1_555
C10 O12 1_555 1_555
H19 C10 1_555 1_555
H20 C10 1_555 1_555
O13 C4 1_555 1_555
C11 C10 1_555 1_555
H21 C11 1_555 1_555
H22 C11 1_555 1_555
C12 O11 1_555 1_555
H23 C12 1_555 1_555
H24 C12 1_555 1_555
N1 H25 1_555 1_555
H26 N1 1_555 1_555
H27 N1 1_555 1_555
F1 C13 1_555 1_555
C13 C14 1_555 1_555
C14 C18 1_555 1_555
C15 C13 1_555 1_555
C16 N1 1_555 1_555
C17 C15 1_555 1_555
H28 C17 1_555 1_555
C18 C16 1_555 1_555
H29 C18 1_555 1_555
F2 C14 1_555 1_555
C5 O9 1_555 1_555
C6 O8 1_555 1_555
C9 C12 1_555 1_555
O13 C11 1_555 1_555
C16 C17 1_555 1_555

#END
