
#######################################################################
#
#                 Cambridge Crystallographic Data Centre
#                                CCDC 
#
#######################################################################
#
# If this CIF has been generated from an entry in the Cambridge 
# Structural Database, then it will include bibliographic, chemical, 
# crystal, experimental, refinement or atomic coordinate data resulting 
# from the CCDC's data processing and validation procedures.
#
#######################################################################

data_CILHIO07
_chemical_formula_moiety         'C10 H8 S8 1+,C10 H8 S8,I3 1-'
_chemical_name_systematic        
'bis(bis(Ethylenedithio)-tetrathiafulvalene) tri-iodide'
_symmetry_cell_setting           triclinic
_symmetry_space_group_name_H-M   'P -1'
_symmetry_Int_Tables_number      2
_space_group_name_Hall           '-P 1'
loop_
_symmetry_equiv_pos_site_id
_symmetry_equiv_pos_as_xyz
1 x,y,z
2 -x,-y,-z
_cell_length_a                   6.449(3)
_cell_length_b                   8.986(4)
_cell_length_c                   15.034(12)
_cell_angle_alpha                94.79(4)
_cell_angle_beta                 96.57(3)
_cell_angle_gamma                111.29(3)
_cell_volume                     799.05
_cell_formula_units_Z            1
loop_
_atom_site_label
_atom_site_type_symbol
_atom_site_fract_x
_atom_site_fract_y
_atom_site_fract_z
I1 I 0.0000 0.0000 0.0000
I2 I 0.4283(7) 0.2466(5) -0.0197(5)
I2A I -0.4283(7) -0.2466(5) 0.0197(5)
S1 S 0.467(1) -0.2588(8) 0.4488(10)
S2 S 0.095(1) -0.1443(9) 0.432(1)
S3 S 0.284(1) -0.4348(9) 0.621(1)
S4 S -0.090(1) -0.3191(8) 0.5999(10)
S5 S 0.632(1) -0.1441(8) 0.2811(10)
S6 S 0.201(1) 0.0088(9) 0.2690(10)
S7 S 0.204(1) -0.5469(9) 0.7980(10)
S8 S -0.239(1) -0.3993(9) 0.774(1)
C1 C 0.2278(9) -0.2574(8) 0.4857(8)
C2 C 0.1490(6) -0.3297(4) 0.5597(4)
C3 C 0.4348(6) -0.1612(4) 0.3547(4)
C4 C 0.2662(6) -0.1048(4) 0.3480(4)
C5 C 0.1180(6) -0.4580(4) 0.7082(4)
C6 C -0.0512(6) -0.4024(4) 0.6988(4)
C7 C 0.6390(6) 0.0436(4) 0.2432(5)
C8 C 0.4121(6) 0.0317(4) 0.1947(5)
C9 C -0.0366(6) -0.5890(4) 0.8568(5)
C10 C -0.1007(6) -0.4433(4) 0.8741(5)
H1 H 0.756(1) 0.0633(9) 0.1923(10)
H2 H 0.704(1) 0.135(1) 0.296(1)
H3 H 0.432(1) 0.1487(10) 0.172(1)
H4 H 0.351(2) -0.001(1) 0.141(1)
H5 H -0.180(1) -0.6918(10) 0.819(1)
H6 H 0.019(1) -0.625(1) 0.919(1)
H7 H -0.227(1) -0.4669(9) 0.9199(10)
H8 H 0.044(1) -0.3369(9) 0.904(1)
loop_
_geom_bond_atom_site_label_1
_geom_bond_atom_site_label_2
_geom_bond_site_symmetry_1
_geom_bond_site_symmetry_2
S1 C1 1_555 1_555
S2 C1 1_555 1_555
S3 C2 1_555 1_555
S4 C2 1_555 1_555
S5 C3 1_555 1_555
S6 C4 1_555 1_555
S7 C5 1_555 1_555
S8 C6 1_555 1_555
C1 C2 1_555 1_555
C3 S1 1_555 1_555
C4 S2 1_555 1_555
C5 S3 1_555 1_555
C6 S4 1_555 1_555
C7 S5 1_555 1_555
C8 S6 1_555 1_555
C9 S7 1_555 1_555
C10 S8 1_555 1_555
H1 C7 1_555 1_555
H2 C7 1_555 1_555
H3 C8 1_555 1_555
H4 C8 1_555 1_555
H5 C9 1_555 1_555
H6 C9 1_555 1_555
H7 C10 1_555 1_555
H8 C10 1_555 1_555
I1 I2 1_555 1_555
I2A I1 1_555 1_555
C3 C4 1_555 1_555
C5 C6 1_555 1_555
C7 C8 1_555 1_555
C9 C10 1_555 1_555

#END
