
#######################################################################
#
#                 Cambridge Crystallographic Data Centre
#                                CCDC 
#
#######################################################################
#
# If this CIF has been generated from an entry in the Cambridge 
# Structural Database, then it will include bibliographic, chemical, 
# crystal, experimental, refinement or atomic coordinate data resulting 
# from the CCDC's data processing and validation procedures.
#
#######################################################################

data_CIMBIM
_chemical_formula_moiety         'C21 H12 N3 O4 P1'
_chemical_name_systematic        'phosphoryltris(3,1-phenylene) tricyanate'
_symmetry_cell_setting           triclinic
_symmetry_space_group_name_H-M   'P -1'
_symmetry_Int_Tables_number      2
_space_group_name_Hall           '-P 1'
loop_
_symmetry_equiv_pos_site_id
_symmetry_equiv_pos_as_xyz
1 x,y,z
2 -x,-y,-z
_cell_length_a                   8.7406(2)
_cell_length_b                   11.0922(3)
_cell_length_c                   11.2562(2)
_cell_angle_alpha                66.3780(11)
_cell_angle_beta                 70.3994(13)
_cell_angle_gamma                86.8582(13)
_cell_volume                     937.92
_exptl_crystal_colour            colorless
_exptl_crystal_description       plate
_cell_formula_units_Z            2
_exptl_crystal_recrystallization_method acetone
loop_
_atom_site_label
_atom_site_type_symbol
_atom_site_fract_x
_atom_site_fract_y
_atom_site_fract_z
P1 P 0.57605(5) 0.75355(4) 0.10606(4)
O1 O 0.25367(15) 0.31636(12) 0.22318(13)
O2 O 1.06259(15) 0.72848(13) 0.28333(13)
O3 O 0.27521(19) 1.01933(13) 0.37784(14)
O4 O 0.52237(14) 0.84056(11) -0.00982(12)
N1 N 0.0174(2) 0.44105(17) 0.20612(17)
N2 N 0.8675(2) 0.61652(18) 0.51707(17)
N3 N 0.1074(3) 1.0455(2) 0.5882(2)
C1 C 0.5642(2) 0.58080(16) 0.13596(16)
C2 C 0.4112(2) 0.51839(16) 0.16989(16)
H1 H 0.316034 0.564461 0.179378
C3 C 0.4035(2) 0.38810(17) 0.18899(16)
C4 C 0.5378(2) 0.31606(17) 0.17688(17)
H2 H 0.527302 0.225998 0.191348
C5 C 0.6879(2) 0.37950(17) 0.14302(18)
H3 H 0.782362 0.332564 0.133785
C6 C 0.7019(2) 0.51125(17) 0.12233(17)
H4 H 0.805747 0.553880 0.098841
C7 C 0.1297(2) 0.38445(18) 0.21491(17)
C8 C 0.7853(2) 0.79349(16) 0.08157(18)
C9 C 0.8374(2) 0.75033(16) 0.19598(18)
H5 H 0.762176 0.707256 0.287167
C10 C 1.0000(2) 0.77217(17) 0.17228(19)
C11 C 1.1145(2) 0.83594(17) 0.04251(19)
H6 H 1.226197 0.849089 0.030141
C12 C 1.0603(2) 0.88028(17) -0.06955(19)
H7 H 1.135998 0.925648 -0.160089
C13 C 0.8971(2) 0.85915(17) -0.05093(18)
H8 H 0.861812 0.889431 -0.128406
C14 C 0.9573(2) 0.66928(19) 0.40713(19)
C15 C 0.4545(2) 0.75987(16) 0.26858(17)
C16 C 0.4091(2) 0.88342(17) 0.26526(18)
H9 H 0.440793 0.960303 0.181220
C17 C 0.3166(2) 0.88988(17) 0.38857(19)
C18 C 0.2654(2) 0.78118(18) 0.51320(19)
H10 H 0.201475 0.789692 0.595842
C19 C 0.3105(2) 0.65913(18) 0.51389(18)
H11 H 0.276245 0.582523 0.598130
C20 C 0.4048(2) 0.64764(17) 0.39299(18)
H12 H 0.435712 0.563645 0.394730
C21 C 0.1863(3) 1.0307(2) 0.4909(2)
loop_
_geom_bond_atom_site_label_1
_geom_bond_atom_site_label_2
_geom_bond_site_symmetry_1
_geom_bond_site_symmetry_2
P1 O4 1_555 1_555
O1 C3 1_555 1_555
O2 C10 1_555 1_555
O3 C17 1_555 1_555
N1 C7 1_555 1_555
N2 C14 1_555 1_555
N3 C21 1_555 1_555
C1 P1 1_555 1_555
C2 C1 1_555 1_555
H1 C2 1_555 1_555
C3 C2 1_555 1_555
C4 C3 1_555 1_555
H2 C4 1_555 1_555
C5 C4 1_555 1_555
H3 C5 1_555 1_555
C6 C1 1_555 1_555
H4 C6 1_555 1_555
C7 O1 1_555 1_555
C8 P1 1_555 1_555
C9 C8 1_555 1_555
H5 C9 1_555 1_555
C10 C9 1_555 1_555
C11 C10 1_555 1_555
H6 C11 1_555 1_555
C12 C11 1_555 1_555
H7 C12 1_555 1_555
C13 C8 1_555 1_555
H8 C13 1_555 1_555
C14 O2 1_555 1_555
C15 P1 1_555 1_555
C16 C15 1_555 1_555
H9 C16 1_555 1_555
C17 C16 1_555 1_555
C18 C17 1_555 1_555
H10 C18 1_555 1_555
C19 C18 1_555 1_555
H11 C19 1_555 1_555
C20 C15 1_555 1_555
H12 C20 1_555 1_555
C21 O3 1_555 1_555
C5 C6 1_555 1_555
C12 C13 1_555 1_555
C19 C20 1_555 1_555

#END
