
#######################################################################
#
#                 Cambridge Crystallographic Data Centre
#                                CCDC 
#
#######################################################################
#
# If this CIF has been generated from an entry in the Cambridge 
# Structural Database, then it will include bibliographic, chemical, 
# crystal, experimental, refinement or atomic coordinate data resulting 
# from the CCDC's data processing and validation procedures.
#
#######################################################################

data_CIMVUR
_chemical_formula_moiety         'C16 H21 Br1 O4'
_chemical_name_systematic        
2-(Bromomethyl)-2-((1-(3,4-dimethoxyphenyl)prop-2-en-1-yl)oxy)tetrahydrofuran
_symmetry_cell_setting           monoclinic
_symmetry_space_group_name_H-M   'P 21/n'
_symmetry_Int_Tables_number      14
_space_group_name_Hall           '-P 2yn'
loop_
_symmetry_equiv_pos_site_id
_symmetry_equiv_pos_as_xyz
1 x,y,z
2 1/2-x,1/2+y,1/2-z
3 -x,-y,-z
4 1/2+x,1/2-y,1/2+z
_cell_length_a                   8.3184(19)
_cell_length_b                   10.279(2)
_cell_length_c                   19.396(4)
_cell_angle_alpha                90
_cell_angle_beta                 99.917(2)
_cell_angle_gamma                90
_cell_volume                     1633.67
_exptl_crystal_colour            colorless
_exptl_crystal_description       block
_cell_formula_units_Z            4
loop_
_atom_site_label
_atom_site_type_symbol
_atom_site_fract_x
_atom_site_fract_y
_atom_site_fract_z
Br1 Br -0.37457(6) 0.37505(5) 0.05621(3)
O1 O -0.0938(3) 0.1544(2) 0.07749(12)
O2 O -0.1779(3) 0.0702(3) 0.17737(13)
O3 O 0.4743(3) -0.2355(2) 0.20562(13)
O4 O 0.4969(3) -0.0287(3) 0.28063(14)
C1 C 0.3718(4) -0.1369(3) 0.17921(19)
C2 C 0.3831(4) -0.0248(3) 0.22074(18)
C3 C -0.2900(5) 0.2674(4) 0.1363(2)
H1 H -0.2030 0.3136 0.1661
H2 H -0.3761 0.2511 0.1631
C4 C 0.1636(4) -0.0324(4) 0.0972(2)
H3 H 0.0917 -0.0346 0.0548
C5 C 0.2816(4) 0.0790(4) 0.20013(19)
H4 H 0.2887 0.1530 0.2281
C6 C 0.2636(4) -0.1390(4) 0.11724(19)
H5 H 0.2572 -0.2119 0.0886
C7 C 0.1690(4) 0.0754(4) 0.13847(19)
C8 C -0.2249(4) 0.1380(3) 0.11446(19)
C9 C 0.1419(5) 0.2893(4) 0.0783(3)
H6 H 0.2476 0.3127 0.0984
C10 C 0.0598(4) 0.1922(3) 0.1189(2)
H7 H 0.0387 0.2338 0.1619
C11 C 0.4708(5) -0.3516(4) 0.1653(2)
H8 H 0.3630 -0.3881 0.1585
H9 H 0.5472 -0.4131 0.1895
H10 H 0.4997 -0.3318 0.1206
C12 C -0.3486(5) 0.0527(4) 0.0696(2)
H11 H -0.3534 0.0708 0.0202
H12 H -0.4565 0.0632 0.0814
C13 C -0.2803(6) -0.0820(4) 0.0887(3)
H13 H -0.3668 -0.1463 0.0843
H14 H -0.2025 -0.1072 0.0592
C14 C -0.1979(5) -0.0674(4) 0.1640(3)
H15 H -0.2645 -0.1058 0.1951
H16 H -0.0926 -0.1105 0.1715
C15 C 0.5346(6) 0.0878(5) 0.3184(2)
H17 H 0.5636 0.1536 0.2877
H18 H 0.6245 0.0731 0.3558
H19 H 0.4412 0.1159 0.3375
C16 C 0.0878(8) 0.3421(6) 0.0217(4)
H20 H -0.0171 0.3229 -0.0013
H21 H 0.1521 0.4009 0.0021
loop_
_geom_bond_atom_site_label_1
_geom_bond_atom_site_label_2
_geom_bond_site_symmetry_1
_geom_bond_site_symmetry_2
Br1 C3 1_555 1_555
O1 C8 1_555 1_555
O2 C8 1_555 1_555
O3 C1 1_555 1_555
O4 C2 1_555 1_555
C1 C2 1_555 1_555
C2 C5 1_555 1_555
C3 H1 1_555 1_555
H2 C3 1_555 1_555
C4 H3 1_555 1_555
C5 H4 1_555 1_555
C6 C1 1_555 1_555
H5 C6 1_555 1_555
C7 C4 1_555 1_555
C8 C3 1_555 1_555
C9 H6 1_555 1_555
C10 O1 1_555 1_555
H7 C10 1_555 1_555
C11 O3 1_555 1_555
H8 C11 1_555 1_555
H9 C11 1_555 1_555
H10 C11 1_555 1_555
C12 C8 1_555 1_555
H11 C12 1_555 1_555
H12 C12 1_555 1_555
C13 C12 1_555 1_555
H13 C13 1_555 1_555
H14 C13 1_555 1_555
C14 O2 1_555 1_555
H15 C14 1_555 1_555
H16 C14 1_555 1_555
C15 O4 1_555 1_555
H17 C15 1_555 1_555
H18 C15 1_555 1_555
H19 C15 1_555 1_555
C16 C9 1_555 1_555
H20 C16 1_555 1_555
H21 C16 1_555 1_555
C4 C6 1_555 1_555
C5 C7 1_555 1_555
C7 C10 1_555 1_555
C9 C10 1_555 1_555
C13 C14 1_555 1_555

#END
