
#######################################################################
#
#                 Cambridge Crystallographic Data Centre
#                                CCDC 
#
#######################################################################
#
# If this CIF has been generated from an entry in the Cambridge 
# Structural Database, then it will include bibliographic, chemical, 
# crystal, experimental, refinement or atomic coordinate data resulting 
# from the CCDC's data processing and validation procedures.
#
#######################################################################

data_CINKOC
_chemical_formula_moiety         'C29 H16 O1'
_chemical_name_systematic        2,7-bis(phenylethynyl)-9H-fluoren-9-one
_symmetry_cell_setting           orthorhombic
_symmetry_space_group_name_H-M   'P c a 21'
_symmetry_Int_Tables_number      29
_space_group_name_Hall           'P 2c -2ac'
loop_
_symmetry_equiv_pos_site_id
_symmetry_equiv_pos_as_xyz
1 x,y,z
2 -x,-y,1/2+z
3 1/2+x,-y,z
4 1/2-x,y,1/2+z
_cell_length_a                   12.3209(14)
_cell_length_b                   10.7613(13)
_cell_length_c                   29.421(3)
_cell_angle_alpha                90
_cell_angle_beta                 90
_cell_angle_gamma                90
_cell_volume                     3900.9
_exptl_crystal_colour            yellow
_exptl_crystal_description       needle
_cell_formula_units_Z            8
loop_
_atom_site_label
_atom_site_type_symbol
_atom_site_fract_x
_atom_site_fract_y
_atom_site_fract_z
O1 O 0.5602(4) 0.2087(4) 0.38348(19)
C1 C 0.4977(7) 0.0056(6) 0.4094(3)
C2 C 0.6577(7) 0.0157(7) 0.3656(3)
C3 C 0.6357(6) -0.1071(6) 0.3769(2)
C4 C 0.0850(6) -0.0424(7) 0.5354(3)
C5 C 0.2516(6) -0.0567(7) 0.4795(2)
C6 C 0.4024(7) 0.0278(8) 0.4339(3)
H1 H 0.375377 0.109849 0.437739
C7 C 0.1746(6) -0.0496(7) 0.5043(3)
C8 C 0.7972(6) -0.1665(7) 0.3376(2)
H2 H 0.847090 -0.228893 0.328435
C9 C 0.5363(6) -0.1129(6) 0.4031(2)
C10 C 0.3867(6) -0.1937(7) 0.4453(2)
H3 H 0.347080 -0.262224 0.457106
C11 C 0.0851(6) 0.0471(7) 0.5697(3)
H4 H 0.143872 0.103778 0.572241
C12 C 0.8171(8) -0.0436(8) 0.3257(3)
C13 C 0.9911(7) -0.0119(7) 0.2748(3)
C14 C -0.0012(6) -0.1269(7) 0.5324(3)
H5 H -0.000154 -0.189530 0.509647
C15 C 0.7493(6) 0.0500(7) 0.3398(3)
H6 H 0.763551 0.134477 0.332551
C16 C 0.5709(7) 0.0961(6) 0.3856(3)
C17 C 0.4825(6) -0.2151(7) 0.4208(2)
H7 H 0.509601 -0.296931 0.416443
C18 C 0.7074(6) -0.2004(7) 0.3624(2)
H8 H 0.694216 -0.285144 0.369563
C19 C 0.3487(6) -0.0730(7) 0.4526(2)
C20 C 1.2148(7) -0.1306(8) 0.2008(3)
H9 H 1.238594 -0.206727 0.187866
C21 C 1.1415(6) 0.0926(8) 0.2371(3)
H10 H 1.116636 0.169203 0.249348
C22 C 0.9126(8) -0.0182(8) 0.2981(3)
C23 C -0.0013(8) 0.0533(7) 0.6003(3)
H11 H -0.001760 0.115109 0.623366
C24 C 1.1215(7) -0.1292(8) 0.2282(3)
H12 H 1.082857 -0.203452 0.234691
C25 C 1.2715(8) -0.0247(9) 0.1925(3)
H13 H 1.335835 -0.027533 0.174737
C26 C 1.2349(6) 0.0882(8) 0.2100(3)
H14 H 1.273599 0.162487 0.203596
C27 C -0.0876(7) -0.1199(8) 0.5622(3)
H15 H -0.147548 -0.174903 0.559272
C28 C -0.0852(9) -0.0290(9) 0.5972(3)
H16 H -0.142669 -0.025580 0.618664
C29 C 1.0875(7) -0.0145(7) 0.2456(3)
O2 O 0.1975(4) 0.2891(4) 0.61822(19)
C30 C -0.1590(8) 0.4993(7) 0.7047(3)
C31 C -0.3316(8) 0.4679(9) 0.7555(3)
C32 C 0.2131(6) 0.6122(7) 0.6000(2)
C33 C 0.1848(6) 0.4010(7) 0.6155(3)
C34 C 0.4044(6) 0.5794(7) 0.5499(2)
C35 C 0.1141(6) 0.6026(7) 0.6270(2)
C36 C -0.4859(7) 0.5649(8) 0.7943(3)
H17 H -0.525821 0.637321 0.802225
C37 C 0.6668(7) 0.5446(8) 0.4671(3)
C38 C 0.0952(6) 0.4776(7) 0.6365(3)
C39 C 0.2672(6) 0.7156(7) 0.5825(2)
H18 H 0.239959 0.796920 0.587727
C40 C -0.0660(6) 0.5282(8) 0.6779(3)
C41 C 0.2588(8) 0.4943(6) 0.5923(3)
C42 C 0.0442(6) 0.6918(7) 0.6419(2)
H19 H 0.056565 0.776970 0.635244
C43 C 0.3504(7) 0.4769(7) 0.5680(3)
H20 H 0.377926 0.395446 0.563238
C44 C -0.5191(7) 0.4509(8) 0.8092(3)
H21 H -0.583469 0.443814 0.826767
C45 C -0.3937(7) 0.5743(8) 0.7675(3)
H22 H -0.371443 0.653800 0.757026
C46 C -0.2362(9) 0.4817(9) 0.7279(4)
C47 C 0.3621(6) 0.6979(7) 0.5571(2)
H23 H 0.398285 0.767862 0.544482
C48 C 0.4998(6) 0.5642(7) 0.5222(2)
C49 C 0.0084(6) 0.4404(7) 0.6617(2)
H24 H -0.001622 0.354743 0.668366
C50 C 0.5780(7) 0.5543(7) 0.4977(3)
C51 C -0.3674(7) 0.3544(8) 0.7726(3)
H25 H -0.326981 0.281426 0.766027
C52 C -0.4593(7) 0.3450(8) 0.7988(3)
H26 H -0.482015 0.266161 0.809771
C53 C 0.6670(8) 0.4560(7) 0.4325(3)
H27 H 0.607819 0.399894 0.429692
C54 C 0.7560(7) 0.6272(7) 0.4702(3)
H28 H 0.756838 0.689689 0.493030
C55 C 0.8410(8) 0.5257(8) 0.4072(3)
H29 H 0.901798 0.515527 0.387621
C56 C -0.0470(6) 0.6548(7) 0.6675(2)
H30 H -0.096573 0.716019 0.678011
C57 C 0.7524(7) 0.4493(8) 0.4026(3)
H31 H 0.750150 0.390951 0.378395
C58 C 0.8421(6) 0.6172(8) 0.4400(3)
H32 H 0.901580 0.673087 0.441940
loop_
_geom_bond_atom_site_label_1
_geom_bond_atom_site_label_2
_geom_bond_site_symmetry_1
_geom_bond_site_symmetry_2
O1 C16 1_555 1_555
C1 C6 1_555 1_555
C2 C3 1_555 1_555
C3 C9 1_555 1_555
C4 C7 1_555 1_555
C5 C7 1_555 1_555
C6 H1 1_555 1_555
C8 H2 1_555 1_555
C9 C1 1_555 1_555
C10 H3 1_555 1_555
C11 C4 1_555 1_555
H4 C11 1_555 1_555
C12 C8 1_555 1_555
C13 C22 1_555 1_555
C14 C4 1_555 1_555
H5 C14 1_555 1_555
C15 C2 1_555 1_555
H6 C15 1_555 1_555
C16 C1 1_555 1_555
C17 C9 1_555 1_555
H7 C17 1_555 1_555
C18 C3 1_555 1_555
H8 C18 1_555 1_555
C19 C5 1_555 1_555
C20 H9 1_555 1_555
C21 H10 1_555 1_555
C22 C12 1_555 1_555
C23 C11 1_555 1_555
H11 C23 1_555 1_555
C24 C20 1_555 1_555
H12 C24 1_555 1_555
C25 C20 1_555 1_555
H13 C25 1_555 1_555
C26 C21 1_555 1_555
H14 C26 1_555 1_555
C27 C14 1_555 1_555
H15 C27 1_555 1_555
C28 C23 1_555 1_555
H16 C28 1_555 1_555
C29 C13 1_555 1_555
O2 C33 1_555 1_555
C30 C40 1_555 1_555
C31 C45 1_555 1_555
C32 C35 1_555 1_555
C33 C38 1_555 1_555
C34 C43 1_555 1_555
C35 C38 1_555 1_555
C36 H17 1_555 1_555
C37 C50 1_555 1_555
C38 C49 1_555 1_555
C39 C32 1_555 1_555
H18 C39 1_555 1_555
C40 C49 1_555 1_555
C41 C32 1_555 1_555
C42 C35 1_555 1_555
H19 C42 1_555 1_555
C43 C41 1_555 1_555
H20 C43 1_555 1_555
C44 C36 1_555 1_555
H21 C44 1_555 1_555
C45 C36 1_555 1_555
H22 C45 1_555 1_555
C46 C30 1_555 1_555
C47 C34 1_555 1_555
H23 C47 1_555 1_555
C48 C34 1_555 1_555
C49 H24 1_555 1_555
C50 C48 1_555 1_555
C51 C31 1_555 1_555
H25 C51 1_555 1_555
C52 C44 1_555 1_555
H26 C52 1_555 1_555
C53 C37 1_555 1_555
H27 C53 1_555 1_555
C54 C37 1_555 1_555
H28 C54 1_555 1_555
C55 H29 1_555 1_555
C56 C40 1_555 1_555
H30 C56 1_555 1_555
C57 C53 1_555 1_555
H31 C57 1_555 1_555
C58 C54 1_555 1_555
H32 C58 1_555 1_555
C2 C16 1_555 1_555
C6 C19 1_555 1_555
C8 C18 1_555 1_555
C10 C17 1_555 1_555
C10 C19 1_555 1_555
C12 C15 1_555 1_555
C21 C29 1_555 1_555
C24 C29 1_555 1_555
C25 C26 1_555 1_555
C27 C28 1_555 1_555
C31 C46 1_555 1_555
C33 C41 1_555 1_555
C39 C47 1_555 1_555
C42 C56 1_555 1_555
C51 C52 1_555 1_555
C55 C57 1_555 1_555
C55 C58 1_555 1_555

#END
