
#######################################################################
#
#                 Cambridge Crystallographic Data Centre
#                                CCDC 
#
#######################################################################
#
# If this CIF has been generated from an entry in the Cambridge 
# Structural Database, then it will include bibliographic, chemical, 
# crystal, experimental, refinement or atomic coordinate data resulting 
# from the CCDC's data processing and validation procedures.
#
#######################################################################

data_CINNIW
_chemical_formula_moiety         'C14 H20 N1 S1 1+,Cl1 O4 1-'
_chemical_name_systematic        
'7-Benzyl-3-thia-7-azabicyclo(3.3.1)nonane hydroperchlorate'
_chemical_properties_biological  'antiarrhythmic activity'
_symmetry_cell_setting           orthorhombic
_symmetry_space_group_name_H-M   'P 21 21 21'
_symmetry_Int_Tables_number      19
_space_group_name_Hall           'P 2ac 2ab'
loop_
_symmetry_equiv_pos_site_id
_symmetry_equiv_pos_as_xyz
1 x,y,z
2 1/2+x,1/2-y,-z
3 -x,1/2+y,1/2-z
4 1/2-x,-y,1/2+z
_cell_length_a                   6.604(3)
_cell_length_b                   14.742(9)
_cell_length_c                   16.177(5)
_cell_angle_alpha                90
_cell_angle_beta                 90
_cell_angle_gamma                90
_cell_volume                     1574.93
_chemical_melting_point          155-6deg.C
_cell_formula_units_Z            4
loop_
_atom_site_label
_atom_site_type_symbol
_atom_site_fract_x
_atom_site_fract_y
_atom_site_fract_z
S1 S 0.7942(2) 0.3249(1) 0.8935(1)
N1 N 0.5126(6) 0.4439(2) 0.7917(2)
C1 C 0.5075(7) 0.4529(3) 0.9478(2)
C2 C 0.7122(7) 0.4130(3) 0.9661(3)
C3 C 0.5612(7) 0.2592(2) 0.8875(3)
C4 C 0.3725(6) 0.3152(3) 0.8766(2)
C5 C 0.3624(6) 0.3670(3) 0.7943(2)
C6 C 0.4951(8) 0.5062(2) 0.8659(2)
C7 C 0.3427(7) 0.3819(3) 0.9496(3)
C8 C 0.4957(8) 0.4982(2) 0.7121(2)
C9 C 0.5507(7) 0.4401(3) 0.6374(2)
C10 C 0.7404(8) 0.4049(3) 0.6291(3)
C11 C 0.7872(10) 0.3532(3) 0.5585(4)
C12 C 0.6461(11) 0.3391(4) 0.4980(3)
C13 C 0.4570(11) 0.3738(4) 0.5066(3)
C14 C 0.4072(10) 0.4245(3) 0.5768(3)
H1 H 0.5001 0.4998 0.9917
H2 H 0.2567 0.2733 0.8844
H3 H 0.7045 0.3785 1.0239
H4 H 0.8042 0.4684 0.9621
H5 H 0.5595 0.2209 0.9356
H6 H 0.5967 0.2184 0.8373
H7 H 0.2207 0.3887 0.7923
H8 H 0.4007 0.3232 0.7412
H9 H 0.3578 0.5343 0.8611
H10 H 0.6120 0.5500 0.8536
H11 H 0.2132 0.4179 0.9420
H12 H 0.3571 0.3357 0.9900
H13 H 0.3443 0.4900 0.7099
H14 H 0.5871 0.5448 0.7178
H15 H 0.641(6) 0.424(3) 0.794(2)
H16 H 0.8361 0.4179 0.6766
H17 H 0.9292 0.3292 0.5647
H18 H 0.6883 0.2997 0.4488
H19 H 0.3412 0.3619 0.4633
H20 H 0.2657 0.4669 0.5831
Cl1 Cl 0.4915(2) -0.1260(1) 0.2441(1)
O1 O 0.3161(6) -0.1768(3) 0.2259(3)
O2 O 0.5115(9) -0.1140(3) 0.3310(2)
O3 O 0.4740(6) -0.0378(2) 0.2049(2)
O4 O 0.6662(6) -0.1699(3) 0.2130(2)
loop_
_geom_bond_atom_site_label_1
_geom_bond_atom_site_label_2
_geom_bond_site_symmetry_1
_geom_bond_site_symmetry_2
S1 C2 1_555 1_555
N1 C5 1_555 1_555
C1 C2 1_555 1_555
C2 H3 1_555 1_555
C3 S1 1_555 1_555
C4 C3 1_555 1_555
C5 C4 1_555 1_555
C6 N1 1_555 1_555
C7 C1 1_555 1_555
C8 N1 1_555 1_555
C9 C8 1_555 1_555
C10 C9 1_555 1_555
C11 C10 1_555 1_555
C12 C11 1_555 1_555
C13 C12 1_555 1_555
C14 C9 1_555 1_555
H1 C1 1_555 1_555
H2 C4 1_555 1_555
H4 C2 1_555 1_555
H5 C3 1_555 1_555
H6 C3 1_555 1_555
H7 C5 1_555 1_555
H8 C5 1_555 1_555
H9 C6 1_555 1_555
H10 C6 1_555 1_555
H11 C7 1_555 1_555
H12 C7 1_555 1_555
H13 C8 1_555 1_555
H14 C8 1_555 1_555
H15 N1 1_555 1_555
H16 C10 1_555 1_555
H17 C11 1_555 1_555
H18 C12 1_555 1_555
H19 C13 1_555 1_555
H20 C14 1_555 1_555
Cl1 O1 1_555 1_555
O2 Cl1 1_555 1_555
O3 Cl1 1_555 1_555
O4 Cl1 1_555 1_555
C1 C6 1_555 1_555
C4 C7 1_555 1_555
C13 C14 1_555 1_555

#END
