
#######################################################################
#
#                 Cambridge Crystallographic Data Centre
#                                CCDC 
#
#######################################################################
#
# If this CIF has been generated from an entry in the Cambridge 
# Structural Database, then it will include bibliographic, chemical, 
# crystal, experimental, refinement or atomic coordinate data resulting 
# from the CCDC's data processing and validation procedures.
#
#######################################################################

data_CIPRIE
_chemical_formula_moiety         'C18 H19 Br1 O4'
_chemical_name_systematic        
'Dimethyl 12-(1-bromoethylidene)tricyclo[7.2.1.0^2,7^]dodeca-2,4,6-triene-11,11-dicarboxylate'
_symmetry_cell_setting           orthorhombic
_symmetry_space_group_name_H-M   'P b c a'
_symmetry_Int_Tables_number      61
_space_group_name_Hall           '-P 2ac 2ab'
loop_
_symmetry_equiv_pos_site_id
_symmetry_equiv_pos_as_xyz
1 x,y,z
2 1/2-x,-y,1/2+z
3 -x,1/2+y,1/2-z
4 1/2+x,1/2-y,-z
5 -x,-y,-z
6 1/2+x,y,1/2-z
7 x,1/2-y,1/2+z
8 1/2-x,1/2+y,z
_cell_length_a                   9.665(4)
_cell_length_b                   10.566(4)
_cell_length_c                   32.207(13)
_cell_angle_alpha                90
_cell_angle_beta                 90
_cell_angle_gamma                90
_cell_volume                     3288.99
_exptl_crystal_colour            colorless
_exptl_crystal_description       Prism
_cell_formula_units_Z            8
loop_
_atom_site_label
_atom_site_type_symbol
_atom_site_fract_x
_atom_site_fract_y
_atom_site_fract_z
Br1 Br 0.04772(3) 0.15179(3) 0.440324(9)
O1 O 0.6635(2) 0.06760(17) 0.32115(5)
O2 O 0.73649(19) 0.19981(17) 0.37148(5)
O3 O 0.5519(2) 0.1206(2) 0.45725(6)
O4 O 0.6511(2) -0.03855(16) 0.42179(5)
C1 C 0.2565(3) 0.3346(3) 0.45844(8)
H1 H 0.3520 0.3631 0.4542
H2 H 0.2456 0.3045 0.4870
H3 H 0.1930 0.4053 0.4535
C2 C 0.2246(3) 0.2296(2) 0.42899(8)
C3 C 0.2986(3) 0.1865(2) 0.39747(8)
C4 C 0.4413(3) 0.2330(3) 0.38520(7)
H4 H 0.4822 0.2921 0.4061
C5 C 0.4340(3) 0.2906(2) 0.34164(8)
C6 C 0.5270(3) 0.3842(3) 0.32940(8)
H5 H 0.5913 0.4164 0.3490
C7 C 0.5280(3) 0.4311(3) 0.28948(8)
H6 H 0.5926 0.4944 0.2816
C8 C 0.4324(3) 0.3839(3) 0.26082(9)
H7 H 0.4315 0.4154 0.2332
C9 C 0.3389(3) 0.2915(3) 0.27266(8)
H8 H 0.2738 0.2605 0.2531
C10 C 0.3391(3) 0.2431(2) 0.31289(8)
C11 C 0.2376(3) 0.1404(3) 0.32509(8)
H9 H 0.2382 0.0735 0.3036
H10 H 0.1432 0.1768 0.3261
C12 C 0.2710(3) 0.0811(3) 0.36723(8)
H11 H 0.1945 0.0249 0.3770
C13 C 0.4109(3) 0.0100(2) 0.36597(8)
H12 H 0.4331 -0.0165 0.3372
H13 H 0.4076 -0.0661 0.3839
C14 C 0.5210(3) 0.1051(2) 0.38229(7)
C15 C 0.6466(3) 0.1183(2) 0.35419(7)
C16 C 0.8530(3) 0.2344(3) 0.34597(8)
H14 H 0.8994 0.1577 0.3361
H15 H 0.9180 0.2851 0.3623
H16 H 0.8207 0.2840 0.3221
C17 C 0.5739(3) 0.0668(2) 0.42530(8)
C18 C 0.7122(4) -0.0851(3) 0.45993(9)
H17 H 0.7774 -0.0222 0.4708
H18 H 0.7614 -0.1644 0.4544
H19 H 0.6392 -0.1003 0.4804
loop_
_geom_bond_atom_site_label_1
_geom_bond_atom_site_label_2
_geom_bond_site_symmetry_1
_geom_bond_site_symmetry_2
Br1 C2 1_555 1_555
O1 C15 1_555 1_555
O2 C15 1_555 1_555
O3 C17 1_555 1_555
O4 C17 1_555 1_555
C1 H1 1_555 1_555
H2 C1 1_555 1_555
H3 C1 1_555 1_555
C2 C1 1_555 1_555
C3 C2 1_555 1_555
C4 C3 1_555 1_555
H4 C4 1_555 1_555
C5 C4 1_555 1_555
C6 C5 1_555 1_555
H5 C6 1_555 1_555
C7 C6 1_555 1_555
H6 C7 1_555 1_555
C8 C7 1_555 1_555
H7 C8 1_555 1_555
C9 C8 1_555 1_555
H8 C9 1_555 1_555
C10 C5 1_555 1_555
C11 C10 1_555 1_555
H9 C11 1_555 1_555
H10 C11 1_555 1_555
C12 C3 1_555 1_555
H11 C12 1_555 1_555
C13 C12 1_555 1_555
H12 C13 1_555 1_555
H13 C13 1_555 1_555
C14 C4 1_555 1_555
C15 C14 1_555 1_555
C16 O2 1_555 1_555
H14 C16 1_555 1_555
H15 C16 1_555 1_555
H16 C16 1_555 1_555
C17 C14 1_555 1_555
C18 O4 1_555 1_555
H17 C18 1_555 1_555
H18 C18 1_555 1_555
H19 C18 1_555 1_555
C9 C10 1_555 1_555
C11 C12 1_555 1_555
C13 C14 1_555 1_555

#END
