
#######################################################################
#
#                 Cambridge Crystallographic Data Centre
#                                CCDC 
#
#######################################################################
#
# If this CIF has been generated from an entry in the Cambridge 
# Structural Database, then it will include bibliographic, chemical, 
# crystal, experimental, refinement or atomic coordinate data resulting 
# from the CCDC's data processing and validation procedures.
#
#######################################################################

data_CIQHAM
_chemical_formula_moiety         'C15 H16 O3'
_chemical_name_systematic        
'Methyl 4-((1-methylcyclopent-3-en-1-yl)carbonyl)benzoate'
_symmetry_cell_setting           orthorhombic
_symmetry_space_group_name_H-M   'P n m a'
_symmetry_Int_Tables_number      62
_space_group_name_Hall           '-P 2ac 2n'
loop_
_symmetry_equiv_pos_site_id
_symmetry_equiv_pos_as_xyz
1 x,y,z
2 1/2-x,-y,1/2+z
3 1/2+x,1/2-y,1/2-z
4 -x,1/2+y,-z
5 -x,-y,-z
6 1/2+x,y,1/2-z
7 1/2-x,1/2+y,1/2+z
8 x,1/2-y,z
_cell_length_a                   16.6215(6)
_cell_length_b                   6.6520(2)
_cell_length_c                   11.5581(5)
_cell_angle_alpha                90
_cell_angle_beta                 90
_cell_angle_gamma                90
_cell_volume                     1277.94
_exptl_crystal_colour            colorless
_exptl_crystal_description       block
_cell_formula_units_Z            4
loop_
_atom_site_label
_atom_site_type_symbol
_atom_site_fract_x
_atom_site_fract_y
_atom_site_fract_z
C1 C 0.82779(7) 0.3482(2) 0.16325(12)
H1 H 0.8704 0.4256 0.1362
C2 C 0.75151(7) 0.4356(2) 0.21171(12)
H2 H 0.7191 0.4960 0.1512
H3 H 0.7631 0.5363 0.2701
C3 C 0.70802(10) 0.2500 0.26576(15)
C4 C 0.72151(14) 0.2500 0.39724(19)
H4 H 0.7782 0.2500 0.4132
H5 H 0.6974 0.1322 0.4303
C5 C 0.61758(10) 0.2500 0.24182(14)
C6 C 0.58474(9) 0.2500 0.11956(13)
C7 C 0.63221(9) 0.2500 0.01907(14)
H6 H 0.6880 0.2500 0.0251
C8 C 0.59613(9) 0.2500 -0.08943(14)
H7 H 0.6279 0.2500 -0.1556
C9 C 0.51238(9) 0.2500 -0.09965(13)
C10 C 0.46505(9) 0.2500 -0.00022(13)
H8 H 0.4093 0.2500 -0.0066
C11 C 0.50064(9) 0.2500 0.10786(14)
H9 H 0.4685 0.2500 0.1737
C12 C 0.47066(10) 0.2500 -0.21404(13)
C13 C 0.48394(13) 0.2500 -0.41695(15)
H10 H 0.5245 0.2500 -0.4760
H11 H 0.4510 0.3678 -0.4248
O1 O 0.56999(7) 0.2500 0.32202(10)
O2 O 0.39814(7) 0.2500 -0.22520(10)
O3 O 0.52206(7) 0.2500 -0.30386(9)
C1G C 0.82779(7) 0.1518(2) 0.16325(12)
H1G H 0.8704 0.0744 0.1362
C2G C 0.75151(7) 0.0644(2) 0.21171(12)
H2G H 0.7191 0.0040 0.1512
H3G H 0.7631 -0.0363 0.2701
H5G H 0.6974 0.3678 0.4303
H11G H 0.4510 0.1322 -0.4248
loop_
_geom_bond_atom_site_label_1
_geom_bond_atom_site_label_2
_geom_bond_site_symmetry_1
_geom_bond_site_symmetry_2
C1 H1 1_555 1_555
C2 C1 1_555 1_555
H2 C2 1_555 1_555
H3 C2 1_555 1_555
C3 C2 1_555 1_555
C4 C3 1_555 1_555
H4 C4 1_555 1_555
H5 C4 1_555 1_555
C5 C3 1_555 1_555
C6 C5 1_555 1_555
C7 C6 1_555 1_555
H6 C7 1_555 1_555
C8 C7 1_555 1_555
H7 C8 1_555 1_555
C9 C8 1_555 1_555
C10 C9 1_555 1_555
H8 C10 1_555 1_555
C11 C6 1_555 1_555
H9 C11 1_555 1_555
C12 C9 1_555 1_555
C13 H10 1_555 1_555
H11 C13 1_555 1_555
O1 C5 1_555 1_555
O2 C12 1_555 1_555
O3 C12 1_555 1_555
C1G C1 1_555 1_555
H1G C1G 1_555 1_555
C2G C3 1_555 1_555
H2G C2G 1_555 1_555
H3G C2G 1_555 1_555
H5G C4 1_555 1_555
H11G C13 1_555 1_555
C10 C11 1_555 1_555
C13 O3 1_555 1_555
C1G C2G 1_555 1_555

#END
