
#######################################################################
#
#                 Cambridge Crystallographic Data Centre
#                                CCDC 
#
#######################################################################
#
# If this CIF has been generated from an entry in the Cambridge 
# Structural Database, then it will include bibliographic, chemical, 
# crystal, experimental, refinement or atomic coordinate data resulting 
# from the CCDC's data processing and validation procedures.
#
#######################################################################

data_CIQJAO
_chemical_formula_moiety         'C21 H20 Cl1 N5 O1'
_chemical_name_systematic        
1-(4-Chlorophenyl)-2-diethylamino-9-phenyl-1H-purin-6(9H)-one
_symmetry_cell_setting           monoclinic
_symmetry_space_group_name_H-M   'P 21/n'
_symmetry_Int_Tables_number      14
_space_group_name_Hall           '-P 2yn'
loop_
_symmetry_equiv_pos_site_id
_symmetry_equiv_pos_as_xyz
1 x,y,z
2 1/2-x,1/2+y,1/2-z
3 -x,-y,-z
4 1/2+x,1/2-y,1/2+z
_cell_length_a                   13.4911(12)
_cell_length_b                   8.3947(8)
_cell_length_c                   17.4615(16)
_cell_angle_alpha                90
_cell_angle_beta                 100.674(2)
_cell_angle_gamma                90
_cell_volume                     1943.36
_exptl_crystal_colour            colorless
_exptl_crystal_description       block
_cell_formula_units_Z            4
loop_
_atom_site_label
_atom_site_type_symbol
_atom_site_fract_x
_atom_site_fract_y
_atom_site_fract_z
C1 C 0.58415(14) 0.3486(3) 0.20261(13)
H1 H 0.5596 0.3982 0.1553
C2 C 0.53522(17) 0.3669(3) 0.26485(18)
H2 H 0.4765 0.4274 0.2590
C3 C 0.5719(2) 0.2976(3) 0.33449(17)
H3 H 0.5392 0.3120 0.3764
C4 C 0.65702(19) 0.2066(3) 0.34277(13)
H4 H 0.6819 0.1589 0.3905
C5 C 0.70677(15) 0.1844(3) 0.28114(12)
H5 H 0.7645 0.1218 0.2870
C6 C 0.66952(12) 0.2562(2) 0.21152(10)
C7 C 0.67228(13) 0.1855(2) 0.07248(11)
H6 H 0.6030 0.1706 0.0582
C8 C 0.82762(12) 0.1991(2) 0.06945(10)
C9 C 0.81868(12) 0.2404(2) 0.14362(10)
C10 C 0.98288(12) 0.2842(2) 0.18586(10)
C11 C 0.92328(13) 0.2069(2) 0.04677(10)
C12 C 1.09679(12) 0.2904(2) 0.08956(10)
C13 C 1.15729(13) 0.1696(2) 0.07040(10)
H7 H 1.1372 0.0639 0.0722
C14 C 1.24807(13) 0.2069(2) 0.04857(10)
H8 H 1.2897 0.1268 0.0357
C15 C 1.27571(13) 0.3642(2) 0.04617(10)
C16 C 1.21545(13) 0.4855(2) 0.06383(10)
H9 H 1.2352 0.5912 0.0611
C17 C 1.12478(13) 0.4475(2) 0.08573(10)
H10 H 1.0829 0.5279 0.0978
C18 C 1.15040(13) 0.2194(2) 0.26058(11)
H11 H 1.1490 0.1454 0.2177
H12 H 1.1431 0.1579 0.3063
C19 C 1.25144(15) 0.3020(3) 0.27618(14)
H13 H 1.2586 0.3657 0.2319
H14 H 1.3042 0.2237 0.2854
H15 H 1.2558 0.3690 0.3212
C20 C 1.04109(15) 0.4238(3) 0.30744(12)
H16 H 0.9879 0.4987 0.2872
H17 H 1.1006 0.4853 0.3291
C21 C 1.00919(19) 0.3313(3) 0.37215(13)
H18 H 0.9473 0.2763 0.3526
H19 H 0.9992 0.4030 0.4129
H20 H 1.0606 0.2554 0.3924
Cl1 Cl 1.38876(4) 0.41047(8) 0.01601(3)
N1 N 0.71771(10) 0.23172(18) 0.14620(8)
N2 N 0.73402(11) 0.16444(19) 0.02426(9)
N3 N 0.89291(10) 0.28148(17) 0.20361(8)
N4 N 1.00083(10) 0.25229(16) 0.11090(8)
N5 N 1.06403(11) 0.32839(18) 0.24143(8)
O1 O 0.94322(9) 0.18633(15) -0.01760(7)
loop_
_geom_bond_atom_site_label_1
_geom_bond_atom_site_label_2
_geom_bond_site_symmetry_1
_geom_bond_site_symmetry_2
C1 H1 1_555 1_555
C2 C1 1_555 1_555
H2 C2 1_555 1_555
C3 C2 1_555 1_555
H3 C3 1_555 1_555
C4 C3 1_555 1_555
H4 C4 1_555 1_555
C5 C4 1_555 1_555
H5 C5 1_555 1_555
C6 C1 1_555 1_555
C7 H6 1_555 1_555
C8 C9 1_555 1_555
C9 N1 1_555 1_555
C10 N3 1_555 1_555
C11 C8 1_555 1_555
C12 C13 1_555 1_555
C13 H7 1_555 1_555
C14 C13 1_555 1_555
H8 C14 1_555 1_555
C15 C14 1_555 1_555
C16 C15 1_555 1_555
H9 C16 1_555 1_555
C17 C12 1_555 1_555
H10 C17 1_555 1_555
C18 H11 1_555 1_555
H12 C18 1_555 1_555
C19 C18 1_555 1_555
H13 C19 1_555 1_555
H14 C19 1_555 1_555
H15 C19 1_555 1_555
C20 H16 1_555 1_555
H17 C20 1_555 1_555
C21 C20 1_555 1_555
H18 C21 1_555 1_555
H19 C21 1_555 1_555
H20 C21 1_555 1_555
Cl1 C15 1_555 1_555
N1 C6 1_555 1_555
N2 C7 1_555 1_555
N3 C9 1_555 1_555
N4 C10 1_555 1_555
N5 C10 1_555 1_555
O1 C11 1_555 1_555
C5 C6 1_555 1_555
C7 N1 1_555 1_555
C8 N2 1_555 1_555
C11 N4 1_555 1_555
C12 N4 1_555 1_555
C16 C17 1_555 1_555
C18 N5 1_555 1_555
C20 N5 1_555 1_555

#END
