
#######################################################################
#
#                 Cambridge Crystallographic Data Centre
#                                CCDC 
#
#######################################################################
#
# If this CIF has been generated from an entry in the Cambridge 
# Structural Database, then it will include bibliographic, chemical, 
# crystal, experimental, refinement or atomic coordinate data resulting 
# from the CCDC's data processing and validation procedures.
#
#######################################################################

data_CIQNEW
_chemical_formula_moiety         'C16 H14 O4'
_chemical_name_systematic        'Benzoylmethyl 4-methoxybenzoate'
_symmetry_cell_setting           monoclinic
_symmetry_space_group_name_H-M   'P 21/n'
_symmetry_Int_Tables_number      14
_space_group_name_Hall           '-P 2yn'
loop_
_symmetry_equiv_pos_site_id
_symmetry_equiv_pos_as_xyz
1 x,y,z
2 1/2-x,1/2+y,1/2-z
3 -x,-y,-z
4 1/2+x,1/2-y,1/2+z
_cell_length_a                   8.0618(2)
_cell_length_b                   9.6671(3)
_cell_length_c                   17.1819(5)
_cell_angle_alpha                90
_cell_angle_beta                 91.535(3)
_cell_angle_gamma                90
_cell_volume                     1338.58
_exptl_crystal_colour            colorless
_exptl_crystal_description       Plate
_cell_formula_units_Z            4
_exptl_crystal_recrystallization_method 'ethyl acetate'
loop_
_atom_site_label
_atom_site_type_symbol
_atom_site_fract_x
_atom_site_fract_y
_atom_site_fract_z
O1 O 0.06068(12) 0.25236(10) 0.22525(6)
O2 O 0.06074(10) 0.02414(9) 0.24485(6)
O3 O 0.10480(11) 0.11666(13) 0.39171(6)
O4 O -0.64971(11) 0.09532(10) 0.08808(6)
C1 C -0.00852(15) 0.14235(13) 0.21933(7)
C2 C -0.17527(15) 0.12207(12) 0.18382(7)
C3 C -0.26981(16) 0.23871(13) 0.16601(8)
H1 H -0.2260 0.3262 0.1758
C4 C -0.42681(16) 0.22643(14) 0.13417(8)
H2 H -0.4891 0.3051 0.1227
C5 C -0.49259(15) 0.09587(13) 0.11908(7)
C6 C -0.39972(16) -0.02145(13) 0.13555(8)
H3 H -0.4431 -0.1088 0.1250
C7 C -0.24165(15) -0.00732(13) 0.16797(7)
H4 H -0.1790 -0.0859 0.1793
C8 C 0.22653(15) 0.03720(15) 0.27621(8)
H5 H 0.2892 0.0978 0.2429
H6 H 0.2795 -0.0529 0.2762
C9 C 0.23180(15) 0.09397(14) 0.35776(8)
C10 C 0.39810(15) 0.11977(12) 0.39404(7)
C11 C 0.54325(15) 0.09679(13) 0.35428(8)
H7 H 0.5378 0.0654 0.3031
C12 C 0.69576(16) 0.12042(14) 0.39048(8)
H8 H 0.7926 0.1042 0.3637
C13 C 0.70499(17) 0.16773(14) 0.46575(8)
H9 H 0.8079 0.1839 0.4898
C14 C 0.56132(17) 0.19132(15) 0.50589(8)
H10 H 0.5676 0.2239 0.5568
C15 C 0.40934(16) 0.16673(13) 0.47056(8)
H11 H 0.3131 0.1816 0.4980
C16 C -0.72513(18) -0.03507(16) 0.07032(9)
H12 H -0.8352 -0.0203 0.0492
H13 H -0.7306 -0.0894 0.1169
H14 H -0.6602 -0.0831 0.0328
loop_
_geom_bond_atom_site_label_1
_geom_bond_atom_site_label_2
_geom_bond_site_symmetry_1
_geom_bond_site_symmetry_2
O1 C1 1_555 1_555
O2 C1 1_555 1_555
O3 C9 1_555 1_555
O4 C5 1_555 1_555
C1 C2 1_555 1_555
C2 C3 1_555 1_555
C3 H1 1_555 1_555
C4 C3 1_555 1_555
H2 C4 1_555 1_555
C5 C4 1_555 1_555
C6 C5 1_555 1_555
H3 C6 1_555 1_555
C7 C2 1_555 1_555
H4 C7 1_555 1_555
C8 O2 1_555 1_555
H5 C8 1_555 1_555
H6 C8 1_555 1_555
C9 C8 1_555 1_555
C10 C9 1_555 1_555
C11 C10 1_555 1_555
H7 C11 1_555 1_555
C12 C11 1_555 1_555
H8 C12 1_555 1_555
C13 C12 1_555 1_555
H9 C13 1_555 1_555
C14 C13 1_555 1_555
H10 C14 1_555 1_555
C15 C10 1_555 1_555
H11 C15 1_555 1_555
C16 O4 1_555 1_555
H12 C16 1_555 1_555
H13 C16 1_555 1_555
H14 C16 1_555 1_555
C6 C7 1_555 1_555
C14 C15 1_555 1_555

#END
