
#######################################################################
#
#                 Cambridge Crystallographic Data Centre
#                                CCDC 
#
#######################################################################
#
# If this CIF has been generated from an entry in the Cambridge 
# Structural Database, then it will include bibliographic, chemical, 
# crystal, experimental, refinement or atomic coordinate data resulting 
# from the CCDC's data processing and validation procedures.
#
#######################################################################

data_CIQPUO
_chemical_formula_moiety         'C24 H28 N6 O2'
_chemical_name_systematic        
2,6-Diethyl-8b,8c-diphenylperhydro-2,3a,4a,6,7a,8a-hexaazacyclopenta(def)fluorene-4,8-dione
_symmetry_cell_setting           triclinic
_symmetry_space_group_name_H-M   'P -1'
_symmetry_Int_Tables_number      2
_space_group_name_Hall           '-P 1'
loop_
_symmetry_equiv_pos_site_id
_symmetry_equiv_pos_as_xyz
1 x,y,z
2 -x,-y,-z
_cell_length_a                   8.6963(9)
_cell_length_b                   10.3704(10)
_cell_length_c                   13.0294(13)
_cell_angle_alpha                76.885(2)
_cell_angle_beta                 73.2330(10)
_cell_angle_gamma                84.5760(10)
_cell_volume                     1095.21
_exptl_crystal_colour            blue
_exptl_crystal_description       block
_cell_formula_units_Z            2
_exptl_crystal_recrystallization_method chloroform/methanol
loop_
_atom_site_label
_atom_site_type_symbol
_atom_site_fract_x
_atom_site_fract_y
_atom_site_fract_z
C1 C 0.0890(4) -0.2902(3) 0.9644(2)
H1 H 0.1391 -0.2709 1.0157
H2 H 0.0987 -0.3835 0.9661
H3 H -0.0226 -0.2635 0.9839
C2 C 0.1698(3) -0.2160(2) 0.8515(2)
H4 H 0.2850 -0.2313 0.8377
H5 H 0.1362 -0.2511 0.7986
C3 C 0.1908(3) -0.0040(2) 0.90159(19)
H6 H 0.1646 -0.0551 0.9763
H7 H 0.1337 0.0809 0.9023
C4 C 0.1900(3) -0.0064(2) 0.71965(19)
H8 H 0.1325 0.0783 0.7091
H9 H 0.1638 -0.0592 0.6748
C5 C 0.4739(3) -0.0717(2) 0.89922(18)
C6 C 0.4730(3) -0.0729(2) 0.63566(17)
C7 C 0.4254(2) 0.0817(2) 0.74911(16)
C8 C 0.3877(2) 0.2307(2) 0.72892(17)
C9 C 0.3722(3) 0.2996(2) 0.8109(2)
H10 H 0.3805 0.2550 0.8797
C10 C 0.3441(4) 0.4357(3) 0.7899(2)
H11 H 0.3345 0.4822 0.8447
C11 C 0.3304(3) 0.5026(3) 0.6891(3)
H12 H 0.3105 0.5937 0.6760
C12 C 0.3462(3) 0.4342(3) 0.6077(2)
H13 H 0.3373 0.4794 0.5392
C13 C 0.3753(3) 0.2983(2) 0.62682(19)
H14 H 0.3866 0.2526 0.5712
C14 C 0.6075(2) 0.0377(2) 0.72159(16)
C15 C 0.7302(2) 0.1463(2) 0.67807(18)
C16 C 0.7865(3) 0.1967(2) 0.7500(2)
H15 H 0.7484 0.1649 0.8252
C17 C 0.8994(3) 0.2942(3) 0.7098(2)
H16 H 0.9373 0.3277 0.7580
C18 C 0.9557(3) 0.3416(3) 0.5991(2)
H17 H 1.0326 0.4064 0.5724
C19 C 0.8986(3) 0.2936(3) 0.5272(2)
H18 H 0.9360 0.3267 0.4521
C20 C 0.7859(3) 0.1962(2) 0.56666(19)
H19 H 0.7472 0.1641 0.5181
C21 C 0.7575(3) -0.1426(3) 0.8167(2)
H20 H 0.8566 -0.0956 0.7969
H21 H 0.7471 -0.2001 0.8882
C22 C 0.7572(3) -0.1410(2) 0.6332(2)
H22 H 0.7485 -0.1976 0.5853
H23 H 0.8559 -0.0931 0.5989
C23 C 0.6583(4) -0.3353(3) 0.7767(2)
H24 H 0.6630 -0.3773 0.7165
H25 H 0.5492 -0.3016 0.8023
C24 C 0.6991(5) -0.4366(3) 0.8681(3)
H26 H 0.8115 -0.4602 0.8471
H27 H 0.6372 -0.5139 0.8828
H28 H 0.6745 -0.4003 0.9327
N1 N 0.1345(2) -0.07304(19) 0.83424(16)
N2 N 0.3631(2) 0.01826(17) 0.86419(14)
N3 N 0.3625(2) 0.01628(17) 0.68186(14)
N4 N 0.6222(2) -0.04582(18) 0.82483(14)
N5 N 0.6212(2) -0.04532(18) 0.64235(14)
N6 N 0.7685(2) -0.2239(2) 0.73700(17)
O1 O 0.4475(2) -0.15622(16) 0.98420(12)
O2 O 0.4458(2) -0.15742(16) 0.59266(12)
loop_
_geom_bond_atom_site_label_1
_geom_bond_atom_site_label_2
_geom_bond_site_symmetry_1
_geom_bond_site_symmetry_2
C1 H1 1_555 1_555
H2 C1 1_555 1_555
H3 C1 1_555 1_555
C2 C1 1_555 1_555
H4 C2 1_555 1_555
H5 C2 1_555 1_555
C3 H6 1_555 1_555
H7 C3 1_555 1_555
C4 H8 1_555 1_555
H9 C4 1_555 1_555
C5 N2 1_555 1_555
C6 N3 1_555 1_555
C7 C8 1_555 1_555
C8 C9 1_555 1_555
C9 H10 1_555 1_555
C10 C9 1_555 1_555
H11 C10 1_555 1_555
C11 C10 1_555 1_555
H12 C11 1_555 1_555
C12 C11 1_555 1_555
H13 C12 1_555 1_555
C13 C8 1_555 1_555
H14 C13 1_555 1_555
C14 C7 1_555 1_555
C15 C14 1_555 1_555
C16 C15 1_555 1_555
H15 C16 1_555 1_555
C17 C16 1_555 1_555
H16 C17 1_555 1_555
C18 C17 1_555 1_555
H17 C18 1_555 1_555
C19 C18 1_555 1_555
H18 C19 1_555 1_555
C20 C15 1_555 1_555
H19 C20 1_555 1_555
C21 H20 1_555 1_555
H21 C21 1_555 1_555
C22 H22 1_555 1_555
H23 C22 1_555 1_555
C23 H24 1_555 1_555
H25 C23 1_555 1_555
C24 C23 1_555 1_555
H26 C24 1_555 1_555
H27 C24 1_555 1_555
H28 C24 1_555 1_555
N1 C2 1_555 1_555
N2 C3 1_555 1_555
N3 C4 1_555 1_555
N4 C5 1_555 1_555
N5 C6 1_555 1_555
N6 C21 1_555 1_555
O1 C5 1_555 1_555
O2 C6 1_555 1_555
C3 N1 1_555 1_555
C4 N1 1_555 1_555
C7 N2 1_555 1_555
C7 N3 1_555 1_555
C12 C13 1_555 1_555
C14 N4 1_555 1_555
C14 N5 1_555 1_555
C19 C20 1_555 1_555
C21 N4 1_555 1_555
C22 N5 1_555 1_555
C22 N6 1_555 1_555
C23 N6 1_555 1_555

#END
