
#######################################################################
#
#                 Cambridge Crystallographic Data Centre
#                                CCDC 
#
#######################################################################
#
# If this CIF has been generated from an entry in the Cambridge 
# Structural Database, then it will include bibliographic, chemical, 
# crystal, experimental, refinement or atomic coordinate data resulting 
# from the CCDC's data processing and validation procedures.
#
#######################################################################

data_CIRPIF
_chemical_formula_moiety         'C20 H13 Br1 N2 O1'
_chemical_name_systematic        
(6-bromo-2-phenylimidazo[1,2-a]pyridin-3-yl)(phenyl)methanone
_symmetry_cell_setting           triclinic
_symmetry_space_group_name_H-M   'P -1'
_symmetry_Int_Tables_number      2
_space_group_name_Hall           '-P 1'
loop_
_symmetry_equiv_pos_site_id
_symmetry_equiv_pos_as_xyz
1 x,y,z
2 -x,-y,-z
_cell_length_a                   6.2946(4)
_cell_length_b                   7.7239(5)
_cell_length_c                   16.5242(10)
_cell_angle_alpha                95.170(2)
_cell_angle_beta                 95.044(2)
_cell_angle_gamma                95.673(2)
_cell_volume                     792.391
_exptl_crystal_colour            white
_chemical_melting_point          '404-406 K'
_cell_formula_units_Z            2
loop_
_atom_site_label
_atom_site_type_symbol
_atom_site_fract_x
_atom_site_fract_y
_atom_site_fract_z
Br1 Br 0.14996(2) 0.02218(2) 0.38271(2)
O1 O 0.20968(17) 0.22935(15) 0.69084(7)
N1 N 0.51614(19) 0.30103(15) 0.57690(7)
N2 N 0.82911(18) 0.47366(14) 0.59994(8)
C1 C 1.0088(2) 0.85331(19) 0.86357(10)
H1 H 1.0691 0.9421 0.9051
C2 C 0.7899(2) 0.79751(18) 0.85668(9)
H2 H 0.7005 0.8486 0.8934
C3 C 0.7023(2) 0.66715(18) 0.79606(9)
H3 H 0.5529 0.6300 0.7916
C4 C 0.8318(2) 0.59000(17) 0.74157(8)
C5 C 0.7374(2) 0.46765(17) 0.67099(8)
C6 C 0.5441(2) 0.35536(17) 0.66050(8)
C7 C 0.3951(2) 0.28717(18) 0.71552(9)
C8 C 0.4701(2) 0.28334(17) 0.80376(9)
C9 C 0.3213(2) 0.30924(19) 0.86042(9)
H4 H 0.1796 0.3304 0.8423
C10 C 0.3797(3) 0.3041(2) 0.94299(9)
H5 H 0.2789 0.3239 0.9815
C11 C 0.5866(3) 0.2699(2) 0.96947(9)
H6 H 0.6267 0.2660 1.0260
C12 C 1.0519(2) 0.64682(18) 0.74899(9)
H7 H 1.1424 0.5956 0.7127
C13 C 1.1378(2) 0.7786(2) 0.80965(10)
H8 H 1.2867 0.8175 0.8140
C14 C 0.7346(2) 0.24149(19) 0.91298(9)
H9 H 0.8752 0.2176 0.9310
C15 C 0.6765(2) 0.24805(18) 0.83000(9)
H10 H 0.7773 0.2285 0.7915
C16 C 0.6968(2) 0.37212(17) 0.54393(9)
C17 C 0.7194(2) 0.33031(19) 0.46023(9)
H11 H 0.8443 0.3746 0.4372
C18 C 0.5598(2) 0.22563(19) 0.41310(9)
H12 H 0.5724 0.1957 0.3568
C19 C 0.3744(2) 0.16180(17) 0.44894(9)
C20 C 0.3518(2) 0.19778(17) 0.52972(8)
H13 H 0.2271 0.1532 0.5527
loop_
_geom_bond_atom_site_label_1
_geom_bond_atom_site_label_2
_geom_bond_site_symmetry_1
_geom_bond_site_symmetry_2
Br1 C19 1_555 1_555
O1 C7 1_555 1_555
N1 C6 1_555 1_555
N2 C5 1_555 1_555
C1 H1 1_555 1_555
C2 C1 1_555 1_555
H2 C2 1_555 1_555
C3 C2 1_555 1_555
H3 C3 1_555 1_555
C4 C3 1_555 1_555
C5 C4 1_555 1_555
C6 C5 1_555 1_555
C7 C6 1_555 1_555
C8 C7 1_555 1_555
C9 C8 1_555 1_555
H4 C9 1_555 1_555
C10 C9 1_555 1_555
H5 C10 1_555 1_555
C11 C10 1_555 1_555
H6 C11 1_555 1_555
C12 C4 1_555 1_555
H7 C12 1_555 1_555
C13 C1 1_555 1_555
H8 C13 1_555 1_555
C14 C11 1_555 1_555
H9 C14 1_555 1_555
C15 C8 1_555 1_555
H10 C15 1_555 1_555
C16 N1 1_555 1_555
C17 C16 1_555 1_555
H11 C17 1_555 1_555
C18 C17 1_555 1_555
H12 C18 1_555 1_555
C19 C18 1_555 1_555
C20 N1 1_555 1_555
H13 C20 1_555 1_555
N2 C16 1_555 1_555
C12 C13 1_555 1_555
C14 C15 1_555 1_555
C19 C20 1_555 1_555

#END
