
#######################################################################
#
#                 Cambridge Crystallographic Data Centre
#                                CCDC 
#
#######################################################################
#
# If this CIF has been generated from an entry in the Cambridge 
# Structural Database, then it will include bibliographic, chemical, 
# crystal, experimental, refinement or atomic coordinate data resulting 
# from the CCDC's data processing and validation procedures.
#
#######################################################################

data_CISBAJ
_chemical_formula_moiety         'C19 H19 N5 O4 S1'
_chemical_name_systematic        
'methyl N-ethyl-N-(4-((5-nitro-2,1-benzothiazol-3-yl)diazenyl)phenyl)-\b-alaninate'
_symmetry_cell_setting           monoclinic
_symmetry_space_group_name_H-M   'P 21/c'
_symmetry_Int_Tables_number      14
_space_group_name_Hall           '-P 2ybc'
loop_
_symmetry_equiv_pos_site_id
_symmetry_equiv_pos_as_xyz
1 x,y,z
2 -x,1/2+y,1/2-z
3 -x,-y,-z
4 x,1/2-y,1/2+z
_cell_length_a                   11.936(9)
_cell_length_b                   21.026(16)
_cell_length_c                   7.697(6)
_cell_angle_alpha                90
_cell_angle_beta                 94.520(14)
_cell_angle_gamma                90
_cell_volume                     1925.68
_exptl_crystal_colour            blue
_exptl_crystal_description       block
_cell_formula_units_Z            4
loop_
_atom_site_label
_atom_site_type_symbol
_atom_site_fract_x
_atom_site_fract_y
_atom_site_fract_z
C1 C 0.9369(5) -0.1337(2) 0.8032(7)
H1 H 0.8670 -0.1142 0.7850
C2 C 0.9659(5) -0.1680(2) 0.9495(7)
C3 C 1.0722(6) -0.1968(3) 0.9857(8)
H2 H 1.0880 -0.2184 1.0903
C4 C 1.1499(6) -0.1933(3) 0.8704(8)
H3 H 1.2192 -0.2131 0.8931
C5 C 1.1258(5) -0.1589(2) 0.7119(8)
C6 C 1.0171(5) -0.1295(2) 0.6820(7)
C7 C 1.0108(5) -0.1005(2) 0.5167(7)
C8 C 0.8338(5) -0.0159(2) 0.2197(7)
C9 C 0.8389(5) 0.0061(3) 0.0523(8)
H4 H 0.9031 -0.0020 -0.0051
C10 C 0.7526(5) 0.0396(3) -0.0331(8)
H5 H 0.7593 0.0544 -0.1457
C11 C 0.6535(5) 0.0516(3) 0.0508(8)
C12 C 0.6486(5) 0.0281(2) 0.2189(7)
H6 H 0.5840 0.0350 0.2763
C13 C 0.7352(5) -0.0047(2) 0.3019(7)
H7 H 0.7288 -0.0199 0.4142
C14 C 0.4666(6) 0.0969(3) 0.0562(8)
H8 H 0.4452 0.0585 0.1153
H9 H 0.4057 0.1075 -0.0297
C15 C 0.4784(6) 0.1496(3) 0.1870(8)
H10 H 0.5549 0.1501 0.2401
H11 H 0.4646 0.1899 0.1279
C16 C 0.3989(6) 0.1426(3) 0.3263(8)
C17 C 0.2977(6) 0.1915(4) 0.5392(10)
H12 H 0.3249 0.1605 0.6239
H13 H 0.2248 0.1790 0.4892
H14 H 0.2923 0.2322 0.5947
C18 C 0.5641(7) 0.1030(4) -0.2209(10)
H15 H 0.6114 0.0749 -0.2834
H16 H 0.4880 0.1001 -0.2746
C19 C 0.6035(8) 0.1666(4) -0.2306(12)
H17 H 0.5559 0.1943 -0.1699
H18 H 0.6023 0.1794 -0.3505
H19 H 0.6790 0.1691 -0.1780
N1 N 0.8831(5) -0.1765(2) 1.0739(7)
N2 N 1.1957(4) -0.1542(2) 0.5860(7)
N3 N 0.9175(4) -0.0680(2) 0.4482(6)
N4 N 0.9278(4) -0.0484(2) 0.2932(6)
N5 N 0.5665(4) 0.0831(2) -0.0349(7)
O1 O 0.9084(4) -0.2057(2) 1.2088(6)
O2 O 0.7887(4) -0.1549(2) 1.0387(6)
O3 O 0.3758(4) 0.1960(2) 0.4011(7)
O4 O 0.3613(6) 0.0926(2) 0.3665(7)
S1 S 1.13211(15) -0.11355(8) 0.4248(2)
loop_
_geom_bond_atom_site_label_1
_geom_bond_atom_site_label_2
_geom_bond_site_symmetry_1
_geom_bond_site_symmetry_2
C1 H1 1_555 1_555
C2 C1 1_555 1_555
C3 C2 1_555 1_555
H2 C3 1_555 1_555
C4 C3 1_555 1_555
H3 C4 1_555 1_555
C5 C4 1_555 1_555
C6 C1 1_555 1_555
C7 C6 1_555 1_555
C8 C9 1_555 1_555
C9 H4 1_555 1_555
C10 C9 1_555 1_555
H5 C10 1_555 1_555
C11 C10 1_555 1_555
C12 C11 1_555 1_555
H6 C12 1_555 1_555
C13 C8 1_555 1_555
H7 C13 1_555 1_555
C14 H8 1_555 1_555
H9 C14 1_555 1_555
C15 C14 1_555 1_555
H10 C15 1_555 1_555
H11 C15 1_555 1_555
C16 C15 1_555 1_555
C17 H12 1_555 1_555
H13 C17 1_555 1_555
H14 C17 1_555 1_555
C18 H15 1_555 1_555
H16 C18 1_555 1_555
C19 C18 1_555 1_555
H17 C19 1_555 1_555
H18 C19 1_555 1_555
H19 C19 1_555 1_555
N1 C2 1_555 1_555
N2 C5 1_555 1_555
N3 C7 1_555 1_555
N4 C8 1_555 1_555
N5 C11 1_555 1_555
O1 N1 1_555 1_555
O2 N1 1_555 1_555
O3 C16 1_555 1_555
O4 C16 1_555 1_555
S1 C7 1_555 1_555
C5 C6 1_555 1_555
C12 C13 1_555 1_555
C14 N5 1_555 1_555
C17 O3 1_555 1_555
C18 N5 1_555 1_555
N2 S1 1_555 1_555
N3 N4 1_555 1_555

#END
