
#######################################################################
#
#                 Cambridge Crystallographic Data Centre
#                                CCDC 
#
#######################################################################
#
# If this CIF has been generated from an entry in the Cambridge 
# Structural Database, then it will include bibliographic, chemical, 
# crystal, experimental, refinement or atomic coordinate data resulting 
# from the CCDC's data processing and validation procedures.
#
#######################################################################

data_CISBUD
_chemical_formula_moiety         'C28 H31 N3 O6'
_chemical_name_systematic        
6-Amino-2-(4-(1,4,7,10-tetraoxa-13-azacyclopentadecan-13-yl)phenyl)-1H-benzo[de]isoquinoline-1,3(2H)-dione
_symmetry_cell_setting           monoclinic
_symmetry_space_group_name_H-M   'C c'
_symmetry_Int_Tables_number      9
_space_group_name_Hall           'C -2yc'
loop_
_symmetry_equiv_pos_site_id
_symmetry_equiv_pos_as_xyz
1 x,y,z
2 x,-y,1/2+z
3 1/2+x,1/2+y,z
4 1/2+x,1/2-y,1/2+z
_cell_length_a                   13.8011(17)
_cell_length_b                   14.2901(17)
_cell_length_c                   12.9904(17)
_cell_angle_alpha                90
_cell_angle_beta                 98.634(4)
_cell_angle_gamma                90
_cell_volume                     2532.92
_exptl_crystal_description       prism
_cell_formula_units_Z            4
loop_
_atom_site_label
_atom_site_type_symbol
_atom_site_fract_x
_atom_site_fract_y
_atom_site_fract_z
C1 C -0.0078(2) 0.23002(19) 0.2330(2)
N1 N -0.25954(17) 0.34989(17) 0.06756(19)
H1 H -0.2859 0.4004 0.0983
H2 H -0.2865 0.3247 0.0042
N2 N 0.11753(17) 0.10890(16) 0.25357(18)
N3 N 0.46021(18) -0.03048(16) 0.49707(19)
O1 O 0.11368(15) 0.21697(14) 0.38157(16)
O2 O 0.12543(15) 0.00315(15) 0.12472(17)
O3 O 0.65089(17) 0.15359(17) 0.53166(17)
O4 O 0.73373(16) 0.02886(14) 0.71170(16)
O5 O 0.65927(16) -0.16681(14) 0.72578(16)
O6 O 0.45723(15) -0.23510(14) 0.67054(17)
C2 C -0.0520(2) 0.30904(19) 0.2690(2)
H3 H -0.0245 0.3355 0.3340
C3 C -0.1341(2) 0.3499(2) 0.2137(2)
H4 H -0.1613 0.4044 0.2400
C4 C -0.1777(2) 0.31131(19) 0.1185(2)
C5 C -0.1338(2) 0.23040(19) 0.0779(2)
C6 C -0.1742(2) 0.1869(2) -0.0157(2)
H5 H -0.2312 0.2128 -0.0555
C7 C -0.1332(2) 0.1078(2) -0.0511(2)
H6 H -0.1628 0.0786 -0.1138
C8 C -0.0477(2) 0.0703(2) 0.0053(2)
H7 H -0.0186 0.0164 -0.0200
C9 C -0.0053(2) 0.11090(19) 0.0975(2)
C10 C -0.0483(2) 0.19112(18) 0.1364(2)
C11 C 0.0763(2) 0.18809(19) 0.2960(2)
C12 C 0.0834(2) 0.06961(19) 0.1567(2)
C13 C 0.2061(2) 0.07012(19) 0.3124(2)
C14 C 0.2962(2) 0.10803(19) 0.3032(2)
H8 H 0.3004 0.1577 0.2555
C15 C 0.3803(2) 0.07462(19) 0.3626(2)
H9 H 0.4418 0.1013 0.3546
C16 C 0.3768(2) 0.00178(19) 0.4347(2)
C17 C 0.2843(2) -0.0384(2) 0.4398(2)
H10 H 0.2794 -0.0898 0.4851
C18 C 0.2008(2) -0.00385(19) 0.3797(2)
H11 H 0.1390 -0.0313 0.3848
C19 C 0.5547(2) 0.0130(2) 0.4923(2)
H12 H 0.5621 0.0240 0.4186
H13 H 0.6077 -0.0298 0.5229
C20 C 0.5648(2) 0.1057(2) 0.5509(3)
H14 H 0.5065 0.1451 0.5281
H15 H 0.5685 0.0939 0.6265
C21 C 0.7190(2) 0.1756(2) 0.6198(2)
H16 H 0.6831 0.1960 0.6764
H17 H 0.7598 0.2287 0.6027
C22 C 0.7848(2) 0.0954(2) 0.6581(3)
H18 H 0.8086 0.0646 0.5983
H19 H 0.8424 0.1191 0.7055
C23 C 0.7886(2) -0.0552(2) 0.7276(2)
H20 H 0.8550 -0.0409 0.7645
H21 H 0.7956 -0.0830 0.6593
C24 C 0.7400(2) -0.1240(2) 0.7897(2)
H22 H 0.7878 -0.1725 0.8182
H23 H 0.7168 -0.0916 0.8488
C25 C 0.6175(2) -0.2385(2) 0.7803(2)
H24 H 0.5880 -0.2107 0.8382
H25 H 0.6693 -0.2827 0.8105
C26 C 0.5401(2) -0.2904(2) 0.7086(3)
H26 H 0.5694 -0.3145 0.6487
H27 H 0.5184 -0.3450 0.7461
C27 C 0.4633(2) -0.1871(2) 0.5748(2)
H28 H 0.4101 -0.2085 0.5201
H29 H 0.5269 -0.2008 0.5514
C28 C 0.4539(2) -0.0830(2) 0.5923(2)
H30 H 0.3903 -0.0698 0.6158
H31 H 0.5067 -0.0623 0.6477
loop_
_geom_bond_atom_site_label_1
_geom_bond_atom_site_label_2
_geom_bond_site_symmetry_1
_geom_bond_site_symmetry_2
C1 C2 1_555 1_555
N1 H1 1_555 1_555
H2 N1 1_555 1_555
N2 C11 1_555 1_555
N3 C16 1_555 1_555
O1 C11 1_555 1_555
O2 C12 1_555 1_555
O3 C20 1_555 1_555
O4 C22 1_555 1_555
O5 C24 1_555 1_555
O6 C26 1_555 1_555
C2 H3 1_555 1_555
C3 C2 1_555 1_555
H4 C3 1_555 1_555
C4 N1 1_555 1_555
C5 C4 1_555 1_555
C6 C5 1_555 1_555
H5 C6 1_555 1_555
C7 C6 1_555 1_555
H6 C7 1_555 1_555
C8 C7 1_555 1_555
H7 C8 1_555 1_555
C9 C8 1_555 1_555
C10 C1 1_555 1_555
C11 C1 1_555 1_555
C12 N2 1_555 1_555
C13 N2 1_555 1_555
C14 C13 1_555 1_555
H8 C14 1_555 1_555
C15 C14 1_555 1_555
H9 C15 1_555 1_555
C16 C15 1_555 1_555
C17 C16 1_555 1_555
H10 C17 1_555 1_555
C18 C13 1_555 1_555
H11 C18 1_555 1_555
C19 N3 1_555 1_555
H12 C19 1_555 1_555
H13 C19 1_555 1_555
C20 C19 1_555 1_555
H14 C20 1_555 1_555
H15 C20 1_555 1_555
C21 O3 1_555 1_555
H16 C21 1_555 1_555
H17 C21 1_555 1_555
C22 C21 1_555 1_555
H18 C22 1_555 1_555
H19 C22 1_555 1_555
C23 O4 1_555 1_555
H20 C23 1_555 1_555
H21 C23 1_555 1_555
C24 C23 1_555 1_555
H22 C24 1_555 1_555
H23 C24 1_555 1_555
C25 O5 1_555 1_555
H24 C25 1_555 1_555
H25 C25 1_555 1_555
C26 C25 1_555 1_555
H26 C26 1_555 1_555
H27 C26 1_555 1_555
C27 O6 1_555 1_555
H28 C27 1_555 1_555
H29 C27 1_555 1_555
C28 N3 1_555 1_555
H30 C28 1_555 1_555
H31 C28 1_555 1_555
C3 C4 1_555 1_555
C5 C10 1_555 1_555
C9 C10 1_555 1_555
C9 C12 1_555 1_555
C17 C18 1_555 1_555
C27 C28 1_555 1_555

#END
