
#######################################################################
#
#                 Cambridge Crystallographic Data Centre
#                                CCDC 
#
#######################################################################
#
# If this CIF has been generated from an entry in the Cambridge 
# Structural Database, then it will include bibliographic, chemical, 
# crystal, experimental, refinement or atomic coordinate data resulting 
# from the CCDC's data processing and validation procedures.
#
#######################################################################

data_CISCUF
_chemical_formula_moiety         'C27 H34 B1 N3 O2 S1'
_chemical_name_systematic        
{5-(but-3-en-1-ylidene)-1-[(4-methylphenyl)sulfonyl]-4-phenylpiperidin-3-yl}(1,3-dimethyl-1H-imidazol-3-ium-2-yl)dihydridoborate
_symmetry_cell_setting           monoclinic
_symmetry_space_group_name_H-M   'P 21'
_symmetry_Int_Tables_number      4
_space_group_name_Hall           'P 2yb'
loop_
_symmetry_equiv_pos_site_id
_symmetry_equiv_pos_as_xyz
1 x,y,z
2 -x,1/2+y,-z
_cell_length_a                   9.46590(10)
_cell_length_b                   8.50700(10)
_cell_length_c                   16.6850(2)
_cell_angle_alpha                90
_cell_angle_beta                 104.0680(10)
_cell_angle_gamma                90
_cell_volume                     1303.29
_exptl_crystal_colour            colorless
_exptl_crystal_description       block
_cell_formula_units_Z            2
_exptl_crystal_recrystallization_method 'ethylacetate/petroleum ether'
loop_
_atom_site_label
_atom_site_type_symbol
_atom_site_fract_x
_atom_site_fract_y
_atom_site_fract_z
S1 S 0.65716(7) 0.20228(11) 0.85719(4)
O1 O 0.6877(3) 0.0603(4) 0.81894(17)
O2 O 0.7707(3) 0.2790(4) 0.91671(16)
N1 N 0.5979(3) 0.3305(3) 0.78338(15)
N2 N -0.0201(3) 0.4188(4) 0.55825(18)
N3 N -0.0466(3) 0.3214(4) 0.67173(19)
C1 C 0.3306(3) 0.3440(3) 0.71429(16)
H1 H 0.3108 0.3185 0.7678
C2 C 0.4781(3) 0.2772(4) 0.71270(17)
H2 H 0.4728 0.1634 0.7135
H3 H 0.5014 0.3078 0.6614
C3 C 0.3345(3) 0.5244(3) 0.70604(16)
H4 H 0.3087 0.5488 0.6469
C4 C 0.5107(3) 0.1666(4) 0.90314(18)
C5 C 0.2217(3) 0.6050(4) 0.74414(18)
C6 C 0.0488(3) 0.3325(4) 0.62466(18)
C7 C 0.1159(4) 0.7021(5) 0.6967(2)
H5 H 0.1173 0.7226 0.6422
C8 C 0.4881(3) 0.5874(4) 0.74139(19)
C9 C 0.4058(4) 0.0576(4) 0.8683(2)
H6 H 0.4188 -0.0081 0.8262
C10 C 0.4950(4) 0.2599(5) 0.9680(2)
H7 H 0.5679 0.3302 0.9927
C11 C 0.5419(4) 0.7132(5) 0.7122(2)
H8 H 0.6382 0.7386 0.7371
C12 C 0.2814(4) 0.0477(6) 0.8970(2)
H9 H 0.2100 -0.0249 0.8732
C13 C 0.2195(4) 0.5835(5) 0.8264(2)
H10 H 0.2914 0.5229 0.8605
C14 C 0.5802(3) 0.4932(4) 0.8107(2)
H11 H 0.6751 0.5423 0.8292
H12 H 0.5347 0.4913 0.8569
C15 C 0.0086(4) 0.7689(6) 0.7288(3)
H13 H -0.0623 0.8317 0.6954
C16 C 0.2598(4) 0.1417(6) 0.9597(2)
C17 C 0.0059(4) 0.7433(6) 0.8098(3)
H14 H -0.0667 0.7879 0.8314
C18 C 0.3686(4) 0.2474(6) 0.9961(2)
H15 H 0.3568 0.3102 1.0396
C19 C 0.1119(5) 0.6509(6) 0.8582(2)
H16 H 0.1113 0.6333 0.9132
C20 C 0.4651(5) 0.8184(5) 0.6440(3)
H17 H 0.3798 0.7645 0.6117
H18 H 0.4322 0.9116 0.6676
B1 B 0.2082(3) 0.2554(4) 0.6415(2)
H19 H 0.2406 0.2577 0.5906
H20 H 0.2019 0.1461 0.6568
C21 C -0.0182(5) 0.2392(7) 0.7515(3)
H21 H 0.0671 0.1748 0.7577
H22 H -0.1002 0.1742 0.7535
H23 H -0.0028 0.3149 0.7955
C22 C 0.0410(5) 0.4676(6) 0.4900(2)
H24 H 0.0886 0.5673 0.5027
H25 H -0.0358 0.4770 0.4406
H26 H 0.1102 0.3907 0.4817
C23 C -0.1731(4) 0.4008(7) 0.6365(3)
H27 H -0.2545 0.4108 0.6581
C24 C -0.1565(4) 0.4609(7) 0.5653(3)
H28 H -0.2246 0.5200 0.5277
C25 C 0.1193(5) 0.1317(10) 0.9884(4)
H29 H 0.1216 0.2078 1.0312
H30 H 0.1097 0.0283 1.0095
H31 H 0.0379 0.1529 0.9427
C26 C 0.5708(8) 0.9771(11) 0.5409(4)
H32 H 0.5084 1.0632 0.5320
H33 H 0.6458 0.9705 0.5139
C27 C 0.5528(8) 0.8636(11) 0.5920(5)
H34 H 0.6237 0.7872 0.5937
loop_
_geom_bond_atom_site_label_1
_geom_bond_atom_site_label_2
_geom_bond_site_symmetry_1
_geom_bond_site_symmetry_2
S1 O1 1_555 1_555
O2 S1 1_555 1_555
N1 S1 1_555 1_555
N2 C6 1_555 1_555
N3 C6 1_555 1_555
C1 H1 1_555 1_555
C2 N1 1_555 1_555
H2 C2 1_555 1_555
H3 C2 1_555 1_555
C3 C1 1_555 1_555
H4 C3 1_555 1_555
C4 S1 1_555 1_555
C5 C3 1_555 1_555
C6 B1 1_555 1_555
C7 C5 1_555 1_555
H5 C7 1_555 1_555
C8 C3 1_555 1_555
C9 C4 1_555 1_555
H6 C9 1_555 1_555
C10 C4 1_555 1_555
H7 C10 1_555 1_555
C11 C8 1_555 1_555
H8 C11 1_555 1_555
C12 C9 1_555 1_555
H9 C12 1_555 1_555
C13 C5 1_555 1_555
H10 C13 1_555 1_555
C14 N1 1_555 1_555
H11 C14 1_555 1_555
H12 C14 1_555 1_555
C15 C7 1_555 1_555
H13 C15 1_555 1_555
C16 C12 1_555 1_555
C17 C15 1_555 1_555
H14 C17 1_555 1_555
C18 C10 1_555 1_555
H15 C18 1_555 1_555
C19 C13 1_555 1_555
H16 C19 1_555 1_555
C20 C11 1_555 1_555
H17 C20 1_555 1_555
H18 C20 1_555 1_555
B1 C1 1_555 1_555
H19 B1 1_555 1_555
H20 B1 1_555 1_555
C21 N3 1_555 1_555
H21 C21 1_555 1_555
H22 C21 1_555 1_555
H23 C21 1_555 1_555
C22 N2 1_555 1_555
H24 C22 1_555 1_555
H25 C22 1_555 1_555
H26 C22 1_555 1_555
C23 N3 1_555 1_555
H27 C23 1_555 1_555
C24 N2 1_555 1_555
H28 C24 1_555 1_555
C25 C16 1_555 1_555
H29 C25 1_555 1_555
H30 C25 1_555 1_555
H31 C25 1_555 1_555
C26 H32 1_555 1_555
H33 C26 1_555 1_555
C27 C20 1_555 1_555
H34 C27 1_555 1_555
C1 C2 1_555 1_555
C8 C14 1_555 1_555
C16 C18 1_555 1_555
C17 C19 1_555 1_555
C23 C24 1_555 1_555
C26 C27 1_555 1_555

#END
