
#######################################################################
#
#                 Cambridge Crystallographic Data Centre
#                                CCDC 
#
#######################################################################
#
# If this CIF has been generated from an entry in the Cambridge 
# Structural Database, then it will include bibliographic, chemical, 
# crystal, experimental, refinement or atomic coordinate data resulting 
# from the CCDC's data processing and validation procedures.
#
#######################################################################

data_CISPIG
_chemical_formula_moiety         'C20 H15 Br1 F1 N4'
_chemical_name_systematic        
'3-(3-bromo-4-fluorophenyl)-1,5-diphenylverdazyl radical'
_symmetry_cell_setting           monoclinic
_symmetry_space_group_name_H-M   'P 21/n'
_symmetry_Int_Tables_number      14
_space_group_name_Hall           '-P 2yn'
loop_
_symmetry_equiv_pos_site_id
_symmetry_equiv_pos_as_xyz
1 x,y,z
2 1/2-x,1/2+y,1/2-z
3 -x,-y,-z
4 1/2+x,1/2-y,1/2+z
_cell_length_a                   5.1529(16)
_cell_length_b                   32.894(10)
_cell_length_c                   10.343(3)
_cell_angle_alpha                90
_cell_angle_beta                 96.266(4)
_cell_angle_gamma                90
_cell_volume                     1742.66
_exptl_crystal_colour            green
_cell_formula_units_Z            4
_exptl_crystal_recrystallization_method acetonitrile
_exptl_crystal_preparation       'Magnetic properties'
loop_
_atom_site_label
_atom_site_type_symbol
_atom_site_fract_x
_atom_site_fract_y
_atom_site_fract_z
Br1 Br 0.54593(8) 0.075226(12) 0.50309(3)
F1 F 0.1159(4) 0.13807(7) 0.50007(18)
N1 N 0.6524(4) 0.09870(7) 0.0013(2)
N2 N 0.4815(4) 0.16440(6) -0.0582(2)
C1 C 0.4287(5) 0.13630(8) 0.1513(2)
N3 N 0.7625(4) 0.09761(7) -0.1112(2)
C2 C 0.5180(5) 0.18969(7) -0.2698(2)
C3 C 0.5597(6) 0.21921(10) -0.4783(3)
H1 H 0.6433 0.2200 -0.5535
N4 N 0.5897(4) 0.16086(6) -0.1718(2)
C4 C 0.5189(5) 0.10990(8) 0.2505(3)
H2 H 0.6512 0.0916 0.2378
C5 C 0.3152(5) 0.21661(8) -0.2559(3)
H3 H 0.2310 0.2161 -0.1808
C6 C 0.5354(4) 0.13384(8) 0.0242(2)
C7 C 0.8351(5) 0.05955(8) -0.1578(2)
C8 C 0.4149(5) 0.11046(9) 0.3682(3)
C9 C 0.2195(5) 0.13759(10) 0.3855(3)
C10 C 1.0188(6) 0.05578(9) -0.2446(3)
H4 H 1.1038 0.0787 -0.2719
C11 C 0.6421(6) 0.19133(9) -0.3818(3)
H5 H 0.7800 0.1738 -0.3923
C12 C 0.8230(5) 0.13586(8) -0.1691(3)
H6 H 0.8691 0.1317 -0.2565
H7 H 0.9685 0.1489 -0.1178
C13 C 0.2351(5) 0.16411(9) 0.1730(3)
H8 H 0.1763 0.1826 0.1082
C14 C 0.7166(6) 0.02497(9) -0.1154(3)
H9 H 0.5930 0.0271 -0.0566
C15 C 0.1296(6) 0.16443(10) 0.2899(3)
H10 H -0.0019 0.1828 0.3037
C16 C 1.0752(6) 0.01792(11) -0.2903(3)
H11 H 1.1979 0.0155 -0.3495
C17 C 0.2383(6) 0.24414(9) -0.3536(3)
H12 H 0.1025 0.2621 -0.3435
C18 C 0.9565(6) -0.01603(11) -0.2514(4)
H13 H 0.9928 -0.0413 -0.2858
C19 C 0.7828(7) -0.01277(11) -0.1609(4)
H14 H 0.7086 -0.0361 -0.1298
C20 C 0.3606(6) 0.24536(9) -0.4659(3)
H15 H 0.3074 0.2638 -0.5318
loop_
_geom_bond_atom_site_label_1
_geom_bond_atom_site_label_2
_geom_bond_site_symmetry_1
_geom_bond_site_symmetry_2
Br1 C8 1_555 1_555
F1 C9 1_555 1_555
N1 N3 1_555 1_555
N2 N4 1_555 1_555
C1 C4 1_555 1_555
N3 C7 1_555 1_555
C2 N4 1_555 1_555
C3 H1 1_555 1_555
N4 C12 1_555 1_555
C4 H2 1_555 1_555
C5 C2 1_555 1_555
H3 C5 1_555 1_555
C6 N1 1_555 1_555
C7 C10 1_555 1_555
C8 C4 1_555 1_555
C9 C8 1_555 1_555
C10 H4 1_555 1_555
C11 C2 1_555 1_555
H5 C11 1_555 1_555
C12 N3 1_555 1_555
H6 C12 1_555 1_555
H7 C12 1_555 1_555
C13 C1 1_555 1_555
H8 C13 1_555 1_555
C14 C7 1_555 1_555
H9 C14 1_555 1_555
C15 C9 1_555 1_555
H10 C15 1_555 1_555
C16 C10 1_555 1_555
H11 C16 1_555 1_555
C17 C5 1_555 1_555
H12 C17 1_555 1_555
C18 C16 1_555 1_555
H13 C18 1_555 1_555
C19 C14 1_555 1_555
H14 C19 1_555 1_555
C20 C3 1_555 1_555
H15 C20 1_555 1_555
N2 C6 1_555 1_555
C1 C6 1_555 1_555
C3 C11 1_555 1_555
C13 C15 1_555 1_555
C17 C20 1_555 1_555
C18 C19 1_555 1_555

#END
