
#######################################################################
#
#                 Cambridge Crystallographic Data Centre
#                                CCDC 
#
#######################################################################
#
# If this CIF has been generated from an entry in the Cambridge 
# Structural Database, then it will include bibliographic, chemical, 
# crystal, experimental, refinement or atomic coordinate data resulting 
# from the CCDC's data processing and validation procedures.
#
#######################################################################

data_CISZEL
_chemical_formula_moiety         'C50 H54 N2 Si2'
_chemical_name_systematic        
8,16-bis((triisopropylsilyl)ethynyl)benzo[5,6]acridino[2,1,9,8-klmna]benzo[h]acridine
_symmetry_cell_setting           monoclinic
_symmetry_space_group_name_H-M   'C 2/c'
_symmetry_Int_Tables_number      15
_space_group_name_Hall           '-C 2yn'
loop_
_symmetry_equiv_pos_site_id
_symmetry_equiv_pos_as_xyz
1 x,y,z
2 -x,y,1/2-z
3 1/2+x,1/2+y,z
4 1/2-x,1/2+y,1/2-z
5 -x,-y,-z
6 x,-y,1/2+z
7 1/2-x,1/2-y,-z
8 1/2+x,1/2-y,1/2+z
_cell_length_a                   38.970(3)
_cell_length_b                   7.7845(6)
_cell_length_c                   29.422(2)
_cell_angle_alpha                90
_cell_angle_beta                 114.726(4)
_cell_angle_gamma                90
_cell_volume                     8107.21
_exptl_crystal_colour            brown
_exptl_crystal_description       needle
_cell_formula_units_Z            8
loop_
_atom_site_label
_atom_site_type_symbol
_atom_site_fract_x
_atom_site_fract_y
_atom_site_fract_z
Si1 Si 0.04738(3) 0.22559(12) 0.42424(3)
N1 N 0.25148(8) 0.8159(4) 0.58519(10)
C1 C 0.14904(10) 0.5542(4) 0.50369(12)
C2 C 0.17354(10) 0.5865(4) 0.48094(12)
C3 C 0.16559(10) 0.5350(4) 0.43053(12)
H1 H 0.1426 0.4768 0.4115
C4 C 0.18986(10) 0.5667(4) 0.40933(12)
H2 H 0.1835 0.5301 0.3760
C5 C 0.22496(10) 0.6547(4) 0.43629(12)
C6 C 0.23314(9) 0.7065(4) 0.48627(11)
C7 C 0.20829(10) 0.6759(4) 0.50880(11)
C8 C 0.21852(9) 0.7325(4) 0.55819(11)
C9 C 0.19298(10) 0.7020(4) 0.58123(12)
C10 C 0.20131(10) 0.7587(4) 0.63003(12)
H3 H 0.2243 0.8176 0.6485
C11 C 0.17654(11) 0.7301(5) 0.65141(12)
H4 H 0.1825 0.7695 0.6844
C12 C 0.14269(11) 0.6431(5) 0.62480(12)
H5 H 0.1256 0.6240 0.6398
C13 C 0.13384(10) 0.5849(4) 0.57726(12)
H6 H 0.1107 0.5254 0.5597
C14 C 0.15867(10) 0.6123(4) 0.55406(12)
C15 C 0.11515(10) 0.4590(4) 0.47770(12)
C16 C 0.08690(11) 0.3753(5) 0.45602(12)
C17 C 0.00752(10) 0.2935(5) 0.44093(12)
H7 H 0.0026 0.4174 0.4314
C18 C 0.01783(13) 0.2848(6) 0.49705(13)
H8 H -0.0025 0.3359 0.5039
H9 H 0.0413 0.3483 0.5153
H10 H 0.0213 0.1645 0.5079
C19 C -0.02965(11) 0.1987(5) 0.41120(14)
H11 H -0.0269 0.0775 0.4211
H12 H -0.0360 0.2073 0.3753
H13 H -0.0499 0.2505 0.4181
C20 C 0.06787(11) 0.0036(5) 0.44489(14)
H14 H 0.0874 -0.0114 0.4315
C21 C 0.08869(13) -0.0184(6) 0.50137(15)
H15 H 0.0706 -0.0127 0.5165
H16 H 0.1074 0.0734 0.5151
H17 H 0.1015 -0.1301 0.5088
C22 C 0.03916(13) -0.1414(5) 0.42143(18)
H18 H 0.0521 -0.2526 0.4301
H19 H 0.0274 -0.1280 0.3850
H20 H 0.0197 -0.1363 0.4343
C23 C 0.03238(11) 0.2494(5) 0.35486(13)
H21 H 0.0137 0.1560 0.3381
C24 C 0.06499(12) 0.2259(6) 0.34002(14)
H22 H 0.0559 0.2419 0.3038
H23 H 0.0754 0.1099 0.3491
H24 H 0.0847 0.3107 0.3576
C25 C 0.01230(12) 0.4199(5) 0.33536(14)
H25 H 0.0289 0.5148 0.3535
H26 H -0.0110 0.4241 0.3405
H27 H 0.0061 0.4303 0.2996
Si1F Si 0.45262(3) 1.27441(12) 0.57576(3)
N1F N 0.24852(8) 0.6841(4) 0.41481(10)
C1F C 0.35096(10) 0.9458(4) 0.49631(12)
C2F C 0.32646(10) 0.9135(4) 0.51906(12)
C3F C 0.33441(10) 0.9650(4) 0.56947(12)
H1F H 0.3574 1.0232 0.5885
C4F C 0.31014(10) 0.9333(4) 0.59067(12)
H2F H 0.3165 0.9699 0.6240
C5F C 0.27504(10) 0.8453(4) 0.56371(12)
C6F C 0.26686(9) 0.7935(4) 0.51373(11)
C7F C 0.29171(10) 0.8241(4) 0.49120(11)
C8F C 0.28148(9) 0.7675(4) 0.44181(11)
C9F C 0.30702(10) 0.7980(4) 0.41877(12)
C10F C 0.29869(10) 0.7413(4) 0.36997(12)
H3F H 0.2757 0.6824 0.3515
C11F C 0.32346(11) 0.7699(5) 0.34859(12)
H4F H 0.3175 0.7305 0.3156
C12F C 0.35731(11) 0.8569(5) 0.37520(12)
H5F H 0.3744 0.8760 0.3602
C13F C 0.36616(10) 0.9151(4) 0.42274(12)
H6F H 0.3893 0.9746 0.4403
C14F C 0.34133(10) 0.8877(4) 0.44594(12)
C15F C 0.38485(10) 1.0410(4) 0.52230(12)
C16F C 0.41310(11) 1.1247(5) 0.54398(12)
C17F C 0.49248(10) 1.2065(5) 0.55907(12)
H7F H 0.4974 1.0826 0.5686
C18F C 0.48217(13) 1.2152(6) 0.50295(13)
H8F H 0.5025 1.1641 0.4961
H9F H 0.4587 1.1517 0.4847
H10F H 0.4787 1.3355 0.4921
C19F C 0.52965(11) 1.3013(5) 0.58880(14)
H11F H 0.5269 1.4225 0.5789
H12F H 0.5360 1.2927 0.6247
H13F H 0.5499 1.2495 0.5819
C20F C 0.43213(11) 1.4964(5) 0.55511(14)
H14F H 0.4126 1.5114 0.5685
C21F C 0.41131(13) 1.5184(6) 0.49863(15)
H15F H 0.4294 1.5127 0.4835
H16F H 0.3926 1.4266 0.4849
H17F H 0.3985 1.6301 0.4912
C22F C 0.46084(13) 1.6414(5) 0.57857(18)
H18F H 0.4479 1.7526 0.5699
H19F H 0.4726 1.6280 0.6150
H20F H 0.4803 1.6363 0.5657
C23F C 0.46762(11) 1.2506(5) 0.64514(13)
H21F H 0.4863 1.3440 0.6619
C24F C 0.43501(12) 1.2741(6) 0.65998(14)
H22F H 0.4441 1.2581 0.6962
H23F H 0.4246 1.3901 0.6509
H24F H 0.4153 1.1893 0.6424
C25F C 0.48770(12) 1.0801(5) 0.66464(14)
H25F H 0.4711 0.9852 0.6465
H26F H 0.5110 1.0759 0.6595
H27F H 0.4939 1.0697 0.7004
Si2 Si 0.11069(3) -0.28625(12) 0.24245(3)
N2 N 0.29382(8) 0.3148(3) 0.45826(10)
C26 C 0.20080(10) 0.0453(4) 0.35227(12)
C27 C 0.23107(10) 0.1025(4) 0.34012(12)
C28 C 0.23032(10) 0.0689(5) 0.29239(12)
H28 H 0.2102 0.0035 0.2687
C29 C 0.25826(10) 0.1297(5) 0.28008(13)
H29 H 0.2575 0.1061 0.2480
C30 C 0.28793(10) 0.2261(5) 0.31444(13)
H30 H 0.3069 0.2701 0.3053
C31 C 0.29000(10) 0.2577(5) 0.36110(13)
H31 H 0.3108 0.3207 0.3844
C32 C 0.26169(10) 0.1980(4) 0.37524(12)
C33 C 0.26341(9) 0.2300(4) 0.42430(12)
C34 C 0.23305(10) 0.1731(4) 0.43492(12)
C35 C 0.23448(9) 0.2059(4) 0.48263(11)
C36 C 0.20521(10) 0.1554(4) 0.49666(12)
C37 C 0.17346(10) 0.0662(4) 0.45953(12)
H32 H 0.1533 0.0307 0.4674
C38 C 0.17195(10) 0.0323(4) 0.41382(12)
H33 H 0.1506 -0.0270 0.3904
C39 C 0.20139(9) 0.0823(4) 0.39895(11)
C40 C 0.17019(10) -0.0516(4) 0.31614(12)
C41 C 0.14522(10) -0.1341(5) 0.28554(12)
C42 C 0.06419(11) -0.2467(5) 0.24595(13)
H34 H 0.0460 -0.3355 0.2248
C43 C 0.04757(11) -0.0705(5) 0.22556(14)
H35 H 0.0239 -0.0547 0.2292
H36 H 0.0426 -0.0631 0.1901
H37 H 0.0656 0.0193 0.2443
C44 C 0.06787(13) -0.2681(5) 0.29916(15)
H38 H 0.0873 -0.1898 0.3214
H39 H 0.0750 -0.3868 0.3101
H40 H 0.0436 -0.2415 0.3003
C45 C 0.13006(10) -0.5054(4) 0.26805(12)
H41 H 0.1315 -0.5110 0.3028
C46 C 0.10433(12) -0.6539(5) 0.23859(13)
H42 H 0.1037 -0.6588 0.2050
H43 H 0.0787 -0.6350 0.2360
H44 H 0.1142 -0.7625 0.2560
C47 C 0.17024(11) -0.5289(5) 0.27260(13)
H45 H 0.1803 -0.6390 0.2889
H46 H 0.1862 -0.4352 0.2926
H47 H 0.1700 -0.5277 0.2392
C48 C 0.10845(10) -0.2565(5) 0.17786(12)
H48 H 0.1296 -0.3265 0.1766
C49 C 0.07209(11) -0.3271(5) 0.13655(13)
H49 H 0.0504 -0.2607 0.1356
H50 H 0.0690 -0.4479 0.1434
H51 H 0.0736 -0.3179 0.1042
C50 C 0.11527(11) -0.0715(5) 0.16567(13)
H52 H 0.1153 -0.0679 0.1324
H53 H 0.1397 -0.0313 0.1907
H54 H 0.0951 0.0029 0.1662
Si2F Si 0.38931(3) 0.78625(12) 0.75755(3)
N2F N 0.20618(8) 0.1852(3) 0.54174(10)
C26F C 0.29920(10) 0.4547(4) 0.64773(12)
C27F C 0.26893(10) 0.3975(4) 0.65988(12)
C28F C 0.26968(10) 0.4311(5) 0.70761(12)
H28F H 0.2898 0.4965 0.7313
C29F C 0.24174(10) 0.3703(5) 0.71992(13)
H29F H 0.2425 0.3939 0.7520
C30F C 0.21207(10) 0.2739(5) 0.68556(13)
H30F H 0.1931 0.2299 0.6947
C31F C 0.21000(10) 0.2423(5) 0.63890(13)
H31F H 0.1892 0.1793 0.6156
C32F C 0.23831(10) 0.3020(4) 0.62476(12)
C33F C 0.23659(9) 0.2700(4) 0.57570(12)
C34F C 0.26695(10) 0.3269(4) 0.56508(12)
C35F C 0.26552(9) 0.2941(4) 0.51737(11)
C36F C 0.29479(10) 0.3446(4) 0.50334(12)
C37F C 0.32654(10) 0.4338(4) 0.54047(12)
H32F H 0.3467 0.4693 0.5326
C38F C 0.32805(10) 0.4677(4) 0.58618(12)
H33F H 0.3494 0.5270 0.6096
C39F C 0.29861(9) 0.4177(4) 0.60105(11)
C40F C 0.32981(10) 0.5516(4) 0.68386(12)
C41F C 0.35478(10) 0.6341(5) 0.71446(12)
C42F C 0.43581(11) 0.7467(5) 0.75405(13)
H34F H 0.4540 0.8355 0.7752
C43F C 0.45243(11) 0.5705(5) 0.77444(14)
H35F H 0.4761 0.5547 0.7708
H36F H 0.4574 0.5631 0.8099
H37F H 0.4344 0.4807 0.7557
C44F C 0.43213(13) 0.7681(5) 0.70084(15)
H38F H 0.4127 0.6898 0.6786
H39F H 0.4250 0.8868 0.6899
H40F H 0.4564 0.7415 0.6997
C45F C 0.36994(10) 1.0054(4) 0.73195(12)
H41F H 0.3685 1.0110 0.6972
C46F C 0.39567(12) 1.1539(5) 0.76141(13)
H42F H 0.3963 1.1588 0.7950
H43F H 0.4213 1.1350 0.7640
H44F H 0.3858 1.2625 0.7440
C47F C 0.32976(11) 1.0289(5) 0.72740(13)
H45F H 0.3197 1.1390 0.7111
H46F H 0.3138 0.9352 0.7074
H47F H 0.3300 1.0277 0.7608
C48F C 0.39155(10) 0.7565(5) 0.82214(12)
H48F H 0.3704 0.8265 0.8234
C49F C 0.42791(11) 0.8271(5) 0.86345(13)
H49F H 0.4496 0.7607 0.8644
H50F H 0.4310 0.9479 0.8566
H51F H 0.4264 0.8179 0.8958
C50F C 0.38473(11) 0.5715(5) 0.83433(13)
H52F H 0.3847 0.5679 0.8676
H53F H 0.3603 0.5313 0.8093
H54F H 0.4049 0.4971 0.8338
loop_
_geom_bond_atom_site_label_1
_geom_bond_atom_site_label_2
_geom_bond_site_symmetry_1
_geom_bond_site_symmetry_2
Si1 C16 1_555 1_555
N1 C8 1_555 1_555
C1 C2 1_555 1_555
C2 C3 1_555 1_555
C3 H1 1_555 1_555
C4 C3 1_555 1_555
H2 C4 1_555 1_555
C5 C4 1_555 1_555
C6 C5 1_555 1_555
C7 C2 1_555 1_555
C8 C7 1_555 1_555
C9 C8 1_555 1_555
C10 C9 1_555 1_555
H3 C10 1_555 1_555
C11 C10 1_555 1_555
H4 C11 1_555 1_555
C12 C11 1_555 1_555
H5 C12 1_555 1_555
C13 C12 1_555 1_555
H6 C13 1_555 1_555
C14 C1 1_555 1_555
C15 C1 1_555 1_555
C16 C15 1_555 1_555
C17 Si1 1_555 1_555
H7 C17 1_555 1_555
C18 C17 1_555 1_555
H8 C18 1_555 1_555
H9 C18 1_555 1_555
H10 C18 1_555 1_555
C19 C17 1_555 1_555
H11 C19 1_555 1_555
H12 C19 1_555 1_555
H13 C19 1_555 1_555
C20 Si1 1_555 1_555
H14 C20 1_555 1_555
C21 C20 1_555 1_555
H15 C21 1_555 1_555
H16 C21 1_555 1_555
H17 C21 1_555 1_555
C22 C20 1_555 1_555
H18 C22 1_555 1_555
H19 C22 1_555 1_555
H20 C22 1_555 1_555
C23 Si1 1_555 1_555
H21 C23 1_555 1_555
C24 C23 1_555 1_555
H22 C24 1_555 1_555
H23 C24 1_555 1_555
H24 C24 1_555 1_555
C25 C23 1_555 1_555
H25 C25 1_555 1_555
H26 C25 1_555 1_555
H27 C25 1_555 1_555
Si2 C41 1_555 1_555
N2 C33 1_555 1_555
C26 C27 1_555 1_555
C27 C28 1_555 1_555
C28 H28 1_555 1_555
C29 C28 1_555 1_555
H29 C29 1_555 1_555
C30 C29 1_555 1_555
H30 C30 1_555 1_555
C31 C30 1_555 1_555
H31 C31 1_555 1_555
C32 C27 1_555 1_555
C33 C32 1_555 1_555
C34 C33 1_555 1_555
C35 C34 1_555 1_555
C36 C35 1_555 1_555
C37 C36 1_555 1_555
H32 C37 1_555 1_555
C38 C37 1_555 1_555
H33 C38 1_555 1_555
C39 C26 1_555 1_555
C40 C26 1_555 1_555
C41 C40 1_555 1_555
C42 Si2 1_555 1_555
H34 C42 1_555 1_555
C43 C42 1_555 1_555
H35 C43 1_555 1_555
H36 C43 1_555 1_555
H37 C43 1_555 1_555
C44 C42 1_555 1_555
H38 C44 1_555 1_555
H39 C44 1_555 1_555
H40 C44 1_555 1_555
C45 Si2 1_555 1_555
H41 C45 1_555 1_555
C46 C45 1_555 1_555
H42 C46 1_555 1_555
H43 C46 1_555 1_555
H44 C46 1_555 1_555
C47 C45 1_555 1_555
H45 C47 1_555 1_555
H46 C47 1_555 1_555
H47 C47 1_555 1_555
C48 Si2 1_555 1_555
H48 C48 1_555 1_555
C49 C48 1_555 1_555
H49 C49 1_555 1_555
H50 C49 1_555 1_555
H51 C49 1_555 1_555
C50 C48 1_555 1_555
H52 C50 1_555 1_555
H53 C50 1_555 1_555
H54 C50 1_555 1_555
Si1F C16F 1_555 1_555
N1F C5 1_555 1_555
C1F C2F 1_555 1_555
C2F C3F 1_555 1_555
C3F H1F 1_555 1_555
C4F C3F 1_555 1_555
H2F C4F 1_555 1_555
C5F N1 1_555 1_555
C6F C6 1_555 1_555
C7F C2F 1_555 1_555
C8F N1F 1_555 1_555
C9F C8F 1_555 1_555
C10F C9F 1_555 1_555
H3F C10F 1_555 1_555
C11F C10F 1_555 1_555
H4F C11F 1_555 1_555
C12F C11F 1_555 1_555
H5F C12F 1_555 1_555
C13F C12F 1_555 1_555
H6F C13F 1_555 1_555
C14F C1F 1_555 1_555
C15F C1F 1_555 1_555
C16F C15F 1_555 1_555
C17F Si1F 1_555 1_555
H7F C17F 1_555 1_555
C18F C17F 1_555 1_555
H8F C18F 1_555 1_555
H9F C18F 1_555 1_555
H10F C18F 1_555 1_555
C19F C17F 1_555 1_555
H11F C19F 1_555 1_555
H12F C19F 1_555 1_555
H13F C19F 1_555 1_555
C20F Si1F 1_555 1_555
H14F C20F 1_555 1_555
C21F C20F 1_555 1_555
H15F C21F 1_555 1_555
H16F C21F 1_555 1_555
H17F C21F 1_555 1_555
C22F C20F 1_555 1_555
H18F C22F 1_555 1_555
H19F C22F 1_555 1_555
H20F C22F 1_555 1_555
C23F Si1F 1_555 1_555
H21F C23F 1_555 1_555
C24F C23F 1_555 1_555
H22F C24F 1_555 1_555
H23F C24F 1_555 1_555
H24F C24F 1_555 1_555
C25F C23F 1_555 1_555
H25F C25F 1_555 1_555
H26F C25F 1_555 1_555
H27F C25F 1_555 1_555
Si2F C41F 1_555 1_555
N2F C36 1_555 1_555
C26F C27F 1_555 1_555
C27F C28F 1_555 1_555
C28F H28F 1_555 1_555
C29F C28F 1_555 1_555
H29F C29F 1_555 1_555
C30F C29F 1_555 1_555
H30F C30F 1_555 1_555
C31F C30F 1_555 1_555
H31F C31F 1_555 1_555
C32F C27F 1_555 1_555
C33F N2F 1_555 1_555
C34F C33F 1_555 1_555
C35F C35 1_555 1_555
C36F N2 1_555 1_555
C37F C36F 1_555 1_555
H32F C37F 1_555 1_555
C38F C37F 1_555 1_555
H33F C38F 1_555 1_555
C39F C26F 1_555 1_555
C40F C26F 1_555 1_555
C41F C40F 1_555 1_555
C42F Si2F 1_555 1_555
H34F C42F 1_555 1_555
C43F C42F 1_555 1_555
H35F C43F 1_555 1_555
H36F C43F 1_555 1_555
H37F C43F 1_555 1_555
C44F C42F 1_555 1_555
H38F C44F 1_555 1_555
H39F C44F 1_555 1_555
H40F C44F 1_555 1_555
C45F Si2F 1_555 1_555
H41F C45F 1_555 1_555
C46F C45F 1_555 1_555
H42F C46F 1_555 1_555
H43F C46F 1_555 1_555
H44F C46F 1_555 1_555
C47F C45F 1_555 1_555
H45F C47F 1_555 1_555
H46F C47F 1_555 1_555
H47F C47F 1_555 1_555
C48F Si2F 1_555 1_555
H48F C48F 1_555 1_555
C49F C48F 1_555 1_555
H49F C49F 1_555 1_555
H50F C49F 1_555 1_555
H51F C49F 1_555 1_555
C50F C48F 1_555 1_555
H52F C50F 1_555 1_555
H53F C50F 1_555 1_555
H54F C50F 1_555 1_555
C6 C7 1_555 1_555
C9 C14 1_555 1_555
C13 C14 1_555 1_555
C31 C32 1_555 1_555
C34 C39 1_555 1_555
C38 C39 1_555 1_555
C4F C5F 1_555 1_555
C5F C6F 1_555 1_555
C6F C7F 1_555 1_555
C7F C8F 1_555 1_555
C9F C14F 1_555 1_555
C13F C14F 1_555 1_555
C31F C32F 1_555 1_555
C32F C33F 1_555 1_555
C34F C35F 1_555 1_555
C34F C39F 1_555 1_555
C35F C36F 1_555 1_555
C38F C39F 1_555 1_555

#END
