
#######################################################################
#
#                 Cambridge Crystallographic Data Centre
#                                CCDC 
#
#######################################################################
#
# If this CIF has been generated from an entry in the Cambridge 
# Structural Database, then it will include bibliographic, chemical, 
# crystal, experimental, refinement or atomic coordinate data resulting 
# from the CCDC's data processing and validation procedures.
#
#######################################################################

data_CITPOL
_chemical_formula_moiety         'C16 H15 N1 O3'
_chemical_name_systematic        
N-(4-Methoxyphenyl)-6-(furan-2-yl)-2,3-dihydro-4(1H)-pyridone
_symmetry_cell_setting           orthorhombic
_symmetry_space_group_name_H-M   'P 21 21 21'
_symmetry_Int_Tables_number      19
_space_group_name_Hall           'P 2ac 2ab'
loop_
_symmetry_equiv_pos_site_id
_symmetry_equiv_pos_as_xyz
1 x,y,z
2 1/2-x,-y,1/2+z
3 -x,1/2+y,1/2-z
4 1/2+x,1/2-y,-z
_cell_length_a                   5.2440(14)
_cell_length_b                   14.602(3)
_cell_length_c                   16.980(3)
_cell_angle_alpha                90
_cell_angle_beta                 90
_cell_angle_gamma                90
_cell_volume                     1300.21
_exptl_crystal_colour            yellow
_exptl_crystal_description       needle
_cell_formula_units_Z            4
loop_
_atom_site_label
_atom_site_type_symbol
_atom_site_fract_x
_atom_site_fract_y
_atom_site_fract_z
O1 O -0.2012(3) 0.66183(10) 0.96197(8)
O2 O 0.9030(3) 0.14604(10) 0.86326(9)
O3 O 0.6262(3) 0.44742(9) 0.73220(8)
N1 N 0.4835(3) 0.38219(11) 0.88519(9)
C1 C -0.3799(4) 0.69525(14) 0.90548(13)
H1 H -0.4951 0.7373 0.9305
H2 H -0.4747 0.6449 0.8839
H3 H -0.2903 0.7261 0.8639
C2 C -0.0369(4) 0.59441(13) 0.93761(12)
C3 C 0.1071(4) 0.55327(14) 0.99702(12)
H4 H 0.0883 0.5730 1.0488
C4 C 0.2763(4) 0.48374(13) 0.98006(12)
H5 H 0.3675 0.4559 1.0205
C5 C 0.3114(4) 0.45503(13) 0.90195(12)
C6 C 0.1688(4) 0.49642(14) 0.84286(12)
H6 H 0.1908 0.4781 0.7908
C7 C -0.0069(4) 0.56495(13) 0.86077(12)
H7 H -0.1042 0.5911 0.8209
C8 C 0.6917(4) 0.36507(13) 0.93039(12)
H8 H 0.7332 0.4077 0.9690
C9 C 0.8436(4) 0.29022(13) 0.92360(12)
H9 H 0.9954 0.2873 0.9518
C10 C 0.7725(4) 0.21567(14) 0.87315(12)
C11 C 0.5117(4) 0.22477(14) 0.83527(13)
H10 H 0.3829 0.2019 0.8712
H11 H 0.5060 0.1878 0.7879
C12 C 0.4523(4) 0.32440(13) 0.81438(11)
H12 H 0.2754 0.3287 0.7961
C13 C 0.6276(4) 0.35567(13) 0.74984(11)
C14 C 0.7935(4) 0.31186(15) 0.70200(12)
H13 H 0.8301 0.2495 0.7021
C15 C 0.9008(4) 0.37922(15) 0.65144(13)
H14 H 1.0204 0.3694 0.6119
C16 C 0.7962(4) 0.45943(15) 0.67196(12)
H15 H 0.8340 0.5154 0.6486
loop_
_geom_bond_atom_site_label_1
_geom_bond_atom_site_label_2
_geom_bond_site_symmetry_1
_geom_bond_site_symmetry_2
O1 C1 1_555 1_555
O2 C10 1_555 1_555
O3 C13 1_555 1_555
N1 C5 1_555 1_555
C1 H1 1_555 1_555
H2 C1 1_555 1_555
H3 C1 1_555 1_555
C2 O1 1_555 1_555
C3 C2 1_555 1_555
H4 C3 1_555 1_555
C4 C3 1_555 1_555
H5 C4 1_555 1_555
C5 C4 1_555 1_555
C6 C5 1_555 1_555
H6 C6 1_555 1_555
C7 C2 1_555 1_555
H7 C7 1_555 1_555
C8 N1 1_555 1_555
H8 C8 1_555 1_555
C9 C8 1_555 1_555
H9 C9 1_555 1_555
C10 C9 1_555 1_555
C11 C10 1_555 1_555
H10 C11 1_555 1_555
H11 C11 1_555 1_555
C12 N1 1_555 1_555
H12 C12 1_555 1_555
C13 C12 1_555 1_555
C14 C13 1_555 1_555
H13 C14 1_555 1_555
C15 C14 1_555 1_555
H14 C15 1_555 1_555
C16 O3 1_555 1_555
H15 C16 1_555 1_555
C6 C7 1_555 1_555
C11 C12 1_555 1_555
C15 C16 1_555 1_555

#END
