
#######################################################################
#
#                 Cambridge Crystallographic Data Centre
#                                CCDC 
#
#######################################################################
#
# If this CIF has been generated from an entry in the Cambridge 
# Structural Database, then it will include bibliographic, chemical, 
# crystal, experimental, refinement or atomic coordinate data resulting 
# from the CCDC's data processing and validation procedures.
#
#######################################################################

data_CIVNAZ
_chemical_formula_moiety         'C22 H18 B1 N5 S3,0.5(C6 H14)'
_chemical_name_systematic        
"5,5-di-isothiocyanato-1,3,7,9-tetramethyl-10-phenyl-5H-6\l^5^,5\l^5^-dipyrrolo[1,2-c:2',1'-f][1,3,2]diazaborinin-2-yl thiocyanate n-hexane solvate"
_symmetry_cell_setting           triclinic
_symmetry_space_group_name_H-M   'P -1'
_symmetry_Int_Tables_number      2
_space_group_name_Hall           '-P 1'
loop_
_symmetry_equiv_pos_site_id
_symmetry_equiv_pos_as_xyz
1 x,y,z
2 -x,-y,-z
_cell_length_a                   7.2983(5)
_cell_length_b                   11.7839(6)
_cell_length_c                   15.5910(9)
_cell_angle_alpha                78.025(4)
_cell_angle_beta                 84.912(5)
_cell_angle_gamma                75.269(4)
_cell_volume                     1267.65
_exptl_crystal_colour            orange
_exptl_crystal_description       plate
_cell_formula_units_Z            2
_exptl_crystal_recrystallization_method 
'Re-crystallisation from solvent: dichloromethane/hexane'
loop_
_atom_site_label
_atom_site_type_symbol
_atom_site_fract_x
_atom_site_fract_y
_atom_site_fract_z
S1 S 0.49315(11) 0.33386(6) 1.05614(4)
S2 S 0.11660(10) 0.55438(7) 0.61258(5)
N1 N 0.5761(3) 0.49276(17) 0.74335(13)
N2 N 0.8605(3) 0.49067(18) 0.82051(14)
N3 N 0.8514(3) 0.31509(19) 0.75562(15)
N4 N 0.6515(3) 0.35620(18) 0.88765(14)
N5 N 0.2704(5) 0.4724(4) 0.4576(2)
C1 C 0.4381(4) 0.4581(2) 0.71219(17)
C2 C 0.3244(4) 0.5573(2) 0.66051(17)
C3 C 0.3952(4) 0.6570(2) 0.65770(17)
C4 C 0.5547(4) 0.6157(2) 0.71091(16)
C5 C 0.6848(4) 0.6741(2) 0.73176(16)
C6 C 0.8344(4) 0.6132(2) 0.78581(16)
C7 C 0.9790(4) 0.6520(2) 0.81993(17)
C8 C 1.0861(4) 0.5530(3) 0.87234(18)
H1 H 1.1938 0.5513 0.9031
C9 C 1.0098(4) 0.4550(2) 0.87277(18)
C10 C 0.4204(4) 0.3323(2) 0.7288(2)
H2 H 0.5165 0.2863 0.6930
H3 H 0.2938 0.3308 0.7134
H4 H 0.4392 0.2968 0.7910
C11 C 0.3187(4) 0.7788(3) 0.6046(2)
H5 H 0.4077 0.7953 0.5555
H6 H 0.3024 0.8387 0.6417
H7 H 0.1960 0.7822 0.5820
C12 C 0.6625(4) 0.8035(2) 0.69420(17)
C13 C 0.5619(5) 0.8889(2) 0.7403(2)
H8 H 0.5058 0.8652 0.7963
C14 C 0.5424(6) 1.0094(3) 0.7051(2)
H9 H 0.4740 1.0680 0.7373
C15 C 0.6219(5) 1.0441(3) 0.6237(2)
H10 H 0.6074 1.1267 0.5996
C16 C 0.7233(5) 0.9588(3) 0.5766(2)
H11 H 0.7798 0.9827 0.5207
C17 C 0.7411(4) 0.8397(2) 0.61142(18)
H12 H 0.8078 0.7812 0.5787
C18 C 1.0119(4) 0.7744(3) 0.8044(2)
H13 H 0.9083 0.8266 0.8326
H14 H 1.0168 0.8061 0.7412
H15 H 1.1324 0.7709 0.8293
C19 C 1.0770(4) 0.3301(2) 0.9218(2)
H16 H 0.9869 0.3140 0.9706
H17 H 1.2019 0.3202 0.9449
H18 H 1.0862 0.2741 0.8823
S3 S 1.04525(16) 0.19400(14) 0.62822(11)
C20 C 0.9316(5) 0.2664(3) 0.6997(2)
C21 C 0.5851(4) 0.3480(2) 0.95902(18)
B1 B 0.7355(4) 0.4128(2) 0.80176(19)
C22 C 0.2116(4) 0.5065(3) 0.5209(2)
S4? S 1.0641(10) 0.1330(8) 0.6789(6)
C23? C 0.945(4) 0.2328(17) 0.7292(15)
loop_
_geom_bond_atom_site_label_1
_geom_bond_atom_site_label_2
_geom_bond_site_symmetry_1
_geom_bond_site_symmetry_2
S1 C21 1_555 1_555
S2 C2 1_555 1_555
N1 C1 1_555 1_555
N2 C6 1_555 1_555
N3 C20 1_555 1_555
N4 C21 1_555 1_555
N5 C22 1_555 1_555
C1 C2 1_555 1_555
C2 C3 1_555 1_555
C3 C4 1_555 1_555
C4 N1 1_555 1_555
C5 C4 1_555 1_555
C6 C5 1_555 1_555
C7 C6 1_555 1_555
C8 C7 1_555 1_555
H1 C8 1_555 1_555
C9 N2 1_555 1_555
C10 C1 1_555 1_555
H2 C10 1_555 1_555
H3 C10 1_555 1_555
H4 C10 1_555 1_555
C11 C3 1_555 1_555
H5 C11 1_555 1_555
H6 C11 1_555 1_555
H7 C11 1_555 1_555
C12 C5 1_555 1_555
C13 C12 1_555 1_555
H8 C13 1_555 1_555
C14 C13 1_555 1_555
H9 C14 1_555 1_555
C15 C14 1_555 1_555
H10 C15 1_555 1_555
C16 C15 1_555 1_555
H11 C16 1_555 1_555
C17 C12 1_555 1_555
H12 C17 1_555 1_555
C18 C7 1_555 1_555
H13 C18 1_555 1_555
H14 C18 1_555 1_555
H15 C18 1_555 1_555
C19 C9 1_555 1_555
H16 C19 1_555 1_555
H17 C19 1_555 1_555
H18 C19 1_555 1_555
S3 C20 1_555 1_555
B1 N1 1_555 1_555
C22 S2 1_555 1_555
N2 B1 1_555 1_555
N3 B1 1_555 1_555
N4 B1 1_555 1_555
C8 C9 1_555 1_555
C16 C17 1_555 1_555

#END
