
#######################################################################
#
#                 Cambridge Crystallographic Data Centre
#                                CCDC 
#
#######################################################################
#
# If this CIF has been generated from an entry in the Cambridge 
# Structural Database, then it will include bibliographic, chemical, 
# crystal, experimental, refinement or atomic coordinate data resulting 
# from the CCDC's data processing and validation procedures.
#
#######################################################################

data_CIWKUP
_chemical_formula_moiety         'C28 H26 O12'
_chemical_name_systematic        
7,4'-bis(Acetoxy)-8,3',5'-tris(acetoxymethyl)isoflavone
_symmetry_cell_setting           monoclinic
_symmetry_space_group_name_H-M   'P 21/c'
_symmetry_Int_Tables_number      14
_space_group_name_Hall           '-P 2ybc'
loop_
_symmetry_equiv_pos_site_id
_symmetry_equiv_pos_as_xyz
1 x,y,z
2 -x,1/2+y,1/2-z
3 -x,-y,-z
4 x,1/2-y,1/2+z
_cell_length_a                   17.987(3)
_cell_length_b                   17.972(3)
_cell_length_c                   8.4087(11)
_cell_angle_alpha                90
_cell_angle_beta                 97.703(3)
_cell_angle_gamma                90
_cell_volume                     2693.69
_exptl_crystal_colour            colorless
_exptl_crystal_description       block
_chemical_melting_point          412-413K
_cell_formula_units_Z            4
_exptl_crystal_recrystallization_method ethanol
loop_
_atom_site_label
_atom_site_type_symbol
_atom_site_fract_x
_atom_site_fract_y
_atom_site_fract_z
O1 O 0.90798(16) 0.50759(17) 0.2664(4)
O2 O 0.82356(11) 0.43971(11) 0.3708(3)
O3 O 0.98217(15) 0.3128(2) 0.3072(4)
O4 O 0.90341(12) 0.32208(12) 0.0841(2)
O5 O 0.68575(9) 0.33157(9) 0.3422(2)
O6 O 0.66332(11) 0.10594(11) 0.3325(2)
O7 O 0.55946(10) 0.02961(10) 0.7945(2)
O8 O 0.53095(16) -0.07902(13) 0.8926(3)
O9 O 0.35297(9) 0.12103(9) 0.62941(18)
O10 O 0.32853(11) 0.03987(11) 0.4278(2)
O11 O 0.28594(12) 0.20926(12) 0.3568(3)
O12 O 0.20761(15) 0.3049(2) 0.3575(4)
C1 C 0.8980(2) 0.5158(2) 0.5501(5)
H1 H 0.9157 0.4750 0.6185
H2 H 0.8542 0.5370 0.5863
H3 H 0.9365 0.5529 0.5534
C2 C 0.8785(2) 0.4885(2) 0.3822(5)
C3 C 0.79462(16) 0.41089(16) 0.2142(4)
H4 H 0.8254 0.4283 0.1355
H5 H 0.7439 0.4289 0.1832
C4 C 0.79470(15) 0.32818(15) 0.2179(3)
C5 C 1.0242(2) 0.3674(3) 0.0762(6)
H6 H 1.0737 0.3663 0.1352
H7 H 1.0092 0.4180 0.0551
H8 H 1.0242 0.3413 -0.0235
C6 C 0.9713(2) 0.3311(2) 0.1713(6)
C7 C 0.84732(15) 0.28578(18) 0.1556(3)
C8 C 0.84462(16) 0.20865(18) 0.1495(3)
H9 H 0.8813 0.1818 0.1065
C9 C 0.78724(15) 0.17320(16) 0.2078(3)
H10 H 0.7846 0.1216 0.2027
C10 C 0.73215(13) 0.21248(14) 0.2751(3)
C11 C 0.73754(13) 0.28899(15) 0.2786(3)
C12 C 0.62740(14) 0.29706(14) 0.3976(3)
H11 H 0.5929 0.3270 0.4404
C13 C 0.61492(13) 0.22356(13) 0.3960(3)
C14 C 0.66919(14) 0.17405(15) 0.3355(3)
C15 C 0.54629(14) 0.19508(13) 0.4558(3)
C16 C 0.54763(14) 0.13043(12) 0.5486(3)
H12 H 0.5924 0.1043 0.5721
C17 C 0.48373(14) 0.10437(12) 0.6064(3)
C18 C 0.41802(14) 0.14367(13) 0.5679(3)
C19 C 0.41394(14) 0.20887(13) 0.4777(3)
C20 C 0.47948(15) 0.23271(14) 0.4219(3)
H13 H 0.4780 0.2756 0.3595
C21 C 0.34349(16) 0.25365(16) 0.4477(4)
H14 H 0.3276 0.2683 0.5489
H15 H 0.3523 0.2984 0.3883
C22 C 0.2189(2) 0.2407(3) 0.3218(5)
C23 C 0.1631(2) 0.1884(3) 0.2342(5)
H16 H 0.1604 0.1440 0.2968
H17 H 0.1785 0.1757 0.1326
H18 H 0.1147 0.2118 0.2170
C24 C 0.30983(14) 0.06853(14) 0.5432(3)
C25 C 0.24051(16) 0.05287(16) 0.6146(3)
H19 H 0.2011 0.0391 0.5313
H20 H 0.2260 0.0965 0.6685
H21 H 0.2496 0.0128 0.6902
C26 C 0.48571(15) 0.03543(14) 0.7092(3)
H22 H 0.4491 0.0392 0.7837
H23 H 0.4741 -0.0082 0.6426
C27 C 0.5761(2) -0.03183(18) 0.8825(3)
C28 C 0.6551(2) -0.0288(2) 0.9635(4)
H24 H 0.6716 -0.0781 0.9953
H25 H 0.6577 0.0024 1.0567
H26 H 0.6868 -0.0089 0.8908
loop_
_geom_bond_atom_site_label_1
_geom_bond_atom_site_label_2
_geom_bond_site_symmetry_1
_geom_bond_site_symmetry_2
O1 C2 1_555 1_555
O2 C2 1_555 1_555
O3 C6 1_555 1_555
O4 C6 1_555 1_555
O5 C11 1_555 1_555
O6 C14 1_555 1_555
O7 C26 1_555 1_555
O8 C27 1_555 1_555
O9 C18 1_555 1_555
O10 C24 1_555 1_555
O11 C21 1_555 1_555
O12 C22 1_555 1_555
C1 H1 1_555 1_555
H2 C1 1_555 1_555
H3 C1 1_555 1_555
C2 C1 1_555 1_555
C3 O2 1_555 1_555
H4 C3 1_555 1_555
H5 C3 1_555 1_555
C4 C3 1_555 1_555
C5 H6 1_555 1_555
H7 C5 1_555 1_555
H8 C5 1_555 1_555
C6 C5 1_555 1_555
C7 O4 1_555 1_555
C8 C7 1_555 1_555
H9 C8 1_555 1_555
C9 C8 1_555 1_555
H10 C9 1_555 1_555
C10 C9 1_555 1_555
C11 C4 1_555 1_555
C12 O5 1_555 1_555
H11 C12 1_555 1_555
C13 C12 1_555 1_555
C14 C10 1_555 1_555
C15 C13 1_555 1_555
C16 C15 1_555 1_555
H12 C16 1_555 1_555
C17 C16 1_555 1_555
C18 C17 1_555 1_555
C19 C18 1_555 1_555
C20 C15 1_555 1_555
H13 C20 1_555 1_555
C21 C19 1_555 1_555
H14 C21 1_555 1_555
H15 C21 1_555 1_555
C22 O11 1_555 1_555
C23 C22 1_555 1_555
H16 C23 1_555 1_555
H17 C23 1_555 1_555
H18 C23 1_555 1_555
C24 O9 1_555 1_555
C25 C24 1_555 1_555
H19 C25 1_555 1_555
H20 C25 1_555 1_555
H21 C25 1_555 1_555
C26 C17 1_555 1_555
H22 C26 1_555 1_555
H23 C26 1_555 1_555
C27 O7 1_555 1_555
C28 C27 1_555 1_555
H24 C28 1_555 1_555
H25 C28 1_555 1_555
H26 C28 1_555 1_555
C4 C7 1_555 1_555
C10 C11 1_555 1_555
C13 C14 1_555 1_555
C19 C20 1_555 1_555

#END
