
#######################################################################
#
#                 Cambridge Crystallographic Data Centre
#                                CCDC 
#
#######################################################################
#
# If this CIF has been generated from an entry in the Cambridge 
# Structural Database, then it will include bibliographic, chemical, 
# crystal, experimental, refinement or atomic coordinate data resulting 
# from the CCDC's data processing and validation procedures.
#
#######################################################################

data_CIWQUX
_chemical_formula_moiety         'C20 H15 N3 O1'
_chemical_name_systematic        
1-((E)-[(5-phenyl-1H-pyrazol-3-yl)imino]methyl)naphthalen-2-ol
_symmetry_cell_setting           monoclinic
_symmetry_space_group_name_H-M   'P 21/c'
_symmetry_Int_Tables_number      14
_space_group_name_Hall           '-P 2ybc'
loop_
_symmetry_equiv_pos_site_id
_symmetry_equiv_pos_as_xyz
1 x,y,z
2 -x,1/2+y,1/2-z
3 -x,-y,-z
4 x,1/2-y,1/2+z
_cell_length_a                   13.8967(18)
_cell_length_b                   5.8012(7)
_cell_length_c                   20.684(4)
_cell_angle_alpha                90
_cell_angle_beta                 108.347(17)
_cell_angle_gamma                90
_cell_volume                     1582.73
_exptl_crystal_colour            yellow
_exptl_crystal_description       needle
_cell_formula_units_Z            4
loop_
_atom_site_label
_atom_site_type_symbol
_atom_site_fract_x
_atom_site_fract_y
_atom_site_fract_z
C1 C 0.2982(2) 1.0568(5) 0.28639(17)
C2 C 0.2452(3) 1.1188(6) 0.21914(19)
C3 C 0.2722(3) 1.3123(6) 0.1885(2)
H1 H 0.235956 1.349323 0.143693
C4 C 0.3509(3) 1.4457(6) 0.2237(2)
H2 H 0.368426 1.573526 0.202709
C5 C 0.4075(2) 1.3942(6) 0.2925(2)
C6 C 0.4878(3) 1.5356(7) 0.3293(3)
H3 H 0.505535 1.661824 0.307719
C7 C 0.5399(3) 1.4939(8) 0.3948(3)
H4 H 0.592031 1.592072 0.418487
C8 C 0.5152(3) 1.3021(8) 0.4271(2)
H5 H 0.551340 1.271815 0.472429
C9 C 0.4381(3) 1.1582(6) 0.3924(2)
H6 H 0.422837 1.030759 0.414685
C10 C 0.3812(2) 1.1989(5) 0.32376(18)
C11 C 0.2663(2) 0.8602(5) 0.31683(18)
H7 H 0.302966 0.817912 0.361118
C12 C 0.1585(2) 0.5456(5) 0.31232(16)
C13 C 0.1945(2) 0.4444(5) 0.37630(17)
H8 H 0.247798 0.495605 0.413291
C14 C 0.1350(2) 0.2525(5) 0.37361(16)
C15 C 0.1350(2) 0.0739(5) 0.42324(16)
C16 C 0.2181(3) 0.0435(6) 0.48081(19)
H9 H 0.274339 0.138665 0.487782
C17 C 0.2191(3) -0.1257(8) 0.5282(2)
H10 H 0.275513 -0.144456 0.566615
C18 C 0.1363(4) -0.2650(7) 0.5180(2)
H11 H 0.136098 -0.377370 0.550016
C19 C 0.0545(3) -0.2409(7) 0.4616(2)
H12 H -0.000686 -0.339240 0.454524
C20 C 0.0528(3) -0.0719(7) 0.4148(2)
H13 H -0.004304 -0.054892 0.376787
N1 N 0.18782(18) 0.7415(4) 0.28375(13)
N2 N 0.08005(18) 0.4284(4) 0.27142(13)
N3 N 0.06763(18) 0.2507(4) 0.30989(14)
O1 O 0.16579(19) 0.9975(4) 0.18042(12)
H14 H 0.155276 0.887904 0.202324
H15 H 0.019(3) 0.148(6) 0.2925(19)
loop_
_geom_bond_atom_site_label_1
_geom_bond_atom_site_label_2
_geom_bond_site_symmetry_1
_geom_bond_site_symmetry_2
C1 C2 1_555 1_555
C2 C3 1_555 1_555
C3 H1 1_555 1_555
C4 C3 1_555 1_555
H2 C4 1_555 1_555
C5 C4 1_555 1_555
C6 C5 1_555 1_555
H3 C6 1_555 1_555
C7 C6 1_555 1_555
H4 C7 1_555 1_555
C8 C7 1_555 1_555
H5 C8 1_555 1_555
C9 C8 1_555 1_555
H6 C9 1_555 1_555
C10 C1 1_555 1_555
C11 C1 1_555 1_555
H7 C11 1_555 1_555
C12 C13 1_555 1_555
C13 H8 1_555 1_555
C14 C13 1_555 1_555
C15 C14 1_555 1_555
C16 C15 1_555 1_555
H9 C16 1_555 1_555
C17 C16 1_555 1_555
H10 C17 1_555 1_555
C18 C17 1_555 1_555
H11 C18 1_555 1_555
C19 C18 1_555 1_555
H12 C19 1_555 1_555
C20 C15 1_555 1_555
H13 C20 1_555 1_555
N1 C11 1_555 1_555
N2 C12 1_555 1_555
N3 C14 1_555 1_555
O1 C2 1_555 1_555
H14 O1 1_555 1_555
H15 N3 1_555 1_555
C5 C10 1_555 1_555
C9 C10 1_555 1_555
C12 N1 1_555 1_555
C19 C20 1_555 1_555
N2 N3 1_555 1_555

#END
