
#######################################################################
#
#                 Cambridge Crystallographic Data Centre
#                                CCDC 
#
#######################################################################
#
# If this CIF has been generated from an entry in the Cambridge 
# Structural Database, then it will include bibliographic, chemical, 
# crystal, experimental, refinement or atomic coordinate data resulting 
# from the CCDC's data processing and validation procedures.
#
#######################################################################

data_CIXNII
_chemical_formula_moiety         'C18 H18 N4,2(C7 H5 N1 O4)'
_chemical_name_systematic        
"bis(4-nitrobenzoic acid) 1,1'-butane-1,4-diylbis-1H-benzimidazole"
_symmetry_cell_setting           triclinic
_symmetry_space_group_name_H-M   'P -1'
_symmetry_Int_Tables_number      2
_space_group_name_Hall           '-P 1'
loop_
_symmetry_equiv_pos_site_id
_symmetry_equiv_pos_as_xyz
1 x,y,z
2 -x,-y,-z
_cell_length_a                   7.9386(6)
_cell_length_b                   9.0658(11)
_cell_length_c                   10.5945(13)
_cell_angle_alpha                96.264(2)
_cell_angle_beta                 90.3120(10)
_cell_angle_gamma                96.442(2)
_cell_volume                     753.025
_exptl_crystal_colour            colorless
_exptl_crystal_description       block
_cell_formula_units_Z            1
loop_
_atom_site_label
_atom_site_type_symbol
_atom_site_fract_x
_atom_site_fract_y
_atom_site_fract_z
N1 N 1.0815(3) 0.79245(19) 0.97879(17)
N2 N 1.2238(3) 0.9163(2) 0.83586(18)
C1 C 1.2323(3) 0.8456(3) 0.9371(2)
H1 H 1.3343 0.8335 0.9762
C2 C 1.0515(3) 0.9089(2) 0.8092(2)
C3 C 0.9611(3) 0.8317(2) 0.8982(2)
C4 C 0.7866(4) 0.8113(3) 0.8971(2)
H2 H 0.7266 0.7615 0.9578
C5 C 0.7060(4) 0.8685(3) 0.8016(3)
H3 H 0.5882 0.8575 0.7979
C6 C 0.7960(4) 0.9426(3) 0.7101(3)
H4 H 0.7367 0.9778 0.6458
C7 C 0.9683(4) 0.9645(3) 0.7125(2)
H5 H 1.0279 1.0148 0.6518
C8 C 1.0533(4) 0.7013(2) 1.0846(2)
H6 H 0.9409 0.7110 1.1178
H7 H 1.1352 0.7383 1.1521
C9 C 1.0692(3) 0.5379(2) 1.0447(2)
H8 H 1.1776 0.5296 1.0044
H9 H 1.0684 0.4858 1.1201
N1A N 0.9185(3) 0.20755(19) 1.02121(17)
N2A N 0.7762(3) 0.0837(2) 1.16414(18)
C1A C 0.7677(3) 0.1544(3) 1.0629(2)
H1A H 0.6657 0.1665 1.0238
C2A C 0.9485(3) 0.0911(2) 1.1908(2)
C3A C 1.0389(3) 0.1683(2) 1.1018(2)
C4A C 1.2134(4) 0.1887(3) 1.1029(2)
H2A H 1.2734 0.2385 1.0422
C5A C 1.2940(4) 0.1315(3) 1.1984(3)
H3A H 1.4118 0.1425 1.2021
C6A C 1.2040(4) 0.0574(3) 1.2899(3)
H4A H 1.2633 0.0222 1.3542
C7A C 1.0317(4) 0.0355(3) 1.2875(2)
H5A H 0.9721 -0.0148 1.3482
C8A C 0.9467(4) 0.2987(2) 0.9154(2)
H6A H 1.0591 0.2890 0.8822
H7A H 0.8648 0.2617 0.8479
C9A C 0.9308(3) 0.4621(2) 0.9553(2)
H8A H 0.8224 0.4704 0.9956
H9A H 0.9316 0.5142 0.8799
N3 N 0.8236(3) 0.5570(3) 0.3861(3)
O1 O 0.4117(2) 0.07952(19) 0.69373(15)
H10 H 0.3647 0.0352 0.7497
O2 O 0.4837(3) 0.2531(2) 0.85417(18)
O3 O 0.8908(4) 0.6796(3) 0.4228(3)
O4 O 0.8215(4) 0.5054(3) 0.2773(3)
C10 C 0.4838(3) 0.2095(3) 0.7430(2)
C11 C 0.5727(3) 0.2988(3) 0.6485(2)
C12 C 0.6383(3) 0.4435(3) 0.6852(2)
H11 H 0.6261 0.4847 0.7685
C13 C 0.7223(3) 0.5288(3) 0.5999(3)
H12 H 0.7666 0.6271 0.6248
C14 C 0.7390(3) 0.4660(3) 0.4785(2)
C15 C 0.6763(4) 0.3228(3) 0.4398(2)
H13 H 0.6892 0.2823 0.3564
C16 C 0.5937(3) 0.2387(3) 0.5252(2)
H14 H 0.5513 0.1400 0.4997
loop_
_geom_bond_atom_site_label_1
_geom_bond_atom_site_label_2
_geom_bond_site_symmetry_1
_geom_bond_site_symmetry_2
N1 C1 1_555 1_555
N2 C1 1_555 1_555
C1 H1 1_555 1_555
C2 N2 1_555 1_555
C3 N1 1_555 1_555
C4 C3 1_555 1_555
H2 C4 1_555 1_555
C5 C4 1_555 1_555
H3 C5 1_555 1_555
C6 C5 1_555 1_555
H4 C6 1_555 1_555
C7 C2 1_555 1_555
H5 C7 1_555 1_555
C8 N1 1_555 1_555
H6 C8 1_555 1_555
H7 C8 1_555 1_555
C9 C8 1_555 1_555
H8 C9 1_555 1_555
H9 C9 1_555 1_555
N3 O3 1_555 1_555
O1 H10 1_555 1_555
O2 C10 1_555 1_555
O4 N3 1_555 1_555
C10 O1 1_555 1_555
C11 C10 1_555 1_555
C12 C11 1_555 1_555
H11 C12 1_555 1_555
C13 C12 1_555 1_555
H12 C13 1_555 1_555
C14 N3 1_555 1_555
C15 C14 1_555 1_555
H13 C15 1_555 1_555
C16 C11 1_555 1_555
H14 C16 1_555 1_555
N1A C1A 1_555 1_555
N2A C1A 1_555 1_555
C1A H1A 1_555 1_555
C2A N2A 1_555 1_555
C3A N1A 1_555 1_555
C4A C3A 1_555 1_555
H2A C4A 1_555 1_555
C5A C4A 1_555 1_555
H3A C5A 1_555 1_555
C6A C5A 1_555 1_555
H4A C6A 1_555 1_555
C7A C2A 1_555 1_555
H5A C7A 1_555 1_555
C8A N1A 1_555 1_555
H6A C8A 1_555 1_555
H7A C8A 1_555 1_555
C9A C9 1_555 1_555
H8A C9A 1_555 1_555
H9A C9A 1_555 1_555
C2 C3 1_555 1_555
C6 C7 1_555 1_555
C13 C14 1_555 1_555
C15 C16 1_555 1_555
C2A C3A 1_555 1_555
C6A C7A 1_555 1_555
C8A C9A 1_555 1_555

#END
