
#######################################################################
#
#                 Cambridge Crystallographic Data Centre
#                                CCDC 
#
#######################################################################
#
# If this CIF has been generated from an entry in the Cambridge 
# Structural Database, then it will include bibliographic, chemical, 
# crystal, experimental, refinement or atomic coordinate data resulting 
# from the CCDC's data processing and validation procedures.
#
#######################################################################

data_CIYRAE
_chemical_formula_moiety         'C30 H26 N6 O6,2(C1 H1 Cl3)'
_chemical_name_systematic        
'4^2^,10^2^-Dimethoxy-4^5^,10^5^-dimethyl-3,5,9,11-tetra-aza-4,10(1,3)-dibenzena-1,7(2,6)-dipyridinacyclodecaphane-2,6,8,12-tetraone chloroform solvate'
_symmetry_cell_setting           triclinic
_symmetry_space_group_name_H-M   'P -1'
_symmetry_Int_Tables_number      2
_space_group_name_Hall           '-P 1'
loop_
_symmetry_equiv_pos_site_id
_symmetry_equiv_pos_as_xyz
1 x,y,z
2 -x,-y,-z
_cell_length_a                   8.4035(14)
_cell_length_b                   9.5309(15)
_cell_length_c                   13.316(2)
_cell_angle_alpha                75.589(3)
_cell_angle_beta                 80.013(3)
_cell_angle_gamma                65.708(3)
_cell_volume                     938.449
_exptl_crystal_colour            colorless
_exptl_crystal_description       prismatic
_cell_formula_units_Z            1
_exptl_crystal_recrystallization_method 'chloroform/ethyl acetate'
loop_
_atom_site_label
_atom_site_type_symbol
_atom_site_fract_x
_atom_site_fract_y
_atom_site_fract_z
O1 O 0.6615(5) 0.6264(4) 0.9568(3)
O2 O 1.1892(4) -0.0611(3) 1.0023(2)
O3 O 1.2624(5) 0.0923(5) 1.3112(3)
N1 N 0.7504(5) 0.3610(4) 0.9866(3)
N2 N 1.2134(5) 0.0468(5) 1.1626(3)
N3 N 0.9599(5) 0.3261(4) 1.1259(3)
C1 C 0.7409(6) 0.4964(6) 1.0048(4)
C2 C 0.8444(6) 0.4726(5) 1.0935(4)
C3 C 0.8237(8) 0.5970(7) 1.1375(5)
H1 H 0.7435 0.6976 1.1136
C4 C 0.9223(10) 0.5694(8) 1.2159(5)
H2 H 0.9086 0.6515 1.2468
C5 C 1.0432(8) 0.4204(8) 1.2508(4)
H3 H 1.1121 0.4005 1.3043
C6 C 1.0575(6) 0.3018(6) 1.2028(3)
C7 C 1.1892(7) 0.1354(7) 1.2318(4)
C8 C 1.2867(6) -0.1175(6) 1.1713(3)
C9 C 1.3661(6) -0.2262(7) 1.2557(4)
H4 H 1.3847 -0.1924 1.3107
C10 C 1.4181(7) -0.3840(7) 1.2595(4)
C11 C 1.3830(6) -0.4353(6) 1.1803(4)
H5 H 1.4125 -0.5418 1.1844
C12 C 0.6968(5) 0.3260(6) 0.9052(3)
C13 C 1.2651(5) -0.1687(5) 1.0885(3)
C14 C 1.5065(9) -0.5026(8) 1.3550(5)
H6 H 1.4278 -0.4839 1.4162
H7 H 1.5353 -0.6073 1.3459
H8 H 1.6115 -0.4904 1.3625
C15 C 1.3117(8) -0.0391(6) 0.9180(4)
H9 H 1.3823 -0.1378 0.8977
H10 H 1.2500 0.0342 0.8602
H11 H 1.3856 0.0011 0.9392
H12 H 0.822(4) 0.280(3) 1.024(2)
H13 H 1.170(5) 0.092(4) 1.106(2)
O1A O 1.3385(5) -0.6264(4) 1.0432(3)
O2A O 0.8108(4) 0.0611(3) 0.9977(2)
O3A O 0.7376(5) -0.0923(5) 0.6888(3)
N1A N 1.2496(5) -0.3610(4) 1.0134(3)
N2A N 0.7866(5) -0.0468(5) 0.8374(3)
N3A N 1.0401(5) -0.3261(4) 0.8741(3)
C1A C 1.2591(6) -0.4964(6) 0.9952(4)
C2A C 1.1556(6) -0.4726(5) 0.9065(4)
C3A C 1.1763(8) -0.5970(7) 0.8625(5)
H1A H 1.2565 -0.6976 0.8864
C4A C 1.0777(10) -0.5694(8) 0.7841(5)
H2A H 1.0914 -0.6515 0.7532
C5A C 0.9568(8) -0.4204(8) 0.7492(4)
H3A H 0.8879 -0.4005 0.6957
C6A C 0.9425(6) -0.3018(6) 0.7972(3)
C7A C 0.8108(7) -0.1354(7) 0.7682(4)
C8A C 0.7133(6) 0.1175(6) 0.8287(3)
C9A C 0.6339(6) 0.2262(7) 0.7443(4)
H4A H 0.6153 0.1924 0.6893
C10A C 0.5819(7) 0.3840(7) 0.7405(4)
C11A C 0.6170(6) 0.4353(6) 0.8197(4)
H5A H 0.5875 0.5418 0.8156
C12A C 1.3032(5) -0.3260(6) 1.0948(3)
C13A C 0.7349(5) 0.1687(5) 0.9115(3)
C14A C 0.4935(9) 0.5026(8) 0.6450(5)
H6A H 0.5722 0.4839 0.5838
H7A H 0.4647 0.6073 0.6541
H8A H 0.3885 0.4904 0.6375
C15A C 0.6883(8) 0.0391(6) 1.0820(4)
H9A H 0.6177 0.1378 1.1023
H10A H 0.7500 -0.0342 1.1398
H11A H 0.6144 -0.0011 1.0608
H12A H 1.178(4) -0.280(3) 0.976(2)
H13A H 0.830(5) -0.092(4) 0.894(2)
Cl1 Cl 0.3411(7) 0.1604(12) 0.5781(6)
Cl2 Cl -0.0084(9) 0.2697(9) 0.5447(4)
Cl3 Cl 0.1685(11) -0.0402(8) 0.6308(5)
C16 C 0.1917(10) 0.1138(9) 0.5464(6)
H14 H 0.159(19) 0.082(18) 0.486(12)
Cl4? Cl 0.176(4) 0.311(2) 0.5242(9)
Cl5? Cl -0.0009(14) 0.169(2) 0.6052(10)
Cl6? Cl 0.3623(19) 0.023(3) 0.6225(9)
loop_
_geom_bond_atom_site_label_1
_geom_bond_atom_site_label_2
_geom_bond_site_symmetry_1
_geom_bond_site_symmetry_2
O1 C1 1_555 1_555
O2 C13 1_555 1_555
O3 C7 1_555 1_555
N1 C1 1_555 1_555
N2 C7 1_555 1_555
N3 C2 1_555 1_555
Cl1 C16 1_555 1_555
Cl2 C16 1_555 1_555
Cl3 C16 1_555 1_555
C1 C2 1_555 1_555
C2 C3 1_555 1_555
C3 H1 1_555 1_555
C4 C3 1_555 1_555
H2 C4 1_555 1_555
C5 C4 1_555 1_555
H3 C5 1_555 1_555
C6 N3 1_555 1_555
C7 C6 1_555 1_555
C8 N2 1_555 1_555
C9 C8 1_555 1_555
H4 C9 1_555 1_555
C10 C9 1_555 1_555
C11 C10 1_555 1_555
H5 C11 1_555 1_555
C12 N1 1_555 1_555
C13 C8 1_555 1_555
C14 C10 1_555 1_555
H6 C14 1_555 1_555
H7 C14 1_555 1_555
H8 C14 1_555 1_555
C15 O2 1_555 1_555
H9 C15 1_555 1_555
H10 C15 1_555 1_555
H11 C15 1_555 1_555
C16 H14 1_555 1_555
H12 N1 1_555 1_555
H13 N2 1_555 1_555
O1A C1A 1_555 1_555
O2A C13A 1_555 1_555
O3A C7A 1_555 1_555
N1A C1A 1_555 1_555
N2A C7A 1_555 1_555
N3A C2A 1_555 1_555
C1A C2A 1_555 1_555
C2A C3A 1_555 1_555
C3A H1A 1_555 1_555
C4A C3A 1_555 1_555
H2A C4A 1_555 1_555
C5A C4A 1_555 1_555
H3A C5A 1_555 1_555
C6A N3A 1_555 1_555
C7A C6A 1_555 1_555
C8A N2A 1_555 1_555
C9A C8A 1_555 1_555
H4A C9A 1_555 1_555
C10A C9A 1_555 1_555
C11A C12 1_555 1_555
H5A C11A 1_555 1_555
C12A C11 1_555 1_555
C13A C12 1_555 1_555
C14A C10A 1_555 1_555
H6A C14A 1_555 1_555
H7A C14A 1_555 1_555
H8A C14A 1_555 1_555
C15A O2A 1_555 1_555
H9A C15A 1_555 1_555
H10A C15A 1_555 1_555
H11A C15A 1_555 1_555
H12A N1A 1_555 1_555
H13A N2A 1_555 1_555
C5 C6 1_555 1_555
C13 C12A 1_555 1_555
N1A C12A 1_555 1_555
C5A C6A 1_555 1_555
C8A C13A 1_555 1_555
C10A C11A 1_555 1_555

#END
