
#######################################################################
#
#                 Cambridge Crystallographic Data Centre
#                                CCDC 
#
#######################################################################
#
# If this CIF has been generated from an entry in the Cambridge 
# Structural Database, then it will include bibliographic, chemical, 
# crystal, experimental, refinement or atomic coordinate data resulting 
# from the CCDC's data processing and validation procedures.
#
#######################################################################

data_CIZBOD
_chemical_formula_moiety         'C19 H18 N2 O2 S1'
_chemical_name_systematic        
N-(1-(1H-Pyrrol-2-yl)-2-phenylethylidene)-4-methylbenzenesulfonamide
_symmetry_cell_setting           triclinic
_symmetry_space_group_name_H-M   'P 1'
_symmetry_Int_Tables_number      1
_space_group_name_Hall           'P 1'
loop_
_symmetry_equiv_pos_site_id
_symmetry_equiv_pos_as_xyz
1 x,y,z
_cell_length_a                   9.4284(11)
_cell_length_b                   9.514(1)
_cell_length_c                   10.4025(12)
_cell_angle_alpha                93.371(3)
_cell_angle_beta                 91.847(3)
_cell_angle_gamma                113.377(2)
_cell_volume                     853.471
_exptl_crystal_colour            violet
_exptl_crystal_description       square
_chemical_melting_point          '122-123 deg.C'
_cell_formula_units_Z            2
loop_
_atom_site_label
_atom_site_type_symbol
_atom_site_fract_x
_atom_site_fract_y
_atom_site_fract_z
S1 S 1.0293(3) 0.8443(3) 0.6076(2)
N1 N 0.9750(12) 0.6583(11) 0.5845(8)
O1 O 0.9470(10) 0.8741(9) 0.7130(8)
O2 O 1.0287(11) 0.9186(10) 0.4937(7)
N2 N 0.9431(11) 0.3674(10) 0.6017(9)
C1 C 0.8919(12) 0.5617(14) 0.4841(10)
C2 C 0.8837(14) 0.4092(12) 0.4863(10)
C3 C 0.8090(10) 0.6062(13) 0.3789(10)
H1 H 0.8644 0.7142 0.3662
H2 H 0.8063 0.5473 0.2988
C4 C 1.2225(12) 0.8913(12) 0.6649(10)
C5 C 0.5210(17) 0.4250(14) 0.3957(14)
H3 H 0.5401 0.3402 0.3668
C6 C 0.9306(12) 0.2207(13) 0.5622(12)
H4 H 0.9589 0.1586 0.6142
C7 C 0.3748(12) 0.4072(16) 0.4220(14)
H5 H 0.2949 0.3104 0.4078
C8 C 0.6487(15) 0.5772(13) 0.4127(11)
C9 C 0.8440(14) 0.2963(12) 0.3885(11)
H6 H 0.8059 0.2991 0.3055
C10 C 1.3435(15) 1.0088(13) 0.6049(12)
H7 H 1.3232 1.0535 0.5332
C11 C 1.4916(13) 1.0519(12) 0.6591(12)
H8 H 1.5707 1.1353 0.6282
C12 C 1.5300(17) 0.9753(17) 0.7604(13)
C13 C 0.3408(17) 0.5301(17) 0.4698(12)
H9 H 0.2402 0.5149 0.4888
C14 C 0.8711(19) 0.1788(16) 0.4365(13)
H10 H 0.8525 0.0851 0.3917
C15 C 0.6044(17) 0.6942(16) 0.4604(11)
H11 H 0.6803 0.7934 0.4739
C16 C 1.4037(14) 0.8684(13) 0.8138(12)
H12 H 1.4211 0.8243 0.8869
C17 C 1.2569(14) 0.8245(16) 0.7660(12)
H13 H 1.1777 0.7470 0.8030
C18 C 1.6880(14) 1.0266(16) 0.8094(13)
H14 H 1.7237 0.9461 0.7931
H15 H 1.6948 1.0527 0.9006
H16 H 1.7511 1.1153 0.7671
C19 C 0.4565(18) 0.6709(19) 0.4879(12)
H17 H 0.4352 0.7535 0.5197
S2 S 0.9319(3) 0.4926(3) -0.0178(2)
O3 O 1.0145(10) 0.4646(10) -0.1237(7)
N3 N 0.9870(11) 0.6771(11) 0.0025(9)
N4 N 1.0240(11) 0.9746(10) 0.0007(7)
O4 O 0.9329(12) 0.4130(10) 0.0965(8)
C20 C 1.0758(12) 0.9219(13) 0.0997(10)
C21 C 1.0661(12) 0.7648(11) 0.0988(9)
C22 C 0.7092(15) 0.5122(15) -0.1745(10)
H18 H 0.7898 0.5854 -0.2140
C23 C 0.7390(14) 0.4395(13) -0.0701(11)
C24 C 1.0266(16) 1.1164(15) 0.0295(12)
H19 H 0.9937 1.1727 -0.0254
C25 C 1.1565(14) 0.7346(13) 0.2101(9)
H20 H 1.1031 0.6292 0.2314
H21 H 1.1594 0.8013 0.2852
C26 C 1.3242(13) 0.7622(14) 0.1781(10)
C27 C 1.1198(14) 1.0408(14) 0.1979(8)
H22 H 1.1639 1.0408 0.2792
C28 C 0.4370(12) 0.3510(13) -0.1645(12)
C29 C 0.6216(17) 0.3298(15) -0.0198(13)
H23 H 0.6432 0.2775 0.0457
C30 C 0.4668(16) 0.2900(16) -0.0617(15)
H24 H 0.3866 0.2221 -0.0180
C31 C 1.0851(16) 1.1609(15) 0.1512(12)
H25 H 1.1001 1.2534 0.1965
C32 C 0.5540(16) 0.4716(18) -0.2182(12)
H26 H 0.5297 0.5243 -0.2820
C33 C 1.3546(16) 0.6421(16) 0.1318(13)
H27 H 1.2762 0.5445 0.1165
C34 C 0.2633(18) 0.313(2) -0.2175(16)
H28 H 0.2120 0.3499 -0.1541
H29 H 0.2086 0.2037 -0.2343
H30 H 0.2651 0.3619 -0.2958
C35 C 1.5076(18) 0.6696(15) 0.1077(13)
H31 H 1.5335 0.5890 0.0788
C36 C 1.5841(17) 0.9321(16) 0.1682(12)
H32 H 1.6593 1.0320 0.1781
C37 C 1.4318(14) 0.9017(16) 0.1964(13)
H33 H 1.4062 0.9813 0.2287
C38 C 1.6206(13) 0.8168(17) 0.1270(14)
H34 H 1.7227 0.8352 0.1110
loop_
_geom_bond_atom_site_label_1
_geom_bond_atom_site_label_2
_geom_bond_site_symmetry_1
_geom_bond_site_symmetry_2
S1 N1 1_555 1_555
N1 C1 1_555 1_555
O1 S1 1_555 1_555
O2 S1 1_555 1_555
N2 C2 1_555 1_555
C1 C2 1_555 1_555
C2 C9 1_555 1_555
C3 C1 1_555 1_555
H1 C3 1_555 1_555
H2 C3 1_555 1_555
C4 S1 1_555 1_555
C5 H3 1_555 1_555
C6 N2 1_555 1_555
H4 C6 1_555 1_555
C7 C5 1_555 1_555
H5 C7 1_555 1_555
C8 C3 1_555 1_555
C9 H6 1_555 1_555
C10 C4 1_555 1_555
H7 C10 1_555 1_555
C11 C10 1_555 1_555
H8 C11 1_555 1_555
C12 C11 1_555 1_555
C13 C7 1_555 1_555
H9 C13 1_555 1_555
C14 C6 1_555 1_555
H10 C14 1_555 1_555
C15 C8 1_555 1_555
H11 C15 1_555 1_555
C16 C12 1_555 1_555
H12 C16 1_555 1_555
C17 C4 1_555 1_555
H13 C17 1_555 1_555
C18 C12 1_555 1_555
H14 C18 1_555 1_555
H15 C18 1_555 1_555
H16 C18 1_555 1_555
C19 C13 1_555 1_555
H17 C19 1_555 1_555
S2 O3 1_555 1_555
N3 S2 1_555 1_555
N4 C20 1_555 1_555
O4 S2 1_555 1_555
C20 C21 1_555 1_555
C21 N3 1_555 1_555
C22 H18 1_555 1_555
C23 S2 1_555 1_555
C24 N4 1_555 1_555
H19 C24 1_555 1_555
C25 C21 1_555 1_555
H20 C25 1_555 1_555
H21 C25 1_555 1_555
C26 C25 1_555 1_555
C27 C20 1_555 1_555
H22 C27 1_555 1_555
C28 C30 1_555 1_555
C29 C23 1_555 1_555
H23 C29 1_555 1_555
C30 C29 1_555 1_555
H24 C30 1_555 1_555
C31 C24 1_555 1_555
H25 C31 1_555 1_555
C32 C22 1_555 1_555
H26 C32 1_555 1_555
C33 C26 1_555 1_555
H27 C33 1_555 1_555
C34 C28 1_555 1_555
H28 C34 1_555 1_555
H29 C34 1_555 1_555
H30 C34 1_555 1_555
C35 C33 1_555 1_555
H31 C35 1_555 1_555
C36 H32 1_555 1_555
C37 C26 1_555 1_555
H33 C37 1_555 1_555
C38 C35 1_555 1_555
H34 C38 1_555 1_555
C5 C8 1_555 1_555
C9 C14 1_555 1_555
C15 C19 1_555 1_555
C16 C17 1_555 1_555
C22 C23 1_555 1_555
C27 C31 1_555 1_555
C28 C32 1_555 1_555
C36 C37 1_555 1_555
C36 C38 1_555 1_555

#END
