
#######################################################################
#
#                 Cambridge Crystallographic Data Centre
#                                CCDC 
#
#######################################################################
#
# If this CIF has been generated from an entry in the Cambridge 
# Structural Database, then it will include bibliographic, chemical, 
# crystal, experimental, refinement or atomic coordinate data resulting 
# from the CCDC's data processing and validation procedures.
#
#######################################################################

data_COBGAD
_chemical_compound_source        
'Isolated from the fruiting bodies of toxic mushroom Tricholoma terreum.'
_chemical_name_common            'terreolide A'
_chemical_formula_moiety         'C30 H44 O7'
_chemical_name_systematic        
5'-(2-(3-(1-hydroxy-2-(2-oxodihydrofuran-3(2H)-ylidene)ethyl)-2,2-dimethyl-4-methylenecyclohexyl)ethyl)-3,3,5-trimethyltetrahydro-2H-spiro[4,7-dioxabicyclo[3.2.1]octane-6,2'-pyran]-2-one
_chemical_properties_biological  bioactivity
_symmetry_cell_setting           orthorhombic
_symmetry_space_group_name_H-M   'P 21 21 2'
_symmetry_Int_Tables_number      18
_space_group_name_Hall           'P 2 2ab'
loop_
_symmetry_equiv_pos_site_id
_symmetry_equiv_pos_as_xyz
1 x,y,z
2 1/2+x,1/2-y,-z
3 1/2-x,1/2+y,-z
4 -x,-y,z
_cell_length_a                   13.3565(4)
_cell_length_b                   34.5376(11)
_cell_length_c                   6.1473(2)
_cell_angle_alpha                90
_cell_angle_beta                 90
_cell_angle_gamma                90
_cell_volume                     2835.76
_exptl_crystal_colour            colorless
_exptl_crystal_description       prism
_chemical_melting_point          '482-483 K'
_cell_formula_units_Z            4
_exptl_crystal_recrystallization_method water/chloroform/methanol
loop_
_atom_site_label
_atom_site_type_symbol
_atom_site_fract_x
_atom_site_fract_y
_atom_site_fract_z
O1 O 0.91032(14) 0.47308(5) 1.1982(3)
O2 O 0.91176(15) 0.38909(5) 1.5526(4)
O3 O 0.83248(15) 0.41350(5) 1.1513(3)
O4 O 0.62832(15) 0.69470(6) 0.3629(4)
H1 H 0.6701 0.7129 0.3625
O5 O 0.29399(18) 0.75699(7) 0.5486(4)
O6 O 0.8661(3) 0.31983(7) 1.1229(5)
C1 C 0.4833(2) 0.71291(7) 0.5631(5)
H2 H 0.4460 0.7113 0.4318
C2 C 1.0057(2) 0.40233(8) 1.2201(5)
H3 H 1.0531 0.3814 1.2589
H4 H 1.0409 0.4224 1.1343
C3 C 0.5824(2) 0.69226(7) 0.5716(5)
H5 H 0.6263 0.7057 0.6797
C4 C 0.7334(2) 0.65025(8) 0.8433(5)
H6 H 0.7902 0.6346 0.8923
H7 H 0.6954 0.6593 0.9698
H8 H 0.7580 0.6726 0.7607
C5 C 0.5520(2) 0.56576(8) 0.6963(6)
H9 H 0.5847 0.5545 0.5665
H10 H 0.5274 0.5442 0.7877
C6 C 0.7152(2) 0.56261(8) 0.9067(5)
H11 H 0.7524 0.5522 0.7803
H12 H 0.7623 0.5781 0.9953
C7 C 0.4729(2) 0.63285(8) 0.3016(5)
H13 H 0.4317 0.6151 0.2244
H14 H 0.4962 0.6557 0.2320
C8 C 0.7204(2) 0.61512(8) 0.4879(5)
H15 H 0.7433 0.6387 0.4149
H16 H 0.6745 0.6010 0.3920
H17 H 0.7782 0.5987 0.5218
C9 C 0.6751(2) 0.52902(8) 1.0431(5)
H18 H 0.6468 0.5093 0.9438
H19 H 0.6198 0.5388 1.1353
C10 C 0.4440(2) 0.73329(7) 0.7262(5)
C11 C 0.4978(2) 0.62570(8) 0.5067(5)
C12 C 0.7820(2) 0.45414(8) 1.4520(5)
H20 H 0.8086 0.4709 1.5691
H21 H 0.7497 0.4314 1.5203
C13 C 0.7051(2) 0.47651(8) 1.3180(5)
H22 H 0.6716 0.4585 1.2158
H23 H 0.6534 0.4872 1.4164
O7 O 0.3236(2) 0.77106(9) 0.8914(5)
C14 C 0.7529(2) 0.50933(7) 1.1904(5)
H24 H 0.7788 0.5290 1.2959
C15 C 0.8409(2) 0.49339(8) 1.0610(5)
H25 H 0.8157 0.4756 0.9473
H26 H 0.8760 0.5150 0.9877
C16 C 0.5672(2) 0.65000(7) 0.6464(5)
H27 H 0.5319 0.6522 0.7892
C17 C 0.9541(2) 0.41911(8) 1.4183(5)
C18 C 0.8670(2) 0.44091(7) 1.3063(5)
C19 C 0.6289(2) 0.58911(7) 0.8247(5)
H28 H 0.5936 0.5988 0.9575
C20 C 0.6660(2) 0.62589(7) 0.6993(5)
C21 C 0.4820(3) 0.74092(11) 0.9520(6)
H29 H 0.4789 0.7172 1.0419
H30 H 0.5520 0.7503 0.9485
C22 C 0.9565(3) 0.32154(9) 1.5543(7)
H31 H 1.0250 0.3285 1.5126
H32 H 0.9397 0.2961 1.4937
H33 H 0.9515 0.3206 1.7133
C23 C 0.8851(3) 0.34966(9) 1.2162(6)
C24 C 0.7780(3) 0.34355(9) 1.5449(7)
H34 H 0.7760 0.3448 1.7041
H35 H 0.7575 0.3177 1.4969
H36 H 0.7322 0.3629 1.4841
C25 C 0.9120(3) 0.38669(8) 1.1010(5)
H37 H 0.9226 0.3832 0.9412
C26 C 0.3480(2) 0.75384(8) 0.7045(6)
C27 C 0.8841(2) 0.35170(8) 1.4665(5)
C28 C 0.4632(2) 0.59030(8) 0.6238(6)
H38 H 0.4196 0.5748 0.5268
H39 H 0.4234 0.5980 0.7526
C29 C 1.0170(2) 0.44410(8) 1.5680(6)
H40 H 0.9742 0.4554 1.6808
H41 H 1.0485 0.4649 1.4836
H42 H 1.0690 0.4282 1.6364
C30 C 0.4139(13) 0.7711(7) 1.0389(19)
H43 H 0.4470 0.7968 1.0371
H44 H 0.3941 0.7650 1.1903
C31? C 0.3791(10) 0.7516(4) 1.0729(16)
H45? H 0.3437 0.7282 1.1245
H46? H 0.3903 0.7694 1.1968
loop_
_geom_bond_atom_site_label_1
_geom_bond_atom_site_label_2
_geom_bond_site_symmetry_1
_geom_bond_site_symmetry_2
O1 C15 1_555 1_555
O2 C17 1_555 1_555
O3 C18 1_555 1_555
O4 H1 1_555 1_555
O5 C26 1_555 1_555
O6 C23 1_555 1_555
C1 H2 1_555 1_555
C2 H3 1_555 1_555
H4 C2 1_555 1_555
C3 O4 1_555 1_555
H5 C3 1_555 1_555
C4 H6 1_555 1_555
H7 C4 1_555 1_555
H8 C4 1_555 1_555
C5 H9 1_555 1_555
H10 C5 1_555 1_555
C6 H11 1_555 1_555
H12 C6 1_555 1_555
C7 H13 1_555 1_555
H14 C7 1_555 1_555
C8 H15 1_555 1_555
H16 C8 1_555 1_555
H17 C8 1_555 1_555
C9 C6 1_555 1_555
H18 C9 1_555 1_555
H19 C9 1_555 1_555
C10 C1 1_555 1_555
C11 C7 1_555 1_555
C12 H20 1_555 1_555
H21 C12 1_555 1_555
C13 C12 1_555 1_555
H22 C13 1_555 1_555
H23 C13 1_555 1_555
O7 C26 1_555 1_555
C14 C9 1_555 1_555
H24 C14 1_555 1_555
C15 C14 1_555 1_555
H25 C15 1_555 1_555
H26 C15 1_555 1_555
C16 C3 1_555 1_555
H27 C16 1_555 1_555
C17 C2 1_555 1_555
C18 O1 1_555 1_555
C19 C5 1_555 1_555
H28 C19 1_555 1_555
C20 C4 1_555 1_555
C21 C10 1_555 1_555
H29 C21 1_555 1_555
H30 C21 1_555 1_555
C22 H31 1_555 1_555
H32 C22 1_555 1_555
H33 C22 1_555 1_555
C23 C25 1_555 1_555
C24 H34 1_555 1_555
H35 C24 1_555 1_555
H36 C24 1_555 1_555
C25 O3 1_555 1_555
H37 C25 1_555 1_555
C26 C10 1_555 1_555
C27 O2 1_555 1_555
C28 C5 1_555 1_555
H38 C28 1_555 1_555
H39 C28 1_555 1_555
C29 C17 1_555 1_555
H40 C29 1_555 1_555
H41 C29 1_555 1_555
H42 C29 1_555 1_555
C30 O7 1_555 1_555
H43 C30 1_555 1_555
H44 C30 1_555 1_555
C1 C3 1_555 1_555
C2 C25 1_555 1_555
C6 C19 1_555 1_555
C8 C20 1_555 1_555
C11 C16 1_555 1_555
C11 C28 1_555 1_555
C12 C18 1_555 1_555
C13 C14 1_555 1_555
C16 C20 1_555 1_555
C17 C18 1_555 1_555
C19 C20 1_555 1_555
C21 C30 1_555 1_555
C22 C27 1_555 1_555
C23 C27 1_555 1_555
C24 C27 1_555 1_555

#END
