
#######################################################################
#
#                 Cambridge Crystallographic Data Centre
#                                CCDC 
#
#######################################################################
#
# If this CIF has been generated from an entry in the Cambridge 
# Structural Database, then it will include bibliographic, chemical, 
# crystal, experimental, refinement or atomic coordinate data resulting 
# from the CCDC's data processing and validation procedures.
#
#######################################################################

data_COCHEJ01
_chemical_formula_moiety         'C19 H19 B1 F2 N2'
_chemical_name_systematic        
5,5-difluoro-1,3,7,9-tetramethyl-10-phenyl-5H-4,5-dipyrrolo[1,2-c:2',1'-f][1,3,2]diazaborinine
_symmetry_cell_setting           monoclinic
_symmetry_space_group_name_H-M   'P 21/n'
_symmetry_Int_Tables_number      14
_space_group_name_Hall           '-P 2yn'
loop_
_symmetry_equiv_pos_site_id
_symmetry_equiv_pos_as_xyz
1 x,y,z
2 1/2-x,1/2+y,1/2-z
3 -x,-y,-z
4 1/2+x,1/2-y,1/2+z
_cell_length_a                   11.9007(5)
_cell_length_b                   7.0792(2)
_cell_length_c                   19.4220(7)
_cell_angle_alpha                90
_cell_angle_beta                 99.6390(10)
_cell_angle_gamma                90
_cell_volume                     1613.15
_exptl_crystal_colour            'orange red'
_cell_formula_units_Z            4
loop_
_atom_site_label
_atom_site_type_symbol
_atom_site_fract_x
_atom_site_fract_y
_atom_site_fract_z
N1 N 0.75598(19) 0.9006(3) 0.10100(11)
N2 N 0.78454(19) 0.6054(3) 0.03668(11)
C1 C 1.1796(3) 0.5683(4) 0.31403(16)
H1 H 1.2386 0.5494 0.3529
C2 C 1.1991(3) 0.6788(5) 0.25884(17)
H2 H 1.2722 0.7327 0.2589
C3 C 1.1110(2) 0.7116(4) 0.20266(15)
H3 H 1.1245 0.7883 0.1647
C4 C 1.0042(2) 0.6326(4) 0.20208(14)
C5 C 0.9875(2) 0.5159(4) 0.25734(14)
H4 H 0.9156 0.4570 0.2568
C6 C 1.0746(3) 0.4850(4) 0.31301(15)
H5 H 1.0620 0.4063 0.3506
C7 C 0.9080(2) 0.6798(4) 0.14627(13)
C8 C 0.8786(2) 0.5617(4) 0.08871(14)
C9 C 0.9263(2) 0.3886(4) 0.06859(14)
C10 C 0.8602(3) 0.3355(4) 0.00650(15)
H6 H 0.8719 0.2257 -0.0195
C11 C 0.7734(2) 0.4679(4) -0.01246(14)
C12 C 0.7144(2) 1.0671(4) 0.11924(14)
C13 C 0.7754(2) 1.1222(4) 0.18418(15)
H7 H 0.7615 1.2334 0.2089
C14 C 0.8592(2) 0.9893(4) 0.20686(14)
C15 C 0.8470(2) 0.8474(4) 0.15312(14)
C16 C 1.0281(3) 0.2830(4) 0.10451(16)
H8 H 1.0391 0.1692 0.0777
H9 H 1.0163 0.2470 0.1515
H10 H 1.0958 0.3636 0.1079
C17 C 0.6812(3) 0.4662(5) -0.07371(16)
H11 H 0.6334 0.5786 -0.0728
H12 H 0.6346 0.3525 -0.0724
H13 H 0.7145 0.4663 -0.1166
C18 C 0.6171(2) 1.1670(5) 0.07531(16)
H14 H 0.5921 1.0945 0.0325
H15 H 0.6418 1.2930 0.0632
H16 H 0.5539 1.1788 0.1015
C19 C 0.9405(3) 1.0018(4) 0.27301(15)
H17 H 0.9257 1.1172 0.2979
H18 H 1.0185 1.0051 0.2630
H19 H 0.9314 0.8915 0.3021
B1 B 0.7072(3) 0.7807(5) 0.03697(17)
F1 F 0.7070(2) 0.8839(3) -0.02411(9)
F2 F 0.59686(15) 0.7251(3) 0.04181(11)
loop_
_geom_bond_atom_site_label_1
_geom_bond_atom_site_label_2
_geom_bond_site_symmetry_1
_geom_bond_site_symmetry_2
N1 C12 1_555 1_555
N2 C8 1_555 1_555
C1 H1 1_555 1_555
C2 C1 1_555 1_555
H2 C2 1_555 1_555
C3 C2 1_555 1_555
H3 C3 1_555 1_555
C4 C3 1_555 1_555
C5 C4 1_555 1_555
H4 C5 1_555 1_555
C6 C1 1_555 1_555
H5 C6 1_555 1_555
C7 C4 1_555 1_555
C8 C7 1_555 1_555
C9 C8 1_555 1_555
C10 C9 1_555 1_555
H6 C10 1_555 1_555
C11 N2 1_555 1_555
C12 C13 1_555 1_555
C13 H7 1_555 1_555
C14 C13 1_555 1_555
C15 N1 1_555 1_555
C16 C9 1_555 1_555
H8 C16 1_555 1_555
H9 C16 1_555 1_555
H10 C16 1_555 1_555
C17 C11 1_555 1_555
H11 C17 1_555 1_555
H12 C17 1_555 1_555
H13 C17 1_555 1_555
C18 C12 1_555 1_555
H14 C18 1_555 1_555
H15 C18 1_555 1_555
H16 C18 1_555 1_555
C19 C14 1_555 1_555
H17 C19 1_555 1_555
H18 C19 1_555 1_555
H19 C19 1_555 1_555
B1 N1 1_555 1_555
F1 B1 1_555 1_555
F2 B1 1_555 1_555
N2 B1 1_555 1_555
C5 C6 1_555 1_555
C7 C15 1_555 1_555
C10 C11 1_555 1_555
C14 C15 1_555 1_555

#END
