
#######################################################################
#
#                 Cambridge Crystallographic Data Centre
#                                CCDC 
#
#######################################################################
#
# If this CIF has been generated from an entry in the Cambridge 
# Structural Database, then it will include bibliographic, chemical, 
# crystal, experimental, refinement or atomic coordinate data resulting 
# from the CCDC's data processing and validation procedures.
#
#######################################################################

data_COCNOZ
_chemical_formula_moiety         'C28 H27 Br1 N2 O5'
_chemical_name_systematic        
't-Butyl 3-benzyl-3-(1-(4-bromophenyl)-2-nitroethyl)-2-oxoindoline-1-carboxylate'
_symmetry_cell_setting           tetragonal
_symmetry_space_group_name_H-M   'P 43 21 2'
_symmetry_Int_Tables_number      96
_space_group_name_Hall           'P 4nw 2abw'
loop_
_symmetry_equiv_pos_site_id
_symmetry_equiv_pos_as_xyz
1 x,y,z
2 -x,-y,1/2+z
3 1/2-y,1/2+x,3/4+z
4 1/2+y,1/2-x,1/4+z
5 1/2-x,1/2+y,3/4-z
6 1/2+x,1/2-y,1/4-z
7 y,x,-z
8 -y,-x,1/2-z
_cell_length_a                   12.3183(11)
_cell_length_b                   12.3183(11)
_cell_length_c                   36.329(3)
_cell_angle_alpha                90
_cell_angle_beta                 90
_cell_angle_gamma                90
_cell_volume                     5512.58
_exptl_crystal_colour            white
_exptl_crystal_description       block
_cell_formula_units_Z            8
loop_
_atom_site_label
_atom_site_type_symbol
_atom_site_fract_x
_atom_site_fract_y
_atom_site_fract_z
Br1 Br 0.41072(7) 0.69458(6) 0.09804(2)
O1 O 0.4744(2) 1.2438(2) 0.13675(7)
O2 O 0.7084(3) 1.1096(4) 0.02623(9)
O3 O 0.8229(3) 0.9880(4) 0.04137(10)
O4 O 0.3512(2) 1.1444(3) 0.19373(10)
O5 O 0.4302(2) 0.9800(2) 0.19889(8)
C1 C 0.5450(3) 1.1931(3) 0.15194(9)
C2 C 0.6649(3) 1.1892(3) 0.14013(10)
C3 C 0.7152(3) 1.1203(3) 0.16991(10)
C4 C 0.8231(3) 1.0977(3) 0.17727(11)
H1 H 0.8782 1.1272 0.1629
C5 C 0.8465(3) 1.0301(4) 0.20646(12)
H2 H 0.9185 1.0144 0.2120
C6 C 0.7652(4) 0.9856(4) 0.22755(13)
H3 H 0.7836 0.9385 0.2466
C7 C 0.6568(4) 1.0086(4) 0.22132(11)
H4 H 0.6021 0.9792 0.2359
C8 C 0.6340(3) 1.0780(3) 0.19216(10)
C9 C 0.7106(3) 1.3043(3) 0.13567(10)
H5 H 0.7884 1.2989 0.1319
H6 H 0.6797 1.3358 0.1135
C10 C 0.6902(3) 1.3813(3) 0.16720(11)
C11 C 0.6176(4) 1.4650(4) 0.16272(14)
H7 H 0.5792 1.4714 0.1408
C12 C 0.6009(5) 1.5408(5) 0.19105(17)
H8 H 0.5513 1.5971 0.1880
C13 C 0.6576(5) 1.5313(5) 0.22277(17)
H9 H 0.6471 1.5819 0.2414
C14 C 0.7302(5) 1.4486(5) 0.22791(15)
H10 H 0.7682 1.4429 0.2499
C15 C 0.7469(4) 1.3731(4) 0.19988(13)
H11 H 0.7963 1.3169 0.2032
C16 C 0.6615(3) 1.1290(3) 0.10145(10)
H12 H 0.6222 1.1769 0.0845
C17 C 0.5997(3) 1.0227(3) 0.10235(10)
C18 C 0.6443(4) 0.9284(3) 0.11658(11)
H13 H 0.7136 0.9305 0.1267
C19 C 0.5875(4) 0.8302(4) 0.11617(13)
H14 H 0.6182 0.7673 0.1258
C20 C 0.4856(4) 0.8291(4) 0.10128(13)
C21 C 0.4379(4) 0.9202(4) 0.08796(13)
H15 H 0.3676 0.9179 0.0787
C22 C 0.4958(3) 1.0168(4) 0.08839(10)
H16 H 0.4636 1.0793 0.0790
C23 C 0.7748(3) 1.1153(3) 0.08582(10)
H17 H 0.8105 1.1854 0.0845
H18 H 0.8172 1.0686 0.1018
C24 C 0.4268(3) 1.0860(3) 0.19222(11)
C25 C 0.3309(4) 0.9194(4) 0.21071(14)
C26 C 0.2435(5) 0.9326(5) 0.18307(18)
H19 H 0.2188 1.0064 0.1831
H20 H 0.1842 0.8852 0.1891
H21 H 0.2710 0.9145 0.1591
C27 C 0.3715(6) 0.8014(5) 0.20932(18)
H22 H 0.3140 0.7534 0.2166
H23 H 0.4319 0.7930 0.2258
H24 H 0.3939 0.7842 0.1847
C28 C 0.3049(6) 0.9532(6) 0.24826(17)
H25 H 0.2810 1.0274 0.2481
H26 H 0.3684 0.9466 0.2634
H27 H 0.2483 0.9078 0.2579
N1 N 0.5315(2) 1.1208(3) 0.18096(8)
N2 N 0.7684(3) 1.0664(3) 0.04808(11)
loop_
_geom_bond_atom_site_label_1
_geom_bond_atom_site_label_2
_geom_bond_site_symmetry_1
_geom_bond_site_symmetry_2
Br1 C20 1_555 1_555
O1 C1 1_555 1_555
O2 N2 1_555 1_555
O3 N2 1_555 1_555
O4 C24 1_555 1_555
O5 C24 1_555 1_555
C1 C2 1_555 1_555
C2 C3 1_555 1_555
C3 C4 1_555 1_555
C4 H1 1_555 1_555
C5 C4 1_555 1_555
H2 C5 1_555 1_555
C6 C5 1_555 1_555
H3 C6 1_555 1_555
C7 C6 1_555 1_555
H4 C7 1_555 1_555
C8 C3 1_555 1_555
C9 C2 1_555 1_555
H5 C9 1_555 1_555
H6 C9 1_555 1_555
C10 C9 1_555 1_555
C11 C10 1_555 1_555
H7 C11 1_555 1_555
C12 C11 1_555 1_555
H8 C12 1_555 1_555
C13 C12 1_555 1_555
H9 C13 1_555 1_555
C14 C13 1_555 1_555
H10 C14 1_555 1_555
C15 C10 1_555 1_555
H11 C15 1_555 1_555
C16 C2 1_555 1_555
H12 C16 1_555 1_555
C17 C16 1_555 1_555
C18 C17 1_555 1_555
H13 C18 1_555 1_555
C19 C18 1_555 1_555
H14 C19 1_555 1_555
C20 C19 1_555 1_555
C21 C20 1_555 1_555
H15 C21 1_555 1_555
C22 C17 1_555 1_555
H16 C22 1_555 1_555
C23 C16 1_555 1_555
H17 C23 1_555 1_555
H18 C23 1_555 1_555
C24 N1 1_555 1_555
C25 O5 1_555 1_555
C26 C25 1_555 1_555
H19 C26 1_555 1_555
H20 C26 1_555 1_555
H21 C26 1_555 1_555
C27 C25 1_555 1_555
H22 C27 1_555 1_555
H23 C27 1_555 1_555
H24 C27 1_555 1_555
C28 C25 1_555 1_555
H25 C28 1_555 1_555
H26 C28 1_555 1_555
H27 C28 1_555 1_555
N1 C1 1_555 1_555
N2 C23 1_555 1_555
C7 C8 1_555 1_555
C8 N1 1_555 1_555
C14 C15 1_555 1_555
C21 C22 1_555 1_555

#END
