
#######################################################################
#
#                 Cambridge Crystallographic Data Centre
#                                CCDC 
#
#######################################################################
#
# If this CIF has been generated from an entry in the Cambridge 
# Structural Database, then it will include bibliographic, chemical, 
# crystal, experimental, refinement or atomic coordinate data resulting 
# from the CCDC's data processing and validation procedures.
#
#######################################################################

data_COCRET
_chemical_formula_moiety         'C22 H17 N1 O7'
_chemical_name_systematic        
'dimethyl 1-(4-methoxyphenyl)-5-oxo-1,5-dihydroisochromeno[4,3-b]pyrrole-2,3-dicarboxylate'
_symmetry_cell_setting           monoclinic
_symmetry_space_group_name_H-M   'P 21/c'
_symmetry_Int_Tables_number      14
_space_group_name_Hall           '-P 2ybc'
loop_
_symmetry_equiv_pos_site_id
_symmetry_equiv_pos_as_xyz
1 x,y,z
2 -x,1/2+y,1/2-z
3 -x,-y,-z
4 x,1/2-y,1/2+z
_cell_length_a                   8.4172(7)
_cell_length_b                   13.5815(15)
_cell_length_c                   16.8652(17)
_cell_angle_alpha                90
_cell_angle_beta                 92.6520(10)
_cell_angle_gamma                90
_cell_volume                     1925.93
_exptl_crystal_colour            white
_exptl_crystal_description       block
_cell_formula_units_Z            4
loop_
_atom_site_label
_atom_site_type_symbol
_atom_site_fract_x
_atom_site_fract_y
_atom_site_fract_z
N1 N 0.2386(2) 0.60423(14) 0.60312(11)
O1 O 0.2552(2) 0.80783(13) 0.65531(11)
O2 O -0.0082(3) 0.80574(13) 0.63166(11)
O3 O 0.0111(3) 0.82451(14) 0.45563(11)
O4 O -0.0333(2) 0.69672(12) 0.37435(10)
O5 O 0.15461(19) 0.52565(11) 0.40533(8)
O6 O 0.2157(2) 0.39820(12) 0.33159(10)
O7 O 0.3782(2) 0.52063(13) 0.92276(10)
C1 C 0.1197(4) 0.77145(19) 0.62288(15)
C2 C 0.0238(3) 0.7380(2) 0.44128(14)
C3 C 0.1513(3) 0.68322(17) 0.57339(13)
C4 C 0.1045(3) 0.66667(16) 0.49462(13)
C5 C 0.1655(3) 0.57192(17) 0.47804(13)
C6 C 0.2470(3) 0.53445(17) 0.54234(13)
C7 C 0.2268(3) 0.43400(18) 0.39729(15)
C8 C 0.3135(3) 0.39219(17) 0.46673(13)
C9 C 0.3308(3) 0.44187(17) 0.54037(13)
C10 C 0.4281(3) 0.40083(18) 0.60091(14)
H1 H 0.4418 0.4331 0.6494
C11 C 0.5038(3) 0.31238(19) 0.58884(16)
H2 H 0.5708 0.2865 0.6290
C12 C 0.4819(4) 0.2610(2) 0.51767(17)
H3 H 0.5308 0.2003 0.5111
C13 C 0.3873(3) 0.30078(18) 0.45744(16)
H4 H 0.3721 0.2667 0.4099
C14 C 0.2743(3) 0.58435(17) 0.68668(13)
C15 C 0.4129(3) 0.61424(18) 0.72418(14)
H5 H 0.4861 0.6502 0.6965
C16 C 0.4450(3) 0.59150(17) 0.80270(14)
H6 H 0.5403 0.6115 0.8277
C17 C 0.3356(3) 0.53876(18) 0.84481(14)
C18 C 0.1963(3) 0.50797(19) 0.80743(14)
H7 H 0.1228 0.4721 0.8351
C19 C 0.1657(3) 0.53057(18) 0.72798(14)
H8 H 0.0716 0.5094 0.7023
C20 C 0.2635(4) 0.4759(2) 0.97115(14)
H9 H 0.1691 0.5157 0.9703
H10 H 0.3066 0.4705 1.0247
H11 H 0.2375 0.4115 0.9510
C21 C 0.2396(4) 0.8936(2) 0.70638(18)
H12 H 0.1897 0.9462 0.6765
H13 H 0.3431 0.9142 0.7262
H14 H 0.1757 0.8768 0.7501
C22 C -0.1136(4) 0.7620(2) 0.31748(15)
H15 H -0.2013 0.7933 0.3417
H16 H -0.1522 0.7247 0.2722
H17 H -0.0403 0.8112 0.3008
loop_
_geom_bond_atom_site_label_1
_geom_bond_atom_site_label_2
_geom_bond_site_symmetry_1
_geom_bond_site_symmetry_2
N1 C3 1_555 1_555
O1 C1 1_555 1_555
O2 C1 1_555 1_555
O3 C2 1_555 1_555
O4 C2 1_555 1_555
O5 C5 1_555 1_555
O6 C7 1_555 1_555
O7 C17 1_555 1_555
C1 C3 1_555 1_555
C2 C4 1_555 1_555
C3 C4 1_555 1_555
C4 C5 1_555 1_555
C5 C6 1_555 1_555
C6 N1 1_555 1_555
C7 O5 1_555 1_555
C8 C7 1_555 1_555
C9 C6 1_555 1_555
C10 C9 1_555 1_555
H1 C10 1_555 1_555
C11 C10 1_555 1_555
H2 C11 1_555 1_555
C12 C11 1_555 1_555
H3 C12 1_555 1_555
C13 C8 1_555 1_555
H4 C13 1_555 1_555
C14 N1 1_555 1_555
C15 C14 1_555 1_555
H5 C15 1_555 1_555
C16 C15 1_555 1_555
H6 C16 1_555 1_555
C17 C16 1_555 1_555
C18 C17 1_555 1_555
H7 C18 1_555 1_555
C19 C14 1_555 1_555
H8 C19 1_555 1_555
C20 O7 1_555 1_555
H9 C20 1_555 1_555
H10 C20 1_555 1_555
H11 C20 1_555 1_555
C21 O1 1_555 1_555
H12 C21 1_555 1_555
H13 C21 1_555 1_555
H14 C21 1_555 1_555
C22 O4 1_555 1_555
H15 C22 1_555 1_555
H16 C22 1_555 1_555
H17 C22 1_555 1_555
C8 C9 1_555 1_555
C12 C13 1_555 1_555
C18 C19 1_555 1_555

#END
