
#######################################################################
#
#                 Cambridge Crystallographic Data Centre
#                                CCDC 
#
#######################################################################
#
# If this CIF has been generated from an entry in the Cambridge 
# Structural Database, then it will include bibliographic, chemical, 
# crystal, experimental, refinement or atomic coordinate data resulting 
# from the CCDC's data processing and validation procedures.
#
#######################################################################

data_COCYAW
_chemical_formula_moiety         'C17 H15 N3 O1'
_chemical_name_systematic        
(4-methylphenyl)(5-methyl-1-phenyl-1H-1,2,3-triazol-4-yl)methanone
_symmetry_cell_setting           monoclinic
_symmetry_space_group_name_H-M   'P 21/c'
_symmetry_Int_Tables_number      14
_space_group_name_Hall           '-P 2ybc'
loop_
_symmetry_equiv_pos_site_id
_symmetry_equiv_pos_as_xyz
1 x,y,z
2 -x,1/2+y,1/2-z
3 -x,-y,-z
4 x,1/2-y,1/2+z
_cell_length_a                   14.9957(12)
_cell_length_b                   7.6225(6)
_cell_length_c                   11.9828(10)
_cell_angle_alpha                90
_cell_angle_beta                 91.022(3)
_cell_angle_gamma                90
_cell_volume                     1369.47
_exptl_crystal_colour            colorless
_exptl_crystal_description       Block
_chemical_melting_point          '99-100 deg.C'
_cell_formula_units_Z            4
loop_
_atom_site_label
_atom_site_type_symbol
_atom_site_fract_x
_atom_site_fract_y
_atom_site_fract_z
O1 O 0.70965(6) 0.55048(13) 0.13882(7)
N1 N 0.95891(6) 0.61702(13) 0.28447(8)
N2 N 0.92889(7) 0.66656(15) 0.38759(8)
N3 N 0.84202(7) 0.66684(14) 0.38133(8)
C1 C 1.05338(8) 0.61113(15) 0.26704(10)
C2 C 1.10771(8) 0.53615(16) 0.34915(10)
H1 H 1.0826 0.4847 0.4136
C3 C 1.19958(9) 0.53787(18) 0.33512(12)
H2 H 1.2378 0.4879 0.3906
C4 C 1.23556(8) 0.61229(18) 0.24045(12)
H3 H 1.2984 0.6135 0.2316
C5 C 1.18040(8) 0.68498(18) 0.15860(11)
H4 H 1.2055 0.7343 0.0935
C6 C 1.08840(8) 0.68581(16) 0.17169(10)
H5 H 1.0503 0.7366 0.1164
C7 C 0.89018(8) 0.58499(15) 0.21294(9)
C8 C 0.81529(8) 0.61966(15) 0.27570(9)
C9 C 0.90019(8) 0.51549(16) 0.09798(9)
H6 H 0.892 0.611 0.044
H7 H 0.8552 0.4245 0.0837
H8 H 0.9599 0.4651 0.0904
C10 C 0.72205(8) 0.60154(15) 0.23506(9)
C11 C 0.64428(8) 0.63897(15) 0.30708(9)
C12 C 0.64663(8) 0.74877(16) 0.40061(10)
H9 H 0.7009 0.8034 0.4232
C13 C 0.56932(8) 0.77794(16) 0.46058(10)
H10 H 0.5714 0.8549 0.5229
C14 C 0.48883(8) 0.69666(16) 0.43114(10)
C15 C 0.48762(8) 0.58510(16) 0.33858(10)
H11 H 0.4338 0.5268 0.3178
C16 C 0.56344(8) 0.55817(16) 0.27668(10)
H12 H 0.5607 0.4842 0.2129
C17 C 0.40572(8) 0.72792(17) 0.49722(11)
H13 H 0.3646 0.8026 0.4541
H14 H 0.4217 0.7861 0.5677
H15 H 0.3769 0.6154 0.5128
loop_
_geom_bond_atom_site_label_1
_geom_bond_atom_site_label_2
_geom_bond_site_symmetry_1
_geom_bond_site_symmetry_2
O1 C10 1_555 1_555
N1 N2 1_555 1_555
N2 N3 1_555 1_555
N3 C8 1_555 1_555
C1 N1 1_555 1_555
C2 C1 1_555 1_555
H1 C2 1_555 1_555
C3 C2 1_555 1_555
H2 C3 1_555 1_555
C4 C3 1_555 1_555
H3 C4 1_555 1_555
C5 C4 1_555 1_555
H4 C5 1_555 1_555
C6 C1 1_555 1_555
H5 C6 1_555 1_555
C7 N1 1_555 1_555
C8 C7 1_555 1_555
C9 C7 1_555 1_555
H6 C9 1_555 1_555
H7 C9 1_555 1_555
H8 C9 1_555 1_555
C10 C8 1_555 1_555
C11 C10 1_555 1_555
C12 C11 1_555 1_555
H9 C12 1_555 1_555
C13 C12 1_555 1_555
H10 C13 1_555 1_555
C14 C13 1_555 1_555
C15 C14 1_555 1_555
H11 C15 1_555 1_555
C16 C11 1_555 1_555
H12 C16 1_555 1_555
C17 C14 1_555 1_555
H13 C17 1_555 1_555
H14 C17 1_555 1_555
H15 C17 1_555 1_555
C5 C6 1_555 1_555
C15 C16 1_555 1_555

#END
