
#######################################################################
#
#                 Cambridge Crystallographic Data Centre
#                                CCDC 
#
#######################################################################
#
# If this CIF has been generated from an entry in the Cambridge 
# Structural Database, then it will include bibliographic, chemical, 
# crystal, experimental, refinement or atomic coordinate data resulting 
# from the CCDC's data processing and validation procedures.
#
#######################################################################

data_CODBON
_chemical_name_common            
syn-9,18-Dicyano-2,11-dithia[3.3]metacyclophane
_chemical_formula_moiety         'C18 H14 N2 S2'
_chemical_name_systematic        
syn-1^2^,5^2^-Dicyano-3,7-dithia-1,5(1,3)-dibenzenacyclooctaphane
_symmetry_cell_setting           monoclinic
_symmetry_space_group_name_H-M   'P 21/n'
_symmetry_Int_Tables_number      14
_space_group_name_Hall           '-P 2yn'
loop_
_symmetry_equiv_pos_site_id
_symmetry_equiv_pos_as_xyz
1 x,y,z
2 1/2-x,1/2+y,1/2-z
3 -x,-y,-z
4 1/2+x,1/2-y,1/2+z
_cell_length_a                   8.653(2)
_cell_length_b                   14.262(4)
_cell_length_c                   11.980(3)
_cell_angle_alpha                90
_cell_angle_beta                 100.058(4)
_cell_angle_gamma                90
_cell_volume                     1455.72
_exptl_crystal_colour            colorless
_exptl_crystal_description       block
_chemical_melting_point          '215 deg.C (dec.)'
_cell_formula_units_Z            4
loop_
_atom_site_label
_atom_site_type_symbol
_atom_site_fract_x
_atom_site_fract_y
_atom_site_fract_z
C1 C 0.8843(2) 0.2107(1) 0.3950(2)
C2 C 0.7771(2) 0.2734(1) 0.4374(1)
C3 C 0.7985(2) 0.3705(1) 0.4302(2)
C4 C 0.7076(2) 0.4285(1) 0.4838(1)
C5 C 0.5955(2) 0.3912(1) 0.5413(2)
C6 C 0.5682(2) 0.2967(1) 0.5406(2)
C7 C 0.6569(2) 0.2356(1) 0.4874(1)
C8 C 0.6185(2) 0.1326(1) 0.4810(2)
C9 C 0.3917(2) 0.1387(1) 0.2764(2)
C10 C 0.4044(2) 0.2418(1) 0.2541(1)
C11 C 0.2984(2) 0.3032(1) 0.2891(2)
C12 C 0.3121(2) 0.3980(1) 0.2748(2)
C13 C 0.4357(2) 0.4343(1) 0.2290(1)
C14 C 0.5445(2) 0.3757(1) 0.1938(2)
C15 C 0.5226(2) 0.2786(1) 0.2014(2)
C16 C 0.6193(2) 0.2146(1) 0.1508(2)
C17 C 0.6810(2) 0.4185(1) 0.1496(2)
C18 C 0.9096(2) 0.4123(1) 0.3616(2)
N1 N 0.9733(2) 0.1608(1) 0.3671(1)
N2 N 0.6859(2) 0.1614(1) 0.1063(1)
S1 S 0.4136(1) 0.1079(1) 0.4255(1)
S2 S 0.8771(1) 0.3774(1) 0.2126(1)
H1 H 0.7215 0.4945 0.4815
H2 H 0.5373 0.4317 0.5813
H3 H 0.4876 0.2726 0.5771
H4 H 0.6458 0.1052 0.5578
H5 H 0.6844 0.1015 0.4321
H6 H 0.4732 0.1053 0.2432
H7 H 0.2881 0.1162 0.2371
H8 H 0.2154 0.2794 0.3233
H9 H 0.2363 0.4392 0.2965
H10 H 0.4456 0.5003 0.2217
H11 H 0.6775 0.4872 0.1605
H12 H 0.6659 0.4068 0.0669
H13 H 1.0178 0.3945 0.3967
H14 H 0.9020 0.4814 0.3655
loop_
_geom_bond_atom_site_label_1
_geom_bond_atom_site_label_2
_geom_bond_site_symmetry_1
_geom_bond_site_symmetry_2
C1 C2 1_555 1_555
C2 C3 1_555 1_555
C3 C4 1_555 1_555
C4 C5 1_555 1_555
C5 C6 1_555 1_555
C6 C7 1_555 1_555
C7 C2 1_555 1_555
C8 C7 1_555 1_555
C9 C10 1_555 1_555
C10 C11 1_555 1_555
C11 C12 1_555 1_555
C12 C13 1_555 1_555
C13 C14 1_555 1_555
C14 C15 1_555 1_555
C15 C10 1_555 1_555
C16 C15 1_555 1_555
C17 C14 1_555 1_555
C18 C3 1_555 1_555
N1 C1 1_555 1_555
N2 C16 1_555 1_555
S1 C8 1_555 1_555
S2 C17 1_555 1_555
H1 C4 1_555 1_555
H2 C5 1_555 1_555
H3 C6 1_555 1_555
H4 C8 1_555 1_555
H5 C8 1_555 1_555
H6 C9 1_555 1_555
H7 C9 1_555 1_555
H8 C11 1_555 1_555
H9 C12 1_555 1_555
H10 C13 1_555 1_555
H11 C17 1_555 1_555
H12 C17 1_555 1_555
H13 C18 1_555 1_555
H14 C18 1_555 1_555
C9 S1 1_555 1_555
C18 S2 1_555 1_555

#END
