
#######################################################################
#
#                 Cambridge Crystallographic Data Centre
#                                CCDC 
#
#######################################################################
#
# If this CIF has been generated from an entry in the Cambridge 
# Structural Database, then it will include bibliographic, chemical, 
# crystal, experimental, refinement or atomic coordinate data resulting 
# from the CCDC's data processing and validation procedures.
#
#######################################################################

data_CODDOP
_chemical_formula_moiety         'C18 H26 O4'
_chemical_name_systematic        
(1S*,5R*,6R*,8R*,10R*,14R*,17R*)-6-Hydroxy-17-methoxy-5-methyl-11-oxo-16-oxapentacyclo(8.4.3.0^1,5^.0^8,14^.0^14,17^)heptadecane
_symmetry_cell_setting           triclinic
_symmetry_space_group_name_H-M   'P -1'
_symmetry_Int_Tables_number      2
_space_group_name_Hall           '-P 1'
loop_
_symmetry_equiv_pos_site_id
_symmetry_equiv_pos_as_xyz
1 x,y,z
2 -x,-y,-z
_cell_length_a                   9.835(3)
_cell_length_b                   13.049(3)
_cell_length_c                   13.934(7)
_cell_angle_alpha                103.045(7)
_cell_angle_beta                 102.745(10)
_cell_angle_gamma                108.223(16)
_cell_volume                     1570.65
_exptl_crystal_colour            colorless
_exptl_crystal_description       plate
_cell_formula_units_Z            4
_exptl_crystal_recrystallization_method 'diethyl ether'
loop_
_atom_site_label
_atom_site_type_symbol
_atom_site_fract_x
_atom_site_fract_y
_atom_site_fract_z
O1 O 0.3016(3) 0.25592(19) 0.93950(18)
O2 O 0.2844(3) 0.33764(18) 0.80831(19)
O3 O 0.2457(4) 0.1154(2) 0.4537(2)
H1 H 0.2218 0.1495 0.4144
O4 O -0.0575(4) 0.1234(3) 0.9355(3)
C1 C 0.2826(5) 0.1839(3) 0.5588(3)
H2 H 0.3436 0.2621 0.5651
C2 C 0.3784(4) 0.1454(3) 0.6320(3)
C3 C 0.3213(5) 0.0148(3) 0.5942(3)
H3 H 0.3825 -0.0097 0.6404
H4 H 0.3272 -0.0107 0.5256
H5 H 0.2185 -0.0167 0.5931
C4 C 0.3771(4) 0.1917(3) 0.7457(3)
C5 C 0.5063(4) 0.1680(4) 0.8077(3)
H6 H 0.4721 0.0897 0.8077
H7 H 0.5466 0.2180 0.8790
C6 C 0.6269(5) 0.1909(5) 0.7519(4)
H8 H 0.7108 0.2623 0.7916
H9 H 0.6646 0.1301 0.7427
C7 C 0.5482(5) 0.1960(4) 0.6481(4)
H10 H 0.5729 0.1523 0.5932
H11 H 0.5789 0.2741 0.6477
C8 C 0.1405(5) 0.1858(3) 0.5852(3)
H12 H 0.1546 0.2648 0.6136
H13 H 0.0576 0.1535 0.5208
C9 C 0.0915(4) 0.1243(3) 0.6608(3)
H14 H 0.0406 0.0425 0.6234
C10 C 0.2213(4) 0.1430(3) 0.7591(3)
C11 C 0.4114(4) 0.3208(3) 0.7811(3)
H15 H 0.5020 0.3598 0.8406
H16 H 0.4275 0.3517 0.7255
C12 C 0.2174(4) 0.2425(3) 0.8381(3)
C13 C 0.0492(4) 0.2128(3) 0.8230(3)
H17 H 0.0275 0.2785 0.8546
C14 C 0.0040(4) 0.1188(3) 0.8694(3)
C15 C 0.0336(5) 0.0148(3) 0.8233(4)
H18 H -0.0484 -0.0325 0.7598
H19 H 0.0332 -0.0286 0.8714
C16 C 0.1829(4) 0.0403(3) 0.7987(3)
H20 H 0.2634 0.0550 0.8608
H21 H 0.1763 -0.0260 0.7465
C17 C 0.3179(5) 0.3549(3) 1.0168(3)
H22 H 0.3757 0.3575 1.0832
H23 H 0.2201 0.3526 1.0189
H24 H 0.3689 0.4214 1.0006
C18 C -0.0207(5) 0.1673(3) 0.7047(3)
H25 H -0.0349 0.2272 0.6782
H26 H -0.1179 0.1055 0.6847
O5 O 0.3411(3) 0.83877(17) 0.78204(19)
O6 O 0.5265(3) 0.7663(2) 0.82510(19)
O7 O 0.6348(3) 0.7036(3) 0.6184(3)
O8 O -0.1999(3) 0.5627(2) 0.6362(2)
C19 C -0.0493(4) 0.6437(3) 0.6941(3)
H28 H -0.0582 0.7115 0.7353
C20 C 0.0408(4) 0.6812(3) 0.6222(3)
H29 H 0.0855 0.7637 0.6461
H30 H -0.0301 0.6578 0.5533
C21 C 0.1675(4) 0.6373(3) 0.6123(3)
H31 H 0.1218 0.5581 0.5666
C22 C 0.2721(4) 0.6437(3) 0.7179(3)
C23 C 0.2029(4) 0.6604(3) 0.8061(3)
C24 C 0.0297(4) 0.5965(3) 0.7702(3)
C25 C -0.0153(4) 0.4677(3) 0.7185(3)
H32 H 0.0325 0.4375 0.7666
H33 H 0.0163 0.4558 0.6579
H34 H -0.1228 0.4297 0.6989
C26 C -0.0026(5) 0.6137(4) 0.8746(3)
H35 H -0.0936 0.5524 0.8689
H36 H -0.0155 0.6852 0.8958
C27 C 0.1329(5) 0.6143(4) 0.9524(4)
H37 H 0.1688 0.6793 1.0146
H38 H 0.1063 0.5454 0.9717
C28 C 0.2549(4) 0.6212(3) 0.8989(3)
H39 H 0.2613 0.5475 0.8757
H40 H 0.3526 0.6756 0.9457
C29 C 0.2533(4) 0.7935(3) 0.8441(3)
H41 H 0.1655 0.8138 0.8360
H42 H 0.3133 0.8246 0.9168
C30 C 0.4004(4) 0.7586(3) 0.7461(3)
C31 C 0.4323(4) 0.7594(3) 0.6441(3)
H43 H 0.4932 0.8353 0.6449
C32 C 0.2733(4) 0.7093(3) 0.5650(3)
H44 H 0.2718 0.6622 0.4998
H45 H 0.2418 0.7697 0.5524
C33 C 0.5091(4) 0.6752(3) 0.6282(3)
C34 C 0.4209(4) 0.5572(3) 0.6230(3)
H46 H 0.4894 0.5181 0.6338
H47 H 0.3493 0.5174 0.5538
C35 C 0.3346(4) 0.5494(3) 0.7022(3)
H48 H 0.2520 0.4757 0.6778
H49 H 0.4015 0.5562 0.7679
C36 C 0.6483(4) 0.8780(4) 0.8678(4)
H50 H 0.7286 0.8766 0.9204
H51 H 0.6115 0.9334 0.8976
H52 H 0.6853 0.8978 0.8135
H27? H 0.6920 0.6926 0.6638
loop_
_geom_bond_atom_site_label_1
_geom_bond_atom_site_label_2
_geom_bond_site_symmetry_1
_geom_bond_site_symmetry_2
O1 C12 1_555 1_555
O2 C11 1_555 1_555
O3 H1 1_555 1_555
O4 C14 1_555 1_555
C1 O3 1_555 1_555
H2 C1 1_555 1_555
C2 C1 1_555 1_555
C3 C2 1_555 1_555
H3 C3 1_555 1_555
H4 C3 1_555 1_555
H5 C3 1_555 1_555
C4 C2 1_555 1_555
C5 C4 1_555 1_555
H6 C5 1_555 1_555
H7 C5 1_555 1_555
C6 C5 1_555 1_555
H8 C6 1_555 1_555
H9 C6 1_555 1_555
C7 C2 1_555 1_555
H10 C7 1_555 1_555
H11 C7 1_555 1_555
C8 C1 1_555 1_555
H12 C8 1_555 1_555
H13 C8 1_555 1_555
C9 C8 1_555 1_555
H14 C9 1_555 1_555
C10 C4 1_555 1_555
C11 C4 1_555 1_555
H15 C11 1_555 1_555
H16 C11 1_555 1_555
C12 O2 1_555 1_555
C13 C12 1_555 1_555
H17 C13 1_555 1_555
C14 C13 1_555 1_555
C15 C14 1_555 1_555
H18 C15 1_555 1_555
H19 C15 1_555 1_555
C16 C10 1_555 1_555
H20 C16 1_555 1_555
H21 C16 1_555 1_555
C17 O1 1_555 1_555
H22 C17 1_555 1_555
H23 C17 1_555 1_555
H24 C17 1_555 1_555
C18 C9 1_555 1_555
H25 C18 1_555 1_555
H26 C18 1_555 1_555
O5 C29 1_555 1_555
O6 C30 1_555 1_555
O7 C33 1_555 1_555
O8 C19 1_555 1_555
C19 H28 1_555 1_555
C20 C19 1_555 1_555
H29 C20 1_555 1_555
H30 C20 1_555 1_555
C21 C20 1_555 1_555
H31 C21 1_555 1_555
C22 C21 1_555 1_555
C23 C22 1_555 1_555
C24 C19 1_555 1_555
C25 C24 1_555 1_555
H32 C25 1_555 1_555
H33 C25 1_555 1_555
H34 C25 1_555 1_555
C26 C24 1_555 1_555
H35 C26 1_555 1_555
H36 C26 1_555 1_555
C27 C26 1_555 1_555
H37 C27 1_555 1_555
H38 C27 1_555 1_555
C28 C23 1_555 1_555
H39 C28 1_555 1_555
H40 C28 1_555 1_555
C29 C23 1_555 1_555
H41 C29 1_555 1_555
H42 C29 1_555 1_555
C30 O5 1_555 1_555
C31 C30 1_555 1_555
H43 C31 1_555 1_555
C32 C21 1_555 1_555
H44 C32 1_555 1_555
H45 C32 1_555 1_555
C33 C31 1_555 1_555
C34 C33 1_555 1_555
H46 C34 1_555 1_555
H47 C34 1_555 1_555
C35 C22 1_555 1_555
H48 C35 1_555 1_555
H49 C35 1_555 1_555
C36 O6 1_555 1_555
H50 C36 1_555 1_555
H51 C36 1_555 1_555
H52 C36 1_555 1_555
C6 C7 1_555 1_555
C9 C10 1_555 1_555
C10 C12 1_555 1_555
C13 C18 1_555 1_555
C15 C16 1_555 1_555
C22 C30 1_555 1_555
C23 C24 1_555 1_555
C27 C28 1_555 1_555
C31 C32 1_555 1_555
C34 C35 1_555 1_555

#END
