
#######################################################################
#
#                 Cambridge Crystallographic Data Centre
#                                CCDC 
#
#######################################################################
#
# If this CIF has been generated from an entry in the Cambridge 
# Structural Database, then it will include bibliographic, chemical, 
# crystal, experimental, refinement or atomic coordinate data resulting 
# from the CCDC's data processing and validation procedures.
#
#######################################################################

data_CODWEY
_chemical_formula_moiety         'C30 H33 N1 P2'
_chemical_name_systematic        bis(2-(Diisopropylphosphino)phenyl)amine
_symmetry_cell_setting           triclinic
_symmetry_space_group_name_H-M   'P -1'
_symmetry_Int_Tables_number      2
_space_group_name_Hall           '-P 1'
loop_
_symmetry_equiv_pos_site_id
_symmetry_equiv_pos_as_xyz
1 x,y,z
2 -x,-y,-z
_cell_length_a                   8.4309(3)
_cell_length_b                   12.8265(5)
_cell_length_c                   13.2757(6)
_cell_angle_alpha                71.000(2)
_cell_angle_beta                 74.009(2)
_cell_angle_gamma                89.143(2)
_cell_volume                     1300.46
_exptl_crystal_colour            colorless
_exptl_crystal_description       prism
_cell_formula_units_Z            2
_exptl_crystal_recrystallization_method 'diethyl ether'
loop_
_atom_site_label
_atom_site_type_symbol
_atom_site_fract_x
_atom_site_fract_y
_atom_site_fract_z
P1 P 0.24130(16) 0.22809(10) 0.40345(11)
P2 P 0.62670(16) 0.02032(10) 0.19846(11)
N1 N 0.4203(5) 0.2197(3) 0.1816(3)
H1 H 0.4220 0.1610 0.2481
C1 C 0.0681(6) 0.2519(4) 0.5102(4)
C2 C -0.0605(7) 0.1687(4) 0.5646(4)
H2 H -0.0554 0.1039 0.5429
C3 C -0.1939(7) 0.1781(5) 0.6486(5)
H3 H -0.2830 0.1208 0.6846
C4 C -0.1980(7) 0.2710(6) 0.6793(5)
H4 H -0.2891 0.2782 0.7381
C5 C -0.0738(7) 0.3541(5) 0.6273(4)
H5 H -0.0783 0.4184 0.6497
C6 C 0.0588(6) 0.3447(4) 0.5434(4)
H6 H 0.1457 0.4034 0.5068
C7 C 0.3998(5) 0.3372(4) 0.3801(4)
C8 C 0.4973(6) 0.3180(4) 0.4532(4)
H7 H 0.4794 0.2488 0.5131
C9 C 0.6175(7) 0.3973(5) 0.4395(5)
H8 H 0.6833 0.3843 0.4904
C10 C 0.6467(7) 0.4963(5) 0.3527(5)
H9 H 0.7305 0.5512 0.3436
C11 C 0.5541(7) 0.5156(5) 0.2796(5)
H10 H 0.5754 0.5846 0.2192
C12 C 0.4316(6) 0.4368(4) 0.2937(4)
H11 H 0.3674 0.4515 0.2417
C13 C 0.1703(5) 0.2837(4) 0.2787(4)
C14 C 0.0210(6) 0.3312(4) 0.2763(4)
H12 H -0.0536 0.3346 0.3442
C15 C -0.0240(6) 0.3716(4) 0.1798(4)
H13 H -0.1274 0.4041 0.1802
C16 C 0.0806(6) 0.3667(4) 0.0812(4)
H14 H 0.0515 0.3974 0.0131
C17 C 0.2273(6) 0.3173(4) 0.0809(4)
H15 H 0.2983 0.3114 0.0130
C18 C 0.2737(6) 0.2743(3) 0.1792(4)
C19 C 0.5673(6) 0.2412(4) 0.0962(4)
C20 C 0.6118(6) 0.3471(4) 0.0168(4)
H16 H 0.5391 0.4045 0.0227
C21 C 0.7565(6) 0.3704(4) -0.0686(4)
H17 H 0.7823 0.4432 -0.1231
C22 C 0.8617(6) 0.2893(4) -0.0761(4)
H18 H 0.9617 0.3046 -0.1365
C23 C 0.8241(6) 0.1860(4) 0.0033(4)
H19 H 0.8988 0.1294 -0.0007
C24 C 0.6793(6) 0.1583(4) 0.0915(4)
C25 C 0.7515(6) 0.0258(4) 0.2930(4)
H20 H 0.7357 -0.0479 0.3456
C26 C 0.9353(6) 0.0566(4) 0.2402(5)
H21 H 0.9877 0.0560 0.2960
H22 H 0.9511 0.1295 0.1861
H23 H 0.9835 0.0049 0.2043
C27 C 0.6755(7) 0.1030(5) 0.3568(5)
H24 H 0.7383 0.1054 0.4064
H25 H 0.5627 0.0773 0.3986
H26 H 0.6792 0.1758 0.3045
C28 C 0.7437(6) -0.0720(4) 0.1266(5)
H27 H 0.8576 -0.0433 0.0955
C29 C 0.7332(8) -0.1870(4) 0.2103(6)
H28 H 0.7942 -0.2347 0.1737
H29 H 0.6192 -0.2154 0.2419
H30 H 0.7785 -0.1838 0.2682
C30 C 0.6762(8) -0.0752(5) 0.0314(6)
H31 H 0.7377 -0.1227 -0.0053
H32 H 0.6859 -0.0018 -0.0211
H33 H 0.5618 -0.1029 0.0612
loop_
_geom_bond_atom_site_label_1
_geom_bond_atom_site_label_2
_geom_bond_site_symmetry_1
_geom_bond_site_symmetry_2
P1 C1 1_555 1_555
P2 C24 1_555 1_555
N1 H1 1_555 1_555
C1 C2 1_555 1_555
C2 H2 1_555 1_555
C3 C2 1_555 1_555
H3 C3 1_555 1_555
C4 C3 1_555 1_555
H4 C4 1_555 1_555
C5 C4 1_555 1_555
H5 C5 1_555 1_555
C6 C1 1_555 1_555
H6 C6 1_555 1_555
C7 P1 1_555 1_555
C8 C7 1_555 1_555
H7 C8 1_555 1_555
C9 C8 1_555 1_555
H8 C9 1_555 1_555
C10 C9 1_555 1_555
H9 C10 1_555 1_555
C11 C10 1_555 1_555
H10 C11 1_555 1_555
C12 C7 1_555 1_555
H11 C12 1_555 1_555
C13 P1 1_555 1_555
C14 C13 1_555 1_555
H12 C14 1_555 1_555
C15 C14 1_555 1_555
H13 C15 1_555 1_555
C16 C15 1_555 1_555
H14 C16 1_555 1_555
C17 C16 1_555 1_555
H15 C17 1_555 1_555
C18 N1 1_555 1_555
C19 N1 1_555 1_555
C20 C19 1_555 1_555
H16 C20 1_555 1_555
C21 C20 1_555 1_555
H17 C21 1_555 1_555
C22 C21 1_555 1_555
H18 C22 1_555 1_555
C23 C22 1_555 1_555
H19 C23 1_555 1_555
C24 C19 1_555 1_555
C25 P2 1_555 1_555
H20 C25 1_555 1_555
C26 C25 1_555 1_555
H21 C26 1_555 1_555
H22 C26 1_555 1_555
H23 C26 1_555 1_555
C27 C25 1_555 1_555
H24 C27 1_555 1_555
H25 C27 1_555 1_555
H26 C27 1_555 1_555
C28 P2 1_555 1_555
H27 C28 1_555 1_555
C29 C28 1_555 1_555
H28 C29 1_555 1_555
H29 C29 1_555 1_555
H30 C29 1_555 1_555
C30 C28 1_555 1_555
H31 C30 1_555 1_555
H32 C30 1_555 1_555
H33 C30 1_555 1_555
C5 C6 1_555 1_555
C11 C12 1_555 1_555
C13 C18 1_555 1_555
C17 C18 1_555 1_555
C23 C24 1_555 1_555

#END
