
#######################################################################
#
#                 Cambridge Crystallographic Data Centre
#                                CCDC 
#
#######################################################################
#
# If this CIF has been generated from an entry in the Cambridge 
# Structural Database, then it will include bibliographic, chemical, 
# crystal, experimental, refinement or atomic coordinate data resulting 
# from the CCDC's data processing and validation procedures.
#
#######################################################################

data_COFBIK
_chemical_formula_moiety         'C34 H31 N1 O6,0.25(C4 H8 O2)'
_chemical_name_systematic        
"ethyl 1'-acetyl-3-(4-methylbenzoyl)-5-(2-(4-methylphenyl)-2-oxoethyl)-2'-oxo-1',2'-dihydrospiro[cyclopent-3-ene-1,3'-indole]-2-carboxylate ethyl acetate solvate"
_symmetry_cell_setting           monoclinic
_symmetry_space_group_name_H-M   'P 21/c'
_symmetry_Int_Tables_number      14
_space_group_name_Hall           '-P 2ybc'
loop_
_symmetry_equiv_pos_site_id
_symmetry_equiv_pos_as_xyz
1 x,y,z
2 -x,1/2+y,1/2-z
3 -x,-y,-z
4 x,1/2-y,1/2+z
_cell_length_a                   13.229(2)
_cell_length_b                   28.854(4)
_cell_length_c                   16.140(2)
_cell_angle_alpha                90
_cell_angle_beta                 107.170(2)
_cell_angle_gamma                90
_cell_volume                     5886.22
_exptl_crystal_colour            colorless
_exptl_crystal_description       Prism
_cell_formula_units_Z            8
loop_
_atom_site_label
_atom_site_type_symbol
_atom_site_fract_x
_atom_site_fract_y
_atom_site_fract_z
O7 O -0.08522(10) 0.21536(5) 0.75843(8)
O8 O 0.09352(8) 0.19603(4) 1.01312(6)
O9 O 0.24028(8) 0.13909(3) 0.96462(6)
O10 O 0.32844(8) 0.14731(4) 1.10617(7)
O11 O 0.54790(9) 0.19765(4) 1.07522(7)
O12 O 0.03107(8) 0.30641(4) 0.97434(7)
N2 N 0.05905(10) 0.22652(4) 0.87346(7)
C35 C 0.11685(12) 0.25550(5) 0.83161(9)
C36 C 0.08694(14) 0.27310(5) 0.74776(9)
H32 H 0.0197 0.2661 0.7083
C37 C 0.15885(15) 0.30124(6) 0.72365(10)
H33 H 0.1398 0.3140 0.6669
C38 C 0.25729(14) 0.31109(5) 0.78014(10)
H34 H 0.3052 0.3301 0.7618
C39 C 0.28649(13) 0.29315(5) 0.86386(10)
H35 H 0.3544 0.2996 0.9028
C40 C 0.21512(11) 0.26585(5) 0.88954(9)
C41 C 0.22518(11) 0.24400(5) 0.97647(8)
C42 C 0.11955(11) 0.21891(5) 0.96027(9)
C43 C -0.04482(12) 0.21076(6) 0.83565(10)
C44 C -0.10058(13) 0.18959(6) 0.89454(11)
H36 H -0.1759 0.1862 0.8634
H37 H -0.0923 0.2097 0.9451
H38 H -0.0701 0.1591 0.9137
C45 C 0.32415(11) 0.21109(5) 1.00783(9)
H39 H 0.3593 0.2086 0.9610
C46 C 0.39706(11) 0.23621(5) 1.08460(9)
C47 C 0.35109(11) 0.27333(5) 1.10685(9)
H40 H 0.3862 0.2938 1.1524
C48 C 0.23882(11) 0.27963(5) 1.05309(9)
H41 H 0.1919 0.2697 1.0883
C49 C 0.21116(11) 0.32966(5) 1.02408(9)
H42 H 0.2239 0.3497 1.0759
H43 H 0.2583 0.3403 0.9903
C50 C 0.09736(11) 0.33483(5) 0.96933(9)
C51 C 0.06791(12) 0.37504(5) 0.90921(9)
C52 C -0.03180(13) 0.37579(6) 0.84849(10)
H44 H -0.0794 0.3508 0.8460
C53 C -0.06196(14) 0.41260(6) 0.79176(10)
H45 H -0.1301 0.4124 0.7504
C54 C 0.00523(15) 0.44978(6) 0.79398(10)
C55 C 0.10455(14) 0.44906(6) 0.85506(11)
H46 H 0.1515 0.4743 0.8580
C56 C 0.13632(13) 0.41213(5) 0.91177(11)
H47 H 0.2049 0.4121 0.9525
C57 C -0.02749(17) 0.48924(6) 0.73054(11)
H48 H 0.0049 0.4853 0.6837
H49 H -0.0039 0.5186 0.7605
H50 H -0.1047 0.4895 0.7062
C58 C 0.29914(11) 0.16283(5) 1.03364(9)
C59 C 0.19469(12) 0.09632(5) 0.98555(10)
H51 H 0.1605 0.1020 1.0315
H52 H 0.2506 0.0727 1.0066
C60 C 0.11446(14) 0.07980(6) 0.90432(11)
H53 H 0.0596 0.1035 0.8841
H54 H 0.0821 0.0510 0.9164
H55 H 0.1493 0.0741 0.8594
C61 C 0.50633(11) 0.21878(5) 1.12276(10)
C62 C 0.56353(11) 0.22530(5) 1.21648(10)
C63 C 0.67258(12) 0.21643(6) 1.24479(11)
H56 H 0.7089 0.2089 1.2038
C64 C 0.72765(13) 0.21866(6) 1.33225(11)
H57 H 0.8014 0.2124 1.3505
C65 C 0.67697(13) 0.22995(5) 1.39408(11)
C66 C 0.56929(13) 0.23946(5) 1.36580(10)
H58 H 0.5336 0.2478 1.4068
C67 C 0.51291(12) 0.23692(5) 1.27825(10)
H59 H 0.4391 0.2432 1.2603
C68 C 0.73745(15) 0.23242(6) 1.48945(11)
H60 H 0.7542 0.2648 1.5061
H61 H 0.8032 0.2146 1.5004
H62 H 0.6941 0.2194 1.5236
O13 O 0.5000 0.5000 1.0000
C69 C 0.4211(7) 0.4502(2) 1.0735(5)
C70 C 0.4193(3) 0.47668(15) 0.9982(3)
O14 O 0.3368(3) 0.48225(15) 0.9414(2)
C71 C 0.5026(3) 0.52228(14) 0.9158(2)
C69B C 0.5789(7) 0.5498(2) 0.9265(5)
C70B C 0.5807(3) 0.52332(15) 1.0018(3)
O14B O 0.6632(3) 0.51775(15) 1.0586(2)
C71B C 0.4974(3) 0.47772(14) 1.0842(2)
O1 O 0.87621(9) 0.51224(4) 0.40986(8)
O2 O 0.56931(9) 0.46700(4) 0.29239(7)
O3 O 0.66751(8) 0.36650(4) 0.28496(7)
O4 O 0.49685(8) 0.35984(4) 0.20576(7)
O5 O 0.34791(8) 0.31311(3) 0.30642(7)
O6 O 0.66683(8) 0.47674(4) 0.60264(7)
N1 N 0.73528(9) 0.46524(4) 0.39557(8)
C1 C 0.78551(11) 0.43358(5) 0.46408(9)
C2 C 0.89105(12) 0.43090(6) 0.51265(10)
H1 H 0.9417 0.4526 0.5052
C3 C 0.91968(12) 0.39514(6) 0.57277(10)
H2 H 0.9914 0.3925 0.6071
C4 C 0.84652(12) 0.36324(6) 0.58411(10)
H3 H 0.8686 0.3390 0.6254
C5 C 0.74040(12) 0.36659(5) 0.53497(9)
H4 H 0.6898 0.3448 0.5423
C6 C 0.71047(11) 0.40218(5) 0.47538(9)
C7 C 0.60366(11) 0.41348(5) 0.41481(9)
C8 C 0.62959(11) 0.45113(5) 0.35737(9)
C9 C 0.78468(12) 0.50397(5) 0.37104(10)
C10 C 0.72122(15) 0.53409(6) 0.29930(12)
H5 H 0.7630 0.5613 0.2939
H6 H 0.6566 0.5441 0.3121
H7 H 0.7024 0.5166 0.2448
C11 C 0.54039(10) 0.37266(5) 0.36023(9)
H8 H 0.5569 0.3434 0.3949
C12 C 0.42638(11) 0.38552(5) 0.34738(9)
C13 C 0.41756(11) 0.42215(5) 0.39471(9)
H9 H 0.3522 0.4370 0.3907
C14 C 0.52157(11) 0.43757(5) 0.45507(9)
H10 H 0.5281 0.4720 0.4527
C15 C 0.52738(11) 0.42224(5) 0.54734(9)
H11 H 0.4574 0.4274 0.5563
H12 H 0.5417 0.3885 0.5524
C16 C 0.61039(11) 0.44666(5) 0.61897(9)
C17 C 0.61784(11) 0.43367(5) 0.70999(9)
C18 C 0.55325(12) 0.40005(5) 0.72989(10)
H13 H 0.5021 0.3845 0.6845
C19 C 0.56298(13) 0.38900(6) 0.81560(10)
H14 H 0.5177 0.3662 0.8280
C20 C 0.63729(13) 0.41057(6) 0.88342(10)
C21 C 0.70145(13) 0.44437(6) 0.86321(10)
H15 H 0.7526 0.4598 0.9088
C22 C 0.69210(12) 0.45584(5) 0.77821(10)
H16 H 0.7367 0.4790 0.7660
C23 C 0.64962(16) 0.39728(7) 0.97600(11)
H17 H 0.5835 0.3836 0.9801
H18 H 0.6663 0.4249 1.0128
H19 H 0.7071 0.3747 0.9954
C24 C 0.56315(11) 0.36551(5) 0.27412(9)
C25 C 0.70334(13) 0.36246(7) 0.20793(11)
H20 H 0.6436 0.3678 0.1550
H21 H 0.7321 0.3311 0.2046
C26 C 0.78763(16) 0.39820(8) 0.21508(12)
H22 H 0.7567 0.4292 0.2124
H23 H 0.8183 0.3944 0.1671
H24 H 0.8431 0.3944 0.2704
C27 C 0.33855(11) 0.35519(5) 0.29800(8)
C28 C 0.24023(11) 0.37636(5) 0.24031(9)
C29 C 0.24044(11) 0.42008(5) 0.20362(9)
H25 H 0.3029 0.4384 0.2195
C30 C 0.14963(12) 0.43683(5) 0.14406(9)
H26 H 0.1510 0.4663 0.1184
C31 C 0.05619(11) 0.41115(5) 0.12117(9)
C32 C 0.05618(11) 0.36788(5) 0.15977(9)
H27 H -0.0072 0.3502 0.1459
C33 C 0.14704(11) 0.35037(5) 0.21793(9)
H28 H 0.1460 0.3206 0.2427
C34 C -0.04157(12) 0.42986(6) 0.05561(10)
H29 H -0.0871 0.4040 0.0277
H30 H -0.0210 0.4478 0.0116
H31 H -0.0801 0.4499 0.0849
C72? C 0.4077(10) 0.4377(4) 1.0585(8)
loop_
_geom_bond_atom_site_label_1
_geom_bond_atom_site_label_2
_geom_bond_site_symmetry_1
_geom_bond_site_symmetry_2
O1 C9 1_555 1_555
O2 C8 1_555 1_555
O3 C24 1_555 1_555
O4 C24 1_555 1_555
O5 C27 1_555 1_555
O6 C16 1_555 1_555
N1 C1 1_555 1_555
C1 C2 1_555 1_555
C2 H1 1_555 1_555
C3 C2 1_555 1_555
H2 C3 1_555 1_555
C4 C3 1_555 1_555
H3 C4 1_555 1_555
C5 C4 1_555 1_555
H4 C5 1_555 1_555
C6 C1 1_555 1_555
C7 C6 1_555 1_555
C8 N1 1_555 1_555
C9 N1 1_555 1_555
C10 C9 1_555 1_555
H5 C10 1_555 1_555
H6 C10 1_555 1_555
H7 C10 1_555 1_555
C11 C7 1_555 1_555
H8 C11 1_555 1_555
C12 C11 1_555 1_555
C13 C12 1_555 1_555
H9 C13 1_555 1_555
C14 C7 1_555 1_555
H10 C14 1_555 1_555
C15 C14 1_555 1_555
H11 C15 1_555 1_555
H12 C15 1_555 1_555
C16 C15 1_555 1_555
C17 C16 1_555 1_555
C18 C17 1_555 1_555
H13 C18 1_555 1_555
C19 C18 1_555 1_555
H14 C19 1_555 1_555
C20 C19 1_555 1_555
C21 C20 1_555 1_555
H15 C21 1_555 1_555
C22 C17 1_555 1_555
H16 C22 1_555 1_555
C23 C20 1_555 1_555
H17 C23 1_555 1_555
H18 C23 1_555 1_555
H19 C23 1_555 1_555
C24 C11 1_555 1_555
C25 O3 1_555 1_555
H20 C25 1_555 1_555
H21 C25 1_555 1_555
C26 C25 1_555 1_555
H22 C26 1_555 1_555
H23 C26 1_555 1_555
H24 C26 1_555 1_555
C27 C12 1_555 1_555
C28 C27 1_555 1_555
C29 C28 1_555 1_555
H25 C29 1_555 1_555
C30 C29 1_555 1_555
H26 C30 1_555 1_555
C31 C30 1_555 1_555
C32 C31 1_555 1_555
H27 C32 1_555 1_555
C33 C28 1_555 1_555
H28 C33 1_555 1_555
C34 C31 1_555 1_555
H29 C34 1_555 1_555
H30 C34 1_555 1_555
H31 C34 1_555 1_555
O7 C43 1_555 1_555
O8 C42 1_555 1_555
O9 C58 1_555 1_555
O10 C58 1_555 1_555
O11 C61 1_555 1_555
O12 C50 1_555 1_555
N2 C35 1_555 1_555
C35 C36 1_555 1_555
C36 H32 1_555 1_555
C37 C36 1_555 1_555
H33 C37 1_555 1_555
C38 C37 1_555 1_555
H34 C38 1_555 1_555
C39 C38 1_555 1_555
H35 C39 1_555 1_555
C40 C35 1_555 1_555
C41 C40 1_555 1_555
C42 N2 1_555 1_555
C43 N2 1_555 1_555
C44 C43 1_555 1_555
H36 C44 1_555 1_555
H37 C44 1_555 1_555
H38 C44 1_555 1_555
C45 C41 1_555 1_555
H39 C45 1_555 1_555
C46 C45 1_555 1_555
C47 C46 1_555 1_555
H40 C47 1_555 1_555
C48 C41 1_555 1_555
H41 C48 1_555 1_555
C49 C48 1_555 1_555
H42 C49 1_555 1_555
H43 C49 1_555 1_555
C50 C49 1_555 1_555
C51 C50 1_555 1_555
C52 C51 1_555 1_555
H44 C52 1_555 1_555
C53 C52 1_555 1_555
H45 C53 1_555 1_555
C54 C53 1_555 1_555
C55 C54 1_555 1_555
H46 C55 1_555 1_555
C56 C51 1_555 1_555
H47 C56 1_555 1_555
C57 C54 1_555 1_555
H48 C57 1_555 1_555
H49 C57 1_555 1_555
H50 C57 1_555 1_555
C58 C45 1_555 1_555
C59 O9 1_555 1_555
H51 C59 1_555 1_555
H52 C59 1_555 1_555
C60 C59 1_555 1_555
H53 C60 1_555 1_555
H54 C60 1_555 1_555
H55 C60 1_555 1_555
C61 C46 1_555 1_555
C62 C61 1_555 1_555
C63 C62 1_555 1_555
H56 C63 1_555 1_555
C64 C63 1_555 1_555
H57 C64 1_555 1_555
C65 C64 1_555 1_555
C66 C65 1_555 1_555
H58 C66 1_555 1_555
C67 C62 1_555 1_555
H59 C67 1_555 1_555
C68 C65 1_555 1_555
H60 C68 1_555 1_555
H61 C68 1_555 1_555
H62 C68 1_555 1_555
O13 C70 1_555 1_555
C69 C70 1_555 1_555
C70 O14 1_555 1_555
C71 O13 1_555 1_555
C69B C71 1_555 1_555
C70B O13 1_555 1_555
O14B C70B 1_555 1_555
C71B O13 1_555 1_555
C5 C6 1_555 1_555
C7 C8 1_555 1_555
C13 C14 1_555 1_555
C21 C22 1_555 1_555
C32 C33 1_555 1_555
C39 C40 1_555 1_555
C41 C42 1_555 1_555
C47 C48 1_555 1_555
C55 C56 1_555 1_555
C66 C67 1_555 1_555
C69 C71B 1_555 1_555
C69B C70B 1_555 1_555

#END
