
#######################################################################
#
#                 Cambridge Crystallographic Data Centre
#                                CCDC 
#
#######################################################################
#
# If this CIF has been generated from an entry in the Cambridge 
# Structural Database, then it will include bibliographic, chemical, 
# crystal, experimental, refinement or atomic coordinate data resulting 
# from the CCDC's data processing and validation procedures.
#
#######################################################################

data_COFGOU
_chemical_formula_moiety         'C29 H25 F1 N2 O3 S1'
_chemical_name_systematic        
N'-(4-Fluoro-1,3-diphenyl-4-(phenylsulfonyl)butylidene)benzohydrazide
_symmetry_cell_setting           monoclinic
_symmetry_space_group_name_H-M   'P 21/c'
_symmetry_Int_Tables_number      14
_space_group_name_Hall           '-P 2ybc'
loop_
_symmetry_equiv_pos_site_id
_symmetry_equiv_pos_as_xyz
1 x,y,z
2 -x,1/2+y,1/2-z
3 -x,-y,-z
4 x,1/2-y,1/2+z
_cell_length_a                   10.6539(9)
_cell_length_b                   15.7344(14)
_cell_length_c                   15.2219(13)
_cell_angle_alpha                90
_cell_angle_beta                 94.336(2)
_cell_angle_gamma                90
_cell_volume                     2544.39
_exptl_crystal_colour            colorless
_exptl_crystal_description       prismatic
_cell_formula_units_Z            4
loop_
_atom_site_label
_atom_site_type_symbol
_atom_site_fract_x
_atom_site_fract_y
_atom_site_fract_z
S1 S 0.64390(5) 0.20302(4) 0.28022(3)
F1 F 0.57438(12) 0.36025(8) 0.26462(9)
O1 O 0.39323(14) 0.52786(9) -0.08305(10)
O2 O 0.58102(19) 0.12397(11) 0.29490(13)
O3 O 0.72208(16) 0.20945(15) 0.21005(10)
N1 N 0.36326(15) 0.31254(10) -0.03789(10)
N2 N 0.39894(16) 0.39583(11) -0.02925(11)
C1 C 0.51927(18) 0.28172(13) 0.26768(13)
C2 C 0.42947(17) 0.26493(12) 0.18735(12)
C3 C 0.49270(17) 0.27520(13) 0.09996(12)
H1 H 0.5251 0.3326 0.0964
H2 H 0.5634 0.2364 0.0998
C4 C 0.40366(17) 0.25807(13) 0.02023(11)
C5 C 0.35756(18) 0.16964(13) 0.00412(12)
C6 C 0.2638(2) 0.15311(15) -0.06255(15)
H3 H 0.2283 0.1980 -0.0955
C7 C 0.2228(3) 0.07194(18) -0.08042(19)
H4 H 0.1615 0.0623 -0.1261
C8 C 0.2714(3) 0.00487(17) -0.0315(2)
H5 H 0.2434 -0.0501 -0.0438
C9 C 0.3613(3) 0.01959(16) 0.03551(18)
H6 H 0.3932 -0.0255 0.0698
C10 C 0.4052(2) 0.10093(14) 0.05291(14)
H7 H 0.4677 0.1097 0.0980
C11 C 0.31119(16) 0.31880(12) 0.18852(12)
C12 C 0.31084(19) 0.40527(13) 0.17235(14)
H8 H 0.3860 0.4335 0.1649
C13 C 0.1982(2) 0.44977(15) 0.16733(16)
H9 H 0.1979 0.5078 0.1557
C14 C 0.0874(2) 0.40879(16) 0.17939(16)
H10 H 0.0118 0.4386 0.1740
C15 C 0.0880(2) 0.32437(16) 0.19925(16)
H11 H 0.0133 0.2971 0.2100
C16 C 0.19955(18) 0.27920(13) 0.20345(14)
H12 H 0.1992 0.2215 0.2165
C17 C 0.34991(18) 0.45574(13) -0.08553(12)
C18 C 0.23880(17) 0.43400(12) -0.14748(12)
C19 C 0.23771(19) 0.46425(13) -0.23284(13)
H13 H 0.3067 0.4939 -0.2510
C20 C 0.1336(2) 0.45029(15) -0.29131(15)
H14 H 0.1336 0.4693 -0.3492
C21 C 0.0313(2) 0.40874(15) -0.26409(17)
H15 H -0.0388 0.4001 -0.3033
C22 C 0.03107(19) 0.37965(14) -0.17942(18)
H16 H -0.0393 0.3516 -0.1612
C23 C 0.13483(18) 0.39180(13) -0.12098(15)
H17 H 0.1346 0.3715 -0.0636
C24 C 0.73550(18) 0.23296(15) 0.37596(13)
C25 C 0.8175(2) 0.30026(17) 0.37285(18)
H18 H 0.8193 0.3334 0.3224
C26 C 0.8969(3) 0.3173(2) 0.4467(3)
H19 H 0.9533 0.3624 0.4463
C27 C 0.8927(3) 0.2680(3) 0.5202(2)
H20 H 0.9468 0.2799 0.5695
C28 C 0.8109(3) 0.2016(2) 0.52268(17)
H21 H 0.8093 0.1687 0.5733
C29 C 0.7311(2) 0.18348(18) 0.45035(14)
H22 H 0.6747 0.1384 0.4514
H23 H 0.4824(15) 0.2817(10) 0.3234(9)
H24 H 0.4055(16) 0.2051(9) 0.1917(12)
H25 H 0.4559(17) 0.4155(14) 0.0083(12)
loop_
_geom_bond_atom_site_label_1
_geom_bond_atom_site_label_2
_geom_bond_site_symmetry_1
_geom_bond_site_symmetry_2
S1 O2 1_555 1_555
F1 C1 1_555 1_555
O1 C17 1_555 1_555
O3 S1 1_555 1_555
N1 N2 1_555 1_555
N2 C17 1_555 1_555
C1 S1 1_555 1_555
C2 C1 1_555 1_555
C3 C2 1_555 1_555
H1 C3 1_555 1_555
H2 C3 1_555 1_555
C4 N1 1_555 1_555
C5 C4 1_555 1_555
C6 C5 1_555 1_555
H3 C6 1_555 1_555
C7 C6 1_555 1_555
H4 C7 1_555 1_555
C8 C7 1_555 1_555
H5 C8 1_555 1_555
C9 C8 1_555 1_555
H6 C9 1_555 1_555
C10 C5 1_555 1_555
H7 C10 1_555 1_555
C11 C2 1_555 1_555
C12 C11 1_555 1_555
H8 C12 1_555 1_555
C13 C12 1_555 1_555
H9 C13 1_555 1_555
C14 C13 1_555 1_555
H10 C14 1_555 1_555
C15 C14 1_555 1_555
H11 C15 1_555 1_555
C16 C11 1_555 1_555
H12 C16 1_555 1_555
C17 C18 1_555 1_555
C18 C19 1_555 1_555
C19 H13 1_555 1_555
C20 C19 1_555 1_555
H14 C20 1_555 1_555
C21 C20 1_555 1_555
H15 C21 1_555 1_555
C22 C21 1_555 1_555
H16 C22 1_555 1_555
C23 C18 1_555 1_555
H17 C23 1_555 1_555
C24 S1 1_555 1_555
C25 C24 1_555 1_555
H18 C25 1_555 1_555
C26 C25 1_555 1_555
H19 C26 1_555 1_555
C27 C26 1_555 1_555
H20 C27 1_555 1_555
C28 C27 1_555 1_555
H21 C28 1_555 1_555
C29 C24 1_555 1_555
H22 C29 1_555 1_555
H23 C1 1_555 1_555
H24 C2 1_555 1_555
H25 N2 1_555 1_555
C3 C4 1_555 1_555
C9 C10 1_555 1_555
C15 C16 1_555 1_555
C22 C23 1_555 1_555
C28 C29 1_555 1_555

#END
