
#######################################################################
#
#                 Cambridge Crystallographic Data Centre
#                                CCDC 
#
#######################################################################
#
# If this CIF has been generated from an entry in the Cambridge 
# Structural Database, then it will include bibliographic, chemical, 
# crystal, experimental, refinement or atomic coordinate data resulting 
# from the CCDC's data processing and validation procedures.
#
#######################################################################

data_COGKUG
_chemical_compound_source        'Aconitum carmichaele'
_chemical_name_common            'aconifine trifluoroacetate monohydrate'
_chemical_formula_moiety         'C34 H47 N1 O12,C2 H1 F3 O2,H2 O1'
_chemical_name_systematic        
'8-acetoxy-20-ethyl-3,10,13,15-tetrahydroxy-1,6,16-trimethoxy-4-(methoxymethyl)aconitan-14-yl benzoate trifluoroacetate monohydrate'
_symmetry_cell_setting           orthorhombic
_symmetry_space_group_name_H-M   'P 21 21 21'
_symmetry_Int_Tables_number      19
_space_group_name_Hall           'P 2ac 2ab'
loop_
_symmetry_equiv_pos_site_id
_symmetry_equiv_pos_as_xyz
1 x,y,z
2 1/2-x,-y,1/2+z
3 1/2+x,1/2-y,-z
4 -x,1/2+y,1/2-z
_cell_length_a                   10.27473(13)
_cell_length_b                   15.1917(3)
_cell_length_c                   23.6874(3)
_cell_angle_alpha                90
_cell_angle_beta                 90
_cell_angle_gamma                90
_cell_volume                     3697.38
_exptl_crystal_colour            colorless
_cell_formula_units_Z            4
_exptl_crystal_recrystallization_method methanol
loop_
_atom_site_label
_atom_site_type_symbol
_atom_site_fract_x
_atom_site_fract_y
_atom_site_fract_z
F1 F 0.9951(10) 0.2102(7) 0.7731(6)
F2 F 1.0158(6) 0.3154(6) 0.8262(4)
F3 F 0.9217(12) 0.3335(5) 0.7562(3)
O1 O 0.7284(8) 0.2120(4) 0.7998(5)
H1 H 0.7292 0.1614 0.8118
O2 O 0.8130(19) 0.274(3) 0.8619(8)
C1 C 0.8116(9) 0.2457(10) 0.8144(6)
C2 C 0.9344(9) 0.2736(6) 0.7939(4)
O3 O 0.5191(4) 0.0711(2) 0.47243(14)
O4 O 0.3775(3) 0.06087(17) 0.54418(11)
O5 O 0.1107(3) 0.1402(2) 0.55602(13)
H2 H 0.114(5) 0.086(3) 0.5609(18)
O6 O 0.1968(3) 0.0553(2) 0.64471(14)
O7 O 0.4079(3) 0.1409(2) 0.71295(11)
H3 H 0.485(6) 0.117(4) 0.730(2)
O8 O 0.6126(2) 0.12936(17) 0.60161(11)
O9 O 0.6505(4) 0.0643(3) 0.68491(14)
O10 O 0.7670(3) 0.34091(19) 0.63425(13)
O11 O 0.7263(3) 0.5681(2) 0.58952(15)
O12 O 0.2414(2) 0.43562(18) 0.66383(11)
O13 O 0.3751(3) 0.34449(17) 0.51132(10)
H4 H 0.448(6) 0.340(3) 0.503(2)
O14 O 0.4297(4) 0.5700(3) 0.70038(15)
H5 H 0.391(9) 0.593(5) 0.707(3)
N1 N 0.4627(3) 0.3862(2) 0.71487(12)
C3 C 0.3128(3) 0.4463(2) 0.61177(15)
H6 H 0.257(4) 0.439(3) 0.5819(18)
C4 C 0.3726(4) 0.5367(3) 0.60373(17)
H7 H 0.318(5) 0.573(3) 0.608(2)
H8 H 0.406(4) 0.538(2) 0.5632(16)
C5 C 0.4802(4) 0.5561(3) 0.64527(17)
H9 H 0.520(4) 0.606(3) 0.6334(15)
C6 C 0.5847(4) 0.4813(3) 0.64853(16)
C7 C 0.5598(3) 0.4078(2) 0.60295(15)
H10 H 0.574(5) 0.434(3) 0.5645(19)
C8 C 0.6418(3) 0.3230(2) 0.61281(16)
H11 H 0.652(5) 0.294(3) 0.575(2)
C9 C 0.5547(3) 0.2646(2) 0.65264(14)
H12 H 0.603(5) 0.249(3) 0.684(2)
C10 C 0.5021(3) 0.1843(2) 0.62014(14)
C11 C 0.4493(3) 0.2152(2) 0.56247(14)
H13 H 0.521(4) 0.218(3) 0.5381(17)
C12 C 0.3734(3) 0.3036(2) 0.56564(13)
C13 C 0.4180(3) 0.3726(2) 0.61108(14)
C14 C 0.2298(3) 0.2739(2) 0.57563(15)
H14 H 0.184(4) 0.304(3) 0.6098(18)
H15 H 0.175(4) 0.296(2) 0.5410(16)
C15 C 0.2307(4) 0.1731(2) 0.57679(15)
C16 C 0.3455(4) 0.1525(2) 0.53896(15)
H16 H 0.316(3) 0.161(2) 0.4991(15)
C17 C 0.4015(4) 0.1274(2) 0.65393(15)
H17 H 0.425(4) 0.069(3) 0.6446(15)
C18 C 0.2555(4) 0.1385(3) 0.63757(16)
H18 H 0.221(4) 0.188(3) 0.6661(17)
C19 C 0.4372(3) 0.3226(2) 0.66688(14)
H19 H 0.370(5) 0.293(3) 0.6799(19)
C20 C 0.5849(4) 0.4375(3) 0.70654(16)
H20 H 0.6594 0.3986 0.7097
H21 H 0.5921 0.4822 0.7356
C21 C 0.4586(5) 0.3439(3) 0.77250(16)
H22 H 0.5106 0.2906 0.7720
H23 H 0.4963 0.3837 0.8000
C22 C 0.3230(6) 0.3217(4) 0.7898(2)
H24 H 0.3239 0.2960 0.8268
H25 H 0.2865 0.2806 0.7634
H26 H 0.2712 0.3743 0.7903
C23 C 0.1208(5) 0.4831(3) 0.6661(2)
H27 H 0.0743 0.4670 0.6997
H28 H 0.0692 0.4688 0.6336
H29 H 0.1381 0.5452 0.6665
C24 C 0.7177(4) 0.5266(3) 0.6425(2)
H30 H 0.7284 0.5699 0.6722
H31 H 0.7866 0.4833 0.6461
C25 C 0.8275(6) 0.6318(4) 0.5894(3)
H32 H 0.8126 0.6737 0.6190
H33 H 0.8288 0.6616 0.5537
H34 H 0.9096 0.6031 0.5954
C26 C 0.8559(4) 0.2710(4) 0.6279(2)
H35 H 0.8370 0.2261 0.6551
H36 H 0.9428 0.2924 0.6336
H37 H 0.8484 0.2470 0.5905
C27 C 0.6771(4) 0.0747(3) 0.63612(19)
C28 C 0.7825(5) 0.0273(4) 0.6056(2)
H38 H 0.7451 -0.0178 0.5823
H39 H 0.8408 0.0011 0.6324
H40 H 0.8295 0.0682 0.5823
C29 C 0.1136(7) 0.0477(5) 0.6914(3)
H41 H 0.1632 0.0537 0.7255
H42 H 0.0720 -0.0089 0.6908
H43 H 0.0488 0.0931 0.6898
C30 C 0.4702(4) 0.0296(3) 0.50991(16)
C31 C 0.5028(4) -0.0639(3) 0.52408(18)
C32 C 0.4325(5) -0.1111(3) 0.56422(19)
H44 H 0.3650 -0.0845 0.5840
C33 C 0.4645(7) -0.1979(3) 0.5741(3)
H45 H 0.4183 -0.2301 0.6008
C34 C 0.5634(9) -0.2366(4) 0.5450(3)
H46 H 0.5850 -0.2949 0.5525
C35 C 0.6319(8) -0.1907(4) 0.5047(3)
H47 H 0.6970 -0.2185 0.4841
C36 C 0.6035(6) -0.1032(3) 0.4951(2)
H48 H 0.6520 -0.0709 0.4692
O15 O 0.5913(8) 0.5411(5) 0.4713(4)
H49 H 0.553(3) 0.6029(19) 0.4488(11)
H50 H 0.573(4) 0.553(3) 0.4212(19)
loop_
_geom_bond_atom_site_label_1
_geom_bond_atom_site_label_2
_geom_bond_site_symmetry_1
_geom_bond_site_symmetry_2
F1 C2 1_555 1_555
F2 C2 1_555 1_555
F3 C2 1_555 1_555
O1 H1 1_555 1_555
O2 C1 1_555 1_555
C1 O1 1_555 1_555
C2 C1 1_555 1_555
O3 C30 1_555 1_555
O4 C16 1_555 1_555
O5 H2 1_555 1_555
O6 C18 1_555 1_555
O7 H3 1_555 1_555
O8 C10 1_555 1_555
O9 C27 1_555 1_555
O10 C8 1_555 1_555
O11 C24 1_555 1_555
O12 C3 1_555 1_555
O13 H4 1_555 1_555
O14 H5 1_555 1_555
N1 C19 1_555 1_555
C3 H6 1_555 1_555
C4 C3 1_555 1_555
H7 C4 1_555 1_555
H8 C4 1_555 1_555
C5 O14 1_555 1_555
H9 C5 1_555 1_555
C6 C5 1_555 1_555
C7 C6 1_555 1_555
H10 C7 1_555 1_555
C8 C7 1_555 1_555
H11 C8 1_555 1_555
C9 C8 1_555 1_555
H12 C9 1_555 1_555
C10 C9 1_555 1_555
C11 C10 1_555 1_555
H13 C11 1_555 1_555
C12 O13 1_555 1_555
C13 C3 1_555 1_555
C14 C12 1_555 1_555
H14 C14 1_555 1_555
H15 C14 1_555 1_555
C15 O5 1_555 1_555
C16 C11 1_555 1_555
H16 C16 1_555 1_555
C17 O7 1_555 1_555
H17 C17 1_555 1_555
C18 C15 1_555 1_555
H18 C18 1_555 1_555
C19 C9 1_555 1_555
H19 C19 1_555 1_555
C20 N1 1_555 1_555
H20 C20 1_555 1_555
H21 C20 1_555 1_555
C21 N1 1_555 1_555
H22 C21 1_555 1_555
H23 C21 1_555 1_555
C22 C21 1_555 1_555
H24 C22 1_555 1_555
H25 C22 1_555 1_555
H26 C22 1_555 1_555
C23 O12 1_555 1_555
H27 C23 1_555 1_555
H28 C23 1_555 1_555
H29 C23 1_555 1_555
C24 C6 1_555 1_555
H30 C24 1_555 1_555
H31 C24 1_555 1_555
C25 O11 1_555 1_555
H32 C25 1_555 1_555
H33 C25 1_555 1_555
H34 C25 1_555 1_555
C26 O10 1_555 1_555
H35 C26 1_555 1_555
H36 C26 1_555 1_555
H37 C26 1_555 1_555
C27 O8 1_555 1_555
C28 C27 1_555 1_555
H38 C28 1_555 1_555
H39 C28 1_555 1_555
H40 C28 1_555 1_555
C29 O6 1_555 1_555
H41 C29 1_555 1_555
H42 C29 1_555 1_555
H43 C29 1_555 1_555
C30 O4 1_555 1_555
C31 C30 1_555 1_555
C32 C31 1_555 1_555
H44 C32 1_555 1_555
C33 C32 1_555 1_555
H45 C33 1_555 1_555
C34 C33 1_555 1_555
H46 C34 1_555 1_555
C35 C34 1_555 1_555
H47 C35 1_555 1_555
C36 C31 1_555 1_555
H48 C36 1_555 1_555
O15 H49 1_555 1_555
H50 O15 1_555 1_555
C4 C5 1_555 1_555
C6 C20 1_555 1_555
C7 C13 1_555 1_555
C10 C17 1_555 1_555
C11 C12 1_555 1_555
C12 C13 1_555 1_555
C13 C19 1_555 1_555
C14 C15 1_555 1_555
C15 C16 1_555 1_555
C17 C18 1_555 1_555
C35 C36 1_555 1_555

#END
