
#######################################################################
#
#                 Cambridge Crystallographic Data Centre
#                                CCDC 
#
#######################################################################
#
# If this CIF has been generated from an entry in the Cambridge 
# Structural Database, then it will include bibliographic, chemical, 
# crystal, experimental, refinement or atomic coordinate data resulting 
# from the CCDC's data processing and validation procedures.
#
#######################################################################

data_COJGAK
_chemical_formula_moiety         'C18 H16 N4 O2'
_chemical_name_systematic        
(3-Benzyl-5-phenyl-3H-1,2,3-triazol-4-yl)oxazolidin-2-one
_symmetry_cell_setting           monoclinic
_symmetry_space_group_name_H-M   'P 21/n'
_symmetry_Int_Tables_number      14
_space_group_name_Hall           '-P 2yn'
loop_
_symmetry_equiv_pos_site_id
_symmetry_equiv_pos_as_xyz
1 x,y,z
2 1/2-x,1/2+y,1/2-z
3 -x,-y,-z
4 1/2+x,1/2-y,1/2+z
_cell_length_a                   11.0964(19)
_cell_length_b                   5.8325(10)
_cell_length_c                   24.085(4)
_cell_angle_alpha                90
_cell_angle_beta                 98.716(3)
_cell_angle_gamma                90
_cell_volume                     1540.77
_exptl_crystal_colour            colorless
_exptl_crystal_description       rod
_cell_formula_units_Z            4
loop_
_atom_site_label
_atom_site_type_symbol
_atom_site_fract_x
_atom_site_fract_y
_atom_site_fract_z
O1 O 0.64262(8) 0.45914(16) 0.99688(4)
O2 O 0.68845(9) 0.73461(16) 0.93823(4)
N1 N 0.54780(10) 0.5305(2) 0.75822(5)
N2 N 0.62733(10) 0.3615(2) 0.76296(5)
N3 N 0.64956(10) 0.30069(19) 0.81729(4)
N4 N 0.59116(9) 0.39881(18) 0.90569(4)
C1 C 0.41653(12) 0.9474(2) 0.78121(6)
H1 H 0.4674 0.9606 0.7530
C2 C 0.33110(12) 1.1156(2) 0.78636(6)
H2 H 0.3234 1.2433 0.7616
C3 C 0.25644(12) 1.0989(2) 0.82758(6)
H3 H 0.1976 1.2143 0.8310
C4 C 0.26850(12) 0.9121(2) 0.86382(6)
H4 H 0.2185 0.9011 0.8924
C5 C 0.35308(11) 0.7415(2) 0.85846(5)
H5 H 0.3597 0.6129 0.8829
C6 C 0.42859(11) 0.7580(2) 0.81723(5)
C7 C 0.51728(11) 0.5783(2) 0.80973(5)
C8 C 0.58328(11) 0.4323(2) 0.84774(5)
C9 C 0.53271(12) 0.2097(2) 0.93110(5)
H6 H 0.5456 0.0612 0.9130
H7 H 0.4443 0.2363 0.9301
C10 C 0.60203(13) 0.2227(2) 0.99064(5)
H8 H 0.5481 0.1841 1.0185
H9 H 0.6724 0.1164 0.9955
C11 C 0.64586(11) 0.5496(2) 0.94520(5)
C12 C 0.74379(12) 0.1328(2) 0.83742(6)
H10 H 0.7657 0.0455 0.8051
H11 H 0.7118 0.0232 0.8630
C13 C 0.85621(12) 0.2492(2) 0.86819(5)
C14 C 0.92175(14) 0.1487(3) 0.91566(6)
H12 H 0.8945 0.0087 0.9297
C15 C 1.02701(16) 0.2526(4) 0.94267(7)
H13 H 1.0719 0.1826 0.9750
C16 C 1.06708(14) 0.4567(3) 0.92304(7)
H14 H 1.1391 0.5273 0.9418
C17 C 1.00157(13) 0.5581(3) 0.87571(7)
H15 H 1.0287 0.6987 0.8620
C18 C 0.89685(12) 0.4545(2) 0.84860(6)
H16 H 0.8523 0.5246 0.8162
loop_
_geom_bond_atom_site_label_1
_geom_bond_atom_site_label_2
_geom_bond_site_symmetry_1
_geom_bond_site_symmetry_2
O1 C10 1_555 1_555
O2 C11 1_555 1_555
N1 N2 1_555 1_555
N2 N3 1_555 1_555
N3 C8 1_555 1_555
N4 C8 1_555 1_555
C1 H1 1_555 1_555
C2 C1 1_555 1_555
H2 C2 1_555 1_555
C3 C2 1_555 1_555
H3 C3 1_555 1_555
C4 C3 1_555 1_555
H4 C4 1_555 1_555
C5 C4 1_555 1_555
H5 C5 1_555 1_555
C6 C1 1_555 1_555
C7 N1 1_555 1_555
C8 C7 1_555 1_555
C9 N4 1_555 1_555
H6 C9 1_555 1_555
H7 C9 1_555 1_555
C10 C9 1_555 1_555
H8 C10 1_555 1_555
H9 C10 1_555 1_555
C11 O1 1_555 1_555
C12 N3 1_555 1_555
H10 C12 1_555 1_555
H11 C12 1_555 1_555
C13 C12 1_555 1_555
C14 C13 1_555 1_555
H12 C14 1_555 1_555
C15 C14 1_555 1_555
H13 C15 1_555 1_555
C16 C15 1_555 1_555
H14 C16 1_555 1_555
C17 C16 1_555 1_555
H15 C17 1_555 1_555
C18 C13 1_555 1_555
H16 C18 1_555 1_555
N4 C11 1_555 1_555
C5 C6 1_555 1_555
C6 C7 1_555 1_555
C17 C18 1_555 1_555

#END
