
#######################################################################
#
#                 Cambridge Crystallographic Data Centre
#                                CCDC 
#
#######################################################################
#
# If this CIF has been generated from an entry in the Cambridge 
# Structural Database, then it will include bibliographic, chemical, 
# crystal, experimental, refinement or atomic coordinate data resulting 
# from the CCDC's data processing and validation procedures.
#
#######################################################################

data_COJJIV
_chemical_formula_moiety         'C52 H30 N4'
_chemical_name_systematic        
6,7,15,16-Tetraphenylquinoxalino[2',3':9,10]phenanthro[4,5-abc]phenazine
_symmetry_cell_setting           triclinic
_symmetry_space_group_name_H-M   'P -1'
_symmetry_Int_Tables_number      2
_space_group_name_Hall           '-P 1'
loop_
_symmetry_equiv_pos_site_id
_symmetry_equiv_pos_as_xyz
1 x,y,z
2 -x,-y,-z
_cell_length_a                   9.672(3)
_cell_length_b                   11.878(4)
_cell_length_c                   16.649(5)
_cell_angle_alpha                89.894(6)
_cell_angle_beta                 80.073(6)
_cell_angle_gamma                73.924(6)
_cell_volume                     1808.26
_exptl_crystal_colour            'light yellow'
_exptl_crystal_description       flake
_cell_formula_units_Z            2
_exptl_crystal_recrystallization_method dichloromethane
_exptl_crystal_preparation       luminescent
loop_
_atom_site_label
_atom_site_type_symbol
_atom_site_fract_x
_atom_site_fract_y
_atom_site_fract_z
N1 N 0.1900(3) 0.4297(2) 0.10163(18)
N2 N -0.1168(3) 0.5304(2) 0.13874(17)
N3 N 0.0873(3) -0.0334(2) -0.14245(17)
N4 N -0.2198(3) 0.0609(2) -0.09868(18)
C1 C 0.1645(4) 0.6700(3) 0.2450(2)
C2 C 0.0078(4) 0.7212(3) 0.2640(2)
C3 C -0.0790(4) 0.6753(3) 0.2246(2)
H1 H -0.1794 0.7105 0.2347
C4 C -0.0226(4) 0.5773(3) 0.1697(2)
C5 C 0.1301(4) 0.5266(3) 0.1519(2)
C6 C 0.2190(4) 0.5771(3) 0.1902(2)
H2 H 0.3199 0.5454 0.1773
C7 C -0.0567(4) 0.4338(3) 0.0914(2)
C8 C -0.1531(4) 0.3773(3) 0.0578(2)
C9 C -0.3049(4) 0.4265(3) 0.0749(2)
H3 H -0.3449 0.4952 0.1074
C10 C -0.3953(4) 0.3731(3) 0.0434(2)
H4 H -0.4960 0.4065 0.0544
C11 C -0.3370(4) 0.2706(3) -0.0041(2)
H5 H -0.3990 0.2355 -0.0250
C12 C -0.1877(4) 0.2192(3) -0.0212(2)
C13 C -0.0935(4) 0.2725(3) 0.0091(2)
C14 C 0.0639(4) 0.2219(3) -0.0109(2)
C15 C 0.1581(4) 0.2771(3) 0.0190(2)
C16 C 0.0979(4) 0.3826(3) 0.0720(2)
C17 C 0.3073(4) 0.2287(3) -0.0016(2)
H6 H 0.3694 0.2648 0.0182
C18 C 0.3667(4) 0.1275(3) -0.0514(2)
H7 H 0.4676 0.0966 -0.0650
C19 C 0.2764(4) 0.0728(3) -0.0806(2)
H8 H 0.3167 0.0047 -0.1138
C20 C 0.1243(4) 0.1185(3) -0.0609(2)
C21 C 0.0276(4) 0.0613(3) -0.0931(2)
C22 C -0.1277(4) 0.1110(3) -0.0718(2)
C23 C -0.1584(4) -0.0359(3) -0.1495(2)
C24 C -0.0069(4) -0.0811(3) -0.1728(2)
C25 C 0.0495(4) -0.1732(3) -0.2322(2)
H9 H 0.1504 -0.2037 -0.2467
C26 C -0.0389(4) -0.2200(3) -0.2698(2)
C27 C -0.1944(4) -0.1776(3) -0.2438(2)
C28 C -0.2490(4) -0.0891(3) -0.1848(2)
H10 H -0.3497 -0.0628 -0.1672
C29 C 0.2704(4) 0.7119(3) 0.2846(2)
C30 C 0.3860(4) 0.6297(3) 0.3100(2)
H11 H 0.3934 0.5503 0.3044
C31 C 0.4904(5) 0.6646(4) 0.3434(3)
H12 H 0.5651 0.6084 0.3614
C32 C 0.4850(5) 0.7807(4) 0.3503(3)
H13 H 0.5561 0.8038 0.3718
C33 C 0.3729(5) 0.8616(4) 0.3249(3)
H14 H 0.3676 0.9408 0.3301
C34 C 0.2670(5) 0.8298(3) 0.2917(2)
H15 H 0.1931 0.8872 0.2740
C35 C -0.0674(4) 0.8176(3) 0.3278(3)
C36 C -0.0290(4) 0.8200(3) 0.4038(3)
H16 H 0.0502 0.7615 0.4155
C37 C -0.1047(5) 0.9066(4) 0.4625(3)
H17 H -0.0758 0.9060 0.5130
C38 C -0.2214(6) 0.9931(4) 0.4474(3)
H18 H -0.2723 1.0512 0.4876
C39 C -0.2640(5) 0.9946(3) 0.3724(3)
H19 H -0.3440 1.0534 0.3617
C40 C -0.1861(5) 0.9073(3) 0.3127(3)
H20 H -0.2139 0.9091 0.2619
C41 C -0.3009(4) -0.2215(3) -0.2818(3)
C42 C -0.4096(4) -0.2589(3) -0.2335(3)
H21 H -0.4159 -0.2580 -0.1771
C43 C -0.5090(4) -0.2976(3) -0.2685(3)
H22 H -0.5816 -0.3226 -0.2355
C44 C -0.5010(5) -0.2992(4) -0.3505(3)
H23 H -0.5669 -0.3270 -0.3736
C45 C -0.3966(5) -0.2602(3) -0.3997(3)
H24 H -0.3928 -0.2598 -0.4559
C46 C -0.2967(4) -0.2214(3) -0.3650(3)
H25 H -0.2258 -0.1949 -0.3983
C47 C 0.0327(4) -0.3091(3) -0.3383(2)
C48 C 0.1346(4) -0.2864(3) -0.3995(3)
H26 H 0.1550 -0.2144 -0.3975
C49 C 0.2080(4) -0.3652(4) -0.4636(3)
H27 H 0.2769 -0.3470 -0.5038
C50 C 0.1779(6) -0.4708(4) -0.4670(3)
H28 H 0.2262 -0.5250 -0.5100
C51 C 0.0771(5) -0.4967(4) -0.4074(3)
H29 H 0.0576 -0.5689 -0.4096
C52 C 0.0033(4) -0.4156(3) -0.3435(2)
H30 H -0.0667 -0.4335 -0.3038
loop_
_geom_bond_atom_site_label_1
_geom_bond_atom_site_label_2
_geom_bond_site_symmetry_1
_geom_bond_site_symmetry_2
N1 C5 1_555 1_555
N2 C4 1_555 1_555
N3 C21 1_555 1_555
N4 C22 1_555 1_555
C1 C2 1_555 1_555
C2 C3 1_555 1_555
C3 H1 1_555 1_555
C4 C3 1_555 1_555
C5 C4 1_555 1_555
C6 C1 1_555 1_555
H2 C6 1_555 1_555
C7 N2 1_555 1_555
C8 C7 1_555 1_555
C9 C8 1_555 1_555
H3 C9 1_555 1_555
C10 C9 1_555 1_555
H4 C10 1_555 1_555
C11 C10 1_555 1_555
H5 C11 1_555 1_555
C12 C11 1_555 1_555
C13 C8 1_555 1_555
C14 C13 1_555 1_555
C15 C14 1_555 1_555
C16 N1 1_555 1_555
C17 C15 1_555 1_555
H6 C17 1_555 1_555
C18 C17 1_555 1_555
H7 C18 1_555 1_555
C19 C18 1_555 1_555
H8 C19 1_555 1_555
C20 C14 1_555 1_555
C21 C20 1_555 1_555
C22 C12 1_555 1_555
C23 N4 1_555 1_555
C24 N3 1_555 1_555
C25 C24 1_555 1_555
H9 C25 1_555 1_555
C26 C25 1_555 1_555
C27 C26 1_555 1_555
C28 C23 1_555 1_555
H10 C28 1_555 1_555
C29 C1 1_555 1_555
C30 C29 1_555 1_555
H11 C30 1_555 1_555
C31 C30 1_555 1_555
H12 C31 1_555 1_555
C32 C31 1_555 1_555
H13 C32 1_555 1_555
C33 C32 1_555 1_555
H14 C33 1_555 1_555
C34 C29 1_555 1_555
H15 C34 1_555 1_555
C35 C2 1_555 1_555
C36 C35 1_555 1_555
H16 C36 1_555 1_555
C37 C36 1_555 1_555
H17 C37 1_555 1_555
C38 C37 1_555 1_555
H18 C38 1_555 1_555
C39 C38 1_555 1_555
H19 C39 1_555 1_555
C40 C35 1_555 1_555
H20 C40 1_555 1_555
C41 C27 1_555 1_555
C42 C41 1_555 1_555
H21 C42 1_555 1_555
C43 C42 1_555 1_555
H22 C43 1_555 1_555
C44 C43 1_555 1_555
H23 C44 1_555 1_555
C45 C44 1_555 1_555
H24 C45 1_555 1_555
C46 C41 1_555 1_555
H25 C46 1_555 1_555
C47 C26 1_555 1_555
C48 C47 1_555 1_555
H26 C48 1_555 1_555
C49 C48 1_555 1_555
H27 C49 1_555 1_555
C50 C49 1_555 1_555
H28 C50 1_555 1_555
C51 C50 1_555 1_555
H29 C51 1_555 1_555
C52 C47 1_555 1_555
H30 C52 1_555 1_555
C5 C6 1_555 1_555
C7 C16 1_555 1_555
C12 C13 1_555 1_555
C15 C16 1_555 1_555
C19 C20 1_555 1_555
C21 C22 1_555 1_555
C23 C24 1_555 1_555
C27 C28 1_555 1_555
C33 C34 1_555 1_555
C39 C40 1_555 1_555
C45 C46 1_555 1_555
C51 C52 1_555 1_555

#END
