
#######################################################################
#
#                 Cambridge Crystallographic Data Centre
#                                CCDC 
#
#######################################################################
#
# If this CIF has been generated from an entry in the Cambridge 
# Structural Database, then it will include bibliographic, chemical, 
# crystal, experimental, refinement or atomic coordinate data resulting 
# from the CCDC's data processing and validation procedures.
#
#######################################################################

data_COKPUO
_chemical_formula_moiety         'C22 H21 N1 O5'
_chemical_name_systematic        
'methyl 11-hydroxy-10-(2-methoxybenzoyl)-13-azatricyclo[7.3.1.0^2,7^]trideca-2,4,6,10-tetraene-13-carboxylate'
_symmetry_cell_setting           orthorhombic
_symmetry_space_group_name_H-M   'P 21 21 21'
_symmetry_Int_Tables_number      19
_space_group_name_Hall           'P 2ac 2ab'
loop_
_symmetry_equiv_pos_site_id
_symmetry_equiv_pos_as_xyz
1 x,y,z
2 1/2-x,-y,1/2+z
3 -x,1/2+y,1/2-z
4 1/2+x,1/2-y,-z
_cell_length_a                   8.7657(2)
_cell_length_b                   12.8998(4)
_cell_length_c                   16.4167(4)
_cell_angle_alpha                90
_cell_angle_beta                 90
_cell_angle_gamma                90
_cell_volume                     1856.33
_exptl_crystal_colour            colorless
_exptl_crystal_description       prism
_cell_formula_units_Z            4
loop_
_atom_site_label
_atom_site_type_symbol
_atom_site_fract_x
_atom_site_fract_y
_atom_site_fract_z
C1 C 1.03292(14) 0.31592(10) 0.26635(8)
H1 H 0.9868 0.3048 0.3214
C2 C 1.05240(15) 0.21141(10) 0.22458(8)
H2 H 1.0984 0.1617 0.2634
H3 H 0.9509 0.1844 0.2087
C3 C 1.15210(14) 0.21900(10) 0.14998(8)
C4 C 1.15094(17) 0.13996(11) 0.09222(9)
H4 H 1.0876 0.0811 0.1001
C5 C 1.24106(19) 0.14667(13) 0.02383(10)
H5 H 1.2394 0.0923 -0.0152
C6 C 1.33324(19) 0.23097(13) 0.01150(9)
H6 H 1.3946 0.2353 -0.0361
C7 C 1.33650(16) 0.30963(13) 0.06858(8)
H7 H 1.4006 0.3680 0.0601
C8 C 1.24666(14) 0.30411(10) 0.13847(7)
C9 C 1.25353(14) 0.39242(11) 0.19908(7)
H8 H 1.3623 0.4125 0.2085
C10 C 1.16478(16) 0.48585(10) 0.16771(8)
H9 H 1.1892 0.5472 0.2015
H10 H 1.1959 0.5010 0.1110
C11 C 0.99708(15) 0.46620(10) 0.17036(7)
C12 C 0.93184(14) 0.39019(10) 0.21805(7)
C13 C 0.76944(14) 0.38008(10) 0.21853(7)
C14 C 0.68785(14) 0.29886(10) 0.26506(7)
C15 C 0.69247(13) 0.29182(10) 0.35003(7)
C16 C 0.61256(15) 0.21506(11) 0.39035(8)
H11 H 0.6184 0.2093 0.4480
C17 C 0.52376(15) 0.14657(11) 0.34581(9)
H12 H 0.4685 0.0938 0.3734
C18 C 0.51419(16) 0.15366(12) 0.26220(9)
H13 H 0.4523 0.1066 0.2324
C19 C 0.59545(15) 0.22972(11) 0.22238(8)
H14 H 0.5884 0.2351 0.1648
C20 C 1.23025(14) 0.39341(12) 0.35036(8)
C21 C 1.4200(2) 0.48281(15) 0.42220(9)
H15 H 1.5160 0.5200 0.4130
H16 H 1.4382 0.4239 0.4587
H17 H 1.3455 0.5298 0.4470
C22 C 0.80717(17) 0.35196(13) 0.47284(8)
H18 H 0.8682 0.4101 0.4932
H19 H 0.8637 0.2871 0.4804
H20 H 0.7108 0.3485 0.5030
N1 N 1.18422(12) 0.36064(9) 0.27629(6)
O1 O 0.68717(10) 0.43885(7) 0.17508(5)
O2 O 0.91488(12) 0.52916(7) 0.12530(5)
H21 H 0.799(3) 0.5067(16) 0.1389(12)
O3 O 1.16331(12) 0.37678(10) 0.41328(5)
O4 O 1.36206(11) 0.44581(8) 0.34592(5)
O5 O 0.77633(10) 0.36672(7) 0.38826(5)
loop_
_geom_bond_atom_site_label_1
_geom_bond_atom_site_label_2
_geom_bond_site_symmetry_1
_geom_bond_site_symmetry_2
C1 H1 1_555 1_555
C2 C1 1_555 1_555
H2 C2 1_555 1_555
H3 C2 1_555 1_555
C3 C2 1_555 1_555
C4 C3 1_555 1_555
H4 C4 1_555 1_555
C5 C4 1_555 1_555
H5 C5 1_555 1_555
C6 C5 1_555 1_555
H6 C6 1_555 1_555
C7 C6 1_555 1_555
H7 C7 1_555 1_555
C8 C3 1_555 1_555
C9 C8 1_555 1_555
H8 C9 1_555 1_555
C10 C9 1_555 1_555
H9 C10 1_555 1_555
H10 C10 1_555 1_555
C11 C10 1_555 1_555
C12 C1 1_555 1_555
C13 C12 1_555 1_555
C14 C13 1_555 1_555
C15 C14 1_555 1_555
C16 C15 1_555 1_555
H11 C16 1_555 1_555
C17 C16 1_555 1_555
H12 C17 1_555 1_555
C18 C17 1_555 1_555
H13 C18 1_555 1_555
C19 C14 1_555 1_555
H14 C19 1_555 1_555
C20 N1 1_555 1_555
C21 H15 1_555 1_555
H16 C21 1_555 1_555
H17 C21 1_555 1_555
C22 H18 1_555 1_555
H19 C22 1_555 1_555
H20 C22 1_555 1_555
N1 C1 1_555 1_555
O1 C13 1_555 1_555
O2 C11 1_555 1_555
H21 O2 1_555 1_555
O3 C20 1_555 1_555
O4 C20 1_555 1_555
O5 C15 1_555 1_555
C7 C8 1_555 1_555
C9 N1 1_555 1_555
C11 C12 1_555 1_555
C18 C19 1_555 1_555
C21 O4 1_555 1_555
C22 O5 1_555 1_555

#END
