
#######################################################################
#
#                 Cambridge Crystallographic Data Centre
#                                CCDC 
#
#######################################################################
#
# If this CIF has been generated from an entry in the Cambridge 
# Structural Database, then it will include bibliographic, chemical, 
# crystal, experimental, refinement or atomic coordinate data resulting 
# from the CCDC's data processing and validation procedures.
#
#######################################################################

data_COMCAK
_chemical_formula_moiety         'C23 H21 N3 O1'
_chemical_name_systematic        
2-(((pyridin-2-ylmethyl)(quinolin-2-ylmethyl)amino)methyl)phenol
_symmetry_cell_setting           monoclinic
_symmetry_space_group_name_H-M   'P 21/c'
_symmetry_Int_Tables_number      14
_space_group_name_Hall           '-P 2ybc'
loop_
_symmetry_equiv_pos_site_id
_symmetry_equiv_pos_as_xyz
1 x,y,z
2 -x,1/2+y,1/2-z
3 -x,-y,-z
4 x,1/2-y,1/2+z
_cell_length_a                   9.929(10)
_cell_length_b                   12.099(12)
_cell_length_c                   16.261(16)
_cell_angle_alpha                90
_cell_angle_beta                 96.512(11)
_cell_angle_gamma                90
_cell_volume                     1940.85
_cell_formula_units_Z            4
loop_
_atom_site_label
_atom_site_type_symbol
_atom_site_fract_x
_atom_site_fract_y
_atom_site_fract_z
C1 C -0.0128(2) 0.36094(18) 0.77784(13)
H1 H 0.0445 0.4164 0.8008
C2 C -0.1292(2) 0.3391(2) 0.81380(14)
H2 H -0.1495 0.3783 0.8600
C3 C -0.2147(3) 0.2576(2) 0.77942(16)
H3 H -0.2944 0.2414 0.8020
C4 C -0.1810(2) 0.1999(2) 0.71072(15)
H4 H -0.2376 0.1444 0.6871
C5 C -0.0610(2) 0.22616(15) 0.67738(12)
C6 C -0.0177(2) 0.16246(15) 0.60425(13)
H5 H 0.0239 0.0935 0.6241
H6 H -0.0975 0.1446 0.5665
C7 C 0.1527(2) 0.14949(15) 0.50818(11)
H7 H 0.1915 0.1929 0.4666
H8 H 0.0895 0.0973 0.4797
C8 C 0.26572(18) 0.08570(14) 0.55917(11)
C9 C 0.40454(18) -0.07050(14) 0.57283(12)
C10 C 0.4409(2) -0.17457(15) 0.54163(14)
H9 H 0.3946 -0.2016 0.4928
C11 C 0.5443(2) -0.23587(17) 0.58308(15)
H10 H 0.5681 -0.3034 0.5615
C12 C 0.6143(2) -0.19728(18) 0.65773(15)
H11 H 0.6831 -0.2400 0.6853
C13 C 0.5821(2) -0.09697(19) 0.69027(14)
H12 H 0.6292 -0.0721 0.7395
C14 C 0.4758(2) -0.03082(16) 0.64826(13)
C15 C 0.4366(2) 0.07384(18) 0.67751(13)
H13 H 0.4805 0.1028 0.7263
C16 C 0.3337(2) 0.13193(16) 0.63343(13)
H14 H 0.3084 0.2009 0.6518
C17 C 0.01368(19) 0.31771(14) 0.51034(12)
H15 H -0.0455 0.3573 0.5437
H16 H -0.0411 0.2896 0.4617
C18 C 0.12001(19) 0.39621(14) 0.48402(12)
C19 C 0.2114(2) 0.44978(15) 0.54417(13)
C20 C 0.3105(2) 0.52105(17) 0.51994(17)
H17 H 0.3702 0.5560 0.5599
C21 C 0.3201(2) 0.54007(19) 0.43630(18)
H18 H 0.3864 0.5876 0.4207
C22 C 0.2314(3) 0.48844(18) 0.37618(16)
H19 H 0.2379 0.5010 0.3203
C23 C 0.1319(2) 0.41733(16) 0.40051(13)
H20 H 0.0722 0.3832 0.3601
N1 N 0.07828(15) 0.22360(11) 0.55897(9)
N2 N 0.02269(17) 0.30620(13) 0.71096(10)
N3 N 0.29788(15) -0.01206(11) 0.52963(9)
O1 O 0.20694(14) 0.43737(12) 0.62833(9)
H21 H 0.1792 0.3753 0.6377
loop_
_geom_bond_atom_site_label_1
_geom_bond_atom_site_label_2
_geom_bond_site_symmetry_1
_geom_bond_site_symmetry_2
C1 H1 1_555 1_555
C2 C1 1_555 1_555
H2 C2 1_555 1_555
C3 C2 1_555 1_555
H3 C3 1_555 1_555
C4 C3 1_555 1_555
H4 C4 1_555 1_555
C5 C4 1_555 1_555
C6 C5 1_555 1_555
H5 C6 1_555 1_555
H6 C6 1_555 1_555
C7 H7 1_555 1_555
H8 C7 1_555 1_555
C8 C7 1_555 1_555
C9 C10 1_555 1_555
C10 H9 1_555 1_555
C11 C10 1_555 1_555
H10 C11 1_555 1_555
C12 C11 1_555 1_555
H11 C12 1_555 1_555
C13 C12 1_555 1_555
H12 C13 1_555 1_555
C14 C9 1_555 1_555
C15 C14 1_555 1_555
H13 C15 1_555 1_555
C16 C8 1_555 1_555
H14 C16 1_555 1_555
C17 H15 1_555 1_555
H16 C17 1_555 1_555
C18 C17 1_555 1_555
C19 C18 1_555 1_555
C20 C19 1_555 1_555
H17 C20 1_555 1_555
C21 C20 1_555 1_555
H18 C21 1_555 1_555
C22 C21 1_555 1_555
H19 C22 1_555 1_555
C23 C18 1_555 1_555
H20 C23 1_555 1_555
N1 C6 1_555 1_555
N2 C1 1_555 1_555
N3 C8 1_555 1_555
O1 C19 1_555 1_555
H21 O1 1_555 1_555
C5 N2 1_555 1_555
C7 N1 1_555 1_555
C9 N3 1_555 1_555
C13 C14 1_555 1_555
C15 C16 1_555 1_555
C17 N1 1_555 1_555
C22 C23 1_555 1_555

#END
