
#######################################################################
#
#                 Cambridge Crystallographic Data Centre
#                                CCDC 
#
#######################################################################
#
# If this CIF has been generated from an entry in the Cambridge 
# Structural Database, then it will include bibliographic, chemical, 
# crystal, experimental, refinement or atomic coordinate data resulting 
# from the CCDC's data processing and validation procedures.
#
#######################################################################

data_COMNID
_chemical_formula_moiety         'C22 H17 Cl1 N2'
_chemical_name_systematic        
2-(1-(4-chlorophenyl)-4-methyl-3-phenyl-1H-pyrrol-2-yl)pyridine
_symmetry_cell_setting           triclinic
_symmetry_space_group_name_H-M   'P -1'
_symmetry_Int_Tables_number      2
_space_group_name_Hall           '-P 1'
loop_
_symmetry_equiv_pos_site_id
_symmetry_equiv_pos_as_xyz
1 x,y,z
2 -x,-y,-z
_cell_length_a                   8.2159(9)
_cell_length_b                   10.8932(12)
_cell_length_c                   11.4393(12)
_cell_angle_alpha                61.735(2)
_cell_angle_beta                 89.514(2)
_cell_angle_gamma                83.911(2)
_cell_volume                     895.612
_exptl_crystal_colour            yellow
_exptl_crystal_description       prismatic
_cell_formula_units_Z            2
loop_
_atom_site_label
_atom_site_type_symbol
_atom_site_fract_x
_atom_site_fract_y
_atom_site_fract_z
Cl1 Cl 0.92876(12) 0.72153(11) 0.46733(9)
N1 N 0.4952(2) 0.3418(2) 0.8512(2)
N2 N 0.6862(3) 0.4055(3) 1.0360(3)
C1 C 0.3589(3) 0.3052(3) 0.8130(3)
H1 H 0.3169 0.3443 0.7260
C2 C 0.2942(3) 0.2050(3) 0.9191(3)
C3 C 0.3959(3) 0.1765(3) 1.0331(3)
C4 C 0.5181(3) 0.2626(3) 0.9871(3)
C5 C 0.6552(3) 0.2770(3) 1.0612(3)
C6 C 0.7469(3) 0.1593(3) 1.1505(3)
H2 H 0.7223 0.0713 1.1670
C7 C 0.8757(4) 0.1725(4) 1.2155(4)
H3 H 0.9394 0.0921 1.2775
C8 C 0.9139(4) 0.2996(4) 1.1924(4)
H4 H 1.0044 0.3079 1.2353
C9 C 0.8161(4) 0.4137(4) 1.1050(4)
H5 H 0.8378 0.5016 1.0910
C10 C 0.5998(3) 0.4329(3) 0.7609(3)
C11 C 0.5351(4) 0.5575(3) 0.6539(3)
H6 H 0.4223 0.5821 0.6431
C12 C 0.6355(4) 0.6453(3) 0.5632(3)
H7 H 0.5910 0.7291 0.4914
C13 C 0.8011(4) 0.6088(4) 0.5793(3)
C14 C 0.8686(3) 0.4853(3) 0.6851(3)
H8 H 0.9817 0.4621 0.6957
C15 C 0.7681(3) 0.3964(3) 0.7750(3)
H9 H 0.8130 0.3117 0.8454
C16 C 0.3624(3) 0.0822(3) 1.1714(3)
C17 C 0.3510(4) 0.1284(3) 1.2664(3)
H10 H 0.3705 0.2196 1.2431
C18 C 0.3112(4) 0.0406(4) 1.3941(3)
H11 H 0.3056 0.0731 1.4561
C19 C 0.2795(4) -0.0938(4) 1.4320(4)
H12 H 0.2503 -0.1518 1.5181
C20 C 0.2922(4) -0.1409(3) 1.3395(3)
H13 H 0.2728 -0.2322 1.3636
C21 C 0.3335(3) -0.0534(3) 1.2109(3)
H14 H 0.3417 -0.0873 1.1500
C22 C 0.1447(4) 0.1365(4) 0.9208(3)
H15 H 0.0890 0.1849 0.8348
H16 H 0.0728 0.1404 0.9859
H17 H 0.1765 0.0403 0.9430
loop_
_geom_bond_atom_site_label_1
_geom_bond_atom_site_label_2
_geom_bond_site_symmetry_1
_geom_bond_site_symmetry_2
Cl1 C13 1_555 1_555
N1 C1 1_555 1_555
N2 C5 1_555 1_555
C1 H1 1_555 1_555
C2 C1 1_555 1_555
C3 C2 1_555 1_555
C4 N1 1_555 1_555
C5 C4 1_555 1_555
C6 C5 1_555 1_555
H2 C6 1_555 1_555
C7 C6 1_555 1_555
H3 C7 1_555 1_555
C8 C7 1_555 1_555
H4 C8 1_555 1_555
C9 N2 1_555 1_555
H5 C9 1_555 1_555
C10 N1 1_555 1_555
C11 C10 1_555 1_555
H6 C11 1_555 1_555
C12 C11 1_555 1_555
H7 C12 1_555 1_555
C13 C12 1_555 1_555
C14 C13 1_555 1_555
H8 C14 1_555 1_555
C15 C10 1_555 1_555
H9 C15 1_555 1_555
C16 C3 1_555 1_555
C17 C16 1_555 1_555
H10 C17 1_555 1_555
C18 C17 1_555 1_555
H11 C18 1_555 1_555
C19 C18 1_555 1_555
H12 C19 1_555 1_555
C20 C19 1_555 1_555
H13 C20 1_555 1_555
C21 C16 1_555 1_555
H14 C21 1_555 1_555
C22 C2 1_555 1_555
H15 C22 1_555 1_555
H16 C22 1_555 1_555
H17 C22 1_555 1_555
C3 C4 1_555 1_555
C8 C9 1_555 1_555
C14 C15 1_555 1_555
C20 C21 1_555 1_555

#END
