
#######################################################################
#
#                 Cambridge Crystallographic Data Centre
#                                CCDC 
#
#######################################################################
#
# If this CIF has been generated from an entry in the Cambridge 
# Structural Database, then it will include bibliographic, chemical, 
# crystal, experimental, refinement or atomic coordinate data resulting 
# from the CCDC's data processing and validation procedures.
#
#######################################################################

data_CONGAP
_chemical_formula_moiety         'C22 H27 N2 O3 1+,C2 H1 O4 1-,C1 H4 O1'
_chemical_name_systematic        
'1-(3-hydroxy-1,2,3,4-tetrahydronaphthalen-2-yl)-4-((1-methyl-6-oxo-1,6-dihydropyridin-2-yl)carbonyl)piperidinium hydrogen ethanedioate methanol solvate'
_symmetry_cell_setting           triclinic
_symmetry_space_group_name_H-M   'P -1'
_symmetry_Int_Tables_number      2
_space_group_name_Hall           '-P 1'
loop_
_symmetry_equiv_pos_site_id
_symmetry_equiv_pos_as_xyz
1 x,y,z
2 -x,-y,-z
_cell_length_a                   5.6706(2)
_cell_length_b                   9.0857(3)
_cell_length_c                   25.8454(12)
_cell_angle_alpha                98.021(3)
_cell_angle_beta                 96.230(3)
_cell_angle_gamma                98.012(2)
_cell_volume                     1294.53
_cell_formula_units_Z            2
loop_
_atom_site_label
_atom_site_type_symbol
_atom_site_fract_x
_atom_site_fract_y
_atom_site_fract_z
O1 O 0.8003(5) 0.7787(3) 0.8213(1)
O2 O -0.0280(8) 0.3170(5) 0.6322(2)
N1 N 0.4070(5) 0.5345(3) 0.7968(1)
C1 C 0.2759(11) 0.6332(6) 0.9844(2)
C2 C 0.3381(14) 0.7127(8) 1.0359(2)
C3 C 0.5266(14) 0.8235(8) 1.0468(2)
C4 C 0.6657(11) 0.8550(7) 1.0082(2)
C5 C 0.6096(8) 0.7781(5) 0.9564(2)
C6 C 0.7592(7) 0.8152(5) 0.9146(2)
C7 C 0.6389(6) 0.7648(4) 0.8592(2)
C8 C 0.5199(6) 0.6020(4) 0.8528(2)
C9 C 0.3349(8) 0.5804(5) 0.8899(2)
C10 C 0.4116(8) 0.6660(5) 0.9450(2)
C11 C 0.5845(6) 0.4823(4) 0.7625(2)
C12 C 0.4574(7) 0.3915(4) 0.7113(2)
C13 C 0.2994(7) 0.4841(5) 0.6812(2)
C14 C 0.1314(7) 0.5467(5) 0.7176(2)
C15 C 0.2627(6) 0.6346(4) 0.7694(2)
C16 C 0.1635(9) 0.3880(6) 0.6332(2)
O3 O 0.3250(20) -0.0249(12) 0.5084(5)
C17 C 0.3105(18) 0.3144(12) 0.5928(4)
C18 C 0.4731(19) 0.4135(13) 0.5756(4)
C19 C 0.5900(20) 0.3643(17) 0.5321(5)
C20 C 0.5290(30) 0.2176(19) 0.5077(5)
C21 C 0.3690(30) 0.1113(15) 0.5262(5)
N2 N 0.2610(40) 0.1703(19) 0.5680(9)
C22 C 0.0950(30) 0.0519(16) 0.5920(7)
H1 H 0.8567 0.8676 0.8228
H2 H 0.3024 0.4511 0.7994
H3 H 0.1425 0.5579 0.9768
H4 H 0.2482 0.6882 1.0624
H5 H 0.5634 0.8791 1.0805
H6 H 0.8005 0.9291 1.0166
H7 H 0.9035 0.7697 0.9190
H8 H 0.8084 0.9234 0.9197
H9 H 0.5142 0.8269 0.8524
H10 H 0.6457 0.5433 0.8625
H11 H 0.2983 0.4740 0.8919
H12 H 0.1886 0.6120 0.8753
H13 H 0.6827 0.4213 0.7807
H14 H 0.6894 0.5687 0.7552
H15 H 0.3582 0.3027 0.7186
H16 H 0.5753 0.3585 0.6897
H17 H 0.4024 0.5679 0.6708
H18 H 0.0403 0.6120 0.6998
H19 H 0.0184 0.4641 0.7249
H20 H 0.3683 0.7217 0.7629
H21 H 0.1478 0.6696 0.7916
H22 H 0.5080 0.5131 0.5921
H23 H 0.7048 0.4302 0.5203
H24 H 0.5978 0.1875 0.4777
H25 H -0.0608 0.0303 0.5716
H26 H 0.0810 0.0917 0.6277
H27 H 0.1643 -0.0389 0.5914
O4 O 0.2393(8) -0.0229(4) 0.8126(6)
O5 O 0.4372(4) 0.2088(3) 0.8188(1)
O6 O 0.0216(4) 0.3130(3) 0.8054(1)
O7 O -0.1697(4) 0.0971(3) 0.8217(1)
C23 C 0.2430(6) 0.1108(4) 0.8126(2)
C24 C 0.0118(5) 0.1822(4) 0.8131(1)
H28 H 0.5547 0.1656 0.8211
O8 O 0.4560(60) 0.8410(30) 0.6354(9)
C25 C 0.5760(70) 0.9630(40) 0.6759(13)
H29 H 0.3136 0.8227 0.6392
H30 H 0.6337 1.0481 0.6597
H31 H 0.4649 0.9918 0.6995
H32 H 0.7090 0.9314 0.6952
C26? C 0.7680(40) 0.9150(20) 0.6838(6)
O9? O 0.7670(30) 0.7706(16) 0.6527(6)
H33? H 0.7959 0.9066 0.7205
H34? H 0.8940 0.9864 0.6754
H35? H 0.7730 0.7808 0.6218
H36? H 0.6164 0.9474 0.6762
O10? O 0.2270(40) -0.0070(20) 0.7841(12)
O11? O 0.1430(20) 0.2271(13) 0.4492(3)
C27? C 0.2043(16) 0.4337(10) 0.5771(3)
C28? C 0.2330(20) 0.5768(12) 0.5678(4)
C29? C 0.2210(20) 0.6036(16) 0.5143(6)
C30? C 0.1910(30) 0.4823(19) 0.4757(4)
C31? C 0.1740(20) 0.3350(16) 0.4850(4)
N3? N 0.1880(16) 0.3173(9) 0.5369(3)
H37? H 0.2608 0.6567 0.5955
H38? H 0.2328 0.7008 0.5063
H39? H 0.1821 0.4991 0.4409
C32? C 0.1860(60) 0.1540(30) 0.5485(12)
H40? H 0.2121 0.0902 0.5174
H41? H 0.0327 0.1173 0.5586
H42? H 0.3104 0.1526 0.5766
loop_
_geom_bond_atom_site_label_1
_geom_bond_atom_site_label_2
_geom_bond_site_symmetry_1
_geom_bond_site_symmetry_2
O1 C7 1_555 1_555
O2 C16 1_555 1_555
N1 C8 1_555 1_555
C1 C2 1_555 1_555
C2 C3 1_555 1_555
C3 C4 1_555 1_555
C4 C5 1_555 1_555
C5 C6 1_555 1_555
C6 C7 1_555 1_555
C7 C8 1_555 1_555
C8 C9 1_555 1_555
C9 C10 1_555 1_555
C10 C1 1_555 1_555
C11 N1 1_555 1_555
C12 C11 1_555 1_555
C13 C12 1_555 1_555
C14 C13 1_555 1_555
C15 N1 1_555 1_555
C16 C13 1_555 1_555
O3 C21 1_555 1_555
C17 C16 1_555 1_555
C18 C17 1_555 1_555
C19 C18 1_555 1_555
C20 C19 1_555 1_555
C21 C20 1_555 1_555
N2 C17 1_555 1_555
C22 N2 1_555 1_555
H1 O1 1_555 1_555
H2 N1 1_555 1_555
H3 C1 1_555 1_555
H4 C2 1_555 1_555
H5 C3 1_555 1_555
H6 C4 1_555 1_555
H7 C6 1_555 1_555
H8 C6 1_555 1_555
H9 C7 1_555 1_555
H10 C8 1_555 1_555
H11 C9 1_555 1_555
H12 C9 1_555 1_555
H13 C11 1_555 1_555
H14 C11 1_555 1_555
H15 C12 1_555 1_555
H16 C12 1_555 1_555
H17 C13 1_555 1_555
H18 C14 1_555 1_555
H19 C14 1_555 1_555
H20 C15 1_555 1_555
H21 C15 1_555 1_555
H22 C18 1_555 1_555
H23 C19 1_555 1_555
H24 C20 1_555 1_555
H25 C22 1_555 1_555
H26 C22 1_555 1_555
H27 C22 1_555 1_555
O4 C23 1_555 1_555
O5 C23 1_555 1_555
O6 C24 1_555 1_555
O7 C24 1_555 1_555
C23 C24 1_555 1_555
H28 O5 1_555 1_555
O8 C25 1_555 1_555
C25 H30 1_555 1_555
H29 O8 1_555 1_555
H31 C25 1_555 1_555
H32 C25 1_555 1_555
C5 C10 1_555 1_555
C14 C15 1_555 1_555
C21 N2 1_555 1_555

#END
