
#######################################################################
#
#                 Cambridge Crystallographic Data Centre
#                                CCDC 
#
#######################################################################
#
# If this CIF has been generated from an entry in the Cambridge 
# Structural Database, then it will include bibliographic, chemical, 
# crystal, experimental, refinement or atomic coordinate data resulting 
# from the CCDC's data processing and validation procedures.
#
#######################################################################

data_COPVEK
_chemical_formula_moiety         'C19 H15 N1 O3'
_chemical_name_systematic        
1-Benzylspiro[indole-3,2'-pyran]-2,4'(1H,3'H)-dione
_symmetry_cell_setting           hexagonal
_symmetry_space_group_name_H-M   'P 65'
_symmetry_Int_Tables_number      170
_space_group_name_Hall           'P 65'
loop_
_symmetry_equiv_pos_site_id
_symmetry_equiv_pos_as_xyz
1 x,y,z
2 x-y,x,5/6+z
3 -y,x-y,2/3+z
4 -x,-y,1/2+z
5 -x+y,-x,1/3+z
6 y,-x+y,1/6+z
_cell_length_a                   9.19550(10)
_cell_length_b                   9.19550(10)
_cell_length_c                   61.9661(9)
_cell_angle_alpha                90
_cell_angle_beta                 90
_cell_angle_gamma                120
_cell_volume                     4537.7
_exptl_crystal_colour            colorless
_exptl_crystal_description       block
_cell_formula_units_Z            12
loop_
_atom_site_label
_atom_site_type_symbol
_atom_site_fract_x
_atom_site_fract_y
_atom_site_fract_z
O1 O 0.6877(12) 1.0191(10) 0.06737(16)
O2 O 0.4650(10) 0.6998(11) 0.04616(13)
O3 O 0.1516(11) 0.4390(12) 0.09575(15)
N1 N 0.8217(12) 0.8653(12) 0.07230(16)
C1 C 0.7715(13) 0.6943(14) 0.07422(17)
C2 C 0.8667(15) 0.6232(16) 0.07955(19)
H1 H 0.9802 0.6903 0.0827
C3 C 0.7918(15) 0.4501(15) 0.0801(2)
H2 H 0.8560 0.4008 0.0835
C4 C 0.6237(16) 0.3504(16) 0.0758(2)
H3 H 0.5754 0.2342 0.0761
C5 C 0.5245(15) 0.4213(14) 0.0709(2)
H4 H 0.4106 0.3544 0.0679
C6 C 0.6020(14) 0.5959(14) 0.07054(17)
C7 C 0.5276(15) 0.7096(15) 0.06768(17)
C8 C 0.4007(13) 0.6883(16) 0.08427(18)
H5 H 0.3808 0.7823 0.0834
H6 H 0.4451 0.6895 0.0985
C9 C 0.2358(15) 0.5263(17) 0.0814(2)
C10 C 0.1884(15) 0.4941(17) 0.0586(2)
H7 H 0.0795 0.4122 0.0550
C11 C 0.2998(18) 0.5812(18) 0.0425(2)
H8 H 0.2621 0.5592 0.0283
C12 C 0.6867(15) 0.8865(16) 0.06901(18)
C13 C 0.9915(14) 1.0029(15) 0.07549(18)
H9 H 1.0395 0.9802 0.0881
H10 H 0.9884 1.1053 0.0782
C14 C 1.1026(15) 1.0286(15) 0.0560(2)
C15 C 1.0701(15) 1.0842(15) 0.03707(19)
H11 H 0.9828 1.1076 0.0362
C16 C 1.171(2) 1.105(2) 0.0191(2)
H12 H 1.1498 1.1426 0.0062
C17 C 1.2959(19) 1.073(2) 0.0200(3)
H13 H 1.3663 1.0959 0.0081
C18 C 1.3224(17) 1.0024(18) 0.0391(3)
H14 H 1.4017 0.9679 0.0395
C19 C 1.2256(16) 0.9868(16) 0.0574(2)
H15 H 1.2449 0.9481 0.0703
O4 O 0.3437(11) 0.8250(11) -0.02803(17)
O5 O 0.5460(11) 0.7261(11) -0.00356(13)
O6 O 0.9007(11) 0.7885(12) -0.04737(15)
N2 N 0.2140(11) 0.5399(11) -0.03515(15)
C20 C 0.2646(13) 0.4145(14) -0.03503(17)
C21 C 0.1740(15) 0.2521(16) -0.0399(2)
H16 H 0.0614 0.2046 -0.0437
C22 C 0.2515(15) 0.1543(15) -0.03923(19)
H17 H 0.1911 0.0403 -0.0425
C23 C 0.4203(15) 0.2305(15) -0.03362(19)
H18 H 0.4729 0.1665 -0.0334
C24 C 0.5097(14) 0.3949(15) -0.02849(19)
H19 H 0.6221 0.4429 -0.0246
C25 C 0.4350(14) 0.4898(14) -0.02896(18)
C26 C 0.5033(15) 0.6770(14) -0.02604(17)
C27 C 0.6419(14) 0.7894(14) -0.04156(19)
H20 H 0.6576 0.9018 -0.0413
H21 H 0.6123 0.7460 -0.0561
C28 C 0.8049(14) 0.7938(15) -0.0345(2)
C29 C 0.8283(17) 0.8051(18) -0.0116(2)
H22 H 0.9329 0.8335 -0.0059
C30 C 0.7046(17) 0.7761(18) 0.0015(2)
H23 H 0.7310 0.7925 0.0162
C31 C 0.3446(14) 0.6947(13) -0.02987(18)
C32 C 0.0439(13) 0.5026(15) -0.03778(19)
H24 H -0.0075 0.4230 -0.0495
H25 H 0.0435 0.6046 -0.0417
C33 C -0.0594(14) 0.4299(16) -0.01745(19)
C34 C -0.1803(17) 0.2633(17) -0.0159(2)
H26 H -0.2034 0.1945 -0.0279
C35 C -0.2686(17) 0.195(2) 0.0029(3)
H27 H -0.3518 0.0825 0.0034
C36 C -0.2321(17) 0.2962(19) 0.0213(2)
H28 H -0.2859 0.2500 0.0343
C37 C -0.1145(17) 0.4665(18) 0.0199(2)
H29 H -0.0960 0.5369 0.0316
C38 C -0.0241(15) 0.5314(15) 0.00075(19)
H30 H 0.0603 0.6433 0.0001
loop_
_geom_bond_atom_site_label_1
_geom_bond_atom_site_label_2
_geom_bond_site_symmetry_1
_geom_bond_site_symmetry_2
O1 C12 1_555 1_555
O2 C7 1_555 1_555
O3 C9 1_555 1_555
N1 C1 1_555 1_555
C1 C2 1_555 1_555
C2 H1 1_555 1_555
C3 C2 1_555 1_555
H2 C3 1_555 1_555
C4 C3 1_555 1_555
H3 C4 1_555 1_555
C5 C4 1_555 1_555
H4 C5 1_555 1_555
C6 C1 1_555 1_555
C7 C6 1_555 1_555
C8 C7 1_555 1_555
H5 C8 1_555 1_555
H6 C8 1_555 1_555
C9 C8 1_555 1_555
C10 C9 1_555 1_555
H7 C10 1_555 1_555
C11 O2 1_555 1_555
H8 C11 1_555 1_555
C12 N1 1_555 1_555
C13 N1 1_555 1_555
H9 C13 1_555 1_555
H10 C13 1_555 1_555
C14 C13 1_555 1_555
C15 C14 1_555 1_555
H11 C15 1_555 1_555
C16 C15 1_555 1_555
H12 C16 1_555 1_555
C17 C16 1_555 1_555
H13 C17 1_555 1_555
C18 C17 1_555 1_555
H14 C18 1_555 1_555
C19 C14 1_555 1_555
H15 C19 1_555 1_555
O4 C31 1_555 1_555
O5 C26 1_555 1_555
O6 C28 1_555 1_555
N2 C20 1_555 1_555
C20 C21 1_555 1_555
C21 H16 1_555 1_555
C22 C21 1_555 1_555
H17 C22 1_555 1_555
C23 C22 1_555 1_555
H18 C23 1_555 1_555
C24 C23 1_555 1_555
H19 C24 1_555 1_555
C25 C20 1_555 1_555
C26 C25 1_555 1_555
C27 C26 1_555 1_555
H20 C27 1_555 1_555
H21 C27 1_555 1_555
C28 C27 1_555 1_555
C29 C28 1_555 1_555
H22 C29 1_555 1_555
C30 O5 1_555 1_555
H23 C30 1_555 1_555
C31 N2 1_555 1_555
C32 N2 1_555 1_555
H24 C32 1_555 1_555
H25 C32 1_555 1_555
C33 C32 1_555 1_555
C34 C33 1_555 1_555
H26 C34 1_555 1_555
C35 C34 1_555 1_555
H27 C35 1_555 1_555
C36 C35 1_555 1_555
H28 C36 1_555 1_555
C37 C36 1_555 1_555
H29 C37 1_555 1_555
C38 C33 1_555 1_555
H30 C38 1_555 1_555
C5 C6 1_555 1_555
C7 C12 1_555 1_555
C10 C11 1_555 1_555
C18 C19 1_555 1_555
C24 C25 1_555 1_555
C26 C31 1_555 1_555
C29 C30 1_555 1_555
C37 C38 1_555 1_555

#END
