
#######################################################################
#
#                 Cambridge Crystallographic Data Centre
#                                CCDC 
#
#######################################################################
#
# If this CIF has been generated from an entry in the Cambridge 
# Structural Database, then it will include bibliographic, chemical, 
# crystal, experimental, refinement or atomic coordinate data resulting 
# from the CCDC's data processing and validation procedures.
#
#######################################################################

data_COQDOD
_chemical_formula_moiety         'C39 H47 N7 O2,Cs1 1+,Cl1 1-'
_chemical_name_systematic        
'cesium 1,17,22,22,31,31-hexamethyl-5,13,36,37,38,39,40-heptaazaheptacyclo[15.9.9.1^7,11^.1^18,21^.1^23,26^.1^27,30^.1^32,35^]tetraconta-7(40),8,10,18,20,23,25,27,29,32,34-undecaene-6,12-dione chloride'
_symmetry_cell_setting           monoclinic
_symmetry_space_group_name_H-M   'P 21'
_symmetry_Int_Tables_number      4
_space_group_name_Hall           'P 2yb'
loop_
_symmetry_equiv_pos_site_id
_symmetry_equiv_pos_as_xyz
1 x,y,z
2 -x,1/2+y,-z
_cell_length_a                   10.7780(15)
_cell_length_b                   16.187(2)
_cell_length_c                   10.7730(14)
_cell_angle_alpha                90
_cell_angle_beta                 103.801(5)
_cell_angle_gamma                90
_cell_volume                     1825.23
_exptl_crystal_colour            colorless
_exptl_crystal_description       needle
_cell_formula_units_Z            2
loop_
_atom_site_label
_atom_site_type_symbol
_atom_site_fract_x
_atom_site_fract_y
_atom_site_fract_z
C1 C 1.2377(12) 0.6500(9) 1.1126(13)
C2 C 1.2929(9) 0.7147(13) 1.0596(10)
H1 H 1.3279 0.7636 1.1027
C3 C 1.2879(12) 0.6951(10) 0.9305(12)
H2 H 1.3216 0.7284 0.8737
C4 C 1.2270(13) 0.6204(9) 0.8995(15)
C5 C 1.1984(12) 0.5686(10) 0.7811(12)
C6 C 1.0623(13) 0.5830(9) 0.7123(13)
C7 C 1.0057(12) 0.6377(9) 0.6135(11)
H3 H 1.0496 0.6751 0.5711
C8 C 0.8725(13) 0.6273(10) 0.5889(12)
H4 H 0.8118 0.6568 0.5262
C9 C 0.8434(12) 0.5688(9) 0.6679(13)
C10 C 0.7202(10) 0.5335(7) 0.6870(10)
C11 C 0.6898(12) 0.5724(9) 0.8024(12)
C12 C 0.6133(12) 0.6382(8) 0.8164(12)
H5 H 0.5645 0.6709 0.7491
C13 C 0.6198(10) 0.6489(9) 0.9490(13)
H6 H 0.5753 0.6897 0.9846
C14 C 0.6991(11) 0.5919(9) 1.0155(13)
C15 C 0.7433(12) 0.5756(9) 1.1562(12)
C16 C 0.8673(12) 0.6219(10) 1.2087(13)
C17 C 0.8898(12) 0.6991(11) 1.2678(11)
H7 H 0.8281 0.7339 1.2911
C18 C 1.0190(11) 0.7154(13) 1.2859(11)
H8 H 1.0601 0.7646 1.3226
C19 C 1.0788(12) 0.6508(10) 1.2436(12)
C20 C 1.2169(9) 0.6364(6) 1.2420(9)
C21 C 1.2834(11) 0.5972(9) 0.6925(13)
H9 H 1.2642 0.6549 0.6680
H10 H 1.2666 0.5625 0.6157
H11 H 1.3735 0.5922 0.7376
C22 C 0.6115(12) 0.5541(8) 0.5703(11)
H12 H 0.5313 0.5306 0.5822
H13 H 0.6309 0.5306 0.4933
H14 H 0.6029 0.6142 0.5610
C23 C 0.7300(11) 0.4391(6) 0.7034(11)
H15 H 0.7998 0.4255 0.7771
H16 H 0.7470 0.4141 0.6262
H17 H 0.6494 0.4174 0.7172
C24 C 0.6403(12) 0.6070(7) 1.2212(11)
H18 H 0.6231 0.6654 1.2004
H19 H 0.6701 0.6005 1.3140
H20 H 0.5618 0.5749 1.1907
C25 C 1.2993(9) 0.6973(7) 1.3340(10)
H21 H 1.2762 0.7539 1.3051
H22 H 1.3896 0.6876 1.3363
H23 H 1.2851 0.6896 1.4198
C26 C 1.2568(12) 0.5475(6) 1.2879(13)
H24 H 1.2086 0.5077 1.2264
H25 H 1.2387 0.5383 1.3717
H26 H 1.3484 0.5402 1.2946
C27 C 1.2192(14) 0.4757(9) 0.8083(15)
H27 H 1.1604 0.4575 0.8608
H28 H 1.1953 0.4456 0.7260
C28 C 1.3552(11) 0.4508(8) 0.8767(13)
H29 H 1.3908 0.4923 0.9433
H30 H 1.4097 0.4500 0.8146
C29 C 1.3579(13) 0.3651(9) 0.9391(13)
H31 H 1.2968 0.3286 0.8807
H32 H 1.4442 0.3412 0.9493
C30 C 1.4145(12) 0.3484(9) 1.1712(14)
C31 C 1.3745(11) 0.3451(7) 1.2936(12)
C32 C 1.4704(13) 0.3353(9) 1.4050(16)
H33 H 1.5571 0.3304 1.4007
C33 C 1.4392(14) 0.3330(10) 1.5190(14)
H34 H 1.5040 0.3266 1.5954
C34 C 1.3150(12) 0.3398(7) 1.5242(13)
H35 H 1.2921 0.3390 1.6041
C35 C 1.2215(13) 0.3479(9) 1.4104(14)
C36 C 1.0870(12) 0.3544(8) 1.4243(13)
C37 C 0.8600(11) 0.3658(8) 1.3215(12)
H36 H 0.8516 0.3393 1.4019
H37 H 0.8089 0.3330 1.2496
C38 C 0.8049(11) 0.4523(8) 1.3154(12)
H38 H 0.8697 0.4904 1.3656
H39 H 0.7300 0.4524 1.3537
C39 C 0.7642(14) 0.4827(9) 1.1771(13)
H40 H 0.8301 0.4651 1.1324
H41 H 0.6838 0.4542 1.1353
N1 N 1.1987(10) 0.5921(8) 1.0113(10)
H42 H 1.1615 0.5446 1.0186
N2 N 0.9610(9) 0.5427(7) 0.7456(10)
H43 H 0.9693 0.5058 0.8071
N3 N 0.7420(10) 0.5463(7) 0.9250(10)
H44 H 0.7967 0.5051 0.9440
N4 N 0.9827(10) 0.5951(7) 1.1927(10)
H45 H 0.9944 0.5485 1.1549
N5 N 1.3260(10) 0.3654(7) 1.0640(11)
H46 H 1.2475 0.3770 1.0686
N6 N 1.2506(10) 0.3498(6) 1.2956(9)
N7 N 0.9936(11) 0.3629(8) 1.3157(11)
H47 H 1.0138 0.3666 1.2414
O1 O 1.5274(8) 0.3359(6) 1.1714(10)
O2 O 1.0650(8) 0.3501(7) 1.5292(8)
Cs1 Cs 1.06170(6) 0.21306(2) 1.07520(6)
Cl1 Cl 1.0116(2) 0.42385(14) 1.0173(3)
loop_
_geom_bond_atom_site_label_1
_geom_bond_atom_site_label_2
_geom_bond_site_symmetry_1
_geom_bond_site_symmetry_2
C1 C2 1_555 1_555
C2 H1 1_555 1_555
C3 C2 1_555 1_555
H2 C3 1_555 1_555
C4 C3 1_555 1_555
C5 C4 1_555 1_555
C6 C5 1_555 1_555
C7 C6 1_555 1_555
H3 C7 1_555 1_555
C8 C7 1_555 1_555
H4 C8 1_555 1_555
C9 C8 1_555 1_555
C10 C9 1_555 1_555
C11 C10 1_555 1_555
C12 C11 1_555 1_555
H5 C12 1_555 1_555
C13 C12 1_555 1_555
H6 C13 1_555 1_555
C14 C13 1_555 1_555
C15 C14 1_555 1_555
C16 C15 1_555 1_555
C17 C16 1_555 1_555
H7 C17 1_555 1_555
C18 C17 1_555 1_555
H8 C18 1_555 1_555
C19 C18 1_555 1_555
C20 C1 1_555 1_555
C21 C5 1_555 1_555
H9 C21 1_555 1_555
H10 C21 1_555 1_555
H11 C21 1_555 1_555
C22 C10 1_555 1_555
H12 C22 1_555 1_555
H13 C22 1_555 1_555
H14 C22 1_555 1_555
C23 C10 1_555 1_555
H15 C23 1_555 1_555
H16 C23 1_555 1_555
H17 C23 1_555 1_555
C24 C15 1_555 1_555
H18 C24 1_555 1_555
H19 C24 1_555 1_555
H20 C24 1_555 1_555
C25 C20 1_555 1_555
H21 C25 1_555 1_555
H22 C25 1_555 1_555
H23 C25 1_555 1_555
C26 C20 1_555 1_555
H24 C26 1_555 1_555
H25 C26 1_555 1_555
H26 C26 1_555 1_555
C27 C5 1_555 1_555
H27 C27 1_555 1_555
H28 C27 1_555 1_555
C28 C27 1_555 1_555
H29 C28 1_555 1_555
H30 C28 1_555 1_555
C29 C28 1_555 1_555
H31 C29 1_555 1_555
H32 C29 1_555 1_555
C30 C31 1_555 1_555
C31 C32 1_555 1_555
C32 H33 1_555 1_555
C33 C32 1_555 1_555
H34 C33 1_555 1_555
C34 C33 1_555 1_555
H35 C34 1_555 1_555
C35 C34 1_555 1_555
C36 C35 1_555 1_555
C37 H36 1_555 1_555
H37 C37 1_555 1_555
C38 C37 1_555 1_555
H38 C38 1_555 1_555
H39 C38 1_555 1_555
C39 C15 1_555 1_555
H40 C39 1_555 1_555
H41 C39 1_555 1_555
N1 C1 1_555 1_555
H42 N1 1_555 1_555
N2 C6 1_555 1_555
H43 N2 1_555 1_555
N3 C11 1_555 1_555
H44 N3 1_555 1_555
N4 C16 1_555 1_555
H45 N4 1_555 1_555
N5 C29 1_555 1_555
H46 N5 1_555 1_555
N6 C31 1_555 1_555
N7 C36 1_555 1_555
H47 N7 1_555 1_555
O1 C30 1_555 1_555
O2 C36 1_555 1_555
C4 N1 1_555 1_555
C9 N2 1_555 1_555
C14 N3 1_555 1_555
C19 C20 1_555 1_555
C19 N4 1_555 1_555
C30 N5 1_555 1_555
C35 N6 1_555 1_555
C37 N7 1_555 1_555
C38 C39 1_555 1_555

#END
