
#######################################################################
#
#                 Cambridge Crystallographic Data Centre
#                                CCDC 
#
#######################################################################
#
# If this CIF has been generated from an entry in the Cambridge 
# Structural Database, then it will include bibliographic, chemical, 
# crystal, experimental, refinement or atomic coordinate data resulting 
# from the CCDC's data processing and validation procedures.
#
#######################################################################

data_COQQUW
_chemical_formula_moiety         'C36 H22 O2'
_chemical_name_systematic        
10a,15-diphenyldibenzo[f,h]indeno[1,2-c]isochromen-9(10aH)-one
_symmetry_cell_setting           monoclinic
_symmetry_space_group_name_H-M   'P 21/n'
_symmetry_Int_Tables_number      14
_space_group_name_Hall           '-P 2yn'
loop_
_symmetry_equiv_pos_site_id
_symmetry_equiv_pos_as_xyz
1 x,y,z
2 1/2-x,1/2+y,1/2-z
3 -x,-y,-z
4 1/2+x,1/2-y,1/2+z
_cell_length_a                   11.6780(6)
_cell_length_b                   11.9218(6)
_cell_length_c                   17.6541(7)
_cell_angle_alpha                90
_cell_angle_beta                 99.872(2)
_cell_angle_gamma                90
_cell_volume                     2421.46
_exptl_crystal_colour            yellow
_exptl_crystal_description       Block
_cell_formula_units_Z            4
loop_
_atom_site_label
_atom_site_type_symbol
_atom_site_fract_x
_atom_site_fract_y
_atom_site_fract_z
O1 O -0.08242(8) 0.62395(8) 0.25492(5)
O2 O -0.02970(8) 0.70152(8) 0.36791(5)
C1 C -0.11295(11) 0.60004(11) 0.11768(7)
C2 C -0.23088(12) 0.60460(11) 0.08983(8)
H1 H -0.2855 0.5749 0.1187
C3 C -0.26749(12) 0.65416(12) 0.01809(8)
H2 H -0.3481 0.6583 -0.0024
C4 C -0.18686(13) 0.69740(12) -0.02340(8)
H3 H -0.2132 0.7313 -0.0720
C5 C -0.06810(12) 0.69213(11) 0.00470(7)
H4 H -0.0136 0.7223 -0.0240
C6 C -0.03103(11) 0.64167(11) 0.07572(7)
C7 C 0.08742(11) 0.62844(11) 0.12178(7)
C8 C 0.07710(11) 0.57960(10) 0.18952(7)
C9 C -0.04910(11) 0.55531(11) 0.19357(7)
C10 C -0.07462(11) 0.43225(11) 0.20706(7)
C11 C -0.00914(12) 0.34858(11) 0.17983(7)
H5 H 0.0530 0.3685 0.1541
C12 C -0.03397(13) 0.23595(12) 0.19009(8)
H6 H 0.0109 0.1793 0.1711
C13 C -0.12385(12) 0.20642(12) 0.22792(8)
H7 H -0.1406 0.1296 0.2352
C14 C -0.18944(12) 0.28935(12) 0.25526(8)
H8 H -0.2513 0.2691 0.2812
C15 C -0.16529(11) 0.40174(12) 0.24492(8)
H9 H -0.2107 0.4581 0.2637
C16 C 0.19339(11) 0.66894(11) 0.09519(7)
C17 C 0.20959(12) 0.64700(12) 0.01964(8)
H10 H 0.1517 0.6074 -0.0144
C18 C 0.30941(13) 0.68272(13) -0.00555(8)
H11 H 0.3196 0.6680 -0.0569
C19 C 0.39423(13) 0.73979(12) 0.04396(9)
H12 H 0.4628 0.7640 0.0266
C20 C 0.37966(12) 0.76181(12) 0.11878(8)
H13 H 0.4382 0.8012 0.1525
C21 C 0.27986(11) 0.72660(11) 0.14461(8)
H14 H 0.2703 0.7417 0.1960
C22 C 0.26708(11) 0.50048(10) 0.26686(7)
C23 C 0.30937(11) 0.46699(11) 0.19993(8)
H15 H 0.2633 0.4797 0.1509
C24 C 0.41609(12) 0.41627(12) 0.20478(9)
H16 H 0.4440 0.3950 0.1594
C25 C 0.48333(12) 0.39624(12) 0.27710(9)
H17 H 0.5579 0.3629 0.2806
C26 C 0.44239(12) 0.42435(11) 0.34275(8)
H18 H 0.4887 0.4086 0.3913
C27 C 0.33292(11) 0.47623(11) 0.34006(8)
C28 C 0.28413(11) 0.49807(11) 0.40908(7)
C29 C 0.17226(11) 0.54752(11) 0.40317(7)
C30 C 0.11013(11) 0.57709(10) 0.32764(7)
C31 C 0.15489(11) 0.55406(10) 0.26199(7)
C32 C -0.00310(11) 0.63838(11) 0.32041(7)
C33 C 0.12306(12) 0.56063(12) 0.47024(7)
H19 H 0.0480 0.5931 0.4666
C34 C 0.18187(13) 0.52716(13) 0.54071(8)
H20 H 0.1475 0.5367 0.5853
C35 C 0.29188(13) 0.47923(13) 0.54688(8)
H21 H 0.3324 0.4565 0.5958
C36 C 0.34187(12) 0.46478(12) 0.48277(8)
H22 H 0.4168 0.4317 0.4879
loop_
_geom_bond_atom_site_label_1
_geom_bond_atom_site_label_2
_geom_bond_site_symmetry_1
_geom_bond_site_symmetry_2
O1 C9 1_555 1_555
O2 C32 1_555 1_555
C1 C2 1_555 1_555
C2 H1 1_555 1_555
C3 C2 1_555 1_555
H2 C3 1_555 1_555
C4 C3 1_555 1_555
H3 C4 1_555 1_555
C5 C4 1_555 1_555
H4 C5 1_555 1_555
C6 C1 1_555 1_555
C7 C6 1_555 1_555
C8 C7 1_555 1_555
C9 C1 1_555 1_555
C10 C9 1_555 1_555
C11 C10 1_555 1_555
H5 C11 1_555 1_555
C12 C11 1_555 1_555
H6 C12 1_555 1_555
C13 C12 1_555 1_555
H7 C13 1_555 1_555
C14 C13 1_555 1_555
H8 C14 1_555 1_555
C15 C10 1_555 1_555
H9 C15 1_555 1_555
C16 C7 1_555 1_555
C17 C16 1_555 1_555
H10 C17 1_555 1_555
C18 C17 1_555 1_555
H11 C18 1_555 1_555
C19 C18 1_555 1_555
H12 C19 1_555 1_555
C20 C19 1_555 1_555
H13 C20 1_555 1_555
C21 C16 1_555 1_555
H14 C21 1_555 1_555
C22 C23 1_555 1_555
C23 H15 1_555 1_555
C24 C23 1_555 1_555
H16 C24 1_555 1_555
C25 C24 1_555 1_555
H17 C25 1_555 1_555
C26 C25 1_555 1_555
H18 C26 1_555 1_555
C27 C22 1_555 1_555
C28 C27 1_555 1_555
C29 C28 1_555 1_555
C30 C29 1_555 1_555
C31 C8 1_555 1_555
C32 O1 1_555 1_555
C33 C29 1_555 1_555
H19 C33 1_555 1_555
C34 C33 1_555 1_555
H20 C34 1_555 1_555
C35 C34 1_555 1_555
H21 C35 1_555 1_555
C36 C28 1_555 1_555
H22 C36 1_555 1_555
C5 C6 1_555 1_555
C8 C9 1_555 1_555
C14 C15 1_555 1_555
C20 C21 1_555 1_555
C22 C31 1_555 1_555
C26 C27 1_555 1_555
C30 C31 1_555 1_555
C30 C32 1_555 1_555
C35 C36 1_555 1_555

#END
