
#######################################################################
#
#                 Cambridge Crystallographic Data Centre
#                                CCDC 
#
#######################################################################
#
# If this CIF has been generated from an entry in the Cambridge 
# Structural Database, then it will include bibliographic, chemical, 
# crystal, experimental, refinement or atomic coordinate data resulting 
# from the CCDC's data processing and validation procedures.
#
#######################################################################

data_COQREH
_chemical_formula_moiety         'C36 H26 O2'
_chemical_name_systematic        
4-benzylidene-1,2,3,5-tetraphenylpent-2-ene-1,5-dione
_symmetry_cell_setting           triclinic
_symmetry_space_group_name_H-M   'P -1'
_symmetry_Int_Tables_number      2
_space_group_name_Hall           '-P 1'
loop_
_symmetry_equiv_pos_site_id
_symmetry_equiv_pos_as_xyz
1 x,y,z
2 -x,-y,-z
_cell_length_a                   12.1700(8)
_cell_length_b                   18.0960(10)
_cell_length_c                   19.1864(11)
_cell_angle_alpha                107.9220(19)
_cell_angle_beta                 98.022(2)
_cell_angle_gamma                91.4610(19)
_cell_volume                     3970.5
_exptl_crystal_colour            colorless
_exptl_crystal_description       Block
_cell_formula_units_Z            6
loop_
_atom_site_label
_atom_site_type_symbol
_atom_site_fract_x
_atom_site_fract_y
_atom_site_fract_z
O1 O 0.72235(11) 0.33076(7) -0.06927(7)
O2 O 0.79839(9) 0.38329(6) 0.16233(6)
C1 C 0.80120(13) 0.31388(9) -0.03159(9)
C2 C 0.91891(12) 0.35400(10) -0.01449(10)
C3 C 0.99240(13) 0.35533(9) 0.04830(10)
H1 H 0.9701 0.3312 0.0821
C4 C 1.09853(11) 0.39191(9) 0.06158(11)
H2 H 1.1488 0.3928 0.1045
C5 C 1.13117(12) 0.42716(9) 0.01207(13)
H3 H 1.2037 0.4522 0.0211
C6 C 1.05768(17) 0.42582(9) -0.05072(11)
H4 H 1.0800 0.4499 -0.0846
C7 C 0.95155(15) 0.38924(10) -0.06400(9)
H5 H 0.9013 0.3883 -0.1069
C8 C 0.78565(12) 0.24981(8) 0.00187(8)
C9 C 0.86345(12) 0.18684(8) -0.01699(8)
C10 C 0.92570(12) 0.16348(8) 0.03808(8)
H6 H 0.9168 0.1864 0.0884
C11 C 1.00081(12) 0.10668(8) 0.01969(9)
H7 H 1.0430 0.0909 0.0575
C12 C 1.01448(12) 0.07295(8) -0.05361(9)
H8 H 1.0654 0.0338 -0.0659
C13 C 0.95403(13) 0.09621(9) -0.10899(9)
H9 H 0.9636 0.0734 -0.1592
C14 C 0.87913(13) 0.15325(8) -0.09035(8)
H10 H 0.8381 0.1695 -0.1282
C15 C 0.70470(11) 0.25235(8) 0.04377(7)
C16 C 0.67105(11) 0.18734(8) 0.07012(8)
C17 C 0.64101(12) 0.20257(8) 0.14060(8)
H11 H 0.6441 0.2549 0.1722
C18 C 0.60688(13) 0.14266(9) 0.16512(9)
H12 H 0.5873 0.1540 0.2134
C19 C 0.60113(13) 0.06596(9) 0.11928(9)
H13 H 0.5781 0.0248 0.1362
C20 C 0.62904(12) 0.04991(8) 0.04900(9)
H14 H 0.6248 -0.0024 0.0174
C21 C 0.66325(12) 0.10992(8) 0.02438(8)
H15 H 0.6816 0.0983 -0.0242
C22 C 0.64568(12) 0.32571(8) 0.06927(7)
C23 C 0.53512(11) 0.32943(8) 0.05605(7)
H16 H 0.5069 0.3778 0.0795
C24 C 0.45296(12) 0.26664(8) 0.00923(8)
C25 C 0.34557(12) 0.26360(9) 0.02665(8)
H17 H 0.3253 0.3039 0.0668
C26 C 0.26794(13) 0.20260(9) -0.01389(9)
H18 H 0.1955 0.2008 -0.0010
C27 C 0.29675(14) 0.14436(9) -0.07320(9)
H19 H 0.2451 0.1013 -0.0997
C28 C 0.40074(13) 0.14867(9) -0.09389(8)
H20 H 0.4188 0.1099 -0.1361
C29 C 0.47863(12) 0.20927(8) -0.05333(8)
H21 H 0.5497 0.2120 -0.0679
C30 C 0.71792(12) 0.39409(8) 0.12211(8)
C31 C 0.69100(11) 0.47522(8) 0.12578(8)
C32 C 0.72702(13) 0.53517(8) 0.19203(8)
H22 H 0.7620 0.5231 0.2343
C33 C 0.71205(14) 0.61193(9) 0.19644(9)
H23 H 0.7367 0.6524 0.2416
C34 C 0.66116(13) 0.62990(9) 0.13513(9)
H24 H 0.6508 0.6826 0.1382
C35 C 0.62526(13) 0.57072(9) 0.06901(9)
H25 H 0.5903 0.5831 0.0270
C36 C 0.64017(12) 0.49366(8) 0.06406(8)
H26 H 0.6158 0.4535 0.0187
O3 O 0.20804(9) 0.28812(6) 0.17533(6)
O4 O 0.27185(9) 0.33964(6) 0.40081(6)
C43 C 0.28808(12) 0.27975(8) 0.21746(7)
C44 C 0.31592(11) 0.19992(8) 0.21815(8)
C45 C 0.36401(12) 0.18499(8) 0.28251(8)
H32 H 0.3858 0.2269 0.3270
C46 C 0.37995(12) 0.10901(9) 0.28141(9)
H33 H 0.4124 0.0991 0.3253
C47 C 0.34881(13) 0.04751(9) 0.21659(10)
H34 H 0.3602 -0.0044 0.2161
C48 C 0.30093(14) 0.06199(9) 0.15256(9)
H35 H 0.2796 0.0199 0.1081
C49 C 0.28405(13) 0.13744(8) 0.15309(8)
H36 H 0.2507 0.1469 0.1091
C50 C 0.35855(12) 0.34984(8) 0.26904(7)
C51 C 0.46912(12) 0.34616(8) 0.28361(8)
H37 H 0.4969 0.2976 0.2602
C52 C 0.55248(12) 0.40757(8) 0.33118(8)
C53 C 0.52651(12) 0.46632(8) 0.39253(8)
H38 H 0.4533 0.4668 0.4045
C54 C 0.60761(13) 0.52382(8) 0.43591(8)
H39 H 0.5895 0.5634 0.4774
C55 C 0.71451(13) 0.52367(9) 0.41898(8)
H40 H 0.7687 0.5643 0.4477
C56 C 0.74269(13) 0.46443(9) 0.36023(9)
H41 H 0.8166 0.4634 0.3495
C57 C 0.66204(12) 0.40656(8) 0.31710(8)
H42 H 0.6818 0.3656 0.2773
C58 C 0.29819(11) 0.42267(8) 0.29309(7)
C59 C 0.33153(12) 0.48784(8) 0.26663(8)
C60 C 0.34255(12) 0.56476(8) 0.31290(8)
H43 H 0.3303 0.5761 0.3628
C61 C 0.37121(14) 0.62511(9) 0.28683(10)
H44 H 0.3780 0.6773 0.3189
C62 C 0.38986(15) 0.60949(10) 0.21470(10)
H45 H 0.4076 0.6509 0.1966
C63 C 0.38270(17) 0.53327(10) 0.16877(10)
H46 H 0.3975 0.5222 0.1194
C64 C 0.35396(14) 0.47302(9) 0.19469(9)
H47 H 0.3495 0.4208 0.1628
C65 C 0.21421(11) 0.42458(8) 0.33258(8)
C66 C 0.13610(12) 0.48746(8) 0.35065(8)
C67 C 0.07853(12) 0.51370(8) 0.29582(9)
H48 H 0.0915 0.4934 0.2460
C68 C 0.00200(13) 0.56971(9) 0.31401(10)
H49 H -0.0371 0.5875 0.2765
C69 C -0.01755(14) 0.59967(9) 0.38632(11)
H50 H -0.0696 0.6381 0.3983
C70 C 0.03836(14) 0.57391(9) 0.44100(10)
H51 H 0.0248 0.5944 0.4907
C71 C 0.11458(13) 0.51789(8) 0.42320(9)
H52 H 0.1526 0.5000 0.4610
C72 C 0.19495(12) 0.35908(8) 0.36357(8)
C73 C 0.08049(12) 0.32021(8) 0.34810(8)
C74 C 0.04870(14) 0.28116(8) 0.39523(9)
H53 H 0.0998 0.2793 0.4367
C75 C -0.05841(15) 0.24480(9) 0.38139(10)
H54 H -0.0812 0.2195 0.4142
C76 C -0.13084(14) 0.24597(9) 0.31965(10)
H55 H -0.2033 0.2208 0.3100
C77 C -0.09967(13) 0.28322(9) 0.27163(10)
H56 H -0.1500 0.2829 0.2290
C78 C 0.00562(13) 0.32098(8) 0.28615(9)
H57 H 0.0269 0.3475 0.2538
O5 O 0.17919(9) -0.04882(6) 0.50802(6)
O6 O 0.30565(8) 0.00723(6) 0.74221(6)
C79 C 0.26362(12) -0.06016(8) 0.54483(8)
C80 C 0.29117(12) -0.14125(8) 0.54048(8)
C81 C 0.35030(12) -0.15973(8) 0.59995(8)
H58 H 0.3793 -0.1196 0.6445
C82 C 0.36653(13) -0.23702(9) 0.59364(9)
H59 H 0.4072 -0.2496 0.6340
C83 C 0.32406(14) -0.29601(9) 0.52911(9)
H60 H 0.3356 -0.3487 0.5254
C84 C 0.26469(14) -0.27808(9) 0.46997(9)
H61 H 0.2354 -0.3185 0.4257
C85 C 0.24825(13) -0.20128(9) 0.47568(8)
H62 H 0.2074 -0.1891 0.4352
C86 C 0.34019(12) 0.00788(8) 0.59480(7)
C87 C 0.45090(12) 0.00282(8) 0.60199(8)
H63 H 0.4757 -0.0450 0.5738
C88 C 0.53845(12) 0.06199(8) 0.64809(8)
C89 C 0.52178(12) 0.11769(8) 0.71435(8)
H64 H 0.4513 0.1186 0.7304
C90 C 0.60806(13) 0.17169(9) 0.75662(9)
H65 H 0.5962 0.2093 0.8014
C91 C 0.71105(14) 0.17078(10) 0.73376(9)
H66 H 0.7690 0.2087 0.7621
C92 C 0.73000(13) 0.11468(10) 0.66958(10)
H67 H 0.8013 0.1132 0.6546
C93 C 0.64426(13) 0.06058(9) 0.62727(9)
H68 H 0.6577 0.0220 0.5835
C94 C 0.28279(11) 0.08072(8) 0.62540(7)
C95 C 0.30102(12) 0.14431(8) 0.59324(8)
C96 C 0.33958(12) 0.21909(8) 0.63874(8)
H69 H 0.3530 0.2301 0.6910
C97 C 0.35849(14) 0.27762(9) 0.60828(9)
H70 H 0.3856 0.3284 0.6396
C98 C 0.33782(15) 0.26197(10) 0.53207(10)
H71 H 0.3516 0.3018 0.5111
C99 C 0.29689(16) 0.18801(9) 0.48628(9)
H72 H 0.2809 0.1778 0.4341
C100 C 0.27940(15) 0.12942(9) 0.51648(8)
H73 H 0.2525 0.0787 0.4849
C101 C 0.21542(11) 0.08533(8) 0.67642(7)
C102 C 0.14050(11) 0.14904(8) 0.70059(8)
C103 C 0.07239(12) 0.17521(8) 0.64961(9)
H74 H 0.0744 0.1533 0.5980
C104 C 0.00166(13) 0.23339(9) 0.67451(10)
H75 H -0.0440 0.2515 0.6397
C105 C -0.00321(13) 0.26535(9) 0.74956(10)
H76 H -0.0518 0.3052 0.7660
C106 C 0.06249(14) 0.23922(9) 0.80006(10)
H77 H 0.0589 0.2605 0.8515
C107 C 0.13404(13) 0.18165(8) 0.77579(9)
H78 H 0.1795 0.1641 0.8110
C108 C 0.21676(12) 0.02381(8) 0.71456(7)
C109 C 0.11052(12) -0.01510(8) 0.71990(8)
C110 C 0.11047(13) -0.05416(8) 0.77235(8)
H79 H 0.1770 -0.0541 0.8048
C111 C 0.01393(13) -0.09297(9) 0.77722(9)
H80 H 0.0140 -0.1191 0.8132
C112 C -0.08258(13) -0.09366(9) 0.72962(9)
H81 H -0.1486 -0.1208 0.7328
C113 C -0.08392(13) -0.05531(9) 0.67757(10)
H82 H -0.1509 -0.0558 0.6454
C114 C 0.01248(13) -0.01598(9) 0.67205(9)
H83 H 0.0117 0.0101 0.6360
C37? C 0.8954(4) 0.3507(4) -0.0397(4)
C38? C 0.9871(5) 0.3519(4) 0.0128(4)
H27? H 0.9812 0.3267 0.0490
C39? C 1.0875(4) 0.3899(4) 0.0123(5)
H28? H 1.1502 0.3908 0.0482
C40? C 1.0962(4) 0.4268(4) -0.0407(5)
H29? H 1.1649 0.4528 -0.0410
C41? C 1.0045(6) 0.4255(3) -0.0932(4)
H30? H 1.0105 0.4507 -0.1294
C42? C 0.9041(5) 0.3875(4) -0.0927(3)
H31? H 0.8414 0.3866 -0.1285
loop_
_geom_bond_atom_site_label_1
_geom_bond_atom_site_label_2
_geom_bond_site_symmetry_1
_geom_bond_site_symmetry_2
O1 C1 1_555 1_555
O2 C30 1_555 1_555
C1 C2 1_555 1_555
C2 C3 1_555 1_555
C3 H1 1_555 1_555
C4 C3 1_555 1_555
H2 C4 1_555 1_555
C5 C4 1_555 1_555
H3 C5 1_555 1_555
C6 C5 1_555 1_555
H4 C6 1_555 1_555
C7 C2 1_555 1_555
H5 C7 1_555 1_555
C8 C1 1_555 1_555
C9 C8 1_555 1_555
C10 C9 1_555 1_555
H6 C10 1_555 1_555
C11 C10 1_555 1_555
H7 C11 1_555 1_555
C12 C11 1_555 1_555
H8 C12 1_555 1_555
C13 C12 1_555 1_555
H9 C13 1_555 1_555
C14 C9 1_555 1_555
H10 C14 1_555 1_555
C15 C8 1_555 1_555
C16 C15 1_555 1_555
C17 C16 1_555 1_555
H11 C17 1_555 1_555
C18 C17 1_555 1_555
H12 C18 1_555 1_555
C19 C18 1_555 1_555
H13 C19 1_555 1_555
C20 C19 1_555 1_555
H14 C20 1_555 1_555
C21 C16 1_555 1_555
H15 C21 1_555 1_555
C22 C15 1_555 1_555
C23 C22 1_555 1_555
H16 C23 1_555 1_555
C24 C23 1_555 1_555
C25 C24 1_555 1_555
H17 C25 1_555 1_555
C26 C25 1_555 1_555
H18 C26 1_555 1_555
C27 C26 1_555 1_555
H19 C27 1_555 1_555
C28 C27 1_555 1_555
H20 C28 1_555 1_555
C29 C24 1_555 1_555
H21 C29 1_555 1_555
C30 C22 1_555 1_555
C31 C30 1_555 1_555
C32 C31 1_555 1_555
H22 C32 1_555 1_555
C33 C32 1_555 1_555
H23 C33 1_555 1_555
C34 C33 1_555 1_555
H24 C34 1_555 1_555
C35 C34 1_555 1_555
H25 C35 1_555 1_555
C36 C31 1_555 1_555
H26 C36 1_555 1_555
O3 C43 1_555 1_555
O4 C72 1_555 1_555
C43 C44 1_555 1_555
C44 C45 1_555 1_555
C45 H32 1_555 1_555
C46 C45 1_555 1_555
H33 C46 1_555 1_555
C47 C46 1_555 1_555
H34 C47 1_555 1_555
C48 C47 1_555 1_555
H35 C48 1_555 1_555
C49 C44 1_555 1_555
H36 C49 1_555 1_555
C50 C43 1_555 1_555
C51 C50 1_555 1_555
H37 C51 1_555 1_555
C52 C51 1_555 1_555
C53 C52 1_555 1_555
H38 C53 1_555 1_555
C54 C53 1_555 1_555
H39 C54 1_555 1_555
C55 C54 1_555 1_555
H40 C55 1_555 1_555
C56 C55 1_555 1_555
H41 C56 1_555 1_555
C57 C52 1_555 1_555
H42 C57 1_555 1_555
C58 C50 1_555 1_555
C59 C58 1_555 1_555
C60 C59 1_555 1_555
H43 C60 1_555 1_555
C61 C60 1_555 1_555
H44 C61 1_555 1_555
C62 C61 1_555 1_555
H45 C62 1_555 1_555
C63 C62 1_555 1_555
H46 C63 1_555 1_555
C64 C59 1_555 1_555
H47 C64 1_555 1_555
C65 C58 1_555 1_555
C66 C65 1_555 1_555
C67 C66 1_555 1_555
H48 C67 1_555 1_555
C68 C67 1_555 1_555
H49 C68 1_555 1_555
C69 C68 1_555 1_555
H50 C69 1_555 1_555
C70 C69 1_555 1_555
H51 C70 1_555 1_555
C71 C66 1_555 1_555
H52 C71 1_555 1_555
C72 C65 1_555 1_555
C73 C72 1_555 1_555
C74 C73 1_555 1_555
H53 C74 1_555 1_555
C75 C74 1_555 1_555
H54 C75 1_555 1_555
C76 C75 1_555 1_555
H55 C76 1_555 1_555
C77 C76 1_555 1_555
H56 C77 1_555 1_555
C78 C73 1_555 1_555
H57 C78 1_555 1_555
O5 C79 1_555 1_555
O6 C108 1_555 1_555
C79 C80 1_555 1_555
C80 C81 1_555 1_555
C81 H58 1_555 1_555
C82 C81 1_555 1_555
H59 C82 1_555 1_555
C83 C82 1_555 1_555
H60 C83 1_555 1_555
C84 C83 1_555 1_555
H61 C84 1_555 1_555
C85 C80 1_555 1_555
H62 C85 1_555 1_555
C86 C79 1_555 1_555
C87 C86 1_555 1_555
H63 C87 1_555 1_555
C88 C87 1_555 1_555
C89 C88 1_555 1_555
H64 C89 1_555 1_555
C90 C89 1_555 1_555
H65 C90 1_555 1_555
C91 C90 1_555 1_555
H66 C91 1_555 1_555
C92 C91 1_555 1_555
H67 C92 1_555 1_555
C93 C88 1_555 1_555
H68 C93 1_555 1_555
C94 C86 1_555 1_555
C95 C94 1_555 1_555
C96 C95 1_555 1_555
H69 C96 1_555 1_555
C97 C96 1_555 1_555
H70 C97 1_555 1_555
C98 C97 1_555 1_555
H71 C98 1_555 1_555
C99 C98 1_555 1_555
H72 C99 1_555 1_555
C100 C95 1_555 1_555
H73 C100 1_555 1_555
C101 C94 1_555 1_555
C102 C101 1_555 1_555
C103 C102 1_555 1_555
H74 C103 1_555 1_555
C104 C103 1_555 1_555
H75 C104 1_555 1_555
C105 C104 1_555 1_555
H76 C105 1_555 1_555
C106 C105 1_555 1_555
H77 C106 1_555 1_555
C107 C102 1_555 1_555
H78 C107 1_555 1_555
C108 C101 1_555 1_555
C109 C108 1_555 1_555
C110 C109 1_555 1_555
H79 C110 1_555 1_555
C111 C110 1_555 1_555
H80 C111 1_555 1_555
C112 C111 1_555 1_555
H81 C112 1_555 1_555
C113 C112 1_555 1_555
H82 C113 1_555 1_555
C114 C109 1_555 1_555
H83 C114 1_555 1_555
C6 C7 1_555 1_555
C13 C14 1_555 1_555
C20 C21 1_555 1_555
C28 C29 1_555 1_555
C35 C36 1_555 1_555
C48 C49 1_555 1_555
C56 C57 1_555 1_555
C63 C64 1_555 1_555
C70 C71 1_555 1_555
C77 C78 1_555 1_555
C84 C85 1_555 1_555
C92 C93 1_555 1_555
C99 C100 1_555 1_555
C106 C107 1_555 1_555
C113 C114 1_555 1_555

#END
