
#######################################################################
#
#                 Cambridge Crystallographic Data Centre
#                                CCDC 
#
#######################################################################
#
# If this CIF has been generated from an entry in the Cambridge 
# Structural Database, then it will include bibliographic, chemical, 
# crystal, experimental, refinement or atomic coordinate data resulting 
# from the CCDC's data processing and validation procedures.
#
#######################################################################

data_COQSIM
_chemical_formula_moiety         'C22 H28 N2 O4'
_chemical_name_systematic        
1-(4-(2-hydroxy-3-(4-(2-methoxyphenyl)piperazin-1-yl)propoxy)phenyl)ethanone
_symmetry_cell_setting           orthorhombic
_symmetry_space_group_name_H-M   'P 21 21 21'
_symmetry_Int_Tables_number      19
_space_group_name_Hall           'P 2ac 2ab'
loop_
_symmetry_equiv_pos_site_id
_symmetry_equiv_pos_as_xyz
1 x,y,z
2 1/2-x,-y,1/2+z
3 1/2+x,1/2-y,-z
4 -x,1/2+y,1/2-z
_cell_length_a                   8.5459(2)
_cell_length_b                   11.8791(2)
_cell_length_c                   19.5576(5)
_cell_angle_alpha                90
_cell_angle_beta                 90
_cell_angle_gamma                90
_cell_volume                     1985.44
_cell_formula_units_Z            4
_exptl_crystal_recrystallization_method dichloromethane/n-hexane
loop_
_atom_site_label
_atom_site_type_symbol
_atom_site_fract_x
_atom_site_fract_y
_atom_site_fract_z
O1 O -0.11256(14) -0.96749(9) -0.08551(6)
O2 O -0.14569(15) -1.49115(9) -0.01976(6)
O3 O 0.37665(14) -0.39204(9) -0.30671(6)
O4 O -0.13807(15) -0.73880(9) -0.03161(6)
H1 H -0.1330 -0.6701 -0.0354
N1 N 0.06079(15) -0.63724(11) -0.13882(7)
N2 N 0.24244(15) -0.44650(10) -0.18437(7)
C1 C -0.04739(19) -1.14642(13) -0.03155(8)
H2 H 0.0265 -1.1133 -0.0030
C2 C -0.18268(18) -1.31302(13) -0.07084(8)
C3 C -0.13004(19) -1.08075(12) -0.07806(8)
C4 C -0.0750(2) -1.26095(13) -0.02773(8)
H3 H -0.0208 -1.3039 0.0042
C5 C -0.23933(18) -1.13141(13) -0.12113(8)
H4 H -0.2955 -1.0880 -0.1522
C6 C 0.03718(19) -0.75819(13) -0.12911(8)
H5 H 0.1300 -0.7981 -0.1442
H6 H -0.0498 -0.7828 -0.1572
C7 C -0.20487(19) -1.43666(13) -0.06622(9)
C8 C 0.4195(2) -0.19892(14) -0.27095(9)
H7 H 0.4698 -0.1820 -0.3118
C9 C 0.19902(19) -0.59679(13) -0.10174(8)
H8 H 0.2913 -0.6361 -0.1180
H9 H 0.1872 -0.6126 -0.0534
C10 C 0.28839(18) -0.33337(12) -0.19780(9)
C11 C 0.0795(2) -0.61088(13) -0.21160(8)
H10 H -0.0134 -0.6347 -0.2362
H11 H 0.1679 -0.6526 -0.2297
C12 C -0.0007(2) -0.91284(12) -0.04176(9)
H12 H 0.1023 -0.9447 -0.0496
H13 H -0.0284 -0.9262 0.0056
C13 C -0.26399(19) -1.24590(14) -0.11766(8)
H14 H -0.3361 -1.2792 -0.1470
C14 C 0.21945(19) -0.47210(14) -0.11220(8)
H15 H 0.1276 -0.4328 -0.0955
H16 H 0.3091 -0.4461 -0.0862
C15 C 0.1056(2) -0.48564(13) -0.22336(8)
H17 H 0.1221 -0.4717 -0.2717
H18 H 0.0135 -0.4441 -0.2091
C16 C 0.36304(19) -0.30657(13) -0.26021(8)
C17 C 0.00414(19) -0.78790(13) -0.05503(8)
H19 H 0.0892 -0.7565 -0.0274
C18 C 0.4494(2) -0.36603(15) -0.37053(9)
H20 H 0.4477 -0.4313 -0.3994
H21 H 0.5558 -0.3435 -0.3627
H22 H 0.3936 -0.3058 -0.3923
C19 C 0.3287(2) -0.13993(15) -0.16146(10)
H23 H 0.3167 -0.0844 -0.1284
C20 C 0.4022(2) -0.11571(14) -0.22163(10)
H24 H 0.4405 -0.0436 -0.2296
C21 C -0.2998(2) -1.49525(14) -0.11995(10)
H25 H -0.2503 -1.4862 -0.1637
H26 H -0.4029 -1.4631 -0.1214
H27 H -0.3072 -1.5739 -0.1092
C22 C 0.2720(2) -0.24789(14) -0.14975(9)
H28 H 0.2216 -0.2634 -0.1087
loop_
_geom_bond_atom_site_label_1
_geom_bond_atom_site_label_2
_geom_bond_site_symmetry_1
_geom_bond_site_symmetry_2
O1 C3 1_555 1_555
O2 C7 1_555 1_555
O3 C16 1_555 1_555
O4 H1 1_555 1_555
N1 C6 1_555 1_555
N2 C10 1_555 1_555
C1 H2 1_555 1_555
C2 C4 1_555 1_555
C3 C1 1_555 1_555
C4 C1 1_555 1_555
H3 C4 1_555 1_555
C5 C3 1_555 1_555
H4 C5 1_555 1_555
C6 H5 1_555 1_555
H6 C6 1_555 1_555
C7 C2 1_555 1_555
C8 H7 1_555 1_555
C9 N1 1_555 1_555
H8 C9 1_555 1_555
H9 C9 1_555 1_555
C10 C16 1_555 1_555
C11 N1 1_555 1_555
H10 C11 1_555 1_555
H11 C11 1_555 1_555
C12 O1 1_555 1_555
H12 C12 1_555 1_555
H13 C12 1_555 1_555
C13 C2 1_555 1_555
H14 C13 1_555 1_555
C14 N2 1_555 1_555
H15 C14 1_555 1_555
H16 C14 1_555 1_555
C15 N2 1_555 1_555
H17 C15 1_555 1_555
H18 C15 1_555 1_555
C16 C8 1_555 1_555
C17 O4 1_555 1_555
H19 C17 1_555 1_555
C18 O3 1_555 1_555
H20 C18 1_555 1_555
H21 C18 1_555 1_555
H22 C18 1_555 1_555
C19 H23 1_555 1_555
C20 C8 1_555 1_555
H24 C20 1_555 1_555
C21 C7 1_555 1_555
H25 C21 1_555 1_555
H26 C21 1_555 1_555
H27 C21 1_555 1_555
C22 C10 1_555 1_555
H28 C22 1_555 1_555
C5 C13 1_555 1_555
C6 C17 1_555 1_555
C9 C14 1_555 1_555
C11 C15 1_555 1_555
C12 C17 1_555 1_555
C19 C20 1_555 1_555
C19 C22 1_555 1_555

#END
