
#######################################################################
#
#                 Cambridge Crystallographic Data Centre
#                                CCDC 
#
#######################################################################
#
# If this CIF has been generated from an entry in the Cambridge 
# Structural Database, then it will include bibliographic, chemical, 
# crystal, experimental, refinement or atomic coordinate data resulting 
# from the CCDC's data processing and validation procedures.
#
#######################################################################

data_COQXAJ
_chemical_formula_moiety         'C15 H19 F3 N2 O2 S1'
_chemical_name_systematic        
2-methyl-N-(2,2,2-trifluoro-1-(1-methyl-2-oxo-2,3-dihydro-1H-indol-3-yl)ethyl)propane-2-sulfinamide
_symmetry_cell_setting           orthorhombic
_symmetry_space_group_name_H-M   'P 21 21 21'
_symmetry_Int_Tables_number      19
_space_group_name_Hall           'P 2ac 2ab'
loop_
_symmetry_equiv_pos_site_id
_symmetry_equiv_pos_as_xyz
1 x,y,z
2 1/2-x,-y,1/2+z
3 -x,1/2+y,1/2-z
4 1/2+x,1/2-y,-z
_cell_length_a                   5.7933(6)
_cell_length_b                   15.9715(17)
_cell_length_c                   18.559(2)
_cell_angle_alpha                90
_cell_angle_beta                 90
_cell_angle_gamma                90
_cell_volume                     1717.22
_cell_formula_units_Z            4
loop_
_atom_site_label
_atom_site_type_symbol
_atom_site_fract_x
_atom_site_fract_y
_atom_site_fract_z
N1 N 0.3487(18) 0.8065(6) 0.6703(6)
C1 C 0.4404(19) 0.8827(6) 0.6859(7)
C2 C 0.283(2) 0.9497(6) 0.6539(5)
H1 H 0.3687 0.9836 0.6189
C3 C 0.099(3) 0.8992(7) 0.6158(10)
C4 C 0.146(3) 0.8149(7) 0.6302(14)
C5 C -0.0847(19) 0.9173(7) 0.5702(8)
H2 H -0.1190 0.9725 0.5583
C6 C -0.216(2) 0.8523(7) 0.5428(7)
H3 H -0.3393 0.8644 0.5123
C7 C -0.168(2) 0.7695(6) 0.5599(8)
H4 H -0.2595 0.7269 0.5410
C8 C 0.016(2) 0.7497(8) 0.6051(10)
H5 H 0.0487 0.6946 0.6177
C9 C 0.451(2) 0.7279(7) 0.6928(8)
H6 H 0.5882 0.7388 0.7201
H7 H 0.4886 0.6951 0.6511
H8 H 0.3425 0.6977 0.7222
O1 O 0.612(3) 0.8953(9) 0.7225(10)
C10 C 0.203(2) 1.0053(6) 0.7180(5)
H9 H 0.3426 1.0247 0.7429
C11 C 0.0787(18) 1.0810(6) 0.6910(5)
F1 F 0.076(3) 1.1431(8) 0.7394(7)
F2 F 0.1726(19) 1.1130(6) 0.6316(5)
F3 F -0.1420(15) 1.0674(7) 0.6757(6)
N2 N 0.069(3) 0.9568(7) 0.7694(4)
H10 H -0.0238 0.9176 0.7561
S1 S 0.1048(14) 0.9823(4) 0.8559(4)
O2 O -0.073(2) 1.0420(6) 0.8800(7)
C12 C 0.024(2) 0.8837(6) 0.8996(7)
C13 C 0.173(2) 0.8125(7) 0.8691(8)
H11 H 0.1322 0.7608 0.8921
H12 H 0.3333 0.8244 0.8780
H13 H 0.1480 0.8079 0.8181
C14 C -0.2309(16) 0.8649(7) 0.8905(7)
H14 H -0.2669 0.8128 0.9138
H15 H -0.2670 0.8609 0.8401
H16 H -0.3201 0.9090 0.9119
C15 C 0.087(3) 0.8982(10) 0.9793(5)
H17 H 0.0511 0.8489 1.0067
H18 H -0.0003 0.9447 0.9977
H19 H 0.2488 0.9101 0.9833
N3? N 0.321(3) 0.7959(8) 0.6801(9)
C16? C 0.433(3) 0.8674(8) 0.6948(10)
C17? C 0.304(3) 0.9404(9) 0.6593(7)
H20? H 0.4084 0.9689 0.6256
C18? C 0.135(5) 0.8083(10) 0.632(2)
C19? C 0.121(4) 0.8946(10) 0.6172(13)
C20? C -0.036(3) 0.9258(10) 0.5679(10)
H21? H -0.0378 0.9825 0.5565
C21? C -0.190(3) 0.8710(9) 0.5356(9)
H22? H -0.2948 0.8905 0.5016
C22? C -0.187(3) 0.7876(10) 0.5542(11)
H23? H -0.3011 0.7525 0.5357
C23? C -0.020(3) 0.7537(10) 0.5998(13)
H24? H -0.0121 0.6964 0.6083
C24? C 0.406(3) 0.7127(9) 0.6991(12)
H25? H 0.5340 0.7179 0.7317
H26? H 0.4554 0.6840 0.6563
H27? H 0.2848 0.6814 0.7218
O3? O 0.610(3) 0.8756(11) 0.7310(12)
C25? C 0.227(3) 1.0020(8) 0.7167(6)
H28? H 0.3702 1.0173 0.7415
C26? C 0.130(3) 1.0848(9) 0.6920(7)
F4? F 0.098(4) 1.1373(9) 0.7469(8)
F5? F 0.266(3) 1.1233(8) 0.6460(6)
F6? F -0.073(2) 1.0769(10) 0.6593(8)
N4? N 0.087(4) 0.9648(10) 0.7724(6)
H29? H -0.0307 0.9345 0.7617
S2? S 0.1577(18) 0.9816(5) 0.8571(4)
O4? O 0.023(3) 1.0509(8) 0.8889(8)
C27? C 0.032(3) 0.8879(8) 0.8996(10)
C28? C 0.112(3) 0.8108(7) 0.8579(9)
H30? H 0.0471 0.7615 0.8795
H31? H 0.2772 0.8075 0.8592
H32? H 0.0610 0.8150 0.8088
C29? C -0.229(2) 0.8966(11) 0.9022(8)
H33? H -0.2949 0.8477 0.9243
H34? H -0.2884 0.9023 0.8541
H35? H -0.2698 0.9452 0.9299
C30? C 0.138(4) 0.8874(13) 0.9755(7)
H36? H 0.0816 0.8399 1.0018
H37? H 0.0961 0.9379 1.0003
H38? H 0.3034 0.8842 0.9719
loop_
_geom_bond_atom_site_label_1
_geom_bond_atom_site_label_2
_geom_bond_site_symmetry_1
_geom_bond_site_symmetry_2
N1 C1 1_555 1_555
C1 C2 1_555 1_555
C2 H1 1_555 1_555
C3 C2 1_555 1_555
C4 N1 1_555 1_555
C5 C3 1_555 1_555
H2 C5 1_555 1_555
C6 C5 1_555 1_555
H3 C6 1_555 1_555
C7 C6 1_555 1_555
H4 C7 1_555 1_555
C8 C4 1_555 1_555
H5 C8 1_555 1_555
C9 N1 1_555 1_555
H6 C9 1_555 1_555
H7 C9 1_555 1_555
H8 C9 1_555 1_555
O1 C1 1_555 1_555
C10 C2 1_555 1_555
H9 C10 1_555 1_555
C11 C10 1_555 1_555
F1 C11 1_555 1_555
F2 C11 1_555 1_555
F3 C11 1_555 1_555
N2 C10 1_555 1_555
H10 N2 1_555 1_555
S1 N2 1_555 1_555
O2 S1 1_555 1_555
C12 S1 1_555 1_555
C13 C12 1_555 1_555
H11 C13 1_555 1_555
H12 C13 1_555 1_555
H13 C13 1_555 1_555
C14 C12 1_555 1_555
H14 C14 1_555 1_555
H15 C14 1_555 1_555
H16 C14 1_555 1_555
C15 C12 1_555 1_555
H17 C15 1_555 1_555
H18 C15 1_555 1_555
H19 C15 1_555 1_555
C3 C4 1_555 1_555
C7 C8 1_555 1_555

#END
