
#######################################################################
#
#                 Cambridge Crystallographic Data Centre
#                                CCDC 
#
#######################################################################
#
# If this CIF has been generated from an entry in the Cambridge 
# Structural Database, then it will include bibliographic, chemical, 
# crystal, experimental, refinement or atomic coordinate data resulting 
# from the CCDC's data processing and validation procedures.
#
#######################################################################

data_COQXAI
_chemical_formula_moiety         'C21 H26 O5'
_chemical_name_systematic        
'Ethyl 8,12a-dihydroxy-6-oxo-1,2,3,3a,4,5,5a,6,11,12,12a,12b-dodecahydrobenzo[4,5]cyclohepta[1,2-e]indene-7-carboxylate'
_symmetry_cell_setting           monoclinic
_symmetry_space_group_name_H-M   'P 21/n'
_symmetry_Int_Tables_number      14
_space_group_name_Hall           '-P 2yn'
loop_
_symmetry_equiv_pos_site_id
_symmetry_equiv_pos_as_xyz
1 x,y,z
2 1/2-x,1/2+y,1/2-z
3 -x,-y,-z
4 1/2+x,1/2-y,1/2+z
_cell_length_a                   9.2758(19)
_cell_length_b                   9.802(2)
_cell_length_c                   20.869(4)
_cell_angle_alpha                90
_cell_angle_beta                 102.05(3)
_cell_angle_gamma                90
_cell_volume                     1855.63
_cell_formula_units_Z            4
loop_
_atom_site_label
_atom_site_type_symbol
_atom_site_fract_x
_atom_site_fract_y
_atom_site_fract_z
O1 O 0.05157(16) 0.95659(12) 0.06527(7)
H1 H 0.1299 0.9955 0.0796
O2 O 0.25371(14) 0.74388(12) 0.30098(5)
C1 C 0.0865(2) 0.83455(19) 0.19378(8)
O3 O 0.10148(15) 0.95064(13) 0.21467(6)
C2 C 0.0727(2) 0.81138(17) 0.07175(8)
C3 C 0.2083(2) 0.63207(17) 0.14932(8)
H2 H 0.2678 0.6174 0.1928
H3 H 0.1205 0.5762 0.1449
C4 C 0.1638(2) 0.78259(18) 0.14143(8)
C5 C -0.0206(2) 0.73899(19) 0.21572(9)
C6 C 0.1549(2) 0.7590(2) 0.01994(9)
C7 C 0.1482(2) 0.68610(19) 0.32543(10)
C8 C 0.0071(2) 0.67393(19) 0.27755(10)
C9 C -0.08185(19) 0.7483(2) 0.05911(9)
H4 H -0.0712 0.6499 0.0611
H5 H -0.1315 0.7714 0.0148
C10 C 0.2093(2) 0.6116(2) 0.02891(9)
C11 C 0.3988(2) 0.7548(2) 0.34361(9)
H6 H 0.4322 0.6662 0.3615
H7 H 0.3961 0.8167 0.3796
C12 C 0.29515(19) 0.5886(2) 0.09846(9)
H8 H 0.3865 0.6398 0.1052
H9 H 0.3199 0.4926 0.1044
O4 O 0.16789(17) 0.64455(17) 0.38150(7)
C13 C -0.1823(2) 0.7908(2) 0.10582(10)
H10 H -0.1723 0.8883 0.1132
H11 H -0.2838 0.7732 0.0843
C14 C -0.1024(3) 0.5903(2) 0.29410(12)
C15 C -0.1524(2) 0.7204(2) 0.17120(10)
C16 C 0.4990(2) 0.8082(2) 0.30197(10)
H12 H 0.5020 0.7449 0.2672
H13 H 0.5963 0.8195 0.3282
H14 H 0.4629 0.8947 0.2837
C17 C 0.2914(3) 0.8373(2) 0.01075(10)
H15 H 0.3521 0.8630 0.0527
H16 H 0.2640 0.9190 -0.0152
C18 C -0.2583(2) 0.6350(3) 0.18977(14)
H17 H -0.3476 0.6211 0.1606
C19 C 0.3042(2) 0.5973(2) -0.02211(10)
H18 H 0.3795 0.5282 -0.0090
H19 H 0.2444 0.5722 -0.0643
C20 C -0.2341(3) 0.5720(3) 0.24923(15)
H20 H -0.3067 0.5161 0.2599
C21 C 0.3735(3) 0.7357(3) -0.02556(12)
H21 H 0.3643 0.7633 -0.0709
H22 H 0.4773 0.7328 -0.0049
O5 O -0.08375(18) 0.52265(18) 0.35213(8)
H23 H -0.0101 0.5517 0.3772
H24 H 0.0854(17) 0.7646(16) -0.0197(7)
H25 H 0.2446(16) 0.8386(15) 0.1449(7)
H26 H 0.1254(18) 0.5491(16) 0.0206(7)
loop_
_geom_bond_atom_site_label_1
_geom_bond_atom_site_label_2
_geom_bond_site_symmetry_1
_geom_bond_site_symmetry_2
O1 H1 1_555 1_555
O2 C7 1_555 1_555
C1 O3 1_555 1_555
C2 O1 1_555 1_555
C3 H2 1_555 1_555
H3 C3 1_555 1_555
C4 C1 1_555 1_555
C5 C1 1_555 1_555
C6 C2 1_555 1_555
C7 C8 1_555 1_555
C8 C5 1_555 1_555
C9 C2 1_555 1_555
H4 C9 1_555 1_555
H5 C9 1_555 1_555
C10 C6 1_555 1_555
C11 O2 1_555 1_555
H6 C11 1_555 1_555
H7 C11 1_555 1_555
C12 C3 1_555 1_555
H8 C12 1_555 1_555
H9 C12 1_555 1_555
O4 C7 1_555 1_555
C13 C9 1_555 1_555
H10 C13 1_555 1_555
H11 C13 1_555 1_555
C14 C8 1_555 1_555
C15 C5 1_555 1_555
C16 C11 1_555 1_555
H12 C16 1_555 1_555
H13 C16 1_555 1_555
H14 C16 1_555 1_555
C17 C6 1_555 1_555
H15 C17 1_555 1_555
H16 C17 1_555 1_555
C18 C15 1_555 1_555
H17 C18 1_555 1_555
C19 C10 1_555 1_555
H18 C19 1_555 1_555
H19 C19 1_555 1_555
C20 C14 1_555 1_555
H20 C20 1_555 1_555
C21 C17 1_555 1_555
H21 C21 1_555 1_555
H22 C21 1_555 1_555
O5 C14 1_555 1_555
H23 O5 1_555 1_555
H24 C6 1_555 1_555
H25 C4 1_555 1_555
H26 C10 1_555 1_555
C2 C4 1_555 1_555
C3 C4 1_555 1_555
C10 C12 1_555 1_555
C13 C15 1_555 1_555
C18 C20 1_555 1_555
C19 C21 1_555 1_555

#END
