
#######################################################################
#
#                 Cambridge Crystallographic Data Centre
#                                CCDC 
#
#######################################################################
#
# If this CIF has been generated from an entry in the Cambridge 
# Structural Database, then it will include bibliographic, chemical, 
# crystal, experimental, refinement or atomic coordinate data resulting 
# from the CCDC's data processing and validation procedures.
#
#######################################################################

data_COSCUJ
_chemical_formula_moiety         'C21 H34 O4,C1 H4 O1'
_chemical_name_systematic        
'ent-15\a-Hydroxymethyl-16\b-hydroxybeyeran-19-oic acid methanol solvate'
_chemical_properties_biological  'alpha-glucosidase inhibitor'
_symmetry_cell_setting           monoclinic
_symmetry_space_group_name_H-M   'P 21'
_symmetry_Int_Tables_number      4
_space_group_name_Hall           'P 2yb'
loop_
_symmetry_equiv_pos_site_id
_symmetry_equiv_pos_as_xyz
1 x,y,z
2 -x,1/2+y,-z
_cell_length_a                   12.151(2)
_cell_length_b                   7.3549(15)
_cell_length_c                   12.764(3)
_cell_angle_alpha                90
_cell_angle_beta                 114.29(3)
_cell_angle_gamma                90
_cell_volume                     1039.73
_chemical_melting_point          '233-235 deg.C'
_cell_formula_units_Z            2
loop_
_atom_site_label
_atom_site_type_symbol
_atom_site_fract_x
_atom_site_fract_y
_atom_site_fract_z
C1 C 0.1035(5) 0.9651(7) 0.2896(4)
C2 C 0.1045(6) 0.9564(8) 0.1708(5)
C3 C 0.0991(4) 0.7605(7) 0.1292(5)
C4 C 0.1976(4) 0.6386(6) 0.2126(4)
C5 C 0.1971(4) 0.6541(6) 0.3342(4)
C6 C 0.2816(4) 0.5262(6) 0.4286(4)
C7 C 0.2452(5) 0.5199(6) 0.5282(5)
C8 C 0.2466(4) 0.7024(6) 0.5842(4)
C9 C 0.1750(4) 0.8440(6) 0.4902(4)
C10 C 0.2034(4) 0.8504(5) 0.3813(4)
C11 C 0.1759(5) 1.0306(6) 0.5422(4)
C12 C 0.1474(5) 1.0231(7) 0.6491(5)
C13 C 0.2153(4) 0.8731(7) 0.7323(5)
C14 C 0.1823(5) 0.6935(7) 0.6675(5)
C15 C 0.3732(4) 0.7777(7) 0.6681(4)
C16 C 0.3518(4) 0.8820(7) 0.7634(5)
C17 C 0.1865(5) 0.8758(9) 0.8400(5)
C18 C 0.3197(5) 0.6829(7) 0.2083(5)
C19 C 0.1676(5) 0.4416(7) 0.1674(5)
C20 C 0.3267(4) 0.9391(6) 0.4047(4)
C21 C 0.4760(6) 0.6460(11) 0.7171(6)
O1 O 0.3330(3) 0.7933(5) 0.1455(3)
O2 O 0.4089(3) 0.5798(5) 0.2769(3)
O3 O 0.4010(3) 1.0637(6) 0.7743(4)
O4 O 0.4700(5) 0.5436(7) 0.8003(5)
H1 H 0.0256 0.9232 0.2841
H2 H 0.1128 1.0908 0.3148
H3 H 0.1774 1.0139 0.1733
H4 H 0.0359 1.0234 0.1168
H5 H 0.0210 0.7095 0.1164
H6 H 0.1058 0.7611 0.0560
H7 H 0.1161 0.6127 0.3222
H8 H 0.2776 0.4049 0.3974
H9 H 0.3641 0.5690 0.4551
H10 H 0.2992 0.4380 0.5861
H11 H 0.1644 0.4695 0.5014
H12 H 0.0908 0.8039 0.4614
H13 H 0.1169 1.1076 0.4847
H14 H 0.2547 1.0855 0.5633
H15 H 0.1679 1.1391 0.6886
H16 H 0.0613 1.0043 0.6246
H17 H 0.0956 0.6825 0.6251
H18 H 0.2115 0.5914 0.7198
H19 H 0.3968 0.8683 0.6249
H20 H 0.3944 0.8181 0.8365
H21 H 0.2300 0.7798 0.8913
H22 H 0.1014 0.8586 0.8170
H23 H 0.2104 0.9907 0.8785
H24 H 0.2281 0.3605 0.2179
H25 H 0.1660 0.4341 0.0917
H26 H 0.0900 0.4078 0.1644
H27 H 0.3901 0.8697 0.4617
H28 H 0.3280 1.0610 0.4320
H29 H 0.3387 0.9416 0.3349
H30 H 0.4762 0.5678 0.6560
H31 H 0.5513 0.7132 0.7471
H35 H 0.5280 0.4745 0.8246
H36 H 0.4110(60) 1.1210(80) 0.8350(60)
H37 H 0.4750(60) 0.6010(90) 0.2570(60)
C22 C 0.6638(8) 0.8440(12) 1.0289(7)
O5 O 0.5823(5) 0.7131(7) 1.0269(5)
H32 H 0.7266 0.7892 1.0125
H33 H 0.6983 0.8995 1.1035
H34 H 0.6234 0.9349 0.9720
H38 H 0.5310(70) 0.667(11) 0.9520(70)
loop_
_geom_bond_atom_site_label_1
_geom_bond_atom_site_label_2
_geom_bond_site_symmetry_1
_geom_bond_site_symmetry_2
C1 C2 1_555 1_555
C2 C3 1_555 1_555
C3 C4 1_555 1_555
C4 C5 1_555 1_555
C5 C6 1_555 1_555
C6 C7 1_555 1_555
C7 C8 1_555 1_555
C8 C9 1_555 1_555
C9 C10 1_555 1_555
C10 C1 1_555 1_555
C11 C9 1_555 1_555
C12 C11 1_555 1_555
C13 C12 1_555 1_555
C14 C8 1_555 1_555
C15 C8 1_555 1_555
C16 C13 1_555 1_555
C17 C13 1_555 1_555
C18 C4 1_555 1_555
C19 C4 1_555 1_555
C20 C10 1_555 1_555
C21 C15 1_555 1_555
C22 O5 1_555 1_555
O1 C18 1_555 1_555
O2 C18 1_555 1_555
O3 C16 1_555 1_555
O4 C21 1_555 1_555
O5 H38 1_555 1_555
H1 C1 1_555 1_555
H2 C1 1_555 1_555
H3 C2 1_555 1_555
H4 C2 1_555 1_555
H5 C3 1_555 1_555
H6 C3 1_555 1_555
H7 C5 1_555 1_555
H8 C6 1_555 1_555
H9 C6 1_555 1_555
H10 C7 1_555 1_555
H11 C7 1_555 1_555
H12 C9 1_555 1_555
H13 C11 1_555 1_555
H14 C11 1_555 1_555
H15 C12 1_555 1_555
H16 C12 1_555 1_555
H17 C14 1_555 1_555
H18 C14 1_555 1_555
H19 C15 1_555 1_555
H20 C16 1_555 1_555
H21 C17 1_555 1_555
H22 C17 1_555 1_555
H23 C17 1_555 1_555
H24 C19 1_555 1_555
H25 C19 1_555 1_555
H26 C19 1_555 1_555
H27 C20 1_555 1_555
H28 C20 1_555 1_555
H29 C20 1_555 1_555
H30 C21 1_555 1_555
H31 C21 1_555 1_555
H32 C22 1_555 1_555
H33 C22 1_555 1_555
H34 C22 1_555 1_555
H35 O4 1_555 1_555
H36 O3 1_555 1_555
H37 O2 1_555 1_555
C5 C10 1_555 1_555
C13 C14 1_555 1_555
C15 C16 1_555 1_555

#END
