
#######################################################################
#
#                 Cambridge Crystallographic Data Centre
#                                CCDC 
#
#######################################################################
#
# If this CIF has been generated from an entry in the Cambridge 
# Structural Database, then it will include bibliographic, chemical, 
# crystal, experimental, refinement or atomic coordinate data resulting 
# from the CCDC's data processing and validation procedures.
#
#######################################################################

data_COSMUU
_chemical_formula_moiety         'C23 H29 N3 O3'
_chemical_name_systematic        
1-(4-(2-ethoxyphenyl)piperazin-1-yl)-3-(1H-indol-4-yloxy)propan-2-ol
_symmetry_cell_setting           orthorhombic
_symmetry_space_group_name_H-M   'P 21 21 21'
_symmetry_Int_Tables_number      19
_space_group_name_Hall           'P 2ac 2ab'
loop_
_symmetry_equiv_pos_site_id
_symmetry_equiv_pos_as_xyz
1 x,y,z
2 1/2-x,-y,1/2+z
3 -x,1/2+y,1/2-z
4 1/2+x,1/2-y,-z
_cell_length_a                   10.1816(2)
_cell_length_b                   10.82010(10)
_cell_length_c                   39.8586(6)
_cell_angle_alpha                90
_cell_angle_beta                 90
_cell_angle_gamma                90
_cell_volume                     4391.06
_exptl_crystal_colour            colorless
_cell_formula_units_Z            8
loop_
_atom_site_label
_atom_site_type_symbol
_atom_site_fract_x
_atom_site_fract_y
_atom_site_fract_z
O1 O -0.7495(2) -0.7719(2) -0.58181(6)
O2 O -0.4828(3) -0.7991(2) -0.60338(5)
H1 H -0.4562 -0.7430 -0.6154
O3 O -0.1784(3) -1.1359(2) -0.44978(6)
N1 N -0.3822(3) -0.9129(2) -0.54454(6)
N2 N -0.1630(3) -0.9881(2) -0.50419(6)
C1 C -0.8716(3) -0.7214(3) -0.58705(8)
N3 N -1.1426(3) -0.8247(3) -0.63606(8)
H2 H -1.2193 -0.8160 -0.6448
C2 C -0.1522(3) -0.8847(3) -0.52763(8)
H3 H -0.1213 -0.9142 -0.5492
H4 H -0.0895 -0.8248 -0.5192
C3 C -0.3878(3) -1.0215(3) -0.52250(8)
H5 H -0.4473 -1.0820 -0.5320
H6 H -0.4221 -0.9971 -0.5008
C4 C -0.9571(3) -0.7909(3) -0.60704(8)
C5 C -0.9124(3) -0.6092(3) -0.57455(9)
H7 H -0.8558 -0.5619 -0.5615
C6 C -0.0457(3) -1.0339(3) -0.48969(9)
C7 C -0.5179(3) -0.7505(3) -0.57144(7)
H8 H -0.4512 -0.6898 -0.5649
C8 C -0.6496(3) -0.6867(3) -0.57184(8)
H9 H -0.6692 -0.6547 -0.5497
H10 H -0.6473 -0.6177 -0.5874
C9 C -0.9464(4) -0.9068(3) -0.62414(8)
H11 H -0.8752 -0.9607 -0.6237
C10 C -1.0823(3) -0.7420(4) -0.61471(9)
C11 C -0.2546(3) -1.0795(3) -0.51792(8)
H12 H -0.2612 -1.1493 -0.5028
H13 H -0.2223 -1.1093 -0.5393
C12 C -0.2841(3) -0.8254(3) -0.53152(8)
H14 H -0.3131 -0.7942 -0.5099
H15 H -0.2769 -0.7558 -0.5467
C13 C -1.0605(4) -0.9224(3) -0.64112(9)
H16 H -1.0801 -0.9906 -0.6544
C14 C -0.5122(3) -0.8572(3) -0.54689(7)
H17 H -0.5383 -0.8280 -0.5249
H18 H -0.5747 -0.9199 -0.5538
C15 C -0.0562(4) -1.1091(3) -0.46040(9)
C16 C -1.0393(4) -0.5663(4) -0.58162(10)
H19 H -1.0662 -0.4917 -0.5723
C17 C 0.0778(4) -1.0018(3) -0.50093(11)
H20 H 0.0860 -0.9533 -0.5201
C18 C -1.1254(4) -0.6300(4) -0.60163(10)
H21 H -1.2089 -0.5996 -0.6062
C19 C 0.0577(5) -1.1484(3) -0.44415(12)
H22 H 0.0513 -1.1984 -0.4252
C20 C 0.1910(4) -1.0409(4) -0.48412(16)
H23 H 0.2736 -1.0181 -0.4919
C21 C -0.1979(5) -1.2273(4) -0.42387(11)
H24 H -0.1684 -1.1953 -0.4024
H25 H -0.1478 -1.3013 -0.4289
C22 C 0.1786(5) -1.1141(4) -0.45574(15)
H26 H 0.2536 -1.1402 -0.4445
C23 C -0.3411(6) -1.2569(5) -0.42243(13)
H27 H -0.3702 -1.2844 -0.4441
H28 H -0.3892 -1.1843 -0.4161
H29 H -0.3558 -1.3210 -0.4062
O4 O -0.4571(2) -0.39866(19) -0.67547(5)
O5 O -0.1354(2) -1.0068(2) -0.79937(5)
O6 O -0.4186(3) -0.6157(2) -0.64593(6)
H30 H -0.3890 -0.5468 -0.6419
N4 N -0.3262(2) -0.7664(2) -0.70424(6)
N5 N -0.2691(2) -0.9892(2) -0.74111(6)
N6 N -0.3768(3) -0.0486(3) -0.61434(8)
H31 H -0.3814 0.0215 -0.6042
C24 C -0.4259(3) -0.2130(3) -0.64580(7)
C25 C -0.5072(3) -0.2854(3) -0.66634(7)
C26 C -0.1649(3) -0.9028(3) -0.73262(7)
H32 H -0.0982 -0.9041 -0.7500
H33 H -0.1242 -0.9275 -0.7117
C27 C -0.4729(3) -0.0979(3) -0.63447(8)
C28 C -0.2979(3) -0.2296(3) -0.63183(8)
H34 H -0.2424 -0.2968 -0.6350
C29 C -0.2196(3) -0.7733(3) -0.72923(8)
H35 H -0.1495 -0.7176 -0.7227
H36 H -0.2527 -0.7462 -0.7508
C30 C -0.3814(3) -0.6417(3) -0.70533(7)
H37 H -0.4227 -0.6294 -0.7270
H38 H -0.3102 -0.5825 -0.7034
C31 C -0.3691(3) -0.9872(3) -0.71488(8)
H39 H -0.3303 -1.0102 -0.6936
H40 H -0.4379 -1.0461 -0.7201
C32 C -0.4818(3) -0.6148(3) -0.67796(8)
H41 H -0.5477 -0.6808 -0.6782
C33 C -0.1648(3) -1.1165(3) -0.78415(8)
C34 C -0.2305(3) -1.1074(3) -0.75289(7)
C35 C -0.2733(4) -0.1276(4) -0.61289(8)
H42 H -0.1968 -0.1140 -0.6007
C36 C -0.6287(3) -0.2414(3) -0.67548(8)
H43 H -0.6831 -0.2886 -0.6892
C37 C -0.4265(3) -0.8587(3) -0.71250(8)
H44 H -0.4670 -0.8373 -0.7337
H45 H -0.4942 -0.8577 -0.6954
C38 C -0.2622(3) -1.2162(3) -0.73639(10)
H46 H -0.3029 -1.2126 -0.7155
C39 C -0.5514(3) -0.4935(3) -0.68258(8)
H47 H -0.5834 -0.4857 -0.7054
H48 H -0.6254 -0.4874 -0.6674
C40 C -0.6706(4) -0.1252(3) -0.66414(10)
H49 H -0.7525 -0.0964 -0.6709
C41 C -0.1372(3) -1.2317(4) -0.79773(10)
H50 H -0.0945 -1.2372 -0.8183
C42 C -0.0577(4) -1.0096(4) -0.82965(9)
H51 H -0.1067 -1.0479 -0.8477
H52 H 0.0223 -1.0565 -0.8260
C43 C -0.5956(4) -0.0520(3) -0.64346(10)
H53 H -0.6254 0.0243 -0.6359
C44 C -0.2341(4) -1.3308(3) -0.75052(12)
H54 H -0.2573 -1.4029 -0.7392
C45 C -0.1726(4) -1.3378(4) -0.78094(12)
H55 H -0.1545 -1.4146 -0.7903
C46 C -0.0258(5) -0.8796(5) -0.83818(11)
H56 H 0.0250 -0.8775 -0.8585
H57 H 0.0238 -0.8432 -0.8202
H58 H -0.1057 -0.8340 -0.8414
loop_
_geom_bond_atom_site_label_1
_geom_bond_atom_site_label_2
_geom_bond_site_symmetry_1
_geom_bond_site_symmetry_2
O1 C1 1_555 1_555
O2 H1 1_555 1_555
O3 C15 1_555 1_555
N1 C3 1_555 1_555
N2 C2 1_555 1_555
C1 C4 1_555 1_555
N3 H2 1_555 1_555
C2 H3 1_555 1_555
H4 C2 1_555 1_555
C3 H5 1_555 1_555
H6 C3 1_555 1_555
C4 C9 1_555 1_555
C5 C1 1_555 1_555
H7 C5 1_555 1_555
C6 N2 1_555 1_555
C7 O2 1_555 1_555
H8 C7 1_555 1_555
C8 O1 1_555 1_555
H9 C8 1_555 1_555
H10 C8 1_555 1_555
C9 H11 1_555 1_555
C10 N3 1_555 1_555
C11 N2 1_555 1_555
H12 C11 1_555 1_555
H13 C11 1_555 1_555
C12 N1 1_555 1_555
H14 C12 1_555 1_555
H15 C12 1_555 1_555
C13 N3 1_555 1_555
H16 C13 1_555 1_555
C14 N1 1_555 1_555
H17 C14 1_555 1_555
H18 C14 1_555 1_555
C15 C6 1_555 1_555
C16 C5 1_555 1_555
H19 C16 1_555 1_555
C17 C6 1_555 1_555
H20 C17 1_555 1_555
C18 C10 1_555 1_555
H21 C18 1_555 1_555
C19 C15 1_555 1_555
H22 C19 1_555 1_555
C20 C17 1_555 1_555
H23 C20 1_555 1_555
C21 O3 1_555 1_555
H24 C21 1_555 1_555
H25 C21 1_555 1_555
C22 C19 1_555 1_555
H26 C22 1_555 1_555
C23 C21 1_555 1_555
H27 C23 1_555 1_555
H28 C23 1_555 1_555
H29 C23 1_555 1_555
O4 C25 1_555 1_555
O5 C33 1_555 1_555
O6 H30 1_555 1_555
N4 C29 1_555 1_555
N5 C26 1_555 1_555
N6 H31 1_555 1_555
C24 C25 1_555 1_555
C25 C36 1_555 1_555
C26 H32 1_555 1_555
H33 C26 1_555 1_555
C27 N6 1_555 1_555
C28 C24 1_555 1_555
H34 C28 1_555 1_555
C29 C26 1_555 1_555
H35 C29 1_555 1_555
H36 C29 1_555 1_555
C30 N4 1_555 1_555
H37 C30 1_555 1_555
H38 C30 1_555 1_555
C31 N5 1_555 1_555
H39 C31 1_555 1_555
H40 C31 1_555 1_555
C32 O6 1_555 1_555
H41 C32 1_555 1_555
C33 C34 1_555 1_555
C34 N5 1_555 1_555
C35 N6 1_555 1_555
H42 C35 1_555 1_555
C36 H43 1_555 1_555
C37 N4 1_555 1_555
H44 C37 1_555 1_555
H45 C37 1_555 1_555
C38 C34 1_555 1_555
H46 C38 1_555 1_555
C39 O4 1_555 1_555
H47 C39 1_555 1_555
H48 C39 1_555 1_555
C40 C36 1_555 1_555
H49 C40 1_555 1_555
C41 C33 1_555 1_555
H50 C41 1_555 1_555
C42 O5 1_555 1_555
H51 C42 1_555 1_555
H52 C42 1_555 1_555
C43 C27 1_555 1_555
H53 C43 1_555 1_555
C44 C38 1_555 1_555
H54 C44 1_555 1_555
C45 C41 1_555 1_555
H55 C45 1_555 1_555
C46 C42 1_555 1_555
H56 C46 1_555 1_555
H57 C46 1_555 1_555
H58 C46 1_555 1_555
C2 C12 1_555 1_555
C3 C11 1_555 1_555
C4 C10 1_555 1_555
C7 C8 1_555 1_555
C7 C14 1_555 1_555
C9 C13 1_555 1_555
C16 C18 1_555 1_555
C20 C22 1_555 1_555
C24 C27 1_555 1_555
C28 C35 1_555 1_555
C30 C32 1_555 1_555
C31 C37 1_555 1_555
C32 C39 1_555 1_555
C40 C43 1_555 1_555
C44 C45 1_555 1_555

#END
