
#######################################################################
#
#                 Cambridge Crystallographic Data Centre
#                                CCDC 
#
#######################################################################
#
# If this CIF has been generated from an entry in the Cambridge 
# Structural Database, then it will include bibliographic, chemical, 
# crystal, experimental, refinement or atomic coordinate data resulting 
# from the CCDC's data processing and validation procedures.
#
#######################################################################

data_COSRUY
_chemical_name_common            
'(23S)-22-Oxo-24-epibrassinolide (22R)-23-Oxo-24-epibrassinolide acetonitrile solvate'
_chemical_formula_moiety         'C28 H46 O6,C28 H46 O6,C2 H3 N1'
_chemical_name_systematic        
'5,6-Dihydroxy-10-(4-hydroxy-5,6-dimethyl-3-oxo-2-heptanyl)-7a,9a-dimethylhexadecahydro-3H-benzo[c]indeno[5,4-e]oxepin-3-one 5,6-dihydroxy-10-(3-hydroxy-5,6-dimethyl-4-oxo-2-heptanyl)-7a,9a-dimethylhexadecahydro-3H-benzo[c]indeno[5,4-e]oxepin-3-one acetonitrile solvate'
_symmetry_cell_setting           monoclinic
_symmetry_space_group_name_H-M   'P 21'
_symmetry_Int_Tables_number      4
_space_group_name_Hall           'P 2yb'
loop_
_symmetry_equiv_pos_site_id
_symmetry_equiv_pos_as_xyz
1 x,y,z
2 -x,1/2+y,-z
_cell_length_a                   7.5505(6)
_cell_length_b                   37.060(3)
_cell_length_c                   9.8986(8)
_cell_angle_alpha                90
_cell_angle_beta                 90.913(2)
_cell_angle_gamma                90
_cell_volume                     2769.49
_exptl_crystal_colour            colorless
_exptl_crystal_description       prismatic
_cell_formula_units_Z            2
loop_
_atom_site_label
_atom_site_type_symbol
_atom_site_fract_x
_atom_site_fract_y
_atom_site_fract_z
O1 O 0.9056(7) 0.10159(13) 0.7644(7)
H1 H 0.9257 0.0802 0.7500
O2 O 0.5730(7) 0.10378(17) 0.8849(5)
H2 H 0.4694 0.1021 0.9076
O3 O 0.1879(8) 0.14038(17) 0.4925(7)
O4 O 0.1579(5) 0.18901(12) 0.6064(5)
O5 O 0.6156(7) 0.38835(13) 0.9323(5)
O6 O 0.4312(11) 0.44522(18) 0.8654(7)
H3 H 0.4707 0.4375 0.9374
C1 C 0.7365(8) 0.15284(15) 0.7044(7)
H7 H 0.8433 0.1632 0.6675
H8 H 0.7345 0.1590 0.7996
C2 C 0.7480(8) 0.11224(16) 0.6919(7)
H9 H 0.7599 0.1058 0.5964
C3 C 0.5871(10) 0.09477(17) 0.7455(8)
H10 H 0.5972 0.0685 0.7359
C4 C 0.4294(9) 0.10817(17) 0.6628(8)
H11 H 0.3231 0.0963 0.6943
H12 H 0.4451 0.1014 0.5691
C5 C 0.4038(8) 0.14898(15) 0.6711(6)
H13 H 0.3742 0.1550 0.7645
C6 C 0.2467(8) 0.1586(2) 0.5826(7)
C7 C 0.2259(7) 0.21468(17) 0.6995(7)
H14 H 0.2473 0.2028 0.7856
H15 H 0.1372 0.2332 0.7132
C8 C 0.3956(6) 0.23248(15) 0.6553(5)
H16 H 0.3894 0.2356 0.5570
C9 C 0.5650(7) 0.21019(16) 0.6906(6)
H17 H 0.5657 0.2076 0.7892
C10 C 0.5750(7) 0.17084(16) 0.6338(6)
C11 C 0.7307(8) 0.23174(17) 0.6585(9)
H18 H 0.7414 0.2330 0.5611
H19 H 0.8328 0.2186 0.6933
C12 C 0.7379(7) 0.26990(18) 0.7143(8)
H20 H 0.8422 0.2820 0.6805
H21 H 0.7486 0.2689 0.8120
C13 C 0.5739(7) 0.29179(14) 0.6752(6)
C14 C 0.4129(7) 0.26957(15) 0.7193(5)
H22 H 0.4308 0.2652 0.8162
C15 C 0.2580(7) 0.29609(17) 0.7084(7)
H23 H 0.2042 0.2953 0.6188
H24 H 0.1685 0.2904 0.7743
C16 C 0.3380(8) 0.33279(18) 0.7360(7)
H25 H 0.2895 0.3430 0.8177
H26 H 0.3122 0.3490 0.6614
C17 C 0.5405(7) 0.32746(15) 0.7526(6)
H27 H 0.5644 0.3226 0.8485
C18 C 0.5709(9) 0.29916(18) 0.5228(6)
H28 H 0.5574 0.2768 0.4748
H29 H 0.6800 0.3105 0.4977
H30 H 0.4736 0.3148 0.5005
C19 C 0.5984(10) 0.1716(2) 0.4803(7)
H31 H 0.7128 0.1813 0.4599
H32 H 0.5080 0.1864 0.4396
H33 H 0.5891 0.1475 0.4452
C20 C 0.6457(8) 0.36155(15) 0.7158(6)
H34 H 0.6168 0.3680 0.6220
C21 C 0.8482(9) 0.35747(19) 0.7301(9)
H35 H 0.9034 0.3805 0.7172
H36 H 0.8896 0.3408 0.6634
H37 H 0.8776 0.3485 0.8187
C22 C 0.5845(8) 0.39203(17) 0.8074(6)
C23 C 0.4799(13) 0.4220(2) 0.7605(9)
H38 H 0.3717 0.4125 0.7176
C24 C 0.5951(16) 0.4447(2) 0.6426(10)
H39 H 0.6259 0.4293 0.5660
C25 C 0.757(2) 0.4578(5) 0.7191(18)
H40 H 0.7594 0.4473 0.8077
H41 H 0.7529 0.4836 0.7267
H42 H 0.8613 0.4508 0.6716
C26 C 0.4682(17) 0.4753(2) 0.6007(10)
H43 H 0.4696 0.4933 0.6730
C27 C 0.529(2) 0.4929(4) 0.4768(16)
H44 H 0.6509 0.4997 0.4878
H45 H 0.4586 0.5140 0.4594
H46 H 0.5167 0.4765 0.4022
C28 C 0.269(2) 0.4633(3) 0.5750(18)
H47 H 0.2104 0.4807 0.5178
H48 H 0.2089 0.4620 0.6598
H49 H 0.2661 0.4401 0.5321
O7 O 0.4092(7) 0.43440(14) 0.1424(7)
H4 H 0.4114 0.4337 0.0596
O8 O 0.0850(10) 0.4317(2) -0.0209(8)
H5 H 0.1548 0.4446 -0.0613
O9 O -0.3288(8) 0.39720(18) 0.3290(7)
O10 O -0.3444(5) 0.34502(12) 0.2376(5)
O11 O 0.1210(7) 0.14658(12) -0.0888(4)
H6 H 0.0951 0.1291 -0.1358
O12 O 0.2544(8) 0.08773(16) 0.0405(7)
C29 C 0.2359(8) 0.38002(17) 0.1670(8)
H50 H 0.2413 0.3747 0.0712
H51 H 0.3382 0.3688 0.2103
C30 C 0.2501(9) 0.42110(19) 0.1858(8)
H52 H 0.2435 0.4260 0.2829
C31 C 0.0969(10) 0.43919(18) 0.1195(8)
H53 H 0.1079 0.4653 0.1325
C32 C -0.0701(10) 0.42638(19) 0.1847(10)
H54 H -0.1706 0.4380 0.1406
H55 H -0.0683 0.4338 0.2786
C33 C -0.0968(8) 0.38495(15) 0.1780(7)
H56 H -0.1202 0.3790 0.0830
C34 C -0.2653(9) 0.37641(18) 0.2534(8)
C35 C -0.2765(7) 0.31900(16) 0.1441(7)
H57 H -0.2543 0.3309 0.0587
H58 H -0.3658 0.3006 0.1279
C36 C -0.1076(6) 0.30104(14) 0.1934(5)
H59 H -0.1141 0.2976 0.2914
C37 C 0.0584(7) 0.32320(14) 0.1626(6)
H60 H 0.0564 0.3264 0.0643
C38 C 0.0684(7) 0.36254(15) 0.2229(6)
C39 C 0.2271(7) 0.30121(16) 0.1939(9)
H61 H 0.3281 0.3144 0.1603
H62 H 0.2414 0.2994 0.2912
C40 C 0.2303(7) 0.26345(15) 0.1346(7)
H63 H 0.3359 0.2510 0.1666
H64 H 0.2355 0.2650 0.0369
C41 C 0.0674(7) 0.24187(15) 0.1737(5)
C42 C -0.0925(6) 0.26399(14) 0.1261(5)
H65 H -0.0762 0.2685 0.0296
C43 C -0.2491(8) 0.23840(16) 0.1365(8)
H66 H -0.3409 0.2445 0.0707
H67 H -0.2988 0.2391 0.2262
C44 C -0.1700(8) 0.20087(16) 0.1066(7)
H68 H -0.2202 0.1912 0.0234
H69 H -0.1951 0.1843 0.1795
C45 C 0.0337(7) 0.20615(14) 0.0932(5)
H70 H 0.0578 0.2110 -0.0020
C46 C 0.0672(9) 0.23384(17) 0.3253(6)
H71 H 0.1779 0.2230 0.3517
H72 H -0.0279 0.2175 0.3449
H73 H 0.0512 0.2559 0.3744
C47 C 0.0768(11) 0.3617(2) 0.3811(7)
H74 H 0.1956 0.3564 0.4109
H75 H -0.0019 0.3434 0.4136
H76 H 0.0418 0.3848 0.4158
C48 C 0.1370(8) 0.17200(15) 0.1339(6)
H77 H 0.1109 0.1665 0.2283
C49 C 0.3357(8) 0.17576(17) 0.1212(8)
H78 H 0.3636 0.1822 0.0300
H79 H 0.3917 0.1533 0.1440
H80 H 0.3779 0.1942 0.1815
C50 C 0.0730(8) 0.13985(15) 0.0454(6)
H81 H -0.0566 0.1392 0.0483
C51 C 0.1413(9) 0.10421(16) 0.0990(7)
C52 C 0.0456(14) 0.08917(18) 0.2185(8)
H82 H 0.0149 0.1097 0.2759
C53 C 0.160(2) 0.0648(4) 0.3020(16)
H83 H 0.2208 0.0483 0.2441
H84 H 0.0873 0.0514 0.3633
H85 H 0.2444 0.0789 0.3525
C54 C -0.1258(17) 0.0708(3) 0.1794(13)
H86 H -0.1845 0.0875 0.1162
C55 C -0.1113(19) 0.0366(3) 0.1044(14)
H87 H -0.0210 0.0218 0.1457
H88 H -0.0807 0.0415 0.0125
H89 H -0.2226 0.0241 0.1061
C56 C -0.245(2) 0.0691(6) 0.2985(18)
H90 H -0.3331 0.0507 0.2837
H91 H -0.3027 0.0920 0.3098
H92 H -0.1769 0.0635 0.3783
N1 N 0.0955(17) 0.0319(3) 0.7527(14)
C57 C 0.2100(19) 0.0217(2) 0.8195(13)
C58 C 0.3504(18) 0.0113(3) 0.9031(13)
H93 H 0.4426 0.0011 0.8494
H94 H 0.3102 -0.0063 0.9666
H95 H 0.3954 0.0320 0.9509
loop_
_geom_bond_atom_site_label_1
_geom_bond_atom_site_label_2
_geom_bond_site_symmetry_1
_geom_bond_site_symmetry_2
O1 H1 1_555 1_555
O2 H2 1_555 1_555
O3 C6 1_555 1_555
O4 C6 1_555 1_555
O5 C22 1_555 1_555
O6 H3 1_555 1_555
O7 H4 1_555 1_555
O8 H5 1_555 1_555
O9 C34 1_555 1_555
O10 C34 1_555 1_555
O11 H6 1_555 1_555
O12 C51 1_555 1_555
N1 C57 1_555 1_555
C1 H7 1_555 1_555
H8 C1 1_555 1_555
C2 O1 1_555 1_555
H9 C2 1_555 1_555
C3 O2 1_555 1_555
H10 C3 1_555 1_555
C4 C3 1_555 1_555
H11 C4 1_555 1_555
H12 C4 1_555 1_555
C5 C4 1_555 1_555
H13 C5 1_555 1_555
C6 C5 1_555 1_555
C7 O4 1_555 1_555
H14 C7 1_555 1_555
H15 C7 1_555 1_555
C8 C7 1_555 1_555
H16 C8 1_555 1_555
C9 C8 1_555 1_555
H17 C9 1_555 1_555
C10 C1 1_555 1_555
C11 C9 1_555 1_555
H18 C11 1_555 1_555
H19 C11 1_555 1_555
C12 C11 1_555 1_555
H20 C12 1_555 1_555
H21 C12 1_555 1_555
C13 C12 1_555 1_555
C14 C8 1_555 1_555
H22 C14 1_555 1_555
C15 C14 1_555 1_555
H23 C15 1_555 1_555
H24 C15 1_555 1_555
C16 C15 1_555 1_555
H25 C16 1_555 1_555
H26 C16 1_555 1_555
C17 C13 1_555 1_555
H27 C17 1_555 1_555
C18 C13 1_555 1_555
H28 C18 1_555 1_555
H29 C18 1_555 1_555
H30 C18 1_555 1_555
C19 C10 1_555 1_555
H31 C19 1_555 1_555
H32 C19 1_555 1_555
H33 C19 1_555 1_555
C20 C17 1_555 1_555
H34 C20 1_555 1_555
C21 C20 1_555 1_555
H35 C21 1_555 1_555
H36 C21 1_555 1_555
H37 C21 1_555 1_555
C22 C20 1_555 1_555
C23 O6 1_555 1_555
H38 C23 1_555 1_555
C24 C23 1_555 1_555
H39 C24 1_555 1_555
C25 C24 1_555 1_555
H40 C25 1_555 1_555
H41 C25 1_555 1_555
H42 C25 1_555 1_555
C26 C24 1_555 1_555
H43 C26 1_555 1_555
C27 C26 1_555 1_555
H44 C27 1_555 1_555
H45 C27 1_555 1_555
H46 C27 1_555 1_555
C28 C26 1_555 1_555
H47 C28 1_555 1_555
H48 C28 1_555 1_555
H49 C28 1_555 1_555
C29 H50 1_555 1_555
H51 C29 1_555 1_555
C30 O7 1_555 1_555
H52 C30 1_555 1_555
C31 O8 1_555 1_555
H53 C31 1_555 1_555
C32 C31 1_555 1_555
H54 C32 1_555 1_555
H55 C32 1_555 1_555
C33 C32 1_555 1_555
H56 C33 1_555 1_555
C34 C33 1_555 1_555
C35 O10 1_555 1_555
H57 C35 1_555 1_555
H58 C35 1_555 1_555
C36 C35 1_555 1_555
H59 C36 1_555 1_555
C37 C36 1_555 1_555
H60 C37 1_555 1_555
C38 C29 1_555 1_555
C39 C37 1_555 1_555
H61 C39 1_555 1_555
H62 C39 1_555 1_555
C40 C39 1_555 1_555
H63 C40 1_555 1_555
H64 C40 1_555 1_555
C41 C40 1_555 1_555
C42 C36 1_555 1_555
H65 C42 1_555 1_555
C43 C42 1_555 1_555
H66 C43 1_555 1_555
H67 C43 1_555 1_555
C44 C43 1_555 1_555
H68 C44 1_555 1_555
H69 C44 1_555 1_555
C45 C41 1_555 1_555
H70 C45 1_555 1_555
C46 C41 1_555 1_555
H71 C46 1_555 1_555
H72 C46 1_555 1_555
H73 C46 1_555 1_555
C47 C38 1_555 1_555
H74 C47 1_555 1_555
H75 C47 1_555 1_555
H76 C47 1_555 1_555
C48 C45 1_555 1_555
H77 C48 1_555 1_555
C49 C48 1_555 1_555
H78 C49 1_555 1_555
H79 C49 1_555 1_555
H80 C49 1_555 1_555
C50 O11 1_555 1_555
H81 C50 1_555 1_555
C51 C50 1_555 1_555
C52 C51 1_555 1_555
H82 C52 1_555 1_555
C53 C52 1_555 1_555
H83 C53 1_555 1_555
H84 C53 1_555 1_555
H85 C53 1_555 1_555
C54 C52 1_555 1_555
H86 C54 1_555 1_555
C55 C54 1_555 1_555
H87 C55 1_555 1_555
H88 C55 1_555 1_555
H89 C55 1_555 1_555
C56 C54 1_555 1_555
H90 C56 1_555 1_555
H91 C56 1_555 1_555
H92 C56 1_555 1_555
C57 C58 1_555 1_555
C58 H93 1_555 1_555
H94 C58 1_555 1_555
H95 C58 1_555 1_555
C1 C2 1_555 1_555
C2 C3 1_555 1_555
C5 C10 1_555 1_555
C9 C10 1_555 1_555
C13 C14 1_555 1_555
C16 C17 1_555 1_555
C22 C23 1_555 1_555
C29 C30 1_555 1_555
C30 C31 1_555 1_555
C33 C38 1_555 1_555
C37 C38 1_555 1_555
C41 C42 1_555 1_555
C44 C45 1_555 1_555
C48 C50 1_555 1_555

#END
