
#######################################################################
#
#                 Cambridge Crystallographic Data Centre
#                                CCDC 
#
#######################################################################
#
# If this CIF has been generated from an entry in the Cambridge 
# Structural Database, then it will include bibliographic, chemical, 
# crystal, experimental, refinement or atomic coordinate data resulting 
# from the CCDC's data processing and validation procedures.
#
#######################################################################

data_COTCOF
_chemical_formula_moiety         'C14 H14 O4'
_chemical_name_systematic        '2-(4-Ethoxybenzoyl) cyclopentane-1,3-dione'
_symmetry_cell_setting           triclinic
_symmetry_space_group_name_H-M   'P -1'
_symmetry_Int_Tables_number      2
_space_group_name_Hall           '-P 1'
loop_
_symmetry_equiv_pos_site_id
_symmetry_equiv_pos_as_xyz
1 x,y,z
2 -x,-y,-z
_cell_length_a                   8.9802(18)
_cell_length_b                   9.0799(18)
_cell_length_c                   15.482(3)
_cell_angle_alpha                93.49(3)
_cell_angle_beta                 93.84(3)
_cell_angle_gamma                107.27(3)
_cell_volume                     1198.44
_exptl_crystal_colour            colorless
_exptl_crystal_description       needle
_cell_formula_units_Z            4
loop_
_atom_site_label
_atom_site_type_symbol
_atom_site_fract_x
_atom_site_fract_y
_atom_site_fract_z
O1 O 0.0232(2) 0.7499(2) 0.29240(14)
O2 O -0.46636(19) 0.6914(2) 0.39980(13)
H1 H -0.4705 0.6090 0.4199
O3 O -0.36531(18) 0.4796(2) 0.44000(11)
O4 O 0.14676(17) 0.14297(17) 0.42932(10)
C1 C -0.1054(3) 0.7602(3) 0.30618(16)
C2 C -0.1602(3) 0.8900(3) 0.27335(17)
H2 H -0.1795 0.8771 0.2105
H3 H -0.0820 0.9891 0.2899
C3 C -0.3104(3) 0.8817(3) 0.31498(17)
H4 H -0.2966 0.9708 0.3560
H5 H -0.3953 0.8757 0.2715
C4 C -0.3407(3) 0.7375(3) 0.35979(15)
C5 C -0.2251(2) 0.6639(3) 0.35535(14)
C6 C -0.2435(3) 0.5239(3) 0.39956(15)
C7 C -0.1373(2) 0.4274(3) 0.40299(14)
C8 C -0.0084(3) 0.4489(3) 0.35605(16)
H6 H 0.0140 0.5282 0.3191
C9 C 0.0882(3) 0.3567(3) 0.36228(17)
H7 H 0.1736 0.3733 0.3293
C10 C 0.0584(3) 0.2395(3) 0.41731(15)
C11 C -0.0712(3) 0.2161(3) 0.46462(15)
H8 H -0.0933 0.1369 0.5016
C12 C -0.1668(3) 0.3080(3) 0.45743(15)
H9 H -0.2532 0.2902 0.4897
C13 C 0.2827(3) 0.1650(3) 0.38201(17)
H10 H 0.3547 0.2678 0.3975
H11 H 0.2525 0.1551 0.3201
C14 C 0.3603(3) 0.0452(3) 0.40396(18)
H12 H 0.3866 0.0534 0.4656
H13 H 0.4539 0.0615 0.3745
H14 H 0.2902 -0.0560 0.3858
O5 O 0.8428(2) 0.6181(2) 0.08071(14)
O6 O 0.5927(2) 0.1818(2) 0.22288(14)
H15 H 0.5215 0.2163 0.2355
O7 O 0.4471(2) 0.3695(2) 0.22870(12)
O8 O 0.30963(18) 0.9403(2) 0.07312(11)
C15 C 0.8039(3) 0.4889(3) 0.10709(17)
C16 C 0.9032(3) 0.3823(3) 0.09961(18)
H16 H 1.0073 0.4316 0.1281
H17 H 0.9123 0.3550 0.0391
C17 C 0.8210(3) 0.2390(3) 0.14381(19)
H18 H 0.7888 0.1478 0.1028
H19 H 0.8885 0.2220 0.1912
C18 C 0.6841(3) 0.2755(3) 0.17624(17)
C19 C 0.6667(3) 0.4153(3) 0.15167(15)
C20 C 0.5330(3) 0.4568(3) 0.17728(15)
C21 C 0.4781(3) 0.5856(3) 0.14931(14)
C22 C 0.5376(3) 0.6751(3) 0.08273(15)
H20 H 0.6181 0.6557 0.0537
C23 C 0.4792(3) 0.7915(3) 0.05919(15)
H21 H 0.5210 0.8508 0.0147
C24 C 0.3589(3) 0.8215(3) 0.10094(15)
C25 C 0.2958(3) 0.7336(3) 0.16667(16)
H22 H 0.2147 0.7531 0.1951
C26 C 0.3549(3) 0.6167(3) 0.18929(16)
H23 H 0.3112 0.5561 0.2329
C27 C 0.1863(3) 0.9782(3) 0.11428(18)
H24 H 0.2130 0.9984 0.1765
H25 H 0.0899 0.8932 0.1037
C28 C 0.1669(3) 1.1200(3) 0.0761(2)
H26 H 0.2613 1.2045 0.0895
H27 H 0.0814 1.1463 0.1002
H28 H 0.1454 1.1000 0.0142
loop_
_geom_bond_atom_site_label_1
_geom_bond_atom_site_label_2
_geom_bond_site_symmetry_1
_geom_bond_site_symmetry_2
O1 C1 1_555 1_555
O2 H1 1_555 1_555
O3 C6 1_555 1_555
O4 C10 1_555 1_555
C1 C2 1_555 1_555
C2 H2 1_555 1_555
H3 C2 1_555 1_555
C3 C2 1_555 1_555
H4 C3 1_555 1_555
H5 C3 1_555 1_555
C4 O2 1_555 1_555
C5 C1 1_555 1_555
C6 C5 1_555 1_555
C7 C6 1_555 1_555
C8 C7 1_555 1_555
H6 C8 1_555 1_555
C9 C8 1_555 1_555
H7 C9 1_555 1_555
C10 C9 1_555 1_555
C11 C10 1_555 1_555
H8 C11 1_555 1_555
C12 C7 1_555 1_555
H9 C12 1_555 1_555
C13 O4 1_555 1_555
H10 C13 1_555 1_555
H11 C13 1_555 1_555
C14 C13 1_555 1_555
H12 C14 1_555 1_555
H13 C14 1_555 1_555
H14 C14 1_555 1_555
O5 C15 1_555 1_555
O6 H15 1_555 1_555
O7 C20 1_555 1_555
O8 C24 1_555 1_555
C15 C16 1_555 1_555
C16 H16 1_555 1_555
H17 C16 1_555 1_555
C17 C16 1_555 1_555
H18 C17 1_555 1_555
H19 C17 1_555 1_555
C18 O6 1_555 1_555
C19 C15 1_555 1_555
C20 C19 1_555 1_555
C21 C20 1_555 1_555
C22 C21 1_555 1_555
H20 C22 1_555 1_555
C23 C22 1_555 1_555
H21 C23 1_555 1_555
C24 C23 1_555 1_555
C25 C24 1_555 1_555
H22 C25 1_555 1_555
C26 C21 1_555 1_555
H23 C26 1_555 1_555
C27 O8 1_555 1_555
H24 C27 1_555 1_555
H25 C27 1_555 1_555
C28 C27 1_555 1_555
H26 C28 1_555 1_555
H27 C28 1_555 1_555
H28 C28 1_555 1_555
C3 C4 1_555 1_555
C4 C5 1_555 1_555
C11 C12 1_555 1_555
C17 C18 1_555 1_555
C18 C19 1_555 1_555
C25 C26 1_555 1_555

#END
