
#######################################################################
#
#                 Cambridge Crystallographic Data Centre
#                                CCDC 
#
#######################################################################
#
# If this CIF has been generated from an entry in the Cambridge 
# Structural Database, then it will include bibliographic, chemical, 
# crystal, experimental, refinement or atomic coordinate data resulting 
# from the CCDC's data processing and validation procedures.
#
#######################################################################

data_COTFUO
_chemical_formula_moiety         'C17 H16 F3 N1 O1'
_chemical_name_systematic        
2-(4-methoxyphenyl)-3-(trifluoromethyl)-1,2,3,4-tetrahydroquinoline
_symmetry_cell_setting           orthorhombic
_symmetry_space_group_name_H-M   'P 21 21 21'
_symmetry_Int_Tables_number      19
_space_group_name_Hall           'P 2ac 2ab'
loop_
_symmetry_equiv_pos_site_id
_symmetry_equiv_pos_as_xyz
1 x,y,z
2 1/2-x,-y,1/2+z
3 -x,1/2+y,1/2-z
4 1/2+x,1/2-y,-z
_cell_length_a                   5.3074(5)
_cell_length_b                   10.3705(10)
_cell_length_c                   27.309(3)
_cell_angle_alpha                90
_cell_angle_beta                 90
_cell_angle_gamma                90
_cell_volume                     1503.1
_exptl_crystal_colour            colorless
_exptl_crystal_description       prismatic
_cell_formula_units_Z            4
loop_
_atom_site_label
_atom_site_type_symbol
_atom_site_fract_x
_atom_site_fract_y
_atom_site_fract_z
N1 N 1.2304(5) 0.7129(2) 0.13001(10)
O1 O 0.4940(4) 0.5002(2) 0.30027(6)
F1 F 0.7655(5) 0.3641(2) 0.11455(8)
F2 F 1.1550(6) 0.31750(19) 0.11007(10)
F3 F 0.9394(6) 0.34836(19) 0.04476(7)
C1 C 1.1017(5) 0.7960(3) 0.09942(9)
C2 C 1.1793(7) 0.9239(3) 0.09553(10)
H1 H 1.3177 0.9525 0.1134
C3 C 1.0525(9) 1.0082(3) 0.06543(11)
H2 H 1.1071 1.0931 0.0627
C4 C 0.8479(9) 0.9681(4) 0.03969(11)
H3 H 0.7590 1.0261 0.0203
C5 C 0.7727(7) 0.8416(3) 0.04234(10)
H4 H 0.6350 0.8145 0.0240
C6 C 0.8974(5) 0.7534(3) 0.07184(9)
C7 C 0.8227(6) 0.6145(3) 0.07379(10)
H5 H 0.7675 0.5868 0.0416
H6 H 0.6829 0.6041 0.0963
C8 C 1.0418(6) 0.5312(3) 0.09037(10)
H7 H 1.1747 0.5424 0.0658
C9 C 1.1515(5) 0.5813(3) 0.13930(9)
H8 H 1.3035 0.5309 0.1462
C10 C 0.9767(5) 0.5667(2) 0.18292(8)
C11 C 0.9875(6) 0.4556(3) 0.21139(9)
H9 H 1.1060 0.3924 0.2041
C12 C 0.8256(6) 0.4377(3) 0.25019(9)
H10 H 0.8351 0.3624 0.2686
C13 C 0.6502(5) 0.5301(3) 0.26203(9)
C14 C 0.6432(5) 0.6434(3) 0.23567(9)
H11 H 0.5302 0.7082 0.2441
C15 C 0.8055(5) 0.6598(2) 0.19659(9)
H12 H 0.7990 0.7364 0.1789
C16 C 0.3335(8) 0.5994(4) 0.31779(13)
H13 H 0.4334 0.6711 0.3287
H14 H 0.2349 0.5673 0.3446
H15 H 0.2234 0.6270 0.2919
C17 C 0.9776(9) 0.3917(3) 0.09032(13)
H16 H 1.345(7) 0.741(3) 0.1441(11)
loop_
_geom_bond_atom_site_label_1
_geom_bond_atom_site_label_2
_geom_bond_site_symmetry_1
_geom_bond_site_symmetry_2
N1 C1 1_555 1_555
O1 C13 1_555 1_555
F1 C17 1_555 1_555
F2 C17 1_555 1_555
F3 C17 1_555 1_555
C1 C2 1_555 1_555
C2 H1 1_555 1_555
C3 C2 1_555 1_555
H2 C3 1_555 1_555
C4 C3 1_555 1_555
H3 C4 1_555 1_555
C5 C4 1_555 1_555
H4 C5 1_555 1_555
C6 C1 1_555 1_555
C7 C6 1_555 1_555
H5 C7 1_555 1_555
H6 C7 1_555 1_555
C8 C7 1_555 1_555
H7 C8 1_555 1_555
C9 N1 1_555 1_555
H8 C9 1_555 1_555
C10 C9 1_555 1_555
C11 C10 1_555 1_555
H9 C11 1_555 1_555
C12 C11 1_555 1_555
H10 C12 1_555 1_555
C13 C12 1_555 1_555
C14 C13 1_555 1_555
H11 C14 1_555 1_555
C15 C10 1_555 1_555
H12 C15 1_555 1_555
C16 O1 1_555 1_555
H13 C16 1_555 1_555
H14 C16 1_555 1_555
H15 C16 1_555 1_555
C17 C8 1_555 1_555
H16 N1 1_555 1_555
C5 C6 1_555 1_555
C8 C9 1_555 1_555
C14 C15 1_555 1_555

#END
