
#######################################################################
#
#                 Cambridge Crystallographic Data Centre
#                                CCDC 
#
#######################################################################
#
# If this CIF has been generated from an entry in the Cambridge 
# Structural Database, then it will include bibliographic, chemical, 
# crystal, experimental, refinement or atomic coordinate data resulting 
# from the CCDC's data processing and validation procedures.
#
#######################################################################

data_COVNIM
_chemical_formula_moiety         'C20 H24 N2 O2,C1 H4 O1'
_chemical_name_systematic        
'1-(4,13,15-trimethyl-11-oxa-3,14-diazapentacyclo[8.8.0.0^2,12^.0^3,7^.0^14,18^]octadeca-4,6,8,15,17-pentaen-10-yl)ethanol methanol solvate'
_symmetry_cell_setting           orthorhombic
_symmetry_space_group_name_H-M   'P 21 21 21'
_symmetry_Int_Tables_number      19
_space_group_name_Hall           'P 2ac 2ab'
loop_
_symmetry_equiv_pos_site_id
_symmetry_equiv_pos_as_xyz
1 x,y,z
2 1/2-x,-y,1/2+z
3 -x,1/2+y,1/2-z
4 1/2+x,1/2-y,-z
_cell_length_a                   7.2482(1)
_cell_length_b                   13.3145(1)
_cell_length_c                   20.2206(2)
_cell_angle_alpha                90
_cell_angle_beta                 90
_cell_angle_gamma                90
_cell_volume                     1951.41
_exptl_crystal_colour            'light yellow'
_exptl_crystal_description       prism
_cell_formula_units_Z            4
loop_
_atom_site_label
_atom_site_type_symbol
_atom_site_fract_x
_atom_site_fract_y
_atom_site_fract_z
O1 O 0.3044(2) 0.92674(12) 0.16525(8)
O2 O -0.0764(3) 0.94721(17) 0.28504(9)
H1 H -0.1556 0.9271 0.2578
N1 N 0.1509(3) 0.76717(14) 0.06953(10)
N2 N 0.0702(3) 1.07736(15) 0.09841(10)
C1 C 0.1652(4) 0.7803(2) -0.05470(12)
H2 H 0.0550 0.8202 -0.0564
H3 H 0.1671 0.7348 -0.0915
H4 H 0.2712 0.8234 -0.0567
C2 C 0.1688(3) 0.72211(18) 0.00806(11)
C3 C 0.1923(4) 0.6216(2) 0.01816(13)
H5 H 0.2079 0.5734 -0.0146
C4 C 0.1888(4) 0.60391(18) 0.08597(13)
H6 H 0.2012 0.5415 0.1062
C5 C 0.1640(4) 0.69354(18) 0.11796(12)
C6 C 0.1544(4) 0.70928(17) 0.18835(12)
H7 H 0.1603 0.6510 0.2136
C7 C 0.1385(4) 0.79376(19) 0.22292(11)
H8 H 0.1341 0.7875 0.2687
C8 C 0.1271(3) 0.89804(17) 0.19543(11)
C9 C -0.0072(3) 0.90574(18) 0.13572(11)
H9 H -0.1147 0.8618 0.1408
C10 C 0.1149(3) 0.87417(17) 0.07759(11)
H10 H 0.0610 0.9002 0.0366
C11 C 0.2839(3) 0.93692(18) 0.09495(11)
H11 H 0.3931 0.9102 0.0724
C12 C 0.2533(4) 1.04633(19) 0.07525(14)
H12 H 0.3468 1.0880 0.0970
C13 C 0.2702(5) 1.0594(2) 0.00057(16)
H13 H 0.2412 1.1275 -0.0111
H14 H 0.1860 1.0148 -0.0213
H15 H 0.3941 1.0443 -0.0130
C14 C -0.0613(3) 1.01198(19) 0.12223(11)
C15 C -0.2185(4) 1.0656(2) 0.13361(13)
H16 H -0.3299 1.0403 0.1492
C16 C -0.1805(5) 1.1665(2) 0.11728(14)
H17 H -0.2636 1.2195 0.1203
C17 C -0.0024(5) 1.1738(2) 0.09630(13)
C18 C 0.1082(6) 1.2633(2) 0.07713(19)
H18 H 0.0539 1.3225 0.0960
H19 H 0.1100 1.2694 0.0298
H20 H 0.2321 1.2559 0.0932
C19 C 0.0870(4) 0.9746(2) 0.25088(12)
H21 H 0.0690 1.0410 0.2309
C20 C 0.2387(5) 0.9818(2) 0.30213(14)
H22 H 0.2063 1.0313 0.3346
H23 H 0.3521 1.0007 0.2810
H24 H 0.2540 0.9178 0.3233
O3 O 0.6275(3) 0.84350(19) 0.22176(13)
H25 H 0.5193 0.8656 0.2187
C21 C 0.6242(6) 0.7488(4) 0.2503(3)
H26 H 0.7477 0.7231 0.2531
H27 H 0.5505 0.7046 0.2236
H28 H 0.5721 0.7531 0.2938
loop_
_geom_bond_atom_site_label_1
_geom_bond_atom_site_label_2
_geom_bond_site_symmetry_1
_geom_bond_site_symmetry_2
O1 C8 1_555 1_555
O2 H1 1_555 1_555
N1 C2 1_555 1_555
N2 C12 1_555 1_555
C1 H2 1_555 1_555
H3 C1 1_555 1_555
H4 C1 1_555 1_555
C2 C1 1_555 1_555
C3 C2 1_555 1_555
H5 C3 1_555 1_555
C4 C3 1_555 1_555
H6 C4 1_555 1_555
C5 N1 1_555 1_555
C6 C5 1_555 1_555
H7 C6 1_555 1_555
C7 C6 1_555 1_555
H8 C7 1_555 1_555
C8 C7 1_555 1_555
C9 C8 1_555 1_555
H9 C9 1_555 1_555
C10 N1 1_555 1_555
H10 C10 1_555 1_555
C11 O1 1_555 1_555
H11 C11 1_555 1_555
C12 C11 1_555 1_555
H12 C12 1_555 1_555
C13 C12 1_555 1_555
H13 C13 1_555 1_555
H14 C13 1_555 1_555
H15 C13 1_555 1_555
C14 N2 1_555 1_555
C15 C14 1_555 1_555
H16 C15 1_555 1_555
C16 C15 1_555 1_555
H17 C16 1_555 1_555
C17 N2 1_555 1_555
C18 C17 1_555 1_555
H18 C18 1_555 1_555
H19 C18 1_555 1_555
H20 C18 1_555 1_555
C19 O2 1_555 1_555
H21 C19 1_555 1_555
C20 C19 1_555 1_555
H22 C20 1_555 1_555
H23 C20 1_555 1_555
H24 C20 1_555 1_555
O3 H25 1_555 1_555
C21 O3 1_555 1_555
H26 C21 1_555 1_555
H27 C21 1_555 1_555
H28 C21 1_555 1_555
C4 C5 1_555 1_555
C8 C19 1_555 1_555
C9 C10 1_555 1_555
C9 C14 1_555 1_555
C10 C11 1_555 1_555
C16 C17 1_555 1_555

#END
