
#######################################################################
#
#                 Cambridge Crystallographic Data Centre
#                                CCDC 
#
#######################################################################
#
# If this CIF has been generated from an entry in the Cambridge 
# Structural Database, then it will include bibliographic, chemical, 
# crystal, experimental, refinement or atomic coordinate data resulting 
# from the CCDC's data processing and validation procedures.
#
#######################################################################

data_COVSEM
_chemical_formula_moiety         'C4 H1 N17'
_chemical_name_systematic        
3,5-Diazido-4-((3-azido-4H-1,2,4-triazol-4-yl)diazenyl)-4H-1,2,4-triazole
_symmetry_cell_setting           triclinic
_symmetry_space_group_name_H-M   'P -1'
_symmetry_Int_Tables_number      2
_space_group_name_Hall           '-P 1'
loop_
_symmetry_equiv_pos_site_id
_symmetry_equiv_pos_as_xyz
1 x,y,z
2 -x,-y,-z
_cell_length_a                   6.6604(13)
_cell_length_b                   6.7035(13)
_cell_length_c                   12.916(3)
_cell_angle_alpha                98.13(3)
_cell_angle_beta                 95.56(3)
_cell_angle_gamma                106.48(3)
_cell_volume                     541.694
_exptl_crystal_colour            orange
_exptl_crystal_description       block
_cell_formula_units_Z            2
_exptl_crystal_recrystallization_method acetone
loop_
_atom_site_label
_atom_site_type_symbol
_atom_site_fract_x
_atom_site_fract_y
_atom_site_fract_z
N1 N 0.0532(2) -0.1272(3) -0.35245(12)
N2 N -0.2468(3) -0.2858(3) -0.46039(13)
N3 N -0.0749(3) -0.2821(3) -0.51878(14)
N4 N 0.2140(3) -0.0253(3) -0.27003(13)
N5 N 0.1442(2) 0.0524(3) -0.19168(13)
N6 N 0.3068(2) 0.1467(3) -0.10903(13)
N7 N 0.4463(2) 0.3056(3) 0.05505(13)
N8 N 0.6065(3) 0.2571(3) -0.00030(14)
N9 N 0.3086(3) -0.1552(3) -0.47062(13)
N10 N 0.3235(3) -0.2269(3) -0.56502(13)
N11 N 0.3602(3) -0.2807(3) -0.64592(14)
N12 N -0.2763(3) -0.1739(3) -0.27544(13)
N13 N -0.4633(2) -0.3050(3) -0.29056(13)
N14 N -0.6284(3) -0.4096(3) -0.28899(14)
N15 N 0.0690(3) 0.2493(3) 0.00119(13)
N16 N 0.0618(2) 0.3571(3) 0.08925(13)
N17 N 0.0300(3) 0.4475(3) 0.16309(14)
C1 C 0.0971(3) -0.1925(3) -0.45280(15)
C2 C -0.1696(3) -0.1966(3) -0.36330(15)
C3 C 0.2716(3) 0.2383(3) -0.01214(15)
C4 C 0.5222(3) 0.1645(3) -0.09624(16)
H1 H 0.587(4) 0.107(4) -0.1555(18)
loop_
_geom_bond_atom_site_label_1
_geom_bond_atom_site_label_2
_geom_bond_site_symmetry_1
_geom_bond_site_symmetry_2
N1 N4 1_555 1_555
N2 N3 1_555 1_555
N3 C1 1_555 1_555
N4 N5 1_555 1_555
N5 N6 1_555 1_555
N6 C3 1_555 1_555
N7 N8 1_555 1_555
N8 C4 1_555 1_555
N9 N10 1_555 1_555
N10 N11 1_555 1_555
N12 N13 1_555 1_555
N13 N14 1_555 1_555
N15 N16 1_555 1_555
N16 N17 1_555 1_555
C1 N1 1_555 1_555
C2 N1 1_555 1_555
C3 N7 1_555 1_555
C4 N6 1_555 1_555
H1 C4 1_555 1_555
N2 C2 1_555 1_555
N9 C1 1_555 1_555
N12 C2 1_555 1_555
N15 C3 1_555 1_555

#END
