
#######################################################################
#
#                 Cambridge Crystallographic Data Centre
#                                CCDC 
#
#######################################################################
#
# If this CIF has been generated from an entry in the Cambridge 
# Structural Database, then it will include bibliographic, chemical, 
# crystal, experimental, refinement or atomic coordinate data resulting 
# from the CCDC's data processing and validation procedures.
#
#######################################################################

data_COWSAI
_chemical_formula_moiety         'C24 H29 K1 N2 O6 S1'
_chemical_name_systematic        
Aqua-(1-phenoxy-11-(8-quinolyloxy)-3,6,9-trioxa-undecane-N^1^,O^4^,O^7^,O^10^,O^13^)-thiocyanato-potassium
_symmetry_cell_setting           triclinic
_symmetry_space_group_name_H-M   'P -1'
_symmetry_Int_Tables_number      2
_space_group_name_Hall           '-P 1'
loop_
_symmetry_equiv_pos_site_id
_symmetry_equiv_pos_as_xyz
1 x,y,z
2 -x,-y,-z
_cell_length_a                   11.637(3)
_cell_length_b                   12.284(3)
_cell_length_c                   9.349(2)
_cell_angle_alpha                93.10(3)
_cell_angle_beta                 89.40(3)
_cell_angle_gamma                108.70(3)
_cell_volume                     1263.99
_exptl_crystal_colour            colorless
_cell_formula_units_Z            2
loop_
_atom_site_label
_atom_site_type_symbol
_atom_site_fract_x
_atom_site_fract_y
_atom_site_fract_z
K1 K 0.8000(1) 0.4832(1) 0.7814(1)
S1 S 0.8775(1) 0.0736(1) 0.7921(1)
C1 C 0.8931(2) 0.2079(3) 0.8116(3)
N1 N 0.9050(3) 0.3059(3) 0.8234(4)
O1 O 1.0318(4) 0.5650(5) 0.8971(6)
N2 N 0.6646(2) 0.3904(1) 1.0276(2)
C2 C 0.6101(2) 0.4528(2) 1.1137(2)
C3 C 0.6503(2) 0.5749(2) 1.1069(2)
O2 O 0.7406(1) 0.6186(1) 1.0116(2)
C4 C 0.7858(3) 0.7417(2) 1.0075(3)
C5 C 0.8847(2) 0.7732(2) 0.8998(3)
O3 O 0.8373(1) 0.7248(1) 0.7628(2)
C6 C 0.9203(2) 0.7676(2) 0.6512(3)
C7 C 0.8698(2) 0.7034(2) 0.5136(3)
O4 O 0.8628(1) 0.5867(1) 0.5235(1)
C8 C 0.8130(2) 0.5205(2) 0.3959(2)
C9 C 0.8165(2) 0.4010(2) 0.4040(3)
O5 O 0.7321(1) 0.3415(1) 0.5072(2)
C10 C 0.7231(2) 0.2230(2) 0.5032(3)
C11 C 0.6306(2) 0.1624(2) 0.6077(3)
O6 O 0.5130(1) 0.1454(1) 0.5491(2)
C12 C 0.4150(2) 0.0960(2) 0.6328(3)
C13 C 0.3021(2) 0.0815(2) 0.5725(3)
C14 C 0.1984(2) 0.0357(2) 0.6497(4)
C15 C 0.2051(3) 0.0030(2) 0.7870(4)
C16 C 0.3160(3) 0.0160(2) 0.8465(3)
C17 C 0.4222(2) 0.0619(2) 0.7704(3)
C18 C 0.6298(3) 0.2787(2) 1.0405(3)
C19 C 0.5404(3) 0.2207(2) 1.1356(3)
C20 C 0.4848(3) 0.2818(2) 1.2209(3)
C21 C 0.5187(2) 0.4018(2) 1.2136(2)
C22 C 0.4694(2) 0.4731(3) 1.3025(3)
C23 C 0.5100(2) 0.5880(2) 1.2936(3)
C24 C 0.6002(2) 0.6405(2) 1.1953(2)
H1 H 0.819(2) 0.773(2) 1.093(3)
H2 H 0.715(3) 0.766(3) 0.981(3)
H3 H 0.911(2) 0.859(2) 0.899(2)
H4 H 0.947(3) 0.741(3) 0.924(3)
H5 H 0.933(3) 0.851(3) 0.647(3)
H6 H 1.002(3) 0.756(2) 0.676(3)
H7 H 0.786(3) 0.703(2) 0.500(3)
H8 H 0.922(3) 0.738(2) 0.440(3)
H9 H 0.720(3) 0.519(2) 0.380(3)
H10 H 0.858(2) 0.553(2) 0.313(3)
H11 H 0.795(3) 0.359(3) 0.314(3)
H12 H 0.899(3) 0.403(2) 0.433(3)
H13 H 0.803(3) 0.216(2) 0.529(3)
H14 H 0.707(2) 0.191(2) 0.407(3)
H15 H 0.639(2) 0.208(2) 0.700(3)
H16 H 0.635(2) 0.093(3) 0.628(3)
H17 H 0.298(3) 0.102(3) 0.474(4)
H18 H 0.118(4) 0.026(3) 0.599(4)
H19 H 0.141(4) -0.029(3) 0.842(4)
H20 H 0.319(3) -0.006(3) 0.940(4)
H21 H 0.498(3) 0.071(3) 0.814(3)
H22 H 0.673(3) 0.238(3) 0.981(3)
H23 H 0.517(3) 0.142(3) 1.135(4)
H24 H 0.424(3) 0.248(3) 1.278(4)
H25 H 0.418(3) 0.440(3) 1.360(4)
H26 H 0.475(3) 0.635(3) 1.356(3)
H27 H 0.631(2) 0.724(3) 1.191(3)
loop_
_geom_bond_atom_site_label_1
_geom_bond_atom_site_label_2
_geom_bond_site_symmetry_1
_geom_bond_site_symmetry_2
K1 N1 1_555 1_555
S1 C1 1_555 1_555
C1 N1 1_555 1_555
O1 K1 1_555 1_555
N2 K1 1_555 1_555
C2 N2 1_555 1_555
C3 C2 1_555 1_555
O2 K1 1_555 1_555
C4 O2 1_555 1_555
C5 C4 1_555 1_555
O3 K1 1_555 1_555
C6 O3 1_555 1_555
C7 C6 1_555 1_555
O4 K1 1_555 1_555
C8 O4 1_555 1_555
C9 C8 1_555 1_555
O5 K1 1_555 1_555
C10 O5 1_555 1_555
C11 C10 1_555 1_555
O6 C11 1_555 1_555
C12 O6 1_555 1_555
C13 C12 1_555 1_555
C14 C13 1_555 1_555
C15 C14 1_555 1_555
C16 C15 1_555 1_555
C17 C12 1_555 1_555
C18 N2 1_555 1_555
C19 C18 1_555 1_555
C20 C19 1_555 1_555
C21 C2 1_555 1_555
C22 C21 1_555 1_555
C23 C22 1_555 1_555
C24 C3 1_555 1_555
H1 C4 1_555 1_555
H2 C4 1_555 1_555
H3 C5 1_555 1_555
H4 C5 1_555 1_555
H5 C6 1_555 1_555
H6 C6 1_555 1_555
H7 C7 1_555 1_555
H8 C7 1_555 1_555
H9 C8 1_555 1_555
H10 C8 1_555 1_555
H11 C9 1_555 1_555
H12 C9 1_555 1_555
H13 C10 1_555 1_555
H14 C10 1_555 1_555
H15 C11 1_555 1_555
H16 C11 1_555 1_555
H17 C13 1_555 1_555
H18 C14 1_555 1_555
H19 C15 1_555 1_555
H20 C16 1_555 1_555
H21 C17 1_555 1_555
H22 C18 1_555 1_555
H23 C19 1_555 1_555
H24 C20 1_555 1_555
H25 C22 1_555 1_555
H26 C23 1_555 1_555
H27 C24 1_555 1_555
C3 O2 1_555 1_555
C5 O3 1_555 1_555
C7 O4 1_555 1_555
C9 O5 1_555 1_555
C16 C17 1_555 1_555
C20 C21 1_555 1_555
C23 C24 1_555 1_555

#END
