
#######################################################################
#
#                 Cambridge Crystallographic Data Centre
#                                CCDC 
#
#######################################################################
#
# If this CIF has been generated from an entry in the Cambridge 
# Structural Database, then it will include bibliographic, chemical, 
# crystal, experimental, refinement or atomic coordinate data resulting 
# from the CCDC's data processing and validation procedures.
#
#######################################################################

data_COYBOJ
_chemical_formula_moiety         'C14 H18 O5'
_chemical_name_systematic        
'Ethyl 2,4-dihydroxy-6-methyl-3-(tetrahydrofuran-2-yl)benzoate'
_symmetry_cell_setting           triclinic
_symmetry_space_group_name_H-M   'P -1'
_symmetry_Int_Tables_number      2
_space_group_name_Hall           '-P 1'
loop_
_symmetry_equiv_pos_site_id
_symmetry_equiv_pos_as_xyz
1 x,y,z
2 -x,-y,-z
_cell_length_a                   7.2523(13)
_cell_length_b                   8.6739(16)
_cell_length_c                   11.612(2)
_cell_angle_alpha                92.181(4)
_cell_angle_beta                 99.739(4)
_cell_angle_gamma                114.099(4)
_cell_volume                     652.51
_exptl_crystal_colour            colorless
_exptl_crystal_description       plate
_chemical_melting_point          '373 K'
_cell_formula_units_Z            2
_exptl_crystal_recrystallization_method 'Hexane/ethyl acetate'
loop_
_atom_site_label
_atom_site_type_symbol
_atom_site_fract_x
_atom_site_fract_y
_atom_site_fract_z
C1 C 0.8702(5) 0.1089(4) 0.1228(3)
C2 C 0.9981(5) 0.2834(4) 0.1606(3)
O1 O 1.0351(4) 0.4015(3) 0.0838(2)
H1 H 0.9761 0.3533 0.0152
C3 C 1.0930(5) 0.3478(4) 0.2775(3)
C4 C 1.0601(5) 0.2301(4) 0.3602(3)
O2 O 1.1482(4) 0.2768(3) 0.4757(2)
H2 H 1.2378 0.3778 0.4854
C5 C 0.9331(5) 0.0579(4) 0.3250(3)
H3 H 0.9108 -0.0181 0.3833
C6 C 0.8393(5) -0.0063(4) 0.2103(3)
C7 C 0.7070(5) -0.1950(4) 0.1839(3)
H4 H 0.7035 -0.2470 0.2574
H5 H 0.7650 -0.2458 0.1313
H6 H 0.5666 -0.2149 0.1458
C8 C 0.7832(5) 0.0597(4) -0.0030(3)
O3 O 0.8091(4) 0.1607(3) -0.0774(2)
O4 O 0.6682(4) -0.1054(3) -0.0352(2)
C9 C 0.5856(5) -0.1627(4) -0.1597(3)
H7 H 0.6986 -0.1323 -0.2039
H8 H 0.4930 -0.1098 -0.1917
C10 C 0.4683(6) -0.3522(4) -0.1693(3)
H9 H 0.5600 -0.4019 -0.1328
H10 H 0.4160 -0.3986 -0.2525
H11 H 0.3523 -0.3800 -0.1291
C11 C 1.2209(5) 0.5368(4) 0.3071(3)
H12 H 1.2999 0.5783 0.2434
C12 C 1.1049(6) 0.6430(4) 0.3221(3)
H13 H 0.9911 0.5859 0.3638
H14 H 1.0482 0.6686 0.2452
C13 C 1.2716(6) 0.8030(4) 0.3958(3)
H15 H 1.3587 0.8800 0.3465
H16 H 1.2113 0.8649 0.4392
C14 C 1.3919(7) 0.7331(5) 0.4780(4)
H17 H 1.5393 0.8141 0.4978
H18 H 1.3387 0.7130 0.5517
O5 O 1.3679(4) 0.5745(3) 0.4179(2)
loop_
_geom_bond_atom_site_label_1
_geom_bond_atom_site_label_2
_geom_bond_site_symmetry_1
_geom_bond_site_symmetry_2
C1 C2 1_555 1_555
C2 O1 1_555 1_555
O1 H1 1_555 1_555
C3 C2 1_555 1_555
C4 C3 1_555 1_555
O2 C4 1_555 1_555
H2 O2 1_555 1_555
C5 C4 1_555 1_555
H3 C5 1_555 1_555
C6 C1 1_555 1_555
C7 C6 1_555 1_555
H4 C7 1_555 1_555
H5 C7 1_555 1_555
H6 C7 1_555 1_555
C8 C1 1_555 1_555
O3 C8 1_555 1_555
O4 C8 1_555 1_555
C9 O4 1_555 1_555
H7 C9 1_555 1_555
H8 C9 1_555 1_555
C10 C9 1_555 1_555
H9 C10 1_555 1_555
H10 C10 1_555 1_555
H11 C10 1_555 1_555
C11 C3 1_555 1_555
H12 C11 1_555 1_555
C12 C11 1_555 1_555
H13 C12 1_555 1_555
H14 C12 1_555 1_555
C13 C12 1_555 1_555
H15 C13 1_555 1_555
H16 C13 1_555 1_555
C14 C13 1_555 1_555
H17 C14 1_555 1_555
H18 C14 1_555 1_555
O5 C11 1_555 1_555
C5 C6 1_555 1_555
C14 O5 1_555 1_555

#END
