
#######################################################################
#
#                 Cambridge Crystallographic Data Centre
#                                CCDC 
#
#######################################################################
#
# If this CIF has been generated from an entry in the Cambridge 
# Structural Database, then it will include bibliographic, chemical, 
# crystal, experimental, refinement or atomic coordinate data resulting 
# from the CCDC's data processing and validation procedures.
#
#######################################################################

data_COYGOM01
_chemical_formula_moiety         'C16 H11 Cl5'
_chemical_name_systematic        
r-1,c-2,c-3,t-4,5-Pentachloro-6-phenyltetralin
_symmetry_cell_setting           monoclinic
_symmetry_space_group_name_H-M   'P 21/c'
_symmetry_Int_Tables_number      14
_space_group_name_Hall           '-P 2ybc'
loop_
_symmetry_equiv_pos_site_id
_symmetry_equiv_pos_as_xyz
1 x,y,z
2 x,1/2-y,1/2+z
3 -x,-y,-z
4 -x,1/2+y,1/2-z
_cell_length_a                   13.321(3)
_cell_length_b                   9.101(2)
_cell_length_c                   14.279(3)
_cell_angle_alpha                90
_cell_angle_beta                 112.77(3)
_cell_angle_gamma                90
_cell_volume                     1596.19
_exptl_crystal_colour            colorless
_exptl_crystal_description       'regular prismatic'
_cell_formula_units_Z            4
_exptl_crystal_recrystallization_method 'light petroleum'
loop_
_atom_site_label
_atom_site_type_symbol
_atom_site_fract_x
_atom_site_fract_y
_atom_site_fract_z
Cl1 Cl 0.57593(10) 0.33146(13) 0.59486(7)
Cl2 Cl 0.56503(10) 0.66582(13) 0.68167(8)
Cl3 Cl 0.58413(9) 0.48844(13) 0.93911(8)
Cl4 Cl 0.86867(10) 0.56966(15) 0.87736(10)
Cl5 Cl 0.86394(11) 0.25868(14) 1.09706(7)
C1 C 0.7897(3) 0.0557(4) 0.9475(3)
C2 C 0.7379(3) 0.0184(4) 0.8461(3)
H1 H 0.7324(3) -0.0804(4) 0.8280(3)
C3 C 0.6939(3) 0.1226(4) 0.7705(3)
H2 H 0.6591(3) 0.0935(4) 0.7031(3)
C4 C 0.7018(3) 0.2693(4) 0.7954(3)
C5 C 0.6507(5) 0.3928(5) 0.7197(3)
H3 H 0.7130(5) 0.4448(5) 0.7151(3)
C6 C 0.5970(4) 0.5012(6) 0.7558(4)
H4 H 0.5276(4) 0.4583(6) 0.7507(4)
C7 C 0.6586(4) 0.5459(6) 0.8684(4)
H5 H 0.6661(4) 0.6531(6) 0.8727(4)
C8 C 0.7695(6) 0.4772(9) 0.9189(6)
H6 H 0.7933(6) 0.4910(9) 0.9924(6)
C12 C 0.7561(4) 0.3119(4) 0.8967(3)
C13 C 0.7993(3) 0.2046(5) 0.9707(3)
C14 C 0.8309(3) -0.0621(4) 1.0268(3)
C15 C 0.9419(4) -0.0793(6) 1.0834(3)
H10 H 0.9913(4) -0.0126(6) 1.0761(3)
C16 C 0.9789(4) -0.1964(6) 1.1508(4)
H11 H 1.0532(4) -0.2111(6) 1.1855(4)
C17 C 0.9062(5) -0.2898(5) 1.1661(3)
H12 H 0.9310(5) -0.3681(5) 1.2110(3)
C18 C 0.7977(4) -0.2678(5) 1.1153(3)
H13 H 0.7485(4) -0.3296(5) 1.1277(3)
C19 C 0.7589(4) -0.1545(4) 1.0454(3)
H14 H 0.6843(4) -0.1411(4) 1.0111(3)
C9? C 0.6734(10) 0.5267(14) 0.7414(9)
H7? H 0.7245(10) 0.5472(14) 0.7088(9)
C10? C 0.7417(12) 0.5640(15) 0.8533(11)
H8? H 0.7196(12) 0.6617(15) 0.8670(11)
C11? C 0.7276(15) 0.458(2) 0.9292(16)
H9? H 0.7840(15) 0.481(2) 0.9959(16)
loop_
_geom_bond_atom_site_label_1
_geom_bond_atom_site_label_2
_geom_bond_site_symmetry_1
_geom_bond_site_symmetry_2
Cl1 C5 1_555 1_555
Cl2 C6 1_555 1_555
Cl3 C7 1_555 1_555
Cl4 C8 1_555 1_555
Cl5 C13 1_555 1_555
C1 C2 1_555 1_555
C2 H1 1_555 1_555
C3 C2 1_555 1_555
H2 C3 1_555 1_555
C4 C3 1_555 1_555
C5 C4 1_555 1_555
H3 C5 1_555 1_555
C6 C5 1_555 1_555
H4 C6 1_555 1_555
C7 C6 1_555 1_555
H5 C7 1_555 1_555
C8 C7 1_555 1_555
H6 C8 1_555 1_555
C12 C4 1_555 1_555
C13 C1 1_555 1_555
C14 C1 1_555 1_555
C15 C14 1_555 1_555
H10 C15 1_555 1_555
C16 C15 1_555 1_555
H11 C16 1_555 1_555
C17 C16 1_555 1_555
H12 C17 1_555 1_555
C18 C17 1_555 1_555
H13 C18 1_555 1_555
C19 C14 1_555 1_555
H14 C19 1_555 1_555
C8 C12 1_555 1_555
C12 C13 1_555 1_555
C18 C19 1_555 1_555

#END
