
#######################################################################
#
#                 Cambridge Crystallographic Data Centre
#                                CCDC 
#
#######################################################################
#
# If this CIF has been generated from an entry in the Cambridge 
# Structural Database, then it will include bibliographic, chemical, 
# crystal, experimental, refinement or atomic coordinate data resulting 
# from the CCDC's data processing and validation procedures.
#
#######################################################################

data_COZBOI
_chemical_formula_moiety         'C25 H47 P1 Si2'
_chemical_name_systematic        
bis(Trimethylsilyl)methylene-(2,4,6-tri-t-butylphenyl)-phosphine
_symmetry_cell_setting           triclinic
_symmetry_space_group_name_H-M   'P -1'
_symmetry_Int_Tables_number      2
_space_group_name_Hall           '-P 1'
loop_
_symmetry_equiv_pos_site_id
_symmetry_equiv_pos_as_xyz
1 x,y,z
2 -x,-y,-z
_cell_length_a                   9.118(5)
_cell_length_b                   11.860(8)
_cell_length_c                   14.403(6)
_cell_angle_alpha                69.41(4)
_cell_angle_beta                 79.61(4)
_cell_angle_gamma                83.63(5)
_cell_volume                     1432.22
_cell_formula_units_Z            2
loop_
_atom_site_label
_atom_site_type_symbol
_atom_site_fract_x
_atom_site_fract_y
_atom_site_fract_z
P1 P 0.3823(1) 0.1575(1) 0.33602(8)
Si1 Si 0.3188(2) 0.2863(1) 0.47538(9)
Si2 Si 0.1474(2) 0.3895(1) 0.2797(1)
C1 C 0.3715(4) 0.1515(3) 0.2110(3)
C2 C 0.4715(4) 0.2160(3) 0.1260(3)
C3 C 0.4436(5) 0.2263(4) 0.0320(4)
C4 C 0.3282(5) 0.1725(4) 0.0166(3)
C5 C 0.2450(5) 0.0977(4) 0.1009(3)
C6 C 0.2646(5) 0.0818(4) 0.1981(3)
C7 C 0.2798(5) 0.2745(4) 0.3546(3)
C8 C 0.4974(8) 0.3604(6) 0.4507(4)
C9 C 0.1752(8) 0.3716(6) 0.5341(4)
C10 C 0.3377(6) 0.1367(3) 0.5722(4)
C11 C 0.2009(7) 0.5423(5) 0.2642(4)
C12 C -0.0453(6) 0.3648(5) 0.3515(4)
C13 C 0.1359(6) 0.3859(4) 0.1546(1)
C14 C 0.6147(5) 0.2747(4) 0.1309(3)
C15 C 0.5754(6) 0.3934(4) 0.1478(4)
C16 C 0.7005(5) 0.1888(5) 0.2117(4)
C17 C 0.7219(6) 0.2990(5) 0.0320(4)
C18 C 0.2958(5) 0.1910(4) -0.0884(3)
C19 C 0.4079(9) 0.2778(7) -0.1769(6)
C20 C 0.134(1) 0.2517(8) -0.0983(7)
C21 C 0.306(1) 0.0685(7) -0.1068(6)
C22 C 0.1720(5) -0.0138(4) 0.2858(4)
C23 C 0.0543(6) 0.0431(5) 0.3461(4)
C24 C 0.0921(7) -0.0903(5) 0.2466(5)
C25 C 0.2767(7) -0.0995(5) 0.3526(5)
H1 H 0.505(4) 0.272(3) -0.024(3)
H2 H 0.188(4) 0.048(3) 0.096(3)
H3 H 0.486(4) 0.440(3) 0.399(3)
H4 H 0.514(4) 0.368(3) 0.509(3)
H5 H 0.556(4) 0.350(3) 0.403(3)
H6 H 0.086(4) 0.352(3) 0.535(3)
H7 H 0.202(4) 0.367(3) 0.601(3)
H8 H 0.151(4) 0.455(3) 0.500(3)
H9 H 0.389(4) 0.093(3) 0.545(3)
H10 H 0.348(4) 0.146(3) 0.638(3)
H11 H 0.256(4) 0.097(3) 0.580(3)
H12 H 0.158(4) 0.597(3) 0.223(3)
H13 H 0.194(4) 0.558(3) 0.326(3)
H14 H 0.284(4) 0.561(3) 0.219(3)
H15 H -0.113(4) 0.423(3) 0.324(3)
H16 H -0.076(4) 0.280(3) 0.361(3)
H17 H -0.054(4) 0.371(3) 0.413(3)
H18 H 0.079(4) 0.449(3) 0.123(3)
H19 H 0.116(4) 0.314(3) 0.151(3)
H20 H 0.220(4) 0.396(3) 0.111(3)
H21 H 0.538(4) 0.445(3) 0.093(3)
H22 H 0.527(4) 0.385(3) 0.210(3)
H23 H 0.650(4) 0.433(3) 0.145(3)
H24 H 0.656(4) 0.187(3) 0.281(3)
H25 H 0.722(4) 0.115(3) 0.197(3)
H26 H 0.783(4) 0.225(3) 0.211(3)
H27 H 0.748(4) 0.221(3) 0.015(3)
H28 H 0.692(4) 0.362(3) -0.030(3)
H29 H 0.789(4) 0.322(3) 0.040(3)
H30 H 0.002(4) -0.012(3) 0.399(3)
H31 H 0.087(4) 0.078(3) 0.386(3)
H32 H 0.003(4) 0.094(3) 0.302(3)
H33 H 0.158(4) -0.133(3) 0.199(3)
H34 H 0.054(4) -0.147(3) 0.299(3)
H35 H 0.021(4) -0.046(3) 0.206(3)
H36 H 0.331(4) -0.150(3) 0.315(3)
H37 H 0.288(4) -0.059(3) 0.404(3)
H38 H 0.231(4) -0.152(3) 0.401(3)
loop_
_geom_bond_atom_site_label_1
_geom_bond_atom_site_label_2
_geom_bond_site_symmetry_1
_geom_bond_site_symmetry_2
P1 C1 1_555 1_555
Si1 C7 1_555 1_555
Si2 C7 1_555 1_555
C1 C2 1_555 1_555
C2 C3 1_555 1_555
C3 C4 1_555 1_555
C4 C5 1_555 1_555
C5 C6 1_555 1_555
C6 C1 1_555 1_555
C7 P1 1_555 1_555
C8 Si1 1_555 1_555
C9 Si1 1_555 1_555
C10 Si1 1_555 1_555
C11 Si2 1_555 1_555
C12 Si2 1_555 1_555
C13 Si2 1_555 1_555
C14 C2 1_555 1_555
C15 C14 1_555 1_555
C16 C14 1_555 1_555
C17 C14 1_555 1_555
C18 C4 1_555 1_555
C19 C18 1_555 1_555
C20 C18 1_555 1_555
C21 C18 1_555 1_555
C22 C6 1_555 1_555
C23 C22 1_555 1_555
C24 C22 1_555 1_555
C25 C22 1_555 1_555
H1 C3 1_555 1_555
H2 C5 1_555 1_555
H3 C8 1_555 1_555
H4 C8 1_555 1_555
H5 C8 1_555 1_555
H6 C9 1_555 1_555
H7 C9 1_555 1_555
H8 C9 1_555 1_555
H9 C10 1_555 1_555
H10 C10 1_555 1_555
H11 C10 1_555 1_555
H12 C11 1_555 1_555
H13 C11 1_555 1_555
H14 C11 1_555 1_555
H15 C12 1_555 1_555
H16 C12 1_555 1_555
H17 C12 1_555 1_555
H18 C13 1_555 1_555
H19 C13 1_555 1_555
H20 C13 1_555 1_555
H21 C15 1_555 1_555
H22 C15 1_555 1_555
H23 C15 1_555 1_555
H24 C16 1_555 1_555
H25 C16 1_555 1_555
H26 C16 1_555 1_555
H27 C17 1_555 1_555
H28 C17 1_555 1_555
H29 C17 1_555 1_555
H30 C23 1_555 1_555
H31 C23 1_555 1_555
H32 C23 1_555 1_555
H33 C24 1_555 1_555
H34 C24 1_555 1_555
H35 C24 1_555 1_555
H36 C25 1_555 1_555
H37 C25 1_555 1_555
H38 C25 1_555 1_555

#END
