
#######################################################################
#
#                 Cambridge Crystallographic Data Centre
#                                CCDC 
#
#######################################################################
#
# If this CIF has been generated from an entry in the Cambridge 
# Structural Database, then it will include bibliographic, chemical, 
# crystal, experimental, refinement or atomic coordinate data resulting 
# from the CCDC's data processing and validation procedures.
#
#######################################################################

data_COZJOR
_chemical_formula_moiety         'C20 H13 F1 N2 O1'
_chemical_name_systematic        
2-(4-Biphenyl)-5-(4-fluorophenyl)-1,3,4-oxadiazole
_symmetry_cell_setting           monoclinic
_symmetry_space_group_name_H-M   'P 21/c'
_symmetry_Int_Tables_number      14
_space_group_name_Hall           '-P 2ybc'
loop_
_symmetry_equiv_pos_site_id
_symmetry_equiv_pos_as_xyz
1 x,y,z
2 -x,1/2+y,1/2-z
3 -x,-y,-z
4 x,1/2-y,1/2+z
_cell_length_a                   8.9390(18)
_cell_length_b                   11.277(2)
_cell_length_c                   15.232(3)
_cell_angle_alpha                90
_cell_angle_beta                 94.09(3)
_cell_angle_gamma                90
_cell_volume                     1531.55
_exptl_crystal_colour            colorless
_exptl_crystal_description       block
_cell_formula_units_Z            4
_exptl_crystal_recrystallization_method dichloromethane
loop_
_atom_site_label
_atom_site_type_symbol
_atom_site_fract_x
_atom_site_fract_y
_atom_site_fract_z
O1 O -0.00509(18) 0.23077(14) 1.01062(11)
N1 N 0.0528(3) 0.1987(2) 1.15114(14)
N2 N 0.1379(2) 0.2947(2) 1.12414(14)
F1 F -0.4387(2) -0.20188(18) 1.05228(14)
C1 C -0.0291(3) 0.1649(2) 1.08280(16)
C2 C -0.1379(3) 0.0695(2) 1.07478(16)
C3 C -0.2136(3) 0.0439(2) 0.99445(18)
H1 H -0.1949 0.0886 0.9451
C4 C -0.3158(3) -0.0470(3) 0.9871(2)
H2 H -0.3678 -0.0640 0.9335
C5 C -0.3391(3) -0.1118(3) 1.0607(2)
C6 C -0.2680(4) -0.0893(3) 1.1408(2)
H3 H -0.2874 -0.1348 1.1896
C7 C -0.1666(3) 0.0025(3) 1.14772(18)
H4 H -0.1170 0.0196 1.2020
C8 C 0.1002(3) 0.3098(2) 1.04205(17)
C9 C 0.1571(3) 0.3969(2) 0.98214(16)
C10 C 0.1237(3) 0.3927(2) 0.89203(16)
H5 H 0.0632 0.3321 0.8679
C11 C 0.1791(3) 0.4771(2) 0.83789(16)
H6 H 0.1559 0.4725 0.7775
C12 C 0.2689(2) 0.5690(2) 0.87148(15)
C13 C 0.3250(3) 0.6613(2) 0.81352(15)
C14 C 0.2386(3) 0.7006(2) 0.74001(17)
H7 H 0.1445 0.6674 0.7267
C15 C 0.2896(3) 0.7876(3) 0.68652(19)
H8 H 0.2296 0.8132 0.6378
C16 C 0.4285(3) 0.8370(3) 0.70470(18)
H9 H 0.4625 0.8962 0.6686
C17 C 0.5168(3) 0.7987(3) 0.77598(18)
H10 H 0.6117 0.8312 0.7879
C18 C 0.4657(3) 0.7119(2) 0.83050(18)
H11 H 0.5264 0.6870 0.8792
C19 C 0.3043(3) 0.5712(2) 0.96220(16)
H12 H 0.3663 0.6308 0.9863
C20 C 0.2493(3) 0.4873(2) 1.01632(16)
H13 H 0.2739 0.4908 1.0766
loop_
_geom_bond_atom_site_label_1
_geom_bond_atom_site_label_2
_geom_bond_site_symmetry_1
_geom_bond_site_symmetry_2
O1 C1 1_555 1_555
N1 N2 1_555 1_555
N2 C8 1_555 1_555
F1 C5 1_555 1_555
C1 N1 1_555 1_555
C2 C1 1_555 1_555
C3 C2 1_555 1_555
H1 C3 1_555 1_555
C4 C3 1_555 1_555
H2 C4 1_555 1_555
C5 C4 1_555 1_555
C6 C5 1_555 1_555
H3 C6 1_555 1_555
C7 C2 1_555 1_555
H4 C7 1_555 1_555
C8 O1 1_555 1_555
C9 C8 1_555 1_555
C10 C9 1_555 1_555
H5 C10 1_555 1_555
C11 C10 1_555 1_555
H6 C11 1_555 1_555
C12 C11 1_555 1_555
C13 C12 1_555 1_555
C14 C13 1_555 1_555
H7 C14 1_555 1_555
C15 C14 1_555 1_555
H8 C15 1_555 1_555
C16 C15 1_555 1_555
H9 C16 1_555 1_555
C17 C16 1_555 1_555
H10 C17 1_555 1_555
C18 C13 1_555 1_555
H11 C18 1_555 1_555
C19 C12 1_555 1_555
H12 C19 1_555 1_555
C20 C9 1_555 1_555
H13 C20 1_555 1_555
C6 C7 1_555 1_555
C17 C18 1_555 1_555
C19 C20 1_555 1_555

#END
