
#######################################################################
#
#                 Cambridge Crystallographic Data Centre
#                                CCDC 
#
#######################################################################
#
# If this CIF has been generated from an entry in the Cambridge 
# Structural Database, then it will include bibliographic, chemical, 
# crystal, experimental, refinement or atomic coordinate data resulting 
# from the CCDC's data processing and validation procedures.
#
#######################################################################

data_COZLAG
_chemical_formula_moiety         'C26 H21 Br1 O3'
_chemical_name_systematic        
'ethyl 2-(3-bromophenyl)-5-(diphenylmethylene)-2,5-dihydrofuran-3-carboxylate'
_symmetry_cell_setting           triclinic
_symmetry_space_group_name_H-M   'P -1'
_symmetry_Int_Tables_number      2
_space_group_name_Hall           '-P 1'
loop_
_symmetry_equiv_pos_site_id
_symmetry_equiv_pos_as_xyz
1 x,y,z
2 -x,-y,-z
_cell_length_a                   10.38(2)
_cell_length_b                   11.11(2)
_cell_length_c                   11.26(2)
_cell_angle_alpha                62.49(2)
_cell_angle_beta                 75.101(19)
_cell_angle_gamma                72.91(2)
_cell_volume                     1089.5
_exptl_crystal_colour            colorless
_exptl_crystal_description       block
_cell_formula_units_Z            2
loop_
_atom_site_label
_atom_site_type_symbol
_atom_site_fract_x
_atom_site_fract_y
_atom_site_fract_z
Br1 Br 0.52980(6) 0.31586(11) 0.45527(9)
C1 C -0.0211(4) 0.2212(5) 0.2302(5)
C2 C -0.1047(4) 0.1985(4) 0.3583(5)
H1 H -0.1975 0.1999 0.3746
C3 C -0.0321(4) 0.1753(4) 0.4504(5)
C4 C 0.1137(4) 0.1818(5) 0.3849(4)
H2 H 0.1720 0.0905 0.4267
C5 C -0.0492(4) 0.2490(5) 0.1090(4)
C6 C 0.0544(4) 0.2839(5) -0.0125(4)
C7 C 0.0726(5) 0.2278(5) -0.1053(5)
H3 H 0.0174 0.1690 -0.0924
C8 C 0.1723(6) 0.2596(6) -0.2160(5)
H4 H 0.1846 0.2205 -0.2765
C9 C 0.2527(5) 0.3465(7) -0.2389(5)
H5 H 0.3192 0.3671 -0.3145
C10 C 0.2350(5) 0.4041(6) -0.1491(5)
H6 H 0.2895 0.4642 -0.1640
C11 C 0.1374(5) 0.3728(5) -0.0385(5)
H7 H 0.1264 0.4124 0.0213
C12 C -0.1859(4) 0.2445(5) 0.0965(5)
C13 C -0.2559(5) 0.3509(5) -0.0038(5)
H8 H -0.2154 0.4252 -0.0658
C14 C -0.3851(6) 0.3502(6) -0.0148(6)
H9 H -0.4307 0.4235 -0.0834
C15 C -0.4456(6) 0.2421(8) 0.0747(7)
H10 H -0.5331 0.2420 0.0681
C16 C -0.3776(6) 0.1338(7) 0.1739(6)
H11 H -0.4185 0.0596 0.2348
C17 C -0.2484(5) 0.1343(6) 0.1841(5)
H12 H -0.2023 0.0592 0.2512
C18 C 0.1707(4) 0.2897(5) 0.3876(4)
C19 C 0.3005(5) 0.2600(6) 0.4147(5)
H13 H 0.3534 0.1715 0.4329
C20 C 0.3532(5) 0.3588(7) 0.4154(5)
C21 C 0.2781(6) 0.4891(7) 0.3903(5)
H14 H 0.3144 0.5555 0.3917
C22 C 0.1478(6) 0.5205(6) 0.3628(5)
H15 H 0.0952 0.6089 0.3456
C23 C 0.0942(5) 0.4215(6) 0.3605(5)
H16 H 0.0062 0.4440 0.3405
C24 C -0.0697(5) 0.1466(5) 0.5932(5)
C25 C -0.2414(6) 0.1031(6) 0.7833(5)
H17 H -0.1727 0.0277 0.8327
H18 H -0.2487 0.1816 0.8026
C26 C -0.3681(7) 0.0615(9) 0.8260(7)
H19 H -0.4387 0.1405 0.7890
H20 H -0.3869 0.0226 0.9230
H21 H -0.3646 -0.0068 0.7949
O1 O 0.1103(3) 0.2113(3) 0.2469(3)
O2 O 0.0098(3) 0.1294(4) 0.6630(3)
O3 O -0.2005(3) 0.1415(4) 0.6380(3)
loop_
_geom_bond_atom_site_label_1
_geom_bond_atom_site_label_2
_geom_bond_site_symmetry_1
_geom_bond_site_symmetry_2
Br1 C20 1_555 1_555
C1 C2 1_555 1_555
C2 H1 1_555 1_555
C3 C2 1_555 1_555
C4 C3 1_555 1_555
H2 C4 1_555 1_555
C5 C1 1_555 1_555
C6 C5 1_555 1_555
C7 C6 1_555 1_555
H3 C7 1_555 1_555
C8 C7 1_555 1_555
H4 C8 1_555 1_555
C9 C8 1_555 1_555
H5 C9 1_555 1_555
C10 C9 1_555 1_555
H6 C10 1_555 1_555
C11 C6 1_555 1_555
H7 C11 1_555 1_555
C12 C5 1_555 1_555
C13 C12 1_555 1_555
H8 C13 1_555 1_555
C14 C13 1_555 1_555
H9 C14 1_555 1_555
C15 C14 1_555 1_555
H10 C15 1_555 1_555
C16 C15 1_555 1_555
H11 C16 1_555 1_555
C17 C12 1_555 1_555
H12 C17 1_555 1_555
C18 C4 1_555 1_555
C19 C18 1_555 1_555
H13 C19 1_555 1_555
C20 C19 1_555 1_555
C21 C20 1_555 1_555
H14 C21 1_555 1_555
C22 C21 1_555 1_555
H15 C22 1_555 1_555
C23 C18 1_555 1_555
H16 C23 1_555 1_555
C24 C3 1_555 1_555
C25 H17 1_555 1_555
H18 C25 1_555 1_555
C26 C25 1_555 1_555
H19 C26 1_555 1_555
H20 C26 1_555 1_555
H21 C26 1_555 1_555
O1 C1 1_555 1_555
O2 C24 1_555 1_555
O3 C24 1_555 1_555
C4 O1 1_555 1_555
C10 C11 1_555 1_555
C16 C17 1_555 1_555
C22 C23 1_555 1_555
C25 O3 1_555 1_555

#END
