
#######################################################################
#
#                 Cambridge Crystallographic Data Centre
#                                CCDC 
#
#######################################################################
#
# If this CIF has been generated from an entry in the Cambridge 
# Structural Database, then it will include bibliographic, chemical, 
# crystal, experimental, refinement or atomic coordinate data resulting 
# from the CCDC's data processing and validation procedures.
#
#######################################################################

data_COZPUD
_chemical_formula_moiety         'C16 H11 Cl1 F3 N1 O1'
_chemical_name_systematic        
1-(4-Chlorophenyl)-2,2,2-trifluoro-1-(1H-indole-3-yl)ethanol
_symmetry_cell_setting           orthorhombic
_symmetry_space_group_name_H-M   'P 21 21 21'
_symmetry_Int_Tables_number      19
_space_group_name_Hall           'P 2ac 2ab'
loop_
_symmetry_equiv_pos_site_id
_symmetry_equiv_pos_as_xyz
1 x,y,z
2 1/2-x,-y,1/2+z
3 -x,1/2+y,1/2-z
4 1/2+x,1/2-y,-z
_cell_length_a                   7.4634(15)
_cell_length_b                   13.393(3)
_cell_length_c                   15.347(3)
_cell_angle_alpha                90
_cell_angle_beta                 90
_cell_angle_gamma                90
_cell_volume                     1534.04
_exptl_crystal_colour            colorless
_exptl_crystal_description       block
_chemical_melting_point          '112-113 deg.C'
_cell_formula_units_Z            4
loop_
_atom_site_label
_atom_site_type_symbol
_atom_site_fract_x
_atom_site_fract_y
_atom_site_fract_z
Cl1 Cl -0.10773(15) 0.81613(7) 0.47079(6)
O1 O -0.0720(3) 0.87375(19) 0.90041(16)
C1 C 0.4846(4) 0.7836(3) 0.89830(18)
F1 F 0.0610(3) 1.06189(15) 0.93693(13)
C2 C -0.0583(5) 0.8439(2) 0.57960(19)
C3 C 0.2455(3) 0.8860(2) 0.87110(17)
C4 C 0.0158(4) 0.8887(2) 0.75128(19)
C5 C 0.1041(5) 0.8828(3) 0.6007(2)
H1 H 0.1892 0.8944 0.5576
C6 C 0.3015(4) 0.7831(2) 0.87459(17)
F2 F -0.1337(3) 1.05786(17) 0.83331(14)
C7 C 0.0601(4) 0.9184(2) 0.84505(19)
C8 C -0.1841(4) 0.8252(2) 0.6423(2)
H2 H -0.2936 0.7968 0.6274
F3 F 0.1435(3) 1.08398(14) 0.80416(15)
C9 C 0.5830(5) 0.6959(3) 0.9058(2)
H3 H 0.7037 0.6970 0.9210
C10 C 0.3912(4) 0.9420(2) 0.8918(2)
H4 H 0.3938 1.0114 0.8939
N1 N 0.5329(4) 0.8811(3) 0.9090(2)
C11 C -0.1469(4) 0.8490(2) 0.7284(2)
H5 H -0.2332 0.8379 0.7710
C12 C 0.2165(5) 0.6920(3) 0.8597(2)
H6 H 0.0958 0.6899 0.8447
C13 C 0.1417(4) 0.9049(2) 0.6866(2)
H7 H 0.2532 0.9310 0.7012
C14 C 0.0331(5) 1.0313(3) 0.8544(2)
C15 C 0.4952(7) 0.6075(3) 0.8898(2)
H8 H 0.5581 0.5477 0.8939
C16 C 0.3136(6) 0.6055(3) 0.8675(3)
H9 H 0.2576 0.5444 0.8579
H10 H -0.033(4) 0.864(2) 0.950(2)
H11 H 0.622(5) 0.904(3) 0.918(2)
loop_
_geom_bond_atom_site_label_1
_geom_bond_atom_site_label_2
_geom_bond_site_symmetry_1
_geom_bond_site_symmetry_2
Cl1 C2 1_555 1_555
O1 C7 1_555 1_555
C1 C6 1_555 1_555
F1 C14 1_555 1_555
C2 C5 1_555 1_555
C3 C6 1_555 1_555
C4 C7 1_555 1_555
C5 H1 1_555 1_555
C6 C12 1_555 1_555
F2 C14 1_555 1_555
C7 C3 1_555 1_555
C8 C2 1_555 1_555
H2 C8 1_555 1_555
F3 C14 1_555 1_555
C9 C1 1_555 1_555
H3 C9 1_555 1_555
C10 C3 1_555 1_555
H4 C10 1_555 1_555
N1 C1 1_555 1_555
C11 C4 1_555 1_555
H5 C11 1_555 1_555
C12 H6 1_555 1_555
C13 C4 1_555 1_555
H7 C13 1_555 1_555
C14 C7 1_555 1_555
C15 C9 1_555 1_555
H8 C15 1_555 1_555
C16 C12 1_555 1_555
H9 C16 1_555 1_555
H10 O1 1_555 1_555
H11 N1 1_555 1_555
C5 C13 1_555 1_555
C8 C11 1_555 1_555
C10 N1 1_555 1_555
C15 C16 1_555 1_555

#END
