
#######################################################################
#
#                 Cambridge Crystallographic Data Centre
#                                CCDC 
#
#######################################################################
#
# If this CIF has been generated from an entry in the Cambridge 
# Structural Database, then it will include bibliographic, chemical, 
# crystal, experimental, refinement or atomic coordinate data resulting 
# from the CCDC's data processing and validation procedures.
#
#######################################################################

data_COZZOI
_chemical_formula_moiety         'C22 H17 N1 O2'
_chemical_name_systematic        
'phenyl 1-benzyl-1H-indole-3-carboxylate unknown solvate'
_symmetry_cell_setting           monoclinic
_symmetry_space_group_name_H-M   'P 21/n'
_symmetry_Int_Tables_number      14
_space_group_name_Hall           '-P 2yn'
loop_
_symmetry_equiv_pos_site_id
_symmetry_equiv_pos_as_xyz
1 x,y,z
2 1/2-x,1/2+y,1/2-z
3 -x,-y,-z
4 1/2+x,1/2-y,1/2+z
_cell_length_a                   11.71490(16)
_cell_length_b                   11.30687(12)
_cell_length_c                   13.08437(17)
_cell_angle_alpha                90
_cell_angle_beta                 95.1593(12)
_cell_angle_gamma                90
_cell_volume                     1726.12
_cell_formula_units_Z            4
loop_
_atom_site_label
_atom_site_type_symbol
_atom_site_fract_x
_atom_site_fract_y
_atom_site_fract_z
O1 O -0.04469(10) 0.27767(11) 0.37113(10)
O2 O 0.03931(10) 0.44230(10) 0.31613(11)
N1 N 0.34209(11) 0.26332(12) 0.33933(9)
C1 C 0.30729(13) 0.15518(13) 0.37594(10)
C2 C 0.24970(13) 0.33484(13) 0.32477(11)
H1 H 0.2514 0.4122 0.3009
C3 C 0.15336(12) 0.27773(13) 0.34998(11)
C4 C 0.18828(13) 0.16046(12) 0.38228(10)
C5 C 0.13148(15) 0.06035(14) 0.41467(12)
H2 H 0.0527 0.0612 0.4191
C6 C 0.19517(18) -0.03968(15) 0.43992(14)
H3 H 0.1584 -0.1071 0.4611
C7 C 0.31306(18) -0.04206(15) 0.43444(14)
H4 H 0.3534 -0.1109 0.4527
C8 C 0.37141(15) 0.05420(15) 0.40289(12)
H5 H 0.4504 0.0524 0.3996
C9 C 0.03975(14) 0.32691(13) 0.34753(11)
C10 C 0.45945(14) 0.29723(16) 0.32514(12)
H6 H 0.4578 0.3670 0.2818
H7 H 0.4949 0.2340 0.2891
C11 C 0.53320(12) 0.32315(12) 0.42333(11)
C12 C 0.48868(14) 0.33712(15) 0.51669(12)
H8 H 0.4100 0.3315 0.5208
C13 C 0.56077(17) 0.35948(16) 0.60416(13)
H9 H 0.5301 0.3681 0.6669
C14 C 0.67625(17) 0.36901(15) 0.59958(15)
H10 H 0.7243 0.3830 0.6589
C15 C 0.72083(15) 0.35783(16) 0.50698(17)
H11 H 0.7994 0.3658 0.5032
C16 C 0.65049(14) 0.33495(15) 0.41950(14)
H12 H 0.6819 0.3273 0.3570
C17 C -0.06427(14) 0.50396(15) 0.30965(12)
C18 C -0.14616(16) 0.48533(17) 0.22993(14)
H13 H -0.1372 0.4263 0.1818
C19 C -0.24288(17) 0.5567(2) 0.22282(16)
H14 H -0.2996 0.5455 0.1693
C20 C -0.25567(18) 0.6431(2) 0.29339(17)
H15 H -0.3210 0.6902 0.2880
C21 C -0.1733(2) 0.6604(2) 0.37150(16)
H16 H -0.1824 0.7196 0.4195
C22 C -0.07661(17) 0.59132(18) 0.38035(13)
H17 H -0.0200 0.6037 0.4338
loop_
_geom_bond_atom_site_label_1
_geom_bond_atom_site_label_2
_geom_bond_site_symmetry_1
_geom_bond_site_symmetry_2
O1 C9 1_555 1_555
O2 C9 1_555 1_555
N1 C1 1_555 1_555
C1 C4 1_555 1_555
C2 N1 1_555 1_555
H1 C2 1_555 1_555
C3 C2 1_555 1_555
C4 C3 1_555 1_555
C5 C4 1_555 1_555
H2 C5 1_555 1_555
C6 C5 1_555 1_555
H3 C6 1_555 1_555
C7 C6 1_555 1_555
H4 C7 1_555 1_555
C8 C1 1_555 1_555
H5 C8 1_555 1_555
C9 C3 1_555 1_555
C10 N1 1_555 1_555
H6 C10 1_555 1_555
H7 C10 1_555 1_555
C11 C10 1_555 1_555
C12 C11 1_555 1_555
H8 C12 1_555 1_555
C13 C12 1_555 1_555
H9 C13 1_555 1_555
C14 C13 1_555 1_555
H10 C14 1_555 1_555
C15 C14 1_555 1_555
H11 C15 1_555 1_555
C16 C11 1_555 1_555
H12 C16 1_555 1_555
C17 O2 1_555 1_555
C18 C17 1_555 1_555
H13 C18 1_555 1_555
C19 C18 1_555 1_555
H14 C19 1_555 1_555
C20 C19 1_555 1_555
H15 C20 1_555 1_555
C21 C20 1_555 1_555
H16 C21 1_555 1_555
C22 C17 1_555 1_555
H17 C22 1_555 1_555
C7 C8 1_555 1_555
C15 C16 1_555 1_555
C21 C22 1_555 1_555

#END
