
#######################################################################
#
#                 Cambridge Crystallographic Data Centre
#                                CCDC 
#
#######################################################################
#
# If this CIF has been generated from an entry in the Cambridge 
# Structural Database, then it will include bibliographic, chemical, 
# crystal, experimental, refinement or atomic coordinate data resulting 
# from the CCDC's data processing and validation procedures.
#
#######################################################################

data_CPTCET12
_chemical_name_common            DDT
_chemical_formula_moiety         'C14 H9 Cl5'
_chemical_name_systematic        1,1,1-trichloro-2,2-bis(4-chlorophenyl)ethane
_chemical_properties_biological  'contact insecticide'
_symmetry_cell_setting           orthorhombic
_symmetry_space_group_name_H-M   'P c a 21'
_symmetry_Int_Tables_number      29
_space_group_name_Hall           'P 2c -2ac'
loop_
_symmetry_equiv_pos_site_id
_symmetry_equiv_pos_as_xyz
1 x,y,z
2 -x,-y,1/2+z
3 1/2+x,-y,z
4 1/2-x,y,1/2+z
_cell_length_a                   9.8152(5)
_cell_length_b                   19.0122(10)
_cell_length_c                   7.7989(4)
_cell_angle_alpha                90
_cell_angle_beta                 90
_cell_angle_gamma                90
_cell_volume                     1455.34
_exptl_crystal_colour            colorless
_exptl_crystal_description       needle
_cell_formula_units_Z            4
loop_
_atom_site_label
_atom_site_type_symbol
_atom_site_fract_x
_atom_site_fract_y
_atom_site_fract_z
Cl1 Cl 0.30763(5) 0.27544(3) 0.68072(7)
Cl2 Cl 0.44459(5) 0.15178(3) 0.81231(6)
Cl3 Cl 0.52471(6) 0.28939(3) 0.92629(6)
Cl4 Cl 0.60752(6) 0.54401(3) 0.34404(7)
Cl5 Cl 0.55133(6) 0.01065(3) 0.07433(7)
C1 C 0.4682(2) 0.24036(11) 0.7444(3)
C2 C 0.5774(2) 0.24402(10) 0.6002(3)
H1 H 0.666495 0.234882 0.658344
C3 C 0.5885(2) 0.31859(11) 0.5275(3)
C4 C 0.6834(2) 0.36521(10) 0.5954(3)
H2 H 0.743719 0.349717 0.682773
C5 C 0.6911(2) 0.43423(11) 0.5371(3)
H3 H 0.756710 0.465684 0.583366
C6 C 0.6022(2) 0.45638(10) 0.4111(3)
C7 C 0.5088(2) 0.41101(11) 0.3370(3)
H4 H 0.449554 0.426767 0.248638
C8 C 0.5037(2) 0.34180(11) 0.3948(3)
H5 H 0.441619 0.309787 0.343419
C9 C 0.5639(2) 0.18670(10) 0.4645(3)
C10 C 0.6829(2) 0.15129(10) 0.4161(3)
H6 H 0.767249 0.164388 0.466702
C11 C 0.6806(2) 0.09745(11) 0.2958(3)
H7 H 0.762004 0.073696 0.264437
C12 C 0.5571(2) 0.07911(11) 0.2225(2)
C13 C 0.4377(2) 0.11341(12) 0.2663(3)
H8 H 0.353981 0.100450 0.213980
C14 C 0.4414(2) 0.16704(11) 0.3876(3)
H9 H 0.359537 0.190540 0.418351
loop_
_geom_bond_atom_site_label_1
_geom_bond_atom_site_label_2
_geom_bond_site_symmetry_1
_geom_bond_site_symmetry_2
Cl1 C1 1_555 1_555
Cl2 C1 1_555 1_555
Cl3 C1 1_555 1_555
Cl4 C6 1_555 1_555
Cl5 C12 1_555 1_555
C1 C2 1_555 1_555
C2 H1 1_555 1_555
C3 C2 1_555 1_555
C4 C3 1_555 1_555
H2 C4 1_555 1_555
C5 C4 1_555 1_555
H3 C5 1_555 1_555
C6 C5 1_555 1_555
C7 C6 1_555 1_555
H4 C7 1_555 1_555
C8 C3 1_555 1_555
H5 C8 1_555 1_555
C9 C2 1_555 1_555
C10 C9 1_555 1_555
H6 C10 1_555 1_555
C11 C10 1_555 1_555
H7 C11 1_555 1_555
C12 C11 1_555 1_555
C13 C12 1_555 1_555
H8 C13 1_555 1_555
C14 C9 1_555 1_555
H9 C14 1_555 1_555
C7 C8 1_555 1_555
C13 C14 1_555 1_555

#END
