
#######################################################################
#
#                 Cambridge Crystallographic Data Centre
#                                CCDC 
#
#######################################################################
#
# If this CIF has been generated from an entry in the Cambridge 
# Structural Database, then it will include bibliographic, chemical, 
# crystal, experimental, refinement or atomic coordinate data resulting 
# from the CCDC's data processing and validation procedures.
#
#######################################################################

data_CUBTID
_chemical_formula_moiety         'C2 H8 N1 1+,C24 H31 O3 1-'
_chemical_name_systematic        
'Dimethylammonium (3,4-dimethylphenyl)(2-hydroxy-3,5-di-t-butylphenyl)acetate'
_symmetry_cell_setting           monoclinic
_symmetry_space_group_name_H-M   'P 21/c'
_symmetry_Int_Tables_number      14
_space_group_name_Hall           '-P 2ybc'
loop_
_symmetry_equiv_pos_site_id
_symmetry_equiv_pos_as_xyz
1 x,y,z
2 -x,1/2+y,1/2-z
3 -x,-y,-z
4 x,1/2-y,1/2+z
_cell_length_a                   14.731(2)
_cell_length_b                   10.1185(10)
_cell_length_c                   17.065(2)
_cell_angle_alpha                90
_cell_angle_beta                 98.293(10)
_cell_angle_gamma                90
_cell_volume                     2517.04
_exptl_crystal_colour            colorless
_exptl_crystal_description       prism
_cell_formula_units_Z            4
_exptl_crystal_recrystallization_method 'ethyl acetate/petroleum ether'
loop_
_atom_site_label
_atom_site_type_symbol
_atom_site_fract_x
_atom_site_fract_y
_atom_site_fract_z
O1 O 0.15510(16) 0.5118(3) 0.22140(13)
H1 H 0.1202 0.5232 0.2541
O2 O 0.07242(17) 0.5613(3) 0.34231(16)
O3 O 0.10790(17) 0.5227(3) 0.47063(15)
C1 C 0.1263(3) 0.5181(4) 0.4020(2)
C2 C 0.2153(2) 0.4514(4) 0.3878(2)
H4 H 0.2537 0.4492 0.4397
C3 C 0.2726(2) 0.5240(3) 0.33316(19)
C4 C 0.2424(2) 0.5483(3) 0.2535(2)
C5 C 0.2990(2) 0.6085(3) 0.2046(2)
C6 C 0.3874(2) 0.6450(3) 0.2406(2)
H5 H 0.4265 0.6840 0.2092
C7 C 0.4193(2) 0.6262(3) 0.3202(2)
C8 C 0.3597(2) 0.5648(3) 0.3655(2)
H6 H 0.3792 0.5508 0.4191
C9 C 0.2668(3) 0.6391(4) 0.1174(2)
C10 C 0.2315(3) 0.5142(4) 0.0721(2)
H7 H 0.2797 0.4497 0.0757
H8 H 0.2119 0.5359 0.0175
H9 H 0.1806 0.4788 0.0947
C11 C 0.1910(4) 0.7424(5) 0.1107(3)
H10 H 0.2135 0.8207 0.1388
H11 H 0.1397 0.7082 0.1331
H12 H 0.1721 0.7636 0.0559
C12 C 0.3440(3) 0.6927(5) 0.0748(2)
H13 H 0.3683 0.7722 0.1004
H14 H 0.3202 0.7115 0.0205
H15 H 0.3919 0.6279 0.0767
C13 C 0.5171(2) 0.6639(4) 0.3565(2)
C14 C 0.5641(3) 0.7548(5) 0.3042(3)
H16 H 0.5295 0.8351 0.2950
H17 H 0.5678 0.7120 0.2546
H18 H 0.6249 0.7750 0.3300
C15 C 0.5187(3) 0.7310(6) 0.4362(3)
H19 H 0.4838 0.8115 0.4295
H20 H 0.5809 0.7509 0.4582
H21 H 0.4923 0.6733 0.4714
C16 C 0.5733(3) 0.5370(5) 0.3707(3)
H22 H 0.5741 0.4921 0.3212
H23 H 0.5462 0.4807 0.4062
H24 H 0.6350 0.5584 0.3935
C17 C 0.1974(3) 0.3053(4) 0.3648(2)
C18 C 0.2715(3) 0.2210(4) 0.3676(2)
H25 H 0.3306 0.2548 0.3790
C19 C 0.2589(4) 0.0838(5) 0.3533(3)
C20 C 0.1722(5) 0.0333(5) 0.3370(3)
C21 C 0.0987(4) 0.1154(5) 0.3327(3)
H26 H 0.0398 0.0811 0.3202
C22 C 0.1106(3) 0.2508(4) 0.3468(2)
H27 H 0.0593 0.3053 0.3441
C23 C 0.1590(5) -0.1161(5) 0.3229(3)
H28 H 0.0952 -0.1344 0.3060
H29 H 0.1793 -0.1628 0.3712
H30 H 0.1942 -0.1441 0.2827
C24 C 0.3406(4) -0.0024(5) 0.3607(3)
H31 H 0.3327 -0.0679 0.3195
H32 H 0.3484 -0.0453 0.4114
H33 H 0.3939 0.0499 0.3559
N1 N 0.0745(2) 0.3504(3) 0.58627(19)
H2 H 0.0801 0.4119 0.5491
H3 H 0.0321 0.3794 0.6154
C25 C 0.1620(3) 0.3368(5) 0.6374(3)
H34 H 0.1797 0.4205 0.6614
H35 H 0.2079 0.3078 0.6066
H36 H 0.1562 0.2730 0.6781
C26 C 0.0423(3) 0.2273(5) 0.5472(3)
H37 H -0.0148 0.2427 0.5135
H38 H 0.0334 0.1623 0.5864
H39 H 0.0870 0.1958 0.5159
loop_
_geom_bond_atom_site_label_1
_geom_bond_atom_site_label_2
_geom_bond_site_symmetry_1
_geom_bond_site_symmetry_2
O1 H1 1_555 1_555
O2 C1 1_555 1_555
O3 C1 1_555 1_555
N1 H2 1_555 1_555
H3 N1 1_555 1_555
C1 C2 1_555 1_555
C2 H4 1_555 1_555
C3 C2 1_555 1_555
C4 O1 1_555 1_555
C5 C4 1_555 1_555
C6 C5 1_555 1_555
H5 C6 1_555 1_555
C7 C6 1_555 1_555
C8 C3 1_555 1_555
H6 C8 1_555 1_555
C9 C5 1_555 1_555
C10 C9 1_555 1_555
H7 C10 1_555 1_555
H8 C10 1_555 1_555
H9 C10 1_555 1_555
C11 C9 1_555 1_555
H10 C11 1_555 1_555
H11 C11 1_555 1_555
H12 C11 1_555 1_555
C12 C9 1_555 1_555
H13 C12 1_555 1_555
H14 C12 1_555 1_555
H15 C12 1_555 1_555
C13 C7 1_555 1_555
C14 C13 1_555 1_555
H16 C14 1_555 1_555
H17 C14 1_555 1_555
H18 C14 1_555 1_555
C15 C13 1_555 1_555
H19 C15 1_555 1_555
H20 C15 1_555 1_555
H21 C15 1_555 1_555
C16 C13 1_555 1_555
H22 C16 1_555 1_555
H23 C16 1_555 1_555
H24 C16 1_555 1_555
C17 C2 1_555 1_555
C18 C17 1_555 1_555
H25 C18 1_555 1_555
C19 C18 1_555 1_555
C20 C19 1_555 1_555
C21 C20 1_555 1_555
H26 C21 1_555 1_555
C22 C17 1_555 1_555
H27 C22 1_555 1_555
C23 C20 1_555 1_555
H28 C23 1_555 1_555
H29 C23 1_555 1_555
H30 C23 1_555 1_555
C24 C19 1_555 1_555
H31 C24 1_555 1_555
H32 C24 1_555 1_555
H33 C24 1_555 1_555
C25 N1 1_555 1_555
H34 C25 1_555 1_555
H35 C25 1_555 1_555
H36 C25 1_555 1_555
C26 N1 1_555 1_555
H37 C26 1_555 1_555
H38 C26 1_555 1_555
H39 C26 1_555 1_555
C3 C4 1_555 1_555
C7 C8 1_555 1_555
C21 C22 1_555 1_555

#END
