
#######################################################################
#
#                 Cambridge Crystallographic Data Centre
#                                CCDC 
#
#######################################################################
#
# If this CIF has been generated from an entry in the Cambridge 
# Structural Database, then it will include bibliographic, chemical, 
# crystal, experimental, refinement or atomic coordinate data resulting 
# from the CCDC's data processing and validation procedures.
#
#######################################################################

data_CUCBOR
_chemical_formula_moiety         'C35 H26 N2,C1 H2 Cl2'
_chemical_name_systematic        
'endo-1,3,4,5,7-Pentaphenyl-2,6-diazabicyclo(3.2.0)hepta-2,6-diene dichloromethane solvate'
_symmetry_cell_setting           monoclinic
_symmetry_space_group_name_H-M   'P 21/n'
_symmetry_Int_Tables_number      14
_space_group_name_Hall           '-P 2yn'
loop_
_symmetry_equiv_pos_site_id
_symmetry_equiv_pos_as_xyz
1 x,y,z
2 1/2-x,1/2+y,1/2-z
3 -x,-y,-z
4 1/2+x,1/2-y,1/2+z
_cell_length_a                   15.586(3)
_cell_length_b                   9.901(2)
_cell_length_c                   19.662(3)
_cell_angle_alpha                90
_cell_angle_beta                 100.87(2)
_cell_angle_gamma                90
_cell_volume                     2979.74
_cell_formula_units_Z            4
loop_
_atom_site_label
_atom_site_type_symbol
_atom_site_fract_x
_atom_site_fract_y
_atom_site_fract_z
N1 N 0.52895 0.37845 0.24316
N2 N 0.42672 0.40897 0.09334
C1 C 0.55518 0.42084 0.18800
C2 C 0.49900 0.33141 0.13370
C3 C 0.46708 0.27886 0.20180
C4 C 0.37021 0.32730 0.19107
C5 C 0.36104 0.40978 0.12387
C6 C 0.61593 0.52958 0.18155
C7 C 0.65006 0.60923 0.23797
C8 C 0.70445 0.71630 0.23086
C9 C 0.72725 0.74177 0.16772
C10 C 0.69447 0.66405 0.11147
C11 C 0.63788 0.55800 0.11834
C12 C 0.54306 0.23984 0.09001
C13 C 0.51420 0.22722 0.01954
C14 C 0.55672 0.14521 -0.01998
C15 C 0.62963 0.07577 0.00955
C16 C 0.65934 0.08623 0.07883
C17 C 0.61676 0.16819 0.11895
C18 C 0.48119 0.13502 0.22740
C19 C 0.43105 0.03068 0.19485
C20 C 0.44419 -0.09940 0.21929
C21 C 0.50669 -0.12725 0.27585
C22 C 0.55859 -0.02576 0.30837
C23 C 0.54497 0.10616 0.28429
C24 C 0.34832 0.39940 0.25336
C25 C 0.31121 0.32929 0.30161
C26 C 0.29456 0.39276 0.36014
C27 C 0.31337 0.52568 0.37114
C28 C 0.35034 0.59813 0.32470
C29 C 0.36723 0.53498 0.26557
C30 C 0.27969 0.48099 0.09225
C31 C 0.20183 0.46093 0.11531
C32 C 0.12508 0.52185 0.08154
C33 C 0.12617 0.60126 0.02419
C34 C 0.20307 0.62455 0.00206
C35 C 0.27890 0.56563 0.03561
H1 H 0.33040 0.25049 0.17959
H2 H 0.63671 0.58863 0.28167
H3 H 0.72391 0.76891 0.27238
H4 H 0.76742 0.81498 0.16311
H5 H 0.70417 0.68919 0.06410
H6 H 0.61441 0.50994 0.07920
H7 H 0.46451 0.27294 0.00024
H8 H 0.53840 0.13854 -0.06911
H9 H 0.66334 0.01731 -0.01594
H10 H 0.70914 0.03394 0.10263
H11 H 0.63658 0.17351 0.16418
H12 H 0.38618 0.04934 0.15290
H13 H 0.40996 -0.16673 0.19574
H14 H 0.51934 -0.20708 0.29048
H15 H 0.60580 -0.04362 0.34565
H16 H 0.58510 0.17748 0.30696
H17 H 0.29718 0.24047 0.29172
H18 H 0.26505 0.34777 0.39044
H19 H 0.30403 0.57247 0.40956
H20 H 0.36431 0.68721 0.33071
H21 H 0.39190 0.58403 0.23156
H22 H 0.20307 0.41069 0.15679
H23 H 0.07559 0.50070 0.09426
H24 H 0.06850 0.64583 0.00603
H25 H 0.20503 0.68418 -0.03656
H26 H 0.33225 0.57918 0.02141
C36 C 0.46227 0.59461 0.58460
Cl1 Cl 0.40198 0.72737 0.54002
Cl2 Cl 0.41060 0.43866 0.56683
H27 H 0.47053 0.61048 0.63280
H28 H 0.51843 0.59233 0.57022
loop_
_geom_bond_atom_site_label_1
_geom_bond_atom_site_label_2
_geom_bond_site_symmetry_1
_geom_bond_site_symmetry_2
N1 C1 1_555 1_555
N2 C2 1_555 1_555
C1 C2 1_555 1_555
C2 C3 1_555 1_555
C3 N1 1_555 1_555
C4 C3 1_555 1_555
C5 N2 1_555 1_555
C6 C1 1_555 1_555
C7 C6 1_555 1_555
C8 C7 1_555 1_555
C9 C8 1_555 1_555
C10 C9 1_555 1_555
C11 C6 1_555 1_555
C12 C2 1_555 1_555
C13 C12 1_555 1_555
C14 C13 1_555 1_555
C15 C14 1_555 1_555
C16 C15 1_555 1_555
C17 C12 1_555 1_555
C18 C3 1_555 1_555
C19 C18 1_555 1_555
C20 C19 1_555 1_555
C21 C20 1_555 1_555
C22 C21 1_555 1_555
C23 C18 1_555 1_555
C24 C4 1_555 1_555
C25 C24 1_555 1_555
C26 C25 1_555 1_555
C27 C26 1_555 1_555
C28 C27 1_555 1_555
C29 C24 1_555 1_555
C30 C5 1_555 1_555
C31 C30 1_555 1_555
C32 C31 1_555 1_555
C33 C32 1_555 1_555
C34 C33 1_555 1_555
C35 C30 1_555 1_555
C36 Cl1 1_555 1_555
Cl2 C36 1_555 1_555
H1 C4 1_555 1_555
H2 C7 1_555 1_555
H3 C8 1_555 1_555
H4 C9 1_555 1_555
H5 C10 1_555 1_555
H6 C11 1_555 1_555
H7 C13 1_555 1_555
H8 C14 1_555 1_555
H9 C15 1_555 1_555
H10 C16 1_555 1_555
H11 C17 1_555 1_555
H12 C19 1_555 1_555
H13 C20 1_555 1_555
H14 C21 1_555 1_555
H15 C22 1_555 1_555
H16 C23 1_555 1_555
H17 C25 1_555 1_555
H18 C26 1_555 1_555
H19 C27 1_555 1_555
H20 C28 1_555 1_555
H21 C29 1_555 1_555
H22 C31 1_555 1_555
H23 C32 1_555 1_555
H24 C33 1_555 1_555
H25 C34 1_555 1_555
H26 C35 1_555 1_555
H27 C36 1_555 1_555
H28 C36 1_555 1_555
C4 C5 1_555 1_555
C10 C11 1_555 1_555
C16 C17 1_555 1_555
C22 C23 1_555 1_555
C28 C29 1_555 1_555
C34 C35 1_555 1_555

#END
