
#######################################################################
#
#                 Cambridge Crystallographic Data Centre
#                                CCDC 
#
#######################################################################
#
# If this CIF has been generated from an entry in the Cambridge 
# Structural Database, then it will include bibliographic, chemical, 
# crystal, experimental, refinement or atomic coordinate data resulting 
# from the CCDC's data processing and validation procedures.
#
#######################################################################

data_CUCBUX
_chemical_formula_moiety         'C35 H26 N2'
_chemical_name_systematic        
exo-1,3,4,5,7-Pentaphenyl-2,6-diazabicyclo(3.2.0)hepta-2,6-diene
_symmetry_cell_setting           monoclinic
_symmetry_space_group_name_H-M   'P 21/c'
_symmetry_Int_Tables_number      14
_space_group_name_Hall           '-P 2ybc'
loop_
_symmetry_equiv_pos_site_id
_symmetry_equiv_pos_as_xyz
1 x,y,z
2 -x,1/2+y,1/2-z
3 -x,-y,-z
4 x,1/2-y,1/2+z
_cell_length_a                   19.164(12)
_cell_length_b                   6.752(9)
_cell_length_c                   21.481(16)
_cell_angle_alpha                90
_cell_angle_beta                 108.04(5)
_cell_angle_gamma                90
_cell_volume                     2642.9
_cell_formula_units_Z            4
loop_
_atom_site_label
_atom_site_type_symbol
_atom_site_fract_x
_atom_site_fract_y
_atom_site_fract_z
N1 N 0.73282(37) 0.7146(13) 0.25936(32)
N2 N 0.69404(38) 1.1682(12) 0.24463(34)
C1 C 0.71615(46) 0.8317(14) 0.20841(41)
C2 C 0.74931(46) 1.0191(14) 0.24087(39)
C3 C 0.76790(45) 0.8847(13) 0.30500(39)
C4 C 0.71331(43) 0.9547(16) 0.34029(42)
H1 H 0.6679(43) 0.866(13) 0.3342(38)
C5 C 0.67361(44) 1.1283(15) 0.29620(43)
C6 C 0.67531(44) 0.7781(16) 0.13977(43)
C7 C 0.65376(52) 0.5879(17) 0.12160(46)
C8 C 0.61164(56) 0.5466(21) 0.05577(50)
H2 H 0.59497(56) 0.4150(21) 0.04203(50)
C9 C 0.59557(56) 0.7039(21) 0.0120(85)
H3 H 0.56687(56) 0.6765(21) -0.03243(51)
C10 C 0.61894(56) 0.9017(21) 0.02806(53)
H4 H 0.60695(56) 1.0052(21) -0.00413(53)
C11 C 0.65951(54) 0.9376(19) 0.09375(51)
H5 H 0.6636(41) 1.063(13) 0.107(38)
C12 C 0.81291(46) 1.1149(14) 0.22220(40)
C13 C 0.83024(40) 1.3102(14) 0.23301(42)
C14 C 0.89428(59) 1.3854(19) 0.22278(50)
C15 C 0.93963(54) 1.2640(12) 0.20167(52)
C16 C 0.92184(51) 1.0679(20) 0.18854(44)
H6 H 0.95258(51) 0.9841(20) 0.17207(44)
C17 C 0.85737(50) 0.9874(17) 0.19882(46)
H7 H 0.7895(42) 1.434(13) 0.2445(37)
H8 H 0.9097(42) 1.535(13) 0.2316(37)
H9 H 0.8505(44) 0.845(14) 0.1886(39)
C18 C 0.84507(44) 0.8400(16) 0.34661(39)
C19 C 0.86444(55) 0.6521(20) 0.36766(43)
H10 H 0.82959(55) 0.5468(20) 0.35272(43)
C20 C 0.93399(58) 0.6037(19) 0.41002(45)
H11 H 0.94767(58) 0.4752(19) 0.42391(45)
C21 C 0.98382(54) 0.7652(19) 0.43275(46)
H12 H 1.03178(54) 0.7396(19) 0.46265(46)
C22 C 0.96459(49) 0.9501(19) 0.41242(45)
H13 H 0.99923(49) 1.0560(19) 0.42709(45)
C23 C 0.89511(43) 0.9914(17) 0.37036(41)
H14 H 0.88112(43) 1.1253(17) 0.35739(41)
C24 C 0.74699(44) 1.0217(15) 0.41254(41)
C25 C 0.76875(51) 1.2128(19) 0.43003(51)
H15 H 0.76367(51) 1.3111(19) 0.39663(51)
C26 C 0.79846(62) 1.2632(25) 0.49639(61)
H16 H 0.81235(62) 1.3970(25) 0.50975(61)
C27 C 0.80739(63) 1.1083(30) 0.54308(57)
H17 H 0.82749(63) 1.1386(30) 0.58883(57)
C28 C 0.78785(76) 0.9233(34) 0.52515(73)
H18 H 0.79664(76) 0.8223(34) 0.55816(73)
C29 C 0.75515(55) 0.8695(21) 0.45851(47)
H19 H 0.73906(55) 0.7369(20) 0.44546(47)
C30 C 0.61613(43) 1.2489(16) 0.31118(40)
C31 C 0.59775(48) 1.4378(17) 0.28345(47)
C32 C 0.54456(49) 1.5541(19) 0.29980(49)
C33 C 0.50867(55) 1.4718(23) 0.34127(52)
H20 H 0.47093(55) 1.5471(23) 0.35115(52)
C34 C 0.52556(58) 1.2855(22) 0.36822(53)
H21 H 0.49962(58) 1.2342(22) 0.39645(53)
C35 C 0.57980(47) 1.1733(19) 0.35549(49)
H22 H 0.6364(38) 1.485(15) 0.2573(42)
H23 H 0.5366(43) 1.694(14) 0.2730(39)
H24 H 0.5944(45) 0.999(14) 0.3625(40)
loop_
_geom_bond_atom_site_label_1
_geom_bond_atom_site_label_2
_geom_bond_site_symmetry_1
_geom_bond_site_symmetry_2
N1 C1 1_555 1_555
N2 C2 1_555 1_555
C1 C2 1_555 1_555
C2 C3 1_555 1_555
C3 N1 1_555 1_555
C4 C3 1_555 1_555
H1 C4 1_555 1_555
C5 N2 1_555 1_555
C6 C1 1_555 1_555
C7 C6 1_555 1_555
C8 C7 1_555 1_555
H2 C8 1_555 1_555
C9 C8 1_555 1_555
H3 C9 1_555 1_555
C10 C9 1_555 1_555
H4 C10 1_555 1_555
C11 C6 1_555 1_555
H5 C11 1_555 1_555
C12 C2 1_555 1_555
C13 C12 1_555 1_555
C14 C13 1_555 1_555
C15 C14 1_555 1_555
C16 C15 1_555 1_555
H6 C16 1_555 1_555
C17 C12 1_555 1_555
H7 C13 1_555 1_555
H8 C14 1_555 1_555
H9 C17 1_555 1_555
C18 C3 1_555 1_555
C19 C18 1_555 1_555
H10 C19 1_555 1_555
C20 C19 1_555 1_555
H11 C20 1_555 1_555
C21 C20 1_555 1_555
H12 C21 1_555 1_555
C22 C21 1_555 1_555
H13 C22 1_555 1_555
C23 C18 1_555 1_555
H14 C23 1_555 1_555
C24 C4 1_555 1_555
C25 C24 1_555 1_555
H15 C25 1_555 1_555
C26 C25 1_555 1_555
H16 C26 1_555 1_555
C27 C26 1_555 1_555
H17 C27 1_555 1_555
C28 C27 1_555 1_555
H18 C28 1_555 1_555
C29 C24 1_555 1_555
H19 C29 1_555 1_555
C30 C5 1_555 1_555
C31 C30 1_555 1_555
C32 C31 1_555 1_555
C33 C32 1_555 1_555
H20 C33 1_555 1_555
C34 C33 1_555 1_555
H21 C34 1_555 1_555
C35 C30 1_555 1_555
H22 C31 1_555 1_555
H23 C32 1_555 1_555
H24 C35 1_555 1_555
C4 C5 1_555 1_555
C10 C11 1_555 1_555
C16 C17 1_555 1_555
C22 C23 1_555 1_555
C28 C29 1_555 1_555
C34 C35 1_555 1_555

#END
