
#######################################################################
#
#                 Cambridge Crystallographic Data Centre
#                                CCDC 
#
#######################################################################
#
# If this CIF has been generated from an entry in the Cambridge 
# Structural Database, then it will include bibliographic, chemical, 
# crystal, experimental, refinement or atomic coordinate data resulting 
# from the CCDC's data processing and validation procedures.
#
#######################################################################

data_CUCLAP
_chemical_formula_moiety         'C23 H17 Br1 N2 O2'
_chemical_name_systematic        
'Phenyl 8-bromo-6-methyl-5,6-dihydroindolo[1,2-a]quinoxaline-6-carboxylate'
_symmetry_cell_setting           orthorhombic
_symmetry_space_group_name_H-M   'P 21 21 21'
_symmetry_Int_Tables_number      19
_space_group_name_Hall           'P 2ac 2ab'
loop_
_symmetry_equiv_pos_site_id
_symmetry_equiv_pos_as_xyz
1 x,y,z
2 1/2-x,-y,1/2+z
3 -x,1/2+y,1/2-z
4 1/2+x,1/2-y,-z
_cell_length_a                   5.3773(13)
_cell_length_b                   25.659(7)
_cell_length_c                   14.111(4)
_cell_angle_alpha                90
_cell_angle_beta                 90
_cell_angle_gamma                90
_cell_volume                     1946.98
_cell_formula_units_Z            4
loop_
_atom_site_label
_atom_site_type_symbol
_atom_site_fract_x
_atom_site_fract_y
_atom_site_fract_z
Br1 Br 1.06834(9) -0.046592(16) 0.77940(3)
C1 C 0.4623(6) 0.17885(13) 0.7858(3)
C2 C 0.4210(7) 0.13142(13) 0.5646(2)
C3 C 0.7956(7) 0.03030(12) 0.6766(3)
C4 C 0.5172(6) 0.08985(13) 0.7178(3)
C5 C 0.6579(6) 0.05008(14) 0.7515(2)
H1 H 0.6615 0.0382 0.8138
C6 C 0.7338(7) 0.05808(13) 0.5934(3)
C7 C 0.9767(7) -0.00864(13) 0.6699(3)
C8 C 0.3323(6) 0.12609(14) 0.7632(2)
C9 C 1.0966(9) -0.01867(16) 0.5867(3)
H2 H 1.2190 -0.0442 0.5834
C10 C 0.0587(8) 0.18638(16) 0.5564(3)
H3 H -0.0802 0.2011 0.5850
C11 C 0.3341(9) 0.17950(17) 0.4222(3)
H4 H 0.3728 0.1877 0.3598
C12 C 0.8519(8) 0.04786(15) 0.5062(3)
H5 H 0.8093 0.0658 0.4513
C13 C 0.2052(6) 0.15147(13) 0.6055(3)
C14 C 0.2327(8) 0.10261(16) 0.8531(3)
H6 H 0.1729 0.0680 0.8405
H7 H 0.0987 0.1237 0.8766
H8 H 0.3628 0.1011 0.8996
C15 C 0.4918(8) 0.14726(16) 0.4737(3)
H9 H 0.6424 0.1364 0.4481
C16 C 0.1211(8) 0.19945(17) 0.4626(3)
H10 H 0.0187 0.2215 0.4279
C17 C 1.0311(9) 0.01046(16) 0.5063(3)
H11 H 1.1150 0.0038 0.4499
C18 C 0.3271(9) 0.26170(11) 0.8450(4)
C19 C 0.1678(12) 0.28211(16) 0.9131(5)
H12 H 0.0463 0.2611 0.9403
C20 C 0.1900(16) 0.33392(18) 0.9406(5)
H13 H 0.0834 0.3476 0.9862
C21 C 0.3716(16) 0.36533(14) 0.9000(6)
H14 H 0.3865 0.4000 0.9183
C22 C 0.5310(13) 0.34492(16) 0.8318(6)
H15 H 0.6525 0.3659 0.8046
C23 C 0.5087(11) 0.29310(16) 0.8044(5)
H16 H 0.6153 0.2794 0.7588
N1 N 0.1332(5) 0.13453(12) 0.6965(2)
H17 H -0.0201 0.1295 0.7113
N2 N 0.5611(6) 0.09612(10) 0.61900(18)
O1 O 0.6705(5) 0.19049(12) 0.7756(3)
O2 O 0.2853(5) 0.21128(11) 0.8201(3)
loop_
_geom_bond_atom_site_label_1
_geom_bond_atom_site_label_2
_geom_bond_site_symmetry_1
_geom_bond_site_symmetry_2
Br1 C7 1_555 1_555
C1 C8 1_555 1_555
C2 C13 1_555 1_555
C3 C5 1_555 1_555
C4 C5 1_555 1_555
C5 H1 1_555 1_555
C6 C3 1_555 1_555
C7 C3 1_555 1_555
C8 C4 1_555 1_555
C9 C7 1_555 1_555
H2 C9 1_555 1_555
C10 H3 1_555 1_555
C11 H4 1_555 1_555
C12 C6 1_555 1_555
H5 C12 1_555 1_555
C13 C10 1_555 1_555
C14 C8 1_555 1_555
H6 C14 1_555 1_555
H7 C14 1_555 1_555
H8 C14 1_555 1_555
C15 C2 1_555 1_555
H9 C15 1_555 1_555
C16 C10 1_555 1_555
H10 C16 1_555 1_555
C17 C9 1_555 1_555
H11 C17 1_555 1_555
C18 C19 1_555 1_555
C19 H12 1_555 1_555
C20 C19 1_555 1_555
H13 C20 1_555 1_555
C21 C20 1_555 1_555
H14 C21 1_555 1_555
C22 C21 1_555 1_555
H15 C22 1_555 1_555
C23 C18 1_555 1_555
H16 C23 1_555 1_555
N1 C8 1_555 1_555
H17 N1 1_555 1_555
N2 C2 1_555 1_555
O1 C1 1_555 1_555
O2 C1 1_555 1_555
C4 N2 1_555 1_555
C6 N2 1_555 1_555
C11 C15 1_555 1_555
C11 C16 1_555 1_555
C12 C17 1_555 1_555
C13 N1 1_555 1_555
C18 O2 1_555 1_555
C22 C23 1_555 1_555

#END
