
#######################################################################
#
#                 Cambridge Crystallographic Data Centre
#                                CCDC 
#
#######################################################################
#
# If this CIF has been generated from an entry in the Cambridge 
# Structural Database, then it will include bibliographic, chemical, 
# crystal, experimental, refinement or atomic coordinate data resulting 
# from the CCDC's data processing and validation procedures.
#
#######################################################################

data_CUCWUT
_chemical_formula_moiety         'C11 H15 N1 O4'
_chemical_name_systematic        
'Dimethyl 2,6-dimethyl-1,4-dihydropyridine-3,5-dicarboxylate'
_symmetry_cell_setting           triclinic
_symmetry_space_group_name_H-M   'P -1'
_symmetry_Int_Tables_number      2
_space_group_name_Hall           '-P 1'
loop_
_symmetry_equiv_pos_site_id
_symmetry_equiv_pos_as_xyz
1 x,y,z
2 -x,-y,-z
_cell_length_a                   7.3933(13)
_cell_length_b                   7.8391(14)
_cell_length_c                   11.1847(19)
_cell_angle_alpha                75.977(2)
_cell_angle_beta                 75.274(2)
_cell_angle_gamma                64.351(2)
_cell_volume                     558.617
_exptl_crystal_colour            blue
_exptl_crystal_description       block
_cell_formula_units_Z            2
_exptl_crystal_recrystallization_method ethanol
loop_
_atom_site_label
_atom_site_type_symbol
_atom_site_fract_x
_atom_site_fract_y
_atom_site_fract_z
C1 C -0.2092(2) 0.24631(19) 0.60198(13)
C2 C -0.0517(2) 0.24220(18) 0.64524(13)
C3 C 0.1441(2) 0.2394(2) 0.55870(13)
H1 H 0.1702 0.3463 0.5677
H2 H 0.2561 0.1224 0.5837
C4 C 0.13729(19) 0.25116(18) 0.42266(12)
C5 C -0.0262(2) 0.25369(18) 0.38665(12)
C6 C -0.4103(2) 0.2499(3) 0.67563(16)
H3 H -0.4925 0.2528 0.6204
H4 H -0.4787 0.3618 0.7161
H5 H -0.3888 0.1374 0.7376
C7 C -0.0548(2) 0.2638(2) 0.25662(14)
H6 H -0.1855 0.2633 0.2596
H7 H 0.0502 0.1553 0.2209
H8 H -0.0474 0.3794 0.2062
C8 C -0.0642(2) 0.2376(2) 0.77872(14)
C9 C 0.3211(2) 0.25935(19) 0.33790(13)
C10 C 0.1095(4) 0.2341(3) 0.93016(16)
H9 H -0.0084 0.3384 0.9621
H10 H 0.2303 0.2470 0.9358
H11 H 0.1084 0.1152 0.9784
C11 C 0.5033(3) 0.2757(3) 0.13100(16)
H12 H 0.5180 0.3911 0.1320
H13 H 0.4925 0.2720 0.0480
H14 H 0.6199 0.1669 0.1563
N1 N -0.19256(17) 0.24966(18) 0.47535(11)
H15 H -0.2931 0.2492 0.4504
O1 O 0.10679(18) 0.23698(18) 0.80131(9)
O2 O -0.2029(2) 0.2326(2) 0.86306(11)
O3 O 0.32231(16) 0.27138(19) 0.21605(10)
O4 O 0.46494(15) 0.25501(17) 0.37415(10)
H16? H -0.4142 0.2485 0.7623
H17? H -0.4280 0.1396 0.6666
H18? H -0.5178 0.3639 0.6452
H19? H 0.0637 0.2687 0.1982
H20? H -0.1720 0.3767 0.2369
H21? H -0.0744 0.1526 0.2516
loop_
_geom_bond_atom_site_label_1
_geom_bond_atom_site_label_2
_geom_bond_site_symmetry_1
_geom_bond_site_symmetry_2
C1 C2 1_555 1_555
C2 C3 1_555 1_555
C3 H1 1_555 1_555
H2 C3 1_555 1_555
C4 C3 1_555 1_555
C5 C4 1_555 1_555
C6 C1 1_555 1_555
H3 C6 1_555 1_555
H4 C6 1_555 1_555
H5 C6 1_555 1_555
C7 C5 1_555 1_555
H6 C7 1_555 1_555
H7 C7 1_555 1_555
H8 C7 1_555 1_555
C8 C2 1_555 1_555
C9 C4 1_555 1_555
C10 H9 1_555 1_555
H10 C10 1_555 1_555
H11 C10 1_555 1_555
C11 H12 1_555 1_555
H13 C11 1_555 1_555
H14 C11 1_555 1_555
N1 C1 1_555 1_555
H15 N1 1_555 1_555
O1 C8 1_555 1_555
O2 C8 1_555 1_555
O3 C9 1_555 1_555
O4 C9 1_555 1_555
C5 N1 1_555 1_555
C10 O1 1_555 1_555
C11 O3 1_555 1_555

#END
