
#######################################################################
#
#                 Cambridge Crystallographic Data Centre
#                                CCDC 
#
#######################################################################
#
# If this CIF has been generated from an entry in the Cambridge 
# Structural Database, then it will include bibliographic, chemical, 
# crystal, experimental, refinement or atomic coordinate data resulting 
# from the CCDC's data processing and validation procedures.
#
#######################################################################

data_CUCXIH
_chemical_compound_source        'Rabdosia macrophylla(Migo)'
_chemical_formula_moiety         'C22 H30 O7'
_chemical_name_systematic        'Rabdophyllin G'
_chemical_properties_biological  'anticancer drug'
_symmetry_cell_setting           orthorhombic
_symmetry_space_group_name_H-M   'P 21 21 21'
_symmetry_Int_Tables_number      19
_space_group_name_Hall           'P 2ac 2ab'
loop_
_symmetry_equiv_pos_site_id
_symmetry_equiv_pos_as_xyz
1 x,y,z
2 1/2+x,1/2-y,-z
3 -x,1/2+y,1/2-z
4 1/2-x,-y,1/2+z
_cell_length_a                   6.820(5)
_cell_length_b                   9.076(1)
_cell_length_c                   33.525(7)
_cell_angle_alpha                90
_cell_angle_beta                 90
_cell_angle_gamma                90
_cell_volume                     2075.14
_exptl_crystal_colour            colorless
_cell_formula_units_Z            4
loop_
_atom_site_label
_atom_site_type_symbol
_atom_site_fract_x
_atom_site_fract_y
_atom_site_fract_z
O1 O 0.0776(5) -0.1966(3) 0.3822(1)
C1 C 0.3517(5) 0.0338(4) 0.4073(1)
O2 O 0.2152(6) -0.3607(3) 0.4203(1)
C2 C 0.2662(6) 0.0284(4) 0.3647(1)
O3 O 0.0266(5) -0.0733(4) 0.4722(1)
C3 C 0.5700(6) 0.0789(6) 0.4126(1)
O4 O 0.6182(5) 0.2130(4) 0.3928(1)
C4 C 0.6195(7) 0.0873(5) 0.4566(1)
O5 O 0.2625(6) 0.3533(3) 0.4034(1)
C5 C 0.5497(7) -0.0465(5) 0.4805(1)
O6 O 0.4486(5) -0.1962(3) 0.3502(1)
C6 C 0.5063(7) -0.1718(5) 0.4514(1)
O7 O 0.7266(5) -0.1954(4) 0.3149(1)
C7 C 0.2031(7) -0.0701(4) 0.4683(1)
C8 C 0.3982(7) -0.0515(5) 0.3348(1)
C9 C 0.3496(7) -0.0224(5) 0.4986(1)
C10 C 0.3067(9) -0.0627(6) 0.2939(1)
C11 C 0.2980(10) 0.0256(7) 0.5341(2)
C12 C 0.2797(9) 0.0916(6) 0.2768(1)
C13 C 0.2054(11) 0.3534(6) 0.2874(2)
C14 C 0.1639(8) 0.1979(5) 0.3031(1)
C15 C -0.0610(9) 0.1703(7) 0.2977(2)
C16 C 0.2380(6) 0.1881(4) 0.3469(1)
C17 C 0.0655(6) -0.0442(5) 0.3701(1)
C18 C 0.1313(7) 0.2932(5) 0.3748(1)
C19 C 0.6173(7) -0.2563(5) 0.3371(1)
C20 C 0.2046(7) -0.2330(4) 0.4104(1)
C21 C 0.6487(10) -0.4063(6) 0.3554(2)
C22 C 0.3174(6) -0.1156(4) 0.4312(1)
loop_
_geom_bond_atom_site_label_1
_geom_bond_atom_site_label_2
_geom_bond_site_symmetry_1
_geom_bond_site_symmetry_2
O1 C17 1_555 1_555
C1 C2 1_555 1_555
O2 C20 1_555 1_555
C2 C8 1_555 1_555
O3 C7 1_555 1_555
C3 C1 1_555 1_555
O4 C3 1_555 1_555
C4 C3 1_555 1_555
O5 C18 1_555 1_555
C5 C4 1_555 1_555
O6 C8 1_555 1_555
C6 C5 1_555 1_555
O7 C19 1_555 1_555
C7 C9 1_555 1_555
C8 C10 1_555 1_555
C9 C5 1_555 1_555
C10 C12 1_555 1_555
C11 C9 1_555 1_555
C12 C14 1_555 1_555
C13 C14 1_555 1_555
C14 C15 1_555 1_555
C16 C2 1_555 1_555
C17 C2 1_555 1_555
C18 C16 1_555 1_555
C19 O6 1_555 1_555
C20 O1 1_555 1_555
C21 C19 1_555 1_555
C22 C1 1_555 1_555
C6 C22 1_555 1_555
C7 C22 1_555 1_555
C14 C16 1_555 1_555
C20 C22 1_555 1_555

#END
