
#######################################################################
#
#                 Cambridge Crystallographic Data Centre
#                                CCDC 
#
#######################################################################
#
# If this CIF has been generated from an entry in the Cambridge 
# Structural Database, then it will include bibliographic, chemical, 
# crystal, experimental, refinement or atomic coordinate data resulting 
# from the CCDC's data processing and validation procedures.
#
#######################################################################

data_CUCZEH01
_chemical_formula_moiety         'C14 H22 Mg1 N8 O8'
_chemical_name_systematic        
tetra-aqua-bis(1,3-dimethyl-2,6-dioxo-1,2,3,6-tetrahydro-7H-purin-7-yl)-magnesium
_symmetry_cell_setting           monoclinic
_symmetry_space_group_name_H-M   'P 21/c'
_symmetry_Int_Tables_number      14
_space_group_name_Hall           '-P 2ybc'
loop_
_symmetry_equiv_pos_site_id
_symmetry_equiv_pos_as_xyz
1 x,y,z
2 -x,1/2+y,1/2-z
3 -x,-y,-z
4 x,1/2-y,1/2+z
_cell_length_a                   7.7090(15)
_cell_length_b                   13.445(3)
_cell_length_c                   9.754(2)
_cell_angle_alpha                90
_cell_angle_beta                 105.19(3)
_cell_angle_gamma                90
_cell_volume                     975.656
_exptl_crystal_colour            colorless
_exptl_crystal_description       block
_cell_formula_units_Z            2
loop_
_atom_site_label
_atom_site_type_symbol
_atom_site_fract_x
_atom_site_fract_y
_atom_site_fract_z
Mg1 Mg 0.5000 0.0000 0.0000
O1 O 0.7886(3) -0.14691(14) 0.32216(19)
N1 N 0.5629(3) 0.04553(15) 0.2276(2)
O2 O 0.7686(3) 0.02225(17) 0.00609(19)
N2 N 0.5573(3) 0.16111(15) 0.4001(2)
N3 N 0.8467(3) -0.08427(15) 0.5475(2)
N4 N 0.7489(3) 0.07358(16) 0.6012(2)
C1 C 0.6655(3) 0.01125(18) 0.3591(2)
C2 C 0.5036(4) 0.13341(19) 0.2616(3)
H1 H 0.4290 0.1736 0.1933
C3 C 0.6587(3) 0.08319(18) 0.4592(3)
C4 C 0.7656(3) -0.07728(19) 0.3996(3)
C5 C 0.8397(3) -0.0122(2) 0.6485(3)
O3 O 0.9140(3) -0.02601(14) 0.77577(18)
O4 O 0.4348(3) 0.14570(13) -0.06128(19)
C6 C 0.9400(4) -0.1772(2) 0.6026(3)
H2 H 1.0673 -0.1656 0.6314
H3 H 0.9135 -0.2270 0.5297
H4 H 0.9002 -0.1996 0.6828
C7 C 0.7466(4) 0.1552(2) 0.7004(3)
H5 H 0.6401 0.1506 0.7335
H6 H 0.7474 0.2177 0.6528
H7 H 0.8508 0.1509 0.7797
H8 H 0.358(4) 0.1563(18) -0.146(2)
H9 H 0.503(3) 0.1945(15) -0.052(3)
H10 H 0.856(3) 0.021(2) 0.081(2)
H11 H 0.814(3) 0.001(2) -0.062(3)
O1B O 0.2114(3) 0.14691(14) -0.32216(19)
N1B N 0.4371(3) -0.04553(15) -0.2276(2)
O2B O 0.2314(3) -0.02225(17) -0.00609(19)
N2B N 0.4427(3) -0.16111(15) -0.4001(2)
N3B N 0.1533(3) 0.08427(15) -0.5475(2)
N4B N 0.2511(3) -0.07358(16) -0.6012(2)
C1B C 0.3345(3) -0.01125(18) -0.3591(2)
C2B C 0.4964(4) -0.13341(19) -0.2616(3)
H1B H 0.5710 -0.1736 -0.1933
C3B C 0.3413(3) -0.08319(18) -0.4592(3)
C4B C 0.2344(3) 0.07728(19) -0.3996(3)
C5B C 0.1603(3) 0.0122(2) -0.6485(3)
O3B O 0.0860(3) 0.02601(14) -0.77577(18)
O4B O 0.5652(3) -0.14570(13) 0.06128(19)
C6B C 0.0600(4) 0.1772(2) -0.6026(3)
H2B H -0.0673 0.1656 -0.6314
H3B H 0.0865 0.2270 -0.5297
H4B H 0.0998 0.1996 -0.6828
C7B C 0.2534(4) -0.1552(2) -0.7004(3)
H5B H 0.3599 -0.1506 -0.7335
H6B H 0.2526 -0.2177 -0.6528
H7B H 0.1492 -0.1509 -0.7797
H8B H 0.642(4) -0.1563(18) 0.146(2)
H9B H 0.497(3) -0.1945(15) 0.052(3)
H10B H 0.144(3) -0.021(2) -0.081(2)
H11B H 0.186(3) -0.001(2) 0.062(3)
loop_
_geom_bond_atom_site_label_1
_geom_bond_atom_site_label_2
_geom_bond_site_symmetry_1
_geom_bond_site_symmetry_2
Mg1 N1 1_555 1_555
O1 C4 1_555 1_555
N1 C1 1_555 1_555
O2 Mg1 1_555 1_555
N2 C2 1_555 1_555
N3 C4 1_555 1_555
N4 C3 1_555 1_555
C1 C3 1_555 1_555
C2 N1 1_555 1_555
H1 C2 1_555 1_555
C3 N2 1_555 1_555
C4 C1 1_555 1_555
C5 N3 1_555 1_555
O3 C5 1_555 1_555
O4 Mg1 1_555 1_555
C6 N3 1_555 1_555
H2 C6 1_555 1_555
H3 C6 1_555 1_555
H4 C6 1_555 1_555
C7 N4 1_555 1_555
H5 C7 1_555 1_555
H6 C7 1_555 1_555
H7 C7 1_555 1_555
H8 O4 1_555 1_555
H9 O4 1_555 1_555
H10 O2 1_555 1_555
H11 O2 1_555 1_555
O1B C4B 1_555 1_555
N1B Mg1 1_555 1_555
O2B Mg1 1_555 1_555
N2B C2B 1_555 1_555
N3B C4B 1_555 1_555
N4B C3B 1_555 1_555
C1B N1B 1_555 1_555
C2B N1B 1_555 1_555
H1B C2B 1_555 1_555
C3B N2B 1_555 1_555
C4B C1B 1_555 1_555
C5B N3B 1_555 1_555
O3B C5B 1_555 1_555
O4B Mg1 1_555 1_555
C6B N3B 1_555 1_555
H2B C6B 1_555 1_555
H3B C6B 1_555 1_555
H4B C6B 1_555 1_555
C7B N4B 1_555 1_555
H5B C7B 1_555 1_555
H6B C7B 1_555 1_555
H7B C7B 1_555 1_555
H8B O4B 1_555 1_555
H9B O4B 1_555 1_555
H10B O2B 1_555 1_555
H11B O2B 1_555 1_555
N4 C5 1_555 1_555
N4B C5B 1_555 1_555
C1B C3B 1_555 1_555

#END
