
#######################################################################
#
#                 Cambridge Crystallographic Data Centre
#                                CCDC 
#
#######################################################################
#
# If this CIF has been generated from an entry in the Cambridge 
# Structural Database, then it will include bibliographic, chemical, 
# crystal, experimental, refinement or atomic coordinate data resulting 
# from the CCDC's data processing and validation procedures.
#
#######################################################################

data_CUDCEK
_chemical_formula_moiety         'C9 H11 N2 O4 1+,Br1 1-'
_chemical_name_systematic        
'(S)-1-Carboxy-2-(4-nitrophenyl)ethanaminium bromide'
_symmetry_cell_setting           monoclinic
_symmetry_space_group_name_H-M   'P 21'
_symmetry_Int_Tables_number      4
_space_group_name_Hall           'P 2yb'
loop_
_symmetry_equiv_pos_site_id
_symmetry_equiv_pos_as_xyz
1 x,y,z
2 -x,1/2+y,-z
_cell_length_a                   5.5378(11)
_cell_length_b                   7.4158(15)
_cell_length_c                   14.246(3)
_cell_angle_alpha                90
_cell_angle_beta                 91.15(3)
_cell_angle_gamma                90
_cell_volume                     584.926
_exptl_crystal_colour            colorless
_exptl_crystal_description       needle
_cell_formula_units_Z            2
_exptl_crystal_recrystallization_method 'water/hydrogen bromide'
loop_
_atom_site_label
_atom_site_type_symbol
_atom_site_fract_x
_atom_site_fract_y
_atom_site_fract_z
O1 O -0.1236(3) 0.1957(5) 0.09374(15)
C1 C 0.3705(6) 0.3156(4) 0.2428(2)
H1 H 0.3926 0.2030 0.2766
H2 H 0.5266 0.3746 0.2405
C2 C 0.0598(5) 0.1544(4) 0.1348(2)
C3 C 0.2848(6) 0.2725(4) 0.1416(2)
H3 H 0.4158 0.2079 0.1109
C4 C 0.2007(5) 0.4342(4) 0.29749(19)
C5 C 0.0984(6) 0.7325(5) 0.3539(2)
H4 H 0.1295 0.8556 0.3573
C6 C -0.1471(7) 0.4776(6) 0.3932(2)
H5 H -0.2795 0.4309 0.4242
C7 C -0.0974(6) 0.6591(5) 0.3970(2)
C8 C 0.0006(6) 0.3660(4) 0.3434(2)
H6 H -0.0333 0.2433 0.3402
C9 C 0.2497(6) 0.6173(5) 0.3048(2)
H7 H 0.3860 0.6640 0.2765
O2 O -0.3908(5) 0.7160(9) 0.5059(2)
N1 N -0.2621(7) 0.7828(7) 0.4470(3)
O3 O -0.2547(8) 0.9417(7) 0.4254(4)
N2 N 0.2332(4) 0.4392(4) 0.08589(18)
H8 H 0.2284 0.4121 0.0250
H9 H 0.3490 0.5200 0.0971
H10 H 0.0915 0.4846 0.1024
O4 O 0.0979(5) -0.0009(3) 0.1777(2)
H11 H -0.0290 -0.0651 0.1733
Br1 Br 0.72355(5) 0.69798(6) 0.112290(18)
loop_
_geom_bond_atom_site_label_1
_geom_bond_atom_site_label_2
_geom_bond_site_symmetry_1
_geom_bond_site_symmetry_2
O1 C2 1_555 1_555
C1 H1 1_555 1_555
H2 C1 1_555 1_555
C2 C3 1_555 1_555
C3 C1 1_555 1_555
H3 C3 1_555 1_555
C4 C1 1_555 1_555
C5 H4 1_555 1_555
C6 H5 1_555 1_555
C7 C5 1_555 1_555
C8 C4 1_555 1_555
H6 C8 1_555 1_555
C9 C4 1_555 1_555
H7 C9 1_555 1_555
O2 N1 1_555 1_555
N1 C7 1_555 1_555
O3 N1 1_555 1_555
N2 C3 1_555 1_555
H8 N2 1_555 1_555
H9 N2 1_555 1_555
H10 N2 1_555 1_555
O4 C2 1_555 1_555
H11 O4 1_555 1_555
C5 C9 1_555 1_555
C6 C7 1_555 1_555
C6 C8 1_555 1_555

#END
