
#######################################################################
#
#                 Cambridge Crystallographic Data Centre
#                                CCDC 
#
#######################################################################
#
# If this CIF has been generated from an entry in the Cambridge 
# Structural Database, then it will include bibliographic, chemical, 
# crystal, experimental, refinement or atomic coordinate data resulting 
# from the CCDC's data processing and validation procedures.
#
#######################################################################

data_CUFBUC
_chemical_formula_moiety         'C31 H22 N4 O4'
_chemical_name_systematic        
3'-(1H-Indol-3-ylcarbonyl)-1'-methyl-2-oxo-4'-(4-oxo-4H-chromen-3-yl)-1,2-dihydrospiro[indole-3,2'-pyrrolidine]-3'-carbonitrile
_symmetry_cell_setting           monoclinic
_symmetry_space_group_name_H-M   'P 21/c'
_symmetry_Int_Tables_number      14
_space_group_name_Hall           '-P 2ybc'
loop_
_symmetry_equiv_pos_site_id
_symmetry_equiv_pos_as_xyz
1 x,y,z
2 -x,1/2+y,1/2-z
3 -x,-y,-z
4 x,1/2-y,1/2+z
_cell_length_a                   20.4687(10)
_cell_length_b                   7.5619(2)
_cell_length_c                   18.5834(8)
_cell_angle_alpha                90
_cell_angle_beta                 105.700(2)
_cell_angle_gamma                90
_cell_volume                     2769.07
_exptl_crystal_colour            colorless
_exptl_crystal_description       block
_cell_formula_units_Z            4
loop_
_atom_site_label
_atom_site_type_symbol
_atom_site_fract_x
_atom_site_fract_y
_atom_site_fract_z
C1 C 0.4404(4) 0.9811(11) 0.0550(5)
H1 H 0.4618 1.0903 0.0572
C2 C 0.4708(4) 0.6963(10) 0.0998(4)
C3 C 0.5212(5) 0.5656(13) 0.1136(6)
H2 H 0.5533 0.5613 0.0864
C4 C 0.5215(5) 0.4438(13) 0.1688(6)
H3 H 0.5563 0.3607 0.1811
C5 C 0.4719(5) 0.4407(12) 0.2067(6)
H4 H 0.4723 0.3537 0.2422
C6 C 0.4209(4) 0.5712(10) 0.1909(4)
H5 H 0.3883 0.5743 0.2174
C7 C 0.4196(4) 0.6946(9) 0.1354(4)
C8 C 0.3626(4) 0.8213(10) 0.1070(4)
C9 C 0.3685(4) 0.9544(9) 0.0620(4)
C10 C 0.3142(4) 1.0784(8) 0.0238(4)
H6 H 0.2773 1.0676 0.0479
C11 C 0.2825(4) 1.0454(9) -0.0631(4)
C12 C 0.3322(4) 0.9681(9) -0.0975(4)
C13 C 0.2660(4) 1.2400(9) -0.0945(4)
C14 C 0.1935(4) 1.2960(9) -0.0882(5)
C15 C 0.1892(4) 1.2984(10) -0.2115(4)
C16 C 0.1660(5) 1.3131(12) -0.2898(5)
H7 H 0.1203 1.3318 -0.3132
C17 C 0.2118(6) 1.2996(14) -0.3301(5)
H8 H 0.1971 1.3099 -0.3818
C18 C 0.2786(5) 1.2713(12) -0.2966(5)
H9 H 0.3088 1.2628 -0.3260
C19 C 0.3029(4) 1.2547(10) -0.2194(4)
H10 H 0.3490 1.2382 -0.1970
C20 C 0.2568(4) 1.2635(8) -0.1764(4)
C21 C 0.3354(5) 1.2756(9) 0.0277(4)
H11 H 0.3091 1.3439 0.0542
H12 H 0.3831 1.2882 0.0535
C22 C 0.3183(5) 1.5278(9) -0.0565(5)
H13 H 0.3578 1.5806 -0.0234
H14 H 0.2784 1.5702 -0.0444
H15 H 0.3162 1.5590 -0.1072
C23 C 0.2178(4) 0.9262(9) -0.0785(4)
C24 C 0.1867(4) 0.8573(9) -0.1523(4)
C25 C 0.1204(4) 0.7662(9) -0.1731(5)
C26 C 0.0752(5) 0.7111(11) -0.1342(5)
H16 H 0.0852 0.7291 -0.0829
C27 C 0.0159(5) 0.6304(12) -0.1710(7)
H17 H -0.0152 0.5954 -0.1455
C28 C 0.0029(5) 0.6012(12) -0.2484(7)
H18 H -0.0377 0.5469 -0.2732
C29 C 0.0465(5) 0.6482(12) -0.2888(6)
H19 H 0.0375 0.6252 -0.3397
C30 C 0.1057(5) 0.7333(10) -0.2489(5)
C31 C 0.2065(4) 0.8709(11) -0.2177(5)
H20 H 0.2469 0.9221 -0.2212
N1 N 0.3711(4) 0.9056(9) -0.1238(4)
N2 N 0.3223(3) 1.3352(7) -0.0483(3)
N3 N 0.1594(4) 0.8002(9) -0.2754(4)
H21 H 0.1616 0.7963 -0.3210
N4 N 0.1541(4) 1.3150(8) -0.1566(4)
H22 H 0.1112 1.3354 -0.1667
O1 O 0.1792(4) 1.3166(8) -0.0297(4)
O2 O 0.28931(14) 0.7765(3) 0.13110(15)
O3 O 0.4707(3) 0.8145(8) 0.0444(3)
O4 O 0.1929(3) 0.9029(9) -0.0270(3)
loop_
_geom_bond_atom_site_label_1
_geom_bond_atom_site_label_2
_geom_bond_site_symmetry_1
_geom_bond_site_symmetry_2
C1 H1 1_555 1_555
C2 C3 1_555 1_555
C3 H2 1_555 1_555
C4 C3 1_555 1_555
H3 C4 1_555 1_555
C5 C4 1_555 1_555
H4 C5 1_555 1_555
C6 C5 1_555 1_555
H5 C6 1_555 1_555
C7 C2 1_555 1_555
C8 C7 1_555 1_555
C9 C1 1_555 1_555
C10 C9 1_555 1_555
H6 C10 1_555 1_555
C11 C10 1_555 1_555
C12 C11 1_555 1_555
C13 C11 1_555 1_555
C14 C13 1_555 1_555
C15 C16 1_555 1_555
C16 H7 1_555 1_555
C17 C16 1_555 1_555
H8 C17 1_555 1_555
C18 C17 1_555 1_555
H9 C18 1_555 1_555
C19 C18 1_555 1_555
H10 C19 1_555 1_555
C20 C13 1_555 1_555
C21 C10 1_555 1_555
H11 C21 1_555 1_555
H12 C21 1_555 1_555
C22 H13 1_555 1_555
H14 C22 1_555 1_555
H15 C22 1_555 1_555
C23 C11 1_555 1_555
C24 C23 1_555 1_555
C25 C24 1_555 1_555
C26 C25 1_555 1_555
H16 C26 1_555 1_555
C27 C26 1_555 1_555
H17 C27 1_555 1_555
C28 C27 1_555 1_555
H18 C28 1_555 1_555
C29 C28 1_555 1_555
H19 C29 1_555 1_555
C30 C25 1_555 1_555
C31 C24 1_555 1_555
H20 C31 1_555 1_555
N1 C12 1_555 1_555
N2 C13 1_555 1_555
N3 C30 1_555 1_555
H21 N3 1_555 1_555
N4 C14 1_555 1_555
H22 N4 1_555 1_555
O1 C14 1_555 1_555
O2 C8 1_555 1_555
O3 C1 1_555 1_555
O4 C23 1_555 1_555
C2 O3 1_555 1_555
C6 C7 1_555 1_555
C8 C9 1_555 1_555
C15 C20 1_555 1_555
C15 N4 1_555 1_555
C19 C20 1_555 1_555
C21 N2 1_555 1_555
C22 N2 1_555 1_555
C29 C30 1_555 1_555
C31 N3 1_555 1_555

#END
