
#######################################################################
#
#                 Cambridge Crystallographic Data Centre
#                                CCDC 
#
#######################################################################
#
# If this CIF has been generated from an entry in the Cambridge 
# Structural Database, then it will include bibliographic, chemical, 
# crystal, experimental, refinement or atomic coordinate data resulting 
# from the CCDC's data processing and validation procedures.
#
#######################################################################

data_CUFCAJ
_chemical_formula_moiety         'C22 H23 Br2 N1 O4'
_chemical_name_systematic        
't-Butyl (R,E)-2-(4-bromobenzyl)-3-(((4-bromobenzylidene)amino)oxy)-2-methyl-3-oxopropanoate'
_symmetry_cell_setting           monoclinic
_symmetry_space_group_name_H-M   'P 21'
_symmetry_Int_Tables_number      4
_space_group_name_Hall           'P 2yb'
loop_
_symmetry_equiv_pos_site_id
_symmetry_equiv_pos_as_xyz
1 x,y,z
2 -x,1/2+y,-z
_cell_length_a                   8.8672(16)
_cell_length_b                   6.1622(10)
_cell_length_c                   22.011(4)
_cell_angle_alpha                90
_cell_angle_beta                 95.606(5)
_cell_angle_gamma                90
_cell_volume                     1196.96
_exptl_crystal_colour            colorless
_exptl_crystal_description       block
_cell_formula_units_Z            2
loop_
_atom_site_label
_atom_site_type_symbol
_atom_site_fract_x
_atom_site_fract_y
_atom_site_fract_z
Br1 Br 0.15688(9) 1.18262(19) 0.44263(4)
Br2 Br 0.12975(10) 0.4620(3) 0.97559(4)
O1 O 0.6503(5) 0.6006(7) 0.73267(16)
O2 O 0.9300(4) 0.2727(7) 0.74120(18)
O3 O 0.5472(5) 0.2672(7) 0.73822(18)
O4 O 1.0067(5) 0.5338(8) 0.8090(2)
N1 N 0.5420(6) 0.6364(10) 0.6813(2)
C1 C 0.7348(6) 0.5398(10) 0.8609(3)
C2 C 0.7588(7) 0.3696(10) 0.8104(3)
C3 C 0.9127(7) 0.4067(11) 0.7872(3)
C4 C 0.6389(7) 0.3939(12) 0.7571(3)
C5 C 0.7538(7) 0.1368(10) 0.8343(3)
C6 C 0.5868(7) 0.5262(10) 0.8884(3)
C7 C 0.4610(7) 0.6405(11) 0.8653(3)
C8 C 0.3245(8) 0.6248(14) 0.8913(3)
C9 C 0.3125(8) 0.4896(14) 0.9395(3)
C10 C 0.4347(10) 0.3753(14) 0.9627(3)
C11 C 0.5713(9) 0.3900(13) 0.9381(3)
C12 C 0.5541(9) 0.8295(13) 0.6623(3)
C13 C 0.4605(7) 0.9100(11) 0.6098(3)
C14 C 0.4832(8) 1.1202(11) 0.5887(3)
C15 C 0.3938(8) 1.1996(14) 0.5383(3)
C16 C 0.2797(8) 1.0723(14) 0.5104(3)
C17 C 0.2555(7) 0.8633(14) 0.5298(3)
C18 C 0.3452(7) 0.7843(11) 0.5801(3)
C19 C 1.0805(7) 0.2275(13) 0.7195(3)
C20 C 1.1791(8) 0.1229(13) 0.7703(4)
C21 C 1.1508(8) 0.4280(14) 0.6963(4)
C22 C 1.0370(10) 0.0675(16) 0.6683(4)
H1 H 0.8162 0.5240 0.8934
H2 H 0.7433 0.6836 0.8436
H3 H 0.8312 0.1179 0.8676
H4 H 0.7709 0.0373 0.8021
H5 H 0.6564 0.1090 0.8482
H6 H 0.4671 0.7300 0.8316
H7 H 0.2415 0.7067 0.8758
H8 H 0.4265 0.2847 0.9960
H9 H 0.6537 0.3087 0.9547
H10 H 0.5584 1.2072 0.6085
H11 H 0.4109 1.3379 0.5235
H12 H 0.1805 0.7771 0.5096
H13 H 0.3282 0.6451 0.5943
H14 H 1.1314 -0.0072 0.7829
H15 H 1.1936 0.2213 0.8042
H16 H 1.2755 0.0876 0.7565
H17 H 1.1776 0.5251 0.7297
H18 H 1.0797 0.4980 0.6669
H19 H 1.2401 0.3896 0.6773
H20 H 0.9633 0.1326 0.6391
H21 H 0.9950 -0.0606 0.6849
H22 H 1.1254 0.0293 0.6487
H23 H 0.621(5) 0.897(7) 0.6826(19)
loop_
_geom_bond_atom_site_label_1
_geom_bond_atom_site_label_2
_geom_bond_site_symmetry_1
_geom_bond_site_symmetry_2
Br1 C16 1_555 1_555
Br2 C9 1_555 1_555
O1 N1 1_555 1_555
O2 C3 1_555 1_555
O3 C4 1_555 1_555
O4 C3 1_555 1_555
N1 C12 1_555 1_555
C1 C2 1_555 1_555
C2 C3 1_555 1_555
C4 O1 1_555 1_555
C5 C2 1_555 1_555
C6 C1 1_555 1_555
C7 C6 1_555 1_555
C8 C7 1_555 1_555
C9 C8 1_555 1_555
C10 C9 1_555 1_555
C11 C6 1_555 1_555
C12 C13 1_555 1_555
C13 C14 1_555 1_555
C14 C15 1_555 1_555
C15 C16 1_555 1_555
C16 C17 1_555 1_555
C17 C18 1_555 1_555
C18 C13 1_555 1_555
C19 O2 1_555 1_555
C20 C19 1_555 1_555
C21 C19 1_555 1_555
C22 C19 1_555 1_555
H1 C1 1_555 1_555
H2 C1 1_555 1_555
H3 C5 1_555 1_555
H4 C5 1_555 1_555
H5 C5 1_555 1_555
H6 C7 1_555 1_555
H7 C8 1_555 1_555
H8 C10 1_555 1_555
H9 C11 1_555 1_555
H10 C14 1_555 1_555
H11 C15 1_555 1_555
H12 C17 1_555 1_555
H13 C18 1_555 1_555
H14 C20 1_555 1_555
H15 C20 1_555 1_555
H16 C20 1_555 1_555
H17 C21 1_555 1_555
H18 C21 1_555 1_555
H19 C21 1_555 1_555
H20 C22 1_555 1_555
H21 C22 1_555 1_555
H22 C22 1_555 1_555
H23 C12 1_555 1_555
C2 C4 1_555 1_555
C10 C11 1_555 1_555

#END
