
#######################################################################
#
#                 Cambridge Crystallographic Data Centre
#                                CCDC 
#
#######################################################################
#
# If this CIF has been generated from an entry in the Cambridge 
# Structural Database, then it will include bibliographic, chemical, 
# crystal, experimental, refinement or atomic coordinate data resulting 
# from the CCDC's data processing and validation procedures.
#
#######################################################################

data_CUGKUL
_chemical_formula_moiety         'C38 H30 N4 Si1'
_chemical_name_systematic        
6,6'-(1,1-Dimethyl-3,4-diphenyl-1H-silole-2,5-diyl)bis(2,2'-bipyridine)
_symmetry_cell_setting           monoclinic
_symmetry_space_group_name_H-M   'P 21/c'
_symmetry_Int_Tables_number      14
_space_group_name_Hall           '-P 2ybc'
loop_
_symmetry_equiv_pos_site_id
_symmetry_equiv_pos_as_xyz
1 x,y,z
2 -x,1/2+y,1/2-z
3 -x,-y,-z
4 x,1/2-y,1/2+z
_cell_length_a                   22.863(4)
_cell_length_b                   10.3528(18)
_cell_length_c                   26.024(4)
_cell_angle_alpha                90
_cell_angle_beta                 90.721(4)
_cell_angle_gamma                90
_cell_volume                     6159.29
_exptl_crystal_colour            green
_exptl_crystal_description       block
_cell_formula_units_Z            8
loop_
_atom_site_label
_atom_site_type_symbol
_atom_site_fract_x
_atom_site_fract_y
_atom_site_fract_z
Si1 Si 0.37222(4) 0.06691(9) -0.09311(4)
N1 N 0.31850(10) -0.0369(2) -0.19784(9)
N2 N 0.19255(11) -0.1102(2) -0.27586(9)
N3 N 0.40053(11) 0.2016(2) 0.00723(10)
N4 N 0.34628(15) 0.3295(3) 0.12543(13)
C1 C 0.40699(13) 0.0008(3) -0.15176(12)
C2 C 0.46447(13) 0.0330(3) -0.15146(12)
C3 C 0.48530(13) 0.1024(3) -0.10388(12)
C4 C 0.44508(13) 0.1182(3) -0.06693(12)
C5 C 0.37531(13) -0.0729(3) -0.19149(12)
C6 C 0.39794(14) -0.1753(4) -0.21872(13)
H1 H 0.4367 -0.1997 -0.2136
C7 C 0.36357(15) -0.2408(4) -0.25319(15)
H2 H 0.3784 -0.3106 -0.2714
C8 C 0.30696(14) -0.2019(4) -0.26040(13)
H3 H 0.2830 -0.2442 -0.2841
C9 C 0.28549(13) -0.0999(3) -0.23240(11)
C10 C 0.22396(13) -0.0571(3) -0.23764(11)
C11 C 0.20011(15) 0.0285(3) -0.20381(13)
H4 H 0.2232 0.0658 -0.1782
C12 C 0.14175(15) 0.0590(4) -0.20793(14)
H5 H 0.1248 0.1163 -0.1850
C13 C 0.10911(15) 0.0037(3) -0.24626(13)
H6 H 0.0694 0.0214 -0.2498
C14 C 0.13645(14) -0.0784(3) -0.27920(12)
H7 H 0.1143 -0.1143 -0.3058
C15 C 0.50465(13) 0.0048(3) -0.19464(12)
C16 C 0.49306(15) 0.0532(3) -0.24304(13)
H8 H 0.4622 0.1105 -0.2479
C17 C 0.52633(19) 0.0182(4) -0.28407(15)
H9 H 0.5176 0.0504 -0.3166
C18 C 0.5726(2) -0.0644(5) -0.27711(17)
H10 H 0.5953 -0.0880 -0.3050
C19 C 0.58537(17) -0.1116(4) -0.22993(16)
H11 H 0.6167 -0.1679 -0.2254
C20 C 0.55202(15) -0.0765(4) -0.18866(14)
H12 H 0.5616 -0.1080 -0.1562
C21 C 0.54558(13) 0.1582(3) -0.10414(12)
C22 C 0.59455(15) 0.0922(4) -0.08813(15)
H13 H 0.5906 0.0084 -0.0757
C23 C 0.64901(17) 0.1466(6) -0.08998(17)
H14 H 0.6817 0.0993 -0.0796
C24 C 0.6553(2) 0.2698(7) -0.10710(19)
H15 H 0.6922 0.3076 -0.1079
C25 C 0.6077(2) 0.3376(5) -0.12303(19)
H16 H 0.6120 0.4218 -0.1348
C26 C 0.55274(17) 0.2820(4) -0.12184(14)
H17 H 0.5204 0.3290 -0.1331
C27 C 0.45183(14) 0.1764(3) -0.01621(12)
C28 C 0.50476(15) 0.1999(4) 0.00926(13)
H18 H 0.5399 0.1799 -0.0065
C29 C 0.50496(17) 0.2524(4) 0.05751(14)
H19 H 0.5401 0.2673 0.0749
C30 C 0.45257(17) 0.2829(3) 0.08008(14)
H20 H 0.4519 0.3223 0.1122
C31 C 0.40108(15) 0.2541(3) 0.05418(12)
C32 C 0.34369(16) 0.2752(3) 0.07936(14)
C33 C 0.2950(2) 0.3504(5) 0.14891(18)
H21 H 0.2960 0.3880 0.1814
C34 C 0.2423(2) 0.3201(5) 0.12837(19)
H22 H 0.2081 0.3379 0.1461
C35 C 0.24000(19) 0.2631(5) 0.08137(19)
H23 H 0.2044 0.2389 0.0666
C36 C 0.29183(17) 0.2419(4) 0.05598(16)
H24 H 0.2915 0.2054 0.0233
C37 C 0.32743(15) 0.2111(4) -0.10936(15)
H25 H 0.3489 0.2663 -0.1320
H26 H 0.3184 0.2573 -0.0785
H27 H 0.2918 0.1843 -0.1260
C38 C 0.33057(16) -0.0540(4) -0.05644(14)
H28 H 0.2989 -0.0863 -0.0773
H29 H 0.3152 -0.0145 -0.0261
H30 H 0.3559 -0.1241 -0.0468
Si2 Si 0.12804(4) 0.75788(9) 0.04902(3)
N5 N 0.18589(13) 0.6741(3) -0.05027(9)
N6 N 0.32070(18) 0.5899(4) -0.11014(14)
N7 N 0.08588(10) 0.8646(2) 0.15690(9)
N8 N 0.11635(16) 1.0174(3) 0.27666(13)
C39 C 0.04416(13) 0.7955(3) 0.13239(11)
C40 C 0.08148(14) 0.8845(3) 0.20723(12)
C41 C 0.03693(15) 0.8319(4) 0.23634(13)
H31 H 0.0349 0.8478 0.2714
C42 C -0.00392(14) 0.7561(4) 0.21192(13)
H32 H -0.0334 0.7166 0.2306
C43 C -0.00114(13) 0.7389(3) 0.15977(12)
H33 H -0.0293 0.6896 0.1427
C44 C 0.12898(18) 0.9620(3) 0.23198(14)
C45 C 0.18338(19) 0.9721(4) 0.21007(17)
H34 H 0.1909 0.9320 0.1789
C46 C 0.2265(2) 1.0420(5) 0.2348(2)
H35 H 0.2634 1.0510 0.2206
C47 C 0.2135(3) 1.0982(5) 0.2810(3)
H36 H 0.2417 1.1452 0.2991
C48 C 0.1592(3) 1.0843(5) 0.2998(2)
H37 H 0.1510 1.1238 0.3310
C49 C -0.05178(13) 0.7702(3) 0.04619(12)
C50 C -0.07837(15) 0.8809(4) 0.06454(13)
H38 H -0.0556 0.9524 0.0731
C51 C -0.13784(17) 0.8863(5) 0.07025(15)
H39 H -0.1552 0.9616 0.0823
C52 C -0.17150(18) 0.7823(6) 0.05839(16)
H40 H -0.2118 0.7863 0.0626
C53 C -0.14640(18) 0.6714(5) 0.04023(16)
H41 H -0.1696 0.6003 0.0322
C54 C -0.08646(15) 0.6653(4) 0.03380(13)
H42 H -0.0695 0.5903 0.0211
C55 C -0.00489(14) 0.7312(3) -0.05826(11)
C56 C -0.04022(14) 0.8345(3) -0.07197(12)
H43 H -0.0404 0.9086 -0.0518
C57 C -0.07515(15) 0.8280(4) -0.11542(13)
H44 H -0.0984 0.8982 -0.1246
C58 C -0.07588(15) 0.7190(4) -0.14510(13)
H45 H -0.0993 0.7152 -0.1745
C59 C -0.04203(16) 0.6157(4) -0.13138(13)
H46 H -0.0430 0.5410 -0.1512
C60 C -0.00670(15) 0.6216(3) -0.08853(13)
H47 H 0.0164 0.5509 -0.0797
C61 C 0.13232(15) 0.7195(3) -0.06179(12)
C62 C 0.11675(18) 0.7534(4) -0.11161(13)
H48 H 0.0797 0.7859 -0.1190
C63 C 0.1567(2) 0.7383(4) -0.14990(15)
H49 H 0.1469 0.7604 -0.1836
C64 C 0.2114(2) 0.6904(4) -0.13844(14)
H50 H 0.2390 0.6793 -0.1640
C65 C 0.22428(16) 0.6593(3) -0.08808(13)
C66 C 0.28309(18) 0.6083(3) -0.07264(15)
C67 C 0.3736(3) 0.5435(6) -0.0956(3)
H51 H 0.4006 0.5287 -0.1214
C68 C 0.3906(2) 0.5168(5) -0.0473(3)
H52 H 0.4279 0.4851 -0.0401
C69 C 0.3520(2) 0.5376(4) -0.0096(2)
H53 H 0.3621 0.5211 0.0245
C70 C 0.29728(19) 0.5838(4) -0.02269(18)
H54 H 0.2699 0.5983 0.0028
C71 C 0.17627(15) 0.9008(4) 0.04918(14)
H55 H 0.2096 0.8841 0.0281
H56 H 0.1891 0.9188 0.0837
H57 H 0.1552 0.9738 0.0358
C72 C 0.16421(15) 0.6165(4) 0.07895(13)
H58 H 0.1385 0.5433 0.0771
H59 H 0.1733 0.6353 0.1143
H60 H 0.1996 0.5975 0.0610
C73 C 0.05363(13) 0.7795(3) 0.07712(12)
C74 C 0.01270(13) 0.7643(3) 0.03929(11)
C75 C 0.03605(14) 0.7406(3) -0.01349(12)
C76 C 0.09536(14) 0.7323(3) -0.01630(11)
loop_
_geom_bond_atom_site_label_1
_geom_bond_atom_site_label_2
_geom_bond_site_symmetry_1
_geom_bond_site_symmetry_2
Si1 C1 1_555 1_555
Si2 C71 1_555 1_555
N1 C5 1_555 1_555
N2 C10 1_555 1_555
N3 C27 1_555 1_555
N4 C32 1_555 1_555
N5 C61 1_555 1_555
N6 C66 1_555 1_555
N7 C39 1_555 1_555
N8 C44 1_555 1_555
C1 C2 1_555 1_555
C2 C3 1_555 1_555
C3 C4 1_555 1_555
C4 Si1 1_555 1_555
C5 C1 1_555 1_555
C6 C5 1_555 1_555
H1 C6 1_555 1_555
C7 C6 1_555 1_555
H2 C7 1_555 1_555
C8 C7 1_555 1_555
H3 C8 1_555 1_555
C9 N1 1_555 1_555
C10 C9 1_555 1_555
C11 C10 1_555 1_555
H4 C11 1_555 1_555
C12 C11 1_555 1_555
H5 C12 1_555 1_555
C13 C12 1_555 1_555
H6 C13 1_555 1_555
C14 N2 1_555 1_555
H7 C14 1_555 1_555
C15 C2 1_555 1_555
C16 C15 1_555 1_555
H8 C16 1_555 1_555
C17 C16 1_555 1_555
H9 C17 1_555 1_555
C18 C17 1_555 1_555
H10 C18 1_555 1_555
C19 C18 1_555 1_555
H11 C19 1_555 1_555
C20 C15 1_555 1_555
H12 C20 1_555 1_555
C21 C3 1_555 1_555
C22 C21 1_555 1_555
H13 C22 1_555 1_555
C23 C22 1_555 1_555
H14 C23 1_555 1_555
C24 C23 1_555 1_555
H15 C24 1_555 1_555
C25 C24 1_555 1_555
H16 C25 1_555 1_555
C26 C21 1_555 1_555
H17 C26 1_555 1_555
C27 C4 1_555 1_555
C28 C27 1_555 1_555
H18 C28 1_555 1_555
C29 C28 1_555 1_555
H19 C29 1_555 1_555
C30 C29 1_555 1_555
H20 C30 1_555 1_555
C31 N3 1_555 1_555
C32 C31 1_555 1_555
C33 N4 1_555 1_555
H21 C33 1_555 1_555
C34 C33 1_555 1_555
H22 C34 1_555 1_555
C35 C34 1_555 1_555
H23 C35 1_555 1_555
C36 C32 1_555 1_555
H24 C36 1_555 1_555
C37 Si1 1_555 1_555
H25 C37 1_555 1_555
H26 C37 1_555 1_555
H27 C37 1_555 1_555
C38 Si1 1_555 1_555
H28 C38 1_555 1_555
H29 C38 1_555 1_555
H30 C38 1_555 1_555
C39 C43 1_555 1_555
C40 N7 1_555 1_555
C41 C40 1_555 1_555
H31 C41 1_555 1_555
C42 C41 1_555 1_555
H32 C42 1_555 1_555
C43 C42 1_555 1_555
H33 C43 1_555 1_555
C44 C40 1_555 1_555
C45 C44 1_555 1_555
H34 C45 1_555 1_555
C46 C45 1_555 1_555
H35 C46 1_555 1_555
C47 C46 1_555 1_555
H36 C47 1_555 1_555
C48 N8 1_555 1_555
H37 C48 1_555 1_555
C49 C50 1_555 1_555
C50 H38 1_555 1_555
C51 C50 1_555 1_555
H39 C51 1_555 1_555
C52 C51 1_555 1_555
H40 C52 1_555 1_555
C53 C52 1_555 1_555
H41 C53 1_555 1_555
C54 C49 1_555 1_555
H42 C54 1_555 1_555
C55 C56 1_555 1_555
C56 H43 1_555 1_555
C57 C56 1_555 1_555
H44 C57 1_555 1_555
C58 C57 1_555 1_555
H45 C58 1_555 1_555
C59 C58 1_555 1_555
H46 C59 1_555 1_555
C60 C55 1_555 1_555
H47 C60 1_555 1_555
C61 C62 1_555 1_555
C62 H48 1_555 1_555
C63 C62 1_555 1_555
H49 C63 1_555 1_555
C64 C63 1_555 1_555
H50 C64 1_555 1_555
C65 N5 1_555 1_555
C66 C65 1_555 1_555
C67 N6 1_555 1_555
H51 C67 1_555 1_555
C68 C67 1_555 1_555
H52 C68 1_555 1_555
C69 C68 1_555 1_555
H53 C69 1_555 1_555
C70 C66 1_555 1_555
H54 C70 1_555 1_555
C71 H55 1_555 1_555
H56 C71 1_555 1_555
H57 C71 1_555 1_555
C72 Si2 1_555 1_555
H58 C72 1_555 1_555
H59 C72 1_555 1_555
H60 C72 1_555 1_555
C73 Si2 1_555 1_555
C74 C49 1_555 1_555
C75 C55 1_555 1_555
C76 Si2 1_555 1_555
C8 C9 1_555 1_555
C13 C14 1_555 1_555
C19 C20 1_555 1_555
C25 C26 1_555 1_555
C30 C31 1_555 1_555
C35 C36 1_555 1_555
C39 C73 1_555 1_555
C47 C48 1_555 1_555
C53 C54 1_555 1_555
C59 C60 1_555 1_555
C61 C76 1_555 1_555
C64 C65 1_555 1_555
C69 C70 1_555 1_555
C73 C74 1_555 1_555
C74 C75 1_555 1_555
C75 C76 1_555 1_555

#END
