
#######################################################################
#
#                 Cambridge Crystallographic Data Centre
#                                CCDC 
#
#######################################################################
#
# If this CIF has been generated from an entry in the Cambridge 
# Structural Database, then it will include bibliographic, chemical, 
# crystal, experimental, refinement or atomic coordinate data resulting 
# from the CCDC's data processing and validation procedures.
#
#######################################################################

data_CUGLOF
_chemical_formula_moiety         'C10 H9 N3 O6'
_chemical_name_systematic        
6,6,8-Trinitropentacyclo(5.3.0.0^2,5^.0^3,9^.0^4,8^)decane
_symmetry_cell_setting           monoclinic
_symmetry_space_group_name_H-M   'P 21/c'
_symmetry_Int_Tables_number      14
_space_group_name_Hall           '-P 2ybc'
loop_
_symmetry_equiv_pos_site_id
_symmetry_equiv_pos_as_xyz
1 x,y,z
2 -x,1/2+y,1/2-z
3 -x,-y,-z
4 x,1/2-y,1/2+z
_cell_length_a                   9.352(4)
_cell_length_b                   7.401(2)
_cell_length_c                   16.070(6)
_cell_angle_alpha                90
_cell_angle_beta                 97.76(4)
_cell_angle_gamma                90
_cell_volume                     1102.09
_cell_formula_units_Z            4
loop_
_atom_site_label
_atom_site_type_symbol
_atom_site_fract_x
_atom_site_fract_y
_atom_site_fract_z
C1 C 0.1401(3) 0.2679(4) 0.2836(2)
C2 C 0.3409(3) 0.1639(4) 0.3661(2)
C3 C 0.3443(4) 0.3679(4) 0.3882(2)
C4 C 0.1908(4) 0.4220(5) 0.3467(2)
C5 C 0.0919(4) 0.3520(5) 0.4094(2)
C6 C 0.0759(3) 0.1763(4) 0.3551(2)
C7 C 0.2109(3) 0.1087(4) 0.4131(2)
C8 C 0.1985(3) 0.2629(4) 0.4781(2)
C9 C 0.2767(3) 0.1666(4) 0.2748(2)
C10 C 0.3380(4) 0.3686(6) 0.4825(2)
N1 N 0.2485(3) -0.0150(4) 0.2325(2)
N2 N 0.3736(4) 0.2632(5) 0.2199(2)
N3 N 0.2140(4) -0.0789(4) 0.4466(2)
O1 O 0.2004(2) -0.1313(3) 0.2736(2)
O2 O 0.2684(3) -0.0331(4) 0.1605(2)
O3 O 0.4972(3) 0.2117(5) 0.2260(2)
O4 O 0.3220(3) 0.3855(4) 0.1765(2)
O5 O 0.1025(3) -0.1578(4) 0.4451(2)
O6 O 0.3313(3) -0.1399(4) 0.4768(2)
H1 H 0.071(4) 0.296(5) 0.230(2)
H2 H 0.419(3) 0.103(4) 0.383(2)
H3 H 0.418(3) 0.424(4) 0.370(2)
H4 H 0.182(3) 0.530(4) 0.332(2)
H5 H 0.019(3) 0.417(4) 0.425(2)
H6 H -0.016(4) 0.079(5) 0.352(2)
H7 H 0.164(3) 0.230(4) 0.523(2)
H8 H 0.419(3) 0.302(4) 0.512(2)
H9 H 0.325(4) 0.502(6) 0.502(2)
loop_
_geom_bond_atom_site_label_1
_geom_bond_atom_site_label_2
_geom_bond_site_symmetry_1
_geom_bond_site_symmetry_2
C1 C4 1_555 1_555
C2 C3 1_555 1_555
C3 C4 1_555 1_555
C4 C5 1_555 1_555
C5 C6 1_555 1_555
C6 C1 1_555 1_555
C7 C2 1_555 1_555
C8 C5 1_555 1_555
C9 C1 1_555 1_555
C10 C3 1_555 1_555
N1 C9 1_555 1_555
N2 C9 1_555 1_555
N3 C7 1_555 1_555
O1 N1 1_555 1_555
O2 N1 1_555 1_555
O3 N2 1_555 1_555
O4 N2 1_555 1_555
O5 N3 1_555 1_555
O6 N3 1_555 1_555
H1 C1 1_555 1_555
H2 C2 1_555 1_555
H3 C3 1_555 1_555
H4 C4 1_555 1_555
H5 C5 1_555 1_555
H6 C6 1_555 1_555
H7 C8 1_555 1_555
H8 C10 1_555 1_555
H9 C10 1_555 1_555
C2 C9 1_555 1_555
C6 C7 1_555 1_555
C7 C8 1_555 1_555
C8 C10 1_555 1_555

#END
