
#######################################################################
#
#                 Cambridge Crystallographic Data Centre
#                                CCDC 
#
#######################################################################
#
# If this CIF has been generated from an entry in the Cambridge 
# Structural Database, then it will include bibliographic, chemical, 
# crystal, experimental, refinement or atomic coordinate data resulting 
# from the CCDC's data processing and validation procedures.
#
#######################################################################

data_CUHBEO
_chemical_formula_moiety         'C39 H38 O5 S1'
_chemical_name_systematic        
"((5,7-bis(4'-propylbiphenyl-4-yl)-2,3-dihydrothieno[3,4-b][1,4]dioxin-2-yl)methoxy)acetic acid"
_symmetry_cell_setting           triclinic
_symmetry_space_group_name_H-M   'P -1'
_symmetry_Int_Tables_number      2
_space_group_name_Hall           '-P 1'
loop_
_symmetry_equiv_pos_site_id
_symmetry_equiv_pos_as_xyz
1 x,y,z
2 -x,-y,-z
_cell_length_a                   10.864(2)
_cell_length_b                   10.911(2)
_cell_length_c                   30.296(6)
_cell_angle_alpha                86.07(3)
_cell_angle_beta                 88.87(3)
_cell_angle_gamma                62.68(3)
_cell_volume                     3182.85
_exptl_crystal_colour            colorless
_exptl_crystal_description       block
_cell_formula_units_Z            4
loop_
_atom_site_label
_atom_site_type_symbol
_atom_site_fract_x
_atom_site_fract_y
_atom_site_fract_z
S1 S 0.23567(11) 0.83558(10) 0.37530(3)
O1 O 0.3003(3) 0.5936(3) 0.48066(9)
O2 O 0.2190(3) 0.8734(3) 0.50214(9)
O3 O 0.4622(4) 0.1678(3) 0.49499(10)
O4 O 0.4585(4) 0.0428(3) 0.55568(11)
H1 H 0.4800 -0.0178 0.5382
C1 C 0.3988(4) 0.3079(4) 0.33641(13)
C2 C 0.3224(4) 0.5515(4) 0.38148(13)
C3 C 0.2825(4) 0.6778(4) 0.40461(13)
C4 C 0.1551(4) 1.0756(4) 0.41853(13)
C5 C 0.2322(4) 0.8356(4) 0.45935(13)
C6 C 0.2746(4) 0.6965(4) 0.44889(13)
C7 C 0.3258(5) 0.5146(4) 0.55590(13)
H2 H 0.3824 0.5144 0.5803
H3 H 0.2364 0.5302 0.5676
C8 C 0.4020(4) 0.3049(4) 0.38245(13)
H4 H 0.4305 0.2207 0.3987
C9 C 0.4430(4) 0.1771(4) 0.31356(13)
C10 C 0.3642(4) 0.4230(4) 0.40454(13)
H5 H 0.3665 0.4171 0.4353
C11 C 0.3550(5) 0.4368(4) 0.31327(14)
H6 H 0.3512 0.4426 0.2825
C12 C 0.0527(4) 1.3672(4) 0.40759(13)
C13 C 0.3175(5) 0.5551(4) 0.33515(14)
H7 H 0.2882 0.6393 0.3189
C14 C -0.0037(4) 1.5206(4) 0.40116(14)
C15 C 0.2067(4) 0.9255(4) 0.42293(13)
C16 C 0.4361(5) 0.0642(5) 0.33552(14)
H8 H 0.3978 0.0728 0.3636
C17 C 0.5408(5) -0.0781(5) 0.27400(14)
C18 C 0.4967(5) 0.1602(4) 0.27136(14)
H9 H 0.5007 0.2345 0.2557
C19 C 0.1138(5) 1.2932(4) 0.44707(15)
H10 H 0.1212 1.3405 0.4704
C20 C 0.3996(5) 0.2745(4) 0.56373(14)
H11 H 0.3116 0.2930 0.5773
H12 H 0.4678 0.2514 0.5871
C21 C 0.4435(5) 0.1559(4) 0.53468(14)
C22 C 0.5445(5) 0.0358(5) 0.25183(14)
H13 H 0.5798 0.0283 0.2234
C23 C 0.0957(6) 1.1501(5) 0.37923(16)
H14 H 0.0891 1.1033 0.3556
C24 C 0.4856(5) -0.0612(5) 0.31614(14)
H15 H 0.4815 -0.1357 0.3318
C25 C -0.1129(5) 1.8120(4) 0.38733(16)
C26 C -0.0509(5) 1.7429(4) 0.42710(16)
H16 H -0.0452 1.7930 0.4499
C27 C 0.0030(5) 1.6001(4) 0.43363(16)
H17 H 0.0448 1.5569 0.4607
C28 C 0.1642(5) 1.1510(4) 0.45271(15)
H18 H 0.2045 1.1051 0.4796
C29 C 0.0457(5) 1.2925(4) 0.37381(15)
H19 H 0.0065 1.3383 0.3468
C30 C 0.2412(7) 0.7653(5) 0.53423(16)
H20 H 0.2947 0.7729 0.5582
H21 H 0.1515 0.7829 0.5461
C31 C -0.1704(6) 1.9678(5) 0.38082(19)
H22 H -0.2655 2.0103 0.3908
H23 H -0.1179 1.9961 0.3996
C32 C -0.1678(6) 2.0232(5) 0.3343(2)
H24 H -0.2230 1.9985 0.3154
H25 H -0.0733 1.9799 0.3238
C33 C 0.6571(8) -0.4664(6) 0.2540(2)
H26 H 0.5863 -0.4634 0.2349
H27 H 0.6857 -0.5447 0.2750
H28 H 0.7351 -0.4742 0.2368
C34 C -0.0672(7) 1.5911(5) 0.36153(17)
H29 H -0.0747 1.5416 0.3389
C35 C 0.5925(7) -0.2131(6) 0.25248(18)
H30 H 0.5334 -0.1973 0.2269
H31 H 0.6845 -0.2363 0.2415
C36 C -0.1198(7) 1.7340(5) 0.35477(18)
H32 H -0.1605 1.7773 0.3276
C37 C 0.6005(8) -0.3346(6) 0.2785(2)
H33 H 0.5084 -0.3142 0.2888
H34 H 0.6587 -0.3512 0.3044
C38 C -0.2233(6) 2.1801(5) 0.3302(2)
H35 H -0.3184 2.2238 0.3391
H36 H -0.2166 2.2097 0.3001
H37 H -0.1696 2.2054 0.3490
O5 O 0.3868(7) 0.3900(4) 0.53862(13)
C39 C 0.3060(9) 0.6291(5) 0.52319(16)
H38 H 0.4016 0.6159 0.5229
S2 S 0.75253(12) 0.28231(11) 0.12565(4)
O6 O 0.8054(3) 0.0845(3) 0.02043(9)
O7 O 0.7215(3) 0.3736(3) -0.00123(9)
O8 O 0.9629(4) -0.3349(3) 0.00537(10)
C40 C 0.9213(4) -0.2634(4) 0.16486(13)
C41 C 0.8385(4) 0.0010(4) 0.11939(13)
O9 O 0.9536(4) -0.4332(3) -0.05579(11)
H39 H 0.9699 -0.4997 -0.0383
C42 C 0.9686(4) -0.4042(4) 0.18750(13)
C43 C 0.8824(5) -0.1455(4) 0.18779(14)
H40 H 0.8842 -0.1531 0.2186
C44 C 0.6669(4) 0.5411(4) 0.08183(14)
C45 C 0.8206(5) 0.0385(4) -0.05498(13)
H41 H 0.7291 0.0584 -0.0654
H42 H 0.8716 0.0501 -0.0802
C46 C 0.5054(4) 0.9796(4) 0.09773(13)
C47 C 0.7958(4) 0.1367(4) 0.09643(13)
C48 C 0.8410(5) -0.0167(5) 0.16588(14)
H43 H 0.8140 0.0601 0.1824
C49 C 0.5630(4) 0.8292(4) 0.09154(13)
C50 C 0.7399(4) 0.3178(4) 0.04144(14)
C51 C 0.7178(4) 0.3927(4) 0.07802(14)
C52 C 0.7832(4) 0.1746(4) 0.05235(13)
C53 C 0.9181(4) -0.2458(4) 0.11859(14)
H44 H 0.9442 -0.3227 0.1022
C54 C 0.9573(5) -0.5070(4) 0.16617(15)
H45 H 0.9171 -0.4866 0.1381
C55 C 1.0277(5) -0.4392(4) 0.22956(13)
H46 H 1.0353 -0.3721 0.2450
C56 C 0.3967(5) 1.2661(4) 0.11112(15)
C57 C 0.8780(4) -0.1191(4) 0.09667(14)
H47 H 0.8768 -0.1124 0.0659
C58 C 1.0760(5) -0.5725(5) 0.24902(14)
H48 H 1.1162 -0.5929 0.2771
C59 C 0.4637(5) 1.2113(4) 0.07278(15)
H49 H 0.4733 1.2698 0.0507
C60 C 0.8910(5) -0.1969(4) -0.06316(15)
H50 H 0.9540 -0.2102 -0.0876
H51 H 0.7996 -0.1708 -0.0753
C61 C 0.6147(5) 0.7721(4) 0.05145(15)
H52 H 0.6161 0.8290 0.0273
C62 C 0.9394(5) -0.3287(4) -0.03426(15)
C63 C 1.0042(5) -0.6386(5) 0.18558(15)
H53 H 0.9947 -0.7048 0.1703
C64 C 0.3412(5) 1.4182(4) 0.11814(17)
H54 H 0.3884 1.4557 0.0982
H55 H 0.2436 1.4651 0.1101
C65 C 1.0656(5) -0.6754(4) 0.22762(14)
C66 C 0.6646(5) 0.6308(4) 0.04677(15)
H56 H 0.6972 0.5960 0.0194
C67 C 0.5176(5) 1.0714(4) 0.06608(15)
H57 H 0.5628 1.0386 0.0398
C68 C 0.4336(6) 1.0355(4) 0.13571(16)
H58 H 0.4202 0.9781 0.1573
C69 C 0.3812(6) 1.1752(5) 0.14216(16)
H59 H 0.3344 1.2087 0.1681
C70 C 0.6188(6) 0.5988(5) 0.12209(16)
H60 H 0.6209 0.5418 0.1467
C71 C 0.5683(6) 0.7382(5) 0.12627(15)
H61 H 0.5362 0.7727 0.1537
C72 C 0.3570(5) 1.4511(5) 0.16467(17)
H62 H 0.4542 1.4031 0.1732
H63 H 0.3074 1.4167 0.1847
O10 O 0.8864(7) -0.0937(4) -0.03796(13)
C73 C 1.1162(9) -0.9259(6) 0.2249(2)
H64 H 1.1697 -0.9335 0.1983
H65 H 1.0212 -0.8962 0.2157
C74 C 0.3030(6) 1.6053(5) 0.1698(2)
H66 H 0.3462 1.6418 0.1484
H67 H 0.3244 1.6192 0.1990
H68 H 0.2044 1.6521 0.1651
C75 C 0.8074(9) 0.1376(5) -0.02217(16)
H69 H 0.9030 0.1242 -0.0224
C76 C 0.7401(8) 0.2781(5) -0.03349(16)
H70 H 0.6489 0.2997 -0.0448
H71 H 0.7900 0.2962 -0.0579
C77 C 1.1186(7) -0.8197(5) 0.24918(18)
H72 H 1.2137 -0.8501 0.2584
H73 H 1.0656 -0.8133 0.2759
C78 C 1.1695(7) -1.0679(6) 0.2477(2)
H74 H 1.2586 -1.0945 0.2609
H75 H 1.1779 -1.1327 0.2265
H76 H 1.1060 -1.0673 0.2703
loop_
_geom_bond_atom_site_label_1
_geom_bond_atom_site_label_2
_geom_bond_site_symmetry_1
_geom_bond_site_symmetry_2
S1 C3 1_555 1_555
O1 C6 1_555 1_555
O2 C5 1_555 1_555
O3 C21 1_555 1_555
O4 H1 1_555 1_555
C1 C8 1_555 1_555
C2 C3 1_555 1_555
C3 C6 1_555 1_555
C4 C15 1_555 1_555
C5 C6 1_555 1_555
C7 H2 1_555 1_555
H3 C7 1_555 1_555
C8 H4 1_555 1_555
C9 C1 1_555 1_555
C10 C2 1_555 1_555
H5 C10 1_555 1_555
C11 C1 1_555 1_555
H6 C11 1_555 1_555
C12 C14 1_555 1_555
C13 C2 1_555 1_555
H7 C13 1_555 1_555
C14 C27 1_555 1_555
C15 S1 1_555 1_555
C16 C9 1_555 1_555
H8 C16 1_555 1_555
C17 C22 1_555 1_555
C18 C9 1_555 1_555
H9 C18 1_555 1_555
C19 C12 1_555 1_555
H10 C19 1_555 1_555
C20 H11 1_555 1_555
H12 C20 1_555 1_555
C21 O4 1_555 1_555
C22 C18 1_555 1_555
H13 C22 1_555 1_555
C23 C4 1_555 1_555
H14 C23 1_555 1_555
C24 C16 1_555 1_555
H15 C24 1_555 1_555
C25 C26 1_555 1_555
C26 H16 1_555 1_555
C27 C26 1_555 1_555
H17 C27 1_555 1_555
C28 C4 1_555 1_555
H18 C28 1_555 1_555
C29 C12 1_555 1_555
H19 C29 1_555 1_555
C30 O2 1_555 1_555
H20 C30 1_555 1_555
H21 C30 1_555 1_555
C31 C25 1_555 1_555
H22 C31 1_555 1_555
H23 C31 1_555 1_555
C32 C31 1_555 1_555
H24 C32 1_555 1_555
H25 C32 1_555 1_555
C33 H26 1_555 1_555
H27 C33 1_555 1_555
H28 C33 1_555 1_555
C34 C14 1_555 1_555
H29 C34 1_555 1_555
C35 C17 1_555 1_555
H30 C35 1_555 1_555
H31 C35 1_555 1_555
C36 C25 1_555 1_555
H32 C36 1_555 1_555
C37 C33 1_555 1_555
H33 C37 1_555 1_555
H34 C37 1_555 1_555
C38 C32 1_555 1_555
H35 C38 1_555 1_555
H36 C38 1_555 1_555
H37 C38 1_555 1_555
O5 C7 1_555 1_555
C39 O1 1_555 1_555
H38 C39 1_555 1_555
S2 C47 1_555 1_555
O6 C52 1_555 1_555
O7 C50 1_555 1_555
O8 C62 1_555 1_555
C40 C42 1_555 1_555
C41 C47 1_555 1_555
O9 H39 1_555 1_555
C42 C54 1_555 1_555
C43 C40 1_555 1_555
H40 C43 1_555 1_555
C44 C51 1_555 1_555
C45 H41 1_555 1_555
H42 C45 1_555 1_555
C46 C49 1_555 1_555
C47 C52 1_555 1_555
C48 C41 1_555 1_555
H43 C48 1_555 1_555
C49 C61 1_555 1_555
C50 C51 1_555 1_555
C51 S2 1_555 1_555
C52 C50 1_555 1_555
C53 C40 1_555 1_555
H44 C53 1_555 1_555
C54 H45 1_555 1_555
C55 C42 1_555 1_555
H46 C55 1_555 1_555
C56 C59 1_555 1_555
C57 C41 1_555 1_555
H47 C57 1_555 1_555
C58 C55 1_555 1_555
H48 C58 1_555 1_555
C59 H49 1_555 1_555
C60 H50 1_555 1_555
H51 C60 1_555 1_555
C61 H52 1_555 1_555
C62 O9 1_555 1_555
C63 C54 1_555 1_555
H53 C63 1_555 1_555
C64 C56 1_555 1_555
H54 C64 1_555 1_555
H55 C64 1_555 1_555
C65 C58 1_555 1_555
C66 C44 1_555 1_555
H56 C66 1_555 1_555
C67 C46 1_555 1_555
H57 C67 1_555 1_555
C68 C46 1_555 1_555
H58 C68 1_555 1_555
C69 C56 1_555 1_555
H59 C69 1_555 1_555
C70 C44 1_555 1_555
H60 C70 1_555 1_555
C71 C49 1_555 1_555
H61 C71 1_555 1_555
C72 C64 1_555 1_555
H62 C72 1_555 1_555
H63 C72 1_555 1_555
O10 C45 1_555 1_555
C73 H64 1_555 1_555
H65 C73 1_555 1_555
C74 C72 1_555 1_555
H66 C74 1_555 1_555
H67 C74 1_555 1_555
H68 C74 1_555 1_555
C75 O6 1_555 1_555
H69 C75 1_555 1_555
C76 O7 1_555 1_555
H70 C76 1_555 1_555
H71 C76 1_555 1_555
C77 C65 1_555 1_555
H72 C77 1_555 1_555
H73 C77 1_555 1_555
C78 C73 1_555 1_555
H74 C78 1_555 1_555
H75 C78 1_555 1_555
H76 C78 1_555 1_555
C5 C15 1_555 1_555
C7 C39 1_555 1_555
C8 C10 1_555 1_555
C11 C13 1_555 1_555
C17 C24 1_555 1_555
C19 C28 1_555 1_555
C20 C21 1_555 1_555
C20 O5 1_555 1_555
C23 C29 1_555 1_555
C30 C39 1_555 1_555
C34 C36 1_555 1_555
C35 C37 1_555 1_555
C43 C48 1_555 1_555
C45 C75 1_555 1_555
C53 C57 1_555 1_555
C59 C67 1_555 1_555
C60 C62 1_555 1_555
C60 O10 1_555 1_555
C61 C66 1_555 1_555
C63 C65 1_555 1_555
C68 C69 1_555 1_555
C70 C71 1_555 1_555
C73 C77 1_555 1_555
C75 C76 1_555 1_555

#END
