
#######################################################################
#
#                 Cambridge Crystallographic Data Centre
#                                CCDC 
#
#######################################################################
#
# If this CIF has been generated from an entry in the Cambridge 
# Structural Database, then it will include bibliographic, chemical, 
# crystal, experimental, refinement or atomic coordinate data resulting 
# from the CCDC's data processing and validation procedures.
#
#######################################################################

data_CUHJUL
_chemical_formula_moiety         'C19 H20 O6'
_chemical_name_systematic        
'2-(2-Methoxy-2-oxoethyl)phenyl (3,4-dimethoxyphenyl)acetate'
_symmetry_cell_setting           monoclinic
_symmetry_space_group_name_H-M   'P 21/c'
_symmetry_Int_Tables_number      14
_space_group_name_Hall           '-P 2ybc'
loop_
_symmetry_equiv_pos_site_id
_symmetry_equiv_pos_as_xyz
1 x,y,z
2 -x,1/2+y,1/2-z
3 -x,-y,-z
4 x,1/2-y,1/2+z
_cell_length_a                   10.173(2)
_cell_length_b                   10.459(2)
_cell_length_c                   16.516(3)
_cell_angle_alpha                90
_cell_angle_beta                 102.30(3)
_cell_angle_gamma                90
_cell_volume                     1716.95
_exptl_crystal_colour            colorless
_exptl_crystal_description       block
_chemical_melting_point          '65-66 deg.C'
_cell_formula_units_Z            4
_exptl_crystal_recrystallization_method 'ethyl acetate/petroleum ether'
loop_
_atom_site_label
_atom_site_type_symbol
_atom_site_fract_x
_atom_site_fract_y
_atom_site_fract_z
O1 O -0.0279(4) -0.2947(3) 0.0535(2)
C1 C 0.1355(7) -0.4914(7) 0.1027(4)
H1 H 0.2015 -0.5496 0.1324
H2 H 0.1611 -0.4652 0.0525
H3 H 0.0495 -0.5330 0.0893
O2 O 0.1271(4) -0.3808(3) 0.1534(2)
C2 C 0.0415(4) -0.2922(4) 0.1199(3)
O3 O 0.0797(3) 0.0228(3) 0.08920(18)
C3 C 0.0402(5) -0.1917(5) 0.1844(3)
H4 H 0.1270 -0.1494 0.1970
H5 H 0.0267 -0.2324 0.2348
O4 O 0.1325(3) 0.2026(3) 0.1633(2)
C4 C -0.0706(4) -0.0907(4) 0.1568(3)
O5 O 0.6055(3) 0.3302(3) 0.30905(17)
C5 C -0.1901(5) -0.0989(5) 0.1764(3)
H6 H -0.2077 -0.1678 0.2081
O6 O 0.6949(3) 0.4768(3) 0.2091(2)
C6 C -0.2903(5) -0.0076(5) 0.1512(3)
H7 H -0.3739 -0.0175 0.1647
C7 C -0.2656(5) 0.0965(5) 0.1067(4)
H8 H -0.3313 0.1587 0.0906
C8 C -0.1404(5) 0.1079(5) 0.0856(3)
H9 H -0.1216 0.1763 0.0539
C9 C -0.0476(4) 0.0168(4) 0.1125(3)
C10 C 0.1599(4) 0.1234(4) 0.1168(3)
C11 C 0.2845(4) 0.1159(4) 0.0835(3)
H10 H 0.2602 0.1212 0.0235
H11 H 0.3264 0.0333 0.0978
C12 C 0.3869(4) 0.2212(4) 0.1161(3)
C13 C 0.4298(4) 0.3012(4) 0.0614(3)
H12 H 0.3907 0.2982 0.0051
C14 C 0.5323(4) 0.3864(4) 0.0915(3)
H13 H 0.5634 0.4387 0.0541
C15 C 0.5894(4) 0.3974(4) 0.1728(3)
C16 C 0.5435(4) 0.3144(4) 0.2302(3)
C17 C 0.4449(4) 0.2283(4) 0.1998(3)
H14 H 0.4157 0.1727 0.2362
C18 C 0.5681(6) 0.2422(6) 0.3655(4)
H15 H 0.6190 0.2593 0.4204
H16 H 0.5860 0.1567 0.3498
H17 H 0.4738 0.2512 0.3646
C19 C 0.7740(5) 0.5210(5) 0.1587(3)
H18 H 0.8419 0.5763 0.1895
H19 H 0.7199 0.5678 0.1136
H20 H 0.8161 0.4502 0.1372
loop_
_geom_bond_atom_site_label_1
_geom_bond_atom_site_label_2
_geom_bond_site_symmetry_1
_geom_bond_site_symmetry_2
O1 C2 1_555 1_555
C1 H1 1_555 1_555
H2 C1 1_555 1_555
H3 C1 1_555 1_555
O2 C1 1_555 1_555
C2 O2 1_555 1_555
O3 C9 1_555 1_555
C3 C2 1_555 1_555
H4 C3 1_555 1_555
H5 C3 1_555 1_555
O4 C10 1_555 1_555
C4 C3 1_555 1_555
O5 C16 1_555 1_555
C5 C4 1_555 1_555
H6 C5 1_555 1_555
O6 C15 1_555 1_555
C6 C5 1_555 1_555
H7 C6 1_555 1_555
C7 C6 1_555 1_555
H8 C7 1_555 1_555
C8 C7 1_555 1_555
H9 C8 1_555 1_555
C9 C4 1_555 1_555
C10 O3 1_555 1_555
C11 C10 1_555 1_555
H10 C11 1_555 1_555
H11 C11 1_555 1_555
C12 C11 1_555 1_555
C13 C12 1_555 1_555
H12 C13 1_555 1_555
C14 C13 1_555 1_555
H13 C14 1_555 1_555
C15 C14 1_555 1_555
C16 C15 1_555 1_555
C17 C12 1_555 1_555
H14 C17 1_555 1_555
C18 O5 1_555 1_555
H15 C18 1_555 1_555
H16 C18 1_555 1_555
H17 C18 1_555 1_555
C19 O6 1_555 1_555
H18 C19 1_555 1_555
H19 C19 1_555 1_555
H20 C19 1_555 1_555
C8 C9 1_555 1_555
C16 C17 1_555 1_555

#END
