
#######################################################################
#
#                 Cambridge Crystallographic Data Centre
#                                CCDC 
#
#######################################################################
#
# If this CIF has been generated from an entry in the Cambridge 
# Structural Database, then it will include bibliographic, chemical, 
# crystal, experimental, refinement or atomic coordinate data resulting 
# from the CCDC's data processing and validation procedures.
#
#######################################################################

data_CUHTUW
_chemical_formula_moiety         'C28 H27 N1 O5 S1'
_chemical_name_systematic        
'Ethyl 3-(1-((4-methylphenyl)sulfonyl)-3-(2-oxo-2-phenylethyl)-2,3-dihydro-1H-indol-2-yl)acrylate'
_symmetry_cell_setting           monoclinic
_symmetry_space_group_name_H-M   'P 21/n'
_symmetry_Int_Tables_number      14
_space_group_name_Hall           '-P 2yn'
loop_
_symmetry_equiv_pos_site_id
_symmetry_equiv_pos_as_xyz
1 x,y,z
2 1/2-x,1/2+y,1/2-z
3 -x,-y,-z
4 1/2+x,1/2-y,1/2+z
_cell_length_a                   10.290(3)
_cell_length_b                   16.124(4)
_cell_length_c                   15.403(4)
_cell_angle_alpha                90
_cell_angle_beta                 106.600(3)
_cell_angle_gamma                90
_cell_volume                     2449.09
_exptl_crystal_colour            colorless
_exptl_crystal_description       block
_cell_formula_units_Z            4
_exptl_crystal_recrystallization_method dichloromethane/hexane
loop_
_atom_site_label
_atom_site_type_symbol
_atom_site_fract_x
_atom_site_fract_y
_atom_site_fract_z
S1 S 0.14862(5) 0.25337(3) 0.61681(3)
O1 O 0.13462(16) 0.31656(10) 0.54978(9)
O2 O 0.13286(16) 0.16804(9) 0.59055(10)
O3 O 0.39686(15) 0.06838(9) 0.89628(9)
O4 O 0.68867(18) 0.06672(11) 0.66972(12)
O5 O 0.62403(17) 0.13878(10) 0.53912(11)
N1 N 0.30370(16) 0.26131(10) 0.68569(10)
C1 C 0.36164(19) 0.19079(12) 0.74724(12)
H1 H 0.2883 0.1499 0.7465
C2 C 0.41452(19) 0.22955(12) 0.84381(12)
H2 H 0.5098 0.2109 0.8727
C3 C 0.41335(18) 0.32149(12) 0.82393(12)
C4 C 0.4649(2) 0.38681(12) 0.88204(13)
H3 H 0.5113 0.3767 0.9439
C5 C 0.4478(2) 0.46714(13) 0.84858(14)
H4 H 0.4811 0.5125 0.8881
C6 C 0.3824(2) 0.48171(13) 0.75789(14)
H5 H 0.3719 0.5371 0.7360
C7 C 0.3320(2) 0.41690(12) 0.69827(13)
H6 H 0.2888 0.4269 0.6359
C8 C 0.34722(18) 0.33731(11) 0.73335(12)
C9 C 0.0371(2) 0.27584(13) 0.68095(13)
C10 C -0.0194(2) 0.21051(14) 0.71713(15)
H7 H -0.0014 0.1547 0.7045
C11 C -0.1019(2) 0.22778(17) 0.77161(18)
H8 H -0.1407 0.1835 0.7965
C12 C -0.1286(2) 0.30935(18) 0.79038(19)
C13 C -0.0733(2) 0.37308(16) 0.7526(2)
H9 H -0.0927 0.4289 0.7642
C14 C 0.0096(2) 0.35732(14) 0.69817(17)
H10 H 0.0473 0.4017 0.6728
C15 C -0.2200(4) 0.3279(3) 0.8492(3)
H11 H -0.2918 0.2859 0.8386
H12 H -0.2608 0.3828 0.8340
H13 H -0.1668 0.3268 0.9130
C16 C 0.3267(2) 0.20781(12) 0.90545(12)
H14 H 0.3570 0.2409 0.9618
H15 H 0.2314 0.2230 0.8747
C17 C 0.33339(19) 0.11646(12) 0.92954(12)
C18 C 0.2607(2) 0.08644(12) 0.99494(13)
C19 C 0.1665(2) 0.13490(14) 1.02090(16)
H16 H 0.1470 0.1894 0.9974
C20 C 0.1012(3) 0.10379(17) 1.08083(19)
H17 H 0.0364 0.1368 1.0983
C21 C 0.1302(3) 0.02464(17) 1.11541(18)
H18 H 0.0847 0.0033 1.1563
C22 C 0.2247(3) -0.02365(15) 1.09083(16)
H19 H 0.2452 -0.0777 1.1155
C23 C 0.2894(2) 0.00688(13) 1.03027(13)
H20 H 0.3537 -0.0265 1.0127
C24 C 0.4725(2) 0.14859(12) 0.71863(13)
H21 H 0.5202 0.1055 0.7566
C25 C 0.5097(2) 0.16589(12) 0.64539(14)
H22 H 0.4665 0.2099 0.6070
C26 C 0.6174(2) 0.11802(13) 0.62223(15)
C27 C 0.7214(3) 0.09359(16) 0.5051(2)
H23 H 0.8044 0.0837 0.5555
H24 H 0.7466 0.1278 0.4591
C28 C 0.6670(3) 0.01305(16) 0.46429(19)
H25 H 0.5821 0.0223 0.4165
H26 H 0.6498 -0.0230 0.5110
H27 H 0.7331 -0.0134 0.4383
loop_
_geom_bond_atom_site_label_1
_geom_bond_atom_site_label_2
_geom_bond_site_symmetry_1
_geom_bond_site_symmetry_2
S1 O1 1_555 1_555
O2 S1 1_555 1_555
O3 C17 1_555 1_555
O4 C26 1_555 1_555
O5 C26 1_555 1_555
N1 S1 1_555 1_555
C1 N1 1_555 1_555
H1 C1 1_555 1_555
C2 C1 1_555 1_555
H2 C2 1_555 1_555
C3 C2 1_555 1_555
C4 C3 1_555 1_555
H3 C4 1_555 1_555
C5 C4 1_555 1_555
H4 C5 1_555 1_555
C6 C5 1_555 1_555
H5 C6 1_555 1_555
C7 C6 1_555 1_555
H6 C7 1_555 1_555
C8 N1 1_555 1_555
C9 S1 1_555 1_555
C10 C9 1_555 1_555
H7 C10 1_555 1_555
C11 C10 1_555 1_555
H8 C11 1_555 1_555
C12 C11 1_555 1_555
C13 C12 1_555 1_555
H9 C13 1_555 1_555
C14 C9 1_555 1_555
H10 C14 1_555 1_555
C15 C12 1_555 1_555
H11 C15 1_555 1_555
H12 C15 1_555 1_555
H13 C15 1_555 1_555
C16 C2 1_555 1_555
H14 C16 1_555 1_555
H15 C16 1_555 1_555
C17 C16 1_555 1_555
C18 C17 1_555 1_555
C19 C18 1_555 1_555
H16 C19 1_555 1_555
C20 C19 1_555 1_555
H17 C20 1_555 1_555
C21 C20 1_555 1_555
H18 C21 1_555 1_555
C22 C21 1_555 1_555
H19 C22 1_555 1_555
C23 C18 1_555 1_555
H20 C23 1_555 1_555
C24 C1 1_555 1_555
H21 C24 1_555 1_555
C25 C24 1_555 1_555
H22 C25 1_555 1_555
C26 C25 1_555 1_555
C27 O5 1_555 1_555
H23 C27 1_555 1_555
H24 C27 1_555 1_555
C28 C27 1_555 1_555
H25 C28 1_555 1_555
H26 C28 1_555 1_555
H27 C28 1_555 1_555
C3 C8 1_555 1_555
C7 C8 1_555 1_555
C13 C14 1_555 1_555
C22 C23 1_555 1_555

#END
