
#######################################################################
#
#                 Cambridge Crystallographic Data Centre
#                                CCDC 
#
#######################################################################
#
# If this CIF has been generated from an entry in the Cambridge 
# Structural Database, then it will include bibliographic, chemical, 
# crystal, experimental, refinement or atomic coordinate data resulting 
# from the CCDC's data processing and validation procedures.
#
#######################################################################

data_CUHTOO
_chemical_formula_moiety         'C10 H8 S8 1+,C10 H8 S8,Br2 I1 1-'
_chemical_name_systematic        
'bis(bis(Ethylenedithio)-tetrathiafulvalene) dibromo-iodide'
_symmetry_cell_setting           triclinic
_symmetry_space_group_name_H-M   'P -1'
_symmetry_Int_Tables_number      2
_space_group_name_Hall           '-P 1'
loop_
_symmetry_equiv_pos_site_id
_symmetry_equiv_pos_as_xyz
1 x,y,z
2 -x,-y,-z
_cell_length_a                   6.593(1)
_cell_length_b                   8.975(2)
_cell_length_c                   15.093(4)
_cell_angle_alpha                93.79(2)
_cell_angle_beta                 94.97(2)
_cell_angle_gamma                110.54(2)
_cell_volume                     828.697
_exptl_crystal_colour            black
_cell_formula_units_Z            1
loop_
_atom_site_label
_atom_site_type_symbol
_atom_site_fract_x
_atom_site_fract_y
_atom_site_fract_z
I1 I 0.0000 0.0000 0.0000
Br1 Br 0.3668(1) 0.2516(1) -0.0134
Br1A Br -0.3668(1) -0.2516(1) 0.0134
S1 S 0.4663(1) -0.2595(1) 0.4475(1)
S2 S 0.1029(2) -0.1444(1) 0.4277(1)
S3 S 0.2801(1) -0.4301(1) 0.6217(1)
S4 S -0.0817(1) -0.3117(1) 0.6003(1)
S5 S 0.6482(2) -0.1383(1) 0.2845(1)
S6 S 0.2177(2) 0.0033(1) 0.2619(1)
S7 S 0.1959(2) -0.5386(1) 0.7996(1)
S8 S -0.2389(2) -0.3973(1) 0.7726(1)
C1 C 0.2306(5) -0.2521(4) 0.4874(2)
C2 C 0.1531(5) -0.3244(4) 0.5601(2)
C3 C 0.4464(6) -0.1575(4) 0.3542(2)
C4 C 0.2798(6) -0.1046(4) 0.3451(2)
C5 C 0.1154(5) -0.4517(4) 0.7087(2)
C6 C -0.0486(5) -0.3972(4) 0.6993(2)
C7 C 0.6312(8) 0.0229(6) 0.2263(4)
C8 C 0.4268(9) 0.0233(8) 0.1917(4)
C9 C 0.0400(10) -0.4922(9) 0.8821(3)
C10 C -0.1860(9) -0.5212(8) 0.8527(4)
loop_
_geom_bond_atom_site_label_1
_geom_bond_atom_site_label_2
_geom_bond_site_symmetry_1
_geom_bond_site_symmetry_2
S1 C1 1_555 1_555
S2 C1 1_555 1_555
S3 C2 1_555 1_555
S4 C2 1_555 1_555
S5 C3 1_555 1_555
S6 C4 1_555 1_555
S7 C5 1_555 1_555
S8 C6 1_555 1_555
C1 C2 1_555 1_555
C3 S1 1_555 1_555
C4 S2 1_555 1_555
C5 S3 1_555 1_555
C6 S4 1_555 1_555
C7 S5 1_555 1_555
C8 S6 1_555 1_555
C9 S7 1_555 1_555
C10 S8 1_555 1_555
I1 Br1 1_555 1_555
Br1A I1 1_555 1_555
C3 C4 1_555 1_555
C5 C6 1_555 1_555
C7 C8 1_555 1_555
C9 C10 1_555 1_555

#END
