
#######################################################################
#
#                 Cambridge Crystallographic Data Centre
#                                CCDC 
#
#######################################################################
#
# If this CIF has been generated from an entry in the Cambridge 
# Structural Database, then it will include bibliographic, chemical, 
# crystal, experimental, refinement or atomic coordinate data resulting 
# from the CCDC's data processing and validation procedures.
#
#######################################################################

data_CUJJIC
_chemical_formula_moiety         'C29 H25 N3 2+,2(Cl1 O4 1-)'
_chemical_name_systematic        
'Dihydrogen 4-((bis(2-pyridylmethyl)amino)methyl)pyrene diperchlorate'
_symmetry_cell_setting           triclinic
_symmetry_space_group_name_H-M   'P -1'
_symmetry_Int_Tables_number      2
_space_group_name_Hall           '-P 1'
loop_
_symmetry_equiv_pos_site_id
_symmetry_equiv_pos_as_xyz
1 x,y,z
2 -x,-y,-z
_cell_length_a                   9.0754(6)
_cell_length_b                   12.1776(8)
_cell_length_c                   13.6784(9)
_cell_angle_alpha                68.332(2)
_cell_angle_beta                 79.214(2)
_cell_angle_gamma                87.433(2)
_cell_volume                     1379.56
_cell_formula_units_Z            2
loop_
_atom_site_label
_atom_site_type_symbol
_atom_site_fract_x
_atom_site_fract_y
_atom_site_fract_z
C1 C 0.6193(6) 0.5209(5) 0.3664(4)
C2 C 0.6549(6) 0.5980(5) 0.1098(4)
C3 C 0.5883(7) 0.4999(6) 0.1085(5)
H1 H 0.4871 0.4994 0.1046
C4 C 0.5892(8) 0.3967(5) 0.4114(4)
C5 C 0.5052(6) 0.5955(5) 0.3230(4)
C6 C 0.7622(7) 0.5658(5) 0.3642(4)
H2 H 0.7818 0.6469 0.3344
C7 C 0.8842(7) 0.4991(6) 0.1226(5)
H3 H 0.9845 0.4997 0.1289
C8 C 0.5800(6) 0.7143(5) 0.0954(4)
H4 H 0.6085 0.7675 0.0216
H5 H 0.4720 0.7018 0.1105
C9 C 0.6747(6) 0.9626(5) 0.1733(5)
C10 C 0.8394(11) 0.3634(8) 0.4546(5)
C11 C 0.5269(7) 0.7279(5) 0.2730(4)
H6 H 0.4295 0.7637 0.2683
H7 H 0.5729 0.7548 0.3190
C12 C 0.4464(12) 0.3523(7) 0.4094(5)
C13 C 0.7012(12) 0.3205(6) 0.4556(5)
C14 C 0.8725(8) 0.4908(8) 0.4058(5)
H8 H 0.9664 0.5208 0.4027
C15 C 0.6111(7) 0.8987(5) 0.1140(5)
H9 H 0.5069 0.9191 0.1119
H10 H 0.6656 0.9245 0.0409
C16 C 0.3697(7) 0.5471(7) 0.3250(5)
H11 H 0.2948 0.5977 0.2980
C17 C 0.8206(9) 0.4011(6) 0.1198(6)
H12 H 0.8775 0.3349 0.1224
C18 C 0.3409(10) 0.4280(9) 0.3650(6)
H13 H 0.2497 0.3986 0.3620
C19 C 0.8933(8) 1.0068(6) 0.2210(6)
H14 H 0.9956 0.9969 0.2208
C20 C 0.6677(10) 1.0937(6) 0.2661(6)
H15 H 0.6141 1.1434 0.2968
C21 C 0.6737(9) 0.4014(6) 0.1133(6)
H16 H 0.6295 0.3347 0.1119
C22 C 0.5964(8) 1.0333(6) 0.2184(5)
H17 H 0.4942 1.0420 0.2179
C23 C 0.8177(10) 1.0786(6) 0.2670(6)
H18 H 0.8673 1.1175 0.2990
C24 C 0.666(2) 0.1945(8) 0.5037(6)
C25 C 0.525(3) 0.1528(10) 0.5025(9)
H19 H 0.5023 0.0722 0.5341
C26 C 0.4238(17) 0.2248(11) 0.4581(9)
H20 H 0.3330 0.1925 0.4577
C27 C 0.9541(14) 0.2868(12) 0.4974(7)
H21 H 1.0495 0.3151 0.4932
C28 C 0.912(3) 0.161(2) 0.5484(15)
H22 H 0.9786 0.1069 0.5834
C29 C 0.784(3) 0.1251(17) 0.5447(13)
H23 H 0.7671 0.0437 0.5723
N1 N 0.6211(5) 0.7685(4) 0.1654(3)
N2 N 0.8007(5) 0.5953(4) 0.1162(4)
N3 N 0.8221(6) 0.9495(4) 0.1756(4)
Cl1 Cl 0.12975(15) 0.78099(14) 0.10080(13)
O1 O 0.1529(12) 0.6625(7) 0.1326(10)
O2 O 0.2420(9) 0.8112(12) 0.0175(8)
O3 O -0.0082(5) 0.8176(6) 0.0646(5)
O4 O 0.1545(15) 0.8270(14) 0.1663(14)
Cl2 Cl 0.78033(18) 0.76976(17) 0.80024(13)
O5 O 0.6359(7) 0.7508(10) 0.8112(11)
O6 O 0.8359(17) 0.6740(15) 0.8448(13)
O7 O 0.8641(15) 0.8126(12) 0.6985(7)
O8 O 0.7970(15) 0.8429(14) 0.8506(10)
loop_
_geom_bond_atom_site_label_1
_geom_bond_atom_site_label_2
_geom_bond_site_symmetry_1
_geom_bond_site_symmetry_2
C1 C4 1_555 1_555
C2 C3 1_555 1_555
C3 H1 1_555 1_555
C4 C12 1_555 1_555
C5 C1 1_555 1_555
C6 C1 1_555 1_555
H2 C6 1_555 1_555
C7 H3 1_555 1_555
C8 C2 1_555 1_555
H4 C8 1_555 1_555
H5 C8 1_555 1_555
C9 C15 1_555 1_555
C10 C13 1_555 1_555
C11 C5 1_555 1_555
H6 C11 1_555 1_555
H7 C11 1_555 1_555
C12 C18 1_555 1_555
C13 C4 1_555 1_555
C14 C6 1_555 1_555
H8 C14 1_555 1_555
C15 H9 1_555 1_555
H10 C15 1_555 1_555
C16 C5 1_555 1_555
H11 C16 1_555 1_555
C17 C7 1_555 1_555
H12 C17 1_555 1_555
C18 C16 1_555 1_555
H13 C18 1_555 1_555
C19 H14 1_555 1_555
C20 H15 1_555 1_555
C21 C3 1_555 1_555
H16 C21 1_555 1_555
C22 C9 1_555 1_555
H17 C22 1_555 1_555
C23 C19 1_555 1_555
H18 C23 1_555 1_555
C24 C13 1_555 1_555
C25 C24 1_555 1_555
H19 C25 1_555 1_555
C26 C12 1_555 1_555
H20 C26 1_555 1_555
C27 C10 1_555 1_555
H21 C27 1_555 1_555
C28 C27 1_555 1_555
H22 C28 1_555 1_555
C29 C24 1_555 1_555
H23 C29 1_555 1_555
N1 C8 1_555 1_555
N2 C2 1_555 1_555
N3 C9 1_555 1_555
Cl1 O1 1_555 1_555
O2 Cl1 1_555 1_555
O3 Cl1 1_555 1_555
O4 Cl1 1_555 1_555
Cl2 O5 1_555 1_555
O6 Cl2 1_555 1_555
O7 Cl2 1_555 1_555
O8 Cl2 1_555 1_555
C7 N2 1_555 1_555
C10 C14 1_555 1_555
C11 N1 1_555 1_555
C15 N1 1_555 1_555
C17 C21 1_555 1_555
C19 N3 1_555 1_555
C20 C22 1_555 1_555
C20 C23 1_555 1_555
C25 C26 1_555 1_555
C28 C29 1_555 1_555

#END
