
#######################################################################
#
#                 Cambridge Crystallographic Data Centre
#                                CCDC 
#
#######################################################################
#
# If this CIF has been generated from an entry in the Cambridge 
# Structural Database, then it will include bibliographic, chemical, 
# crystal, experimental, refinement or atomic coordinate data resulting 
# from the CCDC's data processing and validation procedures.
#
#######################################################################

data_CUKNUT
_chemical_formula_moiety         'C7 H11 N2 1+,C7 H6 O3,C7 H5 O3 1-'
_chemical_name_systematic        
'4-(Dimethylamino)pyridinium 4-hydroxybenzoate 4-hydroxybenzoic acid'
_symmetry_cell_setting           monoclinic
_symmetry_space_group_name_H-M   'P 21'
_symmetry_Int_Tables_number      4
_space_group_name_Hall           'P 2yb'
loop_
_symmetry_equiv_pos_site_id
_symmetry_equiv_pos_as_xyz
1 x,y,z
2 -x,1/2+y,-z
_cell_length_a                   6.5885(3)
_cell_length_b                   9.5705(4)
_cell_length_c                   15.4124(6)
_cell_angle_alpha                90
_cell_angle_beta                 96.868(3)
_cell_angle_gamma                90
_cell_volume                     964.859
_exptl_crystal_colour            colorless
_exptl_crystal_description       block
_cell_formula_units_Z            2
loop_
_atom_site_label
_atom_site_type_symbol
_atom_site_fract_x
_atom_site_fract_y
_atom_site_fract_z
O1 O 1.4156(3) -0.0432(2) 0.52387(13)
O2 O 0.9556(3) 0.3523(2) 0.23837(11)
O3 O 0.7297(3) 0.3647(2) 0.33373(12)
C1 C 1.2873(5) 0.0475(3) 0.47736(17)
C2 C 1.3597(5) 0.1160(3) 0.40730(17)
H1 H 1.4936 0.1018 0.3958
C3 C 1.0349(4) 0.2319(3) 0.37218(16)
C4 C 1.2330(5) 0.2048(3) 0.35485(16)
H2 H 1.2814 0.2471 0.3070
C5 C 1.0919(5) 0.0763(3) 0.49672(17)
H3 H 1.0435 0.0332 0.5443
C6 C 0.9677(4) 0.1691(3) 0.44560(17)
H4 H 0.8382 0.1898 0.4603
C7 C 0.8987(5) 0.3227(3) 0.31177(17)
H5 H 1.359(7) -0.076(5) 0.570(3)
N1 N 1.5877(4) 0.8912(3) 0.28521(15)
C8 C 1.4159(5) 0.8165(3) 0.27468(18)
C9 C 1.2235(5) 0.6137(3) 0.30734(19)
H6 H 1.2109 0.5335 0.3403
N2 N 1.0787(4) 0.6436(3) 0.24133(17)
C10 C 1.7524(5) 0.8530(4) 0.35303(19)
H7 H 1.7046 0.8603 0.4093
H8 H 1.8661 0.9150 0.3505
H9 H 1.7946 0.7587 0.3438
C11 C 1.0910(5) 0.7601(4) 0.19392(19)
H10 H 0.9865 0.7811 0.1498
C12 C 1.3881(5) 0.6980(3) 0.32714(18)
H11 H 1.4828 0.6779 0.3752
C13 C 1.6242(6) 1.0015(4) 0.2231(2)
H12 H 1.6097 0.9638 0.1650
H13 H 1.7600 1.0376 0.2373
H14 H 1.5268 1.0753 0.2264
C14 C 1.2527(5) 0.8481(3) 0.20891(18)
H15 H 1.2566 0.9293 0.1760
H16 H 0.965(5) 0.587(4) 0.225(2)
O4 O 0.6823(3) 0.6113(2) 0.15947(13)
O5 O -0.0799(4) 0.6568(2) -0.13442(13)
O6 O 0.4876(3) 0.4298(2) 0.19131(13)
C15 C 0.5297(5) 0.5384(3) 0.14321(19)
C16 C 0.0718(5) 0.6312(3) -0.06849(17)
C17 C 0.2548(5) 0.7051(3) -0.05821(18)
H17 H 0.2770 0.7764 -0.0970
C18 C 0.1912(5) 0.4904(3) 0.05637(18)
H18 H 0.1706 0.4175 0.0942
C19 C 0.4030(5) 0.6728(3) 0.00944(19)
H19 H 0.5244 0.7234 0.0164
C20 C 0.3740(5) 0.5651(3) 0.06788(17)
C21 C 0.0399(5) 0.5235(3) -0.01080(18)
H20 H -0.0825 0.4740 -0.0174
H21 H 0.586(6) 0.418(5) 0.242(2)
H22 H -0.047(6) 0.718(4) -0.171(2)
loop_
_geom_bond_atom_site_label_1
_geom_bond_atom_site_label_2
_geom_bond_site_symmetry_1
_geom_bond_site_symmetry_2
O1 C1 1_555 1_555
O2 C7 1_555 1_555
O3 C7 1_555 1_555
C1 C2 1_555 1_555
C2 H1 1_555 1_555
C3 C4 1_555 1_555
C4 C2 1_555 1_555
H2 C4 1_555 1_555
C5 C1 1_555 1_555
H3 C5 1_555 1_555
C6 C3 1_555 1_555
H4 C6 1_555 1_555
C7 C3 1_555 1_555
H5 O1 1_555 1_555
N1 C8 1_555 1_555
C8 C12 1_555 1_555
C9 H6 1_555 1_555
N2 C9 1_555 1_555
C10 N1 1_555 1_555
H7 C10 1_555 1_555
H8 C10 1_555 1_555
H9 C10 1_555 1_555
C11 N2 1_555 1_555
H10 C11 1_555 1_555
C12 C9 1_555 1_555
H11 C12 1_555 1_555
C13 N1 1_555 1_555
H12 C13 1_555 1_555
H13 C13 1_555 1_555
H14 C13 1_555 1_555
C14 C8 1_555 1_555
H15 C14 1_555 1_555
H16 N2 1_555 1_555
O4 C15 1_555 1_555
O5 C16 1_555 1_555
O6 C15 1_555 1_555
C15 C20 1_555 1_555
C16 C17 1_555 1_555
C17 H17 1_555 1_555
C18 H18 1_555 1_555
C19 C17 1_555 1_555
H19 C19 1_555 1_555
C20 C18 1_555 1_555
C21 C16 1_555 1_555
H20 C21 1_555 1_555
H21 O6 1_555 1_555
H22 O5 1_555 1_555
C5 C6 1_555 1_555
C11 C14 1_555 1_555
C18 C21 1_555 1_555
C19 C20 1_555 1_555

#END
