
#######################################################################
#
#                 Cambridge Crystallographic Data Centre
#                                CCDC 
#
#######################################################################
#
# If this CIF has been generated from an entry in the Cambridge 
# Structural Database, then it will include bibliographic, chemical, 
# crystal, experimental, refinement or atomic coordinate data resulting 
# from the CCDC's data processing and validation procedures.
#
#######################################################################

data_CUNDIA
_chemical_formula_moiety         'C16 H15 N3 O2'
_chemical_name_systematic        
'ethyl 2-methyl-1-(pyrimidin-2-yl)-1H-indole-3-carboxylate'
_symmetry_cell_setting           monoclinic
_symmetry_space_group_name_H-M   'P 21/n'
_symmetry_Int_Tables_number      14
_space_group_name_Hall           '-P 2yn'
loop_
_symmetry_equiv_pos_site_id
_symmetry_equiv_pos_as_xyz
1 x,y,z
2 1/2-x,1/2+y,1/2-z
3 -x,-y,-z
4 1/2+x,1/2-y,1/2+z
_cell_length_a                   7.349(6)
_cell_length_b                   11.325(10)
_cell_length_c                   17.355(15)
_cell_angle_alpha                90
_cell_angle_beta                 101.492(13)
_cell_angle_gamma                90
_cell_volume                     1415.46
_exptl_crystal_colour            colorless
_exptl_crystal_description       block
_chemical_melting_point          '369-371 K'
_cell_formula_units_Z            4
_exptl_crystal_recrystallization_method dichloromethane/hexane
loop_
_atom_site_label
_atom_site_type_symbol
_atom_site_fract_x
_atom_site_fract_y
_atom_site_fract_z
C1 C 0.6535(2) 0.96456(15) 0.86335(10)
C2 C 0.6310(3) 1.04791(18) 0.80318(12)
H1 H 0.6502 1.1278 0.8144
C3 C 0.5800(3) 1.0096(2) 0.72707(12)
H2 H 0.5644 1.0644 0.6864
C4 C 0.5514(3) 0.8919(2) 0.70949(12)
H3 H 0.5191 0.8687 0.6571
C5 C 0.5695(2) 0.80750(18) 0.76773(11)
H4 H 0.5489 0.7279 0.7560
C6 C 0.6193(2) 0.84658(16) 0.84417(10)
C7 C 0.7108(2) 0.97123(16) 0.94732(10)
C8 C 0.7119(2) 0.85951(15) 0.97699(10)
C9 C 0.6373(2) 0.65910(16) 0.91840(10)
C10 C 0.4675(3) 0.49897(18) 0.87881(12)
H5 H 0.3604 0.4638 0.8505
C11 C 0.6020(3) 0.42859(18) 0.91982(13)
H6 H 0.5904 0.3468 0.9194
C12 C 0.7541(3) 0.48349(18) 0.96147(13)
H7 H 0.8467 0.4375 0.9915
C13 C 0.7607(2) 1.08068(16) 0.98957(11)
C14 C 0.8635(3) 1.17221(18) 1.11269(12)
H8 H 0.7622 1.2286 1.1033
H9 H 0.9719 1.2087 1.0987
C15 C 0.9047(3) 1.1356(2) 1.19672(12)
H10 H 0.7994 1.0949 1.2088
H11 H 0.9307 1.2043 1.2295
H12 H 1.0106 1.0841 1.2060
C16 C 0.7548(3) 0.81769(19) 1.05961(11)
H13 H 0.8870 0.8121 1.0771
H14 H 0.6999 0.7414 1.0629
H15 H 0.7055 0.8725 1.0924
N1 N 0.65590(18) 0.78261(13) 0.91485(8)
N2 N 0.4819(2) 0.61586(13) 0.87717(9)
N3 N 0.7772(2) 0.60049(14) 0.96140(10)
O1 O 0.81326(18) 1.06737(11) 1.06691(7)
O2 O 0.7561(2) 1.17555(13) 0.95852(8)
loop_
_geom_bond_atom_site_label_1
_geom_bond_atom_site_label_2
_geom_bond_site_symmetry_1
_geom_bond_site_symmetry_2
C1 C2 1_555 1_555
C2 H1 1_555 1_555
C3 C2 1_555 1_555
H2 C3 1_555 1_555
C4 C3 1_555 1_555
H3 C4 1_555 1_555
C5 C4 1_555 1_555
H4 C5 1_555 1_555
C6 C1 1_555 1_555
C7 C1 1_555 1_555
C8 C7 1_555 1_555
C9 N1 1_555 1_555
C10 H5 1_555 1_555
C11 C10 1_555 1_555
H6 C11 1_555 1_555
C12 C11 1_555 1_555
H7 C12 1_555 1_555
C13 C7 1_555 1_555
C14 H8 1_555 1_555
H9 C14 1_555 1_555
C15 C14 1_555 1_555
H10 C15 1_555 1_555
H11 C15 1_555 1_555
H12 C15 1_555 1_555
C16 C8 1_555 1_555
H13 C16 1_555 1_555
H14 C16 1_555 1_555
H15 C16 1_555 1_555
N1 C6 1_555 1_555
N2 C9 1_555 1_555
N3 C9 1_555 1_555
O1 C13 1_555 1_555
O2 C13 1_555 1_555
C5 C6 1_555 1_555
C8 N1 1_555 1_555
C10 N2 1_555 1_555
C12 N3 1_555 1_555
C14 O1 1_555 1_555

#END
