
#######################################################################
#
#                 Cambridge Crystallographic Data Centre
#                                CCDC 
#
#######################################################################
#
# If this CIF has been generated from an entry in the Cambridge 
# Structural Database, then it will include bibliographic, chemical, 
# crystal, experimental, refinement or atomic coordinate data resulting 
# from the CCDC's data processing and validation procedures.
#
#######################################################################

data_CUNHOJ
_chemical_formula_moiety         'C42 H30 N4,2(C5 H5 N1)'
_chemical_name_systematic        
"1,1'-(1,4-Phenylenebis(methylene))bis(3-(9-anthryl)-1H-pyrazole) pyridine solvate"
_symmetry_cell_setting           monoclinic
_symmetry_space_group_name_H-M   'P 21/c'
_symmetry_Int_Tables_number      14
_space_group_name_Hall           '-P 2ybc'
loop_
_symmetry_equiv_pos_site_id
_symmetry_equiv_pos_as_xyz
1 x,y,z
2 -x,1/2+y,1/2-z
3 -x,-y,-z
4 x,1/2-y,1/2+z
_cell_length_a                   8.9025(18)
_cell_length_b                   26.442(5)
_cell_length_c                   8.7233(17)
_cell_angle_alpha                90
_cell_angle_beta                 100.00(3)
_cell_angle_gamma                90
_cell_volume                     2022.27
_exptl_crystal_colour            yellow
_exptl_crystal_description       block
_cell_formula_units_Z            2
loop_
_atom_site_label
_atom_site_type_symbol
_atom_site_fract_x
_atom_site_fract_y
_atom_site_fract_z
N1 N 0.3527(4) 0.46737(17) 0.5513(5)
C22 C 0.0781(5) 0.42269(18) 0.5706(5)
H16 H -0.0148 0.4073 0.5762
C23 C 0.1196(6) 0.4647(2) 0.6462(4)
H17 H 0.0541 0.4792 0.7060
C24 C 0.2542(7) 0.48757(15) 0.6403(5)
H18 H 0.2804 0.5171 0.6967
C25 C 0.3021(6) 0.42494(17) 0.4783(4)
H19 H 0.3629 0.4091 0.4161
C26 C 0.1684(7) 0.40400(13) 0.4901(5)
H20 H 0.1407 0.3741 0.4363
C1 C 0.45475(19) 0.34461(5) 0.10797(19)
C2 C 0.29974(19) 0.33142(5) 0.0672(2)
C3 C 0.2083(2) 0.34659(6) -0.0755(2)
H1 H 0.2518 0.3656 -0.1461
C4 C 0.0593(2) 0.33382(7) -0.1103(3)
H2 H 0.0017 0.3443 -0.2043
C5 C -0.0097(2) 0.30507(9) -0.0068(3)
H3 H -0.1122 0.2964 -0.0326
C6 C 0.0721(2) 0.28991(8) 0.1298(3)
H4 H 0.0246 0.2711 0.1978
C7 C 0.2292(2) 0.30201(6) 0.1728(2)
C8 C 0.3153(2) 0.28670(6) 0.3123(2)
H5 H 0.2690 0.2674 0.3802
C9 C 0.4683(2) 0.29908(6) 0.35447(19)
C10 C 0.5565(3) 0.28235(7) 0.4971(2)
H6 H 0.5102 0.2634 0.5657
C11 C 0.7046(3) 0.29345(8) 0.5341(2)
H7 H 0.7603 0.2821 0.6278
C12 C 0.7771(3) 0.32214(8) 0.4327(3)
H8 H 0.8807 0.3292 0.4594
C13 C 0.6976(2) 0.33961(7) 0.2963(2)
H9 H 0.7472 0.3590 0.2314
C14 C 0.54007(19) 0.32877(6) 0.25091(19)
C15 C 0.52813(19) 0.37278(6) -0.00571(19)
C16 C 0.5670(2) 0.35446(7) -0.1433(2)
H10 H 0.5541 0.3217 -0.1825
C17 C 0.6273(2) 0.39436(7) -0.2075(2)
H11 H 0.6648 0.3943 -0.3006
C18 C 0.6805(2) 0.48456(7) -0.1296(3)
H12 H 0.6204 0.5081 -0.0800
H13 H 0.6660 0.4930 -0.2394
C19 C 0.8453(2) 0.49157(6) -0.0608(2)
C20 C 0.9125(2) 0.53850(6) -0.0725(2)
H14 H 0.8541 0.5649 -0.1216
C21 C 0.9368(2) 0.45343(6) 0.0131(2)
H15 H 0.8949 0.4216 0.0226
N2 N 0.62357(18) 0.43393(5) -0.11340(18)
N3 N 0.56378(17) 0.42138(5) 0.01424(17)
C1B C 1.54525(19) 0.65539(5) -0.10797(19)
C2B C 1.70026(19) 0.66858(5) -0.0672(2)
C3B C 1.7917(2) 0.65341(6) 0.0755(2)
H1B H 1.7482 0.6344 0.1461
C4B C 1.9407(2) 0.66618(7) 0.1103(3)
H2B H 1.9983 0.6557 0.2043
C5B C 2.0097(2) 0.69493(9) 0.0068(3)
H3B H 2.1122 0.7036 0.0326
C6B C 1.9279(2) 0.71009(8) -0.1298(3)
H4B H 1.9754 0.7289 -0.1978
C7B C 1.7708(2) 0.69799(6) -0.1728(2)
C8B C 1.6847(2) 0.71330(6) -0.3123(2)
H5B H 1.7310 0.7326 -0.3802
C9B C 1.5317(2) 0.70092(6) -0.35447(19)
C10B C 1.4435(3) 0.71765(7) -0.4971(2)
H6B H 1.4898 0.7366 -0.5657
C11B C 1.2954(3) 0.70655(8) -0.5341(2)
H7B H 1.2397 0.7179 -0.6278
C12B C 1.2229(3) 0.67786(8) -0.4327(3)
H8B H 1.1193 0.6708 -0.4594
C13B C 1.3024(2) 0.66039(7) -0.2963(2)
H9B H 1.2528 0.6410 -0.2314
C14B C 1.45993(19) 0.67123(6) -0.25091(19)
C15B C 1.47187(19) 0.62722(6) 0.00571(19)
C16B C 1.4330(2) 0.64554(7) 0.1433(2)
H10B H 1.4459 0.6783 0.1825
C17B C 1.3727(2) 0.60564(7) 0.2075(2)
H11B H 1.3352 0.6057 0.3006
C18B C 1.3195(2) 0.51544(7) 0.1296(3)
H12B H 1.3796 0.4919 0.0800
H13B H 1.3340 0.5070 0.2394
C19B C 1.1547(2) 0.50843(6) 0.0608(2)
C20B C 1.0875(2) 0.46150(6) 0.0725(2)
H14B H 1.1459 0.4351 0.1216
C21B C 1.0632(2) 0.54657(6) -0.0131(2)
H15B H 1.1051 0.5784 -0.0226
N2B N 1.37643(18) 0.56607(5) 0.11340(18)
N3B N 1.43622(17) 0.57862(5) -0.01424(17)
loop_
_geom_bond_atom_site_label_1
_geom_bond_atom_site_label_2
_geom_bond_site_symmetry_1
_geom_bond_site_symmetry_2
N1 C24 1_555 1_555
C1 C2 1_555 1_555
C2 C3 1_555 1_555
C3 H1 1_555 1_555
C4 C3 1_555 1_555
H2 C4 1_555 1_555
C5 C4 1_555 1_555
H3 C5 1_555 1_555
C6 C5 1_555 1_555
H4 C6 1_555 1_555
C7 C2 1_555 1_555
C8 C7 1_555 1_555
H5 C8 1_555 1_555
C9 C8 1_555 1_555
C10 C9 1_555 1_555
H6 C10 1_555 1_555
C11 C10 1_555 1_555
H7 C11 1_555 1_555
C12 C11 1_555 1_555
H8 C12 1_555 1_555
C13 C12 1_555 1_555
H9 C13 1_555 1_555
C14 C1 1_555 1_555
C15 C1 1_555 1_555
C16 C15 1_555 1_555
H10 C16 1_555 1_555
C17 C16 1_555 1_555
H11 C17 1_555 1_555
C18 H12 1_555 1_555
H13 C18 1_555 1_555
C19 C18 1_555 1_555
C20 C19 1_555 1_555
H14 C20 1_555 1_555
C21 C19 1_555 1_555
H15 C21 1_555 1_555
C22 H16 1_555 1_555
C23 C22 1_555 1_555
H17 C23 1_555 1_555
C24 C23 1_555 1_555
H18 C24 1_555 1_555
C25 N1 1_555 1_555
H19 C25 1_555 1_555
N2 C17 1_555 1_555
N3 C15 1_555 1_555
C26 C22 1_555 1_555
H20 C26 1_555 1_555
C1B C2B 1_555 1_555
C2B C3B 1_555 1_555
C3B H1B 1_555 1_555
C4B C3B 1_555 1_555
H2B C4B 1_555 1_555
C5B C4B 1_555 1_555
H3B C5B 1_555 1_555
C6B C5B 1_555 1_555
H4B C6B 1_555 1_555
C7B C2B 1_555 1_555
C8B C7B 1_555 1_555
H5B C8B 1_555 1_555
C9B C8B 1_555 1_555
C10B C9B 1_555 1_555
H6B C10B 1_555 1_555
C11B C10B 1_555 1_555
H7B C11B 1_555 1_555
C12B C11B 1_555 1_555
H8B C12B 1_555 1_555
C13B C12B 1_555 1_555
H9B C13B 1_555 1_555
C14B C1B 1_555 1_555
C15B C1B 1_555 1_555
C16B C15B 1_555 1_555
H10B C16B 1_555 1_555
C17B C16B 1_555 1_555
H11B C17B 1_555 1_555
C18B H12B 1_555 1_555
H13B C18B 1_555 1_555
C19B C18B 1_555 1_555
C20B C21 1_555 1_555
H14B C20B 1_555 1_555
C21B C20 1_555 1_555
H15B C21B 1_555 1_555
N2B C17B 1_555 1_555
N3B C15B 1_555 1_555
C6 C7 1_555 1_555
C9 C14 1_555 1_555
C13 C14 1_555 1_555
C18 N2 1_555 1_555
C25 C26 1_555 1_555
N2 N3 1_555 1_555
C6B C7B 1_555 1_555
C9B C14B 1_555 1_555
C13B C14B 1_555 1_555
C18B N2B 1_555 1_555
C19B C20B 1_555 1_555
C19B C21B 1_555 1_555
N2B N3B 1_555 1_555

#END
