
#######################################################################
#
#                 Cambridge Crystallographic Data Centre
#                                CCDC 
#
#######################################################################
#
# If this CIF has been generated from an entry in the Cambridge 
# Structural Database, then it will include bibliographic, chemical, 
# crystal, experimental, refinement or atomic coordinate data resulting 
# from the CCDC's data processing and validation procedures.
#
#######################################################################

data_CUNPUX
_chemical_formula_moiety         'C24 H25 N1 O1'
_chemical_name_systematic        
Diphenyl-(1-((1R)-phenylethyl)azetidin-(2S)-yl)methanol
_symmetry_cell_setting           triclinic
_symmetry_space_group_name_H-M   'P 1'
_symmetry_Int_Tables_number      1
_space_group_name_Hall           'P 1'
loop_
_symmetry_equiv_pos_site_id
_symmetry_equiv_pos_as_xyz
1 x,y,z
_cell_length_a                   6.0146(12)
_cell_length_b                   8.6987(17)
_cell_length_c                   9.7283(19)
_cell_angle_alpha                94.11(3)
_cell_angle_beta                 98.46(3)
_cell_angle_gamma                102.49(3)
_cell_volume                     488.694
_exptl_crystal_colour            colorless
_exptl_crystal_description       prismatic
_chemical_melting_point          '95-97 deg.C'
_cell_formula_units_Z            1
loop_
_atom_site_label
_atom_site_type_symbol
_atom_site_fract_x
_atom_site_fract_y
_atom_site_fract_z
N1 N 1.0099(7) 0.8837(4) 0.4978(4)
O1 O 1.4533(6) 1.0447(4) 0.5092(4)
H1 H 1.4047 0.9650 0.4534
C1 C 0.8871(10) 0.8939(6) 0.1331(6)
H2 H 0.7658 0.9436 0.1384
C2 C 0.9910(12) 0.8987(7) 0.0146(6)
H3 H 0.9380 0.9508 -0.0593
C3 C 1.1705(12) 0.8275(8) 0.0058(6)
H4 H 1.2408 0.8319 -0.0733
C4 C 1.2469(11) 0.7490(7) 0.1152(7)
H5 H 1.3679 0.6995 0.1087
C5 C 1.1475(10) 0.7430(6) 0.2327(6)
H6 H 1.2030 0.6905 0.3056
C6 C 0.9642(9) 0.8144(5) 0.2451(5)
C7 C 0.8475(9) 0.8050(6) 0.3722(5)
H7 H 0.7197 0.8586 0.3581
C8 C 0.7499(14) 0.6320(7) 0.3935(8)
H8 H 0.6796 0.6282 0.4760
H9 H 0.8727 0.5771 0.4039
H10 H 0.6363 0.5823 0.3139
C9 C 0.9235(11) 0.8705(7) 0.6343(5)
H11 H 0.9741 0.7905 0.6875
H12 H 0.7580 0.8592 0.6264
C10 C 1.0645(11) 1.0393(6) 0.6838(6)
H13 H 1.2152 1.0449 0.7382
H14 H 0.9813 1.1063 0.7295
C11 C 1.0676(8) 1.0606(5) 0.5276(5)
H15 H 0.9398 1.1057 0.4877
C12 C 1.2986(8) 1.1479(5) 0.4904(5)
C13 C 1.3948(9) 1.2965(6) 0.5969(6)
C14 C 1.2721(11) 1.4074(8) 0.6178(8)
H16 H 1.1275 1.3955 0.5634
C15 C 1.3529(15) 1.5370(9) 0.7163(9)
H17 H 1.2634 1.6102 0.7281
C16 C 1.5671(14) 1.5572(10) 0.7971(8)
H18 H 1.6227 1.6434 0.8649
C17 C 1.6959(15) 1.4509(11) 0.7771(9)
H19 H 1.8427 1.4653 0.8294
C18 C 1.6088(11) 1.3192(9) 0.6780(7)
H20 H 1.6975 1.2453 0.6667
C19 C 1.2822(9) 1.1988(5) 0.3424(5)
C20 C 1.1093(10) 1.2745(6) 0.2858(6)
H21 H 0.9942 1.2884 0.3365
C21 C 1.1108(13) 1.3280(7) 0.1558(7)
H22 H 0.9974 1.3796 0.1213
C22 C 1.2712(14) 1.3079(8) 0.0767(7)
H23 H 1.2667 1.3432 -0.0115
C23 C 1.4439(14) 1.2331(9) 0.1297(7)
H24 H 1.5566 1.2195 0.0770
C24 C 1.4480(10) 1.1786(7) 0.2614(6)
H25 H 1.5630 1.1282 0.2953
loop_
_geom_bond_atom_site_label_1
_geom_bond_atom_site_label_2
_geom_bond_site_symmetry_1
_geom_bond_site_symmetry_2
N1 C7 1_555 1_555
O1 H1 1_555 1_555
C1 H2 1_555 1_555
C2 C1 1_555 1_555
H3 C2 1_555 1_555
C3 C2 1_555 1_555
H4 C3 1_555 1_555
C4 C3 1_555 1_555
H5 C4 1_555 1_555
C5 C4 1_555 1_555
H6 C5 1_555 1_555
C6 C1 1_555 1_555
C7 C6 1_555 1_555
H7 C7 1_555 1_555
C8 C7 1_555 1_555
H8 C8 1_555 1_555
H9 C8 1_555 1_555
H10 C8 1_555 1_555
C9 N1 1_555 1_555
H11 C9 1_555 1_555
H12 C9 1_555 1_555
C10 C9 1_555 1_555
H13 C10 1_555 1_555
H14 C10 1_555 1_555
C11 N1 1_555 1_555
H15 C11 1_555 1_555
C12 O1 1_555 1_555
C13 C12 1_555 1_555
C14 C13 1_555 1_555
H16 C14 1_555 1_555
C15 C14 1_555 1_555
H17 C15 1_555 1_555
C16 C15 1_555 1_555
H18 C16 1_555 1_555
C17 C16 1_555 1_555
H19 C17 1_555 1_555
C18 C13 1_555 1_555
H20 C18 1_555 1_555
C19 C12 1_555 1_555
C20 C19 1_555 1_555
H21 C20 1_555 1_555
C21 C20 1_555 1_555
H22 C21 1_555 1_555
C22 C21 1_555 1_555
H23 C22 1_555 1_555
C23 C22 1_555 1_555
H24 C23 1_555 1_555
C24 C19 1_555 1_555
H25 C24 1_555 1_555
C5 C6 1_555 1_555
C10 C11 1_555 1_555
C11 C12 1_555 1_555
C17 C18 1_555 1_555
C23 C24 1_555 1_555

#END
