
#######################################################################
#
#                 Cambridge Crystallographic Data Centre
#                                CCDC 
#
#######################################################################
#
# If this CIF has been generated from an entry in the Cambridge 
# Structural Database, then it will include bibliographic, chemical, 
# crystal, experimental, refinement or atomic coordinate data resulting 
# from the CCDC's data processing and validation procedures.
#
#######################################################################

data_CUNROU
_chemical_formula_moiety         'C11 H11 I1 O3'
_chemical_name_systematic        4-(Iodomethyl)-4-phenyl-1,3-dioxan-2-one
_symmetry_cell_setting           orthorhombic
_symmetry_space_group_name_H-M   'P 21 21 21'
_symmetry_Int_Tables_number      19
_space_group_name_Hall           'P 2ac 2ab'
loop_
_symmetry_equiv_pos_site_id
_symmetry_equiv_pos_as_xyz
1 x,y,z
2 1/2+x,1/2-y,-z
3 -x,1/2+y,1/2-z
4 1/2-x,-y,1/2+z
_cell_length_a                   7.4336(3)
_cell_length_b                   8.2693(3)
_cell_length_c                   18.5884(7)
_cell_angle_alpha                90
_cell_angle_beta                 90
_cell_angle_gamma                90
_cell_volume                     1142.64
_exptl_crystal_colour            yellowish
_exptl_crystal_description       block
_cell_formula_units_Z            4
loop_
_atom_site_label
_atom_site_type_symbol
_atom_site_fract_x
_atom_site_fract_y
_atom_site_fract_z
I1 I 0.622158(16) 0.150156(13) 0.357835(5)
O1 O 0.94530(15) 0.19844(14) 0.23168(6)
O2 O 1.04891(16) -0.00044(15) 0.15467(7)
O3 O 1.23406(15) 0.15266(18) 0.21633(8)
C1 C 0.76521(19) 0.18490(17) 0.20068(8)
C2 C 1.0819(2) 0.11806(18) 0.20086(9)
C3 C 0.8696(2) -0.06194(18) 0.13877(9)
H1 H 0.8701 -0.1814 0.1425
H2 H 0.8370 -0.0330 0.0888
C4 C 0.7310(2) 0.00568(19) 0.18938(9)
H3 H 0.7373 -0.0516 0.2361
H4 H 0.6092 -0.0105 0.1691
C5 C 0.7583(2) 0.28476(18) 0.13184(8)
C6 C 0.8826(3) 0.40853(18) 0.11911(8)
H5 H 0.9747 0.4296 0.1533
C7 C 0.8724(3) 0.50094(19) 0.05668(9)
H6 H 0.9575 0.5847 0.0486
C8 C 0.7393(3) 0.4717(2) 0.00639(10)
H7 H 0.7334 0.5341 -0.0365
C9 C 0.6148(3) 0.3509(2) 0.01911(9)
H8 H 0.5228 0.3307 -0.0152
C10 C 0.6226(3) 0.25868(19) 0.08150(9)
H9 H 0.5348 0.1773 0.0899
C11 C 0.6390(2) 0.26490(18) 0.25392(8)
H10 H 0.5170 0.2678 0.2326
H11 H 0.6783 0.3782 0.2609
loop_
_geom_bond_atom_site_label_1
_geom_bond_atom_site_label_2
_geom_bond_site_symmetry_1
_geom_bond_site_symmetry_2
I1 C11 1_555 1_555
O1 C1 1_555 1_555
O2 C2 1_555 1_555
O3 C2 1_555 1_555
C1 C4 1_555 1_555
C2 O1 1_555 1_555
C3 O2 1_555 1_555
H1 C3 1_555 1_555
H2 C3 1_555 1_555
C4 C3 1_555 1_555
H3 C4 1_555 1_555
H4 C4 1_555 1_555
C5 C1 1_555 1_555
C6 C5 1_555 1_555
H5 C6 1_555 1_555
C7 C6 1_555 1_555
H6 C7 1_555 1_555
C8 C7 1_555 1_555
H7 C8 1_555 1_555
C9 C8 1_555 1_555
H8 C9 1_555 1_555
C10 C5 1_555 1_555
H9 C10 1_555 1_555
C11 C1 1_555 1_555
H10 C11 1_555 1_555
H11 C11 1_555 1_555
C9 C10 1_555 1_555

#END
