
#######################################################################
#
#                 Cambridge Crystallographic Data Centre
#                                CCDC 
#
#######################################################################
#
# If this CIF has been generated from an entry in the Cambridge 
# Structural Database, then it will include bibliographic, chemical, 
# crystal, experimental, refinement or atomic coordinate data resulting 
# from the CCDC's data processing and validation procedures.
#
#######################################################################

data_CUQHIH
_chemical_formula_moiety         'C33 H24 B1 N1 O1 S1'
_chemical_name_systematic        
1,1,3,4-tetraphenyl-1H-10,1-[1,3,2]oxazaborinino[4,3-b][1,3]benzothiazole
_symmetry_cell_setting           monoclinic
_symmetry_space_group_name_H-M   'P 21/c'
_symmetry_Int_Tables_number      14
_space_group_name_Hall           '-P 2ybc'
loop_
_symmetry_equiv_pos_site_id
_symmetry_equiv_pos_as_xyz
1 x,y,z
2 -x,1/2+y,1/2-z
3 -x,-y,-z
4 x,1/2-y,1/2+z
_cell_length_a                   10.9909(8)
_cell_length_b                   9.0950(7)
_cell_length_c                   26.758(2)
_cell_angle_alpha                90
_cell_angle_beta                 99.025(2)
_cell_angle_gamma                90
_cell_volume                     2641.68
_exptl_crystal_colour            red
_cell_formula_units_Z            4
loop_
_atom_site_label
_atom_site_type_symbol
_atom_site_fract_x
_atom_site_fract_y
_atom_site_fract_z
S1 S 0.41281(7) 0.28446(9) 0.85440(3)
O1 O 0.39795(16) 0.7220(2) 0.92631(6)
C1 C 0.2614(3) 0.3056(3) 0.82670(11)
C2 C 0.0660(4) 0.2426(4) 0.78091(12)
H1 H 0.0135 0.1751 0.7624
C3 C 0.5974(2) 0.7156(4) 0.97366(10)
C4 C 0.2176(3) 0.4443(3) 0.83715(10)
N1 N 0.3077(2) 0.5317(2) 0.86631(8)
C5 C 0.3589(3) 0.7873(3) 0.83137(12)
C6 C 0.5044(2) 0.6496(3) 0.93385(10)
C7 C 0.0967(3) 0.4828(3) 0.81888(10)
H2 H 0.0664 0.5753 0.8252
C8 C -0.0163(3) 0.8953(4) 0.86788(17)
H3 H -0.0672 0.9548 0.8453
C9 C 0.8607(4) 0.2982(6) 0.90855(17)
H4 H 0.9338 0.2484 0.9069
C10 C 0.7669(4) 0.2289(4) 0.92722(14)
H5 H 0.7770 0.1329 0.9391
C11 C -0.0543(3) 0.8513(5) 0.91162(19)
H6 H -0.1311 0.8793 0.9188
C12 C 0.3523(4) 0.8337(5) 0.74127(14)
H7 H 0.3175 0.8128 0.7081
C13 C 0.4509(3) 0.8930(4) 0.83967(14)
H8 H 0.4853 0.9154 0.8728
C14 C 0.7740(3) 0.8473(4) 1.04616(12)
H9 H 0.8335 0.8915 1.0700
C15 C 0.5205(3) 0.5214(3) 0.90872(10)
C16 C 0.6405(3) 0.4438(4) 0.91013(11)
C17 C 0.4936(4) 0.9666(4) 0.80022(19)
H10 H 0.5567 1.0352 0.8072
C18 C 0.8471(4) 0.4398(6) 0.89237(15)
H11 H 0.9128 0.4881 0.8815
C19 C 0.4151(3) 0.4609(3) 0.87824(10)
C20 C 0.7365(3) 0.5126(4) 0.89189(12)
H12 H 0.7269 0.6079 0.8793
C21 C 0.6869(3) 0.9309(4) 1.01719(12)
H13 H 0.6868 1.0323 1.0216
C22 C 0.5990(3) 0.8662(4) 0.98139(11)
H14 H 0.5398 0.9247 0.9622
C23 C 0.1766(2) 0.7632(3) 0.88940(12)
C24 C 0.1349(3) 0.7230(3) 0.93375(12)
H15 H 0.1852 0.6648 0.9570
C25 C 0.6846(3) 0.6314(4) 1.00455(11)
H16 H 0.6831 0.5296 1.0014
C26 C 0.7733(3) 0.6970(4) 1.03989(11)
H17 H 0.8327 0.6395 1.0594
C27 C 0.0226(3) 0.3793(4) 0.79094(12)
H18 H -0.0589 0.4031 0.7786
C28 C 0.1854(3) 0.2048(4) 0.79781(12)
H19 H 0.2155 0.1133 0.7902
C29 C 0.0975(3) 0.8521(3) 0.85677(12)
H20 H 0.1215 0.8834 0.8267
C30 C 0.6574(3) 0.3015(4) 0.92849(12)
H21 H 0.5943 0.2547 0.9418
C31 C 0.3130(3) 0.7599(4) 0.78062(13)
H22 H 0.2527 0.6880 0.7730
C32 C 0.0218(3) 0.7657(4) 0.94471(14)
H23 H -0.0028 0.7359 0.9748
B1 B 0.3085(3) 0.7068(4) 0.87779(13)
C33 C 0.4428(4) 0.9382(4) 0.75107(18)
H24 H 0.4695 0.9892 0.7247
loop_
_geom_bond_atom_site_label_1
_geom_bond_atom_site_label_2
_geom_bond_site_symmetry_1
_geom_bond_site_symmetry_2
S1 C1 1_555 1_555
O1 C6 1_555 1_555
C1 C4 1_555 1_555
C2 H1 1_555 1_555
C3 C6 1_555 1_555
C4 N1 1_555 1_555
N1 C19 1_555 1_555
C5 C13 1_555 1_555
C6 C15 1_555 1_555
C7 C4 1_555 1_555
H2 C7 1_555 1_555
C8 H3 1_555 1_555
C9 H4 1_555 1_555
C10 C9 1_555 1_555
H5 C10 1_555 1_555
C11 C8 1_555 1_555
H6 C11 1_555 1_555
C12 H7 1_555 1_555
C13 H8 1_555 1_555
C14 H9 1_555 1_555
C15 C16 1_555 1_555
C16 C20 1_555 1_555
C17 C13 1_555 1_555
H10 C17 1_555 1_555
C18 C9 1_555 1_555
H11 C18 1_555 1_555
C19 S1 1_555 1_555
C20 C18 1_555 1_555
H12 C20 1_555 1_555
C21 C14 1_555 1_555
H13 C21 1_555 1_555
C22 C3 1_555 1_555
H14 C22 1_555 1_555
C23 C24 1_555 1_555
C24 H15 1_555 1_555
C25 C3 1_555 1_555
H16 C25 1_555 1_555
C26 C14 1_555 1_555
H17 C26 1_555 1_555
C27 C2 1_555 1_555
H18 C27 1_555 1_555
C28 C1 1_555 1_555
H19 C28 1_555 1_555
C29 C8 1_555 1_555
H20 C29 1_555 1_555
C30 C10 1_555 1_555
H21 C30 1_555 1_555
C31 C5 1_555 1_555
H22 C31 1_555 1_555
C32 C11 1_555 1_555
H23 C32 1_555 1_555
B1 O1 1_555 1_555
C33 C12 1_555 1_555
H24 C33 1_555 1_555
C2 C28 1_555 1_555
N1 B1 1_555 1_555
C5 B1 1_555 1_555
C7 C27 1_555 1_555
C12 C31 1_555 1_555
C15 C19 1_555 1_555
C16 C30 1_555 1_555
C17 C33 1_555 1_555
C21 C22 1_555 1_555
C23 C29 1_555 1_555
C23 B1 1_555 1_555
C24 C32 1_555 1_555
C25 C26 1_555 1_555

#END
