
#######################################################################
#
#                 Cambridge Crystallographic Data Centre
#                                CCDC 
#
#######################################################################
#
# If this CIF has been generated from an entry in the Cambridge 
# Structural Database, then it will include bibliographic, chemical, 
# crystal, experimental, refinement or atomic coordinate data resulting 
# from the CCDC's data processing and validation procedures.
#
#######################################################################

data_CUQJIJ
_chemical_formula_moiety         'C19 H16 O4'
_chemical_name_systematic        
8,19-dimethyl-14,17-dioxahexacyclo[13.3.1.0^1,11^.0^4,10^.0^9,13^.0^12,16^]nonadeca-2,4,7,9-tetraene-6,18-dione
_symmetry_cell_setting           monoclinic
_symmetry_space_group_name_H-M   'C 2'
_symmetry_Int_Tables_number      5
_space_group_name_Hall           'C 2y'
loop_
_symmetry_equiv_pos_site_id
_symmetry_equiv_pos_as_xyz
1 x,y,z
2 -x,y,-z
3 1/2+x,1/2+y,z
4 1/2-x,1/2+y,-z
_cell_length_a                   13.4613(5)
_cell_length_b                   9.1617(4)
_cell_length_c                   23.4678(9)
_cell_angle_alpha                90
_cell_angle_beta                 93.249(2)
_cell_angle_gamma                90
_cell_volume                     2889.59
_exptl_crystal_colour            yellow
_exptl_crystal_description       plate
_cell_formula_units_Z            8
loop_
_atom_site_label
_atom_site_type_symbol
_atom_site_fract_x
_atom_site_fract_y
_atom_site_fract_z
O1 O 0.61410(11) 0.9232(2) 0.98601(6)
O2 O 0.72674(15) 1.0693(3) 1.02723(7)
O3 O 0.52141(9) 0.92246(17) 0.83798(5)
O4 O 0.90722(13) 1.0117(2) 0.68235(7)
C1 C 0.65227(15) 0.8093(3) 0.89412(8)
H1 H 0.6749 0.7086 0.9050
C2 C 0.57261(16) 0.8702(3) 0.93163(9)
H2 H 0.5205 0.7948 0.9375
C3 C 0.53072(15) 0.9918(3) 0.89311(8)
H3 H 0.4641 1.0237 0.9053
C4 C 0.60479(15) 1.1207(3) 0.89588(8)
H4 H 0.6153 1.1522 0.8559
C5 C 0.70732(15) 1.0649(3) 0.92304(9)
C6 C 0.78944(17) 1.1724(3) 0.91622(10)
H5 H 0.8056 1.2412 0.9456
C7 C 0.84052(17) 1.1715(3) 0.86844(10)
H6 H 0.8934 1.2394 0.8655
C8 C 0.81856(14) 1.0715(3) 0.82098(9)
C9 C 0.75112(14) 0.9549(2) 0.83237(8)
C10 C 0.73634(15) 0.9209(3) 0.89400(8)
H7 H 0.7987 0.8799 0.9129
C11 C 0.68206(13) 0.8875(2) 0.79745(8)
C12 C 0.67472(15) 0.8873(2) 0.73578(9)
C13 C 0.74758(17) 0.9372(3) 0.70243(9)
H8 H 0.7347 0.9213 0.6627
C14 C 0.84162(16) 1.0104(3) 0.71729(9)
C15 C 0.85685(16) 1.0956(3) 0.76948(10)
H9 H 0.8989 1.1785 0.7672
C16 C 0.58317(16) 0.8189(3) 0.70722(9)
H10 H 0.5854 0.8287 0.6657
H11 H 0.5238 0.8681 0.7200
H12 H 0.5808 0.7152 0.7173
C17 C 0.68713(17) 1.0238(3) 0.98362(9)
C18 C 0.56716(19) 1.2525(3) 0.92826(10)
H13 H 0.5047 1.2873 0.9095
H14 H 0.6169 1.3306 0.9285
H15 H 0.5557 1.2241 0.9676
C19 C 0.60320(14) 0.8201(2) 0.83341(8)
H16 H 0.5801 0.7230 0.8184
O5 O 0.79595(11) 0.8681(2) 0.49369(6)
O6 O 0.66061(12) 0.9468(2) 0.53357(6)
O7 O 0.81747(11) 0.77116(17) 0.34489(6)
O8 O 0.57961(12) 1.24616(19) 0.18384(7)
C20 C 0.84267(15) 0.9812(3) 0.40273(9)
H17 H 0.8980 1.0492 0.4148
C21 C 0.83981(16) 0.8441(3) 0.43933(9)
H18 H 0.9081 0.8018 0.4455
C22 C 0.77547(16) 0.7473(3) 0.39930(9)
H19 H 0.7829 0.6426 0.4108
C23 C 0.66617(15) 0.7958(3) 0.40203(8)
H20 H 0.6363 0.8029 0.3621
C24 C 0.66448(15) 0.9518(3) 0.42976(9)
C25 C 0.56431(16) 1.0230(3) 0.42227(9)
H21 H 0.5180 1.0129 0.4511
C26 C 0.53976(16) 1.1001(3) 0.37573(10)
H22 H 0.4772 1.1483 0.3732
C27 C 0.60526(16) 1.1144(2) 0.32757(9)
C28 C 0.70668(14) 1.0682(2) 0.34030(9)
C29 C 0.73972(15) 1.0526(3) 0.40210(9)
H23 H 0.7431 1.1499 0.4214
C30 C 0.77215(14) 1.0064(2) 0.30560(9)
C31 C 0.76636(15) 0.9978(2) 0.24389(9)
C32 C 0.69874(16) 1.0706(3) 0.20932(9)
H24 H 0.7073 1.0575 0.1697
C33 C 0.61499(15) 1.1657(3) 0.22184(10)
C34 C 0.56656(16) 1.1556(3) 0.27549(10)
H25 H 0.4981 1.1816 0.2738
C35 C 0.84420(17) 0.9071(3) 0.21716(9)
H26 H 0.8330 0.9093 0.1755
H27 H 0.8400 0.8061 0.2306
H28 H 0.9103 0.9466 0.2279
C36 C 0.70305(16) 0.9266(3) 0.49038(9)
C37 C 0.60499(19) 0.6879(3) 0.43474(10)
H29 H 0.6012 0.5946 0.4143
H30 H 0.5377 0.7267 0.4381
H31 H 0.6366 0.6728 0.4729
C38 C 0.84997(15) 0.9227(3) 0.34239(9)
H32 H 0.9184 0.9326 0.3284
loop_
_geom_bond_atom_site_label_1
_geom_bond_atom_site_label_2
_geom_bond_site_symmetry_1
_geom_bond_site_symmetry_2
O1 C2 1_555 1_555
O2 C17 1_555 1_555
O3 C3 1_555 1_555
O4 C14 1_555 1_555
C1 H1 1_555 1_555
C2 C1 1_555 1_555
H2 C2 1_555 1_555
C3 C2 1_555 1_555
H3 C3 1_555 1_555
C4 C3 1_555 1_555
H4 C4 1_555 1_555
C5 C4 1_555 1_555
C6 C5 1_555 1_555
H5 C6 1_555 1_555
C7 C6 1_555 1_555
H6 C7 1_555 1_555
C8 C7 1_555 1_555
C9 C8 1_555 1_555
C10 C1 1_555 1_555
H7 C10 1_555 1_555
C11 C9 1_555 1_555
C12 C11 1_555 1_555
C13 C12 1_555 1_555
H8 C13 1_555 1_555
C14 C13 1_555 1_555
C15 C8 1_555 1_555
H9 C15 1_555 1_555
C16 C12 1_555 1_555
H10 C16 1_555 1_555
H11 C16 1_555 1_555
H12 C16 1_555 1_555
C17 O1 1_555 1_555
C18 C4 1_555 1_555
H13 C18 1_555 1_555
H14 C18 1_555 1_555
H15 C18 1_555 1_555
C19 O3 1_555 1_555
H16 C19 1_555 1_555
O5 C21 1_555 1_555
O6 C36 1_555 1_555
O7 C22 1_555 1_555
O8 C33 1_555 1_555
C20 H17 1_555 1_555
C21 C20 1_555 1_555
H18 C21 1_555 1_555
C22 C21 1_555 1_555
H19 C22 1_555 1_555
C23 C22 1_555 1_555
H20 C23 1_555 1_555
C24 C23 1_555 1_555
C25 C24 1_555 1_555
H21 C25 1_555 1_555
C26 C25 1_555 1_555
H22 C26 1_555 1_555
C27 C26 1_555 1_555
C28 C27 1_555 1_555
C29 C20 1_555 1_555
H23 C29 1_555 1_555
C30 C28 1_555 1_555
C31 C30 1_555 1_555
C32 C31 1_555 1_555
H24 C32 1_555 1_555
C33 C32 1_555 1_555
C34 C27 1_555 1_555
H25 C34 1_555 1_555
C35 C31 1_555 1_555
H26 C35 1_555 1_555
H27 C35 1_555 1_555
H28 C35 1_555 1_555
C36 O5 1_555 1_555
C37 C23 1_555 1_555
H29 C37 1_555 1_555
H30 C37 1_555 1_555
H31 C37 1_555 1_555
C38 O7 1_555 1_555
H32 C38 1_555 1_555
C1 C19 1_555 1_555
C5 C10 1_555 1_555
C5 C17 1_555 1_555
C9 C10 1_555 1_555
C11 C19 1_555 1_555
C14 C15 1_555 1_555
C20 C38 1_555 1_555
C24 C29 1_555 1_555
C24 C36 1_555 1_555
C28 C29 1_555 1_555
C30 C38 1_555 1_555
C33 C34 1_555 1_555

#END
