
#######################################################################
#
#                 Cambridge Crystallographic Data Centre
#                                CCDC 
#
#######################################################################
#
# If this CIF has been generated from an entry in the Cambridge 
# Structural Database, then it will include bibliographic, chemical, 
# crystal, experimental, refinement or atomic coordinate data resulting 
# from the CCDC's data processing and validation procedures.
#
#######################################################################

data_CURCUO
_chemical_formula_moiety         'C49 H55 Li1 N2 P2'
_chemical_name_systematic        
(bis(N-2,6-Di-isopropylphenyl-P,P-diphenylphosphinimino)methanide-N,N')-lithium
_symmetry_cell_setting           triclinic
_symmetry_space_group_name_H-M   'P -1'
_symmetry_Int_Tables_number      2
_space_group_name_Hall           '-P 1'
loop_
_symmetry_equiv_pos_site_id
_symmetry_equiv_pos_as_xyz
1 x,y,z
2 -x,-y,-z
_cell_length_a                   8.7295(18)
_cell_length_b                   10.760(2)
_cell_length_c                   22.535(5)
_cell_angle_alpha                91.698(4)
_cell_angle_beta                 98.613(4)
_cell_angle_gamma                101.745(4)
_cell_volume                     2045.06
_exptl_crystal_colour            colorless
_exptl_crystal_description       block
_cell_formula_units_Z            2
loop_
_atom_site_label
_atom_site_type_symbol
_atom_site_fract_x
_atom_site_fract_y
_atom_site_fract_z
Li1 Li 0.0594(9) 0.6965(7) 0.2836(3)
N1 N 0.2598(4) 0.7478(3) 0.33165(15)
N2 N 0.0520(4) 0.6784(3) 0.19994(15)
P1 P 0.41391(12) 0.78315(9) 0.29997(5)
P2 P 0.21437(12) 0.69432(10) 0.17273(5)
C1 C 0.3780(5) 0.7296(4) 0.22646(19)
H1 H 0.4707 0.7164 0.2121
C2 C 0.5823(4) 0.7224(4) 0.33775(19)
C3 C 0.6576(5) 0.6442(4) 0.30719(19)
H2 H 0.6219 0.6203 0.2657
C4 C 0.7855(5) 0.6017(4) 0.3380(2)
H3 H 0.8366 0.5481 0.3171
C5 C 0.8397(5) 0.6353(4) 0.3979(2)
H4 H 0.9282 0.6062 0.4180
C6 C 0.7637(5) 0.7126(4) 0.4290(2)
H5 H 0.7992 0.7360 0.4705
C7 C 0.6358(5) 0.7547(4) 0.39839(19)
H6 H 0.5836 0.8069 0.4195
C8 C 0.4941(5) 0.9550(4) 0.30673(18)
C9 C 0.3926(5) 1.0332(4) 0.28196(19)
H7 H 0.2887 0.9950 0.2625
C10 C 0.4406(6) 1.1637(4) 0.2854(2)
H8 H 0.3697 1.2146 0.2689
C11 C 0.5938(6) 1.2210(4) 0.3131(2)
H9 H 0.6271 1.3110 0.3162
C12 C 0.6962(5) 1.1460(4) 0.3359(2)
H10 H 0.8016 1.1842 0.3537
C13 C 0.6460(5) 1.0154(4) 0.33303(19)
H11 H 0.7178 0.9653 0.3496
C14 C 0.2324(5) 0.5486(4) 0.13156(19)
C15 C 0.2571(5) 0.4461(4) 0.1661(2)
H12 H 0.2639 0.4541 0.2086
C16 C 0.2717(5) 0.3330(4) 0.1385(2)
H13 H 0.2891 0.2641 0.1622
C17 C 0.2612(5) 0.3203(4) 0.0775(2)
H14 H 0.2693 0.2420 0.0590
C18 C 0.2389(5) 0.4197(4) 0.0427(2)
H15 H 0.2340 0.4108 0.0003
C19 C 0.2236(5) 0.5336(4) 0.06980(19)
H16 H 0.2070 0.6020 0.0456
C20 C 0.2246(5) 0.8102(4) 0.11478(18)
C21 C 0.3505(5) 0.9135(4) 0.1203(2)
H17 H 0.4277 0.9265 0.1557
C22 C 0.3670(6) 0.9983(4) 0.0757(2)
H18 H 0.4550 1.0682 0.0803
C23 C 0.2536(5) 0.9805(4) 0.0243(2)
H19 H 0.2652 1.0374 -0.0070
C24 C 0.1246(5) 0.8807(4) 0.0185(2)
H20 H 0.0457 0.8702 -0.0163
C25 C 0.1096(5) 0.7959(4) 0.06311(19)
H21 H 0.0203 0.7271 0.0587
C26 C 0.2553(4) 0.7310(4) 0.39384(18)
C27 C 0.2319(5) 0.8294(4) 0.43206(18)
C28 C 0.2149(5) 0.8061(4) 0.49078(18)
H22 H 0.1992 0.8724 0.5164
C29 C 0.2202(5) 0.6884(4) 0.51342(19)
H23 H 0.2095 0.6743 0.5541
C30 C 0.2414(5) 0.5920(4) 0.47557(19)
H24 H 0.2435 0.5109 0.4908
C31 C 0.2597(4) 0.6099(4) 0.41626(18)
C32 C 0.2244(5) 0.9608(4) 0.40936(19)
H25 H 0.2282 0.9563 0.3652
C33 C 0.3657(5) 1.0614(4) 0.4391(2)
H26 H 0.3600 1.1434 0.4220
H27 H 0.4639 1.0370 0.4319
H28 H 0.3644 1.0688 0.4824
C34 C 0.0709(6) 1.0009(4) 0.4178(2)
H29 H 0.0663 1.0810 0.3987
H30 H 0.0676 1.0127 0.4609
H31 H -0.0198 0.9349 0.3994
C35 C 0.2791(5) 0.4987(4) 0.3768(2)
H32 H 0.3106 0.5323 0.3386
C36 C 0.4075(5) 0.4326(4) 0.4065(2)
H33 H 0.5080 0.4947 0.4166
H34 H 0.4203 0.3651 0.3786
H35 H 0.3767 0.3956 0.4433
C37 C 0.1233(6) 0.4012(4) 0.3612(2)
H36 H 0.0420 0.4419 0.3400
H37 H 0.0895 0.3678 0.3982
H38 H 0.1383 0.3313 0.3353
C38 C -0.0952(5) 0.6841(4) 0.16416(18)
C39 C -0.1385(5) 0.8032(4) 0.15644(18)
C40 C -0.2828(5) 0.8079(4) 0.12243(19)
H39 H -0.3109 0.8880 0.1165
C41 C -0.3869(5) 0.6987(4) 0.0970(2)
H40 H -0.4842 0.7038 0.0729
C42 C -0.3486(5) 0.5820(4) 0.10678(19)
H41 H -0.4227 0.5067 0.0910
C43 C -0.2028(5) 0.5727(4) 0.13943(18)
C44 C -0.0340(5) 0.9244(4) 0.18772(19)
H42 H 0.0761 0.9091 0.1967
C45 C -0.0848(6) 0.9511(4) 0.2475(2)
H43 H -0.0812 0.8781 0.2723
H44 H -0.1931 0.9657 0.2405
H45 H -0.0129 1.0269 0.2684
C46 C -0.0265(6) 1.0410(4) 0.1503(2)
H46 H 0.0122 1.0241 0.1129
H47 H 0.0457 1.1142 0.1732
H48 H -0.1326 1.0594 0.1409
C47 C -0.1677(5) 0.4408(4) 0.14887(19)
H49 H -0.0568 0.4529 0.1708
C48 C -0.2769(6) 0.3662(4) 0.1882(2)
H50 H -0.2503 0.2828 0.1942
H51 H -0.3872 0.3547 0.1685
H52 H -0.2635 0.4130 0.2273
C49 C -0.1764(6) 0.3642(4) 0.0905(2)
H53 H -0.1439 0.2838 0.0993
H54 H -0.1055 0.4127 0.0656
H55 H -0.2853 0.3465 0.0689
loop_
_geom_bond_atom_site_label_1
_geom_bond_atom_site_label_2
_geom_bond_site_symmetry_1
_geom_bond_site_symmetry_2
Li1 N1 1_555 1_555
N1 P1 1_555 1_555
N2 Li1 1_555 1_555
P1 C1 1_555 1_555
P2 N2 1_555 1_555
C1 P2 1_555 1_555
H1 C1 1_555 1_555
C2 P1 1_555 1_555
C3 C2 1_555 1_555
H2 C3 1_555 1_555
C4 C3 1_555 1_555
H3 C4 1_555 1_555
C5 C4 1_555 1_555
H4 C5 1_555 1_555
C6 C5 1_555 1_555
H5 C6 1_555 1_555
C7 C2 1_555 1_555
H6 C7 1_555 1_555
C8 P1 1_555 1_555
C9 C8 1_555 1_555
H7 C9 1_555 1_555
C10 C9 1_555 1_555
H8 C10 1_555 1_555
C11 C10 1_555 1_555
H9 C11 1_555 1_555
C12 C11 1_555 1_555
H10 C12 1_555 1_555
C13 C8 1_555 1_555
H11 C13 1_555 1_555
C14 P2 1_555 1_555
C15 C14 1_555 1_555
H12 C15 1_555 1_555
C16 C15 1_555 1_555
H13 C16 1_555 1_555
C17 C16 1_555 1_555
H14 C17 1_555 1_555
C18 C17 1_555 1_555
H15 C18 1_555 1_555
C19 C14 1_555 1_555
H16 C19 1_555 1_555
C20 P2 1_555 1_555
C21 C20 1_555 1_555
H17 C21 1_555 1_555
C22 C21 1_555 1_555
H18 C22 1_555 1_555
C23 C22 1_555 1_555
H19 C23 1_555 1_555
C24 C23 1_555 1_555
H20 C24 1_555 1_555
C25 C20 1_555 1_555
H21 C25 1_555 1_555
C26 N1 1_555 1_555
C27 C26 1_555 1_555
C28 C27 1_555 1_555
H22 C28 1_555 1_555
C29 C28 1_555 1_555
H23 C29 1_555 1_555
C30 C29 1_555 1_555
H24 C30 1_555 1_555
C31 C26 1_555 1_555
C32 C27 1_555 1_555
H25 C32 1_555 1_555
C33 C32 1_555 1_555
H26 C33 1_555 1_555
H27 C33 1_555 1_555
H28 C33 1_555 1_555
C34 C32 1_555 1_555
H29 C34 1_555 1_555
H30 C34 1_555 1_555
H31 C34 1_555 1_555
C35 C31 1_555 1_555
H32 C35 1_555 1_555
C36 C35 1_555 1_555
H33 C36 1_555 1_555
H34 C36 1_555 1_555
H35 C36 1_555 1_555
C37 C35 1_555 1_555
H36 C37 1_555 1_555
H37 C37 1_555 1_555
H38 C37 1_555 1_555
C38 N2 1_555 1_555
C39 C38 1_555 1_555
C40 C39 1_555 1_555
H39 C40 1_555 1_555
C41 C40 1_555 1_555
H40 C41 1_555 1_555
C42 C41 1_555 1_555
H41 C42 1_555 1_555
C43 C38 1_555 1_555
C44 C39 1_555 1_555
H42 C44 1_555 1_555
C45 C44 1_555 1_555
H43 C45 1_555 1_555
H44 C45 1_555 1_555
H45 C45 1_555 1_555
C46 C44 1_555 1_555
H46 C46 1_555 1_555
H47 C46 1_555 1_555
H48 C46 1_555 1_555
C47 C43 1_555 1_555
H49 C47 1_555 1_555
C48 C47 1_555 1_555
H50 C48 1_555 1_555
H51 C48 1_555 1_555
H52 C48 1_555 1_555
C49 C47 1_555 1_555
H53 C49 1_555 1_555
H54 C49 1_555 1_555
H55 C49 1_555 1_555
C6 C7 1_555 1_555
C12 C13 1_555 1_555
C18 C19 1_555 1_555
C24 C25 1_555 1_555
C30 C31 1_555 1_555
C42 C43 1_555 1_555

#END
