
#######################################################################
#
#                 Cambridge Crystallographic Data Centre
#                                CCDC 
#
#######################################################################
#
# If this CIF has been generated from an entry in the Cambridge 
# Structural Database, then it will include bibliographic, chemical, 
# crystal, experimental, refinement or atomic coordinate data resulting 
# from the CCDC's data processing and validation procedures.
#
#######################################################################

data_CURFAX
_chemical_formula_moiety         'C15 H25 N1 O5'
_chemical_name_systematic        
'1-t-Butyl 2-methyl 6-hydroxyoctahydro-1H-indole-1,2-dicarboxylate'
_symmetry_cell_setting           monoclinic
_symmetry_space_group_name_H-M   'P 21'
_symmetry_Int_Tables_number      4
_space_group_name_Hall           'P 2yb'
loop_
_symmetry_equiv_pos_site_id
_symmetry_equiv_pos_as_xyz
1 x,y,z
2 -x,1/2+y,-z
_cell_length_a                   8.851(2)
_cell_length_b                   11.2574(3)
_cell_length_c                   9.0523(2)
_cell_angle_alpha                90
_cell_angle_beta                 115.248(1)
_cell_angle_gamma                90
_cell_volume                     815.8
_cell_formula_units_Z            2
loop_
_atom_site_label
_atom_site_type_symbol
_atom_site_fract_x
_atom_site_fract_y
_atom_site_fract_z
O1 O 0.2928(1) 0.3923(1) 1.0370(1)
O2 O -0.1309(2) 0.3994(1) 0.3001(2)
O3 O -0.1813(1) 0.2213(1) 0.1776(1)
O4 O 0.2378(1) 0.3659(1) 0.3177(1)
O5 O 0.3819(1) 0.4457(1) 0.5719(1)
N1 N 0.1836(1) 0.3125(1) 0.5305(1)
C1 C 0.2189(2) 0.3101(1) 0.7056(2)
C2 C 0.1347(2) 0.4144(1) 0.7502(2)
C3 C 0.1248(2) 0.3944(2) 0.9124(2)
C4 C 0.0337(2) 0.2786(2) 0.9092(2)
C5 C 0.1184(2) 0.1718(2) 0.8723(2)
C6 C 0.1479(2) 0.1882(1) 0.7184(2)
C7 C -0.0079(2) 0.1787(1) 0.5562(2)
C8 C 0.0485(2) 0.2328(1) 0.4313(2)
C9 C -0.0945(2) 0.2978(1) 0.2972(2)
C10 C -0.3306(2) 0.2675(2) 0.0461(2)
C11 C 0.2672(2) 0.3751(1) 0.4617(2)
C12 C 0.5014(2) 0.5158(1) 0.5331(2)
C13 C 0.4111(2) 0.6024(1) 0.3945(2)
C14 C 0.6137(2) 0.4328(2) 0.4927(2)
C15 C 0.5981(3) 0.5801(2) 0.6931(2)
H1 H 0.2917 0.3814 1.1283
H2 H 0.3422 0.3119 0.7745
H3 H 0.1984 0.4880 0.7570
H4 H 0.0205 0.4251 0.6629
H5 H 0.0634 0.4621 0.9334
H6 H -0.0830 0.2842 0.8249
H7 H 0.0307 0.2669 1.0163
H8 H 0.0482 0.1006 0.8586
H9 H 0.2271 0.1577 0.9668
H10 H 0.2292 0.1261 0.7193
H11 H -0.1020 0.2242 0.5597
H12 H -0.0423 0.0948 0.5293
H13 H 0.0922 0.1690 0.3831
H14 H -0.4079 0.2958 0.0902
H15 H -0.3843 0.2045 -0.0340
H16 H -0.3008 0.3335 -0.0069
H17 H 0.3497 0.5581 0.2931
H18 H 0.4928 0.6548 0.3810
H19 H 0.3327 0.6501 0.4199
H20 H 0.6658 0.3755 0.5817
H21 H 0.7007 0.4791 0.4791
H22 H 0.5470 0.3902 0.3911
H23 H 0.5223 0.6321 0.7167
H24 H 0.6867 0.6279 0.6848
H25 H 0.6478 0.5219 0.7813
loop_
_geom_bond_atom_site_label_1
_geom_bond_atom_site_label_2
_geom_bond_site_symmetry_1
_geom_bond_site_symmetry_2
O1 C3 1_555 1_555
O2 C9 1_555 1_555
O3 C9 1_555 1_555
O4 C11 1_555 1_555
O5 C11 1_555 1_555
N1 C1 1_555 1_555
C1 C2 1_555 1_555
C2 C3 1_555 1_555
C3 C4 1_555 1_555
C4 C5 1_555 1_555
C5 C6 1_555 1_555
C6 C1 1_555 1_555
C7 C6 1_555 1_555
C8 N1 1_555 1_555
C9 C8 1_555 1_555
C10 O3 1_555 1_555
C11 N1 1_555 1_555
C12 O5 1_555 1_555
C13 C12 1_555 1_555
C14 C12 1_555 1_555
C15 C12 1_555 1_555
H1 O1 1_555 1_555
H2 C1 1_555 1_555
H3 C2 1_555 1_555
H4 C2 1_555 1_555
H5 C3 1_555 1_555
H6 C4 1_555 1_555
H7 C4 1_555 1_555
H8 C5 1_555 1_555
H9 C5 1_555 1_555
H10 C6 1_555 1_555
H11 C7 1_555 1_555
H12 C7 1_555 1_555
H13 C8 1_555 1_555
H14 C10 1_555 1_555
H15 C10 1_555 1_555
H16 C10 1_555 1_555
H17 C13 1_555 1_555
H18 C13 1_555 1_555
H19 C13 1_555 1_555
H20 C14 1_555 1_555
H21 C14 1_555 1_555
H22 C14 1_555 1_555
H23 C15 1_555 1_555
H24 C15 1_555 1_555
H25 C15 1_555 1_555
C7 C8 1_555 1_555

#END
