
#######################################################################
#
#                 Cambridge Crystallographic Data Centre
#                                CCDC 
#
#######################################################################
#
# If this CIF has been generated from an entry in the Cambridge 
# Structural Database, then it will include bibliographic, chemical, 
# crystal, experimental, refinement or atomic coordinate data resulting 
# from the CCDC's data processing and validation procedures.
#
#######################################################################

data_CURGUT
_chemical_formula_moiety         'C25 H19 N1 O2'
_chemical_name_systematic        
2-(1H-indol-3-yl(2-methylphenyl)methyl)-1H-indene-1,3(2H)-dione
_symmetry_cell_setting           monoclinic
_symmetry_space_group_name_H-M   'P 21/c'
_symmetry_Int_Tables_number      14
_space_group_name_Hall           '-P 2ybc'
loop_
_symmetry_equiv_pos_site_id
_symmetry_equiv_pos_as_xyz
1 x,y,z
2 -x,1/2+y,1/2-z
3 -x,-y,-z
4 x,1/2-y,1/2+z
_cell_length_a                   15.992(3)
_cell_length_b                   15.814(3)
_cell_length_c                   7.5803(16)
_cell_angle_alpha                90
_cell_angle_beta                 97.681(3)
_cell_angle_gamma                90
_cell_volume                     1899.84
_exptl_crystal_colour            colorless
_exptl_crystal_description       block
_cell_formula_units_Z            4
loop_
_atom_site_label
_atom_site_type_symbol
_atom_site_fract_x
_atom_site_fract_y
_atom_site_fract_z
C1 C 0.57034(17) 0.15460(19) 0.3801(4)
H1 H 0.6098 0.1627 0.4804
C2 C 0.48534(19) 0.1674(2) 0.3919(5)
H2 H 0.4680 0.1829 0.4997
C3 C 0.42766(19) 0.1570(2) 0.2442(5)
H3 H 0.3706 0.1655 0.2509
C4 C 0.45368(19) 0.1338(2) 0.0848(5)
H4 H 0.4136 0.1272 -0.0150
C5 C 0.53794(16) 0.11993(17) 0.0691(4)
C6 C 0.59739(14) 0.13005(15) 0.2217(3)
C7 C 0.5622(2) 0.0963(2) -0.1086(4)
H5 H 0.5967 0.1401 -0.1486
H6 H 0.5122 0.0896 -0.1929
H7 H 0.5931 0.0441 -0.0983
C8 C 0.68881(14) 0.11094(14) 0.2088(3)
H8 H 0.6965 0.1226 0.0850
C9 C 0.75615(14) 0.16470(14) 0.3239(3)
H9 H 0.7349 0.2228 0.3256
C10 C 0.78583(15) 0.13845(15) 0.5165(3)
C11 C 0.83773(14) 0.16642(14) 0.2393(3)
C12 C 0.90830(14) 0.14403(15) 0.3764(3)
C13 C 0.99348(17) 0.1396(2) 0.3630(4)
H10 H 1.0138 0.1514 0.2563
C14 C 1.04753(18) 0.1171(2) 0.5132(5)
H11 H 1.1051 0.1129 0.5072
C15 C 1.01741(18) 0.1008(2) 0.6727(4)
H12 H 1.0553 0.0858 0.7717
C16 C 0.93275(17) 0.10608(17) 0.6885(4)
H13 H 0.9128 0.0959 0.7963
C17 C 0.87851(15) 0.12726(14) 0.5364(3)
C18 C 0.70599(11) 0.01994(12) 0.2354(2)
C19 C 0.68197(16) -0.03024(16) 0.3691(3)
H14 H 0.6529 -0.0113 0.4599
C20 C 0.74771(14) -0.03125(14) 0.1265(3)
C21 C 0.78121(16) -0.01163(16) -0.0287(3)
H15 H 0.7787 0.0431 -0.0741
C22 C 0.81819(19) -0.07609(19) -0.1126(4)
H16 H 0.8419 -0.0646 -0.2156
C23 C 0.8208(2) -0.1581(2) -0.0462(4)
H17 H 0.8467 -0.2005 -0.1044
C24 C 0.78575(19) -0.17725(17) 0.1031(4)
H18 H 0.7867 -0.2326 0.1445
C25 C 0.74862(15) -0.11400(15) 0.1937(3)
N1 N 0.70683(18) -0.11097(16) 0.3486(4)
H19 H 0.6989 -0.1529 0.4167
O1 O 0.74291(12) 0.13015(14) 0.6351(2)
O2 O 0.84213(11) 0.18211(11) 0.0847(2)
loop_
_geom_bond_atom_site_label_1
_geom_bond_atom_site_label_2
_geom_bond_site_symmetry_1
_geom_bond_site_symmetry_2
C1 H1 1_555 1_555
C2 C1 1_555 1_555
H2 C2 1_555 1_555
C3 C2 1_555 1_555
H3 C3 1_555 1_555
C4 C3 1_555 1_555
H4 C4 1_555 1_555
C5 C4 1_555 1_555
C6 C1 1_555 1_555
C7 C5 1_555 1_555
H5 C7 1_555 1_555
H6 C7 1_555 1_555
H7 C7 1_555 1_555
C8 C6 1_555 1_555
H8 C8 1_555 1_555
C9 C8 1_555 1_555
H9 C9 1_555 1_555
C10 C9 1_555 1_555
C11 C9 1_555 1_555
C12 C11 1_555 1_555
C13 C12 1_555 1_555
H10 C13 1_555 1_555
C14 C13 1_555 1_555
H11 C14 1_555 1_555
C15 C14 1_555 1_555
H12 C15 1_555 1_555
C16 C15 1_555 1_555
H13 C16 1_555 1_555
C17 C10 1_555 1_555
C18 C8 1_555 1_555
C19 C18 1_555 1_555
H14 C19 1_555 1_555
C20 C18 1_555 1_555
C21 C20 1_555 1_555
H15 C21 1_555 1_555
C22 C21 1_555 1_555
H16 C22 1_555 1_555
C23 C22 1_555 1_555
H17 C23 1_555 1_555
C24 C23 1_555 1_555
H18 C24 1_555 1_555
C25 C20 1_555 1_555
N1 C19 1_555 1_555
H19 N1 1_555 1_555
O1 C10 1_555 1_555
O2 C11 1_555 1_555
C5 C6 1_555 1_555
C12 C17 1_555 1_555
C16 C17 1_555 1_555
C24 C25 1_555 1_555
C25 N1 1_555 1_555

#END
