
#######################################################################
#
#                 Cambridge Crystallographic Data Centre
#                                CCDC 
#
#######################################################################
#
# If this CIF has been generated from an entry in the Cambridge 
# Structural Database, then it will include bibliographic, chemical, 
# crystal, experimental, refinement or atomic coordinate data resulting 
# from the CCDC's data processing and validation procedures.
#
#######################################################################

data_CURNAF
_chemical_formula_moiety         'C38 H26 O3'
_chemical_name_systematic        
1-(4-(3,5-Diphenyl-2-furyl)phenyl)-2,4-diphenylbut-2-ene-1,4-dione
_symmetry_cell_setting           triclinic
_symmetry_space_group_name_H-M   'P -1'
_symmetry_Int_Tables_number      2
_space_group_name_Hall           '-P 1'
loop_
_symmetry_equiv_pos_site_id
_symmetry_equiv_pos_as_xyz
1 x,y,z
2 -x,-y,-z
_cell_length_a                   6.0910(7)
_cell_length_b                   14.8330(17)
_cell_length_c                   15.455(2)
_cell_angle_alpha                85.32(1)
_cell_angle_beta                 87.70(1)
_cell_angle_gamma                83.4
_cell_volume                     1381.78
_cell_formula_units_Z            2
loop_
_atom_site_label
_atom_site_type_symbol
_atom_site_fract_x
_atom_site_fract_y
_atom_site_fract_z
O1 O 0.0600(6) 0.2948(2) -0.3994(3)
O2 O 0.4060(5) 0.1326(3) -0.3548(3)
O3 O 0.0879(5) 0.3484(2) 0.0215(2)
C1 C 0.0031(8) 0.3787(4) 0.0986(4)
C2 C -0.1550(8) 0.3278(3) 0.1296(4)
H1 H -0.23930 0.33600 0.18040
C3 C -0.1726(8) 0.2597(3) 0.0721(3)
C4 C -0.0198(8) 0.2754(3) 0.0060(4)
C5 C 0.0407(7) 0.2359(3) -0.0758(3)
C6 C -0.1071(8) 0.1919(3) -0.1205(4)
H2 H -0.24520 0.18380 -0.09520
C7 C -0.0529(7) 0.1607(3) -0.2002(4)
H3 H -0.15470 0.13240 -0.22850
C8 C 0.1546(7) 0.1709(3) -0.2395(4)
C9 C 0.3026(8) 0.2127(3) -0.1956(4)
H4 H 0.44230 0.21870 -0.22040
C10 C 0.2482(7) 0.2455(3) -0.1159(4)
H5 H 0.35020 0.27450 -0.08830
C11 C 0.2140(8) 0.1391(3) -0.3266(4)
C12 C 0.0382(8) 0.1044(4) -0.3770(4)
C13 C -0.0931(8) 0.1625(4) -0.4277(4)
H6 H -0.19870 0.13910 -0.45860
C14 C -0.0818(9) 0.2612(4) -0.4379(4)
C15 C -0.2330(9) 0.3203(4) -0.4971(4)
C16 C -0.4313(9) 0.2949(4) -0.5216(4)
H7 H -0.47650 0.23960 -0.49930
C17 C -0.5612(11) 0.3506(5) -0.5783(5)
H8 H -0.69400 0.33290 -0.59500
C18 C -0.4975(13) 0.4309(5) -0.6102(5)
H9 H -0.58460 0.46760 -0.65020
C19 C -0.3065(13) 0.4591(5) -0.5846(5)
H10 H -0.26660 0.51570 -0.60560
C20 C -0.1729(10) 0.4037(4) -0.5278(4)
H11 H -0.04240 0.42270 -0.51040
C21 C 0.0216(8) 0.0046(4) -0.3644(3)
C22 C 0.1923(9) -0.0555(4) -0.3292(4)
H12 H 0.31980 -0.03310 -0.31310
C23 C 0.1774(11) -0.1470(4) -0.3176(4)
H13 H 0.29420 -0.18610 -0.29420
C24 C -0.0101(11) -0.1810(4) -0.3405(4)
H14 H -0.02080 -0.24320 -0.33260
C25 C -0.1817(10) -0.1233(4) -0.3750(4)
H15 H -0.30870 -0.14650 -0.39060
C26 C -0.1679(8) -0.0310(4) -0.3868(4)
H16 H -0.28600 0.00770 -0.40980
C27 C 0.1025(9) 0.4531(3) 0.1316(4)
C28 C 0.3032(9) 0.4776(4) 0.0979(4)
H17 H 0.37370 0.44740 0.05230
C29 C 0.3994(11) 0.5465(4) 0.1315(5)
H18 H 0.53270 0.56340 0.10770
C30 C 0.2981(12) 0.5904(4) 0.2003(5)
H19 H 0.36570 0.63570 0.22360
C31 C 0.0978(11) 0.5677(4) 0.2350(4)
H20 H 0.02820 0.59780 0.28080
C32 C 0.0030(9) 0.4993(4) 0.2000(4)
H21 H -0.13210 0.48360 0.22310
C33 C -0.3080(8) 0.1829(4) 0.0872(4)
C34 C -0.5214(8) 0.1983(4) 0.1231(4)
H22 H -0.57980 0.25710 0.13450
C35 C -0.6467(9) 0.1268(5) 0.1417(4)
H23 H -0.78910 0.13750 0.16550
C36 C -0.5623(10) 0.0410(5) 0.1252(4)
H24 H -0.64800 -0.00680 0.13710
C37 C -0.3499(10) 0.0241(4) 0.0907(4)
H25 H -0.29220 -0.03500 0.08050
C38 C -0.2244(9) 0.0946(4) 0.0716(4)
H26 H -0.08200 0.08310 0.04800
loop_
_geom_bond_atom_site_label_1
_geom_bond_atom_site_label_2
_geom_bond_site_symmetry_1
_geom_bond_site_symmetry_2
O1 C14 1_555 1_555
O2 C11 1_555 1_555
O3 C1 1_555 1_555
C1 C2 1_555 1_555
C2 H1 1_555 1_555
C3 C2 1_555 1_555
C4 O3 1_555 1_555
C5 C4 1_555 1_555
C6 C5 1_555 1_555
H2 C6 1_555 1_555
C7 C6 1_555 1_555
H3 C7 1_555 1_555
C8 C7 1_555 1_555
C9 C8 1_555 1_555
H4 C9 1_555 1_555
C10 C5 1_555 1_555
H5 C10 1_555 1_555
C11 C8 1_555 1_555
C12 C11 1_555 1_555
C13 C12 1_555 1_555
H6 C13 1_555 1_555
C14 C13 1_555 1_555
C15 C14 1_555 1_555
C16 C15 1_555 1_555
H7 C16 1_555 1_555
C17 C16 1_555 1_555
H8 C17 1_555 1_555
C18 C17 1_555 1_555
H9 C18 1_555 1_555
C19 C18 1_555 1_555
H10 C19 1_555 1_555
C20 C15 1_555 1_555
H11 C20 1_555 1_555
C21 C12 1_555 1_555
C22 C21 1_555 1_555
H12 C22 1_555 1_555
C23 C22 1_555 1_555
H13 C23 1_555 1_555
C24 C23 1_555 1_555
H14 C24 1_555 1_555
C25 C24 1_555 1_555
H15 C25 1_555 1_555
C26 C21 1_555 1_555
H16 C26 1_555 1_555
C27 C1 1_555 1_555
C28 C27 1_555 1_555
H17 C28 1_555 1_555
C29 C28 1_555 1_555
H18 C29 1_555 1_555
C30 C29 1_555 1_555
H19 C30 1_555 1_555
C31 C30 1_555 1_555
H20 C31 1_555 1_555
C32 C27 1_555 1_555
H21 C32 1_555 1_555
C33 C3 1_555 1_555
C34 C33 1_555 1_555
H22 C34 1_555 1_555
C35 C34 1_555 1_555
H23 C35 1_555 1_555
C36 C35 1_555 1_555
H24 C36 1_555 1_555
C37 C36 1_555 1_555
H25 C37 1_555 1_555
C38 C33 1_555 1_555
H26 C38 1_555 1_555
C3 C4 1_555 1_555
C9 C10 1_555 1_555
C19 C20 1_555 1_555
C25 C26 1_555 1_555
C31 C32 1_555 1_555
C37 C38 1_555 1_555

#END
