
#######################################################################
#
#                 Cambridge Crystallographic Data Centre
#                                CCDC 
#
#######################################################################
#
# If this CIF has been generated from an entry in the Cambridge 
# Structural Database, then it will include bibliographic, chemical, 
# crystal, experimental, refinement or atomic coordinate data resulting 
# from the CCDC's data processing and validation procedures.
#
#######################################################################

data_CURPAI
_chemical_formula_moiety         'C12 H11 N5'
_chemical_name_systematic        2-(bis(1H-Pyrazol-1-yl)methyl)pyridine
_symmetry_cell_setting           triclinic
_symmetry_space_group_name_H-M   'P -1'
_symmetry_Int_Tables_number      2
_space_group_name_Hall           '-P 1'
loop_
_symmetry_equiv_pos_site_id
_symmetry_equiv_pos_as_xyz
1 x,y,z
2 -x,-y,-z
_cell_length_a                   7.5723(3)
_cell_length_b                   8.6376(3)
_cell_length_c                   9.7354(5)
_cell_angle_alpha                97.539(2)
_cell_angle_beta                 106.123(4)
_cell_angle_gamma                105.510(5)
_cell_volume                     574.735
_exptl_crystal_colour            colorless
_exptl_crystal_description       plate
_cell_formula_units_Z            2
loop_
_atom_site_label
_atom_site_type_symbol
_atom_site_fract_x
_atom_site_fract_y
_atom_site_fract_z
C1 C 0.2525(2) 0.40769(18) 0.78430(15)
H1 H 0.3386 0.3778 0.8644
N1 N 0.05923(18) 0.35498(16) 0.79587(13)
N2 N -0.09589(19) 0.34989(18) 0.68237(15)
C2 C -0.2452(3) 0.3038(2) 0.7301(2)
H2 H -0.3725 0.2901 0.6753
C3 C -0.1886(3) 0.2781(2) 0.8731(2)
H3 H -0.2673 0.2452 0.9292
C4 C 0.0106(3) 0.3128(2) 0.91191(18)
H4 H 0.0940 0.3078 1.0004
N3 N 0.32364(18) 0.58610(15) 0.80514(12)
N4 N 0.50866(18) 0.66766(16) 0.89361(13)
C5 C 0.5303(3) 0.8249(2) 0.89025(18)
H5 H 0.6438 0.9111 0.9418
C6 C 0.3645(3) 0.8456(2) 0.80116(18)
H6 H 0.3457 0.9437 0.7819
C7 C 0.2343(3) 0.6900(2) 0.74763(18)
H7 H 0.1080 0.6612 0.6837
C8 C 0.2556(2) 0.31567(18) 0.64180(15)
N5 N 0.24020(19) 0.15718(16) 0.64034(14)
C9 C 0.2372(3) 0.0666(2) 0.51714(19)
H8 H 0.2239 -0.0441 0.5137
C10 C 0.2520(3) 0.1246(2) 0.3968(2)
H9 H 0.2493 0.0558 0.3138
C11 C 0.2709(3) 0.2866(2) 0.40071(18)
H10 H 0.2829 0.3305 0.3202
C12 C 0.2721(2) 0.3854(2) 0.52497(16)
H11 H 0.2837 0.4960 0.5294
loop_
_geom_bond_atom_site_label_1
_geom_bond_atom_site_label_2
_geom_bond_site_symmetry_1
_geom_bond_site_symmetry_2
C1 H1 1_555 1_555
N1 C1 1_555 1_555
N2 N1 1_555 1_555
C2 N2 1_555 1_555
H2 C2 1_555 1_555
C3 C2 1_555 1_555
H3 C3 1_555 1_555
C4 N1 1_555 1_555
H4 C4 1_555 1_555
N3 C1 1_555 1_555
N4 N3 1_555 1_555
C5 N4 1_555 1_555
H5 C5 1_555 1_555
C6 C5 1_555 1_555
H6 C6 1_555 1_555
C7 N3 1_555 1_555
H7 C7 1_555 1_555
C8 C1 1_555 1_555
N5 C8 1_555 1_555
C9 N5 1_555 1_555
H8 C9 1_555 1_555
C10 C9 1_555 1_555
H9 C10 1_555 1_555
C11 C10 1_555 1_555
H10 C11 1_555 1_555
C12 C8 1_555 1_555
H11 C12 1_555 1_555
C3 C4 1_555 1_555
C6 C7 1_555 1_555
C11 C12 1_555 1_555

#END
