
#######################################################################
#
#                 Cambridge Crystallographic Data Centre
#                                CCDC 
#
#######################################################################
#
# If this CIF has been generated from an entry in the Cambridge 
# Structural Database, then it will include bibliographic, chemical, 
# crystal, experimental, refinement or atomic coordinate data resulting 
# from the CCDC's data processing and validation procedures.
#
#######################################################################

data_CUSDUQ
_chemical_formula_moiety         'C16 H11 Br1 N2 O2,0.75(C4 H8 O2)'
_chemical_name_systematic        
"5-bromo-3'-hydroxy-1',3'-dihydro-1H,2'H-3,3'-biindol-2'-one ethyl acetate solvate"
_symmetry_cell_setting           monoclinic
_symmetry_space_group_name_H-M   'P 21'
_symmetry_Int_Tables_number      4
_space_group_name_Hall           'P 2yb'
loop_
_symmetry_equiv_pos_site_id
_symmetry_equiv_pos_as_xyz
1 x,y,z
2 -x,1/2+y,-z
_cell_length_a                   7.9496(3)
_cell_length_b                   25.1638(8)
_cell_length_c                   9.7385(3)
_cell_angle_alpha                90
_cell_angle_beta                 90.013(2)
_cell_angle_gamma                90
_cell_volume                     1948.11
_exptl_crystal_colour            colorless
_cell_formula_units_Z            4
loop_
_atom_site_label
_atom_site_type_symbol
_atom_site_fract_x
_atom_site_fract_y
_atom_site_fract_z
Br1 Br 1.25567(6) 0.685658(15) 0.11991(5)
N1 N 0.8817(4) 0.51484(13) -0.1775(3)
H1 H 0.8304 0.5131 -0.2575
N2 N 0.7927(4) 0.44916(15) 0.3030(3)
H2 H 0.7088 0.4571 0.3582
O1 O 1.1977(3) 0.46052(10) 0.1741(2)
H3 H 1.2250 0.4401 0.2386
O2 O 0.9579(4) 0.52307(11) 0.3369(2)
C1 C 1.1374(5) 0.63254(14) 0.0194(4)
C2 C 1.0735(5) 0.64576(15) -0.1108(4)
H4 H 1.0905 0.6804 -0.1469
C3 C 0.9864(5) 0.60851(16) -0.1859(4)
H5 H 0.9435 0.6166 -0.2745
C4 C 0.9634(4) 0.55854(15) -0.1275(3)
C5 C 1.0264(4) 0.54518(13) 0.0037(3)
C6 C 1.1167(4) 0.58365(14) 0.0784(3)
H6 H 1.1616 0.5759 0.1665
C7 C 0.9800(4) 0.49092(13) 0.0289(3)
C8 C 0.8914(4) 0.47434(15) -0.0851(3)
H7 H 0.8444 0.4400 -0.0973
C9 C 1.0219(4) 0.45794(13) 0.1534(3)
C10 C 0.9234(5) 0.48170(15) 0.2765(3)
C11 C 0.8074(5) 0.40116(16) 0.2313(4)
C12 C 0.7095(7) 0.3560(2) 0.2432(5)
H8 H 0.6145 0.3548 0.3022
C13 C 0.7583(6) 0.31096(19) 0.1624(5)
H9 H 0.6963 0.2788 0.1685
C14 C 0.8922(7) 0.31417(18) 0.0774(6)
H10 H 0.9216 0.2841 0.0235
C15 C 0.9881(6) 0.35988(16) 0.0664(4)
H11 H 1.0819 0.3613 0.0060
C16 C 0.9447(4) 0.40295(14) 0.1442(3)
Br2 Br 0.74744(10) 0.303255(18) 0.62582(6)
N3 N 0.3809(4) 0.47642(14) 0.9184(3)
H12 H 0.3299 0.4785 0.9984
N4 N 0.2911(5) 0.54385(18) 0.4428(3)
H13 H 0.2050 0.5372 0.3886
O3 O 0.6981(3) 0.52848(10) 0.5636(2)
H14 H 0.7260 0.5496 0.5008
O4 O 0.4490(4) 0.46812(13) 0.4068(3)
C17 C 0.6300(6) 0.35767(16) 0.7232(4)
C18 C 0.5639(6) 0.34458(16) 0.8541(5)
H15 H 0.5783 0.3098 0.8902
C19 C 0.4799(5) 0.38204(18) 0.9280(4)
H16 H 0.4361 0.3743 1.0165
C20 C 0.4601(4) 0.43263(16) 0.8686(3)
C21 C 0.5253(4) 0.44532(13) 0.7382(3)
C22 C 0.6138(5) 0.40660(15) 0.6639(3)
H17 H 0.6603 0.4141 0.5762
C23 C 0.4825(4) 0.50020(13) 0.7130(3)
C24 C 0.3925(4) 0.51650(16) 0.8257(3)
H18 H 0.3452 0.5509 0.8372
C25 C 0.5228(4) 0.53273(13) 0.5879(3)
C26 C 0.4184(5) 0.50930(16) 0.4668(3)
C27 C 0.3139(6) 0.59198(19) 0.5158(4)
C28 C 0.2185(8) 0.6379(3) 0.5058(6)
H19 H 0.1213 0.6404 0.4494
C29 C 0.4188(10) 0.6781(2) 0.6673(8)
H20 H 0.4555 0.7086 0.7165
C30 C 0.2773(11) 0.6804(3) 0.5860(8)
H21 H 0.2156 0.7127 0.5839
C31 C 0.5063(7) 0.63098(18) 0.6763(6)
H22 H 0.6019 0.6281 0.7344
C32 C 0.4527(5) 0.58782(17) 0.5990(4)
O5 O 0.6711(6) 0.60061(18) 0.3426(4)
O6 O 0.7050(5) 0.64896(17) 0.1535(4)
C33 C 0.5896(7) 0.5643(2) 0.1290(6)
H23 H 0.6809 0.5493 0.0735
H24 H 0.5050 0.5802 0.0684
H25 H 0.5376 0.5361 0.1838
C34 C 0.6573(6) 0.6051(2) 0.2203(5)
C35 C 0.7613(11) 0.6906(3) 0.2344(9)
H26 H 0.8710 0.6814 0.2762
H27 H 0.6799 0.6976 0.3092
C36 C 0.7801(13) 0.7401(4) 0.1450(14)
H28 H 0.8589 0.7327 0.0700
H29 H 0.8230 0.7695 0.2009
H30 H 0.6703 0.7498 0.1067
O7 O 0.1571(10) 0.3927(3) 0.3981(6)
O8 O 0.2288(7) 0.3322(3) 0.5555(7)
C37 C 0.1056(11) 0.4086(5) 0.6307(13)
H31 H 0.1152 0.4467 0.6120
H32 H 0.1730 0.3996 0.7117
H33 H -0.0124 0.3995 0.6478
C38 C 0.1633(8) 0.3804(3) 0.5194(7)
C39 C 0.2926(13) 0.2944(6) 0.4571(17)
H34 H 0.3801 0.2723 0.5014
H35 H 0.3460 0.3138 0.3801
C40 C 0.1585(14) 0.2593(5) 0.4021(15)
H36 H 0.1137 0.2371 0.4763
H37 H 0.2053 0.2365 0.3300
H38 H 0.0678 0.2811 0.3636
loop_
_geom_bond_atom_site_label_1
_geom_bond_atom_site_label_2
_geom_bond_site_symmetry_1
_geom_bond_site_symmetry_2
Br1 C1 1_555 1_555
N1 H1 1_555 1_555
N2 H2 1_555 1_555
O1 H3 1_555 1_555
O2 C10 1_555 1_555
C1 C2 1_555 1_555
C2 H4 1_555 1_555
C3 C2 1_555 1_555
H5 C3 1_555 1_555
C4 N1 1_555 1_555
C5 C4 1_555 1_555
C6 C1 1_555 1_555
H6 C6 1_555 1_555
C7 C5 1_555 1_555
C8 N1 1_555 1_555
H7 C8 1_555 1_555
C9 O1 1_555 1_555
C10 N2 1_555 1_555
C11 N2 1_555 1_555
C12 C11 1_555 1_555
H8 C12 1_555 1_555
C13 C12 1_555 1_555
H9 C13 1_555 1_555
C14 C13 1_555 1_555
H10 C14 1_555 1_555
C15 C14 1_555 1_555
H11 C15 1_555 1_555
C16 C9 1_555 1_555
Br2 C17 1_555 1_555
N3 H12 1_555 1_555
N4 H13 1_555 1_555
O3 H14 1_555 1_555
O4 C26 1_555 1_555
C17 C18 1_555 1_555
C18 H15 1_555 1_555
C19 C18 1_555 1_555
H16 C19 1_555 1_555
C20 N3 1_555 1_555
C21 C20 1_555 1_555
C22 C17 1_555 1_555
H17 C22 1_555 1_555
C23 C21 1_555 1_555
C24 N3 1_555 1_555
H18 C24 1_555 1_555
C25 O3 1_555 1_555
C26 N4 1_555 1_555
C27 N4 1_555 1_555
C28 C27 1_555 1_555
H19 C28 1_555 1_555
C29 H20 1_555 1_555
C30 C28 1_555 1_555
H21 C30 1_555 1_555
C31 C29 1_555 1_555
H22 C31 1_555 1_555
C32 C25 1_555 1_555
O5 C34 1_555 1_555
O6 C34 1_555 1_555
C33 H23 1_555 1_555
H24 C33 1_555 1_555
H25 C33 1_555 1_555
C34 C33 1_555 1_555
C35 O6 1_555 1_555
H26 C35 1_555 1_555
H27 C35 1_555 1_555
C36 C35 1_555 1_555
H28 C36 1_555 1_555
H29 C36 1_555 1_555
H30 C36 1_555 1_555
O7 C38 1_555 1_555
O8 C38 1_555 1_555
C37 H31 1_555 1_555
H32 C37 1_555 1_555
H33 C37 1_555 1_555
C38 C37 1_555 1_555
C39 O8 1_555 1_555
H34 C39 1_555 1_555
H35 C39 1_555 1_555
C40 C39 1_555 1_555
H36 C40 1_555 1_555
H37 C40 1_555 1_555
H38 C40 1_555 1_555
C3 C4 1_555 1_555
C5 C6 1_555 1_555
C7 C8 1_555 1_555
C7 C9 1_555 1_555
C9 C10 1_555 1_555
C11 C16 1_555 1_555
C15 C16 1_555 1_555
C19 C20 1_555 1_555
C21 C22 1_555 1_555
C23 C24 1_555 1_555
C23 C25 1_555 1_555
C25 C26 1_555 1_555
C27 C32 1_555 1_555
C29 C30 1_555 1_555
C31 C32 1_555 1_555

#END
