
#######################################################################
#
#                 Cambridge Crystallographic Data Centre
#                                CCDC 
#
#######################################################################
#
# If this CIF has been generated from an entry in the Cambridge 
# Structural Database, then it will include bibliographic, chemical, 
# crystal, experimental, refinement or atomic coordinate data resulting 
# from the CCDC's data processing and validation procedures.
#
#######################################################################

data_CUSKUY
_chemical_formula_moiety         'C23 H28 O7'
_chemical_name_systematic        
4,5-dimethoxy-9,11-dimethyl-12-(2,4,5-trimethoxyphenyl)-8,10-dioxatricyclo[7.2.1.0^2,7^]dodeca-2,4,6-triene
_symmetry_cell_setting           monoclinic
_symmetry_space_group_name_H-M   'P 21/c'
_symmetry_Int_Tables_number      14
_space_group_name_Hall           '-P 2ybc'
loop_
_symmetry_equiv_pos_site_id
_symmetry_equiv_pos_as_xyz
1 x,y,z
2 -x,1/2+y,1/2-z
3 -x,-y,-z
4 x,1/2-y,1/2+z
_cell_length_a                   8.94050(10)
_cell_length_b                   19.8567(3)
_cell_length_c                   11.89630(10)
_cell_angle_alpha                90
_cell_angle_beta                 96.5010(10)
_cell_angle_gamma                90
_cell_volume                     2098.36
_exptl_crystal_colour            colorless
_exptl_crystal_description       prism
_cell_formula_units_Z            4
loop_
_atom_site_label
_atom_site_type_symbol
_atom_site_fract_x
_atom_site_fract_y
_atom_site_fract_z
O1 O 1.28617(11) 0.22949(5) 0.53135(8)
O2 O 1.04209(11) 0.20981(5) 0.57742(7)
O3 O 1.12568(11) 0.10611(5) 0.20099(8)
O4 O 0.64768(11) -0.00503(5) 0.23441(8)
O5 O 0.66049(11) 0.04072(5) 0.44829(8)
O6 O 0.62954(11) 0.36482(5) 0.53260(8)
O7 O 0.69207(12) 0.40005(6) 0.33333(9)
C1 C 1.00448(15) 0.11896(7) 0.36427(11)
C2 C 1.00393(15) 0.09007(7) 0.25663(11)
C3 C 0.88799(16) 0.04816(7) 0.21046(11)
H1 H 0.8898 0.0298 0.1369
C4 C 0.76964(15) 0.03336(7) 0.27268(11)
C5 C 0.77142(16) 0.05939(7) 0.38216(11)
C6 C 0.88581(16) 0.10200(7) 0.42534(11)
H2 H 0.8835 0.1203 0.4989
C7 C 1.13332(15) 0.16459(7) 0.40467(11)
H3 H 1.2259 0.1439 0.3793
C8 C 1.17025(15) 0.18081(7) 0.53047(11)
C9 C 1.22028(17) 0.12390(8) 0.60921(12)
H4 H 1.3144 0.1049 0.5881
H5 H 1.1425 0.0889 0.6038
H6 H 1.2366 0.1408 0.6870
C10 C 1.13646(17) 0.07582(8) 0.09423(12)
H7 H 1.1352 0.0267 0.1021
H8 H 1.2306 0.0898 0.0662
H9 H 1.0510 0.0901 0.0406
C11 C 0.64803(18) -0.03529(8) 0.12569(12)
H10 H 0.6503 0.0000 0.0683
H11 H 0.5569 -0.0626 0.1087
H12 H 0.7371 -0.0641 0.1255
C12 C 0.52370(18) 0.07754(8) 0.42336(14)
H13 H 0.5394 0.1243 0.4481
H14 H 0.4449 0.0571 0.4632
H15 H 0.4929 0.0765 0.3417
C13 C 0.99228(15) 0.27238(7) 0.40271(11)
C14 C 0.95925(15) 0.25625(7) 0.51033(11)
C15 C 0.83885(15) 0.28562(7) 0.55690(11)
H16 H 0.8172 0.2731 0.6304
C16 C 0.75109(15) 0.33315(7) 0.49512(11)
C17 C 0.78454(15) 0.35179(7) 0.38646(11)
C18 C 0.90346(15) 0.32083(7) 0.34129(11)
H17 H 0.9249 0.3327 0.2674
C19 C 1.12582(15) 0.23799(7) 0.35992(11)
H18 H 1.1238 0.2406 0.2758
C20 C 1.27266(16) 0.26547(7) 0.42304(11)
H19 H 1.2611 0.3148 0.4370
C21 C 1.41085(16) 0.25408(8) 0.36166(13)
H20 H 1.5019 0.2594 0.4150
H21 H 1.4118 0.2870 0.3004
H22 H 1.4079 0.2085 0.3300
C22 C 0.57802(17) 0.33797(8) 0.63304(12)
H23 H 0.5533 0.2902 0.6216
H24 H 0.4881 0.3626 0.6498
H25 H 0.6574 0.3428 0.6965
C23 C 0.7105(2) 0.41509(9) 0.21864(14)
H26 H 0.8103 0.4347 0.2147
H27 H 0.6329 0.4472 0.1885
H28 H 0.7008 0.3736 0.1737
loop_
_geom_bond_atom_site_label_1
_geom_bond_atom_site_label_2
_geom_bond_site_symmetry_1
_geom_bond_site_symmetry_2
O1 C8 1_555 1_555
O2 C8 1_555 1_555
O3 C2 1_555 1_555
O4 C4 1_555 1_555
O5 C5 1_555 1_555
O6 C16 1_555 1_555
O7 C17 1_555 1_555
C1 C2 1_555 1_555
C2 C3 1_555 1_555
C3 H1 1_555 1_555
C4 C3 1_555 1_555
C5 C4 1_555 1_555
C6 C1 1_555 1_555
H2 C6 1_555 1_555
C7 C1 1_555 1_555
H3 C7 1_555 1_555
C8 C7 1_555 1_555
C9 C8 1_555 1_555
H4 C9 1_555 1_555
H5 C9 1_555 1_555
H6 C9 1_555 1_555
C10 O3 1_555 1_555
H7 C10 1_555 1_555
H8 C10 1_555 1_555
H9 C10 1_555 1_555
C11 O4 1_555 1_555
H10 C11 1_555 1_555
H11 C11 1_555 1_555
H12 C11 1_555 1_555
C12 O5 1_555 1_555
H13 C12 1_555 1_555
H14 C12 1_555 1_555
H15 C12 1_555 1_555
C13 C14 1_555 1_555
C14 O2 1_555 1_555
C15 C14 1_555 1_555
H16 C15 1_555 1_555
C16 C15 1_555 1_555
C17 C16 1_555 1_555
C18 C13 1_555 1_555
H17 C18 1_555 1_555
C19 C7 1_555 1_555
H18 C19 1_555 1_555
C20 O1 1_555 1_555
H19 C20 1_555 1_555
C21 C20 1_555 1_555
H20 C21 1_555 1_555
H21 C21 1_555 1_555
H22 C21 1_555 1_555
C22 O6 1_555 1_555
H23 C22 1_555 1_555
H24 C22 1_555 1_555
H25 C22 1_555 1_555
C23 O7 1_555 1_555
H26 C23 1_555 1_555
H27 C23 1_555 1_555
H28 C23 1_555 1_555
C5 C6 1_555 1_555
C13 C19 1_555 1_555
C17 C18 1_555 1_555
C19 C20 1_555 1_555

#END
