
#######################################################################
#
#                 Cambridge Crystallographic Data Centre
#                                CCDC 
#
#######################################################################
#
# If this CIF has been generated from an entry in the Cambridge 
# Structural Database, then it will include bibliographic, chemical, 
# crystal, experimental, refinement or atomic coordinate data resulting 
# from the CCDC's data processing and validation procedures.
#
#######################################################################

data_CUSMIN
_chemical_formula_moiety         'C24 H64 Li4 O2 Si4'
_chemical_name_systematic        
'tetrakis(\m~3~-Trimethylsilylmethylidyne)-bis(diethyl ether)-tetra-lithium'
_symmetry_cell_setting           monoclinic
_symmetry_space_group_name_H-M   'P 21'
_symmetry_Int_Tables_number      4
_space_group_name_Hall           'P 2yb'
loop_
_symmetry_equiv_pos_site_id
_symmetry_equiv_pos_as_xyz
1 x,y,z
2 -x,1/2+y,-z
_cell_length_a                   10.882(7)
_cell_length_b                   19.081(13)
_cell_length_c                   18.544(12)
_cell_angle_alpha                90
_cell_angle_beta                 105.018(9)
_cell_angle_gamma                90
_cell_volume                     3718.95
_exptl_crystal_colour            colorless
_exptl_crystal_description       block
_cell_formula_units_Z            4
loop_
_atom_site_label
_atom_site_type_symbol
_atom_site_fract_x
_atom_site_fract_y
_atom_site_fract_z
Li1 Li 0.60519(19) 0.07549(11) 0.54576(12)
Li2 Li 0.77729(19) 0.03252(10) 0.47549(11)
Li3 Li 0.72210(19) 0.16064(10) 0.47915(12)
Li4 Li 0.56402(19) 0.08386(10) 0.40263(12)
Si1 Si 0.86258(3) 0.175229(17) 0.642997(18)
Si2 Si 0.43417(3) -0.046307(16) 0.396928(18)
Si3 Si 0.43635(3) 0.239971(16) 0.40604(2)
Si4 Si 0.90113(3) 0.145032(16) 0.364374(18)
C1 C 0.65623(16) -0.03003(9) 0.68471(9)
H1 H 0.6690 -0.0418 0.6357
H2 H 0.6595 -0.0729 0.7142
H3 H 0.7233 0.0021 0.7107
C2 C 0.52879(18) 0.00438(9) 0.67467(10)
H4 H 0.5161 0.0171 0.7223
H5 H 0.4622 -0.0272 0.6505
O1 O 0.52657(19) 0.06503(10) 0.63012(12)
C3 C 0.43927(16) 0.11591(9) 0.64438(9)
H6 H 0.4484 0.1598 0.6178
H7 H 0.4615 0.1264 0.6985
C4 C 0.30333(19) 0.09233(15) 0.62037(13)
H8 H 0.2829 0.0776 0.5680
H9 H 0.2475 0.1311 0.6260
H10 H 0.2908 0.0528 0.6515
C5 C 0.58035(11) -0.01657(6) 0.46423(7)
C6 C 0.43579(14) -0.13936(7) 0.36387(9)
H11 H 0.5077 -0.1460 0.3419
H12 H 0.3561 -0.1493 0.3263
H13 H 0.4444 -0.1713 0.4063
C7 C 0.40345(17) 0.00948(8) 0.30996(8)
H14 H 0.3770 0.0565 0.3210
H15 H 0.3360 -0.0119 0.2706
H16 H 0.4815 0.0128 0.2931
C8 C 0.29235(14) -0.03610(10) 0.43537(11)
H17 H 0.3030 -0.0654 0.4800
H18 H 0.2156 -0.0506 0.3977
H19 H 0.2841 0.0131 0.4486
C9 C 0.75073(10) 0.10799(6) 0.37652(6)
C10 C 0.89816(13) 0.24370(7) 0.36564(8)
H20 H 0.8296 0.2607 0.3240
H21 H 0.9798 0.2619 0.3607
H22 H 0.8835 0.2599 0.4129
C11 C 1.04265(12) 0.11891(7) 0.44197(8)
H23 H 1.0365 0.1409 0.4887
H24 H 1.1209 0.1344 0.4300
H25 H 1.0442 0.0678 0.4476
C12 C 0.93991(15) 0.11845(9) 0.27496(8)
H26 H 0.9458 0.0673 0.2730
H27 H 1.0214 0.1392 0.2731
H28 H 0.8727 0.1350 0.2323
C13 C 0.81882(11) 0.09954(6) 0.57987(6)
C14 C 0.74567(13) 0.19111(7) 0.69991(7)
H29 H 0.6628 0.2035 0.6667
H30 H 0.7760 0.2296 0.7350
H31 H 0.7371 0.1485 0.7278
C15 C 0.86400(16) 0.25695(7) 0.58552(8)
H32 H 0.9263 0.2514 0.5561
H33 H 0.8872 0.2974 0.6188
H34 H 0.7793 0.2644 0.5519
C20 C 0.51245(11) 0.16910(6) 0.46940(7)
C21 C 0.31103(13) 0.29051(7) 0.43761(9)
H44 H 0.2460 0.2581 0.4456
H45 H 0.2715 0.3248 0.3993
H46 H 0.3504 0.3149 0.4844
C22 C 0.56010(14) 0.30455(7) 0.39355(10)
H47 H 0.5994 0.3271 0.4415
H48 H 0.5198 0.3402 0.3571
H49 H 0.6255 0.2799 0.3756
C23 C 0.35189(14) 0.20605(8) 0.31066(8)
H50 H 0.4129 0.1818 0.2888
H51 H 0.3141 0.2454 0.2785
H52 H 0.2848 0.1734 0.3151
C40 C 1.02346(14) 0.16940(10) 0.71149(9)
H90 H 1.0267 0.1278 0.7430
H91 H 1.0382 0.2114 0.7429
H92 H 1.0893 0.1659 0.6843
C45 C 1.07582(15) -0.06154(9) 0.58428(9)
H103 H 1.1327 -0.0707 0.5521
H104 H 1.1035 -0.0891 0.6302
H105 H 1.0784 -0.0116 0.5968
C46 C 0.94233(12) -0.08185(7) 0.54400(8)
H106 H 0.9395 -0.1327 0.5332
H107 H 0.8853 -0.0726 0.5767
O4 O 0.89691(8) -0.04371(4) 0.47497(5)
C47 C 0.92455(13) -0.07598(7) 0.41086(8)
H108 H 1.0107 -0.0969 0.4258
H109 H 0.9248 -0.0395 0.3729
C48 C 0.82935(14) -0.13228(8) 0.37646(9)
H110 H 0.8277 -0.1682 0.4140
H111 H 0.8541 -0.1538 0.3343
H112 H 0.7446 -0.1113 0.3588
H113 H 0.6430(18) -0.0468(10) 0.4571(10)
H114 H 0.5683(16) -0.0307(9) 0.5148(10)
H115 H 0.8895(17) 0.0889(10) 0.5632(9)
H116 H 0.8168(16) 0.0644(9) 0.6107(9)
H117 H 0.5484(16) 0.1921(9) 0.5180(10)
H118 H 0.4420(17) 0.1401(10) 0.4764(9)
H126 H 0.7434(19) 0.0563(10) 0.3594(10)
H127 H 0.6805(17) 0.1352(9) 0.3386(9)
Li5 Li 0.4031(2) 0.83065(11) -0.03631(12)
Li6 Li 0.22038(19) 0.78820(10) 0.02612(12)
Li7 Li 0.27551(19) 0.91666(10) 0.02370(11)
Li8 Li 0.42890(19) 0.84123(11) 0.10525(12)
Si5 Si 0.15275(3) 0.929088(18) -0.143222(19)
Si6 Si 0.56324(3) 0.710200(17) 0.116970(19)
Si7 Si 0.55932(3) 0.998317(16) 0.099213(19)
Si8 Si 0.08913(3) 0.904523(16) 0.132361(18)
C16 C 0.18835(11) 0.85470(6) -0.07791(7)
C17 C 0.15868(16) 1.01324(7) -0.08813(9)
H35 H 0.0954 1.0112 -0.0590
H36 H 0.1400 1.0531 -0.1226
H37 H 0.2437 1.0189 -0.0543
C18 C 0.27160(14) 0.93747(8) -0.20049(8)
H38 H 0.3571 0.9429 -0.1672
H39 H 0.2508 0.9786 -0.2331
H40 H 0.2688 0.8953 -0.2310
C19 C -0.00889(15) 0.92701(11) -0.21135(10)
H41 H -0.0176 0.8841 -0.2412
H42 H -0.0186 0.9679 -0.2444
H43 H -0.0747 0.9280 -0.1840
C24 C 0.48490(12) 0.92552(6) 0.03839(7)
C25 C 0.68468(13) 1.04765(7) 0.06592(9)
H53 H 0.7508 1.0150 0.0600
H54 H 0.7228 1.0836 0.1027
H55 H 0.6455 1.0700 0.0179
C26 C 0.43700(14) 1.06435(7) 0.11020(9)
H56 H 0.4007 1.0875 0.0622
H57 H 0.4773 1.0994 0.1474
H58 H 0.3693 1.0405 0.1267
C27 C 0.64263(15) 0.96380(8) 0.19422(8)
H59 H 0.5813 0.9392 0.2156
H60 H 0.6801 1.0029 0.2268
H61 H 0.7100 0.9313 0.1898
C28 C 0.42058(11) 0.74006(6) 0.04684(7)
C29 C 0.57861(17) 0.75910(8) 0.20768(8)
H62 H 0.5958 0.8087 0.2006
H63 H 0.6488 0.7392 0.2465
H64 H 0.4992 0.7548 0.2229
C30 C 0.56318(15) 0.61457(7) 0.14173(8)
H65 H 0.4900 0.6045 0.1617
H66 H 0.6420 0.6032 0.1794
H67 H 0.5575 0.5862 0.0969
C31 C 0.71111(14) 0.72675(11) 0.08668(10)
H68 H 0.7049 0.7034 0.0388
H69 H 0.7846 0.7083 0.1243
H70 H 0.7216 0.7773 0.0810
O2 O 0.09581(8) 0.71240(4) 0.01492(5)
C32 C 0.06350(13) 0.67456(7) 0.07466(8)
H71 H -0.0256 0.6582 0.0575
H72 H 0.0692 0.7067 0.1173
C33 C 0.05000(12) 0.68045(7) -0.05734(7)
H73 H 0.0535 0.6288 -0.0517
H74 H 0.1064 0.6938 -0.0893
C34 C -0.08436(14) 0.70217(9) -0.09507(10)
H75 H -0.1413 0.6867 -0.0650
H76 H -0.1107 0.6807 -0.1447
H77 H -0.0885 0.7533 -0.1001
C35 C 0.14896(15) 0.61241(8) 0.10075(9)
H78 H 0.1440 0.5804 0.0588
H79 H 0.1215 0.5879 0.1404
H80 H 0.2369 0.6285 0.1201
C36 C 0.23926(11) 0.86364(6) 0.12483(7)
C37 C 0.09559(12) 1.00277(7) 0.12622(8)
H81 H 0.1648 1.0206 0.1670
H82 H 0.0146 1.0227 0.1303
H83 H 0.1107 1.0162 0.0782
C38 C -0.04966(12) 0.87626(8) 0.05468(9)
H84 H -0.0403 0.8951 0.0072
H85 H -0.1286 0.8939 0.0641
H86 H -0.0526 0.8250 0.0522
C39 C 0.04419(14) 0.88515(8) 0.22177(8)
H87 H 0.0302 0.8347 0.2254
H88 H -0.0340 0.9105 0.2221
H89 H 0.1130 0.9002 0.2644
C41 C 0.37128(17) 0.73223(9) -0.17771(9)
H93 H 0.3674 0.7088 -0.1313
H94 H 0.3630 0.6973 -0.2174
H95 H 0.3017 0.7663 -0.1920
C42 C 0.49512(19) 0.76911(10) -0.16616(9)
H96 H 0.5618 0.7353 -0.1610
H97 H 0.4938 0.7975 -0.2092
O3 O 0.52315(18) 0.81434(11) -0.09971(11)
C43 C 0.64747(17) 0.84616(12) -0.08276(11)
H98 H 0.7075 0.8137 -0.0977
H99 H 0.6776 0.8534 -0.0282
C44 C 0.6488(3) 0.91641(19) -0.12225(16)
H100 H 0.6168 0.9099 -0.1763
H101 H 0.7360 0.9345 -0.1108
H102 H 0.5944 0.9499 -0.1049
H119 H 0.4532(18) 0.9433(10) -0.0138(11)
H120 H 0.5584(19) 0.8954(11) 0.0382(10)
H121 H 0.3081(16) 0.8869(9) 0.1669(9)
H122 H 0.4345(18) 0.7219(10) -0.0011(11)
H123 H 0.3574(18) 0.7107(11) 0.0541(10)
H124 H 0.1099(16) 0.8472(9) -0.0649(9)
H125 H 0.1872(17) 0.8175(10) -0.1069(10)
H128 H 0.238(2) 0.8149(12) 0.1413(11)
C49? C 0.3555(8) 0.1570(5) 0.6315(5)
C50? C 0.3609(6) 0.0863(4) 0.5959(4)
C51? C 0.6945(6) 0.8618(5) -0.1243(4)
C52? C 0.5606(6) 0.8769(4) -0.1403(4)
H129? H 0.3826 0.1522 0.6860
H130? H 0.2682 0.1749 0.6166
H131? H 0.4122 0.1896 0.6151
H132? H 0.7222 0.8386 -0.0756
H133? H 0.7419 0.9056 -0.1234
H134? H 0.7106 0.8309 -0.1630
H135? H 0.5495 0.9195 -0.1122
H136? H 0.5298 0.8881 -0.1941
H137? H 0.5084 0.7850 -0.2127
H138? H 0.5646 0.7398 -0.1413
H139? H 0.3049 0.0536 0.6141
H140? H 0.3260 0.0911 0.5413
H141? H 0.5288 0.0286 0.7200
H142? H 0.4656 -0.0318 0.6680
O5? O 0.4873(7) 0.0555(4) 0.6103(4)
O6? O 0.4816(7) 0.8236(3) -0.1235(4)
loop_
_geom_bond_atom_site_label_1
_geom_bond_atom_site_label_2
_geom_bond_site_symmetry_1
_geom_bond_site_symmetry_2
Li1 O1 1_555 1_555
Li2 C5 1_555 1_555
Li3 C9 1_555 1_555
Li4 C5 1_555 1_555
Li5 C16 1_555 1_555
Li6 C16 1_555 1_555
Li7 C16 1_555 1_555
Li8 C24 1_555 1_555
Si1 C13 1_555 1_555
Si2 C5 1_555 1_555
Si3 C20 1_555 1_555
Si4 C9 1_555 1_555
Si5 C16 1_555 1_555
Si6 C28 1_555 1_555
Si7 C24 1_555 1_555
Si8 C36 1_555 1_555
C1 H1 1_555 1_555
H2 C1 1_555 1_555
H3 C1 1_555 1_555
C2 C1 1_555 1_555
H4 C2 1_555 1_555
H5 C2 1_555 1_555
O1 C2 1_555 1_555
C3 O1 1_555 1_555
H6 C3 1_555 1_555
H7 C3 1_555 1_555
C4 C3 1_555 1_555
H8 C4 1_555 1_555
H9 C4 1_555 1_555
H10 C4 1_555 1_555
C5 Li1 1_555 1_555
C6 Si2 1_555 1_555
H11 C6 1_555 1_555
H12 C6 1_555 1_555
H13 C6 1_555 1_555
C7 Si2 1_555 1_555
H14 C7 1_555 1_555
H15 C7 1_555 1_555
H16 C7 1_555 1_555
C8 Si2 1_555 1_555
H17 C8 1_555 1_555
H18 C8 1_555 1_555
H19 C8 1_555 1_555
C9 Li2 1_555 1_555
C10 Si4 1_555 1_555
H20 C10 1_555 1_555
H21 C10 1_555 1_555
H22 C10 1_555 1_555
C11 Si4 1_555 1_555
H23 C11 1_555 1_555
H24 C11 1_555 1_555
H25 C11 1_555 1_555
C12 Si4 1_555 1_555
H26 C12 1_555 1_555
H27 C12 1_555 1_555
H28 C12 1_555 1_555
C13 Li1 1_555 1_555
C14 Si1 1_555 1_555
H29 C14 1_555 1_555
H30 C14 1_555 1_555
H31 C14 1_555 1_555
C15 Si1 1_555 1_555
H32 C15 1_555 1_555
H33 C15 1_555 1_555
H34 C15 1_555 1_555
C16 H124 1_555 1_555
C17 Si5 1_555 1_555
H35 C17 1_555 1_555
H36 C17 1_555 1_555
H37 C17 1_555 1_555
C18 Si5 1_555 1_555
H38 C18 1_555 1_555
H39 C18 1_555 1_555
H40 C18 1_555 1_555
C19 Si5 1_555 1_555
H41 C19 1_555 1_555
H42 C19 1_555 1_555
H43 C19 1_555 1_555
C20 Li1 1_555 1_555
C21 Si3 1_555 1_555
H44 C21 1_555 1_555
H45 C21 1_555 1_555
H46 C21 1_555 1_555
C22 Si3 1_555 1_555
H47 C22 1_555 1_555
H48 C22 1_555 1_555
H49 C22 1_555 1_555
C23 Si3 1_555 1_555
H50 C23 1_555 1_555
H51 C23 1_555 1_555
H52 C23 1_555 1_555
C24 Li5 1_555 1_555
C25 Si7 1_555 1_555
H53 C25 1_555 1_555
H54 C25 1_555 1_555
H55 C25 1_555 1_555
C26 Si7 1_555 1_555
H56 C26 1_555 1_555
H57 C26 1_555 1_555
H58 C26 1_555 1_555
C27 Si7 1_555 1_555
H59 C27 1_555 1_555
H60 C27 1_555 1_555
H61 C27 1_555 1_555
C28 Li5 1_555 1_555
C29 Si6 1_555 1_555
H62 C29 1_555 1_555
H63 C29 1_555 1_555
H64 C29 1_555 1_555
C30 Si6 1_555 1_555
H65 C30 1_555 1_555
H66 C30 1_555 1_555
H67 C30 1_555 1_555
C31 Si6 1_555 1_555
H68 C31 1_555 1_555
H69 C31 1_555 1_555
H70 C31 1_555 1_555
O2 Li6 1_555 1_555
C32 O2 1_555 1_555
H71 C32 1_555 1_555
H72 C32 1_555 1_555
C33 O2 1_555 1_555
H73 C33 1_555 1_555
H74 C33 1_555 1_555
C34 C33 1_555 1_555
H75 C34 1_555 1_555
H76 C34 1_555 1_555
H77 C34 1_555 1_555
C35 C32 1_555 1_555
H78 C35 1_555 1_555
H79 C35 1_555 1_555
H80 C35 1_555 1_555
C36 Li6 1_555 1_555
C37 Si8 1_555 1_555
H81 C37 1_555 1_555
H82 C37 1_555 1_555
H83 C37 1_555 1_555
C38 Si8 1_555 1_555
H84 C38 1_555 1_555
H85 C38 1_555 1_555
H86 C38 1_555 1_555
C39 Si8 1_555 1_555
H87 C39 1_555 1_555
H88 C39 1_555 1_555
H89 C39 1_555 1_555
C40 Si1 1_555 1_555
H90 C40 1_555 1_555
H91 C40 1_555 1_555
H92 C40 1_555 1_555
C41 H93 1_555 1_555
H94 C41 1_555 1_555
H95 C41 1_555 1_555
C42 C41 1_555 1_555
H96 C42 1_555 1_555
H97 C42 1_555 1_555
O3 Li5 1_555 1_555
C43 O3 1_555 1_555
H98 C43 1_555 1_555
H99 C43 1_555 1_555
C44 C43 1_555 1_555
H100 C44 1_555 1_555
H101 C44 1_555 1_555
H102 C44 1_555 1_555
C45 H103 1_555 1_555
H104 C45 1_555 1_555
H105 C45 1_555 1_555
C46 C45 1_555 1_555
H106 C46 1_555 1_555
H107 C46 1_555 1_555
O4 Li2 1_555 1_555
C47 O4 1_555 1_555
H108 C47 1_555 1_555
H109 C47 1_555 1_555
C48 C47 1_555 1_555
H110 C48 1_555 1_555
H111 C48 1_555 1_555
H112 C48 1_555 1_555
H113 C5 1_555 1_555
H114 C5 1_555 1_555
H115 C13 1_555 1_555
H116 C13 1_555 1_555
H117 C20 1_555 1_555
H118 C20 1_555 1_555
H119 C24 1_555 1_555
H120 C24 1_555 1_555
H121 C36 1_555 1_555
H122 C28 1_555 1_555
H123 C28 1_555 1_555
H125 C16 1_555 1_555
H126 C9 1_555 1_555
H127 C9 1_555 1_555
H128 C36 1_555 1_555
Li2 C13 1_555 1_555
Li3 C13 1_555 1_555
Li3 C20 1_555 1_555
Li4 C9 1_555 1_555
Li4 C20 1_555 1_555
Li6 C28 1_555 1_555
Li7 C24 1_555 1_555
Li7 C36 1_555 1_555
Li8 C28 1_555 1_555
Li8 C36 1_555 1_555
C42 O3 1_555 1_555
C46 O4 1_555 1_555

#END
