
#######################################################################
#
#                 Cambridge Crystallographic Data Centre
#                                CCDC 
#
#######################################################################
#
# If this CIF has been generated from an entry in the Cambridge 
# Structural Database, then it will include bibliographic, chemical, 
# crystal, experimental, refinement or atomic coordinate data resulting 
# from the CCDC's data processing and validation procedures.
#
#######################################################################

data_CUTPEN
_chemical_name_common            (1S,4S)-sertraline
_chemical_formula_moiety         'C17 H17 Cl2 N1'
_chemical_name_systematic        
(1S,4S)-4-(3,4-dichlorophenyl)-N-methyl-1,2,3,4-tetrahydronaphthalen-1-amine
_chemical_properties_biological  
'Sertraline is a selective serotonin reuptake inhibitor (SSRI) antidepressant.'
_symmetry_cell_setting           monoclinic
_symmetry_space_group_name_H-M   'P 21'
_symmetry_Int_Tables_number      4
_space_group_name_Hall           'P 2yb'
loop_
_symmetry_equiv_pos_site_id
_symmetry_equiv_pos_as_xyz
1 x,y,z
2 -x,1/2+y,-z
_cell_length_a                   8.7569(5)
_cell_length_b                   8.7731(5)
_cell_length_c                   10.7921(6)
_cell_angle_alpha                90
_cell_angle_beta                 110.814(4)
_cell_angle_gamma                90
_cell_volume                     774.996
_cell_formula_units_Z            2
loop_
_atom_site_label
_atom_site_type_symbol
_atom_site_fract_x
_atom_site_fract_y
_atom_site_fract_z
N1 N -0.1365(12) -0.1738(14) 0.8492(9)
H1 H -0.1222 -0.0780 0.8665
C1 C -0.171(2) -0.2923(17) 0.9291(15)
H2 H -0.1295 -0.2622 1.0206
H3 H -0.1187 -0.3853 0.9187
C2 C -0.1675(3) -0.1101(4) 0.6502(4)
H4 H -0.2559 -0.0576 0.6667
H5 H -0.2020 -0.1308 0.5559
C3 C -0.0157(4) -0.0085(3) 0.6923(4)
H6 H 0.0222 0.0083 0.7873
H7 H -0.0427 0.0896 0.6485
C4 C 0.1195(3) -0.0845(3) 0.6552(3)
H8 H 0.0863 -0.0790 0.5585
C5 C 0.2784(4) -0.3292(3) 0.6925(2)
H9 H 0.3592 -0.2748 0.6743
C6 C 0.3002(5) -0.4824(4) 0.7184(3)
H10 H 0.3951 -0.5303 0.7189
C7 C 0.1836(5) -0.5624(3) 0.7430(3)
H11 H 0.1975 -0.6666 0.7589
C8 C 0.0449(5) -0.4932(4) 0.7451(3)
H12 H -0.0338 -0.5510 0.7632
C9 C 0.0182(3) -0.3335(3) 0.7202(2)
C10 C 0.1393(3) -0.2525(2) 0.69257(19)
C11 C 0.2798(3) 0.0023(2) 0.7130(2)
C12 C 0.3464(3) 0.0767(2) 0.6315(2)
H13 H 0.2943 0.0714 0.5400
C13 C 0.4904(3) 0.1595(2) 0.6843(2)
C14 C 0.5688(3) 0.1683(3) 0.8203(2)
C15 C 0.5023(3) 0.0943(3) 0.9018(2)
H14 H 0.5541 0.0998 0.9933
C16 C 0.3605(3) 0.0128(3) 0.8491(2)
H15 H 0.3174 -0.0366 0.9056
Cl1 Cl 0.56980(8) 0.25062(9) 0.57876(7)
Cl2 Cl 0.74956(8) 0.26825(10) 0.88967(7)
C17 C -0.1317(3) -0.2590(4) 0.7263(3)
H16 H -0.2237 -0.3278 0.6840
H17 H -0.3134 -0.3445 0.8689
C18? C -0.1317(3) -0.2590(4) 0.7263(3)
H18? H -0.2253 -0.3281 0.6925
H19? H -0.2866 -0.3080 0.9010
N2? N -0.1058(4) -0.2536(6) 0.8708(3)
H20? H -0.0111 -0.2533 0.9326
C19? C -0.2574(6) -0.2491(8) 0.8946(5)
H21? H -0.2353 -0.2316 0.9872
H22? H -0.3244 -0.1681 0.8437
loop_
_geom_bond_atom_site_label_1
_geom_bond_atom_site_label_2
_geom_bond_site_symmetry_1
_geom_bond_site_symmetry_2
N1 H1 1_555 1_555
C1 N1 1_555 1_555
H2 C1 1_555 1_555
H3 C1 1_555 1_555
C2 H4 1_555 1_555
H5 C2 1_555 1_555
C3 C2 1_555 1_555
H6 C3 1_555 1_555
H7 C3 1_555 1_555
C4 C3 1_555 1_555
H8 C4 1_555 1_555
C5 H9 1_555 1_555
C6 C5 1_555 1_555
H10 C6 1_555 1_555
C7 C6 1_555 1_555
H11 C7 1_555 1_555
C8 C7 1_555 1_555
H12 C8 1_555 1_555
C9 C8 1_555 1_555
C10 C4 1_555 1_555
C11 C4 1_555 1_555
C12 C11 1_555 1_555
H13 C12 1_555 1_555
C13 C12 1_555 1_555
C14 C13 1_555 1_555
C15 C14 1_555 1_555
H14 C15 1_555 1_555
C16 C11 1_555 1_555
H15 C16 1_555 1_555
Cl1 C13 1_555 1_555
Cl2 C14 1_555 1_555
C17 N1 1_555 1_555
H16 C17 1_555 1_555
H17 C1 1_555 1_555
C2 C17 1_555 1_555
C5 C10 1_555 1_555
C9 C10 1_555 1_555
C9 C17 1_555 1_555
C15 C16 1_555 1_555

#END
