
#######################################################################
#
#                 Cambridge Crystallographic Data Centre
#                                CCDC 
#
#######################################################################
#
# If this CIF has been generated from an entry in the Cambridge 
# Structural Database, then it will include bibliographic, chemical, 
# crystal, experimental, refinement or atomic coordinate data resulting 
# from the CCDC's data processing and validation procedures.
#
#######################################################################

data_CUTQIT
_chemical_formula_moiety         'C19 H11 Br1 N2 O3'
_chemical_name_systematic        
2-amino-4-(4-bromophenyl)-5-oxo-4H,5H-pyrano[3,2-c]chromene-3-carbonitrile
_chemical_properties_biological  'antibacterial activity; antitumour activity'
_symmetry_cell_setting           monoclinic
_symmetry_space_group_name_H-M   'P 21/c'
_symmetry_Int_Tables_number      14
_space_group_name_Hall           '-P 2ybc'
loop_
_symmetry_equiv_pos_site_id
_symmetry_equiv_pos_as_xyz
1 x,y,z
2 -x,1/2+y,1/2-z
3 -x,-y,-z
4 x,1/2-y,1/2+z
_cell_length_a                   9.1783(7)
_cell_length_b                   12.8868(11)
_cell_length_c                   13.3775(8)
_cell_angle_alpha                90
_cell_angle_beta                 90.305(7)
_cell_angle_gamma                90
_cell_volume                     1582.25
_exptl_crystal_colour            colorless
_exptl_crystal_description       block
_cell_formula_units_Z            4
loop_
_atom_site_label
_atom_site_type_symbol
_atom_site_fract_x
_atom_site_fract_y
_atom_site_fract_z
Br1 Br -0.51391(8) 0.33252(6) 0.59128(5)
C1 C 0.0310(7) 0.3162(5) 0.1524(4)
C2 C 0.0089(7) 0.3683(5) 0.2375(4)
C3 C -0.0995(6) 0.4562(4) 0.2508(4)
H1 H -0.0456 0.5181 0.2721
C4 C -0.1668(6) 0.4783(4) 0.1494(4)
C5 C -0.1367(6) 0.4237(4) 0.0669(4)
C6 C -0.2634(6) 0.5662(4) 0.1423(4)
C7 C 0.0876(7) 0.3394(4) 0.3259(4)
C8 C -0.2039(6) 0.4440(4) -0.0286(4)
C9 C -0.3014(7) 0.5250(5) -0.0324(4)
C10 C -0.3746(8) 0.5502(5) -0.1191(5)
H2 H -0.4403 0.6051 -0.1202
C11 C -0.3493(8) 0.4933(5) -0.2034(4)
H3 H -0.3988 0.5096 -0.2622
C12 C -0.2505(8) 0.4115(5) -0.2025(4)
H4 H -0.2333 0.3738 -0.2605
C13 C -0.1780(7) 0.3866(5) -0.1151(4)
H5 H -0.1122 0.3317 -0.1138
C14 C -0.2095(6) 0.4304(4) 0.3307(4)
C15 C -0.1888(7) 0.4670(5) 0.4262(4)
H6 H -0.1119 0.5121 0.4391
C16 C -0.2793(7) 0.4386(5) 0.5030(4)
H7 H -0.2641 0.4643 0.5672
C17 C -0.3931(7) 0.3712(5) 0.4835(4)
C18 C -0.4168(7) 0.3339(4) 0.3884(5)
H8 H -0.4949 0.2899 0.3753
C19 C -0.3236(7) 0.3626(5) 0.3131(4)
H9 H -0.3376 0.3359 0.2492
O1 O -0.0413(5) 0.3419(3) 0.0651(3)
O2 O -0.3302(4) 0.5867(3) 0.0507(3)
O3 O -0.2926(5) 0.6259(3) 0.2093(3)
N1 N 0.1180(6) 0.2351(4) 0.1339(3)
H10 H 0.1705 0.2092 0.1811
H11 H 0.1215 0.2091 0.0747
N2 N 0.1421(7) 0.3200(4) 0.4007(4)
loop_
_geom_bond_atom_site_label_1
_geom_bond_atom_site_label_2
_geom_bond_site_symmetry_1
_geom_bond_site_symmetry_2
Br1 C17 1_555 1_555
C1 C2 1_555 1_555
C2 C3 1_555 1_555
C3 H1 1_555 1_555
C4 C3 1_555 1_555
C5 C4 1_555 1_555
C6 C4 1_555 1_555
C7 C2 1_555 1_555
C8 C5 1_555 1_555
C9 C8 1_555 1_555
C10 C9 1_555 1_555
H2 C10 1_555 1_555
C11 C10 1_555 1_555
H3 C11 1_555 1_555
C12 C11 1_555 1_555
H4 C12 1_555 1_555
C13 C8 1_555 1_555
H5 C13 1_555 1_555
C14 C3 1_555 1_555
C15 C14 1_555 1_555
H6 C15 1_555 1_555
C16 C15 1_555 1_555
H7 C16 1_555 1_555
C17 C16 1_555 1_555
C18 C17 1_555 1_555
H8 C18 1_555 1_555
C19 C14 1_555 1_555
H9 C19 1_555 1_555
O1 C1 1_555 1_555
O2 C6 1_555 1_555
O3 C6 1_555 1_555
N1 C1 1_555 1_555
H10 N1 1_555 1_555
H11 N1 1_555 1_555
N2 C7 1_555 1_555
C5 O1 1_555 1_555
C9 O2 1_555 1_555
C12 C13 1_555 1_555
C18 C19 1_555 1_555

#END
