
#######################################################################
#
#                 Cambridge Crystallographic Data Centre
#                                CCDC 
#
#######################################################################
#
# If this CIF has been generated from an entry in the Cambridge 
# Structural Database, then it will include bibliographic, chemical, 
# crystal, experimental, refinement or atomic coordinate data resulting 
# from the CCDC's data processing and validation procedures.
#
#######################################################################

data_CUVBUQ
_chemical_formula_moiety         'C15 H13 N1 O2 S1'
_chemical_name_systematic        
(E)-1-(4-Methyl-2-nitrobenzenethiolato)-2-phenylethene
_symmetry_cell_setting           orthorhombic
_symmetry_space_group_name_H-M   'P b c a'
_symmetry_Int_Tables_number      61
_space_group_name_Hall           '-P 2ac 2ab'
loop_
_symmetry_equiv_pos_site_id
_symmetry_equiv_pos_as_xyz
1 x,y,z
2 1/2-x,1/2+y,z
3 x,1/2-y,1/2+z
4 1/2+x,y,1/2-z
5 -x,-y,-z
6 1/2+x,1/2-y,-z
7 -x,1/2+y,1/2-z
8 1/2-x,-y,1/2+z
_cell_length_a                   21.595(3)
_cell_length_b                   14.518(2)
_cell_length_c                   7.9530(7)
_cell_angle_alpha                90
_cell_angle_beta                 90
_cell_angle_gamma                90
_cell_volume                     2493.39
_exptl_crystal_colour            colorless
_exptl_crystal_description       plate
_cell_formula_units_Z            8
loop_
_atom_site_label
_atom_site_type_symbol
_atom_site_fract_x
_atom_site_fract_y
_atom_site_fract_z
C1 C -0.02924(15) 0.3370(2) 0.2452(5)
S1 S -0.09836(4) 0.31829(6) 0.13278(15)
C2 C 0.00810(15) 0.2712(2) 0.3100(5)
N1 N -0.00862(15) 0.18036(19) 0.2840(4)
O1 O -0.05522(13) 0.16401(15) 0.2033(4)
O2 O 0.02491(12) 0.12512(15) 0.3463(4)
C3 C 0.06125(15) 0.2871(2) 0.4004(5)
C4 C 0.08077(16) 0.3707(2) 0.4321(5)
C5 C 0.13784(18) 0.3891(3) 0.5349(6)
C6 C 0.04487(16) 0.4362(2) 0.3672(5)
C7 C -0.00814(16) 0.4202(2) 0.2775(5)
C8 C -0.12040(18) 0.4236(2) 0.0740(5)
C9 C -0.17354(17) 0.4563(2) 0.1196(5)
C10 C -0.20091(16) 0.5384(2) 0.0670(5)
C11 C -0.17387(16) 0.5929(2) -0.0516(5)
C12 C -0.20234(18) 0.6680(2) -0.0971(6)
C13 C -0.2573(2) 0.6928(3) -0.0244(6)
C14 C -0.28447(19) 0.6408(3) 0.0921(7)
C15 C -0.25635(17) 0.5637(3) 0.1374(6)
H1 H 0.0840 0.2372 0.4402
H2 H 0.1432 0.4544 0.5480
H3 H 0.1733 0.3637 0.4789
H4 H 0.1335 0.3611 0.6436
H8 H 0.0566 0.4971 0.3839
H9 H -0.0303 0.4705 0.2374
H10 H -0.0942 0.4591 0.0078
H11 H -0.1960 0.4212 0.1960
H12 H -0.1360 0.5768 -0.0989
H13 H -0.1851 0.7053 -0.1800
H14 H -0.2762 0.7475 -0.0573
H15 H -0.3220 0.6581 0.1401
H16 H -0.2745 0.5261 0.2183
H5? H 0.1568 0.3317 0.5657
H6? H 0.1267 0.4224 0.6347
H7? H 0.1665 0.4250 0.4700
loop_
_geom_bond_atom_site_label_1
_geom_bond_atom_site_label_2
_geom_bond_site_symmetry_1
_geom_bond_site_symmetry_2
C1 S1 1_555 1_555
S1 C8 1_555 1_555
C2 C1 1_555 1_555
N1 C2 1_555 1_555
O1 N1 1_555 1_555
O2 N1 1_555 1_555
C3 C2 1_555 1_555
C4 C3 1_555 1_555
C5 C4 1_555 1_555
C6 C4 1_555 1_555
C7 C1 1_555 1_555
C8 C9 1_555 1_555
C9 C10 1_555 1_555
C10 C11 1_555 1_555
C11 C12 1_555 1_555
C12 C13 1_555 1_555
C13 C14 1_555 1_555
C14 C15 1_555 1_555
C15 C10 1_555 1_555
H1 C3 1_555 1_555
H2 C5 1_555 1_555
H3 C5 1_555 1_555
H4 C5 1_555 1_555
H8 C6 1_555 1_555
H9 C7 1_555 1_555
H10 C8 1_555 1_555
H11 C9 1_555 1_555
H12 C11 1_555 1_555
H13 C12 1_555 1_555
H14 C13 1_555 1_555
H15 C14 1_555 1_555
H16 C15 1_555 1_555
C6 C7 1_555 1_555

#END
