
#######################################################################
#
#                 Cambridge Crystallographic Data Centre
#                                CCDC 
#
#######################################################################
#
# If this CIF has been generated from an entry in the Cambridge 
# Structural Database, then it will include bibliographic, chemical, 
# crystal, experimental, refinement or atomic coordinate data resulting 
# from the CCDC's data processing and validation procedures.
#
#######################################################################

data_CUVHUY
_chemical_formula_moiety         'C12 H17 N1 O3 S2'
_chemical_name_systematic        
'Ethyl (S,Z)-((t-butylsulfinyl)imino)(2-thienyl)acetate'
_symmetry_cell_setting           orthorhombic
_symmetry_space_group_name_H-M   'P 21 21 21'
_symmetry_Int_Tables_number      19
_space_group_name_Hall           'P 2ac 2ab'
loop_
_symmetry_equiv_pos_site_id
_symmetry_equiv_pos_as_xyz
1 x,y,z
2 1/2+x,1/2-y,-z
3 -x,1/2+y,1/2-z
4 1/2-x,-y,1/2+z
_cell_length_a                   8.7469(2)
_cell_length_b                   13.4624(3)
_cell_length_c                   24.6866(5)
_cell_angle_alpha                90
_cell_angle_beta                 90
_cell_angle_gamma                90
_cell_volume                     2906.95
_cell_formula_units_Z            8
_exptl_crystal_recrystallization_method pentane
loop_
_atom_site_label
_atom_site_type_symbol
_atom_site_fract_x
_atom_site_fract_y
_atom_site_fract_z
S1 S -0.14701(7) 1.29307(4) 0.13564(2)
S2 S -0.64333(7) 1.17870(4) 0.12340(2)
O1 O -0.2049(2) 1.04411(12) 0.19400(6)
O2 O -0.0235(2) 1.22156(12) 0.14841(6)
O3 O -0.1368(2) 1.02647(11) 0.10616(6)
C1 C -0.1180(4) 0.94638(18) 0.26856(10)
H1 H -0.1010 1.0071 0.2896
H2 H -0.0456 0.8951 0.2803
H3 H -0.2227 0.9229 0.2744
C2 C -0.0943(3) 0.96782(18) 0.20953(10)
H4 H 0.0112 0.9918 0.2032
H5 H -0.1105 0.9069 0.1879
C3 C -0.2096(3) 1.06575(16) 0.14145(9)
C4 C -0.3341(3) 1.14247(16) 0.12988(8)
N1 N -0.3150(2) 1.23662(14) 0.12421(8)
C5 C -0.1137(3) 1.33449(17) 0.06492(10)
C6 C 0.0388(3) 1.3887(2) 0.06798(13)
H6 H 0.0673 1.4123 0.0318
H7 H 0.1176 1.3432 0.0815
H8 H 0.0297 1.4454 0.0926
C7 C -0.2420(4) 1.4058(2) 0.04954(12)
H9 H -0.2490 1.4587 0.0767
H10 H -0.3391 1.3696 0.0480
H11 H -0.2203 1.4351 0.0140
C8 C -0.4855(3) 1.10108(17) 0.12290(9)
C9 C -0.7637(3) 1.08115(19) 0.11259(9)
H12 H -0.8715 1.0877 0.1098
C10 C -0.6888(3) 0.99297(18) 0.10837(9)
H13 H -0.7380 0.9312 0.1019
C11 C -0.5277(3) 1.00412(18) 0.11479(9)
H14 H -0.4574 0.9504 0.1136
C12 C -0.1053(4) 1.2444(2) 0.02786(10)
H15 H -0.0735 1.2655 -0.0084
H16 H -0.2061 1.2129 0.0258
H17 H -0.0309 1.1969 0.0423
S3 S 0.36916(7) 0.74155(4) 0.06427(2)
S4 S -0.12637(7) 0.69775(4) 0.12721(2)
O4 O 0.3769(2) 0.66418(11) 0.20783(6)
O5 O 0.49845(19) 0.74886(13) 0.10305(6)
N2 N 0.2003(2) 0.72251(14) 0.09521(7)
O6 O 0.3224(2) 0.82818(12) 0.20381(6)
C13 C 0.5248(3) 0.6190(2) -0.00075(10)
H18 H 0.5364 0.5560 -0.0202
H19 H 0.6122 0.6287 0.0235
H20 H 0.5203 0.6737 -0.0269
C14 C 0.3771(3) 0.61686(16) 0.03249(9)
C15 C 0.1824(3) 0.72281(15) 0.14696(8)
C16 C 0.3093(3) 0.73347(16) 0.18908(8)
C17 C 0.4406(3) 0.8503(2) 0.24413(10)
H21 H 0.5434 0.8455 0.2276
H22 H 0.4346 0.8026 0.2746
C18 C 0.4115(4) 0.9543(2) 0.26386(12)
H23 H 0.4123 1.0001 0.2330
H24 H 0.4915 0.9734 0.2896
H25 H 0.3116 0.9571 0.2818
C19 C 0.0315(3) 0.70884(16) 0.16896(9)
C20 C -0.2444(3) 0.68263(18) 0.18188(10)
H26 H -0.3517 0.6730 0.1791
C21 C -0.1679(3) 0.68587(17) 0.22967(9)
H27 H -0.2156 0.6787 0.2640
C22 C -0.0097(3) 0.70112(17) 0.22263(9)
H28 H 0.0609 0.7056 0.2518
C23 C 0.2376(3) 0.6066(2) -0.00385(9)
H29 H 0.2333 0.6629 -0.0290
H30 H 0.1449 0.6057 0.0185
H31 H 0.2446 0.5445 -0.0245
C24 C 0.3846(3) 0.53810(17) 0.07670(9)
H32 H 0.2904 0.5400 0.0982
H33 H 0.4725 0.5512 0.1003
H34 H 0.3957 0.4724 0.0601
loop_
_geom_bond_atom_site_label_1
_geom_bond_atom_site_label_2
_geom_bond_site_symmetry_1
_geom_bond_site_symmetry_2
S1 O2 1_555 1_555
S2 C8 1_555 1_555
O1 C2 1_555 1_555
O3 C3 1_555 1_555
C1 H1 1_555 1_555
H2 C1 1_555 1_555
H3 C1 1_555 1_555
C2 C1 1_555 1_555
H4 C2 1_555 1_555
H5 C2 1_555 1_555
C3 O1 1_555 1_555
C4 C3 1_555 1_555
N1 S1 1_555 1_555
C5 S1 1_555 1_555
C6 C5 1_555 1_555
H6 C6 1_555 1_555
H7 C6 1_555 1_555
H8 C6 1_555 1_555
C7 C5 1_555 1_555
H9 C7 1_555 1_555
H10 C7 1_555 1_555
H11 C7 1_555 1_555
C8 C4 1_555 1_555
C9 S2 1_555 1_555
H12 C9 1_555 1_555
C10 C9 1_555 1_555
H13 C10 1_555 1_555
C11 C8 1_555 1_555
H14 C11 1_555 1_555
C12 C5 1_555 1_555
H15 C12 1_555 1_555
H16 C12 1_555 1_555
H17 C12 1_555 1_555
S3 O5 1_555 1_555
S4 C19 1_555 1_555
O4 C16 1_555 1_555
N2 S3 1_555 1_555
O6 C16 1_555 1_555
C13 H18 1_555 1_555
H19 C13 1_555 1_555
H20 C13 1_555 1_555
C14 S3 1_555 1_555
C15 N2 1_555 1_555
C16 C15 1_555 1_555
C17 O6 1_555 1_555
H21 C17 1_555 1_555
H22 C17 1_555 1_555
C18 C17 1_555 1_555
H23 C18 1_555 1_555
H24 C18 1_555 1_555
H25 C18 1_555 1_555
C19 C15 1_555 1_555
C20 S4 1_555 1_555
H26 C20 1_555 1_555
C21 C20 1_555 1_555
H27 C21 1_555 1_555
C22 C19 1_555 1_555
H28 C22 1_555 1_555
C23 C14 1_555 1_555
H29 C23 1_555 1_555
H30 C23 1_555 1_555
H31 C23 1_555 1_555
C24 C14 1_555 1_555
H32 C24 1_555 1_555
H33 C24 1_555 1_555
H34 C24 1_555 1_555
C4 N1 1_555 1_555
C10 C11 1_555 1_555
C13 C14 1_555 1_555
C21 C22 1_555 1_555

#END
