
#######################################################################
#
#                 Cambridge Crystallographic Data Centre
#                                CCDC 
#
#######################################################################
#
# If this CIF has been generated from an entry in the Cambridge 
# Structural Database, then it will include bibliographic, chemical, 
# crystal, experimental, refinement or atomic coordinate data resulting 
# from the CCDC's data processing and validation procedures.
#
#######################################################################

data_CUVSOC
_chemical_formula_moiety         'C36 H46 Br2 Mg2 O6'
_chemical_name_systematic        
bis(\m~2~-2-naphtholato)-dibromo-tetrakis(tetrahydrofuran)-di-magnesium
_symmetry_cell_setting           monoclinic
_symmetry_space_group_name_H-M   'P 21/c'
_symmetry_Int_Tables_number      14
_space_group_name_Hall           '-P 2ybc'
loop_
_symmetry_equiv_pos_site_id
_symmetry_equiv_pos_as_xyz
1 x,y,z
2 -x,1/2+y,1/2-z
3 -x,-y,-z
4 x,1/2-y,1/2+z
_cell_length_a                   9.2816(19)
_cell_length_b                   19.285(4)
_cell_length_c                   10.680(2)
_cell_angle_alpha                90
_cell_angle_beta                 106.94(3)
_cell_angle_gamma                90
_cell_volume                     1828.73
_exptl_crystal_colour            colorless
_exptl_crystal_description       block
_cell_formula_units_Z            2
loop_
_atom_site_label
_atom_site_type_symbol
_atom_site_fract_x
_atom_site_fract_y
_atom_site_fract_z
Mg1 Mg -0.0165(3) 0.50355(16) 0.6392(2)
Br1 Br 0.16406(13) 0.57774(6) 0.80009(10)
O1 O 0.1086(7) 0.4573(3) 0.5360(5)
O2 O -0.0604(7) 0.4066(3) 0.7009(6)
O3 O -0.1975(8) 0.5329(4) 0.7125(6)
C1 C 0.2116(10) 0.4073(5) 0.5755(8)
C2 C 0.2223(10) 0.3497(5) 0.4978(7)
H1 H 0.1557 0.3472 0.4139
C3 C 0.3223(13) 0.2985(5) 0.5370(10)
H2 H 0.3242 0.2618 0.4809
C4 C 0.4253(10) 0.3002(5) 0.6640(8)
C5 C 0.5349(11) 0.2493(5) 0.7065(10)
H3 H 0.5394 0.2128 0.6509
C6 C 0.6359(12) 0.2519(6) 0.8284(11)
H4 H 0.7078 0.2173 0.8577
C7 C 0.6269(12) 0.3075(7) 0.9059(9)
H5 H 0.6959 0.3103 0.9888
C8 C 0.5230(11) 0.3589(5) 0.8683(8)
H6 H 0.5197 0.3949 0.9254
C9 C 0.4191(10) 0.3569(5) 0.7404(8)
C10 C 0.3116(9) 0.4087(5) 0.7011(8)
H7 H 0.3064 0.4443 0.7585
C11 C -0.1035(17) 0.3450(7) 0.6283(12)
H8 H -0.0757 0.3474 0.5477
H9 H -0.2118 0.3390 0.6062
C12 C -0.025(2) 0.2851(8) 0.7101(16)
H10 H -0.0926 0.2461 0.7047
H11 H 0.0619 0.2702 0.6841
C13 C 0.0208(18) 0.3160(8) 0.8443(17)
H12 H -0.0250 0.2904 0.9009
H13 H 0.1294 0.3135 0.8811
C14 C -0.0270(15) 0.3866(7) 0.8359(10)
H14 H 0.0521 0.4157 0.8900
H15 H -0.1158 0.3913 0.8655
C15 C -0.1983(18) 0.5680(8) 0.8321(11)
H16 H -0.1345 0.5430 0.9065
H17 H -0.1572 0.6143 0.8325
C16 C -0.342(3) 0.5726(10) 0.844(2)
H18 H -0.3590 0.6175 0.8780
H19 H -0.3596 0.5366 0.9014
C17 C -0.4447(18) 0.5620(7) 0.698(2)
H20 H -0.5416 0.5423 0.6959
H21 H -0.4602 0.6053 0.6500
C18 C -0.3532(14) 0.5129(7) 0.6472(11)
H22 H -0.3717 0.4655 0.6687
H23 H -0.3756 0.5171 0.5530
Mg1B Mg 0.0165(3) 0.49645(16) 0.3608(2)
Br1B Br -0.16406(13) 0.42226(6) 0.19991(10)
O1B O -0.1086(7) 0.5427(3) 0.4640(5)
O2B O 0.0604(7) 0.5934(3) 0.2991(6)
O3B O 0.1975(8) 0.4671(4) 0.2875(6)
C1B C -0.2116(10) 0.5927(5) 0.4245(8)
C2B C -0.2223(10) 0.6503(5) 0.5022(7)
H1B H -0.1557 0.6528 0.5861
C3B C -0.3223(13) 0.7015(5) 0.4630(10)
H2B H -0.3242 0.7382 0.5191
C4B C -0.4253(10) 0.6998(5) 0.3360(8)
C5B C -0.5349(11) 0.7507(5) 0.2935(10)
H3B H -0.5394 0.7872 0.3491
C6B C -0.6359(12) 0.7481(6) 0.1716(11)
H4B H -0.7078 0.7827 0.1423
C7B C -0.6269(12) 0.6925(7) 0.0941(9)
H5B H -0.6959 0.6897 0.0112
C8B C -0.5230(11) 0.6411(5) 0.1317(8)
H6B H -0.5197 0.6051 0.0746
C9B C -0.4191(10) 0.6431(5) 0.2596(8)
C10B C -0.3116(9) 0.5913(5) 0.2989(8)
H7B H -0.3064 0.5557 0.2415
C11B C 0.1035(17) 0.6550(7) 0.3717(12)
H8B H 0.0757 0.6526 0.4523
H9B H 0.2118 0.6610 0.3938
C12B C 0.025(2) 0.7149(8) 0.2899(16)
H10B H 0.0926 0.7539 0.2953
H11B H -0.0619 0.7298 0.3159
C13B C -0.0208(18) 0.6840(8) 0.1557(17)
H12B H 0.0250 0.7096 0.0991
H13B H -0.1294 0.6865 0.1189
C14B C 0.0270(15) 0.6134(7) 0.1641(10)
H14B H -0.0521 0.5843 0.1100
H15B H 0.1158 0.6087 0.1345
C15B C 0.1983(18) 0.4320(8) 0.1679(11)
H16B H 0.1345 0.4570 0.0935
H17B H 0.1572 0.3857 0.1675
C16B C 0.342(3) 0.4274(10) 0.156(2)
H18B H 0.3590 0.3825 0.1220
H19B H 0.3596 0.4634 0.0986
C17B C 0.4447(18) 0.4380(7) 0.302(2)
H20B H 0.5416 0.4577 0.3041
H21B H 0.4602 0.3947 0.3500
C18B C 0.3532(14) 0.4871(7) 0.3528(11)
H22B H 0.3717 0.5345 0.3313
H23B H 0.3756 0.4829 0.4470
loop_
_geom_bond_atom_site_label_1
_geom_bond_atom_site_label_2
_geom_bond_site_symmetry_1
_geom_bond_site_symmetry_2
Mg1 Br1 1_555 1_555
O1 Mg1 1_555 1_555
O2 Mg1 1_555 1_555
O3 Mg1 1_555 1_555
C1 O1 1_555 1_555
C2 C1 1_555 1_555
H1 C2 1_555 1_555
C3 C2 1_555 1_555
H2 C3 1_555 1_555
C4 C3 1_555 1_555
C5 C4 1_555 1_555
H3 C5 1_555 1_555
C6 C5 1_555 1_555
H4 C6 1_555 1_555
C7 C6 1_555 1_555
H5 C7 1_555 1_555
C8 C7 1_555 1_555
H6 C8 1_555 1_555
C9 C4 1_555 1_555
C10 C1 1_555 1_555
H7 C10 1_555 1_555
C11 O2 1_555 1_555
H8 C11 1_555 1_555
H9 C11 1_555 1_555
C12 C11 1_555 1_555
H10 C12 1_555 1_555
H11 C12 1_555 1_555
C13 C12 1_555 1_555
H12 C13 1_555 1_555
H13 C13 1_555 1_555
C14 O2 1_555 1_555
H14 C14 1_555 1_555
H15 C14 1_555 1_555
C15 O3 1_555 1_555
H16 C15 1_555 1_555
H17 C15 1_555 1_555
C16 C15 1_555 1_555
H18 C16 1_555 1_555
H19 C16 1_555 1_555
C17 C16 1_555 1_555
H20 C17 1_555 1_555
H21 C17 1_555 1_555
C18 O3 1_555 1_555
H22 C18 1_555 1_555
H23 C18 1_555 1_555
Mg1B O1 1_555 1_555
Br1B Mg1B 1_555 1_555
O1B Mg1 1_555 1_555
O2B Mg1B 1_555 1_555
O3B Mg1B 1_555 1_555
C1B O1B 1_555 1_555
C2B C1B 1_555 1_555
H1B C2B 1_555 1_555
C3B C2B 1_555 1_555
H2B C3B 1_555 1_555
C4B C3B 1_555 1_555
C5B C4B 1_555 1_555
H3B C5B 1_555 1_555
C6B C5B 1_555 1_555
H4B C6B 1_555 1_555
C7B C6B 1_555 1_555
H5B C7B 1_555 1_555
C8B C7B 1_555 1_555
H6B C8B 1_555 1_555
C9B C4B 1_555 1_555
C10B C1B 1_555 1_555
H7B C10B 1_555 1_555
C11B O2B 1_555 1_555
H8B C11B 1_555 1_555
H9B C11B 1_555 1_555
C12B C11B 1_555 1_555
H10B C12B 1_555 1_555
H11B C12B 1_555 1_555
C13B C12B 1_555 1_555
H12B C13B 1_555 1_555
H13B C13B 1_555 1_555
C14B O2B 1_555 1_555
H14B C14B 1_555 1_555
H15B C14B 1_555 1_555
C15B O3B 1_555 1_555
H16B C15B 1_555 1_555
H17B C15B 1_555 1_555
C16B C15B 1_555 1_555
H18B C16B 1_555 1_555
H19B C16B 1_555 1_555
C17B C16B 1_555 1_555
H20B C17B 1_555 1_555
H21B C17B 1_555 1_555
C18B O3B 1_555 1_555
H22B C18B 1_555 1_555
H23B C18B 1_555 1_555
C8 C9 1_555 1_555
C9 C10 1_555 1_555
C13 C14 1_555 1_555
C17 C18 1_555 1_555
Mg1B O1B 1_555 1_555
C8B C9B 1_555 1_555
C9B C10B 1_555 1_555
C13B C14B 1_555 1_555
C17B C18B 1_555 1_555

#END
