
#######################################################################
#
#                 Cambridge Crystallographic Data Centre
#                                CCDC 
#
#######################################################################
#
# If this CIF has been generated from an entry in the Cambridge 
# Structural Database, then it will include bibliographic, chemical, 
# crystal, experimental, refinement or atomic coordinate data resulting 
# from the CCDC's data processing and validation procedures.
#
#######################################################################

data_CUVXUO
_chemical_formula_moiety         'C23 H17 N1 O3'
_chemical_name_systematic        
N-(4-methyl-1-oxo-3-phenyl-1H-isochromen-8-yl)benzamide
_symmetry_cell_setting           orthorhombic
_symmetry_space_group_name_H-M   'P 21 21 21'
_symmetry_Int_Tables_number      19
_space_group_name_Hall           'P 2ac 2ab'
loop_
_symmetry_equiv_pos_site_id
_symmetry_equiv_pos_as_xyz
1 x,y,z
2 1/2-x,-y,1/2+z
3 -x,1/2+y,1/2-z
4 1/2+x,1/2-y,-z
_cell_length_a                   7.2793(7)
_cell_length_b                   12.9826(13)
_cell_length_c                   18.8537(19)
_cell_angle_alpha                90
_cell_angle_beta                 90
_cell_angle_gamma                90
_cell_volume                     1781.75
_exptl_crystal_colour            colorless
_exptl_crystal_description       needle
_cell_formula_units_Z            4
loop_
_atom_site_label
_atom_site_type_symbol
_atom_site_fract_x
_atom_site_fract_y
_atom_site_fract_z
C1 C 0.1072(2) 0.61917(13) 0.16388(9)
C2 C 0.1538(3) 0.70127(15) 0.20714(10)
H1 H 0.1866 0.7640 0.1870
C3 C 0.1521(3) 0.69060(17) 0.28018(11)
H2 H 0.1850 0.7459 0.3089
C4 C 0.0572(3) 0.52627(15) 0.19587(12)
H3 H 0.0259 0.4700 0.1678
C5 C 0.1016(3) 0.59801(19) 0.31061(11)
H4 H 0.1003 0.5910 0.3597
C6 C 0.0541(3) 0.51731(18) 0.26869(13)
H5 H 0.0190 0.4553 0.2893
C7 C 0.1081(3) 0.62175(12) 0.08493(10)
C8 C 0.1070(2) 0.84634(11) -0.03793(8)
C9 C 0.0999(2) 0.87452(12) -0.11037(8)
C10 C 0.1247(2) 0.74103(12) -0.01786(8)
C11 C 0.1169(3) 0.79672(13) -0.16149(9)
H6 H 0.1133 0.8134 -0.2094
C12 C 0.1389(3) 0.69615(14) -0.14111(10)
H7 H 0.1519 0.6459 -0.1759
C13 C 0.1424(3) 0.66693(12) -0.07077(10)
H8 H 0.1564 0.5979 -0.0587
C14 C 0.0972(2) 0.92723(11) 0.01542(8)
C15 C 0.0731(2) 0.98175(12) -0.13004(8)
C16 C 0.0532(2) 1.05174(12) -0.07863(8)
C17 C 0.1172(3) 1.23343(12) -0.04370(9)
H9 H 0.2079 1.2089 -0.0133
C18 C 0.0695(2) 1.01101(13) -0.20778(8)
H10 H 0.0733 1.0846 -0.2122
H11 H -0.0411 0.9853 -0.2291
H12 H 0.1741 0.9816 -0.2313
C19 C 0.0164(2) 1.16417(12) -0.08464(8)
C20 C 0.0843(3) 1.33761(13) -0.04755(10)
H13 H 0.1529 1.3828 -0.0199
C21 C -0.1196(2) 1.20296(13) -0.12853(9)
H14 H -0.1905 1.1581 -0.1556
C22 C -0.0496(3) 1.37533(14) -0.09206(10)
H15 H -0.0713 1.4458 -0.0948
C23 C -0.1508(3) 1.30816(15) -0.13236(10)
H16 H -0.2412 1.3334 -0.1626
O1 O 0.06601(17) 1.02520(8) -0.00736(5)
O2 O 0.1119(2) 0.91677(8) 0.07940(6)
O3 O 0.0956(3) 0.54318(10) 0.05078(8)
N1 N 0.1243(2) 0.71606(9) 0.05431(7)
H17 H 0.1359 0.7671 0.0831
loop_
_geom_bond_atom_site_label_1
_geom_bond_atom_site_label_2
_geom_bond_site_symmetry_1
_geom_bond_site_symmetry_2
C1 C2 1_555 1_555
C2 H1 1_555 1_555
C3 C2 1_555 1_555
H2 C3 1_555 1_555
C4 C1 1_555 1_555
H3 C4 1_555 1_555
C5 C3 1_555 1_555
H4 C5 1_555 1_555
C6 C4 1_555 1_555
H5 C6 1_555 1_555
C7 C1 1_555 1_555
C8 C9 1_555 1_555
C9 C11 1_555 1_555
C10 C8 1_555 1_555
C11 H6 1_555 1_555
C12 C11 1_555 1_555
H7 C12 1_555 1_555
C13 C10 1_555 1_555
H8 C13 1_555 1_555
C14 C8 1_555 1_555
C15 C9 1_555 1_555
C16 C15 1_555 1_555
C17 H9 1_555 1_555
C18 C15 1_555 1_555
H10 C18 1_555 1_555
H11 C18 1_555 1_555
H12 C18 1_555 1_555
C19 C16 1_555 1_555
C20 C17 1_555 1_555
H13 C20 1_555 1_555
C21 C19 1_555 1_555
H14 C21 1_555 1_555
C22 C20 1_555 1_555
H15 C22 1_555 1_555
C23 C21 1_555 1_555
H16 C23 1_555 1_555
O1 C14 1_555 1_555
O2 C14 1_555 1_555
O3 C7 1_555 1_555
N1 C7 1_555 1_555
H17 N1 1_555 1_555
C5 C6 1_555 1_555
C10 N1 1_555 1_555
C12 C13 1_555 1_555
C16 O1 1_555 1_555
C17 C19 1_555 1_555
C22 C23 1_555 1_555

#END
