
#######################################################################
#
#                 Cambridge Crystallographic Data Centre
#                                CCDC 
#
#######################################################################
#
# If this CIF has been generated from an entry in the Cambridge 
# Structural Database, then it will include bibliographic, chemical, 
# crystal, experimental, refinement or atomic coordinate data resulting 
# from the CCDC's data processing and validation procedures.
#
#######################################################################

data_CUWQEQ01
_chemical_formula_moiety         'C16 H34 N1 O2 1+,Br1 1-'
_chemical_name_systematic        
'N-(carboxymethyl)-N,N-dimethyldodecan-1-aminium bromide'
_symmetry_cell_setting           triclinic
_symmetry_space_group_name_H-M   'P -1'
_symmetry_Int_Tables_number      2
_space_group_name_Hall           '-P 1'
loop_
_symmetry_equiv_pos_site_id
_symmetry_equiv_pos_as_xyz
1 x,y,z
2 -x,-y,-z
_cell_length_a                   6.7660(14)
_cell_length_b                   7.5050(15)
_cell_length_c                   19.400(4)
_cell_angle_alpha                91.74(3)
_cell_angle_beta                 91.79(3)
_cell_angle_gamma                100.99(3)
_cell_volume                     965.909
_exptl_crystal_colour            colorless
_exptl_crystal_description       'sheet like'
_cell_formula_units_Z            2
loop_
_atom_site_label
_atom_site_type_symbol
_atom_site_fract_x
_atom_site_fract_y
_atom_site_fract_z
Br1 Br 0.25368(10) 0.70764(9) 0.89024(4)
N1 N 0.5917(8) 0.2406(7) 0.8938(3)
C1 C -0.8490(14) 0.2802(13) 0.2812(5)
H1 H -0.8723 0.2501 0.2328
H2 H -0.8231 0.4098 0.2884
H3 H -0.9658 0.2278 0.3057
O1 O 0.8874(7) -0.1125(7) 0.9252(3)
H4 H 0.9825 -0.1480 0.9077
O2 O 0.9478(8) 0.1018(8) 0.8476(3)
C2 C -0.6737(14) 0.2080(14) 0.3069(5)
H5 H -0.5639 0.2411 0.2759
H6 H -0.7089 0.0765 0.3064
C3 C -0.6016(12) 0.2789(12) 0.3804(4)
H7 H -0.5662 0.4104 0.3806
H8 H -0.7124 0.2468 0.4110
C4 C -0.4240(12) 0.2068(12) 0.4085(4)
H9 H -0.3142 0.2357 0.3772
H10 H -0.4605 0.0756 0.4097
C5 C -0.3494(12) 0.2835(12) 0.4814(4)
H11 H -0.3144 0.4148 0.4804
H12 H -0.4582 0.2528 0.5129
C6 C -0.1716(11) 0.2129(12) 0.5079(4)
H13 H -0.0636 0.2409 0.4759
H14 H -0.2073 0.0817 0.5101
C7 C -0.0941(12) 0.2954(12) 0.5813(4)
H15 H -0.0548 0.4261 0.5787
H16 H -0.2036 0.2706 0.6129
C8 C 0.0842(11) 0.2200(12) 0.6101(4)
H17 H 0.0456 0.0890 0.6122
H18 H 0.1945 0.2461 0.5789
C9 C 0.1565(11) 0.2985(11) 0.6814(4)
H19 H 0.2051 0.4282 0.6784
H20 H 0.0432 0.2813 0.7115
C10 C 0.3222(11) 0.2144(10) 0.7132(4)
H21 H 0.4352 0.2308 0.6829
H22 H 0.2733 0.0848 0.7165
C11 C 0.3953(10) 0.2949(9) 0.7847(4)
H23 H 0.4763 0.4151 0.7803
H24 H 0.2802 0.3069 0.8118
C12 C 0.5188(10) 0.1768(9) 0.8215(3)
H25 H 0.4385 0.0554 0.8232
H26 H 0.6351 0.1686 0.7944
C13 C 0.7416(11) 0.4121(10) 0.8947(4)
H27 H 0.8547 0.3947 0.8683
H28 H 0.7862 0.4474 0.9414
H29 H 0.6813 0.5055 0.8748
C14 C 0.4161(10) 0.2662(10) 0.9357(4)
H30 H 0.3548 0.3597 0.9165
H31 H 0.4619 0.3007 0.9824
H32 H 0.3192 0.1545 0.9351
C15 C 0.6744(9) 0.0923(8) 0.9269(4)
H33 H 0.5659 -0.0122 0.9290
H34 H 0.7164 0.1321 0.9741
C16 C 0.8510(10) 0.0303(9) 0.8928(4)
loop_
_geom_bond_atom_site_label_1
_geom_bond_atom_site_label_2
_geom_bond_site_symmetry_1
_geom_bond_site_symmetry_2
N1 C12 1_555 1_555
C1 H1 1_555 1_555
H2 C1 1_555 1_555
H3 C1 1_555 1_555
O1 H4 1_555 1_555
O2 C16 1_555 1_555
C2 C1 1_555 1_555
H5 C2 1_555 1_555
H6 C2 1_555 1_555
C3 C2 1_555 1_555
H7 C3 1_555 1_555
H8 C3 1_555 1_555
C4 C3 1_555 1_555
H9 C4 1_555 1_555
H10 C4 1_555 1_555
C5 C4 1_555 1_555
H11 C5 1_555 1_555
H12 C5 1_555 1_555
C6 C5 1_555 1_555
H13 C6 1_555 1_555
H14 C6 1_555 1_555
C7 C6 1_555 1_555
H15 C7 1_555 1_555
H16 C7 1_555 1_555
C8 C7 1_555 1_555
H17 C8 1_555 1_555
H18 C8 1_555 1_555
C9 C8 1_555 1_555
H19 C9 1_555 1_555
H20 C9 1_555 1_555
C10 C9 1_555 1_555
H21 C10 1_555 1_555
H22 C10 1_555 1_555
C11 C10 1_555 1_555
H23 C11 1_555 1_555
H24 C11 1_555 1_555
C12 C11 1_555 1_555
H25 C12 1_555 1_555
H26 C12 1_555 1_555
C13 N1 1_555 1_555
H27 C13 1_555 1_555
H28 C13 1_555 1_555
H29 C13 1_555 1_555
C14 N1 1_555 1_555
H30 C14 1_555 1_555
H31 C14 1_555 1_555
H32 C14 1_555 1_555
C15 N1 1_555 1_555
H33 C15 1_555 1_555
H34 C15 1_555 1_555
C16 O1 1_555 1_555
C15 C16 1_555 1_555

#END
