
#######################################################################
#
#                 Cambridge Crystallographic Data Centre
#                                CCDC 
#
#######################################################################
#
# If this CIF has been generated from an entry in the Cambridge 
# Structural Database, then it will include bibliographic, chemical, 
# crystal, experimental, refinement or atomic coordinate data resulting 
# from the CCDC's data processing and validation procedures.
#
#######################################################################

data_CUYCOO
_chemical_compound_source        'Pogostemon parviflorous Benth'
_chemical_name_common            Parvinolide
_chemical_formula_moiety         'C15 H22 O2'
_chemical_name_systematic        Caryophyllen-9\b,10-olide
_symmetry_cell_setting           orthorhombic
_symmetry_space_group_name_H-M   'P 21 21 21'
_symmetry_Int_Tables_number      19
_space_group_name_Hall           'P 2ac 2ab'
loop_
_symmetry_equiv_pos_site_id
_symmetry_equiv_pos_as_xyz
1 x,y,z
2 1/2+x,1/2-y,-z
3 -x,1/2+y,1/2-z
4 1/2-x,-y,1/2+z
_cell_length_a                   7.854(2)
_cell_length_b                   9.783(2)
_cell_length_c                   17.258(3)
_cell_angle_alpha                90
_cell_angle_beta                 90
_cell_angle_gamma                90
_cell_volume                     1326.03
_chemical_melting_point          134-135deg.C
_cell_formula_units_Z            4
loop_
_atom_site_label
_atom_site_type_symbol
_atom_site_fract_x
_atom_site_fract_y
_atom_site_fract_z
C1 C 0.0154(5) 0.0060(4) 0.5179(2)
C2 C -0.1773(6) 0.0268(6) 0.5039(3)
C3 C -0.2641(5) -0.0911(6) 0.4618(3)
C4 C -0.1790(5) -0.1141(5) 0.3850(3)
C5 C -0.0466(6) -0.1972(4) 0.3814(3)
C6 C 0.1011(7) -0.1877(6) 0.3265(3)
C7 C 0.2328(6) -0.0923(5) 0.3647(3)
C8 C 0.1634(5) 0.0458(4) 0.3829(2)
C9 C 0.1340(5) 0.0890(4) 0.4657(2)
C10 C 0.2721(6) 0.0563(5) 0.5829(2)
C11 C 0.0824(5) 0.0415(4) 0.5993(2)
C12 C 0.0195(8) 0.1771(5) 0.6299(3)
C13 C 0.0496(6) -0.0729(5) 0.6566(2)
C14 C -0.2386(7) -0.0258(7) 0.3192(3)
C15 C 0.1279(7) 0.1371(6) 0.3289(3)
H1 H 0.042(6) -0.095(5) 0.508(3)
H2 H -0.197(6) 0.112(5) 0.471(3)
H3 H -0.239(6) 0.044(5) 0.554(3)
H4 H -0.366(5) -0.036(5) 0.462(3)
H5 H -0.244(5) -0.200(5) 0.480(3)
H6 H -0.053(6) -0.276(5) 0.416(3)
H7 H 0.075(7) -0.173(5) 0.284(3)
H8 H 0.129(7) -0.286(5) 0.318(3)
H9 H 0.314(6) -0.101(5) 0.346(3)
H10 H 0.257(6) -0.162(5) 0.410(3)
H11 H 0.088(5) 0.189(5) 0.466(3)
H12 H 0.052(8) 0.240(6) 0.596(5)
H13 H -0.079(8) 0.197(6) 0.646(5)
H14 H 0.071(8) 0.178(6) 0.663(5)
H15 H -0.046(8) -0.129(6) 0.672(5)
H16 H 0.106(8) -0.182(6) 0.637(5)
H17 H -0.217(8) 0.095(6) 0.334(5)
H18 H -0.182(8) -0.066(6) 0.283(5)
H19 H -0.325(8) -0.032(6) 0.307(5)
H20 H 0.116(7) 0.120(5) 0.288(4)
H21 H 0.108(7) 0.241(5) 0.337(4)
O1 O 0.2978(4) 0.0832(3) 0.5068(2)
O2 O 0.3879(4) 0.0513(4) 0.6273(2)
loop_
_geom_bond_atom_site_label_1
_geom_bond_atom_site_label_2
_geom_bond_site_symmetry_1
_geom_bond_site_symmetry_2
C1 C2 1_555 1_555
C2 C3 1_555 1_555
C3 C4 1_555 1_555
C4 C5 1_555 1_555
C5 C6 1_555 1_555
C6 C7 1_555 1_555
C7 C8 1_555 1_555
C8 C9 1_555 1_555
C9 C1 1_555 1_555
C10 C11 1_555 1_555
C11 C1 1_555 1_555
C12 C11 1_555 1_555
C13 C11 1_555 1_555
C14 C4 1_555 1_555
C15 C8 1_555 1_555
H1 C1 1_555 1_555
H2 C2 1_555 1_555
H3 C2 1_555 1_555
H4 C3 1_555 1_555
H5 C3 1_555 1_555
H6 C5 1_555 1_555
H7 C6 1_555 1_555
H8 C6 1_555 1_555
H9 C7 1_555 1_555
H10 C7 1_555 1_555
H11 C9 1_555 1_555
H12 C12 1_555 1_555
H13 C12 1_555 1_555
H14 C12 1_555 1_555
H15 C13 1_555 1_555
H16 C13 1_555 1_555
H17 C14 1_555 1_555
H18 C14 1_555 1_555
H19 C14 1_555 1_555
H20 C15 1_555 1_555
H21 C15 1_555 1_555
O1 C9 1_555 1_555
O2 C10 1_555 1_555
C10 O1 1_555 1_555

#END
