
#######################################################################
#
#                 Cambridge Crystallographic Data Centre
#                                CCDC 
#
#######################################################################
#
# If this CIF has been generated from an entry in the Cambridge 
# Structural Database, then it will include bibliographic, chemical, 
# crystal, experimental, refinement or atomic coordinate data resulting 
# from the CCDC's data processing and validation procedures.
#
#######################################################################

data_CUYCII
_chemical_formula_moiety         'C25 H30'
_chemical_name_systematic        3,10-Diphenyldispiro(5.0.5.1)tridecane
_symmetry_cell_setting           monoclinic
_symmetry_space_group_name_H-M   'C 2/c'
_symmetry_Int_Tables_number      15
_space_group_name_Hall           '-C 2yn'
loop_
_symmetry_equiv_pos_site_id
_symmetry_equiv_pos_as_xyz
1 x,y,z
2 1/2+x,1/2+y,z
3 -x,y,1/2-z
4 1/2-x,1/2+y,1/2-z
5 -x,-y,-z
6 1/2-x,1/2-y,-z
7 x,-y,1/2+z
8 1/2+x,1/2-y,1/2+z
_cell_length_a                   33.402(4)
_cell_length_b                   7.164(1)
_cell_length_c                   18.601(2)
_cell_angle_alpha                90
_cell_angle_beta                 115.71(1)
_cell_angle_gamma                90
_cell_volume                     4010.42
_cell_formula_units_Z            8
loop_
_atom_site_label
_atom_site_type_symbol
_atom_site_fract_x
_atom_site_fract_y
_atom_site_fract_z
C1 C 0.79141(7) 0.62591(32) -0.06806(13)
C2 C 0.80382(8) 0.69661(35) -0.13352(14)
C3 C 0.76237(8) 0.76534(37) -0.12914(16)
C11 C 0.77248(8) 0.43098(34) -0.07226(15)
C12 C 0.80841(7) 0.29086(31) -0.02129(13)
C13 C 0.83296(7) 0.35328(31) 0.06506(13)
C14 C 0.85221(8) 0.54940(30) 0.06897(13)
C15 C 0.81629(8) 0.68971(33) 0.01803(14)
C21 C 0.84205(9) 0.83232(37) -0.11396(18)
C22 C 0.88546(9) 0.72967(36) -0.09593(18)
C23 C 0.88147(8) 0.59753(38) -0.16380(15)
C24 C 0.84200(8) 0.46629(40) -0.18572(15)
C25 C 0.79863(8) 0.57199(43) -0.20314(15)
C131 C 0.86810(8) 0.21129(30) 0.11419(13)
C132 C 0.90824(9) 0.19735(38) 0.10853(17)
C133 C 0.93988(10) 0.06643(42) 0.15415(21)
C134 C 0.93213(11) -0.05187(42) 0.20427(20)
C135 C 0.89249(11) -0.04082(38) 0.20982(17)
C136 C 0.86030(9) 0.09038(34) 0.16465(14)
C231 C 0.92512(9) 0.49771(38) -0.14180(14)
C232 C 0.95355(9) 0.55224(50) -0.17364(18)
C233 C 0.99416(11) 0.47180(65) -0.15270(23)
C234 C 1.00734(11) 0.33015(65) -0.09808(25)
C235 C 0.98040(12) 0.27040(57) -0.06479(23)
C236 C 0.93869(11) 0.35331(48) -0.08714(20)
H31 H 0.7607(1) 0.9076(4) -0.1114(2)
H32 H 0.7302(1) 0.7232(4) -0.1741(2)
H111 H 0.7471(1) 0.4363(3) -0.0510(1)
H112 H 0.7579(1) 0.3845(3) -0.1336(1)
H121 H 0.8321(1) 0.2759(3) -0.0461(1)
H122 H 0.7928(1) 0.1578(3) -0.0229(1)
H13 H 0.8098(1) 0.3610(3) 0.0912(1)
H141 H 0.8669(1) 0.5962(3) 0.1302(1)
H142 H 0.8774(1) 0.5433(3) 0.0474(1)
H151 H 0.8319(1) 0.8223(3) 0.0190(1)
H152 H 0.7928(1) 0.7060(3) 0.0433(1)
H211 H 0.8345(1) 0.9240(4) -0.1643(2)
H212 H 0.8460(1) 0.9138(4) -0.0624(2)
H221 H 0.9110(1) 0.8314(4) -0.0871(2)
H222 H 0.8946(1) 0.6490(4) -0.0420(2)
H23 H 0.8746(1) 0.6771(4) -0.2171(1)
H241 H 0.8377(1) 0.3880(4) -0.2382(1)
H242 H 0.8488(1) 0.3713(4) -0.1367(1)
H251 H 0.7725(1) 0.4721(4) -0.2136(1)
H252 H 0.7900(1) 0.6571(4) -0.2557(1)
H132 H 0.9148(1) 0.2884(4) 0.0686(2)
H133 H 0.9710(1) 0.0583(4) 0.1498(2)
H134 H 0.9569(1) -0.1531(4) 0.2392(2)
H135 H 0.8861(1) -0.1340(4) 0.2493(2)
H136 H 0.8292(1) 0.0971(3) 0.1693(1)
H232 H 0.9433(1) 0.6636(5) -0.2171(2)
H233 H 1.0155(1) 0.5194(6) -0.1789(2)
H234 H 1.0393(1) 0.2650(6) -0.0812(2)
H235 H 0.9912(1) 0.1593(6) -0.0212(2)
H236 H 0.9171(1) 0.3042(5) -0.0616(2)
loop_
_geom_bond_atom_site_label_1
_geom_bond_atom_site_label_2
_geom_bond_site_symmetry_1
_geom_bond_site_symmetry_2
C1 C2 1_555 1_555
C2 C3 1_555 1_555
C3 C1 1_555 1_555
C11 C1 1_555 1_555
C12 C11 1_555 1_555
C13 C12 1_555 1_555
C14 C13 1_555 1_555
C15 C1 1_555 1_555
C21 C2 1_555 1_555
C22 C21 1_555 1_555
C23 C22 1_555 1_555
C24 C23 1_555 1_555
C25 C2 1_555 1_555
C131 C13 1_555 1_555
C132 C131 1_555 1_555
C133 C132 1_555 1_555
C134 C133 1_555 1_555
C135 C134 1_555 1_555
C136 C131 1_555 1_555
C231 C23 1_555 1_555
C232 C231 1_555 1_555
C233 C232 1_555 1_555
C234 C233 1_555 1_555
C235 C234 1_555 1_555
C236 C231 1_555 1_555
H31 C3 1_555 1_555
H32 C3 1_555 1_555
H111 C11 1_555 1_555
H112 C11 1_555 1_555
H121 C12 1_555 1_555
H122 C12 1_555 1_555
H13 C13 1_555 1_555
H141 C14 1_555 1_555
H142 C14 1_555 1_555
H151 C15 1_555 1_555
H152 C15 1_555 1_555
H211 C21 1_555 1_555
H212 C21 1_555 1_555
H221 C22 1_555 1_555
H222 C22 1_555 1_555
H23 C23 1_555 1_555
H241 C24 1_555 1_555
H242 C24 1_555 1_555
H251 C25 1_555 1_555
H252 C25 1_555 1_555
H132 C132 1_555 1_555
H133 C133 1_555 1_555
H134 C134 1_555 1_555
H135 C135 1_555 1_555
H136 C136 1_555 1_555
H232 C232 1_555 1_555
H233 C233 1_555 1_555
H234 C234 1_555 1_555
H235 C235 1_555 1_555
H236 C236 1_555 1_555
C14 C15 1_555 1_555
C24 C25 1_555 1_555
C135 C136 1_555 1_555
C235 C236 1_555 1_555

#END
