
#######################################################################
#
#                 Cambridge Crystallographic Data Centre
#                                CCDC 
#
#######################################################################
#
# If this CIF has been generated from an entry in the Cambridge 
# Structural Database, then it will include bibliographic, chemical, 
# crystal, experimental, refinement or atomic coordinate data resulting 
# from the CCDC's data processing and validation procedures.
#
#######################################################################

data_CUYGAF
_chemical_formula_moiety         'C23 H23 N1 O2 S2'
_chemical_name_systematic        
3,22-Dioxa-11,14-dithia-28-azatetracyclo-[22.3.1.0^4,9^.0^16,21^]octacosa-1(28),4,6,8,16,18,20,24,26-nonaene
_symmetry_cell_setting           monoclinic
_symmetry_space_group_name_H-M   'P 21'
_symmetry_Int_Tables_number      4
_space_group_name_Hall           'P 2yb'
loop_
_symmetry_equiv_pos_site_id
_symmetry_equiv_pos_as_xyz
1 x,y,z
2 -x,1/2+y,-z
_cell_length_a                   11.7460(8)
_cell_length_b                   7.1253(5)
_cell_length_c                   12.3756(9)
_cell_angle_alpha                90
_cell_angle_beta                 96.5840(10)
_cell_angle_gamma                90
_cell_volume                     1028.93
_exptl_crystal_colour            colorless
_exptl_crystal_description       block
_chemical_melting_point          125-128deg.C
_cell_formula_units_Z            2
loop_
_atom_site_label
_atom_site_type_symbol
_atom_site_fract_x
_atom_site_fract_y
_atom_site_fract_z
S1 S 0.25512(6) 0.84582(11) 0.46139(6)
S2 S 0.49938(7) 0.82506(12) 0.76189(6)
O1 O 0.14889(17) 0.4072(3) 0.49841(14)
O2 O 0.45177(15) 0.3686(3) 0.81893(14)
N1 N 0.22651(18) 0.2565(3) 0.71556(17)
C1 C 0.0893(2) 0.2666(4) 0.5533(2)
H1 H 0.1138 0.1394 0.5335
H2 H 0.0055 0.2777 0.5333
C2 C 0.1239(2) 0.4252(4) 0.3881(2)
C3 C 0.0292(2) 0.3482(5) 0.3275(2)
H3 H -0.0228 0.2722 0.3615
C4 C 0.0106(2) 0.3829(4) 0.2162(2)
H4 H -0.0551 0.3322 0.1744
C5 C 0.0868(3) 0.4904(4) 0.1665(2)
H5 H 0.0737 0.5133 0.0905
C6 C 0.1829(2) 0.5655(4) 0.2270(2)
H6 H 0.2358 0.6378 0.1919
C7 C 0.2023(2) 0.5355(4) 0.3389(2)
C8 C 0.3025(2) 0.6264(4) 0.4059(2)
H7 H 0.3645 0.6512 0.3599
H8 H 0.3327 0.5416 0.4658
C9 C 0.3788(3) 0.8956(6) 0.5598(3)
H9 H 0.4493 0.8501 0.5315
H10 H 0.3860 1.0328 0.5711
C10 C 0.3657(4) 0.8001(6) 0.6670(4)
H11 H 0.3485 0.6654 0.6543
H12 H 0.3009 0.8571 0.6998
C11 C 0.5811(2) 0.6259(4) 0.7204(2)
H13 H 0.5308 0.5437 0.6712
H14 H 0.6442 0.6708 0.6805
C12 C 0.6295(2) 0.5170(4) 0.8190(2)
C13 C 0.7408(2) 0.5477(4) 0.8675(2)
H15 H 0.7887 0.6332 0.8348
C14 C 0.7835(2) 0.4563(4) 0.9626(2)
H16 H 0.8588 0.4823 0.9956
C15 C 0.7162(2) 0.3274(5) 1.0088(2)
H17 H 0.7456 0.2640 1.0736
C16 C 0.6051(2) 0.2897(4) 0.9613(2)
H18 H 0.5596 0.1983 0.9922
C17 C 0.5617(2) 0.3871(4) 0.8683(2)
C18 C 0.3755(2) 0.2484(4) 0.8694(2)
H19 H 0.3840 0.2696 0.9490
H20 H 0.3931 0.1152 0.8557
C19 C 0.2555(2) 0.2940(3) 0.8213(2)
C20 C 0.1792(2) 0.3716(4) 0.8871(2)
H21 H 0.2027 0.3955 0.9619
C21 C 0.0695(2) 0.4133(4) 0.8426(2)
H22 H 0.0158 0.4649 0.8861
C22 C 0.0390(2) 0.3787(4) 0.7333(2)
H23 H -0.0360 0.4072 0.7000
C23 C 0.1198(2) 0.3015(4) 0.6731(2)
C24? C 0.4351(10) 0.8972(19) 0.6275(11)
C25? C 0.3163(11) 0.807(2) 0.6129(12)
H24? H 0.4291 1.0356 0.6230
H25? H 0.4816 0.8526 0.5708
H26? H 0.2660 0.8671 0.6618
H27? H 0.3217 0.6716 0.6298
loop_
_geom_bond_atom_site_label_1
_geom_bond_atom_site_label_2
_geom_bond_site_symmetry_1
_geom_bond_site_symmetry_2
S1 C8 1_555 1_555
S2 C10 1_555 1_555
O1 C1 1_555 1_555
O2 C17 1_555 1_555
N1 C19 1_555 1_555
C1 H1 1_555 1_555
H2 C1 1_555 1_555
C2 O1 1_555 1_555
C3 C2 1_555 1_555
H3 C3 1_555 1_555
C4 C3 1_555 1_555
H4 C4 1_555 1_555
C5 C4 1_555 1_555
H5 C5 1_555 1_555
C6 C5 1_555 1_555
H6 C6 1_555 1_555
C7 C2 1_555 1_555
C8 C7 1_555 1_555
H7 C8 1_555 1_555
H8 C8 1_555 1_555
C9 S1 1_555 1_555
H9 C9 1_555 1_555
H10 C9 1_555 1_555
C10 C9 1_555 1_555
H11 C10 1_555 1_555
H12 C10 1_555 1_555
C11 S2 1_555 1_555
H13 C11 1_555 1_555
H14 C11 1_555 1_555
C12 C11 1_555 1_555
C13 C12 1_555 1_555
H15 C13 1_555 1_555
C14 C13 1_555 1_555
H16 C14 1_555 1_555
C15 C14 1_555 1_555
H17 C15 1_555 1_555
C16 C15 1_555 1_555
H18 C16 1_555 1_555
C17 C12 1_555 1_555
C18 O2 1_555 1_555
H19 C18 1_555 1_555
H20 C18 1_555 1_555
C19 C18 1_555 1_555
C20 C19 1_555 1_555
H21 C20 1_555 1_555
C21 C20 1_555 1_555
H22 C21 1_555 1_555
C22 C21 1_555 1_555
H23 C22 1_555 1_555
C23 N1 1_555 1_555
C1 C23 1_555 1_555
C6 C7 1_555 1_555
C16 C17 1_555 1_555
C22 C23 1_555 1_555

#END
