
#######################################################################
#
#                 Cambridge Crystallographic Data Centre
#                                CCDC 
#
#######################################################################
#
# If this CIF has been generated from an entry in the Cambridge 
# Structural Database, then it will include bibliographic, chemical, 
# crystal, experimental, refinement or atomic coordinate data resulting 
# from the CCDC's data processing and validation procedures.
#
#######################################################################

data_CUZTIA
_chemical_formula_moiety         'C28 H38 Ba1 N2 O8 S2,0.37(H2 O1)'
_chemical_name_systematic        
'Di-isothiocyanato-(1,2-bis(phenyloxy)-3,6,9,12,15,18-hexaoxa-icosane)-barium hydrate'
_symmetry_cell_setting           monoclinic
_symmetry_space_group_name_H-M   'P 21/c'
_symmetry_Int_Tables_number      14
_space_group_name_Hall           '-P 2ybc'
loop_
_symmetry_equiv_pos_site_id
_symmetry_equiv_pos_as_xyz
1 x,y,z
2 -x,1/2+y,1/2-z
3 -x,-y,-z
4 x,1/2-y,1/2+z
_cell_length_a                   13.693(4)
_cell_length_b                   13.375(4)
_cell_length_c                   19.181(7)
_cell_angle_alpha                90
_cell_angle_beta                 107.1(4)
_cell_angle_gamma                90
_cell_volume                     3357.59
_cell_formula_units_Z            4
loop_
_atom_site_label
_atom_site_type_symbol
_atom_site_fract_x
_atom_site_fract_y
_atom_site_fract_z
O1 O 0.1062(8) 0.3493(9) 0.5433(6)
C1 C 0.0891(12) 0.4202(14) 0.5989(9)
C2 C 0.1541(14) 0.5095(12) 0.6015(9)
O2 O 0.2592(8) 0.4793(7) 0.6294(5)
C3 C 0.3199(13) 0.5655(12) 0.6293(9)
C4 C 0.4307(14) 0.5351(12) 0.6585(9)
O3 O 0.4506(8) 0.4614(7) 0.6092(6)
C5 C 0.5581(12) 0.4393(12) 0.6223(10)
C6 C 0.5632(12) 0.3797(12) 0.5553(9)
O4 O 0.5087(7) 0.2869(8) 0.5552(6)
C7 C 0.5050(14) 0.2331(14) 0.4878(10)
C8 C 0.4645(14) 0.1319(13) 0.4970(10)
O5 O 0.3598(9) 0.1415(7) 0.4954(6)
C9 C 0.3134(14) 0.0436(12) 0.4971(9)
C10 C 0.2030(14) 0.0603(13) 0.4967(10)
O6 O 0.2123(9) 0.1127(8) 0.5655(7)
C11 C 0.1413(15) 0.0857(12) 0.6008(11)
C12 C 0.1859(14) 0.1044(13) 0.6795(11)
O7 O 0.2087(8) 0.2087(8) 0.6948(6)
C13 C 0.2477(14) 0.2257(15) 0.7718(10)
C14 C 0.2769(13) 0.3320(14) 0.7912(9)
O8 O 0.1815(9) 0.3859(10) 0.7835(6)
C15 C 0.1928(16) 0.4869(14) 0.7959(9)
C16 C 0.1034(15) 0.5363(16) 0.7935(11)
C17 C 0.1053(18) 0.6387(19) 0.8066(13)
C18 C 0.1940(24) 0.6909(17) 0.8206(13)
C19 C 0.2806(17) 0.6431(18) 0.8206(10)
C20 C 0.2839(14) 0.5369(17) 0.8088(9)
C21 C 0.0262(13) 0.3019(12) 0.4987(11)
C22 C 0.0375(14) 0.2751(14) 0.4298(11)
C23 C -0.0391(20) 0.2242(15) 0.3802(12)
C24 C -0.1298(21) 0.2000(16) 0.3958(18)
C25 C -0.1397(18) 0.2258(17) 0.4626(9)
C26 C -0.0627(15) 0.2763(13) 0.5158(11)
N1 N 0.2812(11) 0.3882(12) 0.4539(7)
C27 C 0.2813(12) 0.4468(13) 0.4157(9)
S1 S 0.1593(4) 0.5268(4) 0.3585(3)
N2 N 0.4653(14) 0.2624(14) 0.7232(11)
C28 C 0.5199(14) 0.3092(17) 0.7744(11)
S2 S 0.5911(5) 0.3661(5) 0.8393(3)
Ba1 Ba 0.3199(1) 0.2926(1) 0.5871(1)
O9 O 0.4423(22) 0.1053(22) 0.6556(15)
loop_
_geom_bond_atom_site_label_1
_geom_bond_atom_site_label_2
_geom_bond_site_symmetry_1
_geom_bond_site_symmetry_2
O1 C1 1_555 1_555
C1 C2 1_555 1_555
C2 O2 1_555 1_555
O2 C3 1_555 1_555
C3 C4 1_555 1_555
C4 O3 1_555 1_555
O3 C5 1_555 1_555
C5 C6 1_555 1_555
C6 O4 1_555 1_555
O4 C7 1_555 1_555
C7 C8 1_555 1_555
C8 O5 1_555 1_555
O5 C9 1_555 1_555
C9 C10 1_555 1_555
C10 O6 1_555 1_555
O6 C11 1_555 1_555
C11 C12 1_555 1_555
C12 O7 1_555 1_555
O7 C13 1_555 1_555
C13 C14 1_555 1_555
C14 O8 1_555 1_555
O8 C15 1_555 1_555
C15 C16 1_555 1_555
C16 C17 1_555 1_555
C17 C18 1_555 1_555
C18 C19 1_555 1_555
C19 C20 1_555 1_555
C20 C15 1_555 1_555
C21 O1 1_555 1_555
C22 C21 1_555 1_555
C23 C22 1_555 1_555
C24 C23 1_555 1_555
C25 C24 1_555 1_555
C26 C21 1_555 1_555
N1 C27 1_555 1_555
C27 S1 1_555 1_555
N2 C28 1_555 1_555
C28 S2 1_555 1_555
Ba1 O1 1_555 1_555
O2 Ba1 1_555 1_555
O3 Ba1 1_555 1_555
O4 Ba1 1_555 1_555
O5 Ba1 1_555 1_555
O6 Ba1 1_555 1_555
C25 C26 1_555 1_555
N1 Ba1 1_555 1_555
N2 Ba1 1_555 1_555

#END
