
#######################################################################
#
#                 Cambridge Crystallographic Data Centre
#                                CCDC 
#
#######################################################################
#
# If this CIF has been generated from an entry in the Cambridge 
# Structural Database, then it will include bibliographic, chemical, 
# crystal, experimental, refinement or atomic coordinate data resulting 
# from the CCDC's data processing and validation procedures.
#
#######################################################################

data_CUZWUP
_chemical_formula_moiety         'C18 H26 O2'
_chemical_name_systematic        
3,8a\b-Diethyl-2,4a\b,6,7-tetramethyl-4a\b,5,8,8a\b-tetrahydro-1,4-naphthoquinone
_symmetry_cell_setting           monoclinic
_symmetry_space_group_name_H-M   'P 21/n'
_symmetry_Int_Tables_number      14
_space_group_name_Hall           '-P 2yn'
loop_
_symmetry_equiv_pos_site_id
_symmetry_equiv_pos_as_xyz
1 x,y,z
2 1/2-x,1/2+y,1/2-z
3 -x,-y,-z
4 1/2+x,1/2-y,1/2+z
_cell_length_a                   21.557(3)
_cell_length_b                   7.9317(4)
_cell_length_c                   9.525(1)
_cell_angle_alpha                90
_cell_angle_beta                 95.790(7)
_cell_angle_gamma                90
_cell_volume                     1620.31
_exptl_crystal_colour            colorless
_cell_formula_units_Z            4
loop_
_atom_site_label
_atom_site_type_symbol
_atom_site_fract_x
_atom_site_fract_y
_atom_site_fract_z
O1 O 0.6912(1) 0.3722(3) 0.1892(3)
O2 O 0.5824(1) -0.2214(3) 0.1727(3)
C1 C 0.6619(2) 0.2419(4) 0.1680(3)
C2 C 0.6914(2) 0.0951(4) 0.1037(4)
C3 C 0.7503(2) 0.1318(7) 0.0382(6)
C4 C 0.6668(2) -0.0608(4) 0.1106(4)
C5 C 0.6931(2) -0.2148(5) 0.0457(4)
C6 C 0.6656(3) -0.2410(8) -0.1058(5)
C7 C 0.6097(2) -0.0867(4) 0.1840(4)
C8 C 0.5869(2) 0.0544(4) 0.2738(4)
C9 C 0.5196(2) 0.0208(7) 0.3046(6)
C10 C 0.6296(2) 0.0564(5) 0.4137(4)
C11 C 0.6250(2) 0.2147(5) 0.5003(4)
C12 C 0.6517(3) 0.1948(9) 0.6529(5)
C13 C 0.6000(2) 0.3552(5) 0.4458(4)
C14 C 0.5915(3) 0.5140(8) 0.5291(7)
C15 C 0.5761(2) 0.3694(5) 0.2923(4)
C16 C 0.5942(2) 0.2253(4) 0.1985(3)
C17 C 0.5540(2) 0.2306(5) 0.0541(4)
C18 C 0.5678(2) 0.3776(6) -0.0406(4)
H1 H 0.759(3) 0.049(9) -0.022(7)
H2 H 0.744(3) 0.233(9) -0.019(7)
H3 H 0.787(3) 0.158(8) 0.106(7)
H4 H 0.739(2) -0.200(5) 0.053(4)
H5 H 0.683(2) -0.313(5) 0.105(4)
H6 H 0.681(2) -0.345(6) -0.147(5)
H7 H 0.619(3) -0.239(7) -0.113(6)
H8 H 0.678(2) -0.150(6) -0.166(5)
H9 H 0.503(2) 0.108(6) 0.376(4)
H10 H 0.488(2) 0.023(5) 0.215(5)
H11 H 0.516(2) -0.087(6) 0.344(5)
H12 H 0.619(2) -0.038(5) 0.468(4)
H13 H 0.673(2) 0.045(4) 0.397(3)
H14 H 0.694(3) 0.158(8) 0.663(6)
H15 H 0.659(3) 0.306(8) 0.704(7)
H16 H 0.629(2) 0.116(7) 0.710(6)
H17 H 0.613(3) 0.520(8) 0.612(8)
H18 H 0.607(3) 0.611(10) 0.487(8)
H19 H 0.549(3) 0.526(7) 0.545(6)
H20 H 0.592(2) 0.476(5) 0.254(4)
H21 H 0.529(2) 0.375(4) 0.285(3)
H22 H 0.511(2) 0.242(4) 0.072(3)
H23 H 0.560(2) 0.128(5) 0.004(4)
H24 H 0.611(2) 0.371(5) -0.071(4)
H25 H 0.536(2) 0.378(5) -0.134(5)
H26 H 0.566(2) 0.493(5) 0.014(4)
loop_
_geom_bond_atom_site_label_1
_geom_bond_atom_site_label_2
_geom_bond_site_symmetry_1
_geom_bond_site_symmetry_2
O1 C1 1_555 1_555
O2 C7 1_555 1_555
C1 C2 1_555 1_555
C2 C3 1_555 1_555
C3 H1 1_555 1_555
C4 C2 1_555 1_555
C5 C4 1_555 1_555
C6 C5 1_555 1_555
C7 C4 1_555 1_555
C8 C7 1_555 1_555
C9 C8 1_555 1_555
C10 C8 1_555 1_555
C11 C10 1_555 1_555
C12 C11 1_555 1_555
C13 C11 1_555 1_555
C14 C13 1_555 1_555
C15 C13 1_555 1_555
C16 C1 1_555 1_555
C17 C16 1_555 1_555
C18 C17 1_555 1_555
H2 C3 1_555 1_555
H3 C3 1_555 1_555
H4 C5 1_555 1_555
H5 C5 1_555 1_555
H6 C6 1_555 1_555
H7 C6 1_555 1_555
H8 C6 1_555 1_555
H9 C9 1_555 1_555
H10 C9 1_555 1_555
H11 C9 1_555 1_555
H12 C10 1_555 1_555
H13 C10 1_555 1_555
H14 C12 1_555 1_555
H15 C12 1_555 1_555
H16 C12 1_555 1_555
H17 C14 1_555 1_555
H18 C14 1_555 1_555
H19 C14 1_555 1_555
H20 C15 1_555 1_555
H21 C15 1_555 1_555
H22 C17 1_555 1_555
H23 C17 1_555 1_555
H24 C18 1_555 1_555
H25 C18 1_555 1_555
H26 C18 1_555 1_555
C8 C16 1_555 1_555
C15 C16 1_555 1_555

#END
