
#######################################################################
#
#                 Cambridge Crystallographic Data Centre
#                                CCDC 
#
#######################################################################
#
# If this CIF has been generated from an entry in the Cambridge 
# Structural Database, then it will include bibliographic, chemical, 
# crystal, experimental, refinement or atomic coordinate data resulting 
# from the CCDC's data processing and validation procedures.
#
#######################################################################

data_DABZUD
_chemical_formula_moiety         'C22 H17 F3 N2 O2'
_chemical_name_systematic        
6-Anilino-7-(2,2,2-trifluoroethoxy)-6,7-dihydro-5H-dibenzo[c,e]azepin-5-one
_symmetry_cell_setting           monoclinic
_symmetry_space_group_name_H-M   'C 2/c'
_symmetry_Int_Tables_number      15
_space_group_name_Hall           '-C 2yn'
loop_
_symmetry_equiv_pos_site_id
_symmetry_equiv_pos_as_xyz
1 x,y,z
2 -x,y,1/2-z
3 1/2+x,1/2+y,z
4 1/2-x,1/2+y,1/2-z
5 -x,-y,-z
6 x,-y,1/2+z
7 1/2-x,1/2-y,-z
8 1/2+x,1/2-y,1/2+z
_cell_length_a                   18.8136(7)
_cell_length_b                   12.6205(4)
_cell_length_c                   16.4241(7)
_cell_angle_alpha                90
_cell_angle_beta                 92.335(2)
_cell_angle_gamma                90
_cell_volume                     3896.45
_exptl_crystal_colour            colorless
_exptl_crystal_description       plate
_cell_formula_units_Z            8
loop_
_atom_site_label
_atom_site_type_symbol
_atom_site_fract_x
_atom_site_fract_y
_atom_site_fract_z
C1 C 0.22335(9) 0.10718(13) 0.06861(10)
C2 C 0.28924(9) 0.07143(16) 0.04349(11)
H1 H 0.3315 0.0933 0.0724
C3 C 0.29385(10) 0.00447(17) -0.02310(12)
H2 H 0.3391 -0.0195 -0.0390
C4 C 0.23320(10) -0.02748(15) -0.06637(11)
H3 H 0.2366 -0.0731 -0.1121
C5 C 0.16744(9) 0.00741(13) -0.04275(10)
H4 H 0.1256 -0.0142 -0.0725
C6 C 0.16227(8) 0.07409(12) 0.02440(10)
C7 C 0.21978(8) 0.17885(13) 0.13996(10)
C8 C 0.16927(8) 0.16817(12) 0.20029(10)
C9 C 0.17126(9) 0.23735(14) 0.26666(10)
H5 H 0.1381 0.2285 0.3083
C10 C 0.22039(10) 0.31840(15) 0.27302(11)
H6 H 0.2202 0.3659 0.3179
C11 C 0.26985(10) 0.32995(15) 0.21361(11)
H7 H 0.3040 0.3854 0.2175
C12 C 0.26948(9) 0.26042(14) 0.14846(11)
H8 H 0.3041 0.2685 0.1084
C13 C 0.08940(8) 0.10434(13) 0.05073(9)
H9 H 0.0535 0.0745 0.0105
C14 C 0.11223(8) 0.08560(12) 0.20201(10)
C15 C 0.01034(19) 0.2435(3) 0.0657(2)
H10 H -0.0076 0.2003 0.1108
H11 H -0.0205 0.2309 0.0163
C16 C 0.01023(14) 0.3594(2) 0.08803(17)
F1 F 0.0465(3) 0.3784(5) 0.1575(3)
F2 F 0.03872(9) 0.42011(11) 0.03167(10)
F3 F -0.0565(2) 0.3936(4) 0.0971(2)
C17 C 0.03496(9) -0.12123(13) 0.13690(9)
C18 C 0.10205(9) -0.16127(14) 0.12428(11)
H12 H 0.1404 -0.1147 0.1142
C19 C 0.11295(11) -0.27034(15) 0.12645(12)
H13 H 0.1592 -0.2979 0.1186
C20 C 0.05759(12) -0.33887(15) 0.13983(13)
H14 H 0.0655 -0.4132 0.1412
C21 C -0.00965(11) -0.29851(15) 0.15120(12)
H15 H -0.0480 -0.3455 0.1599
C22 C -0.02149(10) -0.19038(14) 0.14994(10)
H16 H -0.0678 -0.1632 0.1579
N1 N 0.07635(7) 0.05887(10) 0.13123(8)
N2 N 0.01865(7) -0.01165(11) 0.13302(8)
H17 H -0.0131(11) 0.0099(15) 0.1675(13)
O1 O 0.09544(6) 0.04736(9) 0.26722(7)
O2 O 0.08230(6) 0.21586(9) 0.05073(7)
C23? C 0.0142(5) 0.2637(9) 0.0495(6)
C24? C 0.0074(4) 0.3218(5) 0.1294(4)
F4? F 0.0038(2) 0.2573(3) 0.1929(2)
F5? F 0.0595(8) 0.3873(12) 0.1482(9)
F6? F -0.0535(6) 0.3764(11) 0.1235(7)
H18? H -0.0233 0.2090 0.0431
H19? H 0.0090 0.3139 0.0033
loop_
_geom_bond_atom_site_label_1
_geom_bond_atom_site_label_2
_geom_bond_site_symmetry_1
_geom_bond_site_symmetry_2
C1 C2 1_555 1_555
C2 H1 1_555 1_555
C3 C2 1_555 1_555
H2 C3 1_555 1_555
C4 C3 1_555 1_555
H3 C4 1_555 1_555
C5 C4 1_555 1_555
H4 C5 1_555 1_555
C6 C1 1_555 1_555
C7 C1 1_555 1_555
C8 C7 1_555 1_555
C9 C8 1_555 1_555
H5 C9 1_555 1_555
C10 C9 1_555 1_555
H6 C10 1_555 1_555
C11 C10 1_555 1_555
H7 C11 1_555 1_555
C12 C7 1_555 1_555
H8 C12 1_555 1_555
C13 C6 1_555 1_555
H9 C13 1_555 1_555
C14 C8 1_555 1_555
C15 H10 1_555 1_555
H11 C15 1_555 1_555
C16 C15 1_555 1_555
F1 C16 1_555 1_555
F2 C16 1_555 1_555
F3 C16 1_555 1_555
C17 C18 1_555 1_555
C18 H12 1_555 1_555
C19 C18 1_555 1_555
H13 C19 1_555 1_555
C20 C19 1_555 1_555
H14 C20 1_555 1_555
C21 C20 1_555 1_555
H15 C21 1_555 1_555
C22 C17 1_555 1_555
H16 C22 1_555 1_555
N1 C13 1_555 1_555
N2 C17 1_555 1_555
H17 N2 1_555 1_555
O1 C14 1_555 1_555
O2 C13 1_555 1_555
C5 C6 1_555 1_555
C11 C12 1_555 1_555
C14 N1 1_555 1_555
C15 O2 1_555 1_555
C21 C22 1_555 1_555
N1 N2 1_555 1_555

#END
