
#######################################################################
#
#                 Cambridge Crystallographic Data Centre
#                                CCDC 
#
#######################################################################
#
# If this CIF has been generated from an entry in the Cambridge 
# Structural Database, then it will include bibliographic, chemical, 
# crystal, experimental, refinement or atomic coordinate data resulting 
# from the CCDC's data processing and validation procedures.
#
#######################################################################

data_DACNEC
_chemical_formula_moiety         'C20 H16 Br1 N3 O2'
_chemical_name_systematic        
N-(3-(4-Bromophenyl)-3-oxoprop-1-en-1-yl)-1-methyl-N-phenyl-1H-imidazole-2-carboxamide
_symmetry_cell_setting           triclinic
_symmetry_space_group_name_H-M   'P -1'
_symmetry_Int_Tables_number      2
_space_group_name_Hall           '-P 1'
loop_
_symmetry_equiv_pos_site_id
_symmetry_equiv_pos_as_xyz
1 x,y,z
2 -x,-y,-z
_cell_length_a                   6.8059(3)
_cell_length_b                   9.9129(4)
_cell_length_c                   14.4127(7)
_cell_angle_alpha                74.536(4)
_cell_angle_beta                 85.385(4)
_cell_angle_gamma                72.419(4)
_cell_volume                     893.394
_exptl_crystal_colour            yellow
_exptl_crystal_description       block
_cell_formula_units_Z            2
loop_
_atom_site_label
_atom_site_type_symbol
_atom_site_fract_x
_atom_site_fract_y
_atom_site_fract_z
Br1 Br 0.81017(5) 0.79288(4) 0.58030(2)
O1 O 0.1813(3) 0.6514(2) 0.29639(11)
O2 O 0.2338(3) 0.44124(19) 0.03430(11)
N1 N 0.5026(3) 0.3542(2) 0.13826(12)
N2 N 0.7044(3) 0.1793(2) 0.00079(13)
N3 N 0.4006(3) 0.2203(2) -0.06496(13)
C1 C 0.6910(4) 0.6054(3) 0.37634(15)
H1 H 0.7690 0.5524 0.3348
C2 C 0.7883(4) 0.6514(3) 0.43693(16)
H2 H 0.9312 0.6293 0.4363
C3 C 0.6738(4) 0.7297(3) 0.49831(16)
C4 C 0.4635(4) 0.7635(3) 0.49947(16)
H3 H 0.3864 0.8174 0.5408
C5 C 0.3674(4) 0.7171(3) 0.43901(16)
H4 H 0.2244 0.7398 0.4401
C6 C 0.4778(3) 0.6374(2) 0.37649(15)
C7 C 0.3676(4) 0.5924(3) 0.30968(15)
C8 C 0.4834(3) 0.4786(3) 0.26333(15)
H5 H 0.6112 0.4178 0.2879
C9 C 0.4098(3) 0.4601(2) 0.18669(15)
H6 H 0.2832 0.5248 0.1632
C10 C 0.6893(3) 0.2449(3) 0.17932(14)
C11 C 0.6776(4) 0.1164(3) 0.24081(16)
H7 H 0.5503 0.0991 0.2551
C12 C 0.8547(4) 0.0121(3) 0.28188(17)
H8 H 0.8475 -0.0768 0.3223
C13 C 1.0417(4) 0.0403(3) 0.26270(16)
H9 H 1.1613 -0.0291 0.2906
C14 C 1.0518(4) 0.1703(3) 0.20268(16)
H10 H 1.1785 0.1891 0.1903
C15 C 0.8760(3) 0.2743(3) 0.16020(15)
H11 H 0.8834 0.3627 0.1193
C16 C 0.4023(4) 0.3544(3) 0.05719(15)
C17 C 0.5054(4) 0.2492(3) 0.00139(15)
C18 C 0.5426(4) 0.1279(3) -0.10722(16)
H12 H 0.5186 0.0877 -0.1551
C19 C 0.7269(4) 0.1046(3) -0.06700(17)
H13 H 0.8515 0.0453 -0.0838
C20 C 0.1794(3) 0.2707(3) -0.08750(17)
H14 H 0.1394 0.3738 -0.1179
H15 H 0.1021 0.2525 -0.0291
H16 H 0.1521 0.2189 -0.1302
loop_
_geom_bond_atom_site_label_1
_geom_bond_atom_site_label_2
_geom_bond_site_symmetry_1
_geom_bond_site_symmetry_2
Br1 C3 1_555 1_555
O1 C7 1_555 1_555
O2 C16 1_555 1_555
N1 C9 1_555 1_555
N2 C17 1_555 1_555
N3 C17 1_555 1_555
C1 H1 1_555 1_555
C2 C1 1_555 1_555
H2 C2 1_555 1_555
C3 C2 1_555 1_555
C4 C3 1_555 1_555
H3 C4 1_555 1_555
C5 C4 1_555 1_555
H4 C5 1_555 1_555
C6 C1 1_555 1_555
C7 C6 1_555 1_555
C8 C7 1_555 1_555
H5 C8 1_555 1_555
C9 C8 1_555 1_555
H6 C9 1_555 1_555
C10 N1 1_555 1_555
C11 C10 1_555 1_555
H7 C11 1_555 1_555
C12 C11 1_555 1_555
H8 C12 1_555 1_555
C13 C12 1_555 1_555
H9 C13 1_555 1_555
C14 C13 1_555 1_555
H10 C14 1_555 1_555
C15 C10 1_555 1_555
H11 C15 1_555 1_555
C16 N1 1_555 1_555
C17 C16 1_555 1_555
C18 N3 1_555 1_555
H12 C18 1_555 1_555
C19 N2 1_555 1_555
H13 C19 1_555 1_555
C20 N3 1_555 1_555
H14 C20 1_555 1_555
H15 C20 1_555 1_555
H16 C20 1_555 1_555
C5 C6 1_555 1_555
C14 C15 1_555 1_555
C18 C19 1_555 1_555

#END
