
#######################################################################
#
#                 Cambridge Crystallographic Data Centre
#                                CCDC 
#
#######################################################################
#
# If this CIF has been generated from an entry in the Cambridge 
# Structural Database, then it will include bibliographic, chemical, 
# crystal, experimental, refinement or atomic coordinate data resulting 
# from the CCDC's data processing and validation procedures.
#
#######################################################################

data_DACQUU
_chemical_formula_moiety         'C26 H17 N1 O5'
_chemical_name_systematic        
(3R,3aS,6aR)-3a,6a-dihydro-3,5-diphenyl-spiro(1H-furo(3,4-c)pyrrole-1,2'-(2H)indene)-1',3',4,6(3H,5H)-tetraone
_symmetry_cell_setting           monoclinic
_symmetry_space_group_name_H-M   'P 21/c'
_symmetry_Int_Tables_number      14
_space_group_name_Hall           '-P 2ybc'
loop_
_symmetry_equiv_pos_site_id
_symmetry_equiv_pos_as_xyz
1 x,y,z
2 x,1/2-y,1/2+z
3 -x,-y,-z
4 -x,1/2+y,1/2-z
_cell_length_a                   10.462(2)
_cell_length_b                   7.794(2)
_cell_length_c                   25.620(8)
_cell_angle_alpha                90
_cell_angle_beta                 94.87(2)
_cell_angle_gamma                90
_cell_volume                     2081.53
_chemical_melting_point          '185-187 deg.C'
_cell_formula_units_Z            4
loop_
_atom_site_label
_atom_site_type_symbol
_atom_site_fract_x
_atom_site_fract_y
_atom_site_fract_z
O1 O 0.63351(13) 0.62472(18) 0.41538(5)
O2 O 0.25889(14) 0.63000(18) 0.32709(6)
O3 O 0.56200(13) 0.2509(2) 0.28210(6)
O4 O 0.58224(17) 0.9912(2) 0.39179(7)
O5 O 0.38496(15) 0.47842(18) 0.43865(6)
N1 N 0.38846(15) 0.4138(2) 0.30037(6)
C1 C 0.5117(2) 0.6963(3) 0.39885(8)
C2 C 0.49103(19) 0.6542(3) 0.33972(7)
H1 H 0.5035 0.7574 0.3189
C3 C 0.59184(18) 0.5209(3) 0.32968(7)
H2 H 0.6565 0.5689 0.3083
C4 C 0.65267(18) 0.4719(3) 0.38507(7)
H3 H 0.6048 0.3763 0.3989
C5 C 0.3645(2) 0.5721(3) 0.32243(8)
C6 C 0.5195(2) 0.3773(3) 0.30119(8)
C7 C 0.5101(2) 0.8892(3) 0.40893(8)
C8 C 0.4025(2) 0.9258(3) 0.44036(8)
C9 C 0.3573(3) 1.0840(3) 0.45536(10)
H4 H 0.3944 1.1858 0.4452
C10 C 0.2556(3) 1.0846(4) 0.48580(11)
H5 H 0.2219 1.1888 0.4957
C11 C 0.2024(3) 0.9345(5) 0.50194(10)
H6 H 0.1354 0.9392 0.5235
C12 C 0.2461(2) 0.7780(3) 0.48684(8)
H7 H 0.2090 0.6767 0.4974
C13 C 0.3471(2) 0.7757(3) 0.45539(8)
C14 C 0.4081(2) 0.6288(3) 0.43262(7)
C15 C 0.7928(2) 0.4275(3) 0.38782(8)
C16 C 0.8296(2) 0.2685(3) 0.37291(9)
H8 H 0.7673 0.1871 0.3629
C17 C 0.9577(3) 0.2256(4) 0.37236(11)
H9 H 0.9813 0.1175 0.3612
C18 C 1.0485(3) 0.3428(5) 0.38826(11)
H10 H 1.1349 0.3139 0.3887
C19 C 1.0147(3) 0.5012(5) 0.40353(11)
H11 H 1.0778 0.5810 0.4140
C20 C 0.8848(2) 0.5459(4) 0.40359(8)
H12 H 0.8614 0.6547 0.4142
C21 C 0.28993(18) 0.3033(3) 0.27800(8)
C22 C 0.20646(19) 0.3612(3) 0.23784(8)
H13 H 0.2145 0.4716 0.2247
C23 C 0.1102(2) 0.2542(3) 0.21696(9)
H14 H 0.0524 0.2934 0.1900
C24 C 0.0991(2) 0.0917(3) 0.23552(10)
H15 H 0.0341 0.0204 0.2211
C25 C 0.1837(2) 0.0327(3) 0.27541(10)
H16 H 0.1766 -0.0786 0.2879
C26 C 0.2794(2) 0.1396(3) 0.29696(8)
H17 H 0.3366 0.1009 0.3242
loop_
_geom_bond_atom_site_label_1
_geom_bond_atom_site_label_2
_geom_bond_site_symmetry_1
_geom_bond_site_symmetry_2
O1 C1 1_555 1_555
O2 C5 1_555 1_555
O3 C6 1_555 1_555
O4 C7 1_555 1_555
O5 C14 1_555 1_555
N1 C5 1_555 1_555
C1 C2 1_555 1_555
C2 H1 1_555 1_555
C3 C2 1_555 1_555
H2 C3 1_555 1_555
C4 O1 1_555 1_555
H3 C4 1_555 1_555
C5 C2 1_555 1_555
C6 N1 1_555 1_555
C7 C1 1_555 1_555
C8 C7 1_555 1_555
C9 C8 1_555 1_555
H4 C9 1_555 1_555
C10 C9 1_555 1_555
H5 C10 1_555 1_555
C11 C10 1_555 1_555
H6 C11 1_555 1_555
C12 C11 1_555 1_555
H7 C12 1_555 1_555
C13 C8 1_555 1_555
C14 C1 1_555 1_555
C15 C4 1_555 1_555
C16 C15 1_555 1_555
H8 C16 1_555 1_555
C17 C16 1_555 1_555
H9 C17 1_555 1_555
C18 C17 1_555 1_555
H10 C18 1_555 1_555
C19 C18 1_555 1_555
H11 C19 1_555 1_555
C20 C15 1_555 1_555
H12 C20 1_555 1_555
C21 N1 1_555 1_555
C22 C21 1_555 1_555
H13 C22 1_555 1_555
C23 C22 1_555 1_555
H14 C23 1_555 1_555
C24 C23 1_555 1_555
H15 C24 1_555 1_555
C25 C24 1_555 1_555
H16 C25 1_555 1_555
C26 C21 1_555 1_555
H17 C26 1_555 1_555
C3 C4 1_555 1_555
C3 C6 1_555 1_555
C12 C13 1_555 1_555
C13 C14 1_555 1_555
C19 C20 1_555 1_555
C25 C26 1_555 1_555

#END
