
#######################################################################
#
#                 Cambridge Crystallographic Data Centre
#                                CCDC 
#
#######################################################################
#
# If this CIF has been generated from an entry in the Cambridge 
# Structural Database, then it will include bibliographic, chemical, 
# crystal, experimental, refinement or atomic coordinate data resulting 
# from the CCDC's data processing and validation procedures.
#
#######################################################################

data_DACTAF
_chemical_name_common            
4-Ethylsulfanyl-3-fluoro-8-methyl-1,2,4b,9-tetraazafluorene
_chemical_formula_moiety         'C12 H11 F1 N4 S1'
_chemical_name_systematic        
4-(ethylsulfanyl)-3-fluoro-9-methylpyrido[1',2':1,2]imidazo[4,5-c]pyridazine
_symmetry_cell_setting           monoclinic
_symmetry_space_group_name_H-M   'P 21/c'
_symmetry_Int_Tables_number      14
_space_group_name_Hall           '-P 2ybc'
loop_
_symmetry_equiv_pos_site_id
_symmetry_equiv_pos_as_xyz
1 x,y,z
2 -x,1/2+y,1/2-z
3 -x,-y,-z
4 x,1/2-y,1/2+z
_cell_length_a                   3.9174(1)
_cell_length_b                   16.8084(2)
_cell_length_c                   17.1269(2)
_cell_angle_alpha                90
_cell_angle_beta                 92.58(1)
_cell_angle_gamma                90
_cell_volume                     1126.58
_exptl_crystal_colour            'dull greenish yellow'
_exptl_crystal_description       block
_chemical_melting_point          '160.2-161.1 deg.C'
_cell_formula_units_Z            4
loop_
_atom_site_label
_atom_site_type_symbol
_atom_site_fract_x
_atom_site_fract_y
_atom_site_fract_z
S1 S 0.48004(7) 0.926061(15) 0.118852(14)
F1 F 0.30107(19) 0.91869(4) 0.28922(4)
N1 N 0.5038(3) 0.79815(6) 0.32029(5)
N2 N 0.6493(3) 0.72822(6) 0.30414(5)
N3 N 0.9018(2) 0.65110(6) 0.20419(5)
N4 N 0.8539(2) 0.74446(5) 0.10708(5)
C1 C 0.7473(3) 0.71853(6) 0.23112(6)
C2 C 0.7108(3) 0.77768(6) 0.17175(6)
C3 C 0.5591(3) 0.85022(6) 0.18762(6)
C4 C 0.4615(3) 0.85272(6) 0.26542(6)
C5 C 0.9633(3) 0.66796(6) 0.13037(6)
C6 C 1.1249(3) 0.61888(6) 0.07495(6)
C7 C 1.1702(3) 0.64997(6) 0.00221(6)
C8 C 1.0610(3) 0.72840(7) -0.01874(6)
C9 C 0.9025(3) 0.77484(6) 0.03316(6)
C10 C 1.2374(3) 0.53733(7) 0.10037(7)
C11 C 0.6482(3) 1.01509(6) 0.16899(6)
C12 C 0.7578(3) 1.07354(7) 0.10746(7)
H1 H 1.281(4) 0.6177(9) -0.0359(8)
H2 H 1.095(4) 0.7474(9) -0.0705(8)
H3 H 0.821(3) 0.8272(9) 0.0247(8)
H4 H 1.424(5) 0.5429(11) 0.1422(11)
H5 H 1.042(4) 0.5052(10) 0.1181(9)
H6 H 1.324(6) 0.5081(12) 0.0585(13)
H7 H 0.462(4) 1.0356(9) 0.2018(8)
H8 H 0.835(4) 0.9997(9) 0.2010(9)
H9 H 0.865(5) 1.1215(10) 0.1329(10)
H10 H 0.553(6) 1.0958(11) 0.0747(12)
H11 H 0.914(4) 1.0486(11) 0.0719(10)
loop_
_geom_bond_atom_site_label_1
_geom_bond_atom_site_label_2
_geom_bond_site_symmetry_1
_geom_bond_site_symmetry_2
S1 C3 1_555 1_555
F1 C4 1_555 1_555
N1 N2 1_555 1_555
N2 C1 1_555 1_555
N3 C1 1_555 1_555
N4 C2 1_555 1_555
C1 C2 1_555 1_555
C2 C3 1_555 1_555
C3 C4 1_555 1_555
C4 N1 1_555 1_555
C5 N3 1_555 1_555
C6 C5 1_555 1_555
C7 C6 1_555 1_555
C8 C7 1_555 1_555
C9 N4 1_555 1_555
C10 C6 1_555 1_555
C11 S1 1_555 1_555
C12 C11 1_555 1_555
H1 C7 1_555 1_555
H2 C8 1_555 1_555
H3 C9 1_555 1_555
H4 C10 1_555 1_555
H5 C10 1_555 1_555
H6 C10 1_555 1_555
H7 C11 1_555 1_555
H8 C11 1_555 1_555
H9 C12 1_555 1_555
H10 C12 1_555 1_555
H11 C12 1_555 1_555
N4 C5 1_555 1_555
C8 C9 1_555 1_555

#END
