
#######################################################################
#
#                 Cambridge Crystallographic Data Centre
#                                CCDC 
#
#######################################################################
#
# If this CIF has been generated from an entry in the Cambridge 
# Structural Database, then it will include bibliographic, chemical, 
# crystal, experimental, refinement or atomic coordinate data resulting 
# from the CCDC's data processing and validation procedures.
#
#######################################################################

data_DACXEM
_chemical_formula_moiety         'C15 H12'
_chemical_name_systematic        9-Methylphenanthrene
_symmetry_cell_setting           monoclinic
_symmetry_space_group_name_H-M   'P 21/n'
_symmetry_Int_Tables_number      14
_space_group_name_Hall           '-P 2yn'
loop_
_symmetry_equiv_pos_site_id
_symmetry_equiv_pos_as_xyz
1 x,y,z
2 1/2-x,1/2+y,1/2-z
3 -x,-y,-z
4 1/2+x,1/2-y,1/2+z
_cell_length_a                   19.4783(16)
_cell_length_b                   5.5238(5)
_cell_length_c                   20.4967(16)
_cell_angle_alpha                90
_cell_angle_beta                 111.0760(10)
_cell_angle_gamma                90
_cell_volume                     2057.8
_cell_formula_units_Z            8
loop_
_atom_site_label
_atom_site_type_symbol
_atom_site_fract_x
_atom_site_fract_y
_atom_site_fract_z
C1 C 0.13260(18) 0.5397(6) 0.02829(16)
H1 H 0.1200 0.4155 -0.0053
C3 C 0.08075(18) 0.7059(7) 0.02846(17)
H3 H 0.0326 0.6952 -0.0045
C5 C 0.09964(18) 0.8897(6) 0.07738(18)
H5 H 0.0643 1.0064 0.0767
C7 C 0.16865(16) 0.9047(6) 0.12653(16)
H7 H 0.1800 1.0301 0.1598
C9 C 0.31905(17) 0.9083(6) 0.23511(16)
H9 H 0.2851 1.0261 0.2373
C11 C 0.38802(17) 0.9076(6) 0.28520(16)
H11 H 0.4010 1.0237 0.3211
C13 C 0.43864(17) 0.7356(6) 0.28290(16)
H13 H 0.4860 0.7339 0.3175
C15 C 0.41969(16) 0.5668(6) 0.23007(16)
H15 H 0.4547 0.4513 0.2289
C17 C 0.32913(17) 0.3848(5) 0.12243(15)
C19 C 0.25956(18) 0.3821(6) 0.07630(16)
H17 H 0.2463 0.2627 0.0413
C21 C 0.20478(16) 0.5520(5) 0.07788(15)
C23 C 0.22320(15) 0.7353(5) 0.12828(14)
C25 C 0.29737(15) 0.7392(5) 0.18069(14)
C27 C 0.34898(15) 0.5630(5) 0.17764(14)
C29 C 0.3852(2) 0.2087(7) 0.1167(2)
H20 H 0.4295(18) 0.293(6) 0.1116(16)
H21 H 0.4106(17) 0.117(6) 0.1620(17)
H24 H 0.3655(17) 0.105(6) 0.0770(18)
C2 C 0.86202(18) 0.9602(7) 0.10562(16)
H2 H 0.8752 1.0768 0.0788
C4 C 0.91245(18) 0.7924(7) 0.14235(17)
H4 H 0.9602 0.7943 0.1410
C6 C 0.89347(18) 0.6196(7) 0.18162(17)
H6 H 0.9283 0.5036 0.2067
C8 C 0.82473(17) 0.6167(6) 0.18424(16)
H8 H 0.8129 0.4989 0.2116
C10 C 0.67332(17) 0.6218(6) 0.18688(15)
H10 H 0.7067 0.5044 0.2133
C12 C 0.60308(17) 0.6241(6) 0.18779(16)
H12 H 0.5889 0.5099 0.2145
C14 C 0.55339(17) 0.7957(6) 0.14905(16)
H14 H 0.5053 0.7979 0.1495
C16 C 0.57398(16) 0.9628(6) 0.11000(15)
H16 H 0.5397 1.0787 0.0840
C18 C 0.66728(16) 1.1394(6) 0.06706(14)
C20 C 0.73663(18) 1.1341(6) 0.06808(15)
H18 H 0.7507 1.2500 0.0417
C22 C 0.79029(16) 0.9603(6) 0.10745(14)
C24 C 0.77115(15) 0.7847(5) 0.14715(14)
C26 C 0.69663(16) 0.7882(5) 0.14802(14)
C28 C 0.64559(15) 0.9631(5) 0.10832(14)
C30 C 0.6128(2) 1.3218(7) 0.02366(19)
H19 H 0.5694(18) 1.248(6) -0.0116(17)
H22 H 0.6370(19) 1.421(7) -0.0024(19)
H23 H 0.5889(18) 1.424(6) 0.0509(17)
loop_
_geom_bond_atom_site_label_1
_geom_bond_atom_site_label_2
_geom_bond_site_symmetry_1
_geom_bond_site_symmetry_2
C1 H1 1_555 1_555
C2 H2 1_555 1_555
C3 C1 1_555 1_555
H3 C3 1_555 1_555
C4 C2 1_555 1_555
H4 C4 1_555 1_555
C5 C3 1_555 1_555
H5 C5 1_555 1_555
C6 C4 1_555 1_555
H6 C6 1_555 1_555
C7 C5 1_555 1_555
H7 C7 1_555 1_555
C8 C6 1_555 1_555
H8 C8 1_555 1_555
C9 H9 1_555 1_555
C10 H10 1_555 1_555
C11 C9 1_555 1_555
H11 C11 1_555 1_555
C12 C10 1_555 1_555
H12 C12 1_555 1_555
C13 C11 1_555 1_555
H13 C13 1_555 1_555
C14 C12 1_555 1_555
H14 C14 1_555 1_555
C15 C13 1_555 1_555
H15 C15 1_555 1_555
C16 C14 1_555 1_555
H16 C16 1_555 1_555
C17 C19 1_555 1_555
C18 C20 1_555 1_555
C19 H17 1_555 1_555
C20 H18 1_555 1_555
C21 C1 1_555 1_555
C22 C2 1_555 1_555
C23 C7 1_555 1_555
C24 C8 1_555 1_555
C25 C9 1_555 1_555
C26 C10 1_555 1_555
C27 C15 1_555 1_555
C28 C16 1_555 1_555
C29 C17 1_555 1_555
C30 C18 1_555 1_555
H19 C30 1_555 1_555
H20 C29 1_555 1_555
H21 C29 1_555 1_555
H22 C30 1_555 1_555
H23 C30 1_555 1_555
H24 C29 1_555 1_555
C17 C27 1_555 1_555
C18 C28 1_555 1_555
C19 C21 1_555 1_555
C20 C22 1_555 1_555
C21 C23 1_555 1_555
C22 C24 1_555 1_555
C23 C25 1_555 1_555
C24 C26 1_555 1_555
C25 C27 1_555 1_555
C26 C28 1_555 1_555

#END
