
#######################################################################
#
#                 Cambridge Crystallographic Data Centre
#                                CCDC 
#
#######################################################################
#
# If this CIF has been generated from an entry in the Cambridge 
# Structural Database, then it will include bibliographic, chemical, 
# crystal, experimental, refinement or atomic coordinate data resulting 
# from the CCDC's data processing and validation procedures.
#
#######################################################################

data_DADBIU
_chemical_formula_moiety         'C18 H24 N1 P1 Se1'
_chemical_name_systematic        
't-Butyl(phenyl)-N-(1-phenylethyl)phosphinoselenoic amide'
_symmetry_cell_setting           orthorhombic
_symmetry_space_group_name_H-M   'P 21 21 21'
_symmetry_Int_Tables_number      19
_space_group_name_Hall           'P 2ac 2ab'
loop_
_symmetry_equiv_pos_site_id
_symmetry_equiv_pos_as_xyz
1 x,y,z
2 1/2-x,-y,1/2+z
3 1/2+x,1/2-y,-z
4 -x,1/2+y,1/2-z
_cell_length_a                   7.223(2)
_cell_length_b                   13.269(4)
_cell_length_c                   19.121(6)
_cell_angle_alpha                90
_cell_angle_beta                 90
_cell_angle_gamma                90
_cell_volume                     1832.59
_exptl_crystal_colour            colorless
_exptl_crystal_description       block
_cell_formula_units_Z            4
loop_
_atom_site_label
_atom_site_type_symbol
_atom_site_fract_x
_atom_site_fract_y
_atom_site_fract_z
Se1 Se 0.13623(4) 0.13005(2) 0.76533(1)
P1 P 0.01540(9) 0.26956(5) 0.73681(4)
N1 N 0.0418(3) 0.3576(2) 0.7971(1)
C1 C 0.1231(4) 0.3193(2) 0.6582(1)
C2 C 0.1517(5) 0.4211(2) 0.6476(1)
C3 C 0.2375(5) 0.4559(3) 0.5879(2)
C4 C 0.2966(5) 0.3903(3) 0.5378(2)
C5 C 0.2709(6) 0.2889(3) 0.5470(2)
C6 C 0.1839(5) 0.2529(2) 0.6069(1)
C7 C -0.2342(4) 0.2589(2) 0.7200(2)
C8 C -0.2699(5) 0.1870(3) 0.6593(2)
C9 C -0.3165(4) 0.3621(3) 0.7024(2)
C10 C -0.3247(5) 0.2184(3) 0.7865(2)
C11 C 0.1063(4) 0.3419(2) 0.8694(1)
C12 C 0.2945(5) 0.3907(3) 0.8805(2)
C13 C -0.0303(4) 0.3781(2) 0.9239(1)
C14 C -0.0137(5) 0.3392(3) 0.9917(1)
C15 C -0.1284(6) 0.3724(3) 1.0443(1)
C16 C -0.2589(6) 0.4441(3) 1.0313(2)
C17 C -0.2780(5) 0.4839(3) 0.9651(2)
C18 C -0.1629(5) 0.4510(2) 0.9118(1)
H1 H 0.1135 0.4682 0.6824
H2 H 0.2555 0.5284 0.5821
H3 H 0.3611 0.4153 0.4971
H4 H 0.3080 0.2424 0.5107
H5 H 0.1665 0.1817 0.6133
H6 H -0.1846 0.1294 0.6637
H7 H -0.2469 0.2176 0.6159
H8 H -0.3916 0.1604 0.6609
H9 H -0.2762 0.3828 0.6563
H10 H -0.2779 0.4110 0.7350
H11 H -0.4489 0.3590 0.7016
H12 H -0.2650 0.1562 0.8013
H13 H -0.3078 0.2656 0.8250
H14 H -0.4523 0.2059 0.7815
H15 H 0.0109 0.4257 0.7839
H16 H 0.1248 0.2706 0.8760
H17 H 0.3824 0.3637 0.8480
H18 H 0.3361 0.3826 0.9262
H19 H 0.2831 0.4623 0.8702
H20 H 0.0744 0.2865 1.0002
H21 H -0.1140 0.3444 1.0913
H22 H -0.3360 0.4664 1.0694
H23 H -0.3654 0.5375 0.9550
H24 H -0.1768 0.4781 0.8650
loop_
_geom_bond_atom_site_label_1
_geom_bond_atom_site_label_2
_geom_bond_site_symmetry_1
_geom_bond_site_symmetry_2
Se1 P1 1_555 1_555
P1 N1 1_555 1_555
N1 C11 1_555 1_555
C1 P1 1_555 1_555
C2 C1 1_555 1_555
C3 C2 1_555 1_555
C4 C3 1_555 1_555
C5 C4 1_555 1_555
C6 C1 1_555 1_555
C7 P1 1_555 1_555
C8 C7 1_555 1_555
C9 C7 1_555 1_555
C10 C7 1_555 1_555
C11 C12 1_555 1_555
C12 H17 1_555 1_555
C13 C11 1_555 1_555
C14 C13 1_555 1_555
C15 C14 1_555 1_555
C16 C15 1_555 1_555
C17 C16 1_555 1_555
C18 C13 1_555 1_555
H1 C2 1_555 1_555
H2 C3 1_555 1_555
H3 C4 1_555 1_555
H4 C5 1_555 1_555
H5 C6 1_555 1_555
H6 C8 1_555 1_555
H7 C8 1_555 1_555
H8 C8 1_555 1_555
H9 C9 1_555 1_555
H10 C9 1_555 1_555
H11 C9 1_555 1_555
H12 C10 1_555 1_555
H13 C10 1_555 1_555
H14 C10 1_555 1_555
H15 N1 1_555 1_555
H16 C11 1_555 1_555
H18 C12 1_555 1_555
H19 C12 1_555 1_555
H20 C14 1_555 1_555
H21 C15 1_555 1_555
H22 C16 1_555 1_555
H23 C17 1_555 1_555
H24 C18 1_555 1_555
C5 C6 1_555 1_555
C17 C18 1_555 1_555

#END
