
#######################################################################
#
#                 Cambridge Crystallographic Data Centre
#                                CCDC 
#
#######################################################################
#
# If this CIF has been generated from an entry in the Cambridge 
# Structural Database, then it will include bibliographic, chemical, 
# crystal, experimental, refinement or atomic coordinate data resulting 
# from the CCDC's data processing and validation procedures.
#
#######################################################################

data_DADDER
_chemical_formula_moiety         'C15 H10 O2'
_chemical_name_systematic        (Z)-3-Benzylidenephthalide
_symmetry_cell_setting           monoclinic
_symmetry_space_group_name_H-M   'P 21/n'
_symmetry_Int_Tables_number      14
_space_group_name_Hall           '-P 2yn'
loop_
_symmetry_equiv_pos_site_id
_symmetry_equiv_pos_as_xyz
1 x,y,z
2 1/2-x,1/2+y,1/2-z
3 -x,-y,-z
4 1/2+x,1/2-y,1/2+z
_cell_length_a                   15.166(2)
_cell_length_b                   8.002(2)
_cell_length_c                   19.013(2)
_cell_angle_alpha                90
_cell_angle_beta                 103.64(1)
_cell_angle_gamma                90
_cell_volume                     2242.31
_cell_formula_units_Z            8
loop_
_atom_site_label
_atom_site_type_symbol
_atom_site_fract_x
_atom_site_fract_y
_atom_site_fract_z
C1 C 0.1905(2) 0.3809(4) 0.2611(2)
C2 C 0.2653(2) 0.4513(4) 0.3098(2)
C3 C 0.2803(2) 0.4225(5) 0.3836(2)
C4 C 0.2202(3) 0.3242(5) 0.4103(2)
C5 C 0.1447(2) 0.2565(5) 0.3631(2)
C6 C 0.1293(2) 0.2846(5) 0.2892(2)
C7 C 0.1832(2) 0.4077(4) 0.1840(2)
C8 C 0.1227(2) 0.3492(4) 0.1267(2)
C9 C -0.0047(2) 0.2145(5) 0.0636(2)
C10 C 0.0414(2) 0.2865(5) 0.0114(2)
C11 C 0.0178(3) 0.2827(5) -0.0636(2)
C12 C 0.0767(3) 0.3586(5) -0.0996(2)
C13 C 0.1563(3) 0.4349(5) -0.0611(2)
C14 C 0.1790(2) 0.4396(5) 0.0136(2)
C15 C 0.1193(2) 0.3653(4) 0.0497(2)
O1 O 0.0469(1) 0.2533(3) 0.1328(1)
O2 O -0.0731(2) 0.1329(4) 0.0568(1)
H1 H 0.3113 0.3304 0.2894
H2 H 0.3395 0.4737 0.4203
H3 H 0.2318 0.3006 0.4676
H4 H 0.0971 0.1818 0.3841
H5 H 0.0700 0.2316 0.2535
H6 H 0.2349 0.4867 0.1713
H7 H -0.0441 0.2230 -0.0927
H8 H 0.0603 0.3596 -0.1531
H9 H 0.2031 0.4888 -0.0900
H10 H 0.2403 0.5008 0.0430
C16 C 0.8456(2) 0.4370(5) 0.4063(2)
C17 C 0.7676(2) 0.5329(5) 0.3825(2)
C18 C 0.7491(3) 0.6033(5) 0.3138(2)
C19 C 0.8058(3) 0.5785(5) 0.2683(2)
C20 C 0.8819(3) 0.4816(5) 0.2915(2)
C21 C 0.9029(2) 0.4100(5) 0.3599(2)
C22 C 0.8641(2) 0.3720(5) 0.4808(2)
C23 C 0.9334(2) 0.2862(4) 0.5192(2)
C24 C 1.0696(2) 0.1440(4) 0.5444(2)
C25 C 1.0330(2) 0.1394(4) 0.6091(2)
C26 C 1.0694(2) 0.0674(5) 0.6758(2)
C27 C 1.0214(3) 0.0878(5) 0.7288(2)
C28 C 0.9409(3) 0.1796(5) 0.7152(2)
C29 C 0.9040(2) 0.2487(5) 0.6474(2)
C30 C 0.9519(2) 0.2270(4) 0.5938(2)
O3 O 1.0075(2) 0.2332(3) 0.4916(1)
O4 O 1.1374(2) 0.0886(3) 0.5315(1)
H11 H 0.7215 0.5531 0.4176
H12 H 0.6887 0.6792 0.2961
H13 H 0.7907 0.6350 0.2154
H14 H 0.9258 0.4591 0.2550
H15 H 0.9628 0.3336 0.3770
H16 H 0.8120 0.4003 0.5094
H17 H 1.1324 -0.0024 0.6860
H18 H 1.0470 0.0316 0.7815
H19 H 0.9069 0.1986 0.7587
H20 H 0.8405 0.3165 0.6366
loop_
_geom_bond_atom_site_label_1
_geom_bond_atom_site_label_2
_geom_bond_site_symmetry_1
_geom_bond_site_symmetry_2
C1 C2 1_555 1_555
C2 C3 1_555 1_555
C3 C4 1_555 1_555
C4 C5 1_555 1_555
C5 C6 1_555 1_555
C6 C1 1_555 1_555
C7 C1 1_555 1_555
C8 C7 1_555 1_555
C9 C10 1_555 1_555
C10 C11 1_555 1_555
C11 C12 1_555 1_555
C12 C13 1_555 1_555
C13 C14 1_555 1_555
C14 C15 1_555 1_555
C15 C8 1_555 1_555
O1 C8 1_555 1_555
O2 C9 1_555 1_555
H1 C2 1_555 1_555
H2 C3 1_555 1_555
H3 C4 1_555 1_555
H4 C5 1_555 1_555
H5 C6 1_555 1_555
H6 C7 1_555 1_555
H7 C11 1_555 1_555
H8 C12 1_555 1_555
H9 C13 1_555 1_555
H10 C14 1_555 1_555
C16 C17 1_555 1_555
C17 C18 1_555 1_555
C18 C19 1_555 1_555
C19 C20 1_555 1_555
C20 C21 1_555 1_555
C21 C16 1_555 1_555
C22 C16 1_555 1_555
C23 C22 1_555 1_555
C24 C25 1_555 1_555
C25 C26 1_555 1_555
C26 C27 1_555 1_555
C27 C28 1_555 1_555
C28 C29 1_555 1_555
C29 C30 1_555 1_555
C30 C23 1_555 1_555
O3 C23 1_555 1_555
O4 C24 1_555 1_555
H11 C17 1_555 1_555
H12 C18 1_555 1_555
H13 C19 1_555 1_555
H14 C20 1_555 1_555
H15 C21 1_555 1_555
H16 C22 1_555 1_555
H17 C26 1_555 1_555
H18 C27 1_555 1_555
H19 C28 1_555 1_555
H20 C29 1_555 1_555
C9 O1 1_555 1_555
C10 C15 1_555 1_555
C24 O3 1_555 1_555
C25 C30 1_555 1_555

#END
