
#######################################################################
#
#                 Cambridge Crystallographic Data Centre
#                                CCDC 
#
#######################################################################
#
# If this CIF has been generated from an entry in the Cambridge 
# Structural Database, then it will include bibliographic, chemical, 
# crystal, experimental, refinement or atomic coordinate data resulting 
# from the CCDC's data processing and validation procedures.
#
#######################################################################

data_DADWEN
_chemical_formula_moiety         'C10 H6 Cl1 N1 O3'
_chemical_name_systematic        5-(1,3-benzodioxol-5-yl)-4-chloro-1,3-oxazole
_symmetry_cell_setting           monoclinic
_symmetry_space_group_name_H-M   'P 21/n'
_symmetry_Int_Tables_number      14
_space_group_name_Hall           '-P 2yn'
loop_
_symmetry_equiv_pos_site_id
_symmetry_equiv_pos_as_xyz
1 x,y,z
2 1/2-x,1/2+y,1/2-z
3 -x,-y,-z
4 1/2+x,1/2-y,1/2+z
_cell_length_a                   12.172(3)
_cell_length_b                   3.8652(10)
_cell_length_c                   19.644(5)
_cell_angle_alpha                90
_cell_angle_beta                 98.829(4)
_cell_angle_gamma                90
_cell_volume                     913.245
_cell_formula_units_Z            4
loop_
_atom_site_label
_atom_site_type_symbol
_atom_site_fract_x
_atom_site_fract_y
_atom_site_fract_z
C1 C 0.2318(2) 0.5475(8) 0.49078(11)
H1 H 0.2277 0.7584 0.5170
H2 H 0.2920 0.4069 0.5143
C2 C 0.08612(18) 0.3642(6) 0.41718(11)
C3 C -0.01355(19) 0.2312(6) 0.38611(12)
H3 H -0.0622 0.1230 0.4115
C4 C -0.03843(17) 0.2655(6) 0.31522(12)
H4 H -0.1061 0.1824 0.2927
C5 C 0.03526(15) 0.4214(5) 0.27648(10)
C6 C 0.13804(16) 0.5520(6) 0.30947(11)
H5 H 0.1888 0.6548 0.2849
C7 C 0.15890(16) 0.5190(6) 0.37967(11)
C8 C 0.00629(15) 0.4549(5) 0.20222(10)
C9 C -0.08279(16) 0.3919(6) 0.15331(11)
C10 C 0.0394(2) 0.5922(8) 0.09969(12)
H6 H 0.0767 0.6705 0.0647
Cl1 Cl -0.21048(4) 0.23412(18) 0.16315(3)
N1 N -0.06106(15) 0.4808(6) 0.08834(9)
O1 O 0.12933(14) 0.3630(5) 0.48574(8)
O2 O 0.25206(14) 0.6283(5) 0.42344(8)
O3 O 0.08676(12) 0.5866(5) 0.16662(8)
loop_
_geom_bond_atom_site_label_1
_geom_bond_atom_site_label_2
_geom_bond_site_symmetry_1
_geom_bond_site_symmetry_2
C1 H1 1_555 1_555
H2 C1 1_555 1_555
C2 C3 1_555 1_555
C3 H3 1_555 1_555
C4 C3 1_555 1_555
H4 C4 1_555 1_555
C5 C4 1_555 1_555
C6 C5 1_555 1_555
H5 C6 1_555 1_555
C7 C2 1_555 1_555
C8 C5 1_555 1_555
C9 C8 1_555 1_555
C10 H6 1_555 1_555
Cl1 C9 1_555 1_555
N1 C9 1_555 1_555
O1 C1 1_555 1_555
O2 C1 1_555 1_555
O3 C8 1_555 1_555
C2 O1 1_555 1_555
C6 C7 1_555 1_555
C7 O2 1_555 1_555
C10 N1 1_555 1_555
C10 O3 1_555 1_555

#END
