
#######################################################################
#
#                 Cambridge Crystallographic Data Centre
#                                CCDC 
#
#######################################################################
#
# If this CIF has been generated from an entry in the Cambridge 
# Structural Database, then it will include bibliographic, chemical, 
# crystal, experimental, refinement or atomic coordinate data resulting 
# from the CCDC's data processing and validation procedures.
#
#######################################################################

data_DADYUF
_chemical_formula_moiety         'C11 H14 Cl1 N3 O2'
_chemical_name_systematic        
'methyl 1-(6-chloropyrimidin-4-yl)piperidine-4-carboxylate'
_symmetry_cell_setting           triclinic
_symmetry_space_group_name_H-M   'P -1'
_symmetry_Int_Tables_number      2
_space_group_name_Hall           '-P 1'
loop_
_symmetry_equiv_pos_site_id
_symmetry_equiv_pos_as_xyz
1 x,y,z
2 -x,-y,-z
_cell_length_a                   6.3606(4)
_cell_length_b                   8.9736(6)
_cell_length_c                   21.3277(12)
_cell_angle_alpha                79.241(5)
_cell_angle_beta                 86.219(5)
_cell_angle_gamma                88.963(5)
_cell_volume                     1193.31
_cell_formula_units_Z            4
loop_
_atom_site_label
_atom_site_type_symbol
_atom_site_fract_x
_atom_site_fract_y
_atom_site_fract_z
Cl1 Cl 0.306967 0.482749 0.1201
O1 O 1.02257 -0.311176 0.026911
O2 O 0.804491 -0.142757 -0.025797
N1 N 0.6523 0.407897 0.178777
N2 N 0.781761 0.152355 0.205877
N3 N 0.598467 -0.054676 0.1869
C1 C 0.489671 0.350389 0.155056
C2 C 0.456686 0.200252 0.154745
H1 H 0.336637 0.166482 0.137239
C3 C 0.612688 0.098335 0.182149
C4 C 0.789978 0.301172 0.203122
H2 H 0.908761 0.336628 0.220666
C5 C 0.446039 -0.120974 0.151297
H3 H 0.316721 -0.057676 0.147845
H4 H 0.406931 -0.22375 0.174583
C6 C 0.540353 -0.130538 0.084713
H5 H 0.568578 -0.027041 0.060227
H6 H 0.438566 -0.179191 0.061804
C7 C 0.745571 -0.22245 0.088874
H7 H 0.709758 -0.33025 0.107726
C8 C 0.897577 -0.165223 0.132923
H8 H 1.01778 -0.236678 0.140078
H9 H 0.953903 -0.06505 0.111659
C9 C 0.78621 -0.151319 0.197199
H10 H 0.744719 -0.253167 0.220973
H11 H 0.883226 -0.10678 0.223034
C10 C 0.854538 -0.219138 0.023562
C11 C 1.14623 -0.313426 -0.03217
H12 H 1.05977 -0.350874 -0.062242
H13 H 1.26854 -0.380397 -0.02365
H14 H 1.1943 -0.210532 -0.050716
Cl2 Cl 0.706587 0.600434 0.369041
O3 O -0.027004 -0.288659 0.472521
O4 O 0.19211 -0.18008 0.527983
N4 N 0.364445 0.582809 0.309036
N5 N 0.219081 0.349502 0.291846
N6 N 0.388759 0.117966 0.320292
C12 C 0.519506 0.49964 0.337363
C13 C 0.542207 0.345871 0.344521
H15 H 0.656975 0.293343 0.365231
C14 C 0.38376 0.269236 0.319115
C15 C 0.222862 0.498845 0.288244
H16 H 0.108725 0.553434 0.268026
C16 C 0.206078 0.034059 0.30727
H17 H 0.252545 -0.042854 0.281447
H18 H 0.107079 0.10463 0.282556
C17 C 0.095109 -0.043889 0.370331
H19 H -0.021049 -0.107142 0.361288
H20 H 0.033204 0.033997 0.393464
C18 C 0.249347 -0.144409 0.412894
H21 H 0.290322 -0.232713 0.39214
C19 C 0.450311 -0.058649 0.419601
H22 H 0.416974 0.019158 0.446172
H23 H 0.55427 -0.130285 0.441394
C20 C 0.544812 0.017332 0.35432
H24 H 0.670064 0.076592 0.359637
H25 H 0.590342 -0.06093 0.32908
C21 C 0.140841 -0.205061 0.477673
C22 C -0.150719 -0.346028 0.531104
H26 H -0.064126 -0.415106 0.56014
H27 H -0.272911 -0.400707 0.521413
H28 H -0.198979 -0.261156 0.55147
loop_
_geom_bond_atom_site_label_1
_geom_bond_atom_site_label_2
_geom_bond_site_symmetry_1
_geom_bond_site_symmetry_2
Cl1 C1 1_555 1_555
O1 C10 1_555 1_555
O2 C10 1_555 1_555
N1 C1 1_555 1_555
N2 C3 1_555 1_555
N3 C3 1_555 1_555
C1 C2 1_555 1_555
C2 H1 1_555 1_555
C3 C2 1_555 1_555
C4 N1 1_555 1_555
H2 C4 1_555 1_555
C5 N3 1_555 1_555
H3 C5 1_555 1_555
H4 C5 1_555 1_555
C6 C5 1_555 1_555
H5 C6 1_555 1_555
H6 C6 1_555 1_555
C7 C6 1_555 1_555
H7 C7 1_555 1_555
C8 C7 1_555 1_555
H8 C8 1_555 1_555
H9 C8 1_555 1_555
C9 N3 1_555 1_555
H10 C9 1_555 1_555
H11 C9 1_555 1_555
C10 C7 1_555 1_555
C11 O1 1_555 1_555
H12 C11 1_555 1_555
H13 C11 1_555 1_555
H14 C11 1_555 1_555
Cl2 C12 1_555 1_555
O3 C21 1_555 1_555
O4 C21 1_555 1_555
N4 C12 1_555 1_555
N5 C14 1_555 1_555
N6 C14 1_555 1_555
C12 C13 1_555 1_555
C13 H15 1_555 1_555
C14 C13 1_555 1_555
C15 N4 1_555 1_555
H16 C15 1_555 1_555
C16 N6 1_555 1_555
H17 C16 1_555 1_555
H18 C16 1_555 1_555
C17 C16 1_555 1_555
H19 C17 1_555 1_555
H20 C17 1_555 1_555
C18 C17 1_555 1_555
H21 C18 1_555 1_555
C19 C18 1_555 1_555
H22 C19 1_555 1_555
H23 C19 1_555 1_555
C20 N6 1_555 1_555
H24 C20 1_555 1_555
H25 C20 1_555 1_555
C21 C18 1_555 1_555
C22 O3 1_555 1_555
H26 C22 1_555 1_555
H27 C22 1_555 1_555
H28 C22 1_555 1_555
N2 C4 1_555 1_555
C8 C9 1_555 1_555
N5 C15 1_555 1_555
C19 C20 1_555 1_555

#END
