
#######################################################################
#
#                 Cambridge Crystallographic Data Centre
#                                CCDC 
#
#######################################################################
#
# If this CIF has been generated from an entry in the Cambridge 
# Structural Database, then it will include bibliographic, chemical, 
# crystal, experimental, refinement or atomic coordinate data resulting 
# from the CCDC's data processing and validation procedures.
#
#######################################################################

data_DAFBUJ
_chemical_formula_moiety         'C21 H29 N1 O4'
_chemical_name_systematic        
(+-)-3-Acetoxy-7(e)-(1,1-dimethylethyl)-1-(4-methoxyphe-yl)-2-oxo-1-azaspiro[3.5]nonane
_symmetry_cell_setting           triclinic
_symmetry_space_group_name_H-M   'P -1'
_symmetry_Int_Tables_number      2
_space_group_name_Hall           '-P 1'
loop_
_symmetry_equiv_pos_site_id
_symmetry_equiv_pos_as_xyz
1 x,y,z
2 -x,-y,-z
_cell_length_a                   8.074(5)
_cell_length_b                   10.504(5)
_cell_length_c                   12.459(5)
_cell_angle_alpha                100.800(5)
_cell_angle_beta                 93.350(5)
_cell_angle_gamma                104.970(5)
_cell_volume                     996.322
_cell_formula_units_Z            2
loop_
_atom_site_label
_atom_site_type_symbol
_atom_site_fract_x
_atom_site_fract_y
_atom_site_fract_z
O1 O 0.4138(2) 0.09511(17) 0.31826(14)
O2 O 1.4261(2) 0.6512(2) 0.43999(17)
C1 C 0.6374(3) 0.2485(2) 0.23012(19)
N1 N 0.7921(2) 0.2665(2) 0.31112(16)
C2 C 0.5363(3) 0.3507(2) 0.26037(19)
H1 H 0.6084 0.44 0.2596
H2 H 0.5048 0.3505 0.3343
C3 C 0.2474(3) 0.2824(2) -0.0220(2)
C4 C 0.9509(3) 0.3676(2) 0.34119(19)
C5 C 0.3725(3) 0.3191(2) 0.18010(18)
H3 H 0.2937 0.2355 0.1885
H4 H 0.3161 0.3901 0.1985
C6 C 0.4100(3) 0.3063(2) 0.06061(18)
H5 H 0.4887 0.3926 0.0552
O3 O 0.7827(2) 0.0970(2) 0.41250(18)
C7 C 1.2665(3) 0.5630(3) 0.4043(2)
C8 C 0.9905(3) 0.4810(3) 0.2961(2)
H6 H 0.9109 0.4917 0.244
C9 C 0.6746(3) 0.2341(3) 0.11139(19)
H7 H 0.7319 0.1635 0.0935
H8 H 0.7516 0.3177 0.1015
O4 O 0.2822(3) -0.0958(2) 0.19846(19)
C10 C 0.2789(3) -0.0126(3) 0.2768(2)
C11 C 0.7279(3) 0.1492(3) 0.3442(2)
C12 C 0.5082(3) 0.1997(2) 0.0338(2)
H9 H 0.4351 0.1127 0.0398
H10 H 0.5358 0.1933 -0.0414
C13 C 0.5663(3) 0.1108(3) 0.2643(2)
H11 H 0.561 0.0333 0.2052
C14 C 1.2265(3) 0.4503(3) 0.4500(2)
H12 H 1.3062 0.4396 0.5022
C15 C 1.1475(3) 0.5797(3) 0.3274(2)
H13 H 1.172 0.6559 0.2968
C16 C 1.0720(3) 0.3541(3) 0.4201(2)
H14 H 1.0473 0.2793 0.4523
C17 C 0.1627(3) 0.3970(3) 0.0079(2)
H15 H 0.2445 0.4814 0.0076
H16 H 0.1255 0.3982 0.0798
H17 H 0.0649 0.3832 -0.0449
C18 C 0.2995(4) 0.2808(3) -0.1385(2)
H18 H 0.3827 0.3643 -0.1396
H19 H 0.1994 0.2697 -0.1886
H20 H 0.349 0.2074 -0.1603
C19 C 0.1145(4) 0.1483(3) -0.0213(3)
H21 H 0.0814 0.1484 0.0515
H22 H 0.1643 0.0751 -0.0435
H23 H 0.0146 0.1375 -0.0715
C20 C 0.1310(3) -0.0115(3) 0.3423(3)
H24 H 0.161 0.0675 0.4003
H25 H 0.1039 -0.0905 0.3733
H26 H 0.0325 -0.0109 0.2955
C21 C 1.4740(4) 0.7711(3) 0.3983(3)
H27 H 1.5883 0.8227 0.4303
H28 H 1.3944 0.8236 0.4167
H29 H 1.4716 0.7482 0.3199
loop_
_geom_bond_atom_site_label_1
_geom_bond_atom_site_label_2
_geom_bond_site_symmetry_1
_geom_bond_site_symmetry_2
O1 C10 1_555 1_555
O2 C7 1_555 1_555
C1 N1 1_555 1_555
N1 C4 1_555 1_555
C2 C1 1_555 1_555
H1 C2 1_555 1_555
H2 C2 1_555 1_555
C3 C6 1_555 1_555
C4 C8 1_555 1_555
C5 C2 1_555 1_555
H3 C5 1_555 1_555
H4 C5 1_555 1_555
C6 C5 1_555 1_555
H5 C6 1_555 1_555
O3 C11 1_555 1_555
C7 C14 1_555 1_555
C8 H6 1_555 1_555
C9 C1 1_555 1_555
H7 C9 1_555 1_555
H8 C9 1_555 1_555
O4 C10 1_555 1_555
C10 C20 1_555 1_555
C11 N1 1_555 1_555
C12 C6 1_555 1_555
H9 C12 1_555 1_555
H10 C12 1_555 1_555
C13 O1 1_555 1_555
H11 C13 1_555 1_555
C14 H12 1_555 1_555
C15 C7 1_555 1_555
H13 C15 1_555 1_555
C16 C4 1_555 1_555
H14 C16 1_555 1_555
C17 C3 1_555 1_555
H15 C17 1_555 1_555
H16 C17 1_555 1_555
H17 C17 1_555 1_555
C18 C3 1_555 1_555
H18 C18 1_555 1_555
H19 C18 1_555 1_555
H20 C18 1_555 1_555
C19 C3 1_555 1_555
H21 C19 1_555 1_555
H22 C19 1_555 1_555
H23 C19 1_555 1_555
C20 H24 1_555 1_555
H25 C20 1_555 1_555
H26 C20 1_555 1_555
C21 O2 1_555 1_555
H27 C21 1_555 1_555
H28 C21 1_555 1_555
H29 C21 1_555 1_555
C1 C13 1_555 1_555
C8 C15 1_555 1_555
C9 C12 1_555 1_555
C11 C13 1_555 1_555
C14 C16 1_555 1_555

#END
