
#######################################################################
#
#                 Cambridge Crystallographic Data Centre
#                                CCDC 
#
#######################################################################
#
# If this CIF has been generated from an entry in the Cambridge 
# Structural Database, then it will include bibliographic, chemical, 
# crystal, experimental, refinement or atomic coordinate data resulting 
# from the CCDC's data processing and validation procedures.
#
#######################################################################

data_DAFLAZ
_chemical_formula_moiety         'C16 H11 B1 F2 N2 O1'
_chemical_name_systematic        
(5,5-Difluoro-10-phenyl-3H-dipyrrolo[1,2-c:2',1'-f][1,3,2]diazaborinin-5-ium-3-ylidene)methanolate
_symmetry_cell_setting           triclinic
_symmetry_space_group_name_H-M   'P -1'
_symmetry_Int_Tables_number      2
_space_group_name_Hall           '-P 1'
loop_
_symmetry_equiv_pos_site_id
_symmetry_equiv_pos_as_xyz
1 x,y,z
2 -x,-y,-z
_cell_length_a                   10.487(6)
_cell_length_b                   13.577(7)
_cell_length_c                   20.294(11)
_cell_angle_alpha                100.995(6)
_cell_angle_beta                 98.432(6)
_cell_angle_gamma                96.239(6)
_cell_volume                     2777.88
_exptl_crystal_colour            purple
_exptl_crystal_description       rod
_cell_formula_units_Z            8
loop_
_atom_site_label
_atom_site_type_symbol
_atom_site_fract_x
_atom_site_fract_y
_atom_site_fract_z
B1 B 0.5606(2) 0.13869(14) 0.11163(11)
C1 C 0.3029(2) 0.43563(16) 0.19042(12)
H1 H 0.2835 0.3821 0.2115
F1 F 0.47173(12) 0.05250(7) 0.10404(6)
N1 N 0.51511(15) 0.19947(10) 0.05764(7)
O1 O 0.70684(17) 0.08594(12) 0.30918(8)
C2 C 0.2383(3) 0.51875(19) 0.20040(14)
H2 H 0.1750 0.5209 0.2281
F2 F 0.68115(11) 0.11185(9) 0.10431(6)
N2 N 0.56437(13) 0.20889(10) 0.18172(7)
C3 C 0.2662(3) 0.59803(17) 0.17013(13)
H3 H 0.2199 0.6529 0.1757
C4 C 0.3624(3) 0.59641(16) 0.13150(12)
H4 H 0.3839 0.6518 0.1125
C5 C 0.4283(2) 0.51367(14) 0.12028(11)
H5 H 0.4933 0.5132 0.0936
C6 C 0.39705(19) 0.43152(13) 0.14886(10)
C7 C 0.45987(17) 0.33921(12) 0.13587(9)
C8 C 0.45972(18) 0.28909(12) 0.07023(9)
C9 C 0.4105(2) 0.30985(15) 0.00625(10)
H6 H 0.3673 0.3641 -0.0011
C10 C 0.4383(2) 0.23558(17) -0.04237(11)
H7 H 0.4185 0.2301 -0.0892
C11 C 0.5020(2) 0.16896(15) -0.00916(10)
H8 H 0.5312 0.1112 -0.0310
C12 C 0.66606(19) 0.10126(15) 0.25392(11)
H9 H 0.6681 0.0519 0.2156
C13 C 0.61382(18) 0.19346(13) 0.24454(9)
C14 C 0.6009(2) 0.27599(14) 0.29400(10)
H10 H 0.6285 0.2848 0.3407
C15 C 0.5399(2) 0.34225(14) 0.26134(10)
H11 H 0.5176 0.4038 0.2819
C16 C 0.51743(17) 0.30023(12) 0.19152(9)
B2 B -0.0368(4) 0.2778(3) -0.00536(17)
O2 O -0.28550(19) 0.49957(15) 0.05415(10)
F3 F 0.0338(3) 0.35834(17) -0.02029(13)
N3 N 0.04902(18) 0.19297(14) 0.00046(9)
F4 F -0.1421(3) 0.2421(2) -0.05329(9)
N4 N -0.07916(16) 0.30838(12) 0.06452(8)
C17 C -0.0125(2) 0.11488(14) 0.21483(11)
H12 H -0.1007 0.1081 0.1970
C18 C 0.0255(2) 0.08648(15) 0.27519(11)
H13 H -0.0369 0.0601 0.2978
C19 C 0.1542(3) 0.09673(16) 0.30220(13)
H14 H 0.1794 0.0793 0.3439
C20 C 0.2467(2) 0.13274(16) 0.26802(13)
H15 H 0.3346 0.1385 0.2862
C21 C 0.2101(2) 0.16027(14) 0.20703(12)
H16 H 0.2733 0.1834 0.1837
C22 C 0.07897(18) 0.15368(13) 0.17997(10)
C23 C 0.03932(17) 0.19100(13) 0.11778(10)
C24 C 0.08396(19) 0.15535(14) 0.05844(11)
C25 C 0.1602(2) 0.07715(16) 0.04096(13)
H17 H 0.1967 0.0382 0.0698
C26 C 0.1700(2) 0.06990(19) -0.02551(14)
H18 H 0.2150 0.0253 -0.0507
C27 C 0.1004(3) 0.1411(2) -0.04931(13)
H19 H 0.0909 0.1512 -0.0937
C28 C -0.04424(18) 0.26730(13) 0.11991(10)
C29 C -0.10267(19) 0.31372(14) 0.17298(10)
H20 H -0.0948 0.3003 0.2165
C30 C -0.17358(19) 0.38244(15) 0.14930(11)
H21 H -0.2232 0.4239 0.1737
C31 C -0.15790(19) 0.37896(15) 0.08271(11)
C32 C -0.2115(3) 0.44169(19) 0.03821(14)
H22 H -0.1873 0.4368 -0.0045
B3 B -0.0731(2) 0.84565(14) 0.39562(11)
O3 O -0.24602(18) 0.86345(13) 0.19455(9)
F5 F 0.00830(12) 0.93075(7) 0.39124(6)
N5 N -0.01133(15) 0.79900(10) 0.45408(7)
F6 F -0.19230(11) 0.87151(9) 0.40679(6)
N6 N -0.08625(14) 0.76344(10) 0.32947(7)
C33 C 0.23822(19) 0.57161(14) 0.39780(11)
H23 H 0.2819 0.6360 0.4182
C34 C 0.3071(2) 0.49035(16) 0.39009(12)
H24 H 0.3967 0.5002 0.4047
C35 C 0.2430(2) 0.39514(15) 0.36084(11)
H25 H 0.2892 0.3404 0.3548
C36 C 0.1112(2) 0.38073(14) 0.34056(11)
H26 H 0.0679 0.3156 0.3221
C37 C 0.0410(2) 0.46179(13) 0.34710(10)
H27 H -0.0486 0.4513 0.3324
C38 C 0.10525(18) 0.55869(12) 0.37571(9)
C39 C 0.03631(16) 0.64856(12) 0.38307(9)
C40 C 0.04512(18) 0.70965(12) 0.44625(9)
C41 C 0.0959(2) 0.69654(15) 0.51229(10)
H28 H 0.1383 0.6433 0.5226
C42 C 0.0710(3) 0.77630(16) 0.55748(11)
H29 H 0.0935 0.7881 0.6047
C43 C 0.0050(2) 0.83777(15) 0.52025(10)
H30 H -0.0233 0.8976 0.5394
C44 C -0.03347(17) 0.67448(12) 0.32481(9)
C45 C -0.05751(19) 0.62411(14) 0.25652(10)
H31 H -0.0316 0.5625 0.2390
C46 C -0.1262(2) 0.68208(15) 0.22005(10)
H32 H -0.1567 0.6665 0.1734
C47 C -0.14201(18) 0.76832(13) 0.26551(10)
C48 C -0.2028(2) 0.85515(15) 0.25135(11)
H33 H -0.2086 0.9066 0.2878
B4 B 0.5660(2) 0.74762(18) 0.50308(12)
O4 O 0.78569(19) 0.51004(14) 0.43179(10)
F7 F 0.51597(14) 0.66995(10) 0.53097(7)
N7 N 0.46704(16) 0.82367(11) 0.49854(8)
F8 F 0.68183(13) 0.79666(12) 0.54178(7)
N8 N 0.58406(14) 0.70569(11) 0.42900(8)
C49 C 0.24666(19) 0.83280(14) 0.29765(11)
H34 H 0.1932 0.8131 0.3269
C50 C 0.1929(2) 0.85661(16) 0.23800(13)
H35 H 0.1029 0.8520 0.2267
C51 C 0.2706(3) 0.88721(16) 0.19484(13)
H36 H 0.2334 0.9028 0.1543
C52 C 0.4033(3) 0.89480(17) 0.21162(12)
H37 H 0.4562 0.9166 0.1828
C53 C 0.4578(2) 0.87035(16) 0.27078(12)
H38 H 0.5479 0.8755 0.2818
C54 C 0.38035(18) 0.83801(13) 0.31456(10)
C55 C 0.43946(17) 0.80899(13) 0.37713(10)
C56 C 0.41139(18) 0.85193(13) 0.43958(10)
C57 C 0.3331(2) 0.92788(14) 0.45948(12)
H39 H 0.2848 0.9611 0.4307
C58 C 0.3418(2) 0.94295(17) 0.52785(12)
H40 H 0.3000 0.9880 0.5547
C59 C 0.4253(2) 0.87832(16) 0.55086(11)
H41 H 0.4484 0.8741 0.5962
C60 C 0.52437(17) 0.73452(13) 0.37216(9)
C61 C 0.55870(18) 0.67593(14) 0.31453(10)
H42 H 0.5310 0.6794 0.2694
C62 C 0.64048(19) 0.61266(14) 0.33683(11)
H43 H 0.6793 0.5657 0.3096
C63 C 0.65509(18) 0.63105(14) 0.40723(10)
C64 C 0.7314(2) 0.58037(18) 0.45213(13)
H44 H 0.7388 0.6033 0.4989
loop_
_geom_bond_atom_site_label_1
_geom_bond_atom_site_label_2
_geom_bond_site_symmetry_1
_geom_bond_site_symmetry_2
B1 F1 1_555 1_555
C1 H1 1_555 1_555
N1 B1 1_555 1_555
O1 C12 1_555 1_555
C2 C1 1_555 1_555
H2 C2 1_555 1_555
F2 B1 1_555 1_555
N2 B1 1_555 1_555
C3 C2 1_555 1_555
H3 C3 1_555 1_555
C4 C3 1_555 1_555
H4 C4 1_555 1_555
C5 C4 1_555 1_555
H5 C5 1_555 1_555
C6 C1 1_555 1_555
C7 C6 1_555 1_555
C8 N1 1_555 1_555
C9 C8 1_555 1_555
H6 C9 1_555 1_555
C10 C9 1_555 1_555
H7 C10 1_555 1_555
C11 N1 1_555 1_555
H8 C11 1_555 1_555
C12 H9 1_555 1_555
C13 N2 1_555 1_555
C14 C13 1_555 1_555
H10 C14 1_555 1_555
C15 C14 1_555 1_555
H11 C15 1_555 1_555
C16 N2 1_555 1_555
B2 F3 1_555 1_555
O2 C32 1_555 1_555
N3 B2 1_555 1_555
F4 B2 1_555 1_555
N4 B2 1_555 1_555
C17 H12 1_555 1_555
C18 C17 1_555 1_555
H13 C18 1_555 1_555
C19 C18 1_555 1_555
H14 C19 1_555 1_555
C20 C19 1_555 1_555
H15 C20 1_555 1_555
C21 C20 1_555 1_555
H16 C21 1_555 1_555
C22 C17 1_555 1_555
C23 C22 1_555 1_555
C24 N3 1_555 1_555
C25 C24 1_555 1_555
H17 C25 1_555 1_555
C26 C25 1_555 1_555
H18 C26 1_555 1_555
C27 N3 1_555 1_555
H19 C27 1_555 1_555
C28 N4 1_555 1_555
C29 C28 1_555 1_555
H20 C29 1_555 1_555
C30 C29 1_555 1_555
H21 C30 1_555 1_555
C31 N4 1_555 1_555
C32 C31 1_555 1_555
H22 C32 1_555 1_555
B3 F5 1_555 1_555
O3 C48 1_555 1_555
N5 B3 1_555 1_555
F6 B3 1_555 1_555
N6 B3 1_555 1_555
C33 H23 1_555 1_555
C34 C33 1_555 1_555
H24 C34 1_555 1_555
C35 C34 1_555 1_555
H25 C35 1_555 1_555
C36 C35 1_555 1_555
H26 C36 1_555 1_555
C37 C36 1_555 1_555
H27 C37 1_555 1_555
C38 C33 1_555 1_555
C39 C38 1_555 1_555
C40 N5 1_555 1_555
C41 C40 1_555 1_555
H28 C41 1_555 1_555
C42 C41 1_555 1_555
H29 C42 1_555 1_555
C43 N5 1_555 1_555
H30 C43 1_555 1_555
C44 N6 1_555 1_555
C45 C44 1_555 1_555
H31 C45 1_555 1_555
C46 C45 1_555 1_555
H32 C46 1_555 1_555
C47 N6 1_555 1_555
C48 C47 1_555 1_555
H33 C48 1_555 1_555
B4 F7 1_555 1_555
O4 C64 1_555 1_555
N7 B4 1_555 1_555
F8 B4 1_555 1_555
N8 B4 1_555 1_555
C49 H34 1_555 1_555
C50 C49 1_555 1_555
H35 C50 1_555 1_555
C51 C50 1_555 1_555
H36 C51 1_555 1_555
C52 C51 1_555 1_555
H37 C52 1_555 1_555
C53 C52 1_555 1_555
H38 C53 1_555 1_555
C54 C49 1_555 1_555
C55 C54 1_555 1_555
C56 N7 1_555 1_555
C57 C56 1_555 1_555
H39 C57 1_555 1_555
C58 C57 1_555 1_555
H40 C58 1_555 1_555
C59 N7 1_555 1_555
H41 C59 1_555 1_555
C60 N8 1_555 1_555
C61 C60 1_555 1_555
H42 C61 1_555 1_555
C62 C61 1_555 1_555
H43 C62 1_555 1_555
C63 N8 1_555 1_555
C64 C63 1_555 1_555
H44 C64 1_555 1_555
C5 C6 1_555 1_555
C7 C8 1_555 1_555
C7 C16 1_555 1_555
C10 C11 1_555 1_555
C12 C13 1_555 1_555
C15 C16 1_555 1_555
C21 C22 1_555 1_555
C23 C24 1_555 1_555
C23 C28 1_555 1_555
C26 C27 1_555 1_555
C30 C31 1_555 1_555
C37 C38 1_555 1_555
C39 C40 1_555 1_555
C39 C44 1_555 1_555
C42 C43 1_555 1_555
C46 C47 1_555 1_555
C53 C54 1_555 1_555
C55 C56 1_555 1_555
C55 C60 1_555 1_555
C58 C59 1_555 1_555
C62 C63 1_555 1_555

#END
