
#######################################################################
#
#                 Cambridge Crystallographic Data Centre
#                                CCDC 
#
#######################################################################
#
# If this CIF has been generated from an entry in the Cambridge 
# Structural Database, then it will include bibliographic, chemical, 
# crystal, experimental, refinement or atomic coordinate data resulting 
# from the CCDC's data processing and validation procedures.
#
#######################################################################

data_DAGHAX
_chemical_formula_moiety         'H3 O1 1+,C6 H14 N2 2+,3(N1 O3 1-)'
_chemical_name_systematic        
'oxonium 1,4-diazoniabicyclo[2.2.2]octane trinitrate'
_symmetry_cell_setting           trigonal
_symmetry_space_group_name_H-M   'P 3 1 c'
_symmetry_Int_Tables_number      159
_space_group_name_Hall           "P 3 -2'c"
loop_
_symmetry_equiv_pos_site_id
_symmetry_equiv_pos_as_xyz
1 x,y,z
2 -y,x-y,z
3 -x+y,-x,z
4 y,x,1/2+z
5 x-y,-y,1/2+z
6 -x,-x+y,1/2+z
_cell_length_a                   10.0857(3)
_cell_length_b                   10.0857(3)
_cell_length_c                   7.2134(4)
_cell_angle_alpha                90
_cell_angle_beta                 90
_cell_angle_gamma                120
_cell_volume                     635.452
_exptl_crystal_colour            colorless
_exptl_crystal_description       block
_cell_formula_units_Z            2
loop_
_atom_site_label
_atom_site_type_symbol
_atom_site_fract_x
_atom_site_fract_y
_atom_site_fract_z
N1 N 0.3333 0.6667 -0.3669(3)
H1 H 0.3333 0.6667 -0.4867
N2 N 0.3333 0.6667 -0.0230(3)
H2 H 0.3333 0.6667 0.0966
C1 C 0.4743(2) 0.8057(2) -0.2985(2)
H3 H 0.4864 0.8964 -0.3608
H4 H 0.5640 0.7968 -0.3240
C2 C 0.45769(19) 0.81870(18) -0.0903(2)
H5 H 0.5532 0.8459 -0.0280
H6 H 0.4316 0.8973 -0.0647
C1A C 0.1943(2) 0.6686(3) -0.2985(2)
H3A H 0.1036 0.5900 -0.3608
H4A H 0.2032 0.7672 -0.3240
C2A C 0.18130(18) 0.63899(26) -0.0903(2)
H5A H 0.1541 0.7073 -0.0280
H6A H 0.1027 0.5343 -0.0647
C1B C 0.3314(3) 0.5257(2) -0.2985(2)
H3B H 0.4100 0.5136 -0.3608
H4B H 0.2328 0.4360 -0.3240
C2B C 0.36101(26) 0.54231(19) -0.0903(2)
H5B H 0.2927 0.4468 -0.0280
H6B H 0.4657 0.5684 -0.0647
O1 O 0.52018(14) 0.67768(15) 0.30071(17)
N3 N 0.65344(16) 0.78444(15) 0.32721(19)
O2 O 0.6955(2) 0.91568(18) 0.2777(3)
O3 O 0.74565(16) 0.75577(16) 0.4117(3)
O4 O 1.0000 1.0000 0.4889(4)
H7 H 1.079(3) 0.987(3) 0.451(4)
H7A H 1.013(3) 1.092(4) 0.451(4)
H7B H 0.908(4) 0.921(3) 0.451(4)
loop_
_geom_bond_atom_site_label_1
_geom_bond_atom_site_label_2
_geom_bond_site_symmetry_1
_geom_bond_site_symmetry_2
N1 H1 1_555 1_555
N2 H2 1_555 1_555
C1 N1 1_555 1_555
H3 C1 1_555 1_555
H4 C1 1_555 1_555
C2 N2 1_555 1_555
H5 C2 1_555 1_555
H6 C2 1_555 1_555
O1 N3 1_555 1_555
N3 O2 1_555 1_555
O3 N3 1_555 1_555
O4 H7 1_555 1_555
C1A N1 1_555 1_555
H3A C1A 1_555 1_555
H4A C1A 1_555 1_555
C2A N2 1_555 1_555
H5A C2A 1_555 1_555
H6A C2A 1_555 1_555
C1B N1 1_555 1_555
H3B C1B 1_555 1_555
H4B C1B 1_555 1_555
C2B N2 1_555 1_555
H5B C2B 1_555 1_555
H6B C2B 1_555 1_555
H7A O4 1_555 1_555
H7B O4 1_555 1_555
C1 C2 1_555 1_555
C1A C2A 1_555 1_555
C1B C2B 1_555 1_555

#END
