
#######################################################################
#
#                 Cambridge Crystallographic Data Centre
#                                CCDC 
#
#######################################################################
#
# If this CIF has been generated from an entry in the Cambridge 
# Structural Database, then it will include bibliographic, chemical, 
# crystal, experimental, refinement or atomic coordinate data resulting 
# from the CCDC's data processing and validation procedures.
#
#######################################################################

data_DAGRAF
_chemical_name_common            '2-methoxy-3,5-dimethylthiotetronic acid'
_chemical_formula_moiety         'C7 H10 O2 S1'
_chemical_name_systematic        rac-5-Methoxy-2,4-dimethyl-2H-thiophen-3-one
_symmetry_cell_setting           triclinic
_symmetry_space_group_name_H-M   'P -1'
_symmetry_Int_Tables_number      2
_space_group_name_Hall           '-P 1'
loop_
_symmetry_equiv_pos_site_id
_symmetry_equiv_pos_as_xyz
1 x,y,z
2 -x,-y,-z
_cell_length_a                   7.8625(5)
_cell_length_b                   9.0901(7)
_cell_length_c                   11.9855(10)
_cell_angle_alpha                81.749(7)
_cell_angle_beta                 75.796(7)
_cell_angle_gamma                68.997(5)
_cell_volume                     773.792
_exptl_crystal_colour            colorless
_exptl_crystal_description       prism
_chemical_melting_point          '332.16-332.86 K'
_cell_formula_units_Z            4
_exptl_crystal_recrystallization_method hexanes
loop_
_atom_site_label
_atom_site_type_symbol
_atom_site_fract_x
_atom_site_fract_y
_atom_site_fract_z
S1 S 0.01909(5) 0.18044(5) 0.95538(3)
O1 O 0.4695(2) 0.2478(2) 0.97804(13)
O2 O -0.0562(2) 0.4406(1) 0.81135(11)
C1 C 0.0612(2) 0.3451(2) 0.87511(13)
C2 C 0.2197(2) 0.3692(2) 0.8796(1)
C3 C 0.3253(2) 0.2519(2) 0.9534(1)
C4 C 0.2373(2) 0.1246(2) 1.0041(1)
C5 C -0.2344(2) 0.4222(2) 0.8230(2)
C6 C 0.2785(3) 0.5041(2) 0.8180(2)
C7 C 0.2079(3) 0.1050(3) 1.1344(2)
H1 H 0.319(3) 0.022(2) 0.968(2)
H2 H 0.131(4) 0.202(3) 1.168(2)
H3 H 0.147(3) 0.027(3) 1.166(2)
H4 H 0.326(3) 0.071(3) 1.157(2)
H5 H 0.301(6) 0.557(5) 0.869(4)
H6 H 0.374(5) 0.474(4) 0.761(3)
H7 H 0.194(7) 0.582(6) 0.792(4)
H8 H -0.216(3) 0.317(3) 0.814(2)
H9 H -0.291(4) 0.489(3) 0.764(2)
H10 H -0.304(4) 0.453(3) 0.894(2)
S2 S 0.11915(5) 0.09886(5) 0.62536(4)
O3 O 0.3057(2) 0.4238(2) 0.45232(12)
O4 O 0.4252(2) -0.01467(13) 0.71756(11)
C8 C 0.3329(2) 0.0950(2) 0.64702(13)
C9 C 0.3991(2) 0.2108(2) 0.5903(1)
C10 C 0.2782(2) 0.3142(2) 0.5183(1)
C11 C 0.1009(2) 0.2748(2) 0.5283(1)
C12 C 0.3643(3) -0.1480(2) 0.7597(2)
C13 C 0.5785(3) 0.2270(2) 0.5978(2)
C14 C 0.0748(3) 0.2505(2) 0.4115(2)
H11 H -0.009(3) 0.358(3) 0.568(2)
H12 H 0.183(4) 0.164(3) 0.376(2)
H13 H -0.040(3) 0.223(3) 0.421(2)
H14 H 0.069(3) 0.345(3) 0.363(2)
H15 H 0.240(4) -0.116(3) 0.799(2)
H16 H 0.385(3) -0.215(3) 0.697(2)
H17 H 0.442(4) -0.210(3) 0.817(2)
H18 H 0.686(4) 0.151(4) 0.556(3)
H19 H 0.593(4) 0.208(4) 0.673(3)
H20 H 0.577(4) 0.334(3) 0.572(2)
loop_
_geom_bond_atom_site_label_1
_geom_bond_atom_site_label_2
_geom_bond_site_symmetry_1
_geom_bond_site_symmetry_2
S1 C1 1_555 1_555
O1 C3 1_555 1_555
O2 C1 1_555 1_555
C1 C2 1_555 1_555
C2 C3 1_555 1_555
C3 C4 1_555 1_555
C4 S1 1_555 1_555
C5 O2 1_555 1_555
C6 C2 1_555 1_555
C7 C4 1_555 1_555
H1 C4 1_555 1_555
H2 C7 1_555 1_555
H3 C7 1_555 1_555
H4 C7 1_555 1_555
H5 C6 1_555 1_555
H6 C6 1_555 1_555
H7 C6 1_555 1_555
H8 C5 1_555 1_555
H9 C5 1_555 1_555
H10 C5 1_555 1_555
S2 C8 1_555 1_555
O3 C10 1_555 1_555
O4 C8 1_555 1_555
C8 C9 1_555 1_555
C9 C10 1_555 1_555
C10 C11 1_555 1_555
C11 S2 1_555 1_555
C12 O4 1_555 1_555
C13 C9 1_555 1_555
C14 C11 1_555 1_555
H11 C11 1_555 1_555
H12 C14 1_555 1_555
H13 C14 1_555 1_555
H14 C14 1_555 1_555
H15 C12 1_555 1_555
H16 C12 1_555 1_555
H17 C12 1_555 1_555
H18 C13 1_555 1_555
H19 C13 1_555 1_555
H20 C13 1_555 1_555

#END
