
#######################################################################
#
#                 Cambridge Crystallographic Data Centre
#                                CCDC 
#
#######################################################################
#
# If this CIF has been generated from an entry in the Cambridge 
# Structural Database, then it will include bibliographic, chemical, 
# crystal, experimental, refinement or atomic coordinate data resulting 
# from the CCDC's data processing and validation procedures.
#
#######################################################################

data_DAGWIU
_chemical_formula_moiety         'C21 H18 O6'
_chemical_name_systematic        
9-methyl-2-(3,4,5-trimethoxyphenyl)-4H-furo[2,3-h]chromen-4-one
_symmetry_cell_setting           triclinic
_symmetry_space_group_name_H-M   'P -1'
_symmetry_Int_Tables_number      2
_space_group_name_Hall           '-P 1'
loop_
_symmetry_equiv_pos_site_id
_symmetry_equiv_pos_as_xyz
1 x,y,z
2 -x,-y,-z
_cell_length_a                   7.8443(9)
_cell_length_b                   8.5920(7)
_cell_length_c                   13.6376(15)
_cell_angle_alpha                99.373(8)
_cell_angle_beta                 104.877(10)
_cell_angle_gamma                99.890(8)
_cell_volume                     854.213
_exptl_crystal_colour            colorless
_exptl_crystal_description       plate
_cell_formula_units_Z            2
_exptl_crystal_recrystallization_method ethanol
loop_
_atom_site_label
_atom_site_type_symbol
_atom_site_fract_x
_atom_site_fract_y
_atom_site_fract_z
O1 O 0.7785(2) 0.70508(18) 0.85830(13)
O2 O 0.11115(19) 0.98445(17) 0.64976(12)
O3 O 0.47080(16) 0.77568(14) 0.53784(10)
O4 O 0.1143(2) 0.83501(19) 0.10228(12)
O5 O 0.3906(2) 0.71737(18) 0.06468(12)
O6 O 0.63166(19) 0.63716(18) 0.21386(12)
C1 C 0.3839(3) 0.8772(3) 0.79120(17)
H1 H 0.3035 0.9231 0.8197
C2 C 0.5193(3) 0.8268(3) 0.85502(18)
H2 H 0.5327 0.8367 0.9257
C3 C 0.6347(3) 0.7604(2) 0.80793(18)
C4 C 0.6223(3) 0.7409(2) 0.70342(17)
C5 C 0.4819(3) 0.7943(2) 0.64126(15)
C6 C 0.3620(3) 0.8620(2) 0.68371(16)
C7 C 0.2202(3) 0.9195(2) 0.61649(16)
C8 C 0.2165(3) 0.8944(2) 0.50892(16)
H3 H 0.1276 0.9270 0.4624
C9 C 0.3371(2) 0.8255(2) 0.47285(15)
C10 C 0.3466(2) 0.7941(2) 0.36512(15)
C11 C 0.4867(3) 0.7285(2) 0.34319(16)
H4 H 0.5719 0.7034 0.3960
C12 C 0.4987(3) 0.7008(2) 0.24244(17)
C13 C 0.3717(3) 0.7371(2) 0.16319(16)
C14 C 0.2309(3) 0.8021(2) 0.18488(16)
C15 C 0.2185(3) 0.8309(2) 0.28606(16)
H5 H 0.1249 0.8746 0.3007
C16 C 0.7695(3) 0.6686(2) 0.68799(19)
C17 C 0.8542(3) 0.6506(3) 0.7819(2)
H6 H 0.9552 0.6056 0.7950
C18 C 0.8142(3) 0.6220(3) 0.58911(19)
H7 H 0.7135 0.5442 0.5399
H8 H 0.9186 0.5756 0.6023
H9 H 0.8394 0.7163 0.5614
C19 C -0.0356(3) 0.8981(3) 0.11874(19)
H10 H -0.1031 0.9204 0.0552
H11 H 0.0080 0.9962 0.1715
H12 H -0.1126 0.8201 0.1407
C20 C 0.2804(4) 0.5750(3) -0.0057(2)
H13 H 0.2986 0.5728 -0.0728
H14 H 0.1557 0.5733 -0.0109
H15 H 0.3120 0.4822 0.0189
C21 C 0.7663(3) 0.6019(3) 0.2928(2)
H16 H 0.8568 0.5674 0.2641
H17 H 0.7122 0.5172 0.3207
H18 H 0.8213 0.6971 0.3471
loop_
_geom_bond_atom_site_label_1
_geom_bond_atom_site_label_2
_geom_bond_site_symmetry_1
_geom_bond_site_symmetry_2
O1 C3 1_555 1_555
O2 C7 1_555 1_555
O3 C5 1_555 1_555
O4 C14 1_555 1_555
O5 C13 1_555 1_555
O6 C12 1_555 1_555
C1 H1 1_555 1_555
C2 C1 1_555 1_555
H2 C2 1_555 1_555
C3 C2 1_555 1_555
C4 C3 1_555 1_555
C5 C4 1_555 1_555
C6 C1 1_555 1_555
C7 C6 1_555 1_555
C8 C7 1_555 1_555
H3 C8 1_555 1_555
C9 O3 1_555 1_555
C10 C9 1_555 1_555
C11 C10 1_555 1_555
H4 C11 1_555 1_555
C12 C11 1_555 1_555
C13 C12 1_555 1_555
C14 C13 1_555 1_555
C15 C10 1_555 1_555
H5 C15 1_555 1_555
C16 C4 1_555 1_555
C17 O1 1_555 1_555
H6 C17 1_555 1_555
C18 C16 1_555 1_555
H7 C18 1_555 1_555
H8 C18 1_555 1_555
H9 C18 1_555 1_555
C19 O4 1_555 1_555
H10 C19 1_555 1_555
H11 C19 1_555 1_555
H12 C19 1_555 1_555
C20 O5 1_555 1_555
H13 C20 1_555 1_555
H14 C20 1_555 1_555
H15 C20 1_555 1_555
C21 O6 1_555 1_555
H16 C21 1_555 1_555
H17 C21 1_555 1_555
H18 C21 1_555 1_555
C5 C6 1_555 1_555
C8 C9 1_555 1_555
C14 C15 1_555 1_555
C16 C17 1_555 1_555

#END
