
#######################################################################
#
#                 Cambridge Crystallographic Data Centre
#                                CCDC 
#
#######################################################################
#
# If this CIF has been generated from an entry in the Cambridge 
# Structural Database, then it will include bibliographic, chemical, 
# crystal, experimental, refinement or atomic coordinate data resulting 
# from the CCDC's data processing and validation procedures.
#
#######################################################################

data_DAHMOQ
_chemical_compound_source        'Aegiceras corniculatum'
_chemical_name_common            'tetrahydroaltersolanol B hydrate'
_chemical_formula_moiety         'C16 H20 O6,2.5(H2 O1)'
_chemical_name_systematic        
'2,3,8,10-Tetrahydroxy-6-methoxy-3-methyl-1,3,4,4a,9a,10-hexahydroanthracen-9(2H)-one hydrate'
_symmetry_cell_setting           monoclinic
_symmetry_space_group_name_H-M   'C 2'
_symmetry_Int_Tables_number      5
_space_group_name_Hall           'C 2y'
loop_
_symmetry_equiv_pos_site_id
_symmetry_equiv_pos_as_xyz
1 x,y,z
2 -x,y,-z
3 1/2+x,1/2+y,z
4 1/2-x,1/2+y,-z
_cell_length_a                   37.306(6)
_cell_length_b                   5.8251(10)
_cell_length_c                   7.9087(13)
_cell_angle_alpha                90
_cell_angle_beta                 102.210(3)
_cell_angle_gamma                90
_cell_volume                     1679.77
_exptl_crystal_colour            colorless
_exptl_crystal_description       plane
_cell_formula_units_Z            4
loop_
_atom_site_label
_atom_site_type_symbol
_atom_site_fract_x
_atom_site_fract_y
_atom_site_fract_z
O1 O 0.18782(5) 0.1164(3) 0.6592(2)
O2 O 0.08836(5) -0.3870(3) 0.3493(2)
O3 O 0.19969(4) 0.5116(3) 1.4160(2)
C1 C 0.07446(6) -0.3692(4) 0.6376(3)
O4 O 0.10741(4) -0.0509(3) 1.1477(2)
C2 C 0.17304(5) 0.0558(4) 0.7787(3)
O5 O 0.05289(4) -0.1659(3) 0.5873(2)
C3 C 0.17980(6) 0.1753(4) 0.9431(3)
O6 O 0.22145(5) 0.4377(4) 0.8468(2)
C4 C 0.20457(6) 0.3623(4) 0.9718(3)
C5 C 0.21217(6) 0.4788(4) 1.1291(3)
H1 H 0.2290 0.6035 1.1472
C6 C 0.13506(6) -0.0900(4) 1.0508(3)
H2 H 0.1487 -0.2328 1.0953
C7 C 0.16188(6) 0.1110(4) 1.0786(3)
C8 C 0.11764(6) -0.1246(4) 0.8597(3)
H3 H 0.1025 0.0140 0.8181
C9 C 0.13032(6) -0.1816(5) 0.5601(3)
H4 H 0.1167 -0.0413 0.5143
H5 H 0.1501 -0.2049 0.4959
C10 C 0.16901(6) 0.2275(4) 1.2328(3)
H6 H 0.1567 0.1861 1.3218
C11 C 0.10439(6) -0.3865(4) 0.5298(3)
H7 H 0.1187 -0.5311 0.5606
C12 C 0.14736(6) -0.1475(4) 0.7527(3)
H8 H 0.1622 -0.2874 0.7941
C13 C 0.22473(7) 0.7017(5) 1.4496(3)
H9 H 0.2255 0.7608 1.5663
H10 H 0.2165 0.8234 1.3647
H11 H 0.2493 0.6505 1.4406
C14 C 0.09266(6) -0.3345(4) 0.8292(3)
H12 H 0.0733 -0.3176 0.8969
H13 H 0.1072 -0.4728 0.8720
C15 C 0.04988(7) -0.5800(5) 0.6142(3)
H14 H 0.0311 -0.5628 0.6834
H15 H 0.0647 -0.7168 0.6524
H16 H 0.0380 -0.5963 0.4919
C16 C 0.19464(6) 0.4088(5) 1.2592(3)
H17 H 0.2136(8) 0.351(6) 0.770(4)
H18 H 0.1027(7) -0.173(6) 1.206(3)
H19 H 0.0430(9) -0.170(6) 0.490(5)
H20 H 0.0767(10) -0.509(8) 0.318(5)
O7 O 0.0000 -0.4465(5) 0.0000
H21 H -0.0182(10) -0.534(9) -0.054(5)
H21A H 0.0182(10) -0.534(9) 0.054(5)
O8 O -0.00675(5) -0.0998(4) 0.7426(2)
H22 H 0.0137(8) -0.107(5) 0.722(3)
H23 H -0.0018(10) -0.205(9) 0.830(5)
O9 O 0.05187(6) -0.7544(3) 0.1769(3)
H24 H 0.0698(9) -0.832(6) 0.167(4)
H25 H 0.0374(10) -0.846(8) 0.213(5)
loop_
_geom_bond_atom_site_label_1
_geom_bond_atom_site_label_2
_geom_bond_site_symmetry_1
_geom_bond_site_symmetry_2
O1 C2 1_555 1_555
O2 C11 1_555 1_555
O3 C13 1_555 1_555
C1 O5 1_555 1_555
O4 C6 1_555 1_555
C2 C3 1_555 1_555
O5 H19 1_555 1_555
C3 C4 1_555 1_555
O6 C4 1_555 1_555
C4 C5 1_555 1_555
C5 H1 1_555 1_555
C6 H2 1_555 1_555
C7 C3 1_555 1_555
C8 C6 1_555 1_555
H3 C8 1_555 1_555
C9 H4 1_555 1_555
H5 C9 1_555 1_555
C10 C7 1_555 1_555
H6 C10 1_555 1_555
C11 C1 1_555 1_555
H7 C11 1_555 1_555
C12 C2 1_555 1_555
H8 C12 1_555 1_555
C13 H9 1_555 1_555
H10 C13 1_555 1_555
H11 C13 1_555 1_555
C14 C1 1_555 1_555
H12 C14 1_555 1_555
H13 C14 1_555 1_555
C15 C1 1_555 1_555
H14 C15 1_555 1_555
H15 C15 1_555 1_555
H16 C15 1_555 1_555
C16 O3 1_555 1_555
H17 O6 1_555 1_555
H18 O4 1_555 1_555
H20 O2 1_555 1_555
O7 H21 1_555 1_555
O8 H22 1_555 1_555
H23 O8 1_555 1_555
O9 H24 1_555 1_555
H25 O9 1_555 1_555
H21A O7 1_555 1_555
C5 C16 1_555 1_555
C6 C7 1_555 1_555
C8 C12 1_555 1_555
C8 C14 1_555 1_555
C9 C11 1_555 1_555
C9 C12 1_555 1_555
C10 C16 1_555 1_555

#END
