
#######################################################################
#
#                 Cambridge Crystallographic Data Centre
#                                CCDC 
#
#######################################################################
#
# If this CIF has been generated from an entry in the Cambridge 
# Structural Database, then it will include bibliographic, chemical, 
# crystal, experimental, refinement or atomic coordinate data resulting 
# from the CCDC's data processing and validation procedures.
#
#######################################################################

data_DAHNUY
_chemical_formula_moiety         'C26 H26 F9 N3 O1 S1'
_chemical_name_systematic        
1-(3,5-bis(trifluoromethyl)phenyl)-3-(3,3-dimethyl-1-oxo-1-(2-(4-(trifluoromethyl)phenyl)pyrrolidin-1-yl)butan-2-yl)thiourea
_symmetry_cell_setting           trigonal
_symmetry_space_group_name_H-M   'P 32 2 1'
_symmetry_Int_Tables_number      154
_space_group_name_Hall           'P 32 2"'
loop_
_symmetry_equiv_pos_site_id
_symmetry_equiv_pos_as_xyz
1 x,y,z
2 -y,x-y,2/3+z
3 -x+y,-x,1/3+z
4 y,x,-z
5 x-y,-y,1/3-z
6 -x,-x+y,2/3-z
_cell_length_a                   12.3403(17)
_cell_length_b                   12.3403(17)
_cell_length_c                   31.681(4)
_cell_angle_alpha                90
_cell_angle_beta                 90
_cell_angle_gamma                120
_cell_volume                     4178.12
_exptl_crystal_colour            colorless
_exptl_crystal_description       block
_cell_formula_units_Z            6
loop_
_atom_site_label
_atom_site_type_symbol
_atom_site_fract_x
_atom_site_fract_y
_atom_site_fract_z
C1 C 0.4415(3) 0.7025(3) 0.31907(9)
H1 H 0.5088 0.6954 0.3306
C2 C 0.3697(3) 0.7300(3) 0.34553(10)
H2 H 0.3880 0.7426 0.3749
C3 C 0.2704(3) 0.7393(3) 0.32885(10)
C4 C 0.2433(3) 0.7196(3) 0.28626(9)
H3 H 0.1743 0.7242 0.2750
C5 C 0.3172(3) 0.6930(3) 0.25976(9)
H4 H 0.2989 0.6804 0.2304
C6 C 0.4176(2) 0.6848(2) 0.27601(8)
C7 C 0.4983(2) 0.6503(2) 0.25000(8)
H5 H 0.5884 0.7065 0.2574
C8 C 0.4632(3) 0.5135(3) 0.25634(9)
H6 H 0.5341 0.5007 0.2492
H7 H 0.4368 0.4863 0.2858
C9 C 0.3546(3) 0.4436(3) 0.22569(9)
H8 H 0.2763 0.4355 0.2371
H9 H 0.3413 0.3592 0.2194
C10 C 0.3986(3) 0.5275(3) 0.18632(9)
H10 H 0.4454 0.5029 0.1669
H11 H 0.3268 0.5237 0.1710
C11 C 0.5308(2) 0.7646(2) 0.18407(8)
C12 C 0.5245(2) 0.7648(2) 0.13560(8)
H12 H 0.4474 0.6867 0.1265
C13 C 0.3997(2) 0.8649(2) 0.12204(7)
C14 C 0.3014(2) 0.9886(2) 0.10161(7)
C15 C 0.2861(2) 1.0816(2) 0.12016(7)
H13 H 0.3432 1.1348 0.1410
C16 C 0.1851(2) 1.0962(2) 0.10768(7)
C17 C 0.1012(2) 1.0198(2) 0.07744(7)
H14 H 0.0331 1.0305 0.0692
C18 C 0.1184(2) 0.9262(2) 0.05917(7)
C19 C 0.2177(2) 0.9109(2) 0.07117(7)
H15 H 0.2286 0.8471 0.0586
C20 C 0.1931(9) 0.7605(10) 0.3603(3)
F1 F 0.0834(8) 0.6496(6) 0.3674(2)
F2 F 0.1545(5) 0.8342(5) 0.34408(17)
F3 F 0.2420(4) 0.7941(6) 0.39833(16)
C21 C 0.6390(3) 0.7714(3) 0.11183(8)
C22 C 0.7621(3) 0.8863(3) 0.12433(9)
H16 H 0.7588 0.9621 0.1176
H17 H 0.8310 0.8868 0.1088
H18 H 0.7757 0.8839 0.1547
C23 C 0.6483(3) 0.6554(3) 0.12180(10)
H19 H 0.6579 0.6503 0.1523
H20 H 0.7209 0.6608 0.1072
H21 H 0.5721 0.5805 0.1123
C24 C 0.6158(3) 0.7732(3) 0.06421(9)
H22 H 0.5362 0.6991 0.0566
H23 H 0.6839 0.7728 0.0485
H24 H 0.6125 0.8488 0.0572
C25 C 0.1693(3) 1.1950(3) 0.12916(8)
F4 F 0.27158(18) 1.30887(15) 0.12483(6)
F5 F 0.15278(17) 1.17478(17) 0.17117(5)
F6 F 0.07186(17) 1.20273(17) 0.11474(5)
C26 C 0.0303(3) 0.8442(3) 0.02568(8)
F7 F -0.08924(16) 0.80383(18) 0.03548(6)
F8 F 0.03998(17) 0.74338(16) 0.01788(6)
F9 F 0.05007(18) 0.90487(17) -0.01126(5)
N1 N 0.4809(2) 0.6541(2) 0.20398(7)
N2 N 0.5113(2) 0.8710(2) 0.12334(7)
N3 N 0.4062(2) 0.9760(2) 0.11298(7)
O1 O 0.58035(17) 0.86438(17) 0.20397(6)
S1 S 0.26364(6) 0.73218(6) 0.131885(19)
H25 H 0.476(4) 1.041(4) 0.1143(12)
H26 H 0.576(4) 0.946(4) 0.1245(12)
C27? C 0.1899(11) 0.7738(12) 0.3548(3)
F10? F 0.0928(10) 0.6777(8) 0.3753(3)
F11? F 0.1165(6) 0.8119(7) 0.3305(2)
F12? F 0.2527(5) 0.8670(7) 0.3810(2)
loop_
_geom_bond_atom_site_label_1
_geom_bond_atom_site_label_2
_geom_bond_site_symmetry_1
_geom_bond_site_symmetry_2
C1 H1 1_555 1_555
C2 C1 1_555 1_555
H2 C2 1_555 1_555
C3 C2 1_555 1_555
C4 C3 1_555 1_555
H3 C4 1_555 1_555
C5 C4 1_555 1_555
H4 C5 1_555 1_555
C6 C1 1_555 1_555
C7 C6 1_555 1_555
H5 C7 1_555 1_555
C8 C7 1_555 1_555
H6 C8 1_555 1_555
H7 C8 1_555 1_555
C9 C8 1_555 1_555
H8 C9 1_555 1_555
H9 C9 1_555 1_555
C10 C9 1_555 1_555
H10 C10 1_555 1_555
H11 C10 1_555 1_555
C11 C12 1_555 1_555
C12 H12 1_555 1_555
C13 N2 1_555 1_555
C14 C15 1_555 1_555
C15 H13 1_555 1_555
C16 C15 1_555 1_555
C17 C16 1_555 1_555
H14 C17 1_555 1_555
C18 C17 1_555 1_555
C19 C14 1_555 1_555
H15 C19 1_555 1_555
C20 C3 1_555 1_555
F1 C20 1_555 1_555
F2 C20 1_555 1_555
F3 C20 1_555 1_555
C21 C12 1_555 1_555
C22 C21 1_555 1_555
H16 C22 1_555 1_555
H17 C22 1_555 1_555
H18 C22 1_555 1_555
C23 C21 1_555 1_555
H19 C23 1_555 1_555
H20 C23 1_555 1_555
H21 C23 1_555 1_555
C24 C21 1_555 1_555
H22 C24 1_555 1_555
H23 C24 1_555 1_555
H24 C24 1_555 1_555
C25 C16 1_555 1_555
F4 C25 1_555 1_555
F5 C25 1_555 1_555
F6 C25 1_555 1_555
C26 C18 1_555 1_555
F7 C26 1_555 1_555
F8 C26 1_555 1_555
F9 C26 1_555 1_555
N1 C7 1_555 1_555
N2 C12 1_555 1_555
N3 C13 1_555 1_555
O1 C11 1_555 1_555
S1 C13 1_555 1_555
H25 N3 1_555 1_555
H26 N2 1_555 1_555
C5 C6 1_555 1_555
C10 N1 1_555 1_555
C11 N1 1_555 1_555
C14 N3 1_555 1_555
C18 C19 1_555 1_555

#END
