
#######################################################################
#
#                 Cambridge Crystallographic Data Centre
#                                CCDC 
#
#######################################################################
#
# If this CIF has been generated from an entry in the Cambridge 
# Structural Database, then it will include bibliographic, chemical, 
# crystal, experimental, refinement or atomic coordinate data resulting 
# from the CCDC's data processing and validation procedures.
#
#######################################################################

data_DAHQOV
_chemical_formula_moiety         'C23 H33 F1 N2 O3'
_chemical_name_systematic        
't-butyl (1-(2-(4-fluorophenyl)-2-methylpyrrolidin-1-yl)-3,3-dimethyl-1-oxopent-4-en-2-yl)carbamate'
_symmetry_cell_setting           monoclinic
_symmetry_space_group_name_H-M   'P 21'
_symmetry_Int_Tables_number      4
_space_group_name_Hall           'P 2yb'
loop_
_symmetry_equiv_pos_site_id
_symmetry_equiv_pos_as_xyz
1 x,y,z
2 -x,1/2+y,-z
_cell_length_a                   9.5124(6)
_cell_length_b                   11.6095(7)
_cell_length_c                   10.1757(6)
_cell_angle_alpha                90
_cell_angle_beta                 97.068(4)
_cell_angle_gamma                90
_cell_volume                     1115.21
_exptl_crystal_colour            colorless
_exptl_crystal_description       plate
_cell_formula_units_Z            2
loop_
_atom_site_label
_atom_site_type_symbol
_atom_site_fract_x
_atom_site_fract_y
_atom_site_fract_z
H1 H 1.062(2) 0.5810(16) 0.8021(17)
C1 C 0.40776(16) 0.70168(15) 0.51060(17)
H2 H 0.3498 0.7536 0.5521
C2 C 0.39451(17) 0.69761(15) 0.37375(17)
H3 H 0.3286 0.7455 0.3216
C3 C 0.47911(17) 0.62257(16) 0.31576(16)
C4 C 0.57476(16) 0.55190(15) 0.38850(16)
H4 H 0.6320 0.5004 0.3457
C5 C 0.58644(15) 0.55691(13) 0.52595(15)
H5 H 0.6522 0.5082 0.5771
C6 C 0.50330(14) 0.63225(13) 0.58972(15)
C7 C 0.50816(15) 0.63625(13) 0.74008(15)
C8 C 0.38632(15) 0.56327(15) 0.78493(16)
H6 H 0.3582 0.5931 0.8690
H7 H 0.3026 0.5640 0.7167
C9 C 0.44697(16) 0.44275(15) 0.80326(16)
H8 H 0.4484 0.4034 0.7171
H9 H 0.3924 0.3956 0.8603
C10 C 0.59637(15) 0.46576(13) 0.87017(15)
H10 H 0.5979 0.4742 0.9671
H11 H 0.6618 0.4031 0.8520
C11 C 0.76614(14) 0.61529(12) 0.80471(13)
C12 C 0.88987(14) 0.55684(12) 0.89054(13)
H12 H 0.8545 0.4850 0.9297
C13 C 0.97121(14) 0.44918(13) 0.70936(13)
C14 C 1.07022(16) 0.38088(14) 0.51018(15)
C15 C 0.50163(18) 0.75964(14) 0.79247(18)
H13 H 0.5180 0.7588 0.8895
H14 H 0.4081 0.7925 0.7634
H15 H 0.5747 0.8064 0.7581
C16 C 0.95408(15) 0.63800(14) 1.00539(14)
C17 C 1.02689(17) 0.73899(14) 0.94911(15)
H16 H 0.9678 0.7928 0.8983
C18 C 1.16407(18) 0.75999(15) 0.96339(17)
H17 H 1.2277 0.7088 1.0133
H18 H 1.1994 0.8264 0.9237
C19 C 1.05617(18) 0.56758(17) 1.10202(16)
H19 H 1.0041 0.5052 1.1394
H20 H 1.0990 0.6176 1.1735
H21 H 1.1307 0.5348 1.0550
C20 C 0.83325(19) 0.68460(19) 1.07787(18)
H22 H 0.7709 0.7334 1.0175
H23 H 0.8731 0.7300 1.1547
H24 H 0.7788 0.6200 1.1075
C21 C 0.93651(17) 0.40566(16) 0.41799(16)
H25 H 0.8540 0.3801 0.4592
H26 H 0.9395 0.3644 0.3344
H27 H 0.9293 0.4886 0.4007
C22 C 1.19821(18) 0.42313(16) 0.44882(18)
H28 H 1.1891 0.5060 0.4316
H29 H 1.2039 0.3823 0.3653
H30 H 1.2843 0.4084 0.5098
C23 C 1.0826(2) 0.25560(16) 0.54857(18)
H31 H 1.1687 0.2439 0.6107
H32 H 1.0876 0.2087 0.4692
H33 H 0.9997 0.2327 0.5907
N1 N 0.63399(11) 0.57485(10) 0.80893(11)
N2 N 0.99964(12) 0.52636(11) 0.80935(12)
O1 O 0.79022(10) 0.69838(9) 0.73629(10)
O2 O 1.07379(10) 0.45359(10) 0.63004(10)
O3 O 0.86872(11) 0.38656(9) 0.69678(10)
F1 F 0.46827(11) 0.61777(11) 0.18075(10)
loop_
_geom_bond_atom_site_label_1
_geom_bond_atom_site_label_2
_geom_bond_site_symmetry_1
_geom_bond_site_symmetry_2
H1 N2 1_555 1_555
C1 H2 1_555 1_555
C2 C1 1_555 1_555
H3 C2 1_555 1_555
C3 C2 1_555 1_555
C4 C3 1_555 1_555
H4 C4 1_555 1_555
C5 C4 1_555 1_555
H5 C5 1_555 1_555
C6 C1 1_555 1_555
C7 C6 1_555 1_555
C8 C7 1_555 1_555
H6 C8 1_555 1_555
H7 C8 1_555 1_555
C9 C8 1_555 1_555
H8 C9 1_555 1_555
H9 C9 1_555 1_555
C10 C9 1_555 1_555
H10 C10 1_555 1_555
H11 C10 1_555 1_555
C11 C12 1_555 1_555
C12 H12 1_555 1_555
C13 N2 1_555 1_555
C14 C21 1_555 1_555
C15 C7 1_555 1_555
H13 C15 1_555 1_555
H14 C15 1_555 1_555
H15 C15 1_555 1_555
C16 C12 1_555 1_555
C17 C16 1_555 1_555
H16 C17 1_555 1_555
C18 C17 1_555 1_555
H17 C18 1_555 1_555
H18 C18 1_555 1_555
C19 C16 1_555 1_555
H19 C19 1_555 1_555
H20 C19 1_555 1_555
H21 C19 1_555 1_555
C20 C16 1_555 1_555
H22 C20 1_555 1_555
H23 C20 1_555 1_555
H24 C20 1_555 1_555
C21 H25 1_555 1_555
H26 C21 1_555 1_555
H27 C21 1_555 1_555
C22 C14 1_555 1_555
H28 C22 1_555 1_555
H29 C22 1_555 1_555
H30 C22 1_555 1_555
C23 C14 1_555 1_555
H31 C23 1_555 1_555
H32 C23 1_555 1_555
H33 C23 1_555 1_555
N1 C7 1_555 1_555
N2 C12 1_555 1_555
O1 C11 1_555 1_555
O2 C13 1_555 1_555
O3 C13 1_555 1_555
F1 C3 1_555 1_555
C5 C6 1_555 1_555
C10 N1 1_555 1_555
C11 N1 1_555 1_555
C14 O2 1_555 1_555

#END
