
#######################################################################
#
#                 Cambridge Crystallographic Data Centre
#                                CCDC 
#
#######################################################################
#
# If this CIF has been generated from an entry in the Cambridge 
# Structural Database, then it will include bibliographic, chemical, 
# crystal, experimental, refinement or atomic coordinate data resulting 
# from the CCDC's data processing and validation procedures.
#
#######################################################################

data_DAHTAK
_chemical_formula_moiety         'C27 H29 N4 1+,B1 F4 1-'
_chemical_name_systematic        
'1,3-dimesityl-2-(phenyldiazenyl)-1H-imidazol-3-ium tetrafluoroborate'
_symmetry_cell_setting           monoclinic
_symmetry_space_group_name_H-M   'C 2/c'
_symmetry_Int_Tables_number      15
_space_group_name_Hall           '-C 2yn'
loop_
_symmetry_equiv_pos_site_id
_symmetry_equiv_pos_as_xyz
1 x,y,z
2 -x,y,1/2-z
3 1/2+x,1/2+y,z
4 1/2-x,1/2+y,1/2-z
5 -x,-y,-z
6 x,-y,1/2+z
7 1/2-x,1/2-y,-z
8 1/2+x,1/2-y,1/2+z
_cell_length_a                   14.7646(4)
_cell_length_b                   14.5195(3)
_cell_length_c                   25.3268(4)
_cell_angle_alpha                90
_cell_angle_beta                 90.462(2)
_cell_angle_gamma                90
_cell_volume                     5429.25
_exptl_crystal_colour            red
_exptl_crystal_description       prism
_cell_formula_units_Z            8
loop_
_atom_site_label
_atom_site_type_symbol
_atom_site_fract_x
_atom_site_fract_y
_atom_site_fract_z
N1 N 0.12841(10) 0.10617(10) 0.35905(5)
N2 N 0.14398(10) 0.02523(10) 0.37782(5)
N3 N 0.31169(10) 0.06137(10) 0.38543(5)
N4 N 0.25323(10) -0.04844(10) 0.43548(5)
C1 C 0.23325(12) 0.01633(11) 0.39778(6)
C2 C 0.38222(13) 0.02374(13) 0.41612(7)
H1 H 0.4441 0.0416 0.4153
C3 C 0.34540(13) -0.04363(14) 0.44757(7)
H2 H 0.3769 -0.0801 0.4728
C4 C 0.32608(11) 0.13282(11) 0.34453(6)
C5 C 0.31182(12) 0.22659(12) 0.35786(7)
C6 C 0.33005(13) 0.29327(12) 0.31844(7)
H3 H 0.3202 0.3566 0.3260
C7 C 0.36270(12) 0.26766(12) 0.26802(7)
C8 C 0.37650(12) 0.17323(12) 0.25666(6)
H4 H 0.3984 0.1560 0.2229
C9 C 0.35844(11) 0.10360(11) 0.29454(6)
C10 C 0.27742(15) 0.25590(14) 0.41229(8)
H5 H 0.3276 0.2542 0.4379
H6 H 0.2296 0.2136 0.4236
H7 H 0.2531 0.3186 0.4102
C11 C 0.38149(15) 0.34128(13) 0.22587(8)
H8 H 0.4192 0.3148 0.1980
H9 H 0.4132 0.3934 0.2422
H10 H 0.3240 0.3625 0.2105
C12 C 0.37431(14) 0.00166(12) 0.28187(7)
H11 H 0.4273 -0.0205 0.3016
H12 H 0.3848 -0.0055 0.2439
H13 H 0.3209 -0.0342 0.2920
C13 C 0.18500(12) -0.10906(12) 0.46021(6)
C14 C 0.17498(12) -0.19994(12) 0.44087(6)
C15 C 0.10499(12) -0.25410(12) 0.46294(6)
H14 H 0.0952 -0.3147 0.4500
C16 C 0.04911(12) -0.22026(12) 0.50386(6)
C17 C 0.06438(13) -0.12965(13) 0.52289(7)
H15 H 0.0280 -0.1071 0.5508
C18 C 0.13186(12) -0.07177(12) 0.50166(6)
C19 C 0.23755(14) -0.24029(13) 0.39870(7)
H16 H 0.2525 -0.1924 0.3729
H17 H 0.2068 -0.2914 0.3807
H18 H 0.2933 -0.2628 0.4155
C20 C -0.02583(14) -0.28049(15) 0.52748(8)
H19 H -0.0372 -0.3334 0.5043
H20 H -0.0814 -0.2442 0.5308
H21 H -0.0067 -0.3024 0.5624
C21 C 0.14837(14) 0.02526(13) 0.52317(8)
H22 H 0.1050 0.0382 0.5513
H23 H 0.1404 0.0702 0.4946
H24 H 0.2102 0.0295 0.5373
C22 C 0.03902(12) 0.11992(11) 0.33819(6)
C23 C -0.02686(13) 0.04941(12) 0.33117(7)
H25 H -0.0130 -0.0127 0.3398
C24 C -0.11276(13) 0.07338(14) 0.31127(7)
H26 H -0.1574 0.0270 0.3062
C25 C -0.13326(14) 0.16584(15) 0.29873(8)
H27 H -0.1915 0.1811 0.2852
C26 C -0.06835(15) 0.23529(15) 0.30607(9)
H28 H -0.0829 0.2974 0.2979
C27 C 0.01858(14) 0.21273(13) 0.32562(8)
H29 H 0.0630 0.2594 0.3303
B1 B 0.11736(15) 0.49472(15) 0.38033(8)
F1 F 0.11051(9) 0.49145(9) 0.43614(4)
F2 F 0.07532(9) 0.57756(8) 0.36298(5)
F3 F 0.20771(10) 0.49428(12) 0.36477(6)
F4 F 0.06991(10) 0.42014(9) 0.35827(5)
loop_
_geom_bond_atom_site_label_1
_geom_bond_atom_site_label_2
_geom_bond_site_symmetry_1
_geom_bond_site_symmetry_2
N1 N2 1_555 1_555
N2 C1 1_555 1_555
N3 C1 1_555 1_555
N4 C1 1_555 1_555
C2 N3 1_555 1_555
H1 C2 1_555 1_555
C3 N4 1_555 1_555
H2 C3 1_555 1_555
C4 N3 1_555 1_555
C5 C4 1_555 1_555
C6 C5 1_555 1_555
H3 C6 1_555 1_555
C7 C6 1_555 1_555
C8 C7 1_555 1_555
H4 C8 1_555 1_555
C9 C4 1_555 1_555
C10 C5 1_555 1_555
H5 C10 1_555 1_555
H6 C10 1_555 1_555
H7 C10 1_555 1_555
C11 C7 1_555 1_555
H8 C11 1_555 1_555
H9 C11 1_555 1_555
H10 C11 1_555 1_555
C12 C9 1_555 1_555
H11 C12 1_555 1_555
H12 C12 1_555 1_555
H13 C12 1_555 1_555
C13 N4 1_555 1_555
C14 C13 1_555 1_555
C15 C14 1_555 1_555
H14 C15 1_555 1_555
C16 C15 1_555 1_555
C17 C16 1_555 1_555
H15 C17 1_555 1_555
C18 C13 1_555 1_555
C19 C14 1_555 1_555
H16 C19 1_555 1_555
H17 C19 1_555 1_555
H18 C19 1_555 1_555
C20 C16 1_555 1_555
H19 C20 1_555 1_555
H20 C20 1_555 1_555
H21 C20 1_555 1_555
C21 C18 1_555 1_555
H22 C21 1_555 1_555
H23 C21 1_555 1_555
H24 C21 1_555 1_555
C22 N1 1_555 1_555
C23 C22 1_555 1_555
H25 C23 1_555 1_555
C24 C23 1_555 1_555
H26 C24 1_555 1_555
C25 C24 1_555 1_555
H27 C25 1_555 1_555
C26 C25 1_555 1_555
H28 C26 1_555 1_555
C27 C22 1_555 1_555
H29 C27 1_555 1_555
B1 F1 1_555 1_555
F2 B1 1_555 1_555
F3 B1 1_555 1_555
F4 B1 1_555 1_555
C2 C3 1_555 1_555
C8 C9 1_555 1_555
C17 C18 1_555 1_555
C26 C27 1_555 1_555

#END
