
#######################################################################
#
#                 Cambridge Crystallographic Data Centre
#                                CCDC 
#
#######################################################################
#
# If this CIF has been generated from an entry in the Cambridge 
# Structural Database, then it will include bibliographic, chemical, 
# crystal, experimental, refinement or atomic coordinate data resulting 
# from the CCDC's data processing and validation procedures.
#
#######################################################################

data_DAHWOB
_chemical_formula_moiety         'C21 H33 N1 O3 Si1'
_chemical_name_systematic        
'4-(3-(t-butylamino)-3-oxo-1-(trimethylsilyl)prop-1-en-2-yl)phenyl pivalate'
_symmetry_cell_setting           monoclinic
_symmetry_space_group_name_H-M   'P 21/c'
_symmetry_Int_Tables_number      14
_space_group_name_Hall           '-P 2ybc'
loop_
_symmetry_equiv_pos_site_id
_symmetry_equiv_pos_as_xyz
1 x,y,z
2 -x,1/2+y,1/2-z
3 -x,-y,-z
4 x,1/2-y,1/2+z
_cell_length_a                   10.0373(8)
_cell_length_b                   20.8698(17)
_cell_length_c                   10.3716(8)
_cell_angle_alpha                90
_cell_angle_beta                 91.723(2)
_cell_angle_gamma                90
_cell_volume                     2171.62
_exptl_crystal_colour            colorless
_cell_formula_units_Z            4
loop_
_atom_site_label
_atom_site_type_symbol
_atom_site_fract_x
_atom_site_fract_y
_atom_site_fract_z
C1 C 0.48948(10) 0.30240(5) 0.67489(9)
H1 H 0.5273 0.2744 0.6166
C2 C 0.52911(9) 0.29444(4) 0.79874(9)
C3 C 0.65033(9) 0.25549(4) 0.84174(9)
C4 C 0.81010(13) 0.13082(6) 0.87169(13)
H2 H 0.7835 0.1490 0.9520
H3 H 0.8895 0.1058 0.8858
H4 H 0.7401 0.1039 0.8374
C5 C 0.95106(11) 0.22709(6) 0.82614(15)
H5 H 0.9649 0.2611 0.7657
H6 H 1.0311 0.2021 0.8360
H7 H 0.9287 0.2449 0.9080
C6 C 0.87579(12) 0.15516(6) 0.64780(11)
H8 H 0.8066 0.1266 0.6177
H9 H 0.9577 0.1318 0.6591
H10 H 0.8872 0.1887 0.5857
C7 C 0.83748(9) 0.18437(5) 0.77639(9)
C8 C 0.45722(9) 0.32752(4) 0.90396(9)
C9 C 0.51949(10) 0.37432(5) 0.98119(9)
H11 H 0.6106 0.3814 0.9750
C10 C 0.44678(10) 0.41041(5) 1.06709(10)
H12 H 0.4883 0.4419 1.1173
C11 C 0.31153(10) 0.39868(5) 1.07677(9)
C12 C 0.24807(10) 0.35086(5) 1.00630(10)
H13 H 0.1579 0.3426 1.0162
C13 C 0.32199(10) 0.31521(5) 0.91989(9)
H14 H 0.2805 0.2827 0.8722
C14 C 0.21213(9) 0.49695(5) 1.13203(9)
C15 C 0.13001(10) 0.53152(5) 1.23230(9)
C16 C 0.14133(13) 0.50020(5) 1.36502(11)
H15 H 0.1128 0.4564 1.3588
H16 H 0.0860 0.5228 1.4237
H17 H 0.2323 0.5017 1.3961
C17 C 0.17719(11) 0.60114(5) 1.24080(11)
H18 H 0.1238 0.6241 1.3007
H19 H 0.1684 0.6208 1.1573
H20 H 0.2689 0.6023 1.2698
C18 C -0.01527(11) 0.52978(6) 1.18090(13)
H21 H -0.0436 0.4861 1.1713
H22 H -0.0216 0.5509 1.0987
H23 H -0.0713 0.5513 1.2406
C19 C 0.38453(12) 0.44202(5) 0.68443(11)
H24 H 0.4760 0.4554 0.6850
H25 H 0.3555 0.4385 0.7715
H26 H 0.3304 0.4729 0.6386
C20 C 0.19085(11) 0.33466(6) 0.60494(11)
H27 H 0.1366 0.3619 0.5502
H28 H 0.1599 0.3366 0.6915
H29 H 0.1851 0.2913 0.5742
C21 C 0.41859(12) 0.37021(6) 0.43147(11)
H30 H 0.4153 0.3289 0.3906
H31 H 0.5077 0.3868 0.4293
H32 H 0.3587 0.3989 0.3865
N1 N 0.71562(8) 0.22307(4) 0.75101(8)
H33 H 0.6845 0.2249 0.6729
O1 O 0.68645(7) 0.25530(4) 0.95681(6)
O2 O 0.23569(7) 0.43439(3) 1.16400(7)
O3 O 0.24857(8) 0.52025(4) 1.03346(7)
Si1 Si 0.36813(3) 0.36222(2) 0.60273(3)
loop_
_geom_bond_atom_site_label_1
_geom_bond_atom_site_label_2
_geom_bond_site_symmetry_1
_geom_bond_site_symmetry_2
C1 H1 1_555 1_555
C2 C1 1_555 1_555
C3 C2 1_555 1_555
C4 H2 1_555 1_555
H3 C4 1_555 1_555
H4 C4 1_555 1_555
C5 H5 1_555 1_555
H6 C5 1_555 1_555
H7 C5 1_555 1_555
C6 H8 1_555 1_555
H9 C6 1_555 1_555
H10 C6 1_555 1_555
C7 C4 1_555 1_555
C8 C2 1_555 1_555
C9 C8 1_555 1_555
H11 C9 1_555 1_555
C10 C9 1_555 1_555
H12 C10 1_555 1_555
C11 C10 1_555 1_555
C12 C11 1_555 1_555
H13 C12 1_555 1_555
C13 C8 1_555 1_555
H14 C13 1_555 1_555
C14 C15 1_555 1_555
C15 C16 1_555 1_555
C16 H15 1_555 1_555
H16 C16 1_555 1_555
H17 C16 1_555 1_555
C17 C15 1_555 1_555
H18 C17 1_555 1_555
H19 C17 1_555 1_555
H20 C17 1_555 1_555
C18 C15 1_555 1_555
H21 C18 1_555 1_555
H22 C18 1_555 1_555
H23 C18 1_555 1_555
C19 H24 1_555 1_555
H25 C19 1_555 1_555
H26 C19 1_555 1_555
C20 H27 1_555 1_555
H28 C20 1_555 1_555
H29 C20 1_555 1_555
C21 H30 1_555 1_555
H31 C21 1_555 1_555
H32 C21 1_555 1_555
N1 C3 1_555 1_555
H33 N1 1_555 1_555
O1 C3 1_555 1_555
O2 C11 1_555 1_555
O3 C14 1_555 1_555
Si1 C1 1_555 1_555
C5 C7 1_555 1_555
C6 C7 1_555 1_555
C7 N1 1_555 1_555
C12 C13 1_555 1_555
C14 O2 1_555 1_555
C19 Si1 1_555 1_555
C20 Si1 1_555 1_555
C21 Si1 1_555 1_555

#END
