
#######################################################################
#
#                 Cambridge Crystallographic Data Centre
#                                CCDC 
#
#######################################################################
#
# If this CIF has been generated from an entry in the Cambridge 
# Structural Database, then it will include bibliographic, chemical, 
# crystal, experimental, refinement or atomic coordinate data resulting 
# from the CCDC's data processing and validation procedures.
#
#######################################################################

data_DAHYET
_chemical_formula_moiety         'C16 H21 B1 O2'
_chemical_name_systematic        
4,4,5,5-tetramethyl-2-(4-phenylbuta-1,3-dien-1-yl)-1,3,2-dioxaborolane
_symmetry_cell_setting           monoclinic
_symmetry_space_group_name_H-M   'C c'
_symmetry_Int_Tables_number      9
_space_group_name_Hall           'C -2yc'
loop_
_symmetry_equiv_pos_site_id
_symmetry_equiv_pos_as_xyz
1 x,y,z
2 x,-y,1/2+z
3 1/2+x,1/2+y,z
4 1/2+x,1/2-y,1/2+z
_cell_length_a                   8.2753(8)
_cell_length_b                   23.637(3)
_cell_length_c                   15.5395(16)
_cell_angle_alpha                90
_cell_angle_beta                 91.4540(18)
_cell_angle_gamma                90
_cell_volume                     3038.6
_exptl_crystal_colour            colorless
_exptl_crystal_description       block
_cell_formula_units_Z            8
loop_
_atom_site_label
_atom_site_type_symbol
_atom_site_fract_x
_atom_site_fract_y
_atom_site_fract_z
O1 O 0.38976(16) 0.91477(5) 0.92848(10)
O2 O 0.33070(15) 0.82322(5) 0.96381(9)
B1 B 0.2833(2) 0.87072(9) 0.91959(13)
C1 C 0.1270(2) 0.87679(8) 0.86346(12)
H1 H 0.1019 0.9139 0.8438
C2 C 0.0218(2) 0.83572(8) 0.83906(12)
H2 H -0.0669 0.8467 0.8029
C3 C 0.0318(2) 0.77646(8) 0.86293(12)
H3 H 0.1160 0.7645 0.9015
C4 C -0.0738(2) 0.73799(8) 0.83233(11)
H4 H -0.1578 0.7516 0.7950
C5 C -0.0736(2) 0.67700(8) 0.85027(11)
C6 C 0.0248(2) 0.65214(9) 0.91474(13)
H5 H 0.0914 0.6754 0.9507
C7 C 0.0256(3) 0.59387(10) 0.92642(15)
H6 H 0.0930 0.5776 0.9702
C8 C -0.0709(3) 0.55916(9) 0.87470(14)
H7 H -0.0683 0.5193 0.8821
C9 C -0.1717(3) 0.58342(9) 0.81193(14)
H8 H -0.2390 0.5600 0.7766
C10 C -0.1742(2) 0.64135(9) 0.80068(12)
H9 H -0.2455 0.6574 0.7585
C11 C 0.5136(2) 0.89897(8) 0.99309(12)
C12 C 0.4945(2) 0.83279(8) 0.99908(11)
C13 C 0.4729(3) 0.92972(10) 1.07567(14)
H10 H 0.4685 0.9705 1.0648
H11 H 0.5562 0.9217 1.1199
H12 H 0.3677 0.9167 1.0955
C14 C 0.6755(2) 0.91933(9) 0.96045(15)
H13 H 0.6902 0.9053 0.9018
H14 H 0.7629 0.9051 0.9983
H15 H 0.6777 0.9608 0.9602
C15 C 0.5011(3) 0.80866(9) 1.08968(13)
H16 H 0.4209 0.8278 1.1248
H17 H 0.6093 0.8146 1.1152
H18 H 0.4775 0.7680 1.0875
C16 C 0.6094(3) 0.80063(9) 0.94171(13)
H19 H 0.5784 0.7606 0.9396
H20 H 0.7201 0.8040 0.9651
H21 H 0.6038 0.8165 0.8835
O3 O 0.38379(17) 0.62841(5) 0.11322(9)
O4 O 0.37651(17) 0.53210(5) 0.10113(9)
B2 B 0.3048(2) 0.57970(8) 0.13297(13)
C17 C 0.1515(2) 0.57493(8) 0.18802(12)
H22 H 0.1249 0.5380 0.2072
C18 C 0.0516(2) 0.61676(8) 0.21189(12)
H23 H -0.0344 0.6065 0.2481
C19 C 0.0619(2) 0.67594(8) 0.18794(11)
H24 H 0.1437 0.6880 0.1502
C20 C -0.0432(2) 0.71404(8) 0.21853(11)
H25 H -0.1213 0.6999 0.2568
C21 C -0.0511(2) 0.77467(8) 0.19964(11)
C22 C 0.0242(2) 0.79922(8) 0.12849(12)
H26 H 0.0849 0.7762 0.0910
C23 C 0.0103(2) 0.85665(9) 0.11290(13)
H27 H 0.0619 0.8728 0.0648
C24 C -0.0788(2) 0.89117(8) 0.16702(13)
H28 H -0.0881 0.9306 0.1558
C25 C -0.1538(2) 0.86744(8) 0.23744(12)
H29 H -0.2145 0.8906 0.2747
C26 C -0.1400(2) 0.80989(8) 0.25324(11)
H30 H -0.1919 0.7940 0.3014
C27 C 0.5159(2) 0.61418(7) 0.05594(12)
C28 C 0.5336(2) 0.54848(8) 0.06868(12)
C29 C 0.4620(3) 0.63133(10) -0.03408(15)
H31 H 0.3699 0.6079 -0.0529
H32 H 0.5513 0.6259 -0.0735
H33 H 0.4298 0.6712 -0.0342
C30 C 0.6649(3) 0.64764(9) 0.08399(16)
H34 H 0.6466 0.6879 0.0726
H35 H 0.7581 0.6346 0.0517
H36 H 0.6862 0.6419 0.1457
C31 C 0.5627(3) 0.51485(9) -0.01211(15)
H37 H 0.5648 0.4744 0.0017
H38 H 0.6666 0.5259 -0.0359
H39 H 0.4758 0.5224 -0.0545
C32 C 0.6565(3) 0.53277(9) 0.13939(16)
H40 H 0.6341 0.5544 0.1916
H41 H 0.7656 0.5416 0.1204
H42 H 0.6487 0.4922 0.1517
loop_
_geom_bond_atom_site_label_1
_geom_bond_atom_site_label_2
_geom_bond_site_symmetry_1
_geom_bond_site_symmetry_2
O1 B1 1_555 1_555
O2 B1 1_555 1_555
B1 C1 1_555 1_555
C1 H1 1_555 1_555
C2 C1 1_555 1_555
H2 C2 1_555 1_555
C3 C2 1_555 1_555
H3 C3 1_555 1_555
C4 C3 1_555 1_555
H4 C4 1_555 1_555
C5 C4 1_555 1_555
C6 C5 1_555 1_555
H5 C6 1_555 1_555
C7 C6 1_555 1_555
H6 C7 1_555 1_555
C8 C7 1_555 1_555
H7 C8 1_555 1_555
C9 C8 1_555 1_555
H8 C9 1_555 1_555
C10 C5 1_555 1_555
H9 C10 1_555 1_555
C11 O1 1_555 1_555
C12 O2 1_555 1_555
C13 C11 1_555 1_555
H10 C13 1_555 1_555
H11 C13 1_555 1_555
H12 C13 1_555 1_555
C14 C11 1_555 1_555
H13 C14 1_555 1_555
H14 C14 1_555 1_555
H15 C14 1_555 1_555
C15 C12 1_555 1_555
H16 C15 1_555 1_555
H17 C15 1_555 1_555
H18 C15 1_555 1_555
C16 C12 1_555 1_555
H19 C16 1_555 1_555
H20 C16 1_555 1_555
H21 C16 1_555 1_555
O3 B2 1_555 1_555
O4 B2 1_555 1_555
B2 C17 1_555 1_555
C17 H22 1_555 1_555
C18 C17 1_555 1_555
H23 C18 1_555 1_555
C19 C18 1_555 1_555
H24 C19 1_555 1_555
C20 C19 1_555 1_555
H25 C20 1_555 1_555
C21 C20 1_555 1_555
C22 C21 1_555 1_555
H26 C22 1_555 1_555
C23 C22 1_555 1_555
H27 C23 1_555 1_555
C24 C23 1_555 1_555
H28 C24 1_555 1_555
C25 C24 1_555 1_555
H29 C25 1_555 1_555
C26 C21 1_555 1_555
H30 C26 1_555 1_555
C27 O3 1_555 1_555
C28 O4 1_555 1_555
C29 C27 1_555 1_555
H31 C29 1_555 1_555
H32 C29 1_555 1_555
H33 C29 1_555 1_555
C30 C27 1_555 1_555
H34 C30 1_555 1_555
H35 C30 1_555 1_555
H36 C30 1_555 1_555
C31 C28 1_555 1_555
H37 C31 1_555 1_555
H38 C31 1_555 1_555
H39 C31 1_555 1_555
C32 C28 1_555 1_555
H40 C32 1_555 1_555
H41 C32 1_555 1_555
H42 C32 1_555 1_555
C9 C10 1_555 1_555
C11 C12 1_555 1_555
C25 C26 1_555 1_555
C27 C28 1_555 1_555

#END
