
#######################################################################
#
#                 Cambridge Crystallographic Data Centre
#                                CCDC 
#
#######################################################################
#
# If this CIF has been generated from an entry in the Cambridge 
# Structural Database, then it will include bibliographic, chemical, 
# crystal, experimental, refinement or atomic coordinate data resulting 
# from the CCDC's data processing and validation procedures.
#
#######################################################################

data_DAJBIB
_chemical_formula_moiety         'C9 H6 N2 O3,H2 O1'
_chemical_name_systematic        
'Imidazo[1,2-a]pyridin-1-ium-2-yl(oxo)acetate monohydrate'
_symmetry_cell_setting           monoclinic
_symmetry_space_group_name_H-M   'P 2/c'
_symmetry_Int_Tables_number      13
_space_group_name_Hall           '-P 2yc'
loop_
_symmetry_equiv_pos_site_id
_symmetry_equiv_pos_as_xyz
1 x,y,z
2 -x,y,1/2-z
3 -x,-y,-z
4 x,-y,1/2+z
_cell_length_a                   6.8155(14)
_cell_length_b                   11.734(2)
_cell_length_c                   11.551(2)
_cell_angle_alpha                90
_cell_angle_beta                 103.23(3)
_cell_angle_gamma                90
_cell_volume                     899.251
_cell_formula_units_Z            4
loop_
_atom_site_label
_atom_site_type_symbol
_atom_site_fract_x
_atom_site_fract_y
_atom_site_fract_z
C1 C 0.7503(7) 0.7499(4) 0.1839(4)
C2 C 0.7396(8) 0.6509(5) 0.2486(5)
H1 H 0.7296 0.6542 0.3275
C3 C 0.7441(9) 0.5503(5) 0.1934(6)
H2 H 0.7334 0.4832 0.2343
C4 C 0.7647(9) 0.5447(5) 0.0751(6)
H3 H 0.7728 0.4742 0.0398
C5 C 0.7726(9) 0.6399(5) 0.0131(5)
H4 H 0.7824 0.6363 -0.0658
C6 C 0.7684(7) 0.8540(4) 0.0255(4)
H5 H 0.7770 0.8751 -0.0508
C7 C 0.7557(7) 0.9246(4) 0.1155(4)
C8 C 0.7523(7) 1.0494(4) 0.1258(4)
C9 C 0.7466(8) 1.1245(5) 0.0146(4)
N1 N 0.7469(6) 0.8599(3) 0.2131(3)
N2 N 0.7659(6) 0.7444(3) 0.0683(3)
O1 O 0.7501(7) 1.0936(3) 0.2197(3)
O2 O 0.7689(8) 1.2256(3) 0.0295(4)
O3 O 0.7213(6) 1.0696(3) -0.0795(3)
H6 H 0.724(8) 0.884(4) 0.298(5)
O4 O 1.0000 0.3219(6) 0.2500
H7 H 0.935(14) 0.289(6) 0.186(8)
H7A H 1.065(14) 0.289(6) 0.314(8)
O5 O 1.5000 0.2978(5) 0.2500
loop_
_geom_bond_atom_site_label_1
_geom_bond_atom_site_label_2
_geom_bond_site_symmetry_1
_geom_bond_site_symmetry_2
C1 C2 1_555 1_555
C2 H1 1_555 1_555
C3 C2 1_555 1_555
H2 C3 1_555 1_555
C4 C3 1_555 1_555
H3 C4 1_555 1_555
C5 C4 1_555 1_555
H4 C5 1_555 1_555
C6 H5 1_555 1_555
C7 C6 1_555 1_555
C8 C7 1_555 1_555
C9 C8 1_555 1_555
N1 C1 1_555 1_555
N2 C1 1_555 1_555
O1 C8 1_555 1_555
O2 C9 1_555 1_555
O3 C9 1_555 1_555
O4 H7 1_555 1_555
H6 N1 1_555 1_555
H7A O4 1_555 1_555
C5 N2 1_555 1_555
C6 N2 1_555 1_555
C7 N1 1_555 1_555

#END
