
#######################################################################
#
#                 Cambridge Crystallographic Data Centre
#                                CCDC 
#
#######################################################################
#
# If this CIF has been generated from an entry in the Cambridge 
# Structural Database, then it will include bibliographic, chemical, 
# crystal, experimental, refinement or atomic coordinate data resulting 
# from the CCDC's data processing and validation procedures.
#
#######################################################################

data_DAJGAZ
_chemical_formula_moiety         'C46 H32 N4 O10,C2 H4 Cl2'
_chemical_name_systematic        
'(RRRR)-3,10,24,31-tetraazaundecacyclo[37.3.1.1^3,42^.1^10,13^.1^12,16^.1^18,22^.1^21,24^.1^31,34^.1^33,37^.0^4,9^.0^25,30^]pentaconta-1(43),12(49),13,15,18(48),19,21,33(45),34,36,39,41-dodecaene-2,11,17,23,32,38,44,46,47,50-decone 1,2-dichloroethane unknown solvate'
_symmetry_cell_setting           tetragonal
_symmetry_space_group_name_H-M   'P 41 2 2'
_symmetry_Int_Tables_number      91
_space_group_name_Hall           'P 4w 2c'
loop_
_symmetry_equiv_pos_site_id
_symmetry_equiv_pos_as_xyz
1 x,y,z
2 -x,-y,1/2+z
3 -y,x,1/4+z
4 y,-x,3/4+z
5 -x,y,-z
6 x,-y,1/2-z
7 y,x,3/4-z
8 -y,-x,1/4-z
_cell_length_a                   15.4764(5)
_cell_length_b                   15.4764(5)
_cell_length_c                   40.5896(19)
_cell_angle_alpha                90
_cell_angle_beta                 90
_cell_angle_gamma                90
_cell_volume                     9721.98
_exptl_crystal_colour            colorless
_exptl_crystal_description       needle
_cell_formula_units_Z            8
_exptl_crystal_recrystallization_method 1,2-dichloroethane/n-hexane
loop_
_atom_site_label
_atom_site_type_symbol
_atom_site_fract_x
_atom_site_fract_y
_atom_site_fract_z
Cl1 Cl 0.9682(4) 0.0010(3) 0.45860(16)
C1 C 0.9740(12) 0.0806(9) 0.4876(5)
H1 H 0.9855 0.1348 0.4754
H2 H 0.9151 0.0862 0.4969
Cl1D Cl 1.0318(4) 0.0010(3) 0.54140(16)
C1D C 1.0260(12) 0.0806(9) 0.5124(5)
H1D H 1.0145 0.1348 0.5246
H2D H 1.0849 0.0862 0.5031
Cl2 Cl 0.1882(4) 0.0559(8) 0.3615(2)
C2 C 0.0932(10) 0.0247(10) 0.3792(5)
H3 H 0.0753 -0.0324 0.3707
H4 H 0.1001 0.0203 0.4034
Cl2F Cl 0.0559(8) 0.1882(4) 0.3885(2)
C2F C 0.0247(10) 0.0932(10) 0.3708(5)
H3F H -0.0324 0.0753 0.3793
H4F H 0.0203 0.1001 0.3466
O1 O 0.6341(4) 0.3494(4) 0.50238(16)
O2 O 0.9142(6) 0.2896(7) 0.4737(2)
O3 O 0.5875(7) 0.0653(7) 0.3793(3)
O4 O 0.3259(5) 0.3855(5) 0.41830(17)
O5 O 0.1726(7) 0.1589(8) 0.4594(3)
N1 N 0.7804(6) 0.3412(6) 0.4934(2)
N2 N 0.2289(7) 0.2858(8) 0.4398(2)
C3 C 0.8096(7) 0.3946(10) 0.5201(3)
H5 H 0.7580 0.4272 0.5281
C4 C 0.8435(7) 0.3455(11) 0.5488(3)
H6 H 0.8927 0.3089 0.5410
C5 C 0.8752(7) 0.4021(10) 0.5757(3)
H7 H 0.8993 0.3661 0.5936
H8 H 0.8265 0.4360 0.5848
C6 C 0.9446(9) 0.4633(11) 0.5629(4)
H9 H 0.9656 0.5000 0.5812
H10 H 0.9941 0.4293 0.5545
C7 C 0.9098(8) 0.5194(11) 0.5359(4)
H11 H 0.9560 0.5581 0.5277
H12 H 0.8624 0.5559 0.5446
C8 C 0.8756(7) 0.4637(9) 0.5073(3)
H13 H 0.9246 0.4342 0.4963
H14 H 0.8471 0.5012 0.4908
C9 C 0.6949(8) 0.3207(8) 0.4864(3)
C10 C 0.6960(8) 0.2606(8) 0.4597(3)
C11 C 0.6243(8) 0.2230(7) 0.4435(3)
H15 H 0.5665 0.2349 0.4499
C12 C 0.6440(10) 0.1658(8) 0.4167(3)
C13 C 0.7231(10) 0.1486(9) 0.4092(3)
H16 H 0.7327 0.1076 0.3922
C14 C 0.7952(9) 0.1850(8) 0.4239(3)
H17 H 0.8520 0.1723 0.4164
C15 C 0.7800(7) 0.2420(8) 0.4505(3)
C16 C 0.8367(9) 0.2911(9) 0.4728(3)
C17 C 0.5678(11) 0.1216(8) 0.4004(3)
C18 C 0.4803(10) 0.1367(8) 0.4083(3)
C19 C 0.4433(8) 0.2236(7) 0.4088(3)
H18 H 0.4764 0.2713 0.4013
C20 C 0.3607(9) 0.2363(8) 0.4203(3)
C21 C 0.3101(9) 0.3133(10) 0.4248(3)
C22 C 0.2340(11) 0.1954(11) 0.4436(4)
C23 C 0.3116(11) 0.1639(11) 0.4309(3)
C24 C 0.3426(12) 0.0809(10) 0.4301(4)
H19 H 0.3089 0.0339 0.4379
C25 C 0.4263(12) 0.0679(10) 0.4172(4)
H20 H 0.4467 0.0104 0.4146
O1D O 0.3659(4) 0.3494(4) 0.49762(16)
O2D O 0.0858(6) 0.2896(7) 0.5263(2)
O3D O 0.4125(7) 0.0653(7) 0.6207(3)
O4D O 0.6741(5) 0.3855(5) 0.58170(17)
O5D O 0.8274(7) 0.1589(8) 0.5406(3)
N1D N 0.2196(6) 0.3412(6) 0.5066(2)
N2D N 0.7711(7) 0.2858(8) 0.5602(2)
C3D C 0.1904(7) 0.3946(10) 0.4799(3)
H5D H 0.2420 0.4272 0.4719
C4D C 0.1565(7) 0.3455(11) 0.4512(3)
H6D H 0.1073 0.3089 0.4590
C5D C 0.1248(7) 0.4021(10) 0.4243(3)
H7D H 0.1007 0.3661 0.4064
H8D H 0.1735 0.4360 0.4152
C6D C 0.0554(9) 0.4633(11) 0.4371(4)
H9D H 0.0344 0.5000 0.4188
H10D H 0.0059 0.4293 0.4455
C7D C 0.0902(8) 0.5194(11) 0.4641(4)
H11D H 0.0440 0.5581 0.4723
H12D H 0.1376 0.5559 0.4554
C8D C 0.1244(7) 0.4637(9) 0.4927(3)
H13D H 0.0754 0.4342 0.5037
H14D H 0.1529 0.5012 0.5092
C9D C 0.3051(8) 0.3207(8) 0.5136(3)
C10D C 0.3040(8) 0.2606(8) 0.5403(3)
C11D C 0.3757(8) 0.2230(7) 0.5565(3)
H15D H 0.4335 0.2349 0.5501
C12D C 0.3560(10) 0.1658(8) 0.5833(3)
C13D C 0.2769(10) 0.1486(9) 0.5908(3)
H16D H 0.2673 0.1076 0.6078
C14D C 0.2048(9) 0.1850(8) 0.5761(3)
H17D H 0.1480 0.1723 0.5836
C15D C 0.2200(7) 0.2420(8) 0.5495(3)
C16D C 0.1633(9) 0.2911(9) 0.5272(3)
C17D C 0.4322(11) 0.1216(8) 0.5996(3)
C18D C 0.5197(10) 0.1367(8) 0.5917(3)
C19D C 0.5567(8) 0.2236(7) 0.5912(3)
H18D H 0.5236 0.2713 0.5987
C20D C 0.6393(9) 0.2363(8) 0.5797(3)
C21D C 0.6899(9) 0.3133(10) 0.5752(3)
C22D C 0.7660(11) 0.1954(11) 0.5564(4)
C23D C 0.6884(11) 0.1639(11) 0.5691(3)
C24D C 0.6574(12) 0.0809(10) 0.5699(4)
H19D H 0.6911 0.0339 0.5621
C25D C 0.5737(12) 0.0679(10) 0.5828(4)
H20D H 0.5533 0.0104 0.5854
O6 O 0.7228(10) 0.9016(6) 0.5939(3)
O7 O 0.7045(5) 0.6042(5) 0.59750(19)
O8 O 0.3681(8) 0.7455(7) 0.6858(3)
O9 O 0.1841(7) 0.4441(8) 0.7025(3)
O10 O 0.4212(6) 0.2916(6) 0.7336(2)
N3 N 0.7365(8) 0.7518(7) 0.5898(3)
N4 N 0.2857(7) 0.3513(8) 0.7198(3)
C26 C 0.7866(10) 0.7385(10) 0.5590(3)
H21 H 0.8033 0.6764 0.5568
C27 C 0.8713(12) 0.7978(14) 0.5605(4)
H22 H 0.9081 0.7813 0.5794
H23 H 0.8554 0.8595 0.5627
C28 C 0.9208(14) 0.7809(15) 0.5263(5)
H24 H 0.9769 0.8116 0.5258
H25 H 0.9309 0.7184 0.5228
C29 C 0.8568(15) 0.8183(17) 0.4999(5)
H26 H 0.8372 0.8768 0.5063
H27 H 0.8851 0.8217 0.4781
C30 C 0.7810(12) 0.7560(13) 0.4989(4)
H28 H 0.7449 0.7679 0.4794
H29 H 0.8025 0.6959 0.4974
C31 C 0.7295(11) 0.7662(9) 0.5289(4)
H30 H 0.7142 0.8287 0.5314
C32 C 0.6979(12) 0.8268(11) 0.6027(4)
C33 C 0.6333(10) 0.8049(8) 0.6254(4)
C34 C 0.5827(12) 0.8576(10) 0.6454(4)
H31 H 0.5935 0.9179 0.6463
C35 C 0.5175(11) 0.8227(8) 0.6637(4)
H32 H 0.4793 0.8577 0.6763
C36 C 0.5095(9) 0.7256(8) 0.6629(3)
C37 C 0.5601(9) 0.6773(8) 0.6442(3)
H33 H 0.5522 0.6164 0.6435
C38 C 0.6220(9) 0.7141(7) 0.6263(3)
C39 C 0.6892(9) 0.6772(9) 0.6038(3)
C40 C 0.4278(11) 0.6971(9) 0.6798(3)
C41 C 0.4257(9) 0.6038(9) 0.6915(3)
C42 C 0.3437(8) 0.5707(8) 0.6946(3)
H34 H 0.2945 0.6052 0.6900
C43 C 0.3347(8) 0.4862(10) 0.7047(3)
C44 C 0.2603(11) 0.4328(11) 0.7089(4)
C45 C 0.3729(10) 0.3501(10) 0.7248(3)
C46 C 0.4052(9) 0.4384(7) 0.7133(3)
C47 C 0.4867(9) 0.4681(8) 0.7124(3)
H35 H 0.5352 0.4344 0.7188
C48 C 0.4937(8) 0.5565(7) 0.7007(3)
H36 H 0.5495 0.5820 0.6995
O6G O 0.0984(6) 0.2772(10) 0.6561(3)
O7G O 0.3958(5) 0.2955(5) 0.65250(19)
O8G O 0.2545(7) 0.6319(8) 0.5642(3)
O9G O 0.5559(8) 0.8159(7) 0.5475(3)
O10G O 0.7084(6) 0.5788(6) 0.5164(2)
N3G N 0.2482(7) 0.2635(8) 0.6602(3)
N4G N 0.6487(8) 0.7143(7) 0.5302(3)
C26G C 0.2615(10) 0.2134(10) 0.6910(3)
H21G H 0.3236 0.1967 0.6932
C27G C 0.2022(14) 0.1287(12) 0.6895(4)
H22G H 0.2187 0.0919 0.6706
H23G H 0.1405 0.1446 0.6873
C28G C 0.2191(15) 0.0792(14) 0.7237(5)
H24G H 0.1884 0.0231 0.7242
H25G H 0.2816 0.0691 0.7272
C29G C 0.1817(17) 0.1432(15) 0.7501(5)
H26G H 0.1232 0.1628 0.7437
H27G H 0.1783 0.1149 0.7719
C30G C 0.2440(13) 0.2190(12) 0.7511(4)
H28G H 0.2321 0.2551 0.7706
H29G H 0.3041 0.1975 0.7526
C31G C 0.2338(9) 0.2705(11) 0.7211(4)
H30G H 0.1713 0.2858 0.7186
C32G C 0.1732(11) 0.3021(12) 0.6473(4)
C33G C 0.1951(8) 0.3667(10) 0.6246(4)
C34G C 0.1424(10) 0.4173(12) 0.6046(4)
H31G H 0.0821 0.4065 0.6037
C35G C 0.1773(8) 0.4825(11) 0.5863(4)
H32G H 0.1423 0.5207 0.5737
C36G C 0.2744(8) 0.4905(9) 0.5871(3)
C37G C 0.3227(8) 0.4399(9) 0.6058(3)
H33G H 0.3836 0.4478 0.6065
C38G C 0.2859(7) 0.3780(9) 0.6237(3)
C39G C 0.3228(9) 0.3108(9) 0.6462(3)
C40G C 0.3029(9) 0.5722(11) 0.5702(3)
C41G C 0.3962(9) 0.5743(9) 0.5585(3)
C42G C 0.4293(8) 0.6563(8) 0.5554(3)
H34G H 0.3948 0.7055 0.5600
C43G C 0.5138(10) 0.6653(8) 0.5453(3)
C44G C 0.5672(11) 0.7397(11) 0.5411(4)
C45G C 0.6499(10) 0.6271(10) 0.5252(3)
C46G C 0.5616(7) 0.5948(9) 0.5367(3)
C47G C 0.5319(8) 0.5133(9) 0.5376(3)
H35G H 0.5656 0.4648 0.5312
C48G C 0.4435(7) 0.5063(8) 0.5493(3)
H36G H 0.4180 0.4505 0.5505
loop_
_geom_bond_atom_site_label_1
_geom_bond_atom_site_label_2
_geom_bond_site_symmetry_1
_geom_bond_site_symmetry_2
Cl1 C1 1_555 1_555
C1 H1 1_555 1_555
H2 C1 1_555 1_555
Cl2 C2 1_555 1_555
C2 H3 1_555 1_555
H4 C2 1_555 1_555
O1 C9 1_555 1_555
O2 C16 1_555 1_555
O3 C17 1_555 1_555
O4 C21 1_555 1_555
O5 C22 1_555 1_555
N1 C3 1_555 1_555
N2 C21 1_555 1_555
C3 H5 1_555 1_555
C4 C3 1_555 1_555
H6 C4 1_555 1_555
C5 C4 1_555 1_555
H7 C5 1_555 1_555
H8 C5 1_555 1_555
C6 C5 1_555 1_555
H9 C6 1_555 1_555
H10 C6 1_555 1_555
C7 C6 1_555 1_555
H11 C7 1_555 1_555
H12 C7 1_555 1_555
C8 C3 1_555 1_555
H13 C8 1_555 1_555
H14 C8 1_555 1_555
C9 N1 1_555 1_555
C10 C9 1_555 1_555
C11 C10 1_555 1_555
H15 C11 1_555 1_555
C12 C11 1_555 1_555
C13 C12 1_555 1_555
H16 C13 1_555 1_555
C14 C13 1_555 1_555
H17 C14 1_555 1_555
C15 C10 1_555 1_555
C16 N1 1_555 1_555
C17 C12 1_555 1_555
C18 C17 1_555 1_555
C19 C18 1_555 1_555
H18 C19 1_555 1_555
C20 C19 1_555 1_555
C21 C20 1_555 1_555
C22 N2 1_555 1_555
C23 C20 1_555 1_555
C24 C23 1_555 1_555
H19 C24 1_555 1_555
C25 C18 1_555 1_555
H20 C25 1_555 1_555
O6 C32 1_555 1_555
O7 C39 1_555 1_555
O8 C40 1_555 1_555
O9 C44 1_555 1_555
O10 C45 1_555 1_555
N3 C26 1_555 1_555
N4 C44 1_555 1_555
C26 H21 1_555 1_555
C27 C26 1_555 1_555
H22 C27 1_555 1_555
H23 C27 1_555 1_555
C28 C27 1_555 1_555
H24 C28 1_555 1_555
H25 C28 1_555 1_555
C29 C28 1_555 1_555
H26 C29 1_555 1_555
H27 C29 1_555 1_555
C30 C29 1_555 1_555
H28 C30 1_555 1_555
H29 C30 1_555 1_555
C31 C26 1_555 1_555
H30 C31 1_555 1_555
C32 N3 1_555 1_555
C33 C32 1_555 1_555
C34 C33 1_555 1_555
H31 C34 1_555 1_555
C35 C34 1_555 1_555
H32 C35 1_555 1_555
C36 C35 1_555 1_555
C37 C36 1_555 1_555
H33 C37 1_555 1_555
C38 C33 1_555 1_555
C39 N3 1_555 1_555
C40 C36 1_555 1_555
C41 C40 1_555 1_555
C42 C41 1_555 1_555
H34 C42 1_555 1_555
C43 C42 1_555 1_555
C44 C43 1_555 1_555
C45 N4 1_555 1_555
C46 C43 1_555 1_555
C47 C46 1_555 1_555
H35 C47 1_555 1_555
C48 C41 1_555 1_555
H36 C48 1_555 1_555
Cl1D C1D 1_555 1_555
C1D C1 1_555 1_555
H1D C1D 1_555 1_555
H2D C1D 1_555 1_555
Cl2F C2F 1_555 1_555
C2F C2 1_555 1_555
H3F C2F 1_555 1_555
H4F C2F 1_555 1_555
O1D C9D 1_555 1_555
O2D C16D 1_555 1_555
O3D C17D 1_555 1_555
O4D C21D 1_555 1_555
O5D C22D 1_555 1_555
N1D C3D 1_555 1_555
N2D C4 1_555 1_555
C3D H5D 1_555 1_555
C4D N2 1_555 1_555
H6D C4D 1_555 1_555
C5D C4D 1_555 1_555
H7D C5D 1_555 1_555
H8D C5D 1_555 1_555
C6D C5D 1_555 1_555
H9D C6D 1_555 1_555
H10D C6D 1_555 1_555
C7D C6D 1_555 1_555
H11D C7D 1_555 1_555
H12D C7D 1_555 1_555
C8D C3D 1_555 1_555
H13D C8D 1_555 1_555
H14D C8D 1_555 1_555
C9D N1D 1_555 1_555
C10D C9D 1_555 1_555
C11D C10D 1_555 1_555
H15D C11D 1_555 1_555
C12D C11D 1_555 1_555
C13D C12D 1_555 1_555
H16D C13D 1_555 1_555
C14D C13D 1_555 1_555
H17D C14D 1_555 1_555
C15D C10D 1_555 1_555
C16D N1D 1_555 1_555
C17D C12D 1_555 1_555
C18D C17D 1_555 1_555
C19D C18D 1_555 1_555
H18D C19D 1_555 1_555
C20D C19D 1_555 1_555
C21D N2D 1_555 1_555
C22D N2D 1_555 1_555
C23D C20D 1_555 1_555
C24D C23D 1_555 1_555
H19D C24D 1_555 1_555
C25D C18D 1_555 1_555
H20D C25D 1_555 1_555
O6G C32G 1_555 1_555
O7G C39G 1_555 1_555
O8G C40G 1_555 1_555
O9G C44G 1_555 1_555
O10G C45G 1_555 1_555
N3G C26G 1_555 1_555
N4G C31 1_555 1_555
C26G H21G 1_555 1_555
C27G C26G 1_555 1_555
H22G C27G 1_555 1_555
H23G C27G 1_555 1_555
C28G C27G 1_555 1_555
H24G C28G 1_555 1_555
H25G C28G 1_555 1_555
C29G C28G 1_555 1_555
H26G C29G 1_555 1_555
H27G C29G 1_555 1_555
C30G C29G 1_555 1_555
H28G C30G 1_555 1_555
H29G C30G 1_555 1_555
C31G N4 1_555 1_555
H30G C31G 1_555 1_555
C32G N3G 1_555 1_555
C33G C32G 1_555 1_555
C34G C33G 1_555 1_555
H31G C34G 1_555 1_555
C35G C34G 1_555 1_555
H32G C35G 1_555 1_555
C36G C35G 1_555 1_555
C37G C36G 1_555 1_555
H33G C37G 1_555 1_555
C38G C33G 1_555 1_555
C39G N3G 1_555 1_555
C40G C36G 1_555 1_555
C41G C40G 1_555 1_555
C42G C41G 1_555 1_555
H34G C42G 1_555 1_555
C43G C42G 1_555 1_555
C44G N4G 1_555 1_555
C45G N4G 1_555 1_555
C46G C43G 1_555 1_555
C47G C46G 1_555 1_555
H35G C47G 1_555 1_555
C48G C41G 1_555 1_555
H36G C48G 1_555 1_555
C7 C8 1_555 1_555
C14 C15 1_555 1_555
C15 C16 1_555 1_555
C22 C23 1_555 1_555
C24 C25 1_555 1_555
C30 C31 1_555 1_555
C37 C38 1_555 1_555
C38 C39 1_555 1_555
C45 C46 1_555 1_555
C47 C48 1_555 1_555
C3D C4D 1_555 1_555
C7D C8D 1_555 1_555
C14D C15D 1_555 1_555
C15D C16D 1_555 1_555
C20D C21D 1_555 1_555
C22D C23D 1_555 1_555
C24D C25D 1_555 1_555
C26G C31G 1_555 1_555
C30G C31G 1_555 1_555
C37G C38G 1_555 1_555
C38G C39G 1_555 1_555
C43G C44G 1_555 1_555
C45G C46G 1_555 1_555
C47G C48G 1_555 1_555

#END
