
#######################################################################
#
#                 Cambridge Crystallographic Data Centre
#                                CCDC 
#
#######################################################################
#
# If this CIF has been generated from an entry in the Cambridge 
# Structural Database, then it will include bibliographic, chemical, 
# crystal, experimental, refinement or atomic coordinate data resulting 
# from the CCDC's data processing and validation procedures.
#
#######################################################################

data_DAJJOQ
_chemical_formula_moiety         'C66 H66 N2 O10,C4 H8 O2'
_chemical_name_systematic        
'10,16,36,42-tetrabutoxy-28,50,54,56-tetraoxa-13,39-diazatridecacyclo[43.7.1.1^3,51^.1^23,27^.1^25,29^.0^2,7^.0^6,11^.0^15,20^.0^19,24^.0^32,37^.0^33,55^.0^41,46^.0^49,53^]hexapentaconta-2,4,6,8,10,15,17,19,21,23,29(55),31,33,36,41,43,45,47,49(53)-nonadecaene-12,40-dione 1,4-dioxane clathrate unknown solvate'
_symmetry_cell_setting           triclinic
_symmetry_space_group_name_H-M   'P 1'
_symmetry_Int_Tables_number      1
_space_group_name_Hall           'P 1'
loop_
_symmetry_equiv_pos_site_id
_symmetry_equiv_pos_as_xyz
1 x,y,z
_cell_length_a                   12.031(2)
_cell_length_b                   12.031(2)
_cell_length_c                   12.559(3)
_cell_angle_alpha                88.01(3)
_cell_angle_beta                 88.01(3)
_cell_angle_gamma                74.11(3)
_cell_volume                     1746.73
_exptl_crystal_colour            colorless
_exptl_crystal_description       Block
_cell_formula_units_Z            1
loop_
_atom_site_label
_atom_site_type_symbol
_atom_site_fract_x
_atom_site_fract_y
_atom_site_fract_z
N1 N 0.2483(3) 0.4039(3) 0.4401(3)
H1 H 0.2812 0.4331 0.4896
N2 N 0.6356(3) 0.5847(3) 0.9049(2)
H2 H 0.5993 0.5580 0.8563
O1 O 0.0047(2) 0.8665(2) 0.7087(2)
O2 O 0.0864(2) 0.9273(2) 0.8538(2)
O3 O 0.1523(3) 0.2124(2) 0.6140(2)
O4 O 0.5526(3) 0.3885(2) 1.0632(3)
O5 O 0.8812(3) 0.1188(2) 0.6288(2)
O6 O 0.7969(2) 0.0619(2) 0.4893(2)
O7 O 0.3320(3) 0.5939(3) 0.2786(3)
O8 O 0.7361(3) 0.7793(2) 0.7224(2)
C1 C -0.0114(4) 0.9028(3) 0.8208(3)
H3 H -0.0757 0.9758 0.8235
C2 C -0.0473(3) 0.8121(3) 0.8927(3)
H4 H -0.0552 0.8353 0.9681
H5 H -0.1216 0.8010 0.8703
C3 C 0.0508(3) 0.7024(3) 0.8778(3)
H6 H 0.0367 0.6400 0.9267
C4 C 0.0330(4) 0.7557(3) 0.6893(3)
C5 C 0.0527(3) 0.6647(3) 0.7630(3)
C6 C 0.0737(3) 0.5514(3) 0.7286(3)
C7 C 0.0802(3) 0.4554(3) 0.7986(3)
H7 H 0.0661 0.4701 0.8723
C8 C 0.1060(4) 0.3397(3) 0.7675(4)
C9 C 0.1247(3) 0.3165(3) 0.6568(3)
C10 C 0.1137(3) 0.4114(3) 0.5840(3)
C11 C 0.0885(4) 0.5259(4) 0.6162(4)
C12 C 0.0731(4) 0.6204(4) 0.5446(4)
H8 H 0.0811 0.6078 0.4701
C13 C 0.0473(4) 0.7282(3) 0.5801(3)
H9 H 0.0380 0.7900 0.5290
C14 C 0.1853(4) 0.1143(3) 0.6894(4)
H10 H 0.1173 0.1065 0.7327
H11 H 0.2448 0.1243 0.7378
C15 C 0.2329(4) 0.0089(4) 0.6216(4)
H12 H 0.2577 -0.0604 0.6691
H13 H 0.1705 -0.0016 0.5770
C16 C 0.3277(5) 0.0173(4) 0.5545(4)
H14 H 0.3844 0.0430 0.5959
H15 H 0.3006 0.0745 0.4960
C17 C 0.3889(5) -0.1109(5) 0.5052(5)
H16 H 0.4167 -0.1668 0.5636
H17 H 0.4542 -0.1063 0.4580
H18 H 0.3323 -0.1359 0.4647
C18 C 0.1739(3) 0.8356(3) 0.8904(3)
C19 C 0.2800(4) 0.8575(3) 0.9044(3)
H19 H 0.2849 0.9339 0.8886
C20 C 0.3748(4) 0.7814(3) 0.9377(3)
H20 H 0.4451 0.8020 0.9437
C21 C 0.3674(3) 0.6660(3) 0.9645(3)
C22 C 0.4676(4) 0.5802(3) 1.0028(3)
C23 C 0.4535(4) 0.4676(3) 1.0277(3)
C24 C 0.3458(4) 0.4495(4) 1.0264(4)
H21 H 0.3327 0.3814 1.0585
C25 C 0.2610(4) 0.5265(3) 0.9805(3)
H22 H 0.1941 0.5031 0.9654
C26 C 0.2605(3) 0.6398(3) 0.9519(3)
C27 C 0.1639(3) 0.7272(3) 0.9073(3)
C28 C 0.5409(5) 0.2812(4) 1.0952(4)
H23 H 0.5130 0.2440 1.0364
H24 H 0.4864 0.2874 1.1570
C29 C 0.6658(6) 0.2116(5) 1.1263(4)
H25 H 0.6914 0.2553 1.1815
H26 H 0.6608 0.1375 1.1602
C30 C 0.7565(5) 0.1846(4) 1.0440(4)
H27 H 0.7281 0.1472 0.9857
H28 H 0.7667 0.2587 1.0146
C31 C 0.8659(5) 0.1142(4) 1.0712(5)
H29 H 0.8995 0.1528 1.1239
H30 H 0.9163 0.1002 1.0072
H31 H 0.8583 0.0403 1.1013
C32 C 0.3070(3) 0.3823(3) 0.3379(3)
H32 H 0.2588 0.4304 0.2819
H33 H 0.3203 0.3000 0.3203
C33 C 0.4220(4) 0.4117(4) 0.3421(3)
C34 C 0.4295(4) 0.5142(4) 0.3092(4)
C35 C 0.5363(4) 0.5448(4) 0.3220(4)
H34 H 0.5401 0.6217 0.3071
C36 C 0.6338(4) 0.4602(4) 0.3564(3)
H35 H 0.7070 0.4761 0.3546
C37 C 0.6243(3) 0.3497(3) 0.3943(3)
C38 C 0.7214(3) 0.2668(3) 0.4346(3)
C39 C 0.7075(4) 0.1568(4) 0.4561(4)
C40 C 0.6061(3) 0.1197(4) 0.4373(3)
C41 C 0.5114(4) 0.2133(4) 0.4029(3)
H36 H 0.4390 0.1975 0.3947
C42 C 0.5172(4) 0.3233(3) 0.3810(3)
C43 C 0.3376(3) 0.7118(3) 0.2466(3)
H37 H 0.3606 0.7494 0.3079
H38 H 0.3962 0.7077 0.1885
C44 C 0.2236(4) 0.7802(4) 0.2102(4)
H39 H 0.1981 0.7394 0.1526
H40 H 0.2290 0.8562 0.1814
C45 C 0.1328(4) 0.7983(5) 0.3059(4)
H41 H 0.1580 0.8385 0.3641
H42 H 0.1255 0.7227 0.3341
C46 C 0.0129(5) 0.8736(6) 0.2627(5)
H43 H 0.0146 0.9543 0.2536
H44 H -0.0491 0.8686 0.3137
H45 H -0.0011 0.8444 0.1939
C47 C 0.9000(3) 0.0882(3) 0.5261(4)
H46 H 0.9653 0.0161 0.5229
C48 C 0.9305(4) 0.1775(3) 0.4542(4)
H47 H 0.9406 0.1504 0.3800
H48 H 1.0044 0.1900 0.4760
C49 C 0.8368(3) 0.2890(3) 0.4596(3)
H49 H 0.8542 0.3496 0.4105
C50 C 0.8502(3) 0.2401(3) 0.6546(3)
C51 C 0.8439(3) 0.2588(3) 0.7650(3)
H50 H 0.8604 0.1961 0.8154
C52 C 0.8133(4) 0.3703(3) 0.7965(3)
H51 H 0.8019 0.3858 0.8704
C53 C 0.7978(3) 0.4649(3) 0.7210(3)
C54 C 0.7701(3) 0.5822(3) 0.7597(3)
C55 C 0.7629(3) 0.6676(3) 0.6853(3)
C56 C 0.7846(3) 0.6452(3) 0.5765(3)
H52 H 0.7842 0.7080 0.5284
C57 C 0.8061(4) 0.5378(3) 0.5374(3)
H53 H 0.8173 0.5254 0.4630
C58 C 0.8114(3) 0.4423(3) 0.6120(3)
C59 C 0.8320(3) 0.3231(3) 0.5753(3)
C60 C 0.7048(4) 0.8767(3) 0.6534(3)
H54 H 0.6463 0.8677 0.6034
H55 H 0.7734 0.8848 0.6113
C61 C 0.6570(4) 0.9805(3) 0.7181(4)
H56 H 0.6352 1.0490 0.6694
H57 H 0.7187 0.9906 0.7639
C62 C 0.5479(4) 0.9776(4) 0.7917(4)
C63 C 0.4937(5) 1.0764(5) 0.8495(5)
H58 H 0.5507 1.0970 0.8931
H59 H 0.4323 1.0606 0.8957
H60 H 0.4604 1.1407 0.7999
C64 C 0.7432(3) 0.6034(3) 0.8740(3)
H61 H 0.8049 0.5513 0.9167
H62 H 0.7417 0.6841 0.8889
C65 C 0.5837(4) 0.6038(4) 1.0009(4)
C66 C 0.1422(4) 0.3813(3) 0.4658(4)
O9 O 0.0887(4) 0.3561(4) 0.4036(3)
O10 O 0.6149(5) 0.6579(6) 1.0650(4)
C67 C 0.3857(9) 0.5801(7) 0.6205(7)
H63 H 0.3223 0.6167 0.6710
H64 H 0.3751 0.6297 0.5550
C68 C 0.4874(4) 0.5859(5) 0.6644(5)
H65 H 0.5508 0.5670 0.6099
H66 H 0.4792 0.6655 0.6880
C69 C 0.5274(4) 0.3883(5) 0.7115(5)
H67 H 0.5916 0.3669 0.6581
H68 H 0.5454 0.3328 0.7727
C70 C 0.4313(12) 0.3844(7) 0.6697(7)
H69 H 0.3766 0.3787 0.7291
H70 H 0.4473 0.3116 0.6304
O11 O 0.3693(4) 0.4815(4) 0.5952(3)
O12 O 0.5141(4) 0.5108(4) 0.7487(4)
O13? O 0.2678(7) 0.3365(7) 0.2733(7)
O14? O 0.7941(8) 0.6432(7) 0.9342(7)
H71? H 0.5829 0.0842 0.5037
H72? H 0.6248 0.0600 0.3822
loop_
_geom_bond_atom_site_label_1
_geom_bond_atom_site_label_2
_geom_bond_site_symmetry_1
_geom_bond_site_symmetry_2
N1 H1 1_555 1_555
N2 H2 1_555 1_555
O1 C1 1_555 1_555
O2 C1 1_555 1_555
O3 C9 1_555 1_555
O4 C23 1_555 1_555
O5 C47 1_555 1_555
O6 C39 1_555 1_555
O7 C34 1_555 1_555
O8 C55 1_555 1_555
C1 H3 1_555 1_555
C2 C1 1_555 1_555
H4 C2 1_555 1_555
H5 C2 1_555 1_555
C3 C2 1_555 1_555
H6 C3 1_555 1_555
C4 O1 1_555 1_555
C5 C3 1_555 1_555
C6 C5 1_555 1_555
C7 C6 1_555 1_555
H7 C7 1_555 1_555
C8 C7 1_555 1_555
C9 C8 1_555 1_555
C10 C9 1_555 1_555
C11 C6 1_555 1_555
C12 C11 1_555 1_555
H8 C12 1_555 1_555
C13 C4 1_555 1_555
H9 C13 1_555 1_555
C14 O3 1_555 1_555
H10 C14 1_555 1_555
H11 C14 1_555 1_555
C15 C14 1_555 1_555
H12 C15 1_555 1_555
H13 C15 1_555 1_555
C16 C15 1_555 1_555
H14 C16 1_555 1_555
H15 C16 1_555 1_555
C17 C16 1_555 1_555
H16 C17 1_555 1_555
H17 C17 1_555 1_555
H18 C17 1_555 1_555
C18 O2 1_555 1_555
C19 C18 1_555 1_555
H19 C19 1_555 1_555
C20 C19 1_555 1_555
H20 C20 1_555 1_555
C21 C20 1_555 1_555
C22 C21 1_555 1_555
C23 C22 1_555 1_555
C24 C23 1_555 1_555
H21 C24 1_555 1_555
C25 C24 1_555 1_555
H22 C25 1_555 1_555
C26 C21 1_555 1_555
C27 C3 1_555 1_555
C28 O4 1_555 1_555
H23 C28 1_555 1_555
H24 C28 1_555 1_555
C29 C28 1_555 1_555
H25 C29 1_555 1_555
H26 C29 1_555 1_555
C30 C29 1_555 1_555
H27 C30 1_555 1_555
H28 C30 1_555 1_555
C31 C30 1_555 1_555
H29 C31 1_555 1_555
H30 C31 1_555 1_555
H31 C31 1_555 1_555
C32 N1 1_555 1_555
H32 C32 1_555 1_555
H33 C32 1_555 1_555
C33 C32 1_555 1_555
C34 C33 1_555 1_555
C35 C34 1_555 1_555
H34 C35 1_555 1_555
C36 C35 1_555 1_555
H35 C36 1_555 1_555
C37 C36 1_555 1_555
C38 C37 1_555 1_555
C39 C38 1_555 1_555
C40 C39 1_555 1_555
C41 C40 1_555 1_555
H36 C41 1_555 1_555
C42 C33 1_555 1_555
C43 O7 1_555 1_555
H37 C43 1_555 1_555
H38 C43 1_555 1_555
C44 C43 1_555 1_555
H39 C44 1_555 1_555
H40 C44 1_555 1_555
C45 C44 1_555 1_555
H41 C45 1_555 1_555
H42 C45 1_555 1_555
C46 C45 1_555 1_555
H43 C46 1_555 1_555
H44 C46 1_555 1_555
H45 C46 1_555 1_555
C47 O6 1_555 1_555
H46 C47 1_555 1_555
C48 C47 1_555 1_555
H47 C48 1_555 1_555
H48 C48 1_555 1_555
C49 C38 1_555 1_555
H49 C49 1_555 1_555
C50 O5 1_555 1_555
C51 C50 1_555 1_555
H50 C51 1_555 1_555
C52 C51 1_555 1_555
H51 C52 1_555 1_555
C53 C52 1_555 1_555
C54 C53 1_555 1_555
C55 C54 1_555 1_555
C56 C55 1_555 1_555
H52 C56 1_555 1_555
C57 C56 1_555 1_555
H53 C57 1_555 1_555
C58 C53 1_555 1_555
C59 C49 1_555 1_555
C60 O8 1_555 1_555
H54 C60 1_555 1_555
H55 C60 1_555 1_555
C61 C60 1_555 1_555
H56 C61 1_555 1_555
H57 C61 1_555 1_555
C62 C61 1_555 1_555
C63 C62 1_555 1_555
H58 C63 1_555 1_555
H59 C63 1_555 1_555
H60 C63 1_555 1_555
C64 N2 1_555 1_555
H61 C64 1_555 1_555
H62 C64 1_555 1_555
C65 N2 1_555 1_555
C66 N1 1_555 1_555
O9 C66 1_555 1_555
O10 C65 1_555 1_555
C67 H63 1_555 1_555
H64 C67 1_555 1_555
C68 C67 1_555 1_555
H65 C68 1_555 1_555
H66 C68 1_555 1_555
C69 H67 1_555 1_555
H68 C69 1_555 1_555
C70 C69 1_555 1_555
H69 C70 1_555 1_555
H70 C70 1_555 1_555
O11 C67 1_555 1_555
O12 C68 1_555 1_555
C4 C5 1_555 1_555
C10 C11 1_555 1_555
C10 C66 1_555 1_555
C12 C13 1_555 1_555
C18 C27 1_555 1_555
C22 C65 1_555 1_555
C25 C26 1_555 1_555
C26 C27 1_555 1_555
C37 C42 1_555 1_555
C41 C42 1_555 1_555
C48 C49 1_555 1_555
C50 C59 1_555 1_555
C54 C64 1_555 1_555
C57 C58 1_555 1_555
C58 C59 1_555 1_555
C69 O12 1_555 1_555
C70 O11 1_555 1_555

#END
