
#######################################################################
#
#                 Cambridge Crystallographic Data Centre
#                                CCDC 
#
#######################################################################
#
# If this CIF has been generated from an entry in the Cambridge 
# Structural Database, then it will include bibliographic, chemical, 
# crystal, experimental, refinement or atomic coordinate data resulting 
# from the CCDC's data processing and validation procedures.
#
#######################################################################

data_DAJLEF
_chemical_name_common            'DrugBank: DB03619'
_chemical_formula_moiety         'C24 H40 O4,0.3(C8 H7 Cl1 O1)'
_chemical_name_systematic        'Deoxycholic acid m-chloroacetophenone'
_symmetry_cell_setting           orthorhombic
_symmetry_space_group_name_H-M   'P 21 21 21'
_symmetry_Int_Tables_number      19
_space_group_name_Hall           'P 2ac 2ab'
loop_
_symmetry_equiv_pos_site_id
_symmetry_equiv_pos_as_xyz
1 x,y,z
2 1/2+x,1/2-y,-z
3 -x,1/2+y,1/2-z
4 1/2-x,-y,1/2+z
_cell_length_a                   25.283(8)
_cell_length_b                   13.639(4)
_cell_length_c                   7.198(4)
_cell_angle_alpha                90
_cell_angle_beta                 90
_cell_angle_gamma                90
_cell_volume                     2482.12
_chemical_melting_point          170-172deg.C
_cell_formula_units_Z            4
loop_
_atom_site_label
_atom_site_type_symbol
_atom_site_fract_x
_atom_site_fract_y
_atom_site_fract_z
C1 C 0.1257(2) 0.2095(4) 0.3585(8)
C2 C 0.0710(2) 0.1793(4) 0.3014(8)
C3 C 0.0742(2) 0.1084(4) 0.1378(8)
C4 C 0.1038(2) 0.1537(3) -0.0228(7)
C5 C 0.1600(2) 0.1870(4) 0.0339(8)
C6 C 0.1890(2) 0.2329(4) -0.1358(9)
C7 C 0.1673(2) 0.3338(4) -0.1884(7)
C8 C 0.1655(2) 0.4043(3) -0.0233(7)
C9 C 0.1342(2) 0.3581(3) 0.1393(7)
C10 C 0.1582(2) 0.2589(3) 0.2035(7)
C11 C 0.1250(2) 0.4314(3) 0.2996(7)
C12 C 0.0990(2) 0.5279(3) 0.2339(7)
C13 C 0.1320(2) 0.5760(3) 0.0784(7)
C14 C 0.1385(2) 0.5002(3) -0.0798(7)
C15 C 0.1621(2) 0.5584(4) -0.2402(8)
C16 C 0.1355(2) 0.6596(4) -0.2227(8)
C17 C 0.1056(2) 0.6616(3) -0.0339(7)
C18 C 0.1853(2) 0.6087(3) 0.1592(8)
C19 C 0.2146(2) 0.2733(4) 0.2802(9)
C20 C 0.1050(2) 0.7641(3) 0.0516(7)
C21 C 0.0765(2) 0.7702(4) 0.2384(8)
C22 C 0.0830(2) 0.8414(4) -0.0852(8)
C23 C 0.0254(2) 0.8253(4) -0.1449(9)
C24 C 0.0086(2) 0.9051(4) -0.2797(8)
O1 O 0.0208(2) 0.0844(3) 0.0841(6)
O2 O 0.0461(1) 0.5065(2) 0.1673(5)
O3 O 0.0108(2) 0.9920(3) -0.2466(7)
O4 O -0.0100(1) 0.8724(2) -0.4383(5)
H1 H 0.1216(22) 0.2619(43) 0.4611(87)
H2 H 0.1373(23) 0.1471(43) 0.3944(87)
H3 H 0.0504(20) 0.2445(37) 0.2557(74)
H4 H 0.0530(21) 0.1530(39) 0.4080(81)
H5 H 0.0924(20) 0.0428(41) 0.1573(80)
H6 H 0.1009(23) 0.0966(27) -0.1053(61)
H7 H 0.0811(21) 0.2115(40) -0.0721(83)
H8 H 0.1792(18) 0.1267(22) 0.0655(78)
H9 H 0.1749(20) 0.1932(33) -0.2386(50)
H10 H 0.2244(23) 0.2364(38) -0.1278(77)
H11 H 0.1875(20) 0.3609(36) -0.2877(79)
H12 H 0.1322(22) 0.3265(37) -0.2423(77)
H13 H 0.2039(19) 0.4219(34) 0.0317(70)
H14 H 0.0980(20) 0.3399(36) 0.0860(75)
H15 H 0.1563(11) 0.4475(34) 0.3745(58)
H16 H 0.0997(19) 0.3966(33) 0.3891(71)
H17 H 0.0967(19) 0.5701(28) 0.3443(41)
H18 H 0.1026(8) 0.4763(40) -0.1053(86)
H19 H 0.2015(22) 0.5551(39) -0.2099(80)
H20 H 0.1626(21) 0.5180(38) -0.3696(80)
H21 H 0.1617(19) 0.7046(35) -0.2196(73)
H22 H 0.1089(19) 0.6697(35) -0.3140(75)
H23 H 0.0667(21) 0.6414(37) -0.0421(77)
H24 H 0.2088(15) 0.6437(30) 0.0734(53)
H25 H 0.2082(18) 0.5511(33) 0.2029(67)
H26 H 0.1763(18) 0.6471(28) 0.2706(37)
H27 H 0.2377(24) 0.3150(44) 0.2030(87)
H28 H 0.2340(23) 0.2202(44) 0.2612(86)
H29 H 0.2140(23) 0.3195(43) 0.3868(87)
H30 H 0.1412(10) 0.7727(47) 0.0981(92)
H31 H 0.0944(18) 0.7319(32) 0.3354(50)
H32 H 0.0409(21) 0.7333(37) 0.2402(76)
H33 H 0.0727(21) 0.8323(41) 0.2882(76)
H34 H 0.1059(21) 0.8270(37) -0.1945(81)
H35 H 0.0838(19) 0.9052(38) -0.0345(75)
H36 H -0.0023(22) 0.8244(38) -0.0277(87)
H37 H 0.0210(21) 0.7540(39) -0.1889(85)
H38 H 0.0250(23) 0.0499(37) -0.0319(44)
H39 H 0.0192(14) 0.5318(37) 0.2493(64)
H40 H -0.0272(19) 0.9254(25) -0.5025(72)
loop_
_geom_bond_atom_site_label_1
_geom_bond_atom_site_label_2
_geom_bond_site_symmetry_1
_geom_bond_site_symmetry_2
C1 C2 1_555 1_555
C2 C3 1_555 1_555
C3 C4 1_555 1_555
C4 C5 1_555 1_555
C5 C6 1_555 1_555
C6 C7 1_555 1_555
C7 C8 1_555 1_555
C8 C9 1_555 1_555
C9 C10 1_555 1_555
C10 C1 1_555 1_555
C11 C9 1_555 1_555
C12 C11 1_555 1_555
C13 C12 1_555 1_555
C14 C8 1_555 1_555
C15 C14 1_555 1_555
C16 C15 1_555 1_555
C17 C13 1_555 1_555
C18 C13 1_555 1_555
C19 C10 1_555 1_555
C20 C17 1_555 1_555
C21 C20 1_555 1_555
C22 C20 1_555 1_555
C23 C22 1_555 1_555
C24 C23 1_555 1_555
O1 C3 1_555 1_555
O2 C12 1_555 1_555
O3 C24 1_555 1_555
O4 C24 1_555 1_555
H1 C1 1_555 1_555
H2 C1 1_555 1_555
H3 C2 1_555 1_555
H4 C2 1_555 1_555
H5 C3 1_555 1_555
H6 C4 1_555 1_555
H7 C4 1_555 1_555
H8 C5 1_555 1_555
H9 C6 1_555 1_555
H10 C6 1_555 1_555
H11 C7 1_555 1_555
H12 C7 1_555 1_555
H13 C8 1_555 1_555
H14 C9 1_555 1_555
H15 C11 1_555 1_555
H16 C11 1_555 1_555
H17 C12 1_555 1_555
H18 C14 1_555 1_555
H19 C15 1_555 1_555
H20 C15 1_555 1_555
H21 C16 1_555 1_555
H22 C16 1_555 1_555
H23 C17 1_555 1_555
H24 C18 1_555 1_555
H25 C18 1_555 1_555
H26 C18 1_555 1_555
H27 C19 1_555 1_555
H28 C19 1_555 1_555
H29 C19 1_555 1_555
H30 C20 1_555 1_555
H31 C21 1_555 1_555
H32 C21 1_555 1_555
H33 C21 1_555 1_555
H34 C22 1_555 1_555
H35 C22 1_555 1_555
H36 C23 1_555 1_555
H37 C23 1_555 1_555
H38 O1 1_555 1_555
H39 O2 1_555 1_555
H40 O4 1_555 1_555
C5 C10 1_555 1_555
C13 C14 1_555 1_555
C16 C17 1_555 1_555

#END
