
#######################################################################
#
#                 Cambridge Crystallographic Data Centre
#                                CCDC 
#
#######################################################################
#
# If this CIF has been generated from an entry in the Cambridge 
# Structural Database, then it will include bibliographic, chemical, 
# crystal, experimental, refinement or atomic coordinate data resulting 
# from the CCDC's data processing and validation procedures.
#
#######################################################################

data_DAJPIO
_chemical_formula_moiety         'C30 H25 N3 S2'
_chemical_name_systematic        
bis(2-((4S)-4-Phenyl-4,5-dihydrothiazol-2-yl)phenyl)amine
_symmetry_cell_setting           orthorhombic
_symmetry_space_group_name_H-M   'P 21 21 21'
_symmetry_Int_Tables_number      19
_space_group_name_Hall           'P 2ac 2ab'
loop_
_symmetry_equiv_pos_site_id
_symmetry_equiv_pos_as_xyz
1 x,y,z
2 1/2-x,-y,1/2+z
3 -x,1/2+y,1/2-z
4 1/2+x,1/2-y,-z
_cell_length_a                   10.132(2)
_cell_length_b                   11.519(2)
_cell_length_c                   21.317(4)
_cell_angle_alpha                90
_cell_angle_beta                 90
_cell_angle_gamma                90
_cell_volume                     2487.92
_exptl_crystal_colour            colorless
_exptl_crystal_description       block
_chemical_melting_point          169-171deg.C
_cell_formula_units_Z            4
_exptl_crystal_recrystallization_method 'petroleum ether/ethyl acetate(10:1)'
loop_
_atom_site_label
_atom_site_type_symbol
_atom_site_fract_x
_atom_site_fract_y
_atom_site_fract_z
S1 S 0.25020(7) 0.45873(6) 0.88765(3)
S2 S -0.12888(7) 1.08433(6) 0.85320(3)
N1 N -0.0909(2) 0.69983(16) 0.87661(10)
H1 H -0.012(2) 0.7316(17) 0.8755(10)
N2 N 0.18211(18) 0.66816(17) 0.85245(9)
N3 N 0.03085(18) 0.92219(15) 0.89305(8)
C1 C -0.1028(2) 0.59288(17) 0.84603(10)
C2 C -0.2245(2) 0.5524(2) 0.82388(10)
H2 H -0.3004 0.5962 0.8305
C3 C -0.2329(3) 0.4485(2) 0.79245(10)
H3 H -0.3149 0.4221 0.7790
C4 C -0.1223(3) 0.3828(2) 0.78044(11)
H4 H -0.1288 0.3136 0.7582
C5 C -0.0022(2) 0.4210(2) 0.80180(10)
H5 H 0.0727 0.3766 0.7941
C6 C 0.0103(2) 0.52563(18) 0.83507(10)
C7 C 0.1414(2) 0.56344(19) 0.85538(10)
C8 C 0.3681(2) 0.5705(2) 0.90549(11)
H6 H 0.3724 0.5832 0.9504
H7 H 0.4551 0.5483 0.8908
C9 C 0.3211(2) 0.6827(2) 0.87162(11)
H8 H 0.3268 0.7478 0.9011
C10 C 0.4044(2) 0.7105(2) 0.81481(11)
C11 C 0.5018(2) 0.7941(2) 0.81724(13)
H9 H 0.5133 0.8381 0.8534
C12 C 0.5828(3) 0.8123(2) 0.76554(15)
H10 H 0.6480 0.8689 0.7675
C13 C 0.5683(3) 0.7483(3) 0.71180(15)
H11 H 0.6239 0.7603 0.6777
C14 C 0.4711(3) 0.6669(3) 0.70916(13)
H12 H 0.4598 0.6234 0.6728
C15 C 0.3895(3) 0.6483(2) 0.75966(11)
H13 H 0.3230 0.5929 0.7568
C16 C -0.1901(2) 0.75406(18) 0.91117(10)
C17 C -0.2830(2) 0.6909(2) 0.94542(10)
H14 H -0.2783 0.6103 0.9453
C18 C -0.3806(3) 0.7440(2) 0.97910(10)
H15 H -0.4406 0.6995 1.0017
C19 C -0.3902(3) 0.8632(2) 0.97963(11)
H16 H -0.4579 0.8995 1.0016
C20 C -0.2992(2) 0.9276(2) 0.94755(10)
H17 H -0.3061 1.0081 0.9481
C21 C -0.1964(2) 0.87623(18) 0.91409(10)
C22 C -0.0906(2) 0.94918(18) 0.88836(10)
C23 C 0.0438(3) 1.1089(2) 0.83712(11)
H18 H 0.0612 1.1016 0.7925
H19 H 0.0696 1.1860 0.8506
C24 C 0.1209(2) 1.01570(18) 0.87418(10)
H20 H 0.1888 0.9829 0.8467
C25 C 0.1876(2) 1.06457(19) 0.93234(11)
C26 C 0.3235(3) 1.0703(2) 0.93602(14)
H21 H 0.3748 1.0424 0.9032
C27 C 0.3839(3) 1.1179(3) 0.98887(17)
H22 H 0.4754 1.1226 0.9908
C28 C 0.3102(4) 1.1574(3) 1.03762(16)
H23 H 0.3513 1.1877 1.0730
C29 C 0.1760(4) 1.1527(3) 1.03453(14)
H24 H 0.1252 1.1810 1.0674
C30 C 0.1155(3) 1.1052(2) 0.98192(12)
H25 H 0.0239 1.1009 0.9804
loop_
_geom_bond_atom_site_label_1
_geom_bond_atom_site_label_2
_geom_bond_site_symmetry_1
_geom_bond_site_symmetry_2
S1 C7 1_555 1_555
S2 C22 1_555 1_555
N1 H1 1_555 1_555
N2 C7 1_555 1_555
N3 C22 1_555 1_555
C1 N1 1_555 1_555
C2 C1 1_555 1_555
H2 C2 1_555 1_555
C3 C2 1_555 1_555
H3 C3 1_555 1_555
C4 C3 1_555 1_555
H4 C4 1_555 1_555
C5 C4 1_555 1_555
H5 C5 1_555 1_555
C6 C1 1_555 1_555
C7 C6 1_555 1_555
C8 S1 1_555 1_555
H6 C8 1_555 1_555
H7 C8 1_555 1_555
C9 N2 1_555 1_555
H8 C9 1_555 1_555
C10 C9 1_555 1_555
C11 C10 1_555 1_555
H9 C11 1_555 1_555
C12 C11 1_555 1_555
H10 C12 1_555 1_555
C13 C12 1_555 1_555
H11 C13 1_555 1_555
C14 C13 1_555 1_555
H12 C14 1_555 1_555
C15 C10 1_555 1_555
H13 C15 1_555 1_555
C16 N1 1_555 1_555
C17 C16 1_555 1_555
H14 C17 1_555 1_555
C18 C17 1_555 1_555
H15 C18 1_555 1_555
C19 C18 1_555 1_555
H16 C19 1_555 1_555
C20 C19 1_555 1_555
H17 C20 1_555 1_555
C21 C16 1_555 1_555
C22 C21 1_555 1_555
C23 S2 1_555 1_555
H18 C23 1_555 1_555
H19 C23 1_555 1_555
C24 N3 1_555 1_555
H20 C24 1_555 1_555
C25 C24 1_555 1_555
C26 C25 1_555 1_555
H21 C26 1_555 1_555
C27 C26 1_555 1_555
H22 C27 1_555 1_555
C28 C27 1_555 1_555
H23 C28 1_555 1_555
C29 C28 1_555 1_555
H24 C29 1_555 1_555
C30 C25 1_555 1_555
H25 C30 1_555 1_555
C5 C6 1_555 1_555
C8 C9 1_555 1_555
C14 C15 1_555 1_555
C20 C21 1_555 1_555
C23 C24 1_555 1_555
C29 C30 1_555 1_555

#END
