
#######################################################################
#
#                 Cambridge Crystallographic Data Centre
#                                CCDC 
#
#######################################################################
#
# If this CIF has been generated from an entry in the Cambridge 
# Structural Database, then it will include bibliographic, chemical, 
# crystal, experimental, refinement or atomic coordinate data resulting 
# from the CCDC's data processing and validation procedures.
#
#######################################################################

data_DAKDUP01
_chemical_formula_moiety         'C7 H15 B10 N1 S1'
_chemical_name_systematic        1-(2-Pyridyl)-2-mercapto-orthocarborane
_symmetry_cell_setting           monoclinic
_symmetry_space_group_name_H-M   'P 21'
_symmetry_Int_Tables_number      4
_space_group_name_Hall           'P 2yb'
loop_
_symmetry_equiv_pos_site_id
_symmetry_equiv_pos_as_xyz
1 x,y,z
2 -x,1/2+y,-z
_cell_length_a                   8.350(2)
_cell_length_b                   8.257(2)
_cell_length_c                   10.640(2)
_cell_angle_alpha                90
_cell_angle_beta                 108.88(1)
_cell_angle_gamma                90
_cell_volume                     694.117
_exptl_crystal_colour            colorless
_exptl_crystal_description       block
_cell_formula_units_Z            2
_exptl_crystal_recrystallization_method acetone
loop_
_atom_site_label
_atom_site_type_symbol
_atom_site_fract_x
_atom_site_fract_y
_atom_site_fract_z
S1 S 0.30868(16) 0.48254(17) 0.30048(14)
H1 H 0.478(6) 0.475(8) 0.393(4)
N1 N 0.2868(4) 0.8466(5) 0.5267(3)
C1 C 0.2461(5) 0.8417(5) 0.2918(4)
C2 C 0.3255(5) 0.6756(5) 0.2320(4)
B1 B 0.4618(6) 0.8173(7) 0.3267(5)
H2 H 0.5494 0.7918 0.4268
B2 B 0.3604(7) 1.0077(7) 0.2832(5)
H3 H 0.3841 1.1086 0.3545
B3 B 0.1562(7) 0.9705(9) 0.1657(5)
H4 H 0.0466 1.0472 0.1607
B4 B 0.1356(7) 0.7588(7) 0.1381(5)
H5 H 0.0137 0.6959 0.1175
B5 B 0.4914(7) 0.7312(7) 0.1815(5)
H6 H 0.5994 0.6521 0.1865
B6 B 0.5148(8) 0.9440(7) 0.2123(6)
H7 H 0.6389 1.0039 0.2378
B7 B 0.3249(9) 1.0386(7) 0.1095(6)
H8 H 0.3254 1.1599 0.0669
B8 B 0.1837(8) 0.8835(8) 0.0211(6)
H9 H 0.0918 0.9040 -0.0783
B9 B 0.2883(7) 0.6964(7) 0.0645(5)
H10 H 0.2647 0.5949 -0.0061
B10 B 0.4057(8) 0.8698(8) 0.0489(6)
H11 H 0.4592 0.8828 -0.0324
C3 C 0.1776(5) 0.8187(6) 0.4057(4)
C4 C 0.0118(6) 0.7723(8) 0.3849(5)
H12 H -0.0621 0.7553 0.2993
C5 C -0.0422(7) 0.7516(9) 0.4954(7)
H13 H -0.1523 0.7187 0.4848
C6 C 0.0693(7) 0.7803(7) 0.6187(6)
H14 H 0.0359 0.7694 0.6937
C7 C 0.2312(7) 0.8255(7) 0.6305(5)
H15 H 0.3069 0.8425 0.7153
loop_
_geom_bond_atom_site_label_1
_geom_bond_atom_site_label_2
_geom_bond_site_symmetry_1
_geom_bond_site_symmetry_2
S1 H1 1_555 1_555
N1 C3 1_555 1_555
C1 C2 1_555 1_555
C2 S1 1_555 1_555
B1 C1 1_555 1_555
H2 B1 1_555 1_555
B2 C1 1_555 1_555
H3 B2 1_555 1_555
B3 C1 1_555 1_555
H4 B3 1_555 1_555
B4 C1 1_555 1_555
H5 B4 1_555 1_555
B5 C2 1_555 1_555
H6 B5 1_555 1_555
B6 B1 1_555 1_555
H7 B6 1_555 1_555
B7 B2 1_555 1_555
H8 B7 1_555 1_555
B8 B3 1_555 1_555
H9 B8 1_555 1_555
B9 C2 1_555 1_555
H10 B9 1_555 1_555
B10 B5 1_555 1_555
H11 B10 1_555 1_555
C3 C1 1_555 1_555
C4 C3 1_555 1_555
H12 C4 1_555 1_555
C5 C4 1_555 1_555
H13 C5 1_555 1_555
C6 C5 1_555 1_555
H14 C6 1_555 1_555
C7 N1 1_555 1_555
H15 C7 1_555 1_555
C2 B4 1_555 1_555
C2 B1 1_555 1_555
B1 B5 1_555 1_555
B1 B2 1_555 1_555
B2 B6 1_555 1_555
B2 B3 1_555 1_555
B3 B4 1_555 1_555
B3 B7 1_555 1_555
B4 B9 1_555 1_555
B4 B8 1_555 1_555
B5 B6 1_555 1_555
B5 B9 1_555 1_555
B6 B10 1_555 1_555
B6 B7 1_555 1_555
B7 B10 1_555 1_555
B7 B8 1_555 1_555
B8 B9 1_555 1_555
B8 B10 1_555 1_555
B9 B10 1_555 1_555
C6 C7 1_555 1_555

#END
