
#######################################################################
#
#                 Cambridge Crystallographic Data Centre
#                                CCDC 
#
#######################################################################
#
# If this CIF has been generated from an entry in the Cambridge 
# Structural Database, then it will include bibliographic, chemical, 
# crystal, experimental, refinement or atomic coordinate data resulting 
# from the CCDC's data processing and validation procedures.
#
#######################################################################

data_DAKJUX
_chemical_formula_moiety         'C18 H22 B1 N1'
_chemical_name_systematic        
1-(2,2-diphenylethyl)-1-azonia-2-boratacyclohex-3-ene
_symmetry_cell_setting           monoclinic
_symmetry_space_group_name_H-M   'C 2/c'
_symmetry_Int_Tables_number      15
_space_group_name_Hall           '-C 2yn'
loop_
_symmetry_equiv_pos_site_id
_symmetry_equiv_pos_as_xyz
1 x,y,z
2 -x,y,1/2-z
3 1/2+x,1/2+y,z
4 1/2-x,1/2+y,1/2-z
5 -x,-y,-z
6 x,-y,1/2+z
7 1/2-x,1/2-y,-z
8 1/2+x,1/2-y,1/2+z
_cell_length_a                   25.7475(5)
_cell_length_b                   6.2330(2)
_cell_length_c                   21.3772(5)
_cell_angle_alpha                90
_cell_angle_beta                 115.6150(10)
_cell_angle_gamma                90
_cell_volume                     3093.53
_exptl_crystal_colour            colorless
_exptl_crystal_description       rod
_cell_formula_units_Z            8
loop_
_atom_site_label
_atom_site_type_symbol
_atom_site_fract_x
_atom_site_fract_y
_atom_site_fract_z
N1 N 0.47990(9) 0.3983(5) 0.37545(10)
H1 H 0.4600(11) 0.377(4) 0.4014(14)
B1 B 0.50294(15) 0.6406(6) 0.39042(18)
H2 H 0.4644(11) 0.737(4) 0.3845(14)
H3 H 0.5145(17) 0.677(6) 0.347(2)
C1 C 0.55472(15) 0.6526(5) 0.46665(17)
H4 H 0.5682 0.7911 0.4850
C2 C 0.57992(10) 0.4885(6) 0.50568(11)
H5 H 0.6096 0.5119 0.5509
C3 C 0.56284(12) 0.2624(4) 0.48044(13)
H6 H 0.5385 0.2041 0.5018
H7 H 0.5980 0.1729 0.4961
C4 C 0.53014(14) 0.2450(4) 0.40213(15)
H8 H 0.5563 0.2785 0.3805
H9 H 0.5160 0.0964 0.3893
C5 C 0.44189(8) 0.3646(4) 0.30042(10)
H10 H 0.4663 0.3460 0.2756
H11 H 0.4183 0.4952 0.2818
C6 C 0.40168(8) 0.1718(4) 0.28491(10)
H12 H 0.4258 0.0456 0.3097
C7 C 0.37511(8) 0.1212(5) 0.20674(8)
C8 C 0.38760(10) -0.0740(4) 0.18488(12)
H13 H 0.4123 -0.1738 0.2180
C9 C 0.36400(15) -0.1232(4) 0.11458(14)
H14 H 0.3725 -0.2566 0.0996
C10 C 0.32791(17) 0.0228(5) 0.06614(9)
H15 H 0.3118 -0.0109 0.0181
C11 C 0.31541(14) 0.2180(5) 0.08799(10)
H16 H 0.2907 0.3178 0.0549
C12 C 0.33901(10) 0.2672(4) 0.15829(12)
H17 H 0.3305 0.4006 0.1732
C13 C 0.35562(8) 0.2015(4) 0.31178(10)
C14 C 0.32365(11) 0.3892(4) 0.30015(13)
H18 H 0.3310 0.5057 0.2764
C15 C 0.28096(12) 0.4066(4) 0.32324(17)
H19 H 0.2591 0.5349 0.3153
C16 C 0.27026(11) 0.2362(5) 0.35797(16)
H20 H 0.2411 0.2480 0.3738
C17 C 0.30224(11) 0.0484(4) 0.36961(12)
H21 H 0.2949 -0.0681 0.3933
C18 C 0.34492(9) 0.0311(3) 0.34651(11)
H22 H 0.3668 -0.0972 0.3545
N2? N 0.4886(3) 0.3326(15) 0.3838(4)
H23? H 0.469(4) 0.269(17) 0.403(5)
B2? B 0.4911(6) 0.5885(17) 0.3778(6)
H24? H 0.445(5) 0.68(2) 0.357(7)
H25? H 0.518(8) 0.62(3) 0.344(9)
C19? C 0.5375(6) 0.6816(13) 0.4500(7)
H26? H 0.5363 0.8313 0.4576
C20? C 0.5768(6) 0.570(2) 0.4993(5)
H27? H 0.6050 0.6412 0.5386
C21? C 0.5778(4) 0.328(2) 0.4945(5)
H28? H 0.5587 0.2664 0.5219
H29? H 0.6184 0.2795 0.5157
C22? C 0.5484(5) 0.2436(15) 0.4212(6)
H30? H 0.5713 0.2832 0.3958
H31? H 0.5466 0.0850 0.4223
C23? C 0.4576(3) 0.2208(13) 0.3166(4)
H32? H 0.4561 0.0659 0.3259
H33? H 0.4803 0.2366 0.2894
C24? C 0.3960(3) 0.2992(16) 0.2719(4)
H34? H 0.3982 0.4570 0.2649
C25? C 0.3728(5) 0.1918(15) 0.1997(4)
C26? C 0.3840(5) -0.0217(15) 0.1912(5)
H35? H 0.4072 -0.1059 0.2304
C27? C 0.3611(7) -0.1121(15) 0.1253(6)
H36? H 0.3688 -0.2581 0.1195
C28? C 0.3272(7) 0.011(2) 0.0679(4)
H37? H 0.3116 -0.0508 0.0228
C29? C 0.3160(6) 0.2246(19) 0.0764(4)
H38? H 0.2928 0.3087 0.0371
C30? C 0.3389(5) 0.3150(13) 0.1423(5)
H39? H 0.3312 0.4609 0.1481
C31? C 0.3540(4) 0.2653(18) 0.3065(6)
C32? C 0.3147(6) 0.4230(14) 0.3029(6)
H40? H 0.3140 0.5559 0.2808
C33? C 0.2763(5) 0.3865(18) 0.3317(7)
H41? H 0.2494 0.4943 0.3292
C34? C 0.2773(5) 0.192(2) 0.3641(7)
H42? H 0.2510 0.1672 0.3837
C35? C 0.3166(5) 0.0344(15) 0.3677(6)
H43? H 0.3173 -0.0984 0.3898
C36? C 0.3550(4) 0.0709(15) 0.3389(6)
H44? H 0.3819 -0.0369 0.3414
loop_
_geom_bond_atom_site_label_1
_geom_bond_atom_site_label_2
_geom_bond_site_symmetry_1
_geom_bond_site_symmetry_2
N1 H1 1_555 1_555
B1 N1 1_555 1_555
H2 B1 1_555 1_555
H3 B1 1_555 1_555
C1 B1 1_555 1_555
H4 C1 1_555 1_555
C2 C1 1_555 1_555
H5 C2 1_555 1_555
C3 C2 1_555 1_555
H6 C3 1_555 1_555
H7 C3 1_555 1_555
C4 N1 1_555 1_555
H8 C4 1_555 1_555
H9 C4 1_555 1_555
C5 N1 1_555 1_555
H10 C5 1_555 1_555
H11 C5 1_555 1_555
C6 C5 1_555 1_555
H12 C6 1_555 1_555
C7 C6 1_555 1_555
C8 C7 1_555 1_555
H13 C8 1_555 1_555
C9 C8 1_555 1_555
H14 C9 1_555 1_555
C10 C9 1_555 1_555
H15 C10 1_555 1_555
C11 C10 1_555 1_555
H16 C11 1_555 1_555
C12 C7 1_555 1_555
H17 C12 1_555 1_555
C13 C6 1_555 1_555
C14 C13 1_555 1_555
H18 C14 1_555 1_555
C15 C14 1_555 1_555
H19 C15 1_555 1_555
C16 C15 1_555 1_555
H20 C16 1_555 1_555
C17 C16 1_555 1_555
H21 C17 1_555 1_555
C18 C13 1_555 1_555
H22 C18 1_555 1_555
C3 C4 1_555 1_555
C11 C12 1_555 1_555
C17 C18 1_555 1_555

#END
