
#######################################################################
#
#                 Cambridge Crystallographic Data Centre
#                                CCDC 
#
#######################################################################
#
# If this CIF has been generated from an entry in the Cambridge 
# Structural Database, then it will include bibliographic, chemical, 
# crystal, experimental, refinement or atomic coordinate data resulting 
# from the CCDC's data processing and validation procedures.
#
#######################################################################

data_DAKSIR
_chemical_name_common            
37,38,39,40,41,42-hexakis(Ethoxycarbonylmethoxy)calix(6)arene
_chemical_formula_moiety         'C66 H72 O18'
_chemical_name_systematic        
37,38,39,40,41,42-hexakis(Ethoxycarbonylmethoxy)-heptacyclo(31.3.1.1^3,7^.1^9,13^.1^15,19^.1^21,25^.1^27,31^)dotetraconta-1(37),3,5,7(38),9,11,13(39),15,17,19(40),21,23,25(41),27,29,31(42),33,35-octadecaene
_symmetry_cell_setting           monoclinic
_symmetry_space_group_name_H-M   'C 2/c'
_symmetry_Int_Tables_number      15
_space_group_name_Hall           '-C 2yn'
loop_
_symmetry_equiv_pos_site_id
_symmetry_equiv_pos_as_xyz
1 x,y,z
2 1/2+x,1/2+y,z
3 -x,y,1/2-z
4 1/2-x,1/2+y,1/2-z
5 -x,-y,-z
6 1/2-x,1/2-y,-z
7 x,-y,1/2+z
8 1/2+x,1/2-y,1/2+z
_cell_length_a                   21.906(4)
_cell_length_b                   11.805(2)
_cell_length_c                   23.534(4)
_cell_angle_alpha                90
_cell_angle_beta                 91.79(2)
_cell_angle_gamma                90
_cell_volume                     6082.93
_chemical_melting_point          154-155deg.C
_cell_formula_units_Z            4
loop_
_atom_site_label
_atom_site_type_symbol
_atom_site_fract_x
_atom_site_fract_y
_atom_site_fract_z
O1 O 0.0564(3) 0.1490(6) 0.0829(3)
O2 O -0.0102(4) 0.2446(8) 0.1639(4)
O3 O -0.0653(4) 0.0888(8) 0.1756(4)
C1 C 0.0821(5) 0.1077(9) 0.0331(5)
C2 C 0.1258(4) 0.0239(9) 0.0399(4)
C3 C 0.1531(5) -0.0132(11) -0.0079(11)
C4 C 0.1385(5) 0.0382(10) -0.0595(5)
C5 C 0.0949(5) 0.1192(8) -0.0639(5)
C6 C 0.0664(5) 0.1562(9) -0.0171(4)
C7 C 0.0191(5) 0.2558(9) -0.0217(5)
C8 C 0.0041(5) 0.09154(8) 0.0999(5)
C9 C -0.0221(5) 0.1399(10) 0.1510(6)
C10 C -0.0977(7) 0.1156(15) 0.2270(6)
C11 C -0.1507(6) 0.0576(14) 0.2358(7)
O4 O 0.0590(3) 0.3637(6) -0.1202(3)
O5 O -0.0208(4) 0.2198(8) -0.1668(4)
O6 O -0.0746(4) 0.3465(8) -0.2114(4)
C12 C 0.0709(5) 0.4229(9) -0.0675(5)
C13 C 0.0513(5) 0.3647(10) -0.0196(5)
C14 C 0.0666(5) 0.4215(11) 0.0312(5)
C15 C 0.0997(5) 0.5167(9) 0.0341(5)
C16 C 0.1183(5) 0.5659(10) -0.0141(5)
C17 C 0.1054(4) 0.5195(9) -0.0670(5)
C18 C 0.1299(5) 0.5666(10) -0.1220(5)
C19 C 0.0085(5) 0.4120(12) -0.1537(5)
C20 C -0.0315(5) 0.3161(10) -0.1779(5)
C21 C -0.1202(7) 0.2714(14) -0.2373(6)
C22 C -0.1729(7) 0.3089(15) -0.2550(8)
O7 O 0.2382(3) 0.4402(6) -0.1265(3)
O8 O 0.2740(5) 0.1789(8) -0.0616(5)
O9 O 0.2951(5) 0.2488(8) -0.1455(4)
C23 C 0.2459(5) 0.5554(9) -0.1116(4)
C24 C 0.1933(5) 0.6228(9) -0.1136(5)
C25 C 0.1999(5) 0.7349(9) -0.1018(5)
C26 C 0.25777(5) 0.7832(9) -0.0916(5)
C27 C 0.3078(5) 0.7147(10) -0.0914(5)
C28 C 0.3048(5) 0.5983(10) -0.1006(5)
C29 C 0.1404(5) -0.0248(11) 0.0983(5)
C30 C 0.2348(5) 0.3578(9) -0.0810(5)
C31 C 0.2671(5) 0.2504(10) -0.0970(6)
C32 C 0.3325(9) 0.1483(12) -0.1626(8)
C33 C 0.3207(10) 0.1184(18) -0.2115(9)
C29E C 0.3596(5) 0.5248(11) -0.0983(5)
C28E C 0.1952(5) -0.0983(10) 0.1006(5)
C2E C 0.3742(4) 0.4761(9) -0.0399(4)
C23E C 0.2541(5) -0.0554(9) 0.1116(4)
C27E C 0.1922(5) -0.2147(10) 0.0914(5)
C1E C 0.4179(5) 0.3923(9) -0.0331(5)
C3E C 0.3469(5) 0.5132(11) 0.0079(11)
O7E O 0.2618(3) 0.0598(6) 0.1265(3)
C24E C 0.3067(5) -0.1228(9) 0.1136(5)
C26E C 0.24223(5) -0.2832(9) 0.0916(5)
O1E O 0.4436(3) 0.3510(6) -0.0829(3)
C6E C 0.4336(5) 0.3438(9) 0.0171(4)
C4E C 0.3615(5) 0.4618(10) 0.0595(5)
C30E C 0.2652(5) 0.1422(9) 0.0810(5)
C18E C 0.3701(5) -0.0666(10) 0.1220(5)
C25E C 0.3001(5) -0.2349(9) 0.1018(5)
C8E C 0.4959(5) 0.40846(8) -0.0999(5)
C5E C 0.4051(5) 0.3808(8) 0.0639(5)
C7E C 0.4809(5) 0.2442(9) 0.0217(5)
C31E C 0.2329(5) 0.2496(10) 0.0970(6)
C17E C 0.3946(4) -0.0195(9) 0.0670(5)
C9E C 0.5221(5) 0.3601(10) -0.1510(6)
C13E C 0.4487(5) 0.1353(10) 0.0196(5)
O8E O 0.2260(5) 0.3211(8) 0.0616(5)
O9E O 0.2049(5) 0.2512(8) 0.1455(4)
C12E C 0.4291(5) 0.0771(9) 0.0675(5)
C16E C 0.3817(5) -0.0659(10) 0.0141(5)
O2E O 0.5102(4) 0.2554(8) -0.1639(4)
O3E O 0.5653(4) 0.4112(8) -0.1756(4)
C14E C 0.4334(5) 0.0785(11) -0.0312(5)
C32E C 0.1675(9) 0.3517(12) 0.1626(8)
O4E O 0.4410(3) 0.1363(6) 0.1202(3)
C15E C 0.4003(5) -0.0167(9) -0.0341(5)
C10E C 0.5977(7) 0.3844(15) -0.2270(6)
C33E C 0.1793(10) 0.3816(18) 0.2115(9)
C19E C 0.4915(5) 0.0880(12) 0.1537(5)
C11E C 0.6507(6) 0.4424(14) -0.2358(7)
C20E C 0.5315(5) 0.1839(10) 0.1779(5)
O5E O 0.5208(4) 0.2802(8) 0.1668(4)
O6E O 0.5746(4) 0.1535(8) 0.2114(4)
C21E C 0.6202(7) 0.2286(14) 0.2373(6)
C22E C 0.6729(7) 0.1911(15) 0.2550(8)
loop_
_geom_bond_atom_site_label_1
_geom_bond_atom_site_label_2
_geom_bond_site_symmetry_1
_geom_bond_site_symmetry_2
O1 C1 1_555 1_555
O2 C9 1_555 1_555
O3 C9 1_555 1_555
C1 C2 1_555 1_555
C2 C3 1_555 1_555
C3 C4 1_555 1_555
C4 C5 1_555 1_555
C5 C6 1_555 1_555
C6 C1 1_555 1_555
C7 C6 1_555 1_555
C8 O1 1_555 1_555
C9 C8 1_555 1_555
C10 O3 1_555 1_555
C11 C10 1_555 1_555
O4 C12 1_555 1_555
O5 C20 1_555 1_555
O6 C20 1_555 1_555
C12 C13 1_555 1_555
C13 C7 1_555 1_555
C14 C13 1_555 1_555
C15 C14 1_555 1_555
C16 C15 1_555 1_555
C17 C12 1_555 1_555
C18 C17 1_555 1_555
C19 O4 1_555 1_555
C20 C19 1_555 1_555
C21 O6 1_555 1_555
C22 C21 1_555 1_555
O7 C23 1_555 1_555
O8 C31 1_555 1_555
O9 C31 1_555 1_555
C23 C24 1_555 1_555
C24 C18 1_555 1_555
C25 C24 1_555 1_555
C26 C25 1_555 1_555
C27 C26 1_555 1_555
C28 C23 1_555 1_555
C29 C2 1_555 1_555
C30 O7 1_555 1_555
C31 C30 1_555 1_555
C32 O9 1_555 1_555
C33 C32 1_555 1_555
C29E C28 1_555 1_555
C28E C29 1_555 1_555
C2E C29E 1_555 1_555
C23E C28E 1_555 1_555
C27E C28E 1_555 1_555
C1E C2E 1_555 1_555
C3E C2E 1_555 1_555
O7E C23E 1_555 1_555
C24E C23E 1_555 1_555
C26E C27E 1_555 1_555
O1E C1E 1_555 1_555
C6E C1E 1_555 1_555
C4E C3E 1_555 1_555
C30E O7E 1_555 1_555
C18E C24E 1_555 1_555
C25E C24E 1_555 1_555
C8E O1E 1_555 1_555
C5E C6E 1_555 1_555
C7E C6E 1_555 1_555
C31E C30E 1_555 1_555
C17E C18E 1_555 1_555
C9E C8E 1_555 1_555
C13E C7E 1_555 1_555
O8E C31E 1_555 1_555
O9E C31E 1_555 1_555
C12E C17E 1_555 1_555
C16E C17E 1_555 1_555
O2E C9E 1_555 1_555
O3E C9E 1_555 1_555
C14E C13E 1_555 1_555
C32E O9E 1_555 1_555
O4E C12E 1_555 1_555
C15E C16E 1_555 1_555
C10E O3E 1_555 1_555
C33E C32E 1_555 1_555
C19E O4E 1_555 1_555
C11E C10E 1_555 1_555
C20E C19E 1_555 1_555
O5E C20E 1_555 1_555
O6E C20E 1_555 1_555
C21E O6E 1_555 1_555
C22E C21E 1_555 1_555
C16 C17 1_555 1_555
C27 C28 1_555 1_555
C26E C25E 1_555 1_555
C4E C5E 1_555 1_555
C13E C12E 1_555 1_555
C14E C15E 1_555 1_555

#END
