
#######################################################################
#
#                 Cambridge Crystallographic Data Centre
#                                CCDC 
#
#######################################################################
#
# If this CIF has been generated from an entry in the Cambridge 
# Structural Database, then it will include bibliographic, chemical, 
# crystal, experimental, refinement or atomic coordinate data resulting 
# from the CCDC's data processing and validation procedures.
#
#######################################################################

data_DALBEA
_chemical_formula_moiety         'C19 H27 N3 O3 S2'
_chemical_name_systematic        
10'-(3-azido-1-methoxypropyl)-8'-hydroxyoctahydro-7'H-spiro[1,3-dithiolane-2,4'-[4a,8,2](ethane[1,1,2]triyl)benzo[7]annulen]-7'-one
_symmetry_cell_setting           triclinic
_symmetry_space_group_name_H-M   'P -1'
_symmetry_Int_Tables_number      2
_space_group_name_Hall           '-P 1'
loop_
_symmetry_equiv_pos_site_id
_symmetry_equiv_pos_as_xyz
1 x,y,z
2 -x,-y,-z
_cell_length_a                   9.4988(7)
_cell_length_b                   14.3102(10)
_cell_length_c                   29.799(2)
_cell_angle_alpha                77.710(6)
_cell_angle_beta                 86.467(6)
_cell_angle_gamma                83.073(6)
_cell_volume                     3926.15
_chemical_melting_point          '400-401 K'
_cell_formula_units_Z            8
_exptl_crystal_recrystallization_method 'petroleum ether/ethyl acetate'
loop_
_atom_site_label
_atom_site_type_symbol
_atom_site_fract_x
_atom_site_fract_y
_atom_site_fract_z
S1 S -0.34560(11) -0.36644(8) -0.37609(4)
S2 S -0.19721(13) -0.37570(9) -0.29105(4)
O1 O 0.3246(3) -0.46776(19) -0.40673(10)
H1 H 0.3889 -0.4344 -0.4067
O2 O 0.3339(3) -0.2829(2) -0.41294(10)
O3 O 0.1816(3) -0.3420(2) -0.31944(10)
C1 C -0.0723(5) -0.5687(3) -0.36991(16)
H2 H -0.0816 -0.6371 -0.3674
C2 C -0.1099(5) -0.5134(3) -0.41769(15)
H3 H -0.2118 -0.5062 -0.4210
H4 H -0.0652 -0.5475 -0.4406
C3 C -0.0557(4) -0.4141(3) -0.42405(13)
H5 H -0.1176 -0.3651 -0.4441
C4 C -0.0475(4) -0.3868(2) -0.37633(12)
C5 C -0.1809(4) -0.4184(3) -0.34533(13)
C6 C -0.1721(5) -0.5297(3) -0.33483(16)
H6 H -0.1376 -0.5553 -0.3042
H7 H -0.2657 -0.5495 -0.3360
C7 C 0.0785(4) -0.5567(3) -0.35906(15)
H8 H 0.1449 -0.5813 -0.3810
H9 H 0.1003 -0.5939 -0.3286
C8 C 0.0967(4) -0.4488(2) -0.36119(12)
C9 C 0.1920(4) -0.4114(3) -0.40449(12)
C10 C 0.0989(4) -0.4172(3) -0.44366(13)
H10 H 0.1261 -0.4765 -0.4544
H11 H 0.1087 -0.3634 -0.4692
C11 C 0.2143(4) -0.3070(3) -0.40845(13)
C12 C 0.0828(4) -0.2375(3) -0.41119(15)
H12 H 0.0569 -0.2174 -0.4431
H13 H 0.1033 -0.1808 -0.4009
C13 C -0.0430(4) -0.2777(2) -0.38280(14)
H14 H -0.1294 -0.2452 -0.3973
H15 H -0.0431 -0.2621 -0.3527
C14 C 0.1592(4) -0.4399(3) -0.31559(13)
H16 H 0.0901 -0.4576 -0.2903
C15 C 0.3002(5) -0.5039(4) -0.30484(15)
H17 H 0.3001 -0.5610 -0.3175
H18 H 0.3774 -0.4692 -0.3201
C16 C 0.3272(6) -0.5337(5) -0.25519(19)
H19 H 0.2987 -0.4787 -0.2412
H20 H 0.2658 -0.5827 -0.2419
C17 C 0.1729(7) -0.3059(4) -0.27904(19)
H21 H 0.2301 -0.3489 -0.2562
H22 H 0.0760 -0.3004 -0.2678
H23 H 0.2066 -0.2436 -0.2854
N1 N 0.469(2) -0.5701(11) -0.2423(6)
N2 N 0.518(2) -0.6482(13) -0.2590(5)
N3 N 0.5810(18) -0.7079(15) -0.2731(6)
C18 C -0.4277(19) -0.3056(11) -0.3324(5)
H24 H -0.4190 -0.2374 -0.3424
H25 H -0.5281 -0.3133 -0.3301
C19 C -0.3758(10) -0.3348(8) -0.2908(3)
H26 H -0.4279 -0.3861 -0.2737
H27 H -0.3910 -0.2818 -0.2748
S3 S 0.69217(13) -0.96901(8) -0.39236(5)
S4 S 0.83952(12) -0.81947(9) -0.45457(5)
O4 O 0.1686(3) -0.6963(2) -0.44458(12)
H28 H 0.1049 -0.7199 -0.4541
O5 O 0.1593(3) -0.8094(2) -0.50264(10)
O6 O 0.3110(3) -0.93874(19) -0.42091(10)
C20 C 0.3017(4) -0.7373(3) -0.45955(14)
C21 C 0.2787(5) -0.8015(3) -0.49247(13)
C22 C 0.4097(4) -0.8422(3) -0.51451(14)
H29 H 0.4354 -0.7957 -0.5416
H30 H 0.3898 -0.8994 -0.5245
C23 C 0.5358(4) -0.8686(3) -0.48309(13)
H31 H 0.6224 -0.8661 -0.5021
H32 H 0.5336 -0.9345 -0.4665
C24 C 0.3995(4) -0.7901(2) -0.41960(13)
C25 C 0.5422(4) -0.8049(2) -0.44824(12)
C26 C 0.5479(4) -0.6972(3) -0.47421(14)
H33 H 0.6079 -0.6940 -0.5023
C27 C 0.3910(4) -0.6594(3) -0.48588(14)
H34 H 0.3637 -0.5989 -0.4762
H35 H 0.3785 -0.6493 -0.5187
C28 C 0.6039(5) -0.6400(3) -0.44220(16)
H36 H 0.7056 -0.6386 -0.4472
H37 H 0.5586 -0.5744 -0.4482
C29 C 0.5700(5) -0.6900(3) -0.39304(15)
H38 H 0.5806 -0.6469 -0.3722
C30 C 0.4190(4) -0.7182(3) -0.38802(15)
H39 H 0.3523 -0.6610 -0.3962
H40 H 0.3987 -0.7480 -0.3562
C31 C 0.6693(5) -0.7810(3) -0.37992(15)
H41 H 0.6359 -0.8193 -0.3512
H42 H 0.7634 -0.7652 -0.3756
C32 C 0.6758(4) -0.8393(3) -0.41859(14)
C33 C 0.3177(6) -1.0385(3) -0.4029(2)
H43 H 0.2404 -1.0513 -0.3809
H44 H 0.4060 -1.0604 -0.3880
H45 H 0.3110 -1.0717 -0.4273
C34 C 0.3406(4) -0.8804(3) -0.39010(14)
H46 H 0.4157 -0.9161 -0.3701
C35 C 0.2099(5) -0.8608(4) -0.35999(16)
H47 H 0.1947 -0.7923 -0.3607
H48 H 0.1284 -0.8777 -0.3734
C36 C 0.2147(9) -0.9134(7) -0.3105(3)
H49 H 0.1386 -0.8819 -0.2939
H50 H 0.1903 -0.9777 -0.3096
N4 N 0.3420(19) -0.9243(15) -0.2837(6)
N5 N 0.326(2) -0.8519(15) -0.2648(8)
N6 N 0.296(3) -0.7888(19) -0.2405(9)
C37 C 0.8346(14) -1.0079(10) -0.4295(5)
H51 H 0.8813 -1.0701 -0.4150
H52 H 0.7975 -1.0139 -0.4583
C38 C 0.9303(17) -0.9397(11) -0.4377(5)
H53 H 0.9983 -0.9527 -0.4619
H54 H 0.9819 -0.9441 -0.4101
S5 S 1.19924(13) -1.15637(10) -0.19587(4)
S6 S 1.34369(12) -1.15394(9) -0.11161(4)
O7 O 0.6711(3) -1.0481(2) -0.08814(11)
H55 H 0.6531 -1.0207 -0.1146
O8 O 0.6628(3) -1.2333(2) -0.07460(10)
O9 O 0.8176(3) -1.18673(19) -0.16722(9)
C39 C 0.8054(4) -1.1037(3) -0.08789(14)
C40 C 0.9044(4) -1.0729(2) -0.13078(13)
C41 C 0.9233(5) -0.9632(3) -0.13611(16)
H56 H 0.9042 -0.9297 -0.1674
H57 H 0.8554 -0.9351 -0.1157
C42 C 1.0736(5) -0.9501(3) -0.12480(18)
H58 H 1.0837 -0.8814 -0.1293
C43 C 1.1058(5) -0.9989(3) -0.07600(17)
H59 H 1.0597 -0.9605 -0.0550
H60 H 1.2073 -1.0062 -0.0718
C44 C 1.0504(4) -1.0983(3) -0.06620(13)
H61 H 1.1097 -1.1450 -0.0442
C45 C 0.8931(4) -1.0903(3) -0.04849(15)
H62 H 0.8795 -1.1398 -0.0213
H63 H 0.8652 -1.0278 -0.0410
C46 C 0.7824(4) -1.2091(3) -0.07956(12)
C47 C 0.9138(4) -1.2782(3) -0.07354(14)
H64 H 0.8946 -1.3379 -0.0811
H65 H 0.9381 -1.2921 -0.0415
C48 C 1.0407(4) -1.2417(2) -0.10295(13)
H66 H 1.0408 -1.2616 -0.1321
H67 H 1.1266 -1.2728 -0.0878
C49 C 1.0464(4) -1.1326(2) -0.11274(12)
C50 C 1.1744(5) -0.9947(3) -0.15773(17)
H68 H 1.2682 -0.9749 -0.1569
H69 H 1.1416 -0.9730 -0.1888
C51 C 1.1811(4) -1.1054(3) -0.14374(13)
C52 C 0.8477(5) -1.0878(3) -0.17591(14)
H70 H 0.9231 -1.0789 -0.1999
C53 C 0.8264(6) -1.2296(4) -0.20567(17)
H71 H 0.8067 -1.2953 -0.1962
H72 H 0.9201 -1.2275 -0.2196
H73 H 0.7583 -1.1952 -0.2275
C54 C 0.7155(5) -1.0214(4) -0.19304(18)
H74 H 0.7016 -0.9698 -0.1762
H75 H 0.6340 -1.0575 -0.1861
C55 C 0.7207(10) -0.9770(6) -0.2447(3)
N7 N 0.725(3) -1.0287(17) -0.2744(8)
N8 N 0.866(2) -1.0351(13) -0.2926(6)
N9 N 0.986(2) -1.0738(12) -0.3129(5)
C56 C 1.3422(10) -1.2503(7) -0.1788(3)
H76 H 1.3055 -1.3061 -0.1594
H77 H 1.3899 -1.2695 -0.2057
C57 C 1.4376(13) -1.2132(8) -0.1546(4)
H78 H 1.4900 -1.1676 -0.1759
H79 H 1.5052 -1.2652 -0.1397
S7 S 0.31159(13) -0.53286(8) -0.12637(4)
S8 S 0.15762(12) -0.67275(9) -0.06029(4)
O10 O 0.6837(3) -0.55621(19) -0.09575(10)
O11 O 0.8349(3) -0.6757(2) -0.01003(10)
O12 O 0.8278(3) -0.80406(19) -0.06064(10)
H80 H 0.8913 -0.7779 -0.0526
N10 N 0.9715(6) -0.6137(5) -0.21403(19)
C58 C 0.3250(4) -0.6601(3) -0.09580(14)
C59 C 0.3333(5) -0.7250(3) -0.13148(14)
H81 H 0.2395 -0.7419 -0.1354
H82 H 0.3684 -0.6909 -0.1609
C60 C 0.4328(5) -0.8158(3) -0.11459(15)
H83 H 0.4245 -0.8628 -0.1336
C61 C 0.3940(5) -0.8576(3) -0.06535(15)
H84 H 0.4385 -0.9232 -0.0567
H85 H 0.2920 -0.8583 -0.0613
C62 C 0.4464(4) -0.7943(3) -0.03502(13)
H86 H 0.3833 -0.7929 -0.0078
C63 C 0.4552(4) -0.6903(2) -0.06435(12)
C64 C 0.4586(4) -0.6192(3) -0.03219(14)
H87 H 0.4599 -0.5550 -0.0509
H88 H 0.3716 -0.6198 -0.0134
C65 C 0.5839(5) -0.6393(3) -0.00045(15)
H89 H 0.6041 -0.5790 0.0063
H90 H 0.5568 -0.6804 0.0283
C66 C 0.7158(5) -0.6861(3) -0.01966(13)
C67 C 0.6946(4) -0.7583(3) -0.04877(13)
C68 C 0.6011(4) -0.8313(3) -0.02088(14)
H91 H 0.6100 -0.8356 0.0118
H92 H 0.6284 -0.8944 -0.0277
C69 C 0.6002(4) -0.7100(2) -0.09053(12)
C70 C 0.5830(4) -0.7873(3) -0.11948(14)
H93 H 0.6055 -0.7616 -0.1516
H94 H 0.6493 -0.8439 -0.1093
C71 C 0.6640(4) -0.6242(3) -0.12245(13)
H95 H 0.5958 -0.5941 -0.1460
C72 C 0.6753(6) -0.4590(3) -0.1184(2)
H96 H 0.6674 -0.4190 -0.0961
H97 H 0.5934 -0.4436 -0.1370
H98 H 0.7592 -0.4480 -0.1375
C73 C 0.8062(5) -0.6525(3) -0.14652(15)
H99 H 0.8831 -0.6479 -0.1274
H100 H 0.8101 -0.7190 -0.1493
C74 C 0.8288(6) -0.5920(5) -0.19278(18)
H101 H 0.8162 -0.5249 -0.1905
H102 H 0.7571 -0.6013 -0.2128
N11 N 0.9637(19) -0.7035(14) -0.2299(6)
N12 N 0.978(2) -0.7665(12) -0.2457(6)
C75 C 0.1609(18) -0.4898(10) -0.0950(6)
H103 H 0.1908 -0.4432 -0.0792
H104 H 0.0924 -0.4551 -0.1171
C76 C 0.088(3) -0.5572(15) -0.0616(6)
H105 H -0.0115 -0.5500 -0.0689
H106 H 0.0935 -0.5428 -0.0315
H107? H 0.2488 -0.5657 -0.2391
H108? H 0.3364 -0.4777 -0.2425
N13? N 0.471(2) -0.6055(12) -0.2490(7)
N14? N 0.4590(17) -0.6873(14) -0.2536(5)
N15? N 0.466(2) -0.7634(13) -0.2540(6)
C77? C -0.3289(14) -0.2697(10) -0.3087(5)
H109? H -0.3923 -0.2621 -0.2826
H110? H -0.2796 -0.2126 -0.3174
C78? C -0.411(2) -0.2769(11) -0.3463(6)
H111? H -0.4186 -0.2155 -0.3679
H112? H -0.5067 -0.2887 -0.3346
H113? H 0.2904 -0.8904 -0.2968
H114? H 0.1267 -0.8925 -0.2954
N16? N 0.231(2) -1.0028(13) -0.2998(5)
N17? N 0.366(2) -1.0416(13) -0.2896(5)
N18? N 0.480(2) -1.0947(12) -0.2830(6)
C79? C 0.8700(18) -1.0027(13) -0.4039(7)
H115? H 0.8877 -1.0712 -0.4030
H116? H 0.9296 -0.9862 -0.3821
C80? C 0.902(2) -0.9336(13) -0.4614(5)
H117? H 1.0016 -0.9386 -0.4704
H118? H 0.8484 -0.9536 -0.4839
H119? H 0.6383 -0.9297 -0.2507
H120? H 0.8034 -0.9418 -0.2508
N19? N 0.8377(19) -0.9274(15) -0.2637(6)
N20? N 0.8150(17) -0.8410(15) -0.2632(5)
N21? N 0.796(3) -0.7574(16) -0.2669(8)
C81? C 1.3780(16) -1.1922(12) -0.1963(5)
H121? H 1.4316 -1.1375 -0.2067
H122? H 1.4026 -1.2378 -0.2162
C82? C 1.4120(16) -1.2483(10) -0.1367(5)
H123? H 1.3615 -1.3044 -0.1261
H124? H 1.5125 -1.2657 -0.1316
N22? N 1.0206(16) -0.6848(10) -0.2161(4)
N23? N 1.0851(14) -0.7513(12) -0.2216(5)
C83? C 0.1264(11) -0.5037(7) -0.1214(4)
H125? H 0.1039 -0.4345 -0.1258
H126? H 0.0804 -0.5255 -0.1449
C84? C 0.078(3) -0.5473(16) -0.0788(5)
H127? H -0.0242 -0.5463 -0.0791
H128? H 0.0986 -0.5105 -0.0566
H129? H 0.7160 -1.0283 -0.2610
H130? H 0.6354 -0.9326 -0.2513
loop_
_geom_bond_atom_site_label_1
_geom_bond_atom_site_label_2
_geom_bond_site_symmetry_1
_geom_bond_site_symmetry_2
S1 C5 1_555 1_555
S2 C5 1_555 1_555
O1 H1 1_555 1_555
O2 C11 1_555 1_555
O3 C14 1_555 1_555
C1 H2 1_555 1_555
C2 C1 1_555 1_555
H3 C2 1_555 1_555
H4 C2 1_555 1_555
C3 C2 1_555 1_555
H5 C3 1_555 1_555
C4 C3 1_555 1_555
C5 C4 1_555 1_555
C6 C1 1_555 1_555
H6 C6 1_555 1_555
H7 C6 1_555 1_555
C7 C1 1_555 1_555
H8 C7 1_555 1_555
H9 C7 1_555 1_555
C8 C4 1_555 1_555
C9 O1 1_555 1_555
C10 C3 1_555 1_555
H10 C10 1_555 1_555
H11 C10 1_555 1_555
C11 C9 1_555 1_555
C12 C11 1_555 1_555
H12 C12 1_555 1_555
H13 C12 1_555 1_555
C13 C4 1_555 1_555
H14 C13 1_555 1_555
H15 C13 1_555 1_555
C14 C8 1_555 1_555
H16 C14 1_555 1_555
C15 C14 1_555 1_555
H17 C15 1_555 1_555
H18 C15 1_555 1_555
C16 C15 1_555 1_555
H19 C16 1_555 1_555
H20 C16 1_555 1_555
C17 O3 1_555 1_555
H21 C17 1_555 1_555
H22 C17 1_555 1_555
H23 C17 1_555 1_555
N1 C16 1_555 1_555
N2 N1 1_555 1_555
N3 N2 1_555 1_555
C18 S1 1_555 1_555
H24 C18 1_555 1_555
H25 C18 1_555 1_555
C19 S2 1_555 1_555
H26 C19 1_555 1_555
H27 C19 1_555 1_555
S3 C32 1_555 1_555
S4 C32 1_555 1_555
O4 H28 1_555 1_555
O5 C21 1_555 1_555
O6 C33 1_555 1_555
C20 O4 1_555 1_555
C21 C20 1_555 1_555
C22 C21 1_555 1_555
H29 C22 1_555 1_555
H30 C22 1_555 1_555
C23 C22 1_555 1_555
H31 C23 1_555 1_555
H32 C23 1_555 1_555
C24 C20 1_555 1_555
C25 C23 1_555 1_555
C26 C25 1_555 1_555
H33 C26 1_555 1_555
C27 C20 1_555 1_555
H34 C27 1_555 1_555
H35 C27 1_555 1_555
C28 C26 1_555 1_555
H36 C28 1_555 1_555
H37 C28 1_555 1_555
C29 C28 1_555 1_555
H38 C29 1_555 1_555
C30 C24 1_555 1_555
H39 C30 1_555 1_555
H40 C30 1_555 1_555
C31 C29 1_555 1_555
H41 C31 1_555 1_555
H42 C31 1_555 1_555
C32 C25 1_555 1_555
C33 H43 1_555 1_555
H44 C33 1_555 1_555
H45 C33 1_555 1_555
C34 O6 1_555 1_555
H46 C34 1_555 1_555
C35 C34 1_555 1_555
H47 C35 1_555 1_555
H48 C35 1_555 1_555
C36 C35 1_555 1_555
H49 C36 1_555 1_555
H50 C36 1_555 1_555
N4 C36 1_555 1_555
N5 N4 1_555 1_555
N6 N5 1_555 1_555
C37 S3 1_555 1_555
H51 C37 1_555 1_555
H52 C37 1_555 1_555
C38 S4 1_555 1_555
H53 C38 1_555 1_555
H54 C38 1_555 1_555
S5 C51 1_555 1_555
S6 C51 1_555 1_555
O7 H55 1_555 1_555
O8 C46 1_555 1_555
O9 C52 1_555 1_555
C39 O7 1_555 1_555
C40 C39 1_555 1_555
C41 C40 1_555 1_555
H56 C41 1_555 1_555
H57 C41 1_555 1_555
C42 C41 1_555 1_555
H58 C42 1_555 1_555
C43 C42 1_555 1_555
H59 C43 1_555 1_555
H60 C43 1_555 1_555
C44 C43 1_555 1_555
H61 C44 1_555 1_555
C45 C39 1_555 1_555
H62 C45 1_555 1_555
H63 C45 1_555 1_555
C46 C39 1_555 1_555
C47 C46 1_555 1_555
H64 C47 1_555 1_555
H65 C47 1_555 1_555
C48 C47 1_555 1_555
H66 C48 1_555 1_555
H67 C48 1_555 1_555
C49 C40 1_555 1_555
C50 C42 1_555 1_555
H68 C50 1_555 1_555
H69 C50 1_555 1_555
C51 C49 1_555 1_555
C52 C40 1_555 1_555
H70 C52 1_555 1_555
C53 O9 1_555 1_555
H71 C53 1_555 1_555
H72 C53 1_555 1_555
H73 C53 1_555 1_555
C54 C52 1_555 1_555
H74 C54 1_555 1_555
H75 C54 1_555 1_555
C55 C54 1_555 1_555
N7 C55 1_555 1_555
N8 N7 1_555 1_555
N9 N8 1_555 1_555
C56 S5 1_555 1_555
H76 C56 1_555 1_555
H77 C56 1_555 1_555
C57 S6 1_555 1_555
H78 C57 1_555 1_555
H79 C57 1_555 1_555
S7 C58 1_555 1_555
S8 C58 1_555 1_555
O10 C71 1_555 1_555
O11 C66 1_555 1_555
O12 H80 1_555 1_555
N10 C74 1_555 1_555
C58 C59 1_555 1_555
C59 H81 1_555 1_555
H82 C59 1_555 1_555
C60 C59 1_555 1_555
H83 C60 1_555 1_555
C61 C60 1_555 1_555
H84 C61 1_555 1_555
H85 C61 1_555 1_555
C62 C61 1_555 1_555
H86 C62 1_555 1_555
C63 C58 1_555 1_555
C64 C63 1_555 1_555
H87 C64 1_555 1_555
H88 C64 1_555 1_555
C65 C64 1_555 1_555
H89 C65 1_555 1_555
H90 C65 1_555 1_555
C66 C65 1_555 1_555
C67 O12 1_555 1_555
C68 C62 1_555 1_555
H91 C68 1_555 1_555
H92 C68 1_555 1_555
C69 C63 1_555 1_555
C70 C60 1_555 1_555
H93 C70 1_555 1_555
H94 C70 1_555 1_555
C71 C69 1_555 1_555
H95 C71 1_555 1_555
C72 O10 1_555 1_555
H96 C72 1_555 1_555
H97 C72 1_555 1_555
H98 C72 1_555 1_555
C73 C71 1_555 1_555
H99 C73 1_555 1_555
H100 C73 1_555 1_555
C74 C73 1_555 1_555
H101 C74 1_555 1_555
H102 C74 1_555 1_555
N11 N10 1_555 1_555
N12 N11 1_555 1_555
C75 S7 1_555 1_555
H103 C75 1_555 1_555
H104 C75 1_555 1_555
C76 S8 1_555 1_555
H105 C76 1_555 1_555
H106 C76 1_555 1_555
C5 C6 1_555 1_555
C7 C8 1_555 1_555
C8 C9 1_555 1_555
C9 C10 1_555 1_555
C12 C13 1_555 1_555
C18 C19 1_555 1_555
C24 C25 1_555 1_555
C24 C34 1_555 1_555
C26 C27 1_555 1_555
C29 C30 1_555 1_555
C31 C32 1_555 1_555
C37 C38 1_555 1_555
C44 C45 1_555 1_555
C44 C49 1_555 1_555
C48 C49 1_555 1_555
C50 C51 1_555 1_555
C56 C57 1_555 1_555
C62 C63 1_555 1_555
C66 C67 1_555 1_555
C67 C68 1_555 1_555
C67 C69 1_555 1_555
C69 C70 1_555 1_555
C75 C76 1_555 1_555

#END
