
#######################################################################
#
#                 Cambridge Crystallographic Data Centre
#                                CCDC 
#
#######################################################################
#
# If this CIF has been generated from an entry in the Cambridge 
# Structural Database, then it will include bibliographic, chemical, 
# crystal, experimental, refinement or atomic coordinate data resulting 
# from the CCDC's data processing and validation procedures.
#
#######################################################################

data_DALFUU
_chemical_formula_moiety         'C17 H11 Br1 N2 O2'
_chemical_name_systematic        
'2-Bromo-6-methyl-6H-indolo[2,3-b]quinoline-11-carboxylic acid'
_symmetry_cell_setting           orthorhombic
_symmetry_space_group_name_H-M   'P b c a'
_symmetry_Int_Tables_number      61
_space_group_name_Hall           '-P 2ac 2ab'
loop_
_symmetry_equiv_pos_site_id
_symmetry_equiv_pos_as_xyz
1 x,y,z
2 1/2-x,-y,1/2+z
3 1/2+x,1/2-y,-z
4 -x,1/2+y,1/2-z
5 -x,-y,-z
6 1/2+x,y,1/2-z
7 1/2-x,1/2+y,z
8 x,1/2-y,1/2+z
_cell_length_a                   26.937(12)
_cell_length_b                   7.219(3)
_cell_length_c                   28.642(13)
_cell_angle_alpha                90
_cell_angle_beta                 90
_cell_angle_gamma                90
_cell_volume                     5569.67
_chemical_melting_point          'above 300 deg.C'
_cell_formula_units_Z            16
loop_
_atom_site_label
_atom_site_type_symbol
_atom_site_fract_x
_atom_site_fract_y
_atom_site_fract_z
Br1 Br 0.318953(17) 0.83541(8) 0.53055(2)
N1 N 0.02658(13) 0.7330(6) 0.46772(12)
O1 O 0.10985(12) 1.0358(5) 0.61053(11)
O2 O 0.15410(13) 0.7803(5) 0.62425(11)
C1 C 0.13060(16) 0.8795(7) 0.59843(16)
C2 C 0.12377(16) 0.8345(6) 0.54749(15)
C3 C 0.16569(16) 0.8184(7) 0.51829(15)
C4 C 0.21474(16) 0.8375(7) 0.53507(16)
H1 H 0.2203 0.8617 0.5665
C5 C 0.25366(15) 0.8206(7) 0.50554(17)
C6 C 0.24724(18) 0.7903(7) 0.45764(17)
H2 H 0.2744 0.7856 0.4377
C7 C 0.20047(18) 0.7679(7) 0.44095(17)
H3 H 0.1960 0.7451 0.4093
C8 C 0.15885(16) 0.7781(6) 0.47005(15)
N2 N 0.11294(13) 0.7469(6) 0.45130(12)
C9 C 0.07508(16) 0.7592(7) 0.47979(15)
C10 C 0.07770(16) 0.8054(6) 0.52844(15)
C11 C 0.02694(16) 0.8063(6) 0.54567(15)
C12 C 0.00414(16) 0.8418(7) 0.58808(17)
H4 H 0.0231 0.8733 0.6141
C13 C -0.04684(18) 0.8302(7) 0.59147(18)
H5 H -0.0621 0.8557 0.6199
C14 C -0.07542(16) 0.7820(7) 0.55400(18)
H6 H -0.1096 0.7710 0.5577
C15 C -0.05436(16) 0.7487(7) 0.51026(18)
H7 H -0.0739 0.7205 0.4845
C16 C -0.00311(15) 0.7595(6) 0.50684(16)
C17 C 0.00781(18) 0.6837(8) 0.42154(17)
H8 H 0.0307 0.7258 0.3981
H9 H -0.0239 0.7414 0.4167
H10 H 0.0043 0.5517 0.4194
H11 H 0.1265 1.0855 0.6310
Br2 Br -0.066636(18) 1.09925(8) 0.81153(2)
N3 N 0.21198(14) 1.1117(5) 0.70351(12)
O3 O 0.15503(13) 1.0967(5) 0.87620(11)
O4 O 0.10906(12) 0.8482(5) 0.86128(12)
C18 C 0.13265(16) 0.9983(8) 0.84995(16)
C19 C 0.12958(16) 1.0399(7) 0.79836(15)
C20 C 0.08277(16) 1.0659(6) 0.77585(15)
C21 C 0.03691(16) 1.0668(7) 0.80033(15)
H12 H 0.0367 1.0494 0.8325
C22 C -0.00655(17) 1.0928(7) 0.77739(16)
C23 C -0.00788(18) 1.1154(7) 0.72874(17)
H13 H -0.0380 1.1277 0.7132
C24 C 0.03586(18) 1.1190(7) 0.70454(16)
H14 H 0.0351 1.1355 0.6723
C25 C 0.08159(16) 1.0987(7) 0.72690(16)
N4 N 0.12413(14) 1.1081(5) 0.70094(12)
C26 C 0.16616(17) 1.0952(7) 0.72299(15)
C27 C 0.17147(16) 1.0577(6) 0.77211(15)
C28 C 0.22449(16) 1.0491(7) 0.78101(16)
C29 C 0.25353(17) 1.0158(8) 0.82000(17)
H15 H 0.2388 0.9933 0.8488
C30 C 0.30453(18) 1.0162(8) 0.81568(19)
H16 H 0.3242 0.9908 0.8416
C31 C 0.32665(18) 1.0542(8) 0.7729(2)
H17 H 0.3611 1.0565 0.7709
C32 C 0.29933(17) 1.0885(7) 0.73346(19)
H18 H 0.3144 1.1133 0.7049
C33 C 0.24785(16) 1.0843(7) 0.73818(16)
C34 C 0.22247(19) 1.1743(8) 0.65622(16)
H19 H 0.2577 1.1729 0.6510
H20 H 0.2065 1.0933 0.6343
H21 H 0.2101 1.2980 0.6522
H22 H 0.1291 0.7651 0.8664
H23? H 0.1091 0.7206 0.4222
H24? H 0.1231 1.1221 0.6711
loop_
_geom_bond_atom_site_label_1
_geom_bond_atom_site_label_2
_geom_bond_site_symmetry_1
_geom_bond_site_symmetry_2
Br1 C5 1_555 1_555
N1 C9 1_555 1_555
O1 C1 1_555 1_555
O2 C1 1_555 1_555
C1 C2 1_555 1_555
C2 C3 1_555 1_555
C3 C4 1_555 1_555
C4 H1 1_555 1_555
C5 C4 1_555 1_555
C6 C5 1_555 1_555
H2 C6 1_555 1_555
C7 C6 1_555 1_555
H3 C7 1_555 1_555
C8 C3 1_555 1_555
N2 C8 1_555 1_555
C9 N2 1_555 1_555
C10 C2 1_555 1_555
C11 C10 1_555 1_555
C12 C11 1_555 1_555
H4 C12 1_555 1_555
C13 C12 1_555 1_555
H5 C13 1_555 1_555
C14 C13 1_555 1_555
H6 C14 1_555 1_555
C15 C14 1_555 1_555
H7 C15 1_555 1_555
C16 N1 1_555 1_555
C17 N1 1_555 1_555
H8 C17 1_555 1_555
H9 C17 1_555 1_555
H10 C17 1_555 1_555
H11 O1 1_555 1_555
Br2 C22 1_555 1_555
N3 C26 1_555 1_555
O3 C18 1_555 1_555
O4 C18 1_555 1_555
C18 C19 1_555 1_555
C19 C20 1_555 1_555
C20 C21 1_555 1_555
C21 H12 1_555 1_555
C22 C21 1_555 1_555
C23 C22 1_555 1_555
H13 C23 1_555 1_555
C24 C23 1_555 1_555
H14 C24 1_555 1_555
C25 C20 1_555 1_555
N4 C25 1_555 1_555
C26 N4 1_555 1_555
C27 C19 1_555 1_555
C28 C27 1_555 1_555
C29 C28 1_555 1_555
H15 C29 1_555 1_555
C30 C29 1_555 1_555
H16 C30 1_555 1_555
C31 C30 1_555 1_555
H17 C31 1_555 1_555
C32 C31 1_555 1_555
H18 C32 1_555 1_555
C33 N3 1_555 1_555
C34 N3 1_555 1_555
H19 C34 1_555 1_555
H20 C34 1_555 1_555
H21 C34 1_555 1_555
H22 O4 1_555 1_555
C7 C8 1_555 1_555
C9 C10 1_555 1_555
C11 C16 1_555 1_555
C15 C16 1_555 1_555
C24 C25 1_555 1_555
C26 C27 1_555 1_555
C28 C33 1_555 1_555
C32 C33 1_555 1_555

#END
