
#######################################################################
#
#                 Cambridge Crystallographic Data Centre
#                                CCDC 
#
#######################################################################
#
# If this CIF has been generated from an entry in the Cambridge 
# Structural Database, then it will include bibliographic, chemical, 
# crystal, experimental, refinement or atomic coordinate data resulting 
# from the CCDC's data processing and validation procedures.
#
#######################################################################

data_DALLIM
_chemical_formula_moiety         'C10 H10 N2 2+,C17 H8 O9 2-,H2 O1'
_chemical_name_systematic        
"4,4'-Bipyridinium benzophenone-4,4'-dicarboxylate-3,3'-dicarboxylic acid monohydrate"
_symmetry_cell_setting           monoclinic
_symmetry_space_group_name_H-M   'P 21/c'
_symmetry_Int_Tables_number      14
_space_group_name_Hall           '-P 2ybc'
loop_
_symmetry_equiv_pos_site_id
_symmetry_equiv_pos_as_xyz
1 x,y,z
2 x,1/2-y,1/2+z
3 -x,-y,-z
4 -x,1/2+y,1/2-z
_cell_length_a                   11.9357(12)
_cell_length_b                   13.5389(13)
_cell_length_c                   14.4089(16)
_cell_angle_alpha                90
_cell_angle_beta                 96.835(2)
_cell_angle_gamma                90
_cell_volume                     2311.88
_exptl_crystal_colour            yellow
_exptl_crystal_description       prism
_cell_formula_units_Z            4
_exptl_crystal_preparation       photoluminescent
loop_
_atom_site_label
_atom_site_type_symbol
_atom_site_fract_x
_atom_site_fract_y
_atom_site_fract_z
O1 O 0.9212(3) 0.3690(3) 0.2352(2)
O2 O 0.3894(3) 0.3971(3) -0.3305(2)
H1 H 0.372(5) 0.434(4) -0.377(3)
O4 O 0.8753(3) 0.3880(3) 0.3790(2)
O5 O 0.2086(3) 0.3841(3) -0.3091(3)
O6 O 0.2255(3) 0.1651(3) -0.2963(3)
O7 O 0.6492(4) 0.4536(3) 0.4554(2)
O8 O 0.6852(3) 0.2924(3) 0.4574(3)
O9 O 0.1155(3) 0.1674(4) -0.1824(3)
O10 O 0.6288(3) 0.4395(3) -0.0273(2)
C1 C 0.5890(4) 0.3731(3) 0.1150(3)
C2 C 0.4694(4) 0.3351(4) -0.0435(3)
C4 C 0.7007(4) 0.3747(3) 0.1564(3)
H7 H 0.7586 0.3767 0.1185
C5 C 0.4359(4) 0.3700(4) -0.1341(3)
H8 H 0.4733 0.4234 -0.1569
C6 C 0.7276(4) 0.3733(3) 0.2530(3)
C7 C 0.3468(4) 0.3253(4) -0.1903(3)
C8 C 0.2922(4) 0.2444(4) -0.1559(3)
C9 C 0.6416(4) 0.3715(3) 0.3099(3)
C10 C 0.5306(4) 0.3702(4) 0.2690(3)
H9 H 0.4724 0.3697 0.3067
C11 C 0.3269(4) 0.2093(4) -0.0658(3)
H10 H 0.2905 0.1554 -0.0429
C12 C 0.4151(4) 0.2544(4) -0.0104(3)
H11 H 0.4380 0.2303 0.0493
C13 C 0.5051(4) 0.3697(4) 0.1727(3)
H12 H 0.4301 0.3670 0.1466
C14 C 0.8486(4) 0.3773(4) 0.2964(3)
C15 C 0.3097(4) 0.3706(4) -0.2832(3)
C16 C 0.6624(4) 0.3706(5) 0.4155(4)
C17 C 0.2019(4) 0.1890(4) -0.2171(4)
C18 C 0.5674(4) 0.3853(3) 0.0115(3)
H20 H 0.982(3) 0.359(4) 0.268(4)
O3 O 0.0773(5) 0.0917(5) 0.0179(4)
H2 H 0.069(9) 0.099(8) -0.0404(17)
H3 H 0.139(5) 0.075(8) 0.047(7)
N1 N 0.7426(5) 0.4161(4) 0.6305(3)
H4 H 0.6990 0.4248 0.5792
N2 N 1.0975(4) 0.3601(3) 1.0482(3)
H5 H 1.1405 0.3543 1.1002
C3 C 0.8528(5) 0.4122(5) 0.6289(4)
H6 H 0.8820 0.4174 0.5721
C19 C 0.9251(5) 0.4006(4) 0.7097(4)
H13 H 1.0026 0.3982 0.7074
C20 C 0.8821(4) 0.3926(4) 0.7944(3)
C21 C 0.7665(5) 0.3945(4) 0.7935(4)
H14 H 0.7346 0.3876 0.8490
C22 C 0.6983(5) 0.4068(5) 0.7098(4)
H15 H 0.6203 0.4085 0.7093
C23 C 0.9583(4) 0.3805(3) 0.8833(3)
C24 C 1.0658(4) 0.4210(4) 0.8947(3)
H16 H 1.0919 0.4556 0.8459
C25 C 1.1339(4) 0.4100(4) 0.9782(4)
H17 H 1.2058 0.4377 0.9856
C26 C 0.9238(4) 0.3290(4) 0.9581(3)
H18 H 0.8521 0.3012 0.9534
C27 C 0.9956(5) 0.3192(4) 1.0388(3)
H19 H 0.9728 0.2832 1.0881
loop_
_geom_bond_atom_site_label_1
_geom_bond_atom_site_label_2
_geom_bond_site_symmetry_1
_geom_bond_site_symmetry_2
O1 C14 1_555 1_555
O2 H1 1_555 1_555
O3 H2 1_555 1_555
H3 O3 1_555 1_555
O4 C14 1_555 1_555
O5 C15 1_555 1_555
O6 C17 1_555 1_555
O7 C16 1_555 1_555
O8 C16 1_555 1_555
O9 C17 1_555 1_555
O10 C18 1_555 1_555
N1 H4 1_555 1_555
N2 H5 1_555 1_555
C1 C4 1_555 1_555
C2 C5 1_555 1_555
C3 N1 1_555 1_555
H6 C3 1_555 1_555
C4 H7 1_555 1_555
C5 H8 1_555 1_555
C6 C4 1_555 1_555
C7 C5 1_555 1_555
C8 C7 1_555 1_555
C9 C6 1_555 1_555
C10 C9 1_555 1_555
H9 C10 1_555 1_555
C11 C8 1_555 1_555
H10 C11 1_555 1_555
C12 C2 1_555 1_555
H11 C12 1_555 1_555
C13 C1 1_555 1_555
H12 C13 1_555 1_555
C14 C6 1_555 1_555
C15 O2 1_555 1_555
C16 C9 1_555 1_555
C17 C8 1_555 1_555
C18 C1 1_555 1_555
C19 C3 1_555 1_555
H13 C19 1_555 1_555
C20 C19 1_555 1_555
C21 C20 1_555 1_555
H14 C21 1_555 1_555
C22 N1 1_555 1_555
H15 C22 1_555 1_555
C23 C20 1_555 1_555
C24 C23 1_555 1_555
H16 C24 1_555 1_555
C25 N2 1_555 1_555
H17 C25 1_555 1_555
C26 C23 1_555 1_555
H18 C26 1_555 1_555
C27 N2 1_555 1_555
H19 C27 1_555 1_555
H20 O1 1_555 1_555
C2 C18 1_555 1_555
C7 C15 1_555 1_555
C10 C13 1_555 1_555
C11 C12 1_555 1_555
C21 C22 1_555 1_555
C24 C25 1_555 1_555
C26 C27 1_555 1_555

#END
