
#######################################################################
#
#                 Cambridge Crystallographic Data Centre
#                                CCDC 
#
#######################################################################
#
# If this CIF has been generated from an entry in the Cambridge 
# Structural Database, then it will include bibliographic, chemical, 
# crystal, experimental, refinement or atomic coordinate data resulting 
# from the CCDC's data processing and validation procedures.
#
#######################################################################

data_DAMZAU
_chemical_formula_moiety         'C48 H31 B2 F20 N3,C7 H8'
_chemical_name_systematic        
'(2,6-diisopropyl-N-(3-(N-(bis(pentafluorophenyl)boron)iminomethyl)-4-(phenylimino)pent-2-en-2-yl)anilinato)-bis(pentafluorophenyl)-boron toluene solvate'
_symmetry_cell_setting           monoclinic
_symmetry_space_group_name_H-M   'P 2/c'
_symmetry_Int_Tables_number      13
_space_group_name_Hall           '-P 2yc'
loop_
_symmetry_equiv_pos_site_id
_symmetry_equiv_pos_as_xyz
1 x,y,z
2 -x,y,1/2-z
3 -x,-y,-z
4 x,-y,1/2+z
_cell_length_a                   16.0952(4)
_cell_length_b                   10.0282(3)
_cell_length_c                   31.9122(9)
_cell_angle_alpha                90
_cell_angle_beta                 90.840(1)
_cell_angle_gamma                90
_cell_volume                     5150.26
_exptl_crystal_colour            colorless
_exptl_crystal_description       block
_cell_formula_units_Z            4
loop_
_atom_site_label
_atom_site_type_symbol
_atom_site_fract_x
_atom_site_fract_y
_atom_site_fract_z
B1 B 0.71453(18) 0.2017(3) 0.41340(9)
N1 N 0.69620(12) 0.35579(19) 0.40825(6)
C1 C 0.63491(15) 0.3843(2) 0.38160(8)
C2 C 0.61038(15) 0.2852(2) 0.35148(7)
C3 C 0.67057(15) 0.1881(2) 0.33940(8)
N2 N 0.73235(12) 0.15956(19) 0.36624(6)
C4 C 0.53617(16) 0.2975(2) 0.32663(8)
H1 H 0.5371 0.2585 0.2998
N3 N 0.46804(13) 0.3562(2) 0.33693(7)
H2 H 0.4665(18) 0.386(3) 0.3626(9)
B2 B 0.39450(19) 0.3910(3) 0.30608(10)
H3 H 0.4063(17) 0.333(3) 0.2763(9)
C5 C 0.59528(16) 0.5202(2) 0.38221(9)
H4 H 0.5482 0.5191 0.4008
H5 H 0.5766 0.5436 0.3541
H6 H 0.6356 0.5854 0.3921
C6 C 0.66233(18) 0.1165(3) 0.29825(9)
H7 H 0.7055 0.0494 0.2963
H8 H 0.6678 0.1799 0.2755
H9 H 0.6083 0.0739 0.2963
C7 C 0.79149(15) 0.1729(2) 0.44591(8)
C8 C 0.87017(16) 0.2253(3) 0.43970(8)
F1 F 0.88496(9) 0.29656(16) 0.40476(5)
C9 C 0.93707(17) 0.2100(3) 0.46636(10)
F2 F 1.01098(10) 0.2645(2) 0.45804(6)
C10 C 0.92772(18) 0.1350(3) 0.50198(10)
F3 F 0.99160(11) 0.1177(2) 0.52916(6)
C11 C 0.85249(19) 0.0782(3) 0.50978(9)
F4 F 0.84247(13) 0.0056(2) 0.54478(6)
C12 C 0.78659(16) 0.0979(3) 0.48243(9)
F5 F 0.71482(10) 0.04174(18) 0.49425(5)
C13 C 0.62708(15) 0.1203(2) 0.42562(7)
C14 C 0.55240(15) 0.1707(2) 0.43997(8)
F6 F 0.54071(9) 0.30387(14) 0.44485(5)
C15 C 0.48404(15) 0.0952(3) 0.45029(8)
F7 F 0.41545(9) 0.15323(16) 0.46482(5)
C16 C 0.48696(17) -0.0407(3) 0.44578(8)
F8 F 0.42191(11) -0.11702(17) 0.45571(6)
C17 C 0.55831(18) -0.0972(3) 0.43116(9)
F9 F 0.56236(13) -0.22961(16) 0.42705(7)
C18 C 0.62472(17) -0.0177(3) 0.42152(9)
F10 F 0.69307(10) -0.08294(16) 0.40837(6)
C19 C 0.74496(15) 0.4648(2) 0.42677(8)
C20 C 0.79399(17) 0.5442(3) 0.40001(9)
C21 C 0.8387(2) 0.6475(3) 0.41870(10)
H10 H 0.8717 0.7021 0.4018
C22 C 0.8363(2) 0.6725(3) 0.46067(12)
H11 H 0.8670 0.7437 0.4722
C23 C 0.7892(2) 0.5934(3) 0.48600(10)
H12 H 0.7885 0.6109 0.5149
C24 C 0.74210(17) 0.4877(3) 0.47006(8)
C25 C 0.79972(19) 0.5283(3) 0.35278(9)
H13 H 0.7680 0.4476 0.3446
C26 C 0.8892(2) 0.5115(4) 0.33760(12)
H14 H 0.9200 0.5932 0.3426
H15 H 0.8885 0.4918 0.3078
H16 H 0.9157 0.4387 0.3527
C27 C 0.7615(2) 0.6476(4) 0.32953(11)
H17 H 0.7049 0.6608 0.3387
H18 H 0.7614 0.6305 0.2996
H19 H 0.7939 0.7270 0.3356
C28 C 0.68848(17) 0.4098(3) 0.49978(8)
H20 H 0.6696 0.3277 0.4853
C29 C 0.7356(2) 0.3687(3) 0.53988(9)
H21 H 0.7891 0.3314 0.5326
H22 H 0.7036 0.3024 0.5548
H23 H 0.7440 0.4462 0.5576
C30 C 0.6117(2) 0.4908(3) 0.51116(11)
H24 H 0.6286 0.5694 0.5268
H25 H 0.5753 0.4368 0.5281
H26 H 0.5825 0.5178 0.4857
C31 C 0.80951(15) 0.1060(3) 0.35058(8)
C32 C 0.85048(16) 0.0012(3) 0.37009(9)
H27 H 0.8269 -0.0413 0.3933
C33 C 0.92666(18) -0.0407(3) 0.35509(11)
H28 H 0.9547 -0.1115 0.3685
C34 C 0.96163(19) 0.0197(3) 0.32100(11)
H29 H 1.0129 -0.0102 0.3108
C35 C 0.92099(19) 0.1242(3) 0.30189(10)
H30 H 0.9449 0.1660 0.2786
C36 C 0.84572(17) 0.1685(3) 0.31632(9)
H31 H 0.8188 0.2407 0.3031
C37 C 0.30411(17) 0.3483(3) 0.32437(8)
C38 C 0.23497(18) 0.3551(3) 0.29805(9)
F11 F 0.24500(11) 0.3919(2) 0.25759(5)
C39 C 0.15534(19) 0.3293(4) 0.31020(11)
F12 F 0.09087(12) 0.3402(3) 0.28269(7)
C40 C 0.1407(2) 0.2927(4) 0.35104(12)
F13 F 0.06299(13) 0.2695(3) 0.36360(8)
C41 C 0.2063(2) 0.2844(4) 0.37871(10)
F14 F 0.19327(15) 0.2512(3) 0.41862(6)
C42 C 0.28559(19) 0.3120(3) 0.36495(9)
F15 F 0.34704(11) 0.3033(2) 0.39418(5)
C43 C 0.39558(16) 0.5518(3) 0.29897(8)
C44 C 0.39415(18) 0.6415(3) 0.33194(8)
F16 F 0.39065(11) 0.59270(17) 0.37168(5)
C45 C 0.3975(2) 0.7774(3) 0.32762(10)
F17 F 0.39866(15) 0.8581(2) 0.36119(6)
C46 C 0.4006(2) 0.8303(3) 0.28815(11)
F18 F 0.40576(16) 0.96339(19) 0.28283(7)
C47 C 0.4000(2) 0.7472(3) 0.25389(9)
F19 F 0.40404(13) 0.7997(2) 0.21510(6)
C48 C 0.39817(18) 0.6118(3) 0.25999(8)
F20 F 0.40096(11) 0.53534(18) 0.22505(5)
C49 C 0.8897(5) 0.2853(8) 0.6988(2)
H32 H 0.9217 0.3627 0.7027
C50 C 0.8724(6) 0.2187(10) 0.7297(3)
H33 H 0.8914 0.2439 0.7565
C51 C 0.8243(4) 0.1055(9) 0.7242(3)
H34 H 0.8091 0.0578 0.7482
C52 C 0.7966(4) 0.0569(9) 0.6852(3)
H35 H 0.7664 -0.0227 0.6821
C53 C 0.8189(4) 0.1404(8) 0.6502(2)
H36 H 0.8029 0.1191 0.6226
C54 C 0.8650(4) 0.2531(7) 0.65957(19)
C55 C 0.8910(6) 0.3404(10) 0.6246(3)
H37 H 0.8944 0.2882 0.5991
H38 H 0.9449 0.3788 0.6311
H39 H 0.8506 0.4113 0.6207
loop_
_geom_bond_atom_site_label_1
_geom_bond_atom_site_label_2
_geom_bond_site_symmetry_1
_geom_bond_site_symmetry_2
B1 N1 1_555 1_555
N1 C1 1_555 1_555
C1 C2 1_555 1_555
C2 C3 1_555 1_555
C3 N2 1_555 1_555
N2 B1 1_555 1_555
C4 C2 1_555 1_555
H1 C4 1_555 1_555
N3 C4 1_555 1_555
H2 N3 1_555 1_555
B2 N3 1_555 1_555
H3 B2 1_555 1_555
C5 C1 1_555 1_555
H4 C5 1_555 1_555
H5 C5 1_555 1_555
H6 C5 1_555 1_555
C6 C3 1_555 1_555
H7 C6 1_555 1_555
H8 C6 1_555 1_555
H9 C6 1_555 1_555
C7 B1 1_555 1_555
C8 C7 1_555 1_555
F1 C8 1_555 1_555
C9 C8 1_555 1_555
F2 C9 1_555 1_555
C10 C9 1_555 1_555
F3 C10 1_555 1_555
C11 C10 1_555 1_555
F4 C11 1_555 1_555
C12 C7 1_555 1_555
F5 C12 1_555 1_555
C13 B1 1_555 1_555
C14 C13 1_555 1_555
F6 C14 1_555 1_555
C15 C14 1_555 1_555
F7 C15 1_555 1_555
C16 C15 1_555 1_555
F8 C16 1_555 1_555
C17 C16 1_555 1_555
F9 C17 1_555 1_555
C18 C13 1_555 1_555
F10 C18 1_555 1_555
C19 N1 1_555 1_555
C20 C19 1_555 1_555
C21 C20 1_555 1_555
H10 C21 1_555 1_555
C22 C21 1_555 1_555
H11 C22 1_555 1_555
C23 C22 1_555 1_555
H12 C23 1_555 1_555
C24 C19 1_555 1_555
C25 C20 1_555 1_555
H13 C25 1_555 1_555
C26 C25 1_555 1_555
H14 C26 1_555 1_555
H15 C26 1_555 1_555
H16 C26 1_555 1_555
C27 C25 1_555 1_555
H17 C27 1_555 1_555
H18 C27 1_555 1_555
H19 C27 1_555 1_555
C28 C24 1_555 1_555
H20 C28 1_555 1_555
C29 C28 1_555 1_555
H21 C29 1_555 1_555
H22 C29 1_555 1_555
H23 C29 1_555 1_555
C30 C28 1_555 1_555
H24 C30 1_555 1_555
H25 C30 1_555 1_555
H26 C30 1_555 1_555
C31 N2 1_555 1_555
C32 C31 1_555 1_555
H27 C32 1_555 1_555
C33 C32 1_555 1_555
H28 C33 1_555 1_555
C34 C33 1_555 1_555
H29 C34 1_555 1_555
C35 C34 1_555 1_555
H30 C35 1_555 1_555
C36 C31 1_555 1_555
H31 C36 1_555 1_555
C37 B2 1_555 1_555
C38 C37 1_555 1_555
F11 C38 1_555 1_555
C39 C38 1_555 1_555
F12 C39 1_555 1_555
C40 C39 1_555 1_555
F13 C40 1_555 1_555
C41 C40 1_555 1_555
F14 C41 1_555 1_555
C42 C37 1_555 1_555
F15 C42 1_555 1_555
C43 B2 1_555 1_555
C44 C43 1_555 1_555
F16 C44 1_555 1_555
C45 C44 1_555 1_555
F17 C45 1_555 1_555
C46 C45 1_555 1_555
F18 C46 1_555 1_555
C47 C46 1_555 1_555
F19 C47 1_555 1_555
C48 C43 1_555 1_555
F20 C48 1_555 1_555
C49 H32 1_555 1_555
C50 C49 1_555 1_555
H33 C50 1_555 1_555
C51 C50 1_555 1_555
H34 C51 1_555 1_555
C52 C51 1_555 1_555
H35 C52 1_555 1_555
C53 C52 1_555 1_555
H36 C53 1_555 1_555
C54 C49 1_555 1_555
C55 C54 1_555 1_555
H37 C55 1_555 1_555
H38 C55 1_555 1_555
H39 C55 1_555 1_555
C11 C12 1_555 1_555
C17 C18 1_555 1_555
C23 C24 1_555 1_555
C35 C36 1_555 1_555
C41 C42 1_555 1_555
C47 C48 1_555 1_555
C53 C54 1_555 1_555

#END
