
#######################################################################
#
#                 Cambridge Crystallographic Data Centre
#                                CCDC 
#
#######################################################################
#
# If this CIF has been generated from an entry in the Cambridge 
# Structural Database, then it will include bibliographic, chemical, 
# crystal, experimental, refinement or atomic coordinate data resulting 
# from the CCDC's data processing and validation procedures.
#
#######################################################################

data_DANYID
_chemical_name_common            
'2,20:8,62:14,32:26,44:38,56:50,68-hexakis(propan-1,3-diyl)calix[12]resorcinarene bis(1,2-bis(4-pyridyl)ethylene) dimethyl sulfoxide solvate'
_chemical_formula_moiety         'C102 H96 O24,2(C12 H10 N2),17(C2 H6 O1 S1)'
_chemical_name_systematic        
'Noria bis(1,2-bis(4-pyridyl)ethylene) dimethyl sulfoxide solvate'
_symmetry_cell_setting           triclinic
_symmetry_space_group_name_H-M   'P -1'
_symmetry_Int_Tables_number      2
_space_group_name_Hall           '-P 1'
loop_
_symmetry_equiv_pos_site_id
_symmetry_equiv_pos_as_xyz
1 x,y,z
2 -x,-y,-z
_cell_length_a                   16.3254(3)
_cell_length_b                   19.6675(4)
_cell_length_c                   30.3886(6)
_cell_angle_alpha                104.0120(10)
_cell_angle_beta                 92.6850(10)
_cell_angle_gamma                97.4110(10)
_cell_volume                     9356.8
_exptl_crystal_colour            colorless
_exptl_crystal_description       Plate
_cell_formula_units_Z            2
loop_
_atom_site_label
_atom_site_type_symbol
_atom_site_fract_x
_atom_site_fract_y
_atom_site_fract_z
O1 O 0.8370(3) 0.40233(19) 0.96180(14)
H1 H 0.8756 0.3820 0.9695
C1 C 0.7141(3) 0.2436(2) 0.89061(15)
H2 H 0.7215 0.2028 0.8678
O2 O 0.5451(3) 0.3212(2) 0.94847(14)
H3 H 0.5483 0.3454 0.9755
C2 C 0.7838(3) 0.2911(2) 0.91062(16)
O3 O 0.4213(3) 0.2846(2) 0.88163(13)
H4 H 0.4589 0.3009 0.9029
C3 C 0.7692(4) 0.3522(3) 0.94321(17)
O4 O 0.4197(3) 0.2820(3) 0.72593(15)
H5 H 0.4556 0.3105 0.7167
C4 C 0.6902(4) 0.3623(3) 0.95537(19)
H6 H 0.6819 0.4037 0.9774
C5 C 0.6237(4) 0.3124(3) 0.93553(18)
O5 O 0.8465(3) 0.4003(3) 0.7090(2)
H7 H 0.8582 0.4266 0.7353
O6 O 0.9888(6) 0.3487(3) 0.6815(3)
H8 H 1.0177 0.3580 0.7064
O7 O 1.0128(3) 0.1396(3) 0.56999(16)
H9 H 0.9730 0.1138 0.5510
C6 C 0.5554(3) 0.2075(3) 0.79552(16)
H10 H 0.6011 0.1818 0.7927
O8 O 0.9001(2) 0.0348(3) 0.51988(13)
H11 H 0.9144 -0.0039 0.5064
C7 C 0.5232(3) 0.2249(2) 0.83788(17)
O9 O 0.6047(2) -0.0294(3) 0.49965(11)
H12 H 0.6153 -0.0364 0.4723
C8 C 0.4572(4) 0.2642(3) 0.84141(19)
O10 O 0.4658(3) -0.1099(2) 0.51996(13)
H13 H 0.5008 -0.0818 0.5113
C9 C 0.4253(4) 0.2831(3) 0.8036(2)
H14 H 0.3803 0.3096 0.8066
O11 O 0.4830(4) -0.3167(3) 0.5719(2)
H15 H 0.4378 -0.3291 0.5558
C10 C 0.4569(4) 0.2645(3) 0.76260(19)
O12 O 0.6467(3) -0.3622(3) 0.56749(19)
H16 H 0.6621 -0.3889 0.5443
C11 C 0.5239(3) 0.2258(3) 0.75710(17)
O13 O 0.9385(3) -0.2937(4) 0.58696(17)
H17 H 0.9732 -0.2828 0.6097
C12 C 0.5609(3) 0.2031(3) 0.71172(17)
H18 H 0.5194 0.2074 0.6876
O14 O 1.0583(3) -0.2665(3) 0.65678(14)
H19 H 1.0964 -0.2906 0.6600
C13 C 0.7181(3) 0.2435(3) 0.72123(16)
H20 H 0.7246 0.2009 0.7296
O15 O 1.0562(2) -0.2711(2) 0.81202(13)
H21 H 1.0268 -0.2628 0.8342
C14 C 0.6391(3) 0.2538(3) 0.70970(16)
O16 O 0.9360(2) -0.2951(2) 0.86739(13)
H22 H 0.9404 -0.3383 0.8587
C15 C 0.6305(4) 0.3168(3) 0.6973(2)
O17 O 0.6411(2) -0.36209(18) 0.84741(12)
H23 H 0.6195 -0.3857 0.8217
C16 C 0.7013(5) 0.3651(4) 0.6974(3)
H24 H 0.6955 0.4081 0.6893
O18 O 0.4588(2) -0.30955(19) 0.83133(14)
H25 H 0.4100 -0.3194 0.8379
C17 C 0.7775(4) 0.3522(3) 0.7087(2)
O19 O 0.4367(3) -0.1077(2) 0.94952(14)
H26 H 0.4491 -0.1172 0.9743
C18 C 0.7891(4) 0.2906(3) 0.72156(16)
O20 O 0.59864(18) -0.04264(17) 1.01483(10)
H27 H 0.6071 -0.0456 1.0417
C19 C 0.8761(3) 0.2775(3) 0.73248(17)
H28 H 0.9111 0.3247 0.7441
O21 O 0.89230(19) 0.03207(19) 1.03663(10)
H29 H 0.8831 0.0274 1.0628
C20 C 0.8931(3) 0.1681(3) 0.67072(15)
H30 H 0.8548 0.1423 0.6854
O22 O 1.0065(2) 0.14065(19) 1.02718(12)
H31 H 0.9713 0.1095 1.0328
C21 C 0.9119(3) 0.2391(3) 0.68901(17)
O23 O 0.9727(3) 0.35153(19) 0.98535(14)
H32 H 1.0212 0.3638 0.9792
C22 C 0.9671(5) 0.2776(4) 0.6662(3)
O24 O 0.5527(3) 0.3303(3) 0.6860(2)
H33 H 0.5571 0.3688 0.6782
C23 C 0.9982(6) 0.2418(4) 0.6273(3)
H34 H 1.0351 0.2680 0.6121
C24 C 0.9784(4) 0.1703(4) 0.6095(2)
C25 C 0.9259(3) 0.1299(3) 0.63178(16)
C26 C 0.9056(3) 0.0512(3) 0.61483(15)
H35 H 0.9506 0.0357 0.5952
C27 C 0.7480(3) 0.0146(3) 0.60059(15)
H36 H 0.7462 0.0191 0.6324
C28 C 0.8245(3) 0.0277(3) 0.58419(15)
C29 C 0.8257(3) 0.0223(4) 0.53729(17)
C30 C 0.7523(3) 0.0038(4) 0.50956(17)
H37 H 0.7535 0.0001 0.4779
C31 C 0.6781(3) -0.0094(3) 0.52732(16)
C32 C 0.6739(3) -0.0046(3) 0.57367(15)
C33 C 0.5907(3) -0.0227(3) 0.59188(15)
H38 H 0.5483 -0.0056 0.5740
C34 C 0.6008(3) -0.1407(3) 0.61042(15)
H39 H 0.6446 -0.1161 0.6324
C35 C 0.5659(3) -0.1026(3) 0.58350(15)
C36 C 0.5043(4) -0.1399(3) 0.54991(17)
C37 C 0.4784(5) -0.2111(4) 0.5467(2)
H40 H 0.4361 -0.2360 0.5239
C38 C 0.5109(5) -0.2463(3) 0.5748(2)
C39 C 0.5770(3) -0.2114(3) 0.60778(16)
C40 C 0.6151(3) -0.2494(3) 0.63942(16)
H41 H 0.5806 -0.2969 0.6344
C41 C 0.7740(3) -0.2177(3) 0.64940(15)
H42 H 0.7678 -0.1794 0.6744
C42 C 0.7021(4) -0.2624(3) 0.62722(16)
C43 C 0.7138(5) -0.3170(4) 0.5914(2)
C44 C 0.7917(5) -0.3289(4) 0.5786(3)
H43 H 0.7979 -0.3691 0.5550
C45 C 0.8622(5) -0.2815(4) 0.6007(2)
C46 C 0.8542(4) -0.2261(3) 0.63680(16)
C47 C 0.9301(3) -0.1769(3) 0.66235(16)
H44 H 0.9743 -0.1793 0.6406
C48 C 0.9333(3) -0.1842(3) 0.74486(16)
H45 H 0.8905 -0.1553 0.7483
C49 C 0.9629(3) -0.2033(3) 0.70219(16)
C50 C 1.0245(4) -0.2458(3) 0.69813(19)
C51 C 1.0540(4) -0.2686(3) 0.73435(19)
H46 H 1.0959 -0.2984 0.7306
C52 C 1.0226(3) -0.2480(3) 0.77652(18)
C53 C 0.9618(3) -0.2045(3) 0.78301(16)
C54 C 0.9289(3) -0.1781(2) 0.82925(15)
H47 H 0.9724 -0.1814 0.8526
C55 C 0.7727(3) -0.2179(2) 0.82015(14)
H48 H 0.7673 -0.1793 0.8071
C56 C 0.8519(3) -0.2265(2) 0.83476(14)
C57 C 0.8580(3) -0.2843(3) 0.85283(16)
C58 C 0.7890(3) -0.3293(2) 0.85694(17)
H49 H 0.7948 -0.3679 0.8700
C59 C 0.7105(3) -0.3190(2) 0.84226(16)
C60 C 0.7009(3) -0.2623(2) 0.82350(14)
C61 C 0.6143(3) -0.2518(2) 0.80897(15)
H50 H 0.5818 -0.3001 0.7969
C62 C 0.5999(3) -0.1457(2) 0.87328(15)
H51 H 0.6523 -0.1248 0.8669
C63 C 0.5699(3) -0.2140(2) 0.84869(15)
C64 C 0.4929(3) -0.2447(2) 0.85802(17)
C65 C 0.4524(3) -0.2083(3) 0.89321(18)
H52 H 0.4022 -0.2307 0.9011
C66 C 0.4835(3) -0.1395(2) 0.91724(16)
C67 C 0.5580(3) -0.1054(2) 0.90697(14)
C68 C 0.5879(3) -0.0269(2) 0.92650(14)
H53 H 0.5459 -0.0085 0.9475
C69 C 0.7454(3) 0.0106(2) 0.93961(13)
H54 H 0.7450 0.0162 0.9094
C70 C 0.6706(3) -0.0113(2) 0.95509(13)
C71 C 0.6719(3) -0.0199(2) 0.99927(14)
C72 C 0.7459(3) -0.0046(3) 1.02669(15)
H55 H 0.7459 -0.0094 1.0571
C73 C 0.8197(3) 0.0175(2) 1.01004(14)
C74 C 0.8213(3) 0.0251(2) 0.96552(14)
C75 C 0.9024(3) 0.0493(2) 0.94759(14)
H56 H 0.9473 0.0342 0.9650
C76 C 0.8890(3) 0.1673(2) 0.92870(14)
H57 H 0.8528 0.1413 0.9031
C77 C 0.9208(3) 0.1298(2) 0.95713(14)
C78 C 0.9714(3) 0.1709(3) 0.99588(16)
C79 C 0.9882(4) 0.2432(3) 1.00369(18)
H58 H 1.0230 0.2694 1.0298
C80 C 0.9556(4) 0.2789(3) 0.97441(18)
C81 C 0.9062(3) 0.2394(2) 0.93502(15)
C82 C 0.8712(3) 0.2768(3) 0.90037(16)
H59 H 0.9062 0.3242 0.9058
C83 C 0.8811(3) 0.2376(3) 0.85199(15)
H60 H 0.9385 0.2264 0.8502
H61 H 0.8432 0.1922 0.8446
C84 C 0.8642(4) 0.2769(3) 0.81671(17)
H62 H 0.8988 0.3241 0.8250
H63 H 0.8053 0.2843 0.8161
C85 C 0.8829(4) 0.2364(3) 0.76942(16)
H64 H 0.8440 0.1915 0.7601
H65 H 0.9397 0.2241 0.7713
C86 C 0.5731(3) 0.1251(3) 0.70164(16)
H66 H 0.6202 0.1205 0.7219
H67 H 0.5229 0.0974 0.7090
C87 C 0.5898(3) 0.0930(3) 0.65228(16)
H68 H 0.5485 0.1051 0.6316
H69 H 0.6454 0.1140 0.6465
C88 C 0.5853(3) 0.0137(3) 0.64210(15)
H70 H 0.5325 -0.0062 0.6520
H71 H 0.6311 0.0024 0.6604
C89 C 0.9085(3) 0.0132(3) 0.65394(15)
H72 H 0.9599 0.0332 0.6739
H73 H 0.8610 0.0231 0.6724
C90 C 0.9058(3) -0.0656(3) 0.63801(16)
H74 H 0.9497 -0.0760 0.6170
H75 H 0.8517 -0.0866 0.6209
C91 C 0.9177(3) -0.0999(3) 0.67695(16)
H76 H 0.8686 -0.0964 0.6949
H77 H 0.9664 -0.0729 0.6972
C92 C 0.6096(3) -0.2101(3) 0.68883(16)
H78 H 0.5524 -0.1991 0.6924
H79 H 0.6471 -0.1645 0.6953
C93 C 0.6315(3) -0.2495(3) 0.72453(16)
H80 H 0.6017 -0.2985 0.7156
H81 H 0.6917 -0.2519 0.7259
C94 C 0.6082(3) -0.2124(3) 0.77085(16)
H82 H 0.5505 -0.2027 0.7675
H83 H 0.6442 -0.1660 0.7810
C95 C 0.9180(3) -0.0998(2) 0.83815(14)
H84 H 0.9672 -0.0733 0.8289
H85 H 0.8691 -0.0954 0.8190
C96 C 0.9065(3) -0.0662(2) 0.88799(14)
H86 H 0.8530 -0.0881 0.8960
H87 H 0.9513 -0.0762 0.9076
C97 C 0.9076(3) 0.0136(2) 0.89736(14)
H88 H 0.8604 0.0232 0.8793
H89 H 0.9593 0.0347 0.8871
C98 C 0.5859(3) 0.0113(2) 0.88791(14)
H90 H 0.6332 0.0007 0.8694
H91 H 0.5344 -0.0083 0.8679
C99 C 0.5897(3) 0.0912(2) 0.90342(16)
H92 H 0.6454 0.1124 0.9184
H93 H 0.5486 0.1027 0.9260
C100 C 0.5721(3) 0.1232(2) 0.86371(16)
H94 H 0.5221 0.0951 0.8451
H95 H 0.6192 0.1195 0.8443
C101 C 0.6333(3) 0.2524(2) 0.90228(16)
C102 C 0.5586(3) 0.2006(2) 0.87798(17)
H96 H 0.5151 0.2030 0.9002
N1 N 0.6322(3) -0.0519(3) 0.10212(16)
C105 C 0.6295(3) 0.0091(5) 0.1322(2)
H97 H 0.6227 0.0491 0.1208
N2 N 0.6334(3) -0.0367(6) 0.4123(2)
C106 C 0.6359(4) 0.0187(5) 0.1792(2)
H98 H 0.6325 0.0633 0.1994
C107 C 0.6480(4) -0.0427(6) 0.1958(2)
C108 C 0.6530(4) -0.1034(6) 0.1640(3)
H99 H 0.6619 -0.1446 0.1736
C109 C 0.6457(4) -0.1069(5) 0.1182(2)
H100 H 0.6505 -0.1504 0.0972
C110 C 0.6483(7) -0.0212(7) 0.2465(4)
C111 C 0.6513(7) -0.0717(6) 0.2690(3)
C112 C 0.6406(4) 0.0216(6) 0.3971(3)
H101 H 0.6412 0.0664 0.4178
C113 C 0.6474(4) 0.0174(7) 0.3510(3)
H102 H 0.6516 0.0595 0.3407
C114 C 0.6481(4) -0.0462(9) 0.3202(2)
C115 C 0.6447(4) -0.1058(7) 0.3369(3)
H103 H 0.6481 -0.1509 0.3175
C116 C 0.6363(5) -0.0977(7) 0.3823(3)
H104 H 0.6322 -0.1392 0.3933
N3 N 0.8675(3) 0.0293(4) 0.12335(17)
C117 C 0.8621(4) 0.0859(5) 0.1562(2)
H105 H 0.8603 0.1297 0.1484
N4 N 0.8816(3) 0.0426(5) 0.43345(19)
C118 C 0.8589(4) 0.0845(5) 0.2023(2)
H106 H 0.8540 0.1260 0.2251
C119 C 0.8633(3) 0.0195(5) 0.2132(2)
C120 C 0.8685(4) -0.0377(5) 0.1781(2)
H107 H 0.8712 -0.0827 0.1839
C121 C 0.8697(4) -0.0307(5) 0.1348(2)
H108 H 0.8724 -0.0718 0.1112
C122 C 0.8634(4) 0.0105(5) 0.2604(2)
C123 C 0.8595(4) 0.0600(5) 0.2961(2)
C124 C 0.8788(4) 0.1024(5) 0.4227(2)
H109 H 0.8816 0.1442 0.4466
C125 C 0.8719(4) 0.1083(5) 0.3788(2)
H110 H 0.8729 0.1538 0.3731
C126 C 0.8638(3) 0.0520(5) 0.3443(2)
C127 C 0.8638(4) -0.0135(5) 0.3540(2)
H111 H 0.8581 -0.0560 0.3305
C128 C 0.8726(4) -0.0142(6) 0.4007(3)
H112 H 0.8718 -0.0585 0.4081
S1 S 0.78748(11) 0.27402(9) 1.04660(5)
O25 O 0.7304(3) 0.3179(3) 1.07408(16)
C129 C 0.8178(6) 0.2189(6) 1.0794(3)
H113 H 0.8511 0.2476 1.1069
H114 H 0.8508 0.1854 1.0618
H115 H 0.7685 0.1928 1.0881
C130 C 0.7251(4) 0.2040(3) 1.00716(19)
H116 H 0.6791 0.1848 1.0223
H117 H 0.7584 0.1666 0.9951
H118 H 0.7030 0.2215 0.9821
S2 S 0.7780(2) -0.41478(13) 1.01462(9)
O26 O 0.7975(4) -0.4867(2) 1.01959(18)
C131 C 0.8286(7) -0.3960(5) 0.9706(4)
H119 H 0.8793 -0.4179 0.9681
H120 H 0.8429 -0.3445 0.9759
H121 H 0.7928 -0.4146 0.9423
C132 C 0.6755(8) -0.4288(7) 0.9844(6)
H122 H 0.6775 -0.4564 0.9530
H123 H 0.6584 -0.3829 0.9842
H124 H 0.6355 -0.4547 0.9998
S3 S 1.1861(2) 0.17990(18) 0.51894(9)
O27 O 1.1847(9) 0.2555(6) 0.5416(4)
C133 C 1.0949(8) 0.1627(8) 0.4829(3)
H125 H 1.0501 0.1819 0.5001
H126 H 1.0797 0.1115 0.4708
H127 H 1.1038 0.1852 0.4577
C134 C 1.2583(8) 0.1763(7) 0.4731(3)
H128 H 1.2461 0.2094 0.4551
H129 H 1.2513 0.1281 0.4534
H130 H 1.3155 0.1894 0.4868
S4 S 0.8750(2) -0.3088(4) 1.11312(18)
O28 O 0.9227(9) -0.2946(11) 1.1576(4)
C135 C 0.8834(8) -0.2231(7) 1.0971(4)
H131 H 0.8333 -0.2017 1.1043
H132 H 0.8900 -0.2311 1.0645
H133 H 0.9318 -0.1914 1.1143
C136 C 0.7716(10) -0.3047(11) 1.1324(7)
H134 H 0.7474 -0.3512 1.1356
H135 H 0.7364 -0.2913 1.1092
H136 H 0.7742 -0.2694 1.1611
S5 S 0.71803(19) -0.20064(18) 1.00073(9)
O29 O 0.7500(4) -0.2636(4) 1.0094(3)
C137 C 0.7746(4) -0.1758(3) 0.9558(2)
C138 C 0.6220(5) -0.2339(5) 0.9684(3)
S7 S 0.69241(15) 0.46585(10) 0.82284(8)
O30 O 0.6727(3) 0.5174(2) 0.86557(16)
C139 C 0.7983(7) 0.4551(5) 0.8320(5)
C140 C 0.6490(6) 0.3807(3) 0.8259(3)
O31 O 0.5293(7) 0.4248(4) 1.0152(3)
C141 C 0.5154(8) 0.5242(5) 1.0872(3)
S10 S 0.4968(7) 0.4378(4) 1.0501(3)
C142 C 0.5478(9) 0.3984(6) 1.0934(5)
C103? C 0.6547(9) -0.0625(9) 0.2389(5)
C104? C 0.6470(11) -0.0214(10) 0.2744(7)
S6? S 0.7278(11) -0.2390(12) 0.9802(9)
S8? S 0.7171(10) 0.4555(6) 0.8567(5)
S9? S 0.5715(3) 0.45543(18) 1.05969(12)
loop_
_geom_bond_atom_site_label_1
_geom_bond_atom_site_label_2
_geom_bond_site_symmetry_1
_geom_bond_site_symmetry_2
O1 H1 1_555 1_555
C1 H2 1_555 1_555
O2 H3 1_555 1_555
C2 C1 1_555 1_555
O3 H4 1_555 1_555
C3 O1 1_555 1_555
O4 H5 1_555 1_555
C4 C3 1_555 1_555
H6 C4 1_555 1_555
C5 O2 1_555 1_555
O5 H7 1_555 1_555
O6 H8 1_555 1_555
O7 H9 1_555 1_555
C6 H10 1_555 1_555
O8 H11 1_555 1_555
C7 C6 1_555 1_555
O9 H12 1_555 1_555
C8 O3 1_555 1_555
O10 H13 1_555 1_555
C9 C8 1_555 1_555
H14 C9 1_555 1_555
O11 H15 1_555 1_555
C10 O4 1_555 1_555
O12 H16 1_555 1_555
C11 C6 1_555 1_555
O13 H17 1_555 1_555
C12 C11 1_555 1_555
H18 C12 1_555 1_555
O14 H19 1_555 1_555
C13 H20 1_555 1_555
O15 H21 1_555 1_555
C14 C12 1_555 1_555
O16 H22 1_555 1_555
C15 C14 1_555 1_555
O17 H23 1_555 1_555
C16 C15 1_555 1_555
H24 C16 1_555 1_555
O18 H25 1_555 1_555
C17 O5 1_555 1_555
O19 H26 1_555 1_555
C18 C13 1_555 1_555
O20 H27 1_555 1_555
C19 C18 1_555 1_555
H28 C19 1_555 1_555
O21 H29 1_555 1_555
C20 H30 1_555 1_555
O22 H31 1_555 1_555
C21 C19 1_555 1_555
O23 H32 1_555 1_555
C22 O6 1_555 1_555
O24 C15 1_555 1_555
H33 O24 1_555 1_555
C23 C22 1_555 1_555
H34 C23 1_555 1_555
C24 O7 1_555 1_555
C25 C20 1_555 1_555
C26 C25 1_555 1_555
H35 C26 1_555 1_555
C27 H36 1_555 1_555
C28 C26 1_555 1_555
C29 O8 1_555 1_555
C30 C29 1_555 1_555
H37 C30 1_555 1_555
C31 O9 1_555 1_555
C32 C27 1_555 1_555
C33 C32 1_555 1_555
H38 C33 1_555 1_555
C34 H39 1_555 1_555
C35 C33 1_555 1_555
C36 O10 1_555 1_555
C37 C36 1_555 1_555
H40 C37 1_555 1_555
C38 O11 1_555 1_555
C39 C34 1_555 1_555
C40 C39 1_555 1_555
H41 C40 1_555 1_555
C41 H42 1_555 1_555
C42 C40 1_555 1_555
C43 O12 1_555 1_555
C44 C43 1_555 1_555
H43 C44 1_555 1_555
C45 O13 1_555 1_555
C46 C41 1_555 1_555
C47 C46 1_555 1_555
H44 C47 1_555 1_555
C48 H45 1_555 1_555
C49 C47 1_555 1_555
C50 O14 1_555 1_555
C51 C50 1_555 1_555
H46 C51 1_555 1_555
C52 O15 1_555 1_555
C53 C48 1_555 1_555
C54 C53 1_555 1_555
H47 C54 1_555 1_555
C55 H48 1_555 1_555
C56 C54 1_555 1_555
C57 O16 1_555 1_555
C58 C57 1_555 1_555
H49 C58 1_555 1_555
C59 O17 1_555 1_555
C60 C55 1_555 1_555
C61 C60 1_555 1_555
H50 C61 1_555 1_555
C62 H51 1_555 1_555
C63 C61 1_555 1_555
C64 O18 1_555 1_555
C65 C64 1_555 1_555
H52 C65 1_555 1_555
C66 O19 1_555 1_555
C67 C62 1_555 1_555
C68 C67 1_555 1_555
H53 C68 1_555 1_555
C69 H54 1_555 1_555
C70 C68 1_555 1_555
C71 O20 1_555 1_555
C72 C71 1_555 1_555
H55 C72 1_555 1_555
C73 O21 1_555 1_555
C74 C69 1_555 1_555
C75 C74 1_555 1_555
H56 C75 1_555 1_555
C76 H57 1_555 1_555
C77 C75 1_555 1_555
C78 O22 1_555 1_555
C79 C78 1_555 1_555
H58 C79 1_555 1_555
C80 O23 1_555 1_555
C81 C76 1_555 1_555
C82 C2 1_555 1_555
H59 C82 1_555 1_555
C83 C82 1_555 1_555
H60 C83 1_555 1_555
H61 C83 1_555 1_555
C84 C83 1_555 1_555
H62 C84 1_555 1_555
H63 C84 1_555 1_555
C85 C19 1_555 1_555
H64 C85 1_555 1_555
H65 C85 1_555 1_555
C86 C12 1_555 1_555
H66 C86 1_555 1_555
H67 C86 1_555 1_555
C87 C86 1_555 1_555
H68 C87 1_555 1_555
H69 C87 1_555 1_555
C88 C33 1_555 1_555
H70 C88 1_555 1_555
H71 C88 1_555 1_555
C89 C26 1_555 1_555
H72 C89 1_555 1_555
H73 C89 1_555 1_555
C90 C89 1_555 1_555
H74 C90 1_555 1_555
H75 C90 1_555 1_555
C91 C47 1_555 1_555
H76 C91 1_555 1_555
H77 C91 1_555 1_555
C92 C40 1_555 1_555
H78 C92 1_555 1_555
H79 C92 1_555 1_555
C93 C92 1_555 1_555
H80 C93 1_555 1_555
H81 C93 1_555 1_555
C94 C61 1_555 1_555
H82 C94 1_555 1_555
H83 C94 1_555 1_555
C95 C54 1_555 1_555
H84 C95 1_555 1_555
H85 C95 1_555 1_555
C96 C95 1_555 1_555
H86 C96 1_555 1_555
H87 C96 1_555 1_555
C97 C75 1_555 1_555
H88 C97 1_555 1_555
H89 C97 1_555 1_555
C98 C68 1_555 1_555
H90 C98 1_555 1_555
H91 C98 1_555 1_555
C99 C98 1_555 1_555
H92 C99 1_555 1_555
H93 C99 1_555 1_555
C100 C99 1_555 1_555
H94 C100 1_555 1_555
H95 C100 1_555 1_555
C101 C1 1_555 1_555
C102 C7 1_555 1_555
H96 C102 1_555 1_555
N1 C105 1_555 1_555
C105 H97 1_555 1_555
N2 C112 1_555 1_555
C106 C105 1_555 1_555
H98 C106 1_555 1_555
C107 C106 1_555 1_555
C108 C107 1_555 1_555
H99 C108 1_555 1_555
C109 N1 1_555 1_555
H100 C109 1_555 1_555
C110 C107 1_555 1_555
C111 C110 1_555 1_555
C112 H101 1_555 1_555
C113 C112 1_555 1_555
H102 C113 1_555 1_555
C114 C111 1_555 1_555
C115 C114 1_555 1_555
H103 C115 1_555 1_555
C116 N2 1_555 1_555
H104 C116 1_555 1_555
N3 C117 1_555 1_555
C117 H105 1_555 1_555
N4 C124 1_555 1_555
C118 C117 1_555 1_555
H106 C118 1_555 1_555
C119 C118 1_555 1_555
C120 C119 1_555 1_555
H107 C120 1_555 1_555
C121 N3 1_555 1_555
H108 C121 1_555 1_555
C122 C119 1_555 1_555
C123 C122 1_555 1_555
C124 H109 1_555 1_555
C125 C124 1_555 1_555
H110 C125 1_555 1_555
C126 C123 1_555 1_555
C127 C126 1_555 1_555
H111 C127 1_555 1_555
C128 N4 1_555 1_555
H112 C128 1_555 1_555
S1 O25 1_555 1_555
C129 S1 1_555 1_555
H113 C129 1_555 1_555
H114 C129 1_555 1_555
H115 C129 1_555 1_555
C130 S1 1_555 1_555
H116 C130 1_555 1_555
H117 C130 1_555 1_555
H118 C130 1_555 1_555
S2 O26 1_555 1_555
C131 S2 1_555 1_555
H119 C131 1_555 1_555
H120 C131 1_555 1_555
H121 C131 1_555 1_555
C132 S2 1_555 1_555
H122 C132 1_555 1_555
H123 C132 1_555 1_555
H124 C132 1_555 1_555
S3 O27 1_555 1_555
C133 S3 1_555 1_555
H125 C133 1_555 1_555
H126 C133 1_555 1_555
H127 C133 1_555 1_555
C134 S3 1_555 1_555
H128 C134 1_555 1_555
H129 C134 1_555 1_555
H130 C134 1_555 1_555
S4 O28 1_555 1_555
C135 S4 1_555 1_555
H131 C135 1_555 1_555
H132 C135 1_555 1_555
H133 C135 1_555 1_555
C136 S4 1_555 1_555
H134 C136 1_555 1_555
H135 C136 1_555 1_555
H136 C136 1_555 1_555
S5 O29 1_555 1_555
C137 S5 1_555 1_555
C138 S5 1_555 1_555
S7 O30 1_555 1_555
C139 S7 1_555 1_555
C140 S7 1_555 1_555
O31 S10 1_555 1_555
C141 S10 1_555 1_555
S10 C142 1_555 1_555
C2 C3 1_555 1_555
C4 C5 1_555 1_555
C5 C101 1_555 1_555
C7 C8 1_555 1_555
C9 C10 1_555 1_555
C10 C11 1_555 1_555
C13 C14 1_555 1_555
C16 C17 1_555 1_555
C17 C18 1_555 1_555
C20 C21 1_555 1_555
C21 C22 1_555 1_555
C23 C24 1_555 1_555
C24 C25 1_555 1_555
C27 C28 1_555 1_555
C28 C29 1_555 1_555
C30 C31 1_555 1_555
C31 C32 1_555 1_555
C34 C35 1_555 1_555
C35 C36 1_555 1_555
C37 C38 1_555 1_555
C38 C39 1_555 1_555
C41 C42 1_555 1_555
C42 C43 1_555 1_555
C44 C45 1_555 1_555
C45 C46 1_555 1_555
C48 C49 1_555 1_555
C49 C50 1_555 1_555
C51 C52 1_555 1_555
C52 C53 1_555 1_555
C55 C56 1_555 1_555
C56 C57 1_555 1_555
C58 C59 1_555 1_555
C59 C60 1_555 1_555
C62 C63 1_555 1_555
C63 C64 1_555 1_555
C65 C66 1_555 1_555
C66 C67 1_555 1_555
C69 C70 1_555 1_555
C70 C71 1_555 1_555
C72 C73 1_555 1_555
C73 C74 1_555 1_555
C76 C77 1_555 1_555
C77 C78 1_555 1_555
C79 C80 1_555 1_555
C80 C81 1_555 1_555
C81 C82 1_555 1_555
C84 C85 1_555 1_555
C87 C88 1_555 1_555
C90 C91 1_555 1_555
C93 C94 1_555 1_555
C96 C97 1_555 1_555
C100 C102 1_555 1_555
C101 C102 1_555 1_555
C108 C109 1_555 1_555
C113 C114 1_555 1_555
C115 C116 1_555 1_555
C120 C121 1_555 1_555
C125 C126 1_555 1_555
C127 C128 1_555 1_555

#END
