
#######################################################################
#
#                 Cambridge Crystallographic Data Centre
#                                CCDC 
#
#######################################################################
#
# If this CIF has been generated from an entry in the Cambridge 
# Structural Database, then it will include bibliographic, chemical, 
# crystal, experimental, refinement or atomic coordinate data resulting 
# from the CCDC's data processing and validation procedures.
#
#######################################################################

data_DAPBUS
_chemical_compound_source        
'fruiting bodies of mushroom Thelephora terrestris (Thelephoraceae)'
_chemical_name_common            
"4,5',6',4''-tetrahydroxy-2',3'-bis(phenylacetoxy)-1,1':4',1''-terphenyl methanol solvate monohydrate"
_chemical_formula_moiety         'C34 H26 O8,2(C1 H4 O1),H2 O1'
_chemical_name_systematic        'terrestrin A methanol solvate monohydrate'
_symmetry_cell_setting           triclinic
_symmetry_space_group_name_H-M   'P 1'
_symmetry_Int_Tables_number      1
_space_group_name_Hall           'P 1'
loop_
_symmetry_equiv_pos_site_id
_symmetry_equiv_pos_as_xyz
1 x,y,z
_cell_length_a                   10.4310(9)
_cell_length_b                   11.4500(8)
_cell_length_c                   14.499(2)
_cell_angle_alpha                75.857(4)
_cell_angle_beta                 82.466(4)
_cell_angle_gamma                89.689(7)
_cell_volume                     1664.06
_exptl_crystal_colour            colorless
_exptl_crystal_description       Plate
_chemical_melting_point          '220-223 deg.C'
_cell_formula_units_Z            2
loop_
_atom_site_label
_atom_site_type_symbol
_atom_site_fract_x
_atom_site_fract_y
_atom_site_fract_z
O1 O -0.5647(6) -1.1923(5) 0.2660(4)
O2 O -0.5865(5) -1.0548(5) -0.0689(4)
O3 O -0.4302(6) -0.8637(6) -0.0801(4)
C2 C -0.4668(7) -0.9365(7) 0.0097(6)
C8 C -0.4683(8) -1.0001(7) 0.1780(7)
O9 O -0.4326(6) -0.9887(5) 0.2662(5)
C9 C -0.6519(7) -1.2365(7) 0.1034(6)
O11 O -0.8618(6) -1.5538(6) 0.1287(5)
O12 O -0.1173(7) -0.5226(6) 0.1123(8)
C11 C -0.1852(7) -0.6245(8) 0.1049(8)
C12 C -0.3456(8) -0.8083(8) 0.0938(7)
C16 C -0.5392(7) -1.1051(7) 0.1806(6)
C18 C -0.6652(10) -1.1828(9) 0.3297(7)
C19 C -0.5771(7) -1.1230(6) 0.1003(6)
C20 C -0.5439(7) -1.0355(7) 0.0144(6)
C22 C -0.2144(8) -0.8287(8) 0.1094(7)
C23 C -0.7902(8) -1.4504(8) 0.1179(6)
O18 O -0.7426(9) -1.1040(8) 0.3171(7)
C24 C -0.4292(7) -0.9165(6) 0.0936(6)
C26 C -0.8157(11) -1.3268(9) 0.4645(8)
C28 C -0.3863(8) -0.6977(8) 0.0772(8)
C30 C -0.5897(8) -1.3390(8) 0.0968(11)
C31 C -0.7810(9) -1.2409(9) 0.1145(10)
C33 C -0.3143(8) -0.5986(8) 0.0862(10)
O21 O -0.5811(9) -0.8480(7) 0.2760(6)
C36 C -0.6552(8) -1.4479(9) 0.1017(11)
C39 C -0.4494(12) -1.0208(12) 0.4735(9)
C43 C -0.1379(9) -0.7322(9) 0.1152(8)
C45 C -0.4948(14) -0.9080(10) 0.3077(7)
C47 C -0.6748(9) -1.2914(9) 0.4182(8)
C49 C -0.8528(8) -1.3487(9) 0.1238(10)
C52 C -0.8604(15) -1.3265(13) 0.5500(13)
C55 C -1.061(3) -1.402(2) 0.552(2)
C56 C -0.3588(11) -1.0975(11) 0.4728(9)
C59 C -0.967(2) -1.3658(14) 0.6041(14)
C62 C -1.0162(19) -1.4141(18) 0.453(2)
C63 C -0.8999(15) -1.3622(14) 0.4160(12)
C64 C -0.4461(17) -0.8988(10) 0.4010(9)
C65 C -0.584(3) -1.136(4) 0.608(2)
C66 C -0.491(2) -1.211(2) 0.6164(11)
C68 C -0.3691(13) -1.2138(15) 0.5501(14)
C69 C -0.5551(13) -1.0428(16) 0.5390(8)
H1 H -0.5512 -0.9963 -0.1317
H2 H -0.3742 -0.8061 -0.0859
H6 H -0.7981 -1.6228 0.1133
H12 H -0.1789 -0.9074 0.1166
H15 H -0.4689 -0.6791 0.0557
H16 H -0.4969 -1.3391 0.0909
H17 H -0.8252 -1.1679 0.1173
H19 H -0.3465 -0.5195 0.0844
H21 H -0.6086 -1.5184 0.0943
H27 H -0.0507 -0.7444 0.1292
H32 H -0.6275 -1.2720 0.4653
H33 H -0.6366 -1.3590 0.3979
H35 H -0.9457 -1.3505 0.1319
H38 H -0.8046 -1.2991 0.5886
H41 H -1.1473 -1.4264 0.5822
H42 H -0.2850 -1.0845 0.4242
H45 H -0.9778 -1.3596 0.6695
H48 H -1.0734 -1.4504 0.4202
H49 H -0.8765 -1.3554 0.3486
H50 H -0.3611 -0.8618 0.3865
H51 H -0.5052 -0.8479 0.4283
H52 H -0.6613 -1.1539 0.6540
H53 H -0.4933 -1.2797 0.6704
H55 H -0.3006 -1.2697 0.5479
H56 H -0.6243 -0.9869 0.5366
C1 C -0.9355(7) -0.9139(7) -0.0366(6)
C3 C -0.6918(7) -0.5003(7) -0.1458(6)
C4 C -0.9417(8) -0.8513(7) -0.2062(6)
O4 O -0.8956(6) -0.9000(5) 0.0437(4)
C5 C -1.0539(8) -1.0361(7) -0.1170(6)
O6 O -1.0545(6) -0.9650(5) -0.2884(4)
C6 C -0.9006(7) -0.8281(7) -0.1215(6)
O7 O -1.0462(6) -1.0890(5) 0.0543(4)
C7 C -1.1378(7) -1.1380(6) -0.1168(6)
O8 O -0.9202(5) -0.7572(5) -0.2925(4)
O10 O -0.6200(6) -0.3965(5) -0.1560(5)
C10 C -0.8248(7) -0.7146(7) -0.1263(5)
C13 C -0.8126(7) -0.7634(7) -0.3554(7)
C14 C -1.0128(8) -0.9498(7) -0.2037(6)
C15 C -1.0851(7) -1.2562(7) -0.1082(7)
C17 C -1.0137(7) -1.0162(7) -0.0340(6)
O13 O -0.7451(7) -0.8469(7) -0.3456(7)
O14 O -0.9015(9) -1.1027(8) -0.2994(6)
C21 C -1.3409(8) -1.2191(8) -0.1400(8)
C25 C -1.1649(8) -1.3494(8) -0.1113(9)
O19 O -1.3659(6) -1.4287(6) -0.1346(7)
C27 C -1.2624(8) -1.1259(8) -0.1327(8)
C29 C -1.2884(8) -1.3362(7) -0.1286(7)
C32 C -0.5889(14) -0.5769(15) -0.4298(15)
C34 C -0.6257(9) -0.6029(9) -0.1536(10)
C35 C -0.9879(11) -1.0442(9) -0.3303(8)
C37 C -0.8869(8) -0.6143(9) -0.1135(9)
C38 C -0.6743(10) -0.6182(9) -0.4838(10)
C41 C -1.0275(10) -0.9326(10) -0.4963(6)
C42 C -0.6908(8) -0.7096(9) -0.1434(9)
C44 C -1.0533(19) -1.0467(13) -0.4165(10)
C46 C -0.8058(10) -0.6594(11) -0.4399(9)
C48 C -0.8185(9) -0.5069(8) -0.1244(9)
C50 C -1.1201(12) -0.8439(16) -0.5031(12)
C51 C -1.014(2) -0.7028(17) -0.6394(12)
C53 C -1.096(2) -0.7429(17) -0.5759(19)
C54 C -0.6438(15) -0.6184(11) -0.5883(11)
C57 C -0.496(3) -0.5781(16) -0.618(2)
C60 C -0.9185(14) -0.893(2) -0.5803(16)
C70 C -0.927(2) -0.7836(18) -0.6394(10)
C71 C -0.4217(13) -0.5421(15) -0.573(3)
C72 C -0.4524(19) -0.5513(19) -0.483(2)
H3 H -0.9347 -0.9621 0.1056
H4 H -1.1080 -1.1587 0.0606
H5 H -0.6728 -0.3263 -0.1440
H7 H -0.9954 -1.2670 -0.1006
H11 H -1.4294 -1.2049 -0.1500
H13 H -1.1362 -1.4309 -0.0981
H14 H -1.2994 -1.0479 -0.1388
H18 H -0.6253 -0.5680 -0.3676
H20 H -0.5332 -0.6005 -0.1690
H22 H -0.9790 -0.6169 -0.0958
H26 H -0.6410 -0.7793 -0.1475
H28 H -1.1452 -1.0542 -0.3973
H29 H -1.0245 -1.1139 -0.4417
H30 H -0.8471 -0.5917 -0.4217
H31 H -0.8482 -0.6802 -0.4889
H34 H -0.8635 -0.4365 -0.1148
H36 H -1.1973 -0.8594 -0.4576
H37 H -1.0239 -0.6276 -0.6844
H39 H -1.1552 -0.6782 -0.5760
H40 H -0.7101 -0.6449 -0.6192
H43 H -0.4573 -0.5700 -0.6832
H46 H -0.8499 -0.9474 -0.5875
H57 H -0.8528 -0.7610 -0.6874
H58 H -0.3359 -0.5097 -0.5977
H59 H -0.3865 -0.5474 -0.4434
O5 O -1.7483(7) -1.2002(6) -0.1431(6)
O15 O -1.2813(10) -0.6648(8) -0.1434(8)
C40 C -1.2173(13) -0.6475(12) -0.2345(10)
H23 H -1.1879 -0.7146 -0.2498
H24 H -1.2879 -0.6518 -0.2808
H25 H -1.1451 -0.5830 -0.2546
O16 O -0.7273(6) -0.7525(6) 0.1161(5)
H8 H -0.7800 -0.7869 0.0844
H9 H -0.6780 -0.7922 0.1683
O17 O -1.5356(10) -0.9355(9) -0.2530(6)
C61 C -1.426(2) -0.871(2) -0.3009(16)
H10 H -1.5951 -0.9296 -0.2934
H47 H -1.4419 -0.8626 -0.3770
O20 O -0.9553(8) -1.0117(8) 0.2230(6)
C58 C -1.0549(11) -1.0685(13) 0.2864(9)
H44 H -1.0988 -1.1200 0.2726
O22 O -0.2149(9) -1.2891(7) 0.1132(7)
C67 C -0.253(2) -1.322(2) 0.2101(17)
H54 H -0.2005 -1.2805 0.2346
loop_
_geom_bond_atom_site_label_1
_geom_bond_atom_site_label_2
_geom_bond_site_symmetry_1
_geom_bond_site_symmetry_2
O1 C16 1_555 1_555
C1 O4 1_555 1_555
O2 C20 1_555 1_555
O3 C2 1_555 1_555
C2 C20 1_555 1_555
C3 O10 1_555 1_555
C4 C6 1_555 1_555
O4 H3 1_555 1_555
C5 C7 1_555 1_555
O6 C14 1_555 1_555
C6 C1 1_555 1_555
O7 C17 1_555 1_555
C7 C15 1_555 1_555
C8 O9 1_555 1_555
O8 C4 1_555 1_555
O9 C45 1_555 1_555
O10 H5 1_555 1_555
C9 C19 1_555 1_555
O11 C23 1_555 1_555
C10 C6 1_555 1_555
O12 C11 1_555 1_555
C11 C33 1_555 1_555
C12 C22 1_555 1_555
C13 O8 1_555 1_555
C14 C4 1_555 1_555
C15 C25 1_555 1_555
C16 C8 1_555 1_555
C17 C1 1_555 1_555
O13 C13 1_555 1_555
O14 C35 1_555 1_555
C18 O1 1_555 1_555
O15 C40 1_555 1_555
C19 C16 1_555 1_555
O16 H8 1_555 1_555
C20 C19 1_555 1_555
O17 C61 1_555 1_555
C21 C27 1_555 1_555
C22 C43 1_555 1_555
C23 C36 1_555 1_555
O18 C18 1_555 1_555
C24 C2 1_555 1_555
C25 C29 1_555 1_555
C26 C47 1_555 1_555
O19 C29 1_555 1_555
C27 C7 1_555 1_555
O20 C58 1_555 1_555
C28 C12 1_555 1_555
C29 C21 1_555 1_555
C30 C9 1_555 1_555
C31 C9 1_555 1_555
C32 C38 1_555 1_555
C33 C28 1_555 1_555
O21 C45 1_555 1_555
C34 C3 1_555 1_555
O22 C67 1_555 1_555
C35 O6 1_555 1_555
C36 C30 1_555 1_555
C37 C10 1_555 1_555
C38 C46 1_555 1_555
C39 C56 1_555 1_555
C40 H23 1_555 1_555
C41 C44 1_555 1_555
C42 C10 1_555 1_555
C43 C11 1_555 1_555
C44 C35 1_555 1_555
C45 C64 1_555 1_555
C46 C13 1_555 1_555
C47 C18 1_555 1_555
C48 C3 1_555 1_555
C49 C23 1_555 1_555
C50 C41 1_555 1_555
C51 C53 1_555 1_555
C52 C26 1_555 1_555
C53 C50 1_555 1_555
C54 C38 1_555 1_555
C55 C59 1_555 1_555
C56 C68 1_555 1_555
C57 C54 1_555 1_555
C58 H44 1_555 1_555
C59 C52 1_555 1_555
C60 C41 1_555 1_555
C61 H47 1_555 1_555
C62 C55 1_555 1_555
C63 C26 1_555 1_555
C64 C39 1_555 1_555
C65 C66 1_555 1_555
C66 C68 1_555 1_555
C67 H54 1_555 1_555
C68 H55 1_555 1_555
C69 C39 1_555 1_555
C70 C51 1_555 1_555
C71 C57 1_555 1_555
C72 C32 1_555 1_555
H1 O2 1_555 1_555
H2 O3 1_555 1_555
H4 O7 1_555 1_555
H6 O11 1_555 1_555
H7 C15 1_555 1_555
H9 O16 1_555 1_555
H10 O17 1_555 1_555
H11 C21 1_555 1_555
H12 C22 1_555 1_555
H13 C25 1_555 1_555
H14 C27 1_555 1_555
H15 C28 1_555 1_555
H16 C30 1_555 1_555
H17 C31 1_555 1_555
H18 C32 1_555 1_555
H19 C33 1_555 1_555
H20 C34 1_555 1_555
H21 C36 1_555 1_555
H22 C37 1_555 1_555
H24 C40 1_555 1_555
H25 C40 1_555 1_555
H26 C42 1_555 1_555
H27 C43 1_555 1_555
H28 C44 1_555 1_555
H29 C44 1_555 1_555
H30 C46 1_555 1_555
H31 C46 1_555 1_555
H32 C47 1_555 1_555
H33 C47 1_555 1_555
H34 C48 1_555 1_555
H35 C49 1_555 1_555
H36 C50 1_555 1_555
H37 C51 1_555 1_555
H38 C52 1_555 1_555
H39 C53 1_555 1_555
H40 C54 1_555 1_555
H41 C55 1_555 1_555
H42 C56 1_555 1_555
H43 C57 1_555 1_555
H45 C59 1_555 1_555
H46 C60 1_555 1_555
H48 C62 1_555 1_555
H49 C63 1_555 1_555
H50 C64 1_555 1_555
H51 C64 1_555 1_555
H52 C65 1_555 1_555
H53 C66 1_555 1_555
H56 C69 1_555 1_555
H57 C70 1_555 1_555
H58 C71 1_555 1_555
H59 C72 1_555 1_555
C5 C14 1_555 1_555
C5 C17 1_555 1_555
C8 C24 1_555 1_555
C12 C24 1_555 1_555
C31 C49 1_555 1_555
C34 C42 1_555 1_555
C37 C48 1_555 1_555
C60 C70 1_555 1_555
C62 C63 1_555 1_555
C65 C69 1_555 1_555
C71 C72 1_555 1_555

#END
