
#######################################################################
#
#                 Cambridge Crystallographic Data Centre
#                                CCDC 
#
#######################################################################
#
# If this CIF has been generated from an entry in the Cambridge 
# Structural Database, then it will include bibliographic, chemical, 
# crystal, experimental, refinement or atomic coordinate data resulting 
# from the CCDC's data processing and validation procedures.
#
#######################################################################

data_DAPQER
_chemical_formula_moiety         'C17 H13 N1 O1 Se1'
_chemical_name_systematic        5-acetyl-2,4-diphenyl[1,3]selenazole
_symmetry_cell_setting           triclinic
_symmetry_space_group_name_H-M   'P -1'
_symmetry_Int_Tables_number      2
_space_group_name_Hall           '-P 1'
loop_
_symmetry_equiv_pos_site_id
_symmetry_equiv_pos_as_xyz
1 x,y,z
2 -x,-y,-z
_cell_length_a                   10.516(3)
_cell_length_b                   14.224(7)
_cell_length_c                   10.232(4)
_cell_angle_alpha                98.01(4)
_cell_angle_beta                 102.11(3)
_cell_angle_gamma                104.22(3)
_cell_volume                     1420.87
_exptl_crystal_colour            colorless
_exptl_crystal_description       prismatic
_cell_formula_units_Z            4
loop_
_atom_site_label
_atom_site_type_symbol
_atom_site_fract_x
_atom_site_fract_y
_atom_site_fract_z
Se1 Se 0.92681(5) 0.42223(3) 0.29900(5)
O1 O 1.1215(4) 0.5059(3) 0.1526(4)
N1 N 0.7724(4) 0.2402(3) 0.1671(4)
C1 C 0.7914(5) 0.3046(3) 0.2780(5)
C2 C 0.8582(5) 0.2708(3) 0.0867(5)
C3 C 0.9482(5) 0.3635(3) 0.1338(5)
C4 C 1.0633(5) 0.4207(4) 0.0881(5)
C5 C 1.1091(5) 0.3794(4) -0.0289(5)
C6 C 0.7076(5) 0.2871(4) 0.3756(5)
C7 C 0.7325(6) 0.3552(4) 0.4972(5)
C8 C 0.6494(6) 0.3384(4) 0.5844(5)
C9 C 0.5415(6) 0.2543(5) 0.5535(5)
C10 C 0.5159(6) 0.1859(4) 0.4343(5)
C11 C 0.6000(5) 0.2018(4) 0.3457(5)
C12 C 0.8395(5) 0.1982(3) -0.0408(5)
C13 C 0.8162(5) 0.2228(4) -0.1682(5)
C14 C 0.7980(6) 0.1514(4) -0.2840(5)
C15 C 0.8022(6) 0.0576(4) -0.2736(6)
C16 C 0.8210(6) 0.0313(4) -0.1475(6)
C17 C 0.8393(6) 0.1009(4) -0.0315(5)
H1 H 1.0549 0.3888 -0.1113
H2 H 1.0974 0.3109 -0.0330
H3 H 1.2008 0.4129 -0.0189
H4 H 0.8033 0.4155 0.5180
H5 H 0.6685 0.3841 0.6683
H6 H 0.4847 0.2442 0.6139
H7 H 0.4420 0.1276 0.4137
H8 H 0.5838 0.1539 0.2641
H9 H 0.8118 0.2882 -0.1768
H10 H 0.7822 0.1686 -0.3713
H11 H 0.7901 0.0103 -0.3543
H12 H 0.8246 -0.0343 -0.1393
H13 H 0.8494 0.0825 0.0554
Se2 Se 0.43181(5) 0.40681(3) 0.27796(5)
O2 O 0.6228(4) 0.4722(3) 0.1183(4)
N2 N 0.2649(4) 0.2244(3) 0.1607(4)
C18 C 0.2904(5) 0.2946(3) 0.2677(5)
C19 C 0.3502(5) 0.2465(3) 0.0770(4)
C20 C 0.4436(5) 0.3376(3) 0.1144(4)
C21 C 0.5455(5) 0.3940(4) 0.0516(5)
C22 C 0.5466(7) 0.3589(4) -0.0925(6)
C23 C 0.2171(5) 0.2870(3) 0.3750(5)
C24 C 0.2615(6) 0.3570(4) 0.4967(5)
C25 C 0.1935(6) 0.3498(4) 0.5981(5)
C26 C 0.0793(6) 0.2721(4) 0.5790(6)
C27 C 0.0317(6) 0.2026(4) 0.4585(6)
C28 C 0.1018(6) 0.2098(4) 0.3571(5)
C29 C 0.3344(5) 0.1688(3) -0.0448(5)
C30 C 0.2107(6) 0.1320(4) -0.1394(5)
C31 C 0.1953(7) 0.0623(4) -0.2547(6)
C32 C 0.3017(7) 0.0287(4) -0.2747(6)
C33 C 0.4253(6) 0.0621(4) -0.1779(6)
C34 C 0.4399(6) 0.1326(4) -0.0628(5)
H14 H 0.5299 0.4064 -0.1446
H15 H 0.4794 0.2976 -0.1288
H16 H 0.6337 0.3504 -0.0933
H17 H 0.3376 0.4122 0.5092
H18 H 0.2263 0.3975 0.6814
H19 H 0.0328 0.2669 0.6491
H20 H -0.0476 0.1501 0.4452
H21 H 0.0694 0.1615 0.2744
H22 H 0.1352 0.1549 -0.1255
H23 H 0.1087 0.0375 -0.3207
H24 H 0.2891 -0.0178 -0.3557
H25 H 0.5001 0.0366 -0.1905
H26 H 0.5251 0.1564 0.0043
loop_
_geom_bond_atom_site_label_1
_geom_bond_atom_site_label_2
_geom_bond_site_symmetry_1
_geom_bond_site_symmetry_2
Se1 C1 1_555 1_555
Se2 C18 1_555 1_555
O1 C4 1_555 1_555
O2 C21 1_555 1_555
N1 C1 1_555 1_555
N2 C18 1_555 1_555
C1 C6 1_555 1_555
C2 N1 1_555 1_555
C3 Se1 1_555 1_555
C4 C3 1_555 1_555
C5 C4 1_555 1_555
C6 C7 1_555 1_555
C7 C8 1_555 1_555
C8 C9 1_555 1_555
C9 C10 1_555 1_555
C10 C11 1_555 1_555
C11 C6 1_555 1_555
C12 C2 1_555 1_555
C13 C12 1_555 1_555
C14 C13 1_555 1_555
C15 C14 1_555 1_555
C16 C15 1_555 1_555
C17 C12 1_555 1_555
C18 C23 1_555 1_555
C19 N2 1_555 1_555
C20 Se2 1_555 1_555
C21 C20 1_555 1_555
C22 C21 1_555 1_555
C23 C24 1_555 1_555
C24 C25 1_555 1_555
C25 C26 1_555 1_555
C26 C27 1_555 1_555
C27 C28 1_555 1_555
C28 C23 1_555 1_555
C29 C19 1_555 1_555
C30 C29 1_555 1_555
C31 C30 1_555 1_555
C32 C31 1_555 1_555
C33 C32 1_555 1_555
C34 C29 1_555 1_555
H1 C5 1_555 1_555
H2 C5 1_555 1_555
H3 C5 1_555 1_555
H4 C7 1_555 1_555
H5 C8 1_555 1_555
H6 C9 1_555 1_555
H7 C10 1_555 1_555
H8 C11 1_555 1_555
H9 C13 1_555 1_555
H10 C14 1_555 1_555
H11 C15 1_555 1_555
H12 C16 1_555 1_555
H13 C17 1_555 1_555
H14 C22 1_555 1_555
H15 C22 1_555 1_555
H16 C22 1_555 1_555
H17 C24 1_555 1_555
H18 C25 1_555 1_555
H19 C26 1_555 1_555
H20 C27 1_555 1_555
H21 C28 1_555 1_555
H22 C30 1_555 1_555
H23 C31 1_555 1_555
H24 C32 1_555 1_555
H25 C33 1_555 1_555
H26 C34 1_555 1_555
C2 C3 1_555 1_555
C16 C17 1_555 1_555
C19 C20 1_555 1_555
C33 C34 1_555 1_555

#END
