
#######################################################################
#
#                 Cambridge Crystallographic Data Centre
#                                CCDC 
#
#######################################################################
#
# If this CIF has been generated from an entry in the Cambridge 
# Structural Database, then it will include bibliographic, chemical, 
# crystal, experimental, refinement or atomic coordinate data resulting 
# from the CCDC's data processing and validation procedures.
#
#######################################################################

data_DAQBEE
_chemical_formula_moiety         'C46 H58 N4,C6 H14'
_chemical_name_systematic        
'N-(3,4-bis(N-Mesitylethanimidoyl)-5-(mesitylimino)hexan-2-ylidene)-2,4,6-trimethylaniline n-hexane solvate'
_symmetry_cell_setting           triclinic
_symmetry_space_group_name_H-M   'P -1'
_symmetry_Int_Tables_number      2
_space_group_name_Hall           '-P 1'
loop_
_symmetry_equiv_pos_site_id
_symmetry_equiv_pos_as_xyz
1 x,y,z
2 -x,-y,-z
_cell_length_a                   8.566(4)
_cell_length_b                   9.953(5)
_cell_length_c                   15.152(6)
_cell_angle_alpha                100.318(9)
_cell_angle_beta                 90.767(8)
_cell_angle_gamma                113.822(16)
_cell_volume                     1157.37
_exptl_crystal_colour            yellow
_exptl_crystal_description       block
_cell_formula_units_Z            1
loop_
_atom_site_label
_atom_site_type_symbol
_atom_site_fract_x
_atom_site_fract_y
_atom_site_fract_z
N1 N 0.6822(4) -0.1151(4) 0.5577(2)
N2 N 0.3285(4) -0.2257(4) 0.3315(2)
C1 C 0.4110(6) -0.3432(6) 0.5085(4)
H1 H 0.3242 -0.3543 0.5505
H2 H 0.3562 -0.3813 0.4474
H3 H 0.4761 -0.3991 0.5207
C2 C 0.5292(5) -0.1803(5) 0.5193(3)
C3 C 0.4551(5) -0.0837(5) 0.4793(3)
H4 H 0.3331 -0.1182 0.4911
C4 C 0.4617(5) -0.1179(5) 0.3769(3)
C5 C 0.6216(5) -0.0253(6) 0.3388(3)
H5 H 0.6089 -0.0582 0.2739
H6 H 0.6405 0.0794 0.3536
H7 H 0.7186 -0.0371 0.3643
C6 C 0.7592(5) -0.2001(5) 0.5942(3)
C7 C 0.8763(5) -0.2397(5) 0.5431(3)
C8 C 0.9625(5) -0.3101(5) 0.5826(3)
H8 H 1.0387 -0.3394 0.5488
C9 C 0.9419(6) -0.3390(6) 0.6683(3)
C10 C 0.8276(6) -0.2970(6) 0.7161(3)
H9 H 0.8128 -0.3141 0.7750
C11 C 0.7324(5) -0.2295(6) 0.6802(3)
C12 C 0.9047(6) -0.2120(6) 0.4496(3)
H10 H 1.0073 -0.2239 0.4315
H11 H 0.8069 -0.2832 0.4084
H12 H 0.9182 -0.1108 0.4482
C13 C 1.0414(6) -0.4113(7) 0.7093(4)
H13 H 0.9626 -0.4975 0.7312
H14 H 1.1050 -0.4434 0.6641
H15 H 1.1206 -0.3395 0.7591
C14 C 0.6028(6) -0.1912(7) 0.7340(3)
H16 H 0.6174 -0.2006 0.7958
H17 H 0.6201 -0.0891 0.7327
H18 H 0.4878 -0.2594 0.7078
C15 C 0.3191(5) -0.2727(5) 0.2363(3)
C16 C 0.1970(6) -0.2539(6) 0.1842(3)
C17 C 0.1806(6) -0.3029(7) 0.0907(3)
H19 H 0.1024 -0.2865 0.0547
C18 C 0.2777(7) -0.3755(7) 0.0499(3)
C19 C 0.3870(6) -0.3999(7) 0.1035(3)
H20 H 0.4480 -0.4541 0.0767
C20 C 0.4136(6) -0.3488(6) 0.1967(3)
C21 C 0.0783(6) -0.1877(6) 0.2282(3)
H21 H 0.1375 -0.1158 0.2830
H22 H 0.0448 -0.1378 0.1870
H23 H -0.0230 -0.2672 0.2427
C22 C 0.2587(8) -0.4254(8) -0.0525(4)
H24 H 0.3479 -0.3504 -0.0780
H25 H 0.2687 -0.5202 -0.0681
H26 H 0.1472 -0.4373 -0.0765
C23 C 0.5407(6) -0.3808(6) 0.2509(3)
H27 H 0.4935 -0.4097 0.3058
H28 H 0.5627 -0.4616 0.2155
H29 H 0.6471 -0.2914 0.2659
N1A N 0.3178(4) 0.1151(4) 0.4423(2)
N2A N 0.6715(4) 0.2257(4) 0.6685(2)
C1A C 0.5890(6) 0.3432(6) 0.4915(4)
H1A H 0.6758 0.3543 0.4495
H2A H 0.6438 0.3813 0.5526
H3A H 0.5239 0.3991 0.4793
C2A C 0.4708(5) 0.1803(5) 0.4807(3)
C3A C 0.5449(5) 0.0837(5) 0.5207(3)
H4A H 0.6669 0.1182 0.5089
C4A C 0.5383(5) 0.1179(5) 0.6231(3)
C5A C 0.3784(5) 0.0253(6) 0.6612(3)
H5A H 0.3911 0.0582 0.7261
H6A H 0.3595 -0.0794 0.6464
H7A H 0.2814 0.0371 0.6357
C6A C 0.2408(5) 0.2001(5) 0.4058(3)
C7A C 0.1237(5) 0.2397(5) 0.4569(3)
C8A C 0.0375(5) 0.3101(5) 0.4174(3)
H8A H -0.0387 0.3394 0.4512
C9A C 0.0581(6) 0.3390(6) 0.3317(3)
C10A C 0.1724(6) 0.2970(6) 0.2839(3)
H9A H 0.1872 0.3141 0.2250
C11A C 0.2676(5) 0.2295(6) 0.3198(3)
C12A C 0.0953(6) 0.2120(6) 0.5504(3)
H10A H -0.0073 0.2239 0.5685
H11A H 0.1931 0.2832 0.5916
H12A H 0.0818 0.1108 0.5518
C13A C -0.0414(6) 0.4113(7) 0.2907(4)
H13A H 0.0374 0.4975 0.2688
H14A H -0.1050 0.4434 0.3359
H15A H -0.1206 0.3395 0.2409
C14A C 0.3972(6) 0.1912(7) 0.2660(3)
H16A H 0.3826 0.2006 0.2042
H17A H 0.3799 0.0891 0.2673
H18A H 0.5122 0.2594 0.2922
C15A C 0.6809(5) 0.2727(5) 0.7637(3)
C16A C 0.8030(6) 0.2539(6) 0.8158(3)
C17A C 0.8194(6) 0.3029(7) 0.9093(3)
H19A H 0.8976 0.2865 0.9453
C18A C 0.7223(7) 0.3755(7) 0.9501(3)
C19A C 0.6130(6) 0.3999(7) 0.8965(3)
H20A H 0.5520 0.4541 0.9233
C20A C 0.5864(6) 0.3488(6) 0.8033(3)
C21A C 0.9217(6) 0.1877(6) 0.7718(3)
H21A H 0.8625 0.1158 0.7170
H22A H 0.9552 0.1378 0.8130
H23A H 1.0230 0.2672 0.7573
C22A C 0.7413(8) 0.4254(8) 1.0525(4)
H24A H 0.6521 0.3504 1.0780
H25A H 0.7313 0.5202 1.0681
H26A H 0.8528 0.4373 1.0765
C23A C 0.4593(6) 0.3808(6) 0.7491(3)
H27A H 0.5065 0.4097 0.6942
H28A H 0.4373 0.4616 0.7845
H29A H 0.3529 0.2914 0.7341
C24? C -0.357(3) 0.018(4) 0.081(2)
C25? C -0.195(3) -0.008(3) 0.0968(18)
C26? C -0.056(3) 0.073(3) 0.0466(16)
C27? C 0.074(3) 0.026(3) 0.0034(17)
C28? C 0.249(3) 0.100(3) -0.0277(17)
C29? C 0.288(3) -0.027(3) -0.086(2)
loop_
_geom_bond_atom_site_label_1
_geom_bond_atom_site_label_2
_geom_bond_site_symmetry_1
_geom_bond_site_symmetry_2
N1 C2 1_555 1_555
N2 C4 1_555 1_555
C1 H1 1_555 1_555
H2 C1 1_555 1_555
H3 C1 1_555 1_555
C2 C1 1_555 1_555
C3 C2 1_555 1_555
H4 C3 1_555 1_555
C4 C3 1_555 1_555
C5 C4 1_555 1_555
H5 C5 1_555 1_555
H6 C5 1_555 1_555
H7 C5 1_555 1_555
C6 N1 1_555 1_555
C7 C6 1_555 1_555
C8 C7 1_555 1_555
H8 C8 1_555 1_555
C9 C8 1_555 1_555
C10 C9 1_555 1_555
H9 C10 1_555 1_555
C11 C6 1_555 1_555
C12 C7 1_555 1_555
H10 C12 1_555 1_555
H11 C12 1_555 1_555
H12 C12 1_555 1_555
C13 C9 1_555 1_555
H13 C13 1_555 1_555
H14 C13 1_555 1_555
H15 C13 1_555 1_555
C14 C11 1_555 1_555
H16 C14 1_555 1_555
H17 C14 1_555 1_555
H18 C14 1_555 1_555
C15 N2 1_555 1_555
C16 C15 1_555 1_555
C17 C16 1_555 1_555
H19 C17 1_555 1_555
C18 C17 1_555 1_555
C19 C18 1_555 1_555
H20 C19 1_555 1_555
C20 C15 1_555 1_555
C21 C16 1_555 1_555
H21 C21 1_555 1_555
H22 C21 1_555 1_555
H23 C21 1_555 1_555
C22 C18 1_555 1_555
H24 C22 1_555 1_555
H25 C22 1_555 1_555
H26 C22 1_555 1_555
C23 C20 1_555 1_555
H27 C23 1_555 1_555
H28 C23 1_555 1_555
H29 C23 1_555 1_555
N1A C2A 1_555 1_555
N2A C4A 1_555 1_555
C1A H1A 1_555 1_555
H2A C1A 1_555 1_555
H3A C1A 1_555 1_555
C2A C1A 1_555 1_555
C3A C3 1_555 1_555
H4A C3A 1_555 1_555
C4A C3A 1_555 1_555
C5A C4A 1_555 1_555
H5A C5A 1_555 1_555
H6A C5A 1_555 1_555
H7A C5A 1_555 1_555
C6A N1A 1_555 1_555
C7A C6A 1_555 1_555
C8A C7A 1_555 1_555
H8A C8A 1_555 1_555
C9A C8A 1_555 1_555
C10A C9A 1_555 1_555
H9A C10A 1_555 1_555
C11A C6A 1_555 1_555
C12A C7A 1_555 1_555
H10A C12A 1_555 1_555
H11A C12A 1_555 1_555
H12A C12A 1_555 1_555
C13A C9A 1_555 1_555
H13A C13A 1_555 1_555
H14A C13A 1_555 1_555
H15A C13A 1_555 1_555
C14A C11A 1_555 1_555
H16A C14A 1_555 1_555
H17A C14A 1_555 1_555
H18A C14A 1_555 1_555
C15A N2A 1_555 1_555
C16A C15A 1_555 1_555
C17A C16A 1_555 1_555
H19A C17A 1_555 1_555
C18A C17A 1_555 1_555
C19A C18A 1_555 1_555
H20A C19A 1_555 1_555
C20A C15A 1_555 1_555
C21A C16A 1_555 1_555
H21A C21A 1_555 1_555
H22A C21A 1_555 1_555
H23A C21A 1_555 1_555
C22A C18A 1_555 1_555
H24A C22A 1_555 1_555
H25A C22A 1_555 1_555
H26A C22A 1_555 1_555
C23A C20A 1_555 1_555
H27A C23A 1_555 1_555
H28A C23A 1_555 1_555
H29A C23A 1_555 1_555
C10 C11 1_555 1_555
C19 C20 1_555 1_555
C2A C3A 1_555 1_555
C10A C11A 1_555 1_555
C19A C20A 1_555 1_555

#END
