
#######################################################################
#
#                 Cambridge Crystallographic Data Centre
#                                CCDC 
#
#######################################################################
#
# If this CIF has been generated from an entry in the Cambridge 
# Structural Database, then it will include bibliographic, chemical, 
# crystal, experimental, refinement or atomic coordinate data resulting 
# from the CCDC's data processing and validation procedures.
#
#######################################################################

data_DAQBOP
_chemical_formula_moiety         'C17 H20 N2 O3'
_chemical_name_systematic        
1-(2,2-dimethylpropanoyl)-7-ethyl-2,3-dihydropyrrolo[3,4-g]indole-6,8(1H,7H)-dione
_symmetry_cell_setting           monoclinic
_symmetry_space_group_name_H-M   'P 21/n'
_symmetry_Int_Tables_number      14
_space_group_name_Hall           '-P 2yn'
loop_
_symmetry_equiv_pos_site_id
_symmetry_equiv_pos_as_xyz
1 x,y,z
2 1/2-x,1/2+y,1/2-z
3 -x,-y,-z
4 1/2+x,1/2-y,1/2+z
_cell_length_a                   7.1600(2)
_cell_length_b                   23.8662(7)
_cell_length_c                   8.9527(3)
_cell_angle_alpha                90
_cell_angle_beta                 91.3331(16)
_cell_angle_gamma                90
_cell_volume                     1529.44
_exptl_crystal_colour            colorless
_exptl_crystal_description       block
_cell_formula_units_Z            4
loop_
_atom_site_label
_atom_site_type_symbol
_atom_site_fract_x
_atom_site_fract_y
_atom_site_fract_z
C1 C 0.60643(16) 0.15568(5) 1.02390(12)
H1 H 0.4686 0.1567 1.0122
H2 H 0.6543 0.1946 1.0283
C2 C 0.66574(16) 0.12290(5) 1.16483(12)
H3 H 0.7788 0.1394 1.2129
H4 H 0.5642 0.122 1.238
C3 C 0.70504(14) 0.06520(4) 1.10477(11)
C4 C 0.72848(15) 0.01513(5) 1.18128(12)
H5 H 0.7161 0.014 1.2867
C5 C 0.77056(14) -0.03379(5) 1.10222(13)
H6 H 0.7899 -0.0684 1.1525
C6 C 0.78300(13) -0.03000(4) 0.94896(12)
C7 C 0.82504(14) -0.07496(4) 0.83984(13)
C8 C 0.76638(14) 0.00689(4) 0.70702(12)
C9 C 0.75604(13) 0.02011(4) 0.86944(11)
C10 C 0.72170(13) 0.06863(4) 0.94884(11)
C11 C 0.80347(14) 0.14764(4) 0.78994(11)
C12 C 0.75779(15) 0.20650(4) 0.72810(11)
C13 C 0.55243(17) 0.22423(5) 0.73600(14)
H7 H 0.5326 0.2586 0.6778
H8 H 0.5208 0.2311 0.8403
H9 H 0.4726 0.1944 0.695
C14 C 0.8839(2) 0.24918(6) 0.80921(17)
H10 H 1.0148 0.238 0.8
H11 H 0.8522 0.2505 0.9151
H12 H 0.8652 0.2863 0.7644
C15 C 0.8092(2) 0.20552(5) 0.56284(14)
H13 H 0.783 0.2422 0.518
H14 H 0.7351 0.1768 0.5104
H15 H 0.9423 0.1969 0.5544
C16 C 0.85870(16) -0.07842(5) 0.55994(14)
H16 H 0.9521 -0.1082 0.5807
H17 H 0.9151 -0.0512 0.4908
C17 C 0.68991(19) -0.10421(6) 0.48452(14)
H18 H 0.6373 -0.1328 0.5499
H19 H 0.7262 -0.1215 0.3903
H20 H 0.5962 -0.0751 0.4642
N1 N 0.69143(12) 0.12413(4) 0.89856(10)
N2 N 0.81729(13) -0.04988(4) 0.69977(11)
O1 O 0.93403(11) 0.12123(3) 0.74119(9)
O2 O 0.85869(12) -0.12423(3) 0.86271(11)
O3 O 0.73438(12) 0.03569(4) 0.59835(9)
loop_
_geom_bond_atom_site_label_1
_geom_bond_atom_site_label_2
_geom_bond_site_symmetry_1
_geom_bond_site_symmetry_2
C1 H1 1_555 1_555
H2 C1 1_555 1_555
C2 C1 1_555 1_555
H3 C2 1_555 1_555
H4 C2 1_555 1_555
C3 C2 1_555 1_555
C4 C3 1_555 1_555
H5 C4 1_555 1_555
C5 C4 1_555 1_555
H6 C5 1_555 1_555
C6 C5 1_555 1_555
C7 C6 1_555 1_555
C8 C9 1_555 1_555
C9 C6 1_555 1_555
C10 C3 1_555 1_555
C11 C12 1_555 1_555
C12 C13 1_555 1_555
C13 H7 1_555 1_555
H8 C13 1_555 1_555
H9 C13 1_555 1_555
C14 C12 1_555 1_555
H10 C14 1_555 1_555
H11 C14 1_555 1_555
H12 C14 1_555 1_555
C15 C12 1_555 1_555
H13 C15 1_555 1_555
H14 C15 1_555 1_555
H15 C15 1_555 1_555
C16 H16 1_555 1_555
H17 C16 1_555 1_555
C17 C16 1_555 1_555
H18 C17 1_555 1_555
H19 C17 1_555 1_555
H20 C17 1_555 1_555
N1 C1 1_555 1_555
N2 C7 1_555 1_555
O1 C11 1_555 1_555
O2 C7 1_555 1_555
O3 C8 1_555 1_555
C8 N2 1_555 1_555
C9 C10 1_555 1_555
C10 N1 1_555 1_555
C11 N1 1_555 1_555
C16 N2 1_555 1_555

#END
