
#######################################################################
#
#                 Cambridge Crystallographic Data Centre
#                                CCDC 
#
#######################################################################
#
# If this CIF has been generated from an entry in the Cambridge 
# Structural Database, then it will include bibliographic, chemical, 
# crystal, experimental, refinement or atomic coordinate data resulting 
# from the CCDC's data processing and validation procedures.
#
#######################################################################

data_DAQDII01
_chemical_formula_moiety         'C28 H26 S6'
_chemical_name_systematic        
cis-1(5',5'')-(9,10-bis(4'-Methyl-1',3'-dithiol-2'-ylidene)anthracene)-2,9-dithiacyclononaphane
_symmetry_cell_setting           monoclinic
_symmetry_space_group_name_H-M   'P 21/c'
_symmetry_Int_Tables_number      14
_space_group_name_Hall           '-P 2ybc'
loop_
_symmetry_equiv_pos_site_id
_symmetry_equiv_pos_as_xyz
1 x,y,z
2 x,1/2-y,1/2+z
3 -x,-y,-z
4 -x,1/2+y,1/2-z
_cell_length_a                   18.139(2)
_cell_length_b                   11.041(1)
_cell_length_c                   14.406(2)
_cell_angle_alpha                90
_cell_angle_beta                 109.05(1)
_cell_angle_gamma                90
_cell_volume                     2727.12
_exptl_crystal_colour            yellow
_exptl_crystal_description       block
_chemical_melting_point          286-288deg.C(dec)
_cell_formula_units_Z            4
_exptl_crystal_recrystallization_method acetonitrile/dichloromethane
loop_
_atom_site_label
_atom_site_type_symbol
_atom_site_fract_x
_atom_site_fract_y
_atom_site_fract_z
S1 S 0.11842(3) 0.06677(5) 0.37894(4)
S2 S 0.21218(3) 0.03651(5) 0.58521(4)
S3 S 0.34230(3) 0.45424(5) 0.34272(4)
S4 S 0.43641(3) 0.41186(4) 0.54821(3)
S5 S -0.01816(3) 0.17349(6) 0.42501(5)
S6 S 0.30823(3) 0.71352(5) 0.37640(5)
C1 C 0.22871(12) 0.0210(2) 0.25356(15)
H1 H 0.1959(12) -0.0445(19) 0.2637(15)
C2 C 0.22939(14) 0.0545(2) 0.16141(16)
H2 H 0.1986(14) 0.014(2) 0.1062(18)
C3 C 0.27881(14) 0.1439(2) 0.15077(16)
H3 H 0.2805(13) 0.171(2) 0.0874(18)
C4 C 0.32922(13) 0.2007(2) 0.23271(15)
H4 H 0.3629(12) 0.257(2) 0.2260(15)
C5 C 0.48764(11) 0.1391(2) 0.56563(15)
H5 H 0.5212(12) 0.1922(18) 0.5554(14)
C6 C 0.51139(12) 0.0568(2) 0.64219(15)
H6 H 0.5658(13) 0.0586(18) 0.6854(16)
C7 C 0.45915(13) -0.0253(2) 0.65638(15)
H7 H 0.4687(13) -0.082(2) 0.7054(17)
C8 C 0.38246(13) -0.02917(18) 0.59176(14)
H8 H 0.3493(10) -0.0865(17) 0.6007(13)
C9 C 0.27925(10) 0.05202(15) 0.43897(13)
C10 C 0.38071(9) 0.22436(17) 0.41881(12)
C11 C 0.27802(10) 0.07850(16) 0.33767(13)
C12 C 0.32954(10) 0.16903(17) 0.32667(12)
C13 C 0.41117(10) 0.13819(16) 0.50086(12)
C14 C 0.35844(10) 0.05112(15) 0.51309(12)
C15 C 0.21352(10) 0.04782(16) 0.46337(12)
C16 C 0.07810(11) 0.11999(18) 0.46764(15)
C17 C 0.12126(11) 0.10702(18) 0.56189(15)
C18 C 0.38787(9) 0.34546(17) 0.43281(13)
C19 C 0.35269(11) 0.57557(17) 0.42532(15)
C20 C 0.39628(11) 0.55649(17) 0.51897(15)
C21 C -0.01002(14) 0.3078(2) 0.35644(18)
H9 H 0.0011(13) 0.282(2) 0.2988(18)
H10 H -0.0626(15) 0.346(2) 0.3407(18)
C22 C 0.04897(14) 0.4018(2) 0.41112(18)
H11 H 0.0504(14) 0.409(2) 0.4748(19)
H12 H 0.1023(13) 0.373(2) 0.4210(15)
C23 C 0.03371(14) 0.5236(2) 0.36008(18)
H13 H -0.0186(15) 0.556(2) 0.3604(17)
H14 H 0.0336(14) 0.510(2) 0.294(2)
C24 C 0.09344(13) 0.6213(2) 0.4064(2)
H15 H 0.1060(13) 0.616(2) 0.4804(19)
H16 H 0.0724(14) 0.711(2) 0.3825(17)
C25 C 0.16574(15) 0.6078(3) 0.3769(2)
H17 H 0.1910 0.5314 0.4014
H18 H 0.1512 0.6071 0.3058
C26 C 0.22290(15) 0.7115(2) 0.4181(2)
H19 H 0.2409 0.7065 0.4893
H20 H 0.1951 0.7875 0.3998
C29 C 0.10119(14) 0.1461(2) 0.65103(17)
H25 H 0.1380 0.2055 0.6873
H26 H 0.1025 0.0771 0.6921
H27 H 0.0498 0.1805 0.6301
C30 C 0.41558(14) 0.6459(2) 0.60088(16)
H28 H 0.4050 0.7265 0.5748
H29 H 0.4698 0.6391 0.6390
H30 H 0.3844 0.6295 0.6420
C27? C 0.1875(10) 0.6360(18) 0.4319(15)
H21? H 0.2073 0.6964 0.4829
H22? H 0.2135 0.5597 0.4553
C28? C 0.2041(8) 0.6766(13) 0.3364(11)
H23? H 0.1729 0.7467 0.3073
H24? H 0.1924 0.6114 0.2886
loop_
_geom_bond_atom_site_label_1
_geom_bond_atom_site_label_2
_geom_bond_site_symmetry_1
_geom_bond_site_symmetry_2
S1 C15 1_555 1_555
S2 C15 1_555 1_555
S3 C18 1_555 1_555
S4 C18 1_555 1_555
S5 C16 1_555 1_555
S6 C19 1_555 1_555
C1 H1 1_555 1_555
C2 C1 1_555 1_555
H2 C2 1_555 1_555
C3 C2 1_555 1_555
H3 C3 1_555 1_555
C4 C3 1_555 1_555
H4 C4 1_555 1_555
C5 H5 1_555 1_555
C6 C5 1_555 1_555
H6 C6 1_555 1_555
C7 C6 1_555 1_555
H7 C7 1_555 1_555
C8 C7 1_555 1_555
H8 C8 1_555 1_555
C9 C11 1_555 1_555
C10 C12 1_555 1_555
C11 C1 1_555 1_555
C12 C4 1_555 1_555
C13 C5 1_555 1_555
C14 C8 1_555 1_555
C15 C9 1_555 1_555
C16 S1 1_555 1_555
C17 S2 1_555 1_555
C18 C10 1_555 1_555
C19 S3 1_555 1_555
C20 S4 1_555 1_555
C21 S5 1_555 1_555
H9 C21 1_555 1_555
H10 C21 1_555 1_555
C22 C21 1_555 1_555
H11 C22 1_555 1_555
H12 C22 1_555 1_555
C23 C22 1_555 1_555
H13 C23 1_555 1_555
H14 C23 1_555 1_555
C24 C23 1_555 1_555
H15 C24 1_555 1_555
H16 C24 1_555 1_555
C25 C24 1_555 1_555
H17 C25 1_555 1_555
H18 C25 1_555 1_555
C26 S6 1_555 1_555
H19 C26 1_555 1_555
H20 C26 1_555 1_555
C29 C17 1_555 1_555
H25 C29 1_555 1_555
H26 C29 1_555 1_555
H27 C29 1_555 1_555
C30 C20 1_555 1_555
H28 C30 1_555 1_555
H29 C30 1_555 1_555
H30 C30 1_555 1_555
C9 C14 1_555 1_555
C10 C13 1_555 1_555
C11 C12 1_555 1_555
C13 C14 1_555 1_555
C16 C17 1_555 1_555
C19 C20 1_555 1_555
C25 C26 1_555 1_555

#END
