
#######################################################################
#
#                 Cambridge Crystallographic Data Centre
#                                CCDC 
#
#######################################################################
#
# If this CIF has been generated from an entry in the Cambridge 
# Structural Database, then it will include bibliographic, chemical, 
# crystal, experimental, refinement or atomic coordinate data resulting 
# from the CCDC's data processing and validation procedures.
#
#######################################################################

data_DAQLEP
_chemical_formula_moiety         'C61 H44 N4 Si1,0.5(C1 H2 Cl2)'
_chemical_name_systematic        
"4,4'-{3,4-bis[4-(diphenylamino)phenyl]-1-methyl-1-phenyl-1H-silole-2,5-diyl}dibenzonitrile dichloromethane solvate"
_symmetry_cell_setting           monoclinic
_symmetry_space_group_name_H-M   'P 21/c'
_symmetry_Int_Tables_number      14
_space_group_name_Hall           '-P 2ybc'
loop_
_symmetry_equiv_pos_site_id
_symmetry_equiv_pos_as_xyz
1 x,y,z
2 -x,1/2+y,1/2-z
3 -x,-y,-z
4 x,1/2-y,1/2+z
_cell_length_a                   17.0741(12)
_cell_length_b                   18.7485(14)
_cell_length_c                   16.4301(12)
_cell_angle_alpha                90
_cell_angle_beta                 113.064(2)
_cell_angle_gamma                90
_cell_volume                     4839.1
_exptl_crystal_description       plate
_cell_formula_units_Z            4
loop_
_atom_site_label
_atom_site_type_symbol
_atom_site_fract_x
_atom_site_fract_y
_atom_site_fract_z
C1 C 1.2054(2) 0.2073(2) 0.0523(2)
C2 C 1.1194(2) 0.21574(19) 0.0252(2)
C3 C 1.0908(2) 0.2813(2) 0.0601(2)
C4 C 1.1542(2) 0.3211(2) 0.1183(2)
C5 C 1.3208(2) 0.2472(2) 0.2446(2)
C6 C 1.3946(2) 0.2805(2) 0.3024(3)
H1 H 1.4162 0.3205 0.2823
C7 C 1.4370(3) 0.2567(3) 0.3882(3)
H2 H 1.4870 0.2803 0.4269
C8 C 1.4057(3) 0.1982(2) 0.4168(3)
H3 H 1.4353 0.1807 0.4752
C9 C 1.3329(3) 0.1652(2) 0.3627(3)
H4 H 1.3114 0.1257 0.3837
C10 C 1.2898(3) 0.1897(2) 0.2761(3)
H5 H 1.2389 0.1668 0.2385
C11 C 1.3264(3) 0.3450(2) 0.0979(3)
H6 H 1.3332 0.3896 0.1309
H7 H 1.2988 0.3548 0.0343
H8 H 1.3824 0.3235 0.1111
C12 C 1.2499(2) 0.1450(2) 0.0364(2)
C13 C 1.2273(2) 0.0748(2) 0.0449(2)
H9 H 1.1772 0.0659 0.0552
C14 C 1.2758(2) 0.0178(2) 0.0388(2)
H10 H 1.2593 -0.0296 0.0449
C15 C 1.3499(2) 0.0307(2) 0.0235(2)
C16 C 1.3721(2) 0.1001(2) 0.0126(3)
H11 H 1.4213 0.1089 0.0005
C17 C 1.3234(2) 0.1557(2) 0.0192(3)
H12 H 1.3396 0.2030 0.0119
C18 C 1.4035(3) -0.0287(2) 0.0217(3)
C19 C 0.9177(2) 0.0852(2) -0.1486(2)
C20 C 0.9269(2) 0.0958(2) -0.0614(2)
H13 H 0.8876 0.0748 -0.0406
C21 C 0.9931(2) 0.1367(2) -0.0052(2)
H14 H 0.9976 0.1453 0.0534
C22 C 1.0537(2) 0.16579(19) -0.0332(2)
C23 C 1.0477(2) 0.1505(2) -0.1184(2)
H15 H 1.0903 0.1672 -0.1373
C24 C 0.9797(2) 0.1108(2) -0.1760(2)
H16 H 0.9756 0.1011 -0.2343
C25 C 0.7619(2) 0.0683(2) -0.2132(2)
C26 C 0.6959(3) 0.0192(2) -0.2456(3)
H17 H 0.7049 -0.0255 -0.2677
C27 C 0.6164(3) 0.0357(3) -0.2455(3)
H18 H 0.5715 0.0020 -0.2684
C28 C 0.6015(3) 0.0990(3) -0.2133(3)
H19 H 0.5472 0.1093 -0.2128
C29 C 0.6672(3) 0.1481(3) -0.1815(3)
H20 H 0.6577 0.1925 -0.1589
C30 C 0.7464(3) 0.1338(2) -0.1821(2)
H21 H 0.7903 0.1685 -0.1612
C31 C 0.8521(2) 0.0019(2) -0.2727(2)
C32 C 0.9022(3) -0.0578(2) -0.2441(3)
H22 H 0.9316 -0.0661 -0.1825
C33 C 0.9100(3) -0.1062(3) -0.3050(3)
H23 H 0.9444 -0.1475 -0.2850
C34 C 0.8680(3) -0.0938(3) -0.3939(3)
H24 H 0.8730 -0.1266 -0.4356
C35 C 0.8187(3) -0.0338(3) -0.4223(3)
H25 H 0.7901 -0.0251 -0.4839
C36 C 0.8103(3) 0.0139(2) -0.3624(3)
H26 H 0.7756 0.0551 -0.3829
C37 C 0.8226(2) 0.3192(2) -0.0177(2)
C38 C 0.8770(2) 0.3149(2) 0.0713(2)
H27 H 0.8547 0.3199 0.1157
C39 C 0.9635(2) 0.3035(2) 0.0956(2)
H28 H 0.9998 0.3008 0.1565
C40 C 0.9981(2) 0.29600(19) 0.0319(2)
C41 C 0.9433(2) 0.30085(19) -0.0567(2)
H29 H 0.9658 0.2960 -0.1010
C42 C 0.8572(2) 0.3125(2) -0.0820(2)
H30 H 0.8213 0.3160 -0.1429
C43 C 0.6962(2) 0.2988(2) 0.0155(2)
C44 C 0.6434(2) 0.3399(3) 0.0417(3)
H31 H 0.6308 0.3877 0.0213
C45 C 0.6086(3) 0.3113(3) 0.0978(3)
H32 H 0.5718 0.3395 0.1155
C46 C 0.6269(3) 0.2427(3) 0.1279(3)
H33 H 0.6033 0.2234 0.1668
C47 C 0.6792(3) 0.2023(3) 0.1017(3)
H34 H 0.6919 0.1547 0.1228
C48 C 0.7141(3) 0.2290(2) 0.0453(3)
H35 H 0.7498 0.2001 0.0270
C49 C 0.6818(2) 0.3653(2) -0.1185(3)
C50 C 0.7125(3) 0.4236(2) -0.1488(3)
H36 H 0.7695 0.4390 -0.1175
C51 C 0.6603(3) 0.4596(3) -0.2248(3)
H37 H 0.6825 0.4985 -0.2462
C52 C 0.5764(3) 0.4393(3) -0.2694(3)
H38 H 0.5408 0.4644 -0.3209
C53 C 0.5450(3) 0.3822(3) -0.2383(3)
H39 H 0.4873 0.3682 -0.2683
C54 C 0.5969(2) 0.3454(2) -0.1642(3)
H40 H 0.5747 0.3059 -0.1439
C55 C 1.1428(2) 0.3863(2) 0.1635(2)
C56 C 1.1876(2) 0.3919(2) 0.2548(2)
H41 H 1.2240 0.3541 0.2860
C57 C 1.1800(3) 0.4512(3) 0.3003(3)
H42 H 1.2106 0.4537 0.3626
C58 C 1.1279(3) 0.5072(2) 0.2557(3)
C59 C 1.0835(3) 0.5033(2) 0.1653(3)
H43 H 1.0479 0.5416 0.1345
C60 C 1.0909(2) 0.4431(2) 0.1195(3)
H44 H 1.0602 0.4407 0.0572
C61 C 1.1203(3) 0.5684(3) 0.3063(3)
N1 N 1.4475(2) -0.0748(2) 0.0232(3)
N2 N 0.84360(19) 0.05033(19) -0.2099(2)
N3 N 0.73377(19) 0.32790(18) -0.0414(2)
N4 N 1.1155(3) 0.6151(3) 0.3479(3)
Si1 Si 1.25887(7) 0.28170(6) 0.13082(7)
C62? C 0.4728(7) 0.4804(7) 0.9551(7)
H45? H 0.4264 0.5023 0.9076
H46? H 0.4785 0.4327 0.9367
Cl1? Cl 0.44070(12) 0.47428(10) 1.03820(12)
loop_
_geom_bond_atom_site_label_1
_geom_bond_atom_site_label_2
_geom_bond_site_symmetry_1
_geom_bond_site_symmetry_2
C1 C2 1_555 1_555
C2 C3 1_555 1_555
C3 C4 1_555 1_555
C4 C55 1_555 1_555
C5 C6 1_555 1_555
C6 H1 1_555 1_555
C7 C6 1_555 1_555
H2 C7 1_555 1_555
C8 C7 1_555 1_555
H3 C8 1_555 1_555
C9 C8 1_555 1_555
H4 C9 1_555 1_555
C10 C5 1_555 1_555
H5 C10 1_555 1_555
C11 H6 1_555 1_555
H7 C11 1_555 1_555
H8 C11 1_555 1_555
C12 C1 1_555 1_555
C13 C12 1_555 1_555
H9 C13 1_555 1_555
C14 C13 1_555 1_555
H10 C14 1_555 1_555
C15 C14 1_555 1_555
C16 C15 1_555 1_555
H11 C16 1_555 1_555
C17 C12 1_555 1_555
H12 C17 1_555 1_555
C18 C15 1_555 1_555
C19 C20 1_555 1_555
C20 H13 1_555 1_555
C21 C20 1_555 1_555
H14 C21 1_555 1_555
C22 C2 1_555 1_555
C23 C22 1_555 1_555
H15 C23 1_555 1_555
C24 C19 1_555 1_555
H16 C24 1_555 1_555
C25 C26 1_555 1_555
C26 H17 1_555 1_555
C27 C26 1_555 1_555
H18 C27 1_555 1_555
C28 C27 1_555 1_555
H19 C28 1_555 1_555
C29 C28 1_555 1_555
H20 C29 1_555 1_555
C30 C25 1_555 1_555
H21 C30 1_555 1_555
C31 C32 1_555 1_555
C32 H22 1_555 1_555
C33 C32 1_555 1_555
H23 C33 1_555 1_555
C34 C33 1_555 1_555
H24 C34 1_555 1_555
C35 C34 1_555 1_555
H25 C35 1_555 1_555
C36 C31 1_555 1_555
H26 C36 1_555 1_555
C37 C38 1_555 1_555
C38 H27 1_555 1_555
C39 C38 1_555 1_555
H28 C39 1_555 1_555
C40 C3 1_555 1_555
C41 C40 1_555 1_555
H29 C41 1_555 1_555
C42 C37 1_555 1_555
H30 C42 1_555 1_555
C43 C44 1_555 1_555
C44 H31 1_555 1_555
C45 C44 1_555 1_555
H32 C45 1_555 1_555
C46 C45 1_555 1_555
H33 C46 1_555 1_555
C47 C46 1_555 1_555
H34 C47 1_555 1_555
C48 C43 1_555 1_555
H35 C48 1_555 1_555
C49 C50 1_555 1_555
C50 H36 1_555 1_555
C51 C50 1_555 1_555
H37 C51 1_555 1_555
C52 C51 1_555 1_555
H38 C52 1_555 1_555
C53 C52 1_555 1_555
H39 C53 1_555 1_555
C54 C49 1_555 1_555
H40 C54 1_555 1_555
C55 C56 1_555 1_555
C56 H41 1_555 1_555
C57 C56 1_555 1_555
H42 C57 1_555 1_555
C58 C57 1_555 1_555
C59 C58 1_555 1_555
H43 C59 1_555 1_555
C60 C55 1_555 1_555
H44 C60 1_555 1_555
C61 C58 1_555 1_555
N1 C18 1_555 1_555
N2 C19 1_555 1_555
N3 C37 1_555 1_555
N4 C61 1_555 1_555
Si1 C1 1_555 1_555
C4 Si1 1_555 1_555
C5 Si1 1_555 1_555
C9 C10 1_555 1_555
C11 Si1 1_555 1_555
C16 C17 1_555 1_555
C21 C22 1_555 1_555
C23 C24 1_555 1_555
C25 N2 1_555 1_555
C29 C30 1_555 1_555
C31 N2 1_555 1_555
C35 C36 1_555 1_555
C39 C40 1_555 1_555
C41 C42 1_555 1_555
C43 N3 1_555 1_555
C47 C48 1_555 1_555
C49 N3 1_555 1_555
C53 C54 1_555 1_555
C59 C60 1_555 1_555

#END
