
#######################################################################
#
#                 Cambridge Crystallographic Data Centre
#                                CCDC 
#
#######################################################################
#
# If this CIF has been generated from an entry in the Cambridge 
# Structural Database, then it will include bibliographic, chemical, 
# crystal, experimental, refinement or atomic coordinate data resulting 
# from the CCDC's data processing and validation procedures.
#
#######################################################################

data_DAQVUM
_chemical_formula_moiety         'C18 H18 Cl1 N1 O3'
_chemical_name_systematic        
'Methyl 3-benzyl-5-chloro-4-oxo-2,6-bis(spirocyclopropyl)-3-azabicyclo(3.1.0)hexane-1-carboxylate'
_symmetry_cell_setting           monoclinic
_symmetry_space_group_name_H-M   'P 21/c'
_symmetry_Int_Tables_number      14
_space_group_name_Hall           '-P 2ybc'
loop_
_symmetry_equiv_pos_site_id
_symmetry_equiv_pos_as_xyz
1 x,y,z
2 x,1/2-y,1/2+z
3 -x,-y,-z
4 -x,1/2+y,1/2-z
_cell_length_a                   12.073(2)
_cell_length_b                   10.866(2)
_cell_length_c                   13.638(3)
_cell_angle_alpha                90
_cell_angle_beta                 113.27(3)
_cell_angle_gamma                90
_cell_volume                     1643.57
_chemical_melting_point          96deg.C
_cell_formula_units_Z            4
_exptl_crystal_recrystallization_method 'hexane/diethyl ether'
loop_
_atom_site_label
_atom_site_type_symbol
_atom_site_fract_x
_atom_site_fract_y
_atom_site_fract_z
Cl1 Cl 0.85132(4) 0.55132(4) 0.01591(4)
O1 O 0.94816(10) 0.84170(11) 0.13807(9)
O2 O 0.91728(11) 0.86329(12) -0.03434(10)
O3 O 0.57300(11) 0.53692(11) -0.13316(11)
N1 N 0.57242(12) 0.74873(12) -0.13333(11)
C1 C 0.65964(14) 0.96337(14) -0.13846(13)
H1 H 0.6103 0.9666 -0.2161
H2 H 0.7397 1.0032 -0.1156
C2 C 0.61828(15) 0.63662(15) -0.09720(13)
C3 C 0.75548(14) 0.79478(14) 0.01041(12)
C4 C 0.72536(15) 0.72228(16) 0.08868(13)
C5 C 0.88125(14) 0.83824(14) 0.03411(13)
C6 C 0.45241(14) 0.76459(15) -0.21780(13)
H3 H 0.4312 0.6890 -0.2619
H4 H 0.4553 0.8333 -0.2644
C7 C 0.34387(15) 0.72518(16) -0.09421(14)
H5 H 0.4016 0.6635 -0.0587
C8 C 0.26727(15) 0.87966(16) -0.22990(14)
H6 H 0.2733 0.9256 -0.2868
C9 C 0.64913(13) 0.85143(14) -0.07885(12)
C10 C 0.35330(14) 0.79073(15) -0.17832(13)
C11 C 0.59471(14) 0.97069(15) -0.06379(13)
H7 H 0.6352 1.0148 0.0047
H8 H 0.5058 0.9782 -0.0959
C12 C 0.73466(14) 0.65497(15) -0.00198(14)
C13 C 0.63622(17) 0.7280(2) 0.13840(15)
H9 H 0.5800 0.6580 0.1265
H10 H 0.6024 0.8095 0.1439
C14 C 0.16389(16) 0.83723(19) -0.11449(16)
H11 H 0.0994 0.8528 -0.0929
C15 C 0.25024(17) 0.74969(18) -0.06210(15)
H12 H 0.2455 0.7059 -0.0036
C16 C 1.07205(16) 0.87933(19) 0.16586(16)
H13 H 1.1118 0.8209 0.1356
H14 H 1.1146 0.8809 0.2437
H15 H 1.0736 0.9617 0.1371
C17 C 0.17231(17) 0.90200(19) -0.19881(16)
H16 H 0.1131 0.9619 -0.2355
C18 C 0.76937(17) 0.7055(2) 0.20535(15)
H17 H 0.8165 0.7732 0.2517
H18 H 0.7940 0.6217 0.2343
loop_
_geom_bond_atom_site_label_1
_geom_bond_atom_site_label_2
_geom_bond_site_symmetry_1
_geom_bond_site_symmetry_2
Cl1 C12 1_555 1_555
O1 C5 1_555 1_555
O2 C5 1_555 1_555
O3 C2 1_555 1_555
N1 C2 1_555 1_555
C1 H1 1_555 1_555
H2 C1 1_555 1_555
C2 C12 1_555 1_555
C3 C4 1_555 1_555
C4 C12 1_555 1_555
C5 C3 1_555 1_555
C6 N1 1_555 1_555
H3 C6 1_555 1_555
H4 C6 1_555 1_555
C7 H5 1_555 1_555
C8 H6 1_555 1_555
C9 N1 1_555 1_555
C10 C6 1_555 1_555
C11 C1 1_555 1_555
H7 C11 1_555 1_555
H8 C11 1_555 1_555
C12 C3 1_555 1_555
C13 C4 1_555 1_555
H9 C13 1_555 1_555
H10 C13 1_555 1_555
C14 H11 1_555 1_555
C15 C7 1_555 1_555
H12 C15 1_555 1_555
C16 O1 1_555 1_555
H13 C16 1_555 1_555
H14 C16 1_555 1_555
H15 C16 1_555 1_555
C17 C8 1_555 1_555
H16 C17 1_555 1_555
C18 C4 1_555 1_555
H17 C18 1_555 1_555
H18 C18 1_555 1_555
C1 C9 1_555 1_555
C3 C9 1_555 1_555
C7 C10 1_555 1_555
C8 C10 1_555 1_555
C9 C11 1_555 1_555
C13 C18 1_555 1_555
C14 C15 1_555 1_555
C14 C17 1_555 1_555

#END
