
#######################################################################
#
#                 Cambridge Crystallographic Data Centre
#                                CCDC 
#
#######################################################################
#
# If this CIF has been generated from an entry in the Cambridge 
# Structural Database, then it will include bibliographic, chemical, 
# crystal, experimental, refinement or atomic coordinate data resulting 
# from the CCDC's data processing and validation procedures.
#
#######################################################################

data_DARTOI
_chemical_formula_moiety         'C24 H19 N2 O2 P1 S1'
_chemical_name_systematic        
7-methyl-2,9-diphenyl-4-sulfanylidene-3a,4,9,9a-tetrahydro-1H-4,9-epimino-4-phosphinolino[2,3-c]pyrrole-1,3(2H)-dione
_symmetry_cell_setting           triclinic
_symmetry_space_group_name_H-M   'P -1'
_symmetry_Int_Tables_number      2
_space_group_name_Hall           '-P 1'
loop_
_symmetry_equiv_pos_site_id
_symmetry_equiv_pos_as_xyz
1 x,y,z
2 -x,-y,-z
_cell_length_a                   10.4532(4)
_cell_length_b                   13.4137(4)
_cell_length_c                   16.1910(3)
_cell_angle_alpha                97.965(2)
_cell_angle_beta                 98.017(2)
_cell_angle_gamma                105.855(3)
_cell_volume                     2125.01
_exptl_crystal_colour            colorless
_exptl_crystal_description       prism
_cell_formula_units_Z            4
loop_
_atom_site_label
_atom_site_type_symbol
_atom_site_fract_x
_atom_site_fract_y
_atom_site_fract_z
C1 C 0.8263(3) 0.7882(2) 0.48448(17)
C2 C 0.8866(3) 0.8360(2) 0.56728(18)
H1 H 0.9230 0.7994 0.6044
C3 C 0.8912(3) 0.9399(2) 0.59339(18)
H2 H 0.9319 0.9734 0.6488
C4 C 0.8365(3) 0.9953(2) 0.53894(18)
C5 C 0.7753(3) 0.9455(2) 0.45572(17)
H3 H 0.7386 0.9819 0.4186
C6 C 0.7694(3) 0.8417(2) 0.42880(16)
C7 C 0.6937(3) 0.7679(2) 0.34467(17)
C8 C 0.4836(3) 0.7590(2) 0.41397(17)
C9 C 0.5571(3) 0.6962(2) 0.36469(17)
H4 H 0.4975 0.6539 0.3121
C10 C 0.5959(3) 0.6239(2) 0.42374(17)
H5 H 0.5506 0.5495 0.3988
C11 C 0.5496(3) 0.6544(2) 0.50528(18)
C12 C 0.8417(3) 1.1083(2) 0.5697(2)
H6 H 0.8492 1.1461 0.5236
H7 H 0.9187 1.1408 0.6145
H8 H 0.7605 1.1095 0.5906
C13 C 0.6768(3) 0.8200(2) 0.26860(17)
C14 C 0.5527(3) 0.8158(2) 0.22420(18)
H9 H 0.4743 0.7776 0.2399
C15 C 0.5427(4) 0.8678(3) 0.15637(19)
H10 H 0.4581 0.8638 0.1266
C16 C 0.6586(4) 0.9254(3) 0.1331(2)
H11 H 0.6522 0.9612 0.0881
C17 C 0.7829(4) 0.9299(3) 0.1762(2)
H12 H 0.8610 0.9686 0.1604
C18 C 0.7924(3) 0.8768(2) 0.24342(18)
H13 H 0.8772 0.8793 0.2719
C19 C 0.4234(3) 0.7758(2) 0.55734(17)
C20 C 0.3034(3) 0.7167(3) 0.5739(2)
H14 H 0.2623 0.6479 0.5448
C21 C 0.2444(4) 0.7615(3) 0.6350(2)
H15 H 0.1632 0.7223 0.6470
C22 C 0.3043(5) 0.8620(4) 0.6772(2)
H16 H 0.2642 0.8912 0.7182
C23 C 0.4243(5) 0.9208(3) 0.6598(2)
H17 H 0.4649 0.9897 0.6890
C24 C 0.4845(3) 0.8781(2) 0.59903(19)
H18 H 0.5649 0.9178 0.5865
N1 N 0.7786(3) 0.6947(2) 0.33454(16)
H19 H 0.748(3) 0.645(2) 0.2956(18)
N2 N 0.4843(2) 0.72967(18) 0.49393(14)
O1 O 0.4348(2) 0.82490(16) 0.39287(13)
O2 O 0.5665(2) 0.62071(15) 0.57025(12)
P1 P 0.78212(9) 0.65574(6) 0.43002(5)
S1 S 0.87931(11) 0.55991(7) 0.45999(7)
C25 C 0.7562(3) 0.8242(2) 0.92583(17)
C26 C 0.8699(3) 0.8219(3) 0.97869(18)
H20 H 0.9541 0.8685 0.9789
C27 C 0.8559(3) 0.7483(3) 1.03184(19)
H21 H 0.9319 0.7461 1.0681
C28 C 0.7307(4) 0.6780(3) 1.03185(18)
C29 C 0.6168(3) 0.6807(2) 0.97683(17)
H22 H 0.5327 0.6332 0.9757
C30 C 0.6293(3) 0.7535(2) 0.92447(16)
C31 C 0.5208(3) 0.7653(2) 0.85583(17)
C32 C 0.5659(3) 0.6049(2) 0.76587(16)
C33 C 0.5457(3) 0.7126(2) 0.76739(17)
H23 H 0.4720 0.7095 0.7215
C34 C 0.6821(3) 0.7821(2) 0.75223(17)
H24 H 0.6697 0.8061 0.6980
C35 C 0.7746(3) 0.7143(2) 0.75153(17)
C36 C 0.7185(4) 0.5986(3) 1.0903(2)
H25 H 0.6380 0.5931 1.1138
H26 H 0.7961 0.6213 1.1354
H27 H 0.7136 0.5311 1.0589
C37 C 0.3775(3) 0.7324(2) 0.87162(18)
C38 C 0.3452(4) 0.7920(3) 0.9379(2)
H28 H 0.4117 0.8502 0.9711
C39 C 0.2154(4) 0.7666(3) 0.9556(3)
H29 H 0.1954 0.8070 1.0007
C40 C 0.1170(4) 0.6817(3) 0.9063(3)
H30 H 0.0297 0.6647 0.9177
C41 C 0.1462(4) 0.6221(3) 0.8408(3)
H31 H 0.0790 0.5642 0.8079
C42 C 0.2768(3) 0.6475(3) 0.8227(2)
H32 H 0.2958 0.6068 0.7774
C43 C 0.7530(3) 0.5253(2) 0.75901(19)
C44 C 0.7571(4) 0.4771(3) 0.8289(2)
H33 H 0.7280 0.5024 0.8771
C45 C 0.8053(4) 0.3898(3) 0.8262(3)
H34 H 0.8080 0.3564 0.8727
C46 C 0.8490(4) 0.3529(3) 0.7553(3)
H35 H 0.8811 0.2946 0.7537
C47 C 0.8452(4) 0.4024(3) 0.6867(3)
H36 H 0.8757 0.3777 0.6389
C48 C 0.7965(3) 0.4883(3) 0.6877(2)
H37 H 0.7931 0.5209 0.6407
N3 N 0.5688(3) 0.8812(2) 0.85652(17)
H38 H 0.528(3) 0.899(2) 0.8220(17)
N4 N 0.7000(3) 0.61334(19) 0.76047(14)
O3 O 0.4822(2) 0.52361(16) 0.76824(13)
O4 O 0.8917(2) 0.73804(18) 0.74445(14)
P2 P 0.72924(9) 0.89553(6) 0.84256(5)
S2 S 0.84403(10) 1.03071(7) 0.83392(6)
loop_
_geom_bond_atom_site_label_1
_geom_bond_atom_site_label_2
_geom_bond_site_symmetry_1
_geom_bond_site_symmetry_2
C1 C2 1_555 1_555
C2 H1 1_555 1_555
C3 C2 1_555 1_555
H2 C3 1_555 1_555
C4 C3 1_555 1_555
C5 C4 1_555 1_555
H3 C5 1_555 1_555
C6 C1 1_555 1_555
C7 C6 1_555 1_555
C8 C9 1_555 1_555
C9 C7 1_555 1_555
H4 C9 1_555 1_555
C10 C9 1_555 1_555
H5 C10 1_555 1_555
C11 C10 1_555 1_555
C12 C4 1_555 1_555
H6 C12 1_555 1_555
H7 C12 1_555 1_555
H8 C12 1_555 1_555
C13 C7 1_555 1_555
C14 C13 1_555 1_555
H9 C14 1_555 1_555
C15 C14 1_555 1_555
H10 C15 1_555 1_555
C16 C15 1_555 1_555
H11 C16 1_555 1_555
C17 C16 1_555 1_555
H12 C17 1_555 1_555
C18 C13 1_555 1_555
H13 C18 1_555 1_555
C19 C20 1_555 1_555
C20 H14 1_555 1_555
C21 C20 1_555 1_555
H15 C21 1_555 1_555
C22 C21 1_555 1_555
H16 C22 1_555 1_555
C23 C22 1_555 1_555
H17 C23 1_555 1_555
C24 C19 1_555 1_555
H18 C24 1_555 1_555
N1 C7 1_555 1_555
H19 N1 1_555 1_555
N2 C8 1_555 1_555
O1 C8 1_555 1_555
O2 C11 1_555 1_555
P1 C1 1_555 1_555
S1 P1 1_555 1_555
C25 C26 1_555 1_555
C26 H20 1_555 1_555
C27 C26 1_555 1_555
H21 C27 1_555 1_555
C28 C27 1_555 1_555
C29 C28 1_555 1_555
H22 C29 1_555 1_555
C30 C25 1_555 1_555
C31 C30 1_555 1_555
C32 C33 1_555 1_555
C33 C31 1_555 1_555
H23 C33 1_555 1_555
C34 C33 1_555 1_555
H24 C34 1_555 1_555
C35 C34 1_555 1_555
C36 C28 1_555 1_555
H25 C36 1_555 1_555
H26 C36 1_555 1_555
H27 C36 1_555 1_555
C37 C31 1_555 1_555
C38 C37 1_555 1_555
H28 C38 1_555 1_555
C39 C38 1_555 1_555
H29 C39 1_555 1_555
C40 C39 1_555 1_555
H30 C40 1_555 1_555
C41 C40 1_555 1_555
H31 C41 1_555 1_555
C42 C37 1_555 1_555
H32 C42 1_555 1_555
C43 C44 1_555 1_555
C44 H33 1_555 1_555
C45 C44 1_555 1_555
H34 C45 1_555 1_555
C46 C45 1_555 1_555
H35 C46 1_555 1_555
C47 C46 1_555 1_555
H36 C47 1_555 1_555
C48 C43 1_555 1_555
H37 C48 1_555 1_555
N3 C31 1_555 1_555
H38 N3 1_555 1_555
N4 C32 1_555 1_555
O3 C32 1_555 1_555
O4 C35 1_555 1_555
P2 C25 1_555 1_555
S2 P2 1_555 1_555
C5 C6 1_555 1_555
C10 P1 1_555 1_555
C11 N2 1_555 1_555
C17 C18 1_555 1_555
C19 N2 1_555 1_555
C23 C24 1_555 1_555
N1 P1 1_555 1_555
C29 C30 1_555 1_555
C34 P2 1_555 1_555
C35 N4 1_555 1_555
C41 C42 1_555 1_555
C43 N4 1_555 1_555
C47 C48 1_555 1_555
N3 P2 1_555 1_555

#END
