
#######################################################################
#
#                 Cambridge Crystallographic Data Centre
#                                CCDC 
#
#######################################################################
#
# If this CIF has been generated from an entry in the Cambridge 
# Structural Database, then it will include bibliographic, chemical, 
# crystal, experimental, refinement or atomic coordinate data resulting 
# from the CCDC's data processing and validation procedures.
#
#######################################################################

data_DARVOJ
_chemical_formula_moiety         'C19 H24 N2 O4'
_chemical_name_systematic        
'Benzyl 3-isobutyl-1,4-dioxohexahydropyrrolo[1,2-a]pyrazine-2(1H)-carboxylate'
_symmetry_cell_setting           monoclinic
_symmetry_space_group_name_H-M   'P 21'
_symmetry_Int_Tables_number      4
_space_group_name_Hall           'P 2yb'
loop_
_symmetry_equiv_pos_site_id
_symmetry_equiv_pos_as_xyz
1 x,y,z
2 -x,1/2+y,-z
_cell_length_a                   9.8826(6)
_cell_length_b                   8.7994(5)
_cell_length_c                   10.6857(6)
_cell_angle_alpha                90
_cell_angle_beta                 106.798(3)
_cell_angle_gamma                90
_cell_volume                     889.588
_exptl_crystal_colour            grey
_exptl_crystal_description       block
_cell_formula_units_Z            2
loop_
_atom_site_label
_atom_site_type_symbol
_atom_site_fract_x
_atom_site_fract_y
_atom_site_fract_z
O1 O 0.43686(10) 0.21159(12) 0.48794(9)
O2 O 0.05763(12) -0.11482(13) 0.63568(11)
O3 O 0.21966(12) -0.34010(13) 0.57686(10)
O4 O 0.24674(10) -0.28034(11) 0.38072(9)
N1 N 0.26851(12) 0.20037(14) 0.59304(11)
N2 N 0.20669(13) -0.09130(13) 0.50639(11)
C1 C 0.32791(16) 0.31633(18) 0.69305(14)
H1 H 0.3466 0.4102 0.6535
H2 H 0.4147 0.2810 0.7548
C2 C 0.21186(18) 0.3377(2) 0.75909(16)
H3 H 0.1464 0.4167 0.7161
H4 H 0.2515 0.3642 0.8505
C3 C 0.13865(16) 0.18361(19) 0.74462(13)
H5 H 0.0433 0.1928 0.7516
H6 H 0.1912 0.1125 0.8101
C4 C 0.13782(15) 0.13372(18) 0.60697(13)
H7 H 0.0571 0.1811 0.5432
C5 C 0.12955(15) -0.03584(18) 0.58702(14)
C6 C 0.25909(15) 0.01684(16) 0.42306(13)
H8 H 0.3311 -0.0363 0.3930
C7 C 0.33045(14) 0.15291(17) 0.50438(13)
C8 C 0.14014(16) 0.06310(18) 0.30144(13)
H9 H 0.0997 -0.0281 0.2543
H10 H 0.0664 0.1132 0.3294
C9 C 0.18674(15) 0.16866(18) 0.20795(13)
H11 H 0.2327 0.2573 0.2581
C10 C 0.0580(2) 0.2249(2) 0.10096(16)
H12 H 0.0883 0.2911 0.0429
H13 H -0.0037 0.2793 0.1399
H14 H 0.0086 0.1396 0.0528
C11 C 0.2925(2) 0.0943(2) 0.14833(17)
H15 H 0.3184 0.1648 0.0907
H16 H 0.2506 0.0057 0.1000
H17 H 0.3752 0.0652 0.2166
C12 C 0.22469(15) -0.24931(17) 0.49490(14)
C13 C 0.28102(16) -0.43847(17) 0.36308(14)
H18 H 0.1965 -0.5006 0.3455
H19 H 0.3490 -0.4763 0.4416
C14 C 0.34206(16) -0.44556(19) 0.24974(14)
C15 C 0.28555(18) -0.3605(2) 0.13710(14)
H20 H 0.2098 -0.2956 0.1318
C16 C 0.3418(2) -0.3721(2) 0.03263(16)
H21 H 0.3038 -0.3153 -0.0427
C17 C 0.4546(2) -0.4685(3) 0.04081(19)
H22 H 0.4929 -0.4759 -0.0289
C18 C 0.51041(19) -0.5537(2) 0.15201(19)
H23 H 0.5857 -0.6190 0.1567
C19 C 0.45506(17) -0.54268(19) 0.25644(16)
H24 H 0.4934 -0.6002 0.3313
loop_
_geom_bond_atom_site_label_1
_geom_bond_atom_site_label_2
_geom_bond_site_symmetry_1
_geom_bond_site_symmetry_2
O1 C7 1_555 1_555
O2 C5 1_555 1_555
O3 C12 1_555 1_555
O4 C12 1_555 1_555
N1 C1 1_555 1_555
N2 C5 1_555 1_555
C1 H1 1_555 1_555
H2 C1 1_555 1_555
C2 C1 1_555 1_555
H3 C2 1_555 1_555
H4 C2 1_555 1_555
C3 C2 1_555 1_555
H5 C3 1_555 1_555
H6 C3 1_555 1_555
C4 N1 1_555 1_555
H7 C4 1_555 1_555
C5 C4 1_555 1_555
C6 N2 1_555 1_555
H8 C6 1_555 1_555
C7 N1 1_555 1_555
C8 C6 1_555 1_555
H9 C8 1_555 1_555
H10 C8 1_555 1_555
C9 C8 1_555 1_555
H11 C9 1_555 1_555
C10 C9 1_555 1_555
H12 C10 1_555 1_555
H13 C10 1_555 1_555
H14 C10 1_555 1_555
C11 C9 1_555 1_555
H15 C11 1_555 1_555
H16 C11 1_555 1_555
H17 C11 1_555 1_555
C12 N2 1_555 1_555
C13 O4 1_555 1_555
H18 C13 1_555 1_555
H19 C13 1_555 1_555
C14 C13 1_555 1_555
C15 C14 1_555 1_555
H20 C15 1_555 1_555
C16 C15 1_555 1_555
H21 C16 1_555 1_555
C17 C16 1_555 1_555
H22 C17 1_555 1_555
C18 C17 1_555 1_555
H23 C18 1_555 1_555
C19 C14 1_555 1_555
H24 C19 1_555 1_555
C3 C4 1_555 1_555
C6 C7 1_555 1_555
C18 C19 1_555 1_555

#END
