
#######################################################################
#
#                 Cambridge Crystallographic Data Centre
#                                CCDC 
#
#######################################################################
#
# If this CIF has been generated from an entry in the Cambridge 
# Structural Database, then it will include bibliographic, chemical, 
# crystal, experimental, refinement or atomic coordinate data resulting 
# from the CCDC's data processing and validation procedures.
#
#######################################################################

data_DASBIL
_chemical_formula_moiety         'C18 H14 F3 N1'
_chemical_name_systematic        
4-(4-methylphenyl)-4-phenyl-3-(trifluoromethyl)but-3-enenitrile
_symmetry_cell_setting           monoclinic
_symmetry_space_group_name_H-M   'P 21/n'
_symmetry_Int_Tables_number      14
_space_group_name_Hall           '-P 2yn'
loop_
_symmetry_equiv_pos_site_id
_symmetry_equiv_pos_as_xyz
1 x,y,z
2 1/2-x,1/2+y,1/2-z
3 -x,-y,-z
4 1/2+x,1/2-y,1/2+z
_cell_length_a                   5.9879(8)
_cell_length_b                   12.9830(17)
_cell_length_c                   18.904(3)
_cell_angle_alpha                90
_cell_angle_beta                 90.542(2)
_cell_angle_gamma                90
_cell_volume                     1469.55
_exptl_crystal_colour            colorless
_exptl_crystal_description       prismatic
_cell_formula_units_Z            4
loop_
_atom_site_label
_atom_site_type_symbol
_atom_site_fract_x
_atom_site_fract_y
_atom_site_fract_z
F1 F 0.66709(18) 0.21577(7) 0.03455(5)
F2 F 0.8446(2) 0.07625(8) 0.05765(5)
F3 F 0.48610(19) 0.07835(9) 0.05898(5)
N1 N 0.1610(3) 0.06525(12) 0.22455(9)
C1 C 0.3483(3) 0.06654(12) 0.21312(8)
C2 C 0.5901(3) 0.06843(11) 0.20017(8)
H1 H 0.6331 0.0031 0.1770
H2 H 0.6696 0.0718 0.2463
C3 C 0.6675(2) 0.15768(11) 0.15451(7)
C4 C 0.7374(2) 0.24717(11) 0.18249(7)
C5 C 0.7024(2) 0.26992(11) 0.25962(7)
C6 C 0.4975(3) 0.30691(13) 0.28258(8)
H3 H 0.3768 0.3136 0.2499
C7 C 0.4681(3) 0.33426(13) 0.35308(8)
H4 H 0.3280 0.3603 0.3681
C8 C 0.6416(3) 0.32376(12) 0.40150(8)
H5 H 0.6208 0.3421 0.4496
C9 C 0.8457(3) 0.28631(12) 0.37910(8)
H6 H 0.9649 0.2784 0.4122
C10 C 0.8776(2) 0.26018(12) 0.30861(8)
H7 H 1.0190 0.2356 0.2937
C11 C 0.8623(2) 0.32957(11) 0.14436(7)
C12 C 0.7896(2) 0.43171(11) 0.14615(7)
H8 H 0.6513 0.4481 0.1676
C13 C 0.9180(3) 0.50939(12) 0.11677(8)
H9 H 0.8640 0.5782 0.1171
C14 C 1.1251(2) 0.48838(12) 0.08666(7)
C15 C 1.1951(3) 0.38617(12) 0.08418(8)
H10 H 1.3336 0.3699 0.0628
C16 C 1.0662(2) 0.30750(12) 0.11244(8)
H11 H 1.1172 0.2383 0.1100
C17 C 1.2682(3) 0.57471(13) 0.05907(9)
H12 H 1.4246 0.5620 0.0721
H13 H 1.2195 0.6401 0.0798
H14 H 1.2536 0.5782 0.0075
C18 C 0.6687(3) 0.13325(12) 0.07688(8)
loop_
_geom_bond_atom_site_label_1
_geom_bond_atom_site_label_2
_geom_bond_site_symmetry_1
_geom_bond_site_symmetry_2
F1 C18 1_555 1_555
F2 C18 1_555 1_555
F3 C18 1_555 1_555
N1 C1 1_555 1_555
C1 C2 1_555 1_555
C2 H1 1_555 1_555
H2 C2 1_555 1_555
C3 C2 1_555 1_555
C4 C3 1_555 1_555
C5 C4 1_555 1_555
C6 C5 1_555 1_555
H3 C6 1_555 1_555
C7 C6 1_555 1_555
H4 C7 1_555 1_555
C8 C7 1_555 1_555
H5 C8 1_555 1_555
C9 C8 1_555 1_555
H6 C9 1_555 1_555
C10 C5 1_555 1_555
H7 C10 1_555 1_555
C11 C4 1_555 1_555
C12 C11 1_555 1_555
H8 C12 1_555 1_555
C13 C12 1_555 1_555
H9 C13 1_555 1_555
C14 C13 1_555 1_555
C15 C14 1_555 1_555
H10 C15 1_555 1_555
C16 C11 1_555 1_555
H11 C16 1_555 1_555
C17 C14 1_555 1_555
H12 C17 1_555 1_555
H13 C17 1_555 1_555
H14 C17 1_555 1_555
C18 C3 1_555 1_555
C9 C10 1_555 1_555
C15 C16 1_555 1_555

#END
