
#######################################################################
#
#                 Cambridge Crystallographic Data Centre
#                                CCDC 
#
#######################################################################
#
# If this CIF has been generated from an entry in the Cambridge 
# Structural Database, then it will include bibliographic, chemical, 
# crystal, experimental, refinement or atomic coordinate data resulting 
# from the CCDC's data processing and validation procedures.
#
#######################################################################

data_DASDUZ
_chemical_formula_moiety         'C9 H10 F3 N1 O3'
_chemical_name_systematic        
'methyl 2-acetamido-4-(trifluoromethyl)penta-2,4-dienoate'
_symmetry_cell_setting           monoclinic
_symmetry_space_group_name_H-M   'P 21/c'
_symmetry_Int_Tables_number      14
_space_group_name_Hall           '-P 2ybc'
loop_
_symmetry_equiv_pos_site_id
_symmetry_equiv_pos_as_xyz
1 x,y,z
2 -x,1/2+y,1/2-z
3 -x,-y,-z
4 x,1/2-y,1/2+z
_cell_length_a                   4.8239(6)
_cell_length_b                   19.410(2)
_cell_length_c                   11.5351(14)
_cell_angle_alpha                90
_cell_angle_beta                 90.124(2)
_cell_angle_gamma                90
_cell_volume                     1080.05
_exptl_crystal_colour            colorless
_exptl_crystal_description       prism
_cell_formula_units_Z            4
loop_
_atom_site_label
_atom_site_type_symbol
_atom_site_fract_x
_atom_site_fract_y
_atom_site_fract_z
C1 C 1.0857(13) 0.9396(3) 0.3122(5)
C2 C 0.9915(11) 0.8705(3) 0.2732(5)
C3 C 0.8069(11) 0.8730(3) 0.1715(5)
H1 H 0.74 0.9164 0.152
C4 C 1.0723(16) 0.8167(3) 0.3328(6)
H2 H 1.0115 0.7729 0.3119
H3 H 1.1906 0.8222 0.3959
C5 C 0.7222(10) 0.8215(2) 0.1034(4)
C6 C 0.6187(10) 0.7009(3) 0.1138(4)
C7 C 0.7352(12) 0.6298(3) 0.1205(6)
H4 H 0.6768 0.6084 0.1914
H5 H 0.9339 0.632 0.1186
H6 H 0.6697 0.6032 0.0558
C8 C 0.5556(11) 0.8370(3) -0.0031(5)
C9 C 0.2452(15) 0.9136(4) -0.0916(6)
H7 H 0.3707 0.9321 -0.1481
H8 H 0.1122 0.9482 -0.0705
H9 H 0.1507 0.8745 -0.1238
F1 F 1.2569(11) 0.9393(2) 0.4007(4)
F2 F 0.8715(10) 0.9806(2) 0.3425(4)
F3 F 1.2141(10) 0.9750(2) 0.2276(4)
N1 N 0.8050(8) 0.7529(2) 0.1155(4)
H10 H 0.978 0.7435 0.1242
O1 O 0.3689(7) 0.7130(2) 0.1089(4)
O2 O 0.3977(9) 0.8928(2) 0.0092(4)
O3 O 0.5694(11) 0.8042(3) -0.0900(4)
loop_
_geom_bond_atom_site_label_1
_geom_bond_atom_site_label_2
_geom_bond_site_symmetry_1
_geom_bond_site_symmetry_2
C1 C2 1_555 1_555
C2 C3 1_555 1_555
C3 H1 1_555 1_555
C4 C2 1_555 1_555
H2 C4 1_555 1_555
H3 C4 1_555 1_555
C5 C3 1_555 1_555
C6 C7 1_555 1_555
C7 H4 1_555 1_555
H5 C7 1_555 1_555
H6 C7 1_555 1_555
C8 C5 1_555 1_555
C9 H7 1_555 1_555
H8 C9 1_555 1_555
H9 C9 1_555 1_555
F1 C1 1_555 1_555
F2 C1 1_555 1_555
F3 C1 1_555 1_555
N1 C5 1_555 1_555
H10 N1 1_555 1_555
O1 C6 1_555 1_555
O2 C8 1_555 1_555
O3 C8 1_555 1_555
C6 N1 1_555 1_555
C9 O2 1_555 1_555

#END
