
#######################################################################
#
#                 Cambridge Crystallographic Data Centre
#                                CCDC 
#
#######################################################################
#
# If this CIF has been generated from an entry in the Cambridge 
# Structural Database, then it will include bibliographic, chemical, 
# crystal, experimental, refinement or atomic coordinate data resulting 
# from the CCDC's data processing and validation procedures.
#
#######################################################################

data_DASKOA
_chemical_compound_source        'Daldinia eschscholzii IFB-TL01'
_chemical_name_common            'Dalescone A methanol solvate'
_chemical_formula_moiety         'C31 H20 O7,C1 H4 O1'
_chemical_name_systematic        
"4,10,15-trihydroxy-12a,13,16,18-tetrahydro-3H,11H-dinaphtho[1'',8'':1',2',3';2''',1''':8',8a']azuleno[4',5':4,5]benzo[1,2-c]furan-3,11,14(12H)-trione methanol solvate"
_symmetry_cell_setting           monoclinic
_symmetry_space_group_name_H-M   'P 21/n'
_symmetry_Int_Tables_number      14
_space_group_name_Hall           '-P 2yn'
loop_
_symmetry_equiv_pos_site_id
_symmetry_equiv_pos_as_xyz
1 x,y,z
2 1/2-x,1/2+y,1/2-z
3 -x,-y,-z
4 1/2+x,1/2-y,1/2+z
_cell_length_a                   8.5702(2)
_cell_length_b                   19.8368(8)
_cell_length_c                   13.8839(5)
_cell_angle_alpha                90
_cell_angle_beta                 93.903(3)
_cell_angle_gamma                90
_cell_volume                     2354.86
_exptl_crystal_colour            colorless
_exptl_crystal_description       prism
_cell_formula_units_Z            4
loop_
_atom_site_label
_atom_site_type_symbol
_atom_site_fract_x
_atom_site_fract_y
_atom_site_fract_z
O1 O 0.23779(18) 0.48050(8) 0.40322(11)
O2 O 0.14015(18) 0.53029(8) 0.56941(12)
H1 H 0.138(4) 0.5210(16) 0.5105(9)
O3 O 0.72536(18) 0.23124(8) 1.03846(11)
H2 H 0.777(3) 0.2672(9) 1.045(2)
O4 O 0.85180(18) 0.34664(8) 1.01048(10)
O5 O 1.07021(17) 0.29837(8) 0.80784(11)
O6 O 1.10615(17) 0.18462(8) 0.72683(10)
H3 H 1.118(3) 0.2163(10) 0.7662(16)
O7 O 0.8913(2) 0.06389(8) 0.49566(11)
C1 C 0.3329(2) 0.44513(11) 0.45198(15)
C2 C 0.4427(2) 0.39993(11) 0.40642(14)
H4 H 0.4375 0.3976 0.3379
C3 C 0.5505(2) 0.36158(10) 0.45662(14)
H5 H 0.6192 0.3336 0.4235
C4 C 0.5606(2) 0.36334(10) 0.56132(14)
C5 C 0.4548(2) 0.40773(10) 0.60683(14)
C6 C 0.3438(2) 0.44787(10) 0.55742(14)
C7 C 0.2512(2) 0.48959(10) 0.61298(15)
C8 C 0.2753(2) 0.48931(11) 0.71304(15)
H6 H 0.2131 0.5176 0.7502
C9 C 0.3897(2) 0.44804(10) 0.76036(14)
H7 H 0.4046 0.4487 0.8288
C10 C 0.4807(2) 0.40638(10) 0.70668(14)
C11 C 0.6224(2) 0.36136(10) 0.73192(13)
C12 C 0.5899(2) 0.30394(10) 0.80216(14)
C13 C 0.4792(2) 0.25567(11) 0.77330(14)
H8 H 0.4202 0.2603 0.7132
C14 C 0.4541(2) 0.20015(11) 0.83245(15)
H9 H 0.3779 0.1675 0.8119
C15 C 0.5384(2) 0.19191(11) 0.92042(15)
H10 H 0.5214 0.1535 0.9591
C16 C 0.6473(2) 0.24005(11) 0.95157(14)
C17 C 0.6727(2) 0.29771(10) 0.89354(14)
C18 C 0.7735(2) 0.35187(11) 0.93174(14)
C19 C 0.7702(2) 0.41704(10) 0.87761(14)
H11 H 0.8652 0.4432 0.8978
H12 H 0.6783 0.4435 0.8951
C20 C 0.7622(2) 0.40792(10) 0.76753(14)
H13 H 0.7388 0.4534 0.7392
C21 C 0.9208(2) 0.38639(10) 0.73138(15)
H14 H 0.9199 0.3970 0.6617
H15 H 1.0035 0.4144 0.7648
C22 C 0.9658(2) 0.31352(11) 0.74489(14)
C23 C 0.6545(2) 0.33209(10) 0.63143(13)
C24 C 0.7571(2) 0.27423(10) 0.61869(13)
C25 C 0.8959(2) 0.26226(10) 0.67900(13)
C26 C 0.9760(2) 0.20031(11) 0.67076(14)
C27 C 0.9229(2) 0.15377(11) 0.60120(14)
C28 C 0.9816(3) 0.08450(11) 0.58182(15)
H16 H 1.0947 0.0853 0.5713
H17 H 0.9639 0.0538 0.6362
C29 C 0.7580(3) 0.10750(12) 0.47787(17)
H18 H 0.6607 0.0845 0.4942
H19 H 0.7471 0.1214 0.4093
C30 C 0.7907(2) 0.16700(10) 0.54205(14)
C31 C 0.7054(2) 0.22600(10) 0.55048(14)
H20 H 0.6129 0.2335 0.5103
O8 O 0.9624(2) 0.45849(11) 1.12437(15)
H21 H 0.921(4) 0.4324(16) 1.078(2)
C32 C 1.0764(3) 0.42833(14) 1.19190(19)
H22 H 1.1815 0.4420 1.1761
H23 H 1.0675 0.3791 1.1882
H24 H 1.0578 0.4433 1.2574
loop_
_geom_bond_atom_site_label_1
_geom_bond_atom_site_label_2
_geom_bond_site_symmetry_1
_geom_bond_site_symmetry_2
O1 C1 1_555 1_555
O2 H1 1_555 1_555
O3 H2 1_555 1_555
O4 C18 1_555 1_555
O5 C22 1_555 1_555
O6 H3 1_555 1_555
O7 C28 1_555 1_555
C1 C2 1_555 1_555
C2 H4 1_555 1_555
C3 C2 1_555 1_555
H5 C3 1_555 1_555
C4 C3 1_555 1_555
C5 C4 1_555 1_555
C6 C1 1_555 1_555
C7 O2 1_555 1_555
C8 C7 1_555 1_555
H6 C8 1_555 1_555
C9 C8 1_555 1_555
H7 C9 1_555 1_555
C10 C5 1_555 1_555
C11 C10 1_555 1_555
C12 C11 1_555 1_555
C13 C12 1_555 1_555
H8 C13 1_555 1_555
C14 C13 1_555 1_555
H9 C14 1_555 1_555
C15 C14 1_555 1_555
H10 C15 1_555 1_555
C16 O3 1_555 1_555
C17 C12 1_555 1_555
C18 C17 1_555 1_555
C19 C18 1_555 1_555
H11 C19 1_555 1_555
H12 C19 1_555 1_555
C20 C11 1_555 1_555
H13 C20 1_555 1_555
C21 C20 1_555 1_555
H14 C21 1_555 1_555
H15 C21 1_555 1_555
C22 C21 1_555 1_555
C23 C4 1_555 1_555
C24 C23 1_555 1_555
C25 C22 1_555 1_555
C26 O6 1_555 1_555
C27 C26 1_555 1_555
C28 C27 1_555 1_555
H16 C28 1_555 1_555
H17 C28 1_555 1_555
C29 O7 1_555 1_555
H18 C29 1_555 1_555
H19 C29 1_555 1_555
C30 C27 1_555 1_555
C31 C24 1_555 1_555
H20 C31 1_555 1_555
O8 H21 1_555 1_555
C32 O8 1_555 1_555
H22 C32 1_555 1_555
H23 C32 1_555 1_555
H24 C32 1_555 1_555
C5 C6 1_555 1_555
C6 C7 1_555 1_555
C9 C10 1_555 1_555
C11 C23 1_555 1_555
C15 C16 1_555 1_555
C16 C17 1_555 1_555
C19 C20 1_555 1_555
C24 C25 1_555 1_555
C25 C26 1_555 1_555
C29 C30 1_555 1_555
C30 C31 1_555 1_555

#END
