
#######################################################################
#
#                 Cambridge Crystallographic Data Centre
#                                CCDC 
#
#######################################################################
#
# If this CIF has been generated from an entry in the Cambridge 
# Structural Database, then it will include bibliographic, chemical, 
# crystal, experimental, refinement or atomic coordinate data resulting 
# from the CCDC's data processing and validation procedures.
#
#######################################################################

data_DASLIV
_chemical_compound_source        'Daldinia eschscholzii IFB-TL01'
_chemical_name_common            'Dalescone D'
_chemical_formula_moiety         'C31 H22 O7'
_chemical_name_systematic        
4,10,15-trihydroxy-2-(1-hydroxyethyl)-12a,13-dihydrobenzo[3,4]naphtho[1',2':1,7]cyclohepta[1,2-a]acenaphthylene-3,11,14(12H)-trione
_symmetry_cell_setting           monoclinic
_symmetry_space_group_name_H-M   'P 21/c'
_symmetry_Int_Tables_number      14
_space_group_name_Hall           '-P 2ybc'
loop_
_symmetry_equiv_pos_site_id
_symmetry_equiv_pos_as_xyz
1 x,y,z
2 -x,1/2+y,1/2-z
3 -x,-y,-z
4 x,1/2-y,1/2+z
_cell_length_a                   13.7367(1)
_cell_length_b                   8.5632(1)
_cell_length_c                   19.5622(2)
_cell_angle_alpha                90
_cell_angle_beta                 97.697(1)
_cell_angle_gamma                90
_cell_volume                     2280.37
_exptl_crystal_colour            brown
_exptl_crystal_description       prism
_cell_formula_units_Z            4
loop_
_atom_site_label
_atom_site_type_symbol
_atom_site_fract_x
_atom_site_fract_y
_atom_site_fract_z
O1 O 0.59929(11) 0.92607(15) 0.59117(7)
O2 O 0.45955(8) 0.78047(14) 0.48682(6)
O3 O 0.37674(8) 0.71091(14) 0.35710(6)
O4 O 0.85005(8) -0.11770(13) 0.27445(6)
O5 O 0.87936(8) 0.14177(13) 0.20861(6)
O6 O 1.03051(8) 0.33596(13) 0.33344(6)
O7 O 1.09911(8) 0.18201(14) 0.43898(6)
C1 C 0.68589(12) 0.7257(2) 0.65684(8)
H1 H 0.6717 0.7777 0.6990
H2 H 0.7482 0.7649 0.6443
H3 H 0.6908 0.6128 0.6647
C2 C 0.60420(12) 0.75909(19) 0.59892(8)
H4 H 0.5410 0.7220 0.6133
C3 C 0.61701(11) 0.68160(16) 0.53063(7)
C4 C 0.53209(11) 0.70060(17) 0.47618(7)
C5 C 0.53686(10) 0.62781(16) 0.40950(7)
C6 C 0.46225(10) 0.63476(18) 0.35274(8)
C7 C 0.47596(10) 0.56156(18) 0.29083(8)
H5 H 0.4256 0.5673 0.2526
C8 C 0.56268(10) 0.47981(17) 0.28409(7)
H6 H 0.5709 0.4303 0.2418
C9 C 0.63649(9) 0.47199(15) 0.34006(7)
C10 C 0.62185(10) 0.54699(15) 0.40050(7)
C11 C 0.70571(10) 0.53103(16) 0.45301(7)
C12 C 0.69952(10) 0.60307(16) 0.51905(7)
H7 H 0.7535 0.5956 0.5548
C13 C 0.77601(9) 0.44424(15) 0.42636(7)
C14 C 0.73913(9) 0.40163(15) 0.34994(7)
C15 C 0.73610(9) 0.22303(15) 0.34692(7)
C16 C 0.68588(10) 0.14612(16) 0.39394(7)
H8 H 0.6485 0.2042 0.4226
C17 C 0.69017(11) -0.01546(18) 0.39913(8)
H9 H 0.6548 -0.0672 0.4310
C18 C 0.74486(11) -0.10190(17) 0.35872(8)
H10 H 0.7479 -0.2123 0.3634
C19 C 0.79560(10) -0.02764(17) 0.31104(7)
C20 C 0.78897(9) 0.13687(16) 0.30298(7)
C21 C 0.83079(10) 0.21431(16) 0.24674(7)
C22 C 0.80568(10) 0.38373(16) 0.23389(7)
H11 H 0.7407 0.3904 0.2053
H12 H 0.8546 0.4302 0.2070
C23 C 0.80296(10) 0.48099(16) 0.29922(7)
H13 H 0.7689 0.5807 0.2840
C24 C 0.90603(10) 0.52684(16) 0.33360(7)
H14 H 0.9417 0.5774 0.2988
H15 H 0.8997 0.6045 0.3702
C25 C 0.96554(10) 0.39132(17) 0.36461(7)
C26 C 0.94808(10) 0.32931(16) 0.43192(7)
C27 C 1.02042(10) 0.23070(17) 0.46753(8)
C28 C 1.01319(11) 0.18131(18) 0.53448(8)
H16 H 1.0631 0.1176 0.5585
C29 C 0.93330(11) 0.22528(19) 0.56566(8)
H17 H 0.9290 0.1930 0.6116
C30 C 0.85847(10) 0.31668(17) 0.53062(7)
H18 H 0.8030 0.3429 0.5526
C31 C 0.86397(10) 0.36994(16) 0.46398(7)
H19 H 0.5464(15) 0.944(3) 0.5559(11)
H20 H 0.3849(17) 0.751(3) 0.4004(13)
H21 H 0.876(2) -0.056(3) 0.2431(15)
H22 H 1.0882(17) 0.216(3) 0.3925(13)
loop_
_geom_bond_atom_site_label_1
_geom_bond_atom_site_label_2
_geom_bond_site_symmetry_1
_geom_bond_site_symmetry_2
O1 C2 1_555 1_555
O2 C4 1_555 1_555
O3 C6 1_555 1_555
O4 C19 1_555 1_555
O5 C21 1_555 1_555
O6 C25 1_555 1_555
O7 C27 1_555 1_555
C1 H1 1_555 1_555
H2 C1 1_555 1_555
H3 C1 1_555 1_555
C2 C1 1_555 1_555
H4 C2 1_555 1_555
C3 C2 1_555 1_555
C4 C3 1_555 1_555
C5 C4 1_555 1_555
C6 C5 1_555 1_555
C7 C6 1_555 1_555
H5 C7 1_555 1_555
C8 C7 1_555 1_555
H6 C8 1_555 1_555
C9 C8 1_555 1_555
C10 C5 1_555 1_555
C11 C10 1_555 1_555
C12 C3 1_555 1_555
H7 C12 1_555 1_555
C13 C11 1_555 1_555
C14 C9 1_555 1_555
C15 C14 1_555 1_555
C16 C15 1_555 1_555
H8 C16 1_555 1_555
C17 C16 1_555 1_555
H9 C17 1_555 1_555
C18 C17 1_555 1_555
H10 C18 1_555 1_555
C19 C18 1_555 1_555
C20 C15 1_555 1_555
C21 C20 1_555 1_555
C22 C21 1_555 1_555
H11 C22 1_555 1_555
H12 C22 1_555 1_555
C23 C14 1_555 1_555
H13 C23 1_555 1_555
C24 C23 1_555 1_555
H14 C24 1_555 1_555
H15 C24 1_555 1_555
C25 C24 1_555 1_555
C26 C25 1_555 1_555
C27 C26 1_555 1_555
C28 C27 1_555 1_555
H16 C28 1_555 1_555
C29 C28 1_555 1_555
H17 C29 1_555 1_555
C30 C29 1_555 1_555
H18 C30 1_555 1_555
C31 C13 1_555 1_555
H19 O1 1_555 1_555
H20 O3 1_555 1_555
H21 O4 1_555 1_555
H22 O7 1_555 1_555
C9 C10 1_555 1_555
C11 C12 1_555 1_555
C13 C14 1_555 1_555
C19 C20 1_555 1_555
C22 C23 1_555 1_555
C26 C31 1_555 1_555
C30 C31 1_555 1_555

#END
