
#######################################################################
#
#                 Cambridge Crystallographic Data Centre
#                                CCDC 
#
#######################################################################
#
# If this CIF has been generated from an entry in the Cambridge 
# Structural Database, then it will include bibliographic, chemical, 
# crystal, experimental, refinement or atomic coordinate data resulting 
# from the CCDC's data processing and validation procedures.
#
#######################################################################

data_DASNER
_chemical_formula_moiety         '2(C112 H128 O28 S8),13(C4 H8 O1)'
_chemical_name_systematic        
'bis(10,12,22,24-Tetrahydroxy-4,5,6,11,16,17,18,23-octakis(2,4,6-trimethylbenzenesulfonato)-2,8,14,20-tetrapropylcalix[4]arene) tridecakis(tetrahydrofuran) clathrate'
_symmetry_cell_setting           monoclinic
_symmetry_space_group_name_H-M   'C 2/c'
_symmetry_Int_Tables_number      15
_space_group_name_Hall           '-C 2yn'
loop_
_symmetry_equiv_pos_site_id
_symmetry_equiv_pos_as_xyz
1 x,y,z
2 1/2+x,1/2+y,z
3 -x,y,1/2-z
4 1/2-x,1/2+y,1/2-z
5 -x,-y,-z
6 1/2-x,1/2-y,-z
7 x,-y,1/2+z
8 1/2+x,1/2-y,1/2+z
_cell_length_a                   32.9675(5)
_cell_length_b                   16.0140(4)
_cell_length_c                   28.8852(7)
_cell_angle_alpha                90
_cell_angle_beta                 104.4100(10)
_cell_angle_gamma                90
_cell_volume                     14769.9
_exptl_crystal_colour            colorless
_exptl_crystal_description       block
_chemical_melting_point          'above 300deg.C'
_cell_formula_units_Z            2
loop_
_atom_site_label
_atom_site_type_symbol
_atom_site_fract_x
_atom_site_fract_y
_atom_site_fract_z
C1 C -0.02417(12) 0.2786(3) 0.33591(14)
C2 C 0.01366(12) 0.2376(3) 0.33834(14)
H1 H 0.0138 0.1783 0.3389
C3 C 0.05124(12) 0.2790(3) 0.33995(14)
C4 C 0.05044(12) 0.3662(3) 0.33860(15)
C5 C 0.01339(13) 0.4081(3) 0.33928(16)
C6 C -0.02417(12) 0.3656(3) 0.33538(15)
C7 C 0.09302(12) 0.2347(3) 0.34652(15)
H2 H 0.1140 0.2687 0.3700
C8 C 0.10854(12) 0.2307(3) 0.30145(15)
C9 C 0.08162(12) 0.2373(3) 0.25595(15)
H3 H 0.0526 0.2460 0.2535
C10 C 0.09506(12) 0.2318(3) 0.21389(15)
C11 C 0.13750(12) 0.2187(3) 0.21794(14)
C12 C 0.16470(12) 0.2058(3) 0.26282(15)
C13 C 0.15084(12) 0.2147(3) 0.30354(14)
C14 C -0.06459(12) 0.2325(3) 0.33549(15)
H4 H -0.0786 0.2653 0.3566
C15 C 0.09366(14) 0.1468(3) 0.36847(17)
H5 H 0.0715 0.1127 0.3474
H6 H 0.1209 0.1203 0.3692
C16 C 0.08705(16) 0.1455(4) 0.41883(18)
H7 H 0.1070 0.1847 0.4393
H8 H 0.0583 0.1649 0.4178
C17 C 0.0933(2) 0.0592(5) 0.4406(3)
H9 H 0.0730 0.0207 0.4210
H10 H 0.0891 0.0610 0.4730
H11 H 0.1218 0.0400 0.4419
C18 C -0.05849(14) 0.1444(3) 0.35647(17)
H12 H -0.0397 0.1128 0.3409
H13 H -0.0859 0.1154 0.3493
C19 C -0.03982(18) 0.1445(4) 0.4109(2)
H14 H -0.0126 0.1741 0.4176
H15 H -0.0587 0.1771 0.4259
C20 C -0.0331(3) 0.0632(6) 0.4338(4)
H18 H -0.0595 0.0432 0.4399
H19 H -0.0119 0.0679 0.4642
H20 H -0.0236 0.0236 0.4129
C22 C -0.00634(15) 0.4790(3) 0.42843(19)
C23 C -0.04790(16) 0.5097(4) 0.4213(2)
C24 C -0.07445(16) 0.4652(5) 0.4426(2)
H24 H -0.1024 0.4845 0.4382
C25 C -0.06258(19) 0.3946(5) 0.4699(2)
C26 C -0.02210(17) 0.3683(4) 0.47575(19)
H25 H -0.0134 0.3198 0.4946
C27 C 0.00687(16) 0.4079(4) 0.45604(18)
C28 C -0.0646(2) 0.5845(5) 0.3916(3)
H26 H -0.0952 0.5859 0.3858
H27 H -0.0568 0.5813 0.3611
H28 H -0.0527 0.6353 0.4086
C29 C -0.0935(2) 0.3487(5) 0.4910(2)
H29 H -0.1079 0.3885 0.5072
H30 H -0.0787 0.3073 0.5141
H31 H -0.1141 0.3204 0.4655
C30 C 0.04979(17) 0.3689(4) 0.4656(2)
H32 H 0.0504 0.3183 0.4848
H33 H 0.0707 0.4086 0.4831
H34 H 0.0562 0.3546 0.4352
C31 C 0.21721(13) 0.3173(3) 0.19580(16)
C32 C 0.25201(13) 0.2711(3) 0.18960(17)
C33 C 0.28940(14) 0.2802(3) 0.22358(19)
H35 H 0.3133 0.2508 0.2196
C34 C 0.29320(15) 0.3310(3) 0.26337(19)
C35 C 0.25860(15) 0.3762(3) 0.26771(18)
H36 H 0.2613 0.4124 0.2944
C36 C 0.22022(14) 0.3710(3) 0.23480(17)
C37 C 0.25154(16) 0.2113(4) 0.14906(19)
H37 H 0.2471 0.2425 0.1190
H38 H 0.2289 0.1708 0.1468
H39 H 0.2784 0.1818 0.1551
C38 C 0.33449(18) 0.3370(4) 0.3008(2)
H40 H 0.3403 0.3955 0.3101
H41 H 0.3570 0.3150 0.2877
H42 H 0.3329 0.3042 0.3290
C39 C 0.18527(16) 0.4254(3) 0.2439(2)
H43 H 0.1954 0.4561 0.2739
H44 H 0.1615 0.3902 0.2462
H45 H 0.1763 0.4651 0.2175
C40 C 0.23114(13) 0.0403(3) 0.31313(15)
C41 C 0.27257(14) 0.0579(3) 0.33827(17)
C42 C 0.28755(16) 0.0168(3) 0.38226(18)
H46 H 0.3156 0.0269 0.3998
C43 C 0.26354(17) -0.0373(3) 0.40111(17)
C44 C 0.22264(17) -0.0507(3) 0.37580(18)
H47 H 0.2058 -0.0876 0.3888
C45 C 0.20479(15) -0.0123(3) 0.33195(17)
C46 C 0.30062(14) 0.1199(3) 0.32259(19)
H48 H 0.3266 0.1259 0.3477
H49 H 0.2864 0.1740 0.3167
H50 H 0.3071 0.1002 0.2931
C47 C 0.2812(2) -0.0790(4) 0.4487(2)
H51 H 0.2599 -0.1153 0.4565
H52 H 0.2896 -0.0363 0.4736
H53 H 0.3057 -0.1125 0.4471
C48 C 0.15889(15) -0.0291(3) 0.3099(2)
H54 H 0.1559 -0.0617 0.2805
H55 H 0.1440 0.0241 0.3024
H56 H 0.1470 -0.0605 0.3325
C49 C 0.19520(13) 0.2831(3) 0.42871(16)
C50 C 0.17829(14) 0.3574(3) 0.44269(18)
C51 C 0.16479(14) 0.3530(4) 0.48445(19)
H57 H 0.1530 0.4018 0.4945
C52 C 0.16746(15) 0.2821(4) 0.51233(18)
C53 C 0.18659(15) 0.2129(4) 0.49880(17)
H58 H 0.1902 0.1647 0.5186
C54 C 0.20088(14) 0.2109(3) 0.45717(16)
C55 C 0.17500(18) 0.4403(3) 0.4173(2)
H59 H 0.1616 0.4811 0.4340
H60 H 0.1582 0.4338 0.3844
H61 H 0.2031 0.4600 0.4170
C56 C 0.14999(18) 0.2791(5) 0.5554(2)
H62 H 0.1303 0.2324 0.5524
H63 H 0.1354 0.3316 0.5580
H64 H 0.1729 0.2715 0.5841
C57 C 0.22060(16) 0.1313(3) 0.44595(19)
H65 H 0.2033 0.1072 0.4164
H66 H 0.2227 0.0917 0.4723
H67 H 0.2487 0.1433 0.4418
O1 O 0.08626(9) 0.4072(2) 0.33863(13)
H68 H 0.0809 0.4577 0.3319
O2 O 0.01323(9) 0.4959(2) 0.34423(12)
O3 O -0.05881(9) 0.41376(19) 0.33126(12)
H69 H -0.0794 0.3832 0.3316
O4 O 0.15286(8) 0.21222(18) 0.17704(10)
O5 O 0.20630(8) 0.18183(18) 0.26582(10)
O6 O 0.17930(8) 0.20082(18) 0.34797(10)
O7 O 0.01909(13) 0.6176(2) 0.39356(17)
O8 O 0.06985(10) 0.5053(3) 0.41864(14)
O9 O 0.17178(10) 0.2738(2) 0.11016(11)
O10 O 0.13878(9) 0.3621(2) 0.15936(12)
O11 O 0.17433(10) 0.0496(2) 0.23092(11)
O12 O 0.24662(10) 0.0849(2) 0.23198(11)
O13 O 0.19720(11) 0.3499(2) 0.34510(12)
O14 O 0.25117(9) 0.2468(3) 0.38139(12)
S1 S 0.02767(4) 0.53069(9) 0.39911(5)
S2 S 0.16816(3) 0.29800(8) 0.15612(4)
S3 S 0.21354(3) 0.08356(7) 0.25536(4)
S4 S 0.20948(3) 0.27751(8) 0.37368(4)
C1B C 0.02417(12) 0.2786(3) 0.16409(14)
C2B C -0.01366(12) 0.2376(3) 0.16166(14)
H1B H -0.0138 0.1783 0.1611
C3B C -0.05124(12) 0.2790(3) 0.16005(14)
C4B C -0.05044(12) 0.3662(3) 0.16140(15)
C5B C -0.01339(13) 0.4081(3) 0.16072(16)
C6B C 0.02417(12) 0.3656(3) 0.16462(15)
C7B C -0.09302(12) 0.2347(3) 0.15348(15)
H2B H -0.1140 0.2687 0.1300
C8B C -0.10854(12) 0.2307(3) 0.19855(15)
C9B C -0.08162(12) 0.2373(3) 0.24405(15)
H3B H -0.0526 0.2460 0.2465
C10B C -0.09506(12) 0.2318(3) 0.28611(15)
C11B C -0.13750(12) 0.2187(3) 0.28206(14)
C12B C -0.16470(12) 0.2058(3) 0.23718(15)
C13B C -0.15084(12) 0.2147(3) 0.19646(14)
C14B C 0.06459(12) 0.2325(3) 0.16451(15)
H4B H 0.0786 0.2653 0.1434
C15B C -0.09366(14) 0.1468(3) 0.13153(17)
H5B H -0.0715 0.1127 0.1526
H6B H -0.1209 0.1203 0.1308
C16B C -0.08705(16) 0.1455(4) 0.08117(18)
H7B H -0.1070 0.1847 0.0607
H8B H -0.0583 0.1649 0.0822
C17B C -0.0933(2) 0.0592(5) 0.0594(3)
H9B H -0.0730 0.0207 0.0790
H10B H -0.0891 0.0610 0.0270
H11B H -0.1218 0.0400 0.0581
C18B C 0.05849(14) 0.1444(3) 0.14353(17)
H12B H 0.0397 0.1128 0.1591
H13B H 0.0859 0.1154 0.1507
C19B C 0.03982(18) 0.1445(4) 0.0891(2)
H14B H 0.0126 0.1741 0.0824
H15B H 0.0587 0.1771 0.0741
C20B C 0.0331(3) 0.0632(6) 0.0662(4)
H18B H 0.0595 0.0432 0.0601
H19B H 0.0119 0.0679 0.0358
H20B H 0.0236 0.0236 0.0871
C22B C 0.00634(15) 0.4790(3) 0.07157(19)
C23B C 0.04790(16) 0.5097(4) 0.0787(2)
C24B C 0.07445(16) 0.4652(5) 0.0574(2)
H24B H 0.1024 0.4845 0.0618
C25B C 0.06258(19) 0.3946(5) 0.0301(2)
C26B C 0.02210(17) 0.3683(4) 0.02425(19)
H25B H 0.0134 0.3198 0.0054
C27B C -0.00687(16) 0.4079(4) 0.04396(18)
C28B C 0.0646(2) 0.5845(5) 0.1084(3)
H26B H 0.0952 0.5859 0.1142
H27B H 0.0568 0.5813 0.1389
H28B H 0.0527 0.6353 0.0914
C29B C 0.0935(2) 0.3487(5) 0.0090(2)
H29B H 0.1079 0.3885 -0.0072
H30B H 0.0787 0.3073 -0.0141
H31B H 0.1141 0.3204 0.0345
C30B C -0.04979(17) 0.3689(4) 0.0344(2)
H32B H -0.0504 0.3183 0.0152
H33B H -0.0707 0.4086 0.0169
H34B H -0.0562 0.3546 0.0648
C31B C -0.21721(13) 0.3173(3) 0.30420(16)
C32B C -0.25201(13) 0.2711(3) 0.31040(17)
C33B C -0.28940(14) 0.2802(3) 0.27642(19)
H35B H -0.3133 0.2508 0.2804
C34B C -0.29320(15) 0.3310(3) 0.23663(19)
C35B C -0.25860(15) 0.3762(3) 0.23229(18)
H36B H -0.2613 0.4124 0.2056
C36B C -0.22022(14) 0.3710(3) 0.26520(17)
C37B C -0.25154(16) 0.2113(4) 0.35094(19)
H37B H -0.2471 0.2425 0.3810
H38B H -0.2289 0.1708 0.3532
H39B H -0.2784 0.1818 0.3449
C38B C -0.33449(18) 0.3370(4) 0.1992(2)
H40B H -0.3403 0.3955 0.1899
H41B H -0.3570 0.3150 0.2123
H42B H -0.3329 0.3042 0.1710
C39B C -0.18527(16) 0.4254(3) 0.2561(2)
H43B H -0.1954 0.4561 0.2261
H44B H -0.1615 0.3902 0.2538
H45B H -0.1763 0.4651 0.2825
C40B C -0.23114(13) 0.0403(3) 0.18687(15)
C41B C -0.27257(14) 0.0579(3) 0.16173(17)
C42B C -0.28755(16) 0.0168(3) 0.11774(18)
H46B H -0.3156 0.0269 0.1002
C43B C -0.26354(17) -0.0373(3) 0.09889(17)
C44B C -0.22264(17) -0.0507(3) 0.12420(18)
H47B H -0.2058 -0.0876 0.1112
C45B C -0.20479(15) -0.0123(3) 0.16805(17)
C46B C -0.30062(14) 0.1199(3) 0.17741(19)
H48B H -0.3266 0.1259 0.1523
H49B H -0.2864 0.1740 0.1833
H50B H -0.3071 0.1002 0.2069
C47B C -0.2812(2) -0.0790(4) 0.0513(2)
H51B H -0.2599 -0.1153 0.0435
H52B H -0.2896 -0.0363 0.0264
H53B H -0.3057 -0.1125 0.0529
C48B C -0.15889(15) -0.0291(3) 0.1901(2)
H54B H -0.1559 -0.0617 0.2195
H55B H -0.1440 0.0241 0.1976
H56B H -0.1470 -0.0605 0.1675
C49B C -0.19520(13) 0.2831(3) 0.07129(16)
C50B C -0.17829(14) 0.3574(3) 0.05731(18)
C51B C -0.16479(14) 0.3530(4) 0.01555(19)
H57B H -0.1530 0.4018 0.0055
C52B C -0.16746(15) 0.2821(4) -0.01233(18)
C53B C -0.18659(15) 0.2129(4) 0.00120(17)
H58B H -0.1902 0.1647 -0.0186
C54B C -0.20088(14) 0.2109(3) 0.04283(16)
C55B C -0.17500(18) 0.4403(3) 0.0827(2)
H59B H -0.1616 0.4811 0.0660
H60B H -0.1582 0.4338 0.1156
H61B H -0.2031 0.4600 0.0830
C56B C -0.14999(18) 0.2791(5) -0.0554(2)
H62B H -0.1303 0.2324 -0.0524
H63B H -0.1354 0.3316 -0.0580
H64B H -0.1729 0.2715 -0.0841
C57B C -0.22060(16) 0.1313(3) 0.05405(19)
H65B H -0.2033 0.1072 0.0836
H66B H -0.2227 0.0917 0.0277
H67B H -0.2487 0.1433 0.0582
O1B O -0.08626(9) 0.4072(2) 0.16137(13)
H68B H -0.0809 0.4577 0.1681
O2B O -0.01323(9) 0.4959(2) 0.15577(12)
O3B O 0.05881(9) 0.41376(19) 0.16874(12)
H69B H 0.0794 0.3832 0.1684
O4B O -0.15286(8) 0.21222(18) 0.32296(10)
O5B O -0.20630(8) 0.18183(18) 0.23418(10)
O6B O -0.17930(8) 0.20082(18) 0.15203(10)
O7B O -0.01909(13) 0.6176(2) 0.10644(17)
O8B O -0.06985(10) 0.5053(3) 0.08136(14)
O9B O -0.17178(10) 0.2738(2) 0.38984(11)
O10B O -0.13878(9) 0.3621(2) 0.34064(12)
O11B O -0.17433(10) 0.0496(2) 0.26908(11)
O12B O -0.24662(10) 0.0849(2) 0.26802(11)
O13B O -0.19720(11) 0.3499(2) 0.15490(12)
O14B O -0.25117(9) 0.2468(3) 0.11861(12)
S1B S -0.02767(4) 0.53069(9) 0.10089(5)
S2B S -0.16816(3) 0.29800(8) 0.34388(4)
S3B S -0.21354(3) 0.08356(7) 0.24464(4)
S4B S -0.20948(3) 0.27751(8) 0.12632(4)
O15 O 0.21486(19) -0.0186(5) 0.0566(2)
C58 C 0.1600(3) 0.0691(6) 0.0547(3)
H70 H 0.1337 0.0567 0.0305
H71 H 0.1598 0.1284 0.0642
C59 C 0.1966(4) 0.0512(8) 0.0357(4)
H72 H 0.1876 0.0434 0.0006
H73 H 0.2166 0.0984 0.0426
C60 C 0.2068(3) -0.0246(5) 0.1021(3)
H74 H 0.2282 0.0063 0.1261
H75 H 0.2071 -0.0837 0.1122
C61 C 0.1650(3) 0.0123(6) 0.0977(3)
H76 H 0.1639 0.0444 0.1266
H77 H 0.1430 -0.0313 0.0920
O16 O 0.08933(13) 0.5692(3) 0.31234(18)
C62 C 0.1215(3) 0.5651(6) 0.2897(4)
H78 H 0.1296 0.5062 0.2867
H79 H 0.1463 0.5957 0.3085
C63 C 0.0548(3) 0.6133(8) 0.2837(4)
H80 H 0.0446 0.6561 0.3027
H81 H 0.0315 0.5746 0.2697
C64 C 0.1075(3) 0.6011(9) 0.2443(4)
H82 H 0.0994 0.5570 0.2196
H83 H 0.1300 0.6353 0.2366
C65 C 0.0715(4) 0.6531(8) 0.2454(4)
H84 H 0.0504 0.6521 0.2142
H85 H 0.0800 0.7116 0.2536
O17 O 0.0035(6) 0.8290(9) 0.4300(8)
C66 C -0.0456(7) 0.8447(16) 0.3641(9)
H86 H -0.0526 0.8987 0.3473
H87 H -0.0551 0.8000 0.3403
C67 C -0.0023(8) 0.8396(14) 0.3798(9)
H88 H 0.0113 0.8913 0.3725
H89 H 0.0087 0.7913 0.3654
C68 C -0.0356(7) 0.8284(12) 0.4388(7)
H90 H -0.0384 0.8743 0.4607
H91 H -0.0408 0.7746 0.4533
C69 C -0.0648(5) 0.8396(12) 0.3922(8)
H92 H -0.0842 0.7915 0.3849
H93 H -0.0815 0.8910 0.3922
C70 C 0.1290(5) 0.8151(9) 0.4180(8)
H94 H 0.1191 0.8614 0.3952
H95 H 0.1117 0.8131 0.4414
C71 C 0.1278(8) 0.7360(16) 0.3931(6)
H96 H 0.1003 0.7085 0.3895
H97 H 0.1327 0.7446 0.3610
C72 C 0.1812(5) 0.7479(13) 0.4540(7)
H98 H 0.1762 0.7382 0.4859
H99 H 0.2117 0.7443 0.4570
O18 O 0.1677(5) 0.8233(8) 0.4387(4)
C73 C 0.1606(9) 0.6865(9) 0.4223(10)
H100 H 0.1495 0.6414 0.4391
H101 H 0.1791 0.6621 0.4035
H16? H -0.0192 0.0985 0.4186
H17? H -0.0242 0.1974 0.4194
C21? C -0.0649(8) 0.1369(19) 0.4374(8)
H21? H -0.0491 0.1373 0.4710
H22? H -0.0802 0.0841 0.4302
H23? H -0.0848 0.1835 0.4316
O19? O 0.0034(7) 1.0133(15) 0.2881(11)
C74? C 0.0000 0.8848(18) 0.2500
H102? H -0.0074 0.8493 0.2747
H103? H 0.0074 0.8493 0.2253
C75? C 0.0342(6) 0.948(2) 0.2713(9)
H104? H 0.0324 0.9629 0.3040
H105? H 0.0620 0.9221 0.2738
C76? C -0.0311(15) 1.012(2) 0.2533(9)
H106? H -0.0556 1.0157 0.2672
H107? H -0.0314 1.0610 0.2325
loop_
_geom_bond_atom_site_label_1
_geom_bond_atom_site_label_2
_geom_bond_site_symmetry_1
_geom_bond_site_symmetry_2
C1 C2 1_555 1_555
C2 H1 1_555 1_555
C3 C2 1_555 1_555
C4 C3 1_555 1_555
C5 C4 1_555 1_555
C6 C1 1_555 1_555
C7 C3 1_555 1_555
H2 C7 1_555 1_555
C8 C7 1_555 1_555
C9 C8 1_555 1_555
H3 C9 1_555 1_555
C10 C9 1_555 1_555
C11 C10 1_555 1_555
C12 C11 1_555 1_555
C13 C8 1_555 1_555
C14 C1 1_555 1_555
H4 C14 1_555 1_555
C15 C7 1_555 1_555
H5 C15 1_555 1_555
H6 C15 1_555 1_555
C16 C15 1_555 1_555
H7 C16 1_555 1_555
H8 C16 1_555 1_555
C17 C16 1_555 1_555
H9 C17 1_555 1_555
H10 C17 1_555 1_555
H11 C17 1_555 1_555
C18 C14 1_555 1_555
H12 C18 1_555 1_555
H13 C18 1_555 1_555
C19 C18 1_555 1_555
H14 C19 1_555 1_555
H15 C19 1_555 1_555
C20 C19 1_555 1_555
H18 C20 1_555 1_555
H19 C20 1_555 1_555
H20 C20 1_555 1_555
C22 C23 1_555 1_555
C23 C24 1_555 1_555
C24 H24 1_555 1_555
C25 C24 1_555 1_555
C26 C25 1_555 1_555
H25 C26 1_555 1_555
C27 C22 1_555 1_555
C28 C23 1_555 1_555
H26 C28 1_555 1_555
H27 C28 1_555 1_555
H28 C28 1_555 1_555
C29 C25 1_555 1_555
H29 C29 1_555 1_555
H30 C29 1_555 1_555
H31 C29 1_555 1_555
C30 C27 1_555 1_555
H32 C30 1_555 1_555
H33 C30 1_555 1_555
H34 C30 1_555 1_555
C31 C32 1_555 1_555
C32 C33 1_555 1_555
C33 H35 1_555 1_555
C34 C33 1_555 1_555
C35 C34 1_555 1_555
H36 C35 1_555 1_555
C36 C31 1_555 1_555
C37 C32 1_555 1_555
H37 C37 1_555 1_555
H38 C37 1_555 1_555
H39 C37 1_555 1_555
C38 C34 1_555 1_555
H40 C38 1_555 1_555
H41 C38 1_555 1_555
H42 C38 1_555 1_555
C39 C36 1_555 1_555
H43 C39 1_555 1_555
H44 C39 1_555 1_555
H45 C39 1_555 1_555
C40 C41 1_555 1_555
C41 C42 1_555 1_555
C42 H46 1_555 1_555
C43 C42 1_555 1_555
C44 C43 1_555 1_555
H47 C44 1_555 1_555
C45 C40 1_555 1_555
C46 C41 1_555 1_555
H48 C46 1_555 1_555
H49 C46 1_555 1_555
H50 C46 1_555 1_555
C47 C43 1_555 1_555
H51 C47 1_555 1_555
H52 C47 1_555 1_555
H53 C47 1_555 1_555
C48 C45 1_555 1_555
H54 C48 1_555 1_555
H55 C48 1_555 1_555
H56 C48 1_555 1_555
C49 C50 1_555 1_555
C50 C51 1_555 1_555
C51 H57 1_555 1_555
C52 C51 1_555 1_555
C53 C52 1_555 1_555
H58 C53 1_555 1_555
C54 C49 1_555 1_555
C55 C50 1_555 1_555
H59 C55 1_555 1_555
H60 C55 1_555 1_555
H61 C55 1_555 1_555
C56 C52 1_555 1_555
H62 C56 1_555 1_555
H63 C56 1_555 1_555
H64 C56 1_555 1_555
C57 C54 1_555 1_555
H65 C57 1_555 1_555
H66 C57 1_555 1_555
H67 C57 1_555 1_555
O1 C4 1_555 1_555
H68 O1 1_555 1_555
O2 C5 1_555 1_555
O3 C6 1_555 1_555
H69 O3 1_555 1_555
O4 C11 1_555 1_555
O5 C12 1_555 1_555
O6 C13 1_555 1_555
O7 S1 1_555 1_555
O8 S1 1_555 1_555
O9 S2 1_555 1_555
O10 S2 1_555 1_555
O11 S3 1_555 1_555
O12 S3 1_555 1_555
O13 S4 1_555 1_555
O14 S4 1_555 1_555
S1 C22 1_555 1_555
S2 C31 1_555 1_555
S3 C40 1_555 1_555
S4 C49 1_555 1_555
O15 C59 1_555 1_555
C58 H70 1_555 1_555
H71 C58 1_555 1_555
C59 C58 1_555 1_555
H72 C59 1_555 1_555
H73 C59 1_555 1_555
C60 O15 1_555 1_555
H74 C60 1_555 1_555
H75 C60 1_555 1_555
C61 C58 1_555 1_555
H76 C61 1_555 1_555
H77 C61 1_555 1_555
O16 C62 1_555 1_555
C62 H78 1_555 1_555
H79 C62 1_555 1_555
C63 O16 1_555 1_555
H80 C63 1_555 1_555
H81 C63 1_555 1_555
C64 C62 1_555 1_555
H82 C64 1_555 1_555
H83 C64 1_555 1_555
C65 C63 1_555 1_555
H84 C65 1_555 1_555
H85 C65 1_555 1_555
O17 C67 1_555 1_555
C66 H86 1_555 1_555
H87 C66 1_555 1_555
C67 C66 1_555 1_555
H88 C67 1_555 1_555
H89 C67 1_555 1_555
C68 O17 1_555 1_555
H90 C68 1_555 1_555
H91 C68 1_555 1_555
C69 C66 1_555 1_555
H92 C69 1_555 1_555
H93 C69 1_555 1_555
C70 H94 1_555 1_555
H95 C70 1_555 1_555
C71 C70 1_555 1_555
H96 C71 1_555 1_555
H97 C71 1_555 1_555
C72 H98 1_555 1_555
H99 C72 1_555 1_555
O18 C70 1_555 1_555
C73 C71 1_555 1_555
H100 C73 1_555 1_555
H101 C73 1_555 1_555
C1B C2B 1_555 1_555
C2B H1B 1_555 1_555
C3B C2B 1_555 1_555
C4B C3B 1_555 1_555
C5B C4B 1_555 1_555
C6B C1B 1_555 1_555
C7B C3B 1_555 1_555
H2B C7B 1_555 1_555
C8B C7B 1_555 1_555
C9B C8B 1_555 1_555
H3B C9B 1_555 1_555
C10B C14 1_555 1_555
C11B C10B 1_555 1_555
C12B C11B 1_555 1_555
C13B C8B 1_555 1_555
C14B C10 1_555 1_555
H4B C14B 1_555 1_555
C15B C7B 1_555 1_555
H5B C15B 1_555 1_555
H6B C15B 1_555 1_555
C16B C15B 1_555 1_555
H7B C16B 1_555 1_555
H8B C16B 1_555 1_555
C17B C16B 1_555 1_555
H9B C17B 1_555 1_555
H10B C17B 1_555 1_555
H11B C17B 1_555 1_555
C18B C14B 1_555 1_555
H12B C18B 1_555 1_555
H13B C18B 1_555 1_555
C19B C18B 1_555 1_555
H14B C19B 1_555 1_555
H15B C19B 1_555 1_555
C20B C19B 1_555 1_555
H18B C20B 1_555 1_555
H19B C20B 1_555 1_555
H20B C20B 1_555 1_555
C22B C23B 1_555 1_555
C23B C24B 1_555 1_555
C24B H24B 1_555 1_555
C25B C24B 1_555 1_555
C26B C25B 1_555 1_555
H25B C26B 1_555 1_555
C27B C22B 1_555 1_555
C28B C23B 1_555 1_555
H26B C28B 1_555 1_555
H27B C28B 1_555 1_555
H28B C28B 1_555 1_555
C29B C25B 1_555 1_555
H29B C29B 1_555 1_555
H30B C29B 1_555 1_555
H31B C29B 1_555 1_555
C30B C27B 1_555 1_555
H32B C30B 1_555 1_555
H33B C30B 1_555 1_555
H34B C30B 1_555 1_555
C31B C32B 1_555 1_555
C32B C33B 1_555 1_555
C33B H35B 1_555 1_555
C34B C33B 1_555 1_555
C35B C34B 1_555 1_555
H36B C35B 1_555 1_555
C36B C31B 1_555 1_555
C37B C32B 1_555 1_555
H37B C37B 1_555 1_555
H38B C37B 1_555 1_555
H39B C37B 1_555 1_555
C38B C34B 1_555 1_555
H40B C38B 1_555 1_555
H41B C38B 1_555 1_555
H42B C38B 1_555 1_555
C39B C36B 1_555 1_555
H43B C39B 1_555 1_555
H44B C39B 1_555 1_555
H45B C39B 1_555 1_555
C40B C41B 1_555 1_555
C41B C42B 1_555 1_555
C42B H46B 1_555 1_555
C43B C42B 1_555 1_555
C44B C43B 1_555 1_555
H47B C44B 1_555 1_555
C45B C40B 1_555 1_555
C46B C41B 1_555 1_555
H48B C46B 1_555 1_555
H49B C46B 1_555 1_555
H50B C46B 1_555 1_555
C47B C43B 1_555 1_555
H51B C47B 1_555 1_555
H52B C47B 1_555 1_555
H53B C47B 1_555 1_555
C48B C45B 1_555 1_555
H54B C48B 1_555 1_555
H55B C48B 1_555 1_555
H56B C48B 1_555 1_555
C49B C50B 1_555 1_555
C50B C51B 1_555 1_555
C51B H57B 1_555 1_555
C52B C51B 1_555 1_555
C53B C52B 1_555 1_555
H58B C53B 1_555 1_555
C54B C49B 1_555 1_555
C55B C50B 1_555 1_555
H59B C55B 1_555 1_555
H60B C55B 1_555 1_555
H61B C55B 1_555 1_555
C56B C52B 1_555 1_555
H62B C56B 1_555 1_555
H63B C56B 1_555 1_555
H64B C56B 1_555 1_555
C57B C54B 1_555 1_555
H65B C57B 1_555 1_555
H66B C57B 1_555 1_555
H67B C57B 1_555 1_555
O1B C4B 1_555 1_555
H68B O1B 1_555 1_555
O2B C5B 1_555 1_555
O3B C6B 1_555 1_555
H69B O3B 1_555 1_555
O4B C11B 1_555 1_555
O5B C12B 1_555 1_555
O6B C13B 1_555 1_555
O7B S1B 1_555 1_555
O8B S1B 1_555 1_555
O9B S2B 1_555 1_555
O10B S2B 1_555 1_555
O11B S3B 1_555 1_555
O12B S3B 1_555 1_555
O13B S4B 1_555 1_555
O14B S4B 1_555 1_555
S1B C22B 1_555 1_555
S2B C31B 1_555 1_555
S3B C40B 1_555 1_555
S4B C49B 1_555 1_555
C5 C6 1_555 1_555
C12 C13 1_555 1_555
C26 C27 1_555 1_555
C35 C36 1_555 1_555
C44 C45 1_555 1_555
C53 C54 1_555 1_555
O2 S1 1_555 1_555
O4 S2 1_555 1_555
O5 S3 1_555 1_555
O6 S4 1_555 1_555
C60 C61 1_555 1_555
C64 C65 1_555 1_555
C68 C69 1_555 1_555
C72 O18 1_555 1_555
C72 C73 1_555 1_555
C1B C14B 1_555 1_555
C5B C6B 1_555 1_555
C9B C10B 1_555 1_555
C12B C13B 1_555 1_555
C26B C27B 1_555 1_555
C35B C36B 1_555 1_555
C44B C45B 1_555 1_555
C53B C54B 1_555 1_555
O2B S1B 1_555 1_555
O4B S2B 1_555 1_555
O5B S3B 1_555 1_555
O6B S4B 1_555 1_555

#END
