
#######################################################################
#
#                 Cambridge Crystallographic Data Centre
#                                CCDC 
#
#######################################################################
#
# If this CIF has been generated from an entry in the Cambridge 
# Structural Database, then it will include bibliographic, chemical, 
# crystal, experimental, refinement or atomic coordinate data resulting 
# from the CCDC's data processing and validation procedures.
#
#######################################################################

data_DATJAK
_chemical_formula_moiety         'C21 H17 Cl1 N2 O2'
_chemical_name_systematic        
3-Amino-1-(3-chlorophenyl)-9-methoxy-5,6-dihydro-1H-benzo(f)chromene-2-carbonitrile
_symmetry_cell_setting           triclinic
_symmetry_space_group_name_H-M   'P -1'
_symmetry_Int_Tables_number      2
_space_group_name_Hall           '-P 1'
loop_
_symmetry_equiv_pos_site_id
_symmetry_equiv_pos_as_xyz
1 x,y,z
2 -x,-y,-z
_cell_length_a                   7.105(3)
_cell_length_b                   9.762(3)
_cell_length_c                   13.290(5)
_cell_angle_alpha                100.018(5)
_cell_angle_beta                 99.912(5)
_cell_angle_gamma                100.614(4)
_cell_volume                     872.119
_exptl_crystal_colour            colorless
_exptl_crystal_description       prism
_cell_formula_units_Z            2
_exptl_crystal_recrystallization_method ethanol
loop_
_atom_site_label
_atom_site_type_symbol
_atom_site_fract_x
_atom_site_fract_y
_atom_site_fract_z
Cl1 Cl 0.07477(10) -0.18410(7) 0.53795(6)
N1 N 0.1927(4) 0.5041(3) 0.6213(2)
N2 N 0.7023(3) 0.4983(3) 0.59494(19)
O1 O 0.1512(2) 0.39190(18) 0.75051(12)
O2 O 0.8589(2) 0.0967(2) 1.05190(14)
C1 C 0.2724(3) 0.4306(2) 0.68615(18)
C2 C 0.4505(3) 0.3965(2) 0.69411(17)
C3 C 0.5136(3) 0.2982(2) 0.76314(17)
C4 C 0.3976(3) 0.3004(2) 0.84893(17)
C5 C 0.4698(3) 0.2580(2) 0.94726(17)
C6 C 0.6254(3) 0.1906(3) 0.95822(19)
C7 C 0.7011(3) 0.1593(3) 1.05215(19)
C8 C 0.6197(4) 0.1929(3) 1.1378(2)
C9 C 0.4606(4) 0.2585(3) 1.1266(2)
C10 C 0.3862(3) 0.2927(2) 1.03465(18)
C11 C 0.2262(4) 0.3757(3) 1.0260(2)
C12 C 0.1049(4) 0.3466(4) 0.9173(2)
C13 C 0.2309(3) 0.3451(2) 0.83812(17)
C14 C 0.5846(4) 0.4539(3) 0.63718(19)
C15 C 0.4972(3) 0.1475(2) 0.70059(17)
C16 C 0.3160(4) 0.0607(2) 0.65362(18)
C17 C 0.3038(4) -0.0755(3) 0.59711(18)
C18 C 0.4691(4) -0.1266(3) 0.5866(2)
C19 C 0.6489(4) -0.0393(3) 0.6319(2)
C20 C 0.6638(4) 0.0969(3) 0.6879(2)
C21 C 0.9541(5) 0.0724(4) 1.1477(3)
H1 H 0.079(4) 0.519(3) 0.623(2)
H2 H 0.234(4) 0.507(3) 0.565(2)
H3 H 0.654(3) 0.334(2) 0.7983(16)
H4 H 0.685(3) 0.162(2) 0.8992(18)
H5 H 0.669(3) 0.176(2) 1.2030(18)
H6 H 0.409(4) 0.280(3) 1.184(2)
H7 H 0.291(4) 0.494(3) 1.044(2)
H8 H 0.142(4) 0.353(3) 1.075(2)
H9 H 0.027(4) 0.419(3) 0.908(2)
H10 H 0.010(4) 0.252(3) 0.899(2)
H11 H 0.201(3) 0.096(2) 0.6588(17)
H12 H 0.450(3) -0.222(3) 0.5489(18)
H13 H 0.768(4) -0.086(3) 0.621(2)
H14 H 0.793(4) 0.160(3) 0.7199(19)
H15 H 0.865(4) 0.002(3) 1.167(2)
H16 H 1.002(4) 0.166(3) 1.202(2)
H17 H 1.074(4) 0.041(3) 1.135(2)
loop_
_geom_bond_atom_site_label_1
_geom_bond_atom_site_label_2
_geom_bond_site_symmetry_1
_geom_bond_site_symmetry_2
Cl1 C17 1_555 1_555
N1 C1 1_555 1_555
N2 C14 1_555 1_555
O1 C1 1_555 1_555
O2 C7 1_555 1_555
C1 C2 1_555 1_555
C2 C3 1_555 1_555
C3 C4 1_555 1_555
C4 C5 1_555 1_555
C5 C6 1_555 1_555
C6 C7 1_555 1_555
C7 C8 1_555 1_555
C8 C9 1_555 1_555
C9 C10 1_555 1_555
C10 C5 1_555 1_555
C11 C10 1_555 1_555
C12 C11 1_555 1_555
C13 O1 1_555 1_555
C14 C2 1_555 1_555
C15 C3 1_555 1_555
C16 C15 1_555 1_555
C17 C16 1_555 1_555
C18 C17 1_555 1_555
C19 C18 1_555 1_555
C20 C15 1_555 1_555
C21 O2 1_555 1_555
H1 N1 1_555 1_555
H2 N1 1_555 1_555
H3 C3 1_555 1_555
H4 C6 1_555 1_555
H5 C8 1_555 1_555
H6 C9 1_555 1_555
H7 C11 1_555 1_555
H8 C11 1_555 1_555
H9 C12 1_555 1_555
H10 C12 1_555 1_555
H11 C16 1_555 1_555
H12 C18 1_555 1_555
H13 C19 1_555 1_555
H14 C20 1_555 1_555
H15 C21 1_555 1_555
H16 C21 1_555 1_555
H17 C21 1_555 1_555
C4 C13 1_555 1_555
C12 C13 1_555 1_555
C19 C20 1_555 1_555

#END
