
#######################################################################
#
#                 Cambridge Crystallographic Data Centre
#                                CCDC 
#
#######################################################################
#
# If this CIF has been generated from an entry in the Cambridge 
# Structural Database, then it will include bibliographic, chemical, 
# crystal, experimental, refinement or atomic coordinate data resulting 
# from the CCDC's data processing and validation procedures.
#
#######################################################################

data_DATJIU
_chemical_formula_moiety         'C18 H16 Cl1 N3 O3'
_chemical_name_systematic        
2-(4-(3-chloro-6-oxopyridazin-1(6H)-yl)hex-5-en-1-yl)-1H-isoindole-1,3(2H)-dione
_symmetry_cell_setting           orthorhombic
_symmetry_space_group_name_H-M   'P 21 21 21'
_symmetry_Int_Tables_number      19
_space_group_name_Hall           'P 2ac 2ab'
loop_
_symmetry_equiv_pos_site_id
_symmetry_equiv_pos_as_xyz
1 x,y,z
2 1/2-x,-y,1/2+z
3 -x,1/2+y,1/2-z
4 1/2+x,1/2-y,-z
_cell_length_a                   4.8769(5)
_cell_length_b                   9.1534(9)
_cell_length_c                   37.533(4)
_cell_angle_alpha                90
_cell_angle_beta                 90
_cell_angle_gamma                90
_cell_volume                     1675.48
_exptl_crystal_colour            colorless
_exptl_crystal_description       block
_cell_formula_units_Z            4
loop_
_atom_site_label
_atom_site_type_symbol
_atom_site_fract_x
_atom_site_fract_y
_atom_site_fract_z
Cl1 Cl 0.12710(16) 1.16895(9) 0.52411(2)
O1 O 0.1003(5) 0.4548(2) 0.64300(6)
O2 O 0.7475(5) 0.6727(2) 0.71343(5)
O3 O 0.9968(5) 1.0622(3) 0.62220(6)
N1 N 0.4016(6) 0.5965(3) 0.67555(6)
N2 N 0.6909(5) 0.9858(3) 0.57997(6)
N3 N 0.4832(5) 1.0083(3) 0.55647(6)
C1 C 0.2864(7) 0.4645(3) 0.66444(8)
C2 C 0.4353(6) 0.3480(3) 0.68422(7)
C3 C 0.4015(7) 0.1981(3) 0.68322(8)
H1 H 0.267728 0.153455 0.668398
C4 C 0.5747(7) 0.1153(3) 0.70520(8)
H2 H 0.559729 0.011793 0.705151
C5 C 0.7677(7) 0.1821(3) 0.72705(8)
H3 H 0.880837 0.123209 0.741825
C6 C 0.7990(6) 0.3335(4) 0.72777(8)
H4 H 0.931277 0.378940 0.742680
C7 C 0.6298(6) 0.4144(3) 0.70593(7)
C8 C 0.6125(6) 0.5757(3) 0.70024(7)
C9 C 0.3038(7) 0.7397(3) 0.66396(8)
H5 H 0.262544 0.799686 0.685254
H6 H 0.130786 0.726887 0.650519
C10 C 0.5081(6) 0.8216(3) 0.64067(7)
H7 H 0.680573 0.834791 0.654207
H8 H 0.433629 0.919894 0.635423
C11 C 0.5738(7) 0.7450(3) 0.60546(7)
H9 H 0.402959 0.733176 0.591510
H10 H 0.648210 0.646508 0.610444
C12 C 0.7829(7) 0.8320(3) 0.58343(8)
H11 H 0.956290 0.834137 0.597633
C13 C 0.8563(9) 0.7716(4) 0.54745(9)
H12 H 0.936959 0.838209 0.531099
C14 C 0.8229(12) 0.6417(5) 0.53641(11)
H13 H 0.743262 0.570424 0.551610
H14 H 0.877630 0.615843 0.512953
C15 C 0.8082(6) 1.0921(3) 0.60162(7)
C16 C 0.6890(7) 1.2359(3) 0.59795(8)
H15 H 0.757554 1.314250 0.611972
C17 C 0.4836(7) 1.2603(3) 0.57511(8)
H16 H 0.403038 1.354368 0.572848
C18 C 0.3908(7) 1.1408(3) 0.55443(7)
loop_
_geom_bond_atom_site_label_1
_geom_bond_atom_site_label_2
_geom_bond_site_symmetry_1
_geom_bond_site_symmetry_2
Cl1 C18 1_555 1_555
O1 C1 1_555 1_555
O2 C8 1_555 1_555
O3 C15 1_555 1_555
N1 C1 1_555 1_555
N2 N3 1_555 1_555
N3 C18 1_555 1_555
C1 C2 1_555 1_555
C2 C3 1_555 1_555
C3 H1 1_555 1_555
C4 C3 1_555 1_555
H2 C4 1_555 1_555
C5 C4 1_555 1_555
H3 C5 1_555 1_555
C6 C5 1_555 1_555
H4 C6 1_555 1_555
C7 C2 1_555 1_555
C8 N1 1_555 1_555
C9 N1 1_555 1_555
H5 C9 1_555 1_555
H6 C9 1_555 1_555
C10 C9 1_555 1_555
H7 C10 1_555 1_555
H8 C10 1_555 1_555
C11 C10 1_555 1_555
H9 C11 1_555 1_555
H10 C11 1_555 1_555
C12 N2 1_555 1_555
H11 C12 1_555 1_555
C13 C12 1_555 1_555
H12 C13 1_555 1_555
C14 C13 1_555 1_555
H13 C14 1_555 1_555
H14 C14 1_555 1_555
C15 N2 1_555 1_555
C16 C15 1_555 1_555
H15 C16 1_555 1_555
C17 C16 1_555 1_555
H16 C17 1_555 1_555
C18 C17 1_555 1_555
C6 C7 1_555 1_555
C7 C8 1_555 1_555
C11 C12 1_555 1_555

#END
