
#######################################################################
#
#                 Cambridge Crystallographic Data Centre
#                                CCDC 
#
#######################################################################
#
# If this CIF has been generated from an entry in the Cambridge 
# Structural Database, then it will include bibliographic, chemical, 
# crystal, experimental, refinement or atomic coordinate data resulting 
# from the CCDC's data processing and validation procedures.
#
#######################################################################

data_DATKAL
_chemical_formula_moiety         'C10 H6 F2 N4 O2 S1'
_chemical_name_systematic        
1-(2,6-Difluorobenzoyl)-3-(1,3,4-thiadiazol-2-yl)urea
_symmetry_cell_setting           monoclinic
_symmetry_space_group_name_H-M   'P 21/c'
_symmetry_Int_Tables_number      14
_space_group_name_Hall           '-P 2ybc'
loop_
_symmetry_equiv_pos_site_id
_symmetry_equiv_pos_as_xyz
1 x,y,z
2 -x,1/2+y,1/2-z
3 -x,-y,-z
4 x,1/2-y,1/2+z
_cell_length_a                   20.674(2)
_cell_length_b                   8.2442(9)
_cell_length_c                   14.9541(16)
_cell_angle_alpha                90
_cell_angle_beta                 111.106(2)
_cell_angle_gamma                90
_cell_volume                     2377.8
_exptl_crystal_colour            colorless
_exptl_crystal_description       block
_chemical_melting_point          '472 K'
_cell_formula_units_Z            8
_exptl_crystal_recrystallization_method 'ethyl acetate/acetone'
loop_
_atom_site_label
_atom_site_type_symbol
_atom_site_fract_x
_atom_site_fract_y
_atom_site_fract_z
C1 C 0.83188(14) -0.2225(3) 0.03202(17)
C2 C 0.88114(15) -0.3240(3) 0.02044(18)
C3 C 0.86597(17) -0.4497(4) -0.0435(2)
H1 H 0.9008 -0.5166 -0.0482
C4 C 0.79829(19) -0.4742(4) -0.1002(2)
H2 H 0.7869 -0.5588 -0.1443
C5 C 0.74658(18) -0.3749(4) -0.0930(2)
H3 H 0.7006 -0.3911 -0.1322
C6 C 0.76435(16) -0.2529(4) -0.0273(2)
C7 C 0.84870(16) -0.0937(3) 0.10735(18)
C8 C 0.90268(13) 0.1774(3) 0.14393(16)
C9 C 0.90321(12) 0.3165(3) 0.28583(16)
C10 C 0.93300(16) 0.5591(4) 0.36962(19)
H4 H 0.9479 0.6617 0.3943
F1 F 0.71461(10) -0.1550(3) -0.01836(14)
F2 F 0.94770(9) -0.2961(2) 0.07601(13)
N1 N 0.88049(11) 0.0393(2) 0.08835(14)
H9 H 0.8877 0.0375 0.0352
N2 N 0.88761(11) 0.1838(2) 0.22519(13)
H10 H 0.8675 0.1018 0.2395
N3 N 0.88834(12) 0.3140(3) 0.36311(14)
N4 N 0.90610(12) 0.4588(3) 0.41170(15)
O1 O 0.83356(15) -0.1091(3) 0.17809(15)
O2 O 0.93377(11) 0.2837(2) 0.12068(13)
S1 S 0.93984(4) 0.49229(8) 0.26512(5)
C11 C 0.67940(14) 0.2747(3) 0.65965(19)
C12 C 0.67327(16) 0.2052(4) 0.7399(2)
C13 C 0.7002(2) 0.0549(5) 0.7738(3)
H5 H 0.6937 0.0097 0.8269
C14 C 0.7370(2) -0.0266(5) 0.7275(4)
H6 H 0.7556 -0.1281 0.7496
C15 C 0.74652(17) 0.0390(4) 0.6501(3)
H7 H 0.7723 -0.0152 0.6197
C16 C 0.71731(15) 0.1871(4) 0.6176(2)
C17 C 0.64716(14) 0.4344(3) 0.62269(19)
C18 C 0.57088(14) 0.5606(3) 0.47037(19)
C19 C 0.56401(13) 0.8514(3) 0.46441(18)
C20 C 0.52640(17) 1.0734(4) 0.3599(2)
H8 H 0.5081 1.1471 0.3101
F3 F 0.72665(11) 0.2510(3) 0.54068(15)
F4 F 0.63749(11) 0.2878(3) 0.78515(14)
N5 N 0.60231(11) 0.4300(2) 0.52963(15)
H11 H 0.5922 0.3352 0.5045
N6 N 0.58189(12) 0.7081(2) 0.51324(15)
H12 H 0.6012 0.7118 0.5746
N7 N 0.58212(12) 0.9889(2) 0.50843(16)
N8 N 0.56013(13) 1.1175(3) 0.44605(16)
O3 O 0.66024(12) 0.5562(2) 0.67163(14)
O4 O 0.53709(11) 0.5402(2) 0.38662(14)
S2 S 0.51749(5) 0.86678(9) 0.34356(5)
loop_
_geom_bond_atom_site_label_1
_geom_bond_atom_site_label_2
_geom_bond_site_symmetry_1
_geom_bond_site_symmetry_2
C1 C2 1_555 1_555
C2 C3 1_555 1_555
C3 H1 1_555 1_555
C4 C3 1_555 1_555
H2 C4 1_555 1_555
C5 C4 1_555 1_555
H3 C5 1_555 1_555
C6 C1 1_555 1_555
C7 C1 1_555 1_555
C8 N1 1_555 1_555
C9 N2 1_555 1_555
C10 H4 1_555 1_555
C11 C12 1_555 1_555
C12 C13 1_555 1_555
C13 H5 1_555 1_555
C14 C13 1_555 1_555
H6 C14 1_555 1_555
C15 C14 1_555 1_555
H7 C15 1_555 1_555
C16 C11 1_555 1_555
C17 C11 1_555 1_555
C18 N5 1_555 1_555
C19 N6 1_555 1_555
C20 H8 1_555 1_555
F1 C6 1_555 1_555
F2 C2 1_555 1_555
F3 C16 1_555 1_555
F4 C12 1_555 1_555
N1 C7 1_555 1_555
H9 N1 1_555 1_555
N2 C8 1_555 1_555
H10 N2 1_555 1_555
N3 C9 1_555 1_555
N4 C10 1_555 1_555
N5 C17 1_555 1_555
H11 N5 1_555 1_555
N6 C18 1_555 1_555
H12 N6 1_555 1_555
N7 C19 1_555 1_555
N8 C20 1_555 1_555
O1 C7 1_555 1_555
O2 C8 1_555 1_555
O3 C17 1_555 1_555
O4 C18 1_555 1_555
S1 C9 1_555 1_555
S2 C19 1_555 1_555
C5 C6 1_555 1_555
C10 S1 1_555 1_555
C15 C16 1_555 1_555
C20 S2 1_555 1_555
N3 N4 1_555 1_555
N7 N8 1_555 1_555

#END
