
#######################################################################
#
#                 Cambridge Crystallographic Data Centre
#                                CCDC 
#
#######################################################################
#
# If this CIF has been generated from an entry in the Cambridge 
# Structural Database, then it will include bibliographic, chemical, 
# crystal, experimental, refinement or atomic coordinate data resulting 
# from the CCDC's data processing and validation procedures.
#
#######################################################################

data_DATKAN
_chemical_formula_moiety         'C27 H22 O1 S1'
_chemical_name_systematic        
(2S,4S)-4-(biphenyl-4-yl)-2-(phenylsulfanyl)-chromane
_symmetry_cell_setting           orthorhombic
_symmetry_space_group_name_H-M   'P 21 21 21'
_symmetry_Int_Tables_number      19
_space_group_name_Hall           'P 2ac 2ab'
loop_
_symmetry_equiv_pos_site_id
_symmetry_equiv_pos_as_xyz
1 x,y,z
2 1/2-x,-y,1/2+z
3 1/2+x,1/2-y,-z
4 -x,1/2+y,1/2-z
_cell_length_a                   5.37560(5)
_cell_length_b                   8.23448(7)
_cell_length_c                   44.3104(4)
_cell_angle_alpha                90
_cell_angle_beta                 90
_cell_angle_gamma                90
_cell_volume                     1961.41
_exptl_crystal_colour            colorless
_exptl_crystal_description       block
_cell_formula_units_Z            4
_exptl_crystal_recrystallization_method 'diethyl ether/ dichloromethane/ hexane'
loop_
_atom_site_label
_atom_site_type_symbol
_atom_site_fract_x
_atom_site_fract_y
_atom_site_fract_z
S1 S 0.90389(8) 0.12141(5) 0.07238(2)
O1 O 0.7301(2) 0.41635(14) 0.07988(3)
C1 C 0.6568(3) 0.2510(2) 0.08540(4)
H1 H 0.5021 0.2267 0.0737
C2 C 0.6058(4) 0.2276(2) 0.11887(4)
H2 H 0.7491 0.2665 0.1309
H3 H 0.5800 0.1110 0.1233
C3 C 0.3715(3) 0.3246(2) 0.12706(4)
H4 H 0.2252 0.2677 0.1180
C4 C 0.3876(3) 0.4929(2) 0.11303(4)
C5 C 0.5696(3) 0.5308(2) 0.09167(4)
C6 C 0.5988(4) 0.6886(2) 0.08088(4)
H5 H 0.7320 0.7142 0.0676
C7 C 0.4325(4) 0.8075(2) 0.08965(4)
H6 H 0.4498 0.9148 0.0821
C8 C 0.2395(4) 0.7709(2) 0.10950(4)
H7 H 0.1220 0.8518 0.1150
C9 C 0.2211(3) 0.6154(2) 0.12112(4)
H8 H 0.0914 0.5914 0.1350
C10 C 0.8170(3) 0.0638(2) 0.03507(4)
C11 C 0.9733(3) -0.0514(2) 0.02185(4)
H9 H 1.1102 -0.0938 0.0329
C12 C 0.9284(3) -0.1038(2) -0.00740(4)
H10 H 1.0359 -0.1813 -0.0164
C13 C 0.7273(3) -0.0434(2) -0.02353(4)
H11 H 0.6976 -0.0787 -0.0436
C14 C 0.5706(3) 0.0684(2) -0.01013(4)
H12 H 0.4306 0.1077 -0.0210
C15 C 0.6152(3) 0.1243(2) 0.01902(4)
H13 H 0.5086 0.2031 0.0279
C16 C 0.3347(3) 0.3289(2) 0.16104(4)
C17 C 0.4824(4) 0.4262(2) 0.17933(4)
H14 H 0.6057 0.4933 0.1703
C18 C 0.4539(4) 0.4275(2) 0.21030(4)
H15 H 0.5580 0.4955 0.2222
C19 C 0.2751(3) 0.3308(2) 0.22463(4)
C20 C 0.1290(3) 0.2325(2) 0.20618(4)
H16 H 0.0066 0.1645 0.2151
C21 C 0.1586(3) 0.2318(2) 0.17498(4)
H17 H 0.0559 0.1634 0.1630
C22 C 0.2454(3) 0.3319(2) 0.25808(4)
C23 C 0.4164(4) 0.4075(3) 0.27667(4)
H18 H 0.5539 0.4623 0.2679
C24 C 0.3923(4) 0.4054(3) 0.30791(4)
H19 H 0.5131 0.4583 0.3201
C25 C 0.1951(4) 0.3272(2) 0.32132(4)
H20 H 0.1792 0.3250 0.3427
C26 C 0.0221(4) 0.2525(3) 0.30335(4)
H21 H -0.1150 0.1982 0.3123
C27 C 0.0455(4) 0.2556(3) 0.27205(4)
H22 H -0.0779 0.2045 0.2600
loop_
_geom_bond_atom_site_label_1
_geom_bond_atom_site_label_2
_geom_bond_site_symmetry_1
_geom_bond_site_symmetry_2
S1 C1 1_555 1_555
O1 C1 1_555 1_555
C1 H1 1_555 1_555
C2 C1 1_555 1_555
H2 C2 1_555 1_555
H3 C2 1_555 1_555
C3 C2 1_555 1_555
H4 C3 1_555 1_555
C4 C3 1_555 1_555
C5 O1 1_555 1_555
C6 C5 1_555 1_555
H5 C6 1_555 1_555
C7 C6 1_555 1_555
H6 C7 1_555 1_555
C8 C7 1_555 1_555
H7 C8 1_555 1_555
C9 C4 1_555 1_555
H8 C9 1_555 1_555
C10 S1 1_555 1_555
C11 C10 1_555 1_555
H9 C11 1_555 1_555
C12 C11 1_555 1_555
H10 C12 1_555 1_555
C13 C12 1_555 1_555
H11 C13 1_555 1_555
C14 C13 1_555 1_555
H12 C14 1_555 1_555
C15 C10 1_555 1_555
H13 C15 1_555 1_555
C16 C3 1_555 1_555
C17 C16 1_555 1_555
H14 C17 1_555 1_555
C18 C17 1_555 1_555
H15 C18 1_555 1_555
C19 C18 1_555 1_555
C20 C19 1_555 1_555
H16 C20 1_555 1_555
C21 C16 1_555 1_555
H17 C21 1_555 1_555
C22 C19 1_555 1_555
C23 C22 1_555 1_555
H18 C23 1_555 1_555
C24 C23 1_555 1_555
H19 C24 1_555 1_555
C25 C24 1_555 1_555
H20 C25 1_555 1_555
C26 C25 1_555 1_555
H21 C26 1_555 1_555
C27 C22 1_555 1_555
H22 C27 1_555 1_555
C4 C5 1_555 1_555
C8 C9 1_555 1_555
C14 C15 1_555 1_555
C20 C21 1_555 1_555
C26 C27 1_555 1_555

#END
