
#######################################################################
#
#                 Cambridge Crystallographic Data Centre
#                                CCDC 
#
#######################################################################
#
# If this CIF has been generated from an entry in the Cambridge 
# Structural Database, then it will include bibliographic, chemical, 
# crystal, experimental, refinement or atomic coordinate data resulting 
# from the CCDC's data processing and validation procedures.
#
#######################################################################

data_DATRIB
_chemical_name_common            'Compound 53, tetracycle'
_chemical_formula_moiety         'C22 H19 N1 O4'
_chemical_name_systematic        
'Methyl 1-benzyl-2,3-dioxo-2,2a,3,4,4a,8b-hexahydrobenzo[2,3]pentaleno[1,6-bc]pyrrole-8c(1H)-carboxylate'
_symmetry_cell_setting           monoclinic
_symmetry_space_group_name_H-M   'C c'
_symmetry_Int_Tables_number      9
_space_group_name_Hall           'C -2yc'
loop_
_symmetry_equiv_pos_site_id
_symmetry_equiv_pos_as_xyz
1 x,y,z
2 x,-y,1/2+z
3 1/2+x,1/2+y,z
4 1/2+x,1/2-y,1/2+z
_cell_length_a                   16.7047(10)
_cell_length_b                   10.6314(7)
_cell_length_c                   10.7298(7)
_cell_angle_alpha                90
_cell_angle_beta                 112.237(2)
_cell_angle_gamma                90
_cell_volume                     1763.83
_exptl_crystal_colour            yellow
_exptl_crystal_description       block
_cell_formula_units_Z            4
loop_
_atom_site_label
_atom_site_type_symbol
_atom_site_fract_x
_atom_site_fract_y
_atom_site_fract_z
N1 N 0.36265(7) 0.79064(10) 0.12431(12)
C1 C 0.38239(8) 0.71742(12) 0.02341(13)
H1 H 0.4425 0.6829 0.0612
C2 C 0.37116(8) 0.81603(12) -0.09099(13)
C3 C 0.35665(8) 0.94307(12) -0.03597(13)
H2 H 0.4023 1.0055 -0.0320
C4 C 0.35589(8) 0.91616(13) 0.10333(13)
O1 O 0.34694(7) 0.99461(9) 0.18037(10)
C5 C 0.36639(9) 0.73425(12) 0.25045(13)
H3 H 0.3324 0.6554 0.2304
H4 H 0.3395 0.7924 0.2954
C6 C 0.45770(9) 0.70566(12) 0.34513(13)
C7 C 0.48138(9) 0.58324(14) 0.39060(15)
H5 H 0.4403 0.5171 0.3596
C8 C 0.56448(10) 0.55724(15) 0.48084(16)
H6 H 0.5800 0.4736 0.5115
C9 C 0.62506(9) 0.65330(17) 0.52661(15)
H7 H 0.6816 0.6357 0.5899
C10 C 0.60273(10) 0.77513(15) 0.47947(14)
H8 H 0.6444 0.8405 0.5091
C11 C 0.51930(9) 0.80165(12) 0.38874(14)
H9 H 0.5043 0.8850 0.3565
C12 C 0.31676(9) 0.61580(13) -0.04328(14)
C13 C 0.30859(10) 0.49913(13) 0.00952(14)
H10 H 0.3469 0.4747 0.0969
C14 C 0.24271(11) 0.41899(14) -0.06913(17)
H11 H 0.2357 0.3389 -0.0353
C15 C 0.18716(11) 0.45638(15) -0.19743(16)
H12 H 0.1419 0.4016 -0.2495
C16 C 0.19652(10) 0.57172(15) -0.25058(16)
H13 H 0.1586 0.5958 -0.3384
C17 C 0.26271(9) 0.65167(13) -0.17262(14)
C18 C 0.28554(8) 0.77934(12) -0.21062(13)
H14 H 0.2963 0.7733 -0.2960
C19 C 0.21920(9) 0.88365(14) -0.22282(14)
H15 H 0.1943 0.9156 -0.3164
H16 H 0.1716 0.8505 -0.1986
C20 C 0.26609(9) 0.98806(13) -0.12749(14)
O2 O 0.23707(7) 1.09020(10) -0.11974(11)
C21 C 0.45122(9) 0.81303(12) -0.12556(14)
O3 O 0.51240(7) 0.88158(10) -0.07928(11)
O4 O 0.44658(7) 0.71751(10) -0.20965(11)
C22 C 0.51754(12) 0.70615(16) -0.25469(19)
H17 H 0.5076 0.6338 -0.3153
H18 H 0.5716 0.6941 -0.1767
H19 H 0.5215 0.7829 -0.3026
loop_
_geom_bond_atom_site_label_1
_geom_bond_atom_site_label_2
_geom_bond_site_symmetry_1
_geom_bond_site_symmetry_2
N1 C1 1_555 1_555
C1 H1 1_555 1_555
C2 C1 1_555 1_555
C3 C2 1_555 1_555
H2 C3 1_555 1_555
C4 N1 1_555 1_555
O1 C4 1_555 1_555
C5 N1 1_555 1_555
H3 C5 1_555 1_555
H4 C5 1_555 1_555
C6 C5 1_555 1_555
C7 C6 1_555 1_555
H5 C7 1_555 1_555
C8 C7 1_555 1_555
H6 C8 1_555 1_555
C9 C8 1_555 1_555
H7 C9 1_555 1_555
C10 C9 1_555 1_555
H8 C10 1_555 1_555
C11 C6 1_555 1_555
H9 C11 1_555 1_555
C12 C1 1_555 1_555
C13 C12 1_555 1_555
H10 C13 1_555 1_555
C14 C13 1_555 1_555
H11 C14 1_555 1_555
C15 C14 1_555 1_555
H12 C15 1_555 1_555
C16 C15 1_555 1_555
H13 C16 1_555 1_555
C17 C12 1_555 1_555
C18 C2 1_555 1_555
H14 C18 1_555 1_555
C19 C18 1_555 1_555
H15 C19 1_555 1_555
H16 C19 1_555 1_555
C20 C3 1_555 1_555
O2 C20 1_555 1_555
C21 C2 1_555 1_555
O3 C21 1_555 1_555
O4 C21 1_555 1_555
C22 O4 1_555 1_555
H17 C22 1_555 1_555
H18 C22 1_555 1_555
H19 C22 1_555 1_555
C3 C4 1_555 1_555
C10 C11 1_555 1_555
C16 C17 1_555 1_555
C17 C18 1_555 1_555
C19 C20 1_555 1_555

#END
