
#######################################################################
#
#                 Cambridge Crystallographic Data Centre
#                                CCDC 
#
#######################################################################
#
# If this CIF has been generated from an entry in the Cambridge 
# Structural Database, then it will include bibliographic, chemical, 
# crystal, experimental, refinement or atomic coordinate data resulting 
# from the CCDC's data processing and validation procedures.
#
#######################################################################

data_DAVFEN
_chemical_formula_moiety         'C25 H21 Br1 N2 O3'
_chemical_name_systematic        
3-((6-Bromo-2-methoxyquinolin-3-yl)(phenyl)methyl)-10-oxa-3-azatricyclo[5.2.1.0^1,5^]dec-8-en-4-one
_symmetry_cell_setting           orthorhombic
_symmetry_space_group_name_H-M   'P b c a'
_symmetry_Int_Tables_number      61
_space_group_name_Hall           '-P 2ac 2ab'
loop_
_symmetry_equiv_pos_site_id
_symmetry_equiv_pos_as_xyz
1 x,y,z
2 1/2-x,-y,1/2+z
3 1/2+x,1/2-y,-z
4 -x,1/2+y,1/2-z
5 -x,-y,-z
6 1/2+x,y,1/2-z
7 1/2-x,1/2+y,z
8 x,1/2-y,1/2+z
_cell_length_a                   11.706(2)
_cell_length_b                   18.038(4)
_cell_length_c                   20.369(4)
_cell_angle_alpha                90
_cell_angle_beta                 90
_cell_angle_gamma                90
_cell_volume                     4300.97
_exptl_crystal_colour            colorless
_exptl_crystal_description       block
_cell_formula_units_Z            8
loop_
_atom_site_label
_atom_site_type_symbol
_atom_site_fract_x
_atom_site_fract_y
_atom_site_fract_z
Br1 Br -0.33723(6) 0.47296(4) 1.04081(4)
O1 O 0.1883(3) 0.64147(16) 0.83159(16)
O2 O 0.2975(3) 0.70884(19) 1.04138(16)
O3 O 0.0011(3) 0.7541(2) 1.11284(17)
N1 N 0.0450(4) 0.5608(2) 0.86007(18)
N2 N 0.1461(3) 0.77164(18) 0.99760(17)
C1 C -0.1574(3) 0.5649(3) 0.9998(2)
H1 H -0.1753 0.5938 1.0374
C2 C -0.2183(4) 0.5020(3) 0.9858(2)
C3 C -0.1924(5) 0.4573(3) 0.9324(3)
H2 H -0.2347 0.4132 0.9247
C4 C -0.1058(6) 0.4769(3) 0.8909(3)
H3 H -0.0886 0.4465 0.8541
C5 C -0.0684(4) 0.5860(2) 0.9576(2)
C6 C -0.0415(4) 0.5422(2) 0.9023(2)
C7 C -0.0017(4) 0.6512(2) 0.9676(2)
H4 H -0.0160 0.6815 1.0049
C8 C 0.0810(4) 0.6705(2) 0.9251(2)
C9 C 0.1014(4) 0.6216(2) 0.8717(2)
C10 C 0.2309(5) 0.5860(3) 0.7871(3)
H5 H 0.2573 0.5429 0.8122
H6 H 0.2948 0.6065 0.7618
H7 H 0.1698 0.5709 0.7571
C11 C 0.1006(9) 0.9115(3) 0.7916(3)
H8 H 0.0896 0.9514 0.7618
C12 C 0.0078(6) 0.8779(3) 0.8205(3)
H9 H -0.0672 0.8944 0.8104
C13 C 0.0238(5) 0.8191(3) 0.8648(2)
H10 H -0.0403 0.7947 0.8837
C14 C 0.1333(4) 0.7970(2) 0.8806(2)
C15 C 0.2273(5) 0.8315(3) 0.8493(3)
H11 H 0.3032 0.8160 0.8584
C16 C 0.2068(8) 0.8879(3) 0.8055(3)
H12 H 0.2698 0.9109 0.7843
C17 C 0.1568(3) 0.7397(2) 0.9319(2)
H13 H 0.2379 0.7234 0.9265
C18 C 0.0566(4) 0.8251(2) 1.0178(2)
H14 H -0.0195 0.8103 1.0011
H15 H 0.0744 0.8759 1.0025
C19 C 0.2190(4) 0.7521(2) 1.0465(2)
C20 C 0.1869(4) 0.7949(3) 1.1082(2)
H16 H 0.2384 0.8383 1.1155
C21 C 0.0622(3) 0.8197(3) 1.0908(2)
C22 C 0.0267(4) 0.8760(4) 1.1408(3)
H17 H 0.0153 0.9276 1.1342
C23 C 0.0149(5) 0.8390(5) 1.1953(3)
H18 H -0.0051 0.8590 1.2369
C24 C 0.0386(5) 0.7597(4) 1.1806(3)
H19 H 0.0026 0.7234 1.2114
C25 C 0.1687(4) 0.7503(3) 1.1710(3)
H20 H 0.2123 0.7714 1.2083
H21 H 0.1901 0.6976 1.1651
loop_
_geom_bond_atom_site_label_1
_geom_bond_atom_site_label_2
_geom_bond_site_symmetry_1
_geom_bond_site_symmetry_2
Br1 C2 1_555 1_555
O1 C9 1_555 1_555
O2 C19 1_555 1_555
O3 C21 1_555 1_555
N1 C6 1_555 1_555
N2 C17 1_555 1_555
C1 H1 1_555 1_555
C2 C1 1_555 1_555
C3 C2 1_555 1_555
H2 C3 1_555 1_555
C4 C3 1_555 1_555
H3 C4 1_555 1_555
C5 C1 1_555 1_555
C6 C4 1_555 1_555
C7 C5 1_555 1_555
H4 C7 1_555 1_555
C8 C7 1_555 1_555
C9 N1 1_555 1_555
C10 O1 1_555 1_555
H5 C10 1_555 1_555
H6 C10 1_555 1_555
H7 C10 1_555 1_555
C11 H8 1_555 1_555
C12 C11 1_555 1_555
H9 C12 1_555 1_555
C13 C12 1_555 1_555
H10 C13 1_555 1_555
C14 C13 1_555 1_555
C15 C14 1_555 1_555
H11 C15 1_555 1_555
C16 C11 1_555 1_555
H12 C16 1_555 1_555
C17 C8 1_555 1_555
H13 C17 1_555 1_555
C18 N2 1_555 1_555
H14 C18 1_555 1_555
H15 C18 1_555 1_555
C19 N2 1_555 1_555
C20 C19 1_555 1_555
H16 C20 1_555 1_555
C21 C18 1_555 1_555
C22 C21 1_555 1_555
H17 C22 1_555 1_555
C23 C22 1_555 1_555
H18 C23 1_555 1_555
C24 O3 1_555 1_555
H19 C24 1_555 1_555
C25 C20 1_555 1_555
H20 C25 1_555 1_555
H21 C25 1_555 1_555
C5 C6 1_555 1_555
C8 C9 1_555 1_555
C14 C17 1_555 1_555
C15 C16 1_555 1_555
C20 C21 1_555 1_555
C23 C24 1_555 1_555
C24 C25 1_555 1_555

#END
