
#######################################################################
#
#                 Cambridge Crystallographic Data Centre
#                                CCDC 
#
#######################################################################
#
# If this CIF has been generated from an entry in the Cambridge 
# Structural Database, then it will include bibliographic, chemical, 
# crystal, experimental, refinement or atomic coordinate data resulting 
# from the CCDC's data processing and validation procedures.
#
#######################################################################

data_DAVNAS
_chemical_formula_moiety         'C24 H17 Br1 F3 N3 O7 S1'
_chemical_name_systematic        
1-(4-bromophenyl)-2-((2R,3R,4S)-3-nitro-1-((4-nitrophenyl)sulfonyl)-2-trifluoromethyl-1,2,3,4-tetrahydroquinolin-4-yl)ethan-1-one
_symmetry_cell_setting           orthorhombic
_symmetry_space_group_name_H-M   'P 21 21 21'
_symmetry_Int_Tables_number      19
_space_group_name_Hall           'P 2ac 2ab'
loop_
_symmetry_equiv_pos_site_id
_symmetry_equiv_pos_as_xyz
1 x,y,z
2 1/2-x,-y,1/2+z
3 1/2+x,1/2-y,-z
4 -x,1/2+y,1/2-z
_cell_length_a                   9.9489(7)
_cell_length_b                   10.0773(5)
_cell_length_c                   51.389(3)
_cell_angle_alpha                90
_cell_angle_beta                 90
_cell_angle_gamma                90
_cell_volume                     5152.16
_exptl_crystal_colour            colorless
_exptl_crystal_description       block
_chemical_melting_point          '209-210 deg.C'
_cell_formula_units_Z            8
loop_
_atom_site_label
_atom_site_type_symbol
_atom_site_fract_x
_atom_site_fract_y
_atom_site_fract_z
Br1 Br 0.40797(16) 0.60488(11) 0.869138(18)
S1 S 0.2850(3) 0.6485(2) 0.63980(4)
F1 F -0.1210(7) 0.7055(7) 0.66111(12)
F2 F -0.0910(7) 0.9167(6) 0.66329(12)
F3 F -0.0266(7) 0.8104(6) 0.62938(11)
O1 O 0.4328(8) 0.6829(11) 0.73852(12)
O2 O 0.2118(9) 0.9964(6) 0.69659(16)
O3 O 0.0238(10) 0.9965(7) 0.71795(15)
O4 O 0.7819(10) 0.7432(10) 0.72291(17)
O5 O 0.7636(13) 0.5314(11) 0.7257(2)
O6 O 0.2785(7) 0.5240(6) 0.62578(12)
O7 O 0.2828(7) 0.7718(6) 0.62618(12)
N1 N 0.1540(7) 0.6539(6) 0.65980(11)
N2 N 0.1111(10) 0.9439(7) 0.70453(15)
N3 N 0.7335(10) 0.6390(13) 0.71612(17)
C1 C 0.2414(11) 0.6996(9) 0.79794(16)
H1 H 0.1573 0.7246 0.7917
C2 C 0.2639(12) 0.6786(8) 0.82435(15)
H2 H 0.1935 0.6891 0.8361
C3 C 0.3871(12) 0.6428(8) 0.83317(15)
C4 C 0.4932(12) 0.6321(10) 0.81713(16)
H3 H 0.5780 0.6126 0.8237
C5 C 0.4742(12) 0.6504(10) 0.79071(16)
H4 H 0.5462 0.6413 0.7793
C6 C 0.3491(10) 0.6819(8) 0.78126(16)
C7 C 0.3340(11) 0.6994(10) 0.75206(17)
C8 C 0.2010(10) 0.7382(8) 0.74119(15)
H5 H 0.1844 0.8313 0.7447
H6 H 0.1307 0.6869 0.7495
C9 C 0.1983(9) 0.7135(7) 0.71169(15)
H7 H 0.2861 0.7376 0.7044
C10 C 0.0875(10) 0.7964(7) 0.69757(15)
H8 H -0.0019 0.7683 0.7033
C11 C 0.0996(10) 0.7828(8) 0.66814(16)
H9 H 0.1602 0.8525 0.6619
C12 C 0.1405(9) 0.5453(7) 0.67784(15)
C13 C 0.1058(10) 0.4200(7) 0.66938(16)
H10 H 0.0832 0.4048 0.6521
C14 C 0.1052(12) 0.3193(8) 0.68699(18)
H11 H 0.0854 0.2341 0.6812
C15 C 0.1325(11) 0.3374(8) 0.71290(17)
H12 H 0.1326 0.2661 0.7244
C16 C 0.1603(11) 0.4664(8) 0.72163(16)
H13 H 0.1752 0.4827 0.7392
C17 C 0.1653(9) 0.5699(8) 0.70362(14)
C18 C -0.0350(12) 0.8023(11) 0.65530(18)
C19 C 0.4267(9) 0.6450(8) 0.66013(16)
C20 C 0.4696(11) 0.5237(9) 0.66968(16)
H14 H 0.4314 0.4451 0.6637
C21 C 0.5725(11) 0.5219(9) 0.68862(18)
H15 H 0.6025 0.4423 0.6957
C22 C 0.6264(10) 0.6395(10) 0.69613(16)
C23 C 0.5876(11) 0.7604(9) 0.68556(18)
H16 H 0.6309 0.8383 0.6905
C24 C 0.4859(10) 0.7635(10) 0.66803(19)
H17 H 0.4560 0.8440 0.6613
Br2 Br 0.69417(17) 0.36427(13) 0.373328(19)
S2 S 0.7466(3) 0.4440(2) 0.60572(4)
F4 F 0.5447(7) 0.8523(6) 0.58216(12)
F5 F 0.6498(8) 0.7763(6) 0.61544(10)
F6 F 0.7601(7) 0.8549(5) 0.58307(11)
O8 O 0.7971(9) 0.3343(6) 0.50444(13)
O9 O 0.4393(8) 0.7212(7) 0.52842(14)
O10 O 0.4472(7) 0.5254(7) 0.54532(16)
O11 O 0.6868(11) -0.0427(7) 0.52020(15)
O12 O 0.8970(13) -0.0293(10) 0.5228(2)
O13 O 0.6119(8) 0.4541(6) 0.61535(12)
O14 O 0.8601(8) 0.4361(6) 0.62283(11)
N4 N 0.7692(7) 0.5760(6) 0.58665(12)
N5 N 0.4973(9) 0.6330(9) 0.54015(15)
N6 N 0.7871(13) 0.0060(9) 0.52918(19)
C25 C 0.6512(13) 0.7850(9) 0.58909(18)
C26 C 0.7259(11) 0.5261(8) 0.44686(16)
H18 H 0.7156 0.6096 0.4543
C27 C 0.7139(13) 0.5097(9) 0.42026(16)
H19 H 0.6999 0.5837 0.4098
C28 C 0.7223(11) 0.3863(9) 0.40889(15)
C29 C 0.7503(11) 0.2767(10) 0.42438(18)
H20 H 0.7578 0.1927 0.4171
C30 C 0.7667(10) 0.2946(8) 0.45069(19)
H21 H 0.7875 0.2218 0.4611
C31 C 0.7530(9) 0.4178(8) 0.46210(15)
C32 C 0.7609(10) 0.4290(8) 0.49165(17)
C33 C 0.7195(10) 0.5574(8) 0.50420(14)
H22 H 0.6268 0.5765 0.4997
H23 H 0.7748 0.6288 0.4974
C34 C 0.7334(8) 0.5526(8) 0.53382(14)
H24 H 0.7031 0.4648 0.5396
C35 C 0.6437(8) 0.6560(8) 0.54719(14)
H25 H 0.6705 0.7451 0.5416
C36 C 0.6511(9) 0.6472(8) 0.57740(14)
H26 H 0.5710 0.6004 0.5836
C37 C 0.8875(9) 0.5822(7) 0.57123(13)
C38 C 1.0141(10) 0.5968(9) 0.58279(17)
H27 H 1.0226 0.6027 0.6008
C39 C 1.1263(12) 0.6023(9) 0.56692(18)
H28 H 1.2111 0.6110 0.5743
C40 C 1.1135(11) 0.5948(9) 0.53969(17)
H29 H 1.1892 0.5989 0.5291
C41 C 0.9871(9) 0.5815(9) 0.52893(15)
H30 H 0.9788 0.5784 0.5109
C42 C 0.8718(8) 0.5725(7) 0.54408(14)
C43 C 0.7572(10) 0.3081(8) 0.58386(17)
C44 C 0.8807(11) 0.2580(8) 0.57823(17)
H31 H 0.9569 0.2895 0.5867
C45 C 0.8912(11) 0.1586(8) 0.55953(17)
H32 H 0.9744 0.1242 0.5547
C46 C 0.7760(11) 0.1134(8) 0.54851(16)
C47 C 0.6530(11) 0.1602(9) 0.55441(17)
H33 H 0.5768 0.1245 0.5466
C48 C 0.6424(10) 0.2619(8) 0.57216(17)
H34 H 0.5591 0.2985 0.5762
loop_
_geom_bond_atom_site_label_1
_geom_bond_atom_site_label_2
_geom_bond_site_symmetry_1
_geom_bond_site_symmetry_2
Br1 C3 1_555 1_555
S1 O6 1_555 1_555
F1 C18 1_555 1_555
F2 C18 1_555 1_555
F3 C18 1_555 1_555
O1 C7 1_555 1_555
O2 N2 1_555 1_555
O3 N2 1_555 1_555
O4 N3 1_555 1_555
O5 N3 1_555 1_555
O7 S1 1_555 1_555
N1 S1 1_555 1_555
N2 C10 1_555 1_555
N3 C22 1_555 1_555
C1 H1 1_555 1_555
C2 C1 1_555 1_555
H2 C2 1_555 1_555
C3 C2 1_555 1_555
C4 C3 1_555 1_555
H3 C4 1_555 1_555
C5 C4 1_555 1_555
H4 C5 1_555 1_555
C6 C1 1_555 1_555
C7 C6 1_555 1_555
C8 C7 1_555 1_555
H5 C8 1_555 1_555
H6 C8 1_555 1_555
C9 C8 1_555 1_555
H7 C9 1_555 1_555
C10 C9 1_555 1_555
H8 C10 1_555 1_555
C11 N1 1_555 1_555
H9 C11 1_555 1_555
C12 N1 1_555 1_555
C13 C12 1_555 1_555
H10 C13 1_555 1_555
C14 C13 1_555 1_555
H11 C14 1_555 1_555
C15 C14 1_555 1_555
H12 C15 1_555 1_555
C16 C15 1_555 1_555
H13 C16 1_555 1_555
C17 C9 1_555 1_555
C18 C11 1_555 1_555
C19 S1 1_555 1_555
C20 C19 1_555 1_555
H14 C20 1_555 1_555
C21 C20 1_555 1_555
H15 C21 1_555 1_555
C22 C21 1_555 1_555
C23 C22 1_555 1_555
H16 C23 1_555 1_555
C24 C19 1_555 1_555
H17 C24 1_555 1_555
Br2 C28 1_555 1_555
S2 O13 1_555 1_555
F4 C25 1_555 1_555
F5 C25 1_555 1_555
F6 C25 1_555 1_555
O8 C32 1_555 1_555
O9 N5 1_555 1_555
O10 N5 1_555 1_555
O11 N6 1_555 1_555
O12 N6 1_555 1_555
O14 S2 1_555 1_555
N4 S2 1_555 1_555
N5 C35 1_555 1_555
N6 C46 1_555 1_555
C25 C36 1_555 1_555
C26 H18 1_555 1_555
C27 C26 1_555 1_555
H19 C27 1_555 1_555
C28 C27 1_555 1_555
C29 C28 1_555 1_555
H20 C29 1_555 1_555
C30 C29 1_555 1_555
H21 C30 1_555 1_555
C31 C26 1_555 1_555
C32 C31 1_555 1_555
C33 C32 1_555 1_555
H22 C33 1_555 1_555
H23 C33 1_555 1_555
C34 C33 1_555 1_555
H24 C34 1_555 1_555
C35 C34 1_555 1_555
H25 C35 1_555 1_555
C36 N4 1_555 1_555
H26 C36 1_555 1_555
C37 N4 1_555 1_555
C38 C37 1_555 1_555
H27 C38 1_555 1_555
C39 C38 1_555 1_555
H28 C39 1_555 1_555
C40 C39 1_555 1_555
H29 C40 1_555 1_555
C41 C40 1_555 1_555
H30 C41 1_555 1_555
C42 C34 1_555 1_555
C43 S2 1_555 1_555
C44 C43 1_555 1_555
H31 C44 1_555 1_555
C45 C44 1_555 1_555
H32 C45 1_555 1_555
C46 C45 1_555 1_555
C47 C46 1_555 1_555
H33 C47 1_555 1_555
C48 C43 1_555 1_555
H34 C48 1_555 1_555
C5 C6 1_555 1_555
C10 C11 1_555 1_555
C12 C17 1_555 1_555
C16 C17 1_555 1_555
C23 C24 1_555 1_555
C30 C31 1_555 1_555
C35 C36 1_555 1_555
C37 C42 1_555 1_555
C41 C42 1_555 1_555
C47 C48 1_555 1_555

#END
