
#######################################################################
#
#                 Cambridge Crystallographic Data Centre
#                                CCDC 
#
#######################################################################
#
# If this CIF has been generated from an entry in the Cambridge 
# Structural Database, then it will include bibliographic, chemical, 
# crystal, experimental, refinement or atomic coordinate data resulting 
# from the CCDC's data processing and validation procedures.
#
#######################################################################

data_DAVQAU
_chemical_name_common            
'bis(1,2-bis(2-(1H-imidazol-3-ium-1-yl)-1-phenylethylidene)hydrazine) fumarate'
_chemical_formula_moiety         'C22 H22 N6 2+,C4 H2 O4 2-'
_chemical_name_systematic        
"1,1'-(Hydrazine-1,2-diylidenebis(2-phenyleth-1-yl-2-ylidene))bis-1H-imidazol-3-ium but-2-enedioate"
_symmetry_cell_setting           monoclinic
_symmetry_space_group_name_H-M   'P 21/n'
_symmetry_Int_Tables_number      14
_space_group_name_Hall           '-P 2yn'
loop_
_symmetry_equiv_pos_site_id
_symmetry_equiv_pos_as_xyz
1 x,y,z
2 1/2-x,1/2+y,1/2-z
3 -x,-y,-z
4 1/2+x,1/2-y,1/2+z
_cell_length_a                   14.272(6)
_cell_length_b                   4.815(2)
_cell_length_c                   17.816(7)
_cell_angle_alpha                90
_cell_angle_beta                 92.329(8)
_cell_angle_gamma                90
_cell_volume                     1223.3
_exptl_crystal_colour            yellow
_exptl_crystal_description       block
_cell_formula_units_Z            2
loop_
_atom_site_label
_atom_site_type_symbol
_atom_site_fract_x
_atom_site_fract_y
_atom_site_fract_z
N1 N 0.4764(4) 0.0869(10) 0.4739(2)
N2 N 0.3407(4) 0.1302(11) 0.6131(3)
N3 N 0.3908(6) 0.3224(16) 0.7175(4)
C1 C 0.4064(6) 0.1323(17) 0.6679(4)
C2 C 0.3098(8) 0.4503(19) 0.6931(5)
C3 C 0.2760(6) 0.3350(15) 0.6277(4)
C4 C 0.3394(5) -0.0421(14) 0.5455(4)
C5 C 0.3879(5) 0.1078(13) 0.4835(3)
C6 C 0.3346(5) 0.2903(13) 0.4311(3)
C7 C 0.3812(6) 0.4684(14) 0.3847(4)
C8 C 0.3329(7) 0.6387(18) 0.3340(4)
C9 C 0.2369(7) 0.6352(18) 0.3293(5)
C10 C 0.1893(7) 0.4632(19) 0.3764(5)
C11 C 0.2373(6) 0.2940(18) 0.4261(5)
H1 H 0.461(4) 0.003(12) 0.670(3)
H2 H 0.415(11) 0.35(3) 0.781(9)
H3 H 0.283(7) 0.60(2) 0.715(5)
H4 H 0.222(7) 0.42(2) 0.582(6)
H5 H 0.379(4) -0.209(14) 0.565(3)
H6 H 0.266(4) -0.050(10) 0.529(3)
H7 H 0.448(5) 0.483(12) 0.387(3)
H8 H 0.375(6) 0.74(2) 0.309(5)
H9 H 0.206(5) 0.770(18) 0.291(5)
H10 H 0.124(5) 0.466(15) 0.366(4)
H11 H 0.208(4) 0.170(14) 0.456(3)
N1B N 0.5236(4) -0.0869(10) 0.5261(2)
N2B N 0.6593(4) -0.1302(11) 0.3869(3)
N3B N 0.6092(6) -0.3224(16) 0.2825(4)
C1B C 0.5936(6) -0.1323(17) 0.3321(4)
C2B C 0.6902(8) -0.4503(19) 0.3069(5)
C3B C 0.7240(6) -0.3350(15) 0.3723(4)
C4B C 0.6606(5) 0.0421(14) 0.4545(4)
C5B C 0.6121(5) -0.1078(13) 0.5165(3)
C6B C 0.6654(5) -0.2903(13) 0.5689(3)
C7B C 0.6188(6) -0.4684(14) 0.6153(4)
C8B C 0.6671(7) -0.6387(18) 0.6660(4)
C9B C 0.7631(7) -0.6352(18) 0.6707(5)
C10B C 0.8107(7) -0.4632(19) 0.6236(5)
C11B C 0.7627(6) -0.2940(18) 0.5739(5)
H1B H 0.539(4) -0.003(12) 0.330(3)
H2B H 0.585(11) -0.35(3) 0.219(9)
H3B H 0.717(7) -0.60(2) 0.285(5)
H4B H 0.778(7) -0.42(2) 0.418(6)
H5B H 0.621(4) 0.209(14) 0.435(3)
H6B H 0.734(4) 0.050(10) 0.471(3)
H7B H 0.552(5) -0.483(12) 0.613(3)
H8B H 0.625(6) -0.74(2) 0.691(5)
H9B H 0.794(5) -0.770(18) 0.709(5)
H10B H 0.876(5) -0.466(15) 0.634(4)
H11B H 0.792(4) -0.170(14) 0.544(3)
O1 O 0.8809(4) 0.2046(15) 0.4073(3)
O2 O 0.9849(4) 0.0145(13) 0.3374(3)
C12 C 0.9514(5) 0.0763(18) 0.4012(4)
C13 C 1.0067(5) -0.0348(19) 0.4664(4)
H12 H 1.051(6) -0.18(2) 0.453(5)
O1B O 1.1191(4) -0.2046(15) 0.5927(3)
O2B O 1.0151(4) -0.0145(13) 0.6626(3)
C12B C 1.0486(5) -0.0763(18) 0.5988(4)
C13B C 0.9933(5) 0.0348(19) 0.5336(4)
H12B H 0.949(6) 0.18(2) 0.547(5)
loop_
_geom_bond_atom_site_label_1
_geom_bond_atom_site_label_2
_geom_bond_site_symmetry_1
_geom_bond_site_symmetry_2
N1 C5 1_555 1_555
N2 C1 1_555 1_555
N3 C1 1_555 1_555
O1 C12 1_555 1_555
O2 C12 1_555 1_555
C1 H1 1_555 1_555
C2 N3 1_555 1_555
C3 N2 1_555 1_555
C4 N2 1_555 1_555
C5 C4 1_555 1_555
C6 C5 1_555 1_555
C7 C6 1_555 1_555
C8 C7 1_555 1_555
C9 C8 1_555 1_555
C10 C9 1_555 1_555
C11 C6 1_555 1_555
C12 C13 1_555 1_555
C13 H12 1_555 1_555
H2 N3 1_555 1_555
H3 C2 1_555 1_555
H4 C3 1_555 1_555
H5 C4 1_555 1_555
H6 C4 1_555 1_555
H7 C7 1_555 1_555
H8 C8 1_555 1_555
H9 C9 1_555 1_555
H10 C10 1_555 1_555
H11 C11 1_555 1_555
N1B N1 1_555 1_555
N2B C1B 1_555 1_555
N3B C1B 1_555 1_555
O1B C12B 1_555 1_555
O2B C12B 1_555 1_555
C1B H1B 1_555 1_555
C2B N3B 1_555 1_555
C3B N2B 1_555 1_555
C4B N2B 1_555 1_555
C5B N1B 1_555 1_555
C6B C5B 1_555 1_555
C7B C6B 1_555 1_555
C8B C7B 1_555 1_555
C9B C8B 1_555 1_555
C10B C9B 1_555 1_555
C11B C6B 1_555 1_555
C12B C13B 1_555 1_555
C13B C13 1_555 1_555
H2B N3B 1_555 1_555
H3B C2B 1_555 1_555
H4B C3B 1_555 1_555
H5B C4B 1_555 1_555
H6B C4B 1_555 1_555
H7B C7B 1_555 1_555
H8B C8B 1_555 1_555
H9B C9B 1_555 1_555
H10B C10B 1_555 1_555
H11B C11B 1_555 1_555
H12B C13B 1_555 1_555
C2 C3 1_555 1_555
C10 C11 1_555 1_555
C2B C3B 1_555 1_555
C4B C5B 1_555 1_555
C10B C11B 1_555 1_555

#END
