
#######################################################################
#
#                 Cambridge Crystallographic Data Centre
#                                CCDC 
#
#######################################################################
#
# If this CIF has been generated from an entry in the Cambridge 
# Structural Database, then it will include bibliographic, chemical, 
# crystal, experimental, refinement or atomic coordinate data resulting 
# from the CCDC's data processing and validation procedures.
#
#######################################################################

data_DAVXUW
_chemical_formula_moiety         'C23 H35 N3 O2 S1'
_chemical_name_systematic        
5-(2,6-dimethyl-1-octylpyridin-4(1H)-ylidene)-1,3-diethyl-2-sulfanylidenedihydropyrimidine-4,6(1H,5H)-dione
_symmetry_cell_setting           monoclinic
_symmetry_space_group_name_H-M   'P 21/n'
_symmetry_Int_Tables_number      14
_space_group_name_Hall           '-P 2yn'
loop_
_symmetry_equiv_pos_site_id
_symmetry_equiv_pos_as_xyz
1 x,y,z
2 1/2-x,1/2+y,1/2-z
3 -x,-y,-z
4 1/2+x,1/2-y,1/2+z
_cell_length_a                   9.2082(16)
_cell_length_b                   12.659(2)
_cell_length_c                   19.962(3)
_cell_angle_alpha                90
_cell_angle_beta                 103.023(3)
_cell_angle_gamma                90
_cell_volume                     2267.05
_exptl_crystal_colour            colorless
_exptl_crystal_description       prismatic
_cell_formula_units_Z            4
loop_
_atom_site_label
_atom_site_type_symbol
_atom_site_fract_x
_atom_site_fract_y
_atom_site_fract_z
S1 S 1.25382(4) 0.52769(3) 1.21090(2)
N1 N 1.04206(14) 0.42458(10) 1.12137(7)
N2 N 1.04175(14) 0.60729(10) 1.10960(7)
N3 N 0.44373(14) 0.48647(11) 0.87526(7)
O1 O 0.85737(14) 0.32164(9) 1.06121(7)
O2 O 0.85997(14) 0.69372(9) 1.03474(7)
C1 C 1.10643(16) 0.51950(12) 1.14405(8)
C2 C 0.90766(17) 0.41247(12) 1.07018(9)
C3 C 0.84140(17) 0.50571(11) 1.03563(8)
C4 C 0.90883(18) 0.60651(12) 1.05664(8)
C5 C 1.10650(18) 0.71305(12) 1.12978(9)
H1 H 1.0854 0.7603 1.0892
H2 H 1.2160 0.7066 1.1456
C6 C 1.0433(2) 0.76148(14) 1.18667(10)
H3 H 0.9359 0.7729 1.1700
H4 H 1.0925 0.8292 1.2005
H5 H 1.0607 0.7136 1.2263
C7 C 1.10817(18) 0.32558(12) 1.15439(9)
H6 H 1.2178 0.3337 1.1685
H7 H 1.0864 0.2672 1.1206
C8 C 1.0482(2) 0.29732(14) 1.21679(10)
H8 H 1.0686 0.3552 1.2502
H9 H 1.0967 0.2327 1.2378
H10 H 0.9403 0.2858 1.2027
C9 C 0.70758(17) 0.49918(12) 0.98115(8)
C10 C 0.63586(17) 0.40202(12) 0.95785(8)
H11 H 0.6780 0.3382 0.9786
C11 C 0.50868(18) 0.39646(13) 0.90675(9)
C12 C 0.50997(17) 0.58226(13) 0.89424(9)
C13 C 0.63679(17) 0.58882(12) 0.94549(8)
H12 H 0.6792 0.6565 0.9577
C14 C 0.4376(2) 0.29102(14) 0.88562(10)
H13 H 0.3432 0.2860 0.9002
H14 H 0.5046 0.2345 0.9073
H15 H 0.4188 0.2839 0.8355
C15 C 0.4396(2) 0.68089(14) 0.85948(10)
H16 H 0.4198 0.6717 0.8095
H17 H 0.5074 0.7407 0.8730
H18 H 0.3457 0.6946 0.8733
C16 C 0.30678(18) 0.48030(15) 0.81918(9)
H19 H 0.2465 0.5449 0.8200
H20 H 0.2465 0.4190 0.8276
C17 C 0.34125(18) 0.46924(14) 0.74851(9)
H21 H 0.4005 0.4043 0.7473
H22 H 0.4019 0.5303 0.7400
C18 C 0.19963(19) 0.46391(16) 0.69201(9)
H23 H 0.1393 0.5251 0.6943
H24 H 0.1451 0.4071 0.6977
C19 C 0.2418(7) 0.4608(4) 0.6215(4)
H25 H 0.3081 0.5212 0.6184
H26 H 0.2984 0.3952 0.6184
C20 C 0.1102(4) 0.4649(3) 0.5616(2)
H27 H 0.0573 0.5327 0.5630
H28 H 0.0407 0.4072 0.5663
C21 C 0.1511(5) 0.4547(3) 0.4924(2)
H29 H 0.0585 0.4435 0.4568
H30 H 0.2137 0.3909 0.4933
C22 C 0.2343(5) 0.5489(3) 0.4710(2)
H31 H 0.3325 0.5559 0.5034
H32 H 0.1770 0.6143 0.4740
C23 C 0.2574(7) 0.5374(5) 0.3977(3)
H33 H 0.3154 0.4733 0.3946
H34 H 0.3114 0.5991 0.3862
H35 H 0.1604 0.5323 0.3653
H36? H 0.1547 0.5327 0.6866
H37? H 0.1321 0.4159 0.7066
C24? C 0.2201(7) 0.4264(4) 0.6213(4)
H38? H 0.2850 0.3631 0.6276
H39? H 0.1219 0.4058 0.5926
C25? C 0.2892(5) 0.5119(3) 0.58354(19)
H40? H 0.2267 0.5762 0.5789
H41? H 0.3893 0.5303 0.6112
C26? C 0.3029(5) 0.4756(3) 0.51235(19)
H42? H 0.3778 0.4182 0.5179
H43? H 0.2061 0.4456 0.4880
C27? C 0.3471(6) 0.5610(3) 0.4680(2)
H44? H 0.2779 0.6215 0.4655
H45? H 0.4486 0.5862 0.4895
C28? C 0.3446(7) 0.5231(4) 0.3963(3)
H46? H 0.4142 0.4639 0.3984
H47? H 0.3743 0.5808 0.3696
H48? H 0.2437 0.4997 0.3743
loop_
_geom_bond_atom_site_label_1
_geom_bond_atom_site_label_2
_geom_bond_site_symmetry_1
_geom_bond_site_symmetry_2
S1 C1 1_555 1_555
N1 C1 1_555 1_555
N2 C1 1_555 1_555
N3 C11 1_555 1_555
O1 C2 1_555 1_555
O2 C4 1_555 1_555
C2 N1 1_555 1_555
C3 C2 1_555 1_555
C4 N2 1_555 1_555
C5 N2 1_555 1_555
H1 C5 1_555 1_555
H2 C5 1_555 1_555
C6 C5 1_555 1_555
H3 C6 1_555 1_555
H4 C6 1_555 1_555
H5 C6 1_555 1_555
C7 N1 1_555 1_555
H6 C7 1_555 1_555
H7 C7 1_555 1_555
C8 C7 1_555 1_555
H8 C8 1_555 1_555
H9 C8 1_555 1_555
H10 C8 1_555 1_555
C9 C3 1_555 1_555
C10 C9 1_555 1_555
H11 C10 1_555 1_555
C11 C10 1_555 1_555
C12 N3 1_555 1_555
C13 C9 1_555 1_555
H12 C13 1_555 1_555
C14 C11 1_555 1_555
H13 C14 1_555 1_555
H14 C14 1_555 1_555
H15 C14 1_555 1_555
C15 C12 1_555 1_555
H16 C15 1_555 1_555
H17 C15 1_555 1_555
H18 C15 1_555 1_555
C16 N3 1_555 1_555
H19 C16 1_555 1_555
H20 C16 1_555 1_555
C17 C16 1_555 1_555
H21 C17 1_555 1_555
H22 C17 1_555 1_555
C18 C17 1_555 1_555
H23 C18 1_555 1_555
H24 C18 1_555 1_555
C19 C18 1_555 1_555
H25 C19 1_555 1_555
H26 C19 1_555 1_555
C20 C19 1_555 1_555
H27 C20 1_555 1_555
H28 C20 1_555 1_555
C21 C20 1_555 1_555
H29 C21 1_555 1_555
H30 C21 1_555 1_555
C22 C21 1_555 1_555
H31 C22 1_555 1_555
H32 C22 1_555 1_555
C23 C22 1_555 1_555
H33 C23 1_555 1_555
H34 C23 1_555 1_555
H35 C23 1_555 1_555
C3 C4 1_555 1_555
C12 C13 1_555 1_555

#END
