
#######################################################################
#
#                 Cambridge Crystallographic Data Centre
#                                CCDC 
#
#######################################################################
#
# If this CIF has been generated from an entry in the Cambridge 
# Structural Database, then it will include bibliographic, chemical, 
# crystal, experimental, refinement or atomic coordinate data resulting 
# from the CCDC's data processing and validation procedures.
#
#######################################################################

data_DAWKOD
_chemical_formula_moiety         'C21 H27 N7,C4 H4 O4'
_chemical_name_systematic        
"4-Methyl-6-(1'-(5-methylpyrazin-2-yl)-4,4'-bipiperidin-1-yl)pyrimidine-2-carbonitrile maleic acid solvate"
_symmetry_cell_setting           monoclinic
_symmetry_space_group_name_H-M   'P 2/c'
_symmetry_Int_Tables_number      13
_space_group_name_Hall           '-P 2yc'
loop_
_symmetry_equiv_pos_site_id
_symmetry_equiv_pos_as_xyz
1 x,y,z
2 -x,y,1/2-z
3 -x,-y,-z
4 x,-y,1/2+z
_cell_length_a                   21.5550(3)
_cell_length_b                   15.58596(18)
_cell_length_c                   15.0489(2)
_cell_angle_alpha                90
_cell_angle_beta                 100.2339(13)
_cell_angle_gamma                90
_cell_volume                     4975.32
_exptl_crystal_colour            colorless
_cell_formula_units_Z            8
loop_
_atom_site_label
_atom_site_type_symbol
_atom_site_fract_x
_atom_site_fract_y
_atom_site_fract_z
C1 C 0.58506(5) 0.74345(7) 0.84183(7)
C2 C 0.49059(5) 0.74356(7) 0.88844(7)
C3 C 0.53029(5) 0.61278(7) 0.86449(7)
C4 C 0.58086(5) 0.65259(7) 0.83829(8)
H1 H 0.6127 0.6197 0.8180
C5 C 0.43889(5) 0.79365(7) 0.91282(8)
C6 C 0.52431(6) 0.51761(7) 0.86756(9)
H2 H 0.5341 0.4981 0.9304
H3 H 0.5538 0.4912 0.8330
H4 H 0.4811 0.5009 0.8413
C7 C 0.68737(6) 0.74758(8) 0.79019(9)
H5 H 0.6826 0.7565 0.7242
H6 H 0.6866 0.6850 0.8014
C8 C 0.75037(5) 0.78366(7) 0.83602(9)
H7 H 0.7845 0.7575 0.8089
H8 H 0.7576 0.7684 0.9009
C9 C 0.75260(5) 0.88135(7) 0.82624(8)
H9 H 0.7450 0.8948 0.7602
C10 C 0.69737(6) 0.91864(7) 0.86541(9)
H10 H 0.7035 0.9057 0.9308
H11 H 0.6969 0.9818 0.8583
C11 C 0.63459(6) 0.88240(7) 0.81922(9)
H12 H 0.6006 0.9050 0.8490
H13 H 0.6260 0.9012 0.7554
C12 C 0.81631(5) 0.92105(7) 0.86833(8)
H14 H 0.8222 0.9134 0.9353
C13 C 0.87160(5) 0.87809(7) 0.83515(9)
H15 H 0.8728 0.8167 0.8523
H16 H 0.8647 0.8812 0.7684
C14 C 0.93492(5) 0.91874(7) 0.87308(9)
H17 H 0.9453 0.9074 0.9388
H18 H 0.9681 0.8920 0.8444
C15 C 0.88211(5) 1.05703(7) 0.88703(9)
H19 H 0.8823 1.1177 0.8676
H20 H 0.8881 1.0560 0.9538
C16 C 0.81916(5) 1.01714(7) 0.84850(9)
H21 H 0.8105 1.0259 0.7823
H22 H 0.7857 1.0468 0.8740
C17 C 0.99138(5) 1.05367(7) 0.86573(7)
C18 C 1.04915(6) 1.00939(8) 0.87203(8)
H23 H 1.0491 0.9484 0.8718
C19 C 1.10411(6) 1.13700(7) 0.87788(8)
C20 C 1.04682(6) 1.17939(8) 0.87240(9)
H24 H 1.0471 1.2403 0.8724
C21 C 1.16670(6) 1.18086(8) 0.88521(9)
H25 H 1.1979 1.1512 0.9301
H26 H 1.1629 1.2406 0.9039
H27 H 1.1803 1.1795 0.8264
N1 N 0.53704(4) 0.78960(6) 0.86643(6)
N2 N 0.48318(4) 0.65929(6) 0.89094(6)
N3 N 0.39768(5) 0.83146(7) 0.93187(8)
N4 N 0.63435(5) 0.78807(6) 0.82288(7)
N5 N 0.93452(4) 1.01144(6) 0.85750(7)
N6 N 1.10350(4) 1.05078(6) 0.87827(7)
N7 N 0.99140(5) 1.13982(6) 0.86711(7)
C22 C 0.34775(5) 0.53907(7) 0.89204(8)
C23 C 0.30229(5) 0.48818(7) 0.93550(8)
H28 H 0.2670 0.5178 0.9504
C24 C 0.30722(5) 0.40511(7) 0.95489(8)
H29 H 0.2754 0.3784 0.9815
C25 C 0.36107(5) 0.35267(7) 0.93621(7)
O1 O 0.38885(4) 0.58085(5) 0.95140(6)
H30 H 0.4162 0.6033 0.9253
O2 O 0.34353(4) 0.54513(6) 0.81117(6)
O3 O 0.40797(4) 0.38355(5) 0.91470(6)
O4 O 0.35160(4) 0.26947(5) 0.94489(6)
H31 H 0.3824 0.2421 0.9320
C26 C 0.94635(5) 1.47849(7) 0.84411(8)
C27 C 1.04968(5) 1.47592(7) 0.90913(8)
C28 C 1.00626(6) 1.60766(8) 0.88050(9)
C29 C 0.95032(6) 1.56936(8) 0.84587(9)
H32 H 0.9143 1.6032 0.8231
C30 C 1.10512(6) 1.42550(8) 0.94787(8)
C31 C 1.01415(7) 1.70300(9) 0.88598(14)
H33 H 0.9746 1.7308 0.8582
H34 H 1.0479 1.7203 0.8539
H35 H 1.0250 1.7204 0.9494
C32 C 0.83290(6) 1.47848(8) 0.77760(10)
H36 H 0.8235 1.4739 0.7109
H37 H 0.8362 1.5401 0.7936
C33 C 0.77960(5) 1.43830(7) 0.81693(9)
H38 H 0.7395 1.4672 0.7913
H39 H 0.7874 1.4473 0.8831
C34 C 0.77347(5) 1.34215(7) 0.79697(8)
H40 H 0.7645 1.3347 0.7299
C35 C 0.83767(6) 1.30050(7) 0.83309(9)
H41 H 0.8460 1.3041 0.8998
H42 H 0.8358 1.2390 0.8163
C36 C 0.89180(6) 1.34237(8) 0.79708(10)
H43 H 0.9321 1.3171 0.8275
H44 H 0.8874 1.3306 0.7316
C37 C 0.72024(5) 1.29815(7) 0.83565(8)
H45 H 0.7351 1.2896 0.9019
C38 C 0.65890(6) 1.34906(7) 0.82340(9)
H46 H 0.6671 1.4062 0.8518
H47 H 0.6430 1.3577 0.7582
C39 C 0.60899(6) 1.30317(7) 0.86534(10)
H48 H 0.6224 1.3024 0.9318
H49 H 0.5691 1.3359 0.8516
C40 C 0.65425(6) 1.16274(7) 0.83392(8)
H50 H 0.6426 1.1092 0.7995
H51 H 0.6721 1.1467 0.8969
C41 C 0.70401(6) 1.21014(7) 0.79295(9)
H52 H 0.6886 1.2176 0.7274
H53 H 0.7428 1.1748 0.8005
C42 C 0.54554(5) 1.17337(7) 0.85426(7)
C43 C 0.49316(5) 1.21865(7) 0.87562(8)
H54 H 0.4936 1.2796 0.8753
C44 C 0.44219(6) 1.09184(8) 0.89497(9)
C45 C 0.49347(6) 1.04862(8) 0.87282(9)
H55 H 0.4921 0.9877 0.8711
C46 C 0.38508(7) 1.04849(8) 0.91844(11)
H56 H 0.3854 1.0541 0.9834
H57 H 0.3856 0.9876 0.9024
H58 H 0.3469 1.0755 0.8849
N8 N 0.99860(4) 1.43125(6) 0.87715(7)
N9 N 1.05861(5) 1.56010(6) 0.91327(7)
N10 N 1.14896(5) 1.38732(7) 0.97943(8)
N11 N 0.89311(5) 1.43571(6) 0.81208(8)
N12 N 0.59747(5) 1.21499(6) 0.83313(7)
N13 N 0.44361(5) 1.17825(6) 0.89596(7)
N14 N 0.54480(5) 1.08743(6) 0.85371(7)
C47 C 1.18432(5) 1.68159(7) 0.87954(8)
C48 C 1.24361(5) 1.73217(7) 0.90602(8)
H59 H 1.2823 1.7015 0.9137
C49 C 1.24696(5) 1.81606(7) 0.91972(8)
H60 H 1.2874 1.8418 0.9352
C50 C 1.19054(5) 1.87151(7) 0.91198(8)
O5 O 1.17177(4) 1.63480(5) 0.94737(6)
H61 H 1.1365 1.6110 0.9322
O6 O 1.15415(4) 1.68074(5) 0.80364(6)
O7 O 1.13747(4) 1.84454(5) 0.90997(6)
O8 O 1.20547(4) 1.95384(5) 0.90696(6)
H62 H 1.1724 1.9834 0.8970
loop_
_geom_bond_atom_site_label_1
_geom_bond_atom_site_label_2
_geom_bond_site_symmetry_1
_geom_bond_site_symmetry_2
C1 C4 1_555 1_555
C2 C5 1_555 1_555
C3 C4 1_555 1_555
C4 H1 1_555 1_555
C5 N3 1_555 1_555
C6 C3 1_555 1_555
H2 C6 1_555 1_555
H3 C6 1_555 1_555
H4 C6 1_555 1_555
C7 H5 1_555 1_555
H6 C7 1_555 1_555
C8 C7 1_555 1_555
H7 C8 1_555 1_555
H8 C8 1_555 1_555
C9 C8 1_555 1_555
H9 C9 1_555 1_555
C10 C9 1_555 1_555
H10 C10 1_555 1_555
H11 C10 1_555 1_555
C11 C10 1_555 1_555
H12 C11 1_555 1_555
H13 C11 1_555 1_555
C12 C9 1_555 1_555
H14 C12 1_555 1_555
C13 C12 1_555 1_555
H15 C13 1_555 1_555
H16 C13 1_555 1_555
C14 C13 1_555 1_555
H17 C14 1_555 1_555
H18 C14 1_555 1_555
C15 H19 1_555 1_555
H20 C15 1_555 1_555
C16 C12 1_555 1_555
H21 C16 1_555 1_555
H22 C16 1_555 1_555
C17 C18 1_555 1_555
C18 H23 1_555 1_555
C19 C20 1_555 1_555
C20 H24 1_555 1_555
C21 C19 1_555 1_555
H25 C21 1_555 1_555
H26 C21 1_555 1_555
H27 C21 1_555 1_555
N1 C1 1_555 1_555
N2 C2 1_555 1_555
N4 C1 1_555 1_555
N5 C14 1_555 1_555
N6 C18 1_555 1_555
N7 C17 1_555 1_555
C22 C23 1_555 1_555
C23 H28 1_555 1_555
C24 C23 1_555 1_555
H29 C24 1_555 1_555
C25 C24 1_555 1_555
O1 C22 1_555 1_555
H30 O1 1_555 1_555
O2 C22 1_555 1_555
O3 C25 1_555 1_555
O4 C25 1_555 1_555
H31 O4 1_555 1_555
C26 C29 1_555 1_555
C27 C30 1_555 1_555
C28 C29 1_555 1_555
C29 H32 1_555 1_555
C30 N10 1_555 1_555
C31 C28 1_555 1_555
H33 C31 1_555 1_555
H34 C31 1_555 1_555
H35 C31 1_555 1_555
C32 H36 1_555 1_555
H37 C32 1_555 1_555
C33 C32 1_555 1_555
H38 C33 1_555 1_555
H39 C33 1_555 1_555
C34 C33 1_555 1_555
H40 C34 1_555 1_555
C35 C34 1_555 1_555
H41 C35 1_555 1_555
H42 C35 1_555 1_555
C36 C35 1_555 1_555
H43 C36 1_555 1_555
H44 C36 1_555 1_555
C37 C34 1_555 1_555
H45 C37 1_555 1_555
C38 C37 1_555 1_555
H46 C38 1_555 1_555
H47 C38 1_555 1_555
C39 C38 1_555 1_555
H48 C39 1_555 1_555
H49 C39 1_555 1_555
C40 H50 1_555 1_555
H51 C40 1_555 1_555
C41 C37 1_555 1_555
H52 C41 1_555 1_555
H53 C41 1_555 1_555
C42 C43 1_555 1_555
C43 H54 1_555 1_555
C44 C45 1_555 1_555
C45 H55 1_555 1_555
C46 C44 1_555 1_555
H56 C46 1_555 1_555
H57 C46 1_555 1_555
H58 C46 1_555 1_555
N8 C26 1_555 1_555
N9 C27 1_555 1_555
N11 C26 1_555 1_555
N12 C39 1_555 1_555
N13 C43 1_555 1_555
N14 C42 1_555 1_555
C47 C48 1_555 1_555
C48 H59 1_555 1_555
C49 C48 1_555 1_555
H60 C49 1_555 1_555
C50 C49 1_555 1_555
O5 C47 1_555 1_555
H61 O5 1_555 1_555
O6 C47 1_555 1_555
O7 C50 1_555 1_555
O8 C50 1_555 1_555
H62 O8 1_555 1_555
C2 N1 1_555 1_555
C3 N2 1_555 1_555
C7 N4 1_555 1_555
C11 N4 1_555 1_555
C15 C16 1_555 1_555
C15 N5 1_555 1_555
C17 N5 1_555 1_555
C19 N6 1_555 1_555
C20 N7 1_555 1_555
C27 N8 1_555 1_555
C28 N9 1_555 1_555
C32 N11 1_555 1_555
C36 N11 1_555 1_555
C40 C41 1_555 1_555
C40 N12 1_555 1_555
C42 N12 1_555 1_555
C44 N13 1_555 1_555
C45 N14 1_555 1_555

#END
