
#######################################################################
#
#                 Cambridge Crystallographic Data Centre
#                                CCDC 
#
#######################################################################
#
# If this CIF has been generated from an entry in the Cambridge 
# Structural Database, then it will include bibliographic, chemical, 
# crystal, experimental, refinement or atomic coordinate data resulting 
# from the CCDC's data processing and validation procedures.
#
#######################################################################

data_DAWLOF
_chemical_formula_moiety         'C18 H25 N3'
_chemical_name_systematic        
(2,6-dimethyl-1-octylpyridin-4(1H)-ylidene)malononitrile
_symmetry_cell_setting           monoclinic
_symmetry_space_group_name_H-M   'P c'
_symmetry_Int_Tables_number      7
_space_group_name_Hall           'P -2yc'
loop_
_symmetry_equiv_pos_site_id
_symmetry_equiv_pos_as_xyz
1 x,y,z
2 x,-y,1/2+z
_cell_length_a                   9.3267(14)
_cell_length_b                   14.003(2)
_cell_length_c                   14.7925(18)
_cell_angle_alpha                90
_cell_angle_beta                 120.492(7)
_cell_angle_gamma                90
_cell_volume                     1664.74
_exptl_crystal_description       Block
_cell_formula_units_Z            4
loop_
_atom_site_label
_atom_site_type_symbol
_atom_site_fract_x
_atom_site_fract_y
_atom_site_fract_z
N1 N -0.08161(15) 0.16106(10) 0.41130(10)
N2 N -0.78194(19) 0.02134(13) 0.18117(12)
N3 N -0.74743(19) 0.33436(12) 0.23231(12)
C1 C -0.0858(2) -0.01590(14) 0.40592(15)
H1 H -0.1654 -0.0662 0.3721
H2 H -0.0303 -0.0243 0.4806
H3 H -0.0055 -0.0177 0.3836
C2 C -0.1731(2) 0.07814(12) 0.37717(12)
C3 C -0.3431(2) 0.08275(12) 0.31954(12)
H4 H -0.4035 0.0263 0.2958
C4 C -0.4293(2) 0.17003(12) 0.29511(11)
C5 C -0.32948(19) 0.25315(12) 0.32884(12)
H5 H -0.3805 0.3127 0.3120
C6 C -0.1598(2) 0.24801(12) 0.38560(12)
C7 C -0.0572(2) 0.33788(13) 0.42129(14)
H6 H -0.1290 0.3924 0.3928
H7 H 0.0210 0.3375 0.3973
H8 H 0.0017 0.3410 0.4965
C8 C -0.6060(2) 0.17483(13) 0.24241(12)
C9 C -0.70402(19) 0.09054(14) 0.20836(12)
C10 C -0.68650(19) 0.26210(15) 0.23445(12)
C11 C 0.10324(19) 0.15446(12) 0.47279(12)
H9 H 0.1348 0.0971 0.5154
H10 H 0.1469 0.2088 0.5198
C12 C 0.1820(2) 0.15217(13) 0.40445(12)
H11 H 0.1784 0.2155 0.3769
H12 H 0.1193 0.1094 0.3456
C13 C 0.3628(2) 0.11823(14) 0.46811(13)
H13 H 0.4225 0.1403 0.4341
H14 H 0.4148 0.1469 0.5373
C14 C 0.3789(2) 0.01023(15) 0.47964(13)
H15 H 0.3205 -0.0188 0.4106
H16 H 0.3263 -0.0115 0.5182
C15 C 0.5599(2) -0.02259(15) 0.53666(13)
H17 H 0.6145 0.0040 0.5014
H18 H 0.6155 0.0026 0.6075
C16 C 0.5804(2) -0.13031(15) 0.54181(14)
H19 H 0.5277 -0.1570 0.5783
H20 H 0.5235 -0.1557 0.4710
C17 C 0.7609(3) -0.16180(16) 0.59713(18)
H21 H 0.8138 -0.1344 0.5611
H22 H 0.8174 -0.1368 0.6681
C18 C 0.7827(3) -0.26905(19) 0.6017(2)
H23 H 0.7306 -0.2968 0.6372
H24 H 0.8991 -0.2843 0.6391
H25 H 0.7321 -0.2941 0.5317
N4 N 0.93829(16) 0.33199(10) 0.68433(10)
N5 N 1.6222(2) 0.47668(14) 0.81920(14)
N6 N 1.5816(2) 0.16691(13) 0.76747(15)
C19 C 0.9138(2) 0.15589(14) 0.66543(15)
H26 H 0.8758 0.1481 0.7144
H27 H 0.9822 0.1025 0.6707
H28 H 0.8198 0.1594 0.5955
C20 C 1.01317(19) 0.24593(12) 0.68995(12)
C21 C 1.17736(19) 0.24334(13) 0.71799(12)
H29 H 1.2270 0.1846 0.7226
C22 C 1.2737(2) 0.32732(12) 0.74015(12)
C23 C 1.1900(2) 0.41357(13) 0.73084(12)
H30 H 1.2477 0.4708 0.7438
C24 C 1.02645(19) 0.41554(12) 0.70326(11)
C25 C 0.9406(2) 0.50824(14) 0.69308(15)
H31 H 1.0167 0.5599 0.7067
H32 H 0.9031 0.5103 0.7427
H33 H 0.8469 0.5142 0.6233
C26 C 1.4441(2) 0.32457(13) 0.76975(12)
C27 C 1.5417(2) 0.40896(15) 0.79699(13)
C28 C 1.5214(2) 0.23770(14) 0.77014(13)
C29 C 0.76106(19) 0.33584(13) 0.65600(12)
H34 H 0.7455 0.3896 0.6915
H35 H 0.7341 0.2781 0.6805
C30 C 0.6420(2) 0.34578(14) 0.53796(12)
H36 H 0.6334 0.2850 0.5042
H37 H 0.6862 0.3922 0.5098
C31 C 0.4679(2) 0.37757(14) 0.51319(13)
H38 H 0.3875 0.3598 0.4415
H39 H 0.4393 0.3437 0.5591
C32 C 0.45481(19) 0.48434(14) 0.52625(13)
H40 H 0.4846 0.5187 0.4812
H41 H 0.5330 0.5023 0.5982
C33 C 0.2795(2) 0.51295(13) 0.49891(13)
H42 H 0.2008 0.4862 0.4310
H43 H 0.2564 0.4849 0.5501
C34 C 0.2508(2) 0.61911(15) 0.49565(13)
H44 H 0.2761 0.6479 0.4457
H45 H 0.3264 0.6460 0.5642
C35 C 0.0720(2) 0.64427(15) 0.46482(14)
H46 H -0.0036 0.6127 0.3992
H47 H 0.0502 0.6197 0.5180
C36 C 0.0363(3) 0.75002(16) 0.45241(16)
H48 H 0.1064 0.7816 0.5181
H49 H -0.0783 0.7607 0.4311
H50 H 0.0579 0.7751 0.4001
loop_
_geom_bond_atom_site_label_1
_geom_bond_atom_site_label_2
_geom_bond_site_symmetry_1
_geom_bond_site_symmetry_2
N1 C2 1_555 1_555
N2 C9 1_555 1_555
N3 C10 1_555 1_555
C1 H1 1_555 1_555
H2 C1 1_555 1_555
H3 C1 1_555 1_555
C2 C1 1_555 1_555
C3 C2 1_555 1_555
H4 C3 1_555 1_555
C4 C3 1_555 1_555
C5 C4 1_555 1_555
H5 C5 1_555 1_555
C6 N1 1_555 1_555
C7 C6 1_555 1_555
H6 C7 1_555 1_555
H7 C7 1_555 1_555
H8 C7 1_555 1_555
C8 C4 1_555 1_555
C9 C8 1_555 1_555
C10 C8 1_555 1_555
C11 N1 1_555 1_555
H9 C11 1_555 1_555
H10 C11 1_555 1_555
C12 C11 1_555 1_555
H11 C12 1_555 1_555
H12 C12 1_555 1_555
C13 C12 1_555 1_555
H13 C13 1_555 1_555
H14 C13 1_555 1_555
C14 C13 1_555 1_555
H15 C14 1_555 1_555
H16 C14 1_555 1_555
C15 C14 1_555 1_555
H17 C15 1_555 1_555
H18 C15 1_555 1_555
C16 C15 1_555 1_555
H19 C16 1_555 1_555
H20 C16 1_555 1_555
C17 C16 1_555 1_555
H21 C17 1_555 1_555
H22 C17 1_555 1_555
C18 C17 1_555 1_555
H23 C18 1_555 1_555
H24 C18 1_555 1_555
H25 C18 1_555 1_555
N4 C20 1_555 1_555
N5 C27 1_555 1_555
N6 C28 1_555 1_555
C19 H26 1_555 1_555
H27 C19 1_555 1_555
H28 C19 1_555 1_555
C20 C19 1_555 1_555
C21 C20 1_555 1_555
H29 C21 1_555 1_555
C22 C21 1_555 1_555
C23 C22 1_555 1_555
H30 C23 1_555 1_555
C24 N4 1_555 1_555
C25 C24 1_555 1_555
H31 C25 1_555 1_555
H32 C25 1_555 1_555
H33 C25 1_555 1_555
C26 C22 1_555 1_555
C27 C26 1_555 1_555
C28 C26 1_555 1_555
C29 N4 1_555 1_555
H34 C29 1_555 1_555
H35 C29 1_555 1_555
C30 C29 1_555 1_555
H36 C30 1_555 1_555
H37 C30 1_555 1_555
C31 C30 1_555 1_555
H38 C31 1_555 1_555
H39 C31 1_555 1_555
C32 C31 1_555 1_555
H40 C32 1_555 1_555
H41 C32 1_555 1_555
C33 C32 1_555 1_555
H42 C33 1_555 1_555
H43 C33 1_555 1_555
C34 C33 1_555 1_555
H44 C34 1_555 1_555
H45 C34 1_555 1_555
C35 C34 1_555 1_555
H46 C35 1_555 1_555
H47 C35 1_555 1_555
C36 C35 1_555 1_555
H48 C36 1_555 1_555
H49 C36 1_555 1_555
H50 C36 1_555 1_555
C5 C6 1_555 1_555
C23 C24 1_555 1_555

#END
