
#######################################################################
#
#                 Cambridge Crystallographic Data Centre
#                                CCDC 
#
#######################################################################
#
# If this CIF has been generated from an entry in the Cambridge 
# Structural Database, then it will include bibliographic, chemical, 
# crystal, experimental, refinement or atomic coordinate data resulting 
# from the CCDC's data processing and validation procedures.
#
#######################################################################

data_DAWQUQ
_chemical_formula_moiety         'C13 H9 N1,2(C11 H9 N1 O1),2(C6 F4 I2)'
_chemical_name_systematic        
'bis(4-phenylpyridin-1-oxide) bis(1,2,4,5-tetrafluoro-3,6-diiodobenzene) benzo[h]quinoline'
_symmetry_cell_setting           monoclinic
_symmetry_space_group_name_H-M   'P 2/n'
_symmetry_Int_Tables_number      13
_space_group_name_Hall           '-P 2yac'
loop_
_symmetry_equiv_pos_site_id
_symmetry_equiv_pos_as_xyz
1 x,y,z
2 1/2-x,y,1/2-z
3 -x,-y,-z
4 1/2+x,-y,1/2+z
_cell_length_a                   14.283(15)
_cell_length_b                   18.89(2)
_cell_length_c                   16.507(17)
_cell_angle_alpha                90
_cell_angle_beta                 101.217(17)
_cell_angle_gamma                90
_cell_volume                     4368.61
_exptl_crystal_colour            colorless
_exptl_crystal_description       plate
_cell_formula_units_Z            4
loop_
_atom_site_label
_atom_site_type_symbol
_atom_site_fract_x
_atom_site_fract_y
_atom_site_fract_z
O1 O 0.6130(5) 0.8761(3) 0.9938(3)
N2 N 0.6166(5) 0.8772(3) 0.9161(4)
C14 C 0.6481(6) 0.8154(5) 0.6204(5)
H10 H 0.6586 0.7733 0.6501
C15 C 0.6547(7) 0.8181(6) 0.5365(5)
H11 H 0.6709 0.7771 0.5114
C16 C 0.6389(8) 0.8763(6) 0.4920(6)
H12 H 0.6444 0.8755 0.4368
C17 C 0.6140(8) 0.9390(6) 0.5269(6)
H13 H 0.6020 0.9801 0.4957
C18 C 0.6077(7) 0.9378(6) 0.6122(5)
H14 H 0.5912 0.9790 0.6370
C19 C 0.6252(6) 0.8778(4) 0.6576(4)
C20 C 0.6226(5) 0.8763(4) 0.7472(4)
C21 C 0.6042(6) 0.8149(4) 0.7873(4)
H15 H 0.5953 0.7724 0.7584
C22 C 0.5991(6) 0.8164(4) 0.8704(4)
H16 H 0.5834 0.7753 0.8956
C23 C 0.6352(6) 0.9366(4) 0.8778(5)
H17 H 0.6463 0.9784 0.9077
C24 C 0.6382(6) 0.9370(4) 0.7955(4)
H18 H 0.6512 0.9793 0.7711
O2 O 0.6087(5) 0.3738(3) 0.4907(3)
N3 N 0.6146(5) 0.3745(3) 0.5716(4)
C25 C 0.6423(6) 0.3132(5) 0.8802(5)
H19 H 0.6513 0.2704 0.8550
C26 C 0.6437(6) 0.3150(5) 0.9634(5)
H20 H 0.6514 0.2731 0.9936
C27 C 0.6339(7) 0.3783(5) 1.0030(5)
H21 H 0.6369 0.3795 1.0598
C28 C 0.6200(7) 0.4382(5) 0.9579(5)
H22 H 0.6136 0.4809 0.9844
C29 C 0.6151(6) 0.4381(5) 0.8733(5)
H23 H 0.6035 0.4801 0.8437
C30 C 0.6273(6) 0.3753(4) 0.8323(4)
C31 C 0.6239(5) 0.3750(4) 0.7434(4)
C32 C 0.6123(6) 0.3125(4) 0.6966(4)
H24 H 0.6075 0.2693 0.7226
C33 C 0.6080(6) 0.3143(5) 0.6130(5)
H25 H 0.6002 0.2720 0.5838
C34 C 0.6303(6) 0.4350(4) 0.6149(4)
H26 H 0.6387 0.4770 0.5878
C35 C 0.6342(6) 0.4357(4) 0.6984(5)
H27 H 0.6443 0.4786 0.7263
N4 N 0.8948(13) 0.6249(8) 0.7548(10)
C36 C 0.7973(5) 0.6259(5) 0.7275(7)
C37 C 0.7345(7) 0.6243(5) 0.7821(5)
C38 C 0.6366(7) 0.6239(7) 0.7520(5)
C39 C 0.6015(5) 0.6253(6) 0.6674(6)
H28 H 0.5360 0.6250 0.6473
C40 C 0.6643(8) 0.6269(6) 0.6128(5)
H29 H 0.6408 0.6278 0.5562
C41 C 0.7622(7) 0.6273(7) 0.6428(7)
C42 C 0.9572(16) 0.6232(12) 0.7066(12)
H30 H 1.0219 0.6198 0.7293
C43 C 0.5727(14) 0.6286(11) 0.8112(11)
H31 H 0.5071 0.6314 0.7922
C44 C 0.9272(14) 0.6263(11) 0.6220(13)
H32 H 0.9713 0.6259 0.5874
C45 C 0.6093(16) 0.6290(10) 0.8949(11)
H33 H 0.5692 0.6320 0.9330
C46 C 0.8305(15) 0.6299(10) 0.5896(11)
H34 H 0.8096 0.6341 0.5328
C47 C 0.7066(13) 0.6248(10) 0.9205(10)
H35 H 0.7310 0.6232 0.9770
C48 C 0.7687(14) 0.6229(10) 0.8693(9)
H36 H 0.8340 0.6206 0.8905
N4A N 0.6052(13) 0.6249(8) 0.7452(10)
C36A C 0.7027(5) 0.6259(5) 0.7725(7)
C37A C 0.7655(7) 0.6243(5) 0.7179(5)
C38A C 0.8634(7) 0.6239(7) 0.7480(5)
C39A C 0.8985(5) 0.6253(6) 0.8326(6)
H28A H 0.9640 0.6250 0.8527
C40A C 0.8357(8) 0.6269(6) 0.8872(5)
H29A H 0.8592 0.6278 0.9438
C41A C 0.7378(7) 0.6273(7) 0.8572(7)
C42A C 0.5428(16) 0.6232(12) 0.7934(12)
H30A H 0.4781 0.6198 0.7707
C43A C 0.9273(14) 0.6286(11) 0.6888(11)
H31A H 0.9929 0.6314 0.7078
C44A C 0.5728(14) 0.6263(11) 0.8780(13)
H32A H 0.5287 0.6259 0.9126
C45A C 0.8907(16) 0.6290(10) 0.6051(11)
H33A H 0.9308 0.6320 0.5670
C46A C 0.6695(15) 0.6299(10) 0.9104(11)
H34A H 0.6904 0.6341 0.9672
C47A C 0.7934(13) 0.6248(10) 0.5795(10)
H35A H 0.7690 0.6232 0.5230
C48A C 0.7313(14) 0.6229(10) 0.6307(9)
H36A H 0.6660 0.6206 0.6095
I1 I 0.62583(4) 0.76073(3) 0.10245(3)
I2 I 0.62657(4) 0.49019(3) 0.39137(3)
F1 F 0.6162(4) 0.7617(2) 0.2955(3)
F2 F 0.6199(4) 0.6591(3) 0.4059(2)
F3 F 0.6323(4) 0.4898(2) 0.1976(3)
F4 F 0.6327(4) 0.5924(3) 0.0896(3)
C49 C 0.6254(5) 0.6804(4) 0.1879(4)
C50 C 0.6229(6) 0.6955(4) 0.2708(4)
C51 C 0.6213(6) 0.6428(4) 0.3265(4)
C52 C 0.6282(6) 0.5710(4) 0.3068(4)
C53 C 0.6278(6) 0.5563(4) 0.2240(4)
C54 C 0.6297(6) 0.6096(4) 0.1668(4)
I3 I 0.62550(4) -0.01054(3) 0.10402(3)
I4 I 0.62369(4) 0.25907(3) 0.39326(3)
F5 F 0.6127(4) -0.0129(2) 0.2970(2)
F6 F 0.6177(4) 0.0903(3) 0.4084(2)
F7 F 0.6371(4) 0.2594(2) 0.2019(3)
F8 F 0.6372(4) 0.1572(3) 0.0934(2)
C55 C 0.6267(5) 0.0688(4) 0.1913(4)
C56 C 0.6196(5) 0.0542(4) 0.2730(4)
C57 C 0.6232(6) 0.1071(4) 0.3296(4)
C58 C 0.6287(5) 0.1776(4) 0.3092(4)
C59 C 0.6323(6) 0.1921(4) 0.2291(4)
C60 C 0.6323(6) 0.1402(4) 0.1712(4)
N1 N 0.7538(12) 0.1264(10) 0.8632(11)
C1 C 0.938(2) 0.1226(18) 0.6925(17)
H1 H 1.0031 0.1207 0.7153
C2 C 0.573(2) 0.1277(16) 0.8199(16)
H2 H 0.5063 0.1268 0.8089
C3 C 0.9025(14) 0.1238(11) 0.6062(12)
H3 H 0.9434 0.1247 0.5687
C4 C 0.6178(19) 0.1289(15) 0.9063(15)
H4 H 0.5813 0.1291 0.9472
C5 C 0.7856(14) 0.1237(11) 0.5748(12)
H5 H 0.7607 0.1223 0.5184
C6 C 0.6916(19) 0.1296(15) 0.9217(17)
H6 H 0.7196 0.1326 0.9774
C7 C 0.7210(19) 0.1255(17) 0.6311(18)
C8 C 0.6402(11) 0.1272(8) 0.6157(8)
H7 H 0.6113 0.1285 0.5601
C9 C 0.5833(10) 0.1276(7) 0.6707(7)
H8 H 0.5177 0.1278 0.6511
C10 C 0.7719(15) 0.1263(13) 0.7181(14)
C11 C 0.708(2) 0.1288(18) 0.7798(19)
C12 C 0.870(2) 0.1245(17) 0.7391(17)
H9 H 0.8935 0.1246 0.7957
C13 C 0.6149(19) 0.1277(17) 0.7518(16)
N1A N 0.7462(12) 0.1264(10) 0.6368(11)
C1A C 0.562(2) 0.1226(18) 0.8075(17)
H1A H 0.4969 0.1207 0.7847
C2A C 0.927(2) 0.1277(16) 0.6801(16)
H2A H 0.9937 0.1268 0.6911
C3A C 0.5975(14) 0.1238(11) 0.8938(12)
H3A H 0.5566 0.1247 0.9313
C4A C 0.8822(19) 0.1289(15) 0.5937(15)
H4A H 0.9187 0.1291 0.5528
C5A C 0.7144(14) 0.1237(11) 0.9252(12)
H5A H 0.7393 0.1223 0.9816
C6A C 0.8084(19) 0.1296(15) 0.5783(17)
H6A H 0.7804 0.1326 0.5226
C7A C 0.7790(19) 0.1255(17) 0.8689(18)
C8A C 0.8598(11) 0.1272(8) 0.8843(8)
H7A H 0.8887 0.1285 0.9399
C9A C 0.9167(10) 0.1276(7) 0.8293(7)
H8A H 0.9823 0.1278 0.8489
C10A C 0.7281(15) 0.1263(13) 0.7819(14)
C11A C 0.792(2) 0.1288(18) 0.7202(19)
C12A C 0.630(2) 0.1245(17) 0.7609(17)
H9A H 0.6065 0.1246 0.7043
C13A C 0.8851(19) 0.1277(17) 0.7482(16)
loop_
_geom_bond_atom_site_label_1
_geom_bond_atom_site_label_2
_geom_bond_site_symmetry_1
_geom_bond_site_symmetry_2
N1 C6 1_555 1_555
C1 H1 1_555 1_555
H1 C2A 1_555 1_555
C2 H2 1_555 1_555
H2 C1A 1_555 1_555
C3 C1 1_555 1_555
H3 C3 1_555 1_555
C4 C2 1_555 1_555
H4 C4 1_555 1_555
C5 C3 1_555 1_555
H5 C5 1_555 1_555
C6 C4 1_555 1_555
H6 C6 1_555 1_555
C7 C5 1_555 1_555
C8 C7 1_555 1_555
H7 C8 1_555 1_555
C9 C8 1_555 1_555
H8 C9 1_555 1_555
C10 C7 1_555 1_555
C11 N1 1_555 1_555
C12 C1 1_555 1_555
H9 C12 1_555 1_555
C13 C2 1_555 1_555
O1 N2 1_555 1_555
N2 C22 1_555 1_555
C14 H10 1_555 1_555
C15 C14 1_555 1_555
H11 C15 1_555 1_555
C16 C15 1_555 1_555
H12 C16 1_555 1_555
C17 C16 1_555 1_555
H13 C17 1_555 1_555
C18 C17 1_555 1_555
H14 C18 1_555 1_555
C19 C14 1_555 1_555
C20 C19 1_555 1_555
C21 C20 1_555 1_555
H15 C21 1_555 1_555
C22 C21 1_555 1_555
H16 C22 1_555 1_555
C23 N2 1_555 1_555
H17 C23 1_555 1_555
C24 C20 1_555 1_555
H18 C24 1_555 1_555
O2 N3 1_555 1_555
N3 C33 1_555 1_555
C25 H19 1_555 1_555
C26 C25 1_555 1_555
H20 C26 1_555 1_555
C27 C26 1_555 1_555
H21 C27 1_555 1_555
C28 C27 1_555 1_555
H22 C28 1_555 1_555
C29 C28 1_555 1_555
H23 C29 1_555 1_555
C30 C25 1_555 1_555
C31 C30 1_555 1_555
C32 C31 1_555 1_555
H24 C32 1_555 1_555
C33 C32 1_555 1_555
H25 C33 1_555 1_555
C34 N3 1_555 1_555
H26 C34 1_555 1_555
C35 C31 1_555 1_555
H27 C35 1_555 1_555
N4 C36 1_555 1_555
C36 C37 1_555 1_555
C37 C38 1_555 1_555
C38 C39 1_555 1_555
C39 H28 1_555 1_555
C40 C39 1_555 1_555
H29 C40 1_555 1_555
C41 C36 1_555 1_555
C42 N4 1_555 1_555
H30 C42 1_555 1_555
C43 C38 1_555 1_555
H31 C43 1_555 1_555
C44 C42 1_555 1_555
H32 C44 1_555 1_555
C45 C43 1_555 1_555
H33 C45 1_555 1_555
C46 C41 1_555 1_555
H34 C46 1_555 1_555
C47 C45 1_555 1_555
H35 C47 1_555 1_555
C48 C37 1_555 1_555
H36 C48 1_555 1_555
I1 C49 1_555 1_555
I2 C52 1_555 1_555
F1 C50 1_555 1_555
F2 C51 1_555 1_555
F3 C53 1_555 1_555
F4 C54 1_555 1_555
C49 C50 1_555 1_555
C50 C51 1_555 1_555
C51 C52 1_555 1_555
C52 C53 1_555 1_555
C53 C54 1_555 1_555
C54 C49 1_555 1_555
I3 C55 1_555 1_555
I4 C58 1_555 1_555
F5 C56 1_555 1_555
F6 C57 1_555 1_555
F7 C59 1_555 1_555
F8 C60 1_555 1_555
C55 C56 1_555 1_555
C56 C57 1_555 1_555
C57 C58 1_555 1_555
C58 C59 1_555 1_555
C59 C60 1_555 1_555
C60 C55 1_555 1_555
N1A C5 1_555 1_555
C1A C4 1_555 1_555
H1A C2 1_555 1_555
C2A C3 1_555 1_555
H2A C1 1_555 1_555
C3A C2 1_555 1_555
H3A C4 1_555 1_555
C4A C1 1_555 1_555
H4A C3 1_555 1_555
C5A N1 1_555 1_555
H5A C6 1_555 1_555
C6A C3 1_555 1_555
H6A C5 1_555 1_555
C7A C6 1_555 1_555
C8A N1 1_555 1_555
H7A C8A 1_555 1_555
C9A C12 1_555 1_555
H8A C9A 1_555 1_555
C10A N1 1_555 1_555
C11A C7 1_555 1_555
C12A C2 1_555 1_555
H9A C9 1_555 1_555
C13A C1 1_555 1_555
N4A C39 1_555 1_555
C36A C36 1_555 1_555
C37A C37 1_555 1_555
C38A C36 1_555 1_555
C39A N4 1_555 1_555
H28A C39A 1_555 1_555
C40A C48 1_555 1_555
H29A C40A 1_555 1_555
C41A C37 1_555 1_555
C42A C38 1_555 1_555
H30A C42A 1_555 1_555
C43A N4 1_555 1_555
H31A C43A 1_555 1_555
C44A C43 1_555 1_555
H32A C45 1_555 1_555
C45A C42 1_555 1_555
H33A C44 1_555 1_555
C46A C45 1_555 1_555
H34A C47 1_555 1_555
C47A C41 1_555 1_555
H35A C46 1_555 1_555
C48A C36 1_555 1_555
H36A C48A 1_555 1_555
H3 C4A 1_555 1_555
C4 C5A 1_555 1_555
H4 C3A 1_555 1_555
C5 C4A 1_555 1_555
H5 C6A 1_555 1_555
C6 C3A 1_555 1_555
H6 C5A 1_555 1_555
C7 C6A 1_555 1_555
C8 N1A 1_555 1_555
C9 C13 1_555 1_555
C9 C12A 1_555 1_555
C10 C11 1_555 1_555
C10 C12 1_555 1_555
C10 N1A 1_555 1_555
C10 C10A 1_555 1_555
C10 C13A 1_555 1_555
C11 C13 1_555 1_555
C11 C7A 1_555 1_555
C11 C11A 1_555 1_555
C11 C12A 1_555 1_555
C12 C2A 1_555 1_555
C12 C11A 1_555 1_555
H9 C9A 1_555 1_555
H9 C13A 1_555 1_555
C13 C1A 1_555 1_555
C13 C10A 1_555 1_555
C13 H9A 1_555 1_555
C18 C19 1_555 1_555
C23 C24 1_555 1_555
C29 C30 1_555 1_555
C34 C35 1_555 1_555
C38 C36A 1_555 1_555
C40 C41 1_555 1_555
C40 C48A 1_555 1_555
C41 C37A 1_555 1_555
C42 C38A 1_555 1_555
C43 N4A 1_555 1_555
C44 C46 1_555 1_555
C44 C43A 1_555 1_555
H32 C45A 1_555 1_555
C45 C42A 1_555 1_555
H33 C44A 1_555 1_555
C46 C45A 1_555 1_555
C46 C48A 1_555 1_555
H34 C47A 1_555 1_555
C47 C48 1_555 1_555
C47 C41A 1_555 1_555
H35 C46A 1_555 1_555
C48 C36A 1_555 1_555
C48 C46A 1_555 1_555
N1A C6A 1_555 1_555
N1A C11A 1_555 1_555
C1A H1A 1_555 1_555
C1A C3A 1_555 1_555
C1A C12A 1_555 1_555
C2A H2A 1_555 1_555
C2A C4A 1_555 1_555
C2A C13A 1_555 1_555
C3A H3A 1_555 1_555
C3A C5A 1_555 1_555
C4A H4A 1_555 1_555
C4A C6A 1_555 1_555
C5A H5A 1_555 1_555
C5A C7A 1_555 1_555
C6A H6A 1_555 1_555
C7A C8A 1_555 1_555
C7A C10A 1_555 1_555
C8A C9A 1_555 1_555
C9A C13A 1_555 1_555
C10A C11A 1_555 1_555
C10A C12A 1_555 1_555
C11A C13A 1_555 1_555
C12A H9A 1_555 1_555
N4A C36A 1_555 1_555
N4A C42A 1_555 1_555
C36A C37A 1_555 1_555
C36A C41A 1_555 1_555
C37A C38A 1_555 1_555
C37A C48A 1_555 1_555
C38A C39A 1_555 1_555
C38A C43A 1_555 1_555
C39A C40A 1_555 1_555
C40A C41A 1_555 1_555
C41A C46A 1_555 1_555
C42A C44A 1_555 1_555
C43A C45A 1_555 1_555
C44A H32A 1_555 1_555
C44A C46A 1_555 1_555
C45A H33A 1_555 1_555
C45A C47A 1_555 1_555
C46A H34A 1_555 1_555
C47A H35A 1_555 1_555
C47A C48A 1_555 1_555

#END
