
#######################################################################
#
#                 Cambridge Crystallographic Data Centre
#                                CCDC 
#
#######################################################################
#
# If this CIF has been generated from an entry in the Cambridge 
# Structural Database, then it will include bibliographic, chemical, 
# crystal, experimental, refinement or atomic coordinate data resulting 
# from the CCDC's data processing and validation procedures.
#
#######################################################################

data_DAXPUQ
_chemical_formula_moiety         'C9 H7 Br1 N2 O1'
_chemical_name_systematic        
1-bromo-4-[(cyanocarbonyl)(methyl)amino]benzene
_symmetry_cell_setting           monoclinic
_symmetry_space_group_name_H-M   'P 21/c'
_symmetry_Int_Tables_number      14
_space_group_name_Hall           '-P 2ybc'
loop_
_symmetry_equiv_pos_site_id
_symmetry_equiv_pos_as_xyz
1 x,y,z
2 -x,1/2+y,1/2-z
3 -x,-y,-z
4 x,1/2-y,1/2+z
_cell_length_a                   10.0199(17)
_cell_length_b                   11.491(2)
_cell_length_c                   8.1689(14)
_cell_angle_alpha                90
_cell_angle_beta                 100.574(2)
_cell_angle_gamma                90
_cell_volume                     924.584
_exptl_crystal_colour            colorless
_exptl_crystal_description       Block
_cell_formula_units_Z            4
loop_
_atom_site_label
_atom_site_type_symbol
_atom_site_fract_x
_atom_site_fract_y
_atom_site_fract_z
Br1 Br 0.60445(2) 0.16007(2) 1.14462(3)
O1 O -0.1210(2) 0.47953(18) 0.7483(3)
N1 N -0.0654(3) 0.2724(2) 1.0425(3)
N2 N 0.1075(2) 0.4413(2) 0.7992(3)
C1 C 0.3216(3) 0.4290(3) 0.9974(4)
H1 H 0.3149 0.5080 1.0189
C2 C 0.4336(3) 0.3658(3) 1.0756(4)
H2 H 0.5030 0.4024 1.1488
C3 C 0.4409(3) 0.2473(3) 1.0431(4)
C4 C 0.3370(3) 0.1906(3) 0.9360(4)
H3 H 0.3418 0.1109 0.9185
C5 C 0.2262(3) 0.2541(3) 0.8556(4)
H4 H 0.1573 0.2174 0.7818
C6 C 0.2188(3) 0.3728(3) 0.8861(3)
C7 C -0.0215(3) 0.4261(2) 0.8175(3)
C8 C -0.0403(3) 0.3358(2) 0.9439(4)
C9 C 0.1384(3) 0.5309(3) 0.6827(4)
H5 H 0.0568 0.5720 0.6364
H6 H 0.1749 0.4945 0.5947
H7 H 0.2038 0.5846 0.7410
loop_
_geom_bond_atom_site_label_1
_geom_bond_atom_site_label_2
_geom_bond_site_symmetry_1
_geom_bond_site_symmetry_2
Br1 C3 1_555 1_555
O1 C7 1_555 1_555
N1 C8 1_555 1_555
N2 C6 1_555 1_555
C1 H1 1_555 1_555
C2 C1 1_555 1_555
H2 C2 1_555 1_555
C3 C2 1_555 1_555
C4 C3 1_555 1_555
H3 C4 1_555 1_555
C5 C4 1_555 1_555
H4 C5 1_555 1_555
C6 C1 1_555 1_555
C7 N2 1_555 1_555
C8 C7 1_555 1_555
C9 N2 1_555 1_555
H5 C9 1_555 1_555
H6 C9 1_555 1_555
H7 C9 1_555 1_555
C5 C6 1_555 1_555

#END
