
#######################################################################
#
#                 Cambridge Crystallographic Data Centre
#                                CCDC 
#
#######################################################################
#
# If this CIF has been generated from an entry in the Cambridge 
# Structural Database, then it will include bibliographic, chemical, 
# crystal, experimental, refinement or atomic coordinate data resulting 
# from the CCDC's data processing and validation procedures.
#
#######################################################################

data_DAXQOL
_chemical_formula_moiety         'C29 H22 F1 N3 O1'
_chemical_name_systematic        
3-(5-(4-fluorophenyl)-1H-1,2,3-triazol-1-yl)-1,1,3-triphenylprop-2-en-1-ol
_symmetry_cell_setting           triclinic
_symmetry_space_group_name_H-M   'P -1'
_symmetry_Int_Tables_number      2
_space_group_name_Hall           '-P 1'
loop_
_symmetry_equiv_pos_site_id
_symmetry_equiv_pos_as_xyz
1 x,y,z
2 -x,-y,-z
_cell_length_a                   10.2496(6)
_cell_length_b                   15.3894(9)
_cell_length_c                   15.8199(10)
_cell_angle_alpha                75.358(5)
_cell_angle_beta                 81.672(5)
_cell_angle_gamma                89.398(5)
_cell_volume                     2387.97
_exptl_crystal_colour            colorless
_exptl_crystal_description       block
_cell_formula_units_Z            4
loop_
_atom_site_label
_atom_site_type_symbol
_atom_site_fract_x
_atom_site_fract_y
_atom_site_fract_z
F1 F -0.0951(4) 0.6303(2) 0.96734(18)
O1 O -0.10508(17) 0.38737(11) 0.68311(12)
H1 H -0.1132 0.3971 0.6308
N1 N 0.1278(2) 0.55454(14) 0.50576(15)
N2 N 0.1692(2) 0.47663(14) 0.54707(14)
N3 N 0.1441(2) 0.47151(12) 0.63472(13)
C1 C 0.1135(4) 0.5499(2) 0.8030(2)
H2 H 0.1959 0.5247 0.7960
C2 C 0.0678(5) 0.5718(3) 0.8821(3)
H3 H 0.1183 0.5615 0.9279
C3 C -0.0520(6) 0.6085(3) 0.8903(3)
C4 C -0.1289(6) 0.6230(4) 0.8259(4)
H4 H -0.2115 0.6477 0.8341
C5 C -0.0836(4) 0.6008(3) 0.7485(3)
H5 H -0.1364 0.6101 0.7041
C6 C 0.0398(3) 0.56462(17) 0.73545(19)
C7 C 0.0858(3) 0.54740(16) 0.64914(18)
C8 C 0.0768(3) 0.59822(17) 0.56632(19)
H6 H 0.0406 0.6549 0.5534
C9 C 0.1817(2) 0.39095(15) 0.69543(16)
C10 C 0.3151(2) 0.39407(15) 0.71920(16)
C11 C 0.3535(3) 0.3300(2) 0.7892(2)
H7 H 0.2927 0.2862 0.8237
C12 C 0.4805(4) 0.3301(2) 0.8085(3)
H8 H 0.5044 0.2859 0.8553
C13 C 0.5714(3) 0.3940(2) 0.7600(2)
H9 H 0.6574 0.3933 0.7724
C14 C 0.5336(3) 0.4589(2) 0.6929(3)
H10 H 0.5940 0.5037 0.6599
C15 C 0.4071(3) 0.45906(18) 0.6730(2)
H11 H 0.3837 0.5044 0.6270
C16 C 0.1019(2) 0.31887(16) 0.72004(16)
H12 H 0.1407 0.2673 0.7495
C17 C -0.0399(2) 0.30451(16) 0.70937(17)
C18 C -0.0514(3) 0.24775(16) 0.64400(17)
C19 C -0.1765(3) 0.22405(18) 0.63109(19)
H13 H -0.2507 0.2420 0.6630
C20 C -0.1916(3) 0.17455(19) 0.5719(2)
H14 H -0.2756 0.1586 0.5646
C21 C -0.0824(4) 0.14847(19) 0.5234(2)
H15 H -0.0928 0.1159 0.4826
C22 C 0.0418(3) 0.17067(19) 0.5354(2)
H16 H 0.1154 0.1528 0.5029
C23 C 0.0577(3) 0.21980(17) 0.59612(18)
H17 H 0.1420 0.2340 0.6046
C24 C -0.1060(3) 0.25686(19) 0.80286(18)
C25 C -0.1420(3) 0.3065(3) 0.8639(2)
H18 H -0.1284 0.3685 0.8472
C26 C -0.1987(4) 0.2644(4) 0.9506(3)
H19 H -0.2251 0.2982 0.9908
C27 C -0.2148(4) 0.1719(4) 0.9754(3)
H20 H -0.2513 0.1433 1.0329
C28 C -0.1780(4) 0.1230(3) 0.9168(3)
H21 H -0.1892 0.0608 0.9344
C29 C -0.1237(3) 0.1641(2) 0.8310(2)
H22 H -0.0987 0.1292 0.7915
F2 F 0.6439(3) -0.09218(18) 0.01163(15)
O2 O 0.47656(17) 0.11827(10) 0.32079(12)
H23 H 0.4530 0.1028 0.3743
N4 N 0.6314(2) -0.05363(14) 0.49109(14)
N5 N 0.6897(2) 0.02427(14) 0.45228(14)
N6 N 0.7066(2) 0.03103(12) 0.36464(13)
C30 C 0.7705(3) -0.06357(19) 0.2033(2)
H24 H 0.8514 -0.0605 0.2226
C31 C 0.7670(4) -0.0763(2) 0.1202(2)
H25 H 0.8444 -0.0819 0.0835
C32 C 0.6484(5) -0.0802(2) 0.0937(2)
C33 C 0.5330(5) -0.0728(3) 0.1448(3)
H26 H 0.4530 -0.0756 0.1243
C34 C 0.5368(4) -0.0608(2) 0.2287(2)
H27 H 0.4585 -0.0564 0.2651
C35 C 0.6552(3) -0.05540(15) 0.25844(18)
C36 C 0.6576(2) -0.04372(15) 0.34760(17)
C37 C 0.6098(3) -0.09558(17) 0.42901(18)
H28 H 0.5684 -0.1517 0.4403
C38 C 0.7668(2) 0.11141(15) 0.30328(17)
C39 C 0.9077(3) 0.10455(16) 0.26920(19)
C40 C 0.9567(3) 0.1501(2) 0.1826(2)
H29 H 0.9012 0.1858 0.1474
C41 C 1.0861(4) 0.1428(3) 0.1490(3)
H30 H 1.1179 0.1739 0.0914
C42 C 1.1686(4) 0.0905(3) 0.1991(4)
H31 H 1.2561 0.0855 0.1756
C43 C 1.1217(4) 0.0450(3) 0.2847(3)
H32 H 1.1783 0.0101 0.3196
C44 C 0.9907(3) 0.05093(19) 0.3192(2)
H33 H 0.9590 0.0184 0.3764
C45 C 0.6981(3) 0.18540(16) 0.28304(17)
H34 H 0.7490 0.2369 0.2542
C46 C 0.5510(3) 0.20093(15) 0.29862(17)
C47 C 0.5132(3) 0.25273(15) 0.36831(17)
C48 C 0.6014(3) 0.27721(16) 0.41636(18)
H35 H 0.6895 0.2624 0.4063
C49 C 0.5605(3) 0.32394(18) 0.47989(19)
H36 H 0.6207 0.3396 0.5126
C50 C 0.4309(4) 0.34666(18) 0.4940(2)
H37 H 0.4033 0.3780 0.5362
C51 C 0.3415(3) 0.32330(18) 0.4459(2)
H38 H 0.2539 0.3393 0.4554
C52 C 0.3812(3) 0.27664(17) 0.38417(18)
H39 H 0.3201 0.2606 0.3523
C53 C 0.5197(3) 0.25514(17) 0.20827(18)
C54 C 0.5358(4) 0.3474(2) 0.1820(2)
H40 H 0.5630 0.3779 0.2204
C55 C 0.5122(5) 0.3949(2) 0.0998(3)
H41 H 0.5239 0.4570 0.0833
C56 C 0.4720(5) 0.3521(3) 0.0427(2)
H42 H 0.4561 0.3843 -0.0128
C57 C 0.4554(5) 0.2619(3) 0.0677(3)
H43 H 0.4263 0.2321 0.0294
C58 C 0.4810(4) 0.2135(2) 0.1491(2)
H44 H 0.4717 0.1512 0.1640
loop_
_geom_bond_atom_site_label_1
_geom_bond_atom_site_label_2
_geom_bond_site_symmetry_1
_geom_bond_site_symmetry_2
F1 C3 1_555 1_555
O1 H1 1_555 1_555
N1 N2 1_555 1_555
N2 N3 1_555 1_555
N3 C7 1_555 1_555
C1 H2 1_555 1_555
C2 C1 1_555 1_555
H3 C2 1_555 1_555
C3 C2 1_555 1_555
C4 C3 1_555 1_555
H4 C4 1_555 1_555
C5 C4 1_555 1_555
H5 C5 1_555 1_555
C6 C1 1_555 1_555
C7 C6 1_555 1_555
C8 N1 1_555 1_555
H6 C8 1_555 1_555
C9 N3 1_555 1_555
C10 C9 1_555 1_555
C11 C10 1_555 1_555
H7 C11 1_555 1_555
C12 C11 1_555 1_555
H8 C12 1_555 1_555
C13 C12 1_555 1_555
H9 C13 1_555 1_555
C14 C13 1_555 1_555
H10 C14 1_555 1_555
C15 C10 1_555 1_555
H11 C15 1_555 1_555
C16 C9 1_555 1_555
H12 C16 1_555 1_555
C17 O1 1_555 1_555
C18 C17 1_555 1_555
C19 C18 1_555 1_555
H13 C19 1_555 1_555
C20 C19 1_555 1_555
H14 C20 1_555 1_555
C21 C20 1_555 1_555
H15 C21 1_555 1_555
C22 C21 1_555 1_555
H16 C22 1_555 1_555
C23 C18 1_555 1_555
H17 C23 1_555 1_555
C24 C17 1_555 1_555
C25 C24 1_555 1_555
H18 C25 1_555 1_555
C26 C25 1_555 1_555
H19 C26 1_555 1_555
C27 C26 1_555 1_555
H20 C27 1_555 1_555
C28 C27 1_555 1_555
H21 C28 1_555 1_555
C29 C24 1_555 1_555
H22 C29 1_555 1_555
F2 C32 1_555 1_555
O2 H23 1_555 1_555
N4 N5 1_555 1_555
N5 N6 1_555 1_555
N6 C36 1_555 1_555
C30 H24 1_555 1_555
C31 C30 1_555 1_555
H25 C31 1_555 1_555
C32 C31 1_555 1_555
C33 C32 1_555 1_555
H26 C33 1_555 1_555
C34 C33 1_555 1_555
H27 C34 1_555 1_555
C35 C30 1_555 1_555
C36 C35 1_555 1_555
C37 N4 1_555 1_555
H28 C37 1_555 1_555
C38 N6 1_555 1_555
C39 C38 1_555 1_555
C40 C39 1_555 1_555
H29 C40 1_555 1_555
C41 C40 1_555 1_555
H30 C41 1_555 1_555
C42 C41 1_555 1_555
H31 C42 1_555 1_555
C43 C42 1_555 1_555
H32 C43 1_555 1_555
C44 C39 1_555 1_555
H33 C44 1_555 1_555
C45 C38 1_555 1_555
H34 C45 1_555 1_555
C46 O2 1_555 1_555
C47 C46 1_555 1_555
C48 C47 1_555 1_555
H35 C48 1_555 1_555
C49 C48 1_555 1_555
H36 C49 1_555 1_555
C50 C49 1_555 1_555
H37 C50 1_555 1_555
C51 C50 1_555 1_555
H38 C51 1_555 1_555
C52 C47 1_555 1_555
H39 C52 1_555 1_555
C53 C46 1_555 1_555
C54 C53 1_555 1_555
H40 C54 1_555 1_555
C55 C54 1_555 1_555
H41 C55 1_555 1_555
C56 C55 1_555 1_555
H42 C56 1_555 1_555
C57 C56 1_555 1_555
H43 C57 1_555 1_555
C58 C53 1_555 1_555
H44 C58 1_555 1_555
C5 C6 1_555 1_555
C7 C8 1_555 1_555
C14 C15 1_555 1_555
C16 C17 1_555 1_555
C22 C23 1_555 1_555
C28 C29 1_555 1_555
C34 C35 1_555 1_555
C36 C37 1_555 1_555
C43 C44 1_555 1_555
C45 C46 1_555 1_555
C51 C52 1_555 1_555
C57 C58 1_555 1_555

#END
