
#######################################################################
#
#                 Cambridge Crystallographic Data Centre
#                                CCDC 
#
#######################################################################
#
# If this CIF has been generated from an entry in the Cambridge 
# Structural Database, then it will include bibliographic, chemical, 
# crystal, experimental, refinement or atomic coordinate data resulting 
# from the CCDC's data processing and validation procedures.
#
#######################################################################

data_DAYBEM
_chemical_formula_moiety         'C20 H28 N8 O24 Sr2,2(H2 O1)'
_chemical_name_systematic        
'bis(\m~2~-4-Carboxy-1H-pyrazole-3-carboxylato)-octa-aqua-bis(4-carboxy-1H-pyrazole-3-carboxylato)-di-strontium(ii) dihydrate'
_symmetry_cell_setting           triclinic
_symmetry_space_group_name_H-M   'P -1'
_symmetry_Int_Tables_number      2
_space_group_name_Hall           '-P 1'
loop_
_symmetry_equiv_pos_site_id
_symmetry_equiv_pos_as_xyz
1 x,y,z
2 -x,-y,-z
_cell_length_a                   7.2476(8)
_cell_length_b                   7.2772(8)
_cell_length_c                   17.830(2)
_cell_angle_alpha                91.992(2)
_cell_angle_beta                 101.404(2)
_cell_angle_gamma                111.192(2)
_cell_volume                     853.663
_cell_formula_units_Z            1
loop_
_atom_site_label
_atom_site_type_symbol
_atom_site_fract_x
_atom_site_fract_y
_atom_site_fract_z
C1 C -0.1563(5) -0.2437(5) 0.0099(2)
H1 H -0.2731 -0.2965 -0.0294
C2 C 0.0345(5) -0.2381(5) 0.0070(2)
C3 C 0.0891(5) -0.3053(5) -0.0616(2)
C4 C 0.1570(5) -0.1414(5) 0.0797(2)
C5 C 0.3783(5) -0.0875(5) 0.1153(2)
C6 C 0.2487(6) 0.3621(5) 0.5069(2)
H2 H 0.2576 0.4440 0.5498
C7 C 0.2474(5) 0.1717(5) 0.5060(2)
C8 C 0.2550(5) 0.0637(6) 0.5746(2)
C9 C 0.2371(5) 0.1149(5) 0.4280(2)
C10 C 0.2303(5) -0.0701(5) 0.3876(2)
N1 N 0.0491(4) -0.0923(4) 0.12329(17)
N2 N -0.1418(4) -0.1598(4) 0.07894(17)
H3 H -0.2332 -0.1478 0.0966
N3 N 0.2304(5) 0.2608(4) 0.38557(17)
N4 N 0.2349(5) 0.4057(5) 0.43484(18)
H4 H 0.2478 0.5141 0.4176
O1 O 0.4539(4) 0.0258(4) 0.17544(15)
O2 O 0.4718(4) -0.1696(5) 0.08058(17)
O3 O -0.0333(4) -0.3592(4) -0.12436(15)
O4 O 0.2684(4) -0.3079(5) -0.05452(16)
H5 H 0.3254 -0.2881 -0.0088
O5 O 0.2184(4) -0.0822(4) 0.31707(15)
O6 O 0.2384(5) -0.2070(4) 0.42926(16)
O7 O 0.2622(5) -0.1111(4) 0.56596(16)
H6 H 0.2552 -0.1416 0.5205
O8 O 0.2551(5) 0.1389(5) 0.63707(15)
O9 O 0.3520(5) 0.5991(4) 0.28100(19)
H7 H 0.4667 0.6335 0.3128
H8 H 0.3021 0.6742 0.2877
O10 O -0.1353(4) 0.0754(5) 0.23874(17)
H9 H -0.2476 0.0730 0.2177
H10 H -0.1524 0.0307 0.2795
O11 O 0.4752(4) 0.4465(5) 0.14898(17)
H11 H 0.5522 0.5120 0.1888
H12 H 0.5332 0.3845 0.1303
O12 O 0.6214(4) 0.3435(4) 0.31932(16)
H13 H 0.7034 0.3867 0.2923
H14 H 0.6398 0.2482 0.3378
Sr1 Sr 0.25014(4) 0.22267(4) 0.234671(16)
C1A C 0.1563(5) 0.2437(5) -0.0099(2)
H1A H 0.2731 0.2965 0.0294
C2A C -0.0345(5) 0.2381(5) -0.0070(2)
C3A C -0.0891(5) 0.3053(5) 0.0616(2)
C4A C -0.1570(5) 0.1414(5) -0.0797(2)
C5A C -0.3783(5) 0.0875(5) -0.1153(2)
C6A C -0.2487(6) -0.3621(5) -0.5069(2)
H2A H -0.2576 -0.4440 -0.5498
C7A C -0.2474(5) -0.1717(5) -0.5060(2)
C8A C -0.2550(5) -0.0637(6) -0.5746(2)
C9A C -0.2371(5) -0.1149(5) -0.4280(2)
C10A C -0.2303(5) 0.0701(5) -0.3876(2)
N1A N -0.0491(4) 0.0923(4) -0.12329(17)
N2A N 0.1418(4) 0.1598(4) -0.07894(17)
H3A H 0.2332 0.1478 -0.0966
N3A N -0.2304(5) -0.2608(4) -0.38557(17)
N4A N -0.2349(5) -0.4057(5) -0.43484(18)
H4A H -0.2478 -0.5141 -0.4176
O1A O -0.4539(4) -0.0258(4) -0.17544(15)
O2A O -0.4718(4) 0.1696(5) -0.08058(17)
O3A O 0.0333(4) 0.3592(4) 0.12436(15)
O4A O -0.2684(4) 0.3079(5) 0.05452(16)
H5A H -0.3254 0.2881 0.0088
O5A O -0.2184(4) 0.0822(4) -0.31707(15)
O6A O -0.2384(5) 0.2070(4) -0.42926(16)
O7A O -0.2622(5) 0.1111(4) -0.56596(16)
H6A H -0.2552 0.1416 -0.5205
O8A O -0.2551(5) -0.1389(5) -0.63707(15)
O9A O -0.3520(5) -0.5991(4) -0.28100(19)
H7A H -0.4667 -0.6335 -0.3128
H8A H -0.3021 -0.6742 -0.2877
O10A O 0.1353(4) -0.0754(5) -0.23874(17)
H9A H 0.2476 -0.0730 -0.2177
H10A H 0.1524 -0.0307 -0.2795
O11A O -0.4752(4) -0.4465(5) -0.14898(17)
H11A H -0.5522 -0.5120 -0.1888
H12A H -0.5332 -0.3845 -0.1303
O12A O -0.6214(4) -0.3435(4) -0.31932(16)
H13A H -0.7034 -0.3867 -0.2923
H14A H -0.6398 -0.2482 -0.3378
Sr1A Sr -0.25014(4) -0.22267(4) -0.234671(16)
O13 O 0.8828(4) 0.5489(5) 0.22927(19)
H15 H 0.9604 0.6656 0.2374
H16 H 0.9444 0.5120 0.2019
loop_
_geom_bond_atom_site_label_1
_geom_bond_atom_site_label_2
_geom_bond_site_symmetry_1
_geom_bond_site_symmetry_2
C1 H1 1_555 1_555
C2 C1 1_555 1_555
C3 C2 1_555 1_555
C4 C2 1_555 1_555
C5 C4 1_555 1_555
C6 H2 1_555 1_555
C7 C6 1_555 1_555
C8 C7 1_555 1_555
C9 C7 1_555 1_555
C10 C9 1_555 1_555
N1 C4 1_555 1_555
N2 C1 1_555 1_555
H3 N2 1_555 1_555
N3 C9 1_555 1_555
N4 C6 1_555 1_555
H4 N4 1_555 1_555
O1 C5 1_555 1_555
O2 C5 1_555 1_555
O3 C3 1_555 1_555
O4 C3 1_555 1_555
H5 O4 1_555 1_555
O5 C10 1_555 1_555
O6 C10 1_555 1_555
O7 C8 1_555 1_555
H6 O7 1_555 1_555
O8 C8 1_555 1_555
O9 H7 1_555 1_555
H8 O9 1_555 1_555
O10 H9 1_555 1_555
H10 O10 1_555 1_555
O11 H11 1_555 1_555
H12 O11 1_555 1_555
O12 H13 1_555 1_555
H14 O12 1_555 1_555
O13 H15 1_555 1_555
H16 O13 1_555 1_555
Sr1 N1 1_555 1_555
C1A H1A 1_555 1_555
C2A C1A 1_555 1_555
C3A C2A 1_555 1_555
C4A C2A 1_555 1_555
C5A C4A 1_555 1_555
C6A H2A 1_555 1_555
C7A C6A 1_555 1_555
C8A C7A 1_555 1_555
C9A C7A 1_555 1_555
C10A C9A 1_555 1_555
N1A C4A 1_555 1_555
N2A C1A 1_555 1_555
H3A N2A 1_555 1_555
N3A C9A 1_555 1_555
N4A C6A 1_555 1_555
H4A N4A 1_555 1_555
O1A C5A 1_555 1_555
O2A C5A 1_555 1_555
O3A Sr1 1_555 1_555
O4A C3A 1_555 1_555
H5A O4A 1_555 1_555
O5A C10A 1_555 1_555
O6A C10A 1_555 1_555
O7A C8A 1_555 1_555
H6A O7A 1_555 1_555
O8A C8A 1_555 1_555
O9A H7A 1_555 1_555
H8A O9A 1_555 1_555
O10A H9A 1_555 1_555
H10A O10A 1_555 1_555
O11A H11A 1_555 1_555
H12A O11A 1_555 1_555
O12A H13A 1_555 1_555
H14A O12A 1_555 1_555
Sr1A O3 1_555 1_555
N1 N2 1_555 1_555
N3 N4 1_555 1_555
N3 Sr1 1_555 1_555
O1 Sr1 1_555 1_555
O5 Sr1 1_555 1_555
O9 Sr1 1_555 1_555
O10 Sr1 1_555 1_555
O11 Sr1 1_555 1_555
O12 Sr1 1_555 1_555
C3A O3A 1_555 1_555
N1A N2A 1_555 1_555
N1A Sr1A 1_555 1_555
N3A N4A 1_555 1_555
N3A Sr1A 1_555 1_555
O1A Sr1A 1_555 1_555
O5A Sr1A 1_555 1_555
O9A Sr1A 1_555 1_555
O10A Sr1A 1_555 1_555
O11A Sr1A 1_555 1_555
O12A Sr1A 1_555 1_555

#END
