
#######################################################################
#
#                 Cambridge Crystallographic Data Centre
#                                CCDC 
#
#######################################################################
#
# If this CIF has been generated from an entry in the Cambridge 
# Structural Database, then it will include bibliographic, chemical, 
# crystal, experimental, refinement or atomic coordinate data resulting 
# from the CCDC's data processing and validation procedures.
#
#######################################################################

data_DAZBAJ01
_chemical_name_common            1-Butylindeno[2,1-c]pyran-3,9-dione
_chemical_formula_moiety         'C16 H14 O3'
_chemical_name_systematic        1-n-Butylindeno[2,1-c]pyran-3,9-dione
_symmetry_cell_setting           triclinic
_symmetry_space_group_name_H-M   'P -1'
_symmetry_Int_Tables_number      2
_space_group_name_Hall           '-P 1'
loop_
_symmetry_equiv_pos_site_id
_symmetry_equiv_pos_as_xyz
1 x,y,z
2 -x,-y,-z
_cell_length_a                   4.6539(6)
_cell_length_b                   10.1800(12)
_cell_length_c                   14.3718(17)
_cell_angle_alpha                82.481(5)
_cell_angle_beta                 88.127(7)
_cell_angle_gamma                78.604(6)
_cell_volume                     661.709
_exptl_crystal_colour            colorless
_exptl_crystal_description       plate
_chemical_melting_point          '373.7 K'
_cell_formula_units_Z            2
loop_
_atom_site_label
_atom_site_type_symbol
_atom_site_fract_x
_atom_site_fract_y
_atom_site_fract_z
O1 O 0.3523(3) 0.63740(14) 0.18082(11)
O2 O 0.0149(4) 0.66916(15) 0.07167(11)
O3 O 1.0635(4) 0.33233(18) 0.32844(13)
C1 C 0.2122(5) 0.5888(2) 0.11157(16)
C2 C 0.3168(4) 0.4515(2) 0.09622(15)
H1 H 0.2333 0.4150 0.0502
C3 C 0.5361(4) 0.3755(2) 0.14912(15)
C4 C 0.6816(5) 0.2336(2) 0.15088(16)
C5 C 0.6375(6) 0.1373(2) 0.09593(19)
H2 H 0.4982 0.1580 0.0485
C6 C 0.8076(7) 0.0090(3) 0.1137(2)
H3 H 0.7813 -0.0574 0.0779
C7 C 1.0139(7) -0.0220(3) 0.1830(3)
H4 H 1.1254 -0.1090 0.1930
C8 C 1.0608(6) 0.0730(3) 0.2379(2)
H5 H 1.2000 0.0510 0.2853
C9 C 0.8918(5) 0.2016(2) 0.22028(17)
C10 C 0.8990(5) 0.3235(2) 0.26654(18)
C11 C 0.6686(4) 0.4301(2) 0.21968(15)
C12 C 0.5754(4) 0.5593(2) 0.23414(16)
C13 C 0.6839(5) 0.6342(2) 0.30300(17)
H6 H 0.7652 0.7070 0.2684
H7 H 0.8433 0.5735 0.3376
C14 C 0.4626(7) 0.6900(4) 0.3742(2)
H8 H 0.3919 0.6172 0.4127
H9 H 0.2963 0.7466 0.3405
C15 C 0.5944(8) 0.7680(6) 0.4391(3)
H10 H 0.7571 0.7075 0.4721
H11 H 0.6705 0.8404 0.4020
C16 C 0.3720(10) 0.8233(5) 0.5098(3)
H12 H 0.2142 0.8916 0.4823
H13 H 0.4632 0.8585 0.5576
H14 H 0.2961 0.7459 0.5375
C17? C 0.501(2) 0.6185(11) 0.3917(4)
C18? C 0.570(3) 0.6772(10) 0.4781(7)
C19? C 0.537(4) 0.8293(11) 0.4678(15)
H15? H 0.6784 0.7272 0.2762
H16? H 0.8847 0.5931 0.3200
H17? H 0.4911 0.5248 0.4124
H18? H 0.3045 0.6656 0.3736
H19? H 0.4297 0.6567 0.5265
H20? H 0.7645 0.6354 0.5013
H21? H 0.6907 0.8560 0.4279
H22? H 0.5503 0.8576 0.5285
H23? H 0.3505 0.8708 0.4407
loop_
_geom_bond_atom_site_label_1
_geom_bond_atom_site_label_2
_geom_bond_site_symmetry_1
_geom_bond_site_symmetry_2
O1 C1 1_555 1_555
O2 C1 1_555 1_555
O3 C10 1_555 1_555
C1 C2 1_555 1_555
C2 H1 1_555 1_555
C3 C2 1_555 1_555
C4 C3 1_555 1_555
C5 C4 1_555 1_555
H2 C5 1_555 1_555
C6 C5 1_555 1_555
H3 C6 1_555 1_555
C7 C6 1_555 1_555
H4 C7 1_555 1_555
C8 C7 1_555 1_555
H5 C8 1_555 1_555
C9 C4 1_555 1_555
C10 C9 1_555 1_555
C11 C3 1_555 1_555
C12 O1 1_555 1_555
C13 C12 1_555 1_555
H6 C13 1_555 1_555
H7 C13 1_555 1_555
C14 C13 1_555 1_555
H8 C14 1_555 1_555
H9 C14 1_555 1_555
C15 C14 1_555 1_555
H10 C15 1_555 1_555
H11 C15 1_555 1_555
C16 C15 1_555 1_555
H12 C16 1_555 1_555
H13 C16 1_555 1_555
H14 C16 1_555 1_555
C8 C9 1_555 1_555
C10 C11 1_555 1_555
C11 C12 1_555 1_555

#END
