
#######################################################################
#
#                 Cambridge Crystallographic Data Centre
#                                CCDC 
#
#######################################################################
#
# If this CIF has been generated from an entry in the Cambridge 
# Structural Database, then it will include bibliographic, chemical, 
# crystal, experimental, refinement or atomic coordinate data resulting 
# from the CCDC's data processing and validation procedures.
#
#######################################################################

data_DAZBAJ02
_chemical_name_common            1-Butylindeno[2,1-c]pyran-3,9-dione
_chemical_formula_moiety         'C16 H14 O3'
_chemical_name_systematic        1-n-Butylindeno[2,1-c]pyran-3,9-dione
_symmetry_cell_setting           triclinic
_symmetry_space_group_name_H-M   'P -1'
_symmetry_Int_Tables_number      2
_space_group_name_Hall           '-P 1'
loop_
_symmetry_equiv_pos_site_id
_symmetry_equiv_pos_as_xyz
1 x,y,z
2 -x,-y,-z
_cell_length_a                   5.4330(3)
_cell_length_b                   7.2863(4)
_cell_length_c                   17.0874(9)
_cell_angle_alpha                97.426(2)
_cell_angle_beta                 92.884(2)
_cell_angle_gamma                108.874(2)
_cell_volume                     631.625
_exptl_crystal_colour            colorless
_exptl_crystal_description       irregular
_cell_formula_units_Z            2
loop_
_atom_site_label
_atom_site_type_symbol
_atom_site_fract_x
_atom_site_fract_y
_atom_site_fract_z
O1 O 0.3367(3) 0.6718(2) 0.29864(8)
O2 O 0.5369(3) 0.7157(2) 0.41943(9)
O3 O -0.2037(3) 0.8665(2) 0.15197(9)
C1 C 0.3923(4) 0.7667(3) 0.37858(13)
C2 C 0.2737(4) 0.9127(3) 0.40021(12)
H1 H 0.3047 0.9805 0.4517
C3 C 0.1170(4) 0.9515(3) 0.34585(11)
C4 C -0.0197(4) 1.0962(3) 0.35063(12)
C5 C -0.0275(4) 1.2364(3) 0.41260(13)
H2 H 0.0650 1.2510 0.4616
C6 C -0.1753(4) 1.3538(3) 0.39990(14)
H3 H -0.1847 1.4472 0.4412
C7 C -0.3105(4) 1.3354(3) 0.32665(14)
H4 H -0.4077 1.4171 0.3193
C8 C -0.3019(4) 1.1967(3) 0.26453(13)
H5 H -0.3926 1.1839 0.2154
C9 C -0.1559(4) 1.0775(3) 0.27695(12)
C10 C -0.1122(4) 0.9202(3) 0.22093(12)
C11 C 0.0628(4) 0.8464(3) 0.26681(11)
C12 C 0.1738(4) 0.7110(3) 0.24442(12)
C13 C 0.1471(5) 0.5983(3) 0.16367(13)
H6 H 0.2205 0.6917 0.1283
H7 H -0.0381 0.5390 0.1466
C14 C 0.2673(4) 0.4402(3) 0.15115(12)
H8 H 0.1971 0.3452 0.1862
H9 H 0.4543 0.4975 0.1655
C15 C 0.2188(5) 0.3354(4) 0.06698(14)
H10 H 0.0317 0.2741 0.0536
H11 H 0.2815 0.4318 0.0320
C16 C 0.3462(5) 0.1808(4) 0.05112(14)
H12 H 0.3030 0.1199 -0.0033
H13 H 0.2844 0.0834 0.0849
H14 H 0.5323 0.2405 0.0617
loop_
_geom_bond_atom_site_label_1
_geom_bond_atom_site_label_2
_geom_bond_site_symmetry_1
_geom_bond_site_symmetry_2
O1 C1 1_555 1_555
O2 C1 1_555 1_555
O3 C10 1_555 1_555
C1 C2 1_555 1_555
C2 H1 1_555 1_555
C3 C2 1_555 1_555
C4 C3 1_555 1_555
C5 C4 1_555 1_555
H2 C5 1_555 1_555
C6 C5 1_555 1_555
H3 C6 1_555 1_555
C7 C6 1_555 1_555
H4 C7 1_555 1_555
C8 C7 1_555 1_555
H5 C8 1_555 1_555
C9 C4 1_555 1_555
C10 C9 1_555 1_555
C11 C3 1_555 1_555
C12 O1 1_555 1_555
C13 C12 1_555 1_555
H6 C13 1_555 1_555
H7 C13 1_555 1_555
C14 C13 1_555 1_555
H8 C14 1_555 1_555
H9 C14 1_555 1_555
C15 C14 1_555 1_555
H10 C15 1_555 1_555
H11 C15 1_555 1_555
C16 C15 1_555 1_555
H12 C16 1_555 1_555
H13 C16 1_555 1_555
H14 C16 1_555 1_555
C8 C9 1_555 1_555
C10 C11 1_555 1_555
C11 C12 1_555 1_555

#END
