
#######################################################################
#
#                 Cambridge Crystallographic Data Centre
#                                CCDC 
#
#######################################################################
#
# If this CIF has been generated from an entry in the Cambridge 
# Structural Database, then it will include bibliographic, chemical, 
# crystal, experimental, refinement or atomic coordinate data resulting 
# from the CCDC's data processing and validation procedures.
#
#######################################################################

data_DAZPUS03
_chemical_formula_moiety         'C43 H64'
_chemical_name_systematic        tris(3,5-di-t-butylphenyl)methane
_symmetry_cell_setting           cubic
_symmetry_space_group_name_H-M   'P 21 3'
_symmetry_Int_Tables_number      198
_space_group_name_Hall           'P 2ac 2ab 3'
loop_
_symmetry_equiv_pos_site_id
_symmetry_equiv_pos_as_xyz
1 x,y,z
2 1/2-x,-y,1/2+z
3 -x,1/2+y,1/2-z
4 1/2+x,1/2-y,-z
5 z,x,y
6 1/2+z,1/2-x,-y
7 1/2-z,-x,1/2+y
8 -z,1/2+x,1/2-y
9 y,z,x
10 -y,1/2+z,1/2-x
11 1/2+y,1/2-z,-x
12 1/2-y,-z,1/2+x
_cell_length_a                   19.8599(3)
_cell_length_b                   19.8599(3)
_cell_length_c                   19.8599(3)
_cell_angle_alpha                90
_cell_angle_beta                 90
_cell_angle_gamma                90
_cell_volume                     7833.05
_exptl_crystal_colour            colorless
_exptl_crystal_description       blocks
_cell_formula_units_Z            8
loop_
_atom_site_label
_atom_site_type_symbol
_atom_site_fract_x
_atom_site_fract_y
_atom_site_fract_z
C1 C 0.56954(5) 0.30436(6) 0.80627(6)
C2 C 0.69715(5) 0.30285(5) 0.80285(5)
C3 C 0.56435(6) 0.08697(5) 0.82714(6)
C4 C 0.50668(6) 0.20194(6) 0.81853(6)
C5 C 0.50475(6) 0.05592(6) 0.78886(6)
C6 C 0.62726(6) 0.19793(5) 0.81194(6)
C7 C 0.44366(6) 0.31551(5) 0.81143(5)
C8 C 0.37918(6) 0.27446(6) 0.82102(7)
C9 C 0.56640(6) 0.16371(5) 0.81792(6)
C10 C 0.62919(5) 0.26820(5) 0.80638(5)
C11 C 0.55664(7) 0.07213(6) 0.90282(6)
C12 C 0.43950(6) 0.35140(6) 0.74294(6)
C13 C 0.50723(5) 0.27193(6) 0.81269(5)
C14 C 0.44749(6) 0.36846(6) 0.86804(6)
C15 C 0.62899(6) 0.05291(6) 0.80163(6)
H1 H 0.57171(14) 0.35868(13) 0.80088(16)
H2 H 0.67458(13) 0.17054(14) 0.81197(16)
H3 H 0.72879(13) 0.27121(13) 0.77121(13)
H4 H 0.45883(13) 0.17620(14) 0.82380(16)
H5 H 0.33563(15) 0.30808(16) 0.81949(19)
H6 H 0.37267(17) 0.23735(17) 0.78155(18)
H7 H 0.37874(17) 0.24877(18) 0.86949(19)
H8 H 0.50582(17) 0.00113(15) 0.7934(2)
H9 H 0.40227(17) 0.39948(17) 0.8682(2)
H10 H 0.62375(16) -0.00157(14) 0.8066(2)
H11 H 0.39461(17) 0.38314(18) 0.74068(19)
H12 H 0.4365(2) 0.31449(18) 0.70220(16)
H13 H 0.48332(17) 0.38311(18) 0.73398(18)
H14 H 0.51053(17) 0.09380(18) 0.92223(16)
H15 H 0.63878(18) 0.06408(18) 0.74885(17)
H16 H 0.49036(17) 0.40189(17) 0.86168(19)
H17 H 0.4517(2) 0.34425(19) 0.91691(16)
H18 H 0.67339(14) 0.06766(16) 0.83019(18)
H19 H 0.45629(14) 0.07265(16) 0.80836(19)
H20 H 0.59850(18) 0.09297(18) 0.93119(16)
H21 H 0.5551(2) 0.01772(15) 0.91193(17)
H22 H 0.50690(19) 0.06852(19) 0.73554(16)
C1F C 0.69373(6) 0.43046(5) 0.80436(6)
C3F C 0.67286(6) 0.43565(6) 0.58697(5)
C4F C 0.68147(6) 0.49332(6) 0.70194(6)
C5F C 0.71114(6) 0.49525(6) 0.55592(6)
C6F C 0.68806(6) 0.37274(6) 0.69793(5)
C7F C 0.68857(5) 0.55634(6) 0.81551(5)
C8F C 0.67898(7) 0.62082(6) 0.77446(6)
C9F C 0.68208(6) 0.43360(6) 0.66371(5)
C10F C 0.69362(5) 0.37081(5) 0.76820(5)
C11F C 0.59718(6) 0.44336(7) 0.57213(6)
C12F C 0.75706(6) 0.56050(6) 0.85140(6)
C13F C 0.68731(5) 0.49277(5) 0.77193(6)
C14F C 0.63196(6) 0.55251(6) 0.86846(6)
C15F C 0.69837(6) 0.37101(6) 0.55291(6)
H1F H 0.69912(16) 0.42829(14) 0.85868(13)
H2F H 0.68803(16) 0.32542(13) 0.67054(14)
H4F H 0.67620(16) 0.54117(13) 0.67620(14)
H5F H 0.68051(19) 0.66437(15) 0.80808(16)
H6F H 0.71845(18) 0.62733(17) 0.73735(17)
H7F H 0.63051(19) 0.62126(17) 0.74877(18)
H8F H 0.7066(2) 0.49418(17) 0.50113(15)
H9F H 0.6318(2) 0.59773(17) 0.89948(17)
H10F H 0.6934(2) 0.37625(16) 0.49843(14)
H11F H 0.75932(19) 0.60539(17) 0.88314(18)
H12F H 0.79780(16) 0.5635(2) 0.81449(18)
H13F H 0.76602(18) 0.51668(17) 0.88311(18)
H14F H 0.57777(16) 0.48947(17) 0.59380(18)
H15F H 0.75115(17) 0.36122(18) 0.56408(18)
H16F H 0.63832(19) 0.50964(17) 0.90189(17)
H17F H 0.58309(16) 0.5483(2) 0.84425(19)
H18F H 0.66981(18) 0.32661(14) 0.56766(16)
H19F H 0.69164(19) 0.54371(14) 0.57265(16)
H20F H 0.56881(16) 0.40150(18) 0.59297(18)
H21F H 0.58807(17) 0.4449(2) 0.51772(15)
H22F H 0.76446(16) 0.49310(19) 0.56852(19)
C1I C 0.69564(6) 0.30627(6) 0.93046(5)
C3I C 0.91303(5) 0.32714(6) 0.93565(6)
C4I C 0.79806(6) 0.31853(6) 0.99332(6)
C5I C 0.94408(6) 0.28886(6) 0.99525(6)
C6I C 0.80207(5) 0.31194(6) 0.87274(6)
C7I C 0.68449(5) 0.31143(5) 1.05634(6)
C8I C 0.72554(6) 0.32102(7) 1.12082(6)
C9I C 0.83629(5) 0.31792(6) 0.93360(6)
C10I C 0.73180(5) 0.30638(5) 0.87081(5)
C11I C 0.92787(6) 0.40282(6) 0.94336(7)
C12I C 0.64860(6) 0.24294(6) 1.06050(6)
C13I C 0.72807(6) 0.31269(5) 0.99277(5)
C14I C 0.63154(6) 0.36804(6) 1.05251(6)
C15I C 0.94709(6) 0.30163(6) 0.87101(6)
H1I H 0.64132(13) 0.30088(16) 0.92829(14)
H2I H 0.82946(14) 0.31197(16) 0.82542(13)
H4I H 0.82380(14) 0.32380(16) 1.04117(13)
H5I H 0.69192(16) 0.31949(19) 1.16437(15)
H6I H 0.76265(17) 0.28155(18) 1.12733(17)
H7I H 0.75123(18) 0.36949(19) 1.12126(17)
H8I H 0.99887(15) 0.2934(2) 0.99418(17)
H9I H 0.60052(17) 0.3682(2) 1.09773(17)
H10I H 1.00157(14) 0.3066(2) 0.87625(16)
H11I H 0.61686(18) 0.24068(19) 1.10539(17)
H12I H 0.68551(18) 0.20220(16) 1.0635(2)
H13I H 0.61689(18) 0.23398(18) 1.01668(17)
H14I H 0.90620(18) 0.42223(16) 0.98947(17)
H15I H 0.93592(18) 0.24885(17) 0.86122(18)
H16I H 0.59811(17) 0.36168(19) 1.00964(17)
H17I H 0.65575(19) 0.41691(16) 1.0483(2)
H18I H 0.93234(16) 0.33019(18) 0.82661(14)
H19I H 0.92735(16) 0.30836(19) 1.04371(14)
H20I H 0.90703(18) 0.43119(16) 0.90150(18)
H21I H 0.98228(15) 0.41193(17) 0.9449(2)
H22I H 0.93148(19) 0.23554(16) 0.99310(19)
C16 C 0.77332(6) 0.18407(5) 0.50440(5)
C17 C 0.70063(5) 0.18341(6) 0.62508(6)
C18 C 0.80624(5) 0.19376(5) 0.69376(5)
C19 C 0.77448(6) 0.17543(6) 0.37656(6)
C20 C 0.86856(6) 0.12758(7) 0.44378(6)
C21 C 0.77076(5) 0.18959(5) 0.62647(5)
C22 C 0.70302(6) 0.17871(6) 0.50428(5)
C23 C 0.66559(5) 0.17843(6) 0.56435(6)
C24 C 0.55683(6) 0.21996(7) 0.61625(6)
C25 C 0.81634(5) 0.18460(6) 0.44040(6)
C26 C 0.58883(5) 0.17077(6) 0.56558(6)
C27 C 0.80622(5) 0.19011(6) 0.56623(5)
C28 C 0.85288(6) 0.25289(6) 0.43588(6)
C29 C 0.57170(6) 0.09845(6) 0.58732(7)
C30 C 0.55718(6) 0.18400(7) 0.49667(6)
H23 H 0.67703(14) 0.17461(16) 0.45677(13)
H24 H 0.67356(14) 0.18246(17) 0.67288(13)
H25 H 0.86065(13) 0.19556(16) 0.56809(14)
H26 H 0.80748(16) 0.17523(19) 0.33252(14)
H27 H 0.77433(12) 0.22567(12) 0.72567(12)
H28 H 0.50250(15) 0.1806(2) 0.50052(16)
H29 H 0.74699(18) 0.12777(18) 0.37686(17)
H30 H 0.73793(17) 0.21580(18) 0.36975(17)
H31 H 0.89962(18) 0.1270(2) 0.39851(17)
H32 H 0.88312(18) 0.25563(19) 0.39034(17)
H33 H 0.81659(18) 0.29415(15) 0.4346(2)
H34 H 0.90197(17) 0.1322(2) 0.48706(16)
H35 H 0.50215(15) 0.2141(2) 0.61556(19)
H36 H 0.88616(19) 0.2612(2) 0.47873(18)
H37 H 0.84391(19) 0.07865(17) 0.4475(2)
H38 H 0.56947(18) 0.2341(2) 0.47817(18)
H39 H 0.51710(16) 0.09120(19) 0.5893(2)
H40 H 0.57322(17) 0.1475(2) 0.45881(15)
H41 H 0.59242(19) 0.08749(19) 0.63681(19)
H42 H 0.56865(19) 0.27177(17) 0.6032(2)
H43 H 0.57342(18) 0.2115(2) 0.66759(16)
H44 H 0.59221(19) 0.06205(17) 0.5519(2)
C16F C 0.99560(5) 0.22668(6) 0.68407(5)
C17F C 0.87492(6) 0.29937(5) 0.68341(6)
C19F C 1.12344(6) 0.22552(6) 0.67543(6)
C20F C 1.05622(6) 0.13144(6) 0.62758(7)
C21F C 0.87353(5) 0.22924(5) 0.68959(5)
C22F C 0.99572(5) 0.29698(6) 0.67871(6)
C23F C 0.93565(6) 0.33441(5) 0.67843(6)
C24F C 0.88375(6) 0.44317(6) 0.71996(7)
C25F C 1.05960(6) 0.18366(5) 0.68460(6)
C26F C 0.93442(6) 0.41117(5) 0.67077(6)
C27F C 0.93377(5) 0.19378(5) 0.69011(6)
C28F C 1.06412(6) 0.14712(6) 0.75289(6)
C29F C 0.91268(7) 0.42830(6) 0.59845(6)
C30F C 1.00333(6) 0.44282(6) 0.68400(7)
H23F H 1.04323(13) 0.32297(14) 0.67461(16)
H24F H 0.82712(13) 0.32644(14) 0.68246(17)
H25F H 0.93191(14) 0.13935(13) 0.69556(16)
H26F H 1.16748(14) 0.19252(16) 0.67523(19)
H28F H 0.99948(16) 0.49750(15) 0.6806(2)
H29F H 1.12314(17) 0.25301(18) 0.62777(18)
H30F H 1.13025(17) 0.26207(17) 0.71580(18)
H31F H 1.10149(17) 0.10038(18) 0.6270(2)
H32F H 1.10966(17) 0.11688(18) 0.75563(19)
H33F H 1.0654(2) 0.18341(18) 0.79415(15)
H34F H 1.01294(16) 0.09803(17) 0.6322(2)
H35F H 0.88444(19) 0.49785(15) 0.7141(2)
H36F H 1.02127(18) 0.11384(19) 0.7612(2)
H37F H 1.0525(2) 0.15609(19) 0.57865(17)
H38F H 1.02183(18) 0.43053(18) 0.7341(2)
H39F H 0.9107(2) 0.48290(16) 0.59120(19)
H40F H 1.04119(15) 0.42678(17) 0.6475(2)
H41F H 0.86319(19) 0.40758(19) 0.58749(19)
H42F H 0.8968(2) 0.43135(19) 0.77177(17)
H43F H 0.83241(16) 0.42658(18) 0.7115(2)
H44F H 0.9481(2) 0.40779(19) 0.56205(17)
C16I C 0.81593(5) 0.00440(5) 0.72668(6)
C17I C 0.81659(6) 0.12508(6) 0.79937(5)
C19I C 0.82457(6) -0.12344(6) 0.72552(6)
C20I C 0.87242(7) -0.05622(6) 0.63144(6)
C21I C 0.81041(5) 0.12647(5) 0.72924(5)
C22I C 0.82129(6) 0.00428(5) 0.79698(6)
C23I C 0.82157(6) 0.06435(6) 0.83441(5)
C24I C 0.78004(7) 0.11625(6) 0.94317(6)
C25I C 0.81540(6) -0.05960(6) 0.68366(5)
C26I C 0.82923(6) 0.06558(6) 0.91117(5)
C27I C 0.80989(6) 0.06623(5) 0.69378(5)
C28I C 0.74711(6) -0.06412(6) 0.64712(6)
C29I C 0.90155(6) 0.08732(7) 0.92830(6)
C30I C 0.81600(7) -0.00333(6) 0.94282(6)
H23I H 0.82539(16) -0.04323(13) 0.82297(14)
H24I H 0.81754(17) 0.17288(13) 0.82644(14)
H25I H 0.80444(16) 0.06809(14) 0.63935(13)
H26I H 0.82477(19) -0.16748(14) 0.69252(16)
H28I H 0.8194(2) 0.00052(16) 0.99750(15)
H29I H 0.87223(18) -0.12314(17) 0.75301(18)
H30I H 0.78420(18) -0.13025(17) 0.76207(17)
H31I H 0.8730(2) -0.10149(17) 0.60038(18)
H32I H 0.74437(19) -0.10966(17) 0.61688(18)
H33I H 0.70585(15) -0.0654(2) 0.68341(18)
H34I H 0.8678(2) -0.01294(16) 0.59803(17)
H35I H 0.7859(2) 0.11556(19) 0.99785(15)
H36I H 0.7388(2) -0.02127(18) 0.61384(19)
H37I H 0.92135(17) -0.0525(2) 0.65609(19)
H38I H 0.7659(2) -0.02183(18) 0.93053(18)
H39I H 0.90880(19) 0.0893(2) 0.98290(16)
H40I H 0.8525(2) -0.04119(15) 0.92678(17)
H41I H 0.91251(19) 0.13681(19) 0.90758(19)
H42I H 0.72823(17) 0.1032(2) 0.93135(19)
H43I H 0.7885(2) 0.16759(16) 0.92658(18)
H44I H 0.93795(17) 0.0519(2) 0.90779(19)
loop_
_geom_bond_atom_site_label_1
_geom_bond_atom_site_label_2
_geom_bond_site_symmetry_1
_geom_bond_site_symmetry_2
C1 C10 1_555 1_555
C2 C10 1_555 1_555
C3 C5 1_555 1_555
C4 C9 1_555 1_555
C5 H8 1_555 1_555
C6 C9 1_555 1_555
C7 C8 1_555 1_555
C8 H5 1_555 1_555
C9 C3 1_555 1_555
C10 C6 1_555 1_555
C11 C3 1_555 1_555
C12 C7 1_555 1_555
C13 C1 1_555 1_555
C14 C7 1_555 1_555
C15 C3 1_555 1_555
H1 C1 1_555 1_555
H2 C6 1_555 1_555
H3 C2 1_555 1_555
H4 C4 1_555 1_555
H6 C8 1_555 1_555
H7 C8 1_555 1_555
H9 C14 1_555 1_555
H10 C15 1_555 1_555
H11 C12 1_555 1_555
H12 C12 1_555 1_555
H13 C12 1_555 1_555
H14 C11 1_555 1_555
H15 C15 1_555 1_555
H16 C14 1_555 1_555
H17 C14 1_555 1_555
H18 C15 1_555 1_555
H19 C5 1_555 1_555
H20 C11 1_555 1_555
H21 C11 1_555 1_555
H22 C5 1_555 1_555
C16 C22 1_555 1_555
C17 C21 1_555 1_555
C18 C21 1_555 1_555
C19 C25 1_555 1_555
C20 C25 1_555 1_555
C21 C27 1_555 1_555
C22 C23 1_555 1_555
C23 C17 1_555 1_555
C24 C26 1_555 1_555
C25 C16 1_555 1_555
C26 C23 1_555 1_555
C27 C16 1_555 1_555
C28 C25 1_555 1_555
C29 C26 1_555 1_555
C30 C26 1_555 1_555
H23 C22 1_555 1_555
H24 C17 1_555 1_555
H25 C27 1_555 1_555
H26 C19 1_555 1_555
H27 C18 1_555 1_555
H28 C30 1_555 1_555
H29 C19 1_555 1_555
H30 C19 1_555 1_555
H31 C20 1_555 1_555
H32 C28 1_555 1_555
H33 C28 1_555 1_555
H34 C20 1_555 1_555
H35 C24 1_555 1_555
H36 C28 1_555 1_555
H37 C20 1_555 1_555
H38 C30 1_555 1_555
H39 C29 1_555 1_555
H40 C30 1_555 1_555
H41 C29 1_555 1_555
H42 C24 1_555 1_555
H43 C24 1_555 1_555
H44 C29 1_555 1_555
C1F C10F 1_555 1_555
C3F C5F 1_555 1_555
C4F C9F 1_555 1_555
C5F H8F 1_555 1_555
C6F C9F 1_555 1_555
C7F C8F 1_555 1_555
C8F H5F 1_555 1_555
C9F C3F 1_555 1_555
C10F C2 1_555 1_555
C11F C3F 1_555 1_555
C12F C7F 1_555 1_555
C13F C1F 1_555 1_555
C14F C7F 1_555 1_555
C15F C3F 1_555 1_555
H1F C1F 1_555 1_555
H2F C6F 1_555 1_555
H4F C4F 1_555 1_555
H6F C8F 1_555 1_555
H7F C8F 1_555 1_555
H9F C14F 1_555 1_555
H10F C15F 1_555 1_555
H11F C12F 1_555 1_555
H12F C12F 1_555 1_555
H13F C12F 1_555 1_555
H14F C11F 1_555 1_555
H15F C15F 1_555 1_555
H16F C14F 1_555 1_555
H17F C14F 1_555 1_555
H18F C15F 1_555 1_555
H19F C5F 1_555 1_555
H20F C11F 1_555 1_555
H21F C11F 1_555 1_555
H22F C5F 1_555 1_555
C1I C10I 1_555 1_555
C3I C5I 1_555 1_555
C4I C9I 1_555 1_555
C5I H8I 1_555 1_555
C6I C9I 1_555 1_555
C7I C8I 1_555 1_555
C8I H5I 1_555 1_555
C9I C3I 1_555 1_555
C10I C2 1_555 1_555
C11I C3I 1_555 1_555
C12I C7I 1_555 1_555
C13I C1I 1_555 1_555
C14I C7I 1_555 1_555
C15I C3I 1_555 1_555
H1I C1I 1_555 1_555
H2I C6I 1_555 1_555
H4I C4I 1_555 1_555
H6I C8I 1_555 1_555
H7I C8I 1_555 1_555
H9I C14I 1_555 1_555
H10I C15I 1_555 1_555
H11I C12I 1_555 1_555
H12I C12I 1_555 1_555
H13I C12I 1_555 1_555
H14I C11I 1_555 1_555
H15I C15I 1_555 1_555
H16I C14I 1_555 1_555
H17I C14I 1_555 1_555
H18I C15I 1_555 1_555
H19I C5I 1_555 1_555
H20I C11I 1_555 1_555
H21I C11I 1_555 1_555
H22I C5I 1_555 1_555
C16F C22F 1_555 1_555
C17F C21F 1_555 1_555
C19F C25F 1_555 1_555
C20F C25F 1_555 1_555
C21F C18 1_555 1_555
C22F C23F 1_555 1_555
C23F C17F 1_555 1_555
C24F C26F 1_555 1_555
C25F C16F 1_555 1_555
C26F C23F 1_555 1_555
C27F C16F 1_555 1_555
C28F C25F 1_555 1_555
C29F C26F 1_555 1_555
C30F C26F 1_555 1_555
H23F C22F 1_555 1_555
H24F C17F 1_555 1_555
H25F C27F 1_555 1_555
H26F C19F 1_555 1_555
H28F C30F 1_555 1_555
H29F C19F 1_555 1_555
H30F C19F 1_555 1_555
H31F C20F 1_555 1_555
H32F C28F 1_555 1_555
H33F C28F 1_555 1_555
H34F C20F 1_555 1_555
H35F C24F 1_555 1_555
H36F C28F 1_555 1_555
H37F C20F 1_555 1_555
H38F C30F 1_555 1_555
H39F C29F 1_555 1_555
H40F C30F 1_555 1_555
H41F C29F 1_555 1_555
H42F C24F 1_555 1_555
H43F C24F 1_555 1_555
H44F C29F 1_555 1_555
C16I C22I 1_555 1_555
C17I C21I 1_555 1_555
C19I C25I 1_555 1_555
C20I C25I 1_555 1_555
C21I C18 1_555 1_555
C22I C23I 1_555 1_555
C23I C17I 1_555 1_555
C24I C26I 1_555 1_555
C25I C16I 1_555 1_555
C26I C23I 1_555 1_555
C27I C16I 1_555 1_555
C28I C25I 1_555 1_555
C29I C26I 1_555 1_555
C30I C26I 1_555 1_555
H23I C22I 1_555 1_555
H24I C17I 1_555 1_555
H25I C27I 1_555 1_555
H26I C19I 1_555 1_555
H28I C30I 1_555 1_555
H29I C19I 1_555 1_555
H30I C19I 1_555 1_555
H31I C20I 1_555 1_555
H32I C28I 1_555 1_555
H33I C28I 1_555 1_555
H34I C20I 1_555 1_555
H35I C24I 1_555 1_555
H36I C28I 1_555 1_555
H37I C20I 1_555 1_555
H38I C30I 1_555 1_555
H39I C29I 1_555 1_555
H40I C30I 1_555 1_555
H41I C29I 1_555 1_555
H42I C24I 1_555 1_555
H43I C24I 1_555 1_555
H44I C29I 1_555 1_555
C4 C13 1_555 1_555
C7 C13 1_555 1_555
C4F C13F 1_555 1_555
C6F C10F 1_555 1_555
C7F C13F 1_555 1_555
C4I C13I 1_555 1_555
C6I C10I 1_555 1_555
C7I C13I 1_555 1_555
C21F C27F 1_555 1_555
C21I C27I 1_555 1_555

#END
