
#######################################################################
#
#                 Cambridge Crystallographic Data Centre
#                                CCDC 
#
#######################################################################
#
# If this CIF has been generated from an entry in the Cambridge 
# Structural Database, then it will include bibliographic, chemical, 
# crystal, experimental, refinement or atomic coordinate data resulting 
# from the CCDC's data processing and validation procedures.
#
#######################################################################

data_DAZPUS01
_chemical_formula_moiety         'C43 H64'
_chemical_name_systematic        tris(3,5-di-t-butylphenyl)methane
_symmetry_cell_setting           cubic
_symmetry_space_group_name_H-M   'P a -3'
_symmetry_Int_Tables_number      205
_space_group_name_Hall           '-P 2ac 2ab 3'
loop_
_symmetry_equiv_pos_site_id
_symmetry_equiv_pos_as_xyz
1 x,y,z
2 z,x,y
3 y,z,x
4 1/2-y,-z,1/2+x
5 1/2+z,1/2-x,-y
6 -y,1/2+z,1/2-x
7 1/2-z,-x,1/2+y
8 -z,1/2+x,1/2-y
9 1/2+y,1/2-z,-x
10 1/2-x,-y,1/2+z
11 1/2+x,1/2-y,-z
12 -x,1/2+y,1/2-z
13 -x,-y,-z
14 -z,-x,-y
15 -y,-z,-x
16 1/2+y,z,1/2-x
17 1/2-z,1/2+x,y
18 y,1/2-z,1/2+x
19 1/2+z,x,1/2-y
20 z,1/2-x,1/2+y
21 1/2-y,1/2+z,x
22 1/2+x,y,1/2-z
23 1/2-x,1/2+y,z
24 x,1/2-y,1/2+z
_cell_length_a                   19.9454(4)
_cell_length_b                   19.9454(4)
_cell_length_c                   19.9454(4)
_cell_angle_alpha                90
_cell_angle_beta                 90
_cell_angle_gamma                90
_cell_volume                     7934.66
_exptl_crystal_colour            colorless
_exptl_crystal_description       block
_cell_formula_units_Z            8
loop_
_atom_site_label
_atom_site_type_symbol
_atom_site_fract_x
_atom_site_fract_y
_atom_site_fract_z
C1 C 0.55839(5) 0.98045(5) 0.12193(5)
C2 C 0.55783(5) 0.94472(5) 0.18161(5)
C3 C 0.56392(5) 0.97728(5) 0.24356(5)
C4 C 0.56417(5) 1.05034(5) 0.12362(5)
C5 C 0.56954(6) 1.04711(5) 0.24387(5)
C6 C 0.56947(6) 1.08481(5) 0.18412(5)
C7 C 0.56262(6) 0.93427(5) 0.30706(5)
C8 C 0.57772(7) 1.16116(6) 0.18495(6)
C9 C 0.61902(9) 0.88201(8) 0.30413(7)
C10 C 0.57162(9) 0.97549(7) 0.37093(6)
C11 C 0.49456(8) 0.89822(8) 0.31110(7)
C12 C 0.54641(19) 1.19229(8) 0.24727(10)
C13 C 0.54374(16) 1.19424(8) 0.12479(11)
C14 C 0.65245(13) 1.17736(11) 0.1831(2)
C15 C 0.55471(5) 0.94529(5) 0.05471(5)
H1 H 0.5648(10) 1.0736(10) 0.0800(11)
H2 H 0.4936(12) 0.8678(13) 0.3526(13)
H3 H 0.5535(9) 0.8961(10) 0.1784(9)
H4 H 0.5340(11) 1.0084(10) 0.3770(10)
H5 H 0.4883(13) 0.8682(13) 0.2705(13)
H6 H 0.6137(11) 1.0004(11) 0.3713(11)
H7 H 0.5681(12) 0.9445(12) 0.4085(13)
H8 H 0.6633(13) 0.9034(13) 0.3009(13)
H9 H 0.4559(13) 0.9309(13) 0.3130(12)
H10 H 0.496(2) 1.177(2) 0.255(2)
H11 H 0.6189(13) 0.8528(14) 0.3465(14)
H12 H 0.6145(12) 0.8523(12) 0.2636(12)
H13 H 0.5741(11) 1.0720(11) 0.2860(11)
H14 H 0.5743(16) 1.1809(15) 0.2863(17)
H15 H 0.5497(15) 1.2444(16) 0.2458(16)
H16 H 0.6704(16) 1.1600(17) 0.1448(18)
H17 H 0.6581(14) 1.2271(15) 0.1848(13)
H18 H 0.5722(19) 1.1816(19) 0.078(2)
H19 H 0.5458(14) 1.2462(15) 0.1324(15)
H20 H 0.4991(19) 1.1824(18) 0.1295(19)
H21 H 0.6744(17) 1.1556(18) 0.2299(19)
H22 H 0.5248(11) 0.9752(11) 0.0248(11)
C1C C 0.51955(5) 0.87807(5) 0.05839(5)
C2C C 0.55528(5) 0.81839(5) 0.05783(5)
C3C C 0.52272(5) 0.75644(5) 0.06392(5)
C4C C 0.44966(5) 0.87638(5) 0.06417(5)
C5C C 0.45289(5) 0.75613(5) 0.06954(6)
C6C C 0.41519(5) 0.81588(5) 0.06947(6)
C7C C 0.56573(5) 0.69294(5) 0.06262(6)
C8C C 0.33884(6) 0.81505(6) 0.07772(7)
C9C C 0.61799(8) 0.69587(7) 0.11902(9)
C10C C 0.52451(7) 0.62907(6) 0.07162(9)
C11C C 0.60178(8) 0.68890(7) -0.00544(8)
C12C C 0.30771(8) 0.75273(10) 0.04641(19)
C13C C 0.30576(8) 0.87521(11) 0.04374(16)
C14C C 0.32264(11) 0.8169(2) 0.15245(13)
H1C H 0.4264(10) 0.9200(11) 0.0648(10)
H2C H 0.6322(13) 0.6474(13) -0.0064(12)
H3C H 0.6039(10) 0.8216(9) 0.0535(9)
H4C H 0.4916(10) 0.6230(10) 0.0340(11)
H5C H 0.6318(13) 0.7295(13) -0.0117(13)
H6C H 0.4996(11) 0.6287(11) 0.1137(11)
H7C H 0.5555(12) 0.5915(13) 0.0681(12)
H8C H 0.5966(13) 0.6991(13) 0.1633(13)
H9C H 0.5691(13) 0.6870(12) -0.0441(13)
H10C H 0.323(2) 0.745(2) -0.004(2)
H11C H 0.6472(14) 0.6535(14) 0.1189(13)
H12C H 0.6477(12) 0.7364(12) 0.1145(12)
H13C H 0.4280(11) 0.7140(11) 0.0741(11)
H14C H 0.3191(15) 0.7137(17) 0.0743(16)
H15C H 0.2556(16) 0.7542(16) 0.0497(15)
H16C H 0.3400(17) 0.8552(18) 0.1704(16)
H17C H 0.2729(15) 0.8152(13) 0.1581(14)
H18C H 0.3184(19) 0.922(2) 0.0722(19)
H19C H 0.2538(15) 0.8676(15) 0.0458(14)
H20C H 0.3176(18) 0.8705(19) -0.0009(19)
H21C H 0.3444(18) 0.7701(19) 0.1744(17)
C1D C 0.62193(5) 0.94161(5) 0.01955(5)
C2D C 0.68161(5) 0.94217(5) 0.05528(5)
C3D C 0.74356(5) 0.93608(5) 0.02272(5)
C4D C 0.62362(5) 0.93583(5) -0.05034(5)
C5D C 0.74387(5) 0.93046(6) -0.04711(5)
C6D C 0.68412(5) 0.93053(6) -0.08481(5)
C7D C 0.80706(5) 0.93738(6) 0.06573(5)
C8D C 0.68495(6) 0.92228(7) -0.16116(6)
C9D C 0.80413(7) 0.88098(9) 0.11799(8)
C10D C 0.87093(6) 0.92838(9) 0.02451(7)
C11D C 0.81110(7) 1.00544(8) 0.10178(8)
C12D C 0.74727(10) 0.95359(19) -0.19229(8)
C13D C 0.62479(11) 0.95626(16) -0.19424(8)
C14D C 0.6831(2) 0.84755(13) -0.17736(11)
H1D H 0.5800(11) 0.9352(10) -0.0736(10)
H2D H 0.8526(13) 1.0064(12) 0.1322(13)
H3D H 0.6784(9) 0.9465(9) 0.1039(10)
H4D H 0.8770(10) 0.9660(11) -0.0084(10)
H5D H 0.7705(13) 1.0117(13) 0.1318(13)
H6D H 0.8713(11) 0.8863(11) -0.0004(11)
H7D H 0.9085(13) 0.9319(12) 0.0555(12)
H8D H 0.8009(13) 0.8367(13) 0.0966(13)
H9D H 0.8130(12) 1.0441(13) 0.0691(13)
H10D H 0.755(2) 1.004(2) -0.177(2)
H11D H 0.8465(14) 0.8811(13) 0.1472(14)
H12D H 0.7636(12) 0.8855(12) 0.1477(12)
H13D H 0.7860(11) 0.9259(11) -0.0720(11)
H14D H 0.7863(17) 0.9257(16) -0.1809(15)
H15D H 0.7458(16) 0.9503(15) -0.2444(16)
H16D H 0.6448(18) 0.8296(16) -0.1600(17)
H17D H 0.6848(13) 0.8419(14) -0.2271(15)
H18D H 0.578(2) 0.9278(19) -0.1816(19)
H19D H 0.6324(15) 0.9542(14) -0.2462(15)
H20D H 0.6295(19) 1.0009(19) -0.1824(18)
H21D H 0.7299(19) 0.8256(17) -0.1556(18)
loop_
_geom_bond_atom_site_label_1
_geom_bond_atom_site_label_2
_geom_bond_site_symmetry_1
_geom_bond_site_symmetry_2
C1 C2 1_555 1_555
C2 C3 1_555 1_555
C3 C5 1_555 1_555
C4 C1 1_555 1_555
C5 C6 1_555 1_555
C6 C4 1_555 1_555
C7 C3 1_555 1_555
C8 C6 1_555 1_555
C9 C7 1_555 1_555
C10 C7 1_555 1_555
C11 C7 1_555 1_555
C12 C8 1_555 1_555
C13 C8 1_555 1_555
C14 C8 1_555 1_555
C15 C1 1_555 1_555
H1 C4 1_555 1_555
H2 C11 1_555 1_555
H3 C2 1_555 1_555
H4 C10 1_555 1_555
H5 C11 1_555 1_555
H6 C10 1_555 1_555
H7 C10 1_555 1_555
H8 C9 1_555 1_555
H9 C11 1_555 1_555
H10 C12 1_555 1_555
H11 C9 1_555 1_555
H12 C9 1_555 1_555
H13 C5 1_555 1_555
H14 C12 1_555 1_555
H15 C12 1_555 1_555
H16 C14 1_555 1_555
H17 C14 1_555 1_555
H18 C13 1_555 1_555
H19 C13 1_555 1_555
H20 C13 1_555 1_555
H21 C14 1_555 1_555
H22 C15 1_555 1_555
C1C C15 1_555 1_555
C2C C1C 1_555 1_555
C3C C2C 1_555 1_555
C4C C1C 1_555 1_555
C5C C3C 1_555 1_555
C6C C4C 1_555 1_555
C7C C3C 1_555 1_555
C8C C6C 1_555 1_555
C9C C7C 1_555 1_555
C10C C7C 1_555 1_555
C11C C7C 1_555 1_555
C12C C8C 1_555 1_555
C13C C8C 1_555 1_555
C14C C8C 1_555 1_555
H1C C4C 1_555 1_555
H2C C11C 1_555 1_555
H3C C2C 1_555 1_555
H4C C10C 1_555 1_555
H5C C11C 1_555 1_555
H6C C10C 1_555 1_555
H7C C10C 1_555 1_555
H8C C9C 1_555 1_555
H9C C11C 1_555 1_555
H10C C12C 1_555 1_555
H11C C9C 1_555 1_555
H12C C9C 1_555 1_555
H13C C5C 1_555 1_555
H14C C12C 1_555 1_555
H15C C12C 1_555 1_555
H16C C14C 1_555 1_555
H17C C14C 1_555 1_555
H18C C13C 1_555 1_555
H19C C13C 1_555 1_555
H20C C13C 1_555 1_555
H21C C14C 1_555 1_555
C1D C15 1_555 1_555
C2D C1D 1_555 1_555
C3D C2D 1_555 1_555
C4D C1D 1_555 1_555
C5D C3D 1_555 1_555
C6D C4D 1_555 1_555
C7D C3D 1_555 1_555
C8D C6D 1_555 1_555
C9D C7D 1_555 1_555
C10D C7D 1_555 1_555
C11D C7D 1_555 1_555
C12D C8D 1_555 1_555
C13D C8D 1_555 1_555
C14D C8D 1_555 1_555
H1D C4D 1_555 1_555
H2D C11D 1_555 1_555
H3D C2D 1_555 1_555
H4D C10D 1_555 1_555
H5D C11D 1_555 1_555
H6D C10D 1_555 1_555
H7D C10D 1_555 1_555
H8D C9D 1_555 1_555
H9D C11D 1_555 1_555
H10D C12D 1_555 1_555
H11D C9D 1_555 1_555
H12D C9D 1_555 1_555
H13D C5D 1_555 1_555
H14D C12D 1_555 1_555
H15D C12D 1_555 1_555
H16D C14D 1_555 1_555
H17D C14D 1_555 1_555
H18D C13D 1_555 1_555
H19D C13D 1_555 1_555
H20D C13D 1_555 1_555
H21D C14D 1_555 1_555
C5C C6C 1_555 1_555
C5D C6D 1_555 1_555

#END
