
#######################################################################
#
#                 Cambridge Crystallographic Data Centre
#                                CCDC 
#
#######################################################################
#
# If this CIF has been generated from an entry in the Cambridge 
# Structural Database, then it will include bibliographic, chemical, 
# crystal, experimental, refinement or atomic coordinate data resulting 
# from the CCDC's data processing and validation procedures.
#
#######################################################################

data_DCLPHM02
_chemical_formula_moiety         'C6 H4 Cl2 O1'
_chemical_name_systematic        3,4-Dichlorophenol
_symmetry_cell_setting           tetragonal
_symmetry_space_group_name_H-M   'I 41/a'
_symmetry_Int_Tables_number      88
_space_group_name_Hall           '-I 4ad'
loop_
_symmetry_equiv_pos_site_id
_symmetry_equiv_pos_as_xyz
1 x,y,z
2 1/2-x,-y,1/2+z
3 3/4-y,1/4+x,1/4+z
4 3/4+y,3/4-x,3/4+z
5 1/2+x,1/2+y,1/2+z
6 -x,1/2-y,z
7 1/4-y,3/4+x,3/4+z
8 1/4+y,1/4-x,1/4+z
9 -x,-y,-z
10 1/2+x,y,1/2-z
11 1/4+y,3/4-x,3/4-z
12 1/4-y,1/4+x,1/4-z
13 1/2-x,1/2-y,1/2-z
14 x,1/2+y,-z
15 3/4+y,1/4-x,1/4-z
16 3/4-y,3/4+x,3/4-z
_cell_length_a                   26.186(8)
_cell_length_b                   26.186(8)
_cell_length_c                   3.8144(8)
_cell_angle_alpha                90
_cell_angle_beta                 90
_cell_angle_gamma                90
_cell_volume                     2615.56
_exptl_crystal_colour            colorless
_exptl_crystal_description       needle
_cell_formula_units_Z            16
loop_
_atom_site_label
_atom_site_type_symbol
_atom_site_fract_x
_atom_site_fract_y
_atom_site_fract_z
C1 C 0.82948(9) 0.58362(9) 0.4553(6)
C2 C 0.87167(9) 0.55743(9) 0.3335(6)
H1 H 0.8723 0.5219 0.3364
C3 C 0.91318(9) 0.58493(9) 0.2066(6)
C4 C 0.91197(9) 0.63759(9) 0.1915(6)
C5 C 0.86868(9) 0.66313(9) 0.3060(7)
H2 H 0.8674 0.6986 0.2939
C6 C 0.82748(9) 0.63635(9) 0.4379(7)
H3 H 0.7986 0.6537 0.5146
O1 O 0.78803(6) 0.55750(7) 0.5916(5)
Cl1 Cl 0.96601(2) 0.55108(3) 0.0623(2)
Cl2 Cl 0.96382(2) 0.67159(3) 0.03802(19)
H4 H 0.7964(12) 0.5264(13) 0.656(9)
loop_
_geom_bond_atom_site_label_1
_geom_bond_atom_site_label_2
_geom_bond_site_symmetry_1
_geom_bond_site_symmetry_2
C1 C2 1_555 1_555
C2 H1 1_555 1_555
C3 C2 1_555 1_555
C4 C3 1_555 1_555
C5 C4 1_555 1_555
H2 C5 1_555 1_555
C6 C1 1_555 1_555
H3 C6 1_555 1_555
O1 C1 1_555 1_555
Cl1 C3 1_555 1_555
Cl2 C4 1_555 1_555
H4 O1 1_555 1_555
C5 C6 1_555 1_555

#END
