
#######################################################################
#
#                 Cambridge Crystallographic Data Centre
#                                CCDC 
#
#######################################################################
#
# If this CIF has been generated from an entry in the Cambridge 
# Structural Database, then it will include bibliographic, chemical, 
# crystal, experimental, refinement or atomic coordinate data resulting 
# from the CCDC's data processing and validation procedures.
#
#######################################################################

data_DEBHAW
_chemical_formula_moiety         'C15 H14 O5'
_chemical_name_systematic        
'dimethyl 6-phenyl-2-oxabicyclo[3.1.0]hex-3-ene-4,6-dicarboxylate'
_symmetry_cell_setting           monoclinic
_symmetry_space_group_name_H-M   'C 2'
_symmetry_Int_Tables_number      5
_space_group_name_Hall           'C 2y'
loop_
_symmetry_equiv_pos_site_id
_symmetry_equiv_pos_as_xyz
1 x,y,z
2 -x,y,-z
3 1/2+x,1/2+y,z
4 1/2-x,1/2+y,-z
_cell_length_a                   16.4819(2)
_cell_length_b                   5.77330(10)
_cell_length_c                   14.4387(2)
_cell_angle_alpha                90
_cell_angle_beta                 106.4900(10)
_cell_angle_gamma                90
_cell_volume                     1317.4
_exptl_crystal_colour            colorless
_exptl_crystal_description       prism
_cell_formula_units_Z            4
loop_
_atom_site_label
_atom_site_type_symbol
_atom_site_fract_x
_atom_site_fract_y
_atom_site_fract_z
O1 O 0.85051(8) 0.2891(3) 0.92183(9)
O2 O 0.81988(9) 0.5857(3) 1.00777(9)
O3 O 0.73915(8) 0.2988(3) 0.55731(9)
O4 O 0.72291(9) 0.8871(3) 0.72999(10)
O5 O 0.6022(8) 0.2837(13) 0.5436(8)
C1 C 0.81741(11) 0.4976(4) 0.93108(13)
C2 C 0.74840(12) 0.8181(4) 0.82394(14)
H1 H 0.744229 0.911907 0.874763
C3 C 0.68160(11) 0.4808(4) 0.67306(13)
C4 C 0.67895(11) 0.3334(4) 0.58712(13)
C5 C 0.77996(11) 0.6035(4) 0.83661(13)
C6 C 0.77270(11) 0.5011(4) 0.74045(13)
H2 H 0.818361 0.405531 0.729740
C7 C 0.73535(12) 0.6967(4) 0.67282(14)
H3 H 0.756705 0.726081 0.617113
C8 C 0.89058(13) 0.1711(4) 1.01142(14)
H4 H 0.913184 0.025922 0.997781
H5 H 0.849612 0.143546 1.045991
H6 H 0.935548 0.265367 1.050002
C9 C 0.5918(6) 0.1582(13) 0.4535(6)
H7 H 0.603854 0.259719 0.406447
H8 H 0.534639 0.103130 0.430157
H9 H 0.630015 0.029009 0.464507
C10 C 0.6077(2) 0.4988(8) 0.7130(3)
C11 C 0.5530(2) 0.6870(7) 0.6911(3)
H10 H 0.564815 0.810256 0.655532
C12 C 0.4806(2) 0.6909(7) 0.7222(3)
H11 H 0.443961 0.816826 0.707545
C13 C 0.4629(3) 0.5066(8) 0.7754(3)
H12 H 0.414430 0.509271 0.796211
C14 C 0.5176(4) 0.3184(7) 0.7973(4)
H13 H 0.505754 0.195147 0.832865
C15 C 0.5900(4) 0.3145(7) 0.7662(4)
H14 H 0.626609 0.188574 0.780854
C16? C 0.6015(3) 0.4772(10) 0.7059(4)
C17? C 0.5348(3) 0.6216(9) 0.6596(4)
H15? H 0.540051 0.719789 0.610550
C18? C 0.4603(3) 0.6191(10) 0.6866(4)
H16? H 0.415685 0.715659 0.655604
C19? C 0.4525(3) 0.4723(10) 0.7598(4)
H17? H 0.402616 0.470596 0.777905
C20? C 0.5192(5) 0.3279(10) 0.8061(4)
H18? H 0.513912 0.229659 0.855153
C21? C 0.5937(4) 0.3304(11) 0.7791(5)
H19? H 0.638279 0.233784 0.810100
O6? O 0.6016(9) 0.2133(17) 0.5492(10)
C22? C 0.5949(7) 0.0683(16) 0.4660(7)
H20? H 0.536351 0.045418 0.431979
H21? H 0.620995 -0.078772 0.486591
H22? H 0.623026 0.141826 0.423979
loop_
_geom_bond_atom_site_label_1
_geom_bond_atom_site_label_2
_geom_bond_site_symmetry_1
_geom_bond_site_symmetry_2
O1 C1 1_555 1_555
O2 C1 1_555 1_555
O3 C4 1_555 1_555
O4 C2 1_555 1_555
O5 C4 1_555 1_555
C1 C5 1_555 1_555
C2 H1 1_555 1_555
C3 C4 1_555 1_555
C5 C2 1_555 1_555
C6 C3 1_555 1_555
H2 C6 1_555 1_555
C7 O4 1_555 1_555
H3 C7 1_555 1_555
C8 O1 1_555 1_555
H4 C8 1_555 1_555
H5 C8 1_555 1_555
H6 C8 1_555 1_555
C9 O5 1_555 1_555
H7 C9 1_555 1_555
H8 C9 1_555 1_555
H9 C9 1_555 1_555
C10 C3 1_555 1_555
C11 C10 1_555 1_555
H10 C11 1_555 1_555
C12 C11 1_555 1_555
H11 C12 1_555 1_555
C13 C12 1_555 1_555
H12 C13 1_555 1_555
C14 C13 1_555 1_555
H13 C14 1_555 1_555
C15 C10 1_555 1_555
H14 C15 1_555 1_555
C3 C7 1_555 1_555
C5 C6 1_555 1_555
C6 C7 1_555 1_555
C14 C15 1_555 1_555

#END
