
#######################################################################
#
#                 Cambridge Crystallographic Data Centre
#                                CCDC 
#
#######################################################################
#
# If this CIF has been generated from an entry in the Cambridge 
# Structural Database, then it will include bibliographic, chemical, 
# crystal, experimental, refinement or atomic coordinate data resulting 
# from the CCDC's data processing and validation procedures.
#
#######################################################################

data_DEBJAY
_chemical_compound_source        
'isolated from the whole plants of Zephyranthes carinata'
_chemical_name_common            'carinatine N-alpha-oxide sesquihydrate'
_chemical_formula_moiety         'C17 H21 N1 O5,1.5(H2 O1)'
_chemical_name_systematic        
'2,9-dimethoxy-6-oxo-1,2,4,5,6,7,11b,11c-octahydro-6\l^5^-pyrrolo[3,2,1-de]phenanthridine-1,10-diol sesquihydrate'
_symmetry_cell_setting           monoclinic
_symmetry_space_group_name_H-M   'C 2'
_symmetry_Int_Tables_number      5
_space_group_name_Hall           'C 2y'
loop_
_symmetry_equiv_pos_site_id
_symmetry_equiv_pos_as_xyz
1 x,y,z
2 -x,y,-z
3 1/2+x,1/2+y,z
4 1/2-x,1/2+y,-z
_cell_length_a                   25.998(2)
_cell_length_b                   12.1491(11)
_cell_length_c                   11.3547(11)
_cell_angle_alpha                90
_cell_angle_beta                 103.780(5)
_cell_angle_gamma                90
_cell_volume                     3483.18
_exptl_crystal_colour            colorless
_exptl_crystal_description       block
_cell_formula_units_Z            8
loop_
_atom_site_label
_atom_site_type_symbol
_atom_site_fract_x
_atom_site_fract_y
_atom_site_fract_z
C1 C 0.65760(19) 0.6193(4) 0.4376(4)
H1 H 0.6734 0.5463 0.4357
C2 C 0.5970(2) 0.6086(5) 0.4160(5)
H2 H 0.5822 0.6030 0.3284
C3 C 0.57046(19) 0.7022(4) 0.4622(6)
H3 H 0.5337 0.7024 0.4472
C4 C 0.59708(19) 0.7850(4) 0.5239(5)
C5 C 0.7184(2) 0.8083(4) 0.7553(4)
H4 H 0.7359 0.8648 0.8109
H5 H 0.7043 0.7541 0.8020
C6 C 0.8125(2) 0.7681(4) 0.7470(5)
H6 H 0.8249 0.8158 0.8116
C7 C 0.8478(2) 0.7086(5) 0.6950(5)
C8 C 0.82889(18) 0.6392(4) 0.5980(4)
C9 C 0.77525(18) 0.6250(4) 0.5522(4)
H7 H 0.7629 0.5774 0.4875
C10 C 0.5798(2) 0.8761(5) 0.5961(6)
H8 H 0.5462 0.8593 0.6152
H9 H 0.5771 0.9459 0.5536
C11 C 0.6248(2) 0.8764(5) 0.7088(5)
H10 H 0.6264 0.9461 0.7512
H11 H 0.6205 0.8176 0.7634
C12 C 0.5827(5) 0.4176(8) 0.3864(10)
H12 H 0.6141 0.3738 0.4116
H13 H 0.5804 0.4452 0.3061
H14 H 0.5522 0.3733 0.3867
C13 C 0.9223(3) 0.7580(8) 0.8552(7)
H15 H 0.9115 0.8334 0.8570
H16 H 0.9603 0.7539 0.8757
H17 H 0.9086 0.7161 0.9127
C14 C 0.65681(17) 0.7885(4) 0.5502(4)
H18 H 0.6671 0.8263 0.4831
C15 C 0.75817(19) 0.7539(4) 0.6991(4)
C16 C 0.73976(18) 0.6826(4) 0.6036(4)
C17 C 0.67983(18) 0.6731(4) 0.5606(4)
H19 H 0.6665 0.6328 0.6221
N1 N 0.67347(15) 0.8594(3) 0.6640(4)
O1 O 0.66811(14) 0.6849(3) 0.3434(3)
H20 H 0.6878 0.6514 0.3093
O2 O 0.58495(13) 0.5101(3) 0.4702(4)
O3 O 0.69006(13) 0.9609(3) 0.6271(3)
O4 O 0.90222(14) 0.7142(3) 0.7366(4)
O5 O 0.86520(13) 0.5852(3) 0.5493(4)
H21 H 0.8497 0.5484 0.4910
C19 C 0.85222(18) 1.0593(4) 0.0317(4)
H25 H 0.8374 1.1338 0.0197
C20 C 0.9136(2) 1.0658(5) 0.0660(5)
H26 H 0.9260 1.0788 -0.0077
C21 C 0.9393(2) 0.9652(5) 0.1264(6)
H27 H 0.9760 0.9599 0.1414
C22 C 0.91330(19) 0.8831(4) 0.1598(5)
C23 C 0.8032(2) 0.8687(4) 0.2966(5)
H28 H 0.7879 0.8150 0.3417
H29 H 0.8228 0.9220 0.3537
C24 C 0.70625(19) 0.9109(4) 0.2043(5)
H30 H 0.6961 0.8630 0.2586
C25 C 0.66837(19) 0.9682(4) 0.1203(5)
C26 C 0.68321(19) 1.0398(4) 0.0392(5)
C27 C 0.73624(18) 1.0551(4) 0.0416(4)
H31 H 0.7461 1.1033 -0.0128
C28 C 0.9318(2) 0.7841(5) 0.2380(6)
H32 H 0.9677 0.7938 0.2864
H33 H 0.9301 0.7177 0.1898
C29 C 0.8924(2) 0.7811(5) 0.3162(6)
H34 H 0.9021 0.8332 0.3825
H35 H 0.8906 0.7081 0.3494
C30 C 0.5974(3) 0.8944(7) 0.1960(8)
H36 H 0.6069 0.8188 0.1881
H37 H 0.5597 0.9004 0.1832
H38 H 0.6141 0.9203 0.2758
C31 C 0.85403(18) 0.8861(4) 0.1360(4)
H39 H 0.8395 0.8527 0.0565
C32 C 0.75998(19) 0.9256(4) 0.2068(4)
C33 C 0.77476(17) 0.9984(4) 0.1254(4)
C34 C 0.9718(6) 1.2184(12) 0.1448(14)
H40 H 1.0029 1.1733 0.1673
H41 H 0.9743 1.2780 0.2014
H42 H 0.9688 1.2474 0.0648
C35 C 0.83329(17) 1.0027(4) 0.1331(4)
H43 H 0.8505 1.0384 0.2098
N2 N 0.83983(14) 0.8123(3) 0.2325(3)
O6 O 0.83731(13) 0.9998(3) -0.0781(3)
H44 H 0.8137 1.0330 -0.1256
O7 O 0.92850(17) 1.1572(3) 0.1461(4)
O8 O 0.81483(13) 0.7182(3) 0.1758(3)
O9 O 0.61456(14) 0.9587(4) 0.1088(4)
O10 O 0.64360(13) 1.0917(3) -0.0425(4)
H45 H 0.6561 1.1423 -0.0746
O11 O 0.74197(12) 0.5972(3) 0.2419(3)
H49 H 0.7614 0.6482 0.2248
H50 H 0.7621 0.5438 0.2707
O12 O 0.5271(2) 1.0344(6) -0.1010(8)
H51 H 0.5338 0.9951 -0.0372
H52 H 0.5564 1.0628 -0.1059
O13 O 0.9851(2) 0.5789(7) 0.6317(8)
H53 H 0.9555 0.5604 0.5860
H54 H 0.9777 0.6241 0.6823
C18? C 0.5343(5) 0.4684(13) 0.4392(17)
H22? H 0.5220 0.4674 0.3525
H23? H 0.5114 0.5139 0.4734
H24? H 0.5343 0.3949 0.4701
C36? C 0.9391(11) 1.2559(9) 0.0858(19)
H46? H 0.9582 1.3070 0.1448
H47? H 0.9063 1.2884 0.0433
H48? H 0.9600 1.2380 0.0291
loop_
_geom_bond_atom_site_label_1
_geom_bond_atom_site_label_2
_geom_bond_site_symmetry_1
_geom_bond_site_symmetry_2
C1 H1 1_555 1_555
C2 C1 1_555 1_555
H2 C2 1_555 1_555
C3 C2 1_555 1_555
H3 C3 1_555 1_555
C4 C3 1_555 1_555
C5 H4 1_555 1_555
H5 C5 1_555 1_555
C6 H6 1_555 1_555
C7 C6 1_555 1_555
C8 C7 1_555 1_555
C9 C8 1_555 1_555
H7 C9 1_555 1_555
C10 C4 1_555 1_555
H8 C10 1_555 1_555
H9 C10 1_555 1_555
C11 C10 1_555 1_555
H10 C11 1_555 1_555
H11 C11 1_555 1_555
C12 H12 1_555 1_555
H13 C12 1_555 1_555
H14 C12 1_555 1_555
C13 H15 1_555 1_555
H16 C13 1_555 1_555
H17 C13 1_555 1_555
C14 C4 1_555 1_555
H18 C14 1_555 1_555
C15 C5 1_555 1_555
C16 C9 1_555 1_555
C17 C1 1_555 1_555
H19 C17 1_555 1_555
N1 C5 1_555 1_555
O1 C1 1_555 1_555
H20 O1 1_555 1_555
O2 C2 1_555 1_555
O3 N1 1_555 1_555
O4 C7 1_555 1_555
O5 C8 1_555 1_555
H21 O5 1_555 1_555
C19 H25 1_555 1_555
C20 C19 1_555 1_555
H26 C20 1_555 1_555
C21 C20 1_555 1_555
H27 C21 1_555 1_555
C22 C21 1_555 1_555
C23 H28 1_555 1_555
H29 C23 1_555 1_555
C24 H30 1_555 1_555
C25 C24 1_555 1_555
C26 C25 1_555 1_555
C27 C26 1_555 1_555
H31 C27 1_555 1_555
C28 C22 1_555 1_555
H32 C28 1_555 1_555
H33 C28 1_555 1_555
C29 C28 1_555 1_555
H34 C29 1_555 1_555
H35 C29 1_555 1_555
C30 H36 1_555 1_555
H37 C30 1_555 1_555
H38 C30 1_555 1_555
C31 C22 1_555 1_555
H39 C31 1_555 1_555
C32 C23 1_555 1_555
C33 C27 1_555 1_555
C34 H40 1_555 1_555
H41 C34 1_555 1_555
H42 C34 1_555 1_555
C35 C19 1_555 1_555
H43 C35 1_555 1_555
N2 C23 1_555 1_555
O6 C19 1_555 1_555
H44 O6 1_555 1_555
O7 C20 1_555 1_555
O8 N2 1_555 1_555
O9 C25 1_555 1_555
O10 C26 1_555 1_555
H45 O10 1_555 1_555
O11 H49 1_555 1_555
H50 O11 1_555 1_555
O12 H51 1_555 1_555
H52 O12 1_555 1_555
O13 H53 1_555 1_555
H54 O13 1_555 1_555
C6 C15 1_555 1_555
C11 N1 1_555 1_555
C12 O2 1_555 1_555
C13 O4 1_555 1_555
C14 C17 1_555 1_555
C14 N1 1_555 1_555
C15 C16 1_555 1_555
C16 C17 1_555 1_555
C24 C32 1_555 1_555
C29 N2 1_555 1_555
C30 O9 1_555 1_555
C31 C35 1_555 1_555
C31 N2 1_555 1_555
C32 C33 1_555 1_555
C33 C35 1_555 1_555
C34 O7 1_555 1_555

#END
