
#######################################################################
#
#                 Cambridge Crystallographic Data Centre
#                                CCDC 
#
#######################################################################
#
# If this CIF has been generated from an entry in the Cambridge 
# Structural Database, then it will include bibliographic, chemical, 
# crystal, experimental, refinement or atomic coordinate data resulting 
# from the CCDC's data processing and validation procedures.
#
#######################################################################

data_DEBMUV
_chemical_formula_moiety         'C26 H20 Cl1 N3 O3'
_chemical_name_systematic        
2-(4-chlorophenyl)-4-nitro-3-phenyl-1-(1-phenyl-1H-imidazol-2-yl)pent-4-en-1-one
_symmetry_cell_setting           orthorhombic
_symmetry_space_group_name_H-M   'P 21 21 21'
_symmetry_Int_Tables_number      19
_space_group_name_Hall           'P 2ac 2ab'
loop_
_symmetry_equiv_pos_site_id
_symmetry_equiv_pos_as_xyz
1 x,y,z
2 1/2-x,-y,1/2+z
3 1/2+x,1/2-y,-z
4 -x,1/2+y,1/2-z
_cell_length_a                   5.9123(2)
_cell_length_b                   16.6068(8)
_cell_length_c                   23.6020(8)
_cell_angle_alpha                90
_cell_angle_beta                 90
_cell_angle_gamma                90
_cell_volume                     2317.35
_exptl_crystal_colour            'light colorless'
_exptl_crystal_description       block
_cell_formula_units_Z            4
loop_
_atom_site_label
_atom_site_type_symbol
_atom_site_fract_x
_atom_site_fract_y
_atom_site_fract_z
Cl1 Cl 0.8884(3) 0.14289(7) 0.06946(5)
O1 O 1.1651(4) 0.53624(19) -0.04872(10)
O2 O 0.8357(5) 0.5160(2) -0.08218(10)
O3 O 1.3739(4) 0.53524(17) 0.14202(9)
N1 N 0.9631(5) 0.52531(19) -0.04269(11)
N2 N 0.9928(7) 0.4528(2) 0.23837(13)
N3 N 1.2594(6) 0.5402(2) 0.26180(12)
C1 C 1.1380(7) 0.3660(2) 0.07736(15)
H1 H 1.2672 0.3927 0.0650
C2 C 1.1114(8) 0.2843(3) 0.06606(17)
H2 H 1.2213 0.2565 0.0458
C3 C 0.9232(9) 0.2453(2) 0.08491(17)
C4 C 0.7618(8) 0.2839(3) 0.11502(18)
H3 H 0.6355 0.2563 0.1282
C5 C 0.7874(7) 0.3650(2) 0.12592(16)
H4 H 0.6767 0.3918 0.1466
C6 C 0.9743(6) 0.4074(2) 0.10674(14)
C7 C 0.9940(5) 0.4974(2) 0.11707(12)
H5 H 0.8521 0.5163 0.1339
C8 C 1.0368(5) 0.54590(19) 0.06183(12)
H6 H 1.1874 0.5308 0.0481
C9 C 0.8704(5) 0.52429(19) 0.01574(12)
C10 C 0.6545(6) 0.5087(2) 0.02078(15)
H7 H 0.5675 0.4989 -0.0113
H8 H 0.5880 0.5073 0.0565
C11 C 1.0389(5) 0.6366(2) 0.07132(13)
C12 C 1.2187(6) 0.6820(2) 0.05219(14)
H9 H 1.3408 0.6565 0.0350
C13 C 1.2210(8) 0.7651(2) 0.05803(17)
H10 H 1.3430 0.7949 0.0446
C14 C 1.0421(7) 0.8031(3) 0.08373(16)
H11 H 1.0417 0.8588 0.0875
C15 C 0.8646(8) 0.7588(2) 0.10377(17)
H12 H 0.7450 0.7846 0.1218
C16 C 0.8608(6) 0.6755(2) 0.09755(14)
H13 H 0.7385 0.6460 0.1111
C17 C 1.1863(6) 0.5159(2) 0.15824(13)
C18 C 1.1376(7) 0.5058(2) 0.21897(14)
C19 C 1.0211(11) 0.4513(3) 0.29538(18)
H14 H 0.9414 0.4186 0.3204
C20 C 1.1830(10) 0.5046(3) 0.31025(16)
H15 H 1.2333 0.5151 0.3468
C21 C 1.4029(7) 0.6089(3) 0.25968(16)
C22 C 1.3349(8) 0.6769(3) 0.23124(18)
H16 H 1.1987 0.6771 0.2115
C23 C 1.4694(11) 0.7450(3) 0.2320(2)
H17 H 1.4243 0.7913 0.2129
C24 C 1.6759(12) 0.7436(5) 0.2620(3)
H18 H 1.7698 0.7885 0.2626
C25 C 1.7343(11) 0.6752(6) 0.2898(3)
H19 H 1.8693 0.6745 0.3100
C26 C 1.6032(9) 0.6073(4) 0.2894(2)
H20 H 1.6483 0.5612 0.3087
H21? H 0.8987 0.4247 0.2189
loop_
_geom_bond_atom_site_label_1
_geom_bond_atom_site_label_2
_geom_bond_site_symmetry_1
_geom_bond_site_symmetry_2
Cl1 C3 1_555 1_555
O1 N1 1_555 1_555
O2 N1 1_555 1_555
O3 C17 1_555 1_555
N1 C9 1_555 1_555
N2 C18 1_555 1_555
N3 C18 1_555 1_555
C1 H1 1_555 1_555
C2 C1 1_555 1_555
H2 C2 1_555 1_555
C3 C2 1_555 1_555
C4 C3 1_555 1_555
H3 C4 1_555 1_555
C5 C4 1_555 1_555
H4 C5 1_555 1_555
C6 C1 1_555 1_555
C7 C6 1_555 1_555
H5 C7 1_555 1_555
C8 C7 1_555 1_555
H6 C8 1_555 1_555
C9 C8 1_555 1_555
C10 C9 1_555 1_555
H7 C10 1_555 1_555
H8 C10 1_555 1_555
C11 C8 1_555 1_555
C12 C11 1_555 1_555
H9 C12 1_555 1_555
C13 C12 1_555 1_555
H10 C13 1_555 1_555
C14 C13 1_555 1_555
H11 C14 1_555 1_555
C15 C14 1_555 1_555
H12 C15 1_555 1_555
C16 C11 1_555 1_555
H13 C16 1_555 1_555
C17 C7 1_555 1_555
C18 C17 1_555 1_555
C19 N2 1_555 1_555
H14 C19 1_555 1_555
C20 N3 1_555 1_555
H15 C20 1_555 1_555
C21 N3 1_555 1_555
C22 C21 1_555 1_555
H16 C22 1_555 1_555
C23 C22 1_555 1_555
H17 C23 1_555 1_555
C24 C23 1_555 1_555
H18 C24 1_555 1_555
C25 C24 1_555 1_555
H19 C25 1_555 1_555
C26 C21 1_555 1_555
H20 C26 1_555 1_555
C5 C6 1_555 1_555
C15 C16 1_555 1_555
C19 C20 1_555 1_555
C25 C26 1_555 1_555

#END
