
#######################################################################
#
#                 Cambridge Crystallographic Data Centre
#                                CCDC 
#
#######################################################################
#
# If this CIF has been generated from an entry in the Cambridge 
# Structural Database, then it will include bibliographic, chemical, 
# crystal, experimental, refinement or atomic coordinate data resulting 
# from the CCDC's data processing and validation procedures.
#
#######################################################################

data_DEBSAE
_chemical_formula_moiety         'C17 H23 N1 O7,C12 H14 N1 1+,Cl1 O4 1-'
_chemical_name_systematic        
'(4S,14S)-4,14-Dimethyl-3,6,9,12,15-pentaoxa-21-azabicyclo(15.3.1)heneicosa-1(21),17,19-triene-2,16-dione (R)-\a-(1-naphthyl)ethylammonium perchlorate'
_symmetry_cell_setting           orthorhombic
_symmetry_space_group_name_H-M   'P 21 21 21'
_symmetry_Int_Tables_number      19
_space_group_name_Hall           'P 2ac 2ab'
loop_
_symmetry_equiv_pos_site_id
_symmetry_equiv_pos_as_xyz
1 x,y,z
2 1/2+x,1/2-y,-z
3 -x,1/2+y,1/2-z
4 1/2-x,-y,1/2+z
_cell_length_a                   8.47(1)
_cell_length_b                   11.78(1)
_cell_length_c                   31.19(6)
_cell_angle_alpha                90
_cell_angle_beta                 90
_cell_angle_gamma                90
_cell_volume                     3112.03
_cell_formula_units_Z            4
loop_
_atom_site_label
_atom_site_type_symbol
_atom_site_fract_x
_atom_site_fract_y
_atom_site_fract_z
C1 C 0.2469(30) 0.6660(19) -0.2075(8)
C2 C 0.3275(24) 0.7590(17) -0.1781(6)
C3 C 0.4379(32) 0.8266(21) -0.1158(9)
C4 C 0.5486(27) 0.7612(20) -0.0845(8)
C5 C 0.5420(35) 0.6682(19) -0.0130(9)
C6 C 0.6246(27) 0.5634(16) -0.0199(6)
C7 C 0.5624(31) 0.3622(18) -0.0288(9)
C8 C 0.4251(26) 0.2844(18) -0.0319(6)
C9 C 0.4462(25) 0.2369(17) -0.1071(6)
C10 C 0.3533(27) 0.2227(16) -0.1476(6)
C11 C 0.2108(26) 0.3583(17) -0.1953(6)
C12 C 0.2024(23) 0.4709(16) -0.2102(6)
C13 C 0.1096(29) 0.4890(21) -0.2490(8)
C14 C 0.1003(33) 0.5924(21) -0.2651(9)
C15 C 0.1649(26) 0.6817(17) -0.2441(6)
C16 C 0.3189(27) 0.9028(17) -0.0936(8)
C17 C 0.4329(23) 0.1540(16) -0.1810(6)
N1 N 0.2615(19) 0.5555(13) -0.1860(5)
O1 O 0.3405(22) 0.8526(13) -0.1951(6)
O2 O 0.3594(18) 0.7347(12) -0.1401(5)
O3 O 0.4600(21) 0.7085(13) -0.0487(6)
O4 O 0.5200(19) 0.4704(13) -0.0306(5)
O5 O 0.3595(17) 0.2865(10) -0.0735(4)
O6 O 0.3224(33) 0.3420(21) -0.1635(9)
O7 O 0.1319(26) 0.2794(17) -0.2061(6)
C18 C 0.1093(27) 0.5593(16) -0.0770(6)
C19 C 0.0959(27) 0.5103(16) -0.0342(6)
C20 C -0.0107(30) 0.5137(19) -0.1108(8)
C21 C -0.0355(24) 0.4048(17) -0.1112(6)
C22 C -0.1390(18) 0.3582(12) -0.1414(5)
C23 C -0.2278(32) 0.4308(21) -0.1608(9)
C24 C -0.2148(27) 0.5449(17) -0.1661(8)
C25 C -0.2818(27) 0.6234(17) -0.1959(8)
C26 C -0.2555(27) 0.7368(20) -0.1922(8)
C27 C -0.1509(27) 0.7869(20) -0.1633(8)
C28 C -0.0725(35) 0.7067(19) -0.1339(9)
C29 C -0.0928(35) 0.5890(19) -0.1365(9)
H1 H 0.3114(31) 0.5184(18) -0.1256(9)
H2 H 0.3098(31) 0.4366(18) -0.0782(9)
H3 H 0.3353(31) 0.5849(18) -0.0754(9)
N2 N 0.2767(26) 0.5169(18) -0.0923(6)
Cl1 Cl 0.1405(17) 0.5554(10) 0.5885(4)
O8 O 0.1114(25) 0.4542(17) 0.5705(6)
O9 O 0.0498(25) 0.6423(17) 0.5751(6)
O10 O 0.2511(25) 0.5945(17) 0.5554(3)
O11 O 0.1939(27) 0.5616(16) 0.6297(6)
loop_
_geom_bond_atom_site_label_1
_geom_bond_atom_site_label_2
_geom_bond_site_symmetry_1
_geom_bond_site_symmetry_2
C1 C2 1_555 1_555
C2 O1 1_555 1_555
C3 C4 1_555 1_555
C4 O3 1_555 1_555
C5 C6 1_555 1_555
C6 O4 1_555 1_555
C7 C8 1_555 1_555
C8 O5 1_555 1_555
C9 C10 1_555 1_555
C10 C17 1_555 1_555
C11 C12 1_555 1_555
C12 C13 1_555 1_555
C13 C14 1_555 1_555
C14 C15 1_555 1_555
C15 C1 1_555 1_555
C16 C3 1_555 1_555
N1 C1 1_555 1_555
O2 C2 1_555 1_555
O3 C5 1_555 1_555
O4 C7 1_555 1_555
O5 C9 1_555 1_555
O6 C10 1_555 1_555
O7 C11 1_555 1_555
C18 C19 1_555 1_555
C20 C18 1_555 1_555
C21 C20 1_555 1_555
C22 C21 1_555 1_555
C23 C22 1_555 1_555
C24 C23 1_555 1_555
C25 C24 1_555 1_555
C26 C25 1_555 1_555
C27 C26 1_555 1_555
C28 C27 1_555 1_555
C29 C20 1_555 1_555
H1 N2 1_555 1_555
H2 N2 1_555 1_555
H3 N2 1_555 1_555
N2 C18 1_555 1_555
Cl1 O8 1_555 1_555
O9 Cl1 1_555 1_555
O10 Cl1 1_555 1_555
O11 Cl1 1_555 1_555
C3 O2 1_555 1_555
C11 O6 1_555 1_555
C12 N1 1_555 1_555
C24 C29 1_555 1_555
C28 C29 1_555 1_555

#END
