
#######################################################################
#
#                 Cambridge Crystallographic Data Centre
#                                CCDC 
#
#######################################################################
#
# If this CIF has been generated from an entry in the Cambridge 
# Structural Database, then it will include bibliographic, chemical, 
# crystal, experimental, refinement or atomic coordinate data resulting 
# from the CCDC's data processing and validation procedures.
#
#######################################################################

data_DEBVIR
_chemical_formula_moiety         'C23 H18 N2 O1'
_chemical_name_systematic        
11-Methyl-6-(4-methylphenyl)-6,11-dihydro-5H-indolo[3,2-c]isoquinolin-5-one
_symmetry_cell_setting           triclinic
_symmetry_space_group_name_H-M   'P -1'
_symmetry_Int_Tables_number      2
_space_group_name_Hall           '-P 1'
loop_
_symmetry_equiv_pos_site_id
_symmetry_equiv_pos_as_xyz
1 x,y,z
2 -x,-y,-z
_cell_length_a                   9.6726(11)
_cell_length_b                   9.6828(4)
_cell_length_c                   11.0031(16)
_cell_angle_alpha                66.108(5)
_cell_angle_beta                 81.296(9)
_cell_angle_gamma                62.706(7)
_cell_volume                     836.569
_exptl_crystal_colour            yellow
_exptl_crystal_description       prismatic
_cell_formula_units_Z            2
loop_
_atom_site_label
_atom_site_type_symbol
_atom_site_fract_x
_atom_site_fract_y
_atom_site_fract_z
O1 O 0.04962(12) 0.67933(15) 0.09585(11)
N1 N 0.22574(12) 0.73541(14) 0.15929(11)
N2 N 0.57742(13) 0.77132(14) 0.03120(11)
C1 C 0.16960(15) 0.70012(17) 0.07279(13)
C2 C 0.26123(15) 0.68868(16) -0.04641(13)
C3 C 0.20649(16) 0.64913(17) -0.13325(13)
H1 H 0.1133 0.6355 -0.1151
C4 C 0.28697(17) 0.62983(17) -0.24475(14)
H2 H 0.2508 0.6009 -0.3023
C5 C 0.42256(17) 0.65335(17) -0.27192(13)
H3 H 0.4781 0.6399 -0.3485
C6 C 0.47719(16) 0.69559(17) -0.18981(13)
H4 H 0.5681 0.7134 -0.2116
C7 C 0.39872(15) 0.71269(15) -0.07309(12)
C8 C 0.44686(15) 0.74806(15) 0.02443(13)
C9 C 0.57312(15) 0.79705(16) 0.14628(13)
C10 C 0.67779(15) 0.82930(16) 0.19364(14)
H5 H 0.7677 0.8328 0.1465
C11 C 0.64521(16) 0.85565(17) 0.31124(14)
H6 H 0.7130 0.8800 0.3444
C12 C 0.51370(16) 0.84726(17) 0.38333(13)
H7 H 0.4948 0.8661 0.4638
C13 C 0.41160(15) 0.81207(16) 0.33907(13)
H8 H 0.3249 0.8037 0.3895
C14 C 0.43904(15) 0.78894(16) 0.21734(13)
C15 C 0.36189(15) 0.75799(16) 0.13657(12)
C16 C 0.14204(14) 0.74375(16) 0.27913(13)
C17 C 0.03650(15) 0.89919(17) 0.28251(13)
H9 H 0.0178 0.9995 0.2064
C18 C -0.04158(15) 0.90609(17) 0.39900(13)
H10 H -0.1127 1.0121 0.4021
C19 C -0.01677(15) 0.75899(17) 0.51149(13)
C20 C 0.09142(15) 0.60458(17) 0.50574(13)
H11 H 0.1114 0.5039 0.5817
C21 C 0.17029(15) 0.59647(17) 0.38995(13)
H12 H 0.2429 0.4909 0.3868
C22 C -0.10839(17) 0.76619(19) 0.63497(14)
H13 H -0.0730 0.6526 0.7040
H14 H -0.2194 0.8124 0.6134
H15 H -0.0920 0.8383 0.6675
C23 C 0.70127(16) 0.76781(18) -0.06356(14)
H16 H 0.7798 0.7832 -0.0308
H17 H 0.6572 0.8585 -0.1500
H18 H 0.7498 0.6593 -0.0734
loop_
_geom_bond_atom_site_label_1
_geom_bond_atom_site_label_2
_geom_bond_site_symmetry_1
_geom_bond_site_symmetry_2
O1 C1 1_555 1_555
N1 C1 1_555 1_555
N2 C8 1_555 1_555
C1 C2 1_555 1_555
C2 C3 1_555 1_555
C3 H1 1_555 1_555
C4 C3 1_555 1_555
H2 C4 1_555 1_555
C5 C4 1_555 1_555
H3 C5 1_555 1_555
C6 C5 1_555 1_555
H4 C6 1_555 1_555
C7 C2 1_555 1_555
C8 C7 1_555 1_555
C9 N2 1_555 1_555
C10 C9 1_555 1_555
H5 C10 1_555 1_555
C11 C10 1_555 1_555
H6 C11 1_555 1_555
C12 C11 1_555 1_555
H7 C12 1_555 1_555
C13 C12 1_555 1_555
H8 C13 1_555 1_555
C14 C9 1_555 1_555
C15 N1 1_555 1_555
C16 N1 1_555 1_555
C17 C16 1_555 1_555
H9 C17 1_555 1_555
C18 C17 1_555 1_555
H10 C18 1_555 1_555
C19 C18 1_555 1_555
C20 C19 1_555 1_555
H11 C20 1_555 1_555
C21 C16 1_555 1_555
H12 C21 1_555 1_555
C22 C19 1_555 1_555
H13 C22 1_555 1_555
H14 C22 1_555 1_555
H15 C22 1_555 1_555
C23 N2 1_555 1_555
H16 C23 1_555 1_555
H17 C23 1_555 1_555
H18 C23 1_555 1_555
C6 C7 1_555 1_555
C8 C15 1_555 1_555
C13 C14 1_555 1_555
C14 C15 1_555 1_555
C20 C21 1_555 1_555

#END
