
#######################################################################
#
#                 Cambridge Crystallographic Data Centre
#                                CCDC 
#
#######################################################################
#
# If this CIF has been generated from an entry in the Cambridge 
# Structural Database, then it will include bibliographic, chemical, 
# crystal, experimental, refinement or atomic coordinate data resulting 
# from the CCDC's data processing and validation procedures.
#
#######################################################################

data_DECBIW
_chemical_formula_moiety         'C19 H20 N1 O3 P1'
_chemical_name_systematic        
'Diethyl (1E,3Z)-3-cyano-4-naphthylbuta-1,3-dienylphosphonate'
_symmetry_cell_setting           monoclinic
_symmetry_space_group_name_H-M   'P 21/c'
_symmetry_Int_Tables_number      14
_space_group_name_Hall           '-P 2ybc'
loop_
_symmetry_equiv_pos_site_id
_symmetry_equiv_pos_as_xyz
1 x,y,z
2 x,1/2-y,1/2+z
3 -x,-y,-z
4 -x,1/2+y,1/2-z
_cell_length_a                   7.943(3)
_cell_length_b                   27.493(3)
_cell_length_c                   8.752(2)
_cell_angle_alpha                90
_cell_angle_beta                 103.73(3)
_cell_angle_gamma                90
_cell_volume                     1856.62
_exptl_crystal_colour            colorless
_exptl_crystal_description       prismatic
_chemical_melting_point          100-101deg.C
_cell_formula_units_Z            4
loop_
_atom_site_label
_atom_site_type_symbol
_atom_site_fract_x
_atom_site_fract_y
_atom_site_fract_z
P1 P 0.3209(2) 0.52219(8) 0.2499(3)
O1 O 0.2356(6) 0.5378(2) 0.0933(5)
O2 O 0.2765(7) 0.5526(2) 0.3869(6)
O3 O 0.5231(7) 0.5264(2) 0.3004(7)
N1 N 0.237(1) 0.3534(3) 0.501(1)
C1 C 0.2681(8) 0.4622(2) 0.2969(8)
C2 C 0.1451(8) 0.4371(3) 0.2000(8)
C3 C 0.0807(10) 0.3894(3) 0.2319(9)
C4 C 0.165(1) 0.3676(3) 0.380(1)
C5 C -0.0575(9) 0.3697(3) 0.1337(8)
C6 C -0.146(1) 0.3232(3) 0.1544(9)
C7 C -0.056(1) 0.2843(3) 0.231(1)
C8 C -0.147(1) 0.2411(3) 0.256(1)
C9 C -0.322(2) 0.2385(3) 0.203(1)
C10 C -0.416(1) 0.2769(3) 0.120(1)
C11 C -0.598(1) 0.2729(4) 0.063(1)
C12 C -0.687(1) 0.3106(5) -0.016(2)
C13 C -0.605(1) 0.3532(4) -0.038(1)
C14 C -0.431(1) 0.3586(3) 0.016(1)
C15 C -0.329(1) 0.3203(3) 0.0954(9)
C16 C 0.285(1) 0.6040(4) 0.387(1)
C17 C 0.287(2) 0.6230(4) 0.533(2)
C18 C 0.627(1) 0.5106(4) 0.206(1)
C19 C 0.814(1) 0.5230(4) 0.279(1)
H1 H 0.3348 0.4455 0.4063
H2 H 0.0499 0.4532 0.0894
H3 H -0.1238 0.3903 0.0204
H4 H 0.0905 0.2776 0.2669
H5 H -0.0812 0.2128 0.3118
H6 H -0.3810 0.2083 0.2214
H7 H -0.6567 0.2427 0.0797
H8 H -0.8157 0.3076 -0.0581
H9 H -0.6710 0.3806 -0.0995
H10 H -0.3659 0.3926 -0.0270
H11 H 0.1836 0.6182 0.3089
H12 H 0.3845 0.6161 0.3528
H13 H 0.1815 0.6136 0.5639
H14 H 0.2894 0.6582 0.5350
H15 H 0.3824 0.6112 0.6083
H16 H 0.6000 0.5245 0.1032
H17 H 0.6223 0.4751 0.1912
H18 H 0.8242 0.5571 0.2954
H19 H 0.8912 0.5120 0.2210
H20 H 0.8464 0.5077 0.3837
loop_
_geom_bond_atom_site_label_1
_geom_bond_atom_site_label_2
_geom_bond_site_symmetry_1
_geom_bond_site_symmetry_2
P1 O1 1_555 1_555
O2 P1 1_555 1_555
O3 P1 1_555 1_555
N1 C4 1_555 1_555
C1 P1 1_555 1_555
C2 C1 1_555 1_555
C3 C2 1_555 1_555
C4 C3 1_555 1_555
C5 C3 1_555 1_555
C6 C5 1_555 1_555
C7 C6 1_555 1_555
C8 C7 1_555 1_555
C9 C8 1_555 1_555
C10 C9 1_555 1_555
C11 C10 1_555 1_555
C12 C11 1_555 1_555
C13 C12 1_555 1_555
C14 C13 1_555 1_555
C15 C6 1_555 1_555
C16 O2 1_555 1_555
C17 C16 1_555 1_555
C18 O3 1_555 1_555
C19 C18 1_555 1_555
H1 C1 1_555 1_555
H2 C2 1_555 1_555
H3 C5 1_555 1_555
H4 C7 1_555 1_555
H5 C8 1_555 1_555
H6 C9 1_555 1_555
H7 C11 1_555 1_555
H8 C12 1_555 1_555
H9 C13 1_555 1_555
H10 C14 1_555 1_555
H11 C16 1_555 1_555
H12 C16 1_555 1_555
H13 C17 1_555 1_555
H14 C17 1_555 1_555
H15 C17 1_555 1_555
H16 C18 1_555 1_555
H17 C18 1_555 1_555
H18 C19 1_555 1_555
H19 C19 1_555 1_555
H20 C19 1_555 1_555
C10 C15 1_555 1_555
C14 C15 1_555 1_555

#END
