
#######################################################################
#
#                 Cambridge Crystallographic Data Centre
#                                CCDC 
#
#######################################################################
#
# If this CIF has been generated from an entry in the Cambridge 
# Structural Database, then it will include bibliographic, chemical, 
# crystal, experimental, refinement or atomic coordinate data resulting 
# from the CCDC's data processing and validation procedures.
#
#######################################################################

data_DECNEE
_chemical_formula_moiety         'C29 H35 O3 P1 Si1'
_chemical_name_systematic        
(1R*,6R*,8R*,9R*)-9-(Diphenylphosphinoyl)-8-phenyl-8-(trimethylsilyloxy)bicyclo(4.3.0)-7-oxanonane
_symmetry_cell_setting           orthorhombic
_symmetry_space_group_name_H-M   'P b c a'
_symmetry_Int_Tables_number      61
_space_group_name_Hall           '-P 2ac 2ab'
loop_
_symmetry_equiv_pos_site_id
_symmetry_equiv_pos_as_xyz
1 x,y,z
2 1/2+x,y,1/2-z
3 x,1/2-y,1/2+z
4 1/2-x,1/2+y,z
5 -x,-y,-z
6 1/2-x,-y,1/2+z
7 -x,1/2+y,1/2-z
8 1/2+x,1/2-y,-z
_cell_length_a                   11.761(2)
_cell_length_b                   19.813(3)
_cell_length_c                   23.024(3)
_cell_angle_alpha                90
_cell_angle_beta                 90
_cell_angle_gamma                90
_cell_volume                     5365.07
_exptl_crystal_colour            colorless
_exptl_crystal_description       block
_chemical_melting_point          164-166deg.C
_cell_formula_units_Z            8
_exptl_crystal_recrystallization_method 'ethyl acetate/hexane'
loop_
_atom_site_label
_atom_site_type_symbol
_atom_site_fract_x
_atom_site_fract_y
_atom_site_fract_z
P1 P 0.10829(9) 0.40957(5) 0.23249(5)
Si1 Si 0.07333(11) 0.30734(6) 0.07000(6)
O1 O 0.1607(2) 0.44237(13) 0.07978(12)
O2 O -0.0113(2) 0.41544(14) 0.21265(12)
O3 O 0.1521(2) 0.33800(13) 0.12386(11)
C1 C 0.2143(3) 0.3983(2) 0.1201(2)
C2 C 0.2153(3) 0.4362(2) 0.1802(2)
H1 H 0.2906(3) 0.4308(2) 0.1979(2)
C3 C 0.2036(4) 0.5098(2) 0.1586(2)
H2 H 0.2771(4) 0.5218(2) 0.1414(2)
C4 C 0.1215(4) 0.5020(2) 0.1085(2)
H3 H 0.0446(4) 0.4945(2) 0.1236(2)
C5 C 0.1217(5) 0.5623(2) 0.0694(2)
H4 H 0.0662(5) 0.5564(2) 0.0387(2)
H5 H 0.1960(5) 0.5678(2) 0.0518(2)
C6 C 0.0921(5) 0.6251(2) 0.1056(2)
H6 H 0.0991(5) 0.6650(2) 0.0814(2)
H7 H 0.0137(5) 0.6219(2) 0.1184(2)
C7 C 0.1685(5) 0.6324(2) 0.1580(2)
H8 H 0.1436(5) 0.6708(2) 0.1808(2)
H9 H 0.2456(5) 0.6413(2) 0.1450(2)
C8 C 0.1683(4) 0.5694(2) 0.1962(2)
H10 H 0.0930(4) 0.5619(2) 0.2121(2)
H11 H 0.2212(4) 0.5750(2) 0.2282(2)
C9 C 0.1342(3) 0.4625(2) 0.2955(2)
C10 C 0.0416(4) 0.4977(2) 0.3175(2)
H12 H -0.0301(4) 0.4911(2) 0.3014(2)
C11 C 0.0549(5) 0.5423(2) 0.3629(2)
H13 H -0.0073(5) 0.5662(2) 0.3770(2)
C12 C 0.1606(5) 0.5514(3) 0.3874(2)
H14 H 0.1698(5) 0.5815(3) 0.4180(2)
C13 C 0.2515(5) 0.5165(2) 0.3669(2)
H15 H 0.3223(5) 0.5221(2) 0.3841(2)
C14 C 0.2397(4) 0.4726(2) 0.3205(2)
H16 H 0.3029(4) 0.4499(2) 0.3061(2)
C15 C 0.1433(3) 0.3241(2) 0.2541(2)
C16 C 0.0614(4) 0.2749(2) 0.2431(2)
H17 H -0.0055(4) 0.2862(2) 0.2239(2)
C17 C 0.0798(4) 0.2091(2) 0.2608(2)
H18 H 0.0260(4) 0.1761(2) 0.2525(2)
C18 C 0.1764(5) 0.1921(2) 0.2903(2)
H19 H 0.1871(5) 0.1480(2) 0.3030(2)
C19 C 0.2574(4) 0.2400(2) 0.3012(2)
H20 H 0.3233(4) 0.2285(2) 0.3212(2)
C20 C 0.2412(4) 0.3057(2) 0.2826(2)
H21 H 0.2974(4) 0.3378(2) 0.2894(2)
C21 C 0.3347(4) 0.3833(2) 0.0999(2)
C22 C 0.3960(4) 0.3313(2) 0.1245(2)
H22 H 0.3619(4) 0.3045(2) 0.1527(2)
C23 C 0.5058(5) 0.3182(3) 0.1085(2)
H23 H 0.5455(5) 0.2829(3) 0.1257(2)
C24 C 0.5575(4) 0.3574(3) 0.0668(2)
H24 H 0.6326(4) 0.3493(3) 0.0562(2)
C25 C 0.4975(5) 0.4085(3) 0.0411(2)
H25 H 0.5316(5) 0.4345(3) 0.0124(2)
C26 C 0.3867(4) 0.4219(2) 0.0575(2)
H26 H 0.3469(4) 0.4569(2) 0.0399(2)
C27 C 0.0578(5) 0.2163(2) 0.0877(2)
H27 H 0.1312(5) 0.1951(2) 0.0875(2)
H28 H 0.0099(5) 0.1950(2) 0.0592(2)
H29 H 0.0241(5) 0.2115(2) 0.1254(2)
C28 C 0.1452(4) 0.3164(3) -0.0011(2)
H30 H 0.2183(4) 0.2948(3) 0.0004(2)
H31 H 0.1550(4) 0.3634(3) -0.0098(2)
H32 H 0.0998(4) 0.2957(3) -0.0308(2)
C29 C -0.0686(4) 0.3477(3) 0.0704(2)
H33 H -0.1031(4) 0.3418(3) 0.1078(2)
H34 H -0.1156(4) 0.3271(3) 0.0412(2)
H35 H -0.0606(4) 0.3950(3) 0.0622(2)
loop_
_geom_bond_atom_site_label_1
_geom_bond_atom_site_label_2
_geom_bond_site_symmetry_1
_geom_bond_site_symmetry_2
P1 O2 1_555 1_555
Si1 O3 1_555 1_555
O1 C1 1_555 1_555
O3 C1 1_555 1_555
C1 C2 1_555 1_555
C2 P1 1_555 1_555
H1 C2 1_555 1_555
C3 C2 1_555 1_555
H2 C3 1_555 1_555
C4 O1 1_555 1_555
H3 C4 1_555 1_555
C5 C4 1_555 1_555
H4 C5 1_555 1_555
H5 C5 1_555 1_555
C6 C5 1_555 1_555
H6 C6 1_555 1_555
H7 C6 1_555 1_555
C7 C6 1_555 1_555
H8 C7 1_555 1_555
H9 C7 1_555 1_555
C8 C3 1_555 1_555
H10 C8 1_555 1_555
H11 C8 1_555 1_555
C9 P1 1_555 1_555
C10 C9 1_555 1_555
H12 C10 1_555 1_555
C11 C10 1_555 1_555
H13 C11 1_555 1_555
C12 C11 1_555 1_555
H14 C12 1_555 1_555
C13 C12 1_555 1_555
H15 C13 1_555 1_555
C14 C9 1_555 1_555
H16 C14 1_555 1_555
C15 P1 1_555 1_555
C16 C15 1_555 1_555
H17 C16 1_555 1_555
C17 C16 1_555 1_555
H18 C17 1_555 1_555
C18 C17 1_555 1_555
H19 C18 1_555 1_555
C19 C18 1_555 1_555
H20 C19 1_555 1_555
C20 C15 1_555 1_555
H21 C20 1_555 1_555
C21 C1 1_555 1_555
C22 C21 1_555 1_555
H22 C22 1_555 1_555
C23 C22 1_555 1_555
H23 C23 1_555 1_555
C24 C23 1_555 1_555
H24 C24 1_555 1_555
C25 C24 1_555 1_555
H25 C25 1_555 1_555
C26 C21 1_555 1_555
H26 C26 1_555 1_555
C27 Si1 1_555 1_555
H27 C27 1_555 1_555
H28 C27 1_555 1_555
H29 C27 1_555 1_555
C28 Si1 1_555 1_555
H30 C28 1_555 1_555
H31 C28 1_555 1_555
H32 C28 1_555 1_555
C29 Si1 1_555 1_555
H33 C29 1_555 1_555
H34 C29 1_555 1_555
H35 C29 1_555 1_555
C3 C4 1_555 1_555
C7 C8 1_555 1_555
C13 C14 1_555 1_555
C19 C20 1_555 1_555
C25 C26 1_555 1_555

#END
