
#######################################################################
#
#                 Cambridge Crystallographic Data Centre
#                                CCDC 
#
#######################################################################
#
# If this CIF has been generated from an entry in the Cambridge 
# Structural Database, then it will include bibliographic, chemical, 
# crystal, experimental, refinement or atomic coordinate data resulting 
# from the CCDC's data processing and validation procedures.
#
#######################################################################

data_DECPIN
_chemical_formula_moiety         'C24 H12 N4 O4,C10 H8'
_chemical_name_systematic        
'2,7-bis(pyridin-4-yl)benzo[lmn][3,8]phenanthroline-1,3,6,8(2H,7H)-tetrone naphthalene solvate'
_symmetry_cell_setting           triclinic
_symmetry_space_group_name_H-M   'P -1'
_symmetry_Int_Tables_number      2
_space_group_name_Hall           '-P 1'
loop_
_symmetry_equiv_pos_site_id
_symmetry_equiv_pos_as_xyz
1 x,y,z
2 -x,-y,-z
_cell_length_a                   7.2482(14)
_cell_length_b                   9.2491(18)
_cell_length_c                   10.047(2)
_cell_angle_alpha                88.22(3)
_cell_angle_beta                 74.22(3)
_cell_angle_gamma                81.34(3)
_cell_volume                     640.736
_exptl_crystal_colour            orange
_exptl_crystal_description       block
_cell_formula_units_Z            1
loop_
_atom_site_label
_atom_site_type_symbol
_atom_site_fract_x
_atom_site_fract_y
_atom_site_fract_z
C1 C 0.4691(3) 0.0380(2) 0.06405(17)
N1 N 0.3441(2) 0.18701(19) 0.31924(15)
C2 C 0.4785(3) 0.1886(2) 0.06723(19)
O1 O 0.4110(2) 0.39964(16) 0.21046(15)
C3 C 0.4006(3) -0.0401(2) 0.18584(19)
C4 C 0.3354(3) 0.0370(2) 0.32110(19)
C5 C 0.4106(3) 0.2694(2) 0.2005(2)
O2 O 0.2775(3) -0.02459(18) 0.42950(14)
C6 C 0.3930(3) -0.1867(2) 0.1788(2)
H1 H 0.3461 -0.2382 0.2615
C7 C 0.5473(3) 0.2615(2) -0.0527(2)
H2 H 0.5543 0.3631 -0.0498
C8 C 0.2720(3) 0.2664(2) 0.4500(2)
N2 N 0.1348(4) 0.4322(2) 0.69031(19)
C9 C 0.3978(4) 0.3176(3) 0.5099(2)
H3 H 0.5339 0.2970 0.4702
C10 C 0.3218(4) 0.4003(3) 0.6298(3)
H4 H 0.4095 0.4363 0.6710
C11 C 0.0169(4) 0.3783(3) 0.6316(2)
H5 H -0.1185 0.3985 0.6744
C12 C 0.0782(3) 0.2945(3) 0.5119(2)
H6 H -0.0122 0.2576 0.4739
C1A C 0.5309(3) -0.0380(2) -0.06405(17)
N1A N 0.6559(2) -0.18701(19) -0.31924(15)
C2A C 0.5215(3) -0.1886(2) -0.06723(19)
O1A O 0.5890(2) -0.39964(16) -0.21046(15)
C3A C 0.5994(3) 0.0401(2) -0.18584(19)
C4A C 0.6646(3) -0.0370(2) -0.32110(19)
C5A C 0.5894(3) -0.2694(2) -0.2005(2)
O2A O 0.7225(3) 0.02459(18) -0.42950(14)
C6A C 0.6070(3) 0.1867(2) -0.1788(2)
H1A H 0.6539 0.2382 -0.2615
C7A C 0.4527(3) -0.2615(2) 0.0527(2)
H2A H 0.4457 -0.3631 0.0498
C8A C 0.7280(3) -0.2664(2) -0.4500(2)
N2A N 0.8652(4) -0.4322(2) -0.69031(19)
C9A C 0.6022(4) -0.3176(3) -0.5099(2)
H3A H 0.4661 -0.2970 -0.4702
C10A C 0.6782(4) -0.4003(3) -0.6298(3)
H4A H 0.5905 -0.4363 -0.6710
C11A C 0.9831(4) -0.3783(3) -0.6316(2)
H5A H 1.1185 -0.3985 -0.6744
C12A C 0.9218(3) -0.2945(3) -0.5119(2)
H6A H 1.0122 -0.2576 -0.4739
C13 C 0.0345(3) 0.0507(3) 0.9499(2)
C14 C 0.0532(4) -0.2320(4) 0.8632(3)
H7 H 0.0615 -0.3286 0.8304
C15 C 0.1100(4) 0.0100(4) 0.8114(3)
H8 H 0.1568 0.0807 0.7451
C16 C 0.1173(4) -0.1249(4) 0.7713(3)
H9 H 0.1683 -0.1495 0.6759
C17 C -0.0227(4) -0.2003(3) 1.0020(3)
H10 H -0.0666 -0.2743 1.0654
C13A C -0.0345(3) -0.0507(3) 1.0501(2)
C14A C -0.0532(4) 0.2320(4) 1.1368(3)
H7A H -0.0615 0.3286 1.1696
C15A C -0.1100(4) -0.0100(4) 1.1886(3)
H8A H -0.1568 -0.0807 1.2549
C16A C -0.1173(4) 0.1249(4) 1.2287(3)
H9A H -0.1683 0.1495 1.3241
C17A C 0.0227(4) 0.2003(3) 0.9980(3)
H10A H 0.0666 0.2743 0.9346
loop_
_geom_bond_atom_site_label_1
_geom_bond_atom_site_label_2
_geom_bond_site_symmetry_1
_geom_bond_site_symmetry_2
C1 C2 1_555 1_555
N1 C4 1_555 1_555
C2 C5 1_555 1_555
O1 C5 1_555 1_555
C3 C1 1_555 1_555
C4 C3 1_555 1_555
C5 N1 1_555 1_555
O2 C4 1_555 1_555
C6 C3 1_555 1_555
H1 C6 1_555 1_555
C7 C2 1_555 1_555
H2 C7 1_555 1_555
C8 N1 1_555 1_555
N2 C10 1_555 1_555
C9 C8 1_555 1_555
H3 C9 1_555 1_555
C10 C9 1_555 1_555
H4 C10 1_555 1_555
C11 N2 1_555 1_555
H5 C11 1_555 1_555
C12 C8 1_555 1_555
H6 C12 1_555 1_555
C13 C15 1_555 1_555
C14 H7 1_555 1_555
C15 H8 1_555 1_555
C16 C14 1_555 1_555
H9 C16 1_555 1_555
C17 C14 1_555 1_555
H10 C17 1_555 1_555
C1A C1 1_555 1_555
N1A C4A 1_555 1_555
C2A C1A 1_555 1_555
O1A C5A 1_555 1_555
C3A C1A 1_555 1_555
C4A C3A 1_555 1_555
C5A N1A 1_555 1_555
O2A C4A 1_555 1_555
C6A C7 1_555 1_555
H1A C6A 1_555 1_555
C7A C6 1_555 1_555
H2A C7A 1_555 1_555
C8A N1A 1_555 1_555
N2A C10A 1_555 1_555
C9A C8A 1_555 1_555
H3A C9A 1_555 1_555
C10A C9A 1_555 1_555
H4A C10A 1_555 1_555
C11A N2A 1_555 1_555
H5A C11A 1_555 1_555
C12A C8A 1_555 1_555
H6A C12A 1_555 1_555
C13A C13 1_555 1_555
C14A H7A 1_555 1_555
C15A C13A 1_555 1_555
H8A C15A 1_555 1_555
C16A C14A 1_555 1_555
H9A C16A 1_555 1_555
C17A C13 1_555 1_555
H10A C17A 1_555 1_555
C11 C12 1_555 1_555
C15 C16 1_555 1_555
C17 C13A 1_555 1_555
C2A C5A 1_555 1_555
C2A C7A 1_555 1_555
C3A C6A 1_555 1_555
C11A C12A 1_555 1_555
C14A C17A 1_555 1_555
C15A C16A 1_555 1_555

#END
