
#######################################################################
#
#                 Cambridge Crystallographic Data Centre
#                                CCDC 
#
#######################################################################
#
# If this CIF has been generated from an entry in the Cambridge 
# Structural Database, then it will include bibliographic, chemical, 
# crystal, experimental, refinement or atomic coordinate data resulting 
# from the CCDC's data processing and validation procedures.
#
#######################################################################

data_DEDPEI
_chemical_formula_moiety         'C22 H18 Br2 N2 O4,C2 H3 N1'
_chemical_name_systematic        
"(N,N'-o-Phenylene-bis(5-bromo-3-methoxysalicylidineamine)) acetonitrile solvate"
_symmetry_cell_setting           triclinic
_symmetry_space_group_name_H-M   'P -1'
_symmetry_Int_Tables_number      2
_space_group_name_Hall           '-P 1'
loop_
_symmetry_equiv_pos_site_id
_symmetry_equiv_pos_as_xyz
1 x,y,z
2 -x,-y,-z
_cell_length_a                   7.9312(16)
_cell_length_b                   12.429(3)
_cell_length_c                   13.345(3)
_cell_angle_alpha                64.83(3)
_cell_angle_beta                 76.76(3)
_cell_angle_gamma                83.18(3)
_cell_volume                     1158.61
_exptl_crystal_colour            red
_exptl_crystal_description       block
_chemical_melting_point          170deg.C
_cell_formula_units_Z            2
_exptl_crystal_recrystallization_method 'diethyl ether/acetonitrile'
loop_
_atom_site_label
_atom_site_type_symbol
_atom_site_fract_x
_atom_site_fract_y
_atom_site_fract_z
C1 C 0.5658(8) -0.3157(5) 1.4535(5)
H1 H 0.6112 -0.3335 1.3889
H2 H 0.4892 -0.3772 1.5085
H3 H 0.6596 -0.3111 1.4859
C2 C 0.3984(7) -0.1659(5) 1.5026(5)
C3 C 0.4067(7) -0.2285(4) 1.6147(4)
H4 H 0.4674 -0.3007 1.6389
C4 C 0.3228(7) -0.1816(4) 1.6909(4)
C5 C 0.2375(7) -0.0743(4) 1.6588(5)
H5 H 0.1842 -0.0444 1.7118
C6 C 0.2318(6) -0.0090(4) 1.5429(4)
C7 C 0.3121(6) -0.0547(4) 1.4648(4)
C8 C 0.1383(7) 0.1049(4) 1.5089(5)
H6 H 0.0805 0.1308 1.5639
C9 C 0.0408(6) 0.2809(4) 1.3727(4)
C10 C -0.0404(7) 0.3337(5) 1.4458(5)
H7 H -0.0363 0.2956 1.5222
C11 C -0.1265(7) 0.4423(5) 1.4052(5)
H8 H -0.1790 0.4772 1.4543
C12 C -0.1350(7) 0.4989(5) 1.2927(5)
H9 H -0.1956 0.5710 1.2662
C13 C -0.0547(7) 0.4492(5) 1.2201(5)
H10 H -0.0606 0.4881 1.1440
C14 C 0.0354(6) 0.3417(4) 1.2581(4)
C15 C 0.2247(7) 0.3573(4) 1.0915(4)
H11 H 0.2422 0.4344 1.0811
C16 C 0.3125(6) 0.3173(4) 1.0052(4)
C17 C 0.4321(6) 0.3927(4) 0.9143(4)
H12 H 0.4529 0.4670 0.9094
C18 C 0.5184(6) 0.3550(4) 0.8323(4)
C19 C 0.4906(7) 0.2436(4) 0.8375(4)
H13 H 0.5505 0.2199 0.7814
C20 C 0.3736(7) 0.1694(4) 0.9267(4)
C21 C 0.2848(6) 0.2050(4) 1.0126(4)
C22 C 0.4276(8) 0.0210(5) 0.8541(5)
H14 H 0.3923 -0.0572 0.8714
H15 H 0.5499 0.0198 0.8509
H16 H 0.4017 0.0754 0.7824
N1 N 0.1336(5) 0.1699(4) 1.4056(4)
N2 N 0.1236(5) 0.2906(4) 1.1819(4)
Br1 Br 0.33364(8) -0.27060(5) 1.84648(5)
Br2 Br 0.68560(8) 0.45441(5) 0.71116(5)
O1 O 0.4726(5) -0.2042(3) 1.4193(3)
O2 O 0.3095(5) 0.0033(3) 1.3544(3)
H17 H 0.2519 0.0651 1.3435
O3 O 0.1731(5) 0.1274(3) 1.0999(3)
H18 H 0.1294 0.1570 1.1445
O4 O 0.3354(5) 0.0590(3) 0.9408(3)
C23 C 0.0915(9) -0.1760(7) 1.0815(5)
C24 C 0.0019(8) -0.1829(5) 1.1905(6)
N3 N -0.0678(10) -0.1913(7) 1.2759(6)
loop_
_geom_bond_atom_site_label_1
_geom_bond_atom_site_label_2
_geom_bond_site_symmetry_1
_geom_bond_site_symmetry_2
C1 H1 1_555 1_555
H2 C1 1_555 1_555
H3 C1 1_555 1_555
C2 C3 1_555 1_555
C3 H4 1_555 1_555
C4 C3 1_555 1_555
C5 C4 1_555 1_555
H5 C5 1_555 1_555
C6 C5 1_555 1_555
C7 C2 1_555 1_555
C8 C6 1_555 1_555
H6 C8 1_555 1_555
C9 C10 1_555 1_555
C10 H7 1_555 1_555
C11 C10 1_555 1_555
H8 C11 1_555 1_555
C12 C11 1_555 1_555
H9 C12 1_555 1_555
C13 C12 1_555 1_555
H10 C13 1_555 1_555
C14 C9 1_555 1_555
C15 H11 1_555 1_555
C16 C15 1_555 1_555
C17 C16 1_555 1_555
H12 C17 1_555 1_555
C18 C17 1_555 1_555
C19 C18 1_555 1_555
H13 C19 1_555 1_555
C20 C19 1_555 1_555
C21 C16 1_555 1_555
C22 H14 1_555 1_555
H15 C22 1_555 1_555
H16 C22 1_555 1_555
C23 C24 1_555 1_555
C24 N3 1_555 1_555
N1 C8 1_555 1_555
N2 C14 1_555 1_555
Br1 C4 1_555 1_555
Br2 C18 1_555 1_555
O1 C1 1_555 1_555
O2 C7 1_555 1_555
H17 O2 1_555 1_555
O3 C21 1_555 1_555
H18 O3 1_555 1_555
O4 C20 1_555 1_555
C2 O1 1_555 1_555
C6 C7 1_555 1_555
C9 N1 1_555 1_555
C13 C14 1_555 1_555
C15 N2 1_555 1_555
C20 C21 1_555 1_555
C22 O4 1_555 1_555

#END
