
#######################################################################
#
#                 Cambridge Crystallographic Data Centre
#                                CCDC 
#
#######################################################################
#
# If this CIF has been generated from an entry in the Cambridge 
# Structural Database, then it will include bibliographic, chemical, 
# crystal, experimental, refinement or atomic coordinate data resulting 
# from the CCDC's data processing and validation procedures.
#
#######################################################################

data_DEFLOS
_chemical_name_common            'cefpiramide dihydrate'
_chemical_formula_moiety         'C25 H24 N8 O7 S2,2(H2 O1)'
_chemical_name_systematic        
'7-({(4-hydroxyphenyl)[(6-methyl-4-oxo-1,4-dihydropyridine-3-carbonyl)amino]acetyl}amino)-3-{[(1-methyl-1H-tetrazol-5-yl)sulfanyl]methyl}-8-oxo-5-thia-1-azabicyclo[4.2.0]oct-2-ene-2-carboxylic acid dihydrate'
_chemical_properties_biological  antibiotic
_symmetry_cell_setting           orthorhombic
_symmetry_space_group_name_H-M   'P 21 21 21'
_symmetry_Int_Tables_number      19
_space_group_name_Hall           'P 2ac 2ab'
loop_
_symmetry_equiv_pos_site_id
_symmetry_equiv_pos_as_xyz
1 x,y,z
2 1/2-x,-y,1/2+z
3 -x,1/2+y,1/2-z
4 1/2+x,1/2-y,-z
_cell_length_a                   10.0222(13)
_cell_length_b                   15.474(2)
_cell_length_c                   18.602(2)
_cell_angle_alpha                90
_cell_angle_beta                 90
_cell_angle_gamma                90
_cell_volume                     2884.86
_exptl_crystal_colour            colorless
_exptl_crystal_description       Prism
_cell_formula_units_Z            4
_exptl_crystal_preparation       Fiber
loop_
_atom_site_label
_atom_site_type_symbol
_atom_site_fract_x
_atom_site_fract_y
_atom_site_fract_z
S1 S 0.64294(10) 0.71899(6) 0.86752(5)
S2 S 0.66010(11) 0.70226(7) 0.62375(5)
O1 O 0.8935(3) 0.8971(2) 0.83323(17)
O2 O 0.9829(3) 0.9350(2) 0.72836(18)
H1 H 1.0268 0.9692 0.7543
O3 O 1.0651(4) 0.7558(3) 0.6712(3)
O4 O 0.8977(6) 0.6771(3) 0.4292(2)
O5 O 0.3664(3) 0.4222(2) 0.51290(17)
H2 H 0.3146 0.4436 0.4822
O6 O 1.1611(3) 0.4854(3) 0.43210(19)
O7 O 0.8951(3) 0.5075(3) 0.2584(2)
N1 N 0.8827(4) 0.6652(3) 0.8140(2)
N2 N 1.0125(5) 0.6730(4) 0.8325(3)
N3 N 1.0257(4) 0.7159(4) 0.8922(3)
N4 N 0.9020(4) 0.7369(3) 0.9135(2)
N5 N 0.8518(4) 0.8192(2) 0.65455(18)
N6 N 0.9136(4) 0.6559(3) 0.5481(3)
H3 H 0.9223 0.6182 0.5831
N7 N 0.9479(4) 0.5065(3) 0.3992(2)
H4 H 0.8906 0.5061 0.3634
N8 N 1.2569(4) 0.3982(3) 0.2286(2)
H5 H 1.3334 0.3713 0.2226
C1 C 0.8159(4) 0.7058(3) 0.8653(2)
C2 C 0.8791(5) 0.7903(4) 0.9762(3)
H6 H 0.7917 0.7766 0.9969
H7 H 0.8812 0.8514 0.9622
H8 H 0.9488 0.7792 1.0120
C3 C 0.6296(4) 0.8227(2) 0.8182(2)
H9 H 0.5351 0.8412 0.8162
H10 H 0.6811 0.8679 0.8437
C4 C 0.6824(4) 0.8118(2) 0.7444(2)
C5 C 0.8041(4) 0.8383(2) 0.7240(2)
C6 C 0.8972(4) 0.8926(3) 0.7683(2)
C7 C 0.5872(4) 0.7663(3) 0.6952(2)
H11 H 0.5283 0.8102 0.6730
H12 H 0.5301 0.7279 0.7246
C8 C 0.7737(4) 0.7854(3) 0.5941(2)
H13 H 0.7323 0.8308 0.5629
C9 C 0.9074(5) 0.7470(3) 0.5643(3)
H14 H 0.9447 0.7830 0.5244
C10 C 0.9659(5) 0.7731(3) 0.6377(3)
C11 C 0.9061(4) 0.6283(3) 0.4794(3)
C12 C 0.9001(4) 0.5304(3) 0.4699(3)
H15 H 0.9573 0.5023 0.5072
C13 C 0.7568(4) 0.5011(3) 0.4797(2)
C14 C 0.7249(4) 0.4425(3) 0.5328(2)
H16 H 0.7932 0.4199 0.5628
C15 C 0.5942(5) 0.4165(3) 0.5427(2)
H17 H 0.5731 0.3762 0.5795
C16 C 0.4940(4) 0.4489(3) 0.4993(2)
C17 C 0.5236(4) 0.5065(3) 0.4457(2)
H18 H 0.4551 0.5285 0.4155
C18 C 0.6560(4) 0.5325(3) 0.4359(2)
H19 H 0.6772 0.5723 0.3987
C19 C 1.0742(4) 0.4851(3) 0.3855(3)
C20 C 1.1026(4) 0.4621(2) 0.3092(2)
C21 C 1.0113(4) 0.4761(3) 0.2502(3)
C22 C 1.0588(4) 0.4523(3) 0.1812(2)
H20 H 1.0040 0.4638 0.1407
C23 C 1.1787(4) 0.4139(2) 0.1702(2)
C24 C 1.2207(4) 0.4226(3) 0.2948(3)
H21 H 1.2803 0.4118 0.3335
C25 C 1.2310(6) 0.3871(4) 0.0984(3)
H22 H 1.2535 0.3255 0.0994
H23 H 1.3110 0.4208 0.0870
H24 H 1.1627 0.3975 0.0617
O8 O 0.1401(4) 0.0465(3) 0.7987(2)
H25 H 0.1982 0.0420 0.8318
H26 H 0.1351 0.0999 0.7844
O9 O 0.2745(6) 0.8239(4) 0.7886(3)
H27 H 0.3017 0.7853 0.8193
H28 H 0.2456 0.7983 0.7500
O10? O 0.0302(18) 0.0702(13) 0.8462(12)
H29? H 0.0320 0.1145 0.8192
H30? H -0.0085 0.0213 0.8429
O11? O 0.2061(19) 0.9219(14) 0.7950(9)
H31? H 0.2578 0.9511 0.7664
H32? H 0.1723 0.8782 0.7718
O12? O 0.3092(11) 0.7617(7) 0.8492(7)
H33? H 0.3657 0.7395 0.8795
H34? H 0.3296 0.7454 0.8059
loop_
_geom_bond_atom_site_label_1
_geom_bond_atom_site_label_2
_geom_bond_site_symmetry_1
_geom_bond_site_symmetry_2
S1 C1 1_555 1_555
S2 C7 1_555 1_555
O1 C6 1_555 1_555
O2 H1 1_555 1_555
O3 C10 1_555 1_555
O4 C11 1_555 1_555
O5 H2 1_555 1_555
O6 C19 1_555 1_555
O7 C21 1_555 1_555
N1 N2 1_555 1_555
N2 N3 1_555 1_555
N3 N4 1_555 1_555
N4 C1 1_555 1_555
N5 C5 1_555 1_555
N6 H3 1_555 1_555
N7 H4 1_555 1_555
N8 H5 1_555 1_555
C1 N1 1_555 1_555
C2 N4 1_555 1_555
H6 C2 1_555 1_555
H7 C2 1_555 1_555
H8 C2 1_555 1_555
C3 S1 1_555 1_555
H9 C3 1_555 1_555
H10 C3 1_555 1_555
C4 C3 1_555 1_555
C5 C4 1_555 1_555
C6 O2 1_555 1_555
C7 C4 1_555 1_555
H11 C7 1_555 1_555
H12 C7 1_555 1_555
C8 S2 1_555 1_555
H13 C8 1_555 1_555
C9 N6 1_555 1_555
H14 C9 1_555 1_555
C10 N5 1_555 1_555
C11 N6 1_555 1_555
C12 N7 1_555 1_555
H15 C12 1_555 1_555
C13 C12 1_555 1_555
C14 C13 1_555 1_555
H16 C14 1_555 1_555
C15 C14 1_555 1_555
H17 C15 1_555 1_555
C16 O5 1_555 1_555
C17 C16 1_555 1_555
H18 C17 1_555 1_555
C18 C13 1_555 1_555
H19 C18 1_555 1_555
C19 N7 1_555 1_555
C20 C19 1_555 1_555
C21 C20 1_555 1_555
C22 C21 1_555 1_555
H20 C22 1_555 1_555
C23 N8 1_555 1_555
C24 N8 1_555 1_555
H21 C24 1_555 1_555
C25 C23 1_555 1_555
H22 C25 1_555 1_555
H23 C25 1_555 1_555
H24 C25 1_555 1_555
O8 H25 1_555 1_555
H26 O8 1_555 1_555
O9 H27 1_555 1_555
H28 O9 1_555 1_555
N5 C8 1_555 1_555
C5 C6 1_555 1_555
C8 C9 1_555 1_555
C9 C10 1_555 1_555
C11 C12 1_555 1_555
C15 C16 1_555 1_555
C17 C18 1_555 1_555
C20 C24 1_555 1_555
C22 C23 1_555 1_555

#END
