
#######################################################################
#
#                 Cambridge Crystallographic Data Centre
#                                CCDC 
#
#######################################################################
#
# If this CIF has been generated from an entry in the Cambridge 
# Structural Database, then it will include bibliographic, chemical, 
# crystal, experimental, refinement or atomic coordinate data resulting 
# from the CCDC's data processing and validation procedures.
#
#######################################################################

data_DEFYES
_chemical_name_common            2,6-Dimethyl-4H-thiine-4-one
_chemical_formula_moiety         'C7 H8 O1 S1'
_chemical_name_systematic        2,6-Dimethyl-4H-1-thiapyran-4-one
_symmetry_cell_setting           monoclinic
_symmetry_space_group_name_H-M   'I 2/a'
_symmetry_Int_Tables_number      15
_space_group_name_Hall           '-I 2ya'
loop_
_symmetry_equiv_pos_site_id
_symmetry_equiv_pos_as_xyz
1 x,y,z
2 1/2+x,1/2+y,1/2+z
3 1/2-x,y,-z
4 -x,1/2+y,1/2-z
5 -x,-y,-z
6 1/2-x,1/2-y,1/2-z
7 1/2+x,-y,z
8 x,1/2-y,1/2+z
_cell_length_a                   9.036(4)
_cell_length_b                   11.348(5)
_cell_length_c                   7.360(4)
_cell_angle_alpha                90
_cell_angle_beta                 104.4(1)
_cell_angle_gamma                90
_cell_volume                     730.988
_exptl_crystal_colour            white
_cell_formula_units_Z            4
loop_
_atom_site_label
_atom_site_type_symbol
_atom_site_fract_x
_atom_site_fract_y
_atom_site_fract_z
S1 S 0.2500 0.8595(1) 0.5000
O1 O 0.2500 0.4741(2) 0.5000
C1 C 0.5668(3) 0.8257(4) 0.5610(4)
C2 C 0.4108(2) 0.7707(2) 0.5293(4)
C3 C 0.3924(3) 0.6553(2) 0.5244(4)
C4 C 0.2500 0.5788(3) 0.5000
H1 H 0.5566 0.9204 0.5656
H2 H 0.6172 0.8015 0.4478
H3 H 0.6385 0.7946 0.6923
H4 H 0.4971 0.6060 0.5407
C2B C 0.0892(2) 0.7707(2) 0.4707(4)
C3B C 0.1076(3) 0.6553(2) 0.4756(4)
C1B C -0.0668(3) 0.8257(4) 0.4390(4)
H4B H 0.0029 0.6060 0.4593
H1B H -0.0566 0.9204 0.4344
H2B H -0.1172 0.8015 0.5522
H3B H -0.1385 0.7946 0.3077
loop_
_geom_bond_atom_site_label_1
_geom_bond_atom_site_label_2
_geom_bond_site_symmetry_1
_geom_bond_site_symmetry_2
S1 C2 1_555 1_555
O1 C4 1_555 1_555
C1 C2 1_555 1_555
C2 C3 1_555 1_555
C3 C4 1_555 1_555
C4 C3B 1_555 1_555
H1 C1 1_555 1_555
H2 C1 1_555 1_555
H3 C1 1_555 1_555
H4 C3 1_555 1_555
C2B S1 1_555 1_555
C3B C2B 1_555 1_555
C1B C2B 1_555 1_555
H4B C3B 1_555 1_555
H1B C1B 1_555 1_555
H2B C1B 1_555 1_555
H3B C1B 1_555 1_555

#END
