
#######################################################################
#
#                 Cambridge Crystallographic Data Centre
#                                CCDC 
#
#######################################################################
#
# If this CIF has been generated from an entry in the Cambridge 
# Structural Database, then it will include bibliographic, chemical, 
# crystal, experimental, refinement or atomic coordinate data resulting 
# from the CCDC's data processing and validation procedures.
#
#######################################################################

data_DEGNIN
_chemical_formula_moiety         'C12 H13 N1 O3'
_chemical_name_systematic        
'(Z)-3-N-Acetylamino-3-phenylacrylic acid methyl ester'
_symmetry_cell_setting           orthorhombic
_symmetry_space_group_name_H-M   'P 21 21 21'
_symmetry_Int_Tables_number      19
_space_group_name_Hall           'P 2ac 2ab'
loop_
_symmetry_equiv_pos_site_id
_symmetry_equiv_pos_as_xyz
1 x,y,z
2 1/2-x,-y,1/2+z
3 -x,1/2+y,1/2-z
4 1/2+x,1/2-y,-z
_cell_length_a                   20.799(4)
_cell_length_b                   18.748(4)
_cell_length_c                   5.8250(12)
_cell_angle_alpha                90
_cell_angle_beta                 90
_cell_angle_gamma                90
_cell_volume                     2271.4
_exptl_crystal_colour            colorless
_exptl_crystal_description       block
_cell_formula_units_Z            8
loop_
_atom_site_label
_atom_site_type_symbol
_atom_site_fract_x
_atom_site_fract_y
_atom_site_fract_z
O1 O 0.79295(19) -0.07095(19) 0.7455(7)
O2 O 0.94160(18) 0.05328(18) 0.2109(7)
O3 O 0.98765(19) -0.01048(17) -0.0678(7)
N1 N 0.8689(2) -0.0248(2) 0.5083(8)
H1 H 0.889(3) 0.021(3) 0.417(11)
C1 C 0.8137(3) 0.0525(3) 0.7727(12)
H2 H 0.7816 0.0508 0.8907
H3 H 0.7998 0.0838 0.6521
H4 H 0.8533 0.0699 0.8362
C2 C 0.8239(3) -0.0205(3) 0.6781(10)
C3 C 0.8870(2) -0.0825(2) 0.3724(9)
C4 C 0.9260(3) -0.0718(3) 0.1948(10)
H5 H 0.9379 -0.1119 0.1108
C5 C 0.9518(3) -0.0041(3) 0.1194(10)
C6 C 1.0122(3) 0.0538(3) -0.1717(13)
H6 H 1.0372 0.0417 -0.3048
H7 H 1.0389 0.0786 -0.0634
H8 H 0.9770 0.0839 -0.2162
C7 C 0.8631(3) -0.1555(2) 0.4192(9)
C8 C 0.8801(3) -0.1925(3) 0.6126(11)
H9 H 0.9054 -0.1708 0.7243
C9 C 0.8598(3) -0.2628(3) 0.6424(11)
H10 H 0.8718 -0.2881 0.7729
C10 C 0.8222(3) -0.2944(3) 0.4799(13)
H11 H 0.8085 -0.3412 0.4998
C11 C 0.8046(3) -0.2575(3) 0.2882(12)
H12 H 0.7794 -0.2792 0.1764
C12 C 0.8242(2) -0.1884(2) 0.2612(9)
H13 H 0.8108 -0.1631 0.1325
O4 O 0.69813(19) 0.66847(19) 0.7925(7)
O5 O 0.55877(17) 0.79277(18) 0.2251(7)
O6 O 0.50990(19) 0.72808(16) -0.0443(7)
N2 N 0.6294(2) 0.7151(2) 0.5298(8)
H14 H 0.612(2) 0.753(2) 0.482(9)
C13 C 0.6840(3) 0.7931(3) 0.7924(12)
H15 H 0.7144 0.7925 0.9165
H16 H 0.6443 0.8136 0.8443
H17 H 0.7009 0.8210 0.6681
C14 C 0.6723(3) 0.7192(3) 0.7127(11)
C15 C 0.6102(3) 0.6578(2) 0.3984(10)
C16 C 0.5706(3) 0.6674(2) 0.2210(11)
H18 H 0.5568 0.6271 0.1424
C17 C 0.5475(3) 0.7358(3) 0.1416(11)
C18 C 0.4857(3) 0.7925(3) -0.1497(12)
H19 H 0.4603 0.7804 -0.2817
H20 H 0.5211 0.8220 -0.1960
H21 H 0.4596 0.8180 -0.0413
C19 C 0.6341(2) 0.5840(2) 0.4501(9)
C20 C 0.6138(3) 0.5468(3) 0.6370(10)
H22 H 0.5868 0.5681 0.7443
C21 C 0.6338(3) 0.4759(3) 0.6667(12)
H23 H 0.6204 0.4504 0.7950
C22 C 0.6730(3) 0.4441(3) 0.5070(12)
H24 H 0.6859 0.3970 0.5257
C23 C 0.6926(3) 0.4818(3) 0.3231(12)
H25 H 0.7194 0.4602 0.2161
C24 C 0.6741(3) 0.5517(2) 0.2890(11)
H26 H 0.6880 0.5767 0.1605
loop_
_geom_bond_atom_site_label_1
_geom_bond_atom_site_label_2
_geom_bond_site_symmetry_1
_geom_bond_site_symmetry_2
O1 C2 1_555 1_555
O2 C5 1_555 1_555
O3 C5 1_555 1_555
N1 H1 1_555 1_555
C1 H2 1_555 1_555
H3 C1 1_555 1_555
H4 C1 1_555 1_555
C2 N1 1_555 1_555
C3 N1 1_555 1_555
C4 C3 1_555 1_555
H5 C4 1_555 1_555
C5 C4 1_555 1_555
C6 O3 1_555 1_555
H6 C6 1_555 1_555
H7 C6 1_555 1_555
H8 C6 1_555 1_555
C7 C3 1_555 1_555
C8 C7 1_555 1_555
H9 C8 1_555 1_555
C9 C8 1_555 1_555
H10 C9 1_555 1_555
C10 C9 1_555 1_555
H11 C10 1_555 1_555
C11 C10 1_555 1_555
H12 C11 1_555 1_555
C12 C7 1_555 1_555
H13 C12 1_555 1_555
O4 C14 1_555 1_555
O5 C17 1_555 1_555
O6 C17 1_555 1_555
N2 H14 1_555 1_555
C13 H15 1_555 1_555
H16 C13 1_555 1_555
H17 C13 1_555 1_555
C14 N2 1_555 1_555
C15 N2 1_555 1_555
C16 C15 1_555 1_555
H18 C16 1_555 1_555
C17 C16 1_555 1_555
C18 O6 1_555 1_555
H19 C18 1_555 1_555
H20 C18 1_555 1_555
H21 C18 1_555 1_555
C19 C15 1_555 1_555
C20 C19 1_555 1_555
H22 C20 1_555 1_555
C21 C20 1_555 1_555
H23 C21 1_555 1_555
C22 C21 1_555 1_555
H24 C22 1_555 1_555
C23 C22 1_555 1_555
H25 C23 1_555 1_555
C24 C19 1_555 1_555
H26 C24 1_555 1_555
C1 C2 1_555 1_555
C11 C12 1_555 1_555
C13 C14 1_555 1_555
C23 C24 1_555 1_555

#END
