
#######################################################################
#
#                 Cambridge Crystallographic Data Centre
#                                CCDC 
#
#######################################################################
#
# If this CIF has been generated from an entry in the Cambridge 
# Structural Database, then it will include bibliographic, chemical, 
# crystal, experimental, refinement or atomic coordinate data resulting 
# from the CCDC's data processing and validation procedures.
#
#######################################################################

data_DEGREM
_chemical_formula_moiety         'C17 H18 N2 O2'
_chemical_name_systematic        
5,13-Dimethoxy-1,9-diazatetracyclo(7.7.1.0^2,7^.0^10,15^)heptadeca-2,4,6,10,12,14-hexaene
_symmetry_cell_setting           monoclinic
_symmetry_space_group_name_H-M   'C 2/c'
_symmetry_Int_Tables_number      15
_space_group_name_Hall           '-C 2yn'
loop_
_symmetry_equiv_pos_site_id
_symmetry_equiv_pos_as_xyz
1 x,y,z
2 1/2+x,1/2+y,z
3 -x,y,1/2-z
4 1/2-x,1/2+y,1/2-z
5 -x,-y,-z
6 1/2-x,1/2-y,-z
7 x,-y,1/2+z
8 1/2+x,1/2-y,1/2+z
_cell_length_a                   21.912(15)
_cell_length_b                   8.290(6)
_cell_length_c                   15.632(12)
_cell_angle_alpha                90
_cell_angle_beta                 96.00(6)
_cell_angle_gamma                90
_cell_volume                     2824
_exptl_crystal_colour            'light yellow'
_cell_formula_units_Z            8
loop_
_atom_site_label
_atom_site_type_symbol
_atom_site_fract_x
_atom_site_fract_y
_atom_site_fract_z
C1 C -0.0137(1) 0.0232(3) 0.8664(2)
C2 C -0.0123(1) -0.1411(3) 0.8712(2)
C3 C 0.0403(1) -0.2197(3) 0.9064(2)
C4 C 0.0902(1) -0.1306(3) 0.9383(2)
C5 C 0.0901(1) 0.0356(3) 0.9331(2)
C6 C 0.1924(1) 0.1138(3) 0.9052(2)
C7 C 0.1766(1) 0.2122(3) 0.8251(2)
C8 C 0.2074(1) 0.1843(3) 0.7530(2)
C9 C 0.1913(1) 0.2687(3) 0.6782(2)
C10 C 0.1447(1) 0.3822(3) 0.6748(2)
C11 C 0.1155(1) 0.4114(3) 0.7460(2)
C12 C 0.1307(1) 0.3270(3) 0.8225(2)
C13 C 0.0364(1) 0.2946(3) 0.8868(2)
C14 C 0.0380(1) 0.1134(3) 0.8963(2)
C15 C 0.1306(1) 0.2955(3) 0.9742(2)
C16 C -0.1150(1) -0.1618(3) 0.8066(2)
C17 C 0.2614(1) 0.1207(3) 0.6002(2)
N1 N 0.1448(1) 0.1248(3) 0.9650(1)
N2 N 0.0986(1) 0.3644(2) 0.8959(1)
O1 O -0.0603(1) -0.2399(2) 0.8420(1)
O2 O 0.2185(1) 0.2491(2) 0.6036(1)
H1 H -0.0503 0.0771 0.8423
H2 H 0.0417 -0.3354 0.9083
H3 H 0.1260 -0.1849 0.9648
H4 H 0.2306 0.1521 0.9338
H5 H 0.1968 0.0029 0.8891
H6 H 0.2398 0.1060 0.7554
H7 H 0.1331 0.4401 0.6225
H8 H 0.0837 0.4917 0.7435
H9 H 0.0136 0.3395 0.9302
H10 H 0.0166 0.3215 0.8309
H11 H 0.1051 0.3073 1.0202
H12 H 0.1683 0.3534 0.9881
H13 H -0.1452 -0.2415 0.7876
H14 H -0.1064 -0.0965 0.7586
H15 H -0.1303 -0.0949 0.8496
H16 H 0.2770 0.1203 0.5450
H17 H 0.2415 0.0198 0.6088
H18 H 0.2948 0.1355 0.6444
loop_
_geom_bond_atom_site_label_1
_geom_bond_atom_site_label_2
_geom_bond_site_symmetry_1
_geom_bond_site_symmetry_2
C1 C2 1_555 1_555
C2 C3 1_555 1_555
C3 C4 1_555 1_555
C4 C5 1_555 1_555
C5 C14 1_555 1_555
C6 C7 1_555 1_555
C7 C8 1_555 1_555
C8 C9 1_555 1_555
C9 C10 1_555 1_555
C10 C11 1_555 1_555
C11 C12 1_555 1_555
C12 C7 1_555 1_555
C13 C14 1_555 1_555
C14 C1 1_555 1_555
C15 N1 1_555 1_555
C16 O1 1_555 1_555
C17 O2 1_555 1_555
N1 C5 1_555 1_555
N2 C12 1_555 1_555
O1 C2 1_555 1_555
O2 C9 1_555 1_555
H1 C1 1_555 1_555
H2 C3 1_555 1_555
H3 C4 1_555 1_555
H4 C6 1_555 1_555
H5 C6 1_555 1_555
H6 C8 1_555 1_555
H7 C10 1_555 1_555
H8 C11 1_555 1_555
H9 C13 1_555 1_555
H10 C13 1_555 1_555
H11 C15 1_555 1_555
H12 C15 1_555 1_555
H13 C16 1_555 1_555
H14 C16 1_555 1_555
H15 C16 1_555 1_555
H16 C17 1_555 1_555
H17 C17 1_555 1_555
H18 C17 1_555 1_555
C6 N1 1_555 1_555
C13 N2 1_555 1_555
C15 N2 1_555 1_555

#END
