
#######################################################################
#
#                 Cambridge Crystallographic Data Centre
#                                CCDC 
#
#######################################################################
#
# If this CIF has been generated from an entry in the Cambridge 
# Structural Database, then it will include bibliographic, chemical, 
# crystal, experimental, refinement or atomic coordinate data resulting 
# from the CCDC's data processing and validation procedures.
#
#######################################################################

data_DEGTIT
_chemical_formula_moiety         'C13 H15 N2 1+,I3 1-'
_chemical_name_systematic        
'1-(4-pyridinium)-3-(4-pyridyl)propane triiodide'
_symmetry_cell_setting           orthorhombic
_symmetry_space_group_name_H-M   'P b c a'
_symmetry_Int_Tables_number      61
_space_group_name_Hall           '-P 2ac 2ab'
loop_
_symmetry_equiv_pos_site_id
_symmetry_equiv_pos_as_xyz
1 x,y,z
2 1/2-x,-y,1/2+z
3 -x,1/2+y,1/2-z
4 1/2+x,1/2-y,-z
5 -x,-y,-z
6 1/2+x,y,1/2-z
7 x,1/2-y,1/2+z
8 1/2-x,1/2+y,z
_cell_length_a                   17.245(3)
_cell_length_b                   9.4476(19)
_cell_length_c                   21.811(4)
_cell_angle_alpha                90
_cell_angle_beta                 90
_cell_angle_gamma                90
_cell_volume                     3553.53
_exptl_crystal_colour            red
_exptl_crystal_description       prismatic
_cell_formula_units_Z            8
loop_
_atom_site_label
_atom_site_type_symbol
_atom_site_fract_x
_atom_site_fract_y
_atom_site_fract_z
I1 I 0.47479(3) 0.30573(6) 0.63140(3)
I2 I 0.49096(3) 0.61309(7) 0.63779(4)
I3 I 0.46284(4) -0.00047(8) 0.62795(5)
N1 N 0.7636(4) -0.1017(7) 1.0756(3)
N2 N 0.7420(3) -0.0920(6) 0.6640(3)
C1 C 0.6978(5) -0.1533(9) 1.0525(4)
H1 H 0.6508 -0.1213 1.0681
C2 C 0.6972(4) -0.2517(9) 1.0064(3)
H2 H 0.6503 -0.2866 0.9918
C3 C 0.7663(4) -0.2995(7) 0.9813(3)
C4 C 0.8343(4) -0.2463(9) 1.0063(3)
H3 H 0.8821 -0.2771 0.9917
C5 C 0.8310(4) -0.1487(8) 1.0523(4)
H4 H 0.8771 -0.1133 1.0682
C6 C 0.7670(4) -0.3958(8) 0.9265(3)
H5 H 0.7231 -0.4599 0.9282
H6 H 0.8142 -0.4517 0.9262
C7 C 0.7625(4) -0.3055(7) 0.8686(3)
H7 H 0.8066 -0.2417 0.8678
H8 H 0.7159 -0.2483 0.8702
C8 C 0.7619(4) -0.3917(7) 0.8094(3)
H9 H 0.8092 -0.4468 0.8063
H10 H 0.7183 -0.4566 0.8096
C9 C 0.6783(4) -0.1547(8) 0.6867(3)
H11 H 0.6299 -0.1300 0.6712
C10 C 0.6834(4) -0.2542(8) 0.7319(3)
H12 H 0.6385 -0.2962 0.7470
C11 C 0.7555(4) -0.2932(7) 0.7557(3)
C12 C 0.8206(4) -0.2288(8) 0.7301(3)
H13 H 0.8699 -0.2529 0.7439
C13 C 0.8121(4) -0.1299(8) 0.6845(3)
H14 H 0.8560 -0.0883 0.6675
H15 H 0.739(5) -0.018(9) 0.620(4)
loop_
_geom_bond_atom_site_label_1
_geom_bond_atom_site_label_2
_geom_bond_site_symmetry_1
_geom_bond_site_symmetry_2
I1 I2 1_555 1_555
I3 I1 1_555 1_555
N1 C1 1_555 1_555
N2 C9 1_555 1_555
C1 H1 1_555 1_555
C2 C1 1_555 1_555
H2 C2 1_555 1_555
C3 C2 1_555 1_555
C4 C3 1_555 1_555
H3 C4 1_555 1_555
C5 N1 1_555 1_555
H4 C5 1_555 1_555
C6 C3 1_555 1_555
H5 C6 1_555 1_555
H6 C6 1_555 1_555
C7 C6 1_555 1_555
H7 C7 1_555 1_555
H8 C7 1_555 1_555
C8 C7 1_555 1_555
H9 C8 1_555 1_555
H10 C8 1_555 1_555
C9 H11 1_555 1_555
C10 C9 1_555 1_555
H12 C10 1_555 1_555
C11 C8 1_555 1_555
C12 C11 1_555 1_555
H13 C12 1_555 1_555
C13 N2 1_555 1_555
H14 C13 1_555 1_555
H15 N2 1_555 1_555
C4 C5 1_555 1_555
C10 C11 1_555 1_555
C12 C13 1_555 1_555

#END
