
#######################################################################
#
#                 Cambridge Crystallographic Data Centre
#                                CCDC 
#
#######################################################################
#
# If this CIF has been generated from an entry in the Cambridge 
# Structural Database, then it will include bibliographic, chemical, 
# crystal, experimental, refinement or atomic coordinate data resulting 
# from the CCDC's data processing and validation procedures.
#
#######################################################################

data_DEGYEW
_chemical_formula_moiety         'C15 H22 B10'
_chemical_name_systematic        
1,2-(2-(1-phenylethylidene)cyclopent-4-ene-1,3-diyl)-1,2-dicarba-closo-dodecaborane(10)
_symmetry_cell_setting           orthorhombic
_symmetry_space_group_name_H-M   'P 21 21 21'
_symmetry_Int_Tables_number      19
_space_group_name_Hall           'P 2ac 2ab'
loop_
_symmetry_equiv_pos_site_id
_symmetry_equiv_pos_as_xyz
1 x,y,z
2 1/2-x,-y,1/2+z
3 -x,1/2+y,1/2-z
4 1/2+x,1/2-y,-z
_cell_length_a                   8.4063(3)
_cell_length_b                   10.5919(5)
_cell_length_c                   20.0306(9)
_cell_angle_alpha                90
_cell_angle_beta                 90
_cell_angle_gamma                90
_cell_volume                     1783.5
_exptl_crystal_colour            colorless
_exptl_crystal_description       block
_cell_formula_units_Z            4
loop_
_atom_site_label
_atom_site_type_symbol
_atom_site_fract_x
_atom_site_fract_y
_atom_site_fract_z
C1 C 0.94087(18) 0.35857(12) 0.08055(6)
C2 C 0.98634(18) 0.44008(13) 0.14617(6)
C3 C 0.83792(18) 0.45458(13) 0.03956(7)
H1 H 0.8249 0.4352 -0.0080
C4 C 0.6849(2) 0.48273(14) 0.07785(7)
H2 H 0.5833 0.4567 0.0657
C5 C 0.7217(2) 0.55068(15) 0.13144(8)
H3 H 0.6504 0.5807 0.1632
C6 C 0.90089(19) 0.57076(13) 0.13169(7)
H4 H 0.9393 0.6432 0.1575
C7 C 0.91831(18) 0.58084(13) 0.05554(7)
C8 C 0.95552(18) 0.67714(13) 0.01610(7)
C9 C 0.9913(2) 0.80718(15) 0.04310(9)
H5 H 0.9850 0.8058 0.0910
H6 H 0.9151 0.8663 0.0258
H7 H 1.0963 0.8321 0.0297
C10 C 0.95830(19) 0.66067(14) -0.05803(7)
C11 C 0.8830(2) 0.74441(16) -0.10069(8)
H8 H 0.8297 0.8137 -0.0830
C12 C 0.8857(2) 0.72682(19) -0.16920(9)
H9 H 0.8325 0.7833 -0.1969
C13 C 0.9665(3) 0.6266(2) -0.19662(9)
H10 H 0.9689 0.6155 -0.2427
C14 C 1.0434(3) 0.5433(2) -0.15549(9)
H11 H 1.0984 0.4753 -0.1737
C15 C 1.0395(2) 0.55993(18) -0.08677(8)
H12 H 1.0923 0.5026 -0.0594
B1 B 0.8577(2) 0.31059(16) 0.15659(8)
H13 H 0.7311 0.3162 0.1701
B2 B 0.9265(2) 0.19990(15) 0.09750(9)
H14 H 0.8442 0.1355 0.0717
B3 B 1.0955(2) 0.26265(16) 0.05598(8)
H15 H 1.1204 0.2385 0.0036
B4 B 1.1374(2) 0.41274(15) 0.08771(8)
H16 H 1.1927 0.4855 0.0562
B5 B 1.0076(2) 0.34457(17) 0.21534(8)
H17 H 0.9784 0.3747 0.2664
B6 B 0.9753(2) 0.18703(16) 0.18427(9)
H18 H 0.9262 0.1116 0.2159
B7 B 1.1219(2) 0.15354(16) 0.12312(9)
H19 H 1.1668 0.0573 0.1148
B8 B 1.2487(2) 0.28684(17) 0.11693(9)
H20 H 1.3757 0.2762 0.1050
B9 B 1.1771(2) 0.40581(17) 0.17342(9)
H21 H 1.2556 0.4747 0.1979
B10 B 1.1711(3) 0.24296(18) 0.19615(9)
H22 H 1.2480 0.2046 0.2357
loop_
_geom_bond_atom_site_label_1
_geom_bond_atom_site_label_2
_geom_bond_site_symmetry_1
_geom_bond_site_symmetry_2
C1 C2 1_555 1_555
C2 C6 1_555 1_555
C3 C1 1_555 1_555
H1 C3 1_555 1_555
C4 C3 1_555 1_555
H2 C4 1_555 1_555
C5 C4 1_555 1_555
H3 C5 1_555 1_555
C6 C5 1_555 1_555
H4 C6 1_555 1_555
C7 C3 1_555 1_555
C8 C7 1_555 1_555
C9 C8 1_555 1_555
H5 C9 1_555 1_555
H6 C9 1_555 1_555
H7 C9 1_555 1_555
C10 C8 1_555 1_555
C11 C10 1_555 1_555
H8 C11 1_555 1_555
C12 C11 1_555 1_555
H9 C12 1_555 1_555
C13 C12 1_555 1_555
H10 C13 1_555 1_555
C14 C13 1_555 1_555
H11 C14 1_555 1_555
C15 C10 1_555 1_555
H12 C15 1_555 1_555
B1 C1 1_555 1_555
H13 B1 1_555 1_555
B2 C1 1_555 1_555
H14 B2 1_555 1_555
B3 C1 1_555 1_555
H15 B3 1_555 1_555
B4 C1 1_555 1_555
H16 B4 1_555 1_555
B5 C2 1_555 1_555
H17 B5 1_555 1_555
B6 B1 1_555 1_555
H18 B6 1_555 1_555
B7 B2 1_555 1_555
H19 B7 1_555 1_555
B8 B3 1_555 1_555
H20 B8 1_555 1_555
B9 C2 1_555 1_555
H21 B9 1_555 1_555
B10 B5 1_555 1_555
H22 B10 1_555 1_555
C2 B1 1_555 1_555
C2 B4 1_555 1_555
C6 C7 1_555 1_555
C14 C15 1_555 1_555
B1 B2 1_555 1_555
B1 B5 1_555 1_555
B2 B3 1_555 1_555
B2 B6 1_555 1_555
B3 B4 1_555 1_555
B3 B7 1_555 1_555
B4 B8 1_555 1_555
B4 B9 1_555 1_555
B5 B6 1_555 1_555
B5 B9 1_555 1_555
B6 B7 1_555 1_555
B6 B10 1_555 1_555
B7 B8 1_555 1_555
B7 B10 1_555 1_555
B8 B9 1_555 1_555
B8 B10 1_555 1_555
B9 B10 1_555 1_555

#END
