
#######################################################################
#
#                 Cambridge Crystallographic Data Centre
#                                CCDC 
#
#######################################################################
#
# If this CIF has been generated from an entry in the Cambridge 
# Structural Database, then it will include bibliographic, chemical, 
# crystal, experimental, refinement or atomic coordinate data resulting 
# from the CCDC's data processing and validation procedures.
#
#######################################################################

data_DEHQIR
_chemical_formula_moiety         '2(C8 H20 N1 1+),O4 Se1 2-,C2 H3 N1'
_chemical_name_systematic        
'bis(tetraethylammonium) selenate acetonitrile solvate'
_symmetry_cell_setting           monoclinic
_symmetry_space_group_name_H-M   'P 21/n'
_symmetry_Int_Tables_number      14
_space_group_name_Hall           '-P 2yn'
loop_
_symmetry_equiv_pos_site_id
_symmetry_equiv_pos_as_xyz
1 x,y,z
2 1/2-x,1/2+y,1/2-z
3 -x,-y,-z
4 1/2+x,1/2-y,1/2+z
_cell_length_a                   13.182(7)
_cell_length_b                   14.176(7)
_cell_length_c                   13.370(7)
_cell_angle_alpha                90
_cell_angle_beta                 114.35(2)
_cell_angle_gamma                90
_cell_volume                     2276.18
_exptl_crystal_colour            colorless
_exptl_crystal_description       block
_cell_formula_units_Z            4
_exptl_crystal_recrystallization_method ether/acetonitrile
loop_
_atom_site_label
_atom_site_type_symbol
_atom_site_fract_x
_atom_site_fract_y
_atom_site_fract_z
Se1 Se 0.508780(14) 0.349376(14) 0.251839(15)
O1 O 0.45736(13) 0.25420(11) 0.17802(13)
O2 O 0.64496(12) 0.33944(12) 0.31505(14)
O3 O 0.45566(13) 0.36161(12) 0.34234(13)
O4 O 0.47742(14) 0.44212(12) 0.17155(13)
N1 N 0.68576(13) 0.37520(12) 0.69024(14)
C1 C 0.56537(16) 0.38697(17) 0.67450(18)
H1 H 0.5632 0.3872 0.7476
H2 H 0.5384 0.4493 0.6404
C2 C 0.48601(18) 0.31194(19) 0.6046(2)
H3 H 0.4884 0.3100 0.5324
H4 H 0.4102 0.3268 0.5959
H5 H 0.5081 0.2504 0.6405
C3 C 0.75028(17) 0.45123(17) 0.77127(18)
H6 H 0.7181 0.5134 0.7410
H7 H 0.7409 0.4418 0.8403
C4 C 0.87363(19) 0.4526(2) 0.7974(2)
H8 H 0.9068 0.3918 0.8291
H9 H 0.9098 0.5031 0.8502
H10 H 0.8840 0.4637 0.7299
C5 C 0.69628(17) 0.38652(16) 0.58152(17)
H11 H 0.7714 0.3652 0.5915
H12 H 0.6413 0.3446 0.5265
C6 C 0.67858(19) 0.48636(17) 0.53629(19)
H13 H 0.6142 0.5144 0.5440
H14 H 0.6650 0.4849 0.4585
H15 H 0.7451 0.5242 0.5772
C7 C 0.72967(18) 0.27720(16) 0.73305(19)
H16 H 0.6845 0.2301 0.6780
H17 H 0.8071 0.2722 0.7397
C8 C 0.7286(2) 0.2520(2) 0.8421(2)
H18 H 0.7725 0.2983 0.8975
H19 H 0.7608 0.1891 0.8644
H20 H 0.6517 0.2522 0.8355
N2 N 0.77085(13) 0.07792(12) 0.35689(13)
C9 C 0.82243(17) -0.01125(15) 0.42075(18)
H21 H 0.8914 -0.0253 0.4111
H22 H 0.8439 0.0011 0.4998
C10 C 0.7484(2) -0.09774(17) 0.3882(2)
H23 H 0.6803 -0.0854 0.3987
H24 H 0.7881 -0.1513 0.4340
H25 H 0.7290 -0.1125 0.3109
C11 C 0.66073(16) 0.10206(16) 0.36208(18)
H26 H 0.6320 0.1614 0.3212
H27 H 0.6063 0.0516 0.3247
C12 C 0.6679(2) 0.1135(2) 0.4768(2)
H28 H 0.6825 0.0520 0.5136
H29 H 0.5974 0.1387 0.4735
H30 H 0.7285 0.1571 0.5179
C13 C 0.85042(16) 0.15925(14) 0.40817(18)
H31 H 0.8708 0.1596 0.4882
H32 H 0.8113 0.2192 0.3778
C14 C 0.95675(18) 0.15558(16) 0.3894(2)
H33 H 0.9828 0.0902 0.3955
H34 H 1.0141 0.1944 0.4446
H35 H 0.9417 0.1797 0.3159
C15 C 0.75083(18) 0.06290(16) 0.23764(16)
H36 H 0.6951 0.0120 0.2067
H37 H 0.8211 0.0410 0.2352
C16 C 0.7105(2) 0.14973(17) 0.16509(19)
H38 H 0.6422 0.1734 0.1686
H39 H 0.6953 0.1330 0.0891
H40 H 0.7680 0.1987 0.1908
N3 N 1.01157(18) 0.39811(17) 0.3582(2)
C17 C 0.96249(18) 0.39265(17) 0.4109(2)
C18 C 0.89836(18) 0.38802(17) 0.47724(19)
H41 H 0.9040 0.4484 0.5149
H42 H 0.9278 0.3375 0.5317
H43 H 0.8201 0.3750 0.4297
loop_
_geom_bond_atom_site_label_1
_geom_bond_atom_site_label_2
_geom_bond_site_symmetry_1
_geom_bond_site_symmetry_2
Se1 O1 1_555 1_555
O2 Se1 1_555 1_555
O3 Se1 1_555 1_555
O4 Se1 1_555 1_555
N1 C1 1_555 1_555
C1 H1 1_555 1_555
H2 C1 1_555 1_555
C2 C1 1_555 1_555
H3 C2 1_555 1_555
H4 C2 1_555 1_555
H5 C2 1_555 1_555
C3 N1 1_555 1_555
H6 C3 1_555 1_555
H7 C3 1_555 1_555
C4 C3 1_555 1_555
H8 C4 1_555 1_555
H9 C4 1_555 1_555
H10 C4 1_555 1_555
C5 N1 1_555 1_555
H11 C5 1_555 1_555
H12 C5 1_555 1_555
C6 C5 1_555 1_555
H13 C6 1_555 1_555
H14 C6 1_555 1_555
H15 C6 1_555 1_555
C7 N1 1_555 1_555
H16 C7 1_555 1_555
H17 C7 1_555 1_555
C8 C7 1_555 1_555
H18 C8 1_555 1_555
H19 C8 1_555 1_555
H20 C8 1_555 1_555
N2 C9 1_555 1_555
C9 H21 1_555 1_555
H22 C9 1_555 1_555
C10 C9 1_555 1_555
H23 C10 1_555 1_555
H24 C10 1_555 1_555
H25 C10 1_555 1_555
C11 N2 1_555 1_555
H26 C11 1_555 1_555
H27 C11 1_555 1_555
C12 C11 1_555 1_555
H28 C12 1_555 1_555
H29 C12 1_555 1_555
H30 C12 1_555 1_555
C13 N2 1_555 1_555
H31 C13 1_555 1_555
H32 C13 1_555 1_555
C14 C13 1_555 1_555
H33 C14 1_555 1_555
H34 C14 1_555 1_555
H35 C14 1_555 1_555
C15 N2 1_555 1_555
H36 C15 1_555 1_555
H37 C15 1_555 1_555
C16 C15 1_555 1_555
H38 C16 1_555 1_555
H39 C16 1_555 1_555
H40 C16 1_555 1_555
N3 C17 1_555 1_555
C17 C18 1_555 1_555
C18 H41 1_555 1_555
H42 C18 1_555 1_555
H43 C18 1_555 1_555

#END
