
#######################################################################
#
#                 Cambridge Crystallographic Data Centre
#                                CCDC 
#
#######################################################################
#
# If this CIF has been generated from an entry in the Cambridge 
# Structural Database, then it will include bibliographic, chemical, 
# crystal, experimental, refinement or atomic coordinate data resulting 
# from the CCDC's data processing and validation procedures.
#
#######################################################################

data_DEJGUX
_chemical_formula_moiety         'C24 H12 Cl2'
_chemical_name_systematic        2,2'-dichloro-1,1'-bibiphenylene
_symmetry_cell_setting           tetragonal
_symmetry_space_group_name_H-M   'I 41/a'
_symmetry_Int_Tables_number      88
_space_group_name_Hall           '-I 4ad'
loop_
_symmetry_equiv_pos_site_id
_symmetry_equiv_pos_as_xyz
1 x,y,z
2 1/4-y,3/4+x,3/4+z
3 1/4+y,1/4-x,1/4+z
4 -x,1/2-y,z
5 1/2+x,1/2+y,1/2+z
6 3/4-y,1/4+x,1/4+z
7 3/4+y,3/4-x,3/4+z
8 1/2-x,-y,1/2+z
9 -x,-y,-z
10 3/4+y,1/4-x,1/4-z
11 3/4-y,3/4+x,3/4-z
12 x,1/2+y,-z
13 1/2-x,1/2-y,1/2-z
14 1/4+y,3/4-x,3/4-z
15 1/4-y,1/4+x,1/4-z
16 1/2+x,y,1/2-z
_cell_length_a                   12.8386(6)
_cell_length_b                   12.8386(6)
_cell_length_c                   20.5896(10)
_cell_angle_alpha                90
_cell_angle_beta                 90
_cell_angle_gamma                90
_cell_volume                     3393.78
_exptl_crystal_colour            yellow
_cell_formula_units_Z            8
loop_
_atom_site_label
_atom_site_type_symbol
_atom_site_fract_x
_atom_site_fract_y
_atom_site_fract_z
Cl1 Cl -0.10923(3) 0.67196(3) 0.01863(2)
C1 C 0.21001(11) 0.57383(12) 0.34960(7)
H1 H 0.2452 0.5468 0.3865
C2 C 0.17615(11) 0.50385(11) 0.30061(7)
H2 H 0.1873 0.4308 0.3035
C3 C 0.12634(10) 0.54868(11) 0.24902(7)
C4 C 0.11055(11) 0.65826(11) 0.24440(7)
C5 C 0.05553(10) 0.64359(10) 0.18036(6)
C6 C 0.00661(10) 0.69262(10) 0.12954(6)
C7 C -0.03465(10) 0.62194(11) 0.08241(6)
C8 C -0.02339(10) 0.51498(11) 0.08637(6)
H3 H -0.0531 0.4723 0.0536
C9 C 0.03165(10) 0.46751(10) 0.13844(7)
H4 H 0.0415 0.3943 0.1409
C10 C 0.06947(10) 0.53358(10) 0.18479(6)
C11 C 0.19348(11) 0.68023(12) 0.34548(7)
H5 H 0.2173 0.7237 0.3797
C12 C 0.14206(11) 0.72628(11) 0.29168(7)
H6 H 0.1303 0.7992 0.2887
Cl1C Cl 0.10923(3) 0.82804(3) 0.01863(2)
C1C C -0.21001(11) 0.92617(12) 0.34960(7)
H1C H -0.2452 0.9532 0.3865
C2C C -0.17615(11) 0.99615(11) 0.30061(7)
H2C H -0.1873 1.0692 0.3035
C3C C -0.12634(10) 0.95132(11) 0.24902(7)
C4C C -0.11055(11) 0.84174(11) 0.24440(7)
C5C C -0.05553(10) 0.85641(10) 0.18036(6)
C6C C -0.00661(10) 0.80738(10) 0.12954(6)
C7C C 0.03465(10) 0.87806(11) 0.08241(6)
C8C C 0.02339(10) 0.98502(11) 0.08637(6)
H3C H 0.0531 1.0277 0.0536
C9C C -0.03165(10) 1.03249(10) 0.13844(7)
H4C H -0.0415 1.1057 0.1409
C10C C -0.06947(10) 0.96642(10) 0.18479(6)
C11C C -0.19348(11) 0.81977(12) 0.34548(7)
H5C H -0.2173 0.7763 0.3797
C12C C -0.14206(11) 0.77372(11) 0.29168(7)
H6C H -0.1303 0.7008 0.2887
loop_
_geom_bond_atom_site_label_1
_geom_bond_atom_site_label_2
_geom_bond_site_symmetry_1
_geom_bond_site_symmetry_2
Cl1 C7 1_555 1_555
C1 H1 1_555 1_555
C2 C1 1_555 1_555
H2 C2 1_555 1_555
C3 C2 1_555 1_555
C4 C3 1_555 1_555
C5 C4 1_555 1_555
C6 C5 1_555 1_555
C7 C6 1_555 1_555
C8 C7 1_555 1_555
H3 C8 1_555 1_555
C9 C8 1_555 1_555
H4 C9 1_555 1_555
C10 C3 1_555 1_555
C11 C1 1_555 1_555
H5 C11 1_555 1_555
C12 C4 1_555 1_555
H6 C12 1_555 1_555
Cl1C C7C 1_555 1_555
C1C H1C 1_555 1_555
C2C C1C 1_555 1_555
H2C C2C 1_555 1_555
C3C C2C 1_555 1_555
C4C C3C 1_555 1_555
C5C C4C 1_555 1_555
C6C C6 1_555 1_555
C7C C6C 1_555 1_555
C8C C7C 1_555 1_555
H3C C8C 1_555 1_555
C9C C8C 1_555 1_555
H4C C9C 1_555 1_555
C10C C3C 1_555 1_555
C11C C1C 1_555 1_555
H5C C11C 1_555 1_555
C12C C4C 1_555 1_555
H6C C12C 1_555 1_555
C5 C10 1_555 1_555
C9 C10 1_555 1_555
C11 C12 1_555 1_555
C5C C6C 1_555 1_555
C5C C10C 1_555 1_555
C9C C10C 1_555 1_555
C11C C12C 1_555 1_555

#END
