
#######################################################################
#
#                 Cambridge Crystallographic Data Centre
#                                CCDC 
#
#######################################################################
#
# If this CIF has been generated from an entry in the Cambridge 
# Structural Database, then it will include bibliographic, chemical, 
# crystal, experimental, refinement or atomic coordinate data resulting 
# from the CCDC's data processing and validation procedures.
#
#######################################################################

data_DEJLAI
_chemical_formula_moiety         'C17 H20 O4 S1'
_chemical_name_systematic        
2-methoxy-3-[(4-methylphenyl)sulfonyl]-2-phenylpropan-1-ol
_symmetry_cell_setting           monoclinic
_symmetry_space_group_name_H-M   'C 2/c'
_symmetry_Int_Tables_number      15
_space_group_name_Hall           '-C 2yn'
loop_
_symmetry_equiv_pos_site_id
_symmetry_equiv_pos_as_xyz
1 x,y,z
2 -x,y,1/2-z
3 1/2+x,1/2+y,z
4 1/2-x,1/2+y,1/2-z
5 -x,-y,-z
6 x,-y,1/2+z
7 1/2-x,1/2-y,-z
8 1/2+x,1/2-y,1/2+z
_cell_length_a                   32.603(4)
_cell_length_b                   5.7618(6)
_cell_length_c                   16.0111(16)
_cell_angle_alpha                90
_cell_angle_beta                 92.394(5)
_cell_angle_gamma                90
_cell_volume                     3005.09
_exptl_crystal_colour            colorless
_cell_formula_units_Z            8
loop_
_atom_site_label
_atom_site_type_symbol
_atom_site_fract_x
_atom_site_fract_y
_atom_site_fract_z
O1 O 0.45416(17) 1.0215(10) 0.3816(3)
O2 O 0.4769(2) 0.6630(14) 0.4782(4)
H1 H 0.4575 0.7206 0.5042
C1 C 0.4632(4) 0.619(2) 0.3917(8)
H2 H 0.4871 0.6301 0.3556
H3 H 0.4522 0.4596 0.3870
C2 C 0.4939(2) 1.0546(13) 0.3423(6)
H4 H 0.5135 0.9374 0.3636
H5 H 0.5046 1.2098 0.3557
H6 H 0.4901 1.0384 0.2816
C3 C 0.39756(11) 0.7997(7) 0.4173(2)
H7 H 0.3870 0.9584 0.4063
H8 H 0.4070 0.7942 0.4768
C4 C 0.43505(12) 0.7659(8) 0.3649(2)
C5 C 0.42499(10) 0.7661(6) 0.2713(2)
C6 C 0.43527(10) 0.5821(6) 0.2202(2)
H9 H 0.4485 0.4490 0.2438
C7 C 0.42627(11) 0.5923(6) 0.1347(2)
H10 H 0.4334 0.4657 0.1002
C8 C 0.40728(12) 0.7817(6) 0.0995(2)
H11 H 0.4011 0.7868 0.0410
C9 C 0.39709(11) 0.9673(6) 0.1503(2)
H12 H 0.3839 1.0999 0.1263
C10 C 0.40599(11) 0.9597(6) 0.2345(2)
H13 H 0.3991 1.0881 0.2685
C11 C 0.32820(10) 0.6943(6) 0.31284(19)
C12 C 0.32981(10) 0.5619(6) 0.2406(2)
H14 H 0.3438 0.4172 0.2413
C13 C 0.31072(10) 0.6443(6) 0.1675(2)
H15 H 0.3114 0.5536 0.1181
C14 C 0.29062(10) 0.8573(6) 0.1653(2)
C15 C 0.28861(10) 0.9839(6) 0.2397(2)
H16 H 0.2743 1.1275 0.2396
C16 C 0.30708(10) 0.9033(5) 0.3132(2)
H17 H 0.3054 0.9899 0.3634
O3 O 0.33058(9) 0.6442(5) 0.47415(15)
O4 O 0.37092(9) 0.3738(4) 0.39030(17)
S1 S 0.35561(3) 0.60489(15) 0.40400(5)
C17 C 0.27208(13) 0.9526(8) 0.0848(3)
H18 H 0.2841 0.8732 0.0375
H19 H 0.2778 1.1192 0.0815
H20 H 0.2423 0.9273 0.0829
O5? O 0.4519(3) 0.5109(13) 0.3915(5)
O6? O 0.4821(2) 0.8827(18) 0.4751(4)
H21? H 0.5070 0.8451 0.4790
C18? C 0.4695(3) 0.9032(19) 0.3895(5)
H22? H 0.4629 1.0680 0.3775
H23? H 0.4928 0.8592 0.3550
C19? C 0.4737(6) 0.519(4) 0.4801(11)
H24? H 0.4938 0.6452 0.4824
H25? H 0.4877 0.3708 0.4913
H26? H 0.4532 0.5447 0.5222
loop_
_geom_bond_atom_site_label_1
_geom_bond_atom_site_label_2
_geom_bond_site_symmetry_1
_geom_bond_site_symmetry_2
O1 C2 1_555 1_555
O2 H1 1_555 1_555
C1 O2 1_555 1_555
H2 C1 1_555 1_555
H3 C1 1_555 1_555
C2 H4 1_555 1_555
H5 C2 1_555 1_555
H6 C2 1_555 1_555
C3 H7 1_555 1_555
H8 C3 1_555 1_555
C4 O1 1_555 1_555
C5 C4 1_555 1_555
C6 C5 1_555 1_555
H9 C6 1_555 1_555
C7 C6 1_555 1_555
H10 C7 1_555 1_555
C8 C7 1_555 1_555
H11 C8 1_555 1_555
C9 C8 1_555 1_555
H12 C9 1_555 1_555
C10 C5 1_555 1_555
H13 C10 1_555 1_555
C11 C12 1_555 1_555
C12 H14 1_555 1_555
C13 C12 1_555 1_555
H15 C13 1_555 1_555
C14 C13 1_555 1_555
C15 C14 1_555 1_555
H16 C15 1_555 1_555
C16 C11 1_555 1_555
H17 C16 1_555 1_555
O3 S1 1_555 1_555
O4 S1 1_555 1_555
S1 C3 1_555 1_555
C17 C14 1_555 1_555
H18 C17 1_555 1_555
H19 C17 1_555 1_555
H20 C17 1_555 1_555
C1 C4 1_555 1_555
C3 C4 1_555 1_555
C9 C10 1_555 1_555
C11 S1 1_555 1_555
C15 C16 1_555 1_555

#END
