
#######################################################################
#
#                 Cambridge Crystallographic Data Centre
#                                CCDC 
#
#######################################################################
#
# If this CIF has been generated from an entry in the Cambridge 
# Structural Database, then it will include bibliographic, chemical, 
# crystal, experimental, refinement or atomic coordinate data resulting 
# from the CCDC's data processing and validation procedures.
#
#######################################################################

data_DEJQIU
_chemical_formula_moiety         'C12 H12 Cl1 N1 O2'
_chemical_name_systematic        
(S)-5-Chloro-2-methoxy-3-methyl-3-vinylisoindolin-1-one
_symmetry_cell_setting           orthorhombic
_symmetry_space_group_name_H-M   'P 21 21 21'
_symmetry_Int_Tables_number      19
_space_group_name_Hall           'P 2ac 2ab'
loop_
_symmetry_equiv_pos_site_id
_symmetry_equiv_pos_as_xyz
1 x,y,z
2 1/2-x,-y,1/2+z
3 1/2+x,1/2-y,-z
4 -x,1/2+y,1/2-z
_cell_length_a                   6.9827(4)
_cell_length_b                   7.2032(4)
_cell_length_c                   22.6344(12)
_cell_angle_alpha                90
_cell_angle_beta                 90
_cell_angle_gamma                90
_cell_volume                     1138.46
_exptl_crystal_colour            white
_exptl_crystal_description       plate
_chemical_melting_point          '354-355 K'
_cell_formula_units_Z            4
_chemical_properties_physical    efflorescent
loop_
_atom_site_label
_atom_site_type_symbol
_atom_site_fract_x
_atom_site_fract_y
_atom_site_fract_z
Cl1 Cl 0.22592(14) 0.11319(12) 0.16237(3)
O1 O 0.2946(3) 0.5739(3) 0.46206(10)
N1 N 0.2941(4) 0.5281(4) 0.40270(12)
O2 O 0.2541(4) 0.8227(4) 0.36528(12)
C1 C 0.2200(5) 0.4660(5) 0.20287(13)
H1 H 0.2017 0.5008 0.1628
C2 C 0.2300(5) 0.5999(5) 0.24638(17)
H2 H 0.2215 0.7280 0.2368
C3 C 0.2646(5) 0.6540(5) 0.35915(15)
C4 C 0.2668(4) 0.3539(5) 0.31908(14)
C5 C -0.0292(5) 0.3058(5) 0.43949(14)
H3 H -0.0302 0.4356 0.4470
H4 H -0.1316 0.2303 0.4532
C6 C 0.2526(5) 0.5429(5) 0.30425(14)
C7 C 0.4722(5) 0.2277(5) 0.40175(15)
H5 H 0.4802 0.2143 0.4448
H6 H 0.5824 0.2991 0.3875
H7 H 0.4725 0.1046 0.3833
C8 C 0.2600(4) 0.2175(5) 0.27597(14)
H8 H 0.2705 0.0895 0.2855
C9 C 0.1146(4) 0.2303(5) 0.41000(14)
H9 H 0.1087 0.1000 0.4037
C10 C 0.2863(5) 0.3298(4) 0.38549(14)
C11 C 0.4757(6) 0.6576(5) 0.47907(16)
H10 H 0.4728 0.6883 0.5212
H11 H 0.4964 0.7710 0.4560
H12 H 0.5802 0.5699 0.4714
C12 C 0.2372(5) 0.2772(5) 0.21834(14)
loop_
_geom_bond_atom_site_label_1
_geom_bond_atom_site_label_2
_geom_bond_site_symmetry_1
_geom_bond_site_symmetry_2
Cl1 C12 1_555 1_555
O1 N1 1_555 1_555
N1 C3 1_555 1_555
O2 C3 1_555 1_555
C1 H1 1_555 1_555
C2 C1 1_555 1_555
H2 C2 1_555 1_555
C3 C6 1_555 1_555
C4 C6 1_555 1_555
C5 H3 1_555 1_555
H4 C5 1_555 1_555
C6 C2 1_555 1_555
C7 H5 1_555 1_555
H6 C7 1_555 1_555
H7 C7 1_555 1_555
C8 C4 1_555 1_555
H8 C8 1_555 1_555
C9 C5 1_555 1_555
H9 C9 1_555 1_555
C10 N1 1_555 1_555
C11 O1 1_555 1_555
H10 C11 1_555 1_555
H11 C11 1_555 1_555
H12 C11 1_555 1_555
C12 C1 1_555 1_555
C4 C10 1_555 1_555
C7 C10 1_555 1_555
C8 C12 1_555 1_555
C9 C10 1_555 1_555

#END
