
#######################################################################
#
#                 Cambridge Crystallographic Data Centre
#                                CCDC 
#
#######################################################################
#
# If this CIF has been generated from an entry in the Cambridge 
# Structural Database, then it will include bibliographic, chemical, 
# crystal, experimental, refinement or atomic coordinate data resulting 
# from the CCDC's data processing and validation procedures.
#
#######################################################################

data_DEJXIC
_chemical_formula_moiety         'C19 H18 Br1 N3 O2 S1,H2 O1'
_chemical_name_systematic        
'((5-bromo-4-((4-cyclobutyl-1-naphthyl)methyl)-4H-1,2,4-triazol-3-yl)sulfanyl)acetic acid monohydrate'
_symmetry_cell_setting           triclinic
_symmetry_space_group_name_H-M   'P -1'
_symmetry_Int_Tables_number      2
_space_group_name_Hall           '-P 1'
loop_
_symmetry_equiv_pos_site_id
_symmetry_equiv_pos_as_xyz
1 x,y,z
2 -x,-y,-z
_cell_length_a                   8.195(3)
_cell_length_b                   8.703(3)
_cell_length_c                   14.610(4)
_cell_angle_alpha                90.290(4)
_cell_angle_beta                 93.764(9)
_cell_angle_gamma                116.435(10)
_cell_volume                     930.351
_exptl_crystal_colour            colorless
_exptl_crystal_description       Prism
_cell_formula_units_Z            2
loop_
_atom_site_label
_atom_site_type_symbol
_atom_site_fract_x
_atom_site_fract_y
_atom_site_fract_z
Br1 Br 0.08718(14) -0.33545(11) 0.27677(6)
S1 S 0.3109(3) 0.3517(3) 0.36595(14)
O1 O 0.4412(9) 0.6916(8) 0.4344(4)
O2 O 0.2350(9) 0.6549(8) 0.5361(4)
H1 H 0.2853 0.7627 0.5384
N1 N 0.2338(9) 0.0228(8) 0.3206(4)
N2 N -0.0420(10) -0.1319(9) 0.3679(5)
N3 N 0.0120(10) 0.0416(9) 0.3896(5)
C1 C 0.2680(13) 0.2252(12) -0.1582(6)
H2 H 0.1976 0.1163 -0.1945
H3 H 0.1874 0.2528 -0.1207
C2 C 0.3933(13) 0.3754(12) -0.2149(6)
H4 H 0.3497 0.4637 -0.2258
H5 H 0.4249 0.3390 -0.2728
C3 C 0.5429(12) 0.4229(10) -0.1350(6)
H6 H 0.5458 0.5105 -0.0906
H7 H 0.6663 0.4531 -0.1550
C4 C 0.4407(12) 0.2353(10) -0.1036(5)
H8 H 0.4857 0.1621 -0.1364
C5 C 0.4359(11) 0.1962(9) -0.0036(5)
C6 C 0.2743(11) 0.1310(10) 0.0378(5)
H9 H 0.1651 0.1122 0.0025
C7 C 0.2656(11) 0.0910(10) 0.1313(5)
H10 H 0.1510 0.0458 0.1574
C8 C 0.4184(12) 0.1159(10) 0.1850(5)
C9 C 0.5911(11) 0.1831(10) 0.1456(5)
C10 C 0.7548(12) 0.2087(11) 0.1972(6)
H11 H 0.7516 0.1843 0.2605
C11 C 0.9173(12) 0.2681(11) 0.1571(6)
H12 H 1.0253 0.2841 0.1928
C12 C 0.9254(12) 0.3052(11) 0.0642(6)
H13 H 1.0386 0.3462 0.0369
C13 C 0.7705(12) 0.2826(10) 0.0123(6)
H14 H 0.7779 0.3082 -0.0509
C14 C 0.5994(11) 0.2221(10) 0.0507(6)
C15 C 0.4119(12) 0.0701(11) 0.2849(6)
H15 H 0.4431 -0.0270 0.2921
H16 H 0.5057 0.1694 0.3219
C16 C 0.0918(12) -0.1366(10) 0.3272(5)
C17 C 0.1753(11) 0.1291(10) 0.3609(5)
C18 C 0.2136(13) 0.4082(11) 0.4605(6)
H17 H 0.0811 0.3693 0.4460
H18 H 0.2301 0.3519 0.5167
C19 C 0.3095(12) 0.6003(11) 0.4757(6)
O3 O 0.7003(11) 0.0315(10) 0.4599(5)
H19 H 0.624(14) -0.058(14) 0.454(7)
H20 H 0.799(18) 0.035(15) 0.438(8)
loop_
_geom_bond_atom_site_label_1
_geom_bond_atom_site_label_2
_geom_bond_site_symmetry_1
_geom_bond_site_symmetry_2
Br1 C16 1_555 1_555
S1 C17 1_555 1_555
O1 C19 1_555 1_555
O2 H1 1_555 1_555
N1 C15 1_555 1_555
N2 N3 1_555 1_555
N3 C17 1_555 1_555
C1 H2 1_555 1_555
H3 C1 1_555 1_555
C2 C1 1_555 1_555
H4 C2 1_555 1_555
H5 C2 1_555 1_555
C3 C2 1_555 1_555
H6 C3 1_555 1_555
H7 C3 1_555 1_555
C4 C1 1_555 1_555
H8 C4 1_555 1_555
C5 C4 1_555 1_555
C6 C5 1_555 1_555
H9 C6 1_555 1_555
C7 C6 1_555 1_555
H10 C7 1_555 1_555
C8 C7 1_555 1_555
C9 C8 1_555 1_555
C10 C9 1_555 1_555
H11 C10 1_555 1_555
C11 C10 1_555 1_555
H12 C11 1_555 1_555
C12 C11 1_555 1_555
H13 C12 1_555 1_555
C13 C12 1_555 1_555
H14 C13 1_555 1_555
C14 C5 1_555 1_555
C15 C8 1_555 1_555
H15 C15 1_555 1_555
H16 C15 1_555 1_555
C16 N1 1_555 1_555
C17 N1 1_555 1_555
C18 S1 1_555 1_555
H17 C18 1_555 1_555
H18 C18 1_555 1_555
C19 O2 1_555 1_555
O3 H19 1_555 1_555
H20 O3 1_555 1_555
N2 C16 1_555 1_555
C3 C4 1_555 1_555
C9 C14 1_555 1_555
C13 C14 1_555 1_555
C18 C19 1_555 1_555

#END
