
#######################################################################
#
#                 Cambridge Crystallographic Data Centre
#                                CCDC 
#
#######################################################################
#
# If this CIF has been generated from an entry in the Cambridge 
# Structural Database, then it will include bibliographic, chemical, 
# crystal, experimental, refinement or atomic coordinate data resulting 
# from the CCDC's data processing and validation procedures.
#
#######################################################################

data_DEJZOI
_chemical_name_common            
"2,8,14,20-Tetramethyl-4,24;6,10;12,16-O,O'-tris(quinoxaline-2,3-diyl)-18,22-O,O'-(methylene)calix(4)resorcinarene ethyl acetate clathrate ethyl acetate solvate"
_chemical_formula_moiety         'C57 H38 N6 O8,2(C4 H8 O2)'
_chemical_name_systematic        
'2,8,14,20-Tetramethyl-4,24;6,10;12,16-tris(quinoxaline-2,3-diolato)-18,22-(methylenedioxy)calix(4)arene ethyl acetate clathrate ethyl acetate solvate'
_symmetry_cell_setting           monoclinic
_symmetry_space_group_name_H-M   'C 2/c'
_symmetry_Int_Tables_number      15
_space_group_name_Hall           '-C 2yn'
loop_
_symmetry_equiv_pos_site_id
_symmetry_equiv_pos_as_xyz
1 x,y,z
2 1/2+x,1/2+y,z
3 -x,y,1/2-z
4 1/2-x,1/2+y,1/2-z
5 -x,-y,-z
6 1/2-x,1/2-y,-z
7 x,-y,1/2+z
8 1/2+x,1/2-y,1/2+z
_cell_length_a                   41.541(5)
_cell_length_b                   12.603(5)
_cell_length_c                   25.527(5)
_cell_angle_alpha                90
_cell_angle_beta                 122.840(5)
_cell_angle_gamma                90
_cell_volume                     11228.6
_exptl_crystal_colour            white
_exptl_crystal_description       prismatic
_cell_formula_units_Z            8
_exptl_crystal_recrystallization_method 'dichloromethane/ethyl acetate'
loop_
_atom_site_label
_atom_site_type_symbol
_atom_site_fract_x
_atom_site_fract_y
_atom_site_fract_z
C1 C 0.89347(8) 0.3416(2) -0.12709(14)
H1 H 0.8989 0.2727 -0.1330
C2 C 0.92231(9) 0.3992(2) -0.07737(14)
C3 C 0.91281(9) 0.5024(2) -0.06926(15)
C4 C 0.87709(9) 0.5449(2) -0.10827(15)
H2 H 0.8715 0.6134 -0.1019
C5 C 0.84928(9) 0.4836(2) -0.15765(14)
C6 C 0.85671(9) 0.3815(2) -0.16880(13)
C7 C 0.96272(8) 0.3547(2) -0.03300(14)
H3 H 0.9803 0.4152 -0.0163
C8 C 0.97565(10) 0.2831(3) -0.06703(17)
H4 H 0.9734 0.3212 -0.1015
H5 H 0.9598 0.2209 -0.0822
H6 H 1.0019 0.2626 -0.0387
O1 O 0.81357(6) 0.53112(18) -0.19981(10)
O2 O 0.75958(6) 0.38264(17) -0.23283(10)
N1 N 0.79250(9) 0.6261(2) -0.14701(14)
N2 N 0.73952(8) 0.4602(2) -0.17330(13)
C9 C 0.78964(9) 0.5423(2) -0.17854(15)
C10 C 0.76747(10) 0.6309(3) -0.12727(16)
C11 C 0.76799(13) 0.7208(3) -0.09432(19)
H7 H 0.7846 0.7766 -0.0870
C12 C 0.74407(13) 0.7262(3) -0.07305(19)
H8 H 0.7439 0.7869 -0.0525
C13 C 0.71998(13) 0.6417(3) -0.08195(19)
H9 H 0.7047 0.6452 -0.0657
C14 C 0.71866(12) 0.5535(3) -0.11441(19)
H10 H 0.7022 0.4979 -0.1208
C15 C 0.74237(10) 0.5471(2) -0.13808(15)
C16 C 0.76235(9) 0.4604(2) -0.19324(14)
O3 O 0.74458(6) 0.06000(19) -0.15023(12)
O4 O 0.78311(7) -0.02485(18) -0.05288(12)
C17 C 0.81707(8) 0.1406(2) -0.18246(13)
H11 H 0.8386 0.1135 -0.1802
C18 C 0.77265(8) 0.2811(2) -0.20828(14)
C19 C 0.80503(8) 0.2436(2) -0.20533(13)
C20 C 0.75246(8) 0.2202(2) -0.19005(14)
H12 H 0.7306 0.2468 -0.1931
C21 C 0.79803(8) 0.0771(2) -0.16299(14)
C22 C 0.76558(8) 0.1198(2) -0.16744(15)
C23 C 0.82649(9) 0.3159(3) -0.22462(13)
H13 H 0.8077 0.3661 -0.2553
C24 C 0.84327(11) 0.2559(3) -0.25631(17)
H14 H 0.8233 0.2170 -0.2912
H15 H 0.8626 0.2076 -0.2271
H16 H 0.8545 0.3055 -0.2705
C25 C 0.81265(8) -0.0316(2) -0.13330(14)
H17 H 0.7904 -0.0730 -0.1417
C26 C 0.83226(10) -0.0945(3) -0.15972(16)
H18 H 0.8406 -0.1618 -0.1390
H19 H 0.8540 -0.0554 -0.1532
H20 H 0.8145 -0.1055 -0.2036
C27 C 0.75845(10) 0.0610(3) -0.08597(18)
H21 H 0.7721 0.1269 -0.0679
H22 H 0.7369 0.0589 -0.0811
C28 C 0.87756(9) -0.0033(2) -0.03236(14)
H23 H 0.8886 -0.0060 -0.0558
C29 C 0.83807(9) -0.0159(2) -0.06296(14)
C30 C 0.82180(9) -0.0082(2) -0.02730(15)
C31 C 0.84473(10) 0.0088(2) 0.03667(16)
H24 H 0.8338 0.0137 0.0601
C32 C 0.88371(9) 0.0184(2) 0.06503(14)
C33 C 0.90146(9) 0.0132(2) 0.03174(14)
C34 C 0.94467(9) 0.0241(2) 0.06461(14)
H25 H 0.9558 -0.0010 0.1074
C35 C 0.96140(10) -0.0456(3) 0.03576(18)
H26 H 0.9887 -0.0362 0.0585
H27 H 0.9504 -0.0256 -0.0070
H28 H 0.9556 -0.1187 0.0377
C36 C 0.95472(8) 0.1924(2) 0.01942(13)
H29 H 0.9462 0.1546 -0.0171
C37 C 0.95620(8) 0.1405(2) 0.06906(13)
C38 C 0.96789(8) 0.2001(2) 0.12248(13)
C39 C 0.97969(8) 0.3044(2) 0.12815(14)
H30 H 0.9885 0.3418 0.1649
C40 C 0.97813(8) 0.3515(2) 0.07821(14)
C41 C 0.96541(8) 0.2986(2) 0.02226(14)
O5 O 0.90753(7) 0.02598(18) 0.13039(11)
O6 O 0.96939(6) 0.15209(17) 0.17357(9)
N3 N 0.94552(8) 0.2724(2) 0.21247(13)
N4 N 0.87920(10) 0.1431(3) 0.16262(15)
C42 C 0.94100(9) 0.1853(3) 0.18207(14)
C43 C 0.91596(11) 0.2988(3) 0.21951(16)
C44 C 0.91927(13) 0.3916(3) 0.2532(2)
H31 H 0.9413 0.4328 0.2710
C45 C 0.88981(16) 0.4203(4) 0.2595(2)
H32 H 0.8920 0.4813 0.2816
C46 C 0.85664(16) 0.3598(6) 0.2332(3)
H33 H 0.8366 0.3819 0.2369
C47 C 0.85308(15) 0.2667(5) 0.2016(3)
H34 H 0.8312 0.2250 0.1857
C48 C 0.88267(12) 0.2359(4) 0.19388(19)
C49 C 0.90776(10) 0.1207(3) 0.15764(15)
O7 O 0.99075(6) 0.45777(17) 0.08418(11)
O8 O 0.94218(6) 0.56511(18) -0.02168(11)
N5 N 0.96884(9) 0.5467(2) 0.13783(15)
N6 N 0.91655(9) 0.6557(2) 0.02576(15)
C50 C 0.96622(9) 0.5298(2) 0.08515(16)
C51 C 0.94313(11) 0.6187(3) 0.13511(19)
C52 C 0.94272(15) 0.6362(3) 0.1897(2)
H35 H 0.9598 0.6005 0.2265
C53 C 0.91721(17) 0.7055(4) 0.1876(3)
H36 H 0.9165 0.7162 0.2231
C54 C 0.89142(17) 0.7622(4) 0.1323(3)
H37 H 0.8742 0.8101 0.1318
C55 C 0.89177(15) 0.7466(3) 0.0796(3)
H38 H 0.8750 0.7841 0.0434
C56 C 0.91780(11) 0.6732(3) 0.08057(19)
C57 C 0.94030(9) 0.5851(2) 0.02970(16)
O9 O 0.92030(14) 0.0258(4) -0.1323(2)
C58 C 0.9711(3) 0.0744(7) -0.2206(4)
H39 H 0.9705 0.1425 -0.2381
H40 H 0.9702 0.0195 -0.2474
H41 H 0.9943 0.0680 -0.1802
C59 C 0.9376(3) 0.0641(7) -0.2147(4)
H42 H 0.9378 0.1193 -0.1880
H43 H 0.9138 0.0686 -0.2552
O10 O 0.94185(18) -0.0384(4) -0.1875(2)
C60 C 0.92994(15) -0.0511(5) -0.1491(3)
C61 C 0.93354(19) -0.1605(6) -0.1270(3)
H44 H 0.9414 -0.2055 -0.1484
H45 H 0.9093 -0.1843 -0.1352
H46 H 0.9523 -0.1634 -0.0830
O11 O 0.8072(3) 0.2960(11) -0.0033(7)
C62 C 0.8441(7) 0.5311(15) 0.1017(12)
C63 C 0.8367(6) 0.4355(15) 0.0738(11)
O12 O 0.8602(4) 0.4137(11) 0.0504(7)
C64 C 0.8394(3) 0.3357(8) 0.0028(4)
C65 C 0.8567(3) 0.2920(8) -0.0259(5)
O13? O 0.8193(4) 0.5489(11) 0.0556(8)
C66? C 0.7994(6) 0.3694(18) 0.0342(10)
C67? C 0.8186(7) 0.4408(13) 0.0311(11)
O14? O 0.8439(5) 0.4398(12) 0.0162(7)
loop_
_geom_bond_atom_site_label_1
_geom_bond_atom_site_label_2
_geom_bond_site_symmetry_1
_geom_bond_site_symmetry_2
C1 H1 1_555 1_555
C2 C1 1_555 1_555
C3 C2 1_555 1_555
C4 C3 1_555 1_555
H2 C4 1_555 1_555
C5 C4 1_555 1_555
C6 C1 1_555 1_555
C7 C2 1_555 1_555
H3 C7 1_555 1_555
C8 C7 1_555 1_555
H4 C8 1_555 1_555
H5 C8 1_555 1_555
H6 C8 1_555 1_555
O1 C5 1_555 1_555
O2 C16 1_555 1_555
N1 C9 1_555 1_555
N2 C15 1_555 1_555
C9 O1 1_555 1_555
C10 N1 1_555 1_555
C11 C10 1_555 1_555
H7 C11 1_555 1_555
C12 C11 1_555 1_555
H8 C12 1_555 1_555
C13 C12 1_555 1_555
H9 C13 1_555 1_555
C14 C13 1_555 1_555
H10 C14 1_555 1_555
C15 C10 1_555 1_555
C16 N2 1_555 1_555
O3 C22 1_555 1_555
O4 C27 1_555 1_555
C17 H11 1_555 1_555
C18 O2 1_555 1_555
C19 C17 1_555 1_555
C20 C18 1_555 1_555
H12 C20 1_555 1_555
C21 C17 1_555 1_555
C22 C20 1_555 1_555
C23 C6 1_555 1_555
H13 C23 1_555 1_555
C24 C23 1_555 1_555
H14 C24 1_555 1_555
H15 C24 1_555 1_555
H16 C24 1_555 1_555
C25 C21 1_555 1_555
H17 C25 1_555 1_555
C26 C25 1_555 1_555
H18 C26 1_555 1_555
H19 C26 1_555 1_555
H20 C26 1_555 1_555
C27 O3 1_555 1_555
H21 C27 1_555 1_555
H22 C27 1_555 1_555
C28 H23 1_555 1_555
C29 C25 1_555 1_555
C30 O4 1_555 1_555
C31 C30 1_555 1_555
H24 C31 1_555 1_555
C32 C31 1_555 1_555
C33 C28 1_555 1_555
C34 C33 1_555 1_555
H25 C34 1_555 1_555
C35 C34 1_555 1_555
H26 C35 1_555 1_555
H27 C35 1_555 1_555
H28 C35 1_555 1_555
C36 H29 1_555 1_555
C37 C34 1_555 1_555
C38 C37 1_555 1_555
C39 C38 1_555 1_555
H30 C39 1_555 1_555
C40 C39 1_555 1_555
C41 C7 1_555 1_555
O5 C32 1_555 1_555
O6 C38 1_555 1_555
N3 C42 1_555 1_555
N4 C48 1_555 1_555
C42 O6 1_555 1_555
C43 N3 1_555 1_555
C44 C43 1_555 1_555
H31 C44 1_555 1_555
C45 C44 1_555 1_555
H32 C45 1_555 1_555
C46 C45 1_555 1_555
H33 C46 1_555 1_555
C47 C46 1_555 1_555
H34 C47 1_555 1_555
C48 C43 1_555 1_555
C49 O5 1_555 1_555
O7 C40 1_555 1_555
O8 C3 1_555 1_555
N5 C50 1_555 1_555
N6 C56 1_555 1_555
C50 O7 1_555 1_555
C51 N5 1_555 1_555
C52 C51 1_555 1_555
H35 C52 1_555 1_555
C53 C52 1_555 1_555
H36 C53 1_555 1_555
C54 C53 1_555 1_555
H37 C54 1_555 1_555
C55 C54 1_555 1_555
H38 C55 1_555 1_555
C56 C51 1_555 1_555
C57 O8 1_555 1_555
O9 C60 1_555 1_555
C58 H39 1_555 1_555
H40 C58 1_555 1_555
H41 C58 1_555 1_555
C59 C58 1_555 1_555
H42 C59 1_555 1_555
H43 C59 1_555 1_555
O10 C59 1_555 1_555
C60 O10 1_555 1_555
C61 C60 1_555 1_555
H44 C61 1_555 1_555
H45 C61 1_555 1_555
H46 C61 1_555 1_555
O11 C64 1_555 1_555
C62 C63 1_555 1_555
C63 O12 1_555 1_555
O12 C64 1_555 1_555
C64 C65 1_555 1_555
C5 C6 1_555 1_555
C9 C16 1_555 1_555
C14 C15 1_555 1_555
C18 C19 1_555 1_555
C19 C23 1_555 1_555
C21 C22 1_555 1_555
C28 C29 1_555 1_555
C29 C30 1_555 1_555
C32 C33 1_555 1_555
C36 C37 1_555 1_555
C36 C41 1_555 1_555
C40 C41 1_555 1_555
N4 C49 1_555 1_555
C42 C49 1_555 1_555
C47 C48 1_555 1_555
N6 C57 1_555 1_555
C50 C57 1_555 1_555
C55 C56 1_555 1_555

#END
