
#######################################################################
#
#                 Cambridge Crystallographic Data Centre
#                                CCDC 
#
#######################################################################
#
# If this CIF has been generated from an entry in the Cambridge 
# Structural Database, then it will include bibliographic, chemical, 
# crystal, experimental, refinement or atomic coordinate data resulting 
# from the CCDC's data processing and validation procedures.
#
#######################################################################

data_DEJZIC
_chemical_name_common            
"2,8,14,20-Tetramethyl-4,24;6,10;12,16-O,O'-tris(quinoxaline-2,3-diyl)-18,22-(phenylphosphinoyl)calix(4)resorcinarene dichloromethane solvate tetrahydrate"
_chemical_formula_moiety         'C62 H41 N6 O9 P1,C1 H2 Cl2,4(H2 O1)'
_chemical_name_systematic        
'2,8,14,20-Tetramethyl-4,24;6,10;12,16-tris(quinoxaline-2,3-diolato)-18,22-(phenylphosphato)calix(4)arene dichloromethane solvate tetrahydrate'
_symmetry_cell_setting           monoclinic
_symmetry_space_group_name_H-M   'C 2/c'
_symmetry_Int_Tables_number      15
_space_group_name_Hall           '-C 2yn'
loop_
_symmetry_equiv_pos_site_id
_symmetry_equiv_pos_as_xyz
1 x,y,z
2 1/2+x,1/2+y,z
3 -x,y,1/2-z
4 1/2-x,1/2+y,1/2-z
5 -x,-y,-z
6 1/2-x,1/2-y,-z
7 x,-y,1/2+z
8 1/2+x,1/2-y,1/2+z
_cell_length_a                   22.768(5)
_cell_length_b                   25.492(5)
_cell_length_c                   21.956(5)
_cell_angle_alpha                90
_cell_angle_beta                 106.730(5)
_cell_angle_gamma                90
_cell_volume                     12203.9
_exptl_crystal_colour            white
_exptl_crystal_description       prismatic
_cell_formula_units_Z            8
loop_
_atom_site_label
_atom_site_type_symbol
_atom_site_fract_x
_atom_site_fract_y
_atom_site_fract_z
P1 P 0.39865(17) 0.12338(12) 0.1058(11)
C1 C 0.2191(4) 0.0265(3) 0.0402(19)
H1 H 0.1800 0.0348 0.0146
C2 C 0.2298(4) -0.0160(3) 0.0811(18)
C3 C 0.2884(4) -0.0292(3) 0.118(2)
C4 C 0.3417(4) -0.0023(3) 0.113(2)
H2 H 0.3814 -0.0123 0.1357
C5 C 0.3278(4) 0.0424(3) 0.070(2)
C6 C 0.2706(4) 0.0563(3) 0.039(3)
C7 C 0.1758(5) -0.0480(5) 0.089(3)
H3 H 0.1925 -0.0827 0.1042
C8 C 0.1239(5) -0.0574(4) 0.032(2)
H4 H 0.1043 -0.0246 0.0173
H5 H 0.0950 -0.0804 0.0430
H6 H 0.1386 -0.0732 0.0000
O1 O 0.3002(4) -0.0764(3) 0.1584(18)
O2 O 0.2198(3) -0.0794(3) 0.2226(16)
N1 N 0.3795(3) -0.0610(4) 0.2493(8)
N2 N 0.2954(5) -0.0621(4) 0.3140(10)
C9 C 0.3205(4) -0.0688(4) 0.2154(9)
C10 C 0.3991(4) -0.0548(4) 0.3134(8)
C11 C 0.4619(4) -0.0499(4) 0.3423(9)
H7 H 0.4901 -0.0527 0.3191
C12 C 0.4804(6) -0.0406(7) 0.4077(10)
H8 H 0.5221 -0.0383 0.4286
C13 C 0.4386(6) -0.0348(6) 0.4428(9)
H9 H 0.4516 -0.0273 0.4861
C14 C 0.3767(5) -0.0406(5) 0.4105(9)
H10 H 0.3484 -0.0382 0.4336
C15 C 0.3549(4) -0.0497(5) 0.3454(9)
C16 C 0.2793(5) -0.0697(5) 0.2499(11)
C17 C 0.1089(5) 0.0192(4) 0.136(2)
H11 H 0.0912 0.0289 0.0939
C18 C 0.0912(5) 0.0432(5) 0.181(3)
C19 C 0.1133(5) 0.0272(5) 0.252(3)
C20 C 0.1602(6) -0.0173(5) 0.265(3)
H12 H 0.1783 -0.0314 0.3049
C21 C 0.1748(5) -0.0374(5) 0.199(4)
C22 C 0.1550(5) -0.0216(5) 0.150(3)
C23 C 0.0406(5) 0.0852(4) 0.165(3)
H13 H 0.0205 0.0843 0.1990
C24 C -0.0083(5) 0.0776(4) 0.103(2)
H14 H 0.0061 0.0903 0.0688
H15 H -0.0445 0.0966 0.1038
H16 H -0.0179 0.0409 0.0968
O3 O 0.0931(4) 0.0479(3) 0.290(2)
O4 O 0.0715(3) 0.1500(4) 0.280(2)
N3 N 0.1831(4) 0.0625(3) 0.3749(12)
N4 N 0.1557(4) 0.1692(3) 0.365(2)
C25 C 0.1355(4) 0.0801(3) 0.3254(11)
C26 C 0.2219(4) 0.0978(3) 0.4146(11)
C27 C 0.2724(5) 0.0793(3) 0.4613(12)
H17 H 0.2812 0.0436 0.4651
C28 C 0.3099(6) 0.1154(3) 0.5027(13)
H18 H 0.3461 0.1043 0.5318
C29 C 0.2926(7) 0.1688(4) 0.5003(16)
H19 H 0.3150 0.1921 0.5309
C30 C 0.2421(5) 0.1869(4) 0.4522(17)
H20 H 0.2311 0.2221 0.4507
C31 C 0.2077(4) 0.1514(3) 0.4057(16)
C32 C 0.1205(4) 0.1356(4) 0.328(2)
C33 C 0.0827(5) 0.1620(7) 0.116(3)
H21 H 0.0737 0.1441 0.0778
C34 C 0.1086(5) 0.2145(5) 0.125(4)
C35 C 0.1200(5) 0.2404(5) 0.168(4)
C36 C 0.1097(6) 0.2231(7) 0.231(3)
H22 H 0.1188 0.2437 0.2675
C37 C 0.0835(5) 0.1694(5) 0.227(4)
C38 C 0.0729(4) 0.1419(4) 0.168(4)
C39 C 0.1231(5) 0.2362(6) 0.056(3)
H23 H 0.1244 0.2746 0.0585
C40 C 0.0723(5) 0.2219(5) -0.002(2)
H24 H 0.0865 0.2261 -0.0394
H25 H 0.0377 0.2443 -0.0059
H26 H 0.0605 0.1860 0.0005
O5 O 0.1456(3) 0.2925(3) 0.1762(16)
O6 O 0.2295(4) 0.2937(4) 0.1227(19)
N5 N 0.2146(4) 0.3009(5) 0.2725(11)
N6 N 0.3093(3) 0.3006(4) 0.2137(15)
C41 C 0.2025(4) 0.2982(6) 0.2080(11)
C42 C 0.2737(5) 0.3042(6) 0.3115(11)
C43 C 0.2902(7) 0.3086(7) 0.3773(11)
H27 H 0.2591 0.3100 0.3969
C44 C 0.3505(8) 0.3110(6) 0.4154(13)
H28 H 0.3629 0.3148 0.4594
C45 C 0.3946(11) 0.3061(9) 0.372(4)
H29 H 0.4357 0.3000 0.3930
C46 C 0.3829(5) 0.3091(9) 0.318(2)
H30 H 0.4132 0.3138 0.2979
C47 C 0.3215(6) 0.3054(5) 0.2838(15)
C48 C 0.2493(4) 0.2957(4) 0.1800(11)
C49 C 0.1945(5) 0.1677(4) 0.020(2)
H31 H 0.1606 0.1486 -0.0035
C50 C 0.2523(4) 0.1527(4) 0.021(2)
C51 C 0.3038(4) 0.1811(3) 0.057(2)
C52 C 0.2986(5) 0.2294(4) 0.090(2)
H32 H 0.3326 0.2500 0.1093
C53 C 0.2376(4) 0.2437(3) 0.091(2)
C54 C 0.1863(4) 0.2182(4) 0.058(2)
C55 C 0.2604(4) 0.1040(3) -0.007(2)
H33 H 0.2978 0.1074 -0.0204
C56 C 0.2098(5) 0.0944(4) -0.065(2)
H34 H 0.1718 0.0922 -0.0549
H35 H 0.2169 0.0620 -0.0846
H36 H 0.2077 0.1226 -0.0949
O7 O 0.3626(3) 0.1676(2) 0.0606(15)
O8 O 0.3907(5) 0.1234(4) 0.175(3)
O9 O 0.3794(3) 0.0693(2) 0.0644(14)
C57 C 0.4710(5) 0.1329(6) 0.1012(13)
C58 C 0.5148(8) 0.1180(7) 0.1566(13)
H37 H 0.5020 0.1077 0.1913
C59 C 0.5776(7) 0.118(2) 0.1622(14)
H38 H 0.6068 0.1091 0.2000
C60 C 0.5938(6) 0.1321(7) 0.1081(14)
H39 H 0.6353 0.1319 0.1105
C61 C 0.5523(5) 0.1465(6) 0.0508(13)
H40 H 0.5652 0.1581 0.0166
C62 C 0.4900(4) 0.1425(4) 0.0473(12)
H41 H 0.4607 0.1463 0.0081
C63 C 0.0067(13) 0.0802(10) 0.863(4)
Cl1 Cl 0.0339(3) 0.0749(2) 0.9361(16)
Cl2 Cl 0.0585(5) 0.1240(4) 0.832(2)
O10 O 0.2355(5) 0.4322(4) 0.767(2)
O12 O 0.0779(4) 0.3327(3) 0.3349(18)
O13 O 0.0557(4) 0.2521(3) 0.4234(18)
O14 O 0.0316(4) 0.2534(4) 0.8128(19)
Cl3? Cl 0.0454(7) 0.0677(6) 0.820(4)
O11? O 0.2088(6) 0.4387(5) 0.740(3)
loop_
_geom_bond_atom_site_label_1
_geom_bond_atom_site_label_2
_geom_bond_site_symmetry_1
_geom_bond_site_symmetry_2
P1 O7 1_555 1_555
C1 H1 1_555 1_555
C2 C1 1_555 1_555
C3 C2 1_555 1_555
C4 C3 1_555 1_555
H2 C4 1_555 1_555
C5 C4 1_555 1_555
C6 C1 1_555 1_555
C7 C2 1_555 1_555
H3 C7 1_555 1_555
C8 C7 1_555 1_555
H4 C8 1_555 1_555
H5 C8 1_555 1_555
H6 C8 1_555 1_555
O1 C3 1_555 1_555
O2 C16 1_555 1_555
N1 C9 1_555 1_555
N2 C15 1_555 1_555
C9 O1 1_555 1_555
C10 N1 1_555 1_555
C11 C10 1_555 1_555
H7 C11 1_555 1_555
C12 C11 1_555 1_555
H8 C12 1_555 1_555
C13 C12 1_555 1_555
H9 C13 1_555 1_555
C14 C13 1_555 1_555
H10 C14 1_555 1_555
C15 C10 1_555 1_555
C16 N2 1_555 1_555
C17 H11 1_555 1_555
C18 C17 1_555 1_555
C19 C18 1_555 1_555
C20 C19 1_555 1_555
H12 C20 1_555 1_555
C21 O2 1_555 1_555
C22 C7 1_555 1_555
C23 C18 1_555 1_555
H13 C23 1_555 1_555
C24 C23 1_555 1_555
H14 C24 1_555 1_555
H15 C24 1_555 1_555
H16 C24 1_555 1_555
O3 C19 1_555 1_555
O4 C32 1_555 1_555
N3 C25 1_555 1_555
N4 C31 1_555 1_555
C25 O3 1_555 1_555
C26 N3 1_555 1_555
C27 C26 1_555 1_555
H17 C27 1_555 1_555
C28 C27 1_555 1_555
H18 C28 1_555 1_555
C29 C28 1_555 1_555
H19 C29 1_555 1_555
C30 C29 1_555 1_555
H20 C30 1_555 1_555
C31 C26 1_555 1_555
C32 N4 1_555 1_555
C33 H21 1_555 1_555
C34 C33 1_555 1_555
C35 C34 1_555 1_555
C36 C35 1_555 1_555
H22 C36 1_555 1_555
C37 O4 1_555 1_555
C38 C23 1_555 1_555
C39 C34 1_555 1_555
H23 C39 1_555 1_555
C40 C39 1_555 1_555
H24 C40 1_555 1_555
H25 C40 1_555 1_555
H26 C40 1_555 1_555
O5 C35 1_555 1_555
O6 C48 1_555 1_555
N5 C41 1_555 1_555
N6 C47 1_555 1_555
C41 O5 1_555 1_555
C42 N5 1_555 1_555
C43 C42 1_555 1_555
H27 C43 1_555 1_555
C44 C43 1_555 1_555
H28 C44 1_555 1_555
C45 C44 1_555 1_555
H29 C45 1_555 1_555
C46 C45 1_555 1_555
H30 C46 1_555 1_555
C47 C42 1_555 1_555
C48 N6 1_555 1_555
C49 H31 1_555 1_555
C50 C49 1_555 1_555
C51 C50 1_555 1_555
C52 C51 1_555 1_555
H32 C52 1_555 1_555
C53 O6 1_555 1_555
C54 C39 1_555 1_555
C55 C6 1_555 1_555
H33 C55 1_555 1_555
C56 C55 1_555 1_555
H34 C56 1_555 1_555
H35 C56 1_555 1_555
H36 C56 1_555 1_555
O7 C51 1_555 1_555
O8 P1 1_555 1_555
O9 P1 1_555 1_555
C57 P1 1_555 1_555
C58 C57 1_555 1_555
H37 C58 1_555 1_555
C59 C58 1_555 1_555
H38 C59 1_555 1_555
C60 C59 1_555 1_555
H39 C60 1_555 1_555
C61 C60 1_555 1_555
H40 C61 1_555 1_555
C62 C57 1_555 1_555
H41 C62 1_555 1_555
C63 Cl1 1_555 1_555
Cl2 C63 1_555 1_555
C5 C6 1_555 1_555
C5 O9 1_555 1_555
C9 C16 1_555 1_555
C14 C15 1_555 1_555
C17 C22 1_555 1_555
C20 C21 1_555 1_555
C21 C22 1_555 1_555
C25 C32 1_555 1_555
C30 C31 1_555 1_555
C33 C38 1_555 1_555
C36 C37 1_555 1_555
C37 C38 1_555 1_555
C41 C48 1_555 1_555
C46 C47 1_555 1_555
C49 C54 1_555 1_555
C50 C55 1_555 1_555
C52 C53 1_555 1_555
C53 C54 1_555 1_555
C61 C62 1_555 1_555

#END
