
#######################################################################
#
#                 Cambridge Crystallographic Data Centre
#                                CCDC 
#
#######################################################################
#
# If this CIF has been generated from an entry in the Cambridge 
# Structural Database, then it will include bibliographic, chemical, 
# crystal, experimental, refinement or atomic coordinate data resulting 
# from the CCDC's data processing and validation procedures.
#
#######################################################################

data_DEKKAI
_chemical_formula_moiety         'C21 H20 Br2 P1 1+,Br1 1-,C3 H8 O1'
_chemical_name_systematic        
'(2,3-dibromopropyl)(triphenyl)phosphanium bromide isopropanol solvate'
_symmetry_cell_setting           monoclinic
_symmetry_space_group_name_H-M   'P 21/n'
_symmetry_Int_Tables_number      14
_space_group_name_Hall           '-P 2yn'
loop_
_symmetry_equiv_pos_site_id
_symmetry_equiv_pos_as_xyz
1 x,y,z
2 1/2-x,1/2+y,1/2-z
3 -x,-y,-z
4 1/2+x,1/2-y,1/2+z
_cell_length_a                   10.458(2)
_cell_length_b                   17.615(4)
_cell_length_c                   13.974(3)
_cell_angle_alpha                90
_cell_angle_beta                 95.16(3)
_cell_angle_gamma                90
_cell_volume                     2563.83
_exptl_crystal_colour            colorless
_exptl_crystal_description       prism
_cell_formula_units_Z            4
loop_
_atom_site_label
_atom_site_type_symbol
_atom_site_fract_x
_atom_site_fract_y
_atom_site_fract_z
Br1 Br 0.87737(7) 0.36953(4) 0.54136(5)
Br2 Br 0.05021(7) 0.64025(4) 0.79664(6)
Br3 Br -0.26847(8) 0.59057(5) 0.72437(7)
P1 P 0.24672(15) 0.48215(9) 0.73138(11)
C1 C 0.0959(5) 0.5128(3) 0.6729(4)
H1 H 0.115196 0.549567 0.624578
H2 H 0.058074 0.469221 0.638743
C2 C -0.0063(6) 0.5468(4) 0.7267(5)
H3 H -0.031202 0.509421 0.773551
C3 C -0.1221(6) 0.5643(4) 0.6582(5)
H4 H -0.142627 0.520346 0.617886
H5 H -0.102076 0.606052 0.616883
C4 C 0.3465(6) 0.5605(3) 0.7714(5)
C5 C 0.4089(7) 0.5602(4) 0.8616(5)
H6 H 0.401793 0.518349 0.901332
C6 C 0.4823(8) 0.6217(5) 0.8943(6)
H7 H 0.525353 0.621094 0.955511
C7 C 0.4912(7) 0.6838(5) 0.8357(6)
H8 H 0.539466 0.725604 0.857959
C8 C 0.4299(7) 0.6847(4) 0.7450(6)
H9 H 0.437819 0.726548 0.705352
C9 C 0.3561(6) 0.6233(4) 0.7127(5)
H10 H 0.312919 0.624071 0.651522
C10 C 0.2287(6) 0.4218(3) 0.8320(4)
C11 C 0.2829(8) 0.3503(4) 0.8378(5)
H11 H 0.328847 0.332901 0.788240
C12 C 0.2698(10) 0.3046(5) 0.9159(7)
H12 H 0.304910 0.256043 0.918893
C13 C 0.2041(10) 0.3315(6) 0.9895(7)
H13 H 0.194485 0.300667 1.042411
C14 C 0.1532(8) 0.4021(6) 0.9865(6)
H14 H 0.110159 0.419562 1.037613
C15 C 0.1645(7) 0.4484(4) 0.9081(5)
H15 H 0.129518 0.496953 0.906220
C16 C 0.3234(6) 0.4286(4) 0.6438(5)
C17 C 0.2542(8) 0.3693(4) 0.5957(5)
H16 H 0.168291 0.361133 0.604812
C18 C 0.3165(10) 0.3238(5) 0.5350(6)
H17 H 0.273198 0.283175 0.504396
C19 C 0.4414(11) 0.3377(6) 0.5190(6)
H18 H 0.482062 0.306557 0.477345
C20 C 0.5063(9) 0.3960(6) 0.5630(7)
H19 H 0.590706 0.405785 0.550809
C21 C 0.4469(7) 0.4407(4) 0.6256(5)
H20 H 0.492398 0.480411 0.656567
C22 C 0.7612(14) 0.3750(7) 0.8072(9)
H21 H 0.705970 0.409719 0.767314
O1 O 0.8749(14) 0.3858(9) 0.7746(8)
H22 H 0.866311 0.411212 0.725237
C23 C 0.7014(14) 0.3006(9) 0.7844(14)
H23 H 0.688471 0.294487 0.715986
H24 H 0.620138 0.297901 0.811247
H25 H 0.756538 0.260988 0.811276
C24 C 0.748(2) 0.4034(13) 0.9050(12)
H26 H 0.757923 0.362055 0.949772
H27 H 0.664962 0.425935 0.907456
H28 H 0.813252 0.440820 0.921452
C25? C 0.8159(18) 0.3379(12) 0.8310(10)
H29? H 0.840345 0.285724 0.848602
C26? C 0.810(2) 0.3773(11) 0.9235(10)
H30? H 0.809225 0.431195 0.913163
H31? H 0.883436 0.363796 0.966196
H32? H 0.733068 0.362604 0.951482
O2? O 0.9071(14) 0.3617(11) 0.7781(9)
H33? H 0.902910 0.337905 0.727532
C27? C 0.6868(15) 0.331(2) 0.780(2)
H34? H 0.627923 0.312666 0.823572
H35? H 0.689465 0.296213 0.727461
H36? H 0.658821 0.379922 0.755886
loop_
_geom_bond_atom_site_label_1
_geom_bond_atom_site_label_2
_geom_bond_site_symmetry_1
_geom_bond_site_symmetry_2
Br2 C2 1_555 1_555
Br3 C3 1_555 1_555
P1 C1 1_555 1_555
C1 H1 1_555 1_555
H2 C1 1_555 1_555
C2 C1 1_555 1_555
H3 C2 1_555 1_555
C3 C2 1_555 1_555
H4 C3 1_555 1_555
H5 C3 1_555 1_555
C4 P1 1_555 1_555
C5 C4 1_555 1_555
H6 C5 1_555 1_555
C6 C5 1_555 1_555
H7 C6 1_555 1_555
C7 C6 1_555 1_555
H8 C7 1_555 1_555
C8 C7 1_555 1_555
H9 C8 1_555 1_555
C9 C4 1_555 1_555
H10 C9 1_555 1_555
C10 P1 1_555 1_555
C11 C10 1_555 1_555
H11 C11 1_555 1_555
C12 C11 1_555 1_555
H12 C12 1_555 1_555
C13 C12 1_555 1_555
H13 C13 1_555 1_555
C14 C13 1_555 1_555
H14 C14 1_555 1_555
C15 C10 1_555 1_555
H15 C15 1_555 1_555
C16 P1 1_555 1_555
C17 C16 1_555 1_555
H16 C17 1_555 1_555
C18 C17 1_555 1_555
H17 C18 1_555 1_555
C19 C18 1_555 1_555
H18 C19 1_555 1_555
C20 C19 1_555 1_555
H19 C20 1_555 1_555
C21 C16 1_555 1_555
H20 C21 1_555 1_555
C22 H21 1_555 1_555
O1 C22 1_555 1_555
H22 O1 1_555 1_555
C23 C22 1_555 1_555
H23 C23 1_555 1_555
H24 C23 1_555 1_555
H25 C23 1_555 1_555
C24 C22 1_555 1_555
H26 C24 1_555 1_555
H27 C24 1_555 1_555
H28 C24 1_555 1_555
C8 C9 1_555 1_555
C14 C15 1_555 1_555
C20 C21 1_555 1_555

#END
