
#######################################################################
#
#                 Cambridge Crystallographic Data Centre
#                                CCDC 
#
#######################################################################
#
# If this CIF has been generated from an entry in the Cambridge 
# Structural Database, then it will include bibliographic, chemical, 
# crystal, experimental, refinement or atomic coordinate data resulting 
# from the CCDC's data processing and validation procedures.
#
#######################################################################

data_DELHAG
_chemical_formula_moiety         'C23 H17 Cl1 N2 O3'
_chemical_name_systematic        
'[5-chloro-1-(pyridine-2-carbonyl)-1H-indol-3-yl](phenyl)methyl acetate'
_symmetry_cell_setting           monoclinic
_symmetry_space_group_name_H-M   'P 21/n'
_symmetry_Int_Tables_number      14
_space_group_name_Hall           '-P 2yn'
loop_
_symmetry_equiv_pos_site_id
_symmetry_equiv_pos_as_xyz
1 x,y,z
2 1/2-x,1/2+y,1/2-z
3 -x,-y,-z
4 1/2+x,1/2-y,1/2+z
_cell_length_a                   9.6917(10)
_cell_length_b                   7.5033(7)
_cell_length_c                   27.151(2)
_cell_angle_alpha                90
_cell_angle_beta                 93.018(8)
_cell_angle_gamma                90
_cell_volume                     1971.68
_exptl_crystal_colour            colorless
_cell_formula_units_Z            4
_exptl_crystal_recrystallization_method dichloromethane
loop_
_atom_site_label
_atom_site_type_symbol
_atom_site_fract_x
_atom_site_fract_y
_atom_site_fract_z
Cl1 Cl 0.90708(9) 0.79665(12) 0.51046(3)
O1 O 0.96831(19) 0.7362(3) 0.26040(7)
O2 O 0.36569(17) 0.9429(2) 0.31912(6)
O3 O 0.2832(3) 1.2037(3) 0.34279(10)
N1 N 0.7690(2) 0.7944(2) 0.29721(7)
N2 N 0.6485(2) 0.7344(3) 0.19621(8)
C1 C 0.8737(3) 0.7956(4) 0.44662(10)
C2 C 0.9798(3) 0.7546(4) 0.41610(11)
H1 H 1.0677 0.7305 0.4299
C3 C 0.9563(3) 0.7492(4) 0.36534(11)
H2 H 1.0267 0.7207 0.3447
C4 C 0.8240(3) 0.7877(3) 0.34639(9)
C5 C 0.6305(2) 0.8465(3) 0.29861(9)
H3 H 0.5710 0.8627 0.2710
C6 C 0.5953(2) 0.8701(3) 0.34567(8)
C7 C 0.7171(2) 0.8321(3) 0.37721(9)
C8 C 0.7420(3) 0.8344(3) 0.42839(9)
H4 H 0.6721 0.8612 0.4494
C9 C 0.8457(3) 0.7707(3) 0.25574(9)
C10 C 0.7782(3) 0.7896(3) 0.20519(9)
C11 C 0.8586(3) 0.8557(3) 0.16876(9)
H5 H 0.9493 0.8907 0.1763
C12 C 0.8031(3) 0.8691(4) 0.12123(11)
H6 H 0.8549 0.9154 0.0963
C13 C 0.6713(3) 0.8137(4) 0.11139(11)
H7 H 0.6313 0.8206 0.0795
C14 C 0.5976(3) 0.7468(4) 0.14931(11)
H8 H 0.5076 0.7082 0.1421
C15 C 0.4593(2) 0.9347(3) 0.36258(8)
H9 H 0.4714 1.0551 0.3761
C16 C 0.4020(2) 0.8154(3) 0.40170(8)
C17 C 0.3733(3) 0.6378(3) 0.39221(10)
H10 H 0.3822 0.5927 0.3606
C18 C 0.3313(3) 0.5265(4) 0.42921(11)
H11 H 0.3135 0.4069 0.4226
C19 C 0.3158(3) 0.5935(4) 0.47618(10)
H12 H 0.2889 0.5188 0.5013
C20 C 0.3404(3) 0.7698(4) 0.48539(10)
H13 H 0.3291 0.8153 0.5168
C21 C 0.3821(3) 0.8813(4) 0.44835(9)
H14 H 0.3969 1.0017 0.4549
C22 C 0.2843(3) 1.0868(4) 0.31342(11)
C23 C 0.2000(3) 1.0790(4) 0.26631(11)
H15 H 0.2589 1.0924 0.2392
H16 H 0.1330 1.1733 0.2655
H17 H 0.1534 0.9662 0.2637
loop_
_geom_bond_atom_site_label_1
_geom_bond_atom_site_label_2
_geom_bond_site_symmetry_1
_geom_bond_site_symmetry_2
Cl1 C1 1_555 1_555
O1 C9 1_555 1_555
O2 C15 1_555 1_555
O3 C22 1_555 1_555
N1 C4 1_555 1_555
N2 C10 1_555 1_555
C1 C2 1_555 1_555
C2 H1 1_555 1_555
C3 C2 1_555 1_555
H2 C3 1_555 1_555
C4 C3 1_555 1_555
C5 N1 1_555 1_555
H3 C5 1_555 1_555
C6 C5 1_555 1_555
C7 C4 1_555 1_555
C8 C1 1_555 1_555
H4 C8 1_555 1_555
C9 N1 1_555 1_555
C10 C9 1_555 1_555
C11 C10 1_555 1_555
H5 C11 1_555 1_555
C12 C11 1_555 1_555
H6 C12 1_555 1_555
C13 C12 1_555 1_555
H7 C13 1_555 1_555
C14 N2 1_555 1_555
H8 C14 1_555 1_555
C15 C6 1_555 1_555
H9 C15 1_555 1_555
C16 C15 1_555 1_555
C17 C16 1_555 1_555
H10 C17 1_555 1_555
C18 C17 1_555 1_555
H11 C18 1_555 1_555
C19 C18 1_555 1_555
H12 C19 1_555 1_555
C20 C19 1_555 1_555
H13 C20 1_555 1_555
C21 C16 1_555 1_555
H14 C21 1_555 1_555
C22 O2 1_555 1_555
C23 C22 1_555 1_555
H15 C23 1_555 1_555
H16 C23 1_555 1_555
H17 C23 1_555 1_555
C6 C7 1_555 1_555
C7 C8 1_555 1_555
C13 C14 1_555 1_555
C20 C21 1_555 1_555

#END
