
#######################################################################
#
#                 Cambridge Crystallographic Data Centre
#                                CCDC 
#
#######################################################################
#
# If this CIF has been generated from an entry in the Cambridge 
# Structural Database, then it will include bibliographic, chemical, 
# crystal, experimental, refinement or atomic coordinate data resulting 
# from the CCDC's data processing and validation procedures.
#
#######################################################################

data_DELMOZ
_chemical_formula_moiety         'C18 H20 O4'
_chemical_name_systematic        
'benzyl (R)-3-((S)-2,2-dimethyl-1,3-dioxolan-4-yl)-2-methylidenepent-4-ynoate'
_symmetry_cell_setting           monoclinic
_symmetry_space_group_name_H-M   'P 21'
_symmetry_Int_Tables_number      4
_space_group_name_Hall           'P 2yb'
loop_
_symmetry_equiv_pos_site_id
_symmetry_equiv_pos_as_xyz
1 x,y,z
2 -x,1/2+y,-z
_cell_length_a                   7.7010(2)
_cell_length_b                   5.65890(10)
_cell_length_c                   18.6740(4)
_cell_angle_alpha                90
_cell_angle_beta                 92.7030(10)
_cell_angle_gamma                90
_cell_volume                     812.892
_exptl_crystal_colour            colorless
_exptl_crystal_description       block
_cell_formula_units_Z            2
loop_
_atom_site_label
_atom_site_type_symbol
_atom_site_fract_x
_atom_site_fract_y
_atom_site_fract_z
C1 C 0.2976(4) 0.7406(6) 0.57313(16)
C2 C 0.3465(4) 0.9301(6) 0.5317(2)
H1 H 0.4101 1.0536 0.5527
C3 C 0.3011(5) 0.9367(7) 0.4591(2)
H2 H 0.3349 1.0636 0.4313
C4 C 0.2055(5) 0.7545(8) 0.42803(18)
H3 H 0.1746 0.7585 0.3793
C5 C 0.1554(5) 0.5650(7) 0.4695(2)
H4 H 0.0902 0.4427 0.4486
C6 C 0.2023(5) 0.5581(7) 0.5416(2)
H5 H 0.1696 0.4301 0.5692
C7 C 0.3465(5) 0.7299(9) 0.6521(2)
H6 H 0.4064 0.5826 0.6631
H7 H 0.4249 0.8590 0.6649
C8 C 0.1364(4) 0.9647(6) 0.70866(14)
C9 C -0.0361(4) 0.9601(6) 0.74194(14)
C10 C -0.1511(5) 0.7890(7) 0.7253(2)
H8 H -0.1239 0.6717 0.6928
H9 H -0.2583 0.7874 0.7463
C11 C -0.0710(4) 1.1665(5) 0.79011(17)
H10 H -0.0164 1.3068 0.7702
C12 C -0.2579(5) 1.2148(7) 0.7947(2)
C13 C -0.4091(5) 1.2405(10) 0.7974(3)
H11 H -0.5286 1.2608 0.7996
C14 C 0.0092(4) 1.1263(6) 0.86625(16)
H12 H 0.0034 1.2727 0.8940
C15 C -0.0689(5) 0.9235(8) 0.90786(18)
H13 H -0.1049 0.9778 0.9541
H14 H -0.1691 0.8580 0.8814
C16 C 0.2238(4) 0.8707(6) 0.91023(17)
C17 C 0.2949(8) 0.9660(12) 0.9808(2)
H15 H 0.2108 1.0692 1.0007
H16 H 0.3999 1.0524 0.9735
H17 H 0.3195 0.8374 1.0132
C18 C 0.3434(7) 0.6955(9) 0.8765(2)
H18 H 0.3617 0.5627 0.9079
H19 H 0.4528 0.7700 0.8686
H20 H 0.2916 0.6426 0.8315
O1 O 0.1923(4) 0.7463(5) 0.69381(13)
O2 O 0.2115(4) 1.1424(5) 0.69499(16)
O3 O 0.1868(3) 1.0572(4) 0.86065(12)
O4 O 0.0632(4) 0.7535(6) 0.91646(17)
loop_
_geom_bond_atom_site_label_1
_geom_bond_atom_site_label_2
_geom_bond_site_symmetry_1
_geom_bond_site_symmetry_2
C1 C2 1_555 1_555
C2 H1 1_555 1_555
C3 C2 1_555 1_555
H2 C3 1_555 1_555
C4 C3 1_555 1_555
H3 C4 1_555 1_555
C5 C4 1_555 1_555
H4 C5 1_555 1_555
C6 C1 1_555 1_555
H5 C6 1_555 1_555
C7 C1 1_555 1_555
H6 C7 1_555 1_555
H7 C7 1_555 1_555
C8 C9 1_555 1_555
C9 C10 1_555 1_555
C10 H8 1_555 1_555
H9 C10 1_555 1_555
C11 C9 1_555 1_555
H10 C11 1_555 1_555
C12 C11 1_555 1_555
C13 C12 1_555 1_555
H11 C13 1_555 1_555
C14 C11 1_555 1_555
H12 C14 1_555 1_555
C15 C14 1_555 1_555
H13 C15 1_555 1_555
H14 C15 1_555 1_555
C16 C17 1_555 1_555
C17 H15 1_555 1_555
H16 C17 1_555 1_555
H17 C17 1_555 1_555
C18 C16 1_555 1_555
H18 C18 1_555 1_555
H19 C18 1_555 1_555
H20 C18 1_555 1_555
O1 C7 1_555 1_555
O2 C8 1_555 1_555
O3 C14 1_555 1_555
O4 C15 1_555 1_555
C5 C6 1_555 1_555
C8 O1 1_555 1_555
C16 O3 1_555 1_555
C16 O4 1_555 1_555

#END
