
#######################################################################
#
#                 Cambridge Crystallographic Data Centre
#                                CCDC 
#
#######################################################################
#
# If this CIF has been generated from an entry in the Cambridge 
# Structural Database, then it will include bibliographic, chemical, 
# crystal, experimental, refinement or atomic coordinate data resulting 
# from the CCDC's data processing and validation procedures.
#
#######################################################################

data_DELYAV
_chemical_formula_moiety         'C14 H10 Cl1 N3 S2'
_chemical_name_systematic        
(Z)-2-(4-(2-Chlorophenyl)-1,3-dithiolan-2-ylidene)-2-(imidazol-1-yl)acetonitrile
_chemical_properties_biological  
'potent activity against a wide variety of pathogenic fungi, such as dermatophytes, candidiasis and trichophyton'
_symmetry_cell_setting           monoclinic
_symmetry_space_group_name_H-M   'P 21/c'
_symmetry_Int_Tables_number      14
_space_group_name_Hall           '-P 2ybc'
loop_
_symmetry_equiv_pos_site_id
_symmetry_equiv_pos_as_xyz
1 x,y,z
2 -x,1/2+y,1/2-z
3 -x,-y,-z
4 x,1/2-y,1/2+z
_cell_length_a                   5.7930(12)
_cell_length_b                   23.652(5)
_cell_length_c                   10.466(2)
_cell_angle_alpha                90
_cell_angle_beta                 91.66(3)
_cell_angle_gamma                90
_cell_volume                     1433.41
_exptl_crystal_colour            yellow
_exptl_crystal_description       block
_chemical_melting_point          '413-415 K'
_cell_formula_units_Z            4
_exptl_crystal_recrystallization_method 'dry ethanol'
loop_
_atom_site_label
_atom_site_type_symbol
_atom_site_fract_x
_atom_site_fract_y
_atom_site_fract_z
S1 S 0.26455(14) 0.38369(4) 0.96741(7)
S2 S 0.61329(15) 0.32007(4) 0.82799(7)
Cl1 Cl 0.25372(17) 0.52703(4) 0.90485(9)
N1 N 0.4611(6) 0.35573(13) 1.3995(2)
N2 N 0.4725(4) 0.32217(10) 1.2035(2)
N3 N 0.8660(6) 0.22986(13) 1.0764(3)
C1 C 0.2675(6) 0.30494(14) 1.2526(3)
H1 H 0.1535 0.2833 1.2118
C2 C 0.2649(7) 0.32581(16) 1.3719(3)
H2 H 0.1453 0.3206 1.4281
C3 C 0.5811(6) 0.35219(15) 1.2973(3)
H3 H 0.7260 0.3685 1.2893
C4 C 0.7296(6) 0.26464(13) 1.0784(3)
C5 C 0.5599(5) 0.30815(12) 1.0815(3)
C6 C 0.4868(5) 0.33435(12) 0.9729(3)
C7 C 0.3935(6) 0.35525(14) 0.7326(3)
H4 H 0.4528 0.3653 0.6499
H5 H 0.2612 0.3306 0.7192
C8 C 0.3244(5) 0.40770(12) 0.8039(2)
H6 H 0.4586 0.4329 0.8090
C9 C 0.1239(5) 0.44079(13) 0.7471(2)
C10 C -0.0214(6) 0.41904(14) 0.6509(3)
H7 H 0.0010 0.3821 0.6232
C11 C -0.1973(6) 0.45054(16) 0.5957(3)
H8 H -0.2899 0.4352 0.5304
C12 C -0.2358(6) 0.50470(16) 0.6370(3)
H9 H -0.3550 0.5260 0.6000
C13 C -0.0987(6) 0.52741(14) 0.7329(3)
H10 H -0.1258 0.5639 0.7619
C14 C 0.0790(5) 0.49591(13) 0.7861(3)
loop_
_geom_bond_atom_site_label_1
_geom_bond_atom_site_label_2
_geom_bond_site_symmetry_1
_geom_bond_site_symmetry_2
S1 C6 1_555 1_555
S2 C6 1_555 1_555
Cl1 C14 1_555 1_555
N1 C2 1_555 1_555
N2 C1 1_555 1_555
N3 C4 1_555 1_555
C1 H1 1_555 1_555
C2 C1 1_555 1_555
H2 C2 1_555 1_555
C3 N1 1_555 1_555
H3 C3 1_555 1_555
C4 C5 1_555 1_555
C5 N2 1_555 1_555
C6 C5 1_555 1_555
C7 S2 1_555 1_555
H4 C7 1_555 1_555
H5 C7 1_555 1_555
C8 S1 1_555 1_555
H6 C8 1_555 1_555
C9 C8 1_555 1_555
C10 C9 1_555 1_555
H7 C10 1_555 1_555
C11 C10 1_555 1_555
H8 C11 1_555 1_555
C12 C11 1_555 1_555
H9 C12 1_555 1_555
C13 C12 1_555 1_555
H10 C13 1_555 1_555
C14 C9 1_555 1_555
N2 C3 1_555 1_555
C7 C8 1_555 1_555
C13 C14 1_555 1_555

#END
