
#######################################################################
#
#                 Cambridge Crystallographic Data Centre
#                                CCDC 
#
#######################################################################
#
# If this CIF has been generated from an entry in the Cambridge 
# Structural Database, then it will include bibliographic, chemical, 
# crystal, experimental, refinement or atomic coordinate data resulting 
# from the CCDC's data processing and validation procedures.
#
#######################################################################

data_DEMHEJ
_chemical_formula_moiety         'C10 H8 O2,C3 H4 N2'
_chemical_name_systematic        'Naphthalene-2,7-diol imidazole'
_symmetry_cell_setting           monoclinic
_symmetry_space_group_name_H-M   'P 21/n'
_symmetry_Int_Tables_number      14
_space_group_name_Hall           '-P 2yn'
loop_
_symmetry_equiv_pos_site_id
_symmetry_equiv_pos_as_xyz
1 x,y,z
2 1/2-x,1/2+y,1/2-z
3 -x,-y,-z
4 1/2+x,1/2-y,1/2+z
_cell_length_a                   14.200(3)
_cell_length_b                   7.2927(18)
_cell_length_c                   22.375(5)
_cell_angle_alpha                90
_cell_angle_beta                 101.921(4)
_cell_angle_gamma                90
_cell_volume                     2267.1
_exptl_crystal_colour            colorless
_exptl_crystal_description       block
_cell_formula_units_Z            8
_exptl_crystal_recrystallization_method methanol
loop_
_atom_site_label
_atom_site_type_symbol
_atom_site_fract_x
_atom_site_fract_y
_atom_site_fract_z
C1 C 0.37731(12) 0.1329(2) 0.12892(8)
H1 H 0.3641 0.0791 0.0904
C2 C 0.47003(12) 0.1675(3) 0.15679(8)
C3 C 0.49205(13) 0.2418(3) 0.21598(9)
H2 H 0.5558 0.2614 0.2352
C4 C 0.41972(13) 0.2850(3) 0.24501(8)
H3 H 0.4349 0.3337 0.2842
C5 C 0.32257(13) 0.2578(2) 0.21706(8)
C6 C 0.24624(13) 0.3065(3) 0.24542(8)
H4 H 0.2599 0.3555 0.2846
C7 C 0.15323(13) 0.2830(3) 0.21649(8)
H5 H 0.1037 0.3179 0.2356
C8 C 0.13172(12) 0.2059(3) 0.15764(8)
C9 C 0.20299(12) 0.1517(2) 0.12930(8)
H6 H 0.1874 0.0972 0.0909
C10 C 0.30071(12) 0.1775(2) 0.15779(7)
O1 O 0.54141(9) 0.1294(2) 0.12568(6)
O2 O 0.03618(9) 0.1905(2) 0.13123(7)
H20 H 0.0277(15) 0.186(3) 0.0881(11)
H21 H 0.5979(17) 0.173(3) 0.1468(11)
C11 C 0.78271(14) 0.3128(3) 0.15223(9)
H7 H 0.7670 0.3747 0.1152
C12 C 0.86563(18) 0.1907(4) 0.23416(12)
H8 H 0.9166 0.1507 0.2644
C13 C 0.77289(17) 0.1653(3) 0.23196(10)
H9 H 0.7474 0.1047 0.2616
N1 N 0.72008(11) 0.2405(2) 0.18031(7)
N2 N 0.87125(14) 0.2869(3) 0.18323(10)
H24 H 0.926(2) 0.316(4) 0.1706(14)
C14 C 0.34237(12) 0.7963(3) -0.00383(8)
H10 H 0.3318 0.8557 -0.0414
C15 C 0.43325(13) 0.7467(3) 0.02371(9)
C16 C 0.45165(14) 0.6627(3) 0.08158(9)
H11 H 0.5142 0.6308 0.1003
C17 C 0.37802(13) 0.6285(3) 0.10998(8)
H12 H 0.3909 0.5750 0.1485
C18 C 0.28217(12) 0.6723(2) 0.08228(8)
C19 C 0.20379(13) 0.6278(3) 0.10900(8)
H13 H 0.2152 0.5735 0.1474
C20 C 0.11189(14) 0.6625(3) 0.07983(8)
H14 H 0.0610 0.6293 0.0979
C21 C 0.09340(13) 0.7484(3) 0.02231(8)
C22 C 0.16773(12) 0.7976(3) -0.00442(8)
H15 H 0.1549 0.8577 -0.0419
C23 C 0.26389(12) 0.7586(2) 0.02407(8)
O3 O 0.51086(10) 0.7748(2) -0.00273(7)
O4 O 0.00167(10) 0.7817(2) -0.00777(7)
H19 H 0.4921(18) 0.817(4) -0.0412(13)
H22 H -0.0428(19) 0.758(4) 0.0172(12)
C24 C 0.77897(14) 0.6931(3) 0.02300(9)
H16 H 0.7686 0.6440 -0.0162
C25 C 0.84556(16) 0.7996(3) 0.10868(10)
H17 H 0.8928 0.8384 0.1415
C26 C 0.75159(17) 0.8052(3) 0.10674(10)
H18 H 0.7210 0.8485 0.1369
N3 N 0.70960(13) 0.7350(3) 0.05198(9)
N4 N 0.86267(12) 0.7288(2) 0.05575(8)
H23 H 0.6492(18) 0.733(3) 0.0374(11)
loop_
_geom_bond_atom_site_label_1
_geom_bond_atom_site_label_2
_geom_bond_site_symmetry_1
_geom_bond_site_symmetry_2
C1 H1 1_555 1_555
C2 C1 1_555 1_555
C3 C2 1_555 1_555
H2 C3 1_555 1_555
C4 C3 1_555 1_555
H3 C4 1_555 1_555
C5 C4 1_555 1_555
C6 C5 1_555 1_555
H4 C6 1_555 1_555
C7 C6 1_555 1_555
H5 C7 1_555 1_555
C8 C7 1_555 1_555
C9 C8 1_555 1_555
H6 C9 1_555 1_555
C10 C1 1_555 1_555
C11 H7 1_555 1_555
C12 H8 1_555 1_555
C13 C12 1_555 1_555
H9 C13 1_555 1_555
C14 H10 1_555 1_555
C15 C14 1_555 1_555
C16 C15 1_555 1_555
H11 C16 1_555 1_555
C17 C16 1_555 1_555
H12 C17 1_555 1_555
C18 C17 1_555 1_555
C19 C18 1_555 1_555
H13 C19 1_555 1_555
C20 C19 1_555 1_555
H14 C20 1_555 1_555
C21 C20 1_555 1_555
C22 C21 1_555 1_555
H15 C22 1_555 1_555
C23 C14 1_555 1_555
C24 H16 1_555 1_555
C25 H17 1_555 1_555
C26 C25 1_555 1_555
H18 C26 1_555 1_555
O1 C2 1_555 1_555
O2 C8 1_555 1_555
O3 C15 1_555 1_555
O4 C21 1_555 1_555
N1 C11 1_555 1_555
N2 C11 1_555 1_555
N3 C24 1_555 1_555
N4 C24 1_555 1_555
H19 O3 1_555 1_555
H20 O2 1_555 1_555
H21 O1 1_555 1_555
H22 O4 1_555 1_555
H23 N3 1_555 1_555
H24 N2 1_555 1_555
C5 C10 1_555 1_555
C9 C10 1_555 1_555
C12 N2 1_555 1_555
C13 N1 1_555 1_555
C18 C23 1_555 1_555
C22 C23 1_555 1_555
C25 N4 1_555 1_555
C26 N3 1_555 1_555

#END
