
#######################################################################
#
#                 Cambridge Crystallographic Data Centre
#                                CCDC 
#
#######################################################################
#
# If this CIF has been generated from an entry in the Cambridge 
# Structural Database, then it will include bibliographic, chemical, 
# crystal, experimental, refinement or atomic coordinate data resulting 
# from the CCDC's data processing and validation procedures.
#
#######################################################################

data_DEMYEZ04
_chemical_formula_moiety         'C24 H20 P1 1+,Br1 1-'
_chemical_name_systematic        'tetraphenylphosphonium bromide'
_symmetry_cell_setting           triclinic
_symmetry_space_group_name_H-M   'P -1'
_symmetry_Int_Tables_number      2
_space_group_name_Hall           '-P 1'
loop_
_symmetry_equiv_pos_site_id
_symmetry_equiv_pos_as_xyz
1 x,y,z
2 -x,-y,-z
_cell_length_a                   9.3990(10)
_cell_length_b                   10.2957(11)
_cell_length_c                   11.2412(12)
_cell_angle_alpha                75.769(2)
_cell_angle_beta                 71.972(2)
_cell_angle_gamma                78.4950(10)
_cell_volume                     993.632
_exptl_crystal_colour            colorless
_exptl_crystal_description       block
_cell_formula_units_Z            2
loop_
_atom_site_label
_atom_site_type_symbol
_atom_site_fract_x
_atom_site_fract_y
_atom_site_fract_z
P1 P 0.06229(6) 0.16041(6) 0.70030(6)
C1 C 0.1954(2) 0.0097(2) 0.6888(2)
C2 C 0.2398(3) -0.0459(3) 0.5800(3)
C3 C 0.3305(3) -0.1697(3) 0.5794(3)
C4 C 0.3764(3) -0.2380(3) 0.6861(3)
C5 C 0.3345(3) -0.1830(3) 0.7944(3)
C6 C 0.2451(3) -0.0581(3) 0.7958(3)
C7 C -0.1252(3) 0.1150(2) 0.7651(2)
C8 C -0.2449(3) 0.2084(3) 0.8147(3)
C9 C -0.3912(3) 0.1782(3) 0.8549(3)
C10 C -0.4184(3) 0.0557(4) 0.8435(3)
C11 C -0.3011(3) -0.0385(3) 0.7957(3)
C12 C -0.1540(3) -0.0095(3) 0.7569(3)
C13 C 0.0737(3) 0.2625(2) 0.5439(2)
C14 C 0.2124(3) 0.2919(3) 0.4587(3)
C15 C 0.2176(3) 0.3707(3) 0.3394(3)
C16 C 0.0860(3) 0.4195(3) 0.3034(3)
C17 C -0.0509(3) 0.3913(3) 0.3866(3)
C18 C -0.0583(3) 0.3131(3) 0.5069(3)
C19 C 0.1019(2) 0.2465(2) 0.8042(2)
C20 C 0.0190(3) 0.2364(3) 0.9315(2)
C21 C 0.0568(3) 0.3002(3) 1.0105(3)
C22 C 0.1796(3) 0.3719(3) 0.9635(3)
C23 C 0.2619(3) 0.3816(3) 0.8382(3)
C24 C 0.2250(3) 0.3195(2) 0.7577(3)
H1 H 0.207(3) 0.000(3) 0.510(3)
H2 H 0.350(3) -0.206(3) 0.508(3)
H3 H 0.438(3) -0.327(3) 0.684(3)
H4 H 0.364(3) -0.224(3) 0.872(3)
H5 H 0.220(3) -0.018(2) 0.865(2)
H6 H -0.231(3) 0.297(3) 0.821(2)
H7 H -0.472(3) 0.247(3) 0.886(3)
H8 H -0.509(4) 0.036(3) 0.866(3)
H9 H -0.319(3) -0.123(3) 0.787(3)
H10 H -0.072(3) -0.075(3) 0.723(3)
H11 H 0.302(3) 0.258(3) 0.482(3)
H12 H 0.306(3) 0.393(3) 0.288(3)
H13 H 0.094(3) 0.474(3) 0.221(3)
H14 H -0.134(3) 0.423(3) 0.362(3)
H15 H -0.152(3) 0.296(3) 0.564(3)
H16 H -0.070(3) 0.187(3) 0.963(3)
H17 H -0.002(3) 0.295(3) 1.095(3)
H18 H 0.209(3) 0.419(2) 1.018(3)
H19 H 0.348(3) 0.428(2) 0.808(2)
H20 H 0.274(3) 0.328(2) 0.676(3)
Br1 Br 0.5000 0.5000 0.5000
Br2 Br 0.5000 0.5000 0.0000
loop_
_geom_bond_atom_site_label_1
_geom_bond_atom_site_label_2
_geom_bond_site_symmetry_1
_geom_bond_site_symmetry_2
P1 C1 1_555 1_555
C1 C2 1_555 1_555
C2 C3 1_555 1_555
C3 C4 1_555 1_555
C4 C5 1_555 1_555
C5 C6 1_555 1_555
C6 C1 1_555 1_555
C7 P1 1_555 1_555
C8 C7 1_555 1_555
C9 C8 1_555 1_555
C10 C9 1_555 1_555
C11 C10 1_555 1_555
C12 C7 1_555 1_555
C13 P1 1_555 1_555
C14 C13 1_555 1_555
C15 C14 1_555 1_555
C16 C15 1_555 1_555
C17 C16 1_555 1_555
C18 C13 1_555 1_555
C19 P1 1_555 1_555
C20 C19 1_555 1_555
C21 C20 1_555 1_555
C22 C21 1_555 1_555
C23 C22 1_555 1_555
C24 C19 1_555 1_555
H1 C2 1_555 1_555
H2 C3 1_555 1_555
H3 C4 1_555 1_555
H4 C5 1_555 1_555
H5 C6 1_555 1_555
H6 C8 1_555 1_555
H7 C9 1_555 1_555
H8 C10 1_555 1_555
H9 C11 1_555 1_555
H10 C12 1_555 1_555
H11 C14 1_555 1_555
H12 C15 1_555 1_555
H13 C16 1_555 1_555
H14 C17 1_555 1_555
H15 C18 1_555 1_555
H16 C20 1_555 1_555
H17 C21 1_555 1_555
H18 C22 1_555 1_555
H19 C23 1_555 1_555
H20 C24 1_555 1_555
C11 C12 1_555 1_555
C17 C18 1_555 1_555
C23 C24 1_555 1_555

#END
