
#######################################################################
#
#                 Cambridge Crystallographic Data Centre
#                                CCDC 
#
#######################################################################
#
# If this CIF has been generated from an entry in the Cambridge 
# Structural Database, then it will include bibliographic, chemical, 
# crystal, experimental, refinement or atomic coordinate data resulting 
# from the CCDC's data processing and validation procedures.
#
#######################################################################

data_DENPOE
_chemical_formula_moiety         'C16 H30 N2 O2'
_chemical_name_systematic        N^1^,N^4^-dihexylbut-2-enediamide
_symmetry_cell_setting           triclinic
_symmetry_space_group_name_H-M   'P -1'
_symmetry_Int_Tables_number      2
_space_group_name_Hall           '-P 1'
loop_
_symmetry_equiv_pos_site_id
_symmetry_equiv_pos_as_xyz
1 x,y,z
2 -x,-y,-z
_cell_length_a                   4.8725(17)
_cell_length_b                   5.548(3)
_cell_length_c                   16.422(6)
_cell_angle_alpha                85.972(12)
_cell_angle_beta                 89.944(8)
_cell_angle_gamma                64.398(8)
_cell_volume                     399.142
_exptl_crystal_colour            yellow
_exptl_crystal_description       Rod
_cell_formula_units_Z            1
loop_
_atom_site_label
_atom_site_type_symbol
_atom_site_fract_x
_atom_site_fract_y
_atom_site_fract_z
O1 O 0.4542(2) 1.2093(2) 0.91927(7)
N1 N 0.0939(3) 1.0725(3) 0.88883(8)
H1 H -0.0897 1.0936 0.8960
C1 C 0.1322(4) 0.1589(4) 0.56759(11)
H2 H 0.0413 0.0727 0.6038
H3 H 0.2672 0.0313 0.5324
H4 H -0.0245 0.3036 0.5352
C2 C 0.3101(3) 0.2680(3) 0.61718(10)
H5 H 0.4715 0.1201 0.6485
H6 H 0.4044 0.3517 0.5801
C3 C 0.1141(3) 0.4709(3) 0.67503(10)
H7 H 0.0153 0.3886 0.7110
H8 H -0.0438 0.6211 0.6435
C4 C 0.2933(3) 0.5750(3) 0.72657(10)
H9 H 0.4490 0.4251 0.7588
H10 H 0.3948 0.6546 0.6906
C5 C 0.0968(3) 0.7810(3) 0.78338(9)
H11 H -0.0559 0.9337 0.7514
H12 H -0.0080 0.7034 0.8190
C6 C 0.2841(3) 0.8747(3) 0.83477(10)
H13 H 0.4362 0.7222 0.8670
H14 H 0.3892 0.9520 0.7993
C7 C 0.1963(3) 1.2230(3) 0.92780(9)
C8 C -0.0294(3) 1.4127(3) 0.98081(9)
H15 H -0.2170 1.4085 0.9872
O1A O -0.4542(2) 1.7907(2) 1.08073(7)
N1A N -0.0939(3) 1.9275(3) 1.11117(8)
H1A H 0.0897 1.9064 1.1040
C1A C -0.1322(4) 2.8411(4) 1.43241(11)
H2A H -0.0413 2.9273 1.3962
H3A H -0.2672 2.9687 1.4676
H4A H 0.0245 2.6964 1.4648
C2A C -0.3101(3) 2.7320(3) 1.38282(10)
H5A H -0.4715 2.8799 1.3515
H6A H -0.4044 2.6483 1.4199
C3A C -0.1141(3) 2.5291(3) 1.32497(10)
H7A H -0.0153 2.6114 1.2890
H8A H 0.0438 2.3789 1.3565
C4A C -0.2933(3) 2.4250(3) 1.27343(10)
H9A H -0.4490 2.5749 1.2412
H10A H -0.3948 2.3454 1.3094
C5A C -0.0968(3) 2.2190(3) 1.21662(9)
H11A H 0.0559 2.0663 1.2486
H12A H 0.0080 2.2966 1.1810
C6A C -0.2841(3) 2.1253(3) 1.16523(10)
H13A H -0.4362 2.2778 1.1330
H14A H -0.3892 2.0480 1.2007
C7A C -0.1963(3) 1.7770(3) 1.07220(9)
C8A C 0.0294(3) 1.5873(3) 1.01919(9)
H15A H 0.2170 1.5915 1.0128
loop_
_geom_bond_atom_site_label_1
_geom_bond_atom_site_label_2
_geom_bond_site_symmetry_1
_geom_bond_site_symmetry_2
O1 C7 1_555 1_555
N1 H1 1_555 1_555
C1 H2 1_555 1_555
H3 C1 1_555 1_555
H4 C1 1_555 1_555
C2 C1 1_555 1_555
H5 C2 1_555 1_555
H6 C2 1_555 1_555
C3 C2 1_555 1_555
H7 C3 1_555 1_555
H8 C3 1_555 1_555
C4 C3 1_555 1_555
H9 C4 1_555 1_555
H10 C4 1_555 1_555
C5 C4 1_555 1_555
H11 C5 1_555 1_555
H12 C5 1_555 1_555
C6 N1 1_555 1_555
H13 C6 1_555 1_555
H14 C6 1_555 1_555
C7 N1 1_555 1_555
C8 C7 1_555 1_555
H15 C8 1_555 1_555
O1A C7A 1_555 1_555
N1A H1A 1_555 1_555
C1A H2A 1_555 1_555
H3A C1A 1_555 1_555
H4A C1A 1_555 1_555
C2A C1A 1_555 1_555
H5A C2A 1_555 1_555
H6A C2A 1_555 1_555
C3A C2A 1_555 1_555
H7A C3A 1_555 1_555
H8A C3A 1_555 1_555
C4A C3A 1_555 1_555
H9A C4A 1_555 1_555
H10A C4A 1_555 1_555
C5A C4A 1_555 1_555
H11A C5A 1_555 1_555
H12A C5A 1_555 1_555
C6A N1A 1_555 1_555
H13A C6A 1_555 1_555
H14A C6A 1_555 1_555
C7A N1A 1_555 1_555
C8A C8 1_555 1_555
H15A C8A 1_555 1_555
C5 C6 1_555 1_555
C5A C6A 1_555 1_555
C7A C8A 1_555 1_555

#END
