
#######################################################################
#
#                 Cambridge Crystallographic Data Centre
#                                CCDC 
#
#######################################################################
#
# If this CIF has been generated from an entry in the Cambridge 
# Structural Database, then it will include bibliographic, chemical, 
# crystal, experimental, refinement or atomic coordinate data resulting 
# from the CCDC's data processing and validation procedures.
#
#######################################################################

data_DENSUN
_chemical_formula_moiety         'C14 H16 O4'
_chemical_name_systematic        
6-methoxy-5,5a,6,8,8a,9-hexahydro-2H-furo[3',4':6,7]naphtho[2,3-d][1,3]dioxole
_symmetry_cell_setting           monoclinic
_symmetry_space_group_name_H-M   'P 21/n'
_symmetry_Int_Tables_number      14
_space_group_name_Hall           '-P 2yn'
loop_
_symmetry_equiv_pos_site_id
_symmetry_equiv_pos_as_xyz
1 x,y,z
2 1/2-x,1/2+y,1/2-z
3 -x,-y,-z
4 1/2+x,1/2-y,1/2+z
_cell_length_a                   5.0801(7)
_cell_length_b                   17.337(3)
_cell_length_c                   13.987(2)
_cell_angle_alpha                90
_cell_angle_beta                 95.513(14)
_cell_angle_gamma                90
_cell_volume                     1226.19
_exptl_crystal_colour            'light colorless'
_exptl_crystal_description       plate
_cell_formula_units_Z            4
loop_
_atom_site_label
_atom_site_type_symbol
_atom_site_fract_x
_atom_site_fract_y
_atom_site_fract_z
C1 C -0.0115(4) 0.48321(13) 0.72355(16)
C2 C 0.0025(4) 0.51771(13) 0.81421(16)
O1 O 0.5100(4) 0.38768(12) 0.93410(13)
C3 C 0.1475(4) 0.41878(14) 0.70760(17)
H1 H 0.1394 0.3954 0.6475
O2 O -0.6114(4) 0.68811(14) 0.64879(14)
C4 C -0.2716(4) 0.59608(13) 0.65708(17)
H2 H -0.1133 0.6282 0.6559
O3 O 0.4879(4) 0.33088(11) 0.78388(14)
O4 O -0.3864(4) 0.66842(11) 0.51475(14)
C5 C -0.3709(4) 0.60457(14) 0.75500(17)
H3 H -0.5122 0.5668 0.7605
C6 C -0.1548(5) 0.58978(14) 0.83425(17)
H4 H -0.2321 0.5835 0.8945
H5 H -0.0369 0.6339 0.8404
C7 C 0.1770(4) 0.48857(14) 0.88980(16)
H6 H 0.1896 0.5114 0.9502
C8 C 0.3143(4) 0.39143(13) 0.78272(18)
C9 C 0.3279(4) 0.42570(14) 0.87213(17)
C10 C -0.4940(5) 0.68435(17) 0.74607(19)
H7 H -0.6269 0.6906 0.7908
H8 H -0.3605 0.7240 0.7584
C11 C -0.1929(5) 0.51366(14) 0.63991(17)
H9 H -0.1037 0.5109 0.5817
H10 H -0.3501 0.4817 0.6310
C12 C -0.4886(5) 0.63270(16) 0.59179(19)
H11 H -0.6178 0.5935 0.5683
C13 C 0.6170(6) 0.32927(18) 0.8784(2)
H12 H 0.5924 0.2792 0.9073
H13 H 0.8051 0.3377 0.8764
C14 C -0.5859(8) 0.7042(2) 0.4502(2)
H14 H -0.5085 0.7221 0.3943
H15 H -0.6606 0.7470 0.4816
H16 H -0.7222 0.6674 0.4314
loop_
_geom_bond_atom_site_label_1
_geom_bond_atom_site_label_2
_geom_bond_site_symmetry_1
_geom_bond_site_symmetry_2
C1 C2 1_555 1_555
C2 C6 1_555 1_555
O1 C9 1_555 1_555
C3 C1 1_555 1_555
H1 C3 1_555 1_555
O2 C10 1_555 1_555
C4 H2 1_555 1_555
O3 C8 1_555 1_555
O4 C12 1_555 1_555
C5 C4 1_555 1_555
H3 C5 1_555 1_555
C6 C5 1_555 1_555
H4 C6 1_555 1_555
H5 C6 1_555 1_555
C7 C2 1_555 1_555
H6 C7 1_555 1_555
C8 C3 1_555 1_555
C9 C7 1_555 1_555
C10 C5 1_555 1_555
H7 C10 1_555 1_555
H8 C10 1_555 1_555
C11 C1 1_555 1_555
H9 C11 1_555 1_555
H10 C11 1_555 1_555
C12 O2 1_555 1_555
H11 C12 1_555 1_555
C13 O1 1_555 1_555
H12 C13 1_555 1_555
H13 C13 1_555 1_555
C14 O4 1_555 1_555
H14 C14 1_555 1_555
H15 C14 1_555 1_555
H16 C14 1_555 1_555
C4 C11 1_555 1_555
C4 C12 1_555 1_555
O3 C13 1_555 1_555
C8 C9 1_555 1_555

#END
