
#######################################################################
#
#                 Cambridge Crystallographic Data Centre
#                                CCDC 
#
#######################################################################
#
# If this CIF has been generated from an entry in the Cambridge 
# Structural Database, then it will include bibliographic, chemical, 
# crystal, experimental, refinement or atomic coordinate data resulting 
# from the CCDC's data processing and validation procedures.
#
#######################################################################

data_DENTEY
_chemical_formula_moiety         'C20 H20 O4'
_chemical_name_systematic        
8-methoxy-5-phenyl-5,5a,6,8,8a,9-hexahydro-2H-furo[3',4':6,7]naphtho[2,3-d][1,3]dioxole
_symmetry_cell_setting           triclinic
_symmetry_space_group_name_H-M   'P -1'
_symmetry_Int_Tables_number      2
_space_group_name_Hall           '-P 1'
loop_
_symmetry_equiv_pos_site_id
_symmetry_equiv_pos_as_xyz
1 x,y,z
2 -x,-y,-z
_cell_length_a                   6.4202(14)
_cell_length_b                   8.678(2)
_cell_length_c                   15.259(4)
_cell_angle_alpha                77.58(2)
_cell_angle_beta                 82.191(19)
_cell_angle_gamma                85.69(2)
_cell_volume                     821.625
_exptl_crystal_colour            'light colorless'
_exptl_crystal_description       block
_cell_formula_units_Z            2
loop_
_atom_site_label
_atom_site_type_symbol
_atom_site_fract_x
_atom_site_fract_y
_atom_site_fract_z
O1 O 1.2102(4) 0.6343(3) -0.33105(16)
O2 O 1.1434(3) 0.8010(2) -0.22952(16)
O3 O 0.3418(3) 0.1599(2) 0.08346(14)
O4 O 0.1979(3) 0.1053(2) -0.03757(15)
C1 C 1.1580(5) 0.6447(4) -0.2391(2)
H1 H 1.2648 0.5854 -0.2033
C2 C 0.9473(4) 0.5708(3) -0.20762(19)
H2 H 0.8360 0.6540 -0.2179
C3 C 0.9058(4) 0.4795(3) -0.11150(19)
H3 H 0.8813 0.5528 -0.0709
H4 H 1.0288 0.4122 -0.0962
C4 C 0.7160(4) 0.3785(3) -0.0987(2)
C5 C 0.6263(4) 0.3185(3) -0.00963(19)
H5 H 0.6825 0.3397 0.0393
C6 C 0.4548(4) 0.2283(3) 0.00336(19)
C7 C 0.1779(5) 0.0804(4) 0.0596(2)
H6 H 0.0417 0.1220 0.0825
H7 H 0.1897 -0.0316 0.0858
C8 C 0.3706(4) 0.1953(3) -0.0684(2)
C9 C 0.4542(4) 0.2510(3) -0.1555(2)
H8 H 0.3955 0.2280 -0.2034
C10 C 0.6321(4) 0.3443(3) -0.17157(19)
C11 C 0.7207(4) 0.4084(3) -0.27015(18)
H9 H 0.6323 0.5018 -0.2927
C12 C 0.9413(4) 0.4635(4) -0.2732(2)
H10 H 1.0348 0.3704 -0.2560
C13 C 1.0427(5) 0.5640(4) -0.3601(2)
H11 H 1.0972 0.4997 -0.4035
H12 H 0.9432 0.6441 -0.3869
C14 C 1.3385(5) 0.8780(4) -0.2558(3)
H13 H 1.3636 0.9071 -0.3206
H14 H 1.4510 0.8075 -0.2336
H15 H 1.3317 0.9711 -0.2309
C15 C 0.7145(4) 0.2931(3) -0.3316(2)
C16 C 0.8314(5) 0.1517(4) -0.3198(2)
H16 H 0.9105 0.1243 -0.2715
C17 C 0.8331(6) 0.0496(4) -0.3785(3)
H17 H 0.9136 -0.0448 -0.3696
C18 C 0.7164(6) 0.0876(5) -0.4493(3)
H18 H 0.7194 0.0203 -0.4894
C19 C 0.5952(6) 0.2255(5) -0.4610(2)
H19 H 0.5127 0.2505 -0.5081
C20 C 0.5952(5) 0.3282(4) -0.4025(2)
H20 H 0.5135 0.4221 -0.4114
loop_
_geom_bond_atom_site_label_1
_geom_bond_atom_site_label_2
_geom_bond_site_symmetry_1
_geom_bond_site_symmetry_2
O1 C1 1_555 1_555
O2 C1 1_555 1_555
O3 C6 1_555 1_555
O4 C7 1_555 1_555
C1 H1 1_555 1_555
C2 C1 1_555 1_555
H2 C2 1_555 1_555
C3 C2 1_555 1_555
H3 C3 1_555 1_555
H4 C3 1_555 1_555
C4 C3 1_555 1_555
C5 C4 1_555 1_555
H5 C5 1_555 1_555
C6 C5 1_555 1_555
C7 O3 1_555 1_555
H6 C7 1_555 1_555
H7 C7 1_555 1_555
C8 O4 1_555 1_555
C9 C8 1_555 1_555
H8 C9 1_555 1_555
C10 C4 1_555 1_555
C11 C10 1_555 1_555
H9 C11 1_555 1_555
C12 C2 1_555 1_555
H10 C12 1_555 1_555
C13 O1 1_555 1_555
H11 C13 1_555 1_555
H12 C13 1_555 1_555
C14 O2 1_555 1_555
H13 C14 1_555 1_555
H14 C14 1_555 1_555
H15 C14 1_555 1_555
C15 C11 1_555 1_555
C16 C15 1_555 1_555
H16 C16 1_555 1_555
C17 C16 1_555 1_555
H17 C17 1_555 1_555
C18 C17 1_555 1_555
H18 C18 1_555 1_555
C19 C18 1_555 1_555
H19 C19 1_555 1_555
C20 C15 1_555 1_555
H20 C20 1_555 1_555
C6 C8 1_555 1_555
C9 C10 1_555 1_555
C11 C12 1_555 1_555
C12 C13 1_555 1_555
C19 C20 1_555 1_555

#END
