
#######################################################################
#
#                 Cambridge Crystallographic Data Centre
#                                CCDC 
#
#######################################################################
#
# If this CIF has been generated from an entry in the Cambridge 
# Structural Database, then it will include bibliographic, chemical, 
# crystal, experimental, refinement or atomic coordinate data resulting 
# from the CCDC's data processing and validation procedures.
#
#######################################################################

data_DEPKER
_chemical_formula_moiety         'C26 H18 Cl1 N1 O3 S1'
_chemical_name_systematic        
"methyl 2-chloro-6-phenyl-6,13-dihydro[1]benzopyrano[4',3':4,5]pyrrolo[2,1-c][1,4]benzothiazine-14-carboxylate"
_symmetry_cell_setting           monoclinic
_symmetry_space_group_name_H-M   'P 21/c'
_symmetry_Int_Tables_number      14
_space_group_name_Hall           '-P 2ybc'
loop_
_symmetry_equiv_pos_site_id
_symmetry_equiv_pos_as_xyz
1 x,y,z
2 -x,1/2+y,1/2-z
3 -x,-y,-z
4 x,1/2-y,1/2+z
_cell_length_a                   20.382(3)
_cell_length_b                   6.2966(8)
_cell_length_c                   18.978(2)
_cell_angle_alpha                90
_cell_angle_beta                 116.043(4)
_cell_angle_gamma                90
_cell_volume                     2188.29
_exptl_crystal_colour            colorless
_exptl_crystal_description       block
_cell_formula_units_Z            4
loop_
_atom_site_label
_atom_site_type_symbol
_atom_site_fract_x
_atom_site_fract_y
_atom_site_fract_z
C1 C 0.15776(12) 0.2856(4) 0.19788(12)
C2 C 0.20676(14) 0.1670(5) 0.26052(14)
H1 H 0.2562 0.1692 0.2728
C3 C 0.18218(16) 0.0459(5) 0.30462(15)
H2 H 0.2150 -0.0370 0.3454
C4 C 0.10931(16) 0.0468(5) 0.28867(16)
H3 H 0.0930 -0.0369 0.3182
C5 C 0.06090(14) 0.1714(5) 0.22929(15)
H4 H 0.0121 0.1750 0.2199
C6 C 0.08386(13) 0.2923(4) 0.18284(13)
C7 C 0.08278(14) 0.6669(4) 0.11621(16)
H5 H 0.0580 0.7726 0.0760
H6 H 0.0987 0.7343 0.1670
C8 C 0.14695(13) 0.5825(4) 0.10766(13)
C9 C 0.17968(12) 0.6427(4) 0.06051(12)
C10 C 0.15369(16) 0.8169(5) 0.00495(16)
C11 C 0.1448(4) 1.0195(10) -0.1009(3)
H7 H 0.0944 1.0535 -0.1166
H8 H 0.1534 1.0064 -0.1466
H9 H 0.1750 1.1304 -0.0678
C12 C 0.40602(15) 0.0199(5) 0.24567(17)
H10 H 0.3920 -0.1104 0.2203
C13 C 0.47470(16) 0.0421(6) 0.30777(19)
H11 H 0.5068 -0.0724 0.3236
C14 C 0.49520(15) 0.2330(6) 0.34583(16)
H12 H 0.5412 0.2479 0.3877
C15 C 0.44831(15) 0.4011(5) 0.32245(16)
H13 H 0.4624 0.5305 0.3484
C16 C 0.37941(14) 0.3800(4) 0.25990(15)
H14 H 0.3476 0.4950 0.2443
C17 C 0.35824(12) 0.1892(4) 0.22106(13)
C18 C 0.28443(13) 0.1573(4) 0.15060(13)
H15 H 0.2587 0.0421 0.1627
C19 C 0.23574(12) 0.3477(4) 0.12639(13)
C20 C 0.23604(12) 0.4908(4) 0.07295(12)
C21 C 0.28906(12) 0.4573(4) 0.04010(12)
C22 C 0.31055(13) 0.6083(4) 0.00116(13)
H16 H 0.2935 0.7472 -0.0038
C23 C 0.35781(15) 0.5496(5) -0.03037(15)
C24 C 0.38593(17) 0.3491(5) -0.02213(18)
H17 H 0.4176 0.3138 -0.0436
C25 C 0.36663(16) 0.2009(5) 0.01841(17)
H18 H 0.3860 0.0646 0.0254
C26 C 0.31823(13) 0.2538(4) 0.04908(14)
Cl1 Cl 0.38109(6) 0.73804(16) -0.08305(6)
N1 N 0.18106(10) 0.4013(3) 0.14822(10)
O1 O 0.16304(10) 0.8126(3) -0.05643(10)
O2 O 0.12146(11) 0.9704(3) 0.02018(11)
O3 O 0.29672(10) 0.0935(3) 0.08378(10)
S1 S 0.02059(3) 0.45092(12) 0.10703(4)
C27? C 0.0980(3) 1.1271(9) -0.0379(4)
H19? H 0.1374 1.1650 -0.0502
H20? H 0.0826 1.2502 -0.0193
H21? H 0.0579 1.0738 -0.0842
loop_
_geom_bond_atom_site_label_1
_geom_bond_atom_site_label_2
_geom_bond_site_symmetry_1
_geom_bond_site_symmetry_2
C1 C2 1_555 1_555
C2 H1 1_555 1_555
C3 C2 1_555 1_555
H2 C3 1_555 1_555
C4 C3 1_555 1_555
H3 C4 1_555 1_555
C5 C4 1_555 1_555
H4 C5 1_555 1_555
C6 C1 1_555 1_555
C7 H5 1_555 1_555
H6 C7 1_555 1_555
C8 C7 1_555 1_555
C9 C8 1_555 1_555
C10 C9 1_555 1_555
C11 H7 1_555 1_555
H8 C11 1_555 1_555
H9 C11 1_555 1_555
C12 H10 1_555 1_555
C13 C12 1_555 1_555
H11 C13 1_555 1_555
C14 C13 1_555 1_555
H12 C14 1_555 1_555
C15 C14 1_555 1_555
H13 C15 1_555 1_555
C16 C15 1_555 1_555
H14 C16 1_555 1_555
C17 C12 1_555 1_555
C18 C17 1_555 1_555
H15 C18 1_555 1_555
C19 C18 1_555 1_555
C20 C9 1_555 1_555
C21 C20 1_555 1_555
C22 C21 1_555 1_555
H16 C22 1_555 1_555
C23 C22 1_555 1_555
C24 C23 1_555 1_555
H17 C24 1_555 1_555
C25 C24 1_555 1_555
H18 C25 1_555 1_555
C26 C21 1_555 1_555
Cl1 C23 1_555 1_555
N1 C1 1_555 1_555
O1 C10 1_555 1_555
O2 C10 1_555 1_555
O3 C18 1_555 1_555
S1 C6 1_555 1_555
C5 C6 1_555 1_555
C7 S1 1_555 1_555
C8 N1 1_555 1_555
C11 O1 1_555 1_555
C16 C17 1_555 1_555
C19 C20 1_555 1_555
C19 N1 1_555 1_555
C25 C26 1_555 1_555
C26 O3 1_555 1_555

#END
