
#######################################################################
#
#                 Cambridge Crystallographic Data Centre
#                                CCDC 
#
#######################################################################
#
# If this CIF has been generated from an entry in the Cambridge 
# Structural Database, then it will include bibliographic, chemical, 
# crystal, experimental, refinement or atomic coordinate data resulting 
# from the CCDC's data processing and validation procedures.
#
#######################################################################

data_DEPKAK02
_chemical_compound_source        'Artemisia pallens'
_chemical_name_common            Santonin
_chemical_formula_moiety         'C15 H18 O3'
_chemical_name_systematic        
3,5a,9-Trimethyl-3a,5,5a,9b-tetrahydronaphtho[1,2-b]furan-2,8(3H,4H)-dione
_chemical_properties_biological  'biological activity'
_symmetry_cell_setting           orthorhombic
_symmetry_space_group_name_H-M   'P 21 21 21'
_symmetry_Int_Tables_number      19
_space_group_name_Hall           'P 2ac 2ab'
loop_
_symmetry_equiv_pos_site_id
_symmetry_equiv_pos_as_xyz
1 x,y,z
2 1/2-x,-y,1/2+z
3 -x,1/2+y,1/2-z
4 1/2+x,1/2-y,-z
_cell_length_a                   6.9962(5)
_cell_length_b                   10.7176(8)
_cell_length_c                   34.572(3)
_cell_angle_alpha                90
_cell_angle_beta                 90
_cell_angle_gamma                90
_cell_volume                     2592.29
_exptl_crystal_colour            colorless
_exptl_crystal_description       rectangular
_chemical_melting_point          '173 deg.C'
_cell_formula_units_Z            8
loop_
_atom_site_label
_atom_site_type_symbol
_atom_site_fract_x
_atom_site_fract_y
_atom_site_fract_z
O1 O 0.4283(2) 0.49076(17) 0.30071(5)
O2 O 0.3144(3) 0.5987(2) 0.25066(5)
O3 O 0.6298(3) 0.54455(19) 0.44576(5)
C1 C 0.4440(4) 0.5396(3) 0.26440(7)
C2 C 0.6346(3) 0.5073(2) 0.24731(6)
H1 H 0.6218 0.4309 0.2319
C3 C 0.7500(3) 0.4788(2) 0.28323(6)
H2 H 0.7867 0.5588 0.2948
C4 C 0.9262(3) 0.3982(2) 0.28227(6)
H3 H 1.0219 0.4348 0.2655
H4 H 0.8950 0.3157 0.2726
C5 C 1.0021(3) 0.3893(2) 0.32352(7)
H5 H 1.0477 0.4710 0.3314
H6 H 1.1105 0.3329 0.3238
C6 C 0.8533(3) 0.3433(2) 0.35361(6)
C7 C 0.9431(4) 0.3525(3) 0.39239(7)
H7 H 1.0590 0.3118 0.3962
C8 C 0.8692(4) 0.4147(3) 0.42189(7)
H8 H 0.9338 0.4149 0.4454
C9 C 0.6911(4) 0.4824(3) 0.41865(7)
C10 C 0.5888(4) 0.4789(2) 0.38121(7)
C11 C 0.6680(3) 0.4191(2) 0.35086(6)
C12 C 0.5997(3) 0.4206(2) 0.30954(6)
H9 H 0.5797 0.3341 0.3013
C13 C 0.7142(4) 0.6105(2) 0.22175(7)
H10 H 0.6303 0.6235 0.2001
H11 H 0.8384 0.5869 0.2125
H12 H 0.7241 0.6862 0.2364
C14 C 0.8126(4) 0.2034(2) 0.34650(8)
H13 H 0.9288 0.1567 0.3494
H14 H 0.7637 0.1923 0.3208
H15 H 0.7201 0.1743 0.3649
C15 C 0.4004(4) 0.5462(3) 0.38166(8)
H16 H 0.3563 0.5576 0.3556
H17 H 0.4160 0.6261 0.3938
H18 H 0.3086 0.4979 0.3959
O4 O 0.4290(3) 0.35501(16) 0.13600(5)
O5 O 0.3582(3) 0.28726(18) 0.19511(5)
O6 O 0.6385(3) 0.7512(2) 0.05967(6)
C16 C 0.3092(4) 0.3028(2) 0.16241(8)
C17 C 0.1178(4) 0.2754(2) 0.14416(6)
H19 H 0.1195 0.1892 0.1348
C18 C 0.1225(3) 0.3617(2) 0.10925(6)
H20 H 0.0911 0.4458 0.1184
C19 C 0.0043(4) 0.3376(2) 0.07348(7)
H21 H -0.1308 0.3379 0.0798
H22 H 0.0364 0.2570 0.0625
C20 C 0.0496(4) 0.4419(2) 0.04465(6)
H23 H -0.0020 0.5195 0.0546
H24 H -0.0156 0.4239 0.0205
C21 C 0.2636(4) 0.4608(2) 0.03603(6)
C22 C 0.2803(4) 0.5767(3) 0.01221(6)
H25 H 0.2035 0.5834 -0.0097
C23 C 0.3970(4) 0.6704(3) 0.02017(7)
H26 H 0.3970 0.7404 0.0043
C24 C 0.5247(4) 0.6664(3) 0.05312(7)
C25 C 0.5096(3) 0.5604(2) 0.08022(6)
C26 C 0.3831(3) 0.4679(2) 0.07290(6)
C27 C 0.3337(3) 0.3609(2) 0.09901(6)
H27 H 0.3610 0.2832 0.0851
C28 C -0.0496(4) 0.2896(3) 0.17178(7)
H28 H -0.0365 0.2311 0.1926
H29 H -0.1668 0.2737 0.1582
H30 H -0.0514 0.3729 0.1820
C29 C 0.3403(5) 0.3531(3) 0.01007(7)
H31 H 0.2740 0.3536 -0.0142
H32 H 0.3197 0.2746 0.0228
H33 H 0.4747 0.3646 0.0057
C30 C 0.6444(3) 0.5705(3) 0.11403(7)
H34 H 0.6237 0.5018 0.1313
H35 H 0.6216 0.6475 0.1275
H36 H 0.7739 0.5688 0.1049
loop_
_geom_bond_atom_site_label_1
_geom_bond_atom_site_label_2
_geom_bond_site_symmetry_1
_geom_bond_site_symmetry_2
O1 C1 1_555 1_555
O2 C1 1_555 1_555
O3 C9 1_555 1_555
C1 C2 1_555 1_555
C2 H1 1_555 1_555
C3 C2 1_555 1_555
H2 C3 1_555 1_555
C4 C3 1_555 1_555
H3 C4 1_555 1_555
H4 C4 1_555 1_555
C5 C4 1_555 1_555
H5 C5 1_555 1_555
H6 C5 1_555 1_555
C6 C5 1_555 1_555
C7 C6 1_555 1_555
H7 C7 1_555 1_555
C8 C7 1_555 1_555
H8 C8 1_555 1_555
C9 C8 1_555 1_555
C10 C9 1_555 1_555
C11 C6 1_555 1_555
C12 O1 1_555 1_555
H9 C12 1_555 1_555
C13 C2 1_555 1_555
H10 C13 1_555 1_555
H11 C13 1_555 1_555
H12 C13 1_555 1_555
C14 C6 1_555 1_555
H13 C14 1_555 1_555
H14 C14 1_555 1_555
H15 C14 1_555 1_555
C15 C10 1_555 1_555
H16 C15 1_555 1_555
H17 C15 1_555 1_555
H18 C15 1_555 1_555
O4 C16 1_555 1_555
O5 C16 1_555 1_555
O6 C24 1_555 1_555
C16 C17 1_555 1_555
C17 H19 1_555 1_555
C18 C17 1_555 1_555
H20 C18 1_555 1_555
C19 C18 1_555 1_555
H21 C19 1_555 1_555
H22 C19 1_555 1_555
C20 C19 1_555 1_555
H23 C20 1_555 1_555
H24 C20 1_555 1_555
C21 C20 1_555 1_555
C22 C21 1_555 1_555
H25 C22 1_555 1_555
C23 C22 1_555 1_555
H26 C23 1_555 1_555
C24 C23 1_555 1_555
C25 C24 1_555 1_555
C26 C21 1_555 1_555
C27 O4 1_555 1_555
H27 C27 1_555 1_555
C28 C17 1_555 1_555
H28 C28 1_555 1_555
H29 C28 1_555 1_555
H30 C28 1_555 1_555
C29 C21 1_555 1_555
H31 C29 1_555 1_555
H32 C29 1_555 1_555
H33 C29 1_555 1_555
C30 C25 1_555 1_555
H34 C30 1_555 1_555
H35 C30 1_555 1_555
H36 C30 1_555 1_555
C3 C12 1_555 1_555
C10 C11 1_555 1_555
C11 C12 1_555 1_555
C18 C27 1_555 1_555
C25 C26 1_555 1_555
C26 C27 1_555 1_555

#END
