
#######################################################################
#
#                 Cambridge Crystallographic Data Centre
#                                CCDC 
#
#######################################################################
#
# If this CIF has been generated from an entry in the Cambridge 
# Structural Database, then it will include bibliographic, chemical, 
# crystal, experimental, refinement or atomic coordinate data resulting 
# from the CCDC's data processing and validation procedures.
#
#######################################################################

data_DEPROI
_chemical_formula_moiety         'C14 H13 Cl1 N2 O1 S1'
_chemical_name_systematic        
N'-[(2-chlorophenyl)methylidene]-N-methyl-2-(thiophen-2-yl)acetohydrazide
_symmetry_cell_setting           monoclinic
_symmetry_space_group_name_H-M   'P 21/c'
_symmetry_Int_Tables_number      14
_space_group_name_Hall           '-P 2ybc'
loop_
_symmetry_equiv_pos_site_id
_symmetry_equiv_pos_as_xyz
1 x,y,z
2 -x,1/2+y,1/2-z
3 -x,-y,-z
4 x,1/2-y,1/2+z
_cell_length_a                   9.1918(7)
_cell_length_b                   20.3575(14)
_cell_length_c                   7.2721(5)
_cell_angle_alpha                90
_cell_angle_beta                 96.360(2)
_cell_angle_gamma                90
_cell_volume                     1352.4
_exptl_crystal_colour            colorless
_exptl_crystal_description       block
_cell_formula_units_Z            4
loop_
_atom_site_label
_atom_site_type_symbol
_atom_site_fract_x
_atom_site_fract_y
_atom_site_fract_z
C1 C 0.4009(3) 0.30066(11) 0.2999(3)
C2 C 0.2682(3) 0.32749(12) 0.2216(4)
H1 H 0.1913 0.2989 0.1741
C3 C 0.2462(3) 0.39464(12) 0.2116(4)
H2 H 0.1551 0.4117 0.1578
C4 C 0.3576(3) 0.43717(12) 0.2804(4)
H3 H 0.3421 0.4833 0.2749
C5 C 0.4909(3) 0.41239(12) 0.3568(3)
H4 H 0.5680 0.4413 0.4017
C6 C 0.5107(3) 0.34485(12) 0.3669(3)
C7 C 0.4218(3) 0.22913(11) 0.3101(3)
H5 H 0.5122 0.2109 0.3624
C8 C 0.4721(3) 0.09617(12) 0.3393(4)
H6 H 0.4937 0.1124 0.4663
H7 H 0.5519 0.1084 0.2671
H8 H 0.4625 0.0482 0.3408
C9 C 0.2211(3) 0.08562(12) 0.1850(4)
C10 C 0.0768(3) 0.11842(12) 0.1155(4)
H9 H 0.0953 0.1628 0.0676
H10 H 0.0252 0.0923 0.0136
C11 C -0.0155(3) 0.12331(12) 0.2724(4)
C12 C -0.08888(16) 0.06244(7) 0.3623(2)
H11 H -0.0897 0.0174 0.3275
C13 C -0.1560(3) 0.09474(17) 0.5151(5)
H12 H -0.2067 0.0702 0.5989
C14 C -0.1418(3) 0.16036(16) 0.5300(4)
H13 H -0.1818 0.1853 0.6227
N1 N 0.3152(2) 0.19186(9) 0.2469(3)
N2 N 0.3356(2) 0.12514(9) 0.2554(3)
O1 O 0.2336(2) 0.02600(9) 0.1856(3)
Cl1 Cl 0.67905(7) 0.31638(3) 0.47232(10)
S1 S -0.04886(10) 0.19336(4) 0.37322(13)
S2? S -0.08888(16) 0.06244(7) 0.3623(2)
C15? C -0.04886(10) 0.19336(4) 0.37322(13)
H14? H -0.0232 0.2375 0.3490
loop_
_geom_bond_atom_site_label_1
_geom_bond_atom_site_label_2
_geom_bond_site_symmetry_1
_geom_bond_site_symmetry_2
C1 C2 1_555 1_555
C2 H1 1_555 1_555
C3 C2 1_555 1_555
H2 C3 1_555 1_555
C4 C3 1_555 1_555
H3 C4 1_555 1_555
C5 C4 1_555 1_555
H4 C5 1_555 1_555
C6 C1 1_555 1_555
C7 C1 1_555 1_555
H5 C7 1_555 1_555
C8 H6 1_555 1_555
H7 C8 1_555 1_555
H8 C8 1_555 1_555
C9 C10 1_555 1_555
C10 H9 1_555 1_555
H10 C10 1_555 1_555
C11 C10 1_555 1_555
C12 C11 1_555 1_555
H11 C12 1_555 1_555
C13 C12 1_555 1_555
H12 C13 1_555 1_555
C14 C13 1_555 1_555
H13 C14 1_555 1_555
N1 C7 1_555 1_555
N2 C8 1_555 1_555
O1 C9 1_555 1_555
Cl1 C6 1_555 1_555
S1 C11 1_555 1_555
C5 C6 1_555 1_555
C9 N2 1_555 1_555
C14 S1 1_555 1_555
N1 N2 1_555 1_555

#END
