
#######################################################################
#
#                 Cambridge Crystallographic Data Centre
#                                CCDC 
#
#######################################################################
#
# If this CIF has been generated from an entry in the Cambridge 
# Structural Database, then it will include bibliographic, chemical, 
# crystal, experimental, refinement or atomic coordinate data resulting 
# from the CCDC's data processing and validation procedures.
#
#######################################################################

data_DEPWIH
_chemical_formula_moiety         'C16 H25 N1 O1'
_chemical_name_systematic        '2-ethyl-N-phenyloctanamide unknown solvate'
_symmetry_cell_setting           tetragonal
_symmetry_space_group_name_H-M   'P 41'
_symmetry_Int_Tables_number      76
_space_group_name_Hall           'P 4w'
loop_
_symmetry_equiv_pos_site_id
_symmetry_equiv_pos_as_xyz
1 x,y,z
2 -x,-y,1/2+z
3 -y,x,1/4+z
4 y,-x,3/4+z
_cell_length_a                   17.8738(6)
_cell_length_b                   17.8738
_cell_length_c                   5.0353(3)
_cell_angle_alpha                90
_cell_angle_beta                 90
_cell_angle_gamma                90
_cell_volume                     1608.64
_exptl_crystal_colour            colorless
_exptl_crystal_description       plate
_cell_formula_units_Z            4
loop_
_atom_site_label
_atom_site_type_symbol
_atom_site_fract_x
_atom_site_fract_y
_atom_site_fract_z
O1 O 0.20125(4) 0.35628(4) 0.20343(13)
N1 N 0.23273(4) 0.34762(4) 0.63945(15)
H1 H 0.2146 0.3466 0.8019
C1 C 0.31167(4) 0.33930(5) 0.61109(17)
C2 C 0.34330(5) 0.29561(5) 0.41223(18)
H2 H 0.3124 0.2708 0.2866
C3 C 0.42092(5) 0.28863(5) 0.39921(19)
H3 H 0.4429 0.2587 0.2641
C4 C 0.46633(5) 0.32496(6) 0.5819(2)
H4 H 0.5192 0.3200 0.5714
C5 C 0.43435(5) 0.36846(6) 0.77964(19)
H5 H 0.4653 0.3934 0.9047
C6 C 0.35707(5) 0.37555(5) 0.79513(19)
H6 H 0.3352 0.4051 0.9313
C7 C 0.18337(5) 0.35697(5) 0.43938(18)
C8 C 0.10250(5) 0.37047(5) 0.52449(19)
H7 H 0.0990 0.3670 0.7223
C9 C 0.05185(5) 0.31070(6) 0.3998(2)
H8 H -0.0009 0.3228 0.4422
H9 H 0.0575 0.3127 0.2043
C10 C 0.06849(6) 0.23146(6) 0.4934(3)
H10 H 0.0329 0.1967 0.4118
H11 H 0.0638 0.2290 0.6871
H12 H 0.1195 0.2177 0.4415
C11 C 0.07915(5) 0.44925(5) 0.4362(2)
H13 H 0.0871 0.4538 0.2423
H14 H 0.0250 0.4557 0.4707
C12 C 0.12183(5) 0.51200(5) 0.5757(2)
H15 H 0.1109 0.5099 0.7683
H16 H 0.1762 0.5036 0.5523
C13 C 0.10212(5) 0.58959(5) 0.47219(19)
H17 H 0.0472 0.5963 0.4809
H18 H 0.1172 0.5932 0.2834
C14 C 0.13970(5) 0.65246(6) 0.62755(19)
H19 H 0.1242 0.6490 0.8159
H20 H 0.1946 0.6453 0.6204
C15 C 0.12118(6) 0.73035(6) 0.5250(2)
H21 H 0.0663 0.7347 0.5023
H22 H 0.1446 0.7372 0.3486
C16 C 0.14807(6) 0.79228(6) 0.7107(2)
H23 H 0.1338 0.8411 0.6377
H24 H 0.2026 0.7897 0.7278
H25 H 0.1251 0.7858 0.8859
loop_
_geom_bond_atom_site_label_1
_geom_bond_atom_site_label_2
_geom_bond_site_symmetry_1
_geom_bond_site_symmetry_2
O1 C7 1_555 1_555
N1 H1 1_555 1_555
C1 N1 1_555 1_555
C2 C1 1_555 1_555
H2 C2 1_555 1_555
C3 C2 1_555 1_555
H3 C3 1_555 1_555
C4 C3 1_555 1_555
H4 C4 1_555 1_555
C5 C4 1_555 1_555
H5 C5 1_555 1_555
C6 C1 1_555 1_555
H6 C6 1_555 1_555
C7 N1 1_555 1_555
C8 C7 1_555 1_555
H7 C8 1_555 1_555
C9 C8 1_555 1_555
H8 C9 1_555 1_555
H9 C9 1_555 1_555
C10 C9 1_555 1_555
H10 C10 1_555 1_555
H11 C10 1_555 1_555
H12 C10 1_555 1_555
C11 C8 1_555 1_555
H13 C11 1_555 1_555
H14 C11 1_555 1_555
C12 C11 1_555 1_555
H15 C12 1_555 1_555
H16 C12 1_555 1_555
C13 C12 1_555 1_555
H17 C13 1_555 1_555
H18 C13 1_555 1_555
C14 C13 1_555 1_555
H19 C14 1_555 1_555
H20 C14 1_555 1_555
C15 C14 1_555 1_555
H21 C15 1_555 1_555
H22 C15 1_555 1_555
C16 C15 1_555 1_555
H23 C16 1_555 1_555
H24 C16 1_555 1_555
H25 C16 1_555 1_555
C5 C6 1_555 1_555

#END
