
#######################################################################
#
#                 Cambridge Crystallographic Data Centre
#                                CCDC 
#
#######################################################################
#
# If this CIF has been generated from an entry in the Cambridge 
# Structural Database, then it will include bibliographic, chemical, 
# crystal, experimental, refinement or atomic coordinate data resulting 
# from the CCDC's data processing and validation procedures.
#
#######################################################################

data_DEQRAV
_chemical_formula_moiety         
'C32 H22 N10 O6,2(C8 H20 N1 1+),2(N1 O3 1-),0.69(H2 O1)'
_chemical_name_systematic        
"bis(tetraethylammonium) 1,1'-[2,7,17,22-tetraoxa-4,5,12,19,20,27,35,36,41,42-decaazaheptacyclo[26.2.2.2^3,6^.2^8,11^.2^13,16^.2^18,21^.2^23,26^]dotetraconta-1(30),3,5,8,10,13,15,18,20,23,25,28,31,33,35,37,39,41-octadecaene-12,27-diyl]bis(ethan-1-one) dinitrate hydrate"
_symmetry_cell_setting           monoclinic
_symmetry_space_group_name_H-M   'P 21/n'
_symmetry_Int_Tables_number      14
_space_group_name_Hall           '-P 2yn'
loop_
_symmetry_equiv_pos_site_id
_symmetry_equiv_pos_as_xyz
1 x,y,z
2 1/2-x,1/2+y,1/2-z
3 -x,-y,-z
4 1/2+x,1/2-y,1/2+z
_cell_length_a                   13.1038(8)
_cell_length_b                   13.0388(7)
_cell_length_c                   14.9738(8)
_cell_angle_alpha                90
_cell_angle_beta                 92.849(5)
_cell_angle_gamma                90
_cell_volume                     2555.23
_exptl_crystal_colour            red
_exptl_crystal_description       block
_cell_formula_units_Z            2
loop_
_atom_site_label
_atom_site_type_symbol
_atom_site_fract_x
_atom_site_fract_y
_atom_site_fract_z
O1 O 0.12764(13) 0.87155(13) 0.21034(12)
O2 O 0.53345(12) 0.66153(14) 0.32016(10)
O3 O 0.81901(14) 0.41530(15) 0.22920(12)
N1 N 0.19479(15) 0.77494(15) 0.10371(14)
N2 N 0.61637(14) 0.58785(15) 0.20550(12)
N3 N 0.68984(15) 0.52489(17) 0.18197(13)
N4 N 0.73199(16) 0.49189(17) 0.33492(13)
N5 N 0.65918(16) 0.55284(16) 0.35819(12)
C1 C 0.0325(2) 0.8628(2) 0.0704(2)
H1 H -0.018548 0.807932 0.071699
H2 H 0.056536 0.869415 0.009777
H3 H 0.001707 0.927606 0.088376
C2 C 0.12137(18) 0.83719(18) 0.13421(18)
C3 C 0.28242(17) 0.74688(18) 0.15960(16)
C4 C 0.29873(17) 0.64459(18) 0.17815(16)
H4 H 0.251217 0.594609 0.155927
C5 C 0.38455(17) 0.61476(18) 0.22928(16)
H5 H 0.396940 0.544429 0.242340
C6 C 0.45118(16) 0.68882(19) 0.26062(15)
C7 C 0.43671(18) 0.79047(19) 0.24253(17)
H6 H 0.484740 0.840044 0.264606
C8 C 0.35036(18) 0.82026(19) 0.19117(17)
H7 H 0.338474 0.890665 0.178039
C9 C 0.60447(16) 0.59853(17) 0.29112(15)
C10 C 0.74385(18) 0.48004(19) 0.24784(16)
C11 C 0.8143(2) 0.3702(2) 0.1431(2)
C12 C 0.8827(2) 0.4000(2) 0.0837(2)
H8 H 0.930485 0.452972 0.098263
C13 C 0.8819(2) 0.35181(19) 0.00066(19)
H9 H 0.928576 0.371779 -0.042673
C14 C 0.8117(2) 0.27411(19) -0.01759(18)
C15 C 0.7434(2) 0.2444(2) 0.0444(2)
H10 H 0.696225 0.190621 0.030831
C16 C 0.7437(2) 0.2932(2) 0.1273(2)
H11 H 0.697178 0.274207 0.171009
O1B O 0.87236(13) 0.12845(13) -0.21034(12)
O2B O 0.46655(12) 0.33847(14) -0.32016(10)
O3B O 0.18099(14) 0.58470(15) -0.22920(12)
N1B N 0.80521(15) 0.22506(15) -0.10371(14)
N2B N 0.38363(14) 0.41215(15) -0.20550(12)
N3B N 0.31016(15) 0.47511(17) -0.18197(13)
N4B N 0.26801(16) 0.50811(17) -0.33492(13)
N5B N 0.34082(16) 0.44716(16) -0.35819(12)
C1B C 0.9675(2) 0.1372(2) -0.0704(2)
H1B H 1.018548 0.192068 -0.071699
H2B H 0.943464 0.130585 -0.009777
H3B H 0.998293 0.072394 -0.088376
C2B C 0.87863(18) 0.16281(18) -0.13421(18)
C3B C 0.71758(17) 0.25312(18) -0.15960(16)
C4B C 0.70127(17) 0.35541(18) -0.17815(16)
H4B H 0.748783 0.405391 -0.155927
C5B C 0.61545(17) 0.38524(18) -0.22928(16)
H5B H 0.603060 0.455571 -0.242340
C6B C 0.54882(16) 0.31118(19) -0.26062(15)
C7B C 0.56329(18) 0.20953(19) -0.24253(17)
H6B H 0.515260 0.159956 -0.264606
C8B C 0.64964(18) 0.17974(19) -0.19117(17)
H7B H 0.661526 0.109335 -0.178039
C9B C 0.39553(16) 0.40147(17) -0.29112(15)
C10B C 0.25615(18) 0.51996(19) -0.24784(16)
C11B C 0.1857(2) 0.6298(2) -0.1431(2)
C12B C 0.1173(2) 0.6000(2) -0.0837(2)
H8B H 0.069515 0.547028 -0.098263
C13B C 0.1181(2) 0.64819(19) -0.00066(19)
H9B H 0.071424 0.628221 0.042673
C14B C 0.1883(2) 0.72589(19) 0.01759(18)
C15B C 0.2566(2) 0.7556(2) -0.0444(2)
H10B H 0.303775 0.809379 -0.030831
C16B C 0.2563(2) 0.7068(2) -0.1273(2)
H11B H 0.302822 0.725793 -0.171009
N6 N 0.16642(15) 0.74279(15) 0.46992(12)
C17 C 0.1292(2) 0.6929(2) 0.55221(17)
H12 H 0.100042 0.746562 0.590127
H13 H 0.188646 0.662909 0.586267
C18 C 0.0505(3) 0.6104(3) 0.5365(3)
H14 H 0.079497 0.554600 0.502011
H15 H -0.009213 0.638870 0.503237
H16 H 0.029864 0.583835 0.594151
C19 C 0.0805(3) 0.7990(2) 0.41925(19)
H17 H 0.107536 0.829676 0.364773
H18 H 0.027332 0.748610 0.399903
C20 C 0.0314(4) 0.8826(3) 0.4723(3)
H19 H -0.026820 0.911318 0.437093
H20 H 0.081503 0.936794 0.486148
H21 H 0.007669 0.853820 0.528074
C21 C 0.2514(3) 0.8143(2) 0.50264(19)
H22 H 0.223251 0.863538 0.545365
H23 H 0.304464 0.773409 0.535745
C22 C 0.3010(5) 0.8736(4) 0.4312(3)
H24 H 0.248414 0.907791 0.393127
H25 H 0.340141 0.826669 0.394878
H26 H 0.347040 0.925063 0.458779
C23 C 0.2042(2) 0.66522(19) 0.40391(16)
H27 H 0.145033 0.624621 0.380176
H28 H 0.231984 0.702816 0.353063
C24 C 0.2846(2) 0.5924(2) 0.4406(2)
H29 H 0.303031 0.544592 0.393540
H30 H 0.257990 0.553971 0.490605
H31 H 0.345206 0.631245 0.461480
O4 O 0.9265(3) 0.6453(2) 0.1712(2)
O5 O 1.0496(2) 0.5534(2) 0.2194(2)
O6 O 0.9457(3) 0.6138(2) 0.3107(2)
N7 N 0.9742(3) 0.6059(2) 0.2329(2)
O7 O 0.5764(5) 0.3541(5) 0.2589(4)
H32 H 0.587781 0.294966 0.275032
H33 H 0.519501 0.370426 0.274462
loop_
_geom_bond_atom_site_label_1
_geom_bond_atom_site_label_2
_geom_bond_site_symmetry_1
_geom_bond_site_symmetry_2
O1 C2 1_555 1_555
O2 C6 1_555 1_555
O3 C10 1_555 1_555
N1 C2 1_555 1_555
N2 N3 1_555 1_555
N3 C10 1_555 1_555
N4 N5 1_555 1_555
N5 C9 1_555 1_555
C1 H1 1_555 1_555
H2 C1 1_555 1_555
H3 C1 1_555 1_555
C2 C1 1_555 1_555
C3 N1 1_555 1_555
C4 C3 1_555 1_555
H4 C4 1_555 1_555
C5 C4 1_555 1_555
H5 C5 1_555 1_555
C6 C5 1_555 1_555
C7 C6 1_555 1_555
H6 C7 1_555 1_555
C8 C3 1_555 1_555
H7 C8 1_555 1_555
C9 O2 1_555 1_555
C10 N4 1_555 1_555
C11 O3 1_555 1_555
C12 C11 1_555 1_555
H8 C12 1_555 1_555
C13 C12 1_555 1_555
H9 C13 1_555 1_555
C14 C13 1_555 1_555
C15 C14 1_555 1_555
H10 C15 1_555 1_555
C16 C11 1_555 1_555
H11 C16 1_555 1_555
N6 C17 1_555 1_555
C17 H12 1_555 1_555
H13 C17 1_555 1_555
C18 C17 1_555 1_555
H14 C18 1_555 1_555
H15 C18 1_555 1_555
H16 C18 1_555 1_555
C19 N6 1_555 1_555
H17 C19 1_555 1_555
H18 C19 1_555 1_555
C20 C19 1_555 1_555
H19 C20 1_555 1_555
H20 C20 1_555 1_555
H21 C20 1_555 1_555
C21 N6 1_555 1_555
H22 C21 1_555 1_555
H23 C21 1_555 1_555
C22 C21 1_555 1_555
H24 C22 1_555 1_555
H25 C22 1_555 1_555
H26 C22 1_555 1_555
C23 N6 1_555 1_555
H27 C23 1_555 1_555
H28 C23 1_555 1_555
C24 C23 1_555 1_555
H29 C24 1_555 1_555
H30 C24 1_555 1_555
H31 C24 1_555 1_555
O4 N7 1_555 1_555
O5 N7 1_555 1_555
O6 N7 1_555 1_555
O7 H32 1_555 1_555
H33 O7 1_555 1_555
O1B C2B 1_555 1_555
O2B C6B 1_555 1_555
O3B C10B 1_555 1_555
N1B C14 1_555 1_555
N2B N3B 1_555 1_555
N3B C10B 1_555 1_555
N4B N5B 1_555 1_555
N5B C9B 1_555 1_555
C1B H1B 1_555 1_555
H2B C1B 1_555 1_555
H3B C1B 1_555 1_555
C2B N1B 1_555 1_555
C3B N1B 1_555 1_555
C4B C3B 1_555 1_555
H4B C4B 1_555 1_555
C5B C4B 1_555 1_555
H5B C5B 1_555 1_555
C6B C5B 1_555 1_555
C7B C6B 1_555 1_555
H6B C7B 1_555 1_555
C8B C3B 1_555 1_555
H7B C8B 1_555 1_555
C9B O2B 1_555 1_555
C10B N4B 1_555 1_555
C11B O3B 1_555 1_555
C12B C11B 1_555 1_555
H8B C12B 1_555 1_555
C13B C12B 1_555 1_555
H9B C13B 1_555 1_555
C14B N1 1_555 1_555
C15B C14B 1_555 1_555
H10B C15B 1_555 1_555
C16B C11B 1_555 1_555
H11B C16B 1_555 1_555
N2 C9 1_555 1_555
C7 C8 1_555 1_555
C15 C16 1_555 1_555
N2B C9B 1_555 1_555
C1B C2B 1_555 1_555
C7B C8B 1_555 1_555
C13B C14B 1_555 1_555
C15B C16B 1_555 1_555

#END
