
#######################################################################
#
#                 Cambridge Crystallographic Data Centre
#                                CCDC 
#
#######################################################################
#
# If this CIF has been generated from an entry in the Cambridge 
# Structural Database, then it will include bibliographic, chemical, 
# crystal, experimental, refinement or atomic coordinate data resulting 
# from the CCDC's data processing and validation procedures.
#
#######################################################################

data_DEQSIE
_chemical_formula_moiety         'C32 H22 N10 O6,C16 H36 N1 1+,Br1 1-'
_chemical_name_systematic        
"tetra-n-butylammonium 1,1'-[2,7,17,22-tetraoxa-4,5,12,19,20,27,35,36,41,42-decaazaheptacyclo[26.2.2.2^3,6^.2^8,11^.2^13,16^.2^18,21^.2^23,26^]dotetraconta-1(30),3,5,8,10,13,15,18,20,23,25,28,31,33,35,37,39,41-octadecaene-12,27-diyl]bis(ethan-1-one) bromide"
_symmetry_cell_setting           monoclinic
_symmetry_space_group_name_H-M   'P 21/n'
_symmetry_Int_Tables_number      14
_space_group_name_Hall           '-P 2yn'
loop_
_symmetry_equiv_pos_site_id
_symmetry_equiv_pos_as_xyz
1 x,y,z
2 1/2-x,1/2+y,1/2-z
3 -x,-y,-z
4 1/2+x,1/2-y,1/2+z
_cell_length_a                   11.2331(17)
_cell_length_b                   25.605(4)
_cell_length_c                   16.613(2)
_cell_angle_alpha                90
_cell_angle_beta                 90.118(3)
_cell_angle_gamma                90
_cell_volume                     4778.28
_exptl_crystal_colour            red
_exptl_crystal_description       block
_cell_formula_units_Z            4
loop_
_atom_site_label
_atom_site_type_symbol
_atom_site_fract_x
_atom_site_fract_y
_atom_site_fract_z
O1 O 0.93298(17) 0.35457(8) 0.44840(14)
O2 O 0.93195(19) 0.16486(9) 0.55542(15)
O3 O 0.3846(3) 0.00296(12) 0.6627(2)
O4 O 0.1698(2) 0.12208(10) 0.3581(2)
O5 O 0.13583(19) 0.32100(9) 0.30160(14)
O6 O 0.5797(2) 0.53788(9) 0.41201(15)
N1 N 1.0342(2) 0.28739(10) 0.50249(16)
N2 N 1.0345(2) 0.23873(11) 0.52949(16)
N3 N 0.8486(2) 0.22371(10) 0.46596(16)
N4 N 0.8481(2) 0.27270(10) 0.43919(15)
N5 N 0.5017(3) 0.05741(11) 0.58936(18)
N6 N 0.0680(2) 0.18960(12) 0.3074(2)
N7 N 0.0590(2) 0.24011(12) 0.29259(17)
N8 N 0.2357(2) 0.25531(11) 0.36846(16)
N9 N 0.2439(3) 0.20453(11) 0.38354(18)
N10 N 0.5083(2) 0.45879(9) 0.37579(15)
C1 C 0.9341(2) 0.30352(12) 0.46621(17)
C2 C 0.9345(3) 0.21168(12) 0.51784(19)
C3 C 0.8217(3) 0.13933(13) 0.56336(19)
C4 C 0.8229(3) 0.08605(13) 0.5533(2)
H1 H 0.894905 0.068427 0.540573
C5 C 0.7171(3) 0.05830(13) 0.5619(2)
H2 H 0.715797 0.021568 0.553884
C6 C 0.6143(3) 0.08456(12) 0.58214(19)
C7 C 0.6161(3) 0.13809(13) 0.5949(2)
H3 H 0.545141 0.155663 0.610038
C8 C 0.7206(3) 0.16609(12) 0.5857(2)
H4 H 0.722541 0.202742 0.594480
C9 C 0.4785(4) 0.02677(15) 0.6556(3)
C10 C 0.5733(5) 0.0245(2) 0.7189(3)
H5 H 0.641175 0.045945 0.702287
H6 H 0.541548 0.037697 0.769824
H7 H 0.599341 -0.011790 0.725917
C11 C 0.4142(3) 0.06995(12) 0.5293(2)
C12 C 0.2947(4) 0.07633(14) 0.5489(3)
H8 H 0.267790 0.068733 0.601789
C13 C 0.2146(3) 0.09382(15) 0.4909(3)
H9 H 0.133103 0.098686 0.504088
C14 C 0.2542(3) 0.10388(14) 0.4153(3)
C15 C 0.3706(3) 0.09674(16) 0.3935(2)
H10 H 0.395939 0.103519 0.339937
C16 C 0.4506(3) 0.07946(15) 0.4510(2)
H11 H 0.531466 0.074043 0.436685
C17 C 0.1628(3) 0.17386(15) 0.3489(2)
C18 C 0.1477(3) 0.27009(13) 0.32073(19)
C19 C 0.2317(3) 0.35470(12) 0.32195(18)
C20 C 0.2186(3) 0.38797(13) 0.38612(19)
H12 H 0.147939 0.387236 0.417412
C21 C 0.3095(3) 0.42272(13) 0.40495(19)
H13 H 0.302597 0.445104 0.450307
C22 C 0.4097(2) 0.42446(11) 0.35731(18)
C23 C 0.4218(3) 0.39046(13) 0.2925(2)
H14 H 0.491124 0.391784 0.259846
C24 C 0.3323(3) 0.35454(14) 0.2754(2)
H15 H 0.340787 0.330377 0.232432
C25 C 0.4981(3) 0.51147(12) 0.38398(19)
C26 C 0.3842(3) 0.53658(13) 0.3547(2)
H16 H 0.324199 0.535065 0.397360
H17 H 0.354947 0.517847 0.307165
H18 H 0.399606 0.573120 0.340547
C27 C 0.6189(2) 0.43294(11) 0.39544(19)
C28 C 0.7190(3) 0.44005(12) 0.3484(2)
H19 H 0.716872 0.463658 0.304282
C29 C 0.8224(3) 0.41266(12) 0.3657(2)
H20 H 0.891485 0.417153 0.333519
C30 C 0.8235(2) 0.37889(11) 0.43006(19)
C31 C 0.7259(3) 0.37167(13) 0.47852(19)
H21 H 0.728916 0.348544 0.523185
C32 C 0.6227(3) 0.39907(12) 0.46041(18)
H22 H 0.553958 0.394569 0.492886
N11 N 0.7526(2) 0.16140(9) 0.19004(14)
C33 C 0.7749(3) 0.13596(12) 0.27149(18)
H23 H 0.817258 0.161374 0.306141
H24 H 0.696943 0.128780 0.296852
C34 C 0.8462(3) 0.08549(12) 0.27039(19)
H25 H 0.801837 0.058414 0.240130
H26 H 0.923203 0.091358 0.243011
C35 C 0.8680(3) 0.06709(13) 0.3554(2)
H27 H 0.790436 0.060169 0.381578
H28 H 0.908134 0.095238 0.385977
C36 C 0.9437(4) 0.01794(15) 0.3594(2)
H29 H 0.905457 -0.009870 0.328110
H30 H 0.951957 0.006799 0.415529
H31 H 1.022674 0.025203 0.336961
C37 C 0.6940(3) 0.12378(12) 0.1314(2)
H32 H 0.676380 0.143007 0.081101
H33 H 0.752331 0.096117 0.118057
C38 C 0.5815(4) 0.09795(15) 0.1592(3)
H34 H 0.517869 0.124071 0.167987
H35 H 0.594982 0.078481 0.209934
C39 C 0.5471(5) 0.0590(2) 0.0873(3)
H36 H 0.560655 0.076307 0.034844
H37 H 0.597741 0.027370 0.089802
C40 C 0.4178(7) 0.0439(3) 0.0952(4)
H38 H 0.396095 0.020090 0.051391
H39 H 0.405193 0.026552 0.147019
H40 H 0.368213 0.075350 0.092218
C41 C 0.6713(3) 0.20854(11) 0.20196(19)
H41 H 0.664696 0.227533 0.150237
H42 H 0.590735 0.195870 0.216193
C42 C 0.7126(3) 0.24670(13) 0.2666(2)
H43 H 0.799655 0.252037 0.262228
H44 H 0.695660 0.232044 0.320562
C43 C 0.6488(3) 0.29889(13) 0.2570(2)
H45 H 0.563422 0.292273 0.246021
H46 H 0.654318 0.318466 0.308278
C44 C 0.6991(4) 0.33213(15) 0.1902(2)
H47 H 0.688396 0.314152 0.138564
H48 H 0.784074 0.338083 0.199802
H49 H 0.657335 0.365734 0.188699
C45 C 0.8709(2) 0.17831(12) 0.15483(18)
H50 H 0.922087 0.146978 0.150539
H51 H 0.909362 0.202217 0.193821
C46 C 0.8698(3) 0.20513(14) 0.0734(2)
H52 H 0.843474 0.180241 0.031394
H53 H 0.813330 0.234809 0.074230
C47 C 0.9932(3) 0.22457(15) 0.0545(2)
H54 H 1.049736 0.195166 0.060366
H55 H 1.015289 0.251446 0.094639
C48 C 1.0073(3) 0.24766(18) -0.0290(2)
H56 H 0.985961 0.221390 -0.069423
H57 H 1.090121 0.258479 -0.036852
H58 H 0.954861 0.278044 -0.034641
Br1 Br 0.82304(3) 0.29349(2) 0.66501(2)
H59? H 0.611230 0.066159 0.186606
H60? H 0.554656 0.121210 0.203206
C49? C 0.4710(13) 0.0805(5) 0.1242(9)
H61? H 0.432015 0.109168 0.093949
H62? H 0.415782 0.067924 0.166306
C50? C 0.508(2) 0.0343(8) 0.0654(12)
H63? H 0.451824 0.032741 0.020166
H64? H 0.506006 0.001124 0.094824
H65? H 0.588404 0.040498 0.045014
loop_
_geom_bond_atom_site_label_1
_geom_bond_atom_site_label_2
_geom_bond_site_symmetry_1
_geom_bond_site_symmetry_2
O1 C1 1_555 1_555
O2 C2 1_555 1_555
O3 C9 1_555 1_555
O4 C14 1_555 1_555
O5 C18 1_555 1_555
O6 C25 1_555 1_555
N1 N2 1_555 1_555
N2 C2 1_555 1_555
N3 N4 1_555 1_555
N4 C1 1_555 1_555
N5 C6 1_555 1_555
N6 N7 1_555 1_555
N7 C18 1_555 1_555
N8 N9 1_555 1_555
N9 C17 1_555 1_555
N10 C22 1_555 1_555
C1 N1 1_555 1_555
C2 N3 1_555 1_555
C3 O2 1_555 1_555
C4 C3 1_555 1_555
H1 C4 1_555 1_555
C5 C4 1_555 1_555
H2 C5 1_555 1_555
C6 C5 1_555 1_555
C7 C6 1_555 1_555
H3 C7 1_555 1_555
C8 C3 1_555 1_555
H4 C8 1_555 1_555
C9 N5 1_555 1_555
C10 C9 1_555 1_555
H5 C10 1_555 1_555
H6 C10 1_555 1_555
H7 C10 1_555 1_555
C11 N5 1_555 1_555
C12 C11 1_555 1_555
H8 C12 1_555 1_555
C13 C12 1_555 1_555
H9 C13 1_555 1_555
C14 C13 1_555 1_555
C15 C14 1_555 1_555
H10 C15 1_555 1_555
C16 C11 1_555 1_555
H11 C16 1_555 1_555
C17 O4 1_555 1_555
C18 N8 1_555 1_555
C19 O5 1_555 1_555
C20 C19 1_555 1_555
H12 C20 1_555 1_555
C21 C20 1_555 1_555
H13 C21 1_555 1_555
C22 C21 1_555 1_555
C23 C22 1_555 1_555
H14 C23 1_555 1_555
C24 C19 1_555 1_555
H15 C24 1_555 1_555
C25 N10 1_555 1_555
C26 C25 1_555 1_555
H16 C26 1_555 1_555
H17 C26 1_555 1_555
H18 C26 1_555 1_555
C27 N10 1_555 1_555
C28 C27 1_555 1_555
H19 C28 1_555 1_555
C29 C28 1_555 1_555
H20 C29 1_555 1_555
C30 O1 1_555 1_555
C31 C30 1_555 1_555
H21 C31 1_555 1_555
C32 C27 1_555 1_555
H22 C32 1_555 1_555
N11 C33 1_555 1_555
C33 H23 1_555 1_555
H24 C33 1_555 1_555
C34 C33 1_555 1_555
H25 C34 1_555 1_555
H26 C34 1_555 1_555
C35 C34 1_555 1_555
H27 C35 1_555 1_555
H28 C35 1_555 1_555
C36 C35 1_555 1_555
H29 C36 1_555 1_555
H30 C36 1_555 1_555
H31 C36 1_555 1_555
C37 N11 1_555 1_555
H32 C37 1_555 1_555
H33 C37 1_555 1_555
C38 C37 1_555 1_555
H34 C38 1_555 1_555
H35 C38 1_555 1_555
C39 C38 1_555 1_555
H36 C39 1_555 1_555
H37 C39 1_555 1_555
C40 C39 1_555 1_555
H38 C40 1_555 1_555
H39 C40 1_555 1_555
H40 C40 1_555 1_555
C41 N11 1_555 1_555
H41 C41 1_555 1_555
H42 C41 1_555 1_555
C42 C41 1_555 1_555
H43 C42 1_555 1_555
H44 C42 1_555 1_555
C43 C42 1_555 1_555
H45 C43 1_555 1_555
H46 C43 1_555 1_555
C44 C43 1_555 1_555
H47 C44 1_555 1_555
H48 C44 1_555 1_555
H49 C44 1_555 1_555
C45 N11 1_555 1_555
H50 C45 1_555 1_555
H51 C45 1_555 1_555
C46 C45 1_555 1_555
H52 C46 1_555 1_555
H53 C46 1_555 1_555
C47 C46 1_555 1_555
H54 C47 1_555 1_555
H55 C47 1_555 1_555
C48 C47 1_555 1_555
H56 C48 1_555 1_555
H57 C48 1_555 1_555
H58 C48 1_555 1_555
N6 C17 1_555 1_555
C7 C8 1_555 1_555
C15 C16 1_555 1_555
C23 C24 1_555 1_555
C29 C30 1_555 1_555
C31 C32 1_555 1_555

#END
