
#######################################################################
#
#                 Cambridge Crystallographic Data Centre
#                                CCDC 
#
#######################################################################
#
# If this CIF has been generated from an entry in the Cambridge 
# Structural Database, then it will include bibliographic, chemical, 
# crystal, experimental, refinement or atomic coordinate data resulting 
# from the CCDC's data processing and validation procedures.
#
#######################################################################

data_DERGUD
_chemical_formula_moiety         '2(C1 H6 N3 1+),C9 H10 O6 S2 2-,C9 H12'
_chemical_name_systematic        
'bis(Guanidinium) mesitylenedisulfonate 1,2,4-trimethylbenzene clathrate'
_symmetry_cell_setting           orthorhombic
_symmetry_space_group_name_H-M   'I m m 2'
_symmetry_Int_Tables_number      44
_space_group_name_Hall           'I 2 -2'
loop_
_symmetry_equiv_pos_site_id
_symmetry_equiv_pos_as_xyz
1 x,y,z
2 -x,-y,z
3 -x,y,z
4 x,-y,z
5 1/2+x,1/2+y,1/2+z
6 1/2-x,1/2-y,1/2+z
7 1/2-x,1/2+y,1/2+z
8 1/2+x,1/2-y,1/2+z
_cell_length_a                   19.246(3)
_cell_length_b                   7.5120(12)
_cell_length_c                   9.2193(15)
_cell_angle_alpha                90
_cell_angle_beta                 90
_cell_angle_gamma                90
_cell_volume                     1332.89
_exptl_crystal_colour            colorless
_exptl_crystal_description       prism
_cell_formula_units_Z            2
loop_
_atom_site_label
_atom_site_type_symbol
_atom_site_fract_x
_atom_site_fract_y
_atom_site_fract_z
C2 C 0.02654(18) 0.0070(8) 0.3374(3)
C3 C -0.03936(16) -0.0093(9) 0.3976(3)
C4 C -0.04751(17) -0.0092(14) 0.5475(4)
H5 H -0.0925 -0.0203 0.5886
C5 C 0.0102(2) 0.0072(14) 0.6370(3)
C6 C -0.07614(19) -0.0234(10) 0.5768(3)
H6 H -0.1156 -0.0346 0.6380
C7 C 0.08429(15) 0.0233(10) 0.4270(4)
H7 H 0.1293 0.0344 0.3858
C8 C 0.0362(4) 0.0071(15) 0.1736(5)
H8 H 0.0858 0.0140 0.1506
H9 H 0.0121 0.1099 0.1318
H10 H 0.0168 -0.1028 0.1329
C9 C 0.1027(4) 0.0272(13) 0.3028(7)
H11 H 0.0886 0.0253 0.2006
H12 H 0.1345 0.0721 0.3217
H13 H 0.1262 0.1399 0.3242
C10 C 0.0018(6) 0.007(2) 0.8014(4)
H14 H -0.0476 0.0004 0.8260
H15 H 0.0215 0.1173 0.8413
H16 H 0.0262 -0.0954 0.8425
C2A C -0.02654(18) -0.0070(8) 0.3374(3)
C2C C 0.02654(18) -0.0070(8) 0.3374(3)
C2B C -0.02654(18) 0.0070(8) 0.3374(3)
C3A C 0.03936(16) 0.0093(9) 0.3976(3)
C3C C -0.03936(16) 0.0093(9) 0.3976(3)
C3B C 0.03936(16) -0.0093(9) 0.3976(3)
C4B C 0.04751(17) -0.0092(14) 0.5475(4)
C4A C 0.04751(17) 0.0092(14) 0.5475(4)
C4C C -0.04751(17) 0.0092(14) 0.5475(4)
H5B H 0.0925 -0.0203 0.5886
H5A H 0.0925 0.0203 0.5886
H5C H -0.0925 0.0203 0.5886
C5B C -0.0102(2) 0.0072(14) 0.6370(3)
C5C C 0.0102(2) -0.0072(14) 0.6370(3)
C5A C -0.0102(2) -0.0072(14) 0.6370(3)
C6B C 0.07614(19) -0.0234(10) 0.5768(3)
C6A C 0.07614(19) 0.0234(10) 0.5768(3)
C6C C -0.07614(19) 0.0234(10) 0.5768(3)
H6B H 0.1156 -0.0346 0.6380
H6C H -0.1156 0.0346 0.6380
H6A H 0.1156 0.0346 0.6380
C7A C -0.08429(15) -0.0233(10) 0.4270(4)
C7B C -0.08429(15) 0.0233(10) 0.4270(4)
C7C C 0.08429(15) -0.0233(10) 0.4270(4)
H7C H 0.1293 -0.0344 0.3858
H7A H -0.1293 -0.0344 0.3858
H7B H -0.1293 0.0344 0.3858
C8A C -0.0362(4) -0.0071(15) 0.1736(5)
C8B C -0.0362(4) 0.0071(15) 0.1736(5)
C8C C 0.0362(4) -0.0071(15) 0.1736(5)
H8B H -0.0858 0.0140 0.1506
H8A H -0.0858 -0.0140 0.1506
H8C H 0.0858 -0.0140 0.1506
H9B H -0.0121 0.1099 0.1318
H9C H 0.0121 -0.1099 0.1318
H9A H -0.0121 -0.1099 0.1318
H10A H -0.0168 0.1028 0.1329
H10C H 0.0168 0.1028 0.1329
H10B H -0.0168 -0.1028 0.1329
C9A C -0.1027(4) -0.0272(13) 0.3028(7)
C9B C -0.1027(4) 0.0272(13) 0.3028(7)
C9C C 0.1027(4) -0.0272(13) 0.3028(7)
H11C H 0.0886 -0.0253 0.2006
H11A H -0.0886 -0.0253 0.2006
H11B H -0.0886 0.0253 0.2006
H12A H -0.1345 -0.0721 0.3217
H12B H -0.1345 0.0721 0.3217
H12C H 0.1345 -0.0721 0.3217
H13B H -0.1262 0.1399 0.3242
H13A H -0.1262 -0.1399 0.3242
H13C H 0.1262 -0.1399 0.3242
C10A C -0.0018(6) -0.007(2) 0.8014(4)
H14A H 0.0476 -0.0004 0.8260
H15A H -0.0215 -0.1173 0.8413
H15C H 0.0215 -0.1173 0.8413
H15B H -0.0215 0.1173 0.8413
H16A H -0.0262 0.0954 0.8425
H16C H 0.0262 0.0954 0.8425
H16B H -0.0262 -0.0954 0.8425
S1 S 0.35755(2) 0.0000 0.42396(5)
O1 O 0.29909(7) 0.0000 0.52449(19)
O2 O 0.35821(5) 0.16180(14) 0.33498(12)
C11 C 0.43693(10) 0.0000 0.5255(2)
C12 C 0.5000 0.0000 0.4468(3)
C13 C 0.43588(12) 0.0000 0.6783(2)
C14 C 0.5000 0.0000 0.7484(3)
H17 H 0.5000 0.0000 0.8515
C15 C 0.37232(16) 0.0000 0.7759(3)
H18 H 0.3871 0.0000 0.8776
H19 H 0.3444 -0.1065 0.7565
C16 C 0.5000 0.0000 0.2823(3)
H20 H 0.5480 0.0000 0.2469
H21 H 0.4760 0.1065 0.2469
S1A S 0.64245(2) 0.0000 0.42396(5)
O1A O 0.70091(7) 0.0000 0.52449(19)
O2C O 0.35821(5) -0.16180(14) 0.33498(12)
O2A O 0.64179(5) -0.16180(14) 0.33498(12)
O2B O 0.64179(5) 0.16180(14) 0.33498(12)
C11A C 0.56307(10) 0.0000 0.5255(2)
C13A C 0.56412(12) 0.0000 0.6783(2)
C15A C 0.62768(16) 0.0000 0.7759(3)
H18A H 0.6129 0.0000 0.8776
H19C H 0.3444 0.1065 0.7565
H19A H 0.6556 0.1065 0.7565
H19B H 0.6556 -0.1065 0.7565
H20A H 0.4520 0.0000 0.2469
H21A H 0.5240 -0.1065 0.2469
H21B H 0.5240 0.1065 0.2469
H21C H 0.4760 -0.1065 0.2469
C1 C 0.24252(10) 0.0000 1.0319(2)
N1 N 0.26805(7) 0.15296(16) 1.08076(16)
H1 H 0.2516 0.2545 1.0480
H2 H 0.3015 0.1527 1.1459
N2 N 0.19257(9) 0.0000 0.9345(2)
H3 H 0.1760 -0.1014 0.9015
H4 H 0.1757 0.1014 0.9022
N1C N 0.26805(7) -0.15296(16) 1.08076(16)
H1C H 0.2516 -0.2545 1.0480
H2C H 0.3015 -0.1527 1.1459
H22? H 0.3444 0.1065 0.7565
H23? H 0.4760 -0.1065 0.2469
loop_
_geom_bond_atom_site_label_1
_geom_bond_atom_site_label_2
_geom_bond_site_symmetry_1
_geom_bond_site_symmetry_2
C1 N1 1_555 1_555
N1 H1 1_555 1_555
H2 N1 1_555 1_555
N2 C1 1_555 1_555
H3 N2 1_555 1_555
H4 N2 1_555 1_555
C2 C3 1_555 1_555
C3 C4 1_555 1_555
C4 H5 1_555 1_555
H5 C6 1_555 1_555
C5 C4 1_555 1_555
C6 C4 1_555 1_555
H6 H5 1_555 1_555
C7 C2 1_555 1_555
H7 C7 1_555 1_555
C8 C2 1_555 1_555
H8 C8 1_555 1_555
H9 C8 1_555 1_555
H10 C8 1_555 1_555
C9 C2 1_555 1_555
H11 C8 1_555 1_555
H12 H7 1_555 1_555
H13 C9 1_555 1_555
C10 C5 1_555 1_555
H14 C10 1_555 1_555
H15 C10 1_555 1_555
H16 C10 1_555 1_555
S1 O1 1_555 1_555
O2 S1 1_555 1_555
C11 S1 1_555 1_555
C12 C11 1_555 1_555
C13 C11 1_555 1_555
C14 C13 1_555 1_555
H17 C14 1_555 1_555
C15 C13 1_555 1_555
H18 C15 1_555 1_555
H19 C15 1_555 1_555
C16 C12 1_555 1_555
H20 C16 1_555 1_555
H21 C16 1_555 1_555
N1C C1 1_555 1_555
H1C N1C 1_555 1_555
H2C N1C 1_555 1_555
C2A C2 1_555 1_555
C2C C2 1_555 1_555
C2B C2 1_555 1_555
C3A C2 1_555 1_555
C3C C2 1_555 1_555
C3B C2 1_555 1_555
C4B C5 1_555 1_555
C4A C5 1_555 1_555
C4C C3 1_555 1_555
H5B C4B 1_555 1_555
H5A C4B 1_555 1_555
H5C C4 1_555 1_555
C5B C4 1_555 1_555
C5C C4 1_555 1_555
C5A C4 1_555 1_555
C6B C5 1_555 1_555
C6A C5 1_555 1_555
C6C C4 1_555 1_555
H6B H5B 1_555 1_555
H6C H5 1_555 1_555
H6A H5B 1_555 1_555
C7A C3 1_555 1_555
C7B C3 1_555 1_555
C7C C2 1_555 1_555
H7C C7 1_555 1_555
H7A C7A 1_555 1_555
H7B C7A 1_555 1_555
C8A C8 1_555 1_555
C8B C8 1_555 1_555
C8C C2 1_555 1_555
H8B C8A 1_555 1_555
H8A C8A 1_555 1_555
H8C C8 1_555 1_555
H9B C8 1_555 1_555
H9C C8 1_555 1_555
H9A H10 1_555 1_555
H10A C8 1_555 1_555
H10C C8 1_555 1_555
H10B H10 1_555 1_555
C9A C3 1_555 1_555
C9B C3 1_555 1_555
C9C C2 1_555 1_555
H11C C8 1_555 1_555
H11A C8A 1_555 1_555
H11B C8A 1_555 1_555
H12A H7A 1_555 1_555
H12B H7B 1_555 1_555
H12C C9 1_555 1_555
H13B C9B 1_555 1_555
H13A C9A 1_555 1_555
H13C C9C 1_555 1_555
C10A C5 1_555 1_555
H14A C10 1_555 1_555
H15A C10 1_555 1_555
H15C C10 1_555 1_555
H15B C10 1_555 1_555
H16A C10 1_555 1_555
H16C C10 1_555 1_555
H16B C10 1_555 1_555
S1A O1A 1_555 1_555
O2C S1 1_555 1_555
O2A S1A 1_555 1_555
O2B S1A 1_555 1_555
C11A C12 1_555 1_555
C13A C14 1_555 1_555
C15A C13A 1_555 1_555
H18A C15A 1_555 1_555
H19C C15 1_555 1_555
H19A C15A 1_555 1_555
H19B C15A 1_555 1_555
H20A C16 1_555 1_555
H21A C16 1_555 1_555
H21B C16 1_555 1_555
H21C C16 1_555 1_555
C3 C2A 1_555 1_555
C3 C2C 1_555 1_555
C3 C2B 1_555 1_555
C3 C3A 1_555 1_555
C3 C3C 1_555 1_555
C3 C3B 1_555 1_555
C4 C3C 1_555 1_555
C4 C4C 1_555 1_555
C4 C7A 1_555 1_555
C4 C7B 1_555 1_555
H5 C4C 1_555 1_555
H5 H5C 1_555 1_555
H5 C6C 1_555 1_555
C5 C4C 1_555 1_555
C5 C5B 1_555 1_555
C5 C5C 1_555 1_555
C5 C5A 1_555 1_555
C5 C6C 1_555 1_555
C6 H6 1_555 1_555
C6 C4C 1_555 1_555
C6 H5C 1_555 1_555
C6 C5B 1_555 1_555
C6 C5C 1_555 1_555
C6 C5A 1_555 1_555
C6 C6C 1_555 1_555
C6 H6C 1_555 1_555
C6 C7A 1_555 1_555
C6 C7B 1_555 1_555
H6 H5C 1_555 1_555
H6 C6C 1_555 1_555
H6 H6C 1_555 1_555
C7 C9 1_555 1_555
C7 C2C 1_555 1_555
C7 C3A 1_555 1_555
C7 C3B 1_555 1_555
C7 C4B 1_555 1_555
C7 C4A 1_555 1_555
C7 C6B 1_555 1_555
C7 C6A 1_555 1_555
C7 C7C 1_555 1_555
C7 C9C 1_555 1_555
H7 C9 1_555 1_555
H7 C7C 1_555 1_555
H7 H7C 1_555 1_555
H7 C9C 1_555 1_555
C8 C9 1_555 1_555
C8 C2C 1_555 1_555
C8 C8C 1_555 1_555
H8 H11 1_555 1_555
H8 C8C 1_555 1_555
H8 H8C 1_555 1_555
H8 H11C 1_555 1_555
H9 C8B 1_555 1_555
H9 C8C 1_555 1_555
H9 H9B 1_555 1_555
H9 H10A 1_555 1_555
H9 H10C 1_555 1_555
H10 C8A 1_555 1_555
H10 C8C 1_555 1_555
H10 H9C 1_555 1_555
C9 H11 1_555 1_555
C9 H12 1_555 1_555
C9 C2C 1_555 1_555
C9 C3A 1_555 1_555
C9 C3B 1_555 1_555
C9 C7C 1_555 1_555
C9 H7C 1_555 1_555
C9 C9C 1_555 1_555
C9 H11C 1_555 1_555
H11 C8C 1_555 1_555
H11 H8C 1_555 1_555
H11 C9C 1_555 1_555
H11 H11C 1_555 1_555
H12 H13 1_555 1_555
H12 C9C 1_555 1_555
C10 C5B 1_555 1_555
C10 C5C 1_555 1_555
C10 C5A 1_555 1_555
C10 C10A 1_555 1_555
H14 C10A 1_555 1_555
H14 H16A 1_555 1_555
H14 H16B 1_555 1_555
H15 C10A 1_555 1_555
H15 H15B 1_555 1_555
H15 H16C 1_555 1_555
H16 C10A 1_555 1_555
H16 H14A 1_555 1_555
H16 H15C 1_555 1_555
C2A C2C 1_555 1_555
C2A C2B 1_555 1_555
C2A C3A 1_555 1_555
C2A C3C 1_555 1_555
C2A C3B 1_555 1_555
C2A C7A 1_555 1_555
C2A C7B 1_555 1_555
C2A C8A 1_555 1_555
C2A C8B 1_555 1_555
C2A C9A 1_555 1_555
C2A C9B 1_555 1_555
C2C C2B 1_555 1_555
C2C C3A 1_555 1_555
C2C C3C 1_555 1_555
C2C C3B 1_555 1_555
C2C C7C 1_555 1_555
C2C C8C 1_555 1_555
C2C C9C 1_555 1_555
C2B C3A 1_555 1_555
C2B C3C 1_555 1_555
C2B C3B 1_555 1_555
C2B C7A 1_555 1_555
C2B C7B 1_555 1_555
C2B C8A 1_555 1_555
C2B C8B 1_555 1_555
C2B C9A 1_555 1_555
C2B C9B 1_555 1_555
C3A C3C 1_555 1_555
C3A C3B 1_555 1_555
C3A C4B 1_555 1_555
C3A C4A 1_555 1_555
C3A C7C 1_555 1_555
C3A C9C 1_555 1_555
C3C C3B 1_555 1_555
C3C C4C 1_555 1_555
C3C C7A 1_555 1_555
C3C C7B 1_555 1_555
C3C C9A 1_555 1_555
C3C C9B 1_555 1_555
C3B C4B 1_555 1_555
C3B C4A 1_555 1_555
C3B C7C 1_555 1_555
C3B C9C 1_555 1_555
C4B C4A 1_555 1_555
C4B C5B 1_555 1_555
C4B C5C 1_555 1_555
C4B C5A 1_555 1_555
C4B C6B 1_555 1_555
C4B C6A 1_555 1_555
C4B C7C 1_555 1_555
C4A H5B 1_555 1_555
C4A H5A 1_555 1_555
C4A C5B 1_555 1_555
C4A C5C 1_555 1_555
C4A C5A 1_555 1_555
C4A C6B 1_555 1_555
C4A C6A 1_555 1_555
C4A C7C 1_555 1_555
C4C H5C 1_555 1_555
C4C C5B 1_555 1_555
C4C C5C 1_555 1_555
C4C C5A 1_555 1_555
C4C C6C 1_555 1_555
C4C C7A 1_555 1_555
C4C C7B 1_555 1_555
H5B H5A 1_555 1_555
H5B C6B 1_555 1_555
H5B C6A 1_555 1_555
H5A C6B 1_555 1_555
H5A C6A 1_555 1_555
H5A H6B 1_555 1_555
H5A H6A 1_555 1_555
H5C C6C 1_555 1_555
H5C H6C 1_555 1_555
C5B C5C 1_555 1_555
C5B C5A 1_555 1_555
C5B C6A 1_555 1_555
C5B C6C 1_555 1_555
C5B C10A 1_555 1_555
C5C C5A 1_555 1_555
C5C C6B 1_555 1_555
C5C C6A 1_555 1_555
C5C C10A 1_555 1_555
C5A C6B 1_555 1_555
C5A C6C 1_555 1_555
C5A C10A 1_555 1_555
C6B C6A 1_555 1_555
C6B H6B 1_555 1_555
C6B H6A 1_555 1_555
C6B C7C 1_555 1_555
C6A H6B 1_555 1_555
C6A H6A 1_555 1_555
C6A C7C 1_555 1_555
C6C H6C 1_555 1_555
C6C C7A 1_555 1_555
C6C C7B 1_555 1_555
H6B H6A 1_555 1_555
C7A C7B 1_555 1_555
C7A C9A 1_555 1_555
C7A C9B 1_555 1_555
C7B H7A 1_555 1_555
C7B H7B 1_555 1_555
C7B C9A 1_555 1_555
C7B C9B 1_555 1_555
C7C H7C 1_555 1_555
C7C C9C 1_555 1_555
H7C C9C 1_555 1_555
H7C H12C 1_555 1_555
H7A H7B 1_555 1_555
H7A C9A 1_555 1_555
H7A C9B 1_555 1_555
H7B C9A 1_555 1_555
H7B C9B 1_555 1_555
C8A C8B 1_555 1_555
C8A C8C 1_555 1_555
C8A H9B 1_555 1_555
C8A H9C 1_555 1_555
C8A H9A 1_555 1_555
C8A H10A 1_555 1_555
C8A H10B 1_555 1_555
C8A C9A 1_555 1_555
C8B C8C 1_555 1_555
C8B H8B 1_555 1_555
C8B H8A 1_555 1_555
C8B H9B 1_555 1_555
C8B H9A 1_555 1_555
C8B H10A 1_555 1_555
C8B H10C 1_555 1_555
C8B H10B 1_555 1_555
C8B C9B 1_555 1_555
C8B H11A 1_555 1_555
C8B H11B 1_555 1_555
C8C H8C 1_555 1_555
C8C H9C 1_555 1_555
C8C H9A 1_555 1_555
C8C H10C 1_555 1_555
C8C H10B 1_555 1_555
C8C C9C 1_555 1_555
C8C H11C 1_555 1_555
H8B H8A 1_555 1_555
H8B H11A 1_555 1_555
H8B H11B 1_555 1_555
H8A H11A 1_555 1_555
H8A H11B 1_555 1_555
H8C H11C 1_555 1_555
H9B H10A 1_555 1_555
H9B H10C 1_555 1_555
H9C H9A 1_555 1_555
H9C H10B 1_555 1_555
H9A H10B 1_555 1_555
H10A H10C 1_555 1_555
C9A C9B 1_555 1_555
C9A H11A 1_555 1_555
C9A H11B 1_555 1_555
C9A H12A 1_555 1_555
C9A H12B 1_555 1_555
C9B H11A 1_555 1_555
C9B H11B 1_555 1_555
C9B H12A 1_555 1_555
C9B H12B 1_555 1_555
C9C H11C 1_555 1_555
C9C H12C 1_555 1_555
H11A H11B 1_555 1_555
H12A H13A 1_555 1_555
H12B H13B 1_555 1_555
H12C H13C 1_555 1_555
C10A H14A 1_555 1_555
C10A H15A 1_555 1_555
C10A H15C 1_555 1_555
C10A H15B 1_555 1_555
C10A H16A 1_555 1_555
C10A H16C 1_555 1_555
C10A H16B 1_555 1_555
H14A H16C 1_555 1_555
H15A H15C 1_555 1_555
H15A H16B 1_555 1_555
H15B H16A 1_555 1_555
S1A C11A 1_555 1_555
C11A C13A 1_555 1_555

#END
