
#######################################################################
#
#                 Cambridge Crystallographic Data Centre
#                                CCDC 
#
#######################################################################
#
# If this CIF has been generated from an entry in the Cambridge 
# Structural Database, then it will include bibliographic, chemical, 
# crystal, experimental, refinement or atomic coordinate data resulting 
# from the CCDC's data processing and validation procedures.
#
#######################################################################

data_DERGOX
_chemical_formula_moiety         '2(C1 H6 N3 1+),C10 H12 O6 S2 2-,C10 H14'
_chemical_name_systematic        
'bis(Guanidinium) 2,4,5,6-tetramethylbenzene-1,3-disulfonate 1,2,3,5-tetramethylbenzene clathrate'
_symmetry_cell_setting           monoclinic
_symmetry_space_group_name_H-M   'C 2'
_symmetry_Int_Tables_number      5
_space_group_name_Hall           'C 2y'
loop_
_symmetry_equiv_pos_site_id
_symmetry_equiv_pos_as_xyz
1 x,y,z
2 -x,y,-z
3 1/2+x,1/2+y,z
4 1/2-x,1/2+y,-z
_cell_length_a                   19.929(4)
_cell_length_b                   9.2969(19)
_cell_length_c                   7.5807(15)
_cell_angle_alpha                90
_cell_angle_beta                 107.757(4)
_cell_angle_gamma                90
_cell_volume                     1337.62
_exptl_crystal_colour            colorless
_exptl_crystal_description       prism
_cell_formula_units_Z            2
loop_
_atom_site_label
_atom_site_type_symbol
_atom_site_fract_x
_atom_site_fract_y
_atom_site_fract_z
S1 S 0.643745(19) 0.74994(5) 0.64639(5)
O1 O 0.70283(6) 0.85040(15) 0.69214(18)
C1 C 0.56248(8) 0.84988(18) 0.5760(2)
O2 O 0.64381(6) 0.66112(13) 0.48734(16)
C2 C 0.56198(8) 1.00057(19) 0.5934(2)
O3 O 0.64329(7) 0.66292(13) 0.80695(17)
C3 C 0.5000 1.0752(3) 0.5000
C4 C 0.5000 0.7708(3) 0.5000
C5 C 0.62382(10) 1.0868(2) 0.7139(3)
H1 H 0.6522 1.1201 0.6400
H2 H 0.6518 1.0269 0.8121
H3 H 0.6066 1.1677 0.7657
C6 C 0.5000 1.2386(3) 0.5000
C7 C 0.5000 0.6080(3) 0.5000
S1A S 0.356255(19) 0.74994(5) 0.35361(5)
O1A O 0.29717(6) 0.85040(15) 0.30786(18)
C1A C 0.43752(8) 0.84988(18) 0.4240(2)
O2A O 0.35619(6) 0.66112(13) 0.51266(16)
C2A C 0.43802(8) 1.00057(19) 0.4066(2)
O3A O 0.35671(7) 0.66292(13) 0.19305(17)
C5A C 0.37618(10) 1.0868(2) 0.2861(3)
H1A H 0.3478 1.1201 0.3600
H2A H 0.3482 1.0269 0.1879
H3A H 0.3934 1.1677 0.2343
N1 N 0.72691(8) 0.39929(18) 0.89881(19)
H4 H 0.7422 0.3665 1.0100
H5 H 0.6935 0.4618 0.8706
N2 N 0.73026(8) 0.40272(18) 0.59839(19)
H6 H 0.7478 0.3721 0.5147
H7 H 0.6969 0.4652 0.5705
N3 N 0.80612(7) 0.2575(2) 0.81345(18)
H8 H 0.8215 0.2245 0.9245
H9 H 0.8241 0.2281 0.7302
C8 C 0.75485(9) 0.35345(19) 0.7708(2)
C9 C 1.0000 0.6483(3) 1.0000
C10 C 0.93893(10) 0.7249(2) 0.9049(2)
C11 C 0.94003(10) 0.8743(2) 0.9066(3)
H10 H 0.8994 0.9243 0.8434
C12 C 1.0000 0.9510(3) 1.0000
C13 C 1.0000 0.4856(3) 1.0000
C14 C 0.87198(11) 0.6479(3) 0.7971(3)
H11 H 0.8375 0.7172 0.7324
H12 H 0.8540 0.5944 0.8811
H13 H 0.8820 0.5833 0.7096
C15 C 1.0000 1.1131(3) 1.0000
C10A C 1.06107(10) 0.7249(2) 1.0951(2)
C11A C 1.05997(10) 0.8743(2) 1.0934(3)
H10A H 1.1006 0.9243 1.1566
C14A C 1.12802(11) 0.6479(3) 1.2029(3)
H11A H 1.1625 0.7172 1.2676
H12A H 1.1460 0.5944 1.1189
H13A H 1.1180 0.5833 1.2904
H14? H 0.5317 1.2730 0.6145
H15? H 0.4533 1.2730 0.4869
H16? H 0.5149 1.2730 0.3986
H17? H 0.5449 0.5736 0.4959
H18? H 0.4637 0.5736 0.3936
H19? H 0.4914 0.5736 0.6106
H20? H 1.0422 0.4511 0.9784
H21? H 0.9597 0.4511 0.9038
H22? H 0.9981 0.4511 1.1177
H23? H 0.9636 1.1475 0.8937
H24? H 1.0449 1.1475 0.9956
H25? H 0.9915 1.1475 1.1107
loop_
_geom_bond_atom_site_label_1
_geom_bond_atom_site_label_2
_geom_bond_site_symmetry_1
_geom_bond_site_symmetry_2
S1 O1 1_555 1_555
C1 S1 1_555 1_555
O2 S1 1_555 1_555
C2 C1 1_555 1_555
O3 S1 1_555 1_555
C3 C2 1_555 1_555
C4 C1 1_555 1_555
C5 C2 1_555 1_555
H1 C5 1_555 1_555
H2 C5 1_555 1_555
H3 C5 1_555 1_555
C6 C3 1_555 1_555
C7 C4 1_555 1_555
N1 H4 1_555 1_555
H5 N1 1_555 1_555
N2 H6 1_555 1_555
H7 N2 1_555 1_555
N3 H8 1_555 1_555
H9 N3 1_555 1_555
C8 N1 1_555 1_555
C9 C10 1_555 1_555
C10 C11 1_555 1_555
C11 H10 1_555 1_555
C12 C11 1_555 1_555
C13 C9 1_555 1_555
C14 C10 1_555 1_555
H11 C14 1_555 1_555
H12 C14 1_555 1_555
H13 C14 1_555 1_555
C15 C12 1_555 1_555
S1A O1A 1_555 1_555
C1A C4 1_555 1_555
O2A S1A 1_555 1_555
C2A C3 1_555 1_555
O3A S1A 1_555 1_555
C5A C2A 1_555 1_555
H1A C5A 1_555 1_555
H2A C5A 1_555 1_555
H3A C5A 1_555 1_555
C10A C9 1_555 1_555
C11A C12 1_555 1_555
H10A C11A 1_555 1_555
C14A C10A 1_555 1_555
H11A C14A 1_555 1_555
H12A C14A 1_555 1_555
H13A C14A 1_555 1_555
N2 C8 1_555 1_555
N3 C8 1_555 1_555
S1A C1A 1_555 1_555
C1A C2A 1_555 1_555
C10A C11A 1_555 1_555

#END
