
#######################################################################
#
#                 Cambridge Crystallographic Data Centre
#                                CCDC 
#
#######################################################################
#
# If this CIF has been generated from an entry in the Cambridge 
# Structural Database, then it will include bibliographic, chemical, 
# crystal, experimental, refinement or atomic coordinate data resulting 
# from the CCDC's data processing and validation procedures.
#
#######################################################################

data_DESBUZ
_chemical_formula_moiety         'C23 H21 Cl2 N1 O1'
_chemical_name_systematic        
(+-)-2,4-Dichloro-6-((RS)-phenyl((1RS)-1,2,3,4-tetrahydronaphthalen-1-ylamino)methyl)phenol
_symmetry_cell_setting           triclinic
_symmetry_space_group_name_H-M   'P -1'
_symmetry_Int_Tables_number      2
_space_group_name_Hall           '-P 1'
loop_
_symmetry_equiv_pos_site_id
_symmetry_equiv_pos_as_xyz
1 x,y,z
2 -x,-y,-z
_cell_length_a                   9.3022(8)
_cell_length_b                   10.0796(8)
_cell_length_c                   12.4308(16)
_cell_angle_alpha                106.943(2)
_cell_angle_beta                 107.763(2)
_cell_angle_gamma                103.657(2)
_cell_volume                     991.923
_exptl_crystal_colour            colorless
_exptl_crystal_description       block
_chemical_melting_point          '475-476 K'
_cell_formula_units_Z            2
_exptl_crystal_recrystallization_method methanol
loop_
_atom_site_label
_atom_site_type_symbol
_atom_site_fract_x
_atom_site_fract_y
_atom_site_fract_z
Cl1 Cl 0.29306(8) -0.08850(7) 0.21970(6)
Cl2 Cl 0.89436(9) 0.28816(10) 0.36061(7)
O1 O 0.30884(19) 0.1060(2) 0.44869(16)
H1 H 0.3168 0.1640 0.5140
N1 N 0.4687(2) 0.2926(2) 0.67570(17)
H2 H 0.5364 0.2488 0.7112
C1 C 0.4469(3) 0.1510(3) 0.4334(2)
C2 C 0.4592(3) 0.0672(3) 0.3281(2)
C3 C 0.5960(3) 0.1070(3) 0.3054(2)
H3 H 0.6027 0.0485 0.2351
C4 C 0.7217(3) 0.2352(3) 0.3893(2)
C5 C 0.7133(3) 0.3232(3) 0.4940(2)
H4 H 0.7997 0.4102 0.5490
C6 C 0.5758(3) 0.2823(3) 0.5176(2)
C7 C 0.5551(3) 0.3841(3) 0.6254(2)
H5 H 0.4822 0.4308 0.5904
C8 C 0.7087(3) 0.5103(3) 0.7211(2)
C9 C 0.7285(3) 0.6535(3) 0.7344(2)
H6 H 0.6460 0.6730 0.6844
C10 C 0.8679(4) 0.7702(3) 0.8200(3)
H7 H 0.8791 0.8667 0.8264
C11 C 0.9891(4) 0.7437(3) 0.8950(3)
H8 H 1.0824 0.8223 0.9535
C12 C 0.9732(3) 0.6012(4) 0.8839(3)
H9 H 1.0559 0.5829 0.9349
C13 C 0.8337(3) 0.4842(3) 0.7967(3)
H10 H 0.8239 0.3875 0.7888
C14 C 0.4045(3) 0.3720(3) 0.7611(2)
H11 H 0.4784 0.4754 0.8070
C15 C 0.2378(4) 0.3694(4) 0.6881(3)
H12 H 0.2115 0.4439 0.7400
H13 H 0.2405 0.3945 0.6189
C16 C 0.1074(3) 0.2183(4) 0.6413(3)
H14 H 0.0043 0.2197 0.5929
H15 H 0.1327 0.1436 0.5886
C17 C 0.0953(4) 0.1791(4) 0.7455(3)
H16 H 0.0278 0.0754 0.7136
H17 H 0.0428 0.2378 0.7848
C18 C 0.2564(3) 0.2044(3) 0.8403(3)
C19 C 0.2627(4) 0.1360(4) 0.9235(3)
H18 H 0.1672 0.0730 0.9175
C20 C 0.4053(5) 0.1593(4) 1.0132(3)
H19 H 0.4064 0.1111 1.0667
C21 C 0.5468(4) 0.2531(4) 1.0248(3)
H20 H 0.6441 0.2697 1.0864
C22 C 0.5442(3) 0.3228(3) 0.9446(2)
H21 H 0.6406 0.3876 0.9534
C23 C 0.4001(3) 0.2986(3) 0.8503(2)
loop_
_geom_bond_atom_site_label_1
_geom_bond_atom_site_label_2
_geom_bond_site_symmetry_1
_geom_bond_site_symmetry_2
Cl1 C2 1_555 1_555
Cl2 C4 1_555 1_555
O1 H1 1_555 1_555
N1 H2 1_555 1_555
C1 O1 1_555 1_555
C2 C1 1_555 1_555
C3 C2 1_555 1_555
H3 C3 1_555 1_555
C4 C3 1_555 1_555
C5 C4 1_555 1_555
H4 C5 1_555 1_555
C6 C1 1_555 1_555
C7 N1 1_555 1_555
H5 C7 1_555 1_555
C8 C7 1_555 1_555
C9 C8 1_555 1_555
H6 C9 1_555 1_555
C10 C9 1_555 1_555
H7 C10 1_555 1_555
C11 C10 1_555 1_555
H8 C11 1_555 1_555
C12 C11 1_555 1_555
H9 C12 1_555 1_555
C13 C8 1_555 1_555
H10 C13 1_555 1_555
C14 N1 1_555 1_555
H11 C14 1_555 1_555
C15 C14 1_555 1_555
H12 C15 1_555 1_555
H13 C15 1_555 1_555
C16 C15 1_555 1_555
H14 C16 1_555 1_555
H15 C16 1_555 1_555
C17 C16 1_555 1_555
H16 C17 1_555 1_555
H17 C17 1_555 1_555
C18 C17 1_555 1_555
C19 C18 1_555 1_555
H18 C19 1_555 1_555
C20 C19 1_555 1_555
H19 C20 1_555 1_555
C21 C20 1_555 1_555
H20 C21 1_555 1_555
C22 C21 1_555 1_555
H21 C22 1_555 1_555
C23 C14 1_555 1_555
C5 C6 1_555 1_555
C6 C7 1_555 1_555
C12 C13 1_555 1_555
C18 C23 1_555 1_555
C22 C23 1_555 1_555

#END
