
#######################################################################
#
#                 Cambridge Crystallographic Data Centre
#                                CCDC 
#
#######################################################################
#
# If this CIF has been generated from an entry in the Cambridge 
# Structural Database, then it will include bibliographic, chemical, 
# crystal, experimental, refinement or atomic coordinate data resulting 
# from the CCDC's data processing and validation procedures.
#
#######################################################################

data_DESWOQ
_chemical_formula_moiety         'C22 H17 Cl3 O4 S1'
_chemical_name_systematic        
8a-methyl-4-phenyl-3-((2,4,5-trichlorophenyl)sulfonyl)-4a,8a-dihydro-2H-chromen-6(5H)-one
_symmetry_cell_setting           monoclinic
_symmetry_space_group_name_H-M   'P 21/c'
_symmetry_Int_Tables_number      14
_space_group_name_Hall           '-P 2ybc'
loop_
_symmetry_equiv_pos_site_id
_symmetry_equiv_pos_as_xyz
1 x,y,z
2 -x,1/2+y,1/2-z
3 -x,-y,-z
4 x,1/2-y,1/2+z
_cell_length_a                   11.67602(16)
_cell_length_b                   7.85369(12)
_cell_length_c                   22.2897(3)
_cell_angle_alpha                90
_cell_angle_beta                 91.7413(13)
_cell_angle_gamma                90
_cell_volume                     2043.02
_exptl_crystal_colour            colorless
_exptl_crystal_description       plate
_cell_formula_units_Z            4
_exptl_crystal_recrystallization_method petrol/dichloromethane
loop_
_atom_site_label
_atom_site_type_symbol
_atom_site_fract_x
_atom_site_fract_y
_atom_site_fract_z
S1 S 0.73857(3) 0.24595(5) 0.61829(2)
O1 O 0.85386(9) 0.29675(15) 0.63392(5)
O2 O 0.66729(10) 0.36219(15) 0.58429(5)
C1 C 0.73896(12) 0.0513(2) 0.57790(7)
C2 C 0.67960(13) 0.0612(2) 0.51665(7)
H1 H 0.6118 0.1365 0.5187
H2 H 0.7325 0.1108 0.4875
O3 O 0.64468(9) -0.10339(14) 0.49704(5)
C3 C 0.73734(13) -0.2243(2) 0.49782(7)
C4 C 0.83008(14) -0.1600(2) 0.45785(7)
H3 H 0.8070 -0.1005 0.4224
C5 C 0.94177(14) -0.1809(2) 0.46885(7)
H4 H 0.9947 -0.1366 0.4413
C6 C 0.98505(14) -0.2709(2) 0.52255(7)
C7 C 0.89796(13) -0.3460(2) 0.56362(7)
H5 H 0.9304 -0.3446 0.6052
H6 H 0.8851 -0.4665 0.5522
C8 C 0.78133(13) -0.25401(19) 0.56285(7)
H7 H 0.7258 -0.3328 0.5818
C9 C 0.78437(12) -0.0920(2) 0.60038(7)
C10 C 0.67134(12) 0.2032(2) 0.68743(7)
C11 C 0.55998(13) 0.1387(2) 0.69076(7)
C12 C 0.51325(13) 0.1103(2) 0.74618(7)
H8 H 0.4379 0.0655 0.7485
C13 C 0.57621(13) 0.1471(2) 0.79842(7)
C14 C 0.68730(13) 0.2110(2) 0.79539(7)
C15 C 0.73414(13) 0.2378(2) 0.73976(7)
H9 H 0.8101 0.2803 0.7375
Cl1 Cl 0.47863(3) 0.08917(6) 0.62714(2)
Cl2 Cl 0.51488(3) 0.10776(6) 0.86616(2)
Cl3 Cl 0.76992(3) 0.24608(6) 0.85939(2)
C16 C 0.68572(16) -0.3854(2) 0.47016(8)
H10 H 0.6174 -0.4179 0.4920
H11 H 0.7421 -0.4777 0.4728
H12 H 0.6644 -0.3643 0.4280
O4 O 1.08777(10) -0.29095(18) 0.53203(6)
C17 C 0.82794(12) -0.1113(2) 0.66408(7)
C18 C 0.93156(13) -0.0427(2) 0.68542(7)
H13 H 0.9802 0.0145 0.6586
C19 C 0.96403(14) -0.0576(2) 0.74566(7)
H14 H 1.0343 -0.0090 0.7598
C20 C 0.89504(15) -0.1428(2) 0.78536(8)
H15 H 0.9174 -0.1518 0.8266
C21 C 0.79281(15) -0.2148(2) 0.76416(8)
H16 H 0.7452 -0.2739 0.7910
C22 C 0.76004(14) -0.2006(2) 0.70397(7)
H17 H 0.6908 -0.2521 0.6897
loop_
_geom_bond_atom_site_label_1
_geom_bond_atom_site_label_2
_geom_bond_site_symmetry_1
_geom_bond_site_symmetry_2
S1 O1 1_555 1_555
O2 S1 1_555 1_555
C1 S1 1_555 1_555
C2 C1 1_555 1_555
H1 C2 1_555 1_555
H2 C2 1_555 1_555
O3 C2 1_555 1_555
C3 O3 1_555 1_555
C4 C3 1_555 1_555
H3 C4 1_555 1_555
C5 C4 1_555 1_555
H4 C5 1_555 1_555
C6 C5 1_555 1_555
C7 C6 1_555 1_555
H5 C7 1_555 1_555
H6 C7 1_555 1_555
C8 C3 1_555 1_555
H7 C8 1_555 1_555
C9 C1 1_555 1_555
C10 S1 1_555 1_555
C11 C10 1_555 1_555
C12 C11 1_555 1_555
H8 C12 1_555 1_555
C13 C12 1_555 1_555
C14 C13 1_555 1_555
C15 C10 1_555 1_555
H9 C15 1_555 1_555
Cl1 C11 1_555 1_555
Cl2 C13 1_555 1_555
Cl3 C14 1_555 1_555
C16 C3 1_555 1_555
H10 C16 1_555 1_555
H11 C16 1_555 1_555
H12 C16 1_555 1_555
O4 C6 1_555 1_555
C17 C9 1_555 1_555
C18 C17 1_555 1_555
H13 C18 1_555 1_555
C19 C18 1_555 1_555
H14 C19 1_555 1_555
C20 C19 1_555 1_555
H15 C20 1_555 1_555
C21 C20 1_555 1_555
H16 C21 1_555 1_555
C22 C17 1_555 1_555
H17 C22 1_555 1_555
C7 C8 1_555 1_555
C8 C9 1_555 1_555
C14 C15 1_555 1_555
C21 C22 1_555 1_555

#END
