
#######################################################################
#
#                 Cambridge Crystallographic Data Centre
#                                CCDC 
#
#######################################################################
#
# If this CIF has been generated from an entry in the Cambridge 
# Structural Database, then it will include bibliographic, chemical, 
# crystal, experimental, refinement or atomic coordinate data resulting 
# from the CCDC's data processing and validation procedures.
#
#######################################################################

data_DESWUW
_chemical_formula_moiety         'C18 H20 O4 S1'
_chemical_name_systematic        
3-(ethylsulfonyl)-8a-methyl-4-phenyl-4a,8a-dihydro-2H-chromen-6(5H)-one
_symmetry_cell_setting           triclinic
_symmetry_space_group_name_H-M   'P -1'
_symmetry_Int_Tables_number      2
_space_group_name_Hall           '-P 1'
loop_
_symmetry_equiv_pos_site_id
_symmetry_equiv_pos_as_xyz
1 x,y,z
2 -x,-y,-z
_cell_length_a                   8.75606(14)
_cell_length_b                   8.87556(15)
_cell_length_c                   11.54687(18)
_cell_angle_alpha                79.0419(13)
_cell_angle_beta                 78.8805(13)
_cell_angle_gamma                74.6109(14)
_cell_volume                     839.746
_exptl_crystal_colour            colorless
_exptl_crystal_description       plate
_cell_formula_units_Z            2
_exptl_crystal_recrystallization_method petrol/dichloromethane
loop_
_atom_site_label
_atom_site_type_symbol
_atom_site_fract_x
_atom_site_fract_y
_atom_site_fract_z
S1 S 0.11567(4) 0.72829(4) 0.63151(3)
O1 O 0.35691(12) 0.99543(13) 1.12239(9)
O2 O 0.09481(13) 0.58521(12) 0.70850(10)
O3 O -0.01467(12) 0.81485(12) 0.56736(9)
C1 C 0.14779(15) 0.86326(15) 0.71423(11)
C2 C 0.00852(15) 1.00618(16) 0.72216(12)
H1 H 0.0098 1.0756 0.6441
H2 H -0.0932 0.9716 0.7403
O4 O 0.01559(11) 1.09272(11) 0.81182(8)
C3 C 0.17041(15) 1.12757(16) 0.80060(12)
C4 C 0.14676(17) 1.23571(17) 0.89240(13)
H3 H 0.0857 1.3410 0.8756
C5 C 0.20524(18) 1.19403(18) 0.99491(13)
H4 H 0.1910 1.2718 1.0448
C6 C 0.29153(16) 1.03054(18) 1.03347(12)
C7 C 0.28482(16) 0.90946(16) 0.96068(12)
H5 H 0.1834 0.8753 0.9887
H6 H 0.3744 0.8158 0.9734
C8 C 0.29523(15) 0.97285(16) 0.82693(11)
H7 H 0.4039 0.9941 0.7982
C9 C 0.28024(15) 0.84488(15) 0.76220(11)
C10 C 0.28987(18) 0.6842(2) 0.52349(14)
H8 H 0.3802 0.6198 0.5646
H9 H 0.2703 0.6203 0.4688
C11 C 0.33662(19) 0.8310(2) 0.45094(14)
H10 H 0.4010 0.8051 0.3748
H11 H 0.3993 0.8699 0.4954
H12 H 0.2397 0.9128 0.4358
C12 C 0.21665(18) 1.21602(17) 0.67674(13)
H13 H 0.2462 1.1428 0.6180
H14 H 0.3078 1.2601 0.6776
H15 H 0.1255 1.3018 0.6554
C13 C 0.41742(15) 0.70279(16) 0.76303(12)
C14 C 0.39404(17) 0.55476(17) 0.81741(13)
H16 H 0.2896 0.5435 0.8529
C15 C 0.52265(19) 0.42358(18) 0.82005(14)
H17 H 0.5055 0.3228 0.8564
C16 C 0.67561(19) 0.43892(19) 0.77006(15)
H18 H 0.7633 0.3489 0.7722
C17 C 0.70071(17) 0.58580(19) 0.71689(15)
H19 H 0.8057 0.5965 0.6824
C18 C 0.57218(17) 0.71788(18) 0.71396(13)
H20 H 0.5900 0.8186 0.6784
loop_
_geom_bond_atom_site_label_1
_geom_bond_atom_site_label_2
_geom_bond_site_symmetry_1
_geom_bond_site_symmetry_2
S1 O2 1_555 1_555
O1 C6 1_555 1_555
O3 S1 1_555 1_555
C1 S1 1_555 1_555
C2 C1 1_555 1_555
H1 C2 1_555 1_555
H2 C2 1_555 1_555
O4 C2 1_555 1_555
C3 O4 1_555 1_555
C4 C3 1_555 1_555
H3 C4 1_555 1_555
C5 C4 1_555 1_555
H4 C5 1_555 1_555
C6 C5 1_555 1_555
C7 C6 1_555 1_555
H5 C7 1_555 1_555
H6 C7 1_555 1_555
C8 C3 1_555 1_555
H7 C8 1_555 1_555
C9 C1 1_555 1_555
C10 S1 1_555 1_555
H8 C10 1_555 1_555
H9 C10 1_555 1_555
C11 C10 1_555 1_555
H10 C11 1_555 1_555
H11 C11 1_555 1_555
H12 C11 1_555 1_555
C12 C3 1_555 1_555
H13 C12 1_555 1_555
H14 C12 1_555 1_555
H15 C12 1_555 1_555
C13 C9 1_555 1_555
C14 C13 1_555 1_555
H16 C14 1_555 1_555
C15 C14 1_555 1_555
H17 C15 1_555 1_555
C16 C15 1_555 1_555
H18 C16 1_555 1_555
C17 C16 1_555 1_555
H19 C17 1_555 1_555
C18 C13 1_555 1_555
H20 C18 1_555 1_555
C7 C8 1_555 1_555
C8 C9 1_555 1_555
C17 C18 1_555 1_555

#END
