
#######################################################################
#
#                 Cambridge Crystallographic Data Centre
#                                CCDC 
#
#######################################################################
#
# If this CIF has been generated from an entry in the Cambridge 
# Structural Database, then it will include bibliographic, chemical, 
# crystal, experimental, refinement or atomic coordinate data resulting 
# from the CCDC's data processing and validation procedures.
#
#######################################################################

data_DETQAV
_chemical_compound_source        
'stems of Marsdenia tenacissima (Roxb.) Wight et Arn. (Ascl e piadaceae)'
_chemical_name_common            
(3beta,5alpha,11alpha,12beta,14beta)-3-((2,6-dideoxy-4-O-(6-deoxy-3-O-methyl-beta-D-allopyranosyl)-3-O-methyl-beta-D-arabino-hexopyranosyl)oxy)-11,12-dihydroxy-8,14-epoxypregnan-20-one
_chemical_formula_moiety         'C35 H56 O12'
_chemical_name_systematic        'Tenacigenoside A'
_chemical_properties_biological  
'parent plant has anti-inflammatory, anti-asthmatic and anticancer properties'
_symmetry_cell_setting           monoclinic
_symmetry_space_group_name_H-M   'P 21'
_symmetry_Int_Tables_number      4
_space_group_name_Hall           'P 2yb'
loop_
_symmetry_equiv_pos_site_id
_symmetry_equiv_pos_as_xyz
1 x,y,z
2 -x,1/2+y,-z
_cell_length_a                   12.555(2)
_cell_length_b                   6.435(1)
_cell_length_c                   21.828(4)
_cell_angle_alpha                90
_cell_angle_beta                 90.171(15)
_cell_angle_gamma                90
_cell_volume                     1763.51
_exptl_crystal_colour            colorless
_exptl_crystal_description       prisms
_chemical_melting_point          '144-146 deg.C'
_cell_formula_units_Z            2
loop_
_atom_site_label
_atom_site_type_symbol
_atom_site_fract_x
_atom_site_fract_y
_atom_site_fract_z
O1 O -0.16444(13) 0.8710(3) 0.82002(8)
O2 O 0.06087(13) 0.7653(4) 0.97476(8)
H1 H 0.0397 0.7777 1.0101
O3 O -0.12707(18) 0.8433(4) 1.02596(7)
H2 H -0.1183 0.9696 1.0248
O4 O -0.4407(2) 0.9612(6) 0.99926(12)
O5 O 0.37834(15) 0.6973(4) 0.73418(9)
O6 O 0.48354(15) 0.4137(4) 0.74523(8)
O7 O 0.65935(14) 0.1275(4) 0.64530(9)
O8 O 0.71727(14) 0.1193(4) 0.54730(8)
O9 O 0.64461(14) 0.5412(4) 0.58620(9)
O10 O 0.86633(16) 0.0084(5) 0.68715(9)
H3 H 0.8181 -0.0120 0.7117
O11 O 0.98409(15) 0.1684(4) 0.59396(9)
O12 O 0.97455(17) 0.0183(4) 0.47742(10)
H4 H 0.9921 -0.0913 0.4612
C1 C 0.19177(19) 0.7515(6) 0.86717(12)
H5 H 0.1985 0.6169 0.8868
H6 H 0.1913 0.8564 0.8991
C2 C 0.2889(2) 0.7870(6) 0.82582(13)
H7 H 0.2868 0.9275 0.8098
H8 H 0.3535 0.7726 0.8500
C3 C 0.29162(19) 0.6349(6) 0.77324(12)
H9 H 0.3057 0.4952 0.7892
C4 C 0.1875(2) 0.6336(6) 0.73808(12)
H10 H 0.1900 0.5264 0.7069
H11 H 0.1782 0.7663 0.7177
C5 C 0.0919(2) 0.5938(5) 0.78033(11)
H12 H 0.1050 0.4600 0.8005
C6 C -0.01120(19) 0.5697(6) 0.74423(11)
H13 H -0.0030 0.4590 0.7145
H14 H -0.0256 0.6973 0.7221
C7 C -0.1060(2) 0.5198(6) 0.78616(12)
H15 H -0.1714 0.5223 0.7625
H16 H -0.0975 0.3815 0.8031
C8 C -0.1128(2) 0.6761(5) 0.83742(11)
C9 C -0.00963(18) 0.6940(5) 0.87413(11)
H17 H 0.0069 0.5520 0.8873
C10 C 0.0855(2) 0.7599(5) 0.83228(11)
C11 C -0.02407(19) 0.8166(5) 0.93282(11)
H18 H -0.0223 0.9657 0.9237
C12 C -0.12879(19) 0.7626(5) 0.96513(11)
H19 H -0.1308 0.6109 0.9689
C13 C -0.2277(2) 0.8252(5) 0.92892(12)
C14 C -0.2163(2) 0.7349(5) 0.86341(11)
C15 C -0.32024(19) 0.6311(6) 0.84545(12)
H20 H -0.3120 0.4813 0.8441
H21 H -0.3440 0.6792 0.8056
C16 C -0.3999(2) 0.6942(7) 0.89540(12)
H22 H -0.4332 0.8264 0.8859
H23 H -0.4547 0.5894 0.9005
C17 C -0.3293(2) 0.7104(6) 0.95257(12)
H24 H -0.3085 0.5695 0.9647
C18 C 0.0686(2) 0.9787(5) 0.80742(12)
H25 H 0.1277 1.0166 0.7820
H26 H 0.0632 1.0747 0.8409
H27 H 0.0041 0.9826 0.7837
C19 C -0.2426(2) 1.0598(5) 0.92633(13)
H28 H -0.1833 1.1217 0.9055
H29 H -0.2466 1.1141 0.9672
H30 H -0.3072 1.0916 0.9047
C20 C -0.3850(2) 0.8117(7) 1.00642(15)
C21 C -0.3695(2) 0.7164(8) 1.06835(13)
H31 H -0.4083 0.7950 1.0983
H32 H -0.2951 0.7174 1.0786
H33 H -0.3950 0.5758 1.0679
C22 C 0.4251(2) 0.5346(6) 0.70229(12)
H34 H 0.3705 0.4495 0.6822
C23 C 0.5004(2) 0.6232(6) 0.65560(13)
H35 H 0.5490 0.7186 0.6757
H36 H 0.4601 0.7009 0.6253
C24 C 0.5637(2) 0.4540(5) 0.62376(12)
H37 H 0.5154 0.3715 0.5981
C25 C 0.6159(2) 0.3126(5) 0.67068(13)
H38 H 0.6723 0.3893 0.6921
C26 C 0.5331(2) 0.2384(5) 0.71745(12)
H39 H 0.4786 0.1569 0.6960
C27 C 0.7503(2) 0.1481(6) 0.60908(12)
H40 H 0.7828 0.2852 0.6147
C28 C 0.8273(2) -0.0219(6) 0.62626(12)
H41 H 0.7919 -0.1573 0.6232
C29 C 0.9239(2) -0.0168(5) 0.58367(13)
H42 H 0.9688 -0.1385 0.5914
C30 C 0.8867(2) -0.0180(6) 0.51742(12)
H43 H 0.8562 -0.1546 0.5081
C31 C 0.8034(2) 0.1469(6) 0.50522(12)
H44 H 0.8350 0.2846 0.5114
C32 C 0.5800(2) 0.1077(6) 0.76801(13)
H45 H 0.5258 0.0760 0.7975
H46 H 0.6367 0.1829 0.7876
H47 H 0.6075 -0.0191 0.7511
C33 C 0.6084(3) 0.6161(7) 0.52962(14)
H48 H 0.5691 0.7423 0.5358
H49 H 0.5631 0.5142 0.5108
H50 H 0.6683 0.6431 0.5035
C34 C 0.7555(3) 0.1356(8) 0.44131(13)
H51 H 0.7077 0.2503 0.4353
H52 H 0.7172 0.0074 0.4367
H53 H 0.8114 0.1420 0.4115
C35 C 1.0827(2) 0.1349(7) 0.62364(14)
H54 H 1.1265 0.0466 0.5988
H55 H 1.0707 0.0697 0.6626
H56 H 1.1180 0.2657 0.6298
loop_
_geom_bond_atom_site_label_1
_geom_bond_atom_site_label_2
_geom_bond_site_symmetry_1
_geom_bond_site_symmetry_2
O1 C8 1_555 1_555
O2 H1 1_555 1_555
O3 H2 1_555 1_555
O4 C20 1_555 1_555
O5 C3 1_555 1_555
O6 C22 1_555 1_555
O7 C25 1_555 1_555
O8 C27 1_555 1_555
O9 C24 1_555 1_555
O10 H3 1_555 1_555
O11 C29 1_555 1_555
O12 H4 1_555 1_555
C1 H5 1_555 1_555
H6 C1 1_555 1_555
C2 C1 1_555 1_555
H7 C2 1_555 1_555
H8 C2 1_555 1_555
C3 C2 1_555 1_555
H9 C3 1_555 1_555
C4 C3 1_555 1_555
H10 C4 1_555 1_555
H11 C4 1_555 1_555
C5 C4 1_555 1_555
H12 C5 1_555 1_555
C6 C5 1_555 1_555
H13 C6 1_555 1_555
H14 C6 1_555 1_555
C7 C6 1_555 1_555
H15 C7 1_555 1_555
H16 C7 1_555 1_555
C8 C7 1_555 1_555
C9 C8 1_555 1_555
H17 C9 1_555 1_555
C10 C1 1_555 1_555
C11 O2 1_555 1_555
H18 C11 1_555 1_555
C12 O3 1_555 1_555
H19 C12 1_555 1_555
C13 C12 1_555 1_555
C14 O1 1_555 1_555
C15 C14 1_555 1_555
H20 C15 1_555 1_555
H21 C15 1_555 1_555
C16 C15 1_555 1_555
H22 C16 1_555 1_555
H23 C16 1_555 1_555
C17 C13 1_555 1_555
H24 C17 1_555 1_555
C18 C10 1_555 1_555
H25 C18 1_555 1_555
H26 C18 1_555 1_555
H27 C18 1_555 1_555
C19 C13 1_555 1_555
H28 C19 1_555 1_555
H29 C19 1_555 1_555
H30 C19 1_555 1_555
C20 C17 1_555 1_555
C21 C20 1_555 1_555
H31 C21 1_555 1_555
H32 C21 1_555 1_555
H33 C21 1_555 1_555
C22 O5 1_555 1_555
H34 C22 1_555 1_555
C23 C22 1_555 1_555
H35 C23 1_555 1_555
H36 C23 1_555 1_555
C24 C23 1_555 1_555
H37 C24 1_555 1_555
C25 C24 1_555 1_555
H38 C25 1_555 1_555
C26 O6 1_555 1_555
H39 C26 1_555 1_555
C27 O7 1_555 1_555
H40 C27 1_555 1_555
C28 O10 1_555 1_555
H41 C28 1_555 1_555
C29 C28 1_555 1_555
H42 C29 1_555 1_555
C30 O12 1_555 1_555
H43 C30 1_555 1_555
C31 O8 1_555 1_555
H44 C31 1_555 1_555
C32 C26 1_555 1_555
H45 C32 1_555 1_555
H46 C32 1_555 1_555
H47 C32 1_555 1_555
C33 O9 1_555 1_555
H48 C33 1_555 1_555
H49 C33 1_555 1_555
H50 C33 1_555 1_555
C34 C31 1_555 1_555
H51 C34 1_555 1_555
H52 C34 1_555 1_555
H53 C34 1_555 1_555
C35 O11 1_555 1_555
H54 C35 1_555 1_555
H55 C35 1_555 1_555
H56 C35 1_555 1_555
C5 C10 1_555 1_555
C8 C14 1_555 1_555
C9 C10 1_555 1_555
C9 C11 1_555 1_555
C11 C12 1_555 1_555
C13 C14 1_555 1_555
C16 C17 1_555 1_555
C25 C26 1_555 1_555
C27 C28 1_555 1_555
C29 C30 1_555 1_555
C30 C31 1_555 1_555

#END
