
#######################################################################
#
#                 Cambridge Crystallographic Data Centre
#                                CCDC 
#
#######################################################################
#
# If this CIF has been generated from an entry in the Cambridge 
# Structural Database, then it will include bibliographic, chemical, 
# crystal, experimental, refinement or atomic coordinate data resulting 
# from the CCDC's data processing and validation procedures.
#
#######################################################################

data_DEVJAS
_chemical_formula_moiety         'C23 H25 N1 O8 S1'
_chemical_name_systematic        
'dimethyl 4-(1,2-dihydroxyethyl)-2-[(4-methylphenyl)sulfonyl]-1,4-dihydro-1,4-methanoisoquinoline-3,3(2H)-dicarboxylate'
_symmetry_cell_setting           triclinic
_symmetry_space_group_name_H-M   'P -1'
_symmetry_Int_Tables_number      2
_space_group_name_Hall           '-P 1'
loop_
_symmetry_equiv_pos_site_id
_symmetry_equiv_pos_as_xyz
1 x,y,z
2 -x,-y,-z
_cell_length_a                   9.3791(10)
_cell_length_b                   9.7208(11)
_cell_length_c                   12.6463(13)
_cell_angle_alpha                86.407(5)
_cell_angle_beta                 80.415(5)
_cell_angle_gamma                84.047(4)
_cell_volume                     1129.55
_exptl_crystal_colour            colorless
_exptl_crystal_description       Prism
_cell_formula_units_Z            2
loop_
_atom_site_label
_atom_site_type_symbol
_atom_site_fract_x
_atom_site_fract_y
_atom_site_fract_z
S1 S 1.10715(4) 0.49463(3) 0.72003(3)
O1 O 1.19477(13) 0.41308(12) 0.78739(9)
O2 O 1.00530(12) 0.43184(10) 0.67025(8)
O3 O 0.80867(13) 0.44200(11) 0.89334(9)
O4 O 0.64675(14) 0.53879(13) 0.79476(11)
O5 O 0.92684(11) 0.74061(11) 0.61804(8)
O6 O 0.69776(11) 0.79425(12) 0.69292(8)
O7 O 0.57645(11) 0.85034(11) 0.89475(9)
H1 H 0.5962 0.8246 0.8314
O8 O 0.52828(13) 0.87806(12) 1.11310(10)
H2 H 0.4940 0.9610 1.1073
N1 N 1.01277(12) 0.61477(11) 0.79186(9)
C1 C 1.22823(15) 0.57562(14) 0.62004(10)
C2 C 1.20149(16) 0.59096(16) 0.51585(11)
H3 H 1.1200 0.5540 0.4966
C3 C 1.29445(17) 0.66058(19) 0.43987(12)
H4 H 1.2764 0.6706 0.3679
C4 C 1.41362(17) 0.71618(19) 0.46602(13)
C5 C 1.44003(18) 0.6962(2) 0.57038(14)
H5 H 1.5224 0.7316 0.5896
C6 C 1.34935(17) 0.6259(2) 0.64719(12)
H6 H 1.3698 0.6120 0.7184
C7 C 1.5120(2) 0.7953(3) 0.38309(16)
H7 H 1.5396 0.8756 0.4154
H8 H 1.4610 0.8268 0.3231
H9 H 1.5994 0.7350 0.3568
C8 C 1.07287(14) 0.69281(14) 0.86956(10)
H10 H 1.1701 0.6549 0.8866
C9 C 1.05976(14) 0.84326(13) 0.83084(10)
C10 C 1.16123(15) 0.93138(15) 0.78356(11)
H11 H 1.2620 0.9013 0.7714
C11 C 1.11046(17) 1.06602(15) 0.75426(12)
H12 H 1.1780 1.1293 0.7232
C12 C 0.96360(17) 1.10903(14) 0.76962(12)
H13 H 0.9321 1.2014 0.7491
C13 C 0.86101(15) 1.01921(14) 0.81478(11)
H14 H 0.7600 1.0482 0.8235
C14 C 0.91083(14) 0.88670(13) 0.84640(10)
C15 C 0.83312(14) 0.76161(12) 0.89537(10)
C16 C 0.94709(15) 0.69233(13) 0.96262(10)
H15 H 0.9601 0.7494 1.0219
H16 H 0.9265 0.5978 0.9905
C17 C 0.85835(14) 0.65666(13) 0.79787(10)
C18 C 0.7649(2) 0.53477(16) 0.82981(13)
C19 C 0.5738(4) 0.4148(4) 0.8401(3)
H17 H 0.4811 0.4155 0.8140
H18 H 0.5561 0.4160 0.9187
H19 H 0.6360 0.3310 0.8177
C20 C 0.81728(14) 0.73671(14) 0.69717(10)
C21 C 0.8974(2) 0.8217(2) 0.52258(13)
H20 H 0.8289 0.7768 0.4886
H21 H 0.9881 0.8281 0.4722
H22 H 0.8552 0.9148 0.5424
C22 C 0.67839(14) 0.78115(13) 0.95624(11)
H23 H 0.6465 0.6875 0.9797
C23 C 0.67163(16) 0.86255(15) 1.05596(11)
H24 H 0.7371 0.8137 1.1029
H25 H 0.7054 0.9550 1.0349
C24? C 0.6953(3) 0.3405(3) 0.9245(3)
H26? H 0.7300 0.2682 0.9743
H27? H 0.6779 0.2982 0.8601
H28? H 0.6047 0.3894 0.9594
loop_
_geom_bond_atom_site_label_1
_geom_bond_atom_site_label_2
_geom_bond_site_symmetry_1
_geom_bond_site_symmetry_2
S1 O1 1_555 1_555
O2 S1 1_555 1_555
O3 C18 1_555 1_555
O4 C18 1_555 1_555
O5 C20 1_555 1_555
O6 C20 1_555 1_555
O7 H1 1_555 1_555
O8 H2 1_555 1_555
N1 S1 1_555 1_555
C1 S1 1_555 1_555
C2 C1 1_555 1_555
H3 C2 1_555 1_555
C3 C2 1_555 1_555
H4 C3 1_555 1_555
C4 C3 1_555 1_555
C5 C4 1_555 1_555
H5 C5 1_555 1_555
C6 C1 1_555 1_555
H6 C6 1_555 1_555
C7 C4 1_555 1_555
H7 C7 1_555 1_555
H8 C7 1_555 1_555
H9 C7 1_555 1_555
C8 N1 1_555 1_555
H10 C8 1_555 1_555
C9 C8 1_555 1_555
C10 C9 1_555 1_555
H11 C10 1_555 1_555
C11 C10 1_555 1_555
H12 C11 1_555 1_555
C12 C11 1_555 1_555
H13 C12 1_555 1_555
C13 C12 1_555 1_555
H14 C13 1_555 1_555
C14 C9 1_555 1_555
C15 C14 1_555 1_555
C16 C8 1_555 1_555
H15 C16 1_555 1_555
H16 C16 1_555 1_555
C17 N1 1_555 1_555
C18 C17 1_555 1_555
C19 O4 1_555 1_555
H17 C19 1_555 1_555
H18 C19 1_555 1_555
H19 C19 1_555 1_555
C20 C17 1_555 1_555
C21 O5 1_555 1_555
H20 C21 1_555 1_555
H21 C21 1_555 1_555
H22 C21 1_555 1_555
C22 O7 1_555 1_555
H23 C22 1_555 1_555
C23 O8 1_555 1_555
H24 C23 1_555 1_555
H25 C23 1_555 1_555
C5 C6 1_555 1_555
C13 C14 1_555 1_555
C15 C16 1_555 1_555
C15 C17 1_555 1_555
C15 C22 1_555 1_555
C22 C23 1_555 1_555

#END
