
#######################################################################
#
#                 Cambridge Crystallographic Data Centre
#                                CCDC 
#
#######################################################################
#
# If this CIF has been generated from an entry in the Cambridge 
# Structural Database, then it will include bibliographic, chemical, 
# crystal, experimental, refinement or atomic coordinate data resulting 
# from the CCDC's data processing and validation procedures.
#
#######################################################################

data_DEVVOQ
_chemical_formula_moiety         'C27 H24 Cl1 F1 N2 O7 S1'
_chemical_name_systematic        
2-(1-(4-Nitrobenzenecarbonato)cyclopropyl)-6-(3-fluorophenyl)-1-(4-chlorobenzenesulfonyl)piperidine
_symmetry_cell_setting           triclinic
_symmetry_space_group_name_H-M   'P -1'
_symmetry_Int_Tables_number      2
_space_group_name_Hall           '-P 1'
loop_
_symmetry_equiv_pos_site_id
_symmetry_equiv_pos_as_xyz
1 x,y,z
2 -x,-y,-z
_cell_length_a                   10.462(1)
_cell_length_b                   14.645(1)
_cell_length_c                   9.998(1)
_cell_angle_alpha                107.71(1)
_cell_angle_beta                 110.69(1)
_cell_angle_gamma                68.99(1)
_cell_volume                     1309.85
_exptl_crystal_colour            colorless
_exptl_crystal_description       plate
_cell_formula_units_Z            2
loop_
_atom_site_label
_atom_site_type_symbol
_atom_site_fract_x
_atom_site_fract_y
_atom_site_fract_z
N1 N 0.2788(2) 0.3278(2) -0.0592(2)
C1 C 0.4108(2) 0.2730(2) -0.1070(3)
C2 C 0.5126(3) 0.3386(2) -0.0570(3)
C3 C 0.5276(3) 0.3988(2) 0.0985(3)
C4 C 0.3827(3) 0.4588(2) 0.1215(3)
C5 C 0.2872(3) 0.3921(2) 0.0894(3)
C6 C 0.4756(2) 0.1698(2) -0.0693(3)
C7 C 0.5740(3) 0.1449(2) 0.0724(3)
C8 C 0.6257(3) 0.1094(3) -0.0626(4)
O1 O 0.3735(2) 0.1133(1) -0.1311(2)
C9 C 0.3479(3) 0.0790(2) -0.2752(3)
O2 O 0.2489(2) 0.0298(1) -0.3129(2)
O3 O 0.4025(2) 0.0864(2) -0.3558(2)
C10 C 0.1954(3) -0.0051(2) -0.4624(3)
C11 C 0.1190(4) 0.0597(2) -0.5552(3)
C12 C 0.0586(4) 0.0236(3) -0.6998(4)
C13 C 0.0798(3) -0.0781(2) -0.7465(3)
C14 C 0.1567(4) -0.1443(3) -0.6543(4)
C15 C 0.2151(4) -0.1069(2) -0.5091(4)
N2 N 0.0166(3) -0.1154(3) -0.9004(3)
O4 O 0.0675(4) -0.2045(3) -0.9487(4)
O5 O -0.0796(4) -0.0601(3) -0.9733(3)
C16 C 0.3279(3) 0.3281(2) 0.2028(3)
C17 C 0.4188(3) 0.3492(2) 0.3409(3)
C18 C 0.4470(4) 0.2908(3) 0.4395(3)
C19 C 0.3914(4) 0.2129(3) 0.4089(3)
C20 C 0.2987(3) 0.1939(3) 0.2712(3)
C21 C 0.2673(3) 0.2504(2) 0.1683(3)
F1 F 0.5336(3) 0.3144(2) 0.5743(2)
S1 S 0.12934(6) 0.35143(5) -0.18673(7)
O6 O 0.0165(2) 0.3893(2) -0.1196(2)
O7 O 0.1336(2) 0.2634(2) -0.3015(2)
C22 C 0.1285(2) 0.4478(2) -0.2589(3)
C23 C 0.1777(3) 0.4231(2) -0.3812(3)
C24 C 0.1850(3) 0.4986(3) -0.4322(3)
C25 C 0.1439(3) 0.5962(2) -0.3607(3)
C26 C 0.0915(3) 0.6222(2) -0.2422(3)
C27 C 0.0846(3) 0.5471(2) -0.1902(3)
Cl1 Cl 0.1590(1) 0.68985(7) -0.4232(1)
H1 H 0.3851 0.2581 -0.2215
H2 H 0.4746 0.3887 -0.1276
H3 H 0.6138 0.2918 -0.0649
H4 H 0.5880 0.4477 0.1180
H5 H 0.5796 0.3498 0.1716
H6 H 0.3333 0.5100 0.0517
H7 H 0.3961 0.4977 0.2305
H8 H 0.1870 0.4417 0.0955
H9 H 0.5608 0.0936 0.1168
H10 H 0.6094 0.2010 0.1571
H11 H 0.6972 0.1407 -0.0722
H12 H 0.6485 0.0333 -0.1124
H13 H 0.1070 0.1330 -0.5183
H14 H 0.0009 0.0699 -0.7690
H15 H 0.1700 -0.2177 -0.6916
H16 H 0.2707 -0.1528 -0.4390
H17 H 0.4627 0.4051 0.3684
H18 H 0.4164 0.1714 0.4825
H19 H 0.2538 0.1387 0.2457
H20 H 0.2011 0.2352 0.0694
H21 H 0.2074 0.3518 -0.4317
H22 H 0.2198 0.4823 -0.5202
H23 H 0.0590 0.6939 -0.1944
H24 H 0.0480 0.5643 -0.1032
loop_
_geom_bond_atom_site_label_1
_geom_bond_atom_site_label_2
_geom_bond_site_symmetry_1
_geom_bond_site_symmetry_2
N1 C1 1_555 1_555
C1 C2 1_555 1_555
C2 C3 1_555 1_555
C3 C4 1_555 1_555
C4 C5 1_555 1_555
C5 N1 1_555 1_555
C6 C1 1_555 1_555
C7 C6 1_555 1_555
C8 C6 1_555 1_555
O1 C6 1_555 1_555
C9 O1 1_555 1_555
O2 C9 1_555 1_555
O3 C9 1_555 1_555
C10 O2 1_555 1_555
C11 C10 1_555 1_555
C12 C11 1_555 1_555
C13 C12 1_555 1_555
C14 C13 1_555 1_555
C15 C10 1_555 1_555
N2 C13 1_555 1_555
O4 N2 1_555 1_555
O5 N2 1_555 1_555
C16 C5 1_555 1_555
C17 C16 1_555 1_555
C18 C17 1_555 1_555
C19 C18 1_555 1_555
C20 C19 1_555 1_555
C21 C16 1_555 1_555
F1 C18 1_555 1_555
S1 N1 1_555 1_555
O6 S1 1_555 1_555
O7 S1 1_555 1_555
C22 S1 1_555 1_555
C23 C22 1_555 1_555
C24 C23 1_555 1_555
C25 C24 1_555 1_555
C26 C25 1_555 1_555
C27 C22 1_555 1_555
Cl1 C25 1_555 1_555
H1 C1 1_555 1_555
H2 C2 1_555 1_555
H3 C2 1_555 1_555
H4 C3 1_555 1_555
H5 C3 1_555 1_555
H6 C4 1_555 1_555
H7 C4 1_555 1_555
H8 C5 1_555 1_555
H9 C7 1_555 1_555
H10 C7 1_555 1_555
H11 C8 1_555 1_555
H12 C8 1_555 1_555
H13 C11 1_555 1_555
H14 C12 1_555 1_555
H15 C14 1_555 1_555
H16 C15 1_555 1_555
H17 C17 1_555 1_555
H18 C19 1_555 1_555
H19 C20 1_555 1_555
H20 C21 1_555 1_555
H21 C23 1_555 1_555
H22 C24 1_555 1_555
H23 C26 1_555 1_555
H24 C27 1_555 1_555
C7 C8 1_555 1_555
C14 C15 1_555 1_555
C20 C21 1_555 1_555
C26 C27 1_555 1_555

#END
