
#######################################################################
#
#                 Cambridge Crystallographic Data Centre
#                                CCDC 
#
#######################################################################
#
# If this CIF has been generated from an entry in the Cambridge 
# Structural Database, then it will include bibliographic, chemical, 
# crystal, experimental, refinement or atomic coordinate data resulting 
# from the CCDC's data processing and validation procedures.
#
#######################################################################

data_DEVWEG
_chemical_formula_moiety         'C41 H58 O6'
_chemical_name_systematic        'Taiwaniadduct J'
_symmetry_cell_setting           monoclinic
_symmetry_space_group_name_H-M   'P 21'
_symmetry_Int_Tables_number      4
_space_group_name_Hall           'P 2yb'
loop_
_symmetry_equiv_pos_site_id
_symmetry_equiv_pos_as_xyz
1 x,y,z
2 -x,1/2+y,-z
_cell_length_a                   15.1834(20)
_cell_length_b                   7.9019(9)
_cell_length_c                   16.3430(15)
_cell_angle_alpha                90
_cell_angle_beta                 116.723(9)
_cell_angle_gamma                90
_cell_volume                     1751.36
_exptl_crystal_colour            colorless
_chemical_melting_point          132-134deg.C
_cell_formula_units_Z            2
_exptl_crystal_recrystallization_method 'ethyl acetate/hexane'
loop_
_atom_site_label
_atom_site_type_symbol
_atom_site_fract_x
_atom_site_fract_y
_atom_site_fract_z
C1 C 0.06437(24) 0.6774(5) 0.31028(23)
C2 C 0.1451(3) 0.7050(5) 0.40736(25)
C3 C 0.21395(25) 0.5548(6) 0.44263(23)
C4 C 0.16449(24) 0.3849(5) 0.44188(22)
C5 C 0.07874(22) 0.3663(5) 0.34497(20)
C6 C 0.01009(22) 0.2152(4) 0.32049(20)
C7 C -0.08382(21) 0.2553(4) 0.22962(19)
C8 C -0.06351(21) 0.4388(4) 0.20520(20)
C9 C 0.00677(22) 0.5143(4) 0.30438(21)
C10 C -0.15444(22) 0.5471(4) 0.15726(21)
C11 C -0.25505(22) 0.4828(4) 0.13824(21)
C12 C -0.27143(23) 0.3353(4) 0.19476(21)
C13 C -0.17884(23) 0.2252(4) 0.24241(20)
C14 C -0.32262(24) 0.3696(5) 0.25781(23)
C15 C -0.2606(3) 0.4247(6) 0.35639(25)
C16 C -0.3823(3) 0.2158(6) 0.2605(3)
C17 C 0.1360(3) 0.3727(6) 0.51986(23)
C18 C 0.2391(3) 0.2431(6) 0.4554(3)
C19 C -0.05475(25) 0.5444(5) 0.35558(23)
C20 C -0.22917(24) 0.0874(6) -0.11449(22)
C21 C -0.2759(3) 0.0432(6) -0.21610(24)
C22 C -0.3171(3) 0.1958(7) -0.27552(23)
C23 C -0.39475(25) 0.2844(6) -0.25544(22)
C24 C -0.35291(24) 0.3178(5) -0.15112(22)
C25 C -0.4270(3) 0.3987(6) -0.12509(23)
C26 C -0.3752(3) 0.4789(5) -0.03124(24)
C27 C -0.30672(22) 0.3625(5) 0.04645(21)
C28 C -0.24203(22) 0.2453(4) 0.01581(20)
C29 C -0.30210(22) 0.1683(5) -0.08490(21)
C30 C -0.19188(22) 0.0952(4) 0.07969(20)
C31 C -0.08999(22) 0.1147(4) 0.16166(20)
C32 C -0.00926(22) 0.1277(4) 0.13276(20)
C33 C 0.02540(24) 0.2750(5) 0.12553(22)
C34 C -0.01053(23) 0.4408(4) 0.14207(21)
C35 C 0.0272(3) -0.0355(5) 0.1113(3)
C36 C -0.35138(23) 0.2659(5) 0.10072(22)
C37 C -0.4091(3) 0.4614(7) -0.3011(3)
C38 C -0.4926(3) 0.1889(7) -0.2977(3)
C39 C -0.3742(3) 0.0326(6) -0.08483(25)
C40 C -0.2945(3) 0.7494(5) 0.1907(3)
C41 C -0.4865(4) 0.6157(11) -0.4363(4)
O1 O 0.02615(18) 0.08301 0.36114(15)
O2 O -0.14774(16) 0.6844(3) 0.12761(17)
O3 O -0.18004(17) 0.1053(3) 0.28758(15)
O4 O -0.32222(15) 0.6177(3) 0.12369(15)
O5 O -0.3645(3) 0.5823(6) -0.26730(23)
O6 O -0.47513(22) 0.4579(6) -0.38679(19)
H1 H 0.094 0.666 0.270
H2 H 0.021 0.772 0.290
H3 H 0.116 0.720 0.447
H4 H 0.182 0.804 0.411
H5 H 0.248 0.545 0.406
H6 H 0.264 0.577 0.503
H7 H 0.110 0.356 0.306
H8 H -0.368 0.459 0.229
H9 H -0.219 0.518 0.361
H10 H -0.301 0.452 0.385
H11 H -0.220 0.333 0.390
H12 H -0.425 0.180 0.200
H13 H -0.342 0.124 0.294
H14 H -0.425 0.248 0.286
H15 H 0.089 0.459 0.513
H16 H 0.104 0.268 0.517
H17 H 0.190 0.386 0.579
H18 H 0.260 0.248 0.409
H19 H 0.296 0.254 0.512
H20 H 0.210 0.135 0.452
H21 H -0.093 0.447 0.352
H22 H -0.014 0.572 0.418
H23 H -0.100 0.634 0.328
H24 H -0.199 -0.010 -0.079
H25 H -0.178 0.167 -0.103
H26 H -0.328 -0.036 -0.230
H27 H -0.228 -0.006 -0.231
H28 H -0.265 0.273 -0.266
H29 H -0.346 0.163 -0.338
H30 H -0.303 0.402 -0.137
H31 H -0.462 0.482 -0.170
H32 H -0.473 0.317 -0.126
H33 H -0.337 0.569 -0.036
H34 H -0.424 0.526 -0.016
H35 H -0.191 0.314 0.015
H36 H -0.236 0.065 0.104
H37 H -0.189 0.006 0.042
H38 H -0.077 0.012 0.195
H39 H 0.079 0.278 0.110
H40 H 0.043 0.517 0.168
H41 H -0.057 0.484 0.084
H42 H 0.078 -0.014 0.094
H43 H 0.054 -0.106 0.164
H44 H -0.025 -0.094 0.063
H45 H -0.417 0.301 0.085
H46 H -0.352 0.146 0.094
H47 H -0.542 0.238 -0.285
H48 H -0.518 0.180 -0.362
H49 H -0.484 0.076 -0.275
H50 H -0.420 0.081 -0.067
H51 H -0.409 -0.013 -0.145
H52 H -0.339 -0.055 -0.043
H53 H -0.346 0.831 0.172
H54 H -0.282 0.705 0.249
H55 H -0.237 0.804 0.196
H56 H -0.538 0.607 -0.497
H57 H -0.507 0.702 -0.408
H58 H -0.427 0.650 -0.437
loop_
_geom_bond_atom_site_label_1
_geom_bond_atom_site_label_2
_geom_bond_site_symmetry_1
_geom_bond_site_symmetry_2
C1 C2 1_555 1_555
C2 C3 1_555 1_555
C3 C4 1_555 1_555
C4 C5 1_555 1_555
C5 C6 1_555 1_555
C6 C7 1_555 1_555
C7 C8 1_555 1_555
C8 C9 1_555 1_555
C9 C1 1_555 1_555
C10 C8 1_555 1_555
C11 C10 1_555 1_555
C12 C11 1_555 1_555
C13 C7 1_555 1_555
C14 C12 1_555 1_555
C15 C14 1_555 1_555
C16 C14 1_555 1_555
C17 C4 1_555 1_555
C18 C4 1_555 1_555
C19 C9 1_555 1_555
C20 C21 1_555 1_555
C21 C22 1_555 1_555
C22 C23 1_555 1_555
C23 C24 1_555 1_555
C24 C25 1_555 1_555
C25 C26 1_555 1_555
C26 C27 1_555 1_555
C27 C11 1_555 1_555
C28 C27 1_555 1_555
C29 C20 1_555 1_555
C30 C28 1_555 1_555
C31 C7 1_555 1_555
C32 C31 1_555 1_555
C33 C32 1_555 1_555
C34 C8 1_555 1_555
C35 C32 1_555 1_555
C36 C12 1_555 1_555
C37 C23 1_555 1_555
C38 C23 1_555 1_555
C39 C29 1_555 1_555
C40 O4 1_555 1_555
C41 O6 1_555 1_555
O1 C6 1_555 1_555
O2 C10 1_555 1_555
O3 C13 1_555 1_555
O4 C11 1_555 1_555
O5 C37 1_555 1_555
O6 C37 1_555 1_555
H1 C1 1_555 1_555
H2 C1 1_555 1_555
H3 C2 1_555 1_555
H4 C2 1_555 1_555
H5 C3 1_555 1_555
H6 C3 1_555 1_555
H7 C5 1_555 1_555
H8 C14 1_555 1_555
H9 C15 1_555 1_555
H10 C15 1_555 1_555
H11 C15 1_555 1_555
H12 C16 1_555 1_555
H13 C16 1_555 1_555
H14 C16 1_555 1_555
H15 C17 1_555 1_555
H16 C17 1_555 1_555
H17 C17 1_555 1_555
H18 C18 1_555 1_555
H19 C18 1_555 1_555
H20 C18 1_555 1_555
H21 C19 1_555 1_555
H22 C19 1_555 1_555
H23 C19 1_555 1_555
H24 C20 1_555 1_555
H25 C20 1_555 1_555
H26 C21 1_555 1_555
H27 C21 1_555 1_555
H28 C22 1_555 1_555
H29 C22 1_555 1_555
H30 C24 1_555 1_555
H31 C25 1_555 1_555
H32 C25 1_555 1_555
H33 C26 1_555 1_555
H34 C26 1_555 1_555
H35 C28 1_555 1_555
H36 C30 1_555 1_555
H37 C30 1_555 1_555
H38 C31 1_555 1_555
H39 C33 1_555 1_555
H40 C34 1_555 1_555
H41 C34 1_555 1_555
H42 C35 1_555 1_555
H43 C35 1_555 1_555
H44 C35 1_555 1_555
H45 C36 1_555 1_555
H46 C36 1_555 1_555
H47 C38 1_555 1_555
H48 C38 1_555 1_555
H49 C38 1_555 1_555
H50 C39 1_555 1_555
H51 C39 1_555 1_555
H52 C39 1_555 1_555
H53 C40 1_555 1_555
H54 C40 1_555 1_555
H55 C40 1_555 1_555
H56 C41 1_555 1_555
H57 C41 1_555 1_555
H58 C41 1_555 1_555
C5 C9 1_555 1_555
C12 C13 1_555 1_555
C24 C29 1_555 1_555
C27 C36 1_555 1_555
C28 C29 1_555 1_555
C30 C31 1_555 1_555
C33 C34 1_555 1_555

#END
