
#######################################################################
#
#                 Cambridge Crystallographic Data Centre
#                                CCDC 
#
#######################################################################
#
# If this CIF has been generated from an entry in the Cambridge 
# Structural Database, then it will include bibliographic, chemical, 
# crystal, experimental, refinement or atomic coordinate data resulting 
# from the CCDC's data processing and validation procedures.
#
#######################################################################

data_DEWFIX
_chemical_formula_moiety         'C23 H15 N3'
_chemical_name_systematic        
4-[2-(4-{[(4-cyanophenyl)methylidene]amino}phenyl)ethenyl]benzonitrile
_symmetry_cell_setting           monoclinic
_symmetry_space_group_name_H-M   'P 21/n'
_symmetry_Int_Tables_number      14
_space_group_name_Hall           '-P 2yn'
loop_
_symmetry_equiv_pos_site_id
_symmetry_equiv_pos_as_xyz
1 x,y,z
2 1/2-x,1/2+y,1/2-z
3 -x,-y,-z
4 1/2+x,1/2-y,1/2+z
_cell_length_a                   8.6065(3)
_cell_length_b                   15.7285(6)
_cell_length_c                   12.9796(4)
_cell_angle_alpha                90
_cell_angle_beta                 94.129(3)
_cell_angle_gamma                90
_cell_volume                     1752.45
_exptl_crystal_colour            colorless
_exptl_crystal_description       block
_cell_formula_units_Z            4
loop_
_atom_site_label
_atom_site_type_symbol
_atom_site_fract_x
_atom_site_fract_y
_atom_site_fract_z
C1 C -0.0016(2) 0.40684(11) -0.30754(13)
H1 H -0.0287 0.4364 -0.3683
C2 C -0.07126(19) 0.31738(12) -0.16880(14)
H2 H -0.1459 0.2865 -0.1364
N1 N 1.02748(16) 0.38983(10) 0.13776(12)
C3 C 1.49462(19) 0.40587(12) 0.26267(13)
H3 H 1.5774 0.4112 0.2208
C4 C 0.19329(18) 0.36536(10) -0.17382(12)
C5 C 0.14922(19) 0.40835(11) -0.26512(13)
H4 H 0.2238 0.4388 -0.2982
C6 C 1.6798(2) 0.41124(13) 0.41309(13)
C7 C 1.24943(19) 0.39153(13) 0.38676(13)
H5 H 1.1664 0.3871 0.4285
C8 C 0.64762(19) 0.28603(12) 0.06340(14)
H6 H 0.5958 0.2356 0.0758
C9 C -0.2719(2) 0.35985(14) -0.30077(15)
C10 C 1.3984(2) 0.39968(12) 0.43168(14)
H7 H 1.4160 0.4007 0.5032
C11 C 0.35346(19) 0.37286(11) -0.12906(13)
H8 H 0.4162 0.4118 -0.1605
C12 C 1.06209(19) 0.37809(12) 0.23333(14)
H9 H 0.9842 0.3616 0.2752
C13 C 1.22110(18) 0.38975(11) 0.27990(13)
C14 C 0.80317(18) 0.43442(11) 0.02878(14)
H10 H 0.8557 0.4846 0.0159
C15 C 0.07922(19) 0.31950(11) -0.12680(14)
H11 H 0.1057 0.2899 -0.0660
C16 C 0.79389(19) 0.29934(12) 0.11082(13)
H12 H 0.8396 0.2578 0.1541
C17 C 1.34627(19) 0.39756(12) 0.21897(13)
H13 H 1.3289 0.3971 0.1474
C18 C -0.11309(18) 0.36109(11) -0.25946(13)
C19 C 0.57521(18) 0.34616(11) -0.00278(13)
C20 C 1.52218(19) 0.40635(11) 0.36927(13)
C21 C 0.41913(18) 0.33145(11) -0.05023(13)
H14 H 0.3609 0.2887 -0.0219
C22 C 0.65688(18) 0.42098(11) -0.01756(14)
H15 H 0.6111 0.4630 -0.0600
C23 C 0.87360(18) 0.37417(11) 0.09456(13)
N2 N 1.80725(19) 0.41465(14) 0.44454(13)
N3 N -0.4000(2) 0.35919(15) -0.33213(15)
loop_
_geom_bond_atom_site_label_1
_geom_bond_atom_site_label_2
_geom_bond_site_symmetry_1
_geom_bond_site_symmetry_2
C1 H1 1_555 1_555
C2 H2 1_555 1_555
N1 C12 1_555 1_555
C3 H3 1_555 1_555
C4 C5 1_555 1_555
C5 C1 1_555 1_555
H4 C5 1_555 1_555
C6 C20 1_555 1_555
C7 H5 1_555 1_555
C8 H6 1_555 1_555
C9 C18 1_555 1_555
C10 C7 1_555 1_555
H7 C10 1_555 1_555
C11 C4 1_555 1_555
H8 C11 1_555 1_555
C12 H9 1_555 1_555
C13 C7 1_555 1_555
C14 H10 1_555 1_555
C15 C2 1_555 1_555
H11 C15 1_555 1_555
C16 C8 1_555 1_555
H12 C16 1_555 1_555
C17 C3 1_555 1_555
H13 C17 1_555 1_555
C18 C1 1_555 1_555
C19 C8 1_555 1_555
C20 C3 1_555 1_555
C21 C11 1_555 1_555
H14 C21 1_555 1_555
C22 C14 1_555 1_555
H15 C22 1_555 1_555
C23 N1 1_555 1_555
N2 C6 1_555 1_555
N3 C9 1_555 1_555
C2 C18 1_555 1_555
C4 C15 1_555 1_555
C10 C20 1_555 1_555
C12 C13 1_555 1_555
C13 C17 1_555 1_555
C14 C23 1_555 1_555
C16 C23 1_555 1_555
C19 C21 1_555 1_555
C19 C22 1_555 1_555

#END
