
#######################################################################
#
#                 Cambridge Crystallographic Data Centre
#                                CCDC 
#
#######################################################################
#
# If this CIF has been generated from an entry in the Cambridge 
# Structural Database, then it will include bibliographic, chemical, 
# crystal, experimental, refinement or atomic coordinate data resulting 
# from the CCDC's data processing and validation procedures.
#
#######################################################################

data_DEWVOT
_chemical_formula_moiety         'C17 H18 O2'
_chemical_name_systematic        
2,2-dimethyl-2H,8'H-spiro[1-benzofuran-3,7'-bicyclo[4.2.0]oct[3]en]-8'-one
_symmetry_cell_setting           orthorhombic
_symmetry_space_group_name_H-M   'P b c a'
_symmetry_Int_Tables_number      61
_space_group_name_Hall           '-P 2ac 2ab'
loop_
_symmetry_equiv_pos_site_id
_symmetry_equiv_pos_as_xyz
1 x,y,z
2 1/2-x,-y,1/2+z
3 1/2+x,1/2-y,-z
4 -x,1/2+y,1/2-z
5 -x,-y,-z
6 1/2+x,y,1/2-z
7 1/2-x,1/2+y,z
8 x,1/2-y,1/2+z
_cell_length_a                   11.3187(5)
_cell_length_b                   13.4824(6)
_cell_length_c                   17.6262(9)
_cell_angle_alpha                90
_cell_angle_beta                 90
_cell_angle_gamma                90
_cell_volume                     2689.82
_exptl_crystal_colour            colorless
_exptl_crystal_description       block
_cell_formula_units_Z            8
loop_
_atom_site_label
_atom_site_type_symbol
_atom_site_fract_x
_atom_site_fract_y
_atom_site_fract_z
O1 O 0.24326(13) 0.08921(11) 0.52906(8)
O2 O 0.32497(15) 0.17766(12) 0.71378(9)
C1 C 0.14966(18) 0.15261(15) 0.53607(12)
C2 C 0.1092(2) 0.21490(16) 0.47977(13)
H1 H 0.1462 0.2181 0.4327
C3 C 0.0109(2) 0.27273(17) 0.49615(14)
H2 H -0.0190 0.3149 0.4591
C4 C -0.0434(2) 0.26905(16) 0.56607(14)
H3 H -0.1087 0.3090 0.5757
C5 C -0.00108(18) 0.20589(15) 0.62229(13)
H4 H -0.0373 0.2035 0.6696
C6 C 0.09557(17) 0.14684(14) 0.60668(11)
C7 C 0.16523(17) 0.07346(14) 0.65424(11)
C8 C 0.23251(19) 0.01579(15) 0.59109(12)
C9 C 0.1609(3) -0.06983(17) 0.55892(14)
H5 H 0.0804 -0.0492 0.5521
H6 H 0.1636 -0.1249 0.5934
H7 H 0.1934 -0.0894 0.5109
C10 C 0.3573(2) -0.0150(2) 0.61091(15)
H8 H 0.3960 -0.0400 0.5664
H9 H 0.3551 -0.0658 0.6490
H10 H 0.3999 0.0414 0.6299
C11 C 0.23347(19) 0.13230(15) 0.71418(12)
C12 C 0.1457(2) 0.10608(16) 0.77657(12)
H11 H 0.0895 0.1602 0.7852
C13 C 0.09342(19) 0.02655(15) 0.72168(12)
H12 H 0.0082 0.0359 0.7147
C14 C 0.1215(2) -0.07911(16) 0.74792(14)
H13 H 0.0580 -0.1021 0.7805
H14 H 0.1240 -0.1222 0.7039
C15 C 0.2358(2) -0.08812(19) 0.78994(14)
H15 H 0.2835 -0.1431 0.7812
C16 C 0.2706(2) -0.0208(2) 0.83867(14)
H16 H 0.3397 -0.0308 0.8661
C17 C 0.2008(2) 0.0715(2) 0.85064(13)
H17 H 0.2520 0.1231 0.8705
H18 H 0.1391 0.0592 0.8876
loop_
_geom_bond_atom_site_label_1
_geom_bond_atom_site_label_2
_geom_bond_site_symmetry_1
_geom_bond_site_symmetry_2
O1 C1 1_555 1_555
O2 C11 1_555 1_555
C1 C2 1_555 1_555
C2 H1 1_555 1_555
C3 C2 1_555 1_555
H2 C3 1_555 1_555
C4 C3 1_555 1_555
H3 C4 1_555 1_555
C5 C4 1_555 1_555
H4 C5 1_555 1_555
C6 C1 1_555 1_555
C7 C6 1_555 1_555
C8 O1 1_555 1_555
C9 C8 1_555 1_555
H5 C9 1_555 1_555
H6 C9 1_555 1_555
H7 C9 1_555 1_555
C10 C8 1_555 1_555
H8 C10 1_555 1_555
H9 C10 1_555 1_555
H10 C10 1_555 1_555
C11 C7 1_555 1_555
C12 C11 1_555 1_555
H11 C12 1_555 1_555
C13 C7 1_555 1_555
H12 C13 1_555 1_555
C14 C13 1_555 1_555
H13 C14 1_555 1_555
H14 C14 1_555 1_555
C15 C14 1_555 1_555
H15 C15 1_555 1_555
C16 C15 1_555 1_555
H16 C16 1_555 1_555
C17 C12 1_555 1_555
H17 C17 1_555 1_555
H18 C17 1_555 1_555
C5 C6 1_555 1_555
C7 C8 1_555 1_555
C12 C13 1_555 1_555
C16 C17 1_555 1_555

#END
