
#######################################################################
#
#                 Cambridge Crystallographic Data Centre
#                                CCDC 
#
#######################################################################
#
# If this CIF has been generated from an entry in the Cambridge 
# Structural Database, then it will include bibliographic, chemical, 
# crystal, experimental, refinement or atomic coordinate data resulting 
# from the CCDC's data processing and validation procedures.
#
#######################################################################

data_DEXROQ
_chemical_formula_moiety         'C23 H15 Cl1 N2 O2,C3 H7 N1 O1'
_chemical_name_systematic        
'6-(4-chlorophenyl)-10-methyl-2H,11H-[1,3]dioxolo[4,5-g]indolo[3,2-c]quinoline N,N-dimethylformamide solvate'
_symmetry_cell_setting           triclinic
_symmetry_space_group_name_H-M   'P -1'
_symmetry_Int_Tables_number      2
_space_group_name_Hall           '-P 1'
loop_
_symmetry_equiv_pos_site_id
_symmetry_equiv_pos_as_xyz
1 x,y,z
2 -x,-y,-z
_cell_length_a                   9.4529(15)
_cell_length_b                   10.0575(15)
_cell_length_c                   12.5093(19)
_cell_angle_alpha                71.006(2)
_cell_angle_beta                 85.428(2)
_cell_angle_gamma                83.096(2)
_cell_volume                     1115.34
_exptl_crystal_colour            'pale yellow'
_exptl_crystal_description       block
_cell_formula_units_Z            2
loop_
_atom_site_label
_atom_site_type_symbol
_atom_site_fract_x
_atom_site_fract_y
_atom_site_fract_z
Cl1 Cl 0.25663(8) 0.94949(6) 0.97373(5)
C1 C 0.09256(17) 0.37567(16) 0.69778(13)
O1 O -0.05136(15) 0.11288(13) 0.54745(11)
N1 N 0.12780(15) 0.46052(14) 0.75619(11)
C2 C 0.13924(16) 0.39171(15) 0.58424(13)
N2 N 0.29543(14) 0.53521(14) 0.42945(11)
O2 O -0.12601(14) 0.08265(13) 0.73341(11)
C3 C 0.23188(16) 0.49740(16) 0.53507(12)
C4 C 0.37997(16) 0.64194(16) 0.41883(13)
C5 C 0.21173(17) 0.56151(16) 0.70559(13)
C6 C 0.09436(18) 0.30478(16) 0.52630(14)
H1 H 0.1247 0.3142 0.4519
C7 C 0.37030(16) 0.67399(16) 0.52093(13)
C8 C 0.00606(18) 0.20836(16) 0.58419(14)
C9 C 0.27119(16) 0.58190(16) 0.59511(13)
C10 C 0.00056(18) 0.27041(17) 0.75538(14)
H2 H -0.0304 0.2568 0.8303
C11 C -0.03996(18) 0.19098(17) 0.69667(14)
C12 C 0.23173(17) 0.65782(17) 0.77073(13)
C13 C 0.45263(18) 0.77585(17) 0.53047(15)
H3 H 0.4509 0.7970 0.5977
C14 C 0.20606(18) 0.80302(18) 0.72222(14)
H4 H 0.1829 0.8405 0.6467
C15 C 0.21428(18) 0.89280(18) 0.78391(15)
H5 H 0.1972 0.9901 0.7505
C16 C 0.46369(18) 0.71132(18) 0.32446(14)
C17 C 0.26678(19) 0.60435(18) 0.88330(14)
H6 H 0.2849 0.5072 0.9170
C18 C 0.53626(19) 0.84419(19) 0.43845(16)
H7 H 0.5913 0.9122 0.4438
C19 C 0.24815(19) 0.83642(19) 0.89563(15)
C20 C 0.2751(2) 0.6927(2) 0.94589(15)
H8 H 0.2988 0.6558 1.0214
C21 C -0.1393(2) 0.0362(2) 0.63884(16)
H9 H -0.1098 -0.0642 0.6582
H10 H -0.2379 0.0527 0.6174
C22 C 0.54005(19) 0.81351(19) 0.33761(16)
H11 H 0.5961 0.8636 0.2767
C23 C 0.4684(2) 0.6772(2) 0.21678(16)
H12 H 0.5394 0.7273 0.1652
H13 H 0.3769 0.7050 0.1836
H14 H 0.4918 0.5774 0.2321
H15 H 0.291(2) 0.496(2) 0.3788(16)
N3 N 0.22846(16) 0.28235(16) 0.13900(13)
O3 O 0.2781(2) 0.3882(2) 0.26274(14)
C24 C 0.1980(2) 0.3686(2) 0.19919(17)
H16 H 0.1080 0.4186 0.1926
C25 C 0.1251(3) 0.2632(3) 0.06739(19)
H17 H 0.0408 0.3265 0.0680
H18 H 0.1011 0.1674 0.0952
H19 H 0.1649 0.2828 -0.0085
C26 C 0.3633(3) 0.2007(3) 0.1426(3)
H20 H 0.4215 0.2180 0.1953
H21 H 0.4099 0.2272 0.0688
H22 H 0.3494 0.1022 0.1663
loop_
_geom_bond_atom_site_label_1
_geom_bond_atom_site_label_2
_geom_bond_site_symmetry_1
_geom_bond_site_symmetry_2
Cl1 C19 1_555 1_555
C1 N1 1_555 1_555
O1 C8 1_555 1_555
N1 C5 1_555 1_555
C2 C1 1_555 1_555
N2 C3 1_555 1_555
O2 C11 1_555 1_555
C3 C2 1_555 1_555
C4 N2 1_555 1_555
C5 C9 1_555 1_555
C6 C2 1_555 1_555
H1 C6 1_555 1_555
C7 C4 1_555 1_555
C8 C6 1_555 1_555
C9 C3 1_555 1_555
C10 C1 1_555 1_555
H2 C10 1_555 1_555
C11 C8 1_555 1_555
C12 C5 1_555 1_555
C13 C7 1_555 1_555
H3 C13 1_555 1_555
C14 C12 1_555 1_555
H4 C14 1_555 1_555
C15 C14 1_555 1_555
H5 C15 1_555 1_555
C16 C4 1_555 1_555
C17 C12 1_555 1_555
H6 C17 1_555 1_555
C18 C13 1_555 1_555
H7 C18 1_555 1_555
C19 C15 1_555 1_555
C20 C17 1_555 1_555
H8 C20 1_555 1_555
C21 O1 1_555 1_555
H9 C21 1_555 1_555
H10 C21 1_555 1_555
C22 C16 1_555 1_555
H11 C22 1_555 1_555
C23 C16 1_555 1_555
H12 C23 1_555 1_555
H13 C23 1_555 1_555
H14 C23 1_555 1_555
H15 N2 1_555 1_555
N3 C24 1_555 1_555
O3 C24 1_555 1_555
C24 H16 1_555 1_555
C25 N3 1_555 1_555
H17 C25 1_555 1_555
H18 C25 1_555 1_555
H19 C25 1_555 1_555
C26 N3 1_555 1_555
H20 C26 1_555 1_555
H21 C26 1_555 1_555
H22 C26 1_555 1_555
O2 C21 1_555 1_555
C7 C9 1_555 1_555
C10 C11 1_555 1_555
C18 C22 1_555 1_555
C19 C20 1_555 1_555

#END
