
#######################################################################
#
#                 Cambridge Crystallographic Data Centre
#                                CCDC 
#
#######################################################################
#
# If this CIF has been generated from an entry in the Cambridge 
# Structural Database, then it will include bibliographic, chemical, 
# crystal, experimental, refinement or atomic coordinate data resulting 
# from the CCDC's data processing and validation procedures.
#
#######################################################################

data_DEYYOX
_chemical_formula_moiety         'C29 H25 N3 O10'
_chemical_name_systematic        
'5-(((4-Nitrobenzoyl)oxy)methyl)-2-oxo-4-(1-phenylethyl)hexahydro-2H-furo[3,2-b]pyrrol-6-yl 4-nitrobenzoate'
_symmetry_cell_setting           monoclinic
_symmetry_space_group_name_H-M   'P 21/c'
_symmetry_Int_Tables_number      14
_space_group_name_Hall           '-P 2ybc'
loop_
_symmetry_equiv_pos_site_id
_symmetry_equiv_pos_as_xyz
1 x,y,z
2 -x,1/2+y,1/2-z
3 -x,-y,-z
4 x,1/2-y,1/2+z
_cell_length_a                   9.4026(2)
_cell_length_b                   32.1434(7)
_cell_length_c                   9.1405(2)
_cell_angle_alpha                90
_cell_angle_beta                 110.9000(10)
_cell_angle_gamma                90
_cell_volume                     2580.78
_exptl_crystal_colour            colorless
_exptl_crystal_description       Block
_cell_formula_units_Z            4
loop_
_atom_site_label
_atom_site_type_symbol
_atom_site_fract_x
_atom_site_fract_y
_atom_site_fract_z
O1 O -0.33266(12) 0.01265(3) -0.32012(11)
O2 O 0.00229(9) 0.17074(2) 0.18273(9)
O3 O 0.05691(9) 0.11358(2) 0.43801(9)
O4 O -0.15349(11) -0.06392(3) 0.00960(11)
O5 O -0.43085(11) -0.00773(3) -0.15215(12)
O6 O 0.16288(10) 0.22208(2) 0.07675(9)
O7 O 0.18067(11) 0.18895(3) -0.12935(10)
O8 O -0.07290(10) 0.09587(3) 0.59276(10)
O9 O -0.28077(11) -0.08459(3) 0.15303(12)
O10 O -0.19770(10) 0.17549(3) 0.26457(10)
N1 N -0.36260(11) 0.01794(3) -0.20174(12)
N2 N -0.19919(12) -0.05950(3) 0.11892(12)
N3 N 0.29971(10) 0.15640(3) 0.40092(10)
C1 C -0.31229(12) 0.05664(3) -0.11192(13)
C2 C -0.20572(12) 0.08117(4) -0.14399(13)
H1 H -0.1724 0.0745 -0.2277
C3 C -0.14907(12) 0.11576(4) -0.05077(13)
H2 H -0.0738 0.1327 -0.0683
C4 C -0.20283(12) 0.12565(3) 0.06866(13)
C5 C -0.13670(13) 0.16028(4) 0.18120(13)
C6 C 0.08960(13) 0.20023(3) 0.29984(13)
H3 H 0.0250 0.2228 0.3187
C7 C 0.18799(12) 0.17855(3) 0.45101(12)
H4 H 0.2436 0.2005 0.5273
C8 C 0.10638(13) 0.15110(3) 0.53051(12)
H5 H 0.1758 0.1439 0.6375
H6 H 0.0174 0.1660 0.5388
C9 C -0.03191(12) 0.08849(3) 0.48446(12)
C10 C -0.07350(12) 0.05004(3) 0.38659(12)
C11 C -0.18444(13) 0.02419(4) 0.40563(13)
H7 H -0.2320 0.0315 0.4779
C12 C -0.22553(13) -0.01219(4) 0.31905(14)
H8 H -0.3003 -0.0303 0.3316
C13 C -0.15460(13) -0.02139(3) 0.21393(13)
C14 C -0.37030(13) 0.06621(4) 0.00361(14)
H9 H -0.4450 0.0491 0.0212
C15 C -0.31604(13) 0.10148(4) 0.09234(14)
H10 H -0.3561 0.1094 0.1701
C16 C 0.42822(12) 0.13624(3) 0.52498(12)
H11 H 0.3830 0.1191 0.5887
C17 C 0.53672(12) 0.16709(3) 0.63727(12)
C18 C 0.66787(14) 0.18167(4) 0.61572(14)
H12 H 0.6933 0.1717 0.5304
C19 C 0.76155(16) 0.21071(4) 0.71821(15)
H13 H 0.8509 0.2202 0.7028
C20 C 0.72567(16) 0.22592(4) 0.84256(15)
H14 H 0.7889 0.2462 0.9108
C21 C 0.59699(15) 0.21142(4) 0.86682(14)
H15 H 0.5724 0.2215 0.9525
C22 C 0.50381(13) 0.18200(4) 0.76536(13)
H16 H 0.4166 0.1719 0.7835
C23 C 0.50623(14) 0.10597(4) 0.44912(14)
H17 H 0.4316 0.0858 0.3853
H18 H 0.5877 0.0912 0.5308
H19 H 0.5495 0.1214 0.3825
C24 C 0.33831(13) 0.18338(3) 0.29066(13)
H20 H 0.4415 0.1961 0.3408
C25 C 0.21298(14) 0.21696(3) 0.24358(13)
H21 H 0.2540 0.2438 0.2973
C26 C 0.21677(13) 0.19089(3) 0.01036(13)
C27 C 0.32184(14) 0.16284(4) 0.13419(13)
H22 H 0.4220 0.1606 0.1219
H23 H 0.2777 0.1346 0.1275
C28 C -0.04316(13) 0.00370(4) 0.19371(13)
H24 H 0.0043 -0.0038 0.1215
C29 C -0.00230(12) 0.03991(3) 0.28093(12)
H25 H 0.0735 0.0577 0.2689
loop_
_geom_bond_atom_site_label_1
_geom_bond_atom_site_label_2
_geom_bond_site_symmetry_1
_geom_bond_site_symmetry_2
O1 N1 1_555 1_555
O2 C5 1_555 1_555
O3 C8 1_555 1_555
O4 N2 1_555 1_555
O5 N1 1_555 1_555
O6 C25 1_555 1_555
O7 C26 1_555 1_555
O8 C9 1_555 1_555
O9 N2 1_555 1_555
O10 C5 1_555 1_555
N1 C1 1_555 1_555
N2 C13 1_555 1_555
N3 C7 1_555 1_555
C1 C2 1_555 1_555
C2 H1 1_555 1_555
C3 C2 1_555 1_555
H2 C3 1_555 1_555
C4 C3 1_555 1_555
C5 C4 1_555 1_555
C6 O2 1_555 1_555
H3 C6 1_555 1_555
C7 C6 1_555 1_555
H4 C7 1_555 1_555
C8 C7 1_555 1_555
H5 C8 1_555 1_555
H6 C8 1_555 1_555
C9 O3 1_555 1_555
C10 C9 1_555 1_555
C11 C10 1_555 1_555
H7 C11 1_555 1_555
C12 C11 1_555 1_555
H8 C12 1_555 1_555
C13 C12 1_555 1_555
C14 C1 1_555 1_555
H9 C14 1_555 1_555
C15 C4 1_555 1_555
H10 C15 1_555 1_555
C16 N3 1_555 1_555
H11 C16 1_555 1_555
C17 C16 1_555 1_555
C18 C17 1_555 1_555
H12 C18 1_555 1_555
C19 C18 1_555 1_555
H13 C19 1_555 1_555
C20 C19 1_555 1_555
H14 C20 1_555 1_555
C21 C20 1_555 1_555
H15 C21 1_555 1_555
C22 C17 1_555 1_555
H16 C22 1_555 1_555
C23 C16 1_555 1_555
H17 C23 1_555 1_555
H18 C23 1_555 1_555
H19 C23 1_555 1_555
C24 N3 1_555 1_555
H20 C24 1_555 1_555
C25 C6 1_555 1_555
H21 C25 1_555 1_555
C26 O6 1_555 1_555
C27 C24 1_555 1_555
H22 C27 1_555 1_555
H23 C27 1_555 1_555
C28 C13 1_555 1_555
H24 C28 1_555 1_555
C29 C10 1_555 1_555
H25 C29 1_555 1_555
C14 C15 1_555 1_555
C21 C22 1_555 1_555
C24 C25 1_555 1_555
C26 C27 1_555 1_555
C28 C29 1_555 1_555

#END
