
#######################################################################
#
#                 Cambridge Crystallographic Data Centre
#                                CCDC 
#
#######################################################################
#
# If this CIF has been generated from an entry in the Cambridge 
# Structural Database, then it will include bibliographic, chemical, 
# crystal, experimental, refinement or atomic coordinate data resulting 
# from the CCDC's data processing and validation procedures.
#
#######################################################################

data_DEZMED
_chemical_formula_moiety         'C14 H11 N3 O3 S1'
_chemical_name_systematic        
3-ethenyl-5,5-dioxo-2,3-dihydro-5H-5-pyrrolo[1,2-c][1,2,3]benzoxathiazine-1,1(10bH)-dicarbonitrile
_symmetry_cell_setting           monoclinic
_symmetry_space_group_name_H-M   'P 21/n'
_symmetry_Int_Tables_number      14
_space_group_name_Hall           '-P 2yn'
loop_
_symmetry_equiv_pos_site_id
_symmetry_equiv_pos_as_xyz
1 x,y,z
2 1/2-x,1/2+y,1/2-z
3 -x,-y,-z
4 1/2+x,1/2-y,1/2+z
_cell_length_a                   10.471(4)
_cell_length_b                   10.038(3)
_cell_length_c                   13.551(5)
_cell_angle_alpha                90
_cell_angle_beta                 101.028(5)
_cell_angle_gamma                90
_cell_volume                     1398.02
_exptl_crystal_colour            colorless
_exptl_crystal_description       block
_cell_formula_units_Z            4
loop_
_atom_site_label
_atom_site_type_symbol
_atom_site_fract_x
_atom_site_fract_y
_atom_site_fract_z
S1 S 0.55199(5) 0.23424(5) 0.54903(4)
C1 C 0.6924(2) 0.2209(2) 0.41768(15)
N1 N 0.44966(16) 0.31833(18) 0.46731(12)
O1 O 0.62772(15) 0.14545(14) 0.48163(11)
O2 O 0.64372(15) 0.32464(16) 0.60441(11)
N2 N 0.43889(19) 0.0896(2) 0.23122(15)
C2 C 0.8137(2) 0.1783(3) 0.40540(18)
H1 H 0.852601 0.101482 0.439540
N3 N 0.3809(2) 0.4975(2) 0.14103(15)
C3 C 0.8770(2) 0.2499(3) 0.3423(2)
H2 H 0.959684 0.221053 0.331643
O3 O 0.48323(18) 0.14416(18) 0.59974(12)
C4 C 0.8212(2) 0.3636(3) 0.29444(19)
H3 H 0.865659 0.412600 0.251436
C5 C 0.7005(2) 0.4055(2) 0.30941(16)
H4 H 0.663279 0.484540 0.277612
C6 C 0.63305(19) 0.3333(2) 0.37051(14)
C7 C 0.49792(18) 0.37511(19) 0.38043(13)
H5 H 0.495663 0.474473 0.385100
C8 C 0.38990(19) 0.3294(2) 0.28906(14)
C9 C 0.26655(19) 0.3313(2) 0.33521(15)
H6 H 0.233904 0.423435 0.338771
H7 H 0.197023 0.276239 0.295094
C10 C 0.31024(19) 0.2730(2) 0.44063(15)
H8 H 0.304898 0.173568 0.438897
C11 C 0.41740(19) 0.1940(2) 0.25584(14)
C12 C 0.3835(2) 0.4225(2) 0.20444(15)
C13 C 0.2306(2) 0.3292(3) 0.51189(17)
H9 H 0.232767 0.422958 0.521520
C14 C 0.1600(3) 0.2613(4) 0.5607(2)
H10 H 0.155081 0.167222 0.553236
H11 H 0.112527 0.304907 0.604398
loop_
_geom_bond_atom_site_label_1
_geom_bond_atom_site_label_2
_geom_bond_site_symmetry_1
_geom_bond_site_symmetry_2
S1 N1 1_555 1_555
C1 O1 1_555 1_555
N1 C7 1_555 1_555
O1 S1 1_555 1_555
O2 S1 1_555 1_555
N2 C11 1_555 1_555
C2 C1 1_555 1_555
H1 C2 1_555 1_555
N3 C12 1_555 1_555
C3 C2 1_555 1_555
H2 C3 1_555 1_555
O3 S1 1_555 1_555
C4 C3 1_555 1_555
H3 C4 1_555 1_555
C5 C4 1_555 1_555
H4 C5 1_555 1_555
C6 C1 1_555 1_555
C7 C6 1_555 1_555
H5 C7 1_555 1_555
C8 C7 1_555 1_555
C9 C8 1_555 1_555
H6 C9 1_555 1_555
H7 C9 1_555 1_555
C10 N1 1_555 1_555
H8 C10 1_555 1_555
C11 C8 1_555 1_555
C12 C8 1_555 1_555
C13 C10 1_555 1_555
H9 C13 1_555 1_555
C14 C13 1_555 1_555
H10 C14 1_555 1_555
H11 C14 1_555 1_555
C5 C6 1_555 1_555
C9 C10 1_555 1_555

#END
