
#######################################################################
#
#                 Cambridge Crystallographic Data Centre
#                                CCDC 
#
#######################################################################
#
# If this CIF has been generated from an entry in the Cambridge 
# Structural Database, then it will include bibliographic, chemical, 
# crystal, experimental, refinement or atomic coordinate data resulting 
# from the CCDC's data processing and validation procedures.
#
#######################################################################

data_DEZWOV01
_chemical_formula_moiety         'C13 H12 Br1 F3 O2'
_chemical_name_systematic        
(S)-4-Trifluoromethyl-4-hydroxy-6-(4-bromophenyl)hex-5-ene-2-one
_symmetry_cell_setting           monoclinic
_symmetry_space_group_name_H-M   'P 21'
_symmetry_Int_Tables_number      4
_space_group_name_Hall           'P 2yb'
loop_
_symmetry_equiv_pos_site_id
_symmetry_equiv_pos_as_xyz
1 x,y,z
2 -x,1/2+y,-z
_cell_length_a                   5.6979(12)
_cell_length_b                   7.7871(17)
_cell_length_c                   15.656(3)
_cell_angle_alpha                90
_cell_angle_beta                 99.459(4)
_cell_angle_gamma                90
_cell_volume                     685.214
_exptl_crystal_colour            colorless
_exptl_crystal_description       prismatic
_chemical_melting_point          76-77deg.C
_cell_formula_units_Z            2
loop_
_atom_site_label
_atom_site_type_symbol
_atom_site_fract_x
_atom_site_fract_y
_atom_site_fract_z
Br1 Br 0.50393(13) 0.84928(13) 1.16530(5)
O1 O 1.1981(16) 0.6646(11) 0.7010(6)
H1 H 1.1926 0.5931 0.7390
O2 O 0.8745(16) 0.3982(9) 0.7021(6)
F1 F 1.1406(17) 0.8901(12) 0.5699(5)
F2 F 1.190(2) 1.0115(11) 0.6958(8)
F3 F 0.854(2) 1.0151(10) 0.6166(7)
C1 C 0.9773(19) 0.7479(13) 0.6812(7)
C2 C 0.795(2) 0.6521(15) 0.6146(7)
H2 H 0.6466 0.7160 0.6055
H3 H 0.8530 0.6473 0.5599
C3 C 0.748(2) 0.4734(14) 0.6425(7)
C4 C 0.535(2) 0.3900(16) 0.5941(8)
H4 H 0.5604 0.2682 0.5929
H5 H 0.5057 0.4336 0.5360
H6 H 0.4004 0.4137 0.6219
C5 C 0.8624(16) 0.7897(11) 0.7608(6)
H7 H 0.7190 0.8493 0.7521
C6 C 0.9522(14) 0.7475(10) 0.8392(5)
H8 H 1.0995 0.6931 0.8471
C7 C 0.8446(13) 0.7768(9) 0.9173(5)
C8 C 0.6270(11) 0.8597(14) 0.9146(4)
H9 H 0.5463 0.8996 0.8618
C9 C 0.5295(13) 0.8835(9) 0.9879(5)
H10 H 0.3850 0.9403 0.9854
C10 C 0.6496(12) 0.8216(9) 1.0659(5)
C11 C 0.8641(14) 0.7412(9) 1.0716(5)
H11 H 0.9443 0.7032 1.1248
C12 C 0.9602(13) 0.7169(11) 0.9973(6)
H12 H 1.1046 0.6596 1.0005
C13 C 1.044(3) 0.9134(15) 0.6408(9)
loop_
_geom_bond_atom_site_label_1
_geom_bond_atom_site_label_2
_geom_bond_site_symmetry_1
_geom_bond_site_symmetry_2
Br1 C10 1_555 1_555
O1 H1 1_555 1_555
O2 C3 1_555 1_555
F1 C13 1_555 1_555
F2 C13 1_555 1_555
F3 C13 1_555 1_555
C1 O1 1_555 1_555
C2 C1 1_555 1_555
H2 C2 1_555 1_555
H3 C2 1_555 1_555
C3 C2 1_555 1_555
C4 C3 1_555 1_555
H4 C4 1_555 1_555
H5 C4 1_555 1_555
H6 C4 1_555 1_555
C5 C1 1_555 1_555
H7 C5 1_555 1_555
C6 C5 1_555 1_555
H8 C6 1_555 1_555
C7 C6 1_555 1_555
C8 C7 1_555 1_555
H9 C8 1_555 1_555
C9 C8 1_555 1_555
H10 C9 1_555 1_555
C10 C9 1_555 1_555
C11 C10 1_555 1_555
H11 C11 1_555 1_555
C12 C7 1_555 1_555
H12 C12 1_555 1_555
C13 C1 1_555 1_555
C11 C12 1_555 1_555

#END
