
#######################################################################
#
#                 Cambridge Crystallographic Data Centre
#                                CCDC 
#
#######################################################################
#
# If this CIF has been generated from an entry in the Cambridge 
# Structural Database, then it will include bibliographic, chemical, 
# crystal, experimental, refinement or atomic coordinate data resulting 
# from the CCDC's data processing and validation procedures.
#
#######################################################################

data_DEZWOV
_chemical_formula_moiety         'C13 H12 Br1 F3 O2'
_chemical_name_systematic        
(S,E)-6-(4-Bromophenyl)-4-hydroxy-4-(trifluoromethyl)hex-5-en-2-one
_symmetry_cell_setting           monoclinic
_symmetry_space_group_name_H-M   'P 21'
_symmetry_Int_Tables_number      4
_space_group_name_Hall           'P 2yb'
loop_
_symmetry_equiv_pos_site_id
_symmetry_equiv_pos_as_xyz
1 x,y,z
2 -x,1/2+y,-z
_cell_length_a                   5.7070(9)
_cell_length_b                   7.7939(12)
_cell_length_c                   15.670(2)
_cell_angle_alpha                90
_cell_angle_beta                 99.496(2)
_cell_angle_gamma                90
_cell_volume                     687.447
_exptl_crystal_colour            colorless
_exptl_crystal_description       plate
_chemical_melting_point          63-64deg.C
_cell_formula_units_Z            2
loop_
_atom_site_label
_atom_site_type_symbol
_atom_site_fract_x
_atom_site_fract_y
_atom_site_fract_z
Br1 Br 0.50395(12) 0.74453(11) 0.66544(4)
O1 O 1.1986(14) 0.5574(10) 0.2016(5)
O2 O 0.8735(14) 0.2966(8) 0.2013(5)
F1 F 0.8520(18) 0.9097(8) 0.1165(6)
F2 F 1.193(2) 0.9039(9) 0.1942(6)
F3 F 1.1414(15) 0.7843(11) 0.0706(4)
C1 C 0.9742(17) 0.6435(10) 0.1811(5)
C2 C 1.042(2) 0.8139(14) 0.1414(7)
C3 C 0.798(2) 0.5438(12) 0.1144(5)
H1 H 0.6503 0.6073 0.1026
H2 H 0.8620 0.5366 0.0608
C4 C 0.7475(17) 0.3682(12) 0.1423(5)
C5 C 0.5337(18) 0.2851(15) 0.0930(7)
H3 H 0.5604 0.2602 0.0354
H4 H 0.4001 0.3608 0.0905
H5 H 0.5021 0.1803 0.1212
C6 C 0.8667(14) 0.6882(9) 0.2604(5)
H6 H 0.7287 0.7539 0.2524
C7 C 0.9530(13) 0.6414(10) 0.3388(4)
H7 H 1.0962 0.5819 0.3467
C8 C 0.8443(12) 0.6741(9) 0.4173(4)
C9 C 0.9609(13) 0.6165(9) 0.4973(5)
H8 H 1.1079 0.5630 0.5008
C10 C 0.8647(13) 0.6366(10) 0.5700(4)
H9 H 0.9433 0.5936 0.6224
C11 C 0.6497(11) 0.7211(10) 0.5669(4)
C12 C 0.5268(12) 0.7792(10) 0.4874(5)
H10 H 0.3803 0.8332 0.4842
C13 C 0.6260(10) 0.7551(13) 0.4141(4)
H11 H 0.5453 0.7939 0.3612
H12 H 1.166(18) 0.474(8) 0.230(6)
loop_
_geom_bond_atom_site_label_1
_geom_bond_atom_site_label_2
_geom_bond_site_symmetry_1
_geom_bond_site_symmetry_2
Br1 C11 1_555 1_555
O1 C1 1_555 1_555
O2 C4 1_555 1_555
F1 C2 1_555 1_555
F2 C2 1_555 1_555
F3 C2 1_555 1_555
C1 C2 1_555 1_555
C3 C1 1_555 1_555
H1 C3 1_555 1_555
H2 C3 1_555 1_555
C4 C3 1_555 1_555
C5 C4 1_555 1_555
H3 C5 1_555 1_555
H4 C5 1_555 1_555
H5 C5 1_555 1_555
C6 C1 1_555 1_555
H6 C6 1_555 1_555
C7 C6 1_555 1_555
H7 C7 1_555 1_555
C8 C7 1_555 1_555
C9 C8 1_555 1_555
H8 C9 1_555 1_555
C10 C9 1_555 1_555
H9 C10 1_555 1_555
C11 C10 1_555 1_555
C12 C11 1_555 1_555
H10 C12 1_555 1_555
C13 C8 1_555 1_555
H11 C13 1_555 1_555
H12 O1 1_555 1_555
C12 C13 1_555 1_555

#END
