
#######################################################################
#
#                 Cambridge Crystallographic Data Centre
#                                CCDC 
#
#######################################################################
#
# If this CIF has been generated from an entry in the Cambridge 
# Structural Database, then it will include bibliographic, chemical, 
# crystal, experimental, refinement or atomic coordinate data resulting 
# from the CCDC's data processing and validation procedures.
#
#######################################################################

data_DEZXEO
_chemical_formula_moiety         'C37 H27 Cl1 N4 O1 S1'
_chemical_name_systematic        
"[7'-(2-chloro-8-methylquinolin-3-yl)-1',6',7',7a'-tetrahydro-3'H-spiro[indeno[1,2-b]quinoxaline-11,5'-pyrrolo[1,2-c][1,3]thiazol]-6'-yl](phenyl)methanone"
_symmetry_cell_setting           monoclinic
_symmetry_space_group_name_H-M   'P 21/c'
_symmetry_Int_Tables_number      14
_space_group_name_Hall           '-P 2ybc'
loop_
_symmetry_equiv_pos_site_id
_symmetry_equiv_pos_as_xyz
1 x,y,z
2 -x,1/2+y,1/2-z
3 -x,-y,-z
4 x,1/2-y,1/2+z
_cell_length_a                   9.624(2)
_cell_length_b                   14.961(4)
_cell_length_c                   20.204(3)
_cell_angle_alpha                90
_cell_angle_beta                 79.442(12)
_cell_angle_gamma                90
_cell_volume                     2859.82
_exptl_crystal_colour            brown
_exptl_crystal_description       prism
_cell_formula_units_Z            4
loop_
_atom_site_label
_atom_site_type_symbol
_atom_site_fract_x
_atom_site_fract_y
_atom_site_fract_z
Cl1 Cl 0.24747(13) 0.43984(9) 0.09664(6)
S1 S 0.19381(15) 0.66604(10) 0.25668(7)
O1 O 0.1511(3) 0.3112(2) 0.24006(16)
N1 N 0.5012(4) 0.3825(3) 0.05960(19)
N2 N 0.2855(4) 0.5457(3) 0.33471(17)
N3 N 0.3504(4) 0.4253(3) 0.44421(18)
N4 N 0.0857(4) 0.3666(3) 0.52149(18)
C1 C 0.2316(5) 0.4289(3) 0.4223(2)
C2 C 0.3007(5) 0.3946(3) 0.2977(2)
H1 H 0.3903 0.376 0.3122
C3 C 0.0565(5) 0.4530(3) 0.3570(2)
C4 C 0.2093(5) 0.3609(3) 0.5463(2)
C5 C 0.0996(5) 0.4018(3) 0.4605(2)
C6 C 0.3026(5) 0.2228(3) 0.3788(2)
H2 H 0.37 0.268 0.3826
C7 C 0.3366(5) 0.4562(3) 0.2368(2)
H3 H 0.2474 0.4698 0.22
C8 C 0.4444(5) 0.4202(3) 0.1785(2)
C9 C 0.2164(5) 0.4589(3) 0.3524(2)
C10 C 0.2938(5) 0.1482(3) 0.4205(2)
H4 H 0.3555 0.1423 0.452
C11 C -0.0091(5) 0.4173(3) 0.4200(2)
C12 C 0.5785(5) 0.3987(3) 0.1855(2)
H5 H 0.6039 0.4022 0.2287
C13 C -0.0265(5) 0.4753(3) 0.3104(2)
H6 H 0.0151 0.5004 0.2682
C14 C 0.4148(5) 0.4108(3) 0.1121(2)
C15 C 0.2064(5) 0.3257(3) 0.6111(2)
H7 H 0.1205 0.3035 0.6366
C16 C 0.2146(5) 0.2327(3) 0.3316(2)
C17 C 0.3828(5) 0.5400(3) 0.2692(2)
H8 H 0.4817 0.532 0.2769
C18 C 0.1955(5) 0.0832(3) 0.4158(2)
H9 H 0.1865 0.0328 0.4448
C19 C 0.2177(5) 0.3119(3) 0.2862(2)
C20 C -0.2337(5) 0.4250(3) 0.3867(2)
H10 H -0.333 0.4155 0.3958
C21 C -0.1538(5) 0.4028(3) 0.4349(2)
H11 H -0.1971 0.3783 0.477
C22 C 0.6371(5) 0.3613(3) 0.0673(2)
C23 C 0.8231(5) 0.3551(3) 0.1339(3)
H12 H 0.8545 0.3621 0.1755
C24 C 0.6810(5) 0.3711(3) 0.1296(2)
C25 C 0.3402(5) 0.3910(3) 0.5087(2)
C26 C 0.1187(5) 0.1654(3) 0.3270(2)
H13 H 0.0583 0.1698 0.2948
C27 C 0.3722(5) 0.6285(3) 0.2318(2)
H14 H 0.3948 0.6191 0.1825
H15 H 0.4389 0.673 0.2443
C28 C 0.8675(6) 0.3165(3) 0.0162(3)
H16 H 0.9331 0.2963 -0.0219
C29 C 0.7332(5) 0.3317(3) 0.0094(2)
C30 C -0.1704(5) 0.4608(3) 0.3259(2)
H17 H -0.2273 0.4759 0.2938
C31 C 0.4618(5) 0.3874(3) 0.5375(2)
H18 H 0.5495 0.4082 0.5129
C32 C 0.2023(5) 0.6275(3) 0.3414(2)
H19 H 0.2473 0.6734 0.3657
H20 H 0.106 0.6157 0.3669
C33 C 0.1100(5) 0.0921(3) 0.3684(3)
H21 H 0.0434 0.0465 0.3644
C34 C 0.3273(5) 0.3237(3) 0.6372(2)
H22 H 0.3243 0.301 0.6813
C35 C 0.9151(5) 0.3294(3) 0.0777(3)
H23 H 1.0118 0.3202 0.0798
C36 C 0.4540(5) 0.3539(3) 0.6007(2)
H24 H 0.5369 0.3512 0.62
C37 C 0.6841(6) 0.3184(4) -0.0561(2)
H25 H 0.7648 0.3021 -0.0911
H26 H 0.6419 0.374 -0.0689
H27 H 0.6135 0.2705 -0.0512
loop_
_geom_bond_atom_site_label_1
_geom_bond_atom_site_label_2
_geom_bond_site_symmetry_1
_geom_bond_site_symmetry_2
Cl1 C14 1_555 1_555
S1 C27 1_555 1_555
O1 C19 1_555 1_555
N1 C14 1_555 1_555
N2 C9 1_555 1_555
N3 C1 1_555 1_555
N4 C4 1_555 1_555
C1 C5 1_555 1_555
C2 H1 1_555 1_555
C3 C9 1_555 1_555
C4 C15 1_555 1_555
C5 N4 1_555 1_555
C6 H2 1_555 1_555
C7 C2 1_555 1_555
H3 C7 1_555 1_555
C8 C7 1_555 1_555
C9 C1 1_555 1_555
C10 C6 1_555 1_555
H4 C10 1_555 1_555
C11 C3 1_555 1_555
C12 C8 1_555 1_555
H5 C12 1_555 1_555
C13 C3 1_555 1_555
H6 C13 1_555 1_555
C14 C8 1_555 1_555
C15 H7 1_555 1_555
C16 C6 1_555 1_555
C17 N2 1_555 1_555
H8 C17 1_555 1_555
C18 C10 1_555 1_555
H9 C18 1_555 1_555
C19 C2 1_555 1_555
C20 H10 1_555 1_555
C21 C11 1_555 1_555
H11 C21 1_555 1_555
C22 N1 1_555 1_555
C23 H12 1_555 1_555
C24 C12 1_555 1_555
C25 N3 1_555 1_555
C26 C16 1_555 1_555
H13 C26 1_555 1_555
C27 C17 1_555 1_555
H14 C27 1_555 1_555
H15 C27 1_555 1_555
C28 H16 1_555 1_555
C29 C22 1_555 1_555
C30 C13 1_555 1_555
H17 C30 1_555 1_555
C31 C25 1_555 1_555
H18 C31 1_555 1_555
C32 S1 1_555 1_555
H19 C32 1_555 1_555
H20 C32 1_555 1_555
C33 C18 1_555 1_555
H21 C33 1_555 1_555
C34 C15 1_555 1_555
H22 C34 1_555 1_555
C35 C23 1_555 1_555
H23 C35 1_555 1_555
C36 C31 1_555 1_555
H24 C36 1_555 1_555
C37 C29 1_555 1_555
H25 C37 1_555 1_555
H26 C37 1_555 1_555
H27 C37 1_555 1_555
N2 C32 1_555 1_555
C2 C9 1_555 1_555
C4 C25 1_555 1_555
C5 C11 1_555 1_555
C7 C17 1_555 1_555
C16 C19 1_555 1_555
C20 C21 1_555 1_555
C20 C30 1_555 1_555
C22 C24 1_555 1_555
C23 C24 1_555 1_555
C26 C33 1_555 1_555
C28 C29 1_555 1_555
C28 C35 1_555 1_555
C34 C36 1_555 1_555

#END
