
#######################################################################
#
#                 Cambridge Crystallographic Data Centre
#                                CCDC 
#
#######################################################################
#
# If this CIF has been generated from an entry in the Cambridge 
# Structural Database, then it will include bibliographic, chemical, 
# crystal, experimental, refinement or atomic coordinate data resulting 
# from the CCDC's data processing and validation procedures.
#
#######################################################################

data_DHBPRG
_chemical_formula_moiety         'C21 H31 Br1 O4'
_chemical_name_systematic        
3\b,17\a-Dihydroxy-16\b-bromo-5\a-pregnan-11,20-dione
_symmetry_cell_setting           monoclinic
_symmetry_space_group_name_H-M   'P 21'
_symmetry_Int_Tables_number      4
_space_group_name_Hall           'P 2yb'
loop_
_symmetry_equiv_pos_site_id
_symmetry_equiv_pos_as_xyz
1 x,y,z
2 -x,1/2+y,-z
_cell_length_a                   11.946(2)
_cell_length_b                   11.011(2)
_cell_length_c                   7.837(1)
_cell_angle_alpha                90
_cell_angle_beta                 107.39(1)
_cell_angle_gamma                90
_cell_volume                     983.741
_cell_formula_units_Z            2
loop_
_atom_site_label
_atom_site_type_symbol
_atom_site_fract_x
_atom_site_fract_y
_atom_site_fract_z
Br1 Br 0.11724 0.00000 0.01876
C1 C -0.46085 0.26545 0.43315
C2 C -0.43686 0.20293 0.26977
C3 C -0.22622 0.13940 0.46086
C4 C -0.09410 0.14828 0.49317
C5 C -0.06547 0.10373 0.32615
C6 C -0.13690 0.17703 0.16457
C7 C -0.08238 0.14534 0.01684
C8 C 0.04847 0.13342 0.11536
C9 C 0.06224 0.13149 0.32266
C10 C -0.08976 -0.03496 0.30196
C11 C -0.48599 0.07154 0.24469
C12 C -0.59120 0.28736 0.40435
C13 C 0.15387 0.04911 0.44764
C14 C 0.22261 0.10122 0.62499
C15 C -0.64378 0.36158 0.24099
C16 C -0.62540 0.30284 0.07826
C17 C -0.49425 0.28199 0.10466
C18 C -0.46883 0.23725 -0.06336
C19 C -0.33709 0.23638 -0.03817
C20 C -0.26968 0.16095 0.12687
C21 C -0.30285 0.20446 0.29587
H1 H -0.43130 0.20030 0.55170
H2 H -0.41560 0.32600 0.46610
H3 H -0.06400 0.06810 0.60620
H4 H -0.12160 0.28350 0.20910
H5 H -0.10300 0.21270 -0.05850
H6 H -0.11900 0.03910 -0.02980
H7 H 0.08450 0.21050 0.11610
H8 H 0.12740 0.27280 0.33070
H9 H -0.16800 -0.04740 0.27740
H10 H -0.04820 -0.07640 0.38500
H11 H -0.08190 -0.06930 0.21600
H12 H -0.58450 0.08850 0.19530
H13 H -0.45220 0.03020 0.33020
H14 H -0.47430 0.02200 0.13030
H15 H -0.59100 0.36470 0.50870
H16 H -0.63620 0.21050 0.40410
H17 H -0.61780 0.47360 0.24640
H18 H -0.76620 0.43390 0.28320
H19 H -0.65450 0.39030 -0.02340
H20 H -0.65270 0.21870 0.04230
H21 H -0.45080 0.38790 0.15630
H22 H -0.51020 0.30360 -0.15570
H23 H -0.50090 0.12490 -0.11320
H24 H -0.31880 0.31450 0.01180
H25 H -0.32730 0.21360 -0.15050
H26 H -0.28940 0.09360 0.09810
H27 H -0.27380 0.25650 0.32810
O1 O -0.26520 0.08074 0.56153
O2 O 0.08419 0.25562 0.37896
O3 O 0.16709 -0.05466 0.41350
O4 O -0.76782 0.38120 0.21381
loop_
_geom_bond_atom_site_label_1
_geom_bond_atom_site_label_2
_geom_bond_site_symmetry_1
_geom_bond_site_symmetry_2
Br1 C8 1_555 1_555
C1 C2 1_555 1_555
C2 C11 1_555 1_555
C3 C4 1_555 1_555
C4 C5 1_555 1_555
C5 C6 1_555 1_555
C6 C7 1_555 1_555
C7 C8 1_555 1_555
C8 C9 1_555 1_555
C9 C5 1_555 1_555
C10 C5 1_555 1_555
C11 H12 1_555 1_555
C12 C1 1_555 1_555
C13 C9 1_555 1_555
C14 C13 1_555 1_555
C15 C12 1_555 1_555
C16 C15 1_555 1_555
C17 C2 1_555 1_555
C18 C17 1_555 1_555
C19 C18 1_555 1_555
C20 C6 1_555 1_555
C21 C2 1_555 1_555
H1 C1 1_555 1_555
H2 C1 1_555 1_555
H3 C4 1_555 1_555
H4 C6 1_555 1_555
H5 C7 1_555 1_555
H6 C7 1_555 1_555
H7 C8 1_555 1_555
H8 O2 1_555 1_555
H9 C10 1_555 1_555
H10 C10 1_555 1_555
H11 C10 1_555 1_555
H13 C11 1_555 1_555
H14 C11 1_555 1_555
H15 C12 1_555 1_555
H16 C12 1_555 1_555
H17 C15 1_555 1_555
H18 O4 1_555 1_555
H19 C16 1_555 1_555
H20 C16 1_555 1_555
H21 C17 1_555 1_555
H22 C18 1_555 1_555
H23 C18 1_555 1_555
H24 C19 1_555 1_555
H25 C19 1_555 1_555
H26 C20 1_555 1_555
H27 C21 1_555 1_555
O1 C3 1_555 1_555
O2 C9 1_555 1_555
O3 C13 1_555 1_555
O4 C15 1_555 1_555
C3 C21 1_555 1_555
C16 C17 1_555 1_555
C19 C20 1_555 1_555
C20 C21 1_555 1_555

#END
