
#######################################################################
#
#                 Cambridge Crystallographic Data Centre
#                                CCDC 
#
#######################################################################
#
# If this CIF has been generated from an entry in the Cambridge 
# Structural Database, then it will include bibliographic, chemical, 
# crystal, experimental, refinement or atomic coordinate data resulting 
# from the CCDC's data processing and validation procedures.
#
#######################################################################

data_DIBGEC
_chemical_formula_moiety         'C16 H19 Cl1 N4 O2 S1'
_chemical_name_systematic        
N-t-Butyl-N'-((4-chlorophenyl)acetyl)-5-methyl-1,2,3-thiadiazole-4-carbohydrazide
_symmetry_cell_setting           triclinic
_symmetry_space_group_name_H-M   'P -1'
_symmetry_Int_Tables_number      2
_space_group_name_Hall           '-P 1'
loop_
_symmetry_equiv_pos_site_id
_symmetry_equiv_pos_as_xyz
1 x,y,z
2 -x,-y,-z
_cell_length_a                   8.4642(17)
_cell_length_b                   10.192(2)
_cell_length_c                   11.757(2)
_cell_angle_alpha                68.48(3)
_cell_angle_beta                 76.31(3)
_cell_angle_gamma                80.86(3)
_cell_volume                     913.818
_cell_formula_units_Z            2
loop_
_atom_site_label
_atom_site_type_symbol
_atom_site_fract_x
_atom_site_fract_y
_atom_site_fract_z
S1 S 0.29799(9) 1.27593(6) 0.12619(6)
Cl1 Cl 0.85119(8) 1.47023(6) 0.16518(7)
O1 O 0.06443(17) 0.85912(15) 0.35327(16)
O2 O 0.47545(19) 0.83860(19) 0.40739(14)
N1 N 0.3404(3) 1.18623(19) 0.02759(17)
N2 N 0.3077(2) 1.05566(18) 0.08484(16)
N3 N 0.30905(17) 0.77060(15) 0.26821(14)
N4 N 0.47129(18) 0.80209(16) 0.23070(14)
H1 H 0.521(2) 0.804(2) 0.1551(11)
C1 C 0.1693(4) 1.1386(3) 0.3793(2)
H2 H 0.1424 1.0456 0.4351
H3 H 0.0736 1.2033 0.3801
H4 H 0.2518 1.1690 0.4057
C2 C 0.2314(3) 1.1352(2) 0.25081(19)
C3 C 0.2477(2) 1.0242(2) 0.20889(18)
C4 C 0.1976(2) 0.8779(2) 0.28543(18)
C5 C 0.2751(2) 0.61716(19) 0.3265(2)
C6 C 0.1198(3) 0.5993(3) 0.2931(3)
H5 H 0.0297 0.6505 0.3297
H6 H 0.1009 0.5008 0.3242
H7 H 0.1301 0.6354 0.2041
C7 C 0.4157(4) 0.5324(3) 0.2721(3)
H8 H 0.4220 0.5608 0.1839
H9 H 0.3987 0.4335 0.3102
H10 H 0.5157 0.5491 0.2878
C8 C 0.2607(4) 0.5694(3) 0.4666(2)
H11 H 0.3599 0.5839 0.4849
H12 H 0.2419 0.4708 0.5029
H13 H 0.1712 0.6233 0.5006
C9 C 0.5450(2) 0.8368(2) 0.30502(19)
C10 C 0.7180(2) 0.8761(2) 0.2482(2)
H14 H 0.7893 0.8154 0.3034
H15 H 0.7509 0.8586 0.1699
C11 C 0.7400(2) 1.0284(2) 0.22487(19)
C12 C 0.8181(3) 1.1129(3) 0.1105(2)
H16 H 0.8489 1.0779 0.0450
C13 C 0.8515(3) 1.2486(3) 0.0912(2)
H17 H 0.9056 1.3039 0.0137
C14 C 0.8044(2) 1.3012(2) 0.1867(2)
C15 C 0.7232(3) 1.2216(2) 0.3004(2)
H18 H 0.6895 1.2585 0.3646
C16 C 0.6918(2) 1.0853(2) 0.31887(19)
H19 H 0.6369 1.0308 0.3964
loop_
_geom_bond_atom_site_label_1
_geom_bond_atom_site_label_2
_geom_bond_site_symmetry_1
_geom_bond_site_symmetry_2
S1 N1 1_555 1_555
Cl1 C14 1_555 1_555
O1 C4 1_555 1_555
O2 C9 1_555 1_555
N1 N2 1_555 1_555
N2 C3 1_555 1_555
N3 N4 1_555 1_555
N4 H1 1_555 1_555
C1 H2 1_555 1_555
H3 C1 1_555 1_555
H4 C1 1_555 1_555
C2 S1 1_555 1_555
C3 C2 1_555 1_555
C4 N3 1_555 1_555
C5 N3 1_555 1_555
C6 C5 1_555 1_555
H5 C6 1_555 1_555
H6 C6 1_555 1_555
H7 C6 1_555 1_555
C7 C5 1_555 1_555
H8 C7 1_555 1_555
H9 C7 1_555 1_555
H10 C7 1_555 1_555
C8 C5 1_555 1_555
H11 C8 1_555 1_555
H12 C8 1_555 1_555
H13 C8 1_555 1_555
C9 N4 1_555 1_555
C10 C9 1_555 1_555
H14 C10 1_555 1_555
H15 C10 1_555 1_555
C11 C10 1_555 1_555
C12 C11 1_555 1_555
H16 C12 1_555 1_555
C13 C12 1_555 1_555
H17 C13 1_555 1_555
C14 C13 1_555 1_555
C15 C14 1_555 1_555
H18 C15 1_555 1_555
C16 C11 1_555 1_555
H19 C16 1_555 1_555
C1 C2 1_555 1_555
C3 C4 1_555 1_555
C15 C16 1_555 1_555

#END
