
#######################################################################
#
#                 Cambridge Crystallographic Data Centre
#                                CCDC 
#
#######################################################################
#
# If this CIF has been generated from an entry in the Cambridge 
# Structural Database, then it will include bibliographic, chemical, 
# crystal, experimental, refinement or atomic coordinate data resulting 
# from the CCDC's data processing and validation procedures.
#
#######################################################################

data_DIBSEP
_chemical_formula_moiety         'C17 H17 N1 O2 S1'
_chemical_name_systematic        
'2-benzyl-2,3,3a,8b-tetrahydro-1H-benzo[4,5]thieno[2,3-c]pyrrole 4,4-dioxide'
_symmetry_cell_setting           monoclinic
_symmetry_space_group_name_H-M   'C c'
_symmetry_Int_Tables_number      9
_space_group_name_Hall           'C -2yc'
loop_
_symmetry_equiv_pos_site_id
_symmetry_equiv_pos_as_xyz
1 x,y,z
2 x,-y,1/2+z
3 1/2+x,1/2+y,z
4 1/2+x,1/2-y,1/2+z
_cell_length_a                   10.702(4)
_cell_length_b                   13.824(4)
_cell_length_c                   9.628(3)
_cell_angle_alpha                90
_cell_angle_beta                 93.525(7)
_cell_angle_gamma                90
_cell_volume                     1421.71
_exptl_crystal_colour            colorless
_exptl_crystal_description       block
_chemical_melting_point          '350 K'
_cell_formula_units_Z            4
loop_
_atom_site_label
_atom_site_type_symbol
_atom_site_fract_x
_atom_site_fract_y
_atom_site_fract_z
N1 N 0.14735(18) -0.01832(13) 0.78433(16)
S1 S -0.16069(5) 0.04155(4) 0.78612(5)
O1 O -0.26544(16) 0.07432(13) 0.85899(17)
O2 O -0.1771(2) -0.04565(11) 0.70577(18)
C1 C -0.1063(2) 0.13674(15) 0.6841(2)
C2 C -0.1660(3) 0.17200(18) 0.5625(2)
H1 H -0.2399 0.1446 0.5248
C3 C -0.1110(3) 0.24960(19) 0.4998(3)
H2 H -0.1476 0.2744 0.4172
C4 C -0.0032(3) 0.29063(18) 0.5574(3)
H3 H 0.0315 0.3434 0.5139
C5 C 0.0547(3) 0.25464(16) 0.6794(3)
H4 H 0.1273 0.2833 0.7181
C6 C 0.0030(2) 0.17519(14) 0.7431(2)
C7 C 0.0616(2) 0.12331(15) 0.8694(2)
H5 H 0.0722 0.1674 0.9490
C8 C -0.0224(2) 0.03615(15) 0.9040(2)
H6 H -0.0455 0.0395 1.0009
C9 C 0.0584(2) -0.05234(15) 0.8819(2)
H7 H 0.1010 -0.0732 0.9686
H8 H 0.0086 -0.1055 0.8428
C10 C 0.1860(2) 0.07552(15) 0.8397(2)
H9 H 0.2298 0.1124 0.7720
H10 H 0.2396 0.0688 0.9241
C11 C 0.2505(2) -0.08480(18) 0.7591(2)
H11 H 0.3015 -0.0557 0.6905
H12 H 0.2151 -0.1438 0.7188
C12 C 0.3354(2) -0.11181(16) 0.8855(2)
C13 C 0.4360(2) -0.05440(16) 0.9278(3)
H13 H 0.4542 -0.0001 0.8757
C14 C 0.5102(3) -0.0761(2) 1.0459(3)
H14 H 0.5766 -0.0357 1.0738
C15 C 0.4863(3) -0.1566(2) 1.1221(3)
H15 H 0.5362 -0.1711 1.2019
C16 C 0.3894(3) -0.21573(19) 1.0807(3)
H16 H 0.3739 -0.2713 1.1314
C17 C 0.3131(2) -0.19304(16) 0.9624(3)
H17 H 0.2464 -0.2334 0.9353
loop_
_geom_bond_atom_site_label_1
_geom_bond_atom_site_label_2
_geom_bond_site_symmetry_1
_geom_bond_site_symmetry_2
N1 C9 1_555 1_555
S1 O1 1_555 1_555
O2 S1 1_555 1_555
C1 S1 1_555 1_555
C2 C1 1_555 1_555
H1 C2 1_555 1_555
C3 C2 1_555 1_555
H2 C3 1_555 1_555
C4 C3 1_555 1_555
H3 C4 1_555 1_555
C5 C4 1_555 1_555
H4 C5 1_555 1_555
C6 C1 1_555 1_555
C7 C6 1_555 1_555
H5 C7 1_555 1_555
C8 S1 1_555 1_555
H6 C8 1_555 1_555
C9 C8 1_555 1_555
H7 C9 1_555 1_555
H8 C9 1_555 1_555
C10 N1 1_555 1_555
H9 C10 1_555 1_555
H10 C10 1_555 1_555
C11 N1 1_555 1_555
H11 C11 1_555 1_555
H12 C11 1_555 1_555
C12 C11 1_555 1_555
C13 C12 1_555 1_555
H13 C13 1_555 1_555
C14 C13 1_555 1_555
H14 C14 1_555 1_555
C15 C14 1_555 1_555
H15 C15 1_555 1_555
C16 C15 1_555 1_555
H16 C16 1_555 1_555
C17 C12 1_555 1_555
H17 C17 1_555 1_555
C5 C6 1_555 1_555
C7 C8 1_555 1_555
C7 C10 1_555 1_555
C16 C17 1_555 1_555

#END
