
#######################################################################
#
#                 Cambridge Crystallographic Data Centre
#                                CCDC 
#
#######################################################################
#
# If this CIF has been generated from an entry in the Cambridge 
# Structural Database, then it will include bibliographic, chemical, 
# crystal, experimental, refinement or atomic coordinate data resulting 
# from the CCDC's data processing and validation procedures.
#
#######################################################################

data_DIBVER
_chemical_formula_moiety         'C32 H24 N2 O2'
_chemical_name_systematic        
(4-(2,2-bis(4-methoxyphenyl)-1-phenylvinyl)benzylidene)malononitrile
_symmetry_cell_setting           monoclinic
_symmetry_space_group_name_H-M   'P 21/n'
_symmetry_Int_Tables_number      14
_space_group_name_Hall           '-P 2yn'
loop_
_symmetry_equiv_pos_site_id
_symmetry_equiv_pos_as_xyz
1 x,y,z
2 1/2-x,1/2+y,1/2-z
3 -x,-y,-z
4 1/2+x,1/2-y,1/2+z
_cell_length_a                   9.686(2)
_cell_length_b                   12.178(2)
_cell_length_c                   21.478(5)
_cell_angle_alpha                90
_cell_angle_beta                 99.308(3)
_cell_angle_gamma                90
_cell_volume                     2500.1
_exptl_crystal_colour            red
_exptl_crystal_description       block
_cell_formula_units_Z            4
loop_
_atom_site_label
_atom_site_type_symbol
_atom_site_fract_x
_atom_site_fract_y
_atom_site_fract_z
O1 O 0.93261(11) 0.09347(9) 0.03856(6)
O2 O 0.52442(14) 0.34076(11) 0.36868(6)
N1 N 1.13211(17) 0.96753(13) 0.57445(7)
N2 N 1.02109(17) 0.62707(12) 0.55040(7)
C1 C 1.02326(14) 0.52181(11) 0.22273(7)
C2 C 0.93464(14) 0.43431(11) 0.21714(7)
C3 C 1.10367(15) 0.55291(11) 0.17158(7)
C4 C 1.03692(17) 0.56297(13) 0.10916(7)
H1 H 0.9396 0.5480 0.0989
C5 C 1.1104(2) 0.59441(14) 0.06204(8)
H2 H 1.0634 0.6008 0.0198
C6 C 1.2522(2) 0.61666(15) 0.07616(9)
H3 H 1.3027 0.6379 0.0437
C7 C 1.31959(18) 0.60782(15) 0.13765(9)
H4 H 1.4170 0.6227 0.1475
C8 C 1.24624(16) 0.57740(13) 0.18520(8)
H5 H 1.2934 0.5732 0.2275
C9 C 1.04233(14) 0.59509(11) 0.27892(7)
C10 C 1.05959(14) 0.70819(11) 0.27165(7)
H6 H 1.0610 0.7375 0.2308
C11 C 1.07457(14) 0.77772(11) 0.32303(7)
H7 H 1.0836 0.8544 0.3167
C12 C 1.07676(14) 0.73749(11) 0.38418(7)
C13 C 1.06363(14) 0.62331(11) 0.39180(7)
H8 H 1.0663 0.5935 0.4329
C14 C 1.04693(15) 0.55439(11) 0.34029(7)
H9 H 1.0383 0.4776 0.3465
C15 C 1.09663(14) 0.81684(11) 0.43508(7)
H10 H 1.1178 0.8892 0.4231
C16 C 1.08970(15) 0.80396(12) 0.49723(7)
C17 C 1.11421(16) 0.89596(13) 0.53966(7)
C18 C 1.05289(16) 0.70450(13) 0.52614(7)
C19 C 0.93232(14) 0.34883(11) 0.16764(7)
C20 C 0.80620(15) 0.30588(12) 0.13709(7)
H11 H 0.7210 0.3347 0.1468
C21 C 0.80107(15) 0.22214(12) 0.09293(7)
H12 H 0.7135 0.1950 0.0723
C22 C 0.92447(15) 0.17839(12) 0.07909(7)
C23 C 1.05171(16) 0.22021(13) 0.10915(9)
H13 H 1.1367 0.1908 0.0996
C24 C 1.05537(16) 0.30367(12) 0.15252(8)
H14 H 1.1432 0.3312 0.1726
C25 C 0.80709(17) 0.03406(15) 0.01687(9)
H15 H 0.7431 0.0803 -0.0120
H16 H 0.7625 0.0134 0.0530
H17 H 0.8294 -0.0323 -0.0053
C26 C 0.83018(15) 0.41570(12) 0.25979(7)
C27 C 0.73151(16) 0.49453(12) 0.26826(7)
H18 H 0.7349 0.5644 0.2489
C28 C 0.62762(17) 0.47343(14) 0.30454(8)
H19 H 0.5601 0.5281 0.3094
C29 C 0.62350(18) 0.37233(14) 0.33350(7)
C30 C 0.72290(17) 0.29322(14) 0.32658(7)
H20 H 0.7215 0.2245 0.3474
C31 C 0.82352(16) 0.31421(12) 0.28966(7)
H21 H 0.8896 0.2588 0.2844
C32 C 0.3983(2) 0.40253(18) 0.36314(12)
H22 H 0.3583 0.4106 0.3185
H23 H 0.4184 0.4753 0.3819
H24 H 0.3315 0.3643 0.3852
loop_
_geom_bond_atom_site_label_1
_geom_bond_atom_site_label_2
_geom_bond_site_symmetry_1
_geom_bond_site_symmetry_2
O1 C22 1_555 1_555
O2 C29 1_555 1_555
N1 C17 1_555 1_555
N2 C18 1_555 1_555
C1 C2 1_555 1_555
C2 C19 1_555 1_555
C3 C1 1_555 1_555
C4 C3 1_555 1_555
H1 C4 1_555 1_555
C5 C4 1_555 1_555
H2 C5 1_555 1_555
C6 C5 1_555 1_555
H3 C6 1_555 1_555
C7 C6 1_555 1_555
H4 C7 1_555 1_555
C8 C3 1_555 1_555
H5 C8 1_555 1_555
C9 C1 1_555 1_555
C10 C9 1_555 1_555
H6 C10 1_555 1_555
C11 C10 1_555 1_555
H7 C11 1_555 1_555
C12 C11 1_555 1_555
C13 C12 1_555 1_555
H8 C13 1_555 1_555
C14 C9 1_555 1_555
H9 C14 1_555 1_555
C15 C12 1_555 1_555
H10 C15 1_555 1_555
C16 C15 1_555 1_555
C17 C16 1_555 1_555
C18 C16 1_555 1_555
C19 C20 1_555 1_555
C20 H11 1_555 1_555
C21 C20 1_555 1_555
H12 C21 1_555 1_555
C22 C21 1_555 1_555
C23 C22 1_555 1_555
H13 C23 1_555 1_555
C24 C19 1_555 1_555
H14 C24 1_555 1_555
C25 O1 1_555 1_555
H15 C25 1_555 1_555
H16 C25 1_555 1_555
H17 C25 1_555 1_555
C26 C2 1_555 1_555
C27 C26 1_555 1_555
H18 C27 1_555 1_555
C28 C27 1_555 1_555
H19 C28 1_555 1_555
C29 C28 1_555 1_555
C30 C29 1_555 1_555
H20 C30 1_555 1_555
C31 C26 1_555 1_555
H21 C31 1_555 1_555
C32 O2 1_555 1_555
H22 C32 1_555 1_555
H23 C32 1_555 1_555
H24 C32 1_555 1_555
C7 C8 1_555 1_555
C13 C14 1_555 1_555
C23 C24 1_555 1_555
C30 C31 1_555 1_555

#END
