
#######################################################################
#
#                 Cambridge Crystallographic Data Centre
#                                CCDC 
#
#######################################################################
#
# If this CIF has been generated from an entry in the Cambridge 
# Structural Database, then it will include bibliographic, chemical, 
# crystal, experimental, refinement or atomic coordinate data resulting 
# from the CCDC's data processing and validation procedures.
#
#######################################################################

data_DICQUD
_chemical_formula_moiety         'C28 H34 N4'
_chemical_name_systematic        
4,4'-(Biphenyl-4,4'-diylbis(methylene))bis(3,5-diethyl-1H-pyrazole)
_symmetry_cell_setting           monoclinic
_symmetry_space_group_name_H-M   'P 21/c'
_symmetry_Int_Tables_number      14
_space_group_name_Hall           '-P 2ybc'
loop_
_symmetry_equiv_pos_site_id
_symmetry_equiv_pos_as_xyz
1 x,y,z
2 -x,1/2+y,1/2-z
3 -x,-y,-z
4 x,1/2-y,1/2+z
_cell_length_a                   13.947(3)
_cell_length_b                   5.0280(10)
_cell_length_c                   17.169(3)
_cell_angle_alpha                90
_cell_angle_beta                 90.48(3)
_cell_angle_gamma                90
_cell_volume                     1203.94
_exptl_crystal_colour            colorless
_exptl_crystal_description       Prism
_cell_formula_units_Z            2
loop_
_atom_site_label
_atom_site_type_symbol
_atom_site_fract_x
_atom_site_fract_y
_atom_site_fract_z
C1 C 0.2939(2) 0.4327(5) 0.35930(15)
H1 H 0.3304 0.3217 0.3941
H2 H 0.2488 0.5355 0.3886
H3 H 0.3364 0.5501 0.3322
C2 C 0.24057(18) 0.2603(5) 0.30103(15)
H4 H 0.1943 0.1531 0.3289
H5 H 0.2051 0.3752 0.2657
C3 C 0.30273(16) 0.0783(5) 0.25362(13)
C4 C 0.27236(16) -0.1088(4) 0.19768(13)
C5 C 0.35622(16) -0.2271(5) 0.17164(13)
C6 C 0.3749(2) -0.4367(6) 0.11257(15)
H6 H 0.3220 -0.5620 0.1128
H7 H 0.4324 -0.5329 0.1277
C7 C 0.3872(4) -0.3352(9) 0.0313(2)
H8 H 0.3293 -0.2489 0.0144
H9 H 0.4010 -0.4813 -0.0028
H10 H 0.4393 -0.2104 0.0303
C8 C 0.17048(17) -0.1723(5) 0.17472(15)
H11 H 0.1334 -0.1946 0.2218
H12 H 0.1700 -0.3413 0.1475
C9 C 0.12059(15) 0.0313(5) 0.12387(14)
C10 C 0.1612(2) 0.1272(6) 0.05738(15)
H13 H 0.2220 0.0678 0.0438
C11 C 0.1156(2) 0.3089(7) 0.00963(16)
H14 H 0.1466 0.3700 -0.0346
C12 C 0.02498(16) 0.4019(4) 0.02592(14)
C13 C -0.0152(2) 0.3063(8) 0.0925(2)
H15 H -0.0761 0.3645 0.1061
C14 C 0.0313(2) 0.1264(7) 0.1405(2)
H16 H 0.0009 0.0682 0.1854
N1 N 0.39765(13) 0.0754(4) 0.26250(11)
H17 H 0.4315 0.1708 0.2939
N2 N 0.42970(14) -0.1110(4) 0.21117(12)
C1B C -0.2939(2) 0.5673(5) -0.35930(15)
H1B H -0.3304 0.6783 -0.3941
H2B H -0.2488 0.4645 -0.3886
H3B H -0.3364 0.4499 -0.3322
C2B C -0.24057(18) 0.7397(5) -0.30103(15)
H4B H -0.1943 0.8469 -0.3289
H5B H -0.2051 0.6248 -0.2657
C3B C -0.30273(16) 0.9217(5) -0.25362(13)
C4B C -0.27236(16) 1.1088(4) -0.19768(13)
C5B C -0.35622(16) 1.2271(5) -0.17164(13)
C6B C -0.3749(2) 1.4367(6) -0.11257(15)
H6B H -0.3220 1.5620 -0.1128
H7B H -0.4324 1.5329 -0.1277
C7B C -0.3872(4) 1.3352(9) -0.0313(2)
H8B H -0.3293 1.2489 -0.0144
H9B H -0.4010 1.4813 0.0028
H10B H -0.4393 1.2104 -0.0303
C8B C -0.17048(17) 1.1723(5) -0.17472(15)
H11B H -0.1334 1.1946 -0.2218
H12B H -0.1700 1.3413 -0.1475
C9B C -0.12059(15) 0.9687(5) -0.12387(14)
C10B C -0.1612(2) 0.8728(6) -0.05738(15)
H13B H -0.2220 0.9322 -0.0438
C11B C -0.1156(2) 0.6911(7) -0.00963(16)
H14B H -0.1466 0.6300 0.0346
C12B C -0.02498(16) 0.5981(4) -0.02592(14)
C13B C 0.0152(2) 0.6937(8) -0.0925(2)
H15B H 0.0761 0.6355 -0.1061
C14B C -0.0313(2) 0.8736(7) -0.1405(2)
H16B H -0.0009 0.9318 -0.1854
N1B N -0.39765(13) 0.9246(4) -0.26250(11)
H17B H -0.4315 0.8292 -0.2939
N2B N -0.42970(14) 1.1110(4) -0.21117(12)
loop_
_geom_bond_atom_site_label_1
_geom_bond_atom_site_label_2
_geom_bond_site_symmetry_1
_geom_bond_site_symmetry_2
C1 H1 1_555 1_555
H2 C1 1_555 1_555
H3 C1 1_555 1_555
C2 C1 1_555 1_555
H4 C2 1_555 1_555
H5 C2 1_555 1_555
C3 C2 1_555 1_555
C4 C3 1_555 1_555
C5 C4 1_555 1_555
C6 C5 1_555 1_555
H6 C6 1_555 1_555
H7 C6 1_555 1_555
C7 C6 1_555 1_555
H8 C7 1_555 1_555
H9 C7 1_555 1_555
H10 C7 1_555 1_555
C8 C4 1_555 1_555
H11 C8 1_555 1_555
H12 C8 1_555 1_555
C9 C8 1_555 1_555
C10 C9 1_555 1_555
H13 C10 1_555 1_555
C11 C10 1_555 1_555
H14 C11 1_555 1_555
C12 C11 1_555 1_555
C13 C12 1_555 1_555
H15 C13 1_555 1_555
C14 C9 1_555 1_555
H16 C14 1_555 1_555
N1 C3 1_555 1_555
H17 N1 1_555 1_555
N2 C5 1_555 1_555
C1B H1B 1_555 1_555
H2B C1B 1_555 1_555
H3B C1B 1_555 1_555
C2B C1B 1_555 1_555
H4B C2B 1_555 1_555
H5B C2B 1_555 1_555
C3B C2B 1_555 1_555
C4B C3B 1_555 1_555
C5B C4B 1_555 1_555
C6B C5B 1_555 1_555
H6B C6B 1_555 1_555
H7B C6B 1_555 1_555
C7B C6B 1_555 1_555
H8B C7B 1_555 1_555
H9B C7B 1_555 1_555
H10B C7B 1_555 1_555
C8B C4B 1_555 1_555
H11B C8B 1_555 1_555
H12B C8B 1_555 1_555
C9B C8B 1_555 1_555
C10B C9B 1_555 1_555
H13B C10B 1_555 1_555
C11B C10B 1_555 1_555
H14B C11B 1_555 1_555
C12B C12 1_555 1_555
C13B C12B 1_555 1_555
H15B C13B 1_555 1_555
C14B C9B 1_555 1_555
H16B C14B 1_555 1_555
N1B C3B 1_555 1_555
H17B N1B 1_555 1_555
N2B C5B 1_555 1_555
C13 C14 1_555 1_555
N1 N2 1_555 1_555
C11B C12B 1_555 1_555
C13B C14B 1_555 1_555
N1B N2B 1_555 1_555

#END
