
#######################################################################
#
#                 Cambridge Crystallographic Data Centre
#                                CCDC 
#
#######################################################################
#
# If this CIF has been generated from an entry in the Cambridge 
# Structural Database, then it will include bibliographic, chemical, 
# crystal, experimental, refinement or atomic coordinate data resulting 
# from the CCDC's data processing and validation procedures.
#
#######################################################################

data_DICSIS
_chemical_formula_moiety         'C55 H35 B5 F5 N5 O10,3(C6 H6)'
_chemical_name_systematic        
"Cyclo-(pentakis((pyridine-3,4-diolato-O,O',N)(m-fluorophenyl)boron)) benzene clathrate benzene solvate"
_symmetry_cell_setting           triclinic
_symmetry_space_group_name_H-M   'P -1'
_symmetry_Int_Tables_number      2
_space_group_name_Hall           '-P 1'
loop_
_symmetry_equiv_pos_site_id
_symmetry_equiv_pos_as_xyz
1 x,y,z
2 -x,-y,-z
_cell_length_a                   13.2245(19)
_cell_length_b                   14.709(2)
_cell_length_c                   17.609(3)
_cell_angle_alpha                71.844(15)
_cell_angle_beta                 81.373(13)
_cell_angle_gamma                83.910(13)
_cell_volume                     3211.5
_exptl_crystal_colour            colorless
_exptl_crystal_description       irregular
_cell_formula_units_Z            2
loop_
_atom_site_label
_atom_site_type_symbol
_atom_site_fract_x
_atom_site_fract_y
_atom_site_fract_z
F1 F 0.2299(4) 0.3721(4) -0.0557(3)
F2 F -0.4030(5) -0.3276(5) 0.3960(4)
F3 F -0.2328(4) -0.6095(4) 0.7991(3)
F4 F 0.2285(5) -0.1644(4) 1.0213(3)
F5 F 0.6046(11) 0.4620(9) 0.3946(10)
O1 O 0.1960(4) -0.0048(4) 0.1490(3)
O2 O 0.0653(4) 0.0433(4) 0.2371(3)
O3 O 0.0363(4) -0.3778(4) 0.4080(3)
O4 O -0.0668(4) -0.2582(4) 0.4537(3)
O5 O 0.1504(4) -0.4071(4) 0.7500(3)
O6 O 0.0256(4) -0.2771(4) 0.7272(3)
O7 O 0.3766(4) -0.0272(4) 0.6994(3)
O8 O 0.2150(4) 0.0302(4) 0.6579(3)
O9 O 0.4369(4) 0.1928(4) 0.3315(3)
O10 O 0.2613(4) 0.2307(4) 0.3636(3)
N1 N 0.0366(5) -0.2113(5) 0.3176(4)
N2 N 0.0472(5) -0.3797(5) 0.6369(4)
N3 N 0.2426(5) -0.1449(5) 0.7251(4)
N4 N 0.3690(5) 0.1577(4) 0.4746(4)
N5 N 0.2373(5) 0.1067(4) 0.2174(4)
C1 C 0.1513(6) -0.0819(6) 0.2016(5)
C2 C 0.0734(6) -0.0520(6) 0.2523(5)
C3 C 0.0177(7) -0.1173(6) 0.3105(5)
H1 H -0.0345 -0.0971 0.3461
C4 C 0.1136(7) -0.2389(6) 0.2688(5)
H2 H 0.1283 -0.3056 0.2768
C5 C 0.1719(7) -0.1766(6) 0.2086(5)
H3 H 0.2239 -0.1981 0.1735
C6 C 0.0483(7) -0.3850(5) 0.4833(5)
C7 C -0.0120(7) -0.3152(5) 0.5111(5)
C8 C -0.0149(7) -0.3147(6) 0.5881(5)
H4 H -0.0595 -0.2699 0.6079
C9 C 0.1073(6) -0.4458(6) 0.6099(5)
H5 H 0.1487 -0.4909 0.6457
C10 C 0.1114(7) -0.4511(6) 0.5338(5)
H6 H 0.1553 -0.4977 0.5159
C11 C 0.1910(7) -0.3250(6) 0.7414(5)
C12 C 0.1182(6) -0.2483(6) 0.7298(5)
C13 C 0.1443(6) -0.1590(5) 0.7209(4)
H7 H 0.0943 -0.1066 0.7118
C14 C 0.3143(7) -0.2186(6) 0.7360(5)
H8 H 0.3834 -0.2065 0.7363
C15 C 0.2909(6) -0.3094(6) 0.7466(5)
H9 H 0.3416 -0.3611 0.7572
C16 C 0.3883(7) 0.0313(6) 0.6241(5)
C17 C 0.2898(7) 0.0661(6) 0.5993(5)
C18 C 0.2833(6) 0.1288(5) 0.5248(5)
H10 H 0.2180 0.1524 0.5080
C19 C 0.4618(6) 0.1245(6) 0.4998(5)
H11 H 0.5216 0.1456 0.4638
C20 C 0.4733(7) 0.0624(6) 0.5744(5)
H12 H 0.5394 0.0418 0.5907
C21 C 0.3782(6) 0.1597(5) 0.2896(4)
C22 C 0.2759(6) 0.1822(5) 0.3082(4)
C23 C 0.2062(6) 0.1582(5) 0.2703(4)
H13 H 0.1358 0.1771 0.2804
C24 C 0.3370(7) 0.0849(6) 0.2015(5)
H14 H 0.3571 0.0498 0.1641
C25 C 0.4118(7) 0.1093(6) 0.2350(5)
H15 H 0.4823 0.0930 0.2220
C26 C 0.1214(7) 0.1662(6) 0.1011(5)
C27 C 0.1872(7) 0.2342(6) 0.0552(5)
H16 H 0.2540 0.2305 0.0700
C28 C 0.1619(8) 0.3072(7) -0.0110(5)
C29 C 0.0641(8) 0.3189(7) -0.0341(5)
H17 H 0.0458 0.3697 -0.0794
C30 C -0.0048(8) 0.2537(8) 0.0114(6)
H18 H -0.0725 0.2596 -0.0023
C31 C 0.0235(7) 0.1774(6) 0.0787(5)
H19 H -0.0258 0.1331 0.1091
C32 C -0.1303(7) -0.3040(5) 0.3407(5)
C33 C -0.2273(7) -0.3101(6) 0.3852(5)
H20 H -0.2370 -0.3044 0.4382
C34 C -0.3072(8) -0.3242(7) 0.3515(6)
C35 C -0.3013(8) -0.3369(7) 0.2791(6)
H21 H -0.3603 -0.3474 0.2590
C36 C -0.2055(8) -0.3342(6) 0.2347(5)
H22 H -0.1967 -0.3439 0.1832
C37 C -0.1219(8) -0.3168(6) 0.2672(5)
H23 H -0.0563 -0.3138 0.2363
C38 C -0.0429(7) -0.4431(5) 0.7863(5)
C39 C -0.1017(7) -0.5021(6) 0.7662(5)
H24 H -0.0912 -0.5067 0.7129
C40 C -0.1739(7) -0.5535(6) 0.8205(6)
C41 C -0.1919(7) -0.5531(7) 0.8998(6)
H25 H -0.2425 -0.5901 0.9374
C42 C -0.1308(8) -0.4947(7) 0.9215(6)
H26 H -0.1397 -0.4927 0.9755
C43 C -0.0602(7) -0.4417(6) 0.8676(5)
H27 H -0.0210 -0.4024 0.8842
C44 C 0.2261(6) -0.0288(6) 0.8117(5)
C45 C 0.2416(7) -0.1016(7) 0.8808(5)
H28 H 0.2724 -0.1618 0.8774
C46 C 0.2133(8) -0.0878(8) 0.9531(5)
C47 C 0.1629(8) -0.0032(8) 0.9642(6)
H29 H 0.1409 0.0047 1.0158
C48 C 0.1488(8) 0.0659(8) 0.8949(6)
H30 H 0.1153 0.1251 0.8984
C49 C 0.1795(7) 0.0566(7) 0.8195(5)
H31 H 0.1686 0.1088 0.7729
C50 C 0.3890(6) 0.3352(6) 0.3870(5)
C51 C 0.4866(7) 0.3586(7) 0.3919(5)
H32 H 0.5411 0.3106 0.3941
C52 C 0.5086(8) 0.4462(7) 0.3936(6)
C53 C 0.4324(8) 0.5201(7) 0.3877(6)
H33 H 0.4466 0.5817 0.3886
C54 C 0.3345(8) 0.5001(6) 0.3804(5)
C55 C 0.3116(7) 0.4111(6) 0.3817(5)
H34 H 0.2430 0.3998 0.3790
B1 B 0.1511(8) 0.0816(7) 0.1719(6)
B2 B -0.0344(9) -0.2882(7) 0.3802(6)
B3 B 0.0437(8) -0.3796(7) 0.7292(6)
B4 B 0.2635(8) -0.0402(7) 0.7266(6)
B5 B 0.3648(7) 0.2343(7) 0.3873(6)
C56 C 0.4227(10) 0.3949(9) 0.1632(7)
H35 H 0.3622 0.3714 0.1973
C57 C 0.4688(11) 0.3520(9) 0.1085(7)
H36 H 0.4379 0.3014 0.0996
C58 C 0.5634(10) 0.3832(9) 0.0649(7)
H37 H 0.5993 0.3505 0.0292
C59 C 0.6032(9) 0.4597(8) 0.0738(7)
H38 H 0.6659 0.4819 0.0428
C60 C 0.5528(9) 0.5066(9) 0.1283(7)
H39 H 0.5792 0.5600 0.1365
C61 C 0.4638(10) 0.4700(9) 0.1681(7)
H40 H 0.4266 0.5021 0.2037
C62 C 0.7719(14) 0.0694(8) 0.5689(12)
H41 H 0.7972 0.0041 0.5815
C63 C 0.7807(12) 0.1273(11) 0.4893(10)
H42 H 0.8119 0.1017 0.4475
C64 C 0.7437(9) 0.2228(10) 0.4708(6)
H43 H 0.7497 0.2624 0.4164
C65 C 0.6980(8) 0.2602(8) 0.5320(8)
H44 H 0.6728 0.3254 0.5194
C66 C 0.6893(9) 0.2022(12) 0.6116(7)
H45 H 0.6581 0.2278 0.6534
C67 C 0.7262(13) 0.1068(11) 0.6300(8)
H46 H 0.7203 0.0672 0.6844
C68 C -0.4353(8) -0.1000(8) 0.1422(9)
H47 H -0.3964 -0.0529 0.1488
C69 C -0.4971(9) -0.1553(9) 0.2077(6)
H48 H -0.5004 -0.1460 0.2590
C70 C -0.5541(8) -0.2242(7) 0.1980(8)
H49 H -0.5963 -0.2620 0.2427
C71 C -0.5493(9) -0.2378(8) 0.1228(10)
H50 H -0.5882 -0.2849 0.1162
C72 C -0.4875(11) -0.1825(13) 0.0574(8)
H51 H -0.4842 -0.1918 0.0060
C73 C -0.4305(10) -0.1136(11) 0.0670(8)
H52 H -0.3883 -0.0758 0.0223
F6? F 0.2604(7) 0.5693(6) 0.3712(5)
loop_
_geom_bond_atom_site_label_1
_geom_bond_atom_site_label_2
_geom_bond_site_symmetry_1
_geom_bond_site_symmetry_2
F1 C28 1_555 1_555
F2 C34 1_555 1_555
F3 C40 1_555 1_555
F4 C46 1_555 1_555
F5 C52 1_555 1_555
O1 C1 1_555 1_555
O2 C2 1_555 1_555
O3 C6 1_555 1_555
O4 C7 1_555 1_555
O5 C11 1_555 1_555
O6 C12 1_555 1_555
O7 C16 1_555 1_555
O8 C17 1_555 1_555
O9 C21 1_555 1_555
O10 C22 1_555 1_555
N1 C3 1_555 1_555
N2 C8 1_555 1_555
N3 C13 1_555 1_555
N4 C18 1_555 1_555
N5 C23 1_555 1_555
C1 C2 1_555 1_555
C2 C3 1_555 1_555
C3 H1 1_555 1_555
C4 N1 1_555 1_555
H2 C4 1_555 1_555
C5 C1 1_555 1_555
H3 C5 1_555 1_555
C6 C7 1_555 1_555
C7 C8 1_555 1_555
C8 H4 1_555 1_555
C9 N2 1_555 1_555
H5 C9 1_555 1_555
C10 C6 1_555 1_555
H6 C10 1_555 1_555
C11 C12 1_555 1_555
C12 C13 1_555 1_555
C13 H7 1_555 1_555
C14 N3 1_555 1_555
H8 C14 1_555 1_555
C15 C11 1_555 1_555
H9 C15 1_555 1_555
C16 C17 1_555 1_555
C17 C18 1_555 1_555
C18 H10 1_555 1_555
C19 N4 1_555 1_555
H11 C19 1_555 1_555
C20 C16 1_555 1_555
H12 C20 1_555 1_555
C21 C22 1_555 1_555
C22 C23 1_555 1_555
C23 H13 1_555 1_555
C24 N5 1_555 1_555
H14 C24 1_555 1_555
C25 C21 1_555 1_555
H15 C25 1_555 1_555
C26 C27 1_555 1_555
C27 H16 1_555 1_555
C28 C27 1_555 1_555
C29 C28 1_555 1_555
H17 C29 1_555 1_555
C30 C29 1_555 1_555
H18 C30 1_555 1_555
C31 C26 1_555 1_555
H19 C31 1_555 1_555
C32 C33 1_555 1_555
C33 H20 1_555 1_555
C34 C33 1_555 1_555
C35 C34 1_555 1_555
H21 C35 1_555 1_555
C36 C35 1_555 1_555
H22 C36 1_555 1_555
C37 C32 1_555 1_555
H23 C37 1_555 1_555
C38 C39 1_555 1_555
C39 H24 1_555 1_555
C40 C39 1_555 1_555
C41 C40 1_555 1_555
H25 C41 1_555 1_555
C42 C41 1_555 1_555
H26 C42 1_555 1_555
C43 C38 1_555 1_555
H27 C43 1_555 1_555
C44 C45 1_555 1_555
C45 H28 1_555 1_555
C46 C45 1_555 1_555
C47 C46 1_555 1_555
H29 C47 1_555 1_555
C48 C47 1_555 1_555
H30 C48 1_555 1_555
C49 C44 1_555 1_555
H31 C49 1_555 1_555
C50 C51 1_555 1_555
C51 H32 1_555 1_555
C52 C51 1_555 1_555
C53 C52 1_555 1_555
H33 C53 1_555 1_555
C54 C53 1_555 1_555
C55 C50 1_555 1_555
H34 C55 1_555 1_555
B1 O1 1_555 1_555
B2 O3 1_555 1_555
B3 O5 1_555 1_555
B4 O7 1_555 1_555
B5 O9 1_555 1_555
C56 H35 1_555 1_555
C57 C56 1_555 1_555
H36 C57 1_555 1_555
C58 C57 1_555 1_555
H37 C58 1_555 1_555
C59 C58 1_555 1_555
H38 C59 1_555 1_555
C60 C59 1_555 1_555
H39 C60 1_555 1_555
C61 C56 1_555 1_555
H40 C61 1_555 1_555
C62 H41 1_555 1_555
C63 C62 1_555 1_555
H42 C63 1_555 1_555
C64 C63 1_555 1_555
H43 C64 1_555 1_555
C65 C64 1_555 1_555
H44 C65 1_555 1_555
C66 C65 1_555 1_555
H45 C66 1_555 1_555
C67 C62 1_555 1_555
H46 C67 1_555 1_555
C68 H47 1_555 1_555
C69 C68 1_555 1_555
H48 C69 1_555 1_555
C70 C69 1_555 1_555
H49 C70 1_555 1_555
C71 C70 1_555 1_555
H50 C71 1_555 1_555
C72 C71 1_555 1_555
H51 C72 1_555 1_555
C73 C68 1_555 1_555
H52 C73 1_555 1_555
O2 B1 1_555 1_555
O4 B2 1_555 1_555
O6 B3 1_555 1_555
O8 B4 1_555 1_555
O10 B5 1_555 1_555
N1 B2 1_555 1_555
N2 B3 1_555 1_555
N3 B4 1_555 1_555
N4 B5 1_555 1_555
N5 B1 1_555 1_555
C4 C5 1_555 1_555
C9 C10 1_555 1_555
C14 C15 1_555 1_555
C19 C20 1_555 1_555
C24 C25 1_555 1_555
C26 B1 1_555 1_555
C30 C31 1_555 1_555
C32 B2 1_555 1_555
C36 C37 1_555 1_555
C38 B3 1_555 1_555
C42 C43 1_555 1_555
C44 B4 1_555 1_555
C48 C49 1_555 1_555
C50 B5 1_555 1_555
C54 C55 1_555 1_555
C60 C61 1_555 1_555
C66 C67 1_555 1_555
C72 C73 1_555 1_555

#END
